# Generated by pormake.
# Topology zzz, (3,6)-cn, num edge types: 1
# Building blocks:
#     Node 0, Type 0, BuildingBlock: BETDAH_clean_linker_0, # of connection points: 3
#     Node 1, Type 0, BuildingBlock: BETDAH_clean_linker_0, # of connection points: 3
#     Node 2, Type 0, BuildingBlock: BETDAH_clean_linker_0, # of connection points: 3
#     Node 3, Type 0, BuildingBlock: BETDAH_clean_linker_0, # of connection points: 3
#     Node 4, Type 0, BuildingBlock: BETDAH_clean_linker_0, # of connection points: 3
#     Node 5, Type 0, BuildingBlock: BETDAH_clean_linker_0, # of connection points: 3
#     Node 6, Type 0, BuildingBlock: BETDAH_clean_linker_0, # of connection points: 3
#     Node 7, Type 0, BuildingBlock: BETDAH_clean_linker_0, # of connection points: 3
#     Node 8, Type 1, BuildingBlock: KUMJIN_clean_sbu_0, # of connection points: 6
#     Node 9, Type 1, BuildingBlock: KUMJIN_clean_sbu_0, # of connection points: 6
#     Node 10, Type 1, BuildingBlock: KUMJIN_clean_sbu_0, # of connection points: 6
#     Node 11, Type 1, BuildingBlock: KUMJIN_clean_sbu_0, # of connection points: 6
#     Edge 12, Type (0, 1), BuildingBlock: UVAHIK_clean_linker_0, # of connection points: 2
#     Edge 13, Type (0, 1), BuildingBlock: UVAHIK_clean_linker_0, # of connection points: 2
#     Edge 14, Type (0, 1), BuildingBlock: UVAHIK_clean_linker_0, # of connection points: 2
#     Edge 15, Type (0, 1), BuildingBlock: UVAHIK_clean_linker_0, # of connection points: 2
#     Edge 16, Type (0, 1), BuildingBlock: UVAHIK_clean_linker_0, # of connection points: 2
#     Edge 17, Type (0, 1), BuildingBlock: UVAHIK_clean_linker_0, # of connection points: 2
#     Edge 18, Type (0, 1), BuildingBlock: UVAHIK_clean_linker_0, # of connection points: 2
#     Edge 19, Type (0, 1), BuildingBlock: UVAHIK_clean_linker_0, # of connection points: 2
#     Edge 20, Type (0, 1), BuildingBlock: UVAHIK_clean_linker_0, # of connection points: 2
#     Edge 21, Type (0, 1), BuildingBlock: UVAHIK_clean_linker_0, # of connection points: 2
#     Edge 22, Type (0, 1), BuildingBlock: UVAHIK_clean_linker_0, # of connection points: 2
#     Edge 23, Type (0, 1), BuildingBlock: UVAHIK_clean_linker_0, # of connection points: 2
#     Edge 24, Type (0, 1), BuildingBlock: UVAHIK_clean_linker_0, # of connection points: 2
#     Edge 25, Type (0, 1), BuildingBlock: UVAHIK_clean_linker_0, # of connection points: 2
#     Edge 26, Type (0, 1), BuildingBlock: UVAHIK_clean_linker_0, # of connection points: 2
#     Edge 27, Type (0, 1), BuildingBlock: UVAHIK_clean_linker_0, # of connection points: 2
#     Edge 28, Type (0, 1), BuildingBlock: UVAHIK_clean_linker_0, # of connection points: 2
#     Edge 29, Type (0, 1), BuildingBlock: UVAHIK_clean_linker_0, # of connection points: 2
#     Edge 30, Type (0, 1), BuildingBlock: UVAHIK_clean_linker_0, # of connection points: 2
#     Edge 31, Type (0, 1), BuildingBlock: UVAHIK_clean_linker_0, # of connection points: 2
#     Edge 32, Type (0, 1), BuildingBlock: UVAHIK_clean_linker_0, # of connection points: 2
#     Edge 33, Type (0, 1), BuildingBlock: UVAHIK_clean_linker_0, # of connection points: 2
#     Edge 34, Type (0, 1), BuildingBlock: UVAHIK_clean_linker_0, # of connection points: 2
#     Edge 35, Type (0, 1), BuildingBlock: UVAHIK_clean_linker_0, # of connection points: 2
# Relax obj value: 0.148
# Max RMSD: 0.153
# Mean RMSD: 0.113
data_MOF--net-zzz--node1-KUMJIN_clean_sbu_0--node2-BETDAH_clean_linker_0--edge1-UVAHIK_clean_linker_0
_symmetry_space_group_name_H-M    P1
_symmetry_Int_Tables_number       1
_symmetry_cell_setting            triclinic
loop_
_symmetry_equiv_pos_as_xyz
'x, y, z'
_cell_length_a     65.746122
_cell_length_b     65.606286
_cell_length_c     19.090631
_cell_angle_alpha  90.862334
_cell_angle_beta   90.012386
_cell_angle_gamma 89.899937
loop_
_atom_site_label
_atom_site_type_symbol
_atom_site_fract_x
_atom_site_fract_y
_atom_site_fract_z
_atom_type_partial_charge
H0 H 0.79894 0.55309 0.16941 0.0
H1 H 0.74077 0.53812 0.08092 0.0
H2 H 0.75638 0.51787 0.28824 0.0
C3 C 0.78396 0.5464 0.17523 0.0
C4 C 0.77933 0.5357 0.23615 0.0
C5 C 0.77021 0.54708 0.11918 0.0
C6 C 0.75115 0.53773 0.12494 0.0
C7 C 0.74581 0.52757 0.18667 0.0
C8 C 0.76016 0.52625 0.24153 0.0
N9 N 0.72644 0.51813 0.19445 0.0
C10 C 0.71073 0.51886 0.14518 0.0
H11 H 0.97186 0.81722 0.12786 0.0
H12 H 0.98347 0.75687 0.04884 0.0
H13 H 0.0086 0.77596 0.24781 0.0
C14 C 0.97878 0.8024 0.13495 0.0
C15 C 0.9908 0.79888 0.19453 0.0
C16 C 0.97634 0.7875 0.08208 0.0
C17 C 0.9852 0.76823 0.09015 0.0
C18 C 0.99645 0.76379 0.15076 0.0
C19 C 0.99927 0.77921 0.20255 0.0
N20 N 1.00557 0.74425 0.16015 0.0
C21 C 1.00487 0.72803 0.1116 0.0
H22 H 0.71658 0.97524 0.18075 0.0
H23 H 0.77728 0.98468 0.10609 0.0
H24 H 0.75996 1.0068 0.31143 0.0
C25 C 0.732 0.98045 0.19038 0.0
C26 C 0.73649 0.99081 0.25326 0.0
C27 C 0.74656 0.97849 0.13704 0.0
C28 C 0.76624 0.98609 0.14789 0.0
C29 C 0.77136 0.99601 0.21128 0.0
C30 C 0.75628 0.99862 0.26336 0.0
N31 N 0.79123 1.00405 0.22312 0.0
C32 C 0.80733 1.00254 0.17542 0.0
H33 H 0.55518 0.72766 0.19012 0.0
H34 H 0.54135 0.787 0.11178 0.0
H35 H 0.53034 0.77353 0.32917 0.0
C36 C 0.55013 0.74321 0.19986 0.0
C37 C 0.54311 0.74891 0.26667 0.0
C38 C 0.54931 0.75681 0.14409 0.0
C39 C 0.54209 0.77668 0.15548 0.0
C40 C 0.53562 0.78299 0.22277 0.0
C41 C 0.5358 0.76889 0.27779 0.0
N42 N 0.52859 0.80321 0.23636 0.0
C43 C 0.52857 0.81862 0.1868 0.0
H44 H 0.22539 0.48235 0.08015 0.0
H45 H 0.28531 0.4955 0.15624 0.0
H46 H 0.27002 0.50716 0.94033 0.0
C47 C 0.24078 0.48744 0.06975 0.0
C48 C 0.24588 0.49437 1.00291 0.0
C49 C 0.25489 0.48794 0.12464 0.0
C50 C 0.27463 0.49503 0.11303 0.0
C51 C 0.28033 0.50181 0.04619 0.0
C52 C 0.26578 0.5017 0.99157 0.0
N53 N 0.30039 0.509 0.03268 0.0
C54 C 0.31609 0.50957 0.08208 0.0
H55 H 0.05265 0.22218 0.08639 0.0
H56 H 0.03959 0.28172 0.17116 0.0
H57 H 0.01636 0.26401 0.96789 0.0
C58 C 0.04612 0.23723 0.07996 0.0
C59 C 0.0347 0.24132 0.01969 0.0
C60 C 0.04768 0.25162 0.13483 0.0
C61 C 0.03848 0.27079 0.12826 0.0
C62 C 0.02745 0.27558 0.06757 0.0
C63 C 0.02532 0.26061 0.01392 0.0
N64 N 0.01792 0.29499 0.05988 0.0
C65 C 0.01875 0.31105 0.10899 0.0
H66 H 0.31297 0.05081 0.08218 0.0
H67 H 0.25091 0.04874 0.15344 0.0
H68 H 0.26575 0.03187 0.94063 0.0
C69 C 0.29694 0.04839 0.07193 0.0
C70 C 0.29105 0.04176 0.00483 0.0
C71 C 0.28265 0.05071 0.12643 0.0
C72 C 0.26204 0.04667 0.11227 0.0
C73 C 0.2558 0.0398 0.04549 0.0
C74 C 0.27044 0.03727 0.99206 0.0
N75 N 0.23505 0.03506 0.03083 0.0
C76 C 0.21933 0.03567 0.08019 0.0
H77 H 0.47452 0.30793 0.05887 0.0
H78 H 0.47701 0.24556 0.12064 0.0
H79 H 0.48083 0.26046 0.90189 0.0
C80 C 0.47523 0.29192 0.04417 0.0
C81 C 0.47725 0.28622 0.97323 0.0
C82 C 0.47506 0.27736 0.09718 0.0
C83 C 0.47715 0.25668 0.07939 0.0
C84 C 0.47926 0.25047 0.00886 0.0
C85 C 0.47932 0.26531 0.95614 0.0
N86 N 0.4814 0.22951 0.98951 0.0
C87 C 0.48184 0.21362 0.03734 0.0
Eu88 Eu 0.03309 0.01237 0.70326 0.0
C89 C 0.95835 0.99199 0.50512 0.0
C90 C 0.97103 0.96825 0.41718 0.0
C91 C 0.93529 0.96778 0.44895 0.0
C92 C 0.97442 0.98428 0.46617 0.0
C93 C 0.93853 0.98411 0.4959 0.0
C94 C 0.95151 0.95985 0.40973 0.0
C95 C 0.92618 0.01003 0.57638 0.0
N96 N 0.96187 1.00778 0.54999 0.0
C97 C 0.94604 0.01731 0.58377 0.0
C98 C 0.92244 0.99317 0.53293 0.0
Eu99 Eu 0.99586 0.0193 0.56198 0.0
N100 N 0.99319 0.99269 0.47478 0.0
C101 C 0.00894 0.98609 0.43316 0.0
C102 C 0.98728 0.96125 0.37633 0.0
C103 C 1.00627 0.97029 0.38413 0.0
H104 H 0.94884 0.03033 0.61772 0.0
H105 H 0.01898 0.96499 0.35271 0.0
H106 H 0.94874 0.94744 0.37288 0.0
H107 H 0.91381 0.01738 0.60438 0.0
H108 H 0.02397 0.99215 0.43823 0.0
H109 H 0.00891 0.06697 0.90862 0.0
H110 H 0.9853 0.949 0.33824 0.0
H111 H 0.08054 1.00235 0.64813 0.0
H112 H 1.00524 0.03782 0.82914 0.0
H113 H 0.11494 0.01739 0.65628 0.0
H114 H 0.92022 0.96142 0.44165 0.0
H115 H 0.04115 0.08618 0.91318 0.0
H116 H 0.07717 0.0898 0.8731 0.0
H117 H 0.90703 0.98755 0.52721 0.0
H118 H 0.10601 0.07639 0.80447 0.0
N119 N 0.03508 0.04003 0.78583 0.0
C120 C 0.01954 0.04562 0.82985 0.0
C121 C 0.0397 0.07319 0.87782 0.0
C122 C 0.05597 0.06682 0.83577 0.0
C123 C 0.02151 0.06236 0.8755 0.0
C124 C 0.05325 0.04986 0.7902 0.0
H125 H 0.12032 0.04924 0.72476 0.0
N126 N 0.0666 0.02565 0.71037 0.0
C127 C 0.10228 0.02467 0.68295 0.0
C128 C 0.06945 0.04247 0.75119 0.0
C129 C 0.08282 0.01619 0.67858 0.0
C130 C 0.10523 0.04267 0.72144 0.0
C131 C 0.08881 0.05163 0.75709 0.0
O132 O 0.0548 0.99297 0.75712 0.0
O133 O 0.01379 0.9967 0.62237 0.0
O134 O 0.97981 1.00391 0.65278 0.0
O135 O 1.00075 0.01182 0.74794 0.0
O136 O 0.04313 0.98604 0.63188 0.0
O137 O 0.02318 0.99237 0.78738 0.0
O138 O 0.97551 0.03974 0.50578 0.0
O139 O 0.01473 0.0349 0.6444 0.0
O140 O 0.04881 0.02728 0.61077 0.0
O141 O 0.02805 0.01813 0.51666 0.0
O142 O 0.9847 0.04371 0.63896 0.0
O143 O 0.00782 0.0425 0.49168 0.0
C144 C 0.02601 0.9832 0.60049 0.0
C145 C 0.04174 0.96118 0.78729 0.0
C146 C 0.02704 0.92822 0.75359 0.0
C147 C 0.02556 0.94963 0.75911 0.0
C148 C 0.04526 0.91874 0.77481 0.0
C149 C 0.05962 0.95131 0.8081 0.0
C150 C 0.0614 0.93023 0.80135 0.0
C151 C 0.9831 1.00571 0.72109 0.0
C152 C 0.0409 0.98357 0.7924 0.0
C153 C 0.09132 0.06902 0.79993 0.0
C154 C 0.07491 0.07662 0.83908 0.0
C155 C 1.0019 0.04747 0.66867 0.0
C156 C 0.98925 0.0731 0.5085 0.0
C157 C 1.00605 0.08596 0.49848 0.0
C158 C 1.00624 0.10588 0.52696 0.0
C159 C 0.98948 0.11277 0.56642 0.0
C160 C 0.9724 0.08057 0.5466 0.0
C161 C 0.97265 0.1002 0.57571 0.0
C162 C 0.04564 0.02463 0.54273 0.0
C163 C 0.99024 0.05144 0.48546 0.0
H164 H 0.01186 0.95727 0.74183 0.0
H165 H 0.04689 0.90232 0.77349 0.0
H166 H 0.0723 0.95997 0.82922 0.0
H167 H 0.07523 0.92272 0.81782 0.0
H168 H 0.01912 0.08035 0.46937 0.0
H169 H 0.98909 0.12808 0.58835 0.0
H170 H 0.95922 0.0711 0.55566 0.0
H171 H 0.95973 0.10569 0.6057 0.0
Eu172 Eu 0.51334 0.03413 0.68148 0.0
C173 C 0.54671 0.97225 0.47109 0.0
C174 C 0.56508 0.99375 0.39105 0.0
C175 C 0.57789 0.95992 0.41567 0.0
C176 C 0.54856 0.99058 0.43718 0.0
C177 C 0.56106 0.95649 0.45904 0.0
C178 C 0.57989 0.97853 0.38171 0.0
C179 C 0.53989 0.93416 0.52637 0.0
N180 N 0.53031 0.96934 0.51272 0.0
C181 C 0.52608 0.95016 0.53616 0.0
C182 C 0.55772 0.93747 0.4889 0.0
Eu183 Eu 0.50789 0.99763 0.53229 0.0
N184 N 0.53416 1.00519 0.44837 0.0
C185 C 0.53496 0.02281 0.4105 0.0
C186 C 0.56626 0.01209 0.35528 0.0
C187 C 0.55098 0.02654 0.36437 0.0
H188 H 0.51189 0.94713 0.56234 0.0
H189 H 0.55154 0.0407 0.33602 0.0
H190 H 0.59279 0.98087 0.34742 0.0
H191 H 0.53661 0.91924 0.54693 0.0
H192 H 0.52366 0.0345 0.41502 0.0
H193 H 0.45926 1.00136 0.87207 0.0
H194 H 0.57873 0.01512 0.31984 0.0
H195 H 0.5217 0.08329 0.65067 0.0
H196 H 0.48725 1.00053 0.79066 0.0
H197 H 0.50615 0.11693 0.67566 0.0
H198 H 0.58917 0.94811 0.40665 0.0
H199 H 0.44061 0.03332 0.89605 0.0
H200 H 0.43683 0.07059 0.87657 0.0
H201 H 0.56835 0.92501 0.48081 0.0
H202 H 0.4492 0.10191 0.82232 0.0
N203 N 0.48587 0.03235 0.76517 0.0
C204 C 0.48016 0.01505 0.79976 0.0
C205 C 0.45332 0.03328 0.85989 0.0
C206 C 0.45946 0.05109 0.82708 0.0
C207 C 0.46384 0.01525 0.84663 0.0
C208 C 0.47605 0.05022 0.77984 0.0
H209 H 0.47506 0.11934 0.74819 0.0
N210 N 0.49921 0.06677 0.70614 0.0
C211 C 0.49932 0.10327 0.69624 0.0
C212 C 0.48284 0.06787 0.74904 0.0
C213 C 0.50803 0.08421 0.68209 0.0
C214 C 0.48178 0.10455 0.73705 0.0
C215 C 0.47352 0.08681 0.76504 0.0
O216 O 0.53218 0.05472 0.74504 0.0
O217 O 0.52945 0.01589 0.59804 0.0
O218 O 0.51585 0.97922 0.62872 0.0
O219 O 0.51527 1.00212 0.72382 0.0
O220 O 0.53709 0.04646 0.60731 0.0
O221 O 0.53769 0.02248 0.74812 0.0
O222 O 0.49278 0.97221 0.47909 0.0
O223 O 0.49178 0.01646 0.61387 0.0
O224 O 0.50135 0.05265 0.59016 0.0
O225 O 0.4993 0.02945 0.4961 0.0
O226 O 0.48139 0.98697 0.59891 0.0
O227 O 0.48646 1.00293 0.44682 0.0
C228 C 0.54158 0.02937 0.57675 0.0
C229 C 0.56651 0.04371 0.74251 0.0
C230 C 0.60099 0.03011 0.73161 0.0
C231 C 0.58086 0.02838 0.75571 0.0
C232 C 0.60661 0.04737 0.69351 0.0
C233 C 0.57259 0.06107 0.70549 0.0
C234 C 0.59249 0.06277 0.68092 0.0
C235 C 0.517 0.98354 0.69657 0.0
C236 C 0.54497 0.04052 0.76177 0.0
C237 C 0.45665 0.08756 0.80996 0.0
C238 C 0.44964 0.06973 0.84093 0.0
C239 C 0.47817 1.004 0.63178 0.0
C240 C 0.4589 0.97957 0.45171 0.0
C241 C 0.44513 0.99478 0.47413 0.0
C242 C 0.42461 0.98999 0.48643 0.0
C243 C 0.41813 0.96969 0.47732 0.0
C244 C 0.45201 0.95949 0.44215 0.0
C245 C 0.43176 0.95459 0.45535 0.0
C246 C 0.49767 0.04808 0.52344 0.0
C247 C 0.48076 0.98391 0.44366 0.0
H248 H 0.57622 0.01488 0.7836 0.0
H249 H 0.62205 0.04921 0.67487 0.0
H250 H 0.56189 0.07314 0.69397 0.0
H251 H 0.59697 0.07607 0.65184 0.0
H252 H 0.45033 0.0103 0.48248 0.0
H253 H 0.40235 0.96555 0.48489 0.0
H254 H 0.4624 0.94753 0.42552 0.0
H255 H 0.42657 0.93906 0.44799 0.0
Eu256 Eu 0.53594 0.51029 0.55482 0.0
C257 C 0.44684 0.5012 0.67283 0.0
C258 C 0.42482 0.52065 0.59726 0.0
C259 C 0.41166 0.49083 0.65596 0.0
C260 C 0.44404 0.51724 0.6279 0.0
C261 C 0.43061 0.48799 0.68839 0.0
C262 C 0.40877 0.50714 0.61048 0.0
C263 C 0.45264 0.47102 0.7705 0.0
N264 N 0.46526 0.49898 0.70352 0.0
C265 C 0.46819 0.48461 0.75374 0.0
C266 C 0.43381 0.47258 0.73714 0.0
Eu267 Eu 0.49152 0.52137 0.66881 0.0
N268 N 0.45992 0.52991 0.61597 0.0
C269 C 0.45715 0.54711 0.57759 0.0
C270 C 0.42221 0.53773 0.5552 0.0
C271 C 0.43838 0.55115 0.54611 0.0
H272 H 0.4828 0.48323 0.7792 0.0
H273 H 0.43647 0.56456 0.51442 0.0
H274 H 0.39397 0.5094 0.58681 0.0
H275 H 0.4552 0.45935 0.80899 0.0
H276 H 0.46942 0.55761 0.56937 0.0
H277 H 0.59228 0.47057 0.71402 0.0
H278 H 0.40772 0.54084 0.53045 0.0
H279 H 0.54366 0.54666 0.43672 0.0
H280 H 0.55909 0.47586 0.65775 0.0
H281 H 0.57071 0.57054 0.40158 0.0
H282 H 0.39905 0.48074 0.66677 0.0
H283 H 0.62022 0.4951 0.69541 0.0
H284 H 0.63302 0.52628 0.63461 0.0
H285 H 0.42175 0.46208 0.75036 0.0
H286 H 0.62719 0.55346 0.54933 0.0
N287 N 0.56773 0.50346 0.60873 0.0
C288 C 0.57106 0.48669 0.64877 0.0
C289 C 0.60564 0.4975 0.67036 0.0
C290 C 0.60251 0.51401 0.62611 0.0
C291 C 0.58993 0.48361 0.68087 0.0
C292 C 0.5832 0.51647 0.59505 0.0
H293 H 0.60412 0.56986 0.46126 0.0
N294 N 0.5615 0.53287 0.516 0.0
C295 C 0.57351 0.55972 0.44275 0.0
C296 C 0.57996 0.53169 0.54721 0.0
C297 C 0.55826 0.54614 0.46258 0.0
C298 C 0.59232 0.55934 0.47673 0.0
C299 C 0.59585 0.54501 0.52897 0.0
O300 O 0.53892 0.50273 0.44379 0.0
O301 O 0.50228 0.51251 0.5629 0.0
O302 O 0.49072 0.48804 0.63474 0.0
O303 O 0.52521 0.48221 0.61491 0.0
O304 O 0.51468 0.52322 0.47159 0.0
O305 O 0.54367 0.47932 0.52105 0.0
O306 O 0.48726 0.52737 0.78043 0.0
O307 O 0.52523 0.51906 0.6613 0.0
O308 O 0.53686 0.54372 0.58635 0.0
O309 O 0.50251 0.54959 0.60973 0.0
O310 O 0.51241 0.50728 0.75045 0.0
O311 O 0.48687 0.55249 0.70807 0.0
C312 C 0.49791 0.51997 0.50442 0.0
C313 C 0.52481 0.47029 0.41927 0.0
C314 C 0.50319 0.43994 0.41563 0.0
C315 C 0.51845 0.45173 0.44828 0.0
C316 C 0.49422 0.44715 0.35368 0.0
C317 C 0.51567 0.477 0.35716 0.0
C318 C 0.50039 0.46555 0.32502 0.0
C319 C 0.50656 0.47564 0.62866 0.0
C320 C 0.54011 0.4832 0.45527 0.0
C321 C 0.61484 0.54325 0.56209 0.0
C322 C 0.61816 0.52777 0.61063 0.0
C323 C 0.52932 0.5111 0.71928 0.0
C324 C 0.50595 0.55688 0.8125 0.0
C325 C 0.51272 0.57646 0.7944 0.0
C326 C 0.53022 0.58488 0.8258 0.0
C327 C 0.54091 0.57348 0.87568 0.0
C328 C 0.51668 0.54601 0.86377 0.0
C329 C 0.53411 0.55423 0.89458 0.0
C330 C 0.52111 0.55616 0.59461 0.0
C331 C 0.4891 0.54704 0.77318 0.0
H332 H 0.52527 0.44653 0.49647 0.0
H333 H 0.48283 0.43831 0.32582 0.0
H334 H 0.52019 0.49122 0.33364 0.0
H335 H 0.49343 0.47085 0.2772 0.0
H336 H 0.50465 0.58498 0.75488 0.0
H337 H 0.55425 0.57966 0.90158 0.0
H338 H 0.51194 0.53092 0.87903 0.0
H339 H 0.54239 0.54562 0.93326 0.0
Eu340 Eu 0.02179 0.53788 0.5463 0.0
C341 C 0.02347 0.45487 0.70509 0.0
C342 C 1.00435 0.43161 0.631 0.0
C343 C 0.03178 0.41872 0.70328 0.0
C344 C 0.0083 0.45155 0.65629 0.0
C345 C 0.03505 0.43844 0.73055 0.0
C346 C 0.01648 0.41532 0.65345 0.0
C347 C 0.05111 0.46192 0.81197 0.0
N348 N 0.02624 0.47406 0.73035 0.0
C349 C 0.03932 0.47771 0.78485 0.0
C350 C 0.0492 0.44224 0.78398 0.0
Eu351 Eu 1.0068 0.50044 0.67941 0.0
N352 N 0.99681 0.46764 0.63596 0.0
C353 C 0.98008 0.46443 0.59461 0.0
C354 C 0.988 0.42853 0.58526 0.0
C355 C 0.97562 0.44497 0.56795 0.0
H356 H 0.04111 0.493 0.80581 0.0
H357 H 0.96268 0.4427 0.53367 0.0
H358 H 0.01381 0.39996 0.63395 0.0
H359 H 0.06179 0.46498 0.85397 0.0
H360 H 0.97026 0.47676 0.57977 0.0
H361 H 0.06604 0.59398 0.70005 0.0
H362 H 0.98453 0.41349 0.5644 0.0
H363 H 0.99054 0.54822 0.41316 0.0
H364 H 0.05848 0.56067 0.64835 0.0
H365 H 0.96938 0.57664 0.37042 0.0
H366 H 0.04068 0.40594 0.72157 0.0
H367 H 0.04388 0.62348 0.67577 0.0
H368 H 0.01433 0.63786 0.60956 0.0
H369 H 0.05837 0.43002 0.80496 0.0
H370 H 0.9878 0.63315 0.51982 0.0
N371 N 0.03176 0.57034 0.59457 0.0
C372 C 0.04859 0.57309 0.63587 0.0
C373 C 0.04046 0.60875 0.65221 0.0
C374 C 0.02405 0.60627 0.60642 0.0
C375 C 0.05302 0.59216 0.66583 0.0
C376 C 0.02022 0.5867 0.57749 0.0
H377 H 0.97118 0.61046 0.42932 0.0
N378 N 1.00327 0.56544 0.49746 0.0
C379 C 0.9793 0.57895 0.41509 0.0
C380 C 1.00536 0.58411 0.5275 0.0
C381 C 0.99124 0.56289 0.43951 0.0
C382 C 0.98032 0.59798 0.44855 0.0
C383 C 0.99383 0.60089 0.50446 0.0
O384 O 0.0295 0.54035 0.43544 0.0
O385 O 0.0175 0.50491 0.57033 0.0
O386 O 0.0406 0.49631 0.65794 0.0
O387 O 0.04888 0.5282 0.61448 0.0
O388 O 1.00674 0.51443 0.47468 0.0
O389 O 0.05323 0.53445 0.50996 0.0
O390 O 1.00083 0.50063 0.79172 0.0
O391 O 0.0101 0.53361 0.65469 0.0
O392 O 0.98717 0.53844 0.55126 0.0
O393 O 0.97882 0.50954 0.61573 0.0
O394 O 0.02197 0.52424 0.74918 0.0
O395 O 0.97559 0.49993 0.71915 0.0
C396 C 0.00937 0.49883 0.51383 0.0
C397 C 0.05387 0.51515 0.40455 0.0
C398 C 0.07823 0.48756 0.38324 0.0
C399 C 0.07314 0.50641 0.41491 0.0
C400 C 0.0636 0.47736 0.34194 0.0
C401 C 0.03981 0.50501 0.36064 0.0
C402 C 0.0446 0.48614 0.33041 0.0
C403 C 0.05407 0.51062 0.64321 0.0
C404 C 0.04798 0.53381 0.44424 0.0
C405 C 0.9967 0.62013 0.53608 0.0
C406 C 0.01181 0.62282 0.58708 0.0
C407 C 0.01834 0.53981 0.71086 0.0
C408 C 0.97267 0.5219 0.81842 0.0
C409 C 0.95253 0.52777 0.80447 0.0
C410 C 0.94455 0.54612 0.8322 0.0
C411 C 0.95708 0.55851 0.87478 0.0
C412 C 0.98476 0.53446 0.86195 0.0
C413 C 0.97701 0.55267 0.88946 0.0
C414 C 0.97391 0.52502 0.57509 0.0
C415 C 0.98137 0.50353 0.7836 0.0
H416 H 0.0842 0.51442 0.44712 0.0
H417 H 0.0669 0.46265 0.31801 0.0
H418 H 0.02489 0.51135 0.35081 0.0
H419 H 0.03351 0.47824 0.29811 0.0
H420 H 0.9432 0.51812 0.77114 0.0
H421 H 0.95139 0.57251 0.89834 0.0
H422 H 1.00034 0.53044 0.87403 0.0
H423 H 0.98649 0.56229 0.9224 0.0
C424 C 0.18339 0.02754 0.10486 0.0
C425 C 0.20202 0.03563 0.1275 0.0
C426 C 0.16652 0.02744 0.14976 0.0
C427 C 0.15198 0.03124 0.3382 0.0
H428 H 0.09824 0.04149 0.26272 0.0
C429 C 0.08068 0.0383 0.51683 0.0
C430 C 0.0629 0.02835 0.49364 0.0
C431 C 0.09754 0.04032 0.47244 0.0
C432 C 0.1131 0.03841 0.28468 0.0
H433 H 0.21783 0.05 0.21443 0.0
H434 H 0.18837 0.05005 0.29305 0.0
H435 H 0.12778 0.04262 0.18583 0.0
H436 H 0.04867 0.01408 0.40292 0.0
H437 H 0.07789 0.01744 0.32613 0.0
H438 H 0.13724 0.02699 0.43707 0.0
C439 C 0.18672 0.04353 0.24093 0.0
C440 C 0.1301 0.03903 0.24043 0.0
C441 C 0.2036 0.04362 0.19584 0.0
C442 C 0.06212 0.02145 0.42354 0.0
C443 C 0.07893 0.02353 0.37904 0.0
C444 C 0.13497 0.03065 0.3825 0.0
C445 C 0.1679 0.03547 0.21851 0.0
C446 C 0.1498 0.03533 0.26637 0.0
C447 C 0.09701 0.03272 0.40309 0.0
C448 C 0.11525 0.0341 0.35631 0.0
H449 H 0.18187 0.02122 0.05234 0.0
H450 H 0.15246 0.0208 0.13078 0.0
H451 H 0.16682 0.02802 0.36009 0.0
H452 H 0.08161 0.04462 0.56938 0.0
H453 H 0.11098 0.04796 0.49243 0.0
C454 C 0.47747 0.1771 0.06351 0.0
C455 C 0.48238 0.19691 0.08608 0.0
C456 C 0.47814 0.16087 0.11043 0.0
C457 C 0.50003 0.14616 0.28249 0.0
H458 H 0.45998 0.10288 0.2724 0.0
C459 C 0.49458 0.08548 0.49656 0.0
C460 C 0.49268 0.065 0.47477 0.0
C461 C 0.49218 0.10135 0.44919 0.0
C462 C 0.47138 0.11476 0.27553 0.0
H463 H 0.49181 0.21554 0.17463 0.0
H464 H 0.49258 0.18744 0.25714 0.0
H465 H 0.45822 0.13099 0.19006 0.0
H466 H 0.48569 0.0454 0.38532 0.0
H467 H 0.48148 0.07313 0.30268 0.0
H468 H 0.5131 0.13004 0.36817 0.0
C469 C 0.48852 0.18418 0.20316 0.0
C470 C 0.47041 0.13089 0.22819 0.0
C471 C 0.48792 0.20036 0.15612 0.0
C472 C 0.48741 0.06093 0.40437 0.0
C473 C 0.48491 0.07686 0.35685 0.0
C474 C 0.50093 0.13013 0.32993 0.0
C475 C 0.48371 0.16417 0.18099 0.0
C476 C 0.4847 0.14686 0.2311 0.0
C477 C 0.48768 0.09727 0.37842 0.0
C478 C 0.48659 0.11425 0.32729 0.0
H479 H 0.47323 0.17413 0.00947 0.0
H480 H 0.47461 0.14569 0.09103 0.0
H481 H 0.51159 0.15788 0.28558 0.0
H482 H 0.49846 0.08938 0.54979 0.0
H483 H 0.49404 0.1169 0.46803 0.0
C484 C 0.33629 0.49547 0.18008 0.0
C485 C 0.33315 0.51068 0.13037 0.0
C486 C 0.35317 0.49635 0.22513 0.0
C487 C 0.39269 0.53205 0.29554 0.0
H488 H 0.4224 0.48246 0.33545 0.0
C489 C 0.47323 0.53347 0.41732 0.0
C490 C 0.47798 0.51906 0.46838 0.0
C491 C 0.45488 0.53232 0.38018 0.0
C492 C 0.41415 0.49643 0.32568 0.0
H493 H 0.3449 0.53869 0.08826 0.0
H494 H 0.37444 0.54025 0.16609 0.0
H495 H 0.39166 0.48081 0.26389 0.0
H496 H 0.46787 0.49132 0.51746 0.0
H497 H 0.43568 0.48932 0.45312 0.0
H498 H 0.41528 0.54768 0.35679 0.0
C499 C 0.36385 0.52776 0.1715 0.0
C500 C 0.39646 0.49549 0.28455 0.0
C501 C 0.34699 0.52684 0.12655 0.0
C502 C 0.46433 0.50299 0.47984 0.0
C503 C 0.44601 0.50171 0.44226 0.0
C504 C 0.41036 0.53299 0.33658 0.0
C505 C 0.36726 0.51249 0.22138 0.0
C506 C 0.38558 0.51332 0.26818 0.0
C507 C 0.44097 0.51645 0.39215 0.0
C508 C 0.42149 0.51523 0.35157 0.0
H509 H 0.32575 0.48286 0.18391 0.0
H510 H 0.3551 0.48444 0.26325 0.0
H511 H 0.38455 0.54606 0.28548 0.0
H512 H 0.48371 0.54575 0.40639 0.0
H513 H 0.45177 0.5437 0.34109 0.0
C514 C 0.03201 0.33127 0.21091 0.0
C515 C 0.01827 0.32896 0.15506 0.0
C516 C 0.03164 0.34897 0.25357 0.0
C517 C 0.01369 0.40298 0.25298 0.0
H518 H 0.02177 0.40122 0.45403 0.0
C519 C 0.99649 0.47294 0.42842 0.0
C520 C 0.01001 0.47792 0.48293 0.0
C521 C 0.99803 0.45432 0.39217 0.0
C522 C 0.01971 0.40201 0.39784 0.0
H523 H 0.99325 0.34299 0.10029 0.0
H524 H 0.99238 0.37366 0.17444 0.0
H525 H 0.02346 0.36966 0.38388 0.0
H526 H 0.03619 0.46744 0.54106 0.0
H527 H 0.03885 0.43459 0.47795 0.0
H528 H 0.00991 0.43521 0.26651 0.0
C529 C 1.00369 0.36211 0.18525 0.0
C530 C 0.02068 0.38389 0.3575 0.0
C531 C 1.00406 0.34446 0.14291 0.0
C532 C 0.02521 0.46378 0.50052 0.0
C533 C 0.02676 0.44501 0.46412 0.0
C534 C 0.01272 0.42101 0.29311 0.0
C535 C 0.01757 0.36476 0.24096 0.0
C536 C 0.01743 0.38407 0.28447 0.0
C537 C 0.01334 0.44015 0.40865 0.0
C538 C 0.01545 0.42081 0.36625 0.0
H539 H 0.04315 0.31951 0.22121 0.0
H540 H 0.04268 0.35045 0.29544 0.0
H541 H 0.01162 0.40393 0.19685 0.0
H542 H 0.98476 0.48363 0.41323 0.0
H543 H 0.98722 0.45107 0.3507 0.0
C544 C 0.84401 1.00775 0.15393 0.0
C545 C 0.82487 1.0016 0.12919 0.0
C546 C 0.86106 1.00698 0.10987 0.0
C547 C 0.87612 1.00429 0.9216 0.0
H548 H 0.92857 0.98899 0.99759 0.0
C549 C 0.9473 0.99374 0.74466 0.0
C550 C 0.96564 1.0022 0.76954 0.0
C551 C 0.93022 0.99239 0.78836 0.0
C552 C 0.91409 0.99347 0.97553 0.0
H553 H 0.80836 0.98985 0.03931 0.0
H554 H 0.83812 0.98819 0.96231 0.0
H555 H 0.89868 0.98933 0.07311 0.0
H556 H 0.98058 0.01449 0.86227 0.0
H557 H 0.95097 0.01221 0.93799 0.0
H558 H 0.89158 0.00845 0.824 0.0
C559 C 0.84005 0.99387 0.01543 0.0
C560 C 0.89689 0.9937 0.019 0.0
C561 C 0.82299 0.99468 0.05963 0.0
C562 C 0.96672 0.00822 0.84053 0.0
C563 C 0.94968 1.00678 0.88434 0.0
C564 C 0.89332 1.00401 0.87808 0.0
C565 C 0.85938 1.0 0.0399 0.0
C566 C 0.87765 0.99924 0.99286 0.0
C567 C 0.93107 0.99917 0.85862 0.0
C568 C 0.91259 0.99872 0.9045 0.0
H569 H 0.84578 0.01324 0.2074 0.0
H570 H 0.87553 0.01215 0.1305 0.0
H571 H 0.86169 0.00894 0.8996 0.0
H572 H 0.94604 0.98823 0.69116 0.0
H573 H 0.91633 0.98597 0.76704 0.0
C574 C 0.53555 0.85433 0.15565 0.0
C575 C 0.52837 0.83493 0.13659 0.0
C576 C 0.53498 0.87027 0.10765 0.0
C577 C 0.50907 0.88648 0.94505 0.0
H578 H 0.55348 0.92511 0.934 0.0
C579 C 0.51265 0.9467 0.72768 0.0
C580 C 0.51937 0.96639 0.746 0.0
C581 C 0.51429 0.93067 0.77488 0.0
C582 C 0.54084 0.9146 0.9369 0.0
H583 H 0.51518 0.81663 0.05323 0.0
H584 H 0.51427 0.84439 0.96876 0.0
H585 H 0.55542 0.89712 0.01654 0.0
H586 H 0.5329 0.98468 0.82924 0.0
H587 H 0.53556 0.95677 0.91203 0.0
H588 H 0.49443 0.90396 0.86577 0.0
C589 C 0.52012 0.84749 0.02085 0.0
C590 C 0.54195 0.89852 0.98428 0.0
C591 C 0.52073 0.83156 0.06891 0.0
C592 C 0.52768 0.96967 0.81314 0.0
C593 C 0.52934 0.95362 0.86048 0.0
C594 C 0.50795 0.90255 0.89777 0.0
C595 C 0.52716 0.8671 0.03965 0.0
C596 C 0.52609 0.88422 0.98895 0.0
C597 C 0.52258 0.9339 0.84207 0.0
C598 C 0.52382 0.91682 0.8929 0.0
H599 H 0.54146 0.85721 0.20785 0.0
H600 H 0.54031 0.88519 0.12432 0.0
H601 H 0.49639 0.87601 0.94801 0.0
H602 H 0.50558 0.94371 0.67755 0.0
H603 H 0.50906 0.9157 0.75852 0.0
C604 C 0.67852 0.50338 0.105 0.0
C605 C 0.69332 0.51857 0.09832 0.0
C606 C 0.66124 0.50327 0.06204 0.0
C607 C 0.64009 0.5234 0.89567 0.0
H608 H 0.58861 0.50901 0.9805 0.0
C609 C 0.56247 0.52857 0.74768 0.0
C610 C 0.54882 0.51241 0.75786 0.0
C611 C 0.5803 0.53015 0.78794 0.0
C612 C 0.60287 0.51286 0.95562 0.0
H613 H 0.70199 0.54547 0.04156 0.0
H614 H 0.67168 0.54544 0.96624 0.0
H615 H 0.61925 0.51006 0.05182 0.0
H616 H 0.54264 0.48579 0.8197 0.0
H617 H 0.57375 0.48824 0.88902 0.0
H618 H 0.62353 0.52616 0.79923 0.0
C619 C 0.67344 0.53346 1.00417 0.0
C620 C 0.62051 0.51345 0.99665 0.0
C621 C 0.69075 0.53356 0.04742 0.0
C622 C 0.55305 0.49822 0.81014 0.0
C623 C 0.57082 0.49975 0.85021 0.0
C624 C 0.62237 0.52281 0.85447 0.0
C625 C 0.65832 0.5184 0.01133 0.0
C626 C 0.63944 0.51851 0.96727 0.0
C627 C 0.58471 0.51574 0.83986 0.0
C628 C 0.60354 0.51731 0.88378 0.0
H629 H 0.68024 0.49163 0.14385 0.0
H630 H 0.65019 0.49122 0.06842 0.0
H631 H 0.65438 0.5272 0.87096 0.0
H632 H 0.55925 0.5401 0.70923 0.0
H633 H 0.59045 0.54283 0.77916 0.0
C634 C 0.02162 0.69615 0.07161 0.0
C635 C 1.00561 0.71016 0.06544 0.0
C636 C 0.02245 0.67867 0.0285 0.0
C637 C 0.99066 0.64478 0.91402 0.0
H638 H 0.04323 0.62514 0.85029 0.0
C639 C 1.00072 0.57393 0.72582 0.0
C640 C 0.01662 0.56053 0.74289 0.0
C641 C 0.99871 0.59286 0.76093 0.0
C642 C 0.02842 0.63029 0.86802 0.0
H643 H 0.97786 0.717 0.00971 0.0
H644 H 0.97931 0.68652 0.9335 0.0
H645 H 0.04107 0.6567 0.91866 0.0
H646 H 0.04225 0.55602 0.81202 0.0
H647 H 0.039 0.58888 0.87238 0.0
H648 H 0.9781 0.61817 0.86322 0.0
C649 C 0.99118 0.68885 0.97209 0.0
C650 C 0.02716 0.64844 0.90751 0.0
C651 C 0.99038 0.7064 0.01537 0.0
C652 C 0.03013 0.56623 0.79668 0.0
C653 C 0.02828 0.58512 0.8311 0.0
C654 C 0.99192 0.62658 0.87425 0.0
C655 C 0.00727 0.6747 0.9779 0.0
C656 C 0.00831 0.65586 0.93213 0.0
C657 C 0.0126 0.59878 0.81376 0.0
C658 C 0.01087 0.61892 0.85161 0.0
H659 H 0.03347 0.69866 0.11021 0.0
H660 H 0.03489 0.66807 0.03577 0.0
H661 H 0.97588 0.64981 0.93235 0.0
H662 H 0.98974 0.5697 0.68587 0.0
H663 H 0.98644 0.60295 0.74613 0.0
C664 C 0.07514 0.23531 0.20569 0.0
C665 C 0.05619 0.24513 0.20259 0.0
C666 C 0.08064 0.22437 0.2651 0.0
C667 C 0.05957 0.20693 0.43881 0.0
H668 H 0.07875 0.15471 0.36819 0.0
C669 C 0.03063 0.1338 0.56181 0.0
C670 C 0.0231 0.12005 0.51088 0.0
C671 C 0.0442 0.1492 0.54306 0.0
C672 C 0.07339 0.16919 0.38908 0.0
H673 H 0.02895 0.25285 0.26072 0.0
H674 H 0.03779 0.23316 0.36212 0.0
H675 H 0.08505 0.18495 0.30146 0.0
H676 H 0.0247 0.11101 0.40137 0.0
H677 H 0.04768 0.13781 0.36838 0.0
H678 H 0.04567 0.19063 0.5219 0.0
C679 C 0.04893 0.23416 0.32062 0.0
C680 C 0.07732 0.18677 0.3512 0.0
C681 C 0.04369 0.24546 0.26201 0.0
C682 C 0.03038 0.1212 0.44203 0.0
C683 C 0.04374 0.13662 0.42321 0.0
C684 C 0.05514 0.18924 0.47569 0.0
C685 C 0.06696 0.22249 0.32148 0.0
C686 C 0.06918 0.2057 0.37297 0.0
C687 C 0.05034 0.15126 0.47289 0.0
C688 C 0.06076 0.17 0.44844 0.0
H689 H 0.08514 0.2351 0.16057 0.0
H690 H 0.09498 0.21625 0.26459 0.0
H691 H 0.0539 0.22135 0.45915 0.0
H692 H 0.02551 0.13306 0.61562 0.0
H693 H 0.04921 0.15996 0.58297 0.0
C694 C 0.30684 0.06792 0.21053 0.0
C695 C 0.28974 0.05547 0.19908 0.0
C696 C 0.31643 0.06854 0.27578 0.0
C697 C 0.32291 0.03299 0.42035 0.0
H698 H 0.3651 0.07173 0.47051 0.0
C699 C 0.40957 0.0242 0.4622 0.0
C700 C 0.40943 1.00626 0.50144 0.0
C701 C 0.39252 0.03689 0.46131 0.0
C702 C 0.35319 0.06087 0.45816 0.0
H703 H 0.26773 0.03609 0.25064 0.0
H704 H 0.28365 0.03824 0.36503 0.0
H705 H 0.33643 0.08265 0.39877 0.0
H706 H 0.39275 0.9893 0.57908 0.0
H707 H 0.36285 0.01146 0.57735 0.0
H708 H 0.34002 0.01099 0.47626 0.0
C709 C 0.29032 0.04673 0.32262 0.0
C710 C 0.33682 0.06706 0.41659 0.0
C711 C 0.28098 0.04572 0.25687 0.0
C712 C 0.393 1.00272 0.54674 0.0
C713 C 0.37594 0.01545 0.546 0.0
C714 C 0.33907 0.02691 0.46242 0.0
C715 C 0.3089 0.05706 0.33179 0.0
C716 C 0.32221 0.05282 0.39325 0.0
C717 C 0.37501 0.03187 0.49962 0.0
C718 C 0.35507 0.0404 0.47797 0.0
H719 H 0.3136 0.07628 0.16795 0.0
H720 H 0.33064 0.07677 0.28018 0.0
H721 H 0.31215 0.02143 0.40372 0.0
H722 H 0.422 0.02744 0.42686 0.0
H723 H 0.39235 0.04938 0.42483 0.0
C724 C 0.48864 0.27843 0.2198 0.0
C725 C 0.47374 0.28424 0.17126 0.0
C726 C 0.48996 0.28837 0.285 0.0
C727 C 0.46518 0.32755 0.40113 0.0
H728 H 0.51881 0.35181 0.40033 0.0
C729 C 0.47793 0.41177 0.43276 0.0
C730 C 0.49773 0.41939 0.44196 0.0
C731 C 0.47405 0.39097 0.43877 0.0
C732 C 0.50389 0.34496 0.40394 0.0
H733 H 0.44727 0.30326 0.15513 0.0
H734 H 0.44956 0.32067 0.26831 0.0
H735 H 0.51297 0.32057 0.3358 0.0
H736 H 0.52818 0.41154 0.47679 0.0
H737 H 0.52112 0.37556 0.49113 0.0
H738 H 0.45588 0.35267 0.46652 0.0
C739 C 0.46023 0.30849 0.25667 0.0
C740 C 0.50054 0.32689 0.3664 0.0
C741 C 0.45903 0.2987 0.19145 0.0
C742 C 0.5128 0.40625 0.46786 0.0
C743 C 0.5088 0.38547 0.47536 0.0
C744 C 0.46859 0.34556 0.43954 0.0
C745 C 0.47629 0.30414 0.30279 0.0
C746 C 0.48087 0.31872 0.36087 0.0
C747 C 0.48982 0.37734 0.45554 0.0
C748 C 0.48768 0.35524 0.43736 0.0
H749 H 0.50014 0.26728 0.20544 0.0
H750 H 0.50241 0.28462 0.3197 0.0
H751 H 0.44993 0.32134 0.39892 0.0
H752 H 0.4657 0.42162 0.41586 0.0
H753 H 0.45913 0.38551 0.42375 0.0
C754 C 0.23853 0.49803 0.23615 0.0
C755 C 0.24779 0.4828 0.19517 0.0
C756 C 0.22583 0.4928 0.2915 0.0
C757 C 0.1963 0.47994 0.40109 0.0
H758 H 0.16174 0.43728 0.32494 0.0
C759 C 0.11019 0.48073 0.45228 0.0
C760 C 0.09915 0.47923 0.38921 0.0
C761 C 0.13067 0.47485 0.45463 0.0
C762 C 0.17126 0.44914 0.34747 0.0
H763 H 0.25305 0.45041 0.18309 0.0
H764 H 0.2316 0.44111 0.2823 0.0
H765 H 0.19655 0.43969 0.28573 0.0
H766 H 0.10083 0.46985 0.27993 0.0
H767 H 0.13613 0.45981 0.28371 0.0
H768 H 0.17007 0.49074 0.45652 0.0
C769 C 0.23355 0.4571 0.2708 0.0
C770 C 0.19146 0.45038 0.32573 0.0
C771 C 0.24602 0.46237 0.21455 0.0
C772 C 0.10873 0.47089 0.32965 0.0
C773 C 0.12906 0.46503 0.33199 0.0
C774 C 0.17592 0.47892 0.42178 0.0
C775 C 0.22221 0.47217 0.30698 0.0
C776 C 0.20385 0.46667 0.34851 0.0
C777 C 0.14045 0.46732 0.394 0.0
C778 C 0.16286 0.46435 0.39132 0.0
H779 H 0.2396 0.51387 0.22129 0.0
H780 H 0.21736 0.50494 0.31715 0.0
H781 H 0.2056 0.49221 0.42191 0.0
H782 H 0.10312 0.48681 0.49942 0.0
H783 H 0.13897 0.47667 0.50333 0.0
C784 C 0.9487 0.80467 0.0147 0.0
C785 C 0.96694 0.79349 0.0149 0.0
C786 C 0.94323 0.81598 0.95618 0.0
C787 C 0.95234 0.85374 0.87625 0.0
H788 H 0.97177 0.84658 0.68594 0.0
C789 C 0.98957 0.92065 0.758 0.0
C790 C 0.00915 0.9154 0.73404 0.0
C791 C 0.97423 0.90595 0.76005 0.0
C792 C 0.96621 0.84891 0.73882 0.0
H793 H 0.99239 0.78327 0.95153 0.0
H794 H 0.9832 0.80327 0.85019 0.0
H795 H 0.96275 0.81677 0.75432 0.0
H796 H 0.02653 0.89192 0.6796 0.0
H797 H 1.0007 0.866 0.68866 0.0
H798 H 0.9575 0.88536 0.86475 0.0
C799 C 0.97289 0.80323 0.89443 0.0
C800 C 0.96092 0.83179 0.77784 0.0
C801 C 0.97824 0.79177 0.95274 0.0
C802 C 0.01197 0.89615 0.70208 0.0
C803 C 0.99686 0.88129 0.7061 0.0
C804 C 0.95783 0.87074 0.83782 0.0
C805 C 0.95608 0.81655 0.89732 0.0
C806 C 0.95509 0.83398 0.84842 0.0
C807 C 0.97835 0.88556 0.74049 0.0
C808 C 0.96611 0.86852 0.77009 0.0
H809 H 0.93955 0.80597 0.06177 0.0
H810 H 0.92991 0.8257 0.95944 0.0
H811 H 0.94803 0.85613 0.9305 0.0
H812 H 0.98653 0.93546 0.78146 0.0
H813 H 0.95977 0.91016 0.78331 0.0
C814 C 0.72903 0.95344 0.05755 0.0
C815 C 0.73993 0.97164 0.06665 0.0
C816 C 0.71809 0.94977 0.99581 0.0
C817 C 0.70268 0.97528 0.82707 0.0
H818 H 0.64941 0.9573 0.88641 0.0
C819 C 0.63087 1.00787 0.69978 0.0
C820 C 0.6163 0.01439 0.74912 0.0
C821 C 0.64633 0.99435 0.71878 0.0
C822 C 0.66419 0.9624 0.86878 0.0
H823 H 0.74953 0.99942 0.01689 0.0
H824 H 0.72983 0.9938 0.91171 0.0
H825 H 0.67885 0.94835 0.9546 0.0
H826 H 0.6063 0.01161 0.8567 0.0
H827 H 0.63332 0.98884 0.89059 0.0
H828 H 0.68752 0.99148 0.74616 0.0
C829 C 0.72997 0.98183 0.95006 0.0
C830 C 0.6813 0.95691 0.90738 0.0
C831 C 0.74129 0.98521 0.01089 0.0
C832 C 0.61709 1.00663 0.81711 0.0
C833 C 0.6326 0.99338 0.83636 0.0
C834 C 0.68546 0.98127 0.78961 0.0
C835 C 0.71728 0.96461 0.94323 0.0
C836 C 0.70066 0.96444 0.88982 0.0
C837 C 0.64769 0.98732 0.78793 0.0
C838 C 0.6659 0.97602 0.81297 0.0
H839 H 0.728 0.94265 0.0998 0.0
H840 H 0.70918 0.93595 0.99164 0.0
H841 H 0.7174 0.98057 0.80979 0.0
H842 H 0.6305 0.01355 0.64691 0.0
H843 H 0.6575 0.98986 0.6798 0.0
C844 C 0.53782 0.74568 0.02586 0.0
C845 C 0.55385 0.74905 0.07297 0.0
C846 C 0.5406 0.73298 0.96728 0.0
C847 C 0.54839 0.70404 0.846 0.0
H848 H 0.57789 0.65674 0.91069 0.0
C849 C 0.52234 0.62186 0.80944 0.0
C850 C 0.53672 0.606 0.81055 0.0
C851 C 0.52866 0.64218 0.81056 0.0
C852 C 0.57001 0.66989 0.89029 0.0
H853 H 0.5858 0.74389 0.09281 0.0
H854 H 0.59112 0.72264 0.98821 0.0
H855 H 0.58204 0.68891 0.97114 0.0
H856 H 0.56889 0.59891 0.80429 0.0
H857 H 0.57995 0.63444 0.80685 0.0
H858 H 0.53506 0.68412 0.76857 0.0
C859 C 0.57615 0.72904 0.99754 0.0
C860 C 0.57243 0.68854 0.92512 0.0
C861 C 0.57323 0.74137 0.05701 0.0
C862 C 0.55748 0.61084 0.80542 0.0
C863 C 0.5638 0.63116 0.80652 0.0
C864 C 0.54579 0.68524 0.81151 0.0
C865 C 0.55957 0.7236 0.9544 0.0
C866 C 0.56094 0.70567 0.90564 0.0
C867 C 0.54948 0.64701 0.81282 0.0
C868 C 0.55592 0.66778 0.83538 0.0
H869 H 0.5227 0.75137 0.03772 0.0
H870 H 0.52739 0.72914 0.93599 0.0
H871 H 0.53968 0.71701 0.82829 0.0
H872 H 0.50623 0.61863 0.81336 0.0
H873 H 0.51721 0.65399 0.81584 0.0
C874 C 0.78397 0.57523 0.04696 0.0
C875 C 0.77741 0.55499 0.0518 0.0
C876 C 0.7963 0.58111 0.99118 0.0
C877 C 0.82438 0.55982 0.83321 0.0
H878 H 0.86902 0.5892 0.92036 0.0
C879 C 0.90766 0.53693 0.81835 0.0
C880 C 0.92294 0.55191 0.81981 0.0
C881 C 0.88717 0.54248 0.81703 0.0
C882 C 0.8566 0.58141 0.89408 0.0
H883 H 0.77692 0.52544 1.00033 0.0
H884 H 0.79917 0.53514 0.90536 0.0
H885 H 0.83581 0.59056 0.97363 0.0
H886 H 0.92855 0.58446 0.81368 0.0
H887 H 0.89266 0.59411 0.81489 0.0
H888 H 0.84622 0.54901 0.75773 0.0
C889 C 0.79448 0.54688 0.94239 0.0
C890 C 0.83735 0.58223 0.92458 0.0
C891 C 0.78174 0.54119 0.99715 0.0
C892 C 0.9172 0.57253 0.81482 0.0
C893 C 0.89667 0.57809 0.81459 0.0
C894 C 0.8438 0.55869 0.80346 0.0
C895 C 0.80291 0.56661 0.94085 0.0
C896 C 0.8212 0.57055 0.89679 0.0
C897 C 0.88148 0.56312 0.81802 0.0
C898 C 0.86026 0.56871 0.83569 0.0
H899 H 0.78068 0.58612 0.08869 0.0
H900 H 0.80186 0.59663 0.99057 0.0
H901 H 0.81221 0.55117 0.80888 0.0
H902 H 0.91139 0.52093 0.82276 0.0
H903 H 0.87579 0.53062 0.82073 0.0
C904 C 0.01214 0.21771 0.94873 0.0
C905 C 0.03173 0.22455 0.96666 0.0
C906 C 0.00946 0.19968 0.90894 0.0
C907 C 0.03768 0.15185 0.85635 0.0
H908 H 0.99011 0.14245 0.74054 0.0
C909 C 0.02548 0.07735 0.68987 0.0
C910 C 1.00643 0.06803 0.6987 0.0
C911 C 0.02915 0.09704 0.71706 0.0
C912 C 1.00346 0.14482 0.77289 0.0
H913 H 0.06386 0.21841 0.95364 0.0
H914 H 0.05934 0.18775 0.88172 0.0
H915 H 0.99543 0.17591 0.79505 0.0
H916 H 0.97594 0.07255 0.73876 0.0
H917 H 0.98219 0.10692 0.78516 0.0
H918 H 0.04577 0.12075 0.83289 0.0
C919 C 0.04591 0.1957 0.90031 0.0
C920 C 1.0065 0.16404 0.80462 0.0
C921 C 0.04856 0.2135 0.9409 0.0
C922 C 0.99089 0.07918 0.73238 0.0
C923 C 0.99444 0.09893 0.75854 0.0
C924 C 0.03477 0.13274 0.82379 0.0
C925 C 0.02631 0.18811 0.88517 0.0
C926 C 0.02354 0.16786 0.84772 0.0
C927 C 0.01366 0.10808 0.75189 0.0
C928 C 0.01748 0.12887 0.78243 0.0
H929 H 0.99887 0.22569 0.96866 0.0
H930 H 0.9941 0.19442 0.89955 0.0
H931 H 0.0508 0.1538 0.88999 0.0
H932 H 0.03754 0.06942 0.66202 0.0
H933 H 0.04405 0.10374 0.71019 0.0
C934 C 0.31892 0.05554 0.92962 0.0
C935 C 0.30701 0.03892 0.95018 0.0
C936 C 0.33589 0.05265 0.88614 0.0
C937 C 0.36322 0.01335 0.77412 0.0
H938 H 0.40929 0.04892 0.80844 0.0
C939 C 0.44566 0.99349 0.6882 0.0
C940 C 0.45786 0.00911 0.66141 0.0
C941 C 0.42635 0.99775 0.71575 0.0
C942 C 0.39651 0.03898 0.7976 0.0
H943 H 0.30342 1.00626 0.94116 0.0
H944 H 0.33339 1.00094 0.86751 0.0
H945 H 0.37761 0.05493 0.87109 0.0
H946 H 0.45868 0.04121 0.63706 0.0
H947 H 0.42506 0.04887 0.68719 0.0
H948 H 0.38274 0.99677 0.7035 0.0
C949 C 0.32939 0.01639 0.88263 0.0
C950 C 0.37817 0.04247 0.83337 0.0
C951 C 0.31215 0.01937 0.92509 0.0
C952 C 0.44991 0.02899 0.65963 0.0
C953 C 0.43063 0.03333 0.68799 0.0
C954 C 0.38171 0.00964 0.73944 0.0
C955 C 0.34179 0.03296 0.86333 0.0
C956 C 0.36118 0.02967 0.82256 0.0
C957 C 0.41868 0.01778 0.71706 0.0
C958 C 0.39863 0.02237 0.75087 0.0
H959 H 0.3153 0.07078 0.94844 0.0
H960 H 0.34453 0.06593 0.87134 0.0
H961 H 0.35055 1.00333 0.76276 0.0
H962 H 0.45122 0.97794 0.68895 0.0
H963 H 0.41764 0.98541 0.73777 0.0
C964 C 0.46557 0.32002 0.92686 0.0
C965 C 0.47771 0.30244 0.91878 0.0
C966 C 0.4677 0.33652 0.88205 0.0
C967 C 0.50447 0.35918 0.75591 0.0
H968 H 0.46024 0.3976 0.73338 0.0
C969 C 0.51907 0.44239 0.67515 0.0
C970 C 0.50351 0.45376 0.64388 0.0
C971 C 0.51561 0.42232 0.69606 0.0
C972 C 0.47277 0.38698 0.73754 0.0
H973 H 0.50084 0.28818 0.85358 0.0
H974 H 0.50382 0.31654 0.77292 0.0
H975 H 0.45384 0.36527 0.78811 0.0
H976 H 0.47251 0.45264 0.60586 0.0
H977 H 0.46674 0.41732 0.63846 0.0
H978 H 0.52317 0.38052 0.70225 0.0
C979 C 0.49314 0.31789 0.81587 0.0
C980 C 0.46916 0.36842 0.77058 0.0
C981 C 0.49121 0.30141 0.86161 0.0
C982 C 0.48472 0.44431 0.63075 0.0
C983 C 0.48139 0.42406 0.65012 0.0
C984 C 0.50799 0.37758 0.72146 0.0
C985 C 0.48173 0.33593 0.82633 0.0
C986 C 0.48507 0.35447 0.78244 0.0
C987 C 0.49661 0.41287 0.68489 0.0
C988 C 0.49235 0.39209 0.71356 0.0
H989 H 0.45465 0.32129 0.96918 0.0
H990 H 0.45876 0.35005 0.89315 0.0
H991 H 0.51723 0.34904 0.76387 0.0
H992 H 0.53367 0.44929 0.6865 0.0
H993 H 0.52769 0.4146 0.7236 0.0
C994 C 0.21742 0.47715 0.93742 0.0
C995 C 0.22978 0.49443 0.9476 0.0
C996 C 0.20005 0.47796 0.89514 0.0
C997 C 0.17239 0.50893 0.76221 0.0
H998 H 0.12527 0.48141 0.83775 0.0
C999 C 0.08973 0.52366 0.66461 0.0
C1000 C 0.07572 0.50745 0.66465 0.0
C1001 C 0.10942 0.52127 0.69169 0.0
C1002 C 0.13829 0.48893 0.81504 0.0
H1003 H 0.23396 0.5259 0.91858 0.0
H1004 H 0.20349 0.52743 0.84479 0.0
H1005 H 0.15781 0.47891 0.89728 0.0
H1006 H 0.07246 0.47532 0.68695 0.0
H1007 H 0.10659 0.47115 0.73459 0.0
H1008 H 0.15262 0.5192 0.68042 0.0
C1009 C 0.20734 0.51313 0.8691 0.0
C1010 C 0.15707 0.4875 0.84936 0.0
C1011 C 0.22488 0.51227 0.91131 0.0
C1012 C 0.08245 0.4884 0.68858 0.0
C1013 C 0.10213 0.486 0.71581 0.0
C1014 C 0.15353 0.51039 0.72781 0.0
C1015 C 0.19435 0.49612 0.86198 0.0
C1016 C 0.17444 0.49747 0.82363 0.0
C1017 C 0.11578 0.50252 0.71921 0.0
C1018 C 0.13618 0.50044 0.75384 0.0
H1019 H 0.22088 0.4631 0.96403 0.0
H1020 H 0.19083 0.46436 0.88959 0.0
H1021 H 0.18539 0.51665 0.74022 0.0
H1022 H 0.08542 0.53845 0.64533 0.0
H1023 H 0.1194 0.53437 0.69327 0.0
C1024 C 0.99674 0.83635 0.22001 0.0
C1025 C 0.99495 0.81629 0.24506 0.0
C1026 C 0.99892 0.85302 0.26593 0.0
C1027 C 0.0174 0.86966 0.4371 0.0
H1028 H 0.98176 0.91613 0.41038 0.0
C1029 C 0.03632 0.95164 0.53477 0.0
C1030 C 0.0208 0.96336 0.56616 0.0
C1031 C 0.03213 0.93256 0.50418 0.0
C1032 C 0.99176 0.90327 0.41891 0.0
H1033 H 0.99527 0.79836 0.3396 0.0
H1034 H 1.00001 0.82764 0.41992 0.0
H1035 H 0.97679 0.88498 0.3403 0.0
H1036 H 0.98891 0.96355 0.5944 0.0
H1037 H 0.98133 0.93044 0.53816 0.0
H1038 H 0.0329 0.88831 0.51371 0.0
C1039 C 0.99916 0.83026 0.36412 0.0
C1040 C 0.98897 0.88543 0.37853 0.0
C1041 C 0.99655 0.81346 0.31796 0.0
C1042 C 1.00105 0.9552 0.56843 0.0
C1043 C 0.99676 0.93618 0.53675 0.0
C1044 C 0.02047 0.88768 0.47649 0.0
C1045 C 0.99995 0.85029 0.33859 0.0
C1046 C 1.0019 0.86848 0.38642 0.0
C1047 C 0.01227 0.92464 0.50399 0.0
C1048 C 0.00785 0.90482 0.4672 0.0
H1049 H 0.99645 0.83932 0.1644 0.0
H1050 H 0.99999 0.86816 0.24433 0.0
H1051 H 0.02765 0.85692 0.44436 0.0
H1052 H 0.05177 0.95734 0.5333 0.0
H1053 H 0.04441 0.92417 0.47916 0.0
C1054 C 0.70718 0.97873 0.32616 0.0
C1055 C 0.71967 0.9948 0.3041 0.0
C1056 C 0.68931 0.98265 0.36414 0.0
C1057 C 0.64993 0.02162 0.3844 0.0
H1058 H 0.63285 0.99104 0.54601 0.0
C1059 C 0.57363 0.04095 0.51935 0.0
C1060 C 0.56264 0.0254 0.55168 0.0
C1061 C 0.59353 0.03756 0.49571 0.0
C1062 C 0.63712 0.99969 0.5006 0.0
H1063 H 0.7234 0.02756 0.30588 0.0
H1064 H 0.69199 0.03449 0.37159 0.0
H1065 H 0.66613 0.98466 0.49446 0.0
H1066 H 0.56465 0.99476 0.59147 0.0
H1067 H 0.59873 0.9882 0.54638 0.0
H1068 H 0.62081 0.03594 0.3873 0.0
C1069 C 0.69614 0.01883 0.35985 0.0
C1070 C 0.65637 0.99602 0.47116 0.0
C1071 C 0.71422 0.01487 0.32292 0.0
C1072 C 0.57246 1.00677 0.56402 0.0
C1073 C 0.59226 1.00318 0.5391 0.0
C1074 C 0.63058 0.02508 0.41303 0.0
C1075 C 0.68327 1.00278 0.37984 0.0
C1076 C 0.66307 1.00702 0.41294 0.0
C1077 C 0.60305 0.01841 0.50311 0.0
C1078 C 0.62384 0.01438 0.47228 0.0
H1079 H 0.71093 0.96311 0.31201 0.0
H1080 H 0.67972 0.96996 0.37834 0.0
H1081 H 0.6544 0.03003 0.33851 0.0
H1082 H 0.56672 0.05575 0.51167 0.0
H1083 H 0.60137 0.05012 0.47163 0.0
C1084 C 0.52396 0.72815 0.35443 0.0
C1085 C 0.54242 0.73324 0.32213 0.0
C1086 C 0.52256 0.71078 0.39624 0.0
C1087 C 0.54902 0.66119 0.42051 0.0
H1088 H 0.51143 0.65533 0.57531 0.0
C1089 C 0.54391 0.58605 0.5715 0.0
C1090 C 0.5242 0.57822 0.58067 0.0
C1091 C 0.54683 0.60616 0.55022 0.0
C1092 C 0.52196 0.65673 0.53201 0.0
H1093 H 0.57419 0.72502 0.31208 0.0
H1094 H 0.57206 0.69535 0.38701 0.0
H1095 H 0.51555 0.68858 0.52072 0.0
H1096 H 0.49215 0.58614 0.5803 0.0
H1097 H 0.49725 0.6212 0.54344 0.0
H1098 H 0.55537 0.6294 0.43147 0.0
C1099 C 0.55841 0.70421 0.37836 0.0
C1100 C 0.52429 0.67579 0.50053 0.0
C1101 C 0.55972 0.72137 0.33598 0.0
C1102 C 0.50754 0.59148 0.57275 0.0
C1103 C 0.51046 0.61167 0.55195 0.0
C1104 C 0.5468 0.64225 0.45225 0.0
C1105 C 0.53967 0.69822 0.40716 0.0
C1106 C 0.53778 0.67827 0.44392 0.0
C1107 C 0.53012 0.61909 0.53852 0.0
C1108 C 0.53315 0.6397 0.50805 0.0
H1109 H 0.51033 0.7369 0.34399 0.0
H1110 H 0.50782 0.70667 0.41691 0.0
H1111 H 0.55917 0.66221 0.37607 0.0
H1112 H 0.55716 0.57654 0.57937 0.0
H1113 H 0.56221 0.6115 0.54193 0.0
C1114 C 0.80314 0.51404 0.30659 0.0
C1115 C 0.79549 0.53341 0.29028 0.0
C1116 C 0.82098 0.51207 0.34649 0.0
C1117 C 0.85612 0.53897 0.46845 0.0
H1118 H 0.89794 0.50523 0.38227 0.0
C1119 C 0.93601 0.52327 0.59409 0.0
C1120 C 0.95264 0.52614 0.54904 0.0
C1121 C 0.91599 0.52371 0.56826 0.0
C1122 C 0.88641 0.51467 0.40715 0.0
H1123 H 0.79998 0.56585 0.3056 0.0
H1124 H 0.83068 0.56243 0.3771 0.0
H1125 H 0.86395 0.50637 0.33042 0.0
H1126 H 0.96128 0.53063 0.44108 0.0
H1127 H 0.92658 0.53128 0.39587 0.0
H1128 H 0.87872 0.54732 0.54508 0.0
C1129 C 0.82302 0.54876 0.3588 0.0
C1130 C 0.86688 0.51519 0.37777 0.0
C1131 C 0.80543 0.55072 0.31787 0.0
C1132 C 0.94883 0.52906 0.4775 0.0
C1133 C 0.92892 0.5291 0.45143 0.0
C1134 C 0.87559 0.53816 0.49864 0.0
C1135 C 0.83135 0.52943 0.37198 0.0
C1136 C 0.85155 0.52757 0.40739 0.0
C1137 C 0.91223 0.52643 0.49638 0.0
C1138 C 0.89108 0.52626 0.46762 0.0
H1139 H 0.79597 0.50045 0.28525 0.0
H1140 H 0.82693 0.49696 0.35605 0.0
H1141 H 0.84464 0.54862 0.49267 0.0
H1142 H 0.9385 0.52078 0.64927 0.0
H1143 H 0.90348 0.52147 0.60422 0.0
loop_
_geom_bond_atom_site_label_1
_geom_bond_atom_site_label_2
_geom_bond_distance
_geom_bond_site_symmetry_2
_ccdc_geom_bond_type
H0 C3 0.929 . S
H1 C6 0.929 . S
H2 C8 0.930 . S
C3 H0 0.929 . S
C3 C4 1.398 . S
C3 C5 1.396 . S
C4 C3 1.398 . S
C4 C8 1.407 . S
C5 C3 1.396 . S
C5 C6 1.394 . S
C6 H1 0.929 . S
C6 C5 1.394 . S
C6 C7 1.382 . S
C7 C6 1.382 . S
C7 C8 1.392 . S
C7 N9 1.420 . S
C8 H2 0.930 . S
C8 C4 1.407 . S
C8 C7 1.392 . S
N9 C7 1.420 . S
N9 C10 1.244 . S
C10 N9 1.244 . S
H11 C14 0.929 . S
H12 C17 0.929 . S
H13 C19 0.930 . S
C14 H11 0.929 . S
C14 C15 1.398 . S
C14 C16 1.396 . S
C15 C14 1.398 . S
C15 C19 1.407 . S
C16 C14 1.396 . S
C16 C17 1.394 . S
C17 H12 0.929 . S
C17 C16 1.394 . S
C17 C18 1.382 . S
C18 C17 1.382 . S
C18 C19 1.392 . S
C18 N20 1.420 . S
C19 H13 0.930 . S
C19 C15 1.407 . S
C19 C18 1.392 . S
N20 C18 1.420 . S
N20 C21 1.244 . S
C21 N20 1.244 . S
H22 C25 0.929 . S
H23 C28 0.929 . S
H24 C30 0.930 . S
C25 H22 0.929 . S
C25 C26 1.398 . S
C25 C27 1.396 . S
C26 C25 1.398 . S
C26 C30 1.407 . S
C27 C25 1.396 . S
C27 C28 1.394 . S
C28 H23 0.929 . S
C28 C27 1.394 . S
C28 C29 1.382 . S
C29 C28 1.382 . S
C29 C30 1.392 . S
C29 N31 1.420 . S
C30 H24 0.930 . S
C30 C26 1.407 . S
C30 C29 1.392 . S
N31 C29 1.420 . S
N31 C32 1.244 . S
C32 N31 1.244 . S
H33 C36 0.929 . S
H34 C39 0.929 . S
H35 C41 0.930 . S
C36 H33 0.929 . S
C36 C37 1.398 . S
C36 C38 1.396 . S
C37 C36 1.398 . S
C37 C41 1.407 . S
C38 C36 1.396 . S
C38 C39 1.394 . S
C39 H34 0.929 . S
C39 C38 1.394 . S
C39 C40 1.382 . S
C40 C39 1.382 . S
C40 C41 1.392 . S
C40 N42 1.420 . S
C41 H35 0.930 . S
C41 C37 1.407 . S
C41 C40 1.392 . S
N42 C40 1.420 . S
N42 C43 1.244 . S
C43 N42 1.244 . S
H44 C47 0.929 . S
H45 C50 0.929 . S
H46 C52 0.930 . S
C47 H44 0.929 . S
C47 C48 1.398 . S
C47 C49 1.396 1_556 S
C48 C47 1.398 . S
C48 C52 1.407 . S
C49 C47 1.396 1_554 S
C49 C50 1.394 . S
C50 H45 0.929 . S
C50 C49 1.394 . S
C50 C51 1.382 . S
C51 C50 1.382 . S
C51 C52 1.392 1_554 S
C51 N53 1.420 . S
C52 H46 0.930 . S
C52 C48 1.407 . S
C52 C51 1.392 1_556 S
N53 C51 1.420 . S
N53 C54 1.244 . S
C54 N53 1.244 . S
H55 C58 0.929 . S
H56 C61 0.929 . S
H57 C63 0.930 . S
C58 H55 0.929 . S
C58 C59 1.398 . S
C58 C60 1.396 1_556 S
C59 C58 1.398 . S
C59 C63 1.407 . S
C60 C58 1.396 1_554 S
C60 C61 1.394 . S
C61 H56 0.929 . S
C61 C60 1.394 . S
C61 C62 1.382 . S
C62 C61 1.382 . S
C62 C63 1.392 1_554 S
C62 N64 1.420 . S
C63 H57 0.930 . S
C63 C59 1.407 . S
C63 C62 1.392 1_556 S
N64 C62 1.420 . S
N64 C65 1.244 . S
C65 N64 1.244 . S
H66 C69 0.929 . S
H67 C72 0.929 . S
H68 C74 0.930 . S
C69 H66 0.929 . S
C69 C70 1.398 . S
C69 C71 1.396 1_556 S
C70 C69 1.398 . S
C70 C74 1.407 . S
C71 C69 1.396 1_554 S
C71 C72 1.394 . S
C72 H67 0.929 . S
C72 C71 1.394 . S
C72 C73 1.382 . S
C73 C72 1.382 . S
C73 C74 1.392 1_554 S
C73 N75 1.420 . S
C74 H68 0.930 . S
C74 C70 1.407 . S
C74 C73 1.392 1_556 S
N75 C73 1.420 . S
N75 C76 1.244 . S
C76 N75 1.244 . S
H77 C80 0.929 . S
H78 C83 0.929 . S
H79 C85 0.930 . S
C80 H77 0.929 . S
C80 C81 1.398 . S
C80 C82 1.396 1_556 S
C81 C80 1.398 . S
C81 C85 1.407 . S
C82 C80 1.396 1_554 S
C82 C83 1.394 . S
C83 H78 0.929 . S
C83 C82 1.394 . S
C83 C84 1.382 . S
C84 C83 1.382 . S
C84 C85 1.392 1_554 S
C84 N86 1.420 . S
C85 H79 0.930 . S
C85 C81 1.407 . S
C85 C84 1.392 1_556 S
N86 C84 1.420 . S
N86 C87 1.244 . S
C87 N86 1.244 . S
Eu88 N119 2.657 1_565 S
Eu88 N126 2.605 1_565 S
Eu88 O132 2.558 . S
Eu88 O133 2.612 1_455 S
Eu88 O135 2.350 1_455 S
Eu88 O136 2.563 . S
Eu88 O137 2.419 . S
Eu88 O139 2.380 1_565 S
Eu88 O140 2.432 . S
Eu88 C152 2.848 . S
C89 C92 1.429 1_545 S
C89 C93 1.411 . S
C89 N96 1.377 . S
C90 C92 1.420 . S
C90 C94 1.423 . S
C90 C102 1.392 . S
C91 C93 1.420 1_565 S
C91 C94 1.351 . S
C91 H114 0.931 . S
C92 C89 1.429 1_565 S
C92 C90 1.420 . S
C92 N100 1.362 1_565 S
C93 C89 1.411 . S
C93 C91 1.420 1_545 S
C93 C98 1.395 . S
C94 C90 1.423 . S
C94 C91 1.351 . S
C94 H106 0.930 . S
C95 C97 1.400 . S
C95 C98 1.386 . S
C95 H107 0.930 . S
N96 C89 1.377 . S
N96 C97 1.321 . S
N96 Eu99 2.609 . S
C97 C95 1.400 . S
C97 N96 1.321 . S
C97 H104 0.930 . S
C98 C93 1.395 . S
C98 C95 1.386 . S
C98 H117 0.930 . S
Eu99 N96 2.609 . S
Eu99 N100 2.657 . S
Eu99 O133 2.380 1_545 S
Eu99 O134 2.432 . S
Eu99 O138 2.558 . S
Eu99 O139 2.612 1_655 S
Eu99 O141 2.339 1_655 S
Eu99 O142 2.563 1_655 S
Eu99 O143 2.418 . S
Eu99 C163 2.848 . S
N100 C92 1.362 1_545 S
N100 Eu99 2.657 . S
N100 C101 1.334 1_645 S
C101 N100 1.334 1_465 S
C101 C103 1.413 . S
C101 H108 0.929 . S
C102 C90 1.392 . S
C102 C103 1.367 1_655 S
C102 H110 0.930 . S
C103 C101 1.413 . S
C103 C102 1.367 1_455 S
C103 H105 0.930 . S
H104 C97 0.930 . S
H105 C103 0.930 . S
H106 C94 0.930 . S
H107 C95 0.930 . S
H108 C101 0.929 . S
H109 C123 0.930 1_655 S
H110 C102 0.930 . S
H111 C129 0.930 . S
H112 C120 0.929 1_655 S
H113 C127 0.930 . S
H114 C91 0.931 . S
H115 C121 0.930 . S
H116 C154 0.930 . S
H117 C98 0.930 . S
H118 C153 0.931 . S
N119 Eu88 2.657 1_545 S
N119 C120 1.334 . S
N119 C124 1.362 . S
C120 H112 0.929 1_455 S
C120 N119 1.334 . S
C120 C123 1.413 . S
C121 H115 0.930 . S
C121 C122 1.392 . S
C121 C123 1.367 . S
C122 C121 1.392 . S
C122 C124 1.420 . S
C122 C154 1.423 . S
C123 H109 0.930 1_455 S
C123 C120 1.413 . S
C123 C121 1.367 . S
C124 N119 1.362 . S
C124 C122 1.420 . S
C124 C128 1.429 . S
H125 C130 0.930 . S
N126 Eu88 2.605 1_545 S
N126 C128 1.386 . S
N126 C129 1.314 1_545 S
C127 H113 0.930 . S
C127 C129 1.400 . S
C127 C130 1.386 1_565 S
C128 C124 1.429 . S
C128 N126 1.386 . S
C128 C131 1.411 . S
C129 H111 0.930 . S
C129 N126 1.314 1_565 S
C129 C127 1.400 . S
C130 H125 0.930 . S
C130 C127 1.386 1_545 S
C130 C131 1.395 . S
C131 C128 1.411 . S
C131 C130 1.395 . S
C131 C153 1.420 . S
O132 Eu88 2.558 . S
O132 C152 1.257 . S
O133 Eu88 2.612 1_655 S
O133 Eu99 2.380 1_565 S
O133 C144 1.276 . S
O134 Eu99 2.432 . S
O134 C151 1.264 . S
O135 Eu88 2.350 1_655 S
O135 C151 1.239 1_565 S
O136 Eu88 2.563 . S
O136 C144 1.235 1_455 S
O137 Eu88 2.419 . S
O137 C152 1.249 . S
O138 Eu99 2.558 . S
O138 C163 1.257 . S
O139 Eu88 2.380 1_545 S
O139 Eu99 2.612 1_455 S
O139 C155 1.276 . S
O140 Eu88 2.432 . S
O140 C162 1.264 1_565 S
O141 Eu99 2.339 1_455 S
O141 C162 1.254 . S
O142 Eu99 2.563 1_455 S
O142 C155 1.235 . S
O143 Eu99 2.418 . S
O143 C163 1.245 . S
C144 O133 1.276 . S
C144 O136 1.235 1_655 S
C145 C147 1.393 . S
C145 C149 1.395 . S
C145 C152 1.492 . S
C146 C147 1.392 . S
C146 C148 1.386 . S
C147 C145 1.393 . S
C147 C146 1.392 . S
C147 H164 0.882 1_455 S
C148 C146 1.386 . S
C148 C150 1.395 . S
C148 H165 0.930 . S
C149 C145 1.395 . S
C149 C150 1.379 . S
C149 H166 0.930 . S
C150 C148 1.395 . S
C150 C149 1.379 . S
C150 H167 0.930 . S
C151 O134 1.264 . S
C151 O135 1.239 1_545 S
C152 Eu88 2.848 . S
C152 O132 1.257 . S
C152 O137 1.249 . S
C152 C145 1.492 . S
C153 H118 0.931 . S
C153 C131 1.420 . S
C153 C154 1.351 . S
C154 H116 0.930 . S
C154 C122 1.423 . S
C154 C153 1.351 . S
C155 O139 1.276 . S
C155 O142 1.235 . S
C156 C157 1.368 1_655 S
C156 C160 1.395 . S
C156 C163 1.492 . S
C157 C156 1.368 1_455 S
C157 C158 1.391 1_455 S
C157 H168 0.957 . S
C158 C157 1.391 1_655 S
C158 C159 1.408 . S
C159 C158 1.408 . S
C159 C161 1.395 . S
C159 H169 0.930 . S
C160 C156 1.395 . S
C160 C161 1.379 . S
C160 H170 0.930 . S
C161 C159 1.395 . S
C161 C160 1.379 . S
C161 H171 0.930 . S
C162 O140 1.264 1_545 S
C162 O141 1.254 . S
C163 Eu99 2.848 . S
C163 O138 1.257 . S
C163 O143 1.245 . S
C163 C156 1.492 . S
H164 C147 0.882 1_655 S
H165 C148 0.930 . S
H166 C149 0.930 . S
H167 C150 0.930 . S
H168 C157 0.957 . S
H169 C159 0.930 . S
H170 C160 0.930 . S
H171 C161 0.930 . S
Eu172 N203 2.657 . S
Eu172 N210 2.609 . S
Eu172 O216 2.558 . S
Eu172 O217 2.606 1_545 S
Eu172 O219 2.339 1_545 S
Eu172 O220 2.563 . S
Eu172 O221 2.419 . S
Eu172 O223 2.380 . S
Eu172 O224 2.432 . S
Eu172 C236 2.848 . S
C173 C176 1.429 . S
C173 C177 1.411 . S
C173 N180 1.377 . S
C174 C176 1.420 . S
C174 C178 1.423 . S
C174 C186 1.392 . S
C175 C177 1.420 . S
C175 C178 1.351 . S
C175 H198 0.931 . S
C176 C173 1.429 . S
C176 C174 1.420 . S
C176 N184 1.362 . S
C177 C173 1.411 . S
C177 C175 1.420 . S
C177 C182 1.395 . S
C178 C174 1.423 . S
C178 C175 1.351 . S
C178 H190 0.930 . S
C179 C181 1.400 . S
C179 C182 1.386 . S
C179 H191 0.930 . S
N180 C173 1.377 . S
N180 C181 1.321 . S
N180 Eu183 2.609 . S
C181 C179 1.400 . S
C181 N180 1.321 . S
C181 H188 0.930 . S
C182 C177 1.395 . S
C182 C179 1.386 . S
C182 H201 0.930 . S
Eu183 N180 2.609 . S
Eu183 N184 2.657 . S
Eu183 O217 2.382 . S
Eu183 O218 2.432 . S
Eu183 O222 2.558 . S
Eu183 O223 2.612 1_565 S
Eu183 O225 2.339 1_565 S
Eu183 O226 2.563 1_565 S
Eu183 O227 2.419 1_565 S
Eu183 C247 2.848 . S
N184 C176 1.362 . S
N184 Eu183 2.657 . S
N184 C185 1.334 1_565 S
C185 N184 1.334 1_545 S
C185 C187 1.413 . S
C185 H192 0.929 . S
C186 C174 1.392 . S
C186 C187 1.367 1_565 S
C186 H194 0.930 . S
C187 C185 1.413 . S
C187 C186 1.367 1_545 S
C187 H189 0.930 . S
H188 C181 0.930 . S
H189 C187 0.930 . S
H190 C178 0.930 . S
H191 C179 0.930 . S
H192 C185 0.929 . S
H193 C207 0.930 1_565 S
H194 C186 0.930 . S
H195 C213 0.930 . S
H196 C204 0.929 1_565 S
H197 C211 0.930 . S
H198 C175 0.931 . S
H199 C205 0.930 . S
H200 C238 0.930 . S
H201 C182 0.930 . S
H202 C237 0.931 . S
N203 Eu172 2.657 . S
N203 C204 1.334 . S
N203 C208 1.362 . S
C204 H196 0.929 1_545 S
C204 N203 1.334 . S
C204 C207 1.413 . S
C205 H199 0.930 . S
C205 C206 1.392 . S
C205 C207 1.367 . S
C206 C205 1.392 . S
C206 C208 1.420 . S
C206 C238 1.423 . S
C207 H193 0.930 1_545 S
C207 C204 1.413 . S
C207 C205 1.367 . S
C208 N203 1.362 . S
C208 C206 1.420 . S
C208 C212 1.429 . S
H209 C214 0.930 . S
N210 Eu172 2.609 . S
N210 C212 1.377 . S
N210 C213 1.321 . S
C211 H197 0.930 . S
C211 C213 1.400 . S
C211 C214 1.386 . S
C212 C208 1.429 . S
C212 N210 1.377 . S
C212 C215 1.411 . S
C213 H195 0.930 . S
C213 N210 1.321 . S
C213 C211 1.400 . S
C214 H209 0.930 . S
C214 C211 1.386 . S
C214 C215 1.395 . S
C215 C212 1.411 . S
C215 C214 1.395 . S
C215 C237 1.420 . S
O216 Eu172 2.558 . S
O216 C236 1.257 . S
O217 Eu172 2.606 1_565 S
O217 Eu183 2.382 . S
O217 C228 1.275 1_565 S
O218 Eu183 2.432 . S
O218 C235 1.264 . S
O219 Eu172 2.339 1_565 S
O219 C235 1.254 . S
O220 Eu172 2.563 . S
O220 C228 1.241 . S
O221 Eu172 2.419 . S
O221 C236 1.249 . S
O222 Eu183 2.558 . S
O222 C247 1.257 . S
O223 Eu172 2.380 . S
O223 Eu183 2.612 1_545 S
O223 C239 1.276 . S
O224 Eu172 2.432 . S
O224 C246 1.264 . S
O225 Eu183 2.339 1_545 S
O225 C246 1.254 . S
O226 Eu183 2.563 1_545 S
O226 C239 1.235 . S
O227 Eu183 2.419 1_545 S
O227 C247 1.249 1_545 S
C228 O217 1.275 1_545 S
C228 O220 1.241 . S
C229 C231 1.393 . S
C229 C233 1.395 . S
C229 C236 1.492 . S
C230 C231 1.392 . S
C230 C232 1.386 . S
C231 C229 1.393 . S
C231 C230 1.392 . S
C231 H248 0.930 . S
C232 C230 1.386 . S
C232 C234 1.395 . S
C232 H249 0.930 . S
C233 C229 1.395 . S
C233 C234 1.379 . S
C233 H250 0.930 . S
C234 C232 1.395 . S
C234 C233 1.379 . S
C234 H251 0.930 . S
C235 O218 1.264 . S
C235 O219 1.254 . S
C236 Eu172 2.848 . S
C236 O216 1.257 . S
C236 O221 1.249 . S
C236 C229 1.492 . S
C237 H202 0.931 . S
C237 C215 1.420 . S
C237 C238 1.351 . S
C238 H200 0.930 . S
C238 C206 1.423 . S
C238 C237 1.351 . S
C239 O223 1.276 . S
C239 O226 1.235 . S
C240 C241 1.393 1_565 S
C240 C244 1.395 . S
C240 C247 1.492 . S
C241 C240 1.393 1_545 S
C241 C242 1.396 . S
C241 H252 0.930 . S
C242 C241 1.396 . S
C242 C243 1.345 1_545 S
C243 C242 1.345 1_565 S
C243 C245 1.395 . S
C243 H253 0.930 . S
C244 C240 1.395 . S
C244 C245 1.379 . S
C244 H254 0.930 . S
C245 C243 1.395 . S
C245 C244 1.379 . S
C245 H255 0.930 . S
C246 O224 1.264 . S
C246 O225 1.254 . S
C247 Eu183 2.848 . S
C247 O222 1.257 . S
C247 O227 1.249 1_565 S
C247 C240 1.492 . S
H248 C231 0.930 . S
H249 C232 0.930 . S
H250 C233 0.930 . S
H251 C234 0.930 . S
H252 C241 0.930 . S
H253 C243 0.930 . S
H254 C244 0.930 . S
H255 C245 0.930 . S
Eu256 N287 2.657 . S
Eu256 N294 2.609 . S
Eu256 O300 2.558 . S
Eu256 O301 2.612 . S
Eu256 O303 2.339 . S
Eu256 O304 2.563 . S
Eu256 O305 2.419 . S
Eu256 O307 2.380 . S
Eu256 O308 2.432 . S
Eu256 C320 2.848 . S
C257 C260 1.429 . S
C257 C261 1.411 . S
C257 N264 1.377 . S
C258 C260 1.420 . S
C258 C262 1.423 . S
C258 C270 1.392 . S
C259 C261 1.420 . S
C259 C262 1.351 . S
C259 H282 0.931 . S
C260 C257 1.429 . S
C260 C258 1.420 . S
C260 N268 1.362 . S
C261 C257 1.411 . S
C261 C259 1.420 . S
C261 C266 1.395 . S
C262 C258 1.423 . S
C262 C259 1.351 . S
C262 H274 0.930 . S
C263 C265 1.400 . S
C263 C266 1.386 . S
C263 H275 0.930 . S
N264 C257 1.377 . S
N264 C265 1.321 . S
N264 Eu267 2.609 . S
C265 C263 1.400 . S
C265 N264 1.321 . S
C265 H272 0.930 . S
C266 C261 1.395 . S
C266 C263 1.386 . S
C266 H285 0.930 . S
Eu267 N264 2.609 . S
Eu267 N268 2.657 . S
Eu267 O301 2.380 . S
Eu267 O302 2.432 . S
Eu267 O306 2.558 . S
Eu267 O307 2.612 . S
Eu267 O309 2.339 . S
Eu267 O310 2.563 . S
Eu267 O311 2.419 . S
Eu267 C331 2.848 . S
N268 C260 1.362 . S
N268 Eu267 2.657 . S
N268 C269 1.334 . S
C269 N268 1.334 . S
C269 C271 1.413 . S
C269 H276 0.929 . S
C270 C258 1.392 . S
C270 C271 1.367 . S
C270 H278 0.930 . S
C271 C269 1.413 . S
C271 C270 1.367 . S
C271 H273 0.930 . S
H272 C265 0.930 . S
H273 C271 0.930 . S
H274 C262 0.930 . S
H275 C263 0.930 . S
H276 C269 0.929 . S
H277 C291 0.930 . S
H278 C270 0.930 . S
H279 C297 0.930 . S
H280 C288 0.929 . S
H281 C295 0.930 . S
H282 C259 0.931 . S
H283 C289 0.930 . S
H284 C322 0.930 . S
H285 C266 0.930 . S
H286 C321 0.931 . S
N287 Eu256 2.657 . S
N287 C288 1.334 . S
N287 C292 1.362 . S
C288 H280 0.929 . S
C288 N287 1.334 . S
C288 C291 1.413 . S
C289 H283 0.930 . S
C289 C290 1.392 . S
C289 C291 1.367 . S
C290 C289 1.392 . S
C290 C292 1.420 . S
C290 C322 1.423 . S
C291 H277 0.930 . S
C291 C288 1.413 . S
C291 C289 1.367 . S
C292 N287 1.362 . S
C292 C290 1.420 . S
C292 C296 1.429 . S
H293 C298 0.930 . S
N294 Eu256 2.609 . S
N294 C296 1.377 . S
N294 C297 1.321 . S
C295 H281 0.930 . S
C295 C297 1.400 . S
C295 C298 1.386 . S
C296 C292 1.429 . S
C296 N294 1.377 . S
C296 C299 1.411 . S
C297 H279 0.930 . S
C297 N294 1.321 . S
C297 C295 1.400 . S
C298 H293 0.930 . S
C298 C295 1.386 . S
C298 C299 1.395 . S
C299 C296 1.411 . S
C299 C298 1.395 . S
C299 C321 1.420 . S
O300 Eu256 2.558 . S
O300 C320 1.257 . S
O301 Eu256 2.612 . S
O301 Eu267 2.380 . S
O301 C312 1.276 . S
O302 Eu267 2.432 . S
O302 C319 1.264 . S
O303 Eu256 2.339 . S
O303 C319 1.254 . S
O304 Eu256 2.563 . S
O304 C312 1.235 . S
O305 Eu256 2.419 . S
O305 C320 1.249 . S
O306 Eu267 2.558 . S
O306 C331 1.257 . S
O307 Eu256 2.380 . S
O307 Eu267 2.612 . S
O307 C323 1.276 . S
O308 Eu256 2.432 . S
O308 C330 1.264 . S
O309 Eu267 2.339 . S
O309 C330 1.254 . S
O310 Eu267 2.563 . S
O310 C323 1.235 . S
O311 Eu267 2.419 . S
O311 C331 1.249 . S
C312 O301 1.276 . S
C312 O304 1.235 . S
C313 C315 1.393 . S
C313 C317 1.395 . S
C313 C320 1.492 . S
C314 C315 1.392 . S
C314 C316 1.386 . S
C315 C313 1.393 . S
C315 C314 1.392 . S
C315 H332 0.930 . S
C316 C314 1.386 . S
C316 C318 1.395 . S
C316 H333 0.930 . S
C317 C313 1.395 . S
C317 C318 1.379 . S
C317 H334 0.930 . S
C318 C316 1.395 . S
C318 C317 1.379 . S
C318 H335 0.930 . S
C319 O302 1.264 . S
C319 O303 1.254 . S
C320 Eu256 2.848 . S
C320 O300 1.257 . S
C320 O305 1.249 . S
C320 C313 1.492 . S
C321 H286 0.931 . S
C321 C299 1.420 . S
C321 C322 1.351 . S
C322 H284 0.930 . S
C322 C290 1.423 . S
C322 C321 1.351 . S
C323 O307 1.276 . S
C323 O310 1.235 . S
C324 C325 1.393 . S
C324 C328 1.395 . S
C324 C331 1.492 . S
C325 C324 1.393 . S
C325 C326 1.392 . S
C325 H336 0.930 . S
C326 C325 1.392 . S
C326 C327 1.386 . S
C327 C326 1.386 . S
C327 C329 1.395 . S
C327 H337 0.930 . S
C328 C324 1.395 . S
C328 C329 1.379 . S
C328 H338 0.930 . S
C329 C327 1.395 . S
C329 C328 1.379 . S
C329 H339 0.930 1_556 S
C330 O308 1.264 . S
C330 O309 1.254 . S
C331 Eu267 2.848 . S
C331 O306 1.257 . S
C331 O311 1.249 . S
C331 C324 1.492 . S
H332 C315 0.930 . S
H333 C316 0.930 . S
H334 C317 0.930 . S
H335 C318 0.930 . S
H336 C325 0.930 . S
H337 C327 0.930 . S
H338 C328 0.930 . S
H339 C329 0.930 1_554 S
Eu340 N371 2.657 . S
Eu340 N378 2.609 . S
Eu340 O384 2.558 . S
Eu340 O385 2.612 . S
Eu340 O387 2.339 . S
Eu340 O388 2.563 . S
Eu340 O389 2.419 . S
Eu340 O391 2.380 . S
Eu340 O392 2.432 1_455 S
Eu340 C404 2.848 . S
C341 C344 1.429 . S
C341 C345 1.411 . S
C341 N348 1.377 . S
C342 C344 1.420 . S
C342 C346 1.423 . S
C342 C354 1.392 . S
C343 C345 1.420 . S
C343 C346 1.351 . S
C343 H366 0.931 . S
C344 C341 1.429 . S
C344 C342 1.420 . S
C344 N352 1.362 . S
C345 C341 1.411 . S
C345 C343 1.420 . S
C345 C350 1.395 1_655 S
C346 C342 1.423 . S
C346 C343 1.351 . S
C346 H358 0.930 . S
C347 C349 1.400 . S
C347 C350 1.386 . S
C347 H359 0.930 . S
N348 C341 1.377 . S
N348 C349 1.321 1_655 S
N348 Eu351 2.609 . S
C349 C347 1.400 . S
C349 N348 1.321 1_455 S
C349 H356 0.930 . S
C350 C345 1.395 1_455 S
C350 C347 1.386 . S
C350 H369 0.930 . S
Eu351 N348 2.609 . S
Eu351 N352 2.657 . S
Eu351 O385 2.380 1_655 S
Eu351 O386 2.432 1_655 S
Eu351 O390 2.558 . S
Eu351 O391 2.612 1_655 S
Eu351 O393 2.339 . S
Eu351 O394 2.563 . S
Eu351 O395 2.419 . S
Eu351 C415 2.848 . S
N352 C344 1.362 . S
N352 Eu351 2.657 . S
N352 C353 1.334 . S
C353 N352 1.334 . S
C353 C355 1.413 . S
C353 H360 0.929 . S
C354 C342 1.392 . S
C354 C355 1.367 . S
C354 H362 0.930 . S
C355 C353 1.413 . S
C355 C354 1.367 . S
C355 H357 0.930 . S
H356 C349 0.930 . S
H357 C355 0.930 . S
H358 C346 0.930 . S
H359 C347 0.930 . S
H360 C353 0.929 . S
H361 C375 0.930 . S
H362 C354 0.930 . S
H363 C381 0.930 1_655 S
H364 C372 0.929 . S
H365 C379 0.930 1_655 S
H366 C343 0.931 . S
H367 C373 0.930 . S
H368 C406 0.930 . S
H369 C350 0.930 . S
H370 C405 0.931 . S
N371 Eu340 2.657 . S
N371 C372 1.334 . S
N371 C376 1.362 . S
C372 H364 0.929 . S
C372 N371 1.334 . S
C372 C375 1.413 . S
C373 H367 0.930 . S
C373 C374 1.392 . S
C373 C375 1.367 . S
C374 C373 1.392 . S
C374 C376 1.420 . S
C374 C406 1.423 . S
C375 H361 0.930 . S
C375 C372 1.413 . S
C375 C373 1.367 . S
C376 N371 1.362 . S
C376 C374 1.420 . S
C376 C380 1.429 . S
H377 C382 0.930 . S
N378 Eu340 2.609 . S
N378 C380 1.377 . S
N378 C381 1.321 . S
C379 H365 0.930 1_455 S
C379 C381 1.400 . S
C379 C382 1.386 . S
C380 C376 1.429 . S
C380 N378 1.377 . S
C380 C383 1.411 . S
C381 H363 0.930 1_455 S
C381 N378 1.321 . S
C381 C379 1.400 . S
C382 H377 0.930 . S
C382 C379 1.386 . S
C382 C383 1.395 . S
C383 C380 1.411 . S
C383 C382 1.395 . S
C383 C405 1.420 . S
O384 Eu340 2.558 . S
O384 C404 1.257 . S
O385 Eu340 2.612 . S
O385 Eu351 2.380 1_455 S
O385 C396 1.276 . S
O386 Eu351 2.432 1_455 S
O386 C403 1.264 . S
O387 Eu340 2.339 . S
O387 C403 1.254 . S
O388 Eu340 2.563 . S
O388 C396 1.235 . S
O389 Eu340 2.419 . S
O389 C404 1.249 . S
O390 Eu351 2.558 . S
O390 C415 1.257 . S
O391 Eu340 2.380 . S
O391 Eu351 2.612 1_455 S
O391 C407 1.276 1_455 S
O392 Eu340 2.432 1_655 S
O392 C414 1.264 . S
O393 Eu351 2.339 . S
O393 C414 1.254 . S
O394 Eu351 2.563 . S
O394 C407 1.235 . S
O395 Eu351 2.419 . S
O395 C415 1.249 . S
C396 O385 1.276 . S
C396 O388 1.235 . S
C397 C399 1.393 . S
C397 C401 1.395 . S
C397 C404 1.492 . S
C398 C399 1.392 . S
C398 C400 1.386 . S
C399 C397 1.393 . S
C399 C398 1.392 . S
C399 H416 0.930 . S
C400 C398 1.386 . S
C400 C402 1.395 . S
C400 H417 0.930 . S
C401 C397 1.395 . S
C401 C402 1.379 . S
C401 H418 0.930 . S
C402 C400 1.395 . S
C402 C401 1.379 . S
C402 H419 0.930 . S
C403 O386 1.264 . S
C403 O387 1.254 . S
C404 Eu340 2.848 . S
C404 O384 1.257 . S
C404 O389 1.249 . S
C404 C397 1.492 . S
C405 H370 0.931 . S
C405 C383 1.420 . S
C405 C406 1.351 . S
C406 H368 0.930 . S
C406 C374 1.423 . S
C406 C405 1.351 . S
C407 O391 1.276 1_655 S
C407 O394 1.235 . S
C408 C409 1.393 . S
C408 C412 1.395 . S
C408 C415 1.492 . S
C409 C408 1.393 . S
C409 C410 1.392 . S
C409 H420 0.930 . S
C410 C409 1.392 . S
C410 C411 1.386 . S
C411 C410 1.386 . S
C411 C413 1.395 . S
C411 H421 0.930 . S
C412 C408 1.395 . S
C412 C413 1.379 . S
C412 H422 0.930 . S
C413 C411 1.395 . S
C413 C412 1.379 . S
C413 H423 0.930 1_556 S
C414 O392 1.264 . S
C414 O393 1.254 . S
C415 Eu351 2.848 . S
C415 O390 1.257 . S
C415 O395 1.249 . S
C415 C408 1.492 . S
H416 C399 0.930 . S
H417 C400 0.930 . S
H418 C401 0.930 . S
H419 C402 0.930 . S
H420 C409 0.930 . S
H421 C411 0.930 . S
H422 C412 0.930 . S
H423 C413 0.930 1_554 S
C424 C425 1.349 . S
C424 C426 1.327 . S
C424 H449 0.950 . S
C425 C424 1.349 . S
C425 C441 1.349 . S
C426 C424 1.327 . S
C426 C445 1.429 . S
C426 H450 0.950 . S
C427 C444 1.574 . S
C427 C446 1.368 . S
C427 H451 0.949 . S
H428 C432 0.949 . S
C429 C430 1.349 . S
C429 C431 1.327 . S
C429 H452 0.950 1_545 S
C430 C429 1.349 . S
C430 C442 1.349 . S
C431 C429 1.327 . S
C431 C447 1.429 . S
C431 H453 0.973 . S
C432 H428 0.949 . S
C432 C440 1.574 . S
C432 C448 1.368 . S
H433 C441 0.950 . S
H434 C439 0.950 . S
H435 C440 0.949 . S
H436 C442 0.950 . S
H437 C443 0.950 . S
H438 C444 0.949 . S
C439 H434 0.950 . S
C439 C441 1.327 . S
C439 C445 1.429 . S
C440 C432 1.574 . S
C440 H435 0.949 . S
C440 C446 1.368 . S
C441 C425 1.349 . S
C441 H433 0.950 . S
C441 C439 1.327 . S
C442 C430 1.349 . S
C442 H436 0.950 . S
C442 C443 1.327 . S
C443 H437 0.950 . S
C443 C442 1.327 . S
C443 C447 1.429 . S
C444 C427 1.574 . S
C444 H438 0.949 . S
C444 C448 1.368 . S
C445 C426 1.429 . S
C445 C439 1.429 . S
C445 C446 1.523 . S
C446 C427 1.368 . S
C446 C440 1.368 . S
C446 C445 1.523 . S
C447 C431 1.429 . S
C447 C443 1.429 . S
C447 C448 1.523 . S
C448 C432 1.368 . S
C448 C444 1.368 . S
C448 C447 1.523 . S
H449 C424 0.950 . S
H450 C426 0.950 . S
H451 C427 0.949 . S
H452 C429 0.950 1_565 S
H453 C431 0.973 . S
C454 C455 1.349 . S
C454 C456 1.327 . S
C454 H479 0.950 . S
C455 C454 1.349 . S
C455 C471 1.349 . S
C456 C454 1.327 . S
C456 C475 1.429 . S
C456 H480 0.950 . S
C457 C474 1.574 . S
C457 C476 1.368 . S
C457 H481 0.949 . S
H458 C462 0.949 . S
C459 C460 1.349 . S
C459 C461 1.327 . S
C459 H482 0.950 . S
C460 C459 1.349 . S
C460 C472 1.349 . S
C461 C459 1.327 . S
C461 C477 1.429 . S
C461 H483 0.950 . S
C462 H458 0.949 . S
C462 C470 1.574 . S
C462 C478 1.368 . S
H463 C471 0.950 . S
H464 C469 0.950 . S
H465 C470 0.949 . S
H466 C472 0.950 . S
H467 C473 0.950 . S
H468 C474 0.949 . S
C469 H464 0.950 . S
C469 C471 1.327 . S
C469 C475 1.429 . S
C470 C462 1.574 . S
C470 H465 0.949 . S
C470 C476 1.368 . S
C471 C455 1.349 . S
C471 H463 0.950 . S
C471 C469 1.327 . S
C472 C460 1.349 . S
C472 H466 0.950 . S
C472 C473 1.327 . S
C473 H467 0.950 . S
C473 C472 1.327 . S
C473 C477 1.429 . S
C474 C457 1.574 . S
C474 H468 0.949 . S
C474 C478 1.368 . S
C475 C456 1.429 . S
C475 C469 1.429 . S
C475 C476 1.523 . S
C476 C457 1.368 . S
C476 C470 1.368 . S
C476 C475 1.523 . S
C477 C461 1.429 . S
C477 C473 1.429 . S
C477 C478 1.523 . S
C478 C462 1.368 . S
C478 C474 1.368 . S
C478 C477 1.523 . S
H479 C454 0.950 . S
H480 C456 0.950 . S
H481 C457 0.949 . S
H482 C459 0.950 . S
H483 C461 0.950 . S
C484 C485 1.349 . S
C484 C486 1.327 . S
C484 H509 0.950 . S
C485 C484 1.349 . S
C485 C501 1.349 . S
C486 C484 1.327 . S
C486 C505 1.429 . S
C486 H510 0.950 . S
C487 C504 1.574 . S
C487 C506 1.368 . S
C487 H511 0.949 . S
H488 C492 0.949 . S
C489 C490 1.349 . S
C489 C491 1.327 . S
C489 H512 0.950 . S
C490 C489 1.349 . S
C490 C502 1.349 . S
C491 C489 1.327 . S
C491 C507 1.429 . S
C491 H513 0.950 . S
C492 H488 0.949 . S
C492 C500 1.574 . S
C492 C508 1.368 . S
H493 C501 0.950 . S
H494 C499 0.950 . S
H495 C500 0.949 . S
H496 C502 0.950 . S
H497 C503 0.950 . S
H498 C504 0.949 . S
C499 H494 0.950 . S
C499 C501 1.327 . S
C499 C505 1.429 . S
C500 C492 1.574 . S
C500 H495 0.949 . S
C500 C506 1.368 . S
C501 C485 1.349 . S
C501 H493 0.950 . S
C501 C499 1.327 . S
C502 C490 1.349 . S
C502 H496 0.950 . S
C502 C503 1.327 . S
C503 H497 0.950 . S
C503 C502 1.327 . S
C503 C507 1.429 . S
C504 C487 1.574 . S
C504 H498 0.949 . S
C504 C508 1.368 . S
C505 C486 1.429 . S
C505 C499 1.429 . S
C505 C506 1.523 . S
C506 C487 1.368 . S
C506 C500 1.368 . S
C506 C505 1.523 . S
C507 C491 1.429 . S
C507 C503 1.429 . S
C507 C508 1.523 . S
C508 C492 1.368 . S
C508 C504 1.368 . S
C508 C507 1.523 . S
H509 C484 0.950 . S
H510 C486 0.950 . S
H511 C487 0.949 . S
H512 C489 0.950 . S
H513 C491 0.950 . S
C514 C515 1.349 . S
C514 C516 1.327 . S
C514 H539 0.950 . S
C515 C514 1.349 . S
C515 C531 1.349 . S
C516 C514 1.327 . S
C516 C535 1.429 . S
C516 H540 0.950 . S
C517 C534 1.574 . S
C517 C536 1.368 . S
C517 H541 0.949 . S
H518 C522 0.949 . S
C519 C520 1.349 . S
C519 C521 1.327 . S
C519 H542 0.950 . S
C520 C519 1.349 . S
C520 C532 1.349 . S
C521 C519 1.327 . S
C521 C537 1.429 . S
C521 H543 0.950 . S
C522 H518 0.949 . S
C522 C530 1.574 . S
C522 C538 1.368 . S
H523 C531 0.950 . S
H524 C529 0.950 . S
H525 C530 0.949 . S
H526 C532 0.950 . S
H527 C533 0.950 . S
H528 C534 0.949 . S
C529 H524 0.950 . S
C529 C531 1.327 . S
C529 C535 1.429 . S
C530 C522 1.574 . S
C530 H525 0.949 . S
C530 C536 1.368 . S
C531 C515 1.349 . S
C531 H523 0.950 . S
C531 C529 1.327 . S
C532 C520 1.349 . S
C532 H526 0.950 . S
C532 C533 1.327 . S
C533 H527 0.950 . S
C533 C532 1.327 . S
C533 C537 1.429 . S
C534 C517 1.574 . S
C534 H528 0.949 . S
C534 C538 1.368 . S
C535 C516 1.429 . S
C535 C529 1.429 . S
C535 C536 1.523 . S
C536 C517 1.368 . S
C536 C530 1.368 . S
C536 C535 1.523 . S
C537 C521 1.429 . S
C537 C533 1.429 . S
C537 C538 1.523 . S
C538 C522 1.368 . S
C538 C534 1.368 . S
C538 C537 1.523 . S
H539 C514 0.950 . S
H540 C516 0.950 . S
H541 C517 0.949 . S
H542 C519 0.950 . S
H543 C521 0.950 . S
C544 C545 1.349 . S
C544 C546 1.327 . S
C544 H569 0.950 . S
C545 C544 1.349 . S
C545 C561 1.349 . S
C546 C544 1.327 . S
C546 C565 1.429 . S
C546 H570 0.950 . S
C547 C564 1.574 . S
C547 C566 1.368 . S
C547 H571 0.949 . S
H548 C552 0.949 1_545 S
C549 C550 1.349 . S
C549 C551 1.327 . S
C549 H572 0.950 . S
C550 C549 1.349 . S
C550 C562 1.349 1_565 S
C551 C549 1.327 . S
C551 C567 1.429 . S
C551 H573 0.950 . S
C552 H548 0.949 1_565 S
C552 C560 1.574 . S
C552 C568 1.368 . S
H553 C561 0.950 . S
H554 C559 0.950 1_556 S
H555 C560 0.949 1_554 S
H556 C562 0.950 . S
H557 C563 0.950 . S
H558 C564 0.949 . S
C559 H554 0.950 1_554 S
C559 C561 1.327 . S
C559 C565 1.429 . S
C560 C552 1.574 . S
C560 H555 0.949 1_556 S
C560 C566 1.368 . S
C561 C545 1.349 . S
C561 H553 0.950 . S
C561 C559 1.327 . S
C562 C550 1.349 1_545 S
C562 H556 0.950 . S
C562 C563 1.327 . S
C563 H557 0.950 . S
C563 C562 1.327 . S
C563 C567 1.429 1_545 S
C564 C547 1.574 . S
C564 H558 0.949 . S
C564 C568 1.368 . S
C565 C546 1.429 . S
C565 C559 1.429 . S
C565 C566 1.523 1_554 S
C566 C547 1.368 . S
C566 C560 1.368 . S
C566 C565 1.523 1_556 S
C567 C551 1.429 . S
C567 C563 1.429 1_565 S
C567 C568 1.523 . S
C568 C552 1.368 . S
C568 C564 1.368 . S
C568 C567 1.523 . S
H569 C544 0.950 . S
H570 C546 0.950 . S
H571 C547 0.949 . S
H572 C549 0.950 . S
H573 C551 0.950 . S
C574 C575 1.349 . S
C574 C576 1.327 . S
C574 H599 0.950 . S
C575 C574 1.349 . S
C575 C591 1.349 . S
C576 C574 1.327 . S
C576 C595 1.429 . S
C576 H600 0.950 1_554 S
C577 C594 1.574 . S
C577 C596 1.368 . S
C577 H601 0.949 1_556 S
H578 C582 0.949 . S
C579 C580 1.349 . S
C579 C581 1.327 . S
C579 H602 0.950 . S
C580 C579 1.349 . S
C580 C592 1.349 . S
C581 C579 1.327 . S
C581 C597 1.429 . S
C581 H603 0.950 . S
C582 H578 0.949 . S
C582 C590 1.574 . S
C582 C598 1.368 . S
H583 C591 0.950 . S
H584 C589 0.950 . S
H585 C590 0.949 . S
H586 C592 0.950 . S
H587 C593 0.950 . S
H588 C594 0.949 . S
C589 H584 0.950 . S
C589 C591 1.327 . S
C589 C595 1.429 . S
C590 C582 1.574 . S
C590 H585 0.949 . S
C590 C596 1.368 . S
C591 C575 1.349 . S
C591 H583 0.950 . S
C591 C589 1.327 . S
C592 C580 1.349 . S
C592 H586 0.950 . S
C592 C593 1.327 . S
C593 H587 0.950 . S
C593 C592 1.327 . S
C593 C597 1.429 . S
C594 C577 1.574 . S
C594 H588 0.949 . S
C594 C598 1.368 . S
C595 C576 1.429 . S
C595 C589 1.429 . S
C595 C596 1.523 1_554 S
C596 C577 1.368 . S
C596 C590 1.368 . S
C596 C595 1.523 1_556 S
C597 C581 1.429 . S
C597 C593 1.429 . S
C597 C598 1.523 . S
C598 C582 1.368 . S
C598 C594 1.368 . S
C598 C597 1.523 . S
H599 C574 0.950 . S
H600 C576 0.950 1_556 S
H601 C577 0.949 1_554 S
H602 C579 0.950 . S
H603 C581 0.950 . S
C604 C605 1.349 . S
C604 C606 1.327 . S
C604 H629 0.950 . S
C605 C604 1.349 . S
C605 C621 1.349 . S
C606 C604 1.327 . S
C606 C625 1.429 . S
C606 H630 0.950 . S
C607 C624 1.574 . S
C607 C626 1.368 . S
C607 H631 0.949 . S
H608 C612 0.949 . S
C609 C610 1.349 . S
C609 C611 1.327 . S
C609 H632 0.950 . S
C610 C609 1.349 . S
C610 C622 1.349 . S
C611 C609 1.327 . S
C611 C627 1.429 . S
C611 H633 0.950 . S
C612 H608 0.949 . S
C612 C620 1.574 . S
C612 C628 1.368 . S
H613 C621 0.950 . S
H614 C619 0.950 1_556 S
H615 C620 0.949 1_554 S
H616 C622 0.950 . S
H617 C623 0.950 . S
H618 C624 0.949 . S
C619 H614 0.950 1_554 S
C619 C621 1.327 . S
C619 C625 1.429 . S
C620 C612 1.574 . S
C620 H615 0.949 1_556 S
C620 C626 1.368 . S
C621 C605 1.349 . S
C621 H613 0.950 . S
C621 C619 1.327 . S
C622 C610 1.349 . S
C622 H616 0.950 . S
C622 C623 1.327 . S
C623 H617 0.950 . S
C623 C622 1.327 . S
C623 C627 1.429 . S
C624 C607 1.574 . S
C624 H618 0.949 . S
C624 C628 1.368 . S
C625 C606 1.429 . S
C625 C619 1.429 . S
C625 C626 1.523 1_554 S
C626 C607 1.368 . S
C626 C620 1.368 . S
C626 C625 1.523 1_556 S
C627 C611 1.429 . S
C627 C623 1.429 . S
C627 C628 1.523 . S
C628 C612 1.368 . S
C628 C624 1.368 . S
C628 C627 1.523 . S
H629 C604 0.950 . S
H630 C606 0.950 . S
H631 C607 0.949 . S
H632 C609 0.950 . S
H633 C611 0.950 . S
C634 C635 1.349 . S
C634 C636 1.327 . S
C634 H659 0.950 . S
C635 C634 1.349 . S
C635 C651 1.349 . S
C636 C634 1.327 . S
C636 C655 1.429 . S
C636 H660 0.950 . S
C637 C654 1.574 . S
C637 C656 1.368 . S
C637 H661 0.949 1_556 S
H638 C642 0.946 1_455 S
C639 C640 1.349 . S
C639 C641 1.327 . S
C639 H662 0.950 . S
C640 C639 1.349 . S
C640 C652 1.349 1_655 S
C641 C639 1.327 . S
C641 C657 1.429 . S
C641 H663 0.950 . S
C642 H638 0.946 1_655 S
C642 C650 1.574 . S
C642 C658 1.368 . S
H643 C651 0.950 . S
H644 C649 0.950 . S
H645 C650 0.949 . S
H646 C652 0.950 . S
H647 C653 0.950 1_455 S
H648 C654 0.949 . S
C649 H644 0.950 . S
C649 C651 1.327 . S
C649 C655 1.429 . S
C650 C642 1.574 . S
C650 H645 0.949 . S
C650 C656 1.368 . S
C651 C635 1.349 . S
C651 H643 0.950 . S
C651 C649 1.327 . S
C652 C640 1.349 1_455 S
C652 H646 0.950 . S
C652 C653 1.327 1_455 S
C653 H647 0.950 1_655 S
C653 C652 1.327 1_655 S
C653 C657 1.429 . S
C654 C637 1.574 . S
C654 H648 0.949 . S
C654 C658 1.368 . S
C655 C636 1.429 . S
C655 C649 1.429 . S
C655 C656 1.523 1_554 S
C656 C637 1.368 . S
C656 C650 1.368 . S
C656 C655 1.523 1_556 S
C657 C641 1.429 . S
C657 C653 1.429 . S
C657 C658 1.523 . S
C658 C642 1.368 . S
C658 C654 1.368 . S
C658 C657 1.523 . S
H659 C634 0.950 . S
H660 C636 0.950 . S
H661 C637 0.949 1_554 S
H662 C639 0.950 . S
H663 C641 0.950 . S
C664 C665 1.349 . S
C664 C666 1.327 . S
C664 H689 0.950 . S
C665 C664 1.349 . S
C665 C681 1.349 . S
C666 C664 1.327 . S
C666 C685 1.429 . S
C666 H690 0.950 . S
C667 C684 1.574 . S
C667 C686 1.368 . S
C667 H691 0.949 . S
H668 C672 0.949 . S
C669 C670 1.362 . S
C669 C671 1.340 . S
C669 H692 0.925 1_455 S
C670 C669 1.362 . S
C670 C682 1.349 . S
C671 C669 1.340 . S
C671 C687 1.429 . S
C671 H693 0.950 . S
C672 H668 0.949 . S
C672 C680 1.574 . S
C672 C688 1.368 . S
H673 C681 0.950 . S
H674 C679 0.950 . S
H675 C680 0.949 . S
H676 C682 0.950 . S
H677 C683 0.950 . S
H678 C684 0.949 . S
C679 H674 0.950 . S
C679 C681 1.327 . S
C679 C685 1.429 . S
C680 C672 1.574 . S
C680 H675 0.949 . S
C680 C686 1.368 . S
C681 C665 1.349 . S
C681 H673 0.950 . S
C681 C679 1.327 . S
C682 C670 1.349 . S
C682 H676 0.950 . S
C682 C683 1.327 . S
C683 H677 0.950 . S
C683 C682 1.327 . S
C683 C687 1.429 . S
C684 C667 1.574 . S
C684 H678 0.949 . S
C684 C688 1.368 . S
C685 C666 1.429 . S
C685 C679 1.429 . S
C685 C686 1.523 . S
C686 C667 1.368 . S
C686 C680 1.368 . S
C686 C685 1.523 . S
C687 C671 1.429 . S
C687 C683 1.429 . S
C687 C688 1.523 . S
C688 C672 1.368 . S
C688 C684 1.368 . S
C688 C687 1.523 . S
H689 C664 0.950 . S
H690 C666 0.950 . S
H691 C667 0.949 . S
H692 C669 0.925 1_655 S
H693 C671 0.950 . S
C694 C695 1.349 . S
C694 C696 1.327 . S
C694 H719 0.950 . S
C695 C694 1.349 . S
C695 C711 1.349 . S
C696 C694 1.327 . S
C696 C715 1.429 . S
C696 H720 0.950 . S
C697 C714 1.574 . S
C697 C716 1.368 . S
C697 H721 0.949 . S
H698 C702 0.949 . S
C699 C700 1.349 1_565 S
C699 C701 1.327 1_565 S
C699 H722 0.950 . S
C700 C699 1.349 1_545 S
C700 C712 1.349 . S
C701 C699 1.327 1_545 S
C701 C717 1.429 . S
C701 H723 0.950 1_545 S
C702 H698 0.949 . S
C702 C710 1.574 . S
C702 C718 1.368 . S
H703 C711 0.950 . S
H704 C709 0.950 . S
H705 C710 0.949 . S
H706 C712 0.950 . S
H707 C713 0.950 . S
H708 C714 0.949 . S
C709 H704 0.950 . S
C709 C711 1.327 . S
C709 C715 1.429 . S
C710 C702 1.574 . S
C710 H705 0.949 . S
C710 C716 1.368 . S
C711 C695 1.349 . S
C711 H703 0.950 . S
C711 C709 1.327 . S
C712 C700 1.349 . S
C712 H706 0.950 . S
C712 C713 1.327 . S
C713 H707 0.950 . S
C713 C712 1.327 . S
C713 C717 1.429 . S
C714 C697 1.574 . S
C714 H708 0.949 . S
C714 C718 1.368 . S
C715 C696 1.429 . S
C715 C709 1.429 . S
C715 C716 1.523 . S
C716 C697 1.368 . S
C716 C710 1.368 . S
C716 C715 1.523 . S
C717 C701 1.429 . S
C717 C713 1.429 . S
C717 C718 1.523 . S
C718 C702 1.368 . S
C718 C714 1.368 . S
C718 C717 1.523 . S
H719 C694 0.950 . S
H720 C696 0.950 . S
H721 C697 0.949 . S
H722 C699 0.950 . S
H723 C701 0.950 1_565 S
C724 C725 1.349 . S
C724 C726 1.327 . S
C724 H749 0.950 . S
C725 C724 1.349 . S
C725 C741 1.349 . S
C726 C724 1.327 . S
C726 C745 1.429 . S
C726 H750 0.950 . S
C727 C744 1.574 . S
C727 C746 1.368 . S
C727 H751 0.949 . S
H728 C732 0.949 . S
C729 C730 1.349 . S
C729 C731 1.327 . S
C729 H752 0.950 . S
C730 C729 1.349 . S
C730 C742 1.349 . S
C731 C729 1.327 . S
C731 C747 1.429 . S
C731 H753 0.950 . S
C732 H728 0.949 . S
C732 C740 1.574 . S
C732 C748 1.368 . S
H733 C741 0.950 . S
H734 C739 0.950 . S
H735 C740 0.949 . S
H736 C742 0.950 . S
H737 C743 0.950 . S
H738 C744 0.949 . S
C739 H734 0.950 . S
C739 C741 1.327 . S
C739 C745 1.429 . S
C740 C732 1.574 . S
C740 H735 0.949 . S
C740 C746 1.368 . S
C741 C725 1.349 . S
C741 H733 0.950 . S
C741 C739 1.327 . S
C742 C730 1.349 . S
C742 H736 0.950 . S
C742 C743 1.327 . S
C743 H737 0.950 . S
C743 C742 1.327 . S
C743 C747 1.429 . S
C744 C727 1.574 . S
C744 H738 0.949 . S
C744 C748 1.368 . S
C745 C726 1.429 . S
C745 C739 1.429 . S
C745 C746 1.523 . S
C746 C727 1.368 . S
C746 C740 1.368 . S
C746 C745 1.523 . S
C747 C731 1.429 . S
C747 C743 1.429 . S
C747 C748 1.523 . S
C748 C732 1.368 . S
C748 C744 1.368 . S
C748 C747 1.523 . S
H749 C724 0.950 . S
H750 C726 0.950 . S
H751 C727 0.949 . S
H752 C729 0.950 . S
H753 C731 0.950 . S
C754 C755 1.349 . S
C754 C756 1.327 . S
C754 H779 0.950 . S
C755 C754 1.349 . S
C755 C771 1.349 . S
C756 C754 1.327 . S
C756 C775 1.429 . S
C756 H780 0.950 . S
C757 C774 1.574 . S
C757 C776 1.368 . S
C757 H781 0.949 . S
H758 C762 0.949 . S
C759 C760 1.349 . S
C759 C761 1.327 . S
C759 H782 0.950 . S
C760 C759 1.349 . S
C760 C772 1.349 . S
C761 C759 1.327 . S
C761 C777 1.429 . S
C761 H783 0.950 . S
C762 H758 0.949 . S
C762 C770 1.574 . S
C762 C778 1.368 . S
H763 C771 0.950 . S
H764 C769 0.950 . S
H765 C770 0.949 . S
H766 C772 0.950 . S
H767 C773 0.950 . S
H768 C774 0.949 . S
C769 H764 0.950 . S
C769 C771 1.327 . S
C769 C775 1.429 . S
C770 C762 1.574 . S
C770 H765 0.949 . S
C770 C776 1.368 . S
C771 C755 1.349 . S
C771 H763 0.950 . S
C771 C769 1.327 . S
C772 C760 1.349 . S
C772 H766 0.950 . S
C772 C773 1.327 . S
C773 H767 0.950 . S
C773 C772 1.327 . S
C773 C777 1.429 . S
C774 C757 1.574 . S
C774 H768 0.949 . S
C774 C778 1.368 . S
C775 C756 1.429 . S
C775 C769 1.429 . S
C775 C776 1.523 . S
C776 C757 1.368 . S
C776 C770 1.368 . S
C776 C775 1.523 . S
C777 C761 1.429 . S
C777 C773 1.429 . S
C777 C778 1.523 . S
C778 C762 1.368 . S
C778 C774 1.368 . S
C778 C777 1.523 . S
H779 C754 0.950 . S
H780 C756 0.950 . S
H781 C757 0.949 . S
H782 C759 0.950 . S
H783 C761 0.950 . S
C784 C785 1.349 . S
C784 C786 1.327 . S
C784 H809 0.950 . S
C785 C784 1.349 . S
C785 C801 1.349 . S
C786 C784 1.327 . S
C786 C805 1.429 . S
C786 H810 0.950 . S
C787 C804 1.574 . S
C787 C806 1.368 . S
C787 H811 0.949 . S
H788 C792 0.949 . S
C789 C790 1.349 . S
C789 C791 1.327 . S
C789 H812 0.950 . S
C790 C789 1.349 . S
C790 C802 1.349 1_455 S
C791 C789 1.327 . S
C791 C807 1.429 1_455 S
C791 H813 0.950 . S
C792 H788 0.949 . S
C792 C800 1.574 . S
C792 C808 1.368 . S
H793 C801 0.950 . S
H794 C799 0.950 . S
H795 C800 0.949 . S
H796 C802 0.950 . S
H797 C803 0.950 . S
H798 C804 0.949 1_455 S
C799 H794 0.950 . S
C799 C801 1.327 . S
C799 C805 1.429 . S
C800 C792 1.574 . S
C800 H795 0.949 . S
C800 C806 1.368 1_556 S
C801 C785 1.349 . S
C801 H793 0.950 . S
C801 C799 1.327 . S
C802 C790 1.349 1_655 S
C802 H796 0.950 . S
C802 C803 1.327 . S
C803 H797 0.950 . S
C803 C802 1.327 . S
C803 C807 1.429 . S
C804 C787 1.574 . S
C804 H798 0.949 1_655 S
C804 C808 1.368 1_554 S
C805 C786 1.429 . S
C805 C799 1.429 . S
C805 C806 1.523 . S
C806 C787 1.368 . S
C806 C800 1.368 1_554 S
C806 C805 1.523 . S
C807 C791 1.429 1_655 S
C807 C803 1.429 . S
C807 C808 1.523 . S
C808 C792 1.368 . S
C808 C804 1.368 1_556 S
C808 C807 1.523 . S
H809 C784 0.950 . S
H810 C786 0.950 . S
H811 C787 0.949 . S
H812 C789 0.950 . S
H813 C791 0.950 . S
C814 C815 1.349 . S
C814 C816 1.327 . S
C814 H839 0.950 . S
C815 C814 1.349 . S
C815 C831 1.349 . S
C816 C814 1.327 . S
C816 C835 1.429 . S
C816 H840 0.950 . S
C817 C834 1.572 1_564 S
C817 C836 1.368 . S
C817 H841 0.967 . S
H818 C822 0.949 . S
C819 C820 1.349 . S
C819 C821 1.327 . S
C819 H842 0.950 . S
C820 C819 1.349 . S
C820 C832 1.349 1_545 S
C821 C819 1.327 . S
C821 C837 1.429 1_545 S
C821 H843 0.950 . S
C822 H818 0.949 . S
C822 C830 1.574 . S
C822 C838 1.368 1_554 S
H823 C831 0.950 . S
H824 C829 0.950 . S
H825 C830 0.949 . S
H826 C832 0.950 . S
H827 C833 0.950 . S
H828 C834 0.953 . S
C829 H824 0.950 . S
C829 C831 1.327 . S
C829 C835 1.429 . S
C830 C822 1.574 . S
C830 H825 0.949 . S
C830 C836 1.368 . S
C831 C815 1.349 . S
C831 H823 0.950 . S
C831 C829 1.327 . S
C832 C820 1.349 1_565 S
C832 H826 0.950 . S
C832 C833 1.327 . S
C833 H827 0.950 . S
C833 C832 1.327 . S
C833 C837 1.429 . S
C834 C817 1.572 1_546 S
C834 H828 0.953 . S
C834 C838 1.366 1_545 S
C835 C816 1.429 . S
C835 C829 1.429 . S
C835 C836 1.523 . S
C836 C817 1.368 . S
C836 C830 1.368 . S
C836 C835 1.523 . S
C837 C821 1.429 1_565 S
C837 C833 1.429 . S
C837 C838 1.523 . S
C838 C822 1.368 1_556 S
C838 C834 1.366 1_565 S
C838 C837 1.523 . S
H839 C814 0.950 . S
H840 C816 0.950 . S
H841 C817 0.967 . S
H842 C819 0.950 . S
H843 C821 0.950 . S
C844 C845 1.349 . S
C844 C846 1.327 . S
C844 H869 0.950 . S
C845 C844 1.349 . S
C845 C861 1.349 . S
C846 C844 1.327 . S
C846 C865 1.429 . S
C846 H870 0.950 . S
C847 C864 1.574 . S
C847 C866 1.368 1_556 S
C847 H871 0.949 . S
H848 C852 0.949 . S
C849 C850 1.349 . S
C849 C851 1.327 . S
C849 H872 0.950 . S
C850 C849 1.349 . S
C850 C862 1.349 . S
C851 C849 1.327 . S
C851 C867 1.429 . S
C851 H873 0.950 . S
C852 H848 0.949 . S
C852 C860 1.574 . S
C852 C868 1.368 1_554 S
H853 C861 0.950 . S
H854 C859 0.950 1_556 S
H855 C860 0.949 . S
H856 C862 0.950 . S
H857 C863 0.950 1_554 S
H858 C864 0.949 . S
C859 H854 0.950 1_554 S
C859 C861 1.327 . S
C859 C865 1.429 . S
C860 C852 1.574 . S
C860 H855 0.949 . S
C860 C866 1.368 . S
C861 C845 1.349 . S
C861 H853 0.950 . S
C861 C859 1.327 . S
C862 C850 1.349 . S
C862 H856 0.950 . S
C862 C863 1.327 . S
C863 H857 0.950 1_556 S
C863 C862 1.327 . S
C863 C867 1.429 . S
C864 C847 1.574 . S
C864 H858 0.949 . S
C864 C868 1.368 . S
C865 C846 1.429 . S
C865 C859 1.429 . S
C865 C866 1.523 . S
C866 C847 1.368 1_554 S
C866 C860 1.368 . S
C866 C865 1.523 . S
C867 C851 1.429 . S
C867 C863 1.429 . S
C867 C868 1.523 . S
C868 C852 1.368 1_556 S
C868 C864 1.368 . S
C868 C867 1.523 . S
H869 C844 0.950 . S
H870 C846 0.950 . S
H871 C847 0.949 . S
H872 C849 0.950 . S
H873 C851 0.950 . S
C874 C875 1.349 . S
C874 C876 1.327 . S
C874 H899 0.950 . S
C875 C874 1.349 . S
C875 C891 1.349 . S
C876 C874 1.327 . S
C876 C895 1.429 . S
C876 H900 0.950 . S
C877 C894 1.574 . S
C877 C896 1.368 1_556 S
C877 H901 0.949 . S
H878 C882 0.949 . S
C879 C880 1.349 . S
C879 C881 1.327 . S
C879 H902 0.950 . S
C880 C879 1.349 . S
C880 C892 1.349 . S
C881 C879 1.327 . S
C881 C897 1.429 . S
C881 H903 0.950 . S
C882 H878 0.949 . S
C882 C890 1.574 . S
C882 C898 1.368 1_554 S
H883 C891 0.950 . S
H884 C889 0.950 1_556 S
H885 C890 0.949 . S
H886 C892 0.950 . S
H887 C893 0.950 1_554 S
H888 C894 0.949 . S
C889 H884 0.950 1_554 S
C889 C891 1.327 . S
C889 C895 1.429 . S
C890 C882 1.574 . S
C890 H885 0.949 . S
C890 C896 1.368 . S
C891 C875 1.349 . S
C891 H883 0.950 . S
C891 C889 1.327 . S
C892 C880 1.349 . S
C892 H886 0.950 . S
C892 C893 1.327 . S
C893 H887 0.950 1_556 S
C893 C892 1.327 . S
C893 C897 1.429 . S
C894 C877 1.574 . S
C894 H888 0.949 . S
C894 C898 1.368 . S
C895 C876 1.429 . S
C895 C889 1.429 . S
C895 C896 1.523 . S
C896 C877 1.368 1_554 S
C896 C890 1.368 . S
C896 C895 1.523 . S
C897 C881 1.429 . S
C897 C893 1.429 . S
C897 C898 1.523 . S
C898 C882 1.368 1_556 S
C898 C894 1.368 . S
C898 C897 1.523 . S
H899 C874 0.950 . S
H900 C876 0.950 . S
H901 C877 0.949 . S
H902 C879 0.950 . S
H903 C881 0.950 . S
C904 C905 1.349 . S
C904 C906 1.327 . S
C904 H929 0.950 . S
C905 C904 1.349 . S
C905 C921 1.349 . S
C906 C904 1.327 . S
C906 C925 1.429 . S
C906 H930 0.950 . S
C907 C924 1.574 . S
C907 C926 1.368 . S
C907 H931 0.949 . S
H908 C912 0.949 . S
C909 C910 1.349 . S
C909 C911 1.327 . S
C909 H932 0.950 . S
C910 C909 1.349 . S
C910 C922 1.349 . S
C911 C909 1.327 . S
C911 C927 1.429 . S
C911 H933 0.950 . S
C912 H908 0.949 . S
C912 C920 1.574 . S
C912 C928 1.368 . S
H913 C921 0.950 . S
H914 C919 0.950 . S
H915 C920 0.949 . S
H916 C922 0.950 . S
H917 C923 0.950 . S
H918 C924 0.949 . S
C919 H914 0.950 . S
C919 C921 1.327 . S
C919 C925 1.429 . S
C920 C912 1.574 . S
C920 H915 0.949 . S
C920 C926 1.368 . S
C921 C905 1.349 . S
C921 H913 0.950 . S
C921 C919 1.327 . S
C922 C910 1.349 . S
C922 H916 0.950 . S
C922 C923 1.327 . S
C923 H917 0.950 . S
C923 C922 1.327 . S
C923 C927 1.429 . S
C924 C907 1.574 . S
C924 H918 0.949 . S
C924 C928 1.368 . S
C925 C906 1.429 . S
C925 C919 1.429 . S
C925 C926 1.523 . S
C926 C907 1.368 . S
C926 C920 1.368 . S
C926 C925 1.523 . S
C927 C911 1.429 . S
C927 C923 1.429 . S
C927 C928 1.523 . S
C928 C912 1.368 . S
C928 C924 1.368 . S
C928 C927 1.523 . S
H929 C904 0.950 . S
H930 C906 0.950 . S
H931 C907 0.949 . S
H932 C909 0.950 . S
H933 C911 0.950 . S
C934 C935 1.349 . S
C934 C936 1.327 . S
C934 H959 0.950 . S
C935 C934 1.349 . S
C935 C951 1.349 . S
C936 C934 1.327 . S
C936 C955 1.429 . S
C936 H960 0.950 . S
C937 C954 1.574 . S
C937 C956 1.368 . S
C937 H961 0.949 . S
H938 C942 0.949 . S
C939 C940 1.349 . S
C939 C941 1.327 . S
C939 H962 0.950 1_545 S
C940 C939 1.349 . S
C940 C952 1.349 . S
C941 C939 1.327 . S
C941 C957 1.429 . S
C941 H963 0.950 . S
C942 H938 0.949 . S
C942 C950 1.574 . S
C942 C958 1.368 . S
H943 C951 0.950 . S
H944 C949 0.950 . S
H945 C950 0.949 . S
H946 C952 0.950 . S
H947 C953 0.950 . S
H948 C954 0.949 . S
C949 H944 0.950 . S
C949 C951 1.327 . S
C949 C955 1.429 . S
C950 C942 1.574 . S
C950 H945 0.949 . S
C950 C956 1.368 . S
C951 C935 1.349 . S
C951 H943 0.950 . S
C951 C949 1.327 . S
C952 C940 1.349 . S
C952 H946 0.950 . S
C952 C953 1.327 . S
C953 H947 0.950 . S
C953 C952 1.327 . S
C953 C957 1.429 . S
C954 C937 1.574 . S
C954 H948 0.949 . S
C954 C958 1.368 . S
C955 C936 1.429 . S
C955 C949 1.429 . S
C955 C956 1.523 . S
C956 C937 1.368 . S
C956 C950 1.368 . S
C956 C955 1.523 . S
C957 C941 1.429 . S
C957 C953 1.429 . S
C957 C958 1.523 . S
C958 C942 1.368 . S
C958 C954 1.368 . S
C958 C957 1.523 . S
H959 C934 0.950 . S
H960 C936 0.950 . S
H961 C937 0.949 . S
H962 C939 0.950 1_565 S
H963 C941 0.950 . S
C964 C965 1.349 . S
C964 C966 1.327 . S
C964 H989 0.950 . S
C965 C964 1.349 . S
C965 C981 1.349 . S
C966 C964 1.327 . S
C966 C985 1.429 . S
C966 H990 0.950 . S
C967 C984 1.574 . S
C967 C986 1.368 . S
C967 H991 0.949 . S
H968 C972 0.949 . S
C969 C970 1.349 . S
C969 C971 1.327 . S
C969 H992 0.950 . S
C970 C969 1.349 . S
C970 C982 1.349 . S
C971 C969 1.327 . S
C971 C987 1.429 . S
C971 H993 0.950 . S
C972 H968 0.949 . S
C972 C980 1.574 . S
C972 C988 1.368 . S
H973 C981 0.950 . S
H974 C979 0.950 . S
H975 C980 0.949 . S
H976 C982 0.950 . S
H977 C983 0.950 . S
H978 C984 0.949 . S
C979 H974 0.950 . S
C979 C981 1.327 . S
C979 C985 1.429 . S
C980 C972 1.574 . S
C980 H975 0.949 . S
C980 C986 1.368 . S
C981 C965 1.349 . S
C981 H973 0.950 . S
C981 C979 1.327 . S
C982 C970 1.349 . S
C982 H976 0.950 . S
C982 C983 1.327 . S
C983 H977 0.950 . S
C983 C982 1.327 . S
C983 C987 1.429 . S
C984 C967 1.574 . S
C984 H978 0.949 . S
C984 C988 1.368 . S
C985 C966 1.429 . S
C985 C979 1.429 . S
C985 C986 1.523 . S
C986 C967 1.368 . S
C986 C980 1.368 . S
C986 C985 1.523 . S
C987 C971 1.429 . S
C987 C983 1.429 . S
C987 C988 1.523 . S
C988 C972 1.368 . S
C988 C984 1.368 . S
C988 C987 1.523 . S
H989 C964 0.950 . S
H990 C966 0.950 . S
H991 C967 0.949 . S
H992 C969 0.950 . S
H993 C971 0.950 . S
C994 C995 1.349 . S
C994 C996 1.327 . S
C994 H1019 0.950 . S
C995 C994 1.349 . S
C995 C1011 1.349 . S
C996 C994 1.327 . S
C996 C1015 1.429 . S
C996 H1020 0.950 . S
C997 C1014 1.574 . S
C997 C1016 1.368 . S
C997 H1021 0.949 . S
H998 C1002 0.949 . S
C999 C1000 1.349 . S
C999 C1001 1.327 . S
C999 H1022 0.950 . S
C1000 C999 1.349 . S
C1000 C1012 1.349 . S
C1001 C999 1.327 . S
C1001 C1017 1.429 . S
C1001 H1023 0.950 . S
C1002 H998 0.949 . S
C1002 C1010 1.574 . S
C1002 C1018 1.368 . S
H1003 C1011 0.950 . S
H1004 C1009 0.950 . S
H1005 C1010 0.949 . S
H1006 C1012 0.950 . S
H1007 C1013 0.950 . S
H1008 C1014 0.949 . S
C1009 H1004 0.950 . S
C1009 C1011 1.327 . S
C1009 C1015 1.429 . S
C1010 C1002 1.574 . S
C1010 H1005 0.949 . S
C1010 C1016 1.368 . S
C1011 C995 1.349 . S
C1011 H1003 0.950 . S
C1011 C1009 1.327 . S
C1012 C1000 1.349 . S
C1012 H1006 0.950 . S
C1012 C1013 1.327 . S
C1013 H1007 0.950 . S
C1013 C1012 1.327 . S
C1013 C1017 1.429 . S
C1014 C997 1.574 . S
C1014 H1008 0.949 . S
C1014 C1018 1.368 . S
C1015 C996 1.429 . S
C1015 C1009 1.429 . S
C1015 C1016 1.523 . S
C1016 C997 1.368 . S
C1016 C1010 1.368 . S
C1016 C1015 1.523 . S
C1017 C1001 1.429 . S
C1017 C1013 1.429 . S
C1017 C1018 1.523 . S
C1018 C1002 1.368 . S
C1018 C1014 1.368 . S
C1018 C1017 1.523 . S
H1019 C994 0.950 . S
H1020 C996 0.950 . S
H1021 C997 0.949 . S
H1022 C999 0.950 . S
H1023 C1001 0.950 . S
C1024 C1025 1.349 . S
C1024 C1026 1.327 . S
C1024 H1049 0.950 . S
C1025 C1024 1.349 . S
C1025 C1041 1.349 . S
C1026 C1024 1.327 . S
C1026 C1045 1.429 . S
C1026 H1050 0.950 . S
C1027 C1044 1.574 . S
C1027 C1046 1.368 . S
C1027 H1051 0.949 . S
H1028 C1032 0.949 . S
C1029 C1030 1.349 . S
C1029 C1031 1.327 . S
C1029 H1052 0.950 . S
C1030 C1029 1.349 . S
C1030 C1042 1.349 . S
C1031 C1029 1.327 . S
C1031 C1047 1.429 . S
C1031 H1053 0.950 . S
C1032 H1028 0.949 . S
C1032 C1040 1.574 . S
C1032 C1048 1.368 . S
H1033 C1041 0.950 . S
H1034 C1039 0.950 . S
H1035 C1040 0.949 . S
H1036 C1042 0.950 . S
H1037 C1043 0.950 . S
H1038 C1044 0.949 . S
C1039 H1034 0.950 . S
C1039 C1041 1.327 . S
C1039 C1045 1.429 . S
C1040 C1032 1.574 . S
C1040 H1035 0.949 . S
C1040 C1046 1.368 . S
C1041 C1025 1.349 . S
C1041 H1033 0.950 . S
C1041 C1039 1.327 . S
C1042 C1030 1.349 . S
C1042 H1036 0.950 . S
C1042 C1043 1.327 . S
C1043 H1037 0.950 . S
C1043 C1042 1.327 . S
C1043 C1047 1.429 . S
C1044 C1027 1.574 . S
C1044 H1038 0.949 . S
C1044 C1048 1.368 . S
C1045 C1026 1.429 . S
C1045 C1039 1.429 . S
C1045 C1046 1.523 . S
C1046 C1027 1.368 . S
C1046 C1040 1.368 . S
C1046 C1045 1.523 . S
C1047 C1031 1.429 . S
C1047 C1043 1.429 . S
C1047 C1048 1.523 . S
C1048 C1032 1.368 . S
C1048 C1044 1.368 . S
C1048 C1047 1.523 . S
H1049 C1024 0.950 . S
H1050 C1026 0.950 . S
H1051 C1027 0.949 . S
H1052 C1029 0.950 . S
H1053 C1031 0.950 . S
C1054 C1055 1.349 . S
C1054 C1056 1.327 . S
C1054 H1079 0.950 . S
C1055 C1054 1.349 . S
C1055 C1071 1.349 . S
C1056 C1054 1.327 . S
C1056 C1075 1.429 . S
C1056 H1080 0.950 . S
C1057 C1074 1.574 . S
C1057 C1076 1.368 . S
C1057 H1081 0.949 . S
H1058 C1062 0.949 . S
C1059 C1060 1.349 . S
C1059 C1061 1.327 . S
C1059 H1082 0.950 . S
C1060 C1059 1.349 . S
C1060 C1072 1.349 . S
C1061 C1059 1.327 . S
C1061 C1077 1.429 . S
C1061 H1083 0.950 . S
C1062 H1058 0.949 . S
C1062 C1070 1.574 . S
C1062 C1078 1.368 . S
H1063 C1071 0.950 . S
H1064 C1069 0.950 . S
H1065 C1070 0.949 . S
H1066 C1072 0.950 . S
H1067 C1073 0.950 . S
H1068 C1074 0.949 . S
C1069 H1064 0.950 . S
C1069 C1071 1.327 . S
C1069 C1075 1.429 . S
C1070 C1062 1.574 . S
C1070 H1065 0.949 . S
C1070 C1076 1.368 . S
C1071 C1055 1.349 . S
C1071 H1063 0.950 . S
C1071 C1069 1.327 . S
C1072 C1060 1.349 . S
C1072 H1066 0.950 . S
C1072 C1073 1.327 . S
C1073 H1067 0.950 . S
C1073 C1072 1.327 . S
C1073 C1077 1.429 . S
C1074 C1057 1.574 . S
C1074 H1068 0.949 . S
C1074 C1078 1.368 . S
C1075 C1056 1.429 . S
C1075 C1069 1.429 . S
C1075 C1076 1.523 . S
C1076 C1057 1.368 . S
C1076 C1070 1.368 . S
C1076 C1075 1.523 . S
C1077 C1061 1.429 . S
C1077 C1073 1.429 . S
C1077 C1078 1.523 . S
C1078 C1062 1.368 . S
C1078 C1074 1.368 . S
C1078 C1077 1.523 . S
H1079 C1054 0.950 . S
H1080 C1056 0.950 . S
H1081 C1057 0.949 . S
H1082 C1059 0.950 . S
H1083 C1061 0.950 . S
C1084 C1085 1.349 . S
C1084 C1086 1.327 . S
C1084 H1109 0.950 . S
C1085 C1084 1.349 . S
C1085 C1101 1.349 . S
C1086 C1084 1.327 . S
C1086 C1105 1.429 . S
C1086 H1110 0.950 . S
C1087 C1104 1.574 . S
C1087 C1106 1.368 . S
C1087 H1111 0.949 . S
H1088 C1092 0.949 . S
C1089 C1090 1.349 . S
C1089 C1091 1.327 . S
C1089 H1112 0.950 . S
C1090 C1089 1.349 . S
C1090 C1102 1.349 . S
C1091 C1089 1.327 . S
C1091 C1107 1.429 . S
C1091 H1113 0.950 . S
C1092 H1088 0.949 . S
C1092 C1100 1.574 . S
C1092 C1108 1.368 . S
H1093 C1101 0.950 . S
H1094 C1099 0.950 . S
H1095 C1100 0.949 . S
H1096 C1102 0.950 . S
H1097 C1103 0.950 . S
H1098 C1104 0.949 . S
C1099 H1094 0.950 . S
C1099 C1101 1.327 . S
C1099 C1105 1.429 . S
C1100 C1092 1.574 . S
C1100 H1095 0.949 . S
C1100 C1106 1.368 . S
C1101 C1085 1.349 . S
C1101 H1093 0.950 . S
C1101 C1099 1.327 . S
C1102 C1090 1.349 . S
C1102 H1096 0.950 . S
C1102 C1103 1.327 . S
C1103 H1097 0.950 . S
C1103 C1102 1.327 . S
C1103 C1107 1.429 . S
C1104 C1087 1.574 . S
C1104 H1098 0.949 . S
C1104 C1108 1.368 . S
C1105 C1086 1.429 . S
C1105 C1099 1.429 . S
C1105 C1106 1.523 . S
C1106 C1087 1.368 . S
C1106 C1100 1.368 . S
C1106 C1105 1.523 . S
C1107 C1091 1.429 . S
C1107 C1103 1.429 . S
C1107 C1108 1.523 . S
C1108 C1092 1.368 . S
C1108 C1104 1.368 . S
C1108 C1107 1.523 . S
H1109 C1084 0.950 . S
H1110 C1086 0.950 . S
H1111 C1087 0.949 . S
H1112 C1089 0.950 . S
H1113 C1091 0.950 . S
C1114 C1115 1.349 . S
C1114 C1116 1.327 . S
C1114 H1139 0.950 . S
C1115 C1114 1.349 . S
C1115 C1131 1.349 . S
C1116 C1114 1.327 . S
C1116 C1135 1.429 . S
C1116 H1140 0.950 . S
C1117 C1134 1.574 . S
C1117 C1136 1.368 . S
C1117 H1141 0.949 . S
H1118 C1122 0.949 . S
C1119 C1120 1.349 . S
C1119 C1121 1.327 . S
C1119 H1142 0.950 . S
C1120 C1119 1.349 . S
C1120 C1132 1.349 . S
C1121 C1119 1.327 . S
C1121 C1137 1.429 . S
C1121 H1143 0.950 . S
C1122 H1118 0.949 . S
C1122 C1130 1.574 . S
C1122 C1138 1.368 . S
H1123 C1131 0.950 . S
H1124 C1129 0.950 . S
H1125 C1130 0.949 . S
H1126 C1132 0.950 . S
H1127 C1133 0.950 . S
H1128 C1134 0.949 . S
C1129 H1124 0.950 . S
C1129 C1131 1.327 . S
C1129 C1135 1.429 . S
C1130 C1122 1.574 . S
C1130 H1125 0.949 . S
C1130 C1136 1.368 . S
C1131 C1115 1.349 . S
C1131 H1123 0.950 . S
C1131 C1129 1.327 . S
C1132 C1120 1.349 . S
C1132 H1126 0.950 . S
C1132 C1133 1.327 . S
C1133 H1127 0.950 . S
C1133 C1132 1.327 . S
C1133 C1137 1.429 . S
C1134 C1117 1.574 . S
C1134 H1128 0.949 . S
C1134 C1138 1.368 . S
C1135 C1116 1.429 . S
C1135 C1129 1.429 . S
C1135 C1136 1.523 . S
C1136 C1117 1.368 . S
C1136 C1130 1.368 . S
C1136 C1135 1.523 . S
C1137 C1121 1.429 . S
C1137 C1133 1.429 . S
C1137 C1138 1.523 . S
C1138 C1122 1.368 . S
C1138 C1134 1.368 . S
C1138 C1137 1.523 . S
H1139 C1114 0.950 . S
H1140 C1116 0.950 . S
H1141 C1117 0.949 . S
H1142 C1119 0.950 . S
H1143 C1121 0.950 . S
C425 C76 1.801 . S
C430 C162 1.850 . S
C460 C246 1.881 . S
C455 C87 1.831 . S
C490 C312 1.903 . S
C485 C54 1.947 . S
C520 C396 1.876 . S
C515 C65 1.920 . S
C550 C151 1.850 1_565 S
C545 C32 1.809 . S
C575 C43 1.840 . S
C580 C235 1.881 . S
C605 C10 1.956 . S
C610 C323 1.903 . S
C635 C21 1.929 . S
C640 C407 1.876 . S
C670 C158 0.505 1_455 S
C665 C60 0.493 . S
C700 C242 0.558 . S
C695 C71 0.463 . S
C730 C314 0.503 . S
C725 C82 0.443 . S
C755 C49 0.469 . S
C760 C398 0.515 . S
C785 C16 0.504 . S
C790 C146 0.529 . S
C820 C230 0.513 . S
C815 C27 0.476 . S
C850 C326 0.503 . S
C845 C38 0.458 . S
C875 C5 0.483 . S
C880 C410 0.515 . S
C905 C59 1.956 . S
C910 C155 2.003 . S
C935 C70 1.917 . S
C940 C239 1.964 . S
C970 C319 1.943 . S
C965 C81 1.811 . S
C1000 C403 1.978 . S
C995 C48 1.845 . S
C1025 C15 1.944 . S
C1030 C144 2.003 . S
C1060 C228 1.961 1_565 S
C1055 C26 1.906 . S
C1090 C330 1.943 . S
C1085 C37 1.799 . S
C1115 C4 1.832 . S
C1120 C414 1.978 . S
