# Generated by pormake.
# Topology eea, (3,6)-cn, num edge types: 1
# Building blocks:
#     Node 0, Type 0, BuildingBlock: BETDIP_clean_linker_0, # of connection points: 3
#     Node 1, Type 0, BuildingBlock: BETDIP_clean_linker_0, # of connection points: 3
#     Node 2, Type 0, BuildingBlock: BETDIP_clean_linker_0, # of connection points: 3
#     Node 3, Type 0, BuildingBlock: BETDIP_clean_linker_0, # of connection points: 3
#     Node 4, Type 0, BuildingBlock: BETDIP_clean_linker_0, # of connection points: 3
#     Node 5, Type 0, BuildingBlock: BETDIP_clean_linker_0, # of connection points: 3
#     Node 6, Type 0, BuildingBlock: BETDIP_clean_linker_0, # of connection points: 3
#     Node 7, Type 0, BuildingBlock: BETDIP_clean_linker_0, # of connection points: 3
#     Node 8, Type 0, BuildingBlock: BETDIP_clean_linker_0, # of connection points: 3
#     Node 9, Type 0, BuildingBlock: BETDIP_clean_linker_0, # of connection points: 3
#     Node 10, Type 0, BuildingBlock: BETDIP_clean_linker_0, # of connection points: 3
#     Node 11, Type 0, BuildingBlock: BETDIP_clean_linker_0, # of connection points: 3
#     Node 12, Type 0, BuildingBlock: BETDIP_clean_linker_0, # of connection points: 3
#     Node 13, Type 0, BuildingBlock: BETDIP_clean_linker_0, # of connection points: 3
#     Node 14, Type 0, BuildingBlock: BETDIP_clean_linker_0, # of connection points: 3
#     Node 15, Type 0, BuildingBlock: BETDIP_clean_linker_0, # of connection points: 3
#     Node 16, Type 0, BuildingBlock: BETDIP_clean_linker_0, # of connection points: 3
#     Node 17, Type 0, BuildingBlock: BETDIP_clean_linker_0, # of connection points: 3
#     Node 18, Type 1, BuildingBlock: KUMBUR_clean_sbu_0, # of connection points: 6
#     Node 19, Type 1, BuildingBlock: KUMBUR_clean_sbu_0, # of connection points: 6
#     Node 20, Type 1, BuildingBlock: KUMBUR_clean_sbu_0, # of connection points: 6
#     Node 21, Type 1, BuildingBlock: KUMBUR_clean_sbu_0, # of connection points: 6
#     Node 22, Type 1, BuildingBlock: KUMBUR_clean_sbu_0, # of connection points: 6
#     Node 23, Type 1, BuildingBlock: KUMBUR_clean_sbu_0, # of connection points: 6
#     Node 24, Type 1, BuildingBlock: KUMBUR_clean_sbu_0, # of connection points: 6
#     Node 25, Type 1, BuildingBlock: KUMBUR_clean_sbu_0, # of connection points: 6
#     Node 26, Type 1, BuildingBlock: KUMBUR_clean_sbu_0, # of connection points: 6
#     Edge 27, Type (0, 1), BuildingBlock: KIFKEQ_clean_linker_1, # of connection points: 2
#     Edge 28, Type (0, 1), BuildingBlock: KIFKEQ_clean_linker_1, # of connection points: 2
#     Edge 29, Type (0, 1), BuildingBlock: KIFKEQ_clean_linker_1, # of connection points: 2
#     Edge 30, Type (0, 1), BuildingBlock: KIFKEQ_clean_linker_1, # of connection points: 2
#     Edge 31, Type (0, 1), BuildingBlock: KIFKEQ_clean_linker_1, # of connection points: 2
#     Edge 32, Type (0, 1), BuildingBlock: KIFKEQ_clean_linker_1, # of connection points: 2
#     Edge 33, Type (0, 1), BuildingBlock: KIFKEQ_clean_linker_1, # of connection points: 2
#     Edge 34, Type (0, 1), BuildingBlock: KIFKEQ_clean_linker_1, # of connection points: 2
#     Edge 35, Type (0, 1), BuildingBlock: KIFKEQ_clean_linker_1, # of connection points: 2
#     Edge 36, Type (0, 1), BuildingBlock: KIFKEQ_clean_linker_1, # of connection points: 2
#     Edge 37, Type (0, 1), BuildingBlock: KIFKEQ_clean_linker_1, # of connection points: 2
#     Edge 38, Type (0, 1), BuildingBlock: KIFKEQ_clean_linker_1, # of connection points: 2
#     Edge 39, Type (0, 1), BuildingBlock: KIFKEQ_clean_linker_1, # of connection points: 2
#     Edge 40, Type (0, 1), BuildingBlock: KIFKEQ_clean_linker_1, # of connection points: 2
#     Edge 41, Type (0, 1), BuildingBlock: KIFKEQ_clean_linker_1, # of connection points: 2
#     Edge 42, Type (0, 1), BuildingBlock: KIFKEQ_clean_linker_1, # of connection points: 2
#     Edge 43, Type (0, 1), BuildingBlock: KIFKEQ_clean_linker_1, # of connection points: 2
#     Edge 44, Type (0, 1), BuildingBlock: KIFKEQ_clean_linker_1, # of connection points: 2
#     Edge 45, Type (0, 1), BuildingBlock: KIFKEQ_clean_linker_1, # of connection points: 2
#     Edge 46, Type (0, 1), BuildingBlock: KIFKEQ_clean_linker_1, # of connection points: 2
#     Edge 47, Type (0, 1), BuildingBlock: KIFKEQ_clean_linker_1, # of connection points: 2
#     Edge 48, Type (0, 1), BuildingBlock: KIFKEQ_clean_linker_1, # of connection points: 2
#     Edge 49, Type (0, 1), BuildingBlock: KIFKEQ_clean_linker_1, # of connection points: 2
#     Edge 50, Type (0, 1), BuildingBlock: KIFKEQ_clean_linker_1, # of connection points: 2
#     Edge 51, Type (0, 1), BuildingBlock: KIFKEQ_clean_linker_1, # of connection points: 2
#     Edge 52, Type (0, 1), BuildingBlock: KIFKEQ_clean_linker_1, # of connection points: 2
#     Edge 53, Type (0, 1), BuildingBlock: KIFKEQ_clean_linker_1, # of connection points: 2
#     Edge 54, Type (0, 1), BuildingBlock: KIFKEQ_clean_linker_1, # of connection points: 2
#     Edge 55, Type (0, 1), BuildingBlock: KIFKEQ_clean_linker_1, # of connection points: 2
#     Edge 56, Type (0, 1), BuildingBlock: KIFKEQ_clean_linker_1, # of connection points: 2
#     Edge 57, Type (0, 1), BuildingBlock: KIFKEQ_clean_linker_1, # of connection points: 2
#     Edge 58, Type (0, 1), BuildingBlock: KIFKEQ_clean_linker_1, # of connection points: 2
#     Edge 59, Type (0, 1), BuildingBlock: KIFKEQ_clean_linker_1, # of connection points: 2
#     Edge 60, Type (0, 1), BuildingBlock: KIFKEQ_clean_linker_1, # of connection points: 2
#     Edge 61, Type (0, 1), BuildingBlock: KIFKEQ_clean_linker_1, # of connection points: 2
#     Edge 62, Type (0, 1), BuildingBlock: KIFKEQ_clean_linker_1, # of connection points: 2
#     Edge 63, Type (0, 1), BuildingBlock: KIFKEQ_clean_linker_1, # of connection points: 2
#     Edge 64, Type (0, 1), BuildingBlock: KIFKEQ_clean_linker_1, # of connection points: 2
#     Edge 65, Type (0, 1), BuildingBlock: KIFKEQ_clean_linker_1, # of connection points: 2
#     Edge 66, Type (0, 1), BuildingBlock: KIFKEQ_clean_linker_1, # of connection points: 2
#     Edge 67, Type (0, 1), BuildingBlock: KIFKEQ_clean_linker_1, # of connection points: 2
#     Edge 68, Type (0, 1), BuildingBlock: KIFKEQ_clean_linker_1, # of connection points: 2
#     Edge 69, Type (0, 1), BuildingBlock: KIFKEQ_clean_linker_1, # of connection points: 2
#     Edge 70, Type (0, 1), BuildingBlock: KIFKEQ_clean_linker_1, # of connection points: 2
#     Edge 71, Type (0, 1), BuildingBlock: KIFKEQ_clean_linker_1, # of connection points: 2
#     Edge 72, Type (0, 1), BuildingBlock: KIFKEQ_clean_linker_1, # of connection points: 2
#     Edge 73, Type (0, 1), BuildingBlock: KIFKEQ_clean_linker_1, # of connection points: 2
#     Edge 74, Type (0, 1), BuildingBlock: KIFKEQ_clean_linker_1, # of connection points: 2
#     Edge 75, Type (0, 1), BuildingBlock: KIFKEQ_clean_linker_1, # of connection points: 2
#     Edge 76, Type (0, 1), BuildingBlock: KIFKEQ_clean_linker_1, # of connection points: 2
#     Edge 77, Type (0, 1), BuildingBlock: KIFKEQ_clean_linker_1, # of connection points: 2
#     Edge 78, Type (0, 1), BuildingBlock: KIFKEQ_clean_linker_1, # of connection points: 2
#     Edge 79, Type (0, 1), BuildingBlock: KIFKEQ_clean_linker_1, # of connection points: 2
#     Edge 80, Type (0, 1), BuildingBlock: KIFKEQ_clean_linker_1, # of connection points: 2
# Relax obj value: 0.025
# Max RMSD: 0.165
# Mean RMSD: 0.120
data_MOF--net-eea--node1-KUMBUR_clean_sbu_0--node2-BETDIP_clean_linker_0--edge1-KIFKEQ_clean_linker_1
_symmetry_space_group_name_H-M    P1
_symmetry_Int_Tables_number       1
_symmetry_cell_setting            triclinic
loop_
_symmetry_equiv_pos_as_xyz
'x, y, z'
_cell_length_a     54.713895
_cell_length_b     56.487505
_cell_length_c     67.359446
_cell_angle_alpha  89.863983
_cell_angle_beta   89.697127
_cell_angle_gamma 119.97777
loop_
_atom_site_label
_atom_site_type_symbol
_atom_site_fract_x
_atom_site_fract_y
_atom_site_fract_z
_atom_type_partial_charge
H0 H 0.21582 0.08961 0.39418 0.0
H1 H 0.24828 0.14263 0.44472 0.0
H2 H 0.26298 0.07509 0.43863 0.0
H3 H 0.21347 0.15112 0.43759 0.0
C4 C 0.21379 0.1519 0.42148 0.0
C5 C 0.22726 0.09508 0.40805 0.0
C6 C 0.23893 0.07955 0.41525 0.0
C7 C 0.23037 0.11777 0.41859 0.0
C8 C 0.24547 0.12502 0.43653 0.0
C9 C 0.25712 0.10959 0.44401 0.0
C10 C 0.25391 0.08704 0.43313 0.0
N11 N 0.219 0.13345 0.41041 0.0
H12 H 0.9362 0.12721 0.38596 0.0
H13 H 0.88631 0.10517 0.43976 0.0
H14 H 0.96221 0.18275 0.43529 0.0
H15 H 0.85149 0.07947 0.41995 0.0
C16 C 0.86017 0.07169 0.40891 0.0
C17 C 0.93267 0.13202 0.40089 0.0
C18 C 0.95237 0.15694 0.40956 0.0
C19 C 0.90839 0.11324 0.41147 0.0
C20 C 0.90435 0.11952 0.43104 0.0
C21 C 0.92337 0.14471 0.43952 0.0
C22 C 0.94739 0.16327 0.42875 0.0
N23 N 0.88857 0.08825 0.40223 0.0
H24 H 0.90027 0.80936 0.38538 0.0
H25 H 0.92738 0.78262 0.43642 0.0
H26 H 0.84615 0.77729 0.43671 0.0
H27 H 0.97124 0.824 0.42458 0.0
C28 C 0.96946 0.81603 0.40965 0.0
C29 C 0.89634 0.80083 0.40026 0.0
C30 C 0.87092 0.79417 0.41009 0.0
C31 C 0.91724 0.79755 0.4099 0.0
C32 C 0.9119 0.78626 0.42921 0.0
C33 C 0.88599 0.77826 0.4388 0.0
C34 C 0.86593 0.78283 0.42925 0.0
N35 N 0.94304 0.80485 0.39977 0.0
H36 H 0.10017 0.20841 0.65101 0.0
H37 H 0.1551 0.23272 0.60012 0.0
H38 H 0.07675 0.23338 0.59737 0.0
H39 H 0.15305 0.18944 0.61307 0.0
C40 C 0.1611 0.19926 0.6273 0.0
C41 C 0.10475 0.21567 0.63579 0.0
C42 C 0.08552 0.22053 0.62524 0.0
C43 C 0.12923 0.21887 0.62642 0.0
C44 C 0.13536 0.22876 0.60679 0.0
C45 C 0.1169 0.23462 0.59614 0.0
C46 C 0.09166 0.22975 0.60544 0.0
N47 N 0.14774 0.21234 0.63685 0.0
H48 H 0.81583 0.89262 0.64219 0.0
H49 H 0.77831 0.91478 0.59501 0.0
H50 H 0.77181 0.83587 0.59496 0.0
H51 H 0.76608 0.9311 0.62482 0.0
C52 C 0.78781 0.94327 0.62971 0.0
C53 C 0.80425 0.88762 0.62838 0.0
C54 C 0.79467 0.86188 0.61962 0.0
C55 C 0.79757 0.90639 0.61996 0.0
C56 C 0.7828 0.90006 0.60196 0.0
C57 C 0.77352 0.8747 0.59295 0.0
C58 C 0.77906 0.85551 0.60197 0.0
N59 N 0.80535 0.93133 0.62987 0.0
H60 H 0.12827 0.92246 0.64548 0.0
H61 H 0.10916 0.86694 0.59668 0.0
H62 H 0.1872 0.94269 0.59683 0.0
H63 H 0.08947 0.83608 0.6214 0.0
C64 C 0.07833 0.84399 0.63005 0.0
C65 C 0.13422 0.91751 0.6314 0.0
C66 C 0.15991 0.93632 0.62206 0.0
C67 C 0.11616 0.89201 0.62274 0.0
C68 C 0.12327 0.88595 0.60402 0.0
C69 C 0.14891 0.90415 0.59474 0.0
C70 C 0.16717 0.929 0.60393 0.0
N71 N 0.09118 0.8727 0.63309 0.0
H72 H 0.88247 0.42653 0.72697 0.0
H73 H 0.91562 0.47871 0.77792 0.0
H74 H 0.92932 0.4107 0.77091 0.0
H75 H 0.88069 0.48728 0.77139 0.0
C76 C 0.88103 0.48856 0.7553 0.0
C77 C 0.89398 0.4317 0.74081 0.0
C78 C 0.90545 0.41585 0.74773 0.0
C79 C 0.89737 0.45433 0.75162 0.0
C80 C 0.91255 0.46115 0.76953 0.0
C81 C 0.92392 0.44536 0.77673 0.0
C82 C 0.92044 0.42292 0.7656 0.0
N83 N 0.88616 0.47036 0.7438 0.0
H84 H 0.60465 0.46845 0.71752 0.0
H85 H 0.55045 0.43816 0.76869 0.0
H86 H 0.62596 0.51709 0.7705 0.0
H87 H 0.55757 0.39878 0.75627 0.0
C88 C 0.54792 0.39958 0.7424 0.0
C89 C 0.5998 0.47128 0.73265 0.0
C90 C 0.6181 0.49533 0.74291 0.0
C91 C 0.57606 0.45019 0.74228 0.0
C92 C 0.56966 0.45398 0.76181 0.0
C93 C 0.58721 0.4782 0.77215 0.0
C94 C 0.61175 0.49857 0.76264 0.0
N95 N 0.55874 0.4251 0.73235 0.0
H96 H 0.56534 0.14366 0.71863 0.0
H97 H 0.59652 0.12195 0.76997 0.0
H98 H 0.51436 0.11489 0.77151 0.0
H99 H 0.6386 0.16297 0.75622 0.0
C100 C 0.6363 0.15364 0.74174 0.0
C101 C 0.56239 0.13621 0.7338 0.0
C102 C 0.53765 0.13027 0.74428 0.0
C103 C 0.58398 0.13384 0.74316 0.0
C104 C 0.58003 0.12412 0.76287 0.0
C105 C 0.55484 0.11688 0.77333 0.0
C106 C 0.534 0.12046 0.76388 0.0
N107 N 0.60935 0.14087 0.73251 0.0
H108 H 0.76676 0.53455 0.98097 0.0
H109 H 0.82236 0.56589 0.93026 0.0
H110 H 0.75202 0.57949 0.93562 0.0
H111 H 0.83139 0.53293 0.93778 0.0
C112 C 0.83274 0.53371 0.95386 0.0
C113 C 0.77267 0.5455 0.96695 0.0
C114 C 0.75646 0.5564 0.95928 0.0
C115 C 0.7966 0.54879 0.95659 0.0
C116 C 0.80401 0.56311 0.93833 0.0
C117 C 0.78798 0.57407 0.93037 0.0
C118 C 0.76439 0.57079 0.94119 0.0
N119 N 0.81341 0.53847 0.96507 0.0
H120 H 0.49465 0.23001 0.97518 0.0
H121 H 0.46257 0.25591 0.92685 0.0
H122 H 0.44205 0.17203 0.93117 0.0
H123 H 0.50167 0.29656 0.93316 0.0
C124 C 0.5004 0.29675 0.94926 0.0
C125 C 0.48246 0.22528 0.96166 0.0
C126 C 0.46892 0.19854 0.95415 0.0
C127 C 0.48039 0.24609 0.95187 0.0
C128 C 0.46433 0.23996 0.93443 0.0
C129 C 0.45034 0.21329 0.92677 0.0
C130 C 0.45271 0.1927 0.93684 0.0
N131 N 0.4936 0.2727 0.96027 0.0
H132 H 0.79727 0.25386 0.9811 0.0
H133 H 0.77186 0.19954 0.93108 0.0
H134 H 0.85507 0.27003 0.93257 0.0
H135 H 0.72743 0.1971 0.94148 0.0
C136 C 0.72923 0.19226 0.95684 0.0
C137 C 0.80199 0.24848 0.96671 0.0
C138 C 0.82862 0.26495 0.95789 0.0
C139 C 0.78131 0.22503 0.95709 0.0
C140 C 0.78743 0.21796 0.93841 0.0
C141 C 0.81422 0.23388 0.92966 0.0
C142 C 0.83462 0.2573 0.9395 0.0
N143 N 0.75514 0.20812 0.96695 0.0
H144 H 0.55008 0.75883 0.05955 0.0
H145 H 0.58609 0.81235 0.10957 0.0
H146 H 0.59884 0.74384 0.10248 0.0
H147 H 0.55104 0.82131 0.10373 0.0
C148 C 0.5504 0.82185 0.08763 0.0
C149 C 0.5622 0.76426 0.07313 0.0
C150 C 0.57414 0.74864 0.07966 0.0
C151 C 0.56602 0.78706 0.08389 0.0
C152 C 0.58208 0.7943 0.10141 0.0
C153 C 0.59409 0.77886 0.10815 0.0
C154 C 0.59011 0.75616 0.09714 0.0
N155 N 0.5546 0.80298 0.07625 0.0
H156 H 0.27457 0.79338 0.05439 0.0
H157 H 0.2214 0.7713 0.10651 0.0
H158 H 0.29383 0.85147 0.10143 0.0
H159 H 0.21221 0.7293 0.09881 0.0
C160 C 0.21055 0.72879 0.08274 0.0
C161 C 0.26964 0.79854 0.06879 0.0
C162 C 0.28701 0.82469 0.0767 0.0
C163 C 0.24631 0.77874 0.07964 0.0
C164 C 0.23999 0.78574 0.09827 0.0
C165 C 0.25696 0.81192 0.10615 0.0
C166 C 0.2805 0.83127 0.09533 0.0
N167 N 0.22914 0.75231 0.07131 0.0
H168 H 0.23934 0.48219 0.05447 0.0
H169 H 0.25956 0.44816 0.10499 0.0
H170 H 0.17886 0.44314 0.10174 0.0
H171 H 0.30348 0.4783 0.0969 0.0
C172 C 0.30416 0.4787 0.08079 0.0
C173 C 0.23366 0.47176 0.0687 0.0
C174 C 0.20679 0.46319 0.07697 0.0
C175 C 0.25335 0.46712 0.07886 0.0
C176 C 0.24544 0.45318 0.09729 0.0
C177 C 0.21865 0.44445 0.10564 0.0
C178 C 0.19951 0.44959 0.09536 0.0
N179 N 0.28041 0.47574 0.07 0.0
H180 H 0.43444 0.87146 0.31731 0.0
H181 H 0.48708 0.89638 0.26508 0.0
H182 H 0.41009 0.89944 0.2657 0.0
H183 H 0.52111 0.91361 0.28916 0.0
C184 C 0.51338 0.89541 0.2984 0.0
C185 C 0.43856 0.87912 0.30219 0.0
C186 C 0.41884 0.88396 0.29227 0.0
C187 C 0.46371 0.88436 0.29264 0.0
C188 C 0.46859 0.89388 0.27286 0.0
C189 C 0.44975 0.89989 0.26293 0.0
C190 C 0.42475 0.89456 0.27281 0.0
N191 N 0.48396 0.88007 0.30298 0.0
H192 H 0.14753 0.55497 0.31226 0.0
H193 H 0.11325 0.57985 0.26485 0.0
H194 H 0.10462 0.4998 0.2642 0.0
H195 H 0.09857 0.59383 0.29552 0.0
C196 C 0.12038 0.60616 0.30021 0.0
C197 C 0.13653 0.55056 0.29823 0.0
C198 C 0.12706 0.52515 0.28904 0.0
C199 C 0.13043 0.56975 0.28994 0.0
C200 C 0.11641 0.56422 0.27168 0.0
C201 C 0.10705 0.5391 0.26209 0.0
C202 C 0.11219 0.51953 0.2711 0.0
N203 N 0.13809 0.59442 0.30017 0.0
H204 H 0.46728 0.58145 0.31586 0.0
H205 H 0.4356 0.53375 0.26292 0.0
H206 H 0.51683 0.60667 0.26197 0.0
H207 H 0.3936 0.53277 0.27786 0.0
C208 C 0.39623 0.52508 0.29203 0.0
C209 C 0.47006 0.57857 0.3003 0.0
C210 C 0.49488 0.59735 0.29012 0.0
C211 C 0.44838 0.55608 0.29044 0.0
C212 C 0.45203 0.55148 0.2704 0.0
C213 C 0.47694 0.56947 0.2601 0.0
C214 C 0.49789 0.59251 0.27 0.0
N215 N 0.42328 0.53792 0.30102 0.0
Tb216 Tb 0.49995 0.99334 0.99317 0.0
C217 C 0.54921 0.08479 0.0549 0.0
C218 C 0.59921 0.10063 0.05446 0.0
C219 C 0.58263 0.13211 0.0628 0.0
C220 C 0.57105 0.07974 0.05175 0.0
C221 C 0.5546 0.11081 0.06096 0.0
C222 C 0.60493 0.12703 0.05952 0.0
C223 C 0.5043 0.09206 0.06462 0.0
N224 N 0.5225 0.0636 0.05309 0.0
C225 C 0.50006 0.06659 0.0586 0.0
C226 C 0.53167 0.11437 0.06555 0.0
Tb227 Tb 0.51761 0.02286 0.04258 0.0
N228 N 0.56453 0.05388 0.04719 0.0
C229 C 0.58527 0.04708 0.04668 0.0
C230 C 0.62065 0.09412 0.05267 0.0
C231 C 0.61359 0.06711 0.04911 0.0
H232 H 0.4788 0.04954 0.05789 0.0
H233 H 0.62995 0.06171 0.04813 0.0
H234 H 0.62645 0.14343 0.06148 0.0
H235 H 0.48644 0.09445 0.06851 0.0
H236 H 0.58031 0.02638 0.04383 0.0
H237 H 0.38845 0.95847 0.98678 0.0
H238 H 0.64258 0.10958 0.05458 0.0
H239 H 0.53659 0.9643 0.97844 0.0
H240 H 0.43846 0.99242 0.99114 0.0
H241 H 0.52717 0.91849 0.96844 0.0
H242 H 0.58727 0.15235 0.06724 0.0
H243 H 0.37387 0.90996 0.98105 0.0
H244 H 0.38808 0.87449 0.97497 0.0
H245 H 0.5349 0.13405 0.07027 0.0
H246 H 0.42598 0.86359 0.96976 0.0
N247 N 0.45268 0.96359 0.98847 0.0
C248 C 0.43274 0.97147 0.98858 0.0
C249 C 0.396 0.92483 0.98296 0.0
C250 C 0.41663 0.91719 0.98157 0.0
C251 C 0.40416 0.95219 0.98612 0.0
C252 C 0.4451 0.93736 0.98426 0.0
H253 H 0.47802 0.88003 0.96689 0.0
N254 N 0.49322 0.95182 0.98292 0.0
C255 C 0.5098 0.92177 0.9721 0.0
C256 C 0.4662 0.93125 0.98131 0.0
C257 C 0.51505 0.94773 0.9777 0.0
C258 C 0.48204 0.90009 0.9713 0.0
C259 C 0.45978 0.90477 0.97563 0.0
O260 O 0.52257 1.00313 0.96608 0.0
O261 O 0.53048 0.02462 0.0121 0.0
O262 O 0.51461 0.05254 0.02363 0.0
O263 O 0.48674 0.02417 0.99803 0.0
O264 O 0.54576 0.00987 0.99102 0.0
O265 O 0.48807 0.01072 0.97023 0.0
O266 O 0.49217 0.00791 0.06822 0.0
O267 O 0.48731 0.99131 0.02362 0.0
O268 O 0.50328 0.96393 0.01253 0.0
O269 O 0.53174 0.9929 0.03761 0.0
O270 O 0.47175 0.00629 0.04436 0.0
O271 O 0.53274 0.01065 0.06703 0.0
C272 C 0.55313 0.02761 1.00491 0.0
C273 C 0.49651 1.00138 0.93766 0.0
C274 C 0.4965 0.01046 0.90215 0.0
C275 C 0.50747 0.01933 0.9213 0.0
C276 C 0.47478 0.98331 0.89956 0.0
C277 C 0.475 0.97434 0.93469 0.0
C278 C 0.46428 0.96537 0.91573 0.0
C279 C 0.49817 0.04755 0.00801 0.0
C280 C 0.50674 0.01146 0.95778 0.0
C281 C 0.43142 0.88416 0.97391 0.0
C282 C 0.40985 0.89036 0.97689 0.0
C283 C 0.46459 0.98842 0.03056 0.0
C284 C 0.51586 0.01498 0.09851 0.0
C285 C 0.50499 0.99639 0.11451 0.0
C286 C 0.50763 0.00593 0.1341 0.0
C287 C 0.52149 0.0342 0.13754 0.0
C288 C 0.53008 0.04313 0.10229 0.0
C289 C 0.53285 0.05265 0.12171 0.0
C290 C 0.52007 0.96926 0.02801 0.0
C291 C 0.51072 0.00469 0.07801 0.0
H292 H 0.52395 0.04033 0.92354 0.0
H293 H 0.46607 0.97594 0.88498 0.0
H294 H 0.46629 0.96025 0.94702 0.0
H295 H 0.44761 0.94448 0.91357 0.0
H296 H 0.49394 0.97459 0.1117 0.0
H297 H 0.52381 0.04197 0.15251 0.0
H298 H 0.53881 0.05774 0.09028 0.0
H299 H 0.54371 0.07441 0.1245 0.0
Tb300 Tb 0.03704 0.50334 0.99461 0.0
C301 C 0.93619 0.46515 0.05142 0.0
C302 C 0.92075 0.49818 0.04732 0.0
C303 C 0.88693 0.45146 0.05696 0.0
C304 C 0.94216 0.49122 0.04663 0.0
C305 C 0.90869 0.44511 0.05718 0.0
C306 C 0.89295 0.47797 0.05199 0.0
C307 C 0.92694 0.41506 0.06481 0.0
N308 N 0.95788 0.46001 0.05167 0.0
C309 C 0.95388 0.43569 0.05901 0.0
C310 C 0.90415 0.41964 0.06363 0.0
Tb311 Tb 1.00119 0.49495 0.04177 0.0
N312 N 0.96936 0.51018 0.04252 0.0
C313 C 0.97688 0.53709 0.04038 0.0
C314 C 0.92811 0.52539 0.04391 0.0
C315 C 0.95637 0.54499 0.04072 0.0
H316 H 0.97129 0.43186 0.05991 0.0
H317 H 0.96239 0.5662 0.03846 0.0
H318 H 0.87614 0.48283 0.05238 0.0
H319 H 0.92377 0.39563 0.07015 0.0
H320 H 0.99857 0.55255 0.03781 0.0
H321 H 0.07258 0.42949 0.99715 0.0
H322 H 0.91229 0.53157 0.04421 0.0
H323 H 0.06898 0.56676 0.97716 0.0
H324 H 0.03757 0.44454 0.99787 0.0
H325 H 0.11721 0.60236 0.96766 0.0
H326 H 0.86557 0.43627 0.06112 0.0
H327 H 0.12317 0.46318 0.99221 0.0
H328 H 0.1606 0.51176 0.9849 0.0
H329 H 0.88334 0.40367 0.0682 0.0
H330 H 0.1728 0.55896 0.97671 0.0
N331 N 0.06783 0.48681 0.99389 0.0
C332 C 0.05945 0.45965 0.99561 0.0
C333 C 0.10784 0.46999 0.9925 0.0
C334 C 0.11611 0.4975 0.9895 0.0
C335 C 0.07931 0.45092 0.99523 0.0
C336 C 0.09531 0.50526 0.99014 0.0
H337 H 0.15663 0.59284 0.96982 0.0
N338 N 0.08101 0.5375 0.98511 0.0
C339 C 0.11329 0.58257 0.97274 0.0
C340 C 0.10215 0.5316 0.98551 0.0
C341 C 0.08596 0.5623 0.97808 0.0
C342 C 0.1355 0.57715 0.97404 0.0
C343 C 0.13001 0.55125 0.98018 0.0
O344 O 0.02944 0.51349 0.96608 0.0
O345 O 1.00241 0.50295 0.01038 0.0
O346 O 0.97238 0.46095 0.02309 0.0
O347 O 1.00438 0.46019 1.00038 0.0
O348 O 0.02078 0.53112 0.98834 0.0
O349 O 0.02315 0.47339 0.97244 0.0
O350 O 1.01219 0.48656 0.06971 0.0
O351 O 0.03581 0.49559 0.0259 0.0
O352 O 0.06563 0.53715 0.01359 0.0
O353 O 0.03327 0.53815 0.0358 0.0
O354 O 0.01816 0.4676 0.04804 0.0
O355 O 1.0118 0.52399 0.06446 0.0
C356 C 1.00067 0.52152 1.00121 0.0
C357 C 0.03701 0.49032 0.93984 0.0
C358 C 0.03434 0.48593 0.90381 0.0
C359 C 0.02224 0.48665 0.92211 0.0
C360 C 0.06161 0.48935 0.90345 0.0
C361 C 0.06421 0.49373 0.9392 0.0
C362 C 0.07646 0.49335 0.92107 0.0
C363 C 0.9791 0.44873 0.00909 0.0
C364 C 0.02335 0.48986 0.95879 0.0
C365 C 0.15119 0.5441 0.98055 0.0
C366 C 0.14424 0.51724 0.98522 0.0
C367 C 0.03805 0.47728 0.03499 0.0
C368 C 1.00086 0.50521 0.0969 0.0
C369 C 0.01643 0.50969 0.11435 0.0
C370 C 1.00301 0.5044 0.13297 0.0
C371 C 0.9739 0.4947 0.13405 0.0
C372 C 0.9719 0.49614 0.09822 0.0
C373 C 0.95849 0.49084 0.11672 0.0
C374 C 0.05871 0.54952 0.02736 0.0
C375 C 0.01493 0.50876 0.07758 0.0
H376 H 1.00106 0.48366 0.92262 0.0
H377 H 0.07146 0.48904 0.88954 0.0
H378 H 0.07587 0.4964 0.95264 0.0
H379 H 0.09746 0.49596 0.9207 0.0
H380 H 0.03885 0.51675 0.11344 0.0
H381 H 0.96322 0.49051 0.14831 0.0
H382 H 0.95962 0.49302 0.08506 0.0
H383 H 0.9361 0.48364 0.11761 0.0
Tb384 Tb 0.54153 0.51536 0.04064 0.0
C385 C 0.48062 0.549 0.9803 0.0
C386 C 0.43143 0.51447 0.9835 0.0
C387 C 0.44433 0.56054 0.97311 0.0
C388 C 0.46028 0.52269 0.98508 0.0
C389 C 0.47299 0.56816 0.97385 0.0
C390 C 0.42356 0.53372 0.97795 0.0
C391 C 0.52241 0.60006 0.96785 0.0
N392 N 0.50798 0.55541 0.98111 0.0
C393 C 0.52887 0.58027 0.97431 0.0
C394 C 0.49436 0.5941 0.96784 0.0
Tb395 Tb 0.51666 0.52197 0.99231 0.0
N396 N 0.46884 0.50473 0.99012 0.0
C397 C 0.4494 0.47756 0.99227 0.0
C398 C 0.41144 0.48703 0.98696 0.0
C399 C 0.4205 0.46842 0.99106 0.0
H400 H 0.55063 0.58516 0.97439 0.0
H401 H 0.40524 0.44702 0.99335 0.0
H402 H 0.4015 0.52788 0.97685 0.0
H403 H 0.53906 0.6199 0.96292 0.0
H404 H 0.45587 0.46282 0.99552 0.0
H405 H 0.65283 0.59098 0.03983 0.0
H406 H 0.38906 0.47989 0.98599 0.0
H407 H 0.50798 0.452 0.05835 0.0
H408 H 0.60223 0.57481 0.03735 0.0
H409 H 0.51988 0.41753 0.06981 0.0
H410 H 0.438 0.57501 0.96836 0.0
H411 H 0.66935 0.5585 0.0476 0.0
H412 H 0.65728 0.51065 0.05682 0.0
H413 H 0.4894 0.60943 0.96278 0.0
H414 H 0.62103 0.46335 0.0651 0.0
N415 N 0.58945 0.533 0.04308 0.0
C416 C 0.60876 0.56019 0.0408 0.0
C417 C 0.64694 0.55118 0.04652 0.0
C418 C 0.62711 0.52369 0.04998 0.0
C419 C 0.63769 0.56956 0.04218 0.0
C420 C 0.59821 0.51523 0.04826 0.0
H421 H 0.56969 0.42852 0.07029 0.0
N422 N 0.55059 0.48217 0.05192 0.0
C423 C 0.53646 0.43749 0.06502 0.0
C424 C 0.57801 0.48884 0.05291 0.0
C425 C 0.52981 0.45714 0.05855 0.0
C426 C 0.56458 0.44374 0.06522 0.0
C427 C 0.58583 0.46983 0.05939 0.0
O428 O 0.52123 0.50563 0.06859 0.0
O429 O 0.50771 0.51444 0.0236 0.0
O430 O 0.52061 0.55575 0.01044 0.0
O431 O 0.55317 0.55798 0.03364 0.0
O432 O 0.49653 0.48631 0.04568 0.0
O433 O 0.55601 0.54595 0.06236 0.0
O434 O 0.53634 0.53152 0.96414 0.0
O435 O 0.55028 0.5229 0.00941 0.0
O436 O 0.53792 0.48183 0.02245 0.0
O437 O 0.50534 0.47934 0.99913 0.0
O438 O 0.56195 0.55019 0.98682 0.0
O439 O 0.50159 0.49126 0.97069 0.0
C440 C 0.48658 0.49536 0.03234 0.0
C441 C 0.54978 0.53047 0.09554 0.0
C442 C 0.54808 0.53628 0.13131 0.0
C443 C 0.53661 0.53405 0.11231 0.0
C444 C 0.57262 0.53442 0.13337 0.0
C445 C 0.57417 0.52853 0.0979 0.0
C446 C 0.58545 0.5304 0.11675 0.0
C447 C 0.53947 0.5687 0.02449 0.0
C448 C 0.53823 0.52971 0.07576 0.0
C449 C 0.61456 0.47771 0.06032 0.0
C450 C 0.63518 0.50463 0.05561 0.0
C451 C 0.57163 0.54128 1.00045 0.0
C452 C 0.50702 0.50657 0.93747 0.0
C453 C 0.52054 0.50422 0.92042 0.0
C454 C 0.50863 0.50181 0.90155 0.0
C455 C 0.48326 0.50226 0.89992 0.0
C456 C 0.4818 0.50713 0.93553 0.0
C457 C 0.47007 0.50509 0.91683 0.0
C458 C 0.51938 0.4689 0.00821 0.0
C459 C 0.51905 0.50741 0.95711 0.0
H460 H 0.5179 0.53582 0.1105 0.0
H461 H 0.58179 0.53594 0.14786 0.0
H462 H 0.58467 0.52587 0.08521 0.0
H463 H 0.60431 0.52894 0.11846 0.0
H464 H 0.5399 0.50353 0.92189 0.0
H465 H 0.47374 0.50058 0.88555 0.0
H466 H 0.47098 0.50881 0.94842 0.0
H467 H 0.45056 0.50546 0.91544 0.0
Tb468 Tb 0.1651 0.32391 0.32618 0.0
C469 C 0.21843 0.41604 0.3877 0.0
C470 C 0.26821 0.43105 0.38625 0.0
C471 C 0.25279 0.46318 0.39534 0.0
C472 C 0.23979 0.41054 0.38389 0.0
C473 C 0.22454 0.44223 0.39391 0.0
C474 C 0.27462 0.4576 0.3915 0.0
C475 C 0.17448 0.42431 0.39839 0.0
N476 N 0.19153 0.39517 0.38628 0.0
C477 C 0.16956 0.39867 0.3922 0.0
C478 C 0.20208 0.44629 0.39901 0.0
Tb479 Tb 0.18529 0.35409 0.37537 0.0
N480 N 0.23258 0.38454 0.3792 0.0
C481 C 0.25292 0.37721 0.37826 0.0
C482 C 0.28919 0.424 0.38398 0.0
C483 C 0.28145 0.39685 0.38031 0.0
H484 H 0.14813 0.38189 0.39162 0.0
H485 H 0.29746 0.39102 0.37898 0.0
H486 H 0.29633 0.47372 0.39318 0.0
H487 H 0.15699 0.42711 0.40263 0.0
H488 H 0.24751 0.35642 0.37534 0.0
H489 H 0.05332 0.28866 0.32192 0.0
H490 H 0.31128 0.43915 0.3856 0.0
H491 H 0.20131 0.29477 0.31068 0.0
H492 H 0.10347 0.32278 0.32539 0.0
H493 H 0.19163 0.24883 0.30081 0.0
H494 H 0.25797 0.48354 0.3999 0.0
H495 H 0.03866 0.24007 0.31646 0.0
H496 H 0.05275 0.20459 0.31012 0.0
H497 H 0.20586 0.46611 0.40386 0.0
H498 H 0.09053 0.19372 0.30415 0.0
N499 N 0.11767 0.29397 0.32244 0.0
C500 C 0.09769 0.30178 0.32293 0.0
C501 C 0.06084 0.25501 0.31796 0.0
C502 C 0.08146 0.24741 0.3162 0.0
C503 C 0.06905 0.28242 0.32097 0.0
C504 C 0.11001 0.26768 0.31837 0.0
H505 H 0.14248 0.21025 0.30024 0.0
N506 N 0.15811 0.28224 0.31608 0.0
C507 C 0.17438 0.25211 0.30484 0.0
C508 C 0.13105 0.26158 0.31499 0.0
C509 C 0.17977 0.27814 0.31037 0.0
C510 C 0.14662 0.23036 0.3046 0.0
C511 C 0.12448 0.23504 0.3094 0.0
O512 O 0.18657 0.33348 0.29863 0.0
O513 O 0.19652 0.35553 0.34452 0.0
O514 O 0.1813 0.38351 0.35659 0.0
O515 O 0.15201 0.35461 0.33172 0.0
O516 O 0.21085 0.3406 0.32285 0.0
O517 O 0.15183 0.34049 0.30353 0.0
O518 O 0.1633 0.34311 0.40273 0.0
O519 O 0.15391 0.3227 0.35693 0.0
O520 O 0.16884 0.2946 0.34535 0.0
O521 O 0.19902 0.32402 0.36955 0.0
O522 O 0.13948 0.33724 0.37871 0.0
O523 O 0.19903 0.33764 0.39778 0.0
C524 C 0.2188 0.35844 0.33671 0.0
C525 C 0.15894 0.33041 0.27081 0.0
C526 C 0.15744 0.33799 0.23517 0.0
C527 C 0.16915 0.34771 0.25404 0.0
C528 C 0.13575 0.31068 0.23329 0.0
C529 C 0.13742 0.30322 0.26852 0.0
C530 C 0.12597 0.29342 0.24985 0.0
C531 C 0.16399 0.3782 0.34144 0.0
C532 C 0.17005 0.34123 0.29066 0.0
C533 C 0.09607 0.21434 0.30822 0.0
C534 C 0.07457 0.22053 0.31163 0.0
C535 C 0.13157 0.31964 0.3647 0.0
C536 C 0.19055 0.34594 0.43069 0.0
C537 C 0.17797 0.32864 0.44722 0.0
C538 C 0.18877 0.33741 0.46643 0.0
C539 C 0.21198 0.36382 0.46888 0.0
C540 C 0.21355 0.37228 0.43352 0.0
C541 C 0.22412 0.38116 0.45253 0.0
C542 C 0.18647 0.30011 0.36033 0.0
C543 C 0.18024 0.33582 0.41058 0.0
H544 H 0.18565 0.36881 0.25575 0.0
H545 H 0.12651 0.30261 0.21895 0.0
H546 H 0.12928 0.28963 0.28114 0.0
H547 H 0.10932 0.27241 0.24823 0.0
H548 H 0.1603 0.30819 0.44509 0.0
H549 H 0.22058 0.37113 0.48349 0.0
H550 H 0.22353 0.38586 0.42106 0.0
H551 H 0.24192 0.4015 0.45459 0.0
Tb552 Tb 0.70413 0.83629 0.32737 0.0
C553 C 0.59948 0.7942 0.38061 0.0
C554 C 0.58393 0.82736 0.37883 0.0
C555 C 0.54965 0.77935 0.38423 0.0
C556 C 0.60558 0.82075 0.37785 0.0
C557 C 0.57155 0.7732 0.38422 0.0
C558 C 0.55584 0.80643 0.38155 0.0
C559 C 0.58942 0.74224 0.38921 0.0
N560 N 0.62131 0.78925 0.3807 0.0
C561 C 0.61681 0.76385 0.38573 0.0
C562 C 0.56664 0.74685 0.38822 0.0
Tb563 Tb 0.66526 0.82566 0.37369 0.0
N564 N 0.633 0.84032 0.37538 0.0
C565 C 0.64037 0.86731 0.37529 0.0
C566 C 0.59127 0.85486 0.37764 0.0
C567 C 0.61967 0.87494 0.37619 0.0
H568 H 0.63419 0.75996 0.38639 0.0
H569 H 0.62566 0.89631 0.37561 0.0
H570 H 0.53886 0.81104 0.38212 0.0
H571 H 0.58591 0.72204 0.39265 0.0
H572 H 0.66215 0.88313 0.374 0.0
H573 H 0.73988 0.76258 0.32859 0.0
H574 H 0.57529 0.86081 0.37827 0.0
H575 H 0.73713 0.90087 0.31222 0.0
H576 H 0.70476 0.7775 0.32888 0.0
H577 H 0.78599 0.93733 0.30526 0.0
H578 H 0.52799 0.76347 0.38681 0.0
H579 H 0.79072 0.79664 0.3259 0.0
H580 H 0.82854 0.84576 0.32098 0.0
H581 H 0.54547 0.7301 0.39102 0.0
H582 H 0.84115 0.89351 0.3145 0.0
N583 N 0.73513 0.81999 0.32678 0.0
C584 C 0.72674 0.79276 0.32758 0.0
C585 C 0.77534 0.80339 0.32596 0.0
C586 C 0.78372 0.83106 0.32393 0.0
C587 C 0.74667 0.78412 0.32742 0.0
C588 C 0.76281 0.8387 0.32419 0.0
H589 H 0.82534 0.92782 0.30826 0.0
N590 N 0.74868 0.87108 0.3196 0.0
C591 C 0.78176 0.91716 0.30959 0.0
C592 C 0.76986 0.86529 0.32045 0.0
C593 C 0.75407 0.8964 0.31346 0.0
C594 C 0.80393 0.91174 0.31136 0.0
C595 C 0.79807 0.8854 0.31651 0.0
O596 O 0.69824 0.84757 0.29874 0.0
O597 O 0.66953 0.83631 0.34272 0.0
O598 O 0.63762 0.79492 0.35252 0.0
O599 O 0.67145 0.79291 0.33258 0.0
O600 O 0.68817 0.86427 0.32054 0.0
O601 O 0.69012 0.80679 0.30484 0.0
O602 O 0.67331 0.81445 0.40161 0.0
O603 O 0.70064 0.8269 0.35848 0.0
O604 O 0.73114 0.86914 0.34765 0.0
O605 O 0.6972 0.86923 0.36885 0.0
O606 O 0.68205 0.79807 0.37993 0.0
O607 O 0.67589 0.85346 0.39728 0.0
C608 C 0.66824 0.85507 0.33352 0.0
C609 C 0.70522 0.82407 0.27246 0.0
C610 C 0.7028 0.81885 0.23644 0.0
C611 C 0.69043 0.81961 0.25462 0.0
C612 C 0.73032 0.82285 0.23636 0.0
C613 C 0.73269 0.82817 0.27207 0.0
C614 C 0.74516 0.82759 0.25408 0.0
C615 C 0.64532 0.78211 0.33972 0.0
C616 C 0.69138 0.82384 0.29127 0.0
C617 C 0.81929 0.87832 0.31728 0.0
C618 C 0.81211 0.85115 0.32098 0.0
C619 C 0.70254 0.80829 0.36736 0.0
C620 C 0.66247 0.83298 0.42913 0.0
C621 C 0.67802 0.83954 0.44675 0.0
C622 C 0.6644 0.83407 0.46541 0.0
C623 C 0.6348 0.82222 0.46597 0.0
C624 C 0.63313 0.82156 0.43007 0.0
C625 C 0.61941 0.81627 0.44842 0.0
C626 C 0.72303 0.88112 0.36096 0.0
C627 C 0.67714 0.83674 0.41005 0.0
H628 H 0.66908 0.81619 0.25496 0.0
H629 H 0.74045 0.82258 0.22257 0.0
H630 H 0.74442 0.83163 0.28561 0.0
H631 H 0.76637 0.83075 0.25388 0.0
H632 H 0.70076 0.84886 0.44578 0.0
H633 H 0.62337 0.81704 0.47993 0.0
H634 H 0.6208 0.81643 0.41672 0.0
H635 H 0.59669 0.80716 0.44904 0.0
Tb636 Tb 0.20443 0.84443 0.3741 0.0
C637 C 0.15139 0.88759 0.31485 0.0
C638 C 0.10138 0.85515 0.31653 0.0
C639 C 0.11768 0.90267 0.3082 0.0
C640 C 0.12965 0.86144 0.31845 0.0
C641 C 0.14577 0.90841 0.30918 0.0
C642 C 0.0955 0.87606 0.31191 0.0
C643 C 0.19586 0.93814 0.3041 0.0
N644 N 0.17814 0.89214 0.31578 0.0
C645 C 0.20032 0.91675 0.30975 0.0
C646 C 0.16849 0.93408 0.30406 0.0
Tb647 Tb 0.18343 0.85606 0.32564 0.0
N648 N 0.1363 0.84183 0.32251 0.0
C649 C 0.11552 0.81497 0.3233 0.0
C650 C 0.07997 0.82791 0.31861 0.0
C651 C 0.08712 0.80768 0.32167 0.0
H652 H 0.22157 0.92018 0.30979 0.0
H653 H 0.07076 0.78646 0.32286 0.0
H654 H 0.07392 0.8717 0.31057 0.0
H655 H 0.21353 0.95775 0.29979 0.0
H656 H 0.12054 0.79902 0.32579 0.0
H657 H 0.31653 0.9167 0.37684 0.0
H658 H 0.05797 0.82221 0.31732 0.0
H659 H 0.16835 0.78047 0.39026 0.0
H660 H 0.26637 0.90267 0.37425 0.0
H661 H 0.17796 0.74374 0.39995 0.0
H662 H 0.11289 0.91845 0.30407 0.0
H663 H 0.33097 0.88199 0.38158 0.0
H664 H 0.31666 0.83275 0.3878 0.0
H665 H 0.16509 0.95064 0.29961 0.0
H666 H 0.27879 0.78549 0.39436 0.0
N667 N 0.25192 0.86002 0.37696 0.0
C668 C 0.27205 0.88713 0.3764 0.0
C669 C 0.30878 0.87563 0.38045 0.0
C670 C 0.28805 0.84811 0.38236 0.0
C671 C 0.3007 0.89527 0.37786 0.0
C672 C 0.2595 0.84097 0.38068 0.0
H673 H 0.22693 0.7522 0.3994 0.0
N674 N 0.2114 0.80935 0.38391 0.0
C675 C 0.19517 0.76357 0.39552 0.0
C676 C 0.23841 0.81462 0.3844 0.0
C677 C 0.18982 0.78447 0.39009 0.0
C678 C 0.22282 0.76839 0.39513 0.0
C679 C 0.24494 0.79432 0.38983 0.0
O680 O 0.18369 0.83312 0.40189 0.0
O681 O 0.17253 0.84603 0.35649 0.0
O682 O 0.18756 0.88878 0.34486 0.0
O683 O 0.21766 0.888 0.36896 0.0
O684 O 0.15872 0.817 0.37804 0.0
O685 O 0.21877 0.87362 0.39683 0.0
O686 O 0.2067 0.86571 0.29897 0.0
O687 O 0.21502 0.8538 0.34323 0.0
O688 O 0.19939 0.81125 0.35483 0.0
O689 O 0.1694 0.81242 0.33079 0.0
O690 O 0.22925 0.88343 0.32212 0.0
O691 O 0.16658 0.82874 0.30168 0.0
C692 C 0.15038 0.82729 0.36448 0.0
C693 C 0.21248 0.85594 0.42934 0.0
C694 C 0.21364 0.86246 0.46521 0.0
C695 C 0.20164 0.86147 0.44657 0.0
C696 C 0.23627 0.85741 0.46641 0.0
C697 C 0.23497 0.85081 0.43089 0.0
C698 C 0.24671 0.85146 0.44935 0.0
C699 C 0.20534 0.90008 0.35973 0.0
C700 C 0.20085 0.85663 0.40984 0.0
C701 C 0.2733 0.80085 0.39043 0.0
C702 C 0.29485 0.82774 0.38668 0.0
C703 C 0.23731 0.8726 0.33548 0.0
C704 C 0.18008 0.84948 0.2699 0.0
C705 C 0.19218 0.8445 0.25312 0.0
C706 C 0.18731 0.85135 0.23404 0.0
C707 C 0.17007 0.86305 0.23187 0.0
C708 C 0.16244 0.86065 0.26742 0.0
C709 C 0.15752 0.86744 0.2485 0.0
C710 C 0.18128 0.79998 0.34009 0.0
C711 C 0.18739 0.84434 0.28981 0.0
H712 H 0.18441 0.86568 0.44542 0.0
H713 H 0.24575 0.85789 0.4806 0.0
H714 H 0.24366 0.84661 0.41788 0.0
H715 H 0.26411 0.84753 0.45041 0.0
H716 H 0.20586 0.83589 0.25493 0.0
H717 H 0.16603 0.86844 0.2173 0.0
H718 H 0.15264 0.8643 0.28005 0.0
H719 H 0.14403 0.87622 0.24672 0.0
Tb720 Tb 0.83296 0.66096 0.66071 0.0
C721 C 0.8858 0.75542 0.72001 0.0
C722 C 0.93533 0.76926 0.72071 0.0
C723 C 0.92057 0.80262 0.72713 0.0
C724 C 0.9069 0.74909 0.71782 0.0
C725 C 0.89222 0.78205 0.72521 0.0
C726 C 0.94211 0.79623 0.72485 0.0
C727 C 0.84217 0.76532 0.72808 0.0
N728 N 0.85875 0.73488 0.71823 0.0
C729 C 0.8369 0.7392 0.72294 0.0
C730 C 0.86995 0.78694 0.72896 0.0
Tb731 Tb 0.85218 0.69292 0.70935 0.0
N732 N 0.89935 0.72272 0.71417 0.0
C733 C 0.91918 0.71474 0.71485 0.0
C734 C 0.9559 0.76148 0.72007 0.0
C735 C 0.94771 0.734 0.71748 0.0
H736 H 0.81535 0.7227 0.72221 0.0
H737 H 0.96337 0.72763 0.71743 0.0
H738 H 0.96385 0.81209 0.72691 0.0
H739 H 0.8248 0.76876 0.73133 0.0
H740 H 0.91333 0.69364 0.71278 0.0
H741 H 0.7222 0.6295 0.65464 0.0
H742 H 0.97799 0.77635 0.72215 0.0
H743 H 0.86722 0.62918 0.64673 0.0
H744 H 0.77266 0.66233 0.65828 0.0
H745 H 0.85587 0.58241 0.63794 0.0
H746 H 0.926 0.8233 0.73091 0.0
H747 H 0.70574 0.58032 0.65034 0.0
H748 H 0.718 0.54328 0.64542 0.0
H749 H 0.87397 0.80712 0.73301 0.0
H750 H 0.75454 0.53042 0.64066 0.0
N751 N 0.78532 0.63224 0.65656 0.0
C752 C 0.76613 0.64107 0.65631 0.0
C753 C 0.72807 0.5947 0.65192 0.0
C754 C 0.7479 0.58602 0.65088 0.0
C755 C 0.7373 0.62244 0.65427 0.0
C756 C 0.77668 0.60558 0.65312 0.0
H757 H 0.80612 0.54503 0.63741 0.0
N758 N 0.82435 0.61838 0.65154 0.0
C759 C 0.83908 0.58659 0.64151 0.0
C760 C 0.79701 0.59837 0.65045 0.0
C761 C 0.84543 0.61311 0.64643 0.0
C762 C 0.81099 0.56552 0.64129 0.0
C763 C 0.78948 0.57136 0.64548 0.0
O764 O 0.85542 0.66929 0.63363 0.0
O765 O 0.86467 0.69253 0.67901 0.0
O766 O 0.85111 0.72256 0.68899 0.0
O767 O 0.82127 0.69291 0.66475 0.0
O768 O 0.87824 0.67523 0.65849 0.0
O769 O 0.82167 0.67802 0.63719 0.0
O770 O 0.82739 0.68141 0.73539 0.0
O771 O 0.82099 0.66098 0.6911 0.0
O772 O 0.83546 0.63188 0.68089 0.0
O773 O 0.86444 0.66131 0.70566 0.0
O774 O 0.80648 0.67756 0.71129 0.0
O775 O 0.86584 0.6799 0.73416 0.0
C776 C 0.88657 0.69355 0.67201 0.0
C777 C 0.82944 0.66686 0.60502 0.0
C778 C 0.82848 0.67433 0.56932 0.0
C779 C 0.8398 0.68416 0.58825 0.0
C780 C 0.80709 0.64691 0.56736 0.0
C781 C 0.80822 0.63956 0.60266 0.0
C782 C 0.79719 0.62965 0.58391 0.0
C783 C 0.83408 0.71708 0.67365 0.0
C784 C 0.84001 0.67779 0.62492 0.0
C785 C 0.76081 0.55138 0.64425 0.0
C786 C 0.74002 0.5587 0.64697 0.0
C787 C 0.79861 0.65896 0.69799 0.0
C788 C 0.8516 0.68804 0.76548 0.0
C789 C 0.84166 0.67041 0.78207 0.0
C790 C 0.84608 0.68113 0.80143 0.0
C791 C 0.86084 0.7096 0.80398 0.0
C792 C 0.86667 0.71639 0.76841 0.0
C793 C 0.87125 0.72707 0.78756 0.0
C794 C 0.8522 0.63734 0.69643 0.0
C795 C 0.84484 0.67663 0.7453 0.0
H796 H 0.85604 0.70535 0.59002 0.0
H797 H 0.79814 0.6388 0.55296 0.0
H798 H 0.79996 0.62598 0.6153 0.0
H799 H 0.78076 0.60856 0.58223 0.0
H800 H 0.82993 0.64847 0.77993 0.0
H801 H 0.86454 0.7183 0.81873 0.0
H802 H 0.87464 0.73027 0.75594 0.0
H803 H 0.88276 0.74898 0.78967 0.0
Tb804 Tb 0.36874 0.172 0.66255 0.0
C805 C 0.26822 0.1338 0.71966 0.0
C806 C 0.25313 0.16711 0.71585 0.0
C807 C 0.21902 0.12032 0.72513 0.0
C808 C 0.27439 0.15995 0.71503 0.0
C809 C 0.24066 0.11381 0.72533 0.0
C810 C 0.22524 0.14695 0.72036 0.0
C811 C 0.25865 0.08354 0.7329 0.0
N812 N 0.28983 0.12854 0.71991 0.0
C813 C 0.28566 0.10411 0.72718 0.0
C814 C 0.23596 0.08826 0.73171 0.0
Tb815 Tb 0.33328 0.16332 0.71 0.0
N816 N 0.30168 0.17883 0.71113 0.0
C817 C 0.30945 0.20585 0.70948 0.0
C818 C 0.26076 0.19446 0.71286 0.0
C819 C 0.28913 0.21399 0.71004 0.0
H820 H 0.30298 0.10016 0.7281 0.0
H821 H 0.29536 0.23531 0.70816 0.0
H822 H 0.20855 0.15196 0.72084 0.0
H823 H 0.25536 0.06405 0.7382 0.0
H824 H 0.33122 0.22126 0.70714 0.0
H825 H 0.40199 0.0964 0.66279 0.0
H826 H 0.24507 0.20081 0.7133 0.0
H827 H 0.40241 0.23636 0.64696 0.0
H828 H 0.36768 0.11236 0.66379 0.0
H829 H 0.45144 0.27203 0.63926 0.0
H830 H 0.19761 0.10518 0.72922 0.0
H831 H 0.45298 0.12963 0.65944 0.0
H832 H 0.49145 0.17839 0.65413 0.0
H833 H 0.21509 0.07234 0.73622 0.0
H834 H 0.50498 0.22637 0.64759 0.0
N835 N 0.39875 0.15461 0.66135 0.0
C836 C 0.38976 0.12725 0.66218 0.0
C837 C 0.43798 0.13684 0.65981 0.0
C838 C 0.44692 0.16464 0.65778 0.0
C839 C 0.40921 0.11802 0.66163 0.0
C840 C 0.4265 0.17289 0.65842 0.0
H841 H 0.4901 0.26143 0.64165 0.0
N842 N 0.41331 0.20608 0.65413 0.0
C843 C 0.44686 0.25176 0.64364 0.0
C844 C 0.43407 0.19965 0.65462 0.0
C845 C 0.4191 0.23148 0.64792 0.0
C846 C 0.46864 0.24573 0.64507 0.0
C847 C 0.46232 0.21925 0.65027 0.0
O848 O 0.36276 0.18384 0.63415 0.0
O849 O 0.33476 0.17201 0.67876 0.0
O850 O 0.30403 0.12957 0.69126 0.0
O851 O 0.33529 0.12898 0.6677 0.0
O852 O 0.3526 0.20013 0.65672 0.0
O853 O 0.35428 0.1428 0.63984 0.0
O854 O 0.34452 0.15456 0.73773 0.0
O855 O 0.36713 0.16322 0.69366 0.0
O856 O 0.39761 0.20441 0.68222 0.0
O857 O 0.36574 0.20664 0.70416 0.0
O858 O 0.34957 0.13527 0.71577 0.0
O859 O 0.34472 0.19232 0.73281 0.0
C860 C 0.33285 0.19063 0.66987 0.0
C861 C 0.36955 0.16055 0.60761 0.0
C862 C 0.36687 0.15488 0.57167 0.0
C863 C 0.35456 0.15572 0.58985 0.0
C864 C 0.39452 0.15927 0.57146 0.0
C865 C 0.39716 0.16499 0.60711 0.0
C866 C 0.40958 0.16443 0.58911 0.0
C867 C 0.31021 0.1176 0.67672 0.0
C868 C 0.35573 0.16016 0.62646 0.0
C869 C 0.48308 0.21156 0.65069 0.0
C870 C 0.47539 0.18426 0.65443 0.0
C871 C 0.36904 0.14452 0.70241 0.0
C872 C 0.3341 0.17348 0.76521 0.0
C873 C 0.35023 0.17893 0.78247 0.0
C874 C 0.33727 0.17391 0.80127 0.0
C875 C 0.30805 0.16352 0.80267 0.0
C876 C 0.30502 0.16367 0.76684 0.0
C877 C 0.29207 0.15866 0.78549 0.0
C878 C 0.39112 0.21739 0.69571 0.0
C879 C 0.34778 0.17686 0.74576 0.0
H880 H 0.3331 0.15197 0.59024 0.0
H881 H 0.40453 0.15889 0.55764 0.0
H882 H 0.40902 0.16866 0.62057 0.0
H883 H 0.43089 0.16784 0.58884 0.0
H884 H 0.37272 0.18651 0.7813 0.0
H885 H 0.2977 0.15952 0.81704 0.0
H886 H 0.29231 0.15972 0.75379 0.0
H887 H 0.26958 0.15091 0.78664 0.0
Tb888 Tb 0.87024 0.17982 0.70714 0.0
C889 C 0.81807 0.22352 0.64737 0.0
C890 C 0.76807 0.19098 0.6486 0.0
C891 C 0.7844 0.23853 0.64034 0.0
C892 C 0.79632 0.19733 0.65077 0.0
C893 C 0.81248 0.24434 0.64161 0.0
C894 C 0.7622 0.21187 0.64387 0.0
C895 C 0.86265 0.27423 0.63707 0.0
N896 N 0.84483 0.22814 0.64859 0.0
C897 C 0.86707 0.25284 0.64279 0.0
C898 C 0.83525 0.27008 0.63673 0.0
Tb899 Tb 0.85006 0.19207 0.65859 0.0
N900 N 0.80297 0.17775 0.655 0.0
C901 C 0.7822 0.15087 0.6557 0.0
C902 C 0.74667 0.16373 0.65058 0.0
C903 C 0.75382 0.14353 0.6538 0.0
H904 H 0.88835 0.25637 0.64306 0.0
H905 H 0.73748 0.1223 0.65494 0.0
H906 H 0.74063 0.20747 0.64232 0.0
H907 H 0.88037 0.29391 0.63295 0.0
H908 H 0.78721 0.13495 0.65832 0.0
H909 H 0.98217 0.2524 0.7107 0.0
H910 H 0.72468 0.15798 0.64909 0.0
H911 H 0.83423 0.11567 0.7229 0.0
H912 H 0.93196 0.23819 0.70794 0.0
H913 H 0.84396 0.07892 0.73235 0.0
H914 H 0.77963 0.2543 0.63614 0.0
H915 H 0.99679 0.21776 0.71511 0.0
H916 H 0.98264 0.16846 0.72087 0.0
H917 H 0.83188 0.28665 0.63223 0.0
H918 H 0.94486 0.12105 0.72703 0.0
N919 N 0.91771 0.19556 0.71023 0.0
C920 C 0.93775 0.2227 0.70995 0.0
C921 C 0.97459 0.21133 0.71391 0.0
C922 C 0.95393 0.18375 0.71554 0.0
C923 C 0.96641 0.23093 0.7115 0.0
C924 C 0.92537 0.17652 0.71377 0.0
H925 H 0.89299 0.08755 0.73184 0.0
N926 N 0.87728 0.14469 0.7167 0.0
C927 C 0.86114 0.09882 0.72804 0.0
C928 C 0.90432 0.15006 0.71723 0.0
C929 C 0.85573 0.11973 0.72275 0.0
C930 C 0.88883 0.10374 0.72766 0.0
C931 C 0.91091 0.12976 0.72253 0.0
O932 O 0.84877 0.16793 0.73464 0.0
O933 O 0.83868 0.18169 0.68934 0.0
O934 O 0.85378 0.22458 0.67784 0.0
O935 O 0.88314 0.22344 0.70243 0.0
O936 O 0.82446 0.15229 0.71063 0.0
O937 O 0.88438 0.20831 0.73036 0.0
O938 O 0.87397 0.20189 0.63221 0.0
O939 O 0.88143 0.18972 0.6764 0.0
O940 O 0.86554 0.14687 0.6877 0.0
O941 O 0.83591 0.14839 0.66355 0.0
O942 O 0.89585 0.2198 0.65563 0.0
O943 O 0.83377 0.16493 0.6345 0.0
C944 C 0.81639 0.16285 0.69709 0.0
C945 C 0.87701 0.18946 0.76257 0.0
C946 C 0.87726 0.19436 0.7986 0.0
C947 C 0.86595 0.19454 0.7799 0.0
C948 C 0.89938 0.18854 0.79975 0.0
C949 C 0.89903 0.18366 0.76409 0.0
C950 C 0.91006 0.1831 0.78259 0.0
C951 C 0.87112 0.23568 0.69298 0.0
C952 C 0.86599 0.19107 0.74303 0.0
C953 C 0.9393 0.13641 0.72321 0.0
C954 C 0.96081 0.16339 0.71969 0.0
C955 C 0.90379 0.20883 0.66894 0.0
C956 C 0.84821 0.18567 0.60281 0.0
C957 C 0.8602 0.17996 0.58633 0.0
C958 C 0.85599 0.18681 0.56707 0.0
C959 C 0.83949 0.19921 0.56441 0.0
C960 C 0.83131 0.19757 0.59987 0.0
C961 C 0.82702 0.20431 0.58075 0.0
C962 C 0.84769 0.13583 0.67279 0.0
C963 C 0.85492 0.18053 0.62289 0.0
H964 H 0.8491 0.1993 0.77879 0.0
H965 H 0.9083 0.18805 0.81396 0.0
H966 H 0.90791 0.17982 0.75102 0.0
H967 H 0.92707 0.17862 0.78361 0.0
H968 H 0.87332 0.1708 0.5885 0.0
H969 H 0.83602 0.20463 0.54968 0.0
H970 H 0.82165 0.20184 0.61229 0.0
H971 H 0.81411 0.21366 0.5786 0.0
H972 H 0.34137 0.84161 0.08584 0.0
H973 H 0.28971 0.85441 0.04398 0.0
H974 H 0.38389 0.87923 0.07067 0.0
H975 H 0.33232 0.89252 0.02886 0.0
H976 H 0.45609 0.93626 0.03042 0.0
H977 H 0.41224 0.89404 0.03793 0.0
H978 H 0.36861 0.93972 0.04324 0.0
H979 H 0.41263 0.98203 0.03573 0.0
C980 C 0.33927 0.85227 0.07315 0.0
C981 C 0.31248 0.84522 0.06596 0.0
C982 C 0.36352 0.87368 0.06443 0.0
C983 C 0.36139 0.88877 0.04857 0.0
C984 C 0.33453 0.88125 0.04108 0.0
C985 C 0.31025 0.85948 0.04963 0.0
C986 C 0.43703 0.93722 0.03263 0.0
C987 C 0.43762 0.96236 0.03213 0.0
C988 C 0.41196 0.91306 0.03711 0.0
C989 C 0.38701 0.91359 0.04114 0.0
C990 C 0.38742 0.93863 0.03995 0.0
C991 C 0.41258 0.96282 0.03575 0.0
H992 H 0.1982 0.50622 0.08193 0.0
H993 H 0.16717 0.43051 0.05026 0.0
H994 H 0.15859 0.51072 0.06975 0.0
H995 H 0.12764 0.43498 0.03773 0.0
H996 H 0.04237 0.4331 0.04487 0.0
H997 H 0.08495 0.43111 0.05247 0.0
H998 H 0.13573 0.51783 0.04109 0.0
H999 H 0.093 0.51974 0.03397 0.0
C1000 C 0.18323 0.49094 0.07191 0.0
C1001 C 0.1858 0.4682 0.06682 0.0
C1002 C 0.16053 0.49346 0.06492 0.0
C1003 C 0.13974 0.47312 0.05283 0.0
C1004 C 0.14301 0.45084 0.04721 0.0
C1005 C 0.16576 0.44839 0.05417 0.0
C1006 C 0.0627 0.45165 0.04382 0.0
C1007 C 0.06439 0.4764 0.03826 0.0
C1008 C 0.08714 0.45052 0.04804 0.0
C1009 C 0.11392 0.47426 0.04721 0.0
C1010 C 0.11552 0.49914 0.04191 0.0
C1011 C 0.09103 0.50021 0.03759 0.0
H1012 H 0.52438 0.70645 0.06617 0.0
H1013 H 0.61373 0.73542 0.06848 0.0
H1014 H 0.51645 0.66384 0.05125 0.0
H1015 H 0.60613 0.69335 0.05299 0.0
H1016 H 0.57903 0.60308 0.05084 0.0
H1017 H 0.58739 0.64713 0.06226 0.0
H1018 H 0.52235 0.64156 0.02315 0.0
H1019 H 0.51293 0.59662 0.01244 0.0
C1020 C 0.54237 0.70388 0.0631 0.0
C1021 C 0.56962 0.72409 0.06863 0.0
C1022 C 0.53788 0.6795 0.05451 0.0
C1023 C 0.56061 0.67495 0.05108 0.0
C1024 C 0.58802 0.6958 0.05584 0.0
C1025 C 0.59244 0.71998 0.06463 0.0
C1026 C 0.5665 0.61119 0.04459 0.0
C1027 C 0.54541 0.59628 0.03058 0.0
C1028 C 0.5715 0.63669 0.05103 0.0
C1029 C 0.55571 0.64813 0.04355 0.0
C1030 C 0.53478 0.63333 0.02938 0.0
C1031 C 0.5296 0.60765 0.02304 0.0
H1032 H 0.82194 0.30656 0.97206 0.0
H1033 H 0.88386 0.2812 0.96491 0.0
H1034 H 0.85821 0.3505 0.98481 0.0
H1035 H 0.92006 0.32456 0.97853 0.0
H1036 H 0.98425 0.41534 0.9819 0.0
H1037 H 0.94781 0.37081 0.97051 0.0
H1038 H 0.88798 0.37427 0.0109 0.0
H1039 H 0.92382 0.41954 0.02113 0.0
C1040 C 0.84326 0.31024 0.97362 0.0
C1041 C 0.85013 0.29054 0.96746 0.0
C1042 C 0.86411 0.33542 0.981 0.0
C1043 C 0.89229 0.34134 0.98268 0.0
C1044 C 0.89884 0.32114 0.97705 0.0
C1045 C 0.87807 0.29616 0.96939 0.0
C1046 C 0.96332 0.40663 0.98836 0.0
C1047 C 0.95718 0.42103 1.00266 0.0
C1048 C 0.94239 0.38086 0.98195 0.0
C1049 C 0.91479 0.36863 0.98982 0.0
C1050 C 0.90878 0.38301 1.00425 0.0
C1051 C 0.92958 0.40893 0.01041 0.0
H1052 H 0.74992 0.59469 0.97925 0.0
H1053 H 0.70502 0.51019 0.9618 0.0
H1054 H 0.70625 0.59054 0.99244 0.0
H1055 H 0.66085 0.50607 0.97389 0.0
H1056 H 0.5855 0.50087 1.00554 0.0
H1057 H 0.63097 0.50406 0.99941 0.0
H1058 H 0.66533 0.58822 0.9809 0.0
H1059 H 0.62032 0.58525 0.98838 0.0
C1060 C 0.73063 0.57512 0.97847 0.0
C1061 C 0.73079 0.5527 0.96969 0.0
C1062 C 0.70546 0.57275 0.98577 0.0
C1063 C 0.67963 0.54804 0.98406 0.0
C1064 C 0.68015 0.52535 0.9758 0.0
C1065 C 0.70546 0.52766 0.96878 0.0
C1066 C 0.60298 0.52024 1.00073 0.0
C1067 C 0.59953 0.54308 0.99806 0.0
C1068 C 0.62907 0.522 0.99685 0.0
C1069 C 0.65222 0.54646 0.98966 0.0
C1070 C 0.64849 0.5692 0.98688 0.0
C1071 C 0.62253 0.56749 0.991 0.0
H1072 H 0.51753 0.2019 0.96756 0.0
H1073 H 0.42803 0.14594 0.96253 0.0
H1074 H 0.52382 0.16535 0.98128 0.0
H1075 H 0.43415 0.10939 0.97656 0.0
H1076 H 0.46123 0.04452 0.97941 0.0
H1077 H 0.45372 0.08111 0.96747 0.0
H1078 H 0.51466 0.13651 0.0096 0.0
H1079 H 0.52315 0.10042 0.02083 0.0
C1080 C 0.49913 0.18188 0.96971 0.0
C1081 C 0.47231 0.17677 0.96392 0.0
C1082 C 0.5027 0.1609 0.97759 0.0
C1083 C 0.4795 0.13435 0.97997 0.0
C1084 C 0.45256 0.12944 0.97459 0.0
C1085 C 0.44902 0.15039 0.96662 0.0
C1086 C 0.47301 0.06449 0.98615 0.0
C1087 C 0.49264 0.0694 1.00122 0.0
C1088 C 0.46853 0.08544 0.97941 0.0
C1089 C 0.48353 0.11179 0.9876 0.0
C1090 C 0.50296 0.11659 1.00279 0.0
C1091 C 0.50756 0.09571 0.00943 0.0
H1092 H 0.67484 0.1707 0.94563 0.0
H1093 H 0.72669 0.16457 0.99113 0.0
H1094 H 0.63277 0.13298 0.96116 0.0
H1095 H 0.68456 0.12627 1.00639 0.0
H1096 H 0.60519 0.03419 0.99991 0.0
H1097 H 0.64893 0.07644 0.99157 0.0
H1098 H 0.60479 0.1217 0.99577 0.0
H1099 H 0.56128 0.07963 1.00439 0.0
C1100 C 0.67716 0.1614 0.95905 0.0
C1101 C 0.70394 0.17056 0.9672 0.0
C1102 C 0.65312 0.13996 0.96798 0.0
C1103 C 0.65546 0.12683 0.985 0.0
C1104 C 0.68223 0.13612 0.99329 0.0
C1105 C 0.70626 0.15803 0.98459 0.0
C1106 C 0.60509 0.05332 0.99953 0.0
C1107 C 0.58 0.05372 1.00313 0.0
C1108 C 0.63006 0.07745 0.99483 0.0
C1109 C 0.63018 0.10228 0.99303 0.0
C1110 C 0.60524 0.10281 0.99709 0.0
C1111 C 0.58039 0.07875 1.00218 0.0
H1112 H 0.87931 0.54034 0.9352 0.0
H1113 H 0.83922 0.52203 0.99293 0.0
H1114 H 0.91904 0.53755 0.94891 0.0
H1115 H 0.879 0.51834 1.0066 0.0
H1116 H 0.94481 0.48068 1.00413 0.0
H1117 H 0.90303 0.48385 0.99531 0.0
H1118 H 0.95673 0.56848 0.97905 0.0
H1119 H 0.99831 0.56568 0.98867 0.0
C1120 C 0.87896 0.5356 0.95083 0.0
C1121 C 0.85624 0.53154 0.96299 0.0
C1122 C 0.90172 0.53405 0.95866 0.0
C1123 C 0.90206 0.52777 0.97878 0.0
C1124 C 0.87915 0.52319 0.99101 0.0
C1125 C 0.85652 0.5254 0.98322 0.0
C1126 C 0.94762 0.50015 0.99929 0.0
C1127 C 0.97481 0.52317 0.99765 0.0
C1128 C 0.92372 0.50192 0.99416 0.0
C1129 C 0.9267 0.52648 0.98666 0.0
C1130 C 0.95386 0.54938 0.98495 0.0
C1131 C 0.97761 0.54776 0.99042 0.0
H1132 H 0.50564 0.34169 0.93119 0.0
H1133 H 0.50302 0.30792 0.98926 0.0
H1134 H 0.50942 0.38252 0.9465 0.0
H1135 H 0.50689 0.34893 1.00463 0.0
H1136 H 0.48202 0.43508 0.98044 0.0
H1137 H 0.47759 0.39311 0.96713 0.0
H1138 H 0.54251 0.40004 1.00682 0.0
H1139 H 0.54739 0.44236 0.02002 0.0
C1140 C 0.50598 0.34309 0.94724 0.0
C1141 C 0.50396 0.32168 0.95902 0.0
C1142 C 0.50795 0.36635 0.95599 0.0
C1143 C 0.50821 0.36879 0.97675 0.0
C1144 C 0.5068 0.3476 0.98859 0.0
C1145 C 0.50452 0.32413 0.9798 0.0
C1146 C 0.4953 0.42768 0.98645 0.0
C1147 C 0.51507 0.44218 1.00135 0.0
C1148 C 0.4928 0.40365 0.97875 0.0
C1149 C 0.50982 0.39341 0.98586 0.0
C1150 C 0.52897 0.40736 1.00117 0.0
C1151 C 0.5317 0.4316 0.00875 0.0
H1152 H 0.20245 0.71509 0.04304 0.0
H1153 H 0.16892 0.68503 0.1017 0.0
H1154 H 0.16526 0.67241 0.02869 0.0
H1155 H 0.13181 0.64261 0.08743 0.0
H1156 H 0.05261 0.58339 0.05346 0.0
H1157 H 0.0892 0.62745 0.06584 0.0
H1158 H 0.15114 0.622 0.02919 0.0
H1159 H 0.1148 0.57771 0.01707 0.0
C1160 C 0.18713 0.69941 0.05284 0.0
C1161 C 0.1885 0.70332 0.07349 0.0
C1162 C 0.16592 0.67497 0.04465 0.0
C1163 C 0.14554 0.65424 0.05694 0.0
C1164 C 0.14697 0.65833 0.07756 0.0
C1165 C 0.1683 0.68253 0.08573 0.0
C1166 C 0.07398 0.59158 0.04793 0.0
C1167 C 0.08063 0.577 0.03411 0.0
C1168 C 0.09495 0.61682 0.05508 0.0
C1169 C 0.12303 0.62819 0.04847 0.0
C1170 C 0.12962 0.61393 0.03436 0.0
C1171 C 0.10872 0.58853 0.02739 0.0
H1172 H 0.32322 0.493 0.04186 0.0
H1173 H 0.34336 0.47035 0.09808 0.0
H1174 H 0.36688 0.49744 0.02735 0.0
H1175 H 0.38608 0.47401 0.08357 0.0
H1176 H 0.43915 0.45041 0.04456 0.0
H1177 H 0.39394 0.44624 0.05401 0.0
H1178 H 0.42498 0.53009 0.03667 0.0
H1179 H 0.47077 0.5346 0.02787 0.0
C1180 C 0.33683 0.48882 0.05105 0.0
C1181 C 0.32987 0.48123 0.0711 0.0
C1182 C 0.3618 0.49147 0.04279 0.0
C1183 C 0.37975 0.48592 0.05434 0.0
C1184 C 0.37256 0.47821 0.07429 0.0
C1185 C 0.34813 0.47617 0.08259 0.0
C1186 C 0.4362 0.46785 0.04248 0.0
C1187 C 0.45835 0.49266 0.03513 0.0
C1188 C 0.41034 0.46545 0.04788 0.0
C1189 C 0.40591 0.48779 0.046 0.0
C1190 C 0.42771 0.51244 0.03803 0.0
C1191 C 0.45388 0.51499 0.03293 0.0
H1192 H 0.54488 0.8293 0.0478 0.0
H1193 H 0.54432 0.86107 0.10593 0.0
H1194 H 0.53799 0.86493 0.03264 0.0
H1195 H 0.53718 0.89648 0.09085 0.0
H1196 H 0.55724 0.97367 0.05671 0.0
H1197 H 0.56438 0.93768 0.07034 0.0
H1198 H 0.50203 0.87956 0.03026 0.0
H1199 H 0.49473 0.91556 0.0166 0.0
C1200 C 0.54316 0.84381 0.05733 0.0
C1201 C 0.54521 0.84252 0.07806 0.0
C1202 C 0.5391 0.86414 0.04866 0.0
C1203 C 0.53722 0.88363 0.06054 0.0
C1204 C 0.53899 0.88204 0.08127 0.0
C1205 C 0.54289 0.86169 0.08991 0.0
C1206 C 0.54509 0.95327 0.0507 0.0
C1207 C 0.52548 0.9476 0.03547 0.0
C1208 C 0.54911 0.9326 0.0586 0.0
C1209 C 0.53367 0.90573 0.05146 0.0
C1210 C 0.51445 0.90011 0.03595 0.0
C1211 C 0.51031 0.92079 0.0281 0.0
H1212 H 0.95629 0.18603 0.37612 0.0
H1213 H 1.00642 0.17328 0.4194 0.0
H1214 H 0.99946 0.22395 0.36143 0.0
H1215 H 0.04948 0.21062 0.40459 0.0
H1216 H 0.12273 0.2674 0.36449 0.0
H1217 H 0.0786 0.22522 0.3716 0.0
H1218 H 0.03548 0.27134 0.37717 0.0
H1219 H 0.07981 0.31363 0.37013 0.0
C1220 C 0.97661 0.19098 0.38214 0.0
C1221 C 0.97822 0.17686 0.3988 0.0
C1222 C 1.0012 0.21266 0.37385 0.0
C1223 C 0.02777 0.22016 0.38188 0.0
C1224 C 0.02933 0.2051 0.39797 0.0
C1225 C 1.00477 0.18383 0.40647 0.0
C1226 C 0.10373 0.26847 0.36668 0.0
C1227 C 0.10451 0.29371 0.36631 0.0
C1228 C 0.07851 0.24434 0.37091 0.0
C1229 C 0.05361 0.24501 0.37483 0.0
C1230 C 0.05427 0.27018 0.37392 0.0
C1231 C 0.07958 0.29434 0.37 0.0
H1232 H 0.85442 0.82989 0.42207 0.0
H1233 H 0.83811 0.76881 0.37783 0.0
H1234 H 0.81508 0.8346 0.40954 0.0
H1235 H 0.79819 0.77305 0.36546 0.0
H1236 H 0.70706 0.76343 0.37463 0.0
H1237 H 0.74978 0.76148 0.38245 0.0
H1238 H 0.79944 0.8493 0.37741 0.0
H1239 H 0.75685 0.85116 0.36945 0.0
C1240 C 0.8426 0.81778 0.40946 0.0
C1241 C 0.84932 0.79912 0.40081 0.0
C1242 C 0.82014 0.82048 0.40228 0.0
C1243 C 0.80351 0.80413 0.38657 0.0
C1244 C 0.81058 0.78581 0.37765 0.0
C1245 C 0.83346 0.78351 0.3846 0.0
C1246 C 0.7272 0.78224 0.37495 0.0
C1247 C 0.72875 0.80735 0.37087 0.0
C1248 C 0.75163 0.78113 0.37932 0.0
C1249 C 0.778 0.80522 0.38036 0.0
C1250 C 0.77945 0.8304 0.37662 0.0
C1251 C 0.75509 0.83145 0.37189 0.0
H1252 H 0.1898 0.0374 0.40118 0.0
H1253 H 0.27893 0.06607 0.40569 0.0
H1254 H 0.18233 0.99466 0.38691 0.0
H1255 H 0.27178 0.02373 0.39086 0.0
H1256 H 0.24382 0.93289 0.38747 0.0
H1257 H 0.25226 0.97691 0.39949 0.0
H1258 H 0.18959 0.97356 0.35899 0.0
H1259 H 0.18 0.92894 0.34788 0.0
C1260 C 0.20786 0.03473 0.39872 0.0
C1261 C 0.2349 0.05494 0.40461 0.0
C1262 C 0.20364 0.01026 0.39052 0.0
C1263 C 0.22643 0.0056 0.38784 0.0
C1264 C 0.25364 0.02633 0.3931 0.0
C1265 C 0.2578 0.05065 0.40148 0.0
C1266 C 0.23185 0.94153 0.38111 0.0
C1267 C 0.21141 0.92741 0.36654 0.0
C1268 C 0.23687 0.96695 0.38788 0.0
C1269 C 0.22171 0.97894 0.38016 0.0
C1270 C 0.20147 0.96488 0.36545 0.0
C1271 C 0.19624 0.93937 0.35885 0.0
H1272 H 0.55237 0.62292 0.28412 0.0
H1273 H 0.48903 0.62889 0.31887 0.0
H1274 H 0.58805 0.66675 0.29631 0.0
H1275 H 0.5254 0.67135 0.33299 0.0
H1276 H 0.58884 0.76193 0.33668 0.0
H1277 H 0.55308 0.71664 0.32625 0.0
H1278 H 0.61718 0.69341 0.32052 0.0
H1279 H 0.65308 0.73956 0.32949 0.0
C1280 C 0.54597 0.63343 0.29451 0.0
C1281 C 0.51745 0.62242 0.30003 0.0
C1282 C 0.56675 0.65854 0.30191 0.0
C1283 C 0.5599 0.67314 0.31561 0.0
C1284 C 0.53161 0.66133 0.32205 0.0
C1285 C 0.51067 0.63651 0.31421 0.0
C1286 C 0.59523 0.74711 0.33305 0.0
C1287 C 0.62376 0.75434 0.33363 0.0
C1288 C 0.57463 0.7209 0.32729 0.0
C1289 C 0.58191 0.70093 0.32245 0.0
C1290 C 0.61057 0.70818 0.32356 0.0
C1291 C 0.63127 0.73467 0.32881 0.0
H1292 H 0.4127 0.90795 0.32572 0.0
H1293 H 0.36513 0.84926 0.28041 0.0
H1294 H 0.36882 0.90394 0.33904 0.0
H1295 H 0.3213 0.84471 0.29395 0.0
H1296 H 0.28906 0.91665 0.32944 0.0
H1297 H 0.33341 0.91743 0.32212 0.0
H1298 H 0.2904 0.82952 0.32703 0.0
H1299 H 0.2462 0.82881 0.33467 0.0
C1300 C 0.39279 0.89376 0.31892 0.0
C1301 C 0.39222 0.87886 0.30208 0.0
C1302 C 0.36776 0.89158 0.32645 0.0
C1303 C 0.34166 0.87401 0.31753 0.0
C1304 C 0.34105 0.85823 0.30123 0.0
C1305 C 0.36609 0.86086 0.29346 0.0
C1306 C 0.28926 0.89756 0.3293 0.0
C1307 C 0.26434 0.87276 0.33308 0.0
C1308 C 0.31461 0.89801 0.3252 0.0
C1309 C 0.31539 0.87355 0.32411 0.0
C1310 C 0.29043 0.84868 0.32785 0.0
C1311 C 0.26518 0.8483 0.33236 0.0
H1312 H 0.17667 0.53143 0.30316 0.0
H1313 H 0.08875 0.47149 0.29567 0.0
H1314 H 0.18541 0.49608 0.31642 0.0
H1315 H 0.09708 0.43627 0.3095 0.0
H1316 H 0.12717 0.37465 0.31268 0.0
H1317 H 0.11854 0.41041 0.30085 0.0
H1318 H 0.17787 0.46635 0.34356 0.0
H1319 H 0.18774 0.43099 0.35459 0.0
C1320 C 0.15916 0.51074 0.30463 0.0
C1321 C 0.13211 0.50412 0.29825 0.0
C1322 C 0.1641 0.49046 0.31229 0.0
C1323 C 0.14199 0.4632 0.31394 0.0
C1324 C 0.11476 0.45686 0.30804 0.0
C1325 C 0.10992 0.47705 0.30019 0.0
C1326 C 0.1384 0.39455 0.31959 0.0
C1327 C 0.15795 0.39977 0.33478 0.0
C1328 C 0.13325 0.41506 0.3129 0.0
C1329 C 0.14734 0.44131 0.32131 0.0
C1330 C 0.16682 0.4465 0.33657 0.0
C1331 C 0.17219 0.42604 0.34312 0.0
H1332 H 0.34177 0.50696 0.28289 0.0
H1333 H 0.39391 0.49241 0.32327 0.0
H1334 H 0.29957 0.4683 0.29731 0.0
H1335 H 0.35153 0.45327 0.33755 0.0
H1336 H 0.27028 0.36424 0.3301 0.0
H1337 H 0.31445 0.40644 0.32255 0.0
H1338 H 0.27203 0.4529 0.33039 0.0
H1339 H 0.22806 0.41081 0.33794 0.0
C1340 C 0.34413 0.4956 0.29499 0.0
C1341 C 0.37104 0.50267 0.30197 0.0
C1342 C 0.32 0.47359 0.30331 0.0
C1343 C 0.32228 0.45784 0.31858 0.0
C1344 C 0.34921 0.46508 0.32577 0.0
C1345 C 0.3734 0.48748 0.31765 0.0
C1346 C 0.27064 0.38358 0.3306 0.0
C1347 C 0.24591 0.38432 0.33496 0.0
C1348 C 0.29588 0.4077 0.32638 0.0
C1349 C 0.29665 0.43293 0.3259 0.0
C1350 C 0.27202 0.43371 0.33065 0.0
C1351 C 0.24688 0.40964 0.33514 0.0
H1352 H 0.56736 0.91863 0.28662 0.0
H1353 H 0.50689 0.85509 0.32528 0.0
H1354 H 0.60327 0.90788 0.29645 0.0
H1355 H 0.54353 0.84477 0.33594 0.0
H1356 H 0.61159 0.81715 0.33226 0.0
H1357 H 0.57285 0.82589 0.32522 0.0
H1358 H 0.6325 0.91264 0.32319 0.0
H1359 H 0.67088 0.90362 0.3295 0.0
C1360 C 0.56184 0.90245 0.29743 0.0
C1361 C 0.53436 0.88781 0.30521 0.0
C1362 C 0.58255 0.8964 0.30323 0.0
C1363 C 0.57659 0.87568 0.31726 0.0
C1364 C 0.5489 0.86076 0.32502 0.0
C1365 C 0.52793 0.86673 0.31901 0.0
C1366 C 0.61619 0.83805 0.33064 0.0
C1367 C 0.64411 0.8598 0.3318 0.0
C1368 C 0.59402 0.8431 0.32658 0.0
C1369 C 0.59943 0.86999 0.32342 0.0
C1370 C 0.62745 0.89163 0.32507 0.0
C1371 C 0.64949 0.88655 0.32888 0.0
H1372 H 0.08837 0.62918 0.30711 0.0
H1373 H 0.17471 0.64675 0.30802 0.0
H1374 H 0.10356 0.67591 0.31702 0.0
H1375 H 0.19027 0.69402 0.31716 0.0
H1376 H 0.20504 0.76955 0.35183 0.0
H1377 H 0.19051 0.72262 0.34309 0.0
H1378 H 0.12708 0.72083 0.30412 0.0
H1379 H 0.14045 0.76711 0.31382 0.0
C1380 C 0.11066 0.64316 0.3094 0.0
C1381 C 0.13034 0.6344 0.30686 0.0
C1382 C 0.11943 0.67002 0.3149 0.0
C1383 C 0.1482 0.68891 0.31773 0.0
C1384 C 0.16792 0.67999 0.31534 0.0
C1385 C 0.15905 0.65294 0.31003 0.0
C1386 C 0.18767 0.759 0.34167 0.0
C1387 C 0.17347 0.77193 0.33394 0.0
C1388 C 0.17961 0.73217 0.3364 0.0
C1389 C 0.15741 0.71775 0.32302 0.0
C1390 C 0.1438 0.73102 0.31484 0.0
C1391 C 0.15165 0.75772 0.32028 0.0
H1392 H 0.86752 0.04654 0.3761 0.0
H1393 H 0.81041 0.03409 0.42459 0.0
H1394 H 0.83457 1.00085 0.36363 0.0
H1395 H 0.77824 0.98821 0.41292 0.0
H1396 H 0.71208 0.91874 0.37779 0.0
H1397 H 0.74564 0.96488 0.38811 0.0
H1398 H 0.81453 0.95326 0.36908 0.0
H1399 H 0.78065 0.90732 0.35795 0.0
C1400 C 0.84805 0.03391 0.38418 0.0
C1401 C 0.84138 0.04385 0.40125 0.0
C1402 C 0.8292 0.00765 0.37713 0.0
C1403 C 0.80349 0.99075 0.38714 0.0
C1404 C 0.79736 1.00074 0.40446 0.0
C1405 C 0.81593 0.02699 0.41129 0.0
C1406 C 0.73437 0.926 0.3758 0.0
C1407 C 0.74365 0.90929 0.36713 0.0
C1408 C 0.75372 0.9525 0.38184 0.0
C1409 C 0.78297 0.96289 0.37969 0.0
C1410 C 0.79224 0.94619 0.37079 0.0
C1411 C 0.77279 0.91976 0.3645 0.0
H1412 H 0.02345 0.85013 0.42039 0.0
H1413 H 0.97391 0.78903 0.37693 0.0
H1414 H 0.06663 0.85423 0.40616 0.0
H1415 H 0.01728 0.79267 0.36292 0.0
H1416 H 0.09911 0.78264 0.37049 0.0
H1417 H 0.05445 0.78094 0.37829 0.0
H1418 H 0.09578 0.86874 0.37289 0.0
H1419 H 0.1403 0.87034 0.36483 0.0
C1420 C 0.02185 0.83775 0.40766 0.0
C1421 C 0.99534 0.81932 0.39976 0.0
C1422 C 0.04658 0.8402 0.39946 0.0
C1423 C 0.04536 0.82382 0.3834 0.0
C1424 C 0.01884 0.80554 0.37531 0.0
C1425 C 0.99406 0.80352 0.38327 0.0
C1426 C 0.09845 0.80149 0.37058 0.0
C1427 C 0.12303 0.82654 0.36666 0.0
C1428 C 0.0729 0.80052 0.37496 0.0
C1429 C 0.07159 0.82469 0.37616 0.0
C1430 C 0.09615 0.84977 0.37205 0.0
C1431 C 0.1216 0.85068 0.36728 0.0
H1432 H 0.20812 0.1917 0.43917 0.0
H1433 H 0.209 0.15897 0.38147 0.0
H1434 H 0.20196 0.22738 0.42351 0.0
H1435 H 0.20291 0.1948 0.36575 0.0
H1436 H 0.15994 0.24614 0.34949 0.0
H1437 H 0.16668 0.20989 0.36338 0.0
H1438 H 0.23087 0.26826 0.40229 0.0
H1439 H 0.22446 0.30453 0.38836 0.0
C1440 C 0.20694 0.19215 0.42313 0.0
C1441 C 0.20912 0.17267 0.41155 0.0
C1442 C 0.2036 0.21265 0.41416 0.0
C1443 C 0.20217 0.214 0.3934 0.0
C1444 C 0.20382 0.19418 0.38179 0.0
C1445 C 0.20741 0.17375 0.39079 0.0
C1446 C 0.17583 0.25137 0.36075 0.0
C1447 C 0.19171 0.27833 0.36773 0.0
C1448 C 0.17964 0.23056 0.36874 0.0
C1449 C 0.19917 0.23621 0.38401 0.0
C1450 C 0.21537 0.26321 0.39073 0.0
C1451 C 0.21175 0.28403 0.38266 0.0
H1452 H 0.67187 0.51546 0.75564 0.0
H1453 H 0.62321 0.5242 0.70898 0.0
H1454 H 0.71511 0.55334 0.74146 0.0
H1455 H 0.66657 0.56271 0.69497 0.0
H1456 H 0.74693 0.65368 0.70257 0.0
H1457 H 0.70233 0.61198 0.71046 0.0
H1458 H 0.74482 0.56505 0.70794 0.0
H1459 H 0.78912 0.60651 0.69987 0.0
C1460 C 0.67053 0.52543 0.74226 0.0
C1461 C 0.6443 0.51701 0.73338 0.0
C1462 C 0.69523 0.54697 0.7341 0.0
C1463 C 0.69414 0.5609 0.71712 0.0
C1464 C 0.66793 0.55229 0.70808 0.0
C1465 C 0.64324 0.53029 0.71602 0.0
C1466 C 0.74652 0.63432 0.7033 0.0
C1467 C 0.77134 0.63325 0.70018 0.0
C1468 C 0.72105 0.61051 0.70772 0.0
C1469 C 0.72016 0.58532 0.70975 0.0
C1470 C 0.74493 0.5842 0.70641 0.0
C1471 C 0.77026 0.60792 0.70162 0.0
H1472 H 0.50519 0.10528 0.7117 0.0
H1473 H 0.51982 0.16468 0.75698 0.0
H1474 H 0.46517 0.10938 0.69933 0.0
H1475 H 0.48046 0.16928 0.74441 0.0
H1476 H 0.42353 0.18711 0.70405 0.0
H1477 H 0.46601 0.18495 0.71173 0.0
H1478 H 0.41598 0.09715 0.71663 0.0
H1479 H 0.37334 0.09941 0.70911 0.0
C1480 C 0.50013 0.11954 0.71874 0.0
C1481 C 0.51553 0.1347 0.73526 0.0
C1482 C 0.47721 0.12177 0.71177 0.0
C1483 C 0.46973 0.13965 0.72092 0.0
C1484 C 0.48586 0.15551 0.73697 0.0
C1485 C 0.5083 0.15284 0.74419 0.0
C1486 C 0.42166 0.16733 0.70632 0.0
C1487 C 0.39523 0.14334 0.70539 0.0
C1488 C 0.44596 0.16611 0.7109 0.0
C1489 C 0.44435 0.14085 0.71459 0.0
C1490 C 0.41792 0.11685 0.71354 0.0
C1491 C 0.39355 0.11814 0.70934 0.0
H1492 H 0.85616 0.37396 0.7335 0.0
H1493 H 0.94519 0.40215 0.73789 0.0
H1494 H 0.84835 0.33096 0.71943 0.0
H1495 H 0.93769 0.35956 0.72333 0.0
H1496 H 0.9093 0.26857 0.72087 0.0
H1497 H 0.91785 0.31279 0.73255 0.0
H1498 H 0.85543 0.30922 0.69171 0.0
H1499 H 0.84581 0.26446 0.68088 0.0
C1500 C 0.87413 0.37115 0.73103 0.0
C1501 C 0.90123 0.39128 0.73687 0.0
C1502 C 0.86971 0.34652 0.72297 0.0
C1503 C 0.89237 0.34161 0.7204 0.0
C1504 C 0.91965 0.36232 0.72552 0.0
C1505 C 0.92401 0.3868 0.73373 0.0
C1506 C 0.8974 0.2772 0.71437 0.0
C1507 C 0.87707 0.263 0.69976 0.0
C1508 C 0.90248 0.30273 0.72095 0.0
C1509 C 0.88745 0.31474 0.71301 0.0
C1510 C 0.86722 0.30055 0.69832 0.0
C1511 C 0.86198 0.27495 0.69189 0.0
H1512 H 0.19222 0.98536 0.60299 0.0
H1513 H 0.1727 0.94893 0.66163 0.0
H1514 H 0.22845 0.02828 0.61695 0.0
H1515 H 0.20826 0.99264 0.67564 0.0
H1516 H 0.25517 0.08809 0.68961 0.0
H1517 H 0.21808 0.04398 0.67766 0.0
H1518 H 0.27624 0.04212 0.63509 0.0
H1519 H 0.31379 0.08569 0.6475 0.0
C1520 C 0.19561 0.9864 0.61886 0.0
C1521 C 0.17975 0.96335 0.6311 0.0
C1522 C 0.21633 0.0111 0.62684 0.0
C1523 C 0.22137 0.01365 0.64732 0.0
C1524 C 0.20476 0.99116 0.65977 0.0
C1525 C 0.18428 0.96619 0.65173 0.0
C1526 C 0.26035 0.07808 0.67804 0.0
C1527 C 0.28773 0.09041 0.66978 0.0
C1528 C 0.23899 0.05283 0.67114 0.0
C1529 C 0.2443 0.03967 0.65547 0.0
C1530 C 0.27155 0.05193 0.64714 0.0
C1531 C 0.29307 0.07689 0.6543 0.0
H1532 H 0.03182 0.1872 0.61253 0.0
H1533 H 0.07919 0.24417 0.65883 0.0
H1534 H 0.98801 0.18264 0.62614 0.0
H1535 H 0.03533 0.24013 0.67221 0.0
H1536 H 0.95548 0.25311 0.66338 0.0
H1537 H 0.99989 0.25423 0.65569 0.0
H1538 H 0.95715 0.16624 0.65949 0.0
H1539 H 0.91288 0.16518 0.66755 0.0
C1540 C 0.03276 0.19854 0.62574 0.0
C1541 C 0.05885 0.21604 0.63464 0.0
C1542 C 1.00772 0.19584 0.63357 0.0
C1543 C 1.00828 0.21104 0.65022 0.0
C1544 C 0.03432 0.22821 0.65935 0.0
C1545 C 0.05934 0.23044 0.65176 0.0
C1546 C 0.95576 0.23407 0.66294 0.0
C1547 C 0.93089 0.20913 0.6665 0.0
C1548 C 0.98114 0.23471 0.65862 0.0
C1549 C 0.982 0.21033 0.65707 0.0
C1550 C 0.95711 0.18534 0.66065 0.0
C1551 C 0.93182 0.18475 0.6654 0.0
H1552 H 0.75727 0.80821 0.62707 0.0
H1553 H 0.84509 0.86928 0.63305 0.0
H1554 H 0.76673 0.7738 0.64098 0.0
H1555 H 0.85499 0.83469 0.64634 0.0
H1556 H 0.85923 0.77074 0.68512 0.0
H1557 H 0.8491 0.80574 0.67357 0.0
H1558 H 0.78823 0.74812 0.63237 0.0
H1559 H 0.79708 0.71278 0.6448 0.0
C1560 C 0.77867 0.81419 0.63127 0.0
C1561 C 0.80047 0.84136 0.6289 0.0
C1562 C 0.78417 0.79445 0.63915 0.0
C1563 C 0.81171 0.8013 0.64462 0.0
C1564 C 0.83346 0.82867 0.64253 0.0
C1565 C 0.82786 0.84851 0.63486 0.0
C1566 C 0.84332 0.76538 0.67387 0.0
C1567 C 0.82859 0.73872 0.66623 0.0
C1568 C 0.83779 0.78562 0.66701 0.0
C1569 C 0.81769 0.77982 0.65208 0.0
C1570 C 0.80337 0.75326 0.6442 0.0
C1571 C 0.80866 0.73297 0.65122 0.0
H1572 H 0.04909 0.79059 0.62173 0.0
H1573 H 0.04461 0.85181 0.65721 0.0
H1574 H 1.00358 0.756 0.6345 0.0
H1575 H 0.99892 0.81661 0.67087 0.0
H1576 H 0.90253 0.74811 0.67067 0.0
H1577 H 0.94972 0.78619 0.66271 0.0
H1578 H 0.98216 0.73035 0.66315 0.0
H1579 H 0.93498 0.69253 0.67012 0.0
C1580 C 0.03839 0.79657 0.63247 0.0
C1581 C 0.05044 0.82384 0.6385 0.0
C1582 C 1.01234 0.77664 0.63999 0.0
C1583 C 0.99762 0.78328 0.65405 0.0
C1584 C 1.00958 0.81075 0.66003 0.0
C1585 C 0.03578 0.83089 0.65228 0.0
C1586 C 0.91995 0.74423 0.66944 0.0
C1587 C 0.91527 0.71748 0.6711 0.0
C1588 C 0.94701 0.76602 0.66489 0.0
C1589 C 0.96976 0.76135 0.66186 0.0
C1590 C 0.96509 0.7347 0.66475 0.0
C1591 C 0.93813 0.71301 0.66894 0.0
H1592 H 0.19664 0.22961 0.65773 0.0
H1593 H 0.17887 0.16425 0.61693 0.0
H1594 H 0.23756 0.22724 0.6702 0.0
H1595 H 0.21918 0.16154 0.62956 0.0
H1596 H 0.2783 0.14798 0.66975 0.0
H1597 H 0.2356 0.14964 0.66199 0.0
H1598 H 0.28548 0.23701 0.65375 0.0
H1599 H 0.32835 0.23526 0.66147 0.0
C1600 C 0.20124 0.21451 0.65164 0.0
C1601 C 0.18457 0.19705 0.63638 0.0
C1602 C 0.2247 0.21325 0.65869 0.0
C1603 C 0.23153 0.19416 0.65088 0.0
C1604 C 0.21432 0.17627 0.63602 0.0
C1605 C 0.19131 0.17789 0.62874 0.0
C1606 C 0.28012 0.16759 0.66667 0.0
C1607 C 0.30659 0.1916 0.66668 0.0
C1608 C 0.25568 0.16852 0.66207 0.0
C1609 C 0.25716 0.19349 0.65739 0.0
C1610 C 0.28362 0.21754 0.65758 0.0
C1611 C 0.30813 0.21653 0.66188 0.0
H1612 H 0.84193 0.9835 0.63864 0.0
H1613 H 0.75572 0.96619 0.63665 0.0
H1614 H 0.85725 0.03041 0.64871 0.0
H1615 H 0.77063 0.0125 0.64747 0.0
H1616 H 0.80762 0.10372 0.64584 0.0
H1617 H 0.79455 0.0578 0.63545 0.0
H1618 H 0.85676 0.05828 0.675 0.0
H1619 H 0.87102 0.10493 0.68448 0.0
C1620 C 0.82624 0.98966 0.64059 0.0
C1621 C 0.79764 0.9713 0.63685 0.0
C1622 C 0.83497 0.0165 0.64645 0.0
C1623 C 0.81522 0.02539 0.6488 0.0
C1624 C 0.78655 0.00666 0.64539 0.0
C1625 C 0.77792 0.98003 0.63936 0.0
C1626 C 0.81861 0.09412 0.65231 0.0
C1627 C 0.84002 0.10791 0.66633 0.0
C1628 C 0.81093 0.06761 0.64646 0.0
C1629 C 0.82428 0.05406 0.65458 0.0
C1630 C 0.84607 0.06805 0.66835 0.0
C1631 C 0.85397 0.09471 0.67404 0.0
H1632 H 0.53633 0.34867 0.75202 0.0
H1633 H 0.50793 0.39218 0.71462 0.0
H1634 H 0.49807 0.30514 0.73984 0.0
H1635 H 0.46895 0.34835 0.70283 0.0
H1636 H 0.38564 0.25883 0.71243 0.0
H1637 H 0.42376 0.30416 0.7224 0.0
H1638 H 0.48549 0.28287 0.70288 0.0
H1639 H 0.44782 0.23808 0.69259 0.0
C1640 C 0.5219 0.34887 0.74115 0.0
C1641 C 0.52518 0.37371 0.73412 0.0
C1642 C 0.50006 0.32401 0.73421 0.0
C1643 C 0.48062 0.32348 0.72045 0.0
C1644 C 0.48367 0.34831 0.7135 0.0
C1645 C 0.50601 0.37329 0.72012 0.0
C1646 C 0.40735 0.26391 0.71022 0.0
C1647 C 0.4137 0.24487 0.70175 0.0
C1648 C 0.42909 0.28984 0.71579 0.0
C1649 C 0.45747 0.2969 0.71337 0.0
C1650 C 0.46377 0.27788 0.70492 0.0
C1651 C 0.44216 0.25227 0.69901 0.0
H1652 H 0.69048 0.18856 0.75143 0.0
H1653 H 0.64 0.12466 0.71 0.0
H1654 H 0.73334 0.19193 0.7373 0.0
H1655 H 0.68308 0.12766 0.69602 0.0
H1656 H 0.765 0.11836 0.70321 0.0
H1657 H 0.72045 0.11695 0.71084 0.0
H1658 H 0.76209 0.2047 0.7047 0.0
H1659 H 0.80649 0.20601 0.69698 0.0
C1660 C 0.68861 0.17541 0.73915 0.0
C1661 C 0.66193 0.15641 0.7318 0.0
C1662 C 0.71316 0.17743 0.73099 0.0
C1663 C 0.71161 0.16011 0.71552 0.0
C1664 C 0.6849 0.14125 0.70796 0.0
C1665 C 0.66028 0.1396 0.7159 0.0
C1666 C 0.76443 0.13725 0.70312 0.0
C1667 C 0.78908 0.16221 0.69913 0.0
C1668 C 0.73894 0.13645 0.70739 0.0
C1669 C 0.73774 0.1607 0.70834 0.0
C1670 C 0.76236 0.18567 0.70408 0.0
C1671 C 0.78776 0.18641 0.6995 0.0
H1672 H 0.87497 0.52754 0.77398 0.0
H1673 H 0.87642 0.49711 0.71551 0.0
H1674 H 0.86828 0.56343 0.75928 0.0
H1675 H 0.86984 0.53316 0.70074 0.0
H1676 H 0.82598 0.58347 0.68549 0.0
H1677 H 0.8332 0.54736 0.69894 0.0
H1678 H 0.89598 0.60522 0.7389 0.0
H1679 H 0.88907 0.64145 0.72535 0.0
C1680 C 0.87383 0.52855 0.75797 0.0
C1681 C 0.87626 0.50961 0.74591 0.0
C1682 C 0.87018 0.54918 0.74955 0.0
C1683 C 0.8687 0.55122 0.72884 0.0
C1684 C 0.87074 0.532 0.71675 0.0
C1685 C 0.87461 0.51144 0.7252 0.0
C1686 C 0.84167 0.58865 0.6969 0.0
C1687 C 0.85712 0.61549 0.70417 0.0
C1688 C 0.84575 0.5679 0.70464 0.0
C1689 C 0.86512 0.57342 0.72001 0.0
C1690 C 0.88066 0.60026 0.72722 0.0
C1691 C 0.87676 0.62105 0.71938 0.0
H1692 H 0.4136 0.8938 0.23221 0.0
H1693 H 0.50221 0.9358 0.24738 0.0
H1694 H 0.42562 0.91722 0.20006 0.0
H1695 H 0.51389 0.95743 0.21481 0.0
H1696 H 0.52229 0.96858 0.14598 0.0
H1697 H 0.50694 0.94039 0.17631 0.0
H1698 H 0.45161 0.97185 0.1907 0.0
H1699 H 0.4676 1.0006 0.16072 0.0
C1700 C 0.43558 0.90786 0.22881 0.0
C1701 C 0.45685 0.91274 0.24265 0.0
C1702 C 0.44241 0.92106 0.21029 0.0
C1703 C 0.47067 0.93893 0.20496 0.0
C1704 C 0.49196 0.94341 0.21846 0.0
C1705 C 0.48516 0.93077 0.23713 0.0
C1706 C 0.5066 0.96914 0.15554 0.0
C1707 C 0.4961 0.98669 0.15112 0.0
C1708 C 0.49792 0.95316 0.17286 0.0
C1709 C 0.4781 0.95398 0.18578 0.0
C1710 C 0.46676 0.97072 0.1809 0.0
C1711 C 0.47594 0.98717 0.16385 0.0
H1712 H 0.10926 0.50934 0.23047 0.0
H1713 H 0.07012 0.55575 0.24979 0.0
H1714 H 0.08407 0.50002 0.19903 0.0
H1715 H 0.04673 0.54782 0.21781 0.0
H1716 H 0.04547 0.55264 0.14651 0.0
H1717 H 0.07112 0.56082 0.17791 0.0
H1718 H 0.02325 0.47468 0.19165 0.0
H1719 H 0.99693 0.46662 0.16056 0.0
C1720 C 0.09529 0.51747 0.22816 0.0
C1721 C 0.09186 0.53337 0.24281 0.0
C1722 C 0.0811 0.51229 0.21008 0.0
C1723 C 0.06375 0.52339 0.20613 0.0
C1724 C 0.06031 0.53933 0.22056 0.0
C1725 C 0.07393 0.544 0.23879 0.0
C1726 C 0.04058 0.53553 0.15626 0.0
C1727 C 0.01933 0.50906 0.15131 0.0
C1728 C 0.05512 0.54019 0.17412 0.0
C1729 C 0.04904 0.51833 0.187 0.0
C1730 C 0.02827 0.49175 0.18183 0.0
C1731 C 1.01325 0.48719 0.16419 0.0
H1732 H 0.46396 0.52014 0.24367 0.0
H1733 H 0.50165 0.60606 0.2294 0.0
H1734 H 0.47814 0.51204 0.21109 0.0
H1735 H 0.51662 0.59796 0.19719 0.0
H1736 H 0.57405 0.57564 0.15923 0.0
H1737 H 0.55317 0.58337 0.18891 0.0
H1738 H 0.47176 0.51577 0.17304 0.0
H1739 H 0.49272 0.50817 0.14312 0.0
C1740 C 0.47476 0.53721 0.23349 0.0
C1741 C 0.48201 0.56384 0.23932 0.0
C1742 C 0.48296 0.53255 0.21485 0.0
C1743 C 0.49879 0.55444 0.20175 0.0
C1744 C 0.50483 0.5808 0.20715 0.0
C1745 C 0.49635 0.58541 0.22564 0.0
C1746 C 0.55169 0.56249 0.16207 0.0
C1747 C 0.535 0.54126 0.14896 0.0
C1748 C 0.5397 0.56704 0.17894 0.0
C1749 C 0.51084 0.55021 0.18322 0.0
C1750 C 0.49407 0.52899 0.17009 0.0
C1751 C 0.506 0.52473 0.15298 0.0
H1752 H 0.96144 0.49598 0.79158 0.0
H1753 H 0.92106 0.40972 0.80546 0.0
H1754 H 0.98759 0.50635 0.82267 0.0
H1755 H 0.94789 0.42017 0.83609 0.0
H1756 H 0.0271 0.44959 0.87477 0.0
H1757 H 0.99994 0.44041 0.84426 0.0
H1758 H 0.97781 0.50132 0.86036 0.0
H1759 H 1.00513 0.51058 0.89095 0.0
C1760 C 0.95793 0.47925 0.8013 0.0
C1761 C 0.93929 0.45199 0.79591 0.0
C1762 C 0.97298 0.48522 0.81905 0.0
C1763 C 0.9699 0.46404 0.83166 0.0
C1764 C 0.951 0.43686 0.82646 0.0
C1765 C 0.93573 0.43091 0.80887 0.0
C1766 C 0.01659 0.46113 0.87172 0.0
C1767 C 0.01822 0.48081 0.88518 0.0
C1768 C 1.00088 0.45573 0.85437 0.0
C1769 C 0.98674 0.47011 0.85001 0.0
C1770 C 0.98864 0.49005 0.86334 0.0
C1771 C 1.00407 0.49521 0.88086 0.0
H1772 H 0.5623 0.44017 0.80208 0.0
H1773 H 0.59405 0.5256 0.78867 0.0
H1774 H 0.54486 0.44588 0.83406 0.0
H1775 H 0.5776 0.53136 0.82107 0.0
H1776 H 0.48409 0.46271 0.87325 0.0
H1777 H 0.50575 0.45723 0.84306 0.0
H1778 H 0.58528 0.52743 0.85899 0.0
H1779 H 0.56359 0.53274 0.88941 0.0
C1780 C 0.56566 0.46018 0.80591 0.0
C1781 C 0.57931 0.48233 0.79257 0.0
C1782 C 0.55579 0.46344 0.8243 0.0
C1783 C 0.55975 0.48901 0.82996 0.0
C1784 C 0.57446 0.51145 0.81711 0.0
C1785 C 0.58398 0.50813 0.79857 0.0
C1786 C 0.50621 0.47691 0.87031 0.0
C1787 C 0.52217 0.49819 0.88359 0.0
C1788 C 0.51864 0.47367 0.85313 0.0
C1789 C 0.54718 0.4919 0.84872 0.0
C1790 C 0.56321 0.51317 0.86202 0.0
C1791 C 0.55087 0.51612 0.87942 0.0
H1792 H 0.52675 0.12434 0.8046 0.0
H1793 H 0.57116 0.08167 0.78865 0.0
H1794 H 0.51424 0.10084 0.83662 0.0
H1795 H 0.55964 0.05926 0.82109 0.0
H1796 H 0.46567 0.02127 0.87589 0.0
H1797 H 0.48229 0.04985 0.84602 0.0
H1798 H 0.56778 0.07026 0.85902 0.0
H1799 H 0.55109 0.04186 0.8892 0.0
C1800 C 0.53395 0.11005 0.80785 0.0
C1801 C 0.54973 0.10475 0.79377 0.0
C1802 C 0.5269 0.09673 0.8263 0.0
C1803 C 0.53588 0.07816 0.83132 0.0
C1804 C 0.55265 0.07368 0.81769 0.0
C1805 C 0.55933 0.08665 0.79909 0.0
C1806 C 0.48804 0.03205 0.87244 0.0
C1807 C 0.5071 0.02934 0.88481 0.0
C1808 C 0.49757 0.04851 0.85542 0.0
C1809 C 0.52633 0.06226 0.85018 0.0
C1810 C 0.54548 0.0598 0.86267 0.0
C1811 C 0.53599 0.04372 0.87995 0.0
H1812 H 0.14534 0.2242 0.56661 0.0
H1813 H 0.10599 0.27267 0.57898 0.0
H1814 H 0.16128 0.24692 0.53444 0.0
H1815 H 0.12087 0.29427 0.54642 0.0
H1816 H 0.13341 0.30957 0.47832 0.0
H1817 H 0.11377 0.28228 0.50874 0.0
H1818 H 0.19659 0.29694 0.52436 0.0
H1819 H 0.21618 0.32442 0.4942 0.0
C1820 C 0.14 0.2396 0.56255 0.0
C1821 C 0.12451 0.24666 0.57566 0.0
C1822 C 0.14901 0.25248 0.54402 0.0
C1823 C 0.14235 0.27238 0.53794 0.0
C1824 C 0.12605 0.27878 0.55062 0.0
C1825 C 0.11742 0.26625 0.5693 0.0
C1826 C 0.14729 0.30668 0.48819 0.0
C1827 C 0.17631 0.31916 0.48397 0.0
C1828 C 0.13612 0.29124 0.50562 0.0
C1829 C 0.15367 0.28751 0.51892 0.0
C1830 C 0.18252 0.2993 0.51434 0.0
C1831 C 0.19376 0.31513 0.49715 0.0
H1832 H 0.71951 0.83463 0.58641 0.0
H1833 H 0.79237 0.90046 0.55739 0.0
H1834 H 0.6929 0.82492 0.55532 0.0
H1835 H 0.76609 0.89018 0.52614 0.0
H1836 H 0.71253 0.83134 0.47243 0.0
H1837 H 0.73947 0.84181 0.50307 0.0
H1838 H 0.67987 0.85918 0.53214 0.0
H1839 H 0.65376 0.85065 0.50126 0.0
C1840 C 0.72979 0.84681 0.57331 0.0
C1841 C 0.75784 0.86824 0.57414 0.0
C1842 C 0.71464 0.84135 0.55564 0.0
C1843 C 0.72758 0.85684 0.53848 0.0
C1844 C 0.75579 0.87796 0.53923 0.0
C1845 C 0.77072 0.88385 0.55701 0.0
C1846 C 0.70535 0.83795 0.48514 0.0
C1847 C 0.68085 0.84019 0.48418 0.0
C1848 C 0.72071 0.84369 0.50272 0.0
C1849 C 0.71157 0.85114 0.51984 0.0
C1850 C 0.6871 0.85319 0.5191 0.0
C1851 C 0.67208 0.84809 0.50141 0.0
H1852 H 0.19763 0.90441 0.58626 0.0
H1853 H 0.11885 0.88796 0.56026 0.0
H1854 H 0.21222 0.89394 0.55486 0.0
H1855 H 0.13382 0.87866 0.52836 0.0
H1856 H 0.15927 0.83902 0.4789 0.0
H1857 H 0.14273 0.84825 0.51015 0.0
H1858 H 0.22803 0.91153 0.52318 0.0
H1859 H 0.24443 0.90125 0.4925 0.0
C1860 C 0.18356 0.89877 0.57369 0.0
C1861 C 0.1572 0.89708 0.57562 0.0
C1862 C 0.19196 0.89294 0.55561 0.0
C1863 C 0.17441 0.88574 0.53886 0.0
C1864 C 0.14782 0.8838 0.54092 0.0
C1865 C 0.13923 0.88923 0.55916 0.0
C1866 C 0.17434 0.85495 0.48848 0.0
C1867 C 0.20313 0.86926 0.48342 0.0
C1868 C 0.1649 0.86036 0.50636 0.0
C1869 C 0.18403 0.88048 0.51942 0.0
C1870 C 0.21272 0.89536 0.51388 0.0
C1871 C 0.22216 0.88964 0.49621 0.0
H1872 H 0.64535 0.78298 0.11414 0.0
H1873 H 0.5801 0.7912 0.14411 0.0
H1874 H 0.67199 0.79364 0.1449 0.0
H1875 H 0.60621 0.80105 0.17512 0.0
H1876 H 0.67237 0.84216 0.22341 0.0
H1877 H 0.64683 0.8338 0.19225 0.0
H1878 H 0.67124 0.77438 0.17619 0.0
H1879 H 0.69737 0.78344 0.20705 0.0
C1880 C 0.63665 0.78691 0.12738 0.0
C1881 C 0.61065 0.78622 0.12676 0.0
C1882 C 0.65183 0.7929 0.14505 0.0
C1883 C 0.64122 0.79805 0.16261 0.0
C1884 C 0.61528 0.7976 0.16188 0.0
C1885 C 0.60025 0.79189 0.14413 0.0
C1886 C 0.67216 0.82727 0.21321 0.0
C1887 C 0.68694 0.81353 0.21761 0.0
C1888 C 0.65746 0.82239 0.19536 0.0
C1889 C 0.65697 0.80344 0.1816 0.0
C1890 C 0.6716 0.78954 0.18618 0.0
C1891 C 0.68652 0.79464 0.20391 0.0
H1892 H 0.24688 0.85346 0.11407 0.0
H1893 H 0.25012 0.78617 0.14166 0.0
H1894 H 0.23126 0.86328 0.14534 0.0
H1895 H 0.23631 0.79684 0.17341 0.0
H1896 H 0.18051 0.80279 0.22134 0.0
H1897 H 0.19857 0.79386 0.1908 0.0
H1898 H 0.24242 0.88038 0.17697 0.0
H1899 H 0.22259 0.88866 0.20689 0.0
C1900 C 0.24473 0.84112 0.12702 0.0
C1901 C 0.24957 0.81905 0.12553 0.0
C1902 C 0.23595 0.84681 0.14503 0.0
C1903 C 0.23239 0.83088 0.16211 0.0
C1904 C 0.2381 0.80922 0.1606 0.0
C1905 C 0.24627 0.8032 0.14246 0.0
C1906 C 0.19412 0.8198 0.21172 0.0
C1907 C 0.2001 0.84635 0.21631 0.0
C1908 C 0.20469 0.81479 0.19425 0.0
C1909 C 0.22202 0.83636 0.18118 0.0
C1910 C 0.22864 0.86309 0.18627 0.0
C1911 C 0.21752 0.86796 0.20351 0.0
H1912 H 0.2485 0.45829 0.1403 0.0
H1913 H 0.17022 0.39706 0.11463 0.0
H1914 H 0.23427 0.43453 0.17227 0.0
H1915 H 0.15635 0.3726 0.14617 0.0
H1916 H 0.12537 0.34649 0.20853 0.0
H1917 H 0.14057 0.37345 0.17806 0.0
H1918 H 0.22701 0.39609 0.19052 0.0
H1919 H 0.21161 0.36999 0.22156 0.0
C1920 C 0.22836 0.43956 0.14147 0.0
C1921 C 0.21041 0.42961 0.12499 0.0
C1922 C 0.2202 0.42583 0.15979 0.0
C1923 C 0.19401 0.4016 0.16201 0.0
C1924 C 0.17633 0.39152 0.14532 0.0
C1925 C 0.18433 0.40544 0.12714 0.0
C1926 C 0.14764 0.3574 0.20477 0.0
C1927 C 0.16729 0.35604 0.21735 0.0
C1928 C 0.1564 0.37272 0.1872 0.0
C1929 C 0.18506 0.38675 0.1815 0.0
C1930 C 0.20482 0.38587 0.1944 0.0
C1931 C 0.19604 0.37084 0.21219 0.0
H1932 H 0.75262 0.57455 0.90153 0.0
H1933 H 0.84112 0.60714 0.91438 0.0
H1934 H 0.76541 0.59915 0.86992 0.0
H1935 H 0.85347 0.63019 0.8822 0.0
H1936 H 0.85846 0.64197 0.81297 0.0
H1937 H 0.84384 0.61492 0.84385 0.0
H1938 H 0.79469 0.65241 0.86035 0.0
H1939 H 0.80991 0.6799 0.8298 0.0
C1940 C 0.77477 0.58695 0.89777 0.0
C1941 C 0.79576 0.58876 0.91076 0.0
C1942 C 0.78202 0.60084 0.87953 0.0
C1943 C 0.81039 0.6164 0.8736 0.0
C1944 C 0.8314 0.618 0.88632 0.0
C1945 C 0.82422 0.60461 0.90474 0.0
C1946 C 0.84433 0.64416 0.82315 0.0
C1947 C 0.83528 0.66295 0.81908 0.0
C1948 C 0.83612 0.62887 0.84081 0.0
C1949 C 0.81818 0.63164 0.85446 0.0
C1950 C 0.80841 0.64979 0.85004 0.0
C1951 C 0.81714 0.66552 0.83263 0.0
H1952 H 0.44457 0.17752 0.89704 0.0
H1953 H 0.41766 0.23482 0.91423 0.0
H1954 H 0.41669 0.16728 0.86682 0.0
H1955 H 0.39148 0.2257 0.88333 0.0
H1956 H 0.38159 0.22238 0.81287 0.0
H1957 H 0.40899 0.23182 0.84352 0.0
H1958 H 0.35882 0.14703 0.86073 0.0
H1959 H 0.33087 0.13777 0.83036 0.0
C1960 C 0.43268 0.18785 0.89452 0.0
C1961 C 0.43347 0.20704 0.90821 0.0
C1962 C 0.41693 0.1821 0.87713 0.0
C1963 C 0.40218 0.19584 0.87284 0.0
C1964 C 0.40299 0.21509 0.88631 0.0
C1965 C 0.41819 0.22041 0.90392 0.0
C1966 C 0.37652 0.20584 0.82324 0.0
C1967 C 0.35421 0.17941 0.81942 0.0
C1968 C 0.39204 0.21123 0.84071 0.0
C1969 C 0.38589 0.1901 0.85434 0.0
C1970 C 0.36392 0.16356 0.85035 0.0
C1971 C 0.34795 0.15832 0.8331 0.0
H1972 H 0.78457 0.22101 0.8949 0.0
H1973 H 0.86021 0.22928 0.92107 0.0
H1974 H 0.79882 0.21186 0.86261 0.0
H1975 H 0.87402 0.21914 0.88924 0.0
H1976 H 0.90822 0.2307 0.82723 0.0
H1977 H 0.89177 0.2398 0.85833 0.0
H1978 H 0.80582 0.18071 0.843 0.0
H1979 H 0.8225 0.1725 0.81138 0.0
C1980 C 0.80403 0.22046 0.89376 0.0
C1981 C 0.82144 0.22611 0.9104 0.0
C1982 C 0.81221 0.21516 0.8753 0.0
C1983 C 0.83781 0.2151 0.87316 0.0
C1984 C 0.8546 0.2198 0.89009 0.0
C1985 C 0.84662 0.22542 0.9084 0.0
C1986 C 0.88581 0.21972 0.83051 0.0
C1987 C 0.86666 0.20075 0.81698 0.0
C1988 C 0.87633 0.22477 0.84842 0.0
C1989 C 0.84744 0.21067 0.85345 0.0
C1990 C 0.82818 0.19212 0.83963 0.0
C1991 C 0.83769 0.18733 0.82153 0.0
H1992 H 0.25499 0.07471 0.47314 0.0
H1993 H 0.29394 0.16065 0.45849 0.0
H1994 H 0.28158 0.08612 0.50392 0.0
H1995 H 0.31981 0.17197 0.48972 0.0
H1996 H 0.33643 0.17786 0.55807 0.0
H1997 H 0.3093 0.1673 0.52731 0.0
H1998 H 0.3337 0.10759 0.5126 0.0
H1999 H 0.36072 0.11809 0.54329 0.0
C2000 C 0.2693 0.09603 0.4764 0.0
C2001 C 0.27248 0.11675 0.4632 0.0
C2002 C 0.28443 0.10253 0.49408 0.0
C2003 C 0.30281 0.1299 0.49913 0.0
C2004 C 0.30558 0.15069 0.48623 0.0
C2005 C 0.29069 0.14419 0.46839 0.0
C2006 C 0.3359 0.16245 0.54825 0.0
C2007 C 0.35066 0.14879 0.55301 0.0
C2008 C 0.32057 0.15656 0.53064 0.0
C2009 C 0.3194 0.13661 0.51764 0.0
C2010 C 0.33409 0.12291 0.52245 0.0
C2011 C 0.34971 0.12906 0.5399 0.0
H2012 H 0.91379 0.117 0.47458 0.0
H2013 H 0.9184 0.18888 0.4485 0.0
H2014 H 0.90087 0.12811 0.50655 0.0
H2015 H 0.90378 0.1993 0.47989 0.0
H2016 H 0.89487 0.22372 0.54143 0.0
H2017 H 0.91481 0.21463 0.5119 0.0
H2018 H 0.86396 0.12775 0.5235 0.0
H2019 H 0.84577 0.13735 0.55372 0.0
C2020 C 0.91196 0.13518 0.47577 0.0
C2021 C 0.91716 0.15217 0.45919 0.0
C2022 C 0.90431 0.14148 0.49402 0.0
C2023 C 0.90104 0.16459 0.49597 0.0
C2024 C 0.9066 0.18167 0.47927 0.0
C2025 C 0.91483 0.17567 0.46117 0.0
C2026 C 0.88831 0.20275 0.53765 0.0
C2027 C 0.86885 0.18121 0.5497 0.0
C2028 C 0.89949 0.19744 0.52065 0.0
C2029 C 0.89089 0.17038 0.51501 0.0
C2030 C 0.87159 0.14887 0.52739 0.0
C2031 C 0.86093 0.15427 0.54465 0.0
H2032 H 0.83851 0.73103 0.44888 0.0
H2033 H 0.91781 0.79305 0.47276 0.0
H2034 H 0.82594 0.70748 0.4807 0.0
H2035 H 0.90483 0.77011 0.50517 0.0
H2036 H 0.88257 0.70606 0.55537 0.0
H2037 H 0.89761 0.73189 0.52415 0.0
H2038 H 0.81113 0.70989 0.51256 0.0
H2039 H 0.7963 0.68319 0.54313 0.0
C2040 C 0.85313 0.73979 0.46108 0.0
C2041 C 0.87904 0.76399 0.45836 0.0
C2042 C 0.84587 0.72638 0.47944 0.0
C2043 C 0.86411 0.73699 0.49578 0.0
C2044 C 0.89028 0.76111 0.49297 0.0
C2045 C 0.89773 0.77436 0.47442 0.0
C2046 C 0.86693 0.70701 0.54613 0.0
C2047 C 0.83826 0.69242 0.55153 0.0
C2048 C 0.87551 0.72187 0.52825 0.0
C2049 C 0.85559 0.72275 0.51552 0.0
C2050 C 0.82706 0.70908 0.52154 0.0
C2051 C 0.8185 0.69393 0.53917 0.0
loop_
_geom_bond_atom_site_label_1
_geom_bond_atom_site_label_2
_geom_bond_distance
_geom_bond_site_symmetry_2
_ccdc_geom_bond_type
H0 C5 0.930 . S
H1 C8 0.930 . S
H2 C10 0.930 . S
H3 C4 1.016 . S
C4 H3 1.016 . S
C4 N11 1.286 . S
C5 H0 0.930 . S
C5 C6 1.397 . S
C5 C7 1.361 . S
C6 C5 1.397 . S
C6 C10 1.390 . S
C7 C5 1.361 . S
C7 C8 1.393 . S
C7 N11 1.413 . S
C8 H1 0.930 . S
C8 C7 1.393 . S
C8 C9 1.399 . S
C9 C8 1.399 . S
C9 C10 1.381 . S
C10 H2 0.930 . S
C10 C6 1.390 . S
C10 C9 1.381 . S
N11 C4 1.286 . S
N11 C7 1.413 . S
H12 C17 0.930 . S
H13 C20 0.930 . S
H14 C22 0.930 . S
H15 C16 1.016 . S
C16 H15 1.016 . S
C16 N23 1.286 . S
C17 H12 0.930 . S
C17 C18 1.397 . S
C17 C19 1.361 . S
C18 C17 1.397 . S
C18 C22 1.390 . S
C19 C17 1.361 . S
C19 C20 1.393 . S
C19 N23 1.413 . S
C20 H13 0.930 . S
C20 C19 1.393 . S
C20 C21 1.399 . S
C21 C20 1.399 . S
C21 C22 1.381 . S
C22 H14 0.930 . S
C22 C18 1.390 . S
C22 C21 1.381 . S
N23 C16 1.286 . S
N23 C19 1.413 . S
H24 C29 0.930 . S
H25 C32 0.930 . S
H26 C34 0.930 . S
H27 C28 1.016 . S
C28 H27 1.016 . S
C28 N35 1.286 . S
C29 H24 0.930 . S
C29 C30 1.397 . S
C29 C31 1.361 . S
C30 C29 1.397 . S
C30 C34 1.390 . S
C31 C29 1.361 . S
C31 C32 1.393 . S
C31 N35 1.413 . S
C32 H25 0.930 . S
C32 C31 1.393 . S
C32 C33 1.399 . S
C33 C32 1.399 . S
C33 C34 1.381 . S
C34 H26 0.930 . S
C34 C30 1.390 . S
C34 C33 1.381 . S
N35 C28 1.286 . S
N35 C31 1.413 . S
H36 C41 0.930 . S
H37 C44 0.930 . S
H38 C46 0.930 . S
H39 C40 1.016 . S
C40 H39 1.016 . S
C40 N47 1.286 . S
C41 H36 0.930 . S
C41 C42 1.397 . S
C41 C43 1.361 . S
C42 C41 1.397 . S
C42 C46 1.390 . S
C43 C41 1.361 . S
C43 C44 1.393 . S
C43 N47 1.413 . S
C44 H37 0.930 . S
C44 C43 1.393 . S
C44 C45 1.399 . S
C45 C44 1.399 . S
C45 C46 1.381 . S
C46 H38 0.930 . S
C46 C42 1.390 . S
C46 C45 1.381 . S
N47 C40 1.286 . S
N47 C43 1.413 . S
H48 C53 0.930 . S
H49 C56 0.930 . S
H50 C58 0.930 . S
H51 C52 1.016 . S
C52 H51 1.016 . S
C52 N59 1.286 . S
C53 H48 0.930 . S
C53 C54 1.397 . S
C53 C55 1.361 . S
C54 C53 1.397 . S
C54 C58 1.390 . S
C55 C53 1.361 . S
C55 C56 1.393 . S
C55 N59 1.413 . S
C56 H49 0.930 . S
C56 C55 1.393 . S
C56 C57 1.399 . S
C57 C56 1.399 . S
C57 C58 1.381 . S
C58 H50 0.930 . S
C58 C54 1.390 . S
C58 C57 1.381 . S
N59 C52 1.286 . S
N59 C55 1.413 . S
H60 C65 0.930 . S
H61 C68 0.930 . S
H62 C70 0.930 . S
H63 C64 1.016 . S
C64 H63 1.016 . S
C64 N71 1.286 . S
C65 H60 0.930 . S
C65 C66 1.397 . S
C65 C67 1.361 . S
C66 C65 1.397 . S
C66 C70 1.390 . S
C67 C65 1.361 . S
C67 C68 1.393 . S
C67 N71 1.413 . S
C68 H61 0.930 . S
C68 C67 1.393 . S
C68 C69 1.399 . S
C69 C68 1.399 . S
C69 C70 1.381 . S
C70 H62 0.930 . S
C70 C66 1.390 . S
C70 C69 1.381 . S
N71 C64 1.286 . S
N71 C67 1.413 . S
H72 C77 0.930 . S
H73 C80 0.930 . S
H74 C82 0.930 . S
H75 C76 1.016 . S
C76 H75 1.016 . S
C76 N83 1.286 . S
C77 H72 0.930 . S
C77 C78 1.397 . S
C77 C79 1.361 . S
C78 C77 1.397 . S
C78 C82 1.390 . S
C79 C77 1.361 . S
C79 C80 1.393 . S
C79 N83 1.413 . S
C80 H73 0.930 . S
C80 C79 1.393 . S
C80 C81 1.399 . S
C81 C80 1.399 . S
C81 C82 1.381 . S
C82 H74 0.930 . S
C82 C78 1.390 . S
C82 C81 1.381 . S
N83 C76 1.286 . S
N83 C79 1.413 . S
H84 C89 0.930 . S
H85 C92 0.930 . S
H86 C94 0.930 . S
H87 C88 1.016 . S
C88 H87 1.016 . S
C88 N95 1.286 . S
C89 H84 0.930 . S
C89 C90 1.397 . S
C89 C91 1.361 . S
C90 C89 1.397 . S
C90 C94 1.390 . S
C91 C89 1.361 . S
C91 C92 1.393 . S
C91 N95 1.413 . S
C92 H85 0.930 . S
C92 C91 1.393 . S
C92 C93 1.399 . S
C93 C92 1.399 . S
C93 C94 1.381 . S
C94 H86 0.930 . S
C94 C90 1.390 . S
C94 C93 1.381 . S
N95 C88 1.286 . S
N95 C91 1.413 . S
H96 C101 0.930 . S
H97 C104 0.930 . S
H98 C106 0.930 . S
H99 C100 1.016 . S
C100 H99 1.016 . S
C100 N107 1.286 . S
C101 H96 0.930 . S
C101 C102 1.397 . S
C101 C103 1.361 . S
C102 C101 1.397 . S
C102 C106 1.390 . S
C103 C101 1.361 . S
C103 C104 1.393 . S
C103 N107 1.413 . S
C104 H97 0.930 . S
C104 C103 1.393 . S
C104 C105 1.399 . S
C105 C104 1.399 . S
C105 C106 1.381 . S
C106 H98 0.930 . S
C106 C102 1.390 . S
C106 C105 1.381 . S
N107 C100 1.286 . S
N107 C103 1.413 . S
H108 C113 0.930 . S
H109 C116 0.930 . S
H110 C118 0.930 . S
H111 C112 1.016 . S
C112 H111 1.016 . S
C112 N119 1.286 . S
C113 H108 0.930 . S
C113 C114 1.397 . S
C113 C115 1.361 . S
C114 C113 1.397 . S
C114 C118 1.390 . S
C115 C113 1.361 . S
C115 C116 1.393 . S
C115 N119 1.413 . S
C116 H109 0.930 . S
C116 C115 1.393 . S
C116 C117 1.399 . S
C117 C116 1.399 . S
C117 C118 1.381 . S
C118 H110 0.930 . S
C118 C114 1.390 . S
C118 C117 1.381 . S
N119 C112 1.286 . S
N119 C115 1.413 . S
H120 C125 0.930 . S
H121 C128 0.930 . S
H122 C130 0.930 . S
H123 C124 1.016 . S
C124 H123 1.016 . S
C124 N131 1.286 . S
C125 H120 0.930 . S
C125 C126 1.397 . S
C125 C127 1.361 . S
C126 C125 1.397 . S
C126 C130 1.390 . S
C127 C125 1.361 . S
C127 C128 1.393 . S
C127 N131 1.413 . S
C128 H121 0.930 . S
C128 C127 1.393 . S
C128 C129 1.399 . S
C129 C128 1.399 . S
C129 C130 1.381 . S
C130 H122 0.930 . S
C130 C126 1.390 . S
C130 C129 1.381 . S
N131 C124 1.286 . S
N131 C127 1.413 . S
H132 C137 0.930 . S
H133 C140 0.930 . S
H134 C142 0.930 . S
H135 C136 1.016 . S
C136 H135 1.016 . S
C136 N143 1.286 . S
C137 H132 0.930 . S
C137 C138 1.397 . S
C137 C139 1.361 . S
C138 C137 1.397 . S
C138 C142 1.390 . S
C139 C137 1.361 . S
C139 C140 1.393 . S
C139 N143 1.413 . S
C140 H133 0.930 . S
C140 C139 1.393 . S
C140 C141 1.399 . S
C141 C140 1.399 . S
C141 C142 1.381 . S
C142 H134 0.930 . S
C142 C138 1.390 . S
C142 C141 1.381 . S
N143 C136 1.286 . S
N143 C139 1.413 . S
H144 C149 0.930 . S
H145 C152 0.930 . S
H146 C154 0.930 . S
H147 C148 1.016 . S
C148 H147 1.016 . S
C148 N155 1.286 . S
C149 H144 0.930 . S
C149 C150 1.397 . S
C149 C151 1.361 . S
C150 C149 1.397 . S
C150 C154 1.390 . S
C151 C149 1.361 . S
C151 C152 1.393 . S
C151 N155 1.413 . S
C152 H145 0.930 . S
C152 C151 1.393 . S
C152 C153 1.399 . S
C153 C152 1.399 . S
C153 C154 1.381 . S
C154 H146 0.930 . S
C154 C150 1.390 . S
C154 C153 1.381 . S
N155 C148 1.286 . S
N155 C151 1.413 . S
H156 C161 0.930 . S
H157 C164 0.930 . S
H158 C166 0.930 . S
H159 C160 1.016 . S
C160 H159 1.016 . S
C160 N167 1.286 . S
C161 H156 0.930 . S
C161 C162 1.397 . S
C161 C163 1.361 . S
C162 C161 1.397 . S
C162 C166 1.390 . S
C163 C161 1.361 . S
C163 C164 1.393 . S
C163 N167 1.413 . S
C164 H157 0.930 . S
C164 C163 1.393 . S
C164 C165 1.399 . S
C165 C164 1.399 . S
C165 C166 1.381 . S
C166 H158 0.930 . S
C166 C162 1.390 . S
C166 C165 1.381 . S
N167 C160 1.286 . S
N167 C163 1.413 . S
H168 C173 0.930 . S
H169 C176 0.930 . S
H170 C178 0.930 . S
H171 C172 1.016 . S
C172 H171 1.016 . S
C172 N179 1.286 . S
C173 H168 0.930 . S
C173 C174 1.397 . S
C173 C175 1.361 . S
C174 C173 1.397 . S
C174 C178 1.390 . S
C175 C173 1.361 . S
C175 C176 1.393 . S
C175 N179 1.413 . S
C176 H169 0.930 . S
C176 C175 1.393 . S
C176 C177 1.399 . S
C177 C176 1.399 . S
C177 C178 1.381 . S
C178 H170 0.930 . S
C178 C174 1.390 . S
C178 C177 1.381 . S
N179 C172 1.286 . S
N179 C175 1.413 . S
H180 C185 0.930 . S
H181 C188 0.930 . S
H182 C190 0.930 . S
H183 C184 1.016 . S
C184 H183 1.016 . S
C184 N191 1.286 . S
C185 H180 0.930 . S
C185 C186 1.397 . S
C185 C187 1.361 . S
C186 C185 1.397 . S
C186 C190 1.390 . S
C187 C185 1.361 . S
C187 C188 1.393 . S
C187 N191 1.413 . S
C188 H181 0.930 . S
C188 C187 1.393 . S
C188 C189 1.399 . S
C189 C188 1.399 . S
C189 C190 1.381 . S
C190 H182 0.930 . S
C190 C186 1.390 . S
C190 C189 1.381 . S
N191 C184 1.286 . S
N191 C187 1.413 . S
H192 C197 0.930 . S
H193 C200 0.930 . S
H194 C202 0.930 . S
H195 C196 1.016 . S
C196 H195 1.016 . S
C196 N203 1.286 . S
C197 H192 0.930 . S
C197 C198 1.397 . S
C197 C199 1.361 . S
C198 C197 1.397 . S
C198 C202 1.390 . S
C199 C197 1.361 . S
C199 C200 1.393 . S
C199 N203 1.413 . S
C200 H193 0.930 . S
C200 C199 1.393 . S
C200 C201 1.399 . S
C201 C200 1.399 . S
C201 C202 1.381 . S
C202 H194 0.930 . S
C202 C198 1.390 . S
C202 C201 1.381 . S
N203 C196 1.286 . S
N203 C199 1.413 . S
H204 C209 0.930 . S
H205 C212 0.930 . S
H206 C214 0.930 . S
H207 C208 1.016 . S
C208 H207 1.016 . S
C208 N215 1.286 . S
C209 H204 0.930 . S
C209 C210 1.397 . S
C209 C211 1.361 . S
C210 C209 1.397 . S
C210 C214 1.390 . S
C211 C209 1.361 . S
C211 C212 1.393 . S
C211 N215 1.413 . S
C212 H205 0.930 . S
C212 C211 1.393 . S
C212 C213 1.399 . S
C213 C212 1.399 . S
C213 C214 1.381 . S
C214 H206 0.930 . S
C214 C210 1.390 . S
C214 C213 1.381 . S
N215 C208 1.286 . S
N215 C211 1.413 . S
Tb216 N247 2.660 . S
Tb216 N254 2.600 . S
Tb216 O260 2.546 . S
Tb216 O261 2.610 1_566 S
Tb216 O263 2.320 1_565 S
Tb216 O264 2.552 1_565 S
Tb216 O265 2.413 1_565 S
Tb216 O267 2.362 1_556 S
Tb216 O268 2.419 . S
Tb216 C280 2.832 1_565 S
C217 C220 1.432 . S
C217 C221 1.414 . S
C217 N224 1.359 . S
C218 C220 1.417 . S
C218 C222 1.432 . S
C218 C230 1.410 . S
C219 C221 1.444 . S
C219 C222 1.317 . S
C219 H242 0.929 . S
C220 C217 1.432 . S
C220 C218 1.417 . S
C220 N228 1.360 . S
C221 C217 1.414 . S
C221 C219 1.444 . S
C221 C226 1.385 . S
C222 C218 1.432 . S
C222 C219 1.317 . S
C222 H234 0.930 . S
C223 C225 1.392 . S
C223 C226 1.370 . S
C223 H235 0.931 . S
N224 C217 1.359 . S
N224 C225 1.327 . S
N224 Tb227 2.600 . S
C225 C223 1.392 . S
C225 N224 1.327 . S
C225 H232 0.930 . S
C226 C221 1.385 . S
C226 C223 1.370 . S
C226 H245 0.930 . S
Tb227 N224 2.600 . S
Tb227 N228 2.660 . S
Tb227 O261 2.362 . S
Tb227 O262 2.421 . S
Tb227 O266 2.546 . S
Tb227 O267 2.610 1_545 S
Tb227 O269 2.320 1_545 S
Tb227 O270 2.552 1_545 S
Tb227 O271 2.413 1_545 S
Tb227 C291 2.833 . S
N228 C220 1.360 . S
N228 Tb227 2.660 . S
N228 C229 1.305 . S
C229 N228 1.305 . S
C229 C231 1.407 . S
C229 H236 0.930 . S
C230 C218 1.410 . S
C230 C231 1.345 . S
C230 H238 0.930 . S
C231 C229 1.407 . S
C231 C230 1.345 . S
C231 H233 0.930 . S
H232 C225 0.930 . S
H233 C231 0.930 . S
H234 C222 0.930 . S
H235 C223 0.931 . S
H236 C229 0.930 . S
H237 C251 0.930 . S
H238 C230 0.930 . S
H239 C257 0.930 . S
H240 C248 0.930 . S
H241 C255 0.931 . S
H242 C219 0.929 . S
H243 C249 0.930 . S
H244 C282 0.930 . S
H245 C226 0.930 . S
H246 C281 0.929 . S
N247 Tb216 2.660 . S
N247 C248 1.305 . S
N247 C252 1.360 . S
C248 H240 0.930 . S
C248 N247 1.305 . S
C248 C251 1.407 . S
C249 H243 0.930 . S
C249 C250 1.410 . S
C249 C251 1.345 . S
C250 C249 1.410 . S
C250 C252 1.417 . S
C250 C282 1.432 . S
C251 H237 0.930 . S
C251 C248 1.407 . S
C251 C249 1.345 . S
C252 N247 1.360 . S
C252 C250 1.417 . S
C252 C256 1.432 . S
H253 C258 0.930 . S
N254 Tb216 2.600 . S
N254 C256 1.359 . S
N254 C257 1.327 . S
C255 H241 0.931 . S
C255 C257 1.392 . S
C255 C258 1.370 . S
C256 C252 1.432 . S
C256 N254 1.359 . S
C256 C259 1.414 . S
C257 H239 0.930 . S
C257 N254 1.327 . S
C257 C255 1.392 . S
C258 H253 0.930 . S
C258 C255 1.370 . S
C258 C259 1.385 . S
C259 C256 1.414 . S
C259 C258 1.385 . S
C259 C281 1.444 . S
O260 Tb216 2.546 . S
O260 C280 1.239 1_565 S
O261 Tb216 2.610 1_544 S
O261 Tb227 2.362 . S
O261 C272 1.283 1_554 S
O262 Tb227 2.421 . S
O262 C279 1.262 . S
O263 Tb216 2.320 1_545 S
O263 C279 1.260 1_556 S
O264 Tb216 2.552 1_545 S
O264 C272 1.243 . S
O265 Tb216 2.413 1_545 S
O265 C280 1.267 . S
O266 Tb227 2.546 . S
O266 C291 1.251 . S
O267 Tb216 2.362 1_554 S
O267 Tb227 2.610 1_565 S
O267 C283 1.283 . S
O268 Tb216 2.419 . S
O268 C290 1.265 1_556 S
O269 Tb227 2.320 1_565 S
O269 C290 1.260 . S
O270 Tb227 2.552 1_565 S
O270 C283 1.243 . S
O271 Tb227 2.413 1_565 S
O271 C291 1.256 1_565 S
C272 O261 1.283 1_556 S
C272 O264 1.243 . S
C273 C275 1.382 . S
C273 C277 1.393 1_545 S
C273 C280 1.502 . S
C274 C275 1.400 . S
C274 C276 1.384 . S
C275 C273 1.382 . S
C275 C274 1.400 . S
C275 H292 0.930 . S
C276 C274 1.384 . S
C276 C278 1.392 1_545 S
C276 H293 0.931 . S
C277 C273 1.393 1_565 S
C277 C278 1.401 . S
C277 H294 0.930 . S
C278 C276 1.392 1_565 S
C278 C277 1.401 . S
C278 H295 0.930 . S
C279 O262 1.262 . S
C279 O263 1.260 1_554 S
C280 Tb216 2.832 1_545 S
C280 O260 1.239 1_545 S
C280 O265 1.267 . S
C280 C273 1.502 . S
C281 H246 0.929 . S
C281 C259 1.444 . S
C281 C282 1.317 . S
C282 H244 0.930 . S
C282 C250 1.432 . S
C282 C281 1.317 . S
C283 O267 1.283 . S
C283 O270 1.243 . S
C284 C285 1.382 1_545 S
C284 C288 1.393 . S
C284 C291 1.500 . S
C285 C284 1.382 1_565 S
C285 C286 1.400 . S
C285 H296 0.930 . S
C286 C285 1.400 . S
C286 C287 1.384 . S
C287 C286 1.384 . S
C287 C289 1.392 1_565 S
C287 H297 0.931 . S
C288 C284 1.393 . S
C288 C289 1.401 . S
C288 H298 0.930 . S
C289 C287 1.392 1_545 S
C289 C288 1.401 . S
C289 H299 0.930 . S
C290 O268 1.265 1_554 S
C290 O269 1.260 . S
C291 Tb227 2.833 . S
C291 O266 1.251 . S
C291 O271 1.256 1_545 S
C291 C284 1.500 . S
H292 C275 0.930 . S
H293 C276 0.931 . S
H294 C277 0.930 . S
H295 C278 0.930 . S
H296 C285 0.930 . S
H297 C287 0.931 . S
H298 C288 0.930 . S
H299 C289 0.930 . S
Tb300 N331 2.660 . S
Tb300 N338 2.600 . S
Tb300 O344 2.546 . S
Tb300 O345 2.610 1_456 S
Tb300 O347 2.320 1_455 S
Tb300 O348 2.552 1_455 S
Tb300 O349 2.419 . S
Tb300 O351 2.362 1_556 S
Tb300 O352 2.393 1_556 S
Tb300 C364 2.833 . S
C301 C304 1.432 . S
C301 C305 1.414 . S
C301 N308 1.359 . S
C302 C304 1.417 . S
C302 C306 1.432 . S
C302 C314 1.410 . S
C303 C305 1.444 . S
C303 C306 1.317 . S
C303 H326 0.929 . S
C304 C301 1.432 . S
C304 C302 1.417 . S
C304 N312 1.360 . S
C305 C301 1.414 . S
C305 C303 1.444 . S
C305 C310 1.385 . S
C306 C302 1.432 . S
C306 C303 1.317 . S
C306 H318 0.930 . S
C307 C309 1.392 . S
C307 C310 1.370 . S
C307 H319 0.931 . S
N308 C301 1.359 . S
N308 C309 1.327 . S
N308 Tb311 2.600 . S
C309 C307 1.392 . S
C309 N308 1.327 . S
C309 H316 0.930 . S
C310 C305 1.385 . S
C310 C307 1.370 . S
C310 H329 0.930 . S
Tb311 N308 2.600 . S
Tb311 N312 2.660 . S
Tb311 O345 2.362 . S
Tb311 O346 2.421 . S
Tb311 O350 2.546 . S
Tb311 O351 2.610 1_655 S
Tb311 O353 2.320 1_655 S
Tb311 O354 2.552 1_655 S
Tb311 O355 2.413 1_655 S
Tb311 C375 2.833 . S
N312 C304 1.360 . S
N312 Tb311 2.660 . S
N312 C313 1.305 . S
C313 N312 1.305 . S
C313 C315 1.407 . S
C313 H320 0.930 . S
C314 C302 1.410 . S
C314 C315 1.345 . S
C314 H322 0.930 . S
C315 C313 1.407 . S
C315 C314 1.345 . S
C315 H317 0.930 . S
H316 C309 0.930 . S
H317 C315 0.930 . S
H318 C306 0.930 . S
H319 C307 0.931 . S
H320 C313 0.930 . S
H321 C335 0.930 . S
H322 C314 0.930 . S
H323 C341 0.930 . S
H324 C332 0.930 . S
H325 C339 0.931 . S
H326 C303 0.929 . S
H327 C333 0.930 . S
H328 C366 0.930 . S
H329 C310 0.930 . S
H330 C365 0.929 . S
N331 Tb300 2.660 . S
N331 C332 1.305 . S
N331 C336 1.360 . S
C332 H324 0.930 . S
C332 N331 1.305 . S
C332 C335 1.407 . S
C333 H327 0.930 . S
C333 C334 1.410 . S
C333 C335 1.345 . S
C334 C333 1.410 . S
C334 C336 1.417 . S
C334 C366 1.432 . S
C335 H321 0.930 . S
C335 C332 1.407 . S
C335 C333 1.345 . S
C336 N331 1.360 . S
C336 C334 1.417 . S
C336 C340 1.432 . S
H337 C342 0.930 . S
N338 Tb300 2.600 . S
N338 C340 1.359 . S
N338 C341 1.327 . S
C339 H325 0.931 . S
C339 C341 1.392 . S
C339 C342 1.370 . S
C340 C336 1.432 . S
C340 N338 1.359 . S
C340 C343 1.414 . S
C341 H323 0.930 . S
C341 N338 1.327 . S
C341 C339 1.392 . S
C342 H337 0.930 . S
C342 C339 1.370 . S
C342 C343 1.385 . S
C343 C340 1.414 . S
C343 C342 1.385 . S
C343 C365 1.444 . S
O344 Tb300 2.546 . S
O344 C364 1.251 . S
O345 Tb300 2.610 1_654 S
O345 Tb311 2.362 . S
O345 C356 1.283 1_554 S
O346 Tb311 2.421 . S
O346 C363 1.262 . S
O347 Tb300 2.320 1_655 S
O347 C363 1.260 1_556 S
O348 Tb300 2.552 1_655 S
O348 C356 1.243 . S
O349 Tb300 2.419 . S
O349 C364 1.255 . S
O350 Tb311 2.546 . S
O350 C375 1.251 . S
O351 Tb300 2.362 1_554 S
O351 Tb311 2.610 1_455 S
O351 C367 1.283 . S
O352 Tb300 2.393 1_554 S
O352 C374 1.318 . S
O353 Tb311 2.320 1_455 S
O353 C374 1.260 . S
O354 Tb311 2.552 1_455 S
O354 C367 1.243 . S
O355 Tb311 2.413 1_455 S
O355 C375 1.256 1_455 S
C356 O345 1.283 1_556 S
C356 O348 1.243 . S
C357 C359 1.382 1_455 S
C357 C361 1.393 . S
C357 C364 1.500 . S
C358 C359 1.400 . S
C358 C360 1.384 . S
C359 C357 1.382 1_655 S
C359 C358 1.400 . S
C359 H376 0.930 . S
C360 C358 1.384 . S
C360 C362 1.392 1_655 S
C360 H377 0.931 . S
C361 C357 1.393 . S
C361 C362 1.401 . S
C361 H378 0.930 . S
C362 C360 1.392 1_455 S
C362 C361 1.401 . S
C362 H379 0.930 . S
C363 O346 1.262 . S
C363 O347 1.260 1_554 S
C364 Tb300 2.833 . S
C364 O344 1.251 . S
C364 O349 1.255 . S
C364 C357 1.500 . S
C365 H330 0.929 . S
C365 C343 1.444 . S
C365 C366 1.317 . S
C366 H328 0.930 . S
C366 C334 1.432 . S
C366 C365 1.317 . S
C367 O351 1.283 . S
C367 O354 1.243 . S
C368 C369 1.382 . S
C368 C372 1.393 1_455 S
C368 C375 1.500 1_455 S
C369 C368 1.382 . S
C369 C370 1.400 . S
C369 H380 0.930 . S
C370 C369 1.400 . S
C370 C371 1.384 . S
C371 C370 1.384 . S
C371 C373 1.392 1_455 S
C371 H381 0.931 . S
C372 C368 1.393 1_655 S
C372 C373 1.401 . S
C372 H382 0.930 . S
C373 C371 1.392 1_655 S
C373 C372 1.401 . S
C373 H383 0.930 . S
C374 O352 1.318 . S
C374 O353 1.260 . S
C375 Tb311 2.833 . S
C375 O350 1.251 . S
C375 O355 1.256 1_655 S
C375 C368 1.500 1_655 S
H376 C359 0.930 . S
H377 C360 0.931 . S
H378 C361 0.930 . S
H379 C362 0.930 . S
H380 C369 0.930 . S
H381 C371 0.931 . S
H382 C372 0.930 . S
H383 C373 0.930 . S
Tb384 N415 2.660 . S
Tb384 N422 2.600 . S
Tb384 O428 2.546 . S
Tb384 O429 2.610 . S
Tb384 O431 2.320 . S
Tb384 O432 2.552 . S
Tb384 O433 2.413 . S
Tb384 O435 2.362 . S
Tb384 O436 2.421 . S
Tb384 C448 2.833 . S
C385 C388 1.432 . S
C385 C389 1.414 . S
C385 N392 1.359 . S
C386 C388 1.417 . S
C386 C390 1.432 . S
C386 C398 1.410 . S
C387 C389 1.444 . S
C387 C390 1.317 . S
C387 H410 0.929 . S
C388 C385 1.432 . S
C388 C386 1.417 . S
C388 N396 1.360 . S
C389 C385 1.414 . S
C389 C387 1.444 . S
C389 C394 1.385 . S
C390 C386 1.432 . S
C390 C387 1.317 . S
C390 H402 0.930 . S
C391 C393 1.392 . S
C391 C394 1.370 . S
C391 H403 0.931 . S
N392 C385 1.359 . S
N392 C393 1.327 . S
N392 Tb395 2.600 . S
C393 C391 1.392 . S
C393 N392 1.327 . S
C393 H400 0.930 . S
C394 C389 1.385 . S
C394 C391 1.370 . S
C394 H413 0.930 . S
Tb395 N392 2.600 . S
Tb395 N396 2.660 . S
Tb395 O429 2.362 1_556 S
Tb395 O430 2.421 1_556 S
Tb395 O434 2.546 . S
Tb395 O435 2.610 1_556 S
Tb395 O437 2.320 . S
Tb395 O438 2.552 . S
Tb395 O439 2.413 . S
Tb395 C459 2.833 . S
N396 C388 1.360 . S
N396 Tb395 2.660 . S
N396 C397 1.305 . S
C397 N396 1.305 . S
C397 C399 1.407 . S
C397 H404 0.930 . S
C398 C386 1.410 . S
C398 C399 1.345 . S
C398 H406 0.930 . S
C399 C397 1.407 . S
C399 C398 1.345 . S
C399 H401 0.930 . S
H400 C393 0.930 . S
H401 C399 0.930 . S
H402 C390 0.930 . S
H403 C391 0.931 . S
H404 C397 0.930 . S
H405 C419 0.930 . S
H406 C398 0.930 . S
H407 C425 0.930 . S
H408 C416 0.930 . S
H409 C423 0.931 . S
H410 C387 0.929 . S
H411 C417 0.930 . S
H412 C450 0.930 . S
H413 C394 0.930 . S
H414 C449 0.929 . S
N415 Tb384 2.660 . S
N415 C416 1.305 . S
N415 C420 1.360 . S
C416 H408 0.930 . S
C416 N415 1.305 . S
C416 C419 1.407 . S
C417 H411 0.930 . S
C417 C418 1.410 . S
C417 C419 1.345 . S
C418 C417 1.410 . S
C418 C420 1.417 . S
C418 C450 1.432 . S
C419 H405 0.930 . S
C419 C416 1.407 . S
C419 C417 1.345 . S
C420 N415 1.360 . S
C420 C418 1.417 . S
C420 C424 1.432 . S
H421 C426 0.930 . S
N422 Tb384 2.600 . S
N422 C424 1.359 . S
N422 C425 1.327 . S
C423 H409 0.931 . S
C423 C425 1.392 . S
C423 C426 1.370 . S
C424 C420 1.432 . S
C424 N422 1.359 . S
C424 C427 1.414 . S
C425 H407 0.930 . S
C425 N422 1.327 . S
C425 C423 1.392 . S
C426 H421 0.930 . S
C426 C423 1.370 . S
C426 C427 1.385 . S
C427 C424 1.414 . S
C427 C426 1.385 . S
C427 C449 1.444 . S
O428 Tb384 2.546 . S
O428 C448 1.251 . S
O429 Tb384 2.610 . S
O429 Tb395 2.362 1_554 S
O429 C440 1.283 . S
O430 Tb395 2.421 1_554 S
O430 C447 1.262 . S
O431 Tb384 2.320 . S
O431 C447 1.260 . S
O432 Tb384 2.552 . S
O432 C440 1.243 . S
O433 Tb384 2.413 . S
O433 C448 1.256 . S
O434 Tb395 2.546 . S
O434 C459 1.251 . S
O435 Tb384 2.362 . S
O435 Tb395 2.610 1_554 S
O435 C451 1.283 1_554 S
O436 Tb384 2.421 . S
O436 C458 1.262 . S
O437 Tb395 2.320 . S
O437 C458 1.260 1_556 S
O438 Tb395 2.552 . S
O438 C451 1.243 . S
O439 Tb395 2.413 . S
O439 C459 1.256 . S
C440 O429 1.283 . S
C440 O432 1.243 . S
C441 C443 1.382 . S
C441 C445 1.393 . S
C441 C448 1.500 . S
C442 C443 1.400 . S
C442 C444 1.384 . S
C443 C441 1.382 . S
C443 C442 1.400 . S
C443 H460 0.930 . S
C444 C442 1.384 . S
C444 C446 1.392 . S
C444 H461 0.931 . S
C445 C441 1.393 . S
C445 C446 1.401 . S
C445 H462 0.930 . S
C446 C444 1.392 . S
C446 C445 1.401 . S
C446 H463 0.930 . S
C447 O430 1.262 . S
C447 O431 1.260 . S
C448 Tb384 2.833 . S
C448 O428 1.251 . S
C448 O433 1.256 . S
C448 C441 1.500 . S
C449 H414 0.929 . S
C449 C427 1.444 . S
C449 C450 1.317 . S
C450 H412 0.930 . S
C450 C418 1.432 . S
C450 C449 1.317 . S
C451 O435 1.283 1_556 S
C451 O438 1.243 . S
C452 C453 1.382 . S
C452 C456 1.393 . S
C452 C459 1.500 . S
C453 C452 1.382 . S
C453 C454 1.400 . S
C453 H464 0.930 . S
C454 C453 1.400 . S
C454 C455 1.384 . S
C455 C454 1.384 . S
C455 C457 1.392 . S
C455 H465 0.931 . S
C456 C452 1.393 . S
C456 C457 1.401 . S
C456 H466 0.930 . S
C457 C455 1.392 . S
C457 C456 1.401 . S
C457 H467 0.930 . S
C458 O436 1.262 . S
C458 O437 1.260 1_554 S
C459 Tb395 2.833 . S
C459 O434 1.251 . S
C459 O439 1.256 . S
C459 C452 1.500 . S
H460 C443 0.930 . S
H461 C444 0.931 . S
H462 C445 0.930 . S
H463 C446 0.930 . S
H464 C453 0.930 . S
H465 C455 0.931 . S
H466 C456 0.930 . S
H467 C457 0.930 . S
Tb468 N499 2.660 . S
Tb468 N506 2.600 . S
Tb468 O512 2.546 . S
Tb468 O513 2.610 . S
Tb468 O515 2.320 . S
Tb468 O516 2.552 . S
Tb468 O517 2.413 . S
Tb468 O519 2.362 . S
Tb468 O520 2.421 . S
Tb468 C532 2.833 . S
C469 C472 1.432 . S
C469 C473 1.414 . S
C469 N476 1.359 . S
C470 C472 1.417 . S
C470 C474 1.432 . S
C470 C482 1.410 . S
C471 C473 1.444 . S
C471 C474 1.317 . S
C471 H494 0.929 . S
C472 C469 1.432 . S
C472 C470 1.417 . S
C472 N480 1.360 . S
C473 C469 1.414 . S
C473 C471 1.444 . S
C473 C478 1.385 . S
C474 C470 1.432 . S
C474 C471 1.317 . S
C474 H486 0.930 . S
C475 C477 1.392 . S
C475 C478 1.370 . S
C475 H487 0.931 . S
N476 C469 1.359 . S
N476 C477 1.327 . S
N476 Tb479 2.600 . S
C477 C475 1.392 . S
C477 N476 1.327 . S
C477 H484 0.930 . S
C478 C473 1.385 . S
C478 C475 1.370 . S
C478 H497 0.930 . S
Tb479 N476 2.600 . S
Tb479 N480 2.660 . S
Tb479 O513 2.362 . S
Tb479 O514 2.421 . S
Tb479 O518 2.546 . S
Tb479 O519 2.610 . S
Tb479 O521 2.320 . S
Tb479 O522 2.552 . S
Tb479 O523 2.413 . S
Tb479 C543 2.833 . S
N480 C472 1.360 . S
N480 Tb479 2.660 . S
N480 C481 1.305 . S
C481 N480 1.305 . S
C481 C483 1.407 . S
C481 H488 0.930 . S
C482 C470 1.410 . S
C482 C483 1.345 . S
C482 H490 0.930 . S
C483 C481 1.407 . S
C483 C482 1.345 . S
C483 H485 0.930 . S
H484 C477 0.930 . S
H485 C483 0.930 . S
H486 C474 0.930 . S
H487 C475 0.931 . S
H488 C481 0.930 . S
H489 C503 0.930 . S
H490 C482 0.930 . S
H491 C509 0.930 . S
H492 C500 0.930 . S
H493 C507 0.931 . S
H494 C471 0.929 . S
H495 C501 0.930 . S
H496 C534 0.930 . S
H497 C478 0.930 . S
H498 C533 0.929 . S
N499 Tb468 2.660 . S
N499 C500 1.305 . S
N499 C504 1.360 . S
C500 H492 0.930 . S
C500 N499 1.305 . S
C500 C503 1.407 . S
C501 H495 0.930 . S
C501 C502 1.410 . S
C501 C503 1.345 . S
C502 C501 1.410 . S
C502 C504 1.417 . S
C502 C534 1.432 . S
C503 H489 0.930 . S
C503 C500 1.407 . S
C503 C501 1.345 . S
C504 N499 1.360 . S
C504 C502 1.417 . S
C504 C508 1.432 . S
H505 C510 0.930 . S
N506 Tb468 2.600 . S
N506 C508 1.359 . S
N506 C509 1.327 . S
C507 H493 0.931 . S
C507 C509 1.392 . S
C507 C510 1.370 . S
C508 C504 1.432 . S
C508 N506 1.359 . S
C508 C511 1.414 . S
C509 H491 0.930 . S
C509 N506 1.327 . S
C509 C507 1.392 . S
C510 H505 0.930 . S
C510 C507 1.370 . S
C510 C511 1.385 . S
C511 C508 1.414 . S
C511 C510 1.385 . S
C511 C533 1.444 . S
O512 Tb468 2.546 . S
O512 C532 1.251 . S
O513 Tb468 2.610 . S
O513 Tb479 2.362 . S
O513 C524 1.283 . S
O514 Tb479 2.421 . S
O514 C531 1.262 . S
O515 Tb468 2.320 . S
O515 C531 1.260 . S
O516 Tb468 2.552 . S
O516 C524 1.243 . S
O517 Tb468 2.413 . S
O517 C532 1.256 . S
O518 Tb479 2.546 . S
O518 C543 1.251 . S
O519 Tb468 2.362 . S
O519 Tb479 2.610 . S
O519 C535 1.283 . S
O520 Tb468 2.421 . S
O520 C542 1.262 . S
O521 Tb479 2.320 . S
O521 C542 1.260 . S
O522 Tb479 2.552 . S
O522 C535 1.243 . S
O523 Tb479 2.413 . S
O523 C543 1.256 . S
C524 O513 1.283 . S
C524 O516 1.243 . S
C525 C527 1.382 . S
C525 C529 1.393 . S
C525 C532 1.500 . S
C526 C527 1.400 . S
C526 C528 1.384 . S
C527 C525 1.382 . S
C527 C526 1.400 . S
C527 H544 0.930 . S
C528 C526 1.384 . S
C528 C530 1.392 . S
C528 H545 0.931 . S
C529 C525 1.393 . S
C529 C530 1.401 . S
C529 H546 0.930 . S
C530 C528 1.392 . S
C530 C529 1.401 . S
C530 H547 0.930 . S
C531 O514 1.262 . S
C531 O515 1.260 . S
C532 Tb468 2.833 . S
C532 O512 1.251 . S
C532 O517 1.256 . S
C532 C525 1.500 . S
C533 H498 0.929 . S
C533 C511 1.444 . S
C533 C534 1.317 . S
C534 H496 0.930 . S
C534 C502 1.432 . S
C534 C533 1.317 . S
C535 O519 1.283 . S
C535 O522 1.243 . S
C536 C537 1.382 . S
C536 C540 1.393 . S
C536 C543 1.500 . S
C537 C536 1.382 . S
C537 C538 1.400 . S
C537 H548 0.930 . S
C538 C537 1.400 . S
C538 C539 1.384 . S
C539 C538 1.384 . S
C539 C541 1.392 . S
C539 H549 0.931 . S
C540 C536 1.393 . S
C540 C541 1.401 . S
C540 H550 0.930 . S
C541 C539 1.392 . S
C541 C540 1.401 . S
C541 H551 0.930 . S
C542 O520 1.262 . S
C542 O521 1.260 . S
C543 Tb479 2.833 . S
C543 O518 1.251 . S
C543 O523 1.256 . S
C543 C536 1.500 . S
H544 C527 0.930 . S
H545 C528 0.931 . S
H546 C529 0.930 . S
H547 C530 0.930 . S
H548 C537 0.930 . S
H549 C539 0.931 . S
H550 C540 0.930 . S
H551 C541 0.930 . S
Tb552 N583 2.660 . S
Tb552 N590 2.600 . S
Tb552 O596 2.546 . S
Tb552 O597 2.610 . S
Tb552 O599 2.320 . S
Tb552 O600 2.552 . S
Tb552 O601 2.413 . S
Tb552 O603 2.362 . S
Tb552 O604 2.421 . S
Tb552 C616 2.833 . S
C553 C556 1.432 . S
C553 C557 1.414 . S
C553 N560 1.359 . S
C554 C556 1.417 . S
C554 C558 1.432 . S
C554 C566 1.410 . S
C555 C557 1.444 . S
C555 C558 1.317 . S
C555 H578 0.929 . S
C556 C553 1.432 . S
C556 C554 1.417 . S
C556 N564 1.360 . S
C557 C553 1.414 . S
C557 C555 1.444 . S
C557 C562 1.385 . S
C558 C554 1.432 . S
C558 C555 1.317 . S
C558 H570 0.930 . S
C559 C561 1.392 . S
C559 C562 1.370 . S
C559 H571 0.931 . S
N560 C553 1.359 . S
N560 C561 1.327 . S
N560 Tb563 2.600 . S
C561 C559 1.392 . S
C561 N560 1.327 . S
C561 H568 0.930 . S
C562 C557 1.385 . S
C562 C559 1.370 . S
C562 H581 0.930 . S
Tb563 N560 2.600 . S
Tb563 N564 2.660 . S
Tb563 O597 2.362 . S
Tb563 O598 2.421 . S
Tb563 O602 2.546 . S
Tb563 O603 2.610 . S
Tb563 O605 2.320 . S
Tb563 O606 2.552 . S
Tb563 O607 2.413 . S
Tb563 C627 2.833 . S
N564 C556 1.360 . S
N564 Tb563 2.660 . S
N564 C565 1.305 . S
C565 N564 1.305 . S
C565 C567 1.407 . S
C565 H572 0.930 . S
C566 C554 1.410 . S
C566 C567 1.345 . S
C566 H574 0.930 . S
C567 C565 1.407 . S
C567 C566 1.345 . S
C567 H569 0.930 . S
H568 C561 0.930 . S
H569 C567 0.930 . S
H570 C558 0.930 . S
H571 C559 0.931 . S
H572 C565 0.930 . S
H573 C587 0.930 . S
H574 C566 0.930 . S
H575 C593 0.930 . S
H576 C584 0.930 . S
H577 C591 0.931 . S
H578 C555 0.929 . S
H579 C585 0.930 . S
H580 C618 0.930 . S
H581 C562 0.930 . S
H582 C617 0.929 . S
N583 Tb552 2.660 . S
N583 C584 1.305 . S
N583 C588 1.360 . S
C584 H576 0.930 . S
C584 N583 1.305 . S
C584 C587 1.407 . S
C585 H579 0.930 . S
C585 C586 1.410 . S
C585 C587 1.345 . S
C586 C585 1.410 . S
C586 C588 1.417 . S
C586 C618 1.432 . S
C587 H573 0.930 . S
C587 C584 1.407 . S
C587 C585 1.345 . S
C588 N583 1.360 . S
C588 C586 1.417 . S
C588 C592 1.432 . S
H589 C594 0.930 . S
N590 Tb552 2.600 . S
N590 C592 1.359 . S
N590 C593 1.327 . S
C591 H577 0.931 . S
C591 C593 1.392 . S
C591 C594 1.370 . S
C592 C588 1.432 . S
C592 N590 1.359 . S
C592 C595 1.414 . S
C593 H575 0.930 . S
C593 N590 1.327 . S
C593 C591 1.392 . S
C594 H589 0.930 . S
C594 C591 1.370 . S
C594 C595 1.385 . S
C595 C592 1.414 . S
C595 C594 1.385 . S
C595 C617 1.444 . S
O596 Tb552 2.546 . S
O596 C616 1.251 . S
O597 Tb552 2.610 . S
O597 Tb563 2.362 . S
O597 C608 1.283 . S
O598 Tb563 2.421 . S
O598 C615 1.262 . S
O599 Tb552 2.320 . S
O599 C615 1.260 . S
O600 Tb552 2.552 . S
O600 C608 1.243 . S
O601 Tb552 2.413 . S
O601 C616 1.256 . S
O602 Tb563 2.546 . S
O602 C627 1.251 . S
O603 Tb552 2.362 . S
O603 Tb563 2.610 . S
O603 C619 1.283 . S
O604 Tb552 2.421 . S
O604 C626 1.262 . S
O605 Tb563 2.320 . S
O605 C626 1.260 . S
O606 Tb563 2.552 . S
O606 C619 1.243 . S
O607 Tb563 2.413 . S
O607 C627 1.256 . S
C608 O597 1.283 . S
C608 O600 1.243 . S
C609 C611 1.382 . S
C609 C613 1.393 . S
C609 C616 1.500 . S
C610 C611 1.400 . S
C610 C612 1.384 . S
C611 C609 1.382 . S
C611 C610 1.400 . S
C611 H628 0.930 . S
C612 C610 1.384 . S
C612 C614 1.392 . S
C612 H629 0.931 . S
C613 C609 1.393 . S
C613 C614 1.401 . S
C613 H630 0.930 . S
C614 C612 1.392 . S
C614 C613 1.401 . S
C614 H631 0.930 . S
C615 O598 1.262 . S
C615 O599 1.260 . S
C616 Tb552 2.833 . S
C616 O596 1.251 . S
C616 O601 1.256 . S
C616 C609 1.500 . S
C617 H582 0.929 . S
C617 C595 1.444 . S
C617 C618 1.317 . S
C618 H580 0.930 . S
C618 C586 1.432 . S
C618 C617 1.317 . S
C619 O603 1.283 . S
C619 O606 1.243 . S
C620 C621 1.382 . S
C620 C624 1.393 . S
C620 C627 1.500 . S
C621 C620 1.382 . S
C621 C622 1.400 . S
C621 H632 0.930 . S
C622 C621 1.400 . S
C622 C623 1.384 . S
C623 C622 1.384 . S
C623 C625 1.392 . S
C623 H633 0.931 . S
C624 C620 1.393 . S
C624 C625 1.401 . S
C624 H634 0.930 . S
C625 C623 1.392 . S
C625 C624 1.401 . S
C625 H635 0.930 . S
C626 O604 1.262 . S
C626 O605 1.260 . S
C627 Tb563 2.833 . S
C627 O602 1.251 . S
C627 O607 1.256 . S
C627 C620 1.500 . S
H628 C611 0.930 . S
H629 C612 0.931 . S
H630 C613 0.930 . S
H631 C614 0.930 . S
H632 C621 0.930 . S
H633 C623 0.931 . S
H634 C624 0.930 . S
H635 C625 0.930 . S
Tb636 N667 2.660 . S
Tb636 N674 2.600 . S
Tb636 O680 2.546 . S
Tb636 O681 2.610 . S
Tb636 O683 2.320 . S
Tb636 O684 2.552 . S
Tb636 O685 2.413 . S
Tb636 O687 2.362 . S
Tb636 O688 2.421 . S
Tb636 C700 2.833 . S
C637 C640 1.432 . S
C637 C641 1.414 . S
C637 N644 1.359 . S
C638 C640 1.417 . S
C638 C642 1.432 . S
C638 C650 1.410 . S
C639 C641 1.444 . S
C639 C642 1.317 . S
C639 H662 0.929 . S
C640 C637 1.432 . S
C640 C638 1.417 . S
C640 N648 1.360 . S
C641 C637 1.414 . S
C641 C639 1.444 . S
C641 C646 1.385 . S
C642 C638 1.432 . S
C642 C639 1.317 . S
C642 H654 0.930 . S
C643 C645 1.392 . S
C643 C646 1.370 . S
C643 H655 0.931 . S
N644 C637 1.359 . S
N644 C645 1.327 . S
N644 Tb647 2.600 . S
C645 C643 1.392 . S
C645 N644 1.327 . S
C645 H652 0.930 . S
C646 C641 1.385 . S
C646 C643 1.370 . S
C646 H665 0.930 . S
Tb647 N644 2.600 . S
Tb647 N648 2.660 . S
Tb647 O681 2.362 . S
Tb647 O682 2.421 . S
Tb647 O686 2.546 . S
Tb647 O687 2.610 . S
Tb647 O689 2.320 . S
Tb647 O690 2.552 . S
Tb647 O691 2.413 . S
Tb647 C711 2.833 . S
N648 C640 1.360 . S
N648 Tb647 2.660 . S
N648 C649 1.305 . S
C649 N648 1.305 . S
C649 C651 1.407 . S
C649 H656 0.930 . S
C650 C638 1.410 . S
C650 C651 1.345 . S
C650 H658 0.930 . S
C651 C649 1.407 . S
C651 C650 1.345 . S
C651 H653 0.930 . S
H652 C645 0.930 . S
H653 C651 0.930 . S
H654 C642 0.930 . S
H655 C643 0.931 . S
H656 C649 0.930 . S
H657 C671 0.930 . S
H658 C650 0.930 . S
H659 C677 0.930 . S
H660 C668 0.930 . S
H661 C675 0.931 . S
H662 C639 0.929 . S
H663 C669 0.930 . S
H664 C702 0.930 . S
H665 C646 0.930 . S
H666 C701 0.929 . S
N667 Tb636 2.660 . S
N667 C668 1.305 . S
N667 C672 1.360 . S
C668 H660 0.930 . S
C668 N667 1.305 . S
C668 C671 1.407 . S
C669 H663 0.930 . S
C669 C670 1.410 . S
C669 C671 1.345 . S
C670 C669 1.410 . S
C670 C672 1.417 . S
C670 C702 1.432 . S
C671 H657 0.930 . S
C671 C668 1.407 . S
C671 C669 1.345 . S
C672 N667 1.360 . S
C672 C670 1.417 . S
C672 C676 1.432 . S
H673 C678 0.930 . S
N674 Tb636 2.600 . S
N674 C676 1.359 . S
N674 C677 1.327 . S
C675 H661 0.931 . S
C675 C677 1.392 . S
C675 C678 1.370 . S
C676 C672 1.432 . S
C676 N674 1.359 . S
C676 C679 1.414 . S
C677 H659 0.930 . S
C677 N674 1.327 . S
C677 C675 1.392 . S
C678 H673 0.930 . S
C678 C675 1.370 . S
C678 C679 1.385 . S
C679 C676 1.414 . S
C679 C678 1.385 . S
C679 C701 1.444 . S
O680 Tb636 2.546 . S
O680 C700 1.251 . S
O681 Tb636 2.610 . S
O681 Tb647 2.362 . S
O681 C692 1.283 . S
O682 Tb647 2.421 . S
O682 C699 1.262 . S
O683 Tb636 2.320 . S
O683 C699 1.260 . S
O684 Tb636 2.552 . S
O684 C692 1.243 . S
O685 Tb636 2.413 . S
O685 C700 1.256 . S
O686 Tb647 2.546 . S
O686 C711 1.251 . S
O687 Tb636 2.362 . S
O687 Tb647 2.610 . S
O687 C703 1.283 . S
O688 Tb636 2.421 . S
O688 C710 1.262 . S
O689 Tb647 2.320 . S
O689 C710 1.260 . S
O690 Tb647 2.552 . S
O690 C703 1.243 . S
O691 Tb647 2.413 . S
O691 C711 1.256 . S
C692 O681 1.283 . S
C692 O684 1.243 . S
C693 C695 1.382 . S
C693 C697 1.393 . S
C693 C700 1.500 . S
C694 C695 1.400 . S
C694 C696 1.384 . S
C695 C693 1.382 . S
C695 C694 1.400 . S
C695 H712 0.930 . S
C696 C694 1.384 . S
C696 C698 1.392 . S
C696 H713 0.931 . S
C697 C693 1.393 . S
C697 C698 1.401 . S
C697 H714 0.930 . S
C698 C696 1.392 . S
C698 C697 1.401 . S
C698 H715 0.930 . S
C699 O682 1.262 . S
C699 O683 1.260 . S
C700 Tb636 2.833 . S
C700 O680 1.251 . S
C700 O685 1.256 . S
C700 C693 1.500 . S
C701 H666 0.929 . S
C701 C679 1.444 . S
C701 C702 1.317 . S
C702 H664 0.930 . S
C702 C670 1.432 . S
C702 C701 1.317 . S
C703 O687 1.283 . S
C703 O690 1.243 . S
C704 C705 1.382 . S
C704 C708 1.393 . S
C704 C711 1.500 . S
C705 C704 1.382 . S
C705 C706 1.400 . S
C705 H716 0.930 . S
C706 C705 1.400 . S
C706 C707 1.384 . S
C707 C706 1.384 . S
C707 C709 1.392 . S
C707 H717 0.931 . S
C708 C704 1.393 . S
C708 C709 1.401 . S
C708 H718 0.930 . S
C709 C707 1.392 . S
C709 C708 1.401 . S
C709 H719 0.930 . S
C710 O688 1.262 . S
C710 O689 1.260 . S
C711 Tb647 2.833 . S
C711 O686 1.251 . S
C711 O691 1.256 . S
C711 C704 1.500 . S
H712 C695 0.930 . S
H713 C696 0.931 . S
H714 C697 0.930 . S
H715 C698 0.930 . S
H716 C705 0.930 . S
H717 C707 0.931 . S
H718 C708 0.930 . S
H719 C709 0.930 . S
Tb720 N751 2.660 . S
Tb720 N758 2.600 . S
Tb720 O764 2.546 . S
Tb720 O765 2.610 . S
Tb720 O767 2.320 . S
Tb720 O768 2.552 . S
Tb720 O769 2.413 . S
Tb720 O771 2.362 . S
Tb720 O772 2.421 . S
Tb720 C784 2.833 . S
C721 C724 1.432 . S
C721 C725 1.414 . S
C721 N728 1.359 . S
C722 C724 1.417 . S
C722 C726 1.432 . S
C722 C734 1.410 . S
C723 C725 1.444 . S
C723 C726 1.317 . S
C723 H746 0.929 . S
C724 C721 1.432 . S
C724 C722 1.417 . S
C724 N732 1.360 . S
C725 C721 1.414 . S
C725 C723 1.444 . S
C725 C730 1.385 . S
C726 C722 1.432 . S
C726 C723 1.317 . S
C726 H738 0.930 . S
C727 C729 1.392 . S
C727 C730 1.370 . S
C727 H739 0.931 . S
N728 C721 1.359 . S
N728 C729 1.327 . S
N728 Tb731 2.600 . S
C729 C727 1.392 . S
C729 N728 1.327 . S
C729 H736 0.930 . S
C730 C725 1.385 . S
C730 C727 1.370 . S
C730 H749 0.930 . S
Tb731 N728 2.600 . S
Tb731 N732 2.660 . S
Tb731 O765 2.362 . S
Tb731 O766 2.421 . S
Tb731 O770 2.546 . S
Tb731 O771 2.610 . S
Tb731 O773 2.320 . S
Tb731 O774 2.552 . S
Tb731 O775 2.413 . S
Tb731 C795 2.833 . S
N732 C724 1.360 . S
N732 Tb731 2.660 . S
N732 C733 1.305 . S
C733 N732 1.305 . S
C733 C735 1.407 . S
C733 H740 0.930 . S
C734 C722 1.410 . S
C734 C735 1.345 . S
C734 H742 0.930 . S
C735 C733 1.407 . S
C735 C734 1.345 . S
C735 H737 0.930 . S
H736 C729 0.930 . S
H737 C735 0.930 . S
H738 C726 0.930 . S
H739 C727 0.931 . S
H740 C733 0.930 . S
H741 C755 0.930 . S
H742 C734 0.930 . S
H743 C761 0.930 . S
H744 C752 0.930 . S
H745 C759 0.931 . S
H746 C723 0.929 . S
H747 C753 0.930 . S
H748 C786 0.930 . S
H749 C730 0.930 . S
H750 C785 0.929 . S
N751 Tb720 2.660 . S
N751 C752 1.305 . S
N751 C756 1.360 . S
C752 H744 0.930 . S
C752 N751 1.305 . S
C752 C755 1.407 . S
C753 H747 0.930 . S
C753 C754 1.410 . S
C753 C755 1.345 . S
C754 C753 1.410 . S
C754 C756 1.417 . S
C754 C786 1.432 . S
C755 H741 0.930 . S
C755 C752 1.407 . S
C755 C753 1.345 . S
C756 N751 1.360 . S
C756 C754 1.417 . S
C756 C760 1.432 . S
H757 C762 0.930 . S
N758 Tb720 2.600 . S
N758 C760 1.359 . S
N758 C761 1.327 . S
C759 H745 0.931 . S
C759 C761 1.392 . S
C759 C762 1.370 . S
C760 C756 1.432 . S
C760 N758 1.359 . S
C760 C763 1.414 . S
C761 H743 0.930 . S
C761 N758 1.327 . S
C761 C759 1.392 . S
C762 H757 0.930 . S
C762 C759 1.370 . S
C762 C763 1.385 . S
C763 C760 1.414 . S
C763 C762 1.385 . S
C763 C785 1.444 . S
O764 Tb720 2.546 . S
O764 C784 1.251 . S
O765 Tb720 2.610 . S
O765 Tb731 2.362 . S
O765 C776 1.283 . S
O766 Tb731 2.421 . S
O766 C783 1.262 . S
O767 Tb720 2.320 . S
O767 C783 1.260 . S
O768 Tb720 2.552 . S
O768 C776 1.243 . S
O769 Tb720 2.413 . S
O769 C784 1.256 . S
O770 Tb731 2.546 . S
O770 C795 1.251 . S
O771 Tb720 2.362 . S
O771 Tb731 2.610 . S
O771 C787 1.283 . S
O772 Tb720 2.421 . S
O772 C794 1.262 . S
O773 Tb731 2.320 . S
O773 C794 1.260 . S
O774 Tb731 2.552 . S
O774 C787 1.243 . S
O775 Tb731 2.413 . S
O775 C795 1.256 . S
C776 O765 1.283 . S
C776 O768 1.243 . S
C777 C779 1.382 . S
C777 C781 1.393 . S
C777 C784 1.500 . S
C778 C779 1.400 . S
C778 C780 1.384 . S
C779 C777 1.382 . S
C779 C778 1.400 . S
C779 H796 0.930 . S
C780 C778 1.384 . S
C780 C782 1.392 . S
C780 H797 0.931 . S
C781 C777 1.393 . S
C781 C782 1.401 . S
C781 H798 0.930 . S
C782 C780 1.392 . S
C782 C781 1.401 . S
C782 H799 0.930 . S
C783 O766 1.262 . S
C783 O767 1.260 . S
C784 Tb720 2.833 . S
C784 O764 1.251 . S
C784 O769 1.256 . S
C784 C777 1.500 . S
C785 H750 0.929 . S
C785 C763 1.444 . S
C785 C786 1.317 . S
C786 H748 0.930 . S
C786 C754 1.432 . S
C786 C785 1.317 . S
C787 O771 1.283 . S
C787 O774 1.243 . S
C788 C789 1.382 . S
C788 C792 1.393 . S
C788 C795 1.500 . S
C789 C788 1.382 . S
C789 C790 1.400 . S
C789 H800 0.930 . S
C790 C789 1.400 . S
C790 C791 1.384 . S
C791 C790 1.384 . S
C791 C793 1.392 . S
C791 H801 0.931 . S
C792 C788 1.393 . S
C792 C793 1.401 . S
C792 H802 0.930 . S
C793 C791 1.392 . S
C793 C792 1.401 . S
C793 H803 0.930 . S
C794 O772 1.262 . S
C794 O773 1.260 . S
C795 Tb731 2.833 . S
C795 O770 1.251 . S
C795 O775 1.256 . S
C795 C788 1.500 . S
H796 C779 0.930 . S
H797 C780 0.931 . S
H798 C781 0.930 . S
H799 C782 0.930 . S
H800 C789 0.930 . S
H801 C791 0.931 . S
H802 C792 0.930 . S
H803 C793 0.930 . S
Tb804 N835 2.660 . S
Tb804 N842 2.600 . S
Tb804 O848 2.546 . S
Tb804 O849 2.610 . S
Tb804 O851 2.320 . S
Tb804 O852 2.552 . S
Tb804 O853 2.413 . S
Tb804 O855 2.362 . S
Tb804 O856 2.421 . S
Tb804 C868 2.833 . S
C805 C808 1.432 . S
C805 C809 1.414 . S
C805 N812 1.359 . S
C806 C808 1.417 . S
C806 C810 1.432 . S
C806 C818 1.410 . S
C807 C809 1.444 . S
C807 C810 1.317 . S
C807 H830 0.929 . S
C808 C805 1.432 . S
C808 C806 1.417 . S
C808 N816 1.360 . S
C809 C805 1.414 . S
C809 C807 1.444 . S
C809 C814 1.385 . S
C810 C806 1.432 . S
C810 C807 1.317 . S
C810 H822 0.930 . S
C811 C813 1.392 . S
C811 C814 1.370 . S
C811 H823 0.931 . S
N812 C805 1.359 . S
N812 C813 1.327 . S
N812 Tb815 2.600 . S
C813 C811 1.392 . S
C813 N812 1.327 . S
C813 H820 0.930 . S
C814 C809 1.385 . S
C814 C811 1.370 . S
C814 H833 0.930 . S
Tb815 N812 2.600 . S
Tb815 N816 2.660 . S
Tb815 O849 2.362 . S
Tb815 O850 2.421 . S
Tb815 O854 2.546 . S
Tb815 O855 2.610 . S
Tb815 O857 2.320 . S
Tb815 O858 2.552 . S
Tb815 O859 2.413 . S
Tb815 C879 2.833 . S
N816 C808 1.360 . S
N816 Tb815 2.660 . S
N816 C817 1.305 . S
C817 N816 1.305 . S
C817 C819 1.407 . S
C817 H824 0.930 . S
C818 C806 1.410 . S
C818 C819 1.345 . S
C818 H826 0.930 . S
C819 C817 1.407 . S
C819 C818 1.345 . S
C819 H821 0.930 . S
H820 C813 0.930 . S
H821 C819 0.930 . S
H822 C810 0.930 . S
H823 C811 0.931 . S
H824 C817 0.930 . S
H825 C839 0.930 . S
H826 C818 0.930 . S
H827 C845 0.930 . S
H828 C836 0.930 . S
H829 C843 0.931 . S
H830 C807 0.929 . S
H831 C837 0.930 . S
H832 C870 0.930 . S
H833 C814 0.930 . S
H834 C869 0.929 . S
N835 Tb804 2.660 . S
N835 C836 1.305 . S
N835 C840 1.360 . S
C836 H828 0.930 . S
C836 N835 1.305 . S
C836 C839 1.407 . S
C837 H831 0.930 . S
C837 C838 1.410 . S
C837 C839 1.345 . S
C838 C837 1.410 . S
C838 C840 1.417 . S
C838 C870 1.432 . S
C839 H825 0.930 . S
C839 C836 1.407 . S
C839 C837 1.345 . S
C840 N835 1.360 . S
C840 C838 1.417 . S
C840 C844 1.432 . S
H841 C846 0.930 . S
N842 Tb804 2.600 . S
N842 C844 1.359 . S
N842 C845 1.327 . S
C843 H829 0.931 . S
C843 C845 1.392 . S
C843 C846 1.370 . S
C844 C840 1.432 . S
C844 N842 1.359 . S
C844 C847 1.414 . S
C845 H827 0.930 . S
C845 N842 1.327 . S
C845 C843 1.392 . S
C846 H841 0.930 . S
C846 C843 1.370 . S
C846 C847 1.385 . S
C847 C844 1.414 . S
C847 C846 1.385 . S
C847 C869 1.444 . S
O848 Tb804 2.546 . S
O848 C868 1.251 . S
O849 Tb804 2.610 . S
O849 Tb815 2.362 . S
O849 C860 1.283 . S
O850 Tb815 2.421 . S
O850 C867 1.262 . S
O851 Tb804 2.320 . S
O851 C867 1.260 . S
O852 Tb804 2.552 . S
O852 C860 1.243 . S
O853 Tb804 2.413 . S
O853 C868 1.256 . S
O854 Tb815 2.546 . S
O854 C879 1.251 . S
O855 Tb804 2.362 . S
O855 Tb815 2.610 . S
O855 C871 1.283 . S
O856 Tb804 2.421 . S
O856 C878 1.262 . S
O857 Tb815 2.320 . S
O857 C878 1.260 . S
O858 Tb815 2.552 . S
O858 C871 1.243 . S
O859 Tb815 2.413 . S
O859 C879 1.256 . S
C860 O849 1.283 . S
C860 O852 1.243 . S
C861 C863 1.382 . S
C861 C865 1.393 . S
C861 C868 1.500 . S
C862 C863 1.400 . S
C862 C864 1.384 . S
C863 C861 1.382 . S
C863 C862 1.400 . S
C863 H880 0.930 . S
C864 C862 1.384 . S
C864 C866 1.392 . S
C864 H881 0.931 . S
C865 C861 1.393 . S
C865 C866 1.401 . S
C865 H882 0.930 . S
C866 C864 1.392 . S
C866 C865 1.401 . S
C866 H883 0.930 . S
C867 O850 1.262 . S
C867 O851 1.260 . S
C868 Tb804 2.833 . S
C868 O848 1.251 . S
C868 O853 1.256 . S
C868 C861 1.500 . S
C869 H834 0.929 . S
C869 C847 1.444 . S
C869 C870 1.317 . S
C870 H832 0.930 . S
C870 C838 1.432 . S
C870 C869 1.317 . S
C871 O855 1.283 . S
C871 O858 1.243 . S
C872 C873 1.382 . S
C872 C876 1.393 . S
C872 C879 1.500 . S
C873 C872 1.382 . S
C873 C874 1.400 . S
C873 H884 0.930 . S
C874 C873 1.400 . S
C874 C875 1.384 . S
C875 C874 1.384 . S
C875 C877 1.392 . S
C875 H885 0.931 . S
C876 C872 1.393 . S
C876 C877 1.401 . S
C876 H886 0.930 . S
C877 C875 1.392 . S
C877 C876 1.401 . S
C877 H887 0.930 . S
C878 O856 1.262 . S
C878 O857 1.260 . S
C879 Tb815 2.833 . S
C879 O854 1.251 . S
C879 O859 1.256 . S
C879 C872 1.500 . S
H880 C863 0.930 . S
H881 C864 0.931 . S
H882 C865 0.930 . S
H883 C866 0.930 . S
H884 C873 0.930 . S
H885 C875 0.931 . S
H886 C876 0.930 . S
H887 C877 0.930 . S
Tb888 N919 2.660 . S
Tb888 N926 2.600 . S
Tb888 O932 2.546 . S
Tb888 O933 2.610 . S
Tb888 O935 2.320 . S
Tb888 O936 2.552 . S
Tb888 O937 2.413 . S
Tb888 O939 2.362 . S
Tb888 O940 2.421 . S
Tb888 C952 2.833 . S
C889 C892 1.432 . S
C889 C893 1.414 . S
C889 N896 1.359 . S
C890 C892 1.417 . S
C890 C894 1.432 . S
C890 C902 1.410 . S
C891 C893 1.444 . S
C891 C894 1.317 . S
C891 H914 0.929 . S
C892 C889 1.432 . S
C892 C890 1.417 . S
C892 N900 1.360 . S
C893 C889 1.414 . S
C893 C891 1.444 . S
C893 C898 1.385 . S
C894 C890 1.432 . S
C894 C891 1.317 . S
C894 H906 0.930 . S
C895 C897 1.392 . S
C895 C898 1.370 . S
C895 H907 0.931 . S
N896 C889 1.359 . S
N896 C897 1.327 . S
N896 Tb899 2.600 . S
C897 C895 1.392 . S
C897 N896 1.327 . S
C897 H904 0.930 . S
C898 C893 1.385 . S
C898 C895 1.370 . S
C898 H917 0.930 . S
Tb899 N896 2.600 . S
Tb899 N900 2.660 . S
Tb899 O933 2.362 . S
Tb899 O934 2.421 . S
Tb899 O938 2.546 . S
Tb899 O939 2.610 . S
Tb899 O941 2.320 . S
Tb899 O942 2.552 . S
Tb899 O943 2.413 . S
Tb899 C963 2.833 . S
N900 C892 1.360 . S
N900 Tb899 2.660 . S
N900 C901 1.305 . S
C901 N900 1.305 . S
C901 C903 1.407 . S
C901 H908 0.930 . S
C902 C890 1.410 . S
C902 C903 1.345 . S
C902 H910 0.930 . S
C903 C901 1.407 . S
C903 C902 1.345 . S
C903 H905 0.930 . S
H904 C897 0.930 . S
H905 C903 0.930 . S
H906 C894 0.930 . S
H907 C895 0.931 . S
H908 C901 0.930 . S
H909 C923 0.930 . S
H910 C902 0.930 . S
H911 C929 0.930 . S
H912 C920 0.930 . S
H913 C927 0.931 . S
H914 C891 0.929 . S
H915 C921 0.930 1_455 S
H916 C954 0.930 1_455 S
H917 C898 0.930 . S
H918 C953 0.929 . S
N919 Tb888 2.660 . S
N919 C920 1.305 . S
N919 C924 1.360 . S
C920 H912 0.930 . S
C920 N919 1.305 . S
C920 C923 1.407 . S
C921 H915 0.930 1_655 S
C921 C922 1.410 . S
C921 C923 1.345 . S
C922 C921 1.410 . S
C922 C924 1.417 . S
C922 C954 1.432 . S
C923 H909 0.930 . S
C923 C920 1.407 . S
C923 C921 1.345 . S
C924 N919 1.360 . S
C924 C922 1.417 . S
C924 C928 1.432 . S
H925 C930 0.930 . S
N926 Tb888 2.600 . S
N926 C928 1.359 . S
N926 C929 1.327 . S
C927 H913 0.931 . S
C927 C929 1.392 . S
C927 C930 1.370 . S
C928 C924 1.432 . S
C928 N926 1.359 . S
C928 C931 1.414 . S
C929 H911 0.930 . S
C929 N926 1.327 . S
C929 C927 1.392 . S
C930 H925 0.930 . S
C930 C927 1.370 . S
C930 C931 1.385 . S
C931 C928 1.414 . S
C931 C930 1.385 . S
C931 C953 1.444 . S
O932 Tb888 2.546 . S
O932 C952 1.251 . S
O933 Tb888 2.610 . S
O933 Tb899 2.362 . S
O933 C944 1.283 . S
O934 Tb899 2.421 . S
O934 C951 1.262 . S
O935 Tb888 2.320 . S
O935 C951 1.260 . S
O936 Tb888 2.552 . S
O936 C944 1.243 . S
O937 Tb888 2.413 . S
O937 C952 1.256 . S
O938 Tb899 2.546 . S
O938 C963 1.251 . S
O939 Tb888 2.362 . S
O939 Tb899 2.610 . S
O939 C955 1.283 . S
O940 Tb888 2.421 . S
O940 C962 1.262 . S
O941 Tb899 2.320 . S
O941 C962 1.260 . S
O942 Tb899 2.552 . S
O942 C955 1.243 . S
O943 Tb899 2.413 . S
O943 C963 1.256 . S
C944 O933 1.283 . S
C944 O936 1.243 . S
C945 C947 1.382 . S
C945 C949 1.393 . S
C945 C952 1.500 . S
C946 C947 1.400 . S
C946 C948 1.384 . S
C947 C945 1.382 . S
C947 C946 1.400 . S
C947 H964 0.930 . S
C948 C946 1.384 . S
C948 C950 1.392 . S
C948 H965 0.931 . S
C949 C945 1.393 . S
C949 C950 1.401 . S
C949 H966 0.930 . S
C950 C948 1.392 . S
C950 C949 1.401 . S
C950 H967 0.930 . S
C951 O934 1.262 . S
C951 O935 1.260 . S
C952 Tb888 2.833 . S
C952 O932 1.251 . S
C952 O937 1.256 . S
C952 C945 1.500 . S
C953 H918 0.929 . S
C953 C931 1.444 . S
C953 C954 1.317 . S
C954 H916 0.930 1_655 S
C954 C922 1.432 . S
C954 C953 1.317 . S
C955 O939 1.283 . S
C955 O942 1.243 . S
C956 C957 1.382 . S
C956 C960 1.393 . S
C956 C963 1.500 . S
C957 C956 1.382 . S
C957 C958 1.400 . S
C957 H968 0.930 . S
C958 C957 1.400 . S
C958 C959 1.384 . S
C959 C958 1.384 . S
C959 C961 1.392 . S
C959 H969 0.931 . S
C960 C956 1.393 . S
C960 C961 1.401 . S
C960 H970 0.930 . S
C961 C959 1.392 . S
C961 C960 1.401 . S
C961 H971 0.930 . S
C962 O940 1.262 . S
C962 O941 1.260 . S
C963 Tb899 2.833 . S
C963 O938 1.251 . S
C963 O943 1.256 . S
C963 C956 1.500 . S
H964 C947 0.930 . S
H965 C948 0.931 . S
H966 C949 0.930 . S
H967 C950 0.930 . S
H968 C957 0.930 . S
H969 C959 0.931 . S
H970 C960 0.930 . S
H971 C961 0.930 . S
H972 C980 0.950 . S
H973 C985 0.950 . S
H974 C982 0.950 . S
H975 C984 0.950 . S
H976 C986 0.916 1_556 S
H977 C988 0.950 . S
H978 C990 0.950 . S
H979 C991 0.950 . S
C980 H972 0.950 . S
C980 C981 1.386 . S
C980 C982 1.391 . S
C981 C980 1.386 . S
C981 C985 1.393 . S
C982 H974 0.950 . S
C982 C980 1.391 . S
C982 C983 1.400 . S
C983 C982 1.400 . S
C983 C984 1.398 . S
C983 C989 1.491 . S
C984 H975 0.950 . S
C984 C983 1.398 . S
C984 C985 1.391 . S
C985 H973 0.950 . S
C985 C981 1.393 . S
C985 C984 1.391 . S
C986 H976 0.916 1_554 S
C986 C987 1.386 . S
C986 C988 1.391 . S
C987 C986 1.386 . S
C987 C991 1.393 . S
C988 H977 0.950 . S
C988 C986 1.391 . S
C988 C989 1.400 . S
C989 C983 1.491 . S
C989 C988 1.400 . S
C989 C990 1.398 . S
C990 H978 0.950 . S
C990 C989 1.398 . S
C990 C991 1.391 . S
C991 H979 0.950 . S
C991 C987 1.393 . S
C991 C990 1.391 . S
H992 C1000 0.950 . S
H993 C1005 0.950 . S
H994 C1002 0.950 . S
H995 C1004 0.950 . S
H996 C1006 0.950 . S
H997 C1008 0.950 . S
H998 C1010 0.950 . S
H999 C1011 0.950 . S
C1000 H992 0.950 . S
C1000 C1001 1.386 . S
C1000 C1002 1.391 . S
C1001 C1000 1.386 . S
C1001 C1005 1.393 . S
C1002 H994 0.950 . S
C1002 C1000 1.391 . S
C1002 C1003 1.400 . S
C1003 C1002 1.400 . S
C1003 C1004 1.398 . S
C1003 C1009 1.491 . S
C1004 H995 0.950 . S
C1004 C1003 1.398 . S
C1004 C1005 1.391 . S
C1005 H993 0.950 . S
C1005 C1001 1.393 . S
C1005 C1004 1.391 . S
C1006 H996 0.950 . S
C1006 C1007 1.386 . S
C1006 C1008 1.391 . S
C1007 C1006 1.386 . S
C1007 C1011 1.393 . S
C1008 H997 0.950 . S
C1008 C1006 1.391 . S
C1008 C1009 1.400 . S
C1009 C1003 1.491 . S
C1009 C1008 1.400 . S
C1009 C1010 1.398 . S
C1010 H998 0.950 . S
C1010 C1009 1.398 . S
C1010 C1011 1.391 . S
C1011 H999 0.950 . S
C1011 C1007 1.393 . S
C1011 C1010 1.391 . S
H1012 C1020 0.950 . S
H1013 C1025 0.950 . S
H1014 C1022 0.950 . S
H1015 C1024 0.950 . S
H1016 C1026 0.950 . S
H1017 C1028 0.950 . S
H1018 C1030 0.950 . S
H1019 C1031 0.950 . S
C1020 H1012 0.950 . S
C1020 C1021 1.386 . S
C1020 C1022 1.391 . S
C1021 C1020 1.386 . S
C1021 C1025 1.393 . S
C1022 H1014 0.950 . S
C1022 C1020 1.391 . S
C1022 C1023 1.400 . S
C1023 C1022 1.400 . S
C1023 C1024 1.398 . S
C1023 C1029 1.491 . S
C1024 H1015 0.950 . S
C1024 C1023 1.398 . S
C1024 C1025 1.391 . S
C1025 H1013 0.950 . S
C1025 C1021 1.393 . S
C1025 C1024 1.391 . S
C1026 H1016 0.950 . S
C1026 C1027 1.386 . S
C1026 C1028 1.391 . S
C1027 C1026 1.386 . S
C1027 C1031 1.393 . S
C1028 H1017 0.950 . S
C1028 C1026 1.391 . S
C1028 C1029 1.400 . S
C1029 C1023 1.491 . S
C1029 C1028 1.400 . S
C1029 C1030 1.398 . S
C1030 H1018 0.950 . S
C1030 C1029 1.398 . S
C1030 C1031 1.391 . S
C1031 H1019 0.950 . S
C1031 C1027 1.393 . S
C1031 C1030 1.391 . S
H1032 C1040 0.950 . S
H1033 C1045 0.950 . S
H1034 C1042 0.950 . S
H1035 C1044 0.950 . S
H1036 C1046 0.950 . S
H1037 C1048 0.950 . S
H1038 C1050 0.950 1_554 S
H1039 C1051 0.950 . S
C1040 H1032 0.950 . S
C1040 C1041 1.386 . S
C1040 C1042 1.391 . S
C1041 C1040 1.386 . S
C1041 C1045 1.393 . S
C1042 H1034 0.950 . S
C1042 C1040 1.391 . S
C1042 C1043 1.400 . S
C1043 C1042 1.400 . S
C1043 C1044 1.398 . S
C1043 C1049 1.491 . S
C1044 H1035 0.950 . S
C1044 C1043 1.398 . S
C1044 C1045 1.391 . S
C1045 H1033 0.950 . S
C1045 C1041 1.393 . S
C1045 C1044 1.391 . S
C1046 H1036 0.950 . S
C1046 C1047 1.386 . S
C1046 C1048 1.391 . S
C1047 C1046 1.386 . S
C1047 C1051 1.393 1_556 S
C1048 H1037 0.950 . S
C1048 C1046 1.391 . S
C1048 C1049 1.400 . S
C1049 C1043 1.491 . S
C1049 C1048 1.400 . S
C1049 C1050 1.398 . S
C1050 H1038 0.950 1_556 S
C1050 C1049 1.398 . S
C1050 C1051 1.391 1_556 S
C1051 H1039 0.950 . S
C1051 C1047 1.393 1_554 S
C1051 C1050 1.391 1_554 S
H1052 C1060 0.950 . S
H1053 C1065 0.950 . S
H1054 C1062 0.950 . S
H1055 C1064 0.950 . S
H1056 C1066 0.950 . S
H1057 C1068 0.950 . S
H1058 C1070 0.950 . S
H1059 C1071 0.950 . S
C1060 H1052 0.950 . S
C1060 C1061 1.386 . S
C1060 C1062 1.391 . S
C1061 C1060 1.386 . S
C1061 C1065 1.393 . S
C1062 H1054 0.950 . S
C1062 C1060 1.391 . S
C1062 C1063 1.400 . S
C1063 C1062 1.400 . S
C1063 C1064 1.398 . S
C1063 C1069 1.491 . S
C1064 H1055 0.950 . S
C1064 C1063 1.398 . S
C1064 C1065 1.391 . S
C1065 H1053 0.950 . S
C1065 C1061 1.393 . S
C1065 C1064 1.391 . S
C1066 H1056 0.950 . S
C1066 C1067 1.386 . S
C1066 C1068 1.391 . S
C1067 C1066 1.386 . S
C1067 C1071 1.393 . S
C1068 H1057 0.950 . S
C1068 C1066 1.391 . S
C1068 C1069 1.400 . S
C1069 C1063 1.491 . S
C1069 C1068 1.400 . S
C1069 C1070 1.398 . S
C1070 H1058 0.950 . S
C1070 C1069 1.398 . S
C1070 C1071 1.391 . S
C1071 H1059 0.950 . S
C1071 C1067 1.393 . S
C1071 C1070 1.391 . S
H1072 C1080 0.950 . S
H1073 C1085 0.950 . S
H1074 C1082 0.941 1_554 S
H1075 C1084 0.950 . S
H1076 C1086 0.950 . S
H1077 C1088 0.950 . S
H1078 C1090 0.958 . S
H1079 C1091 0.950 . S
C1080 H1072 0.950 . S
C1080 C1081 1.386 . S
C1080 C1082 1.391 . S
C1081 C1080 1.386 . S
C1081 C1085 1.393 . S
C1082 H1074 0.941 1_556 S
C1082 C1080 1.391 . S
C1082 C1083 1.400 . S
C1083 C1082 1.400 . S
C1083 C1084 1.398 . S
C1083 C1089 1.491 . S
C1084 H1075 0.950 . S
C1084 C1083 1.398 . S
C1084 C1085 1.391 . S
C1085 H1073 0.950 . S
C1085 C1081 1.393 . S
C1085 C1084 1.391 . S
C1086 H1076 0.950 . S
C1086 C1087 1.386 . S
C1086 C1088 1.391 . S
C1087 C1086 1.386 . S
C1087 C1091 1.393 1_556 S
C1088 H1077 0.950 . S
C1088 C1086 1.391 . S
C1088 C1089 1.400 . S
C1089 C1083 1.491 . S
C1089 C1088 1.400 . S
C1089 C1090 1.386 1_556 S
C1090 H1078 0.958 . S
C1090 C1089 1.386 1_554 S
C1090 C1091 1.395 . S
C1091 H1079 0.950 . S
C1091 C1087 1.393 1_554 S
C1091 C1090 1.395 . S
H1092 C1100 0.950 . S
H1093 C1105 0.950 . S
H1094 C1102 0.950 . S
H1095 C1104 0.950 . S
H1096 C1106 0.950 . S
H1097 C1108 0.936 1_554 S
H1098 C1110 0.950 . S
H1099 C1111 0.950 . S
C1100 H1092 0.950 . S
C1100 C1101 1.386 . S
C1100 C1102 1.391 . S
C1101 C1100 1.386 . S
C1101 C1105 1.393 . S
C1102 H1094 0.950 . S
C1102 C1100 1.391 . S
C1102 C1103 1.400 . S
C1103 C1102 1.400 . S
C1103 C1104 1.398 . S
C1103 C1109 1.491 . S
C1104 H1095 0.950 . S
C1104 C1103 1.398 . S
C1104 C1105 1.391 . S
C1105 H1093 0.950 . S
C1105 C1101 1.393 . S
C1105 C1104 1.391 . S
C1106 H1096 0.950 . S
C1106 C1107 1.386 1_554 S
C1106 C1108 1.383 1_554 S
C1107 C1106 1.386 1_556 S
C1107 C1111 1.393 . S
C1108 H1097 0.936 1_556 S
C1108 C1106 1.383 1_556 S
C1108 C1109 1.422 . S
C1109 C1103 1.491 . S
C1109 C1108 1.422 . S
C1109 C1110 1.398 . S
C1110 H1098 0.950 . S
C1110 C1109 1.398 . S
C1110 C1111 1.391 . S
C1111 H1099 0.950 . S
C1111 C1107 1.393 . S
C1111 C1110 1.391 . S
H1112 C1120 0.950 . S
H1113 C1125 0.950 . S
H1114 C1122 0.950 . S
H1115 C1124 0.950 1_554 S
H1116 C1126 0.950 . S
H1117 C1128 0.927 1_554 S
H1118 C1130 0.950 . S
H1119 C1131 0.950 . S
C1120 H1112 0.950 . S
C1120 C1121 1.386 . S
C1120 C1122 1.391 . S
C1121 C1120 1.386 . S
C1121 C1125 1.393 . S
C1122 H1114 0.950 . S
C1122 C1120 1.391 . S
C1122 C1123 1.400 . S
C1123 C1122 1.400 . S
C1123 C1124 1.398 . S
C1123 C1129 1.491 . S
C1124 H1115 0.950 1_556 S
C1124 C1123 1.398 . S
C1124 C1125 1.391 . S
C1125 H1113 0.950 . S
C1125 C1121 1.393 . S
C1125 C1124 1.391 . S
C1126 H1116 0.950 . S
C1126 C1127 1.386 1_554 S
C1126 C1128 1.382 1_554 S
C1127 C1126 1.386 1_556 S
C1127 C1131 1.393 . S
C1128 H1117 0.927 1_556 S
C1128 C1126 1.382 1_556 S
C1128 C1129 1.434 . S
C1129 C1123 1.491 . S
C1129 C1128 1.434 . S
C1129 C1130 1.398 . S
C1130 H1118 0.950 . S
C1130 C1129 1.398 . S
C1130 C1131 1.391 . S
C1131 H1119 0.950 . S
C1131 C1127 1.393 . S
C1131 C1130 1.391 . S
H1132 C1140 0.950 . S
H1133 C1145 0.950 . S
H1134 C1142 0.950 . S
H1135 C1144 0.950 . S
H1136 C1146 0.950 . S
H1137 C1148 0.950 . S
H1138 C1150 0.950 . S
H1139 C1151 0.961 . S
C1140 H1132 0.950 . S
C1140 C1141 1.386 . S
C1140 C1142 1.391 . S
C1141 C1140 1.386 . S
C1141 C1145 1.393 . S
C1142 H1134 0.950 . S
C1142 C1140 1.391 . S
C1142 C1143 1.400 . S
C1143 C1142 1.400 . S
C1143 C1144 1.398 . S
C1143 C1149 1.491 . S
C1144 H1135 0.950 . S
C1144 C1143 1.398 . S
C1144 C1145 1.391 . S
C1145 H1133 0.950 . S
C1145 C1141 1.393 . S
C1145 C1144 1.391 . S
C1146 H1136 0.950 . S
C1146 C1147 1.386 . S
C1146 C1148 1.391 . S
C1147 C1146 1.386 . S
C1147 C1151 1.388 1_556 S
C1148 H1137 0.950 . S
C1148 C1146 1.391 . S
C1148 C1149 1.400 . S
C1149 C1143 1.491 . S
C1149 C1148 1.400 . S
C1149 C1150 1.398 . S
C1150 H1138 0.950 . S
C1150 C1149 1.398 . S
C1150 C1151 1.385 1_556 S
C1151 H1139 0.961 . S
C1151 C1147 1.388 1_554 S
C1151 C1150 1.385 1_554 S
H1152 C1160 0.950 . S
H1153 C1165 0.950 . S
H1154 C1162 0.950 . S
H1155 C1164 0.950 . S
H1156 C1166 0.950 . S
H1157 C1168 0.950 . S
H1158 C1170 0.950 . S
H1159 C1171 0.950 . S
C1160 H1152 0.950 . S
C1160 C1161 1.386 . S
C1160 C1162 1.391 . S
C1161 C1160 1.386 . S
C1161 C1165 1.393 . S
C1162 H1154 0.950 . S
C1162 C1160 1.391 . S
C1162 C1163 1.400 . S
C1163 C1162 1.400 . S
C1163 C1164 1.398 . S
C1163 C1169 1.491 . S
C1164 H1155 0.950 . S
C1164 C1163 1.398 . S
C1164 C1165 1.391 . S
C1165 H1153 0.950 . S
C1165 C1161 1.393 . S
C1165 C1164 1.391 . S
C1166 H1156 0.950 . S
C1166 C1167 1.386 . S
C1166 C1168 1.391 . S
C1167 C1166 1.386 . S
C1167 C1171 1.393 . S
C1168 H1157 0.950 . S
C1168 C1166 1.391 . S
C1168 C1169 1.400 . S
C1169 C1163 1.491 . S
C1169 C1168 1.400 . S
C1169 C1170 1.398 . S
C1170 H1158 0.950 . S
C1170 C1169 1.398 . S
C1170 C1171 1.391 . S
C1171 H1159 0.950 . S
C1171 C1167 1.393 . S
C1171 C1170 1.391 . S
H1172 C1180 0.950 . S
H1173 C1185 0.950 . S
H1174 C1182 0.950 . S
H1175 C1184 0.950 . S
H1176 C1186 0.950 . S
H1177 C1188 0.950 . S
H1178 C1190 0.950 . S
H1179 C1191 0.950 . S
C1180 H1172 0.950 . S
C1180 C1181 1.386 . S
C1180 C1182 1.391 . S
C1181 C1180 1.386 . S
C1181 C1185 1.393 . S
C1182 H1174 0.950 . S
C1182 C1180 1.391 . S
C1182 C1183 1.400 . S
C1183 C1182 1.400 . S
C1183 C1184 1.398 . S
C1183 C1189 1.491 . S
C1184 H1175 0.950 . S
C1184 C1183 1.398 . S
C1184 C1185 1.391 . S
C1185 H1173 0.950 . S
C1185 C1181 1.393 . S
C1185 C1184 1.391 . S
C1186 H1176 0.950 . S
C1186 C1187 1.386 . S
C1186 C1188 1.391 . S
C1187 C1186 1.386 . S
C1187 C1191 1.393 . S
C1188 H1177 0.950 . S
C1188 C1186 1.391 . S
C1188 C1189 1.400 . S
C1189 C1183 1.491 . S
C1189 C1188 1.400 . S
C1189 C1190 1.398 . S
C1190 H1178 0.950 . S
C1190 C1189 1.398 . S
C1190 C1191 1.391 . S
C1191 H1179 0.950 . S
C1191 C1187 1.393 . S
C1191 C1190 1.391 . S
H1192 C1200 0.950 . S
H1193 C1205 0.950 . S
H1194 C1202 0.950 . S
H1195 C1204 0.950 . S
H1196 C1206 0.950 . S
H1197 C1208 0.950 . S
H1198 C1210 0.950 . S
H1199 C1211 0.950 . S
C1200 H1192 0.950 . S
C1200 C1201 1.386 . S
C1200 C1202 1.391 . S
C1201 C1200 1.386 . S
C1201 C1205 1.393 . S
C1202 H1194 0.950 . S
C1202 C1200 1.391 . S
C1202 C1203 1.400 . S
C1203 C1202 1.400 . S
C1203 C1204 1.398 . S
C1203 C1209 1.491 . S
C1204 H1195 0.950 . S
C1204 C1203 1.398 . S
C1204 C1205 1.391 . S
C1205 H1193 0.950 . S
C1205 C1201 1.393 . S
C1205 C1204 1.391 . S
C1206 H1196 0.950 . S
C1206 C1207 1.386 . S
C1206 C1208 1.391 . S
C1207 C1206 1.386 . S
C1207 C1211 1.393 . S
C1208 H1197 0.950 . S
C1208 C1206 1.391 . S
C1208 C1209 1.400 . S
C1209 C1203 1.491 . S
C1209 C1208 1.400 . S
C1209 C1210 1.398 . S
C1210 H1198 0.950 . S
C1210 C1209 1.398 . S
C1210 C1211 1.391 . S
C1211 H1199 0.950 . S
C1211 C1207 1.393 . S
C1211 C1210 1.391 . S
H1212 C1220 0.950 . S
H1213 C1225 0.950 . S
H1214 C1222 0.950 . S
H1215 C1224 0.950 1_455 S
H1216 C1226 0.950 . S
H1217 C1228 0.950 . S
H1218 C1230 0.950 . S
H1219 C1231 0.950 . S
C1220 H1212 0.950 . S
C1220 C1221 1.386 . S
C1220 C1222 1.391 . S
C1221 C1220 1.386 . S
C1221 C1225 1.393 . S
C1222 H1214 0.950 . S
C1222 C1220 1.391 . S
C1222 C1223 1.400 . S
C1223 C1222 1.400 . S
C1223 C1224 1.398 . S
C1223 C1229 1.491 1_655 S
C1224 H1215 0.950 1_655 S
C1224 C1223 1.398 . S
C1224 C1225 1.391 . S
C1225 H1213 0.950 . S
C1225 C1221 1.393 . S
C1225 C1224 1.391 . S
C1226 H1216 0.950 . S
C1226 C1227 1.386 . S
C1226 C1228 1.391 . S
C1227 C1226 1.386 . S
C1227 C1231 1.393 . S
C1228 H1217 0.950 . S
C1228 C1226 1.391 . S
C1228 C1229 1.400 . S
C1229 C1223 1.491 1_455 S
C1229 C1228 1.400 . S
C1229 C1230 1.398 . S
C1230 H1218 0.950 . S
C1230 C1229 1.398 . S
C1230 C1231 1.391 . S
C1231 H1219 0.950 . S
C1231 C1227 1.393 . S
C1231 C1230 1.391 . S
H1232 C1240 0.950 . S
H1233 C1245 0.950 . S
H1234 C1242 0.950 . S
H1235 C1244 0.950 . S
H1236 C1246 0.950 . S
H1237 C1248 0.950 . S
H1238 C1250 0.950 . S
H1239 C1251 0.950 . S
C1240 H1232 0.950 . S
C1240 C1241 1.386 . S
C1240 C1242 1.391 . S
C1241 C1240 1.386 . S
C1241 C1245 1.393 . S
C1242 H1234 0.950 . S
C1242 C1240 1.391 . S
C1242 C1243 1.400 . S
C1243 C1242 1.400 . S
C1243 C1244 1.398 . S
C1243 C1249 1.491 . S
C1244 H1235 0.950 . S
C1244 C1243 1.398 . S
C1244 C1245 1.391 . S
C1245 H1233 0.950 . S
C1245 C1241 1.393 . S
C1245 C1244 1.391 . S
C1246 H1236 0.950 . S
C1246 C1247 1.386 . S
C1246 C1248 1.391 . S
C1247 C1246 1.386 . S
C1247 C1251 1.393 . S
C1248 H1237 0.950 . S
C1248 C1246 1.391 . S
C1248 C1249 1.400 . S
C1249 C1243 1.491 . S
C1249 C1248 1.400 . S
C1249 C1250 1.398 . S
C1250 H1238 0.950 . S
C1250 C1249 1.398 . S
C1250 C1251 1.391 . S
C1251 H1239 0.950 . S
C1251 C1247 1.393 . S
C1251 C1250 1.391 . S
H1252 C1260 0.950 . S
H1253 C1265 0.950 . S
H1254 C1262 0.950 . S
H1255 C1264 0.950 . S
H1256 C1266 0.950 . S
H1257 C1268 0.950 1_545 S
H1258 C1270 0.950 . S
H1259 C1271 0.950 . S
C1260 H1252 0.950 . S
C1260 C1261 1.386 . S
C1260 C1262 1.391 . S
C1261 C1260 1.386 . S
C1261 C1265 1.393 . S
C1262 H1254 0.950 . S
C1262 C1260 1.391 . S
C1262 C1263 1.400 . S
C1263 C1262 1.400 . S
C1263 C1264 1.398 . S
C1263 C1269 1.491 1_545 S
C1264 H1255 0.950 . S
C1264 C1263 1.398 . S
C1264 C1265 1.391 . S
C1265 H1253 0.950 . S
C1265 C1261 1.393 . S
C1265 C1264 1.391 . S
C1266 H1256 0.950 . S
C1266 C1267 1.386 . S
C1266 C1268 1.391 . S
C1267 C1266 1.386 . S
C1267 C1271 1.393 . S
C1268 H1257 0.950 1_565 S
C1268 C1266 1.391 . S
C1268 C1269 1.400 . S
C1269 C1263 1.491 1_565 S
C1269 C1268 1.400 . S
C1269 C1270 1.398 . S
C1270 H1258 0.950 . S
C1270 C1269 1.398 . S
C1270 C1271 1.391 . S
C1271 H1259 0.950 . S
C1271 C1267 1.393 . S
C1271 C1270 1.391 . S
H1272 C1280 0.950 . S
H1273 C1285 0.950 . S
H1274 C1282 0.950 . S
H1275 C1284 0.950 . S
H1276 C1286 0.950 . S
H1277 C1288 0.950 . S
H1278 C1290 0.950 . S
H1279 C1291 0.950 . S
C1280 H1272 0.950 . S
C1280 C1281 1.386 . S
C1280 C1282 1.391 . S
C1281 C1280 1.386 . S
C1281 C1285 1.393 . S
C1282 H1274 0.950 . S
C1282 C1280 1.391 . S
C1282 C1283 1.400 . S
C1283 C1282 1.400 . S
C1283 C1284 1.398 . S
C1283 C1289 1.491 . S
C1284 H1275 0.950 . S
C1284 C1283 1.398 . S
C1284 C1285 1.391 . S
C1285 H1273 0.950 . S
C1285 C1281 1.393 . S
C1285 C1284 1.391 . S
C1286 H1276 0.950 . S
C1286 C1287 1.386 . S
C1286 C1288 1.391 . S
C1287 C1286 1.386 . S
C1287 C1291 1.393 . S
C1288 H1277 0.950 . S
C1288 C1286 1.391 . S
C1288 C1289 1.400 . S
C1289 C1283 1.491 . S
C1289 C1288 1.400 . S
C1289 C1290 1.398 . S
C1290 H1278 0.950 . S
C1290 C1289 1.398 . S
C1290 C1291 1.391 . S
C1291 H1279 0.950 . S
C1291 C1287 1.393 . S
C1291 C1290 1.391 . S
H1292 C1300 0.950 . S
H1293 C1305 0.950 . S
H1294 C1302 0.950 . S
H1295 C1304 0.950 . S
H1296 C1306 0.950 . S
H1297 C1308 0.950 . S
H1298 C1310 0.950 . S
H1299 C1311 0.950 . S
C1300 H1292 0.950 . S
C1300 C1301 1.386 . S
C1300 C1302 1.391 . S
C1301 C1300 1.386 . S
C1301 C1305 1.393 . S
C1302 H1294 0.950 . S
C1302 C1300 1.391 . S
C1302 C1303 1.400 . S
C1303 C1302 1.400 . S
C1303 C1304 1.398 . S
C1303 C1309 1.491 . S
C1304 H1295 0.950 . S
C1304 C1303 1.398 . S
C1304 C1305 1.391 . S
C1305 H1293 0.950 . S
C1305 C1301 1.393 . S
C1305 C1304 1.391 . S
C1306 H1296 0.950 . S
C1306 C1307 1.386 . S
C1306 C1308 1.391 . S
C1307 C1306 1.386 . S
C1307 C1311 1.393 . S
C1308 H1297 0.950 . S
C1308 C1306 1.391 . S
C1308 C1309 1.400 . S
C1309 C1303 1.491 . S
C1309 C1308 1.400 . S
C1309 C1310 1.398 . S
C1310 H1298 0.950 . S
C1310 C1309 1.398 . S
C1310 C1311 1.391 . S
C1311 H1299 0.950 . S
C1311 C1307 1.393 . S
C1311 C1310 1.391 . S
H1312 C1320 0.950 . S
H1313 C1325 0.950 . S
H1314 C1322 0.950 . S
H1315 C1324 0.950 . S
H1316 C1326 0.950 . S
H1317 C1328 0.950 . S
H1318 C1330 0.950 . S
H1319 C1331 0.950 . S
C1320 H1312 0.950 . S
C1320 C1321 1.386 . S
C1320 C1322 1.391 . S
C1321 C1320 1.386 . S
C1321 C1325 1.393 . S
C1322 H1314 0.950 . S
C1322 C1320 1.391 . S
C1322 C1323 1.400 . S
C1323 C1322 1.400 . S
C1323 C1324 1.398 . S
C1323 C1329 1.491 . S
C1324 H1315 0.950 . S
C1324 C1323 1.398 . S
C1324 C1325 1.391 . S
C1325 H1313 0.950 . S
C1325 C1321 1.393 . S
C1325 C1324 1.391 . S
C1326 H1316 0.950 . S
C1326 C1327 1.386 . S
C1326 C1328 1.391 . S
C1327 C1326 1.386 . S
C1327 C1331 1.393 . S
C1328 H1317 0.950 . S
C1328 C1326 1.391 . S
C1328 C1329 1.400 . S
C1329 C1323 1.491 . S
C1329 C1328 1.400 . S
C1329 C1330 1.398 . S
C1330 H1318 0.950 . S
C1330 C1329 1.398 . S
C1330 C1331 1.391 . S
C1331 H1319 0.950 . S
C1331 C1327 1.393 . S
C1331 C1330 1.391 . S
H1332 C1340 0.950 . S
H1333 C1345 0.950 . S
H1334 C1342 0.950 . S
H1335 C1344 0.950 . S
H1336 C1346 0.950 . S
H1337 C1348 0.950 . S
H1338 C1350 0.950 . S
H1339 C1351 0.950 . S
C1340 H1332 0.950 . S
C1340 C1341 1.386 . S
C1340 C1342 1.391 . S
C1341 C1340 1.386 . S
C1341 C1345 1.393 . S
C1342 H1334 0.950 . S
C1342 C1340 1.391 . S
C1342 C1343 1.400 . S
C1343 C1342 1.400 . S
C1343 C1344 1.398 . S
C1343 C1349 1.491 . S
C1344 H1335 0.950 . S
C1344 C1343 1.398 . S
C1344 C1345 1.391 . S
C1345 H1333 0.950 . S
C1345 C1341 1.393 . S
C1345 C1344 1.391 . S
C1346 H1336 0.950 . S
C1346 C1347 1.386 . S
C1346 C1348 1.391 . S
C1347 C1346 1.386 . S
C1347 C1351 1.393 . S
C1348 H1337 0.950 . S
C1348 C1346 1.391 . S
C1348 C1349 1.400 . S
C1349 C1343 1.491 . S
C1349 C1348 1.400 . S
C1349 C1350 1.398 . S
C1350 H1338 0.950 . S
C1350 C1349 1.398 . S
C1350 C1351 1.391 . S
C1351 H1339 0.950 . S
C1351 C1347 1.393 . S
C1351 C1350 1.391 . S
H1352 C1360 0.950 . S
H1353 C1365 0.950 . S
H1354 C1362 0.950 . S
H1355 C1364 0.950 . S
H1356 C1366 0.950 . S
H1357 C1368 0.950 . S
H1358 C1370 0.950 . S
H1359 C1371 0.950 . S
C1360 H1352 0.950 . S
C1360 C1361 1.386 . S
C1360 C1362 1.391 . S
C1361 C1360 1.386 . S
C1361 C1365 1.393 . S
C1362 H1354 0.950 . S
C1362 C1360 1.391 . S
C1362 C1363 1.400 . S
C1363 C1362 1.400 . S
C1363 C1364 1.398 . S
C1363 C1369 1.491 . S
C1364 H1355 0.950 . S
C1364 C1363 1.398 . S
C1364 C1365 1.391 . S
C1365 H1353 0.950 . S
C1365 C1361 1.393 . S
C1365 C1364 1.391 . S
C1366 H1356 0.950 . S
C1366 C1367 1.386 . S
C1366 C1368 1.391 . S
C1367 C1366 1.386 . S
C1367 C1371 1.393 . S
C1368 H1357 0.950 . S
C1368 C1366 1.391 . S
C1368 C1369 1.400 . S
C1369 C1363 1.491 . S
C1369 C1368 1.400 . S
C1369 C1370 1.398 . S
C1370 H1358 0.950 . S
C1370 C1369 1.398 . S
C1370 C1371 1.391 . S
C1371 H1359 0.950 . S
C1371 C1367 1.393 . S
C1371 C1370 1.391 . S
H1372 C1380 0.950 . S
H1373 C1385 0.950 . S
H1374 C1382 0.950 . S
H1375 C1384 0.950 . S
H1376 C1386 0.950 . S
H1377 C1388 0.950 . S
H1378 C1390 0.950 . S
H1379 C1391 0.950 . S
C1380 H1372 0.950 . S
C1380 C1381 1.386 . S
C1380 C1382 1.391 . S
C1381 C1380 1.386 . S
C1381 C1385 1.393 . S
C1382 H1374 0.950 . S
C1382 C1380 1.391 . S
C1382 C1383 1.400 . S
C1383 C1382 1.400 . S
C1383 C1384 1.398 . S
C1383 C1389 1.491 . S
C1384 H1375 0.950 . S
C1384 C1383 1.398 . S
C1384 C1385 1.391 . S
C1385 H1373 0.950 . S
C1385 C1381 1.393 . S
C1385 C1384 1.391 . S
C1386 H1376 0.950 . S
C1386 C1387 1.386 . S
C1386 C1388 1.391 . S
C1387 C1386 1.386 . S
C1387 C1391 1.393 . S
C1388 H1377 0.950 . S
C1388 C1386 1.391 . S
C1388 C1389 1.400 . S
C1389 C1383 1.491 . S
C1389 C1388 1.400 . S
C1389 C1390 1.398 . S
C1390 H1378 0.950 . S
C1390 C1389 1.398 . S
C1390 C1391 1.391 . S
C1391 H1379 0.950 . S
C1391 C1387 1.393 . S
C1391 C1390 1.391 . S
H1392 C1400 0.950 . S
H1393 C1405 0.950 . S
H1394 C1402 0.950 . S
H1395 C1404 0.950 . S
H1396 C1406 0.950 . S
H1397 C1408 0.950 . S
H1398 C1410 0.950 . S
H1399 C1411 0.950 . S
C1400 H1392 0.950 . S
C1400 C1401 1.386 . S
C1400 C1402 1.391 1_545 S
C1401 C1400 1.386 . S
C1401 C1405 1.393 . S
C1402 H1394 0.950 . S
C1402 C1400 1.391 1_565 S
C1402 C1403 1.400 . S
C1403 C1402 1.400 . S
C1403 C1404 1.398 . S
C1403 C1409 1.491 . S
C1404 H1395 0.950 . S
C1404 C1403 1.398 . S
C1404 C1405 1.391 1_565 S
C1405 H1393 0.950 . S
C1405 C1401 1.393 . S
C1405 C1404 1.391 1_545 S
C1406 H1396 0.950 . S
C1406 C1407 1.386 . S
C1406 C1408 1.391 . S
C1407 C1406 1.386 . S
C1407 C1411 1.393 . S
C1408 H1397 0.950 . S
C1408 C1406 1.391 . S
C1408 C1409 1.400 . S
C1409 C1403 1.491 . S
C1409 C1408 1.400 . S
C1409 C1410 1.398 . S
C1410 H1398 0.950 . S
C1410 C1409 1.398 . S
C1410 C1411 1.391 . S
C1411 H1399 0.950 . S
C1411 C1407 1.393 . S
C1411 C1410 1.391 . S
H1412 C1420 0.950 . S
H1413 C1425 0.946 1_655 S
H1414 C1422 0.950 . S
H1415 C1424 0.950 . S
H1416 C1426 0.950 . S
H1417 C1428 0.950 . S
H1418 C1430 0.950 . S
H1419 C1431 0.950 . S
C1420 H1412 0.950 . S
C1420 C1421 1.386 1_455 S
C1420 C1422 1.391 . S
C1421 C1420 1.386 1_655 S
C1421 C1425 1.389 1_655 S
C1422 H1414 0.950 . S
C1422 C1420 1.391 . S
C1422 C1423 1.400 . S
C1423 C1422 1.400 . S
C1423 C1424 1.398 . S
C1423 C1429 1.491 . S
C1424 H1415 0.950 . S
C1424 C1423 1.398 . S
C1424 C1425 1.397 . S
C1425 H1413 0.946 1_455 S
C1425 C1421 1.389 1_455 S
C1425 C1424 1.397 . S
C1426 H1416 0.950 . S
C1426 C1427 1.386 . S
C1426 C1428 1.391 . S
C1427 C1426 1.386 . S
C1427 C1431 1.393 . S
C1428 H1417 0.950 . S
C1428 C1426 1.391 . S
C1428 C1429 1.400 . S
C1429 C1423 1.491 . S
C1429 C1428 1.400 . S
C1429 C1430 1.398 . S
C1430 H1418 0.950 . S
C1430 C1429 1.398 . S
C1430 C1431 1.391 . S
C1431 H1419 0.950 . S
C1431 C1427 1.393 . S
C1431 C1430 1.391 . S
H1432 C1440 0.950 . S
H1433 C1445 0.950 . S
H1434 C1442 0.950 . S
H1435 C1444 0.950 . S
H1436 C1446 0.950 . S
H1437 C1448 0.950 . S
H1438 C1450 0.950 . S
H1439 C1451 0.950 . S
C1440 H1432 0.950 . S
C1440 C1441 1.386 . S
C1440 C1442 1.391 . S
C1441 C1440 1.386 . S
C1441 C1445 1.393 . S
C1442 H1434 0.950 . S
C1442 C1440 1.391 . S
C1442 C1443 1.400 . S
C1443 C1442 1.400 . S
C1443 C1444 1.398 . S
C1443 C1449 1.491 . S
C1444 H1435 0.950 . S
C1444 C1443 1.398 . S
C1444 C1445 1.391 . S
C1445 H1433 0.950 . S
C1445 C1441 1.393 . S
C1445 C1444 1.391 . S
C1446 H1436 0.950 . S
C1446 C1447 1.386 . S
C1446 C1448 1.391 . S
C1447 C1446 1.386 . S
C1447 C1451 1.393 . S
C1448 H1437 0.950 . S
C1448 C1446 1.391 . S
C1448 C1449 1.400 . S
C1449 C1443 1.491 . S
C1449 C1448 1.400 . S
C1449 C1450 1.398 . S
C1450 H1438 0.950 . S
C1450 C1449 1.398 . S
C1450 C1451 1.391 . S
C1451 H1439 0.950 . S
C1451 C1447 1.393 . S
C1451 C1450 1.391 . S
H1452 C1460 0.950 . S
H1453 C1465 0.950 . S
H1454 C1462 0.950 . S
H1455 C1464 0.950 . S
H1456 C1466 0.950 . S
H1457 C1468 0.950 . S
H1458 C1470 0.950 . S
H1459 C1471 0.950 . S
C1460 H1452 0.950 . S
C1460 C1461 1.386 . S
C1460 C1462 1.391 . S
C1461 C1460 1.386 . S
C1461 C1465 1.393 . S
C1462 H1454 0.950 . S
C1462 C1460 1.391 . S
C1462 C1463 1.400 . S
C1463 C1462 1.400 . S
C1463 C1464 1.398 . S
C1463 C1469 1.491 . S
C1464 H1455 0.950 . S
C1464 C1463 1.398 . S
C1464 C1465 1.391 . S
C1465 H1453 0.950 . S
C1465 C1461 1.393 . S
C1465 C1464 1.391 . S
C1466 H1456 0.950 . S
C1466 C1467 1.386 . S
C1466 C1468 1.391 . S
C1467 C1466 1.386 . S
C1467 C1471 1.393 . S
C1468 H1457 0.950 . S
C1468 C1466 1.391 . S
C1468 C1469 1.400 . S
C1469 C1463 1.491 . S
C1469 C1468 1.400 . S
C1469 C1470 1.398 . S
C1470 H1458 0.950 . S
C1470 C1469 1.398 . S
C1470 C1471 1.391 . S
C1471 H1459 0.950 . S
C1471 C1467 1.393 . S
C1471 C1470 1.391 . S
H1472 C1480 0.950 . S
H1473 C1485 0.950 . S
H1474 C1482 0.950 . S
H1475 C1484 0.950 . S
H1476 C1486 0.950 . S
H1477 C1488 0.950 . S
H1478 C1490 0.950 . S
H1479 C1491 0.950 . S
C1480 H1472 0.950 . S
C1480 C1481 1.386 . S
C1480 C1482 1.391 . S
C1481 C1480 1.386 . S
C1481 C1485 1.393 . S
C1482 H1474 0.950 . S
C1482 C1480 1.391 . S
C1482 C1483 1.400 . S
C1483 C1482 1.400 . S
C1483 C1484 1.398 . S
C1483 C1489 1.491 . S
C1484 H1475 0.950 . S
C1484 C1483 1.398 . S
C1484 C1485 1.391 . S
C1485 H1473 0.950 . S
C1485 C1481 1.393 . S
C1485 C1484 1.391 . S
C1486 H1476 0.950 . S
C1486 C1487 1.386 . S
C1486 C1488 1.391 . S
C1487 C1486 1.386 . S
C1487 C1491 1.393 . S
C1488 H1477 0.950 . S
C1488 C1486 1.391 . S
C1488 C1489 1.400 . S
C1489 C1483 1.491 . S
C1489 C1488 1.400 . S
C1489 C1490 1.398 . S
C1490 H1478 0.950 . S
C1490 C1489 1.398 . S
C1490 C1491 1.391 . S
C1491 H1479 0.950 . S
C1491 C1487 1.393 . S
C1491 C1490 1.391 . S
H1492 C1500 0.950 . S
H1493 C1505 0.950 . S
H1494 C1502 0.950 . S
H1495 C1504 0.950 . S
H1496 C1506 0.950 . S
H1497 C1508 0.950 . S
H1498 C1510 0.950 . S
H1499 C1511 0.950 . S
C1500 H1492 0.950 . S
C1500 C1501 1.386 . S
C1500 C1502 1.391 . S
C1501 C1500 1.386 . S
C1501 C1505 1.393 . S
C1502 H1494 0.950 . S
C1502 C1500 1.391 . S
C1502 C1503 1.400 . S
C1503 C1502 1.400 . S
C1503 C1504 1.398 . S
C1503 C1509 1.491 . S
C1504 H1495 0.950 . S
C1504 C1503 1.398 . S
C1504 C1505 1.391 . S
C1505 H1493 0.950 . S
C1505 C1501 1.393 . S
C1505 C1504 1.391 . S
C1506 H1496 0.950 . S
C1506 C1507 1.386 . S
C1506 C1508 1.391 . S
C1507 C1506 1.386 . S
C1507 C1511 1.393 . S
C1508 H1497 0.950 . S
C1508 C1506 1.391 . S
C1508 C1509 1.400 . S
C1509 C1503 1.491 . S
C1509 C1508 1.400 . S
C1509 C1510 1.398 . S
C1510 H1498 0.950 . S
C1510 C1509 1.398 . S
C1510 C1511 1.391 . S
C1511 H1499 0.950 . S
C1511 C1507 1.393 . S
C1511 C1510 1.391 . S
H1512 C1520 0.950 . S
H1513 C1525 0.950 . S
H1514 C1522 0.938 1_545 S
H1515 C1524 0.950 . S
H1516 C1526 0.950 . S
H1517 C1528 0.950 . S
H1518 C1530 0.950 . S
H1519 C1531 0.950 . S
C1520 H1512 0.950 . S
C1520 C1521 1.386 . S
C1520 C1522 1.391 . S
C1521 C1520 1.386 . S
C1521 C1525 1.393 . S
C1522 H1514 0.938 1_565 S
C1522 C1520 1.391 . S
C1522 C1523 1.400 . S
C1523 C1522 1.400 . S
C1523 C1524 1.398 . S
C1523 C1529 1.491 1_565 S
C1524 H1515 0.950 . S
C1524 C1523 1.398 . S
C1524 C1525 1.391 . S
C1525 H1513 0.950 . S
C1525 C1521 1.393 . S
C1525 C1524 1.391 . S
C1526 H1516 0.950 . S
C1526 C1527 1.386 . S
C1526 C1528 1.391 . S
C1527 C1526 1.386 . S
C1527 C1531 1.393 . S
C1528 H1517 0.950 . S
C1528 C1526 1.391 . S
C1528 C1529 1.400 . S
C1529 C1523 1.491 1_545 S
C1529 C1528 1.400 . S
C1529 C1530 1.398 . S
C1530 H1518 0.950 . S
C1530 C1529 1.398 . S
C1530 C1531 1.391 . S
C1531 H1519 0.950 . S
C1531 C1527 1.393 . S
C1531 C1530 1.391 . S
H1532 C1540 0.950 . S
H1533 C1545 0.950 . S
H1534 C1542 0.950 1_655 S
H1535 C1544 0.950 . S
H1536 C1546 0.950 . S
H1537 C1548 0.950 1_455 S
H1538 C1550 0.950 . S
H1539 C1551 0.950 . S
C1540 H1532 0.950 . S
C1540 C1541 1.386 . S
C1540 C1542 1.391 . S
C1541 C1540 1.386 . S
C1541 C1545 1.393 . S
C1542 H1534 0.950 1_455 S
C1542 C1540 1.391 . S
C1542 C1543 1.400 . S
C1543 C1542 1.400 . S
C1543 C1544 1.398 . S
C1543 C1549 1.491 1_455 S
C1544 H1535 0.950 . S
C1544 C1543 1.398 . S
C1544 C1545 1.391 . S
C1545 H1533 0.950 . S
C1545 C1541 1.393 . S
C1545 C1544 1.391 . S
C1546 H1536 0.950 . S
C1546 C1547 1.386 . S
C1546 C1548 1.391 . S
C1547 C1546 1.386 . S
C1547 C1551 1.393 . S
C1548 H1537 0.950 1_655 S
C1548 C1546 1.391 . S
C1548 C1549 1.400 . S
C1549 C1543 1.491 1_655 S
C1549 C1548 1.400 . S
C1549 C1550 1.398 . S
C1550 H1538 0.950 . S
C1550 C1549 1.398 . S
C1550 C1551 1.391 . S
C1551 H1539 0.950 . S
C1551 C1547 1.393 . S
C1551 C1550 1.391 . S
H1552 C1560 0.950 . S
H1553 C1565 0.950 . S
H1554 C1562 0.950 . S
H1555 C1564 0.950 . S
H1556 C1566 0.950 . S
H1557 C1568 0.950 . S
H1558 C1570 0.950 . S
H1559 C1571 0.950 . S
C1560 H1552 0.950 . S
C1560 C1561 1.386 . S
C1560 C1562 1.391 . S
C1561 C1560 1.386 . S
C1561 C1565 1.393 . S
C1562 H1554 0.950 . S
C1562 C1560 1.391 . S
C1562 C1563 1.400 . S
C1563 C1562 1.400 . S
C1563 C1564 1.398 . S
C1563 C1569 1.491 . S
C1564 H1555 0.950 . S
C1564 C1563 1.398 . S
C1564 C1565 1.391 . S
C1565 H1553 0.950 . S
C1565 C1561 1.393 . S
C1565 C1564 1.391 . S
C1566 H1556 0.950 . S
C1566 C1567 1.386 . S
C1566 C1568 1.391 . S
C1567 C1566 1.386 . S
C1567 C1571 1.393 . S
C1568 H1557 0.950 . S
C1568 C1566 1.391 . S
C1568 C1569 1.400 . S
C1569 C1563 1.491 . S
C1569 C1568 1.400 . S
C1569 C1570 1.398 . S
C1570 H1558 0.950 . S
C1570 C1569 1.398 . S
C1570 C1571 1.391 . S
C1571 H1559 0.950 . S
C1571 C1567 1.393 . S
C1571 C1570 1.391 . S
H1572 C1580 0.950 . S
H1573 C1585 0.950 . S
H1574 C1582 0.950 . S
H1575 C1584 0.950 . S
H1576 C1586 0.950 . S
H1577 C1588 0.950 . S
H1578 C1590 0.950 . S
H1579 C1591 0.950 . S
C1580 H1572 0.950 . S
C1580 C1581 1.386 . S
C1580 C1582 1.391 1_455 S
C1581 C1580 1.386 . S
C1581 C1585 1.393 . S
C1582 H1574 0.950 . S
C1582 C1580 1.391 1_655 S
C1582 C1583 1.400 . S
C1583 C1582 1.400 . S
C1583 C1584 1.398 . S
C1583 C1589 1.491 . S
C1584 H1575 0.950 . S
C1584 C1583 1.398 . S
C1584 C1585 1.391 1_655 S
C1585 H1573 0.950 . S
C1585 C1581 1.393 . S
C1585 C1584 1.391 1_455 S
C1586 H1576 0.950 . S
C1586 C1587 1.386 . S
C1586 C1588 1.391 . S
C1587 C1586 1.386 . S
C1587 C1591 1.393 . S
C1588 H1577 0.950 . S
C1588 C1586 1.391 . S
C1588 C1589 1.400 . S
C1589 C1583 1.491 . S
C1589 C1588 1.400 . S
C1589 C1590 1.398 . S
C1590 H1578 0.950 . S
C1590 C1589 1.398 . S
C1590 C1591 1.391 . S
C1591 H1579 0.950 . S
C1591 C1587 1.393 . S
C1591 C1590 1.391 . S
H1592 C1600 0.950 . S
H1593 C1605 0.950 . S
H1594 C1602 0.950 . S
H1595 C1604 0.950 . S
H1596 C1606 0.950 . S
H1597 C1608 0.950 . S
H1598 C1610 0.950 . S
H1599 C1611 0.950 . S
C1600 H1592 0.950 . S
C1600 C1601 1.386 . S
C1600 C1602 1.391 . S
C1601 C1600 1.386 . S
C1601 C1605 1.393 . S
C1602 H1594 0.950 . S
C1602 C1600 1.391 . S
C1602 C1603 1.400 . S
C1603 C1602 1.400 . S
C1603 C1604 1.398 . S
C1603 C1609 1.491 . S
C1604 H1595 0.950 . S
C1604 C1603 1.398 . S
C1604 C1605 1.391 . S
C1605 H1593 0.950 . S
C1605 C1601 1.393 . S
C1605 C1604 1.391 . S
C1606 H1596 0.950 . S
C1606 C1607 1.386 . S
C1606 C1608 1.391 . S
C1607 C1606 1.386 . S
C1607 C1611 1.393 . S
C1608 H1597 0.950 . S
C1608 C1606 1.391 . S
C1608 C1609 1.400 . S
C1609 C1603 1.491 . S
C1609 C1608 1.400 . S
C1609 C1610 1.398 . S
C1610 H1598 0.950 . S
C1610 C1609 1.398 . S
C1610 C1611 1.391 . S
C1611 H1599 0.950 . S
C1611 C1607 1.393 . S
C1611 C1610 1.391 . S
H1612 C1620 0.952 . S
H1613 C1625 0.950 1_565 S
H1614 C1622 0.950 . S
H1615 C1624 0.950 . S
H1616 C1626 0.950 . S
H1617 C1628 0.950 . S
H1618 C1630 0.950 . S
H1619 C1631 0.950 . S
C1620 H1612 0.952 . S
C1620 C1621 1.386 . S
C1620 C1622 1.388 1_565 S
C1621 C1620 1.386 . S
C1621 C1625 1.393 1_565 S
C1622 H1614 0.950 . S
C1622 C1620 1.388 1_545 S
C1622 C1623 1.400 . S
C1623 C1622 1.400 . S
C1623 C1624 1.398 . S
C1623 C1629 1.491 . S
C1624 H1615 0.950 . S
C1624 C1623 1.398 . S
C1624 C1625 1.391 . S
C1625 H1613 0.950 1_545 S
C1625 C1621 1.393 1_545 S
C1625 C1624 1.391 . S
C1626 H1616 0.950 . S
C1626 C1627 1.386 . S
C1626 C1628 1.391 . S
C1627 C1626 1.386 . S
C1627 C1631 1.393 . S
C1628 H1617 0.950 . S
C1628 C1626 1.391 . S
C1628 C1629 1.400 . S
C1629 C1623 1.491 . S
C1629 C1628 1.400 . S
C1629 C1630 1.398 . S
C1630 H1618 0.950 . S
C1630 C1629 1.398 . S
C1630 C1631 1.391 . S
C1631 H1619 0.950 . S
C1631 C1627 1.393 . S
C1631 C1630 1.391 . S
H1632 C1640 0.950 . S
H1633 C1645 0.950 . S
H1634 C1642 0.950 . S
H1635 C1644 0.950 . S
H1636 C1646 0.950 . S
H1637 C1648 0.950 . S
H1638 C1650 0.950 . S
H1639 C1651 0.950 . S
C1640 H1632 0.950 . S
C1640 C1641 1.386 . S
C1640 C1642 1.391 . S
C1641 C1640 1.386 . S
C1641 C1645 1.393 . S
C1642 H1634 0.950 . S
C1642 C1640 1.391 . S
C1642 C1643 1.400 . S
C1643 C1642 1.400 . S
C1643 C1644 1.398 . S
C1643 C1649 1.491 . S
C1644 H1635 0.950 . S
C1644 C1643 1.398 . S
C1644 C1645 1.391 . S
C1645 H1633 0.950 . S
C1645 C1641 1.393 . S
C1645 C1644 1.391 . S
C1646 H1636 0.950 . S
C1646 C1647 1.386 . S
C1646 C1648 1.391 . S
C1647 C1646 1.386 . S
C1647 C1651 1.393 . S
C1648 H1637 0.950 . S
C1648 C1646 1.391 . S
C1648 C1649 1.400 . S
C1649 C1643 1.491 . S
C1649 C1648 1.400 . S
C1649 C1650 1.398 . S
C1650 H1638 0.950 . S
C1650 C1649 1.398 . S
C1650 C1651 1.391 . S
C1651 H1639 0.950 . S
C1651 C1647 1.393 . S
C1651 C1650 1.391 . S
H1652 C1660 0.950 . S
H1653 C1665 0.950 . S
H1654 C1662 0.950 . S
H1655 C1664 0.950 . S
H1656 C1666 0.950 . S
H1657 C1668 0.950 . S
H1658 C1670 0.950 . S
H1659 C1671 0.950 . S
C1660 H1652 0.950 . S
C1660 C1661 1.386 . S
C1660 C1662 1.391 . S
C1661 C1660 1.386 . S
C1661 C1665 1.393 . S
C1662 H1654 0.950 . S
C1662 C1660 1.391 . S
C1662 C1663 1.400 . S
C1663 C1662 1.400 . S
C1663 C1664 1.398 . S
C1663 C1669 1.491 . S
C1664 H1655 0.950 . S
C1664 C1663 1.398 . S
C1664 C1665 1.391 . S
C1665 H1653 0.950 . S
C1665 C1661 1.393 . S
C1665 C1664 1.391 . S
C1666 H1656 0.950 . S
C1666 C1667 1.386 . S
C1666 C1668 1.391 . S
C1667 C1666 1.386 . S
C1667 C1671 1.393 . S
C1668 H1657 0.950 . S
C1668 C1666 1.391 . S
C1668 C1669 1.400 . S
C1669 C1663 1.491 . S
C1669 C1668 1.400 . S
C1669 C1670 1.398 . S
C1670 H1658 0.950 . S
C1670 C1669 1.398 . S
C1670 C1671 1.391 . S
C1671 H1659 0.950 . S
C1671 C1667 1.393 . S
C1671 C1670 1.391 . S
H1672 C1680 0.950 . S
H1673 C1685 0.950 . S
H1674 C1682 0.950 . S
H1675 C1684 0.950 . S
H1676 C1686 0.950 . S
H1677 C1688 0.950 . S
H1678 C1690 0.950 . S
H1679 C1691 0.950 . S
C1680 H1672 0.950 . S
C1680 C1681 1.386 . S
C1680 C1682 1.391 . S
C1681 C1680 1.386 . S
C1681 C1685 1.393 . S
C1682 H1674 0.950 . S
C1682 C1680 1.391 . S
C1682 C1683 1.400 . S
C1683 C1682 1.400 . S
C1683 C1684 1.398 . S
C1683 C1689 1.491 . S
C1684 H1675 0.950 . S
C1684 C1683 1.398 . S
C1684 C1685 1.391 . S
C1685 H1673 0.950 . S
C1685 C1681 1.393 . S
C1685 C1684 1.391 . S
C1686 H1676 0.950 . S
C1686 C1687 1.386 . S
C1686 C1688 1.391 . S
C1687 C1686 1.386 . S
C1687 C1691 1.393 . S
C1688 H1677 0.950 . S
C1688 C1686 1.391 . S
C1688 C1689 1.400 . S
C1689 C1683 1.491 . S
C1689 C1688 1.400 . S
C1689 C1690 1.398 . S
C1690 H1678 0.950 . S
C1690 C1689 1.398 . S
C1690 C1691 1.391 . S
C1691 H1679 0.950 . S
C1691 C1687 1.393 . S
C1691 C1690 1.391 . S
H1692 C1700 0.950 . S
H1693 C1705 0.950 . S
H1694 C1702 0.950 . S
H1695 C1704 0.950 . S
H1696 C1706 0.950 . S
H1697 C1708 0.950 . S
H1698 C1710 0.950 . S
H1699 C1711 0.950 . S
C1700 H1692 0.950 . S
C1700 C1701 1.386 . S
C1700 C1702 1.391 . S
C1701 C1700 1.386 . S
C1701 C1705 1.393 . S
C1702 H1694 0.950 . S
C1702 C1700 1.391 . S
C1702 C1703 1.400 . S
C1703 C1702 1.400 . S
C1703 C1704 1.398 . S
C1703 C1709 1.491 . S
C1704 H1695 0.950 . S
C1704 C1703 1.398 . S
C1704 C1705 1.391 . S
C1705 H1693 0.950 . S
C1705 C1701 1.393 . S
C1705 C1704 1.391 . S
C1706 H1696 0.950 . S
C1706 C1707 1.386 . S
C1706 C1708 1.391 . S
C1707 C1706 1.386 . S
C1707 C1711 1.393 . S
C1708 H1697 0.950 . S
C1708 C1706 1.391 . S
C1708 C1709 1.400 . S
C1709 C1703 1.491 . S
C1709 C1708 1.400 . S
C1709 C1710 1.398 . S
C1710 H1698 0.950 . S
C1710 C1709 1.398 . S
C1710 C1711 1.391 . S
C1711 H1699 0.950 . S
C1711 C1707 1.393 . S
C1711 C1710 1.391 . S
H1712 C1720 0.950 . S
H1713 C1725 0.950 . S
H1714 C1722 0.950 . S
H1715 C1724 0.950 . S
H1716 C1726 0.950 . S
H1717 C1728 0.950 . S
H1718 C1730 0.950 . S
H1719 C1731 0.950 . S
C1720 H1712 0.950 . S
C1720 C1721 1.386 . S
C1720 C1722 1.391 . S
C1721 C1720 1.386 . S
C1721 C1725 1.393 . S
C1722 H1714 0.950 . S
C1722 C1720 1.391 . S
C1722 C1723 1.400 . S
C1723 C1722 1.400 . S
C1723 C1724 1.398 . S
C1723 C1729 1.491 . S
C1724 H1715 0.950 . S
C1724 C1723 1.398 . S
C1724 C1725 1.391 . S
C1725 H1713 0.950 . S
C1725 C1721 1.393 . S
C1725 C1724 1.391 . S
C1726 H1716 0.950 . S
C1726 C1727 1.386 . S
C1726 C1728 1.391 . S
C1727 C1726 1.386 . S
C1727 C1731 1.393 . S
C1728 H1717 0.950 . S
C1728 C1726 1.391 . S
C1728 C1729 1.400 . S
C1729 C1723 1.491 . S
C1729 C1728 1.400 . S
C1729 C1730 1.398 . S
C1730 H1718 0.950 . S
C1730 C1729 1.398 . S
C1730 C1731 1.391 . S
C1731 H1719 0.950 . S
C1731 C1727 1.393 . S
C1731 C1730 1.391 . S
H1732 C1740 0.950 . S
H1733 C1745 0.950 . S
H1734 C1742 0.950 . S
H1735 C1744 0.950 . S
H1736 C1746 0.950 . S
H1737 C1748 0.950 . S
H1738 C1750 0.950 . S
H1739 C1751 0.950 . S
C1740 H1732 0.950 . S
C1740 C1741 1.386 . S
C1740 C1742 1.391 . S
C1741 C1740 1.386 . S
C1741 C1745 1.393 . S
C1742 H1734 0.950 . S
C1742 C1740 1.391 . S
C1742 C1743 1.400 . S
C1743 C1742 1.400 . S
C1743 C1744 1.398 . S
C1743 C1749 1.491 . S
C1744 H1735 0.950 . S
C1744 C1743 1.398 . S
C1744 C1745 1.391 . S
C1745 H1733 0.950 . S
C1745 C1741 1.393 . S
C1745 C1744 1.391 . S
C1746 H1736 0.950 . S
C1746 C1747 1.386 . S
C1746 C1748 1.391 . S
C1747 C1746 1.386 . S
C1747 C1751 1.393 . S
C1748 H1737 0.950 . S
C1748 C1746 1.391 . S
C1748 C1749 1.400 . S
C1749 C1743 1.491 . S
C1749 C1748 1.400 . S
C1749 C1750 1.398 . S
C1750 H1738 0.950 . S
C1750 C1749 1.398 . S
C1750 C1751 1.391 . S
C1751 H1739 0.950 . S
C1751 C1747 1.393 . S
C1751 C1750 1.391 . S
H1752 C1760 0.950 . S
H1753 C1765 0.950 . S
H1754 C1762 0.950 . S
H1755 C1764 0.950 . S
H1756 C1766 0.950 . S
H1757 C1768 0.950 . S
H1758 C1770 0.950 . S
H1759 C1771 0.950 . S
C1760 H1752 0.950 . S
C1760 C1761 1.386 . S
C1760 C1762 1.391 . S
C1761 C1760 1.386 . S
C1761 C1765 1.393 . S
C1762 H1754 0.950 . S
C1762 C1760 1.391 . S
C1762 C1763 1.400 . S
C1763 C1762 1.400 . S
C1763 C1764 1.398 . S
C1763 C1769 1.491 . S
C1764 H1755 0.950 . S
C1764 C1763 1.398 . S
C1764 C1765 1.391 . S
C1765 H1753 0.950 . S
C1765 C1761 1.393 . S
C1765 C1764 1.391 . S
C1766 H1756 0.950 . S
C1766 C1767 1.386 . S
C1766 C1768 1.391 . S
C1767 C1766 1.386 . S
C1767 C1771 1.393 . S
C1768 H1757 0.950 . S
C1768 C1766 1.391 . S
C1768 C1769 1.400 . S
C1769 C1763 1.491 . S
C1769 C1768 1.400 . S
C1769 C1770 1.398 . S
C1770 H1758 0.950 . S
C1770 C1769 1.398 . S
C1770 C1771 1.391 . S
C1771 H1759 0.950 . S
C1771 C1767 1.393 . S
C1771 C1770 1.391 . S
H1772 C1780 0.950 . S
H1773 C1785 0.950 . S
H1774 C1782 0.950 . S
H1775 C1784 0.950 . S
H1776 C1786 0.950 . S
H1777 C1788 0.950 . S
H1778 C1790 0.950 . S
H1779 C1791 0.950 . S
C1780 H1772 0.950 . S
C1780 C1781 1.386 . S
C1780 C1782 1.391 . S
C1781 C1780 1.386 . S
C1781 C1785 1.393 . S
C1782 H1774 0.950 . S
C1782 C1780 1.391 . S
C1782 C1783 1.400 . S
C1783 C1782 1.400 . S
C1783 C1784 1.398 . S
C1783 C1789 1.491 . S
C1784 H1775 0.950 . S
C1784 C1783 1.398 . S
C1784 C1785 1.391 . S
C1785 H1773 0.950 . S
C1785 C1781 1.393 . S
C1785 C1784 1.391 . S
C1786 H1776 0.950 . S
C1786 C1787 1.386 . S
C1786 C1788 1.391 . S
C1787 C1786 1.386 . S
C1787 C1791 1.393 . S
C1788 H1777 0.950 . S
C1788 C1786 1.391 . S
C1788 C1789 1.400 . S
C1789 C1783 1.491 . S
C1789 C1788 1.400 . S
C1789 C1790 1.398 . S
C1790 H1778 0.950 . S
C1790 C1789 1.398 . S
C1790 C1791 1.391 . S
C1791 H1779 0.950 . S
C1791 C1787 1.393 . S
C1791 C1790 1.391 . S
H1792 C1800 0.950 . S
H1793 C1805 0.950 . S
H1794 C1802 0.950 . S
H1795 C1804 0.950 . S
H1796 C1806 0.950 . S
H1797 C1808 0.950 . S
H1798 C1810 0.950 . S
H1799 C1811 0.950 . S
C1800 H1792 0.950 . S
C1800 C1801 1.386 . S
C1800 C1802 1.391 . S
C1801 C1800 1.386 . S
C1801 C1805 1.393 . S
C1802 H1794 0.950 . S
C1802 C1800 1.391 . S
C1802 C1803 1.400 . S
C1803 C1802 1.400 . S
C1803 C1804 1.398 . S
C1803 C1809 1.491 . S
C1804 H1795 0.950 . S
C1804 C1803 1.398 . S
C1804 C1805 1.391 . S
C1805 H1793 0.950 . S
C1805 C1801 1.393 . S
C1805 C1804 1.391 . S
C1806 H1796 0.950 . S
C1806 C1807 1.386 . S
C1806 C1808 1.391 . S
C1807 C1806 1.386 . S
C1807 C1811 1.393 . S
C1808 H1797 0.950 . S
C1808 C1806 1.391 . S
C1808 C1809 1.400 . S
C1809 C1803 1.491 . S
C1809 C1808 1.400 . S
C1809 C1810 1.398 . S
C1810 H1798 0.950 . S
C1810 C1809 1.398 . S
C1810 C1811 1.391 . S
C1811 H1799 0.950 . S
C1811 C1807 1.393 . S
C1811 C1810 1.391 . S
H1812 C1820 0.950 . S
H1813 C1825 0.950 . S
H1814 C1822 0.950 . S
H1815 C1824 0.950 . S
H1816 C1826 0.950 . S
H1817 C1828 0.950 . S
H1818 C1830 0.950 . S
H1819 C1831 0.950 . S
C1820 H1812 0.950 . S
C1820 C1821 1.386 . S
C1820 C1822 1.391 . S
C1821 C1820 1.386 . S
C1821 C1825 1.393 . S
C1822 H1814 0.950 . S
C1822 C1820 1.391 . S
C1822 C1823 1.400 . S
C1823 C1822 1.400 . S
C1823 C1824 1.398 . S
C1823 C1829 1.491 . S
C1824 H1815 0.950 . S
C1824 C1823 1.398 . S
C1824 C1825 1.391 . S
C1825 H1813 0.950 . S
C1825 C1821 1.393 . S
C1825 C1824 1.391 . S
C1826 H1816 0.950 . S
C1826 C1827 1.386 . S
C1826 C1828 1.391 . S
C1827 C1826 1.386 . S
C1827 C1831 1.393 . S
C1828 H1817 0.950 . S
C1828 C1826 1.391 . S
C1828 C1829 1.400 . S
C1829 C1823 1.491 . S
C1829 C1828 1.400 . S
C1829 C1830 1.398 . S
C1830 H1818 0.950 . S
C1830 C1829 1.398 . S
C1830 C1831 1.391 . S
C1831 H1819 0.950 . S
C1831 C1827 1.393 . S
C1831 C1830 1.391 . S
H1832 C1840 0.950 . S
H1833 C1845 0.950 . S
H1834 C1842 0.950 . S
H1835 C1844 0.950 . S
H1836 C1846 0.950 . S
H1837 C1848 0.950 . S
H1838 C1850 0.950 . S
H1839 C1851 0.950 . S
C1840 H1832 0.950 . S
C1840 C1841 1.386 . S
C1840 C1842 1.391 . S
C1841 C1840 1.386 . S
C1841 C1845 1.393 . S
C1842 H1834 0.950 . S
C1842 C1840 1.391 . S
C1842 C1843 1.400 . S
C1843 C1842 1.400 . S
C1843 C1844 1.398 . S
C1843 C1849 1.491 . S
C1844 H1835 0.950 . S
C1844 C1843 1.398 . S
C1844 C1845 1.391 . S
C1845 H1833 0.950 . S
C1845 C1841 1.393 . S
C1845 C1844 1.391 . S
C1846 H1836 0.950 . S
C1846 C1847 1.386 . S
C1846 C1848 1.391 . S
C1847 C1846 1.386 . S
C1847 C1851 1.393 . S
C1848 H1837 0.950 . S
C1848 C1846 1.391 . S
C1848 C1849 1.400 . S
C1849 C1843 1.491 . S
C1849 C1848 1.400 . S
C1849 C1850 1.398 . S
C1850 H1838 0.950 . S
C1850 C1849 1.398 . S
C1850 C1851 1.391 . S
C1851 H1839 0.950 . S
C1851 C1847 1.393 . S
C1851 C1850 1.391 . S
H1852 C1860 0.950 . S
H1853 C1865 0.950 . S
H1854 C1862 0.950 . S
H1855 C1864 0.950 . S
H1856 C1866 0.950 . S
H1857 C1868 0.950 . S
H1858 C1870 0.950 . S
H1859 C1871 0.950 . S
C1860 H1852 0.950 . S
C1860 C1861 1.386 . S
C1860 C1862 1.391 . S
C1861 C1860 1.386 . S
C1861 C1865 1.393 . S
C1862 H1854 0.950 . S
C1862 C1860 1.391 . S
C1862 C1863 1.400 . S
C1863 C1862 1.400 . S
C1863 C1864 1.398 . S
C1863 C1869 1.491 . S
C1864 H1855 0.950 . S
C1864 C1863 1.398 . S
C1864 C1865 1.391 . S
C1865 H1853 0.950 . S
C1865 C1861 1.393 . S
C1865 C1864 1.391 . S
C1866 H1856 0.950 . S
C1866 C1867 1.386 . S
C1866 C1868 1.391 . S
C1867 C1866 1.386 . S
C1867 C1871 1.393 . S
C1868 H1857 0.950 . S
C1868 C1866 1.391 . S
C1868 C1869 1.400 . S
C1869 C1863 1.491 . S
C1869 C1868 1.400 . S
C1869 C1870 1.398 . S
C1870 H1858 0.950 . S
C1870 C1869 1.398 . S
C1870 C1871 1.391 . S
C1871 H1859 0.950 . S
C1871 C1867 1.393 . S
C1871 C1870 1.391 . S
H1872 C1880 0.950 . S
H1873 C1885 0.950 . S
H1874 C1882 0.950 . S
H1875 C1884 0.950 . S
H1876 C1886 0.950 . S
H1877 C1888 0.950 . S
H1878 C1890 0.950 . S
H1879 C1891 0.950 . S
C1880 H1872 0.950 . S
C1880 C1881 1.386 . S
C1880 C1882 1.391 . S
C1881 C1880 1.386 . S
C1881 C1885 1.393 . S
C1882 H1874 0.950 . S
C1882 C1880 1.391 . S
C1882 C1883 1.400 . S
C1883 C1882 1.400 . S
C1883 C1884 1.398 . S
C1883 C1889 1.491 . S
C1884 H1875 0.950 . S
C1884 C1883 1.398 . S
C1884 C1885 1.391 . S
C1885 H1873 0.950 . S
C1885 C1881 1.393 . S
C1885 C1884 1.391 . S
C1886 H1876 0.950 . S
C1886 C1887 1.386 . S
C1886 C1888 1.391 . S
C1887 C1886 1.386 . S
C1887 C1891 1.393 . S
C1888 H1877 0.950 . S
C1888 C1886 1.391 . S
C1888 C1889 1.400 . S
C1889 C1883 1.491 . S
C1889 C1888 1.400 . S
C1889 C1890 1.398 . S
C1890 H1878 0.950 . S
C1890 C1889 1.398 . S
C1890 C1891 1.391 . S
C1891 H1879 0.950 . S
C1891 C1887 1.393 . S
C1891 C1890 1.391 . S
H1892 C1900 0.950 . S
H1893 C1905 0.950 . S
H1894 C1902 0.950 . S
H1895 C1904 0.950 . S
H1896 C1906 0.950 . S
H1897 C1908 0.950 . S
H1898 C1910 0.950 . S
H1899 C1911 0.950 . S
C1900 H1892 0.950 . S
C1900 C1901 1.386 . S
C1900 C1902 1.391 . S
C1901 C1900 1.386 . S
C1901 C1905 1.393 . S
C1902 H1894 0.950 . S
C1902 C1900 1.391 . S
C1902 C1903 1.400 . S
C1903 C1902 1.400 . S
C1903 C1904 1.398 . S
C1903 C1909 1.491 . S
C1904 H1895 0.950 . S
C1904 C1903 1.398 . S
C1904 C1905 1.391 . S
C1905 H1893 0.950 . S
C1905 C1901 1.393 . S
C1905 C1904 1.391 . S
C1906 H1896 0.950 . S
C1906 C1907 1.386 . S
C1906 C1908 1.391 . S
C1907 C1906 1.386 . S
C1907 C1911 1.393 . S
C1908 H1897 0.950 . S
C1908 C1906 1.391 . S
C1908 C1909 1.400 . S
C1909 C1903 1.491 . S
C1909 C1908 1.400 . S
C1909 C1910 1.398 . S
C1910 H1898 0.950 . S
C1910 C1909 1.398 . S
C1910 C1911 1.391 . S
C1911 H1899 0.950 . S
C1911 C1907 1.393 . S
C1911 C1910 1.391 . S
H1912 C1920 0.950 . S
H1913 C1925 0.950 . S
H1914 C1922 0.950 . S
H1915 C1924 0.950 . S
H1916 C1926 0.950 . S
H1917 C1928 0.950 . S
H1918 C1930 0.950 . S
H1919 C1931 0.950 . S
C1920 H1912 0.950 . S
C1920 C1921 1.386 . S
C1920 C1922 1.391 . S
C1921 C1920 1.386 . S
C1921 C1925 1.393 . S
C1922 H1914 0.950 . S
C1922 C1920 1.391 . S
C1922 C1923 1.400 . S
C1923 C1922 1.400 . S
C1923 C1924 1.398 . S
C1923 C1929 1.491 . S
C1924 H1915 0.950 . S
C1924 C1923 1.398 . S
C1924 C1925 1.391 . S
C1925 H1913 0.950 . S
C1925 C1921 1.393 . S
C1925 C1924 1.391 . S
C1926 H1916 0.950 . S
C1926 C1927 1.386 . S
C1926 C1928 1.391 . S
C1927 C1926 1.386 . S
C1927 C1931 1.393 . S
C1928 H1917 0.950 . S
C1928 C1926 1.391 . S
C1928 C1929 1.400 . S
C1929 C1923 1.491 . S
C1929 C1928 1.400 . S
C1929 C1930 1.398 . S
C1930 H1918 0.950 . S
C1930 C1929 1.398 . S
C1930 C1931 1.391 . S
C1931 H1919 0.950 . S
C1931 C1927 1.393 . S
C1931 C1930 1.391 . S
H1932 C1940 0.950 . S
H1933 C1945 0.950 . S
H1934 C1942 0.950 . S
H1935 C1944 0.950 . S
H1936 C1946 0.950 . S
H1937 C1948 0.950 . S
H1938 C1950 0.950 . S
H1939 C1951 0.950 . S
C1940 H1932 0.950 . S
C1940 C1941 1.386 . S
C1940 C1942 1.391 . S
C1941 C1940 1.386 . S
C1941 C1945 1.393 . S
C1942 H1934 0.950 . S
C1942 C1940 1.391 . S
C1942 C1943 1.400 . S
C1943 C1942 1.400 . S
C1943 C1944 1.398 . S
C1943 C1949 1.491 . S
C1944 H1935 0.950 . S
C1944 C1943 1.398 . S
C1944 C1945 1.391 . S
C1945 H1933 0.950 . S
C1945 C1941 1.393 . S
C1945 C1944 1.391 . S
C1946 H1936 0.950 . S
C1946 C1947 1.386 . S
C1946 C1948 1.391 . S
C1947 C1946 1.386 . S
C1947 C1951 1.393 . S
C1948 H1937 0.950 . S
C1948 C1946 1.391 . S
C1948 C1949 1.400 . S
C1949 C1943 1.491 . S
C1949 C1948 1.400 . S
C1949 C1950 1.398 . S
C1950 H1938 0.950 . S
C1950 C1949 1.398 . S
C1950 C1951 1.391 . S
C1951 H1939 0.950 . S
C1951 C1947 1.393 . S
C1951 C1950 1.391 . S
H1952 C1960 0.950 . S
H1953 C1965 0.950 . S
H1954 C1962 0.950 . S
H1955 C1964 0.950 . S
H1956 C1966 0.950 . S
H1957 C1968 0.950 . S
H1958 C1970 0.950 . S
H1959 C1971 0.950 . S
C1960 H1952 0.950 . S
C1960 C1961 1.386 . S
C1960 C1962 1.391 . S
C1961 C1960 1.386 . S
C1961 C1965 1.393 . S
C1962 H1954 0.950 . S
C1962 C1960 1.391 . S
C1962 C1963 1.400 . S
C1963 C1962 1.400 . S
C1963 C1964 1.398 . S
C1963 C1969 1.491 . S
C1964 H1955 0.950 . S
C1964 C1963 1.398 . S
C1964 C1965 1.391 . S
C1965 H1953 0.950 . S
C1965 C1961 1.393 . S
C1965 C1964 1.391 . S
C1966 H1956 0.950 . S
C1966 C1967 1.386 . S
C1966 C1968 1.391 . S
C1967 C1966 1.386 . S
C1967 C1971 1.393 . S
C1968 H1957 0.950 . S
C1968 C1966 1.391 . S
C1968 C1969 1.400 . S
C1969 C1963 1.491 . S
C1969 C1968 1.400 . S
C1969 C1970 1.398 . S
C1970 H1958 0.950 . S
C1970 C1969 1.398 . S
C1970 C1971 1.391 . S
C1971 H1959 0.950 . S
C1971 C1967 1.393 . S
C1971 C1970 1.391 . S
H1972 C1980 0.950 . S
H1973 C1985 0.950 . S
H1974 C1982 0.950 . S
H1975 C1984 0.950 . S
H1976 C1986 0.950 . S
H1977 C1988 0.950 . S
H1978 C1990 0.950 . S
H1979 C1991 0.950 . S
C1980 H1972 0.950 . S
C1980 C1981 1.386 . S
C1980 C1982 1.391 . S
C1981 C1980 1.386 . S
C1981 C1985 1.393 . S
C1982 H1974 0.950 . S
C1982 C1980 1.391 . S
C1982 C1983 1.400 . S
C1983 C1982 1.400 . S
C1983 C1984 1.398 . S
C1983 C1989 1.491 . S
C1984 H1975 0.950 . S
C1984 C1983 1.398 . S
C1984 C1985 1.391 . S
C1985 H1973 0.950 . S
C1985 C1981 1.393 . S
C1985 C1984 1.391 . S
C1986 H1976 0.950 . S
C1986 C1987 1.386 . S
C1986 C1988 1.391 . S
C1987 C1986 1.386 . S
C1987 C1991 1.393 . S
C1988 H1977 0.950 . S
C1988 C1986 1.391 . S
C1988 C1989 1.400 . S
C1989 C1983 1.491 . S
C1989 C1988 1.400 . S
C1989 C1990 1.398 . S
C1990 H1978 0.950 . S
C1990 C1989 1.398 . S
C1990 C1991 1.391 . S
C1991 H1979 0.950 . S
C1991 C1987 1.393 . S
C1991 C1990 1.391 . S
H1992 C2000 0.950 . S
H1993 C2005 0.950 . S
H1994 C2002 0.950 . S
H1995 C2004 0.950 . S
H1996 C2006 0.950 . S
H1997 C2008 0.950 . S
H1998 C2010 0.950 . S
H1999 C2011 0.950 . S
C2000 H1992 0.950 . S
C2000 C2001 1.386 . S
C2000 C2002 1.391 . S
C2001 C2000 1.386 . S
C2001 C2005 1.393 . S
C2002 H1994 0.950 . S
C2002 C2000 1.391 . S
C2002 C2003 1.400 . S
C2003 C2002 1.400 . S
C2003 C2004 1.398 . S
C2003 C2009 1.491 . S
C2004 H1995 0.950 . S
C2004 C2003 1.398 . S
C2004 C2005 1.391 . S
C2005 H1993 0.950 . S
C2005 C2001 1.393 . S
C2005 C2004 1.391 . S
C2006 H1996 0.950 . S
C2006 C2007 1.386 . S
C2006 C2008 1.391 . S
C2007 C2006 1.386 . S
C2007 C2011 1.393 . S
C2008 H1997 0.950 . S
C2008 C2006 1.391 . S
C2008 C2009 1.400 . S
C2009 C2003 1.491 . S
C2009 C2008 1.400 . S
C2009 C2010 1.398 . S
C2010 H1998 0.950 . S
C2010 C2009 1.398 . S
C2010 C2011 1.391 . S
C2011 H1999 0.950 . S
C2011 C2007 1.393 . S
C2011 C2010 1.391 . S
H2012 C2020 0.950 . S
H2013 C2025 0.950 . S
H2014 C2022 0.950 . S
H2015 C2024 0.950 . S
H2016 C2026 0.950 . S
H2017 C2028 0.950 . S
H2018 C2030 0.950 . S
H2019 C2031 0.950 . S
C2020 H2012 0.950 . S
C2020 C2021 1.386 . S
C2020 C2022 1.391 . S
C2021 C2020 1.386 . S
C2021 C2025 1.393 . S
C2022 H2014 0.950 . S
C2022 C2020 1.391 . S
C2022 C2023 1.400 . S
C2023 C2022 1.400 . S
C2023 C2024 1.398 . S
C2023 C2029 1.491 . S
C2024 H2015 0.950 . S
C2024 C2023 1.398 . S
C2024 C2025 1.391 . S
C2025 H2013 0.950 . S
C2025 C2021 1.393 . S
C2025 C2024 1.391 . S
C2026 H2016 0.950 . S
C2026 C2027 1.386 . S
C2026 C2028 1.391 . S
C2027 C2026 1.386 . S
C2027 C2031 1.393 . S
C2028 H2017 0.950 . S
C2028 C2026 1.391 . S
C2028 C2029 1.400 . S
C2029 C2023 1.491 . S
C2029 C2028 1.400 . S
C2029 C2030 1.398 . S
C2030 H2018 0.950 . S
C2030 C2029 1.398 . S
C2030 C2031 1.391 . S
C2031 H2019 0.950 . S
C2031 C2027 1.393 . S
C2031 C2030 1.391 . S
H2032 C2040 0.950 . S
H2033 C2045 0.950 . S
H2034 C2042 0.950 . S
H2035 C2044 0.950 . S
H2036 C2046 0.950 . S
H2037 C2048 0.950 . S
H2038 C2050 0.950 . S
H2039 C2051 0.950 . S
C2040 H2032 0.950 . S
C2040 C2041 1.386 . S
C2040 C2042 1.391 . S
C2041 C2040 1.386 . S
C2041 C2045 1.393 . S
C2042 H2034 0.950 . S
C2042 C2040 1.391 . S
C2042 C2043 1.400 . S
C2043 C2042 1.400 . S
C2043 C2044 1.398 . S
C2043 C2049 1.491 . S
C2044 H2035 0.950 . S
C2044 C2043 1.398 . S
C2044 C2045 1.391 . S
C2045 H2033 0.950 . S
C2045 C2041 1.393 . S
C2045 C2044 1.391 . S
C2046 H2036 0.950 . S
C2046 C2047 1.386 . S
C2046 C2048 1.391 . S
C2047 C2046 1.386 . S
C2047 C2051 1.393 . S
C2048 H2037 0.950 . S
C2048 C2046 1.391 . S
C2048 C2049 1.400 . S
C2049 C2043 1.491 . S
C2049 C2048 1.400 . S
C2049 C2050 1.398 . S
C2050 H2038 0.950 . S
C2050 C2049 1.398 . S
C2050 C2051 1.391 . S
C2051 H2039 0.950 . S
C2051 C2047 1.393 . S
C2051 C2050 1.391 . S
C981 C162 1.454 . S
C987 C283 1.387 . S
C1001 C174 1.479 . S
C1007 C367 1.408 . S
C1021 C150 1.447 . S
C1027 C447 1.446 . S
C1041 C138 1.425 . S
C1047 C363 1.429 1_556 S
C1067 C451 1.390 . S
C1061 C114 1.431 . S
C1081 C126 1.404 . S
C1087 C279 1.404 1_556 S
C1107 C272 1.457 . S
C1101 C136 1.491 . S
C1127 C356 1.468 . S
C1121 C112 1.525 . S
C1141 C124 1.503 . S
C1147 C458 1.476 1_556 S
C1161 C160 1.477 . S
C1167 C374 1.441 . S
C1181 C172 1.465 . S
C1187 C440 1.416 . S
C1207 C290 1.428 . S
C1201 C148 1.469 . S
C1227 C535 1.405 . S
C1221 C18 1.446 . S
C1241 C30 1.473 . S
C1247 C619 1.420 . S
C1261 C6 1.449 . S
C1267 C699 1.444 . S
C1281 C210 1.422 . S
C1287 C615 1.421 . S
C1301 C186 1.429 . S
C1307 C703 1.379 . S
C1321 C198 1.408 . S
C1327 C531 1.399 . S
C1341 C208 1.490 . S
C1347 C524 1.458 . S
C1361 C184 1.527 . S
C1367 C608 1.458 . S
C1387 C710 1.491 . S
C1381 C196 1.521 . S
C1401 C16 1.475 . S
C1407 C626 1.451 . S
C1427 C692 1.430 . S
C1421 C28 1.466 . S
C1441 C4 1.459 . S
C1447 C542 1.442 . S
C1467 C787 1.377 . S
C1461 C90 1.454 . S
C1481 C102 1.472 . S
C1487 C871 1.436 . S
C1507 C951 1.444 . S
C1501 C78 1.449 . S
C1527 C867 1.418 . S
C1521 C66 1.430 . S
C1547 C955 1.360 . S
C1541 C42 1.437 . S
C1561 C54 1.405 . S
C1567 C783 1.391 . S
C1581 C64 1.503 . S
C1587 C776 1.439 . S
C1601 C40 1.525 . S
C1607 C860 1.455 . S
C1627 C962 1.470 . S
C1621 C52 1.505 . S
C1641 C88 1.475 . S
C1647 C878 1.452 . S
C1661 C100 1.470 . S
C1667 C944 1.425 . S
C1681 C76 1.462 . S
C1687 C794 1.444 . S
C1701 C189 1.564 . S
C1707 C286 1.463 . S
C1727 C370 1.498 . S
C1721 C201 1.625 . S
C1741 C213 1.580 . S
C1747 C442 1.386 . S
C1761 C81 1.602 . S
C1767 C358 1.396 . S
C1781 C93 1.582 . S
C1787 C454 1.456 . S
C1807 C274 1.366 . S
C1801 C105 1.530 . S
C1821 C45 1.564 . S
C1827 C538 1.436 . S
C1841 C57 1.635 . S
C1847 C622 1.475 . S
C1861 C69 1.577 . S
C1867 C694 1.411 . S
C1881 C153 1.597 . S
C1887 C610 1.420 . S
C1907 C706 1.455 . S
C1901 C165 1.592 . S
C1921 C177 1.531 . S
C1927 C526 1.352 . S
C1941 C117 1.564 . S
C1947 C790 1.463 . S
C1961 C129 1.623 . S
C1967 C874 1.494 . S
C1987 C946 1.368 . S
C1981 C141 1.570 . S
C2001 C9 1.593 . S
C2007 C862 1.404 . S
C2021 C21 1.585 . S
C2027 C958 1.436 . S
C2041 C33 1.540 . S
C2047 C778 1.386 . S
