# Generated by pormake.
# Topology tsx, (6,3)-cn, num edge types: 1
# Building blocks:
#     Node 0, Type 0, BuildingBlock: FUNLAD_clean_sbu_0, # of connection points: 6
#     Node 1, Type 0, BuildingBlock: FUNLAD_clean_sbu_0, # of connection points: 6
#     Node 2, Type 1, BuildingBlock: PAMTOO_clean_linker_0, # of connection points: 3
#     Node 3, Type 1, BuildingBlock: PAMTOO_clean_linker_0, # of connection points: 3
#     Node 4, Type 1, BuildingBlock: PAMTOO_clean_linker_0, # of connection points: 3
#     Node 5, Type 1, BuildingBlock: PAMTOO_clean_linker_0, # of connection points: 3
#     Edge 6, Type (0, 1), BuildingBlock: FUNLAD_clean_linker_1, # of connection points: 2
#     Edge 7, Type (0, 1), BuildingBlock: FUNLAD_clean_linker_1, # of connection points: 2
#     Edge 8, Type (0, 1), BuildingBlock: FUNLAD_clean_linker_1, # of connection points: 2
#     Edge 9, Type (0, 1), BuildingBlock: FUNLAD_clean_linker_1, # of connection points: 2
#     Edge 10, Type (0, 1), BuildingBlock: FUNLAD_clean_linker_1, # of connection points: 2
#     Edge 11, Type (0, 1), BuildingBlock: FUNLAD_clean_linker_1, # of connection points: 2
#     Edge 12, Type (0, 1), BuildingBlock: FUNLAD_clean_linker_1, # of connection points: 2
#     Edge 13, Type (0, 1), BuildingBlock: FUNLAD_clean_linker_1, # of connection points: 2
#     Edge 14, Type (0, 1), BuildingBlock: FUNLAD_clean_linker_1, # of connection points: 2
#     Edge 15, Type (0, 1), BuildingBlock: FUNLAD_clean_linker_1, # of connection points: 2
#     Edge 16, Type (0, 1), BuildingBlock: FUNLAD_clean_linker_1, # of connection points: 2
#     Edge 17, Type (0, 1), BuildingBlock: FUNLAD_clean_linker_1, # of connection points: 2
# Relax obj value: 0.125
# Max RMSD: 0.131
# Mean RMSD: 0.119
data_MOF--net-tsx--node1-FUNLAD_clean_sbu_0--node2-PAMTOO_clean_linker_0--edge1-FUNLAD_clean_linker_1
_symmetry_space_group_name_H-M    P1
_symmetry_Int_Tables_number       1
_symmetry_cell_setting            triclinic
loop_
_symmetry_equiv_pos_as_xyz
'x, y, z'
_cell_length_a     19.983062
_cell_length_b     22.146186
_cell_length_c     41.020987
_cell_angle_alpha  82.351156
_cell_angle_beta   92.430278
_cell_angle_gamma 90.095609
loop_
_atom_site_label
_atom_site_type_symbol
_atom_site_fract_x
_atom_site_fract_y
_atom_site_fract_z
_atom_type_partial_charge
C0 C 0.8995 0.98524 -0.00208 0.0
N1 N 0.99083 0.05427 0.07853 0.0
C2 C 0.93162 0.05338 0.09382 0.0
C3 C 0.93068 0.04483 0.1282 0.0
C4 C 0.99142 0.03713 0.14693 0.0
C5 C 0.05148 0.0378 0.13042 0.0
C6 C 0.05014 0.04679 0.09612 0.0
Zn7 Zn 0.99281 0.06609 0.02831 0.0
C8 C 0.0938 0.98499 0.00437 0.0
N9 N 1.00143 0.08994 0.92375 0.0
C10 C 0.94285 0.0879 0.90578 0.0
C11 C 0.06149 0.09037 0.90931 0.0
C12 C 0.06429 0.08531 0.87583 0.0
C13 C 1.00456 0.0794 0.85712 0.0
C14 C 0.94334 0.08297 0.87222 0.0
Zn15 Zn 0.999 0.08108 0.97385 0.0
O16 O 0.91646 1.00126 0.02568 0.0
C17 C 0.89738 0.16145 -0.00309 0.0
O18 O 0.92747 0.00971 0.97225 0.0
H19 H 0.10746 0.09234 0.92403 0.0
H20 H 0.88501 0.05893 0.07933 0.0
H21 H 0.89563 0.08749 0.91775 0.0
O22 O 0.91915 0.13646 0.02508 0.0
O23 O 0.92126 0.14582 0.97107 0.0
H24 H 0.09663 0.04764 0.08351 0.0
O25 O 0.07032 0.15209 0.97631 0.0
O26 O 0.06892 0.13208 0.03024 0.0
O27 O 0.07632 0.01634 0.9772 0.0
O28 O 0.06611 0.99485 0.03048 0.0
C29 C 0.0914 0.16278 0.00468 0.0
H30 H 0.88291 0.04321 0.13972 0.0
H31 H 0.09927 0.03172 0.14396 0.0
H32 H 0.11277 0.08515 0.86507 0.0
H33 H 0.89626 0.07937 0.85852 0.0
C34 C 0.46122 0.41582 0.49627 0.0
N35 N 0.57334 0.48269 0.57287 0.0
C36 C 0.51649 0.47921 0.59008 0.0
C37 C 0.52 0.47602 0.62429 0.0
C38 C 0.58291 0.47599 0.6411 0.0
C39 C 0.64072 0.478 0.6227 0.0
C40 C 0.63485 0.4813 0.58846 0.0
Zn41 Zn 0.56439 0.49671 0.52275 0.0
C42 C 0.65572 0.41883 0.49093 0.0
N43 N 0.54171 0.52976 0.41812 0.0
C44 C 0.47882 0.53486 0.40397 0.0
C45 C 0.59659 0.53138 0.39951 0.0
C46 C 0.58926 0.53703 0.36522 0.0
C47 C 0.52468 0.54092 0.35002 0.0
C48 C 0.46923 0.54091 0.36982 0.0
Zn49 Zn 0.55241 0.51568 0.46822 0.0
O50 O 0.4896 0.42693 0.52318 0.0
C51 C 0.46145 0.59464 0.49973 0.0
O52 O 0.47709 0.44694 0.46945 0.0
H53 H 0.64614 0.52773 0.41128 0.0
H54 H 0.46808 0.48082 0.57715 0.0
H55 H 0.43586 0.53338 0.41921 0.0
O56 O 0.48878 0.56463 0.52541 0.0
O57 O 0.47842 0.58357 0.4716 0.0
H58 H 0.67942 0.48439 0.57427 0.0
O59 O 0.62857 0.58389 0.46765 0.0
O60 O 0.63939 0.56586 0.52156 0.0
O61 O 0.6265 0.4478 0.46548 0.0
O62 O 0.64008 0.42984 0.51932 0.0
C63 C 0.65685 0.59533 0.49451 0.0
H64 H 0.47357 0.47586 0.63686 0.0
H65 H 0.6901 0.47838 0.63465 0.0
H66 H 0.63375 0.53881 0.351 0.0
H67 H 0.41874 0.54443 0.35899 0.0
H68 H 0.09819 0.93007 0.39085 0.0
H69 H 0.99178 0.08493 0.41663 0.0
H70 H 0.14316 0.99645 0.48294 0.0
H71 H 0.04162 0.05382 0.52256 0.0
C72 C 0.01121 0.07088 0.49995 0.0
O73 O 0.05351 0.08367 0.47415 0.0
H74 H 0.97414 0.03512 0.49511 0.0
C75 C 0.08942 0.96241 0.40785 0.0
C76 C 0.12544 0.95604 0.43824 0.0
C77 C 0.04204 0.00951 0.39943 0.0
C78 C 0.02863 0.04883 0.42251 0.0
C79 C 0.06476 0.04364 0.45273 0.0
C80 C 0.11388 0.99812 0.46025 0.0
H81 H 0.2016 0.066 0.62492 0.0
H82 H 0.06323 0.91754 0.62005 0.0
H83 H 0.17169 0.98793 0.53527 0.0
H84 H 0.0392 0.93431 0.51394 0.0
C85 C 0.02576 0.91689 0.53946 0.0
O86 O 0.08399 0.90586 0.55877 0.0
H87 H 0.99416 0.95144 0.54903 0.0
C88 C 0.17698 0.03297 0.6112 0.0
C89 C 0.19049 0.03319 0.57803 0.0
C90 C 0.13036 0.99259 0.62661 0.0
C91 C 0.09831 0.95018 0.60857 0.0
C92 C 0.11303 0.94851 0.57555 0.0
C93 C 0.15918 0.99006 0.56036 0.0
H94 H 0.57937 0.45067 0.90202 0.0
H95 H 0.46186 0.61451 0.87857 0.0
H96 H 0.51342 0.54659 0.97939 0.0
H97 H 0.37045 0.59128 0.96393 0.0
C98 C 0.38093 0.62796 0.94361 0.0
O99 O 0.44894 0.63171 0.93955 0.0
H100 H 0.35484 0.61749 0.92053 0.0
C101 C 0.55491 0.48972 0.90962 0.0
C102 C 0.55319 0.495 0.9434 0.0
C103 C 0.52279 0.53295 0.88592 0.0
C104 C 0.48735 0.58086 0.89642 0.0
C105 C 0.48371 0.58547 0.92998 0.0
C106 C 0.51625 0.54247 0.95346 0.0
H107 H 0.59417 0.65578 0.09261 0.0
H108 H 0.44219 0.51802 0.09074 0.0
H109 H 0.47076 0.64767 0.00491 0.0
H110 H 0.32324 0.60927 0.0192 0.0
C111 C 0.33591 0.56327 0.03212 0.0
O112 O 0.40311 0.55159 0.02962 0.0
H113 H 0.32319 0.56131 0.0584 0.0
C114 C 0.55467 0.63387 0.07955 0.0
C115 C 0.53742 0.65655 0.04675 0.0
C116 C 0.51947 0.58525 0.0961 0.0
C117 C 0.46863 0.55709 0.07888 0.0
C118 C 0.45118 0.57962 0.04606 0.0
C119 C 0.48469 0.63012 0.03018 0.0
H120 H 0.15229 0.22003 0.03401 0.0
C121 C 0.1373 0.21346 0.00892 0.0
H122 H 0.14143 0.24997 0.9586 0.0
H123 H 0.18404 0.47983 0.04721 0.0
H124 H 0.06462 0.46936 0.05415 0.0
H125 H 1.001 0.38813 0.03109 0.0
H126 H 0.05668 0.31633 0.00156 0.0
C127 C 0.15529 0.25506 0.98398 0.0
C128 C 0.19093 0.31114 0.99125 0.0
C129 C 0.157 0.35483 0.00691 0.0
C130 C 0.19321 0.40324 0.01887 0.0
C131 C 0.15878 0.44356 0.03648 0.0
C132 C 0.09017 0.43788 0.04082 0.0
C133 C 0.05437 0.39207 0.02796 0.0
C134 C 0.08709 0.35089 0.01122 0.0
H135 H 0.25937 0.53141 -0.00313 0.0
C136 C 0.29545 0.51644 0.01688 0.0
H137 H 0.33983 0.44217 0.04756 0.0
H138 H 0.26886 0.23926 0.95893 0.0
H139 H 0.38715 0.25355 0.94845 0.0
H140 H 0.44918 0.33996 0.96717 0.0
H141 H 0.39389 0.41221 -0.00326 0.0
C142 C 0.30235 0.45698 0.02817 0.0
C143 C 0.26277 0.40948 0.01367 0.0
C144 C 0.29565 0.36822 -0.00401 0.0
C145 C 0.25968 0.31886 0.98482 0.0
C146 C 0.29396 0.27762 0.96782 0.0
C147 C 0.3617 0.28536 0.96161 0.0
C148 C 0.39669 0.33397 0.97218 0.0
C149 C 0.36437 0.37503 0.9892 0.0
H150 H 0.14224 0.89842 0.02612 0.0
C151 C 0.14062 0.93345 0.00485 0.0
H152 H 0.173 0.96103 0.95694 0.0
H153 H 0.36384 0.71698 0.01299 0.0
H154 H 0.40911 0.77558 0.05454 0.0
H155 H 0.36414 0.87765 0.05927 0.0
H156 H 0.27294 0.92114 0.02271 0.0
C157 C 0.17548 0.92617 0.9783 0.0
C158 C 0.20715 0.86694 0.97436 0.0
C159 C 0.26188 0.84312 -0.00471 0.0
C160 C 0.28968 0.78537 0.99167 0.0
C161 C 0.34228 0.7614 0.01386 0.0
C162 C 0.36855 0.79448 0.03798 0.0
C163 C 0.34309 0.85184 0.0407 0.0
C164 C 0.29042 0.87612 0.01968 0.0
H165 H 0.38623 0.72818 0.94652 0.0
C166 C 0.35528 0.68778 0.95131 0.0
H167 H 0.26091 0.65297 0.96479 0.0
H168 H 0.10266 0.89956 0.9297 0.0
H169 H 0.06263 0.84388 0.88592 0.0
H170 H 0.11426 0.74602 0.87816 0.0
H171 H 0.20618 0.7032 0.91432 0.0
C172 C 0.2932 0.69272 0.96187 0.0
C173 C 0.26434 0.75277 0.96629 0.0
C174 C 0.21079 0.77731 0.94486 0.0
C175 C 0.18195 0.83428 0.94896 0.0
C176 C 0.12763 0.85712 0.92745 0.0
C177 C 0.10381 0.82547 0.90222 0.0
C178 C 0.1328 0.77035 0.89788 0.0
C179 C 0.18552 0.74626 0.9189 0.0
H180 H 0.84893 0.91314 0.97387 0.0
C181 C 0.84985 0.93671 -0.0045 0.0
H182 H 0.80889 0.94376 0.04131 0.0
H183 H 0.59811 0.76066 0.96894 0.0
H184 H 0.57825 0.84554 0.92575 0.0
H185 H 0.64108 0.94147 0.92617 0.0
H186 H 0.72526 0.95249 0.96927 0.0
C187 C 0.80754 0.92028 0.01964 0.0
C188 C 0.76508 0.86492 0.02013 0.0
C189 C 0.71372 0.86054 -0.00443 0.0
C190 C 0.67465 0.80659 -0.00362 0.0
C191 C 0.62686 0.80171 0.97039 0.0
C192 C 0.61532 0.84992 0.9453 0.0
C193 C 0.65091 0.90382 0.94546 0.0
C194 C 0.69952 0.90936 0.97025 0.0
H195 H 0.54965 0.75362 0.02776 0.0
C196 C 0.57412 0.70932 0.03085 0.0
H197 H 0.66312 0.6596 0.03014 0.0
H198 H 0.86173 0.85719 0.07014 0.0
H199 H 0.8773 0.77488 0.11486 0.0
H200 H 0.80398 0.68478 0.1187 0.0
H201 H 0.71556 0.6761 0.07766 0.0
C202 C 0.63982 0.70447 0.02607 0.0
C203 C 0.68418 0.75883 0.02287 0.0
C204 C 0.73519 0.7635 0.04758 0.0
C205 C 0.77615 0.81624 0.04596 0.0
C206 C 0.82793 0.81894 0.07049 0.0
C207 C 0.83769 0.77185 0.09632 0.0
C208 C 0.79653 0.72111 0.09843 0.0
C209 C 0.74588 0.71671 0.0745 0.0
H210 H 0.82717 0.22605 0.96844 0.0
C211 C 0.84433 0.20806 -0.00663 0.0
H212 H 0.83421 0.21376 0.04408 0.0
H213 H 0.72294 0.48529 -0.00171 0.0
H214 H 0.82303 0.50481 0.03115 0.0
H215 H 0.89666 0.42026 0.05605 0.0
H216 H 0.8713 0.3156 0.04797 0.0
C217 C 0.81667 0.22923 0.01893 0.0
C218 C 0.7642 0.2774 0.0124 0.0
C219 C 0.77934 0.33777 0.01796 0.0
C220 C 0.73698 0.38653 0.0036 0.0
C221 C 0.75393 0.44678 0.00855 0.0
C222 C 0.81099 0.4585 0.02738 0.0
C223 C 0.85252 0.41084 0.04138 0.0
C224 C 0.83741 0.35108 0.03659 0.0
H225 H 0.56647 0.43707 0.99191 0.0
C226 C 0.58849 0.45 0.96822 0.0
H227 H 0.67147 0.44029 0.93906 0.0
H228 H 0.71191 0.16563 0.00538 0.0
H229 H 0.60849 0.14557 0.97523 0.0
H230 H 0.53714 0.23036 0.94837 0.0
H231 H 0.56837 0.33539 0.95173 0.0
C232 C 0.6468 0.42492 0.96176 0.0
C233 C 0.67975 0.37451 0.98402 0.0
C234 C 0.66066 0.31359 0.98162 0.0
C235 C 0.70256 0.26486 -0.0037 0.0
C236 C 0.68246 0.20426 -0.00613 0.0
C237 C 0.62319 0.19219 0.97682 0.0
C238 C 0.58297 0.23992 0.96175 0.0
C239 C 0.6014 0.30002 0.96391 0.0
H240 H 0.7211 0.668 0.47029 0.0
C241 C 0.7091 0.64303 0.49395 0.0
H242 H 0.72816 0.63356 0.54541 0.0
H243 H 0.99935 0.78403 0.49146 0.0
H244 H 0.02868 0.69152 0.46956 0.0
H245 H 0.95064 0.60478 0.47211 0.0
H246 H 0.84203 0.61048 0.49583 0.0
C247 C 0.7412 0.65686 0.52153 0.0
C248 C 0.79023 0.70808 0.52091 0.0
C249 C 0.85446 0.70333 0.5079 0.0
C250 C 0.9006 0.75264 0.50752 0.0
C251 C 0.96315 0.7475 0.49315 0.0
C252 C 0.98056 0.6947 0.48041 0.0
C253 C 0.93653 0.64591 0.48175 0.0
C254 C 0.8742 0.64988 0.49532 0.0
H255 H 0.99936 0.81901 0.55608 0.0
C256 C 0.98531 0.85943 0.53913 0.0
H257 H 0.9143 0.90076 0.50383 0.0
H258 H 0.6718 0.73232 0.54782 0.0
H259 H 0.64326 0.82412 0.57052 0.0
H260 H 0.72405 0.90835 0.57107 0.0
H261 H 0.83391 0.90137 0.54889 0.0
C262 C 0.92964 0.85917 0.51951 0.0
C263 C 0.88319 0.80602 0.52096 0.0
C264 C 0.8193 0.81044 0.53429 0.0
C265 C 0.77291 0.76152 0.53429 0.0
C266 C 0.70926 0.76772 0.54748 0.0
C267 C 0.69213 0.82024 0.56054 0.0
C268 C 0.73758 0.86769 0.56081 0.0
C269 C 0.80045 0.86311 0.54791 0.0
H270 H 0.71178 0.36036 0.46209 0.0
C271 C 0.70585 0.37173 0.48679 0.0
H272 H 0.73995 0.35381 0.5367 0.0
H273 H 0.81817 0.09324 0.48654 0.0
H274 H 0.70007 0.07192 0.49258 0.0
H275 H 0.62253 0.15117 0.50534 0.0
H276 H 0.66235 0.25261 0.51165 0.0
C277 C 0.74344 0.34232 0.51189 0.0
C278 C 0.79118 0.29345 0.50616 0.0
C279 C 0.76706 0.23451 0.50223 0.0
C280 C 0.81201 0.1887 0.49508 0.0
C281 C 0.78638 0.13005 0.49165 0.0
C282 C 0.71865 0.11706 0.49517 0.0
C283 C 0.67494 0.16172 0.50228 0.0
C284 C 0.69851 0.21981 0.50577 0.0
H285 H 0.98233 0.14421 0.52925 0.0
C286 C 0.97395 0.12712 0.50578 0.0
H287 H 0.91703 0.13402 0.46118 0.0
H288 H 0.85412 0.40023 0.51441 0.0
H289 H 0.97272 0.42173 0.50916 0.0
H290 H 0.05032 0.34353 0.49513 0.0
H291 H 0.01022 0.24321 0.48664 0.0
C292 C 0.92721 0.15324 0.48392 0.0
C293 C 0.88125 0.20167 0.49209 0.0
C294 C 0.90558 0.26042 0.49658 0.0
C295 C 0.86055 0.30607 0.50398 0.0
C296 C 0.88612 0.36414 0.50855 0.0
C297 C 0.95402 0.37707 0.5056 0.0
C298 C 0.99774 0.33298 0.49776 0.0
C299 C 0.97409 0.27538 0.49315 0.0
H300 H 0.39025 0.35794 0.47161 0.0
C301 C 0.4122 0.36567 0.49539 0.0
H302 H 0.4168 0.33568 0.54652 0.0
H303 H 0.13955 0.19616 0.54606 0.0
H304 H 0.09971 0.29308 0.55937 0.0
H305 H 0.17326 0.38314 0.55503 0.0
H306 H 0.28735 0.37685 0.53742 0.0
C307 C 0.39616 0.32818 0.52246 0.0
C308 C 0.34918 0.27596 0.52088 0.0
C309 C 0.28258 0.28038 0.53101 0.0
C310 C 0.24006 0.22842 0.53346 0.0
C311 C 0.17398 0.23412 0.54388 0.0
C312 C 0.15045 0.2895 0.55154 0.0
C313 C 0.19188 0.34021 0.5491 0.0
C314 C 0.25726 0.33597 0.53903 0.0
H315 H 0.28065 0.09057 0.57855 0.0
C316 C 0.23798 0.0793 0.56314 0.0
H317 H 0.17855 0.10898 0.52019 0.0
H318 H 0.47186 0.25261 0.49778 0.0
H319 H 0.50865 0.15725 0.48123 0.0
H320 H 0.43459 0.06759 0.48536 0.0
H321 H 0.32249 0.07299 0.50568 0.0
C322 C 0.22424 0.11539 0.53464 0.0
C323 C 0.26449 0.17179 0.52626 0.0
C324 C 0.32947 0.16831 0.51412 0.0
C325 C 0.37199 0.22033 0.51149 0.0
C326 C 0.43717 0.21489 0.49994 0.0
C327 C 0.45906 0.16031 0.4905 0.0
C328 C 0.41731 0.10981 0.49279 0.0
C329 C 0.35328 0.11343 0.50456 0.0
H330 H 0.40157 0.65275 0.52756 0.0
C331 C 0.41214 0.64322 0.50297 0.0
H332 H 0.39408 0.66898 0.452 0.0
H333 H 0.13126 0.79984 0.50804 0.0
H334 H 0.09716 0.69818 0.53063 0.0
H335 H 0.17099 0.60968 0.52886 0.0
H336 H 0.28016 0.62233 0.50533 0.0
C337 C 0.38189 0.67678 0.47668 0.0
C338 C 0.33751 0.72993 0.47974 0.0
C339 C 0.27327 0.72153 0.49321 0.0
C340 C 0.22973 0.77247 0.49342 0.0
C341 C 0.16607 0.7628 0.50708 0.0
C342 C 0.14577 0.70467 0.52005 0.0
C343 C 0.18747 0.65486 0.51915 0.0
C344 C 0.25029 0.66284 0.50574 0.0
H345 H 0.19399 0.88663 0.42407 0.0
C346 C 0.17655 0.90652 0.44507 0.0
H347 H 0.1813 0.89828 0.4972 0.0
H348 H 0.45908 0.76324 0.45482 0.0
H349 H 0.4947 0.86563 0.4346 0.0
H350 H 0.41949 0.95359 0.43545 0.0
H351 H 0.30798 0.9396 0.45631 0.0
C352 C 0.20045 0.88303 0.4753 0.0
C353 C 0.24958 0.83141 0.47934 0.0
C354 C 0.31501 0.84026 0.46749 0.0
C355 C 0.35871 0.78954 0.46744 0.0
C356 C 0.42361 0.79996 0.45526 0.0
C357 C 0.44484 0.85856 0.4437 0.0
C358 C 0.40248 0.90807 0.44414 0.0
C359 C 0.33838 0.89934 0.45595 0.0
H360 H 0.04104 1.00751 0.19549 0.0
C361 C 0.99478 0.02667 0.18346 0.0
H362 H 0.90093 0.06524 0.1919 0.0
H363 H 1.00494 0.89654 0.33274 0.0
H364 H 0.97388 0.81007 0.30469 0.0
H365 H 0.93342 0.82511 0.24649 0.0
H366 H 0.92401 0.92677 0.21594 0.0
C367 C 0.94616 0.04215 0.2025 0.0
C368 C 0.95738 0.03367 0.23891 0.0
C369 C 0.96119 0.97419 0.25657 0.0
C370 C 0.98395 0.96562 0.29014 0.0
C371 C 0.98832 0.90561 0.30709 0.0
C372 C 0.97041 0.85561 0.29134 0.0
C373 C 0.94767 0.86407 0.25856 0.0
C374 C 0.9429 0.92257 0.24127 0.0
H375 H 0.9579 0.04082 0.36412 0.0
C376 C 1.00697 0.01914 0.3665 0.0
H377 H 0.08592 0.98632 0.34078 0.0
H378 H 0.94645 0.15386 0.21325 0.0
H379 H 0.97452 0.2407 0.24152 0.0
H380 H 0.01663 0.22604 0.29945 0.0
H381 H 0.03051 0.12474 0.3295 0.0
C382 C 0.03613 1.00626 0.33927 0.0
C383 C 1.00214 0.01658 0.30608 0.0
C384 C 0.9941 0.07639 0.28902 0.0
C385 C 0.97087 0.08488 0.25544 0.0
C386 C 0.96413 0.1449 0.23873 0.0
C387 C 0.98008 0.19512 0.25466 0.0
C388 C 1.00371 0.18686 0.28728 0.0
C389 C 0.01112 0.12834 0.30432 0.0
H390 H 0.95833 0.0782 0.80716 0.0
C391 C 1.00407 0.06812 0.82223 0.0
H392 H 0.09981 0.02681 0.82424 0.0
H393 H 0.05625 0.87299 0.7083 0.0
H394 H 0.06178 0.79398 0.75552 0.0
H395 H 0.06118 0.82048 0.81208 0.0
H396 H 0.05541 0.92595 0.82181 0.0
C397 C 0.0556 0.04218 0.80915 0.0
C398 C 0.05104 0.02662 0.77495 0.0
C399 C 0.05315 0.96458 0.76972 0.0
C400 C 0.05275 0.94917 0.73714 0.0
C401 C 0.05624 0.88703 0.73258 0.0
C402 C 0.05931 0.84129 0.75945 0.0
C403 C 0.059 0.85621 0.79129 0.0
C404 C 0.05587 0.91701 0.79652 0.0
H405 H 0.15506 0.02035 0.67529 0.0
C406 C 0.11751 0.99713 0.66153 0.0
H407 H 0.02029 0.95821 0.66371 0.0
H408 H 0.05074 0.15054 0.7759 0.0
H409 H 0.03908 0.22851 0.72868 0.0
H410 H 0.02903 0.20097 0.67235 0.0
H411 H 0.03198 0.0951 0.663 0.0
C412 C 0.06025 0.98058 0.6762 0.0
C413 C 0.05003 0.99574 0.70992 0.0
C414 C 0.04409 0.05757 0.71508 0.0
C415 C 0.04648 0.07322 0.74761 0.0
C416 C 0.04597 0.13568 0.75187 0.0
C417 C 0.03982 0.18105 0.72491 0.0
C418 C 0.03443 0.16557 0.6932 0.0
C419 C 0.0366 0.10466 0.68819 0.0
H420 H 0.63949 0.48971 0.68708 0.0
C421 C 0.59042 0.47831 0.67714 0.0
H422 H 0.49111 0.45415 0.68995 0.0
H423 H 0.55661 0.38336 0.84152 0.0
H424 H 0.53865 0.28346 0.82472 0.0
H425 H 0.52636 0.27081 0.76591 0.0
H426 H 0.53161 0.3581 0.72354 0.0
C427 C 0.53997 0.46928 0.69793 0.0
C428 C 0.54996 0.47703 0.73323 0.0
C429 C 0.54741 0.42549 0.75763 0.0
C430 C 0.55532 0.43271 0.7915 0.0
C431 C 0.55159 0.3805 0.81541 0.0
C432 C 0.54122 0.32285 0.80611 0.0
C433 C 0.53424 0.31574 0.77301 0.0
C434 C 0.53725 0.36626 0.74894 0.0
H435 H 0.48204 0.54962 0.83451 0.0
C436 C 0.52272 0.52778 0.85022 0.0
H437 H 0.61304 0.47731 0.85097 0.0
H438 H 0.55153 0.58641 0.69287 0.0
H439 H 0.57437 0.68554 0.70956 0.0
H440 H 0.59652 0.69686 0.76805 0.0
H441 H 0.59462 0.60914 0.81023 0.0
C442 C 0.57089 0.49873 0.83635 0.0
C443 C 0.56589 0.49145 0.80084 0.0
C444 C 0.57023 0.54285 0.77641 0.0
C445 C 0.56066 0.53587 0.74258 0.0
C446 C 0.56115 0.58853 0.71882 0.0
C447 C 0.57378 0.64588 0.72808 0.0
C448 C 0.58601 0.65229 0.76102 0.0
C449 C 0.58434 0.60157 0.785 0.0
H450 H 0.46528 0.56488 0.30341 0.0
C451 C 0.51309 0.54627 0.3138 0.0
H452 H 0.60314 0.50416 0.30294 0.0
H453 H 0.48805 0.43102 0.1678 0.0
H454 H 0.49865 0.332 0.20111 0.0
H455 H 0.52816 0.32363 0.26056 0.0
H456 H 0.54767 0.4141 0.28707 0.0
C457 C 0.55712 0.52726 0.29343 0.0
C458 C 0.54117 0.53245 0.25743 0.0
C459 C 0.52977 0.47906 0.24241 0.0
C460 C 0.51208 0.48384 0.20821 0.0
C461 C 0.50129 0.42988 0.19374 0.0
C462 C 0.50718 0.3728 0.21256 0.0
C463 C 0.52384 0.36809 0.24603 0.0
C464 C 0.53499 0.42041 0.26093 0.0
H465 H 0.58539 0.57853 0.14102 0.0
C466 C 0.53582 0.56729 0.13159 0.0
H467 H 0.43895 0.53689 0.14516 0.0
H468 H 0.5676 0.64365 0.27762 0.0
H469 H 0.55286 0.74249 0.24481 0.0
H470 H 0.51346 0.75098 0.18656 0.0
H471 H 0.4899 0.6607 0.16066 0.0
C472 C 0.48972 0.54686 0.15324 0.0
C473 C 0.50582 0.54191 0.1892 0.0
C474 C 0.51626 0.5954 0.20432 0.0
C475 C 0.53571 0.59061 0.23828 0.0
C476 C 0.54991 0.64463 0.25227 0.0
C477 C 0.54212 0.70172 0.23365 0.0
C478 C 0.5202 0.70649 0.20084 0.0
C479 C 0.50729 0.65418 0.18622 0.0
loop_
_geom_bond_atom_site_label_1
_geom_bond_atom_site_label_2
_geom_bond_distance
_geom_bond_site_symmetry_2
_ccdc_geom_bond_type
C0 O16 1.251 . S
C0 O18 1.254 1_554 S
N1 C2 1.333 1_445 S
N1 C6 1.307 . S
N1 Zn7 2.020 . S
C2 N1 1.333 1_665 S
C2 C3 1.379 . S
C2 H20 0.952 . S
C3 C2 1.379 . S
C3 C4 1.390 1_665 S
C3 H30 0.949 . S
C4 C3 1.390 1_445 S
C4 C5 1.357 . S
C5 C4 1.357 . S
C5 C6 1.370 . S
C5 H31 0.950 . S
C6 N1 1.307 . S
C6 C5 1.370 . S
C6 H24 0.948 . S
Zn7 N1 2.020 . S
Zn7 O16 2.039 1_445 S
Zn7 O22 2.034 1_455 S
Zn7 O26 2.025 . S
Zn7 O28 2.024 1_545 S
C8 O27 1.246 1_554 S
C8 O28 1.249 . S
N9 C10 1.307 1_455 S
N9 C11 1.333 . S
N9 Zn15 2.020 . S
C10 N9 1.307 1_655 S
C10 C14 1.370 . S
C10 H21 0.948 . S
C11 N9 1.333 . S
C11 C12 1.379 . S
C11 H19 0.952 . S
C12 C11 1.379 . S
C12 C13 1.390 . S
C12 H32 0.949 . S
C13 C12 1.390 . S
C13 C14 1.357 1_455 S
C14 C10 1.370 . S
C14 C13 1.357 1_655 S
C14 H33 0.950 . S
Zn15 N9 2.020 . S
Zn15 O18 2.025 1_445 S
Zn15 O23 2.024 1_455 S
Zn15 O25 2.039 . S
Zn15 O27 2.034 1_545 S
O16 C0 1.251 . S
O16 Zn7 2.039 1_665 S
C17 O22 1.246 . S
C17 O23 1.249 1_554 S
O18 C0 1.254 1_556 S
O18 Zn15 2.025 1_665 S
H19 C11 0.952 . S
H20 C2 0.952 . S
H21 C10 0.948 . S
O22 Zn7 2.034 1_655 S
O22 C17 1.246 . S
O23 Zn15 2.024 1_655 S
O23 C17 1.249 1_556 S
H24 C6 0.948 . S
O25 Zn15 2.039 . S
O25 C29 1.251 1_556 S
O26 Zn7 2.025 . S
O26 C29 1.254 . S
O27 C8 1.246 1_556 S
O27 Zn15 2.034 1_565 S
O28 Zn7 2.024 1_565 S
O28 C8 1.249 . S
C29 O25 1.251 1_554 S
C29 O26 1.254 . S
H30 C3 0.949 . S
H31 C5 0.950 . S
H32 C12 0.949 . S
H33 C14 0.950 . S
C34 O50 1.251 . S
C34 O52 1.254 . S
N35 C36 1.333 . S
N35 C40 1.307 . S
N35 Zn41 2.020 . S
C36 N35 1.333 . S
C36 C37 1.379 . S
C36 H54 0.952 . S
C37 C36 1.379 . S
C37 C38 1.390 . S
C37 H64 0.949 . S
C38 C37 1.390 . S
C38 C39 1.357 . S
C39 C38 1.357 . S
C39 C40 1.370 . S
C39 H65 0.950 . S
C40 N35 1.307 . S
C40 C39 1.370 . S
C40 H58 0.948 . S
Zn41 N35 2.020 . S
Zn41 O50 2.039 . S
Zn41 O56 2.034 . S
Zn41 O60 2.025 . S
Zn41 O62 2.024 . S
C42 O61 1.246 . S
C42 O62 1.249 . S
N43 C44 1.307 . S
N43 C45 1.333 . S
N43 Zn49 2.020 . S
C44 N43 1.307 . S
C44 C48 1.370 . S
C44 H55 0.948 . S
C45 N43 1.333 . S
C45 C46 1.379 . S
C45 H53 0.952 . S
C46 C45 1.379 . S
C46 C47 1.390 . S
C46 H66 0.949 . S
C47 C46 1.390 . S
C47 C48 1.357 . S
C48 C44 1.370 . S
C48 C47 1.357 . S
C48 H67 0.950 . S
Zn49 N43 2.020 . S
Zn49 O52 2.025 . S
Zn49 O57 2.024 . S
Zn49 O59 2.039 . S
Zn49 O61 2.034 . S
O50 C34 1.251 . S
O50 Zn41 2.039 . S
C51 O56 1.246 . S
C51 O57 1.249 . S
O52 C34 1.254 . S
O52 Zn49 2.025 . S
H53 C45 0.952 . S
H54 C36 0.952 . S
H55 C44 0.948 . S
O56 Zn41 2.034 . S
O56 C51 1.246 . S
O57 Zn49 2.024 . S
O57 C51 1.249 . S
H58 C40 0.948 . S
O59 Zn49 2.039 . S
O59 C63 1.251 . S
O60 Zn41 2.025 . S
O60 C63 1.254 . S
O61 C42 1.246 . S
O61 Zn49 2.034 . S
O62 Zn41 2.024 . S
O62 C42 1.249 . S
C63 O59 1.251 . S
C63 O60 1.254 . S
H64 C37 0.949 . S
H65 C39 0.950 . S
H66 C46 0.949 . S
H67 C48 0.950 . S
H68 C75 0.929 . S
H69 C78 0.930 . S
H70 C80 0.929 . S
H71 C72 0.969 . S
C72 H71 0.969 . S
C72 O73 1.550 . S
C72 H74 0.973 . S
O73 C72 1.550 . S
O73 C79 1.412 . S
H74 C72 0.973 . S
C75 H68 0.929 . S
C75 C76 1.400 . S
C75 C77 1.364 . S
C76 C75 1.400 . S
C76 C80 1.377 . S
C77 C75 1.364 . S
C77 C78 1.374 1_465 S
C78 H69 0.930 . S
C78 C77 1.374 1_645 S
C78 C79 1.383 . S
C79 O73 1.412 . S
C79 C78 1.383 . S
C79 C80 1.394 1_645 S
C80 H70 0.929 . S
C80 C76 1.377 . S
C80 C79 1.394 1_465 S
H81 C88 0.929 . S
H82 C91 0.930 1_565 S
H83 C93 0.929 . S
H84 C85 0.969 . S
C85 H84 0.969 . S
C85 O86 1.550 . S
C85 H87 0.973 . S
O86 C85 1.550 . S
O86 C92 1.416 1_565 S
H87 C85 0.973 . S
C88 H81 0.929 . S
C88 C89 1.400 . S
C88 C90 1.364 . S
C89 C88 1.400 . S
C89 C93 1.377 . S
C90 C88 1.364 . S
C90 C91 1.374 1_455 S
C91 H82 0.930 1_545 S
C91 C90 1.374 1_655 S
C91 C92 1.385 . S
C92 O86 1.416 1_545 S
C92 C91 1.385 . S
C92 C93 1.384 1_655 S
C93 H83 0.929 . S
C93 C89 1.377 . S
C93 C92 1.384 1_455 S
H94 C101 0.929 . S
H95 C104 0.930 . S
H96 C106 0.929 1_554 S
H97 C98 0.969 . S
C98 H97 0.969 . S
C98 O99 1.550 . S
C98 H100 0.973 . S
O99 C98 1.550 . S
O99 C105 1.412 . S
H100 C98 0.973 . S
C101 H94 0.929 . S
C101 C102 1.400 . S
C101 C103 1.364 . S
C102 C101 1.400 . S
C102 C106 1.377 . S
C103 C101 1.364 . S
C103 C104 1.374 . S
C104 H95 0.930 . S
C104 C103 1.374 . S
C104 C105 1.383 . S
C105 O99 1.412 . S
C105 C104 1.383 . S
C105 C106 1.394 . S
C106 H96 0.929 1_556 S
C106 C102 1.377 . S
C106 C105 1.394 . S
H107 C114 0.929 . S
H108 C117 0.930 . S
H109 C119 0.930 1_556 S
H110 C111 0.969 . S
C111 H110 0.969 . S
C111 O112 1.550 . S
C111 H113 0.973 . S
O112 C111 1.550 . S
O112 C118 1.412 . S
H113 C111 0.973 . S
C114 H107 0.929 . S
C114 C115 1.400 . S
C114 C116 1.364 . S
C115 C114 1.400 . S
C115 C119 1.377 . S
C116 C114 1.364 . S
C116 C117 1.374 . S
C117 H108 0.930 . S
C117 C116 1.374 . S
C117 C118 1.383 . S
C118 O112 1.412 . S
C118 C117 1.383 . S
C118 C119 1.394 . S
C119 H109 0.930 1_554 S
C119 C115 1.377 . S
C119 C118 1.394 . S
H120 C121 0.951 . S
C121 H120 0.951 . S
C121 C127 1.265 . S
H122 C127 0.950 . S
H123 C131 0.949 . S
H124 C132 0.950 . S
H125 C133 0.951 . S
H126 C134 0.951 . S
C127 C121 1.265 . S
C127 H122 0.950 . S
C127 C128 1.478 . S
C128 C127 1.478 . S
C128 C129 1.397 . S
C128 C145 1.394 1_554 S
C129 C128 1.397 . S
C129 C130 1.438 . S
C129 C134 1.429 . S
C130 C129 1.438 . S
C130 C131 1.428 . S
C130 C143 1.394 . S
C131 H123 0.949 . S
C131 C130 1.428 . S
C131 C132 1.345 . S
C132 H124 0.950 . S
C132 C131 1.345 . S
C132 C133 1.424 . S
C133 H125 0.951 . S
C133 C132 1.424 . S
C133 C134 1.347 . S
C134 H126 0.951 . S
C134 C129 1.429 . S
C134 C133 1.347 . S
H135 C136 0.951 . S
C136 H135 0.951 . S
C136 C142 1.265 . S
H137 C142 0.950 . S
H138 C146 0.949 . S
H139 C147 0.950 . S
H140 C148 0.951 . S
H141 C149 0.951 . S
C142 C136 1.265 . S
C142 H137 0.950 . S
C142 C143 1.478 . S
C143 C130 1.394 . S
C143 C142 1.478 . S
C143 C144 1.397 1_554 S
C144 C143 1.397 1_556 S
C144 C145 1.438 . S
C144 C149 1.429 . S
C145 C128 1.394 1_556 S
C145 C144 1.438 . S
C145 C146 1.428 . S
C146 H138 0.949 . S
C146 C145 1.428 . S
C146 C147 1.345 . S
C147 H139 0.950 . S
C147 C146 1.345 . S
C147 C148 1.424 . S
C148 H140 0.951 . S
C148 C147 1.424 . S
C148 C149 1.347 . S
C149 H141 0.951 . S
C149 C144 1.429 . S
C149 C148 1.347 . S
H150 C151 0.951 . S
C151 H150 0.951 . S
C151 C157 1.265 . S
H152 C157 0.950 . S
H153 C161 0.949 . S
H154 C162 0.950 . S
H155 C163 0.951 . S
H156 C164 0.951 . S
C157 C151 1.265 . S
C157 H152 0.950 . S
C157 C158 1.478 . S
C158 C157 1.478 . S
C158 C159 1.397 . S
C158 C175 1.394 1_554 S
C159 C158 1.397 . S
C159 C160 1.438 . S
C159 C164 1.429 . S
C160 C159 1.438 . S
C160 C161 1.428 . S
C160 C173 1.394 . S
C161 H153 0.949 . S
C161 C160 1.428 . S
C161 C162 1.345 . S
C162 H154 0.950 . S
C162 C161 1.345 . S
C162 C163 1.424 . S
C163 H155 0.951 . S
C163 C162 1.424 . S
C163 C164 1.347 . S
C164 H156 0.951 . S
C164 C159 1.429 . S
C164 C163 1.347 . S
H165 C166 0.954 . S
C166 H165 0.954 . S
C166 C172 1.265 1_554 S
H167 C172 0.950 . S
H168 C176 0.949 . S
H169 C177 0.950 . S
H170 C178 0.951 . S
H171 C179 0.951 . S
C172 C166 1.265 1_556 S
C172 H167 0.950 . S
C172 C173 1.478 1_556 S
C173 C160 1.394 . S
C173 C172 1.478 1_554 S
C173 C174 1.397 1_554 S
C174 C173 1.397 1_556 S
C174 C175 1.438 . S
C174 C179 1.429 . S
C175 C158 1.394 1_556 S
C175 C174 1.438 . S
C175 C176 1.428 . S
C176 H168 0.949 . S
C176 C175 1.428 . S
C176 C177 1.345 . S
C177 H169 0.950 . S
C177 C176 1.345 . S
C177 C178 1.424 . S
C178 H170 0.951 . S
C178 C177 1.424 . S
C178 C179 1.347 . S
C179 H171 0.951 . S
C179 C174 1.429 . S
C179 C178 1.347 . S
H180 C181 0.951 . S
C181 H180 0.951 . S
C181 C187 1.265 . S
H182 C187 0.950 . S
H183 C191 0.949 . S
H184 C192 0.950 . S
H185 C193 0.951 . S
H186 C194 0.951 . S
C187 C181 1.265 . S
C187 H182 0.950 . S
C187 C188 1.478 . S
C188 C187 1.478 . S
C188 C189 1.397 1_554 S
C188 C205 1.394 . S
C189 C188 1.397 1_556 S
C189 C190 1.438 . S
C189 C194 1.429 . S
C190 C189 1.438 . S
C190 C191 1.428 . S
C190 C203 1.394 1_556 S
C191 H183 0.949 . S
C191 C190 1.428 . S
C191 C192 1.345 . S
C192 H184 0.950 . S
C192 C191 1.345 . S
C192 C193 1.424 . S
C193 H185 0.951 . S
C193 C192 1.424 . S
C193 C194 1.347 . S
C194 H186 0.951 . S
C194 C189 1.429 . S
C194 C193 1.347 . S
H195 C196 0.951 . S
C196 H195 0.951 . S
C196 C202 1.265 . S
H197 C202 0.950 . S
H198 C206 0.949 . S
H199 C207 0.950 . S
H200 C208 0.951 . S
H201 C209 0.951 . S
C202 C196 1.265 . S
C202 H197 0.950 . S
C202 C203 1.478 . S
C203 C190 1.394 1_554 S
C203 C202 1.478 . S
C203 C204 1.397 . S
C204 C203 1.397 . S
C204 C205 1.438 . S
C204 C209 1.429 . S
C205 C188 1.394 . S
C205 C204 1.438 . S
C205 C206 1.428 . S
C206 H198 0.949 . S
C206 C205 1.428 . S
C206 C207 1.345 . S
C207 H199 0.950 . S
C207 C206 1.345 . S
C207 C208 1.424 . S
C208 H200 0.951 . S
C208 C207 1.424 . S
C208 C209 1.347 . S
C209 H201 0.951 . S
C209 C204 1.429 . S
C209 C208 1.347 . S
H210 C211 0.951 1_556 S
C211 H210 0.951 1_554 S
C211 C217 1.265 . S
H212 C217 0.950 . S
H213 C221 0.949 . S
H214 C222 0.950 . S
H215 C223 0.951 . S
H216 C224 0.951 . S
C217 C211 1.265 . S
C217 H212 0.950 . S
C217 C218 1.479 . S
C218 C217 1.479 . S
C218 C219 1.410 . S
C218 C235 1.380 1_554 S
C219 C218 1.410 . S
C219 C220 1.438 . S
C219 C224 1.429 . S
C220 C219 1.438 . S
C220 C221 1.428 . S
C220 C233 1.394 1_554 S
C221 H213 0.949 . S
C221 C220 1.428 . S
C221 C222 1.345 . S
C222 H214 0.950 . S
C222 C221 1.345 . S
C222 C223 1.424 . S
C223 H215 0.951 . S
C223 C222 1.424 . S
C223 C224 1.347 . S
C224 H216 0.951 . S
C224 C219 1.429 . S
C224 C223 1.347 . S
H225 C226 0.951 . S
C226 H225 0.951 . S
C226 C232 1.265 . S
H227 C232 0.950 . S
H228 C236 0.949 . S
H229 C237 0.950 . S
H230 C238 0.951 . S
H231 C239 0.951 . S
C232 C226 1.265 . S
C232 H227 0.950 . S
C232 C233 1.478 . S
C233 C220 1.394 1_556 S
C233 C232 1.478 . S
C233 C234 1.397 . S
C234 C233 1.397 . S
C234 C235 1.438 . S
C234 C239 1.429 . S
C235 C218 1.380 1_556 S
C235 C234 1.438 . S
C235 C236 1.428 . S
C236 H228 0.949 . S
C236 C235 1.428 . S
C236 C237 1.345 . S
C237 H229 0.950 . S
C237 C236 1.345 . S
C237 C238 1.424 . S
C238 H230 0.951 . S
C238 C237 1.424 . S
C238 C239 1.347 . S
C239 H231 0.951 . S
C239 C234 1.429 . S
C239 C238 1.347 . S
H240 C241 0.951 . S
C241 H240 0.951 . S
C241 C247 1.265 . S
H242 C247 0.950 . S
H243 C251 0.949 . S
H244 C252 0.950 . S
H245 C253 0.951 . S
H246 C254 0.951 . S
C247 C241 1.265 . S
C247 H242 0.950 . S
C247 C248 1.478 . S
C248 C247 1.478 . S
C248 C249 1.397 . S
C248 C265 1.394 . S
C249 C248 1.397 . S
C249 C250 1.438 . S
C249 C254 1.429 . S
C250 C249 1.438 . S
C250 C251 1.428 . S
C250 C263 1.394 . S
C251 H243 0.949 . S
C251 C250 1.428 . S
C251 C252 1.345 . S
C252 H244 0.950 . S
C252 C251 1.345 . S
C252 C253 1.424 . S
C253 H245 0.951 . S
C253 C252 1.424 . S
C253 C254 1.347 . S
C254 H246 0.951 . S
C254 C249 1.429 . S
C254 C253 1.347 . S
H255 C256 0.951 . S
C256 H255 0.951 . S
C256 C262 1.265 . S
H257 C262 0.950 . S
H258 C266 0.949 . S
H259 C267 0.950 . S
H260 C268 0.951 . S
H261 C269 0.951 . S
C262 C256 1.265 . S
C262 H257 0.950 . S
C262 C263 1.478 . S
C263 C250 1.394 . S
C263 C262 1.478 . S
C263 C264 1.397 . S
C264 C263 1.397 . S
C264 C265 1.438 . S
C264 C269 1.429 . S
C265 C248 1.394 . S
C265 C264 1.438 . S
C265 C266 1.428 . S
C266 H258 0.949 . S
C266 C265 1.428 . S
C266 C267 1.345 . S
C267 H259 0.950 . S
C267 C266 1.345 . S
C267 C268 1.424 . S
C268 H260 0.951 . S
C268 C267 1.424 . S
C268 C269 1.347 . S
C269 H261 0.951 . S
C269 C264 1.429 . S
C269 C268 1.347 . S
H270 C271 0.951 . S
C271 H270 0.951 . S
C271 C277 1.265 . S
H272 C277 0.950 . S
H273 C281 0.949 . S
H274 C282 0.950 . S
H275 C283 0.951 . S
H276 C284 0.951 . S
C277 C271 1.265 . S
C277 H272 0.950 . S
C277 C278 1.478 . S
C278 C277 1.478 . S
C278 C279 1.397 . S
C278 C295 1.394 . S
C279 C278 1.397 . S
C279 C280 1.438 . S
C279 C284 1.429 . S
C280 C279 1.438 . S
C280 C281 1.428 . S
C280 C293 1.394 . S
C281 H273 0.949 . S
C281 C280 1.428 . S
C281 C282 1.345 . S
C282 H274 0.950 . S
C282 C281 1.345 . S
C282 C283 1.424 . S
C283 H275 0.951 . S
C283 C282 1.424 . S
C283 C284 1.347 . S
C284 H276 0.951 . S
C284 C279 1.429 . S
C284 C283 1.347 . S
H285 C286 0.951 . S
C286 H285 0.951 . S
C286 C292 1.265 . S
H287 C292 0.950 . S
H288 C296 0.949 . S
H289 C297 0.950 . S
H290 C298 0.951 . S
H291 C299 0.951 . S
C292 C286 1.265 . S
C292 H287 0.950 . S
C292 C293 1.478 . S
C293 C280 1.394 . S
C293 C292 1.478 . S
C293 C294 1.397 . S
C294 C293 1.397 . S
C294 C295 1.438 . S
C294 C299 1.429 . S
C295 C278 1.394 . S
C295 C294 1.438 . S
C295 C296 1.428 . S
C296 H288 0.949 . S
C296 C295 1.428 . S
C296 C297 1.345 . S
C297 H289 0.950 . S
C297 C296 1.345 . S
C297 C298 1.424 . S
C298 H290 0.951 . S
C298 C297 1.424 . S
C298 C299 1.347 . S
C299 H291 0.951 . S
C299 C294 1.429 . S
C299 C298 1.347 . S
H300 C301 0.951 . S
C301 H300 0.951 . S
C301 C307 1.265 . S
H302 C307 0.950 . S
H303 C311 0.949 . S
H304 C312 0.950 . S
H305 C313 0.951 . S
H306 C314 0.951 . S
C307 C301 1.265 . S
C307 H302 0.950 . S
C307 C308 1.478 . S
C308 C307 1.478 . S
C308 C309 1.397 . S
C308 C325 1.394 . S
C309 C308 1.397 . S
C309 C310 1.438 . S
C309 C314 1.429 . S
C310 C309 1.438 . S
C310 C311 1.428 . S
C310 C323 1.394 . S
C311 H303 0.949 . S
C311 C310 1.428 . S
C311 C312 1.345 . S
C312 H304 0.950 . S
C312 C311 1.345 . S
C312 C313 1.424 . S
C313 H305 0.951 . S
C313 C312 1.424 . S
C313 C314 1.347 . S
C314 H306 0.951 . S
C314 C309 1.429 . S
C314 C313 1.347 . S
H315 C316 0.951 . S
C316 H315 0.951 . S
C316 C322 1.265 . S
H317 C322 0.950 . S
H318 C326 0.949 . S
H319 C327 0.950 . S
H320 C328 0.951 . S
H321 C329 0.951 . S
C322 C316 1.265 . S
C322 H317 0.950 . S
C322 C323 1.478 . S
C323 C310 1.394 . S
C323 C322 1.478 . S
C323 C324 1.397 . S
C324 C323 1.397 . S
C324 C325 1.438 . S
C324 C329 1.429 . S
C325 C308 1.394 . S
C325 C324 1.438 . S
C325 C326 1.428 . S
C326 H318 0.949 . S
C326 C325 1.428 . S
C326 C327 1.345 . S
C327 H319 0.950 . S
C327 C326 1.345 . S
C327 C328 1.424 . S
C328 H320 0.951 . S
C328 C327 1.424 . S
C328 C329 1.347 . S
C329 H321 0.951 . S
C329 C324 1.429 . S
C329 C328 1.347 . S
H330 C331 0.951 . S
C331 H330 0.951 . S
C331 C337 1.265 . S
H332 C337 0.950 . S
H333 C341 0.949 . S
H334 C342 0.950 . S
H335 C343 0.951 . S
H336 C344 0.951 . S
C337 C331 1.265 . S
C337 H332 0.950 . S
C337 C338 1.478 . S
C338 C337 1.478 . S
C338 C339 1.397 . S
C338 C355 1.394 . S
C339 C338 1.397 . S
C339 C340 1.438 . S
C339 C344 1.429 . S
C340 C339 1.438 . S
C340 C341 1.428 . S
C340 C353 1.394 . S
C341 H333 0.949 . S
C341 C340 1.428 . S
C341 C342 1.345 . S
C342 H334 0.950 . S
C342 C341 1.345 . S
C342 C343 1.424 . S
C343 H335 0.951 . S
C343 C342 1.424 . S
C343 C344 1.347 . S
C344 H336 0.951 . S
C344 C339 1.429 . S
C344 C343 1.347 . S
H345 C346 0.951 . S
C346 H345 0.951 . S
C346 C352 1.265 . S
H347 C352 0.950 . S
H348 C356 0.949 . S
H349 C357 0.950 . S
H350 C358 0.951 . S
H351 C359 0.951 . S
C352 C346 1.265 . S
C352 H347 0.950 . S
C352 C353 1.478 . S
C353 C340 1.394 . S
C353 C352 1.478 . S
C353 C354 1.397 . S
C354 C353 1.397 . S
C354 C355 1.438 . S
C354 C359 1.429 . S
C355 C338 1.394 . S
C355 C354 1.438 . S
C355 C356 1.428 . S
C356 H348 0.949 . S
C356 C355 1.428 . S
C356 C357 1.345 . S
C357 H349 0.950 . S
C357 C356 1.345 . S
C357 C358 1.424 . S
C358 H350 0.951 . S
C358 C357 1.424 . S
C358 C359 1.347 . S
C359 H351 0.951 . S
C359 C354 1.429 . S
C359 C358 1.347 . S
H360 C361 0.951 1_545 S
C361 H360 0.951 1_565 S
C361 C367 1.265 1_455 S
H362 C367 0.950 . S
H363 C371 0.949 . S
H364 C372 0.950 . S
H365 C373 0.951 . S
H366 C374 0.951 . S
C367 C361 1.265 1_655 S
C367 H362 0.950 . S
C367 C368 1.478 1_655 S
C368 C367 1.478 1_455 S
C368 C369 1.397 1_455 S
C368 C385 1.394 1_565 S
C369 C368 1.397 1_655 S
C369 C370 1.438 1_655 S
C369 C374 1.429 . S
C370 C369 1.438 1_455 S
C370 C371 1.428 1_455 S
C370 C383 1.394 . S
C371 H363 0.949 . S
C371 C370 1.428 1_655 S
C371 C372 1.345 . S
C372 H364 0.950 . S
C372 C371 1.345 . S
C372 C373 1.424 . S
C373 H365 0.951 . S
C373 C372 1.424 . S
C373 C374 1.347 . S
C374 H366 0.951 . S
C374 C369 1.429 . S
C374 C373 1.347 . S
H375 C376 0.951 1_655 S
C376 H375 0.951 1_455 S
C376 C382 1.265 . S
H377 C382 0.950 1_545 S
H378 C386 0.949 . S
H379 C387 0.950 . S
H380 C388 0.951 . S
H381 C389 0.951 . S
C382 C376 1.265 . S
C382 H377 0.950 1_565 S
C382 C383 1.478 . S
C383 C370 1.394 . S
C383 C382 1.478 . S
C383 C384 1.397 1_565 S
C384 C383 1.397 1_545 S
C384 C385 1.438 . S
C384 C389 1.429 . S
C385 C368 1.394 1_545 S
C385 C384 1.438 . S
C385 C386 1.428 . S
C386 H378 0.949 . S
C386 C385 1.428 . S
C386 C387 1.345 . S
C387 H379 0.950 . S
C387 C386 1.345 . S
C387 C388 1.424 . S
C388 H380 0.951 . S
C388 C387 1.424 . S
C388 C389 1.347 . S
C389 H381 0.951 . S
C389 C384 1.429 . S
C389 C388 1.347 . S
H390 C391 0.951 1_655 S
C391 H390 0.951 1_455 S
C391 C397 1.265 . S
H392 C397 0.950 . S
H393 C401 0.949 . S
H394 C402 0.950 . S
H395 C403 0.951 . S
H396 C404 0.951 . S
C397 C391 1.265 . S
C397 H392 0.950 . S
C397 C398 1.478 . S
C398 C397 1.478 . S
C398 C399 1.397 . S
C398 C415 1.394 . S
C399 C398 1.397 . S
C399 C400 1.438 . S
C399 C404 1.429 1_545 S
C400 C399 1.438 . S
C400 C401 1.428 1_545 S
C400 C413 1.394 . S
C401 H393 0.949 . S
C401 C400 1.428 1_565 S
C401 C402 1.345 . S
C402 H394 0.950 . S
C402 C401 1.345 . S
C402 C403 1.424 . S
C403 H395 0.951 . S
C403 C402 1.424 . S
C403 C404 1.347 . S
C404 H396 0.951 . S
C404 C399 1.429 1_565 S
C404 C403 1.347 . S
H405 C406 0.951 . S
C406 H405 0.951 . S
C406 C412 1.265 1_455 S
H407 C412 0.950 . S
H408 C416 0.949 . S
H409 C417 0.950 . S
H410 C418 0.951 . S
H411 C419 0.951 . S
C412 C406 1.265 1_655 S
C412 H407 0.950 . S
C412 C413 1.478 1_655 S
C413 C400 1.394 . S
C413 C412 1.478 1_455 S
C413 C414 1.397 . S
C414 C413 1.397 . S
C414 C415 1.438 . S
C414 C419 1.429 1_455 S
C415 C398 1.394 . S
C415 C414 1.438 . S
C415 C416 1.428 . S
C416 H408 0.949 . S
C416 C415 1.428 . S
C416 C417 1.345 1_455 S
C417 H409 0.950 . S
C417 C416 1.345 1_655 S
C417 C418 1.424 . S
C418 H410 0.951 . S
C418 C417 1.424 . S
C418 C419 1.347 . S
C419 H411 0.951 . S
C419 C414 1.429 1_655 S
C419 C418 1.347 . S
H420 C421 0.951 . S
C421 H420 0.951 . S
C421 C427 1.265 . S
H422 C427 0.950 . S
H423 C431 0.949 . S
H424 C432 0.950 . S
H425 C433 0.951 . S
H426 C434 0.951 . S
C427 C421 1.265 . S
C427 H422 0.950 . S
C427 C428 1.478 . S
C428 C427 1.478 . S
C428 C429 1.397 . S
C428 C445 1.394 . S
C429 C428 1.397 . S
C429 C430 1.438 . S
C429 C434 1.429 . S
C430 C429 1.438 . S
C430 C431 1.428 . S
C430 C443 1.394 . S
C431 H423 0.949 . S
C431 C430 1.428 . S
C431 C432 1.345 . S
C432 H424 0.950 . S
C432 C431 1.345 . S
C432 C433 1.424 . S
C433 H425 0.951 . S
C433 C432 1.424 . S
C433 C434 1.347 . S
C434 H426 0.951 . S
C434 C429 1.429 . S
C434 C433 1.347 . S
H435 C436 0.951 . S
C436 H435 0.951 . S
C436 C442 1.265 . S
H437 C442 0.950 . S
H438 C446 0.949 . S
H439 C447 0.950 . S
H440 C448 0.951 . S
H441 C449 0.951 . S
C442 C436 1.265 . S
C442 H437 0.950 . S
C442 C443 1.478 . S
C443 C430 1.394 . S
C443 C442 1.478 . S
C443 C444 1.397 . S
C444 C443 1.397 . S
C444 C445 1.438 . S
C444 C449 1.429 . S
C445 C428 1.394 . S
C445 C444 1.438 . S
C445 C446 1.428 . S
C446 H438 0.949 . S
C446 C445 1.428 . S
C446 C447 1.345 . S
C447 H439 0.950 . S
C447 C446 1.345 . S
C447 C448 1.424 . S
C448 H440 0.951 . S
C448 C447 1.424 . S
C448 C449 1.347 . S
C449 H441 0.951 . S
C449 C444 1.429 . S
C449 C448 1.347 . S
H450 C451 0.951 . S
C451 H450 0.951 . S
C451 C457 1.265 . S
H452 C457 0.950 . S
H453 C461 0.949 . S
H454 C462 0.950 . S
H455 C463 0.951 . S
H456 C464 0.951 . S
C457 C451 1.265 . S
C457 H452 0.950 . S
C457 C458 1.478 . S
C458 C457 1.478 . S
C458 C459 1.397 . S
C458 C475 1.394 . S
C459 C458 1.397 . S
C459 C460 1.438 . S
C459 C464 1.429 . S
C460 C459 1.438 . S
C460 C461 1.428 . S
C460 C473 1.394 . S
C461 H453 0.949 . S
C461 C460 1.428 . S
C461 C462 1.345 . S
C462 H454 0.950 . S
C462 C461 1.345 . S
C462 C463 1.424 . S
C463 H455 0.951 . S
C463 C462 1.424 . S
C463 C464 1.347 . S
C464 H456 0.951 . S
C464 C459 1.429 . S
C464 C463 1.347 . S
H465 C466 0.951 . S
C466 H465 0.951 . S
C466 C472 1.265 . S
H467 C472 0.950 . S
H468 C476 0.949 . S
H469 C477 0.950 . S
H470 C478 0.951 . S
H471 C479 0.951 . S
C472 C466 1.265 . S
C472 H467 0.950 . S
C472 C473 1.478 . S
C473 C460 1.394 . S
C473 C472 1.478 . S
C473 C474 1.397 . S
C474 C473 1.397 . S
C474 C475 1.438 . S
C474 C479 1.429 . S
C475 C458 1.394 . S
C475 C474 1.438 . S
C475 C476 1.428 . S
C476 H468 0.949 . S
C476 C475 1.428 . S
C476 C477 1.345 . S
C477 H469 0.950 . S
C477 C476 1.345 . S
C477 C478 1.424 . S
C478 H470 0.951 . S
C478 C477 1.424 . S
C478 C479 1.347 . S
C479 H471 0.951 . S
C479 C474 1.429 . S
C479 C478 1.347 . S
C136 C111 1.234 . S
C121 C29 1.397 . S
C151 C8 1.407 . S
C166 C98 1.315 1_554 S
C181 C0 1.498 . S
C196 C115 1.470 . S
C211 C17 1.496 . S
C226 C102 1.473 . S
C241 C63 1.402 . S
C256 C85 1.210 . S
C271 C42 1.405 . S
C286 C72 1.256 . S
C316 C89 1.462 . S
C301 C34 1.483 . S
C346 C76 1.462 . S
C331 C51 1.498 . S
C361 C4 1.497 1_565 S
C376 C77 1.513 . S
C391 C13 1.507 . S
C406 C90 1.510 . S
C436 C103 1.512 . S
C421 C38 1.496 . S
C451 C47 1.505 . S
C466 C116 1.508 . S
