# Generated by pormake.
# Topology nom, (4,4)-cn, num edge types: 1
# Building blocks:
#     Node 0, Type 0, BuildingBlock: MIFKUJ_clean_linker_1, # of connection points: 4
#     Node 1, Type 0, BuildingBlock: MIFKUJ_clean_linker_1, # of connection points: 4
#     Node 2, Type 0, BuildingBlock: MIFKUJ_clean_linker_1, # of connection points: 4
#     Node 3, Type 0, BuildingBlock: MIFKUJ_clean_linker_1, # of connection points: 4
#     Node 4, Type 0, BuildingBlock: MIFKUJ_clean_linker_1, # of connection points: 4
#     Node 5, Type 0, BuildingBlock: MIFKUJ_clean_linker_1, # of connection points: 4
#     Node 6, Type 1, BuildingBlock: AZAVOO_clean_sbu_0, # of connection points: 4
#     Node 7, Type 1, BuildingBlock: AZAVOO_clean_sbu_0, # of connection points: 4
#     Node 8, Type 1, BuildingBlock: AZAVOO_clean_sbu_0, # of connection points: 4
#     Node 9, Type 1, BuildingBlock: AZAVOO_clean_sbu_0, # of connection points: 4
#     Node 10, Type 1, BuildingBlock: AZAVOO_clean_sbu_0, # of connection points: 4
#     Node 11, Type 1, BuildingBlock: AZAVOO_clean_sbu_0, # of connection points: 4
#     Edge 12, Type (0, 1), BuildingBlock: ZUJKAS_clean_linker_0, # of connection points: 2
#     Edge 13, Type (0, 1), BuildingBlock: ZUJKAS_clean_linker_0, # of connection points: 2
#     Edge 14, Type (0, 1), BuildingBlock: ZUJKAS_clean_linker_0, # of connection points: 2
#     Edge 15, Type (0, 1), BuildingBlock: ZUJKAS_clean_linker_0, # of connection points: 2
#     Edge 16, Type (0, 1), BuildingBlock: ZUJKAS_clean_linker_0, # of connection points: 2
#     Edge 17, Type (0, 1), BuildingBlock: ZUJKAS_clean_linker_0, # of connection points: 2
#     Edge 18, Type (0, 1), BuildingBlock: ZUJKAS_clean_linker_0, # of connection points: 2
#     Edge 19, Type (0, 1), BuildingBlock: ZUJKAS_clean_linker_0, # of connection points: 2
#     Edge 20, Type (0, 1), BuildingBlock: ZUJKAS_clean_linker_0, # of connection points: 2
#     Edge 21, Type (0, 1), BuildingBlock: ZUJKAS_clean_linker_0, # of connection points: 2
#     Edge 22, Type (0, 1), BuildingBlock: ZUJKAS_clean_linker_0, # of connection points: 2
#     Edge 23, Type (0, 1), BuildingBlock: ZUJKAS_clean_linker_0, # of connection points: 2
#     Edge 24, Type (0, 1), BuildingBlock: ZUJKAS_clean_linker_0, # of connection points: 2
#     Edge 25, Type (0, 1), BuildingBlock: ZUJKAS_clean_linker_0, # of connection points: 2
#     Edge 26, Type (0, 1), BuildingBlock: ZUJKAS_clean_linker_0, # of connection points: 2
#     Edge 27, Type (0, 1), BuildingBlock: ZUJKAS_clean_linker_0, # of connection points: 2
#     Edge 28, Type (0, 1), BuildingBlock: ZUJKAS_clean_linker_0, # of connection points: 2
#     Edge 29, Type (0, 1), BuildingBlock: ZUJKAS_clean_linker_0, # of connection points: 2
#     Edge 30, Type (0, 1), BuildingBlock: ZUJKAS_clean_linker_0, # of connection points: 2
#     Edge 31, Type (0, 1), BuildingBlock: ZUJKAS_clean_linker_0, # of connection points: 2
#     Edge 32, Type (0, 1), BuildingBlock: ZUJKAS_clean_linker_0, # of connection points: 2
#     Edge 33, Type (0, 1), BuildingBlock: ZUJKAS_clean_linker_0, # of connection points: 2
#     Edge 34, Type (0, 1), BuildingBlock: ZUJKAS_clean_linker_0, # of connection points: 2
#     Edge 35, Type (0, 1), BuildingBlock: ZUJKAS_clean_linker_0, # of connection points: 2
# Relax obj value: 0.034
# Max RMSD: 0.155
# Mean RMSD: 0.122
data_MOF--net-nom--node1-AZAVOO_clean_sbu_0--node2-MIFKUJ_clean_linker_1--edge1-ZUJKAS_clean_linker_0
_symmetry_space_group_name_H-M    P1
_symmetry_Int_Tables_number       1
_symmetry_cell_setting            triclinic
loop_
_symmetry_equiv_pos_as_xyz
'x, y, z'
_cell_length_a     66.534654
_cell_length_b     67.112015
_cell_length_c     68.509279
_cell_angle_alpha  90.942866
_cell_angle_beta   90.919603
_cell_angle_gamma 119.99403
loop_
_atom_site_label
_atom_site_type_symbol
_atom_site_fract_x
_atom_site_fract_y
_atom_site_fract_z
_atom_type_partial_charge
H0 H 0.97631 0.4621 0.28803 0.0
H1 H 0.94672 0.44834 0.26173 0.0
H2 H 0.92225 0.49277 0.2841 0.0
H3 H 0.95223 0.50681 0.31013 0.0
H4 H 0.01211 0.50823 0.29629 0.0
H5 H 0.94186 0.44859 0.328 0.0
H6 H 0.9014 0.43388 0.33687 0.0
H7 H 0.92198 0.49666 0.37028 0.0
H8 H 0.96205 0.51155 0.36079 0.0
H9 H 0.02589 0.54038 0.37693 0.0
H10 H 0.0562 0.55489 0.40269 0.0
H11 H 0.08675 0.51825 0.37532 0.0
H12 H 0.05623 0.50355 0.34974 0.0
H13 H 0.99292 0.49798 0.36644 0.0
H14 H 0.05161 0.56062 0.33592 0.0
H15 H 0.09088 0.58804 0.32617 0.0
H16 H 0.0928 0.53449 0.29179 0.0
H17 H 0.05333 0.50687 0.30188 0.0
C18 C 0.96633 0.4853 0.30112 0.0
C19 C 0.96455 0.46885 0.28725 0.0
C20 C 0.94751 0.46088 0.27234 0.0
C21 C 0.93204 0.46936 0.27089 0.0
C22 C 0.93398 0.48599 0.28475 0.0
C23 C 0.95099 0.4939 0.2997 0.0
C24 C 0.98453 0.4937 0.31686 0.0
C25 C 0.0079 0.50549 0.3116 0.0
C26 C 0.97907 0.49143 0.3369 0.0
C27 C 0.95489 0.4813 0.34349 0.0
C28 C 0.9376 0.45914 0.33723 0.0
C29 C 0.91455 0.45068 0.34246 0.0
C30 C 0.90849 0.46422 0.35412 0.0
C31 C 0.92604 0.48599 0.361 0.0
C32 C 0.94898 0.49444 0.35573 0.0
C33 C 0.03883 0.52092 0.36141 0.0
C34 C 0.03909 0.53543 0.37652 0.0
C35 C 0.05652 0.54386 0.39112 0.0
C36 C 0.07387 0.53773 0.39099 0.0
C37 C 0.07352 0.52313 0.37587 0.0
C38 C 0.05618 0.51484 0.3612 0.0
C39 C 0.02041 0.51208 0.34583 0.0
C40 C -0.0029 0.50023 0.3511 0.0
C41 C 0.02583 0.51542 0.32586 0.0
C42 C 0.04969 0.53169 0.31977 0.0
C43 C 0.06053 0.55473 0.32639 0.0
C44 C 0.08288 0.57042 0.32068 0.0
C45 C 0.09486 0.56341 0.30818 0.0
C46 C 0.08401 0.5403 0.30156 0.0
C47 C 0.06148 0.52457 0.3072 0.0
H48 H 0.44919 0.97024 0.51854 0.0
H49 H 0.42534 0.93006 0.52724 0.0
H50 H 0.4727 0.91365 0.49826 0.0
H51 H 0.49656 0.95405 0.48954 0.0
H52 H 0.49419 0.00198 0.52745 0.0
H53 H 0.44756 0.9632 0.46836 0.0
H54 H 0.4338 0.93348 0.44235 0.0
H55 H 0.50447 0.95983 0.42449 0.0
H56 H 0.51812 0.98913 0.4508 0.0
H57 H 0.54752 0.06186 0.46348 0.0
H58 H 0.56082 0.10119 0.45304 0.0
H59 H 0.50985 0.10427 0.48934 0.0
H60 H 0.49608 0.06486 0.49899 0.0
H61 H 0.50659 0.02379 0.45797 0.0
H62 H 0.55424 0.06219 0.51437 0.0
H63 H 0.57103 0.09062 0.54117 0.0
H64 H 0.50235 0.06631 0.56346 0.0
H65 H 0.48593 0.03721 0.53705 0.0
C66 C 0.47456 0.96511 0.5033 0.0
C67 C 0.45455 0.95803 0.5142 0.0
C68 C 0.44096 0.93506 0.51919 0.0
C69 C 0.44715 0.91867 0.51346 0.0
C70 C 0.46734 0.92583 0.50269 0.0
C71 C 0.481 0.94889 0.49774 0.0
C72 C 0.48825 0.98944 0.49756 0.0
C73 C 0.49678 0.00674 0.51226 0.0
C74 C 0.49243 0.99567 0.47778 0.0
C75 C 0.48388 0.9782 0.46161 0.0
C76 C 0.46007 0.96249 0.45888 0.0
C77 C 0.45223 0.94563 0.44394 0.0
C78 C 0.46807 0.94423 0.43144 0.0
C79 C 0.49188 0.96022 0.43407 0.0
C80 C 0.49969 0.9771 0.44897 0.0
C81 C 0.52099 0.06051 0.48219 0.0
C82 C 0.53927 0.07107 0.46918 0.0
C83 C 0.54696 0.09359 0.46335 0.0
C84 C 0.53637 0.10586 0.47035 0.0
C85 C 0.5182 0.09524 0.48349 0.0
C86 C 0.51051 0.07278 0.48924 0.0
C87 C 0.51198 0.03632 0.48786 0.0
C88 C 0.50431 0.01905 0.47317 0.0
C89 C 0.5089 0.03007 0.50766 0.0
C90 C 0.51886 0.04761 0.52376 0.0
C91 C 0.54284 0.06304 0.52505 0.0
C92 C 0.55238 0.07943 0.54033 0.0
C93 C 0.53809 0.08089 0.55455 0.0
C94 C 0.51399 0.06548 0.55304 0.0
C95 C 0.50451 0.04888 0.5379 0.0
H96 H 0.54627 0.56258 0.67493 0.0
H97 H 0.53623 0.57896 0.70261 0.0
H98 H 0.46348 0.53673 0.68644 0.0
H99 H 0.47363 0.51959 0.65938 0.0
H100 H 0.53492 0.51852 0.66892 0.0
H101 H 0.51724 0.57222 0.63476 0.0
H102 H 0.49122 0.58664 0.62534 0.0
H103 H 0.44277 0.5199 0.5996 0.0
H104 H 0.46829 0.50544 0.60969 0.0
H105 H 0.50161 0.47451 0.59237 0.0
H106 H 0.51362 0.45804 0.56597 0.0
H107 H 0.58519 0.50028 0.58547 0.0
H108 H 0.57313 0.51699 0.61158 0.0
H109 H 0.51106 0.5174 0.59976 0.0
H110 H 0.5187 0.46136 0.63309 0.0
H111 H 0.53477 0.43795 0.64469 0.0
H112 H 0.59234 0.49835 0.67239 0.0
H113 H 0.57591 0.5217 0.66085 0.0
C114 C 0.51074 0.54005 0.66493 0.0
C115 C 0.52816 0.55689 0.67735 0.0
C116 C 0.52239 0.56638 0.69308 0.0
C117 C 0.49904 0.55923 0.69676 0.0
C118 C 0.48162 0.54246 0.68419 0.0
C119 C 0.48741 0.53285 0.66853 0.0
C120 C 0.5171 0.52928 0.6489 0.0
C121 C 0.53011 0.51872 0.65374 0.0
C122 C 0.50965 0.52831 0.62923 0.0
C123 C 0.49457 0.53767 0.62314 0.0
C124 C 0.50092 0.56069 0.62722 0.0
C125 C 0.48615 0.56896 0.62166 0.0
C126 C 0.46484 0.55436 0.61184 0.0
C127 C 0.45883 0.53148 0.60745 0.0
C128 C 0.47352 0.52324 0.61305 0.0
C129 C 0.53646 0.49691 0.60397 0.0
C130 C 0.51988 0.48023 0.59092 0.0
C131 C 0.52674 0.4707 0.57596 0.0
C132 C 0.55034 0.47785 0.57368 0.0
C133 C 0.5669 0.49456 0.58678 0.0
C134 C 0.56002 0.504 0.60177 0.0
C135 C 0.52924 0.50714 0.61979 0.0
C136 C 0.51613 0.51754 0.61492 0.0
C137 C 0.53569 0.50713 0.63954 0.0
C138 C 0.54624 0.49332 0.64593 0.0
C139 C 0.53496 0.46964 0.64142 0.0
C140 C 0.54422 0.45627 0.64803 0.0
C141 C 0.56491 0.46629 0.65939 0.0
C142 C 0.57626 0.49007 0.66382 0.0
C143 C 0.56695 0.50345 0.6572 0.0
H144 H 0.02712 0.56835 0.78735 0.0
H145 H 0.05238 0.58026 0.75919 0.0
H146 H 0.07302 0.53031 0.77293 0.0
H147 H 0.04745 0.51826 0.80087 0.0
H148 H 0.98978 0.52372 0.79408 0.0
H149 H 0.06577 0.57805 0.82457 0.0
H150 H 0.1067 0.59091 0.83189 0.0
H151 H 0.08654 0.52636 0.85949 0.0
H152 H 0.0459 0.51337 0.85157 0.0
H153 H 0.98568 0.48948 0.87224 0.0
H154 H 0.96104 0.47802 0.90067 0.0
H155 H 0.92996 0.51751 0.88071 0.0
H156 H 0.95517 0.52948 0.85256 0.0
H157 H 0.01836 0.52947 0.8624 0.0
H158 H 0.95009 0.47187 0.83299 0.0
H159 H 0.91001 0.44761 0.82159 0.0
H160 H 0.91351 0.50472 0.79046 0.0
H161 H 0.95391 0.52902 0.80191 0.0
C162 C 0.03563 0.54262 0.79628 0.0
C163 C 0.03713 0.56002 0.78428 0.0
C164 C 0.05163 0.56687 0.76828 0.0
C165 C 0.06469 0.55623 0.76388 0.0
C166 C 0.06302 0.53868 0.77587 0.0
C167 C 0.0486 0.53192 0.79192 0.0
C168 C 0.01989 0.53516 0.81298 0.0
C169 C 0.996 0.52544 0.80909 0.0
C170 C 0.02801 0.53615 0.83238 0.0
C171 C 0.05281 0.54465 0.83733 0.0
C172 C 0.07022 0.56666 0.8321 0.0
C173 C 0.09356 0.57406 0.83646 0.0
C174 C 0.09986 0.55959 0.84618 0.0
C175 C 0.08231 0.53777 0.85172 0.0
C176 C 0.05905 0.5304 0.84735 0.0
C177 C 0.97224 0.5103 0.86024 0.0
C178 C 0.97356 0.49568 0.87399 0.0
C179 C 0.95934 0.48899 0.89015 0.0
C180 C 0.94357 0.49688 0.89295 0.0
C181 C 0.94212 0.51136 0.87907 0.0
C182 C 0.95634 0.51802 0.86288 0.0
C183 C 0.98813 0.51818 0.84358 0.0
C184 C 0.01205 0.52806 0.84745 0.0
C185 C 0.97995 0.51626 0.82406 0.0
C186 C 0.95493 0.50237 0.81854 0.0
C187 C 0.94211 0.47936 0.82408 0.0
C188 C 0.91915 0.46548 0.81752 0.0
C189 C 0.90852 0.47424 0.80516 0.0
C190 C 0.92128 0.4974 0.79982 0.0
C191 C 0.9443 0.51133 0.80643 0.0
H192 H 0.55675 0.05985 0.02022 0.0
H193 H 0.57942 0.10043 0.02976 0.0
H194 H 0.52984 0.11323 -0.00084 0.0
H195 H 0.5067 0.07212 0.99007 0.0
H196 H 0.5126 0.02988 0.03013 0.0
H197 H 0.55356 0.06338 0.9703 0.0
H198 H 0.5633 0.08761 0.94183 0.0
H199 H 0.49137 0.05018 0.92208 0.0
H200 H 0.48159 0.02697 0.95115 0.0
H201 H 0.45666 0.96074 0.96829 0.0
H202 H 0.44403 0.92062 0.95953 0.0
H203 H 0.49635 0.92287 -0.00079 0.0
H204 H 0.50952 0.96313 0.0072 0.0
H205 H 0.49573 -0.00212 0.96227 0.0
H206 H 0.45283 0.96566 0.01882 0.0
H207 H 0.43839 0.94204 0.04768 0.0
H208 H 0.50791 0.9759 0.07299 0.0
H209 H 0.52233 -0.00075 0.04395 0.0
C210 C 0.53012 0.06298 0.00435 0.0
C211 C 0.55076 0.07138 0.01551 0.0
C212 C 0.56381 0.09465 0.02082 0.0
C213 C 0.55653 0.11011 0.0151 0.0
C214 C 0.53583 0.10171 0.00387 0.0
C215 C 0.52271 0.0783 0.99853 0.0
C216 C 0.51621 0.03797 -0.00034 0.0
C217 C 0.50907 0.02289 0.01527 0.0
C218 C 0.51053 0.02884 0.9803 0.0
C219 C 0.51677 0.04364 0.96305 0.0
C220 C 0.53984 0.06067 0.96001 0.0
C221 C 0.54543 0.0743 0.94355 0.0
C222 C 0.52811 0.0709 0.92964 0.0
C223 C 0.50508 0.05358 0.93264 0.0
C224 C 0.49949 0.04015 0.94917 0.0
C225 C 0.48391 0.96494 0.98853 0.0
C226 C 0.46534 0.95255 0.97514 0.0
C227 C 0.45802 0.92954 0.97028 0.0
C228 C 0.4692 0.91852 0.97866 0.0
C229 C 0.48753 0.93089 0.99231 0.0
C230 C 0.49488 0.95387 0.9971 0.0
C231 C 0.49286 0.98981 0.99276 0.0
C232 C 0.49902 0.00485 0.97712 0.0
C233 C 0.49718 -0.00102 0.01208 0.0
C234 C 0.48866 0.98409 0.02921 0.0
C235 C 0.46499 0.96782 0.0305 0.0
C236 C 0.45674 0.95452 0.04706 0.0
C237 C 0.47204 0.95722 0.06258 0.0
C238 C 0.49577 0.97336 0.06117 0.0
C239 C 0.50399 0.98676 0.04467 0.0
H240 H 0.45899 0.46183 0.17656 0.0
H241 H 0.46843 0.44422 0.20354 0.0
H242 H 0.54146 0.49193 0.19641 0.0
H243 H 0.5319 0.50959 0.16954 0.0
H244 H 0.46866 0.50622 0.17377 0.0
H245 H 0.49063 0.456 0.1389 0.0
H246 H 0.51857 0.4431 0.13288 0.0
H247 H 0.56894 0.51172 0.11578 0.0
H248 H 0.54096 0.52442 0.12176 0.0
H249 H 0.50548 0.55337 0.10102 0.0
H250 H 0.49397 0.56924 0.07396 0.0
H251 H 0.42186 0.52492 0.08733 0.0
H252 H 0.43343 0.50879 0.11409 0.0
H253 H 0.49799 0.51165 0.10685 0.0
H254 H 0.4835 0.56387 0.14036 0.0
H255 H 0.46668 0.58575 0.15418 0.0
H256 H 0.41185 0.52371 0.17855 0.0
H257 H 0.4287 0.50174 0.16448 0.0
C258 C 0.49475 0.4868 0.17088 0.0
C259 C 0.47703 0.46848 0.18083 0.0
C260 C 0.48244 0.4585 0.19626 0.0
C261 C 0.50568 0.46666 0.20204 0.0
C262 C 0.52341 0.48505 0.19208 0.0
C263 C 0.51797 0.49514 0.17673 0.0
C264 C 0.48875 0.49759 0.15481 0.0
C265 C 0.47457 0.50694 0.15899 0.0
C266 C 0.4977 0.49971 0.13589 0.0
C267 C 0.51378 0.49122 0.13091 0.0
C268 C 0.50768 0.46822 0.13381 0.0
C269 C 0.52369 0.46091 0.13044 0.0
C270 C 0.54601 0.47641 0.12393 0.0
C271 C 0.55181 0.49927 0.12057 0.0
C272 C 0.53584 0.50657 0.12399 0.0
C273 C 0.47033 0.52994 0.10963 0.0
C274 C 0.4872 0.54708 0.09811 0.0
C275 C 0.48061 0.55627 0.08276 0.0
C276 C 0.45701 0.54834 0.07852 0.0
C277 C 0.44017 0.53124 0.09013 0.0
C278 C 0.44677 0.52215 0.10552 0.0
C279 C 0.47726 0.5198 0.12566 0.0
C280 C 0.49166 0.5106 0.1215 0.0
C281 C 0.46916 0.51851 0.14484 0.0
C282 C 0.45723 0.53109 0.15118 0.0
C283 C 0.46749 0.55481 0.14819 0.0
C284 C 0.45789 0.56733 0.15617 0.0
C285 C 0.43796 0.55644 0.16748 0.0
C286 C 0.42735 0.53259 0.17006 0.0
C287 C 0.4369 0.52003 0.16197 0.0
Mg288 Mg 0.61676 0.368 0.3691 0.0
O289 O 0.61226 0.38668 0.39556 0.0
O290 O 0.62676 0.42354 0.38798 0.0
Mg291 Mg 0.63941 0.42818 0.35667 0.0
C292 C 0.6171 0.40721 0.39996 0.0
C293 C 0.59057 0.32468 0.39505 0.0
O294 O 0.57354 0.32894 0.39209 0.0
O295 O 0.65549 0.38503 0.37571 0.0
O296 O 0.66849 0.42103 0.3662 0.0
O297 O 0.58216 0.36006 0.35679 0.0
O298 O 0.61524 0.39133 0.35049 0.0
C299 C 0.67207 0.40537 0.37289 0.0
C300 C 0.59298 0.37971 0.34838 0.0
O301 O 0.6102 0.3378 0.38781 0.0
Mg302 Mg 0.26517 0.64259 0.591 0.0
O303 O 0.2407 0.62366 0.56473 0.0
O304 O 0.21999 0.58646 0.57186 0.0
Mg305 Mg 0.23047 0.58186 0.60272 0.0
C306 C 0.22529 0.60293 0.56021 0.0
C307 C 0.29388 0.69326 0.58202 0.0
O308 O 0.28844 0.69318 0.60039 0.0
O309 O 0.28816 0.62769 0.58318 0.0
O310 O 0.26692 0.59127 0.59238 0.0
O311 O 0.23814 0.64844 0.6043 0.0
O312 O 0.24204 0.61818 0.60976 0.0
C313 C 0.28554 0.60771 0.58561 0.0
C314 C 0.2307 0.62885 0.61256 0.0
O315 O 0.2865 0.67412 0.57292 0.0
Mg316 Mg 0.62838 0.2671 0.75636 0.0
O317 O 0.62444 0.24477 0.72925 0.0
O318 O 0.64254 0.22515 0.73628 0.0
Mg319 Mg 0.65555 0.23294 0.76816 0.0
C320 C 0.63113 0.23056 0.72446 0.0
C321 C 0.62488 0.30922 0.74655 0.0
O322 O 0.63521 0.31432 0.7639 0.0
O323 O 0.66667 0.2908 0.75098 0.0
O324 O 0.68265 0.27018 0.76089 0.0
O325 O 0.59497 0.2393 0.76752 0.0
O326 O 0.62921 0.24284 0.77423 0.0
C327 C 0.68444 0.28881 0.75458 0.0
C328 C 0.60701 0.23135 0.7759 0.0
O329 O 0.61919 0.28983 0.73856 0.0
Mg330 Mg 0.39177 0.65418 0.87151 0.0
O331 O 0.3972 0.63617 0.89765 0.0
O332 O 0.38261 0.59918 0.88884 0.0
Mg333 Mg 0.36951 0.59386 0.85705 0.0
C334 C 0.39248 0.61573 0.90144 0.0
C335 C 0.41844 0.69908 0.8981 0.0
O336 O 0.43597 0.69589 0.89443 0.0
O337 O 0.35302 0.63677 0.87685 0.0
O338 O 0.34026 0.60079 0.86582 0.0
O339 O 0.42619 0.66237 0.85963 0.0
O340 O 0.39317 0.63069 0.85221 0.0
C341 C 0.33652 0.61636 0.87288 0.0
C342 C 0.4153 0.64263 0.85041 0.0
O343 O 0.3984 0.68475 0.8911 0.0
Mg344 Mg 0.74652 0.39438 0.06742 0.0
O345 O 0.76903 0.39755 0.09457 0.0
O346 O 0.78964 0.38087 0.08626 0.0
Mg347 Mg 0.78104 0.36772 0.05454 0.0
C348 C 0.784 0.39149 0.0987 0.0
C349 C 0.71909 0.41796 0.07635 0.0
O350 O 0.72784 0.4252 0.05912 0.0
O351 O 0.72215 0.3562 0.07217 0.0
O352 O 0.74361 0.34104 0.06225 0.0
O353 O 0.77497 0.42758 0.05645 0.0
O354 O 0.77068 0.39351 0.04909 0.0
C355 C 0.72459 0.33883 0.06845 0.0
C356 C 0.7825 0.41551 0.04757 0.0
O357 O 0.724 0.40431 0.0851 0.0
Mg358 Mg 0.36937 0.75656 0.23106 0.0
O359 O 0.38844 0.77897 0.25827 0.0
O360 O 0.42603 0.79949 0.25134 0.0
Mg361 Mg 0.43091 0.79068 0.22003 0.0
C362 C 0.40941 0.79386 0.26305 0.0
C363 C 0.31949 0.73589 0.24715 0.0
O364 O 0.31996 0.75205 0.23628 0.0
O365 O 0.38368 0.73285 0.23703 0.0
O366 O 0.42052 0.75357 0.22809 0.0
O367 O 0.36425 0.78464 0.21958 0.0
O368 O 0.39451 0.78063 0.21332 0.0
C369 C 0.40351 0.73492 0.23414 0.0
C370 C 0.38419 0.79242 0.21154 0.0
O371 O 0.3375 0.73396 0.24858 0.0
H372 H 0.13315 0.5583 0.30704 0.0
H373 H 0.17272 0.58735 0.29857 0.0
H374 H 0.14929 0.63552 0.28689 0.0
H375 H 0.1099 0.60674 0.29547 0.0
H376 H 0.18964 0.61049 0.2645 0.0
H377 H 0.20337 0.67209 0.3251 0.0
H378 H 0.17964 0.64276 0.32441 0.0
H379 H 0.17771 0.66433 0.31055 0.0
C380 C 0.13647 0.57506 0.30256 0.0
C381 C 0.11854 0.58037 0.3021 0.0
C382 C 0.15905 0.59164 0.29782 0.0
C383 C 0.16401 0.61374 0.29257 0.0
C384 C 0.14597 0.6188 0.29149 0.0
H385 H 0.27829 0.7356 0.24769 0.0
H386 H 0.24129 0.7055 0.25987 0.0
C387 C 0.12348 0.60233 0.29632 0.0
C388 C 0.18794 0.63147 0.28781 0.0
H389 H 0.23066 0.68642 0.29946 0.0
C390 C 0.19873 0.62699 0.27227 0.0
C391 C 0.19977 0.65295 0.29805 0.0
C392 C 0.18964 0.65827 0.31558 0.0
C393 C 0.22074 0.64377 0.26623 0.0
C394 C 0.23223 0.66544 0.27612 0.0
C395 C 0.22167 0.66978 0.29189 0.0
C396 C 0.25494 0.68409 0.26986 0.0
C397 C 0.23125 0.6385 0.24894 0.0
C398 C 0.2749 0.68217 0.27191 0.0
C399 C 0.29608 0.69936 0.26505 0.0
C400 C 0.29761 0.71873 0.25599 0.0
C401 C 0.27768 0.72088 0.25452 0.0
C402 C 0.25654 0.70372 0.26147 0.0
H403 H 0.21846 0.62251 0.24086 0.0
H404 H 0.23826 0.65298 0.23871 0.0
H405 H 0.24587 0.63626 0.25411 0.0
H406 H 0.274 0.66725 0.2786 0.0
H407 H 0.31112 0.69721 0.26647 0.0
H408 H 0.50867 0.12363 0.46044 0.0
H409 H 0.52059 0.16241 0.44971 0.0
H410 H 0.59239 0.18012 0.45397 0.0
H411 H 0.58065 0.14134 0.46503 0.0
H412 H 0.55117 0.20553 0.46977 0.0
H413 H 0.58359 0.19679 0.39756 0.0
H414 H 0.5649 0.17222 0.41181 0.0
H415 H 0.59513 0.18962 0.41848 0.0
C416 C 0.52703 0.13581 0.45929 0.0
C417 C 0.54373 0.1294 0.46363 0.0
C418 C 0.53378 0.15792 0.45306 0.0
C419 C 0.55732 0.17401 0.45091 0.0
C420 C 0.5741 0.16779 0.45528 0.0
H421 H 0.62254 0.31202 0.40478 0.0
H422 H 0.61558 0.27662 0.42019 0.0
C423 C 0.56736 0.14564 0.46154 0.0
C424 C 0.56416 0.1973 0.44411 0.0
H425 H 0.58741 0.23278 0.40572 0.0
C426 C 0.55916 0.21157 0.4558 0.0
C427 C 0.57464 0.20507 0.42592 0.0
C428 C 0.57977 0.19013 0.41259 0.0
C429 C 0.56437 0.23347 0.44975 0.0
C430 C 0.57437 0.24104 0.43134 0.0
C431 C 0.57974 0.22692 0.41983 0.0
C432 C 0.57876 0.26323 0.4234 0.0
C433 C 0.55931 0.24837 0.46319 0.0
C434 C 0.56036 0.26746 0.42015 0.0
C435 C 0.56428 0.28773 0.41142 0.0
C436 C 0.58665 0.304 0.40557 0.0
C437 C 0.60509 0.29983 0.40908 0.0
C438 C 0.60116 0.27961 0.41788 0.0
H439 H 0.55834 0.24319 0.47862 0.0
H440 H 0.57279 0.2668 0.46227 0.0
H441 H 0.54229 0.2465 0.45887 0.0
H442 H 0.54284 0.25482 0.4239 0.0
H443 H 0.54968 0.29036 0.40882 0.0
H444 H 0.47529 0.59599 0.59663 0.0
H445 H 0.44809 0.60904 0.58724 0.0
H446 H 0.39078 0.54453 0.60504 0.0
H447 H 0.41769 0.53151 0.61471 0.0
H448 H 0.38555 0.55982 0.56664 0.0
H449 H 0.41119 0.62678 0.62585 0.0
H450 H 0.43389 0.62761 0.61134 0.0
H451 H 0.41819 0.60407 0.62725 0.0
C452 C 0.45691 0.5847 0.59873 0.0
C453 C 0.44865 0.56269 0.60638 0.0
C454 C 0.44142 0.59215 0.59331 0.0
C455 C 0.41748 0.57775 0.59551 0.0
C456 C 0.40921 0.55583 0.60313 0.0
H457 H 0.28614 0.56741 0.58816 0.0
H458 H 0.3197 0.5621 0.58686 0.0
C459 C 0.42462 0.5484 0.60858 0.0
C460 C 0.40076 0.58527 0.59002 0.0
H461 H 0.38008 0.62022 0.60493 0.0
C462 C 0.38449 0.57321 0.57484 0.0
C463 C 0.39961 0.60287 0.60065 0.0
C464 C 0.41652 0.61607 0.61727 0.0
C465 C 0.36657 0.5778 0.5704 0.0
C466 C 0.36464 0.59455 0.58173 0.0
C467 C 0.38159 0.60737 0.59629 0.0
C468 C 0.34403 0.59746 0.58012 0.0
C469 C 0.3497 0.56447 0.5538 0.0
C470 C 0.34653 0.61916 0.57682 0.0
C471 C 0.32731 0.62233 0.57769 0.0
C472 C 0.3053 0.60388 0.58209 0.0
C473 C 0.30278 0.58201 0.58473 0.0
C474 C 0.32196 0.57888 0.58383 0.0
H475 H 0.35779 0.55858 0.54275 0.0
H476 H 0.33459 0.54897 0.55959 0.0
H477 H 0.3433 0.57497 0.54649 0.0
H478 H 0.36346 0.63376 0.57406 0.0
H479 H 0.32991 0.63942 0.57561 0.0
H480 H 0.87123 0.44162 0.82448 0.0
H481 H 0.83311 0.41356 0.81069 0.0
H482 H 0.85306 0.44431 0.75437 0.0
H483 H 0.89166 0.47194 0.76788 0.0
H484 H 0.79884 0.41868 0.79219 0.0
H485 H 0.83319 0.37694 0.74257 0.0
H486 H 0.8507 0.39705 0.76191 0.0
H487 H 0.84485 0.4073 0.73968 0.0
C488 C 0.86757 0.44238 0.80914 0.0
C489 C 0.88459 0.45884 0.79724 0.0
C490 C 0.84572 0.42644 0.80131 0.0
C491 C 0.84041 0.42662 0.78144 0.0
C492 C 0.85697 0.44362 0.76966 0.0
H493 H 0.69584 0.33191 0.74241 0.0
H494 H 0.73386 0.36694 0.74527 0.0
C495 C 0.87891 0.45956 0.77747 0.0
C496 C 0.81772 0.40849 0.77317 0.0
H497 H 0.79268 0.36116 0.74248 0.0
C498 C 0.79743 0.40624 0.78115 0.0
C499 C 0.81604 0.39221 0.75888 0.0
C500 C 0.83731 0.39328 0.75033 0.0
C501 C 0.77549 0.38771 0.77573 0.0
C502 C 0.77381 0.37126 0.76161 0.0
C503 C 0.79405 0.37392 0.75316 0.0
C504 C 0.75152 0.34991 0.75708 0.0
C505 C 0.75445 0.38525 0.78593 0.0
C506 C 0.74916 0.32858 0.76173 0.0
C507 C 0.72757 0.30852 0.75991 0.0
C508 C 0.70786 0.3094 0.75344 0.0
C509 C 0.71058 0.33063 0.74764 0.0
C510 C 0.73227 0.3507 0.74937 0.0
H511 H 0.75929 0.39674 0.79913 0.0
H512 H 0.74432 0.38983 0.77579 0.0
H513 H 0.74304 0.36723 0.79036 0.0
H514 H 0.76384 0.32758 0.7676 0.0
H515 H 0.72619 0.29249 0.76439 0.0
H516 H 0.42536 0.88177 0.97167 0.0
H517 H 0.41471 0.84274 0.96055 0.0
H518 H 0.48703 0.86207 0.96079 0.0
H519 H 0.49785 0.90108 0.9716 0.0
H520 H 0.42886 0.83048 0.92602 0.0
H521 H 0.45711 0.80234 0.99148 0.0
H522 H 0.45277 0.82685 0.99202 0.0
H523 H 0.47896 0.82944 0.98246 0.0
C524 C 0.43899 0.87771 0.96934 0.0
C525 C 0.46246 0.89454 0.97262 0.0
C526 C 0.43287 0.85538 0.96311 0.0
C527 C 0.45006 0.84943 0.96018 0.0
C528 C 0.47345 0.86615 0.96344 0.0
H529 H 0.45959 0.73518 0.91209 0.0
H530 H 0.46594 0.77089 0.92795 0.0
C531 C 0.4796 0.88845 0.96963 0.0
C532 C 0.44373 0.82616 0.95262 0.0
H533 H 0.44864 0.77903 0.96249 0.0
C534 C 0.43292 0.8191 0.93406 0.0
C535 C 0.44918 0.81143 0.96314 0.0
C536 C 0.45995 0.81776 0.98346 0.0
C537 C 0.42809 0.79799 0.92544 0.0
C538 C 0.43381 0.78338 0.93585 0.0
C539 C 0.4443 0.79028 0.95455 0.0
C540 C 0.42964 0.76115 0.92731 0.0
C541 C 0.41766 0.79191 0.90499 0.0
C542 C 0.40706 0.74363 0.92215 0.0
C543 C 0.40337 0.72325 0.91302 0.0
C544 C 0.4222 0.71995 0.90902 0.0
C545 C 0.44472 0.7372 0.91488 0.0
C546 C 0.44839 0.75761 0.92396 0.0
H547 H 0.41957 0.80721 0.89735 0.0
H548 H 0.4259 0.78403 0.89618 0.0
H549 H 0.39885 0.77923 0.90569 0.0
H550 H 0.3923 0.74581 0.925 0.0
H551 H 0.38578 0.71022 0.90887 0.0
H552 H 0.57621 0.48728 0.09404 0.0
H553 H 0.60596 0.47647 0.08985 0.0
H554 H 0.58504 0.43803 0.14272 0.0
H555 H 0.55533 0.44897 0.14716 0.0
H556 H 0.64306 0.48576 0.11679 0.0
H557 H 0.58488 0.39191 0.10173 0.0
H558 H 0.57484 0.41234 0.09995 0.0
H559 H 0.57944 0.40367 0.12346 0.0
C560 C 0.57796 0.47658 0.10482 0.0
C561 C 0.56339 0.46898 0.12093 0.0
C562 C 0.5949 0.47035 0.10236 0.0
C563 C 0.59754 0.4563 0.11588 0.0
C564 C 0.583 0.44856 0.13194 0.0
H565 H 0.69408 0.40286 0.10978 0.0
H566 H 0.6656 0.41274 0.12206 0.0
C567 C 0.56602 0.4548 0.13443 0.0
C568 C 0.61599 0.45035 0.11328 0.0
H569 H 0.62515 0.40577 0.10227 0.0
C570 C 0.63918 0.46825 0.11373 0.0
C571 C 0.61084 0.42748 0.10949 0.0
C572 C 0.58617 0.40769 0.10847 0.0
C573 C 0.65737 0.46396 0.1101 0.0
C574 C 0.65218 0.44122 0.10553 0.0
C575 C 0.62906 0.42319 0.10577 0.0
C576 C 0.67022 0.43608 0.09889 0.0
C577 C 0.682 0.48384 0.11108 0.0
C578 C 0.68212 0.44583 0.08179 0.0
C579 C 0.6983 0.44026 0.07476 0.0
C580 C 0.70285 0.42466 0.08464 0.0
C581 C 0.69104 0.41501 0.10189 0.0
C582 C 0.67475 0.42059 0.1089 0.0
H583 H 0.68361 0.49823 0.1205 0.0
H584 H 0.69419 0.47841 0.11676 0.0
H585 H 0.68728 0.49044 0.09619 0.0
H586 H 0.67853 0.45743 0.0736 0.0
H587 H 0.707 0.44794 0.0614 0.0
H588 H 0.42681 0.90201 0.54828 0.0
H589 H 0.4005 0.86196 0.55631 0.0
H590 H 0.40768 0.83992 0.49865 0.0
H591 H 0.43392 0.8801 0.49037 0.0
H592 H 0.35776 0.8316 0.53565 0.0
H593 H 0.41965 0.79853 0.53604 0.0
H594 H 0.42926 0.82888 0.53791 0.0
H595 H 0.41913 0.81372 0.51482 0.0
C596 C 0.42279 0.88866 0.53728 0.0
C597 C 0.43237 0.89423 0.51866 0.0
C598 C 0.40785 0.8658 0.54193 0.0
C599 C 0.40229 0.84803 0.52812 0.0
C600 C 0.41205 0.8534 0.5096 0.0
H601 H 0.31067 0.69991 0.54492 0.0
H602 H 0.33589 0.73676 0.52962 0.0
C603 C 0.42705 0.87633 0.50492 0.0
C604 C 0.38548 0.82403 0.53303 0.0
H605 H 0.38068 0.77215 0.54289 0.0
C606 C 0.36271 0.81854 0.53712 0.0
C607 C 0.39198 0.80703 0.53472 0.0
C608 C 0.41636 0.81223 0.53078 0.0
C609 C 0.34636 0.79661 0.5433 0.0
C610 C 0.35312 0.77989 0.5458 0.0
C611 C 0.37562 0.78507 0.541 0.0
C612 C 0.33758 0.75757 0.55473 0.0
C613 C 0.32203 0.79157 0.54724 0.0
C614 C 0.33046 0.75714 0.57394 0.0
C615 C 0.31614 0.73624 0.58269 0.0
C616 C 0.30874 0.7153 0.57243 0.0
C617 C 0.316 0.71575 0.55318 0.0
C618 C 0.33041 0.73675 0.54443 0.0
H619 H 0.31777 0.80332 0.53924 0.0
H620 H 0.30903 0.77352 0.54298 0.0
H621 H 0.32055 0.79411 0.56308 0.0
H622 H 0.33619 0.77303 0.58227 0.0
H623 H 0.31099 0.73653 0.59756 0.0
H624 H 0.58343 0.4686 0.69588 0.0
H625 H 0.59603 0.44303 0.70941 0.0
H626 H 0.57824 0.40462 0.65466 0.0
H627 H 0.56649 0.43067 0.64076 0.0
H628 H 0.56837 0.39653 0.71373 0.0
H629 H 0.64253 0.41428 0.66692 0.0
H630 H 0.63021 0.43289 0.66809 0.0
H631 H 0.61617 0.4067 0.65348 0.0
C632 C 0.58271 0.45506 0.68656 0.0
C633 C 0.57399 0.45171 0.66722 0.0
C634 C 0.58976 0.44036 0.69436 0.0
C635 C 0.58831 0.42209 0.68297 0.0
C636 C 0.57992 0.41887 0.66359 0.0
H637 H 0.60609 0.30543 0.70982 0.0
H638 H 0.59715 0.33277 0.69412 0.0
C639 C 0.57294 0.4336 0.65575 0.0
C640 C 0.59415 0.40556 0.6918 0.0
H641 H 0.62911 0.38204 0.68746 0.0
C642 C 0.58175 0.39346 0.70806 0.0
C643 C 0.61152 0.40151 0.68428 0.0
C644 C 0.62604 0.41467 0.66734 0.0
C645 C 0.58609 0.37725 0.71691 0.0
C646 C 0.60344 0.37322 0.70941 0.0
C647 C 0.61577 0.38518 0.6931 0.0
C648 C 0.60934 0.357 0.71866 0.0
C649 C 0.57186 0.36429 0.73405 0.0
C650 C 0.61944 0.36182 0.73751 0.0
C651 C 0.6246 0.34633 0.74649 0.0
C652 C 0.61976 0.32573 0.73676 0.0
C653 C 0.60993 0.3211 0.71773 0.0
C654 C 0.60486 0.33669 0.70873 0.0
H655 H 0.55591 0.36558 0.73525 0.0
H656 H 0.56678 0.34583 0.73283 0.0
H657 H 0.58242 0.3716 0.74773 0.0
H658 H 0.6233 0.37758 0.74529 0.0
H659 H 0.63226 0.35048 0.76111 0.0
H660 H 0.13482 0.60184 0.85949 0.0
H661 H 0.17571 0.61358 0.86585 0.0
H662 H 0.16142 0.54545 0.84894 0.0
H663 H 0.12087 0.5338 0.84203 0.0
H664 H 0.19503 0.59425 0.89187 0.0
H665 H 0.21573 0.58797 0.8147 0.0
H666 H 0.19004 0.58879 0.82152 0.0
H667 H 0.19078 0.56242 0.82285 0.0
C668 C 0.14047 0.58945 0.85694 0.0
C669 C 0.12462 0.56691 0.8502 0.0
C670 C 0.16376 0.59613 0.86071 0.0
C671 C 0.17159 0.58044 0.85764 0.0
C672 C 0.15578 0.5579 0.85114 0.0
H673 H 0.297 0.57482 0.8665 0.0
H674 H 0.25709 0.56711 0.86498 0.0
C675 C 0.13256 0.55121 0.84738 0.0
C676 C 0.19626 0.58745 0.86121 0.0
H677 H 0.24338 0.59111 0.83884 0.0
C678 C 0.20573 0.59381 0.88028 0.0
C679 C 0.21013 0.58692 0.84601 0.0
C680 C 0.20126 0.58138 0.82508 0.0
C681 C 0.22851 0.59881 0.88468 0.0
C682 C 0.2421 0.5976 0.86956 0.0
C683 C 0.23279 0.59179 0.85043 0.0
C684 C 0.26594 0.60189 0.87311 0.0
C685 C 0.23766 0.60461 0.9055 0.0
C686 C 0.28408 0.62393 0.87857 0.0
C687 C 0.30702 0.62845 0.87946 0.0
C688 C 0.31216 0.61101 0.87475 0.0
C689 C 0.29375 0.58871 0.87012 0.0
C690 C 0.27089 0.58424 0.86924 0.0
H691 H 0.22359 0.60042 0.91596 0.0
H692 H 0.24682 0.59519 0.90954 0.0
H693 H 0.25032 0.62331 0.90699 0.0
H694 H 0.28062 0.63785 0.88135 0.0
H695 H 0.32075 0.64582 0.88305 0.0
H696 H 0.54099 0.1386 0.02876 0.0
H697 H 0.56457 0.17834 0.04151 0.0
H698 H 0.62695 0.17669 0.0287 0.0
H699 H 0.60369 0.13735 0.01561 0.0
H700 H 0.62142 0.19086 0.0698 0.0
H701 H 0.60844 0.23857 0.00956 0.0
H702 H 0.5837 0.21331 0.01867 0.0
H703 H 0.60511 0.21041 0.00537 0.0
C704 C 0.55972 0.14686 0.02834 0.0
C705 C 0.57048 0.13477 0.02129 0.0
C706 C 0.57313 0.16948 0.0357 0.0
C707 C 0.59744 0.18031 0.03607 0.0
C708 C 0.60819 0.16851 0.02863 0.0
H709 H 0.72417 0.298 0.06583 0.0
H710 H 0.6905 0.25962 0.0616 0.0
C711 C 0.59487 0.14602 0.02123 0.0
C712 C 0.61199 0.20368 0.04474 0.0
H713 H 0.6354 0.2605 0.03465 0.0
C714 C 0.62426 0.20613 0.06229 0.0
C715 C 0.61538 0.22346 0.035 0.0
C716 C 0.60258 0.22153 0.01606 0.0
C717 C 0.64062 0.22793 0.06998 0.0
C718 C 0.64515 0.24772 0.05958 0.0
C719 C 0.63193 0.2453 0.04258 0.0
C720 C 0.66522 0.27071 0.06475 0.0
C721 C 0.65321 0.22954 0.08896 0.0
C722 C 0.66224 0.28976 0.06798 0.0
C723 C 0.68157 0.31188 0.07036 0.0
C724 C 0.7042 0.31532 0.06925 0.0
C725 C 0.70703 0.29603 0.06676 0.0
C726 C 0.68776 0.274 0.06447 0.0
H727 H 0.64256 0.21458 0.0982 0.0
H728 H 0.66949 0.22948 0.08581 0.0
H729 H 0.65775 0.24561 0.09736 0.0
H730 H 0.64498 0.28759 0.06812 0.0
H731 H 0.67874 0.32636 0.07216 0.0
H732 H 0.42401 0.55341 0.20518 0.0
H733 H 0.41284 0.57855 0.22239 0.0
H734 H 0.42215 0.61643 0.16985 0.0
H735 H 0.43274 0.59109 0.15245 0.0
H736 H 0.44068 0.62577 0.22813 0.0
H737 H 0.35926 0.60497 0.18828 0.0
H738 H 0.37188 0.58661 0.18703 0.0
H739 H 0.38254 0.6115 0.17205 0.0
C740 C 0.42313 0.56676 0.19718 0.0
C741 C 0.4292 0.57027 0.17744 0.0
C742 C 0.41691 0.58118 0.20707 0.0
C743 C 0.4164 0.59914 0.19733 0.0
C744 C 0.422 0.60238 0.17754 0.0
H745 H 0.44186 0.73145 0.22633 0.0
H746 H 0.44363 0.69628 0.22219 0.0
C747 C 0.42828 0.58805 0.16767 0.0
C748 C 0.41171 0.61565 0.20804 0.0
H749 H 0.37904 0.6417 0.2055 0.0
C750 C 0.42694 0.629 0.22345 0.0
C751 C 0.39352 0.61952 0.20218 0.0
C752 C 0.37572 0.60471 0.18661 0.0
C753 C 0.42539 0.64719 0.23228 0.0
C754 C 0.40841 0.6523 0.22526 0.0
C755 C 0.39222 0.63794 0.21076 0.0
C756 C 0.40846 0.67365 0.23119 0.0
C757 C 0.44223 0.66102 0.24874 0.0
C758 C 0.38816 0.67268 0.23782 0.0
C759 C 0.38699 0.69282 0.24003 0.0
C760 C 0.40608 0.71427 0.23548 0.0
C761 C 0.42683 0.71527 0.22996 0.0
C762 C 0.42794 0.69514 0.22772 0.0
H763 H 0.44802 0.65047 0.25682 0.0
H764 H 0.45784 0.67573 0.24262 0.0
H765 H 0.43444 0.66789 0.25918 0.0
H766 H 0.3729 0.65625 0.24051 0.0
H767 H 0.37076 0.6914 0.24438 0.0
H768 H 0.87453 0.42119 0.36452 0.0
H769 H 0.83349 0.40836 0.37014 0.0
H770 H 0.84615 0.47669 0.35903 0.0
H771 H 0.88678 0.48947 0.35296 0.0
H772 H 0.81338 0.42731 0.39781 0.0
H773 H 0.79277 0.43335 0.32006 0.0
H774 H 0.81832 0.43232 0.32775 0.0
H775 H 0.81777 0.45876 0.33 0.0
C776 C 0.86849 0.43342 0.3632 0.0
C777 C 0.88386 0.45633 0.35828 0.0
C778 C 0.84515 0.42611 0.36654 0.0
C779 C 0.83687 0.44156 0.36481 0.0
C780 C 0.85223 0.46449 0.36025 0.0
H781 H 0.71178 0.44678 0.36931 0.0
H782 H 0.7516 0.45421 0.36964 0.0
C783 C 0.87548 0.47179 0.35695 0.0
C784 C 0.81206 0.43388 0.3673 0.0
H785 H 0.76484 0.42965 0.34314 0.0
C786 C 0.80261 0.42753 0.38586 0.0
C787 C 0.79816 0.43414 0.35161 0.0
C788 C 0.80716 0.4398 0.33118 0.0
C789 C 0.77976 0.42238 0.38932 0.0
C790 C 0.76617 0.42344 0.37374 0.0
C791 C 0.77544 0.42909 0.35508 0.0
C792 C 0.74241 0.41934 0.37636 0.0
C793 C 0.77057 0.41666 0.40966 0.0
C794 C 0.72414 0.39734 0.38043 0.0
C795 C 0.70126 0.39298 0.38025 0.0
C796 C 0.69634 0.41055 0.37584 0.0
C797 C 0.71488 0.43281 0.37264 0.0
C798 C 0.73768 0.43712 0.37284 0.0
H799 H 0.78458 0.42065 0.42071 0.0
H800 H 0.76164 0.42631 0.4137 0.0
H801 H 0.75769 0.39802 0.41014 0.0
H802 H 0.72745 0.38333 0.38292 0.0
H803 H 0.68741 0.37564 0.38277 0.0
H804 H 0.09905 0.58141 0.4067 0.0
H805 H 0.12811 0.59494 0.43346 0.0
H806 H 0.11811 0.52655 0.43805 0.0
H807 H 0.08935 0.51303 0.41116 0.0
H808 H 0.1225 0.58151 0.47063 0.0
H809 H 0.18783 0.56433 0.43744 0.0
H810 H 0.16446 0.56383 0.4233 0.0
H811 H 0.15949 0.53922 0.43708 0.0
C812 C 0.10314 0.5693 0.41338 0.0
C813 C 0.092 0.54618 0.40679 0.0
C814 C 0.1198 0.57707 0.42861 0.0
C815 C 0.12561 0.56187 0.43753 0.0
C816 C 0.11444 0.53876 0.43102 0.0
H817 H 0.19587 0.56071 0.54318 0.0
H818 H 0.17316 0.55236 0.51268 0.0
C819 C 0.09793 0.53103 0.4157 0.0
C820 C 0.14232 0.56982 0.45442 0.0
H821 H 0.19128 0.57111 0.47215 0.0
C822 C 0.1377 0.57952 0.47085 0.0
C823 C 0.1622 0.56726 0.45469 0.0
C824 C 0.16894 0.55831 0.4371 0.0
C825 C 0.15197 0.58598 0.48777 0.0
C826 C 0.17136 0.58273 0.48823 0.0
C827 C 0.17629 0.57346 0.47172 0.0
C828 C 0.18618 0.58807 0.50605 0.0
C829 C 0.14587 0.59562 0.5053 0.0
C830 C 0.20129 0.61094 0.51218 0.0
C831 C 0.21441 0.61583 0.52956 0.0
C832 C 0.21253 0.59787 0.54117 0.0
C833 C 0.19768 0.57496 0.53469 0.0
C834 C 0.18471 0.57013 0.51724 0.0
H835 H 0.12864 0.59433 0.50345 0.0
H836 H 0.14585 0.5864 0.51862 0.0
H837 H 0.15919 0.61403 0.50764 0.0
H838 H 0.20272 0.625 0.50361 0.0
H839 H 0.22567 0.63365 0.53409 0.0
H840 H 0.57522 0.12505 0.55416 0.0
H841 H 0.59334 0.15214 0.58177 0.0
H842 H 0.54141 0.10368 0.61969 0.0
H843 H 0.52422 0.07585 0.59259 0.0
H844 H 0.57876 0.17357 0.60515 0.0
H845 H 0.59906 0.11757 0.64968 0.0
H846 H 0.58915 0.11059 0.62453 0.0
H847 H 0.56865 0.10401 0.64367 0.0
C848 C 0.56786 0.11993 0.56843 0.0
C849 C 0.54837 0.09805 0.5711 0.0
C850 C 0.57813 0.13558 0.58418 0.0
C851 C 0.56907 0.12977 0.60291 0.0
C852 C 0.54913 0.10832 0.6055 0.0
H853 H 0.59437 0.22328 0.70096 0.0
H854 H 0.58076 0.20039 0.67054 0.0
C855 C 0.53906 0.09254 0.58985 0.0
C856 C 0.58035 0.14617 0.61973 0.0
H857 H 0.60162 0.15042 0.66619 0.0
C858 C 0.58395 0.16859 0.61845 0.0
C859 C 0.58762 0.13986 0.63693 0.0
C860 C 0.58616 0.11679 0.63872 0.0
C861 C 0.59402 0.18465 0.63408 0.0
C862 C 0.59995 0.17785 0.65172 0.0
C863 C 0.59687 0.15561 0.65278 0.0
C864 C 0.60909 0.19325 0.66939 0.0
C865 C 0.59855 0.2088 0.63134 0.0
C866 C 0.6293 0.19656 0.67916 0.0
C867 C 0.63677 0.20914 0.69682 0.0
C868 C 0.62433 0.21892 0.70498 0.0
C869 C 0.60449 0.2162 0.69492 0.0
C870 C 0.59678 0.20323 0.67743 0.0
H871 H 0.60068 0.21331 0.61568 0.0
H872 H 0.58348 0.21002 0.63653 0.0
H873 H 0.61434 0.22166 0.63967 0.0
H874 H 0.6391 0.18902 0.67329 0.0
H875 H 0.65216 0.21099 0.7042 0.0
H876 H 0.52147 0.6038 0.71114 0.0
H877 H 0.51186 0.61925 0.7398 0.0
H878 H 0.45251 0.55239 0.74919 0.0
H879 H 0.46263 0.53653 0.72121 0.0
H880 H 0.47362 0.62197 0.74639 0.0
H881 H 0.48246 0.56878 0.80301 0.0
H882 H 0.49306 0.5704 0.77867 0.0
H883 H 0.46284 0.55153 0.78349 0.0
C884 C 0.5066 0.59227 0.71949 0.0
C885 C 0.49291 0.56887 0.71389 0.0
C886 C 0.50105 0.60117 0.73581 0.0
C887 C 0.48175 0.58688 0.74688 0.0
C888 C 0.46784 0.56362 0.74118 0.0
H889 H 0.39702 0.60123 0.83072 0.0
H890 H 0.41608 0.58908 0.80713 0.0
C891 C 0.47345 0.55466 0.72495 0.0
C892 C 0.47545 0.59649 0.76384 0.0
H893 H 0.46166 0.58814 0.81199 0.0
C894 C 0.47136 0.61482 0.76081 0.0
C895 C 0.47264 0.58721 0.78269 0.0
C896 C 0.47822 0.56856 0.78723 0.0
C897 C 0.46354 0.62343 0.77588 0.0
C898 C 0.45982 0.6135 0.79444 0.0
C899 C 0.46452 0.59564 0.79768 0.0
C900 C 0.44935 0.62032 0.81017 0.0
C901 C 0.4584 0.64247 0.77171 0.0
C902 C 0.46198 0.64173 0.82001 0.0
C903 C 0.45118 0.64869 0.83372 0.0
C904 C 0.42755 0.63437 0.83767 0.0
C905 C 0.41524 0.61265 0.82816 0.0
C906 C 0.42608 0.60566 0.81462 0.0
H907 H 0.45995 0.64669 0.756 0.0
H908 H 0.4406 0.6375 0.77629 0.0
H909 H 0.47075 0.6582 0.78029 0.0
H910 H 0.48003 0.65322 0.81677 0.0
H911 H 0.46113 0.66554 0.84076 0.0
H912 H 0.93377 0.52431 0.9162 0.0
H913 H 0.90984 0.51339 0.94517 0.0
H914 H 0.89648 0.44379 0.93822 0.0
H915 H 0.92028 0.45452 0.90923 0.0
H916 H 0.86337 0.48047 0.94765 0.0
H917 H 0.91761 0.45923 0.99553 0.0
H918 H 0.9283 0.47524 0.9735 0.0
H919 H 0.91042 0.44441 0.97218 0.0
C920 C 0.92565 0.50665 0.9208 0.0
C921 C 0.92896 0.49028 0.91046 0.0
C922 C 0.91213 0.50049 0.93741 0.0
C923 C 0.90178 0.4779 0.94404 0.0
C924 C 0.90484 0.46147 0.93365 0.0
H925 H 0.80061 0.39413 0.0258 0.0
H926 H 0.83153 0.41148 0.00232 0.0
C927 C 0.91839 0.46761 0.91706 0.0
C928 C 0.88682 0.4712 0.96126 0.0
H929 H 0.87909 0.44687 0.0059 0.0
C930 C 0.86693 0.4734 0.9605 0.0
C931 C 0.89157 0.462 0.97799 0.0
C932 C 0.91325 0.46026 0.97999 0.0
C933 C 0.85114 0.46578 0.97572 0.0
C934 C 0.85561 0.45608 0.99225 0.0
C935 C 0.87576 0.45435 0.9932 0.0
C936 C 0.83875 0.44627 0.00805 0.0
C937 C 0.82932 0.46729 0.97362 0.0
C938 C 0.83311 0.46021 0.0195 0.0
C939 C 0.81541 0.45034 0.03301 0.0
C940 C 0.80317 0.42637 0.0353 0.0
C941 C 0.80969 0.41263 0.02445 0.0
C942 C 0.82736 0.42251 0.01099 0.0
H943 H 0.82629 0.47087 0.95841 0.0
H944 H 0.81394 0.45104 0.97804 0.0
H945 H 0.83087 0.48144 0.9833 0.0
H946 H 0.842 0.47865 0.01765 0.0
H947 H 0.81087 0.46139 0.0412 0.0
H948 H 0.49059 0.93472 0.08198 0.0
H949 H 0.47528 0.91065 0.11051 0.0
H950 H 0.41861 0.92454 0.11171 0.0
H951 H 0.43372 0.94846 0.08305 0.0
H952 H 0.46629 0.92066 0.14793 0.0
H953 H 0.38544 0.85445 0.1093 0.0
H954 H 0.40976 0.87635 0.09653 0.0
H955 H 0.39024 0.88325 0.10879 0.0
C956 C 0.47496 0.93275 0.08841 0.0
C957 C 0.46321 0.94326 0.08021 0.0
C958 C 0.46623 0.919 0.10467 0.0
C959 C 0.44564 0.91556 0.11301 0.0
C960 C 0.43424 0.92658 0.10521 0.0
H961 H 0.36589 0.82015 0.20414 0.0
H962 H 0.38122 0.85304 0.18256 0.0
C963 C 0.44287 0.9402 0.08886 0.0
C964 C 0.43593 0.90001 0.12959 0.0
H965 H 0.38963 0.84907 0.14267 0.0
C966 C 0.44948 0.90506 0.14684 0.0
C967 C 0.41396 0.87972 0.12811 0.0
C968 C 0.39905 0.87294 0.10965 0.0
C969 C 0.44175 0.89016 0.16259 0.0
C970 C 0.42006 0.86963 0.1609 0.0
C971 C 0.40621 0.86493 0.14391 0.0
C972 C 0.4122 0.85177 0.17578 0.0
C973 C 0.4569 0.89638 0.18084 0.0
C974 C 0.42464 0.84031 0.17913 0.0
C975 C 0.4159 0.82149 0.1913 0.0
C976 C 0.39453 0.81377 0.20034 0.0
C977 C 0.38243 0.82572 0.19743 0.0
C978 C 0.39115 0.84451 0.18514 0.0
H979 H 0.46939 0.91518 0.18206 0.0
H980 H 0.44625 0.89103 0.1941 0.0
H981 H 0.46701 0.88734 0.18036 0.0
H982 H 0.44067 0.84534 0.1717 0.0
H983 H 0.42555 0.81256 0.19305 0.0
H984 H 0.5395 0.45496 0.20389 0.0
H985 H 0.54935 0.43814 0.23125 0.0
H986 H 0.49462 0.43753 0.26459 0.0
H987 H 0.48491 0.45475 0.23738 0.0
H988 H 0.53837 0.45632 0.28495 0.0
H989 H 0.51136 0.37117 0.24999 0.0
H990 H 0.53023 0.39513 0.23545 0.0
H991 H 0.50181 0.39028 0.24091 0.0
C992 C 0.52961 0.4513 0.21706 0.0
C993 C 0.51141 0.45612 0.21849 0.0
C994 C 0.53509 0.44149 0.23259 0.0
C995 C 0.52247 0.43631 0.24979 0.0
C996 C 0.5044 0.44123 0.25135 0.0
H997 H 0.54617 0.35906 0.34069 0.0
H998 H 0.52607 0.37249 0.31889 0.0
C999 C 0.49882 0.45095 0.23578 0.0
C1000 C 0.52879 0.42653 0.26638 0.0
H1001 H 0.53555 0.38118 0.27883 0.0
C1002 C 0.53749 0.43976 0.28374 0.0
C1003 C 0.52726 0.40478 0.26483 0.0
C1004 C 0.51695 0.38938 0.24686 0.0
C1005 C 0.54583 0.4323 0.29928 0.0
C1006 C 0.54562 0.4112 0.29724 0.0
C1007 C 0.53581 0.39743 0.28028 0.0
C1008 C 0.55719 0.40397 0.31179 0.0
C1009 C 0.55514 0.44721 0.3176 0.0
C1010 C 0.58128 0.41724 0.31495 0.0
C1011 C 0.59278 0.4096 0.32724 0.0
C1012 C 0.58041 0.38852 0.33664 0.0
C1013 C 0.55618 0.37543 0.33374 0.0
C1014 C 0.54467 0.38305 0.32131 0.0
H1015 H 0.54795 0.45893 0.3192 0.0
H1016 H 0.55103 0.43656 0.33078 0.0
H1017 H 0.5743 0.45796 0.31688 0.0
H1018 H 0.59131 0.43318 0.30739 0.0
H1019 H 0.61146 0.41997 0.3289 0.0
H1020 H 0.43068 0.93023 0.40639 0.0
H1021 H 0.41796 0.90158 0.37957 0.0
H1022 H 0.47447 0.88966 0.39342 0.0
H1023 H 0.48699 0.91788 0.42053 0.0
H1024 H 0.44464 0.90383 0.34747 0.0
H1025 H 0.41768 0.82421 0.38867 0.0
H1026 H 0.42138 0.85039 0.39997 0.0
H1027 H 0.44625 0.84743 0.39516 0.0
C1028 C 0.44016 0.92122 0.40393 0.0
C1029 C 0.45984 0.92631 0.41558 0.0
C1030 C 0.43294 0.90495 0.38856 0.0
C1031 C 0.44511 0.89331 0.38468 0.0
C1032 C 0.46461 0.89817 0.39639 0.0
H1033 H 0.45133 0.82832 0.27746 0.0
H1034 H 0.45902 0.85134 0.30749 0.0
C1035 C 0.47189 0.91449 0.41171 0.0
C1036 C 0.4383 0.87716 0.36765 0.0
H1037 H 0.42124 0.82156 0.35425 0.0
C1038 C 0.43937 0.88581 0.34895 0.0
C1039 C 0.43124 0.85363 0.36966 0.0
C1040 C 0.42883 0.84325 0.38945 0.0
C1041 C 0.43417 0.87168 0.33216 0.0
C1042 C 0.42797 0.84837 0.33413 0.0
C1043 C 0.42624 0.83952 0.35283 0.0
C1044 C 0.4235 0.8331 0.31683 0.0
C1045 C 0.43531 0.88177 0.31241 0.0
C1046 C 0.4011 0.81472 0.31251 0.0
C1047 C 0.39658 0.80145 0.29531 0.0
C1048 C 0.41447 0.80628 0.28222 0.0
C1049 C 0.4371 0.82415 0.2871 0.0
C1050 C 0.44154 0.83741 0.30423 0.0
H1051 H 0.43514 0.89822 0.31357 0.0
H1052 H 0.45163 0.88527 0.30538 0.0
H1053 H 0.42053 0.86952 0.30276 0.0
H1054 H 0.38699 0.81109 0.32215 0.0
H1055 H 0.37898 0.78778 0.29207 0.0
H1056 H 0.53085 0.43289 0.56104 0.0
H1057 H 0.5427 0.41757 0.5336 0.0
H1058 H 0.59792 0.48609 0.52191 0.0
H1059 H 0.58633 0.50143 0.54934 0.0
H1060 H 0.54401 0.4273 0.49528 0.0
H1061 H 0.63227 0.45068 0.52191 0.0
H1062 H 0.61109 0.45137 0.53763 0.0
H1063 H 0.62793 0.475 0.52194 0.0
C1064 C 0.54556 0.44465 0.55264 0.0
C1065 C 0.55775 0.46835 0.5574 0.0
C1066 C 0.55236 0.43588 0.53704 0.0
C1067 C 0.57148 0.45062 0.52595 0.0
C1068 C 0.58356 0.47429 0.53062 0.0
H1069 H 0.62989 0.44936 0.41654 0.0
H1070 H 0.61839 0.45766 0.44795 0.0
C1071 C 0.57687 0.48305 0.54626 0.0
C1072 C 0.57805 0.44156 0.50882 0.0
H1073 H 0.6241 0.44144 0.4876 0.0
C1074 C 0.56142 0.43007 0.49372 0.0
C1075 C 0.60075 0.4451 0.50685 0.0
C1076 C 0.61896 0.456 0.52304 0.0
C1077 C 0.56718 0.42295 0.47636 0.0
C1078 C 0.5901 0.42736 0.47412 0.0
C1079 C 0.60656 0.43823 0.48939 0.0
C1080 C 0.59762 0.42198 0.45556 0.0
C1081 C 0.54902 0.41156 0.46019 0.0
C1082 C 0.58996 0.39914 0.44964 0.0
C1083 C 0.59658 0.39428 0.4317 0.0
C1084 C 0.61087 0.41223 0.41937 0.0
C1085 C 0.61877 0.43511 0.42559 0.0
C1086 C 0.61228 0.43992 0.44355 0.0
H1087 H 0.53289 0.41197 0.4633 0.0
H1088 H 0.55592 0.42016 0.44617 0.0
H1089 H 0.54452 0.39332 0.45831 0.0
H1090 H 0.57876 0.38509 0.45884 0.0
H1091 H 0.59019 0.37647 0.42739 0.0
H1092 H 0.09464 0.60002 0.75269 0.0
H1093 H 0.12035 0.61186 0.72481 0.0
H1094 H 0.09539 0.54068 0.70899 0.0
H1095 H 0.06939 0.52868 0.73667 0.0
H1096 H 0.15555 0.59955 0.71841 0.0
H1097 H 0.09001 0.57033 0.65742 0.0
H1098 H 0.08372 0.57489 0.68211 0.0
H1099 H 0.08477 0.54941 0.67564 0.0
C1100 C 0.09442 0.58689 0.74312 0.0
C1101 C 0.07999 0.56342 0.74684 0.0
C1102 C 0.10915 0.59368 0.72728 0.0
C1103 C 0.10952 0.57713 0.71476 0.0
C1104 C 0.09508 0.55369 0.71834 0.0
H1105 H 0.21455 0.59102 0.63514 0.0
H1106 H 0.18391 0.578 0.65905 0.0
C1107 C 0.08044 0.54688 0.73426 0.0
C1108 C 0.12592 0.58441 0.69856 0.0
H1109 H 0.129 0.5831 0.64887 0.0
C1110 C 0.14977 0.59604 0.70321 0.0
C1111 C 0.11825 0.57989 0.67877 0.0
C1112 C 0.0928 0.56811 0.67308 0.0
C1113 C 0.16621 0.60291 0.68854 0.0
C1114 C 0.15854 0.59792 0.66879 0.0
C1115 C 0.13472 0.58669 0.66408 0.0
C1116 C 0.17525 0.60436 0.65292 0.0
C1117 C 0.19171 0.61551 0.69421 0.0
C1118 C 0.17999 0.6231 0.64126 0.0
C1119 C 0.19754 0.63065 0.6276 0.0
C1120 C 0.21046 0.61942 0.62533 0.0
C1121 C 0.20491 0.60002 0.63649 0.0
C1122 C 0.18747 0.59258 0.65019 0.0
H1123 H 0.19482 0.62131 0.70981 0.0
H1124 H 0.19887 0.6039 0.69177 0.0
H1125 H 0.20136 0.63073 0.68499 0.0
H1126 H 0.17066 0.63235 0.64321 0.0
H1127 H 0.20137 0.64562 0.61919 0.0
H1128 H 0.56672 0.08637 0.90732 0.0
H1129 H 0.57683 0.11101 0.87907 0.0
H1130 H 0.51241 0.1114 0.88305 0.0
H1131 H 0.50273 0.08787 0.91195 0.0
H1132 H 0.55508 0.10437 0.84341 0.0
H1133 H 0.55925 0.17933 0.88292 0.0
H1134 H 0.55768 0.15519 0.89545 0.0
H1135 H 0.5319 0.15325 0.88467 0.0
C1136 C 0.55484 0.09198 0.9024 0.0
C1137 C 0.53401 0.08531 0.91207 0.0
C1138 C 0.56055 0.10586 0.88611 0.0
C1139 C 0.54554 0.11333 0.87915 0.0
C1140 C 0.52446 0.10622 0.88842 0.0
H1141 H 0.56144 0.20655 0.78567 0.0
H1142 H 0.54422 0.17525 0.80882 0.0
C1143 C 0.51883 0.09251 0.90481 0.0
C1144 C 0.55212 0.12872 0.8623 0.0
H1145 H 0.56335 0.18196 0.84871 0.0
C1146 C 0.55686 0.12132 0.84455 0.0
C1147 C 0.55444 0.15084 0.86385 0.0
C1148 C 0.55077 0.16026 0.88279 0.0
C1149 C 0.56394 0.13552 0.82831 0.0
C1150 C 0.56638 0.15763 0.82994 0.0
C1151 C 0.56124 0.16487 0.84753 0.0
C1152 C 0.57584 0.17427 0.81409 0.0
C1153 C 0.5688 0.12685 0.80954 0.0
C1154 C 0.59922 0.18384 0.80932 0.0
C1155 C 0.60916 0.20182 0.79628 0.0
C1156 C 0.59584 0.21048 0.78773 0.0
C1157 C 0.57215 0.20021 0.79196 0.0
C1158 C 0.56228 0.18236 0.80516 0.0
H1159 H 0.56105 0.10785 0.8092 0.0
H1160 H 0.56195 0.13181 0.79675 0.0
H1161 H 0.58785 0.13475 0.80808 0.0
H1162 H 0.61005 0.17807 0.81633 0.0
H1163 H 0.62745 0.2094 0.79346 0.0
H1164 H 0.47584 0.59315 0.06756 0.0
H1165 H 0.46453 0.6077 0.03934 0.0
H1166 H 0.41138 0.53847 0.0231 0.0
H1167 H 0.42244 0.52388 0.05128 0.0
H1168 H 0.46506 0.59808 0.00079 0.0
H1169 H 0.37519 0.572 0.02104 0.0
H1170 H 0.39613 0.57211 0.0382 0.0
H1171 H 0.38051 0.54831 0.02111 0.0
C1172 C 0.46171 0.58106 0.05798 0.0
C1173 C 0.44993 0.55738 0.06171 0.0
C1174 C 0.45521 0.58939 0.04192 0.0
C1175 C 0.43681 0.57423 0.02932 0.0
C1176 C 0.42517 0.55058 0.03294 0.0
H1177 H 0.38023 0.57382 0.91656 0.0
H1178 H 0.39154 0.56592 0.94831 0.0
C1179 C 0.43155 0.54225 0.04903 0.0
C1180 C 0.43048 0.58288 0.01182 0.0
H1181 H 0.38454 0.5815 0.98752 0.0
C1182 C 0.44754 0.59476 0.99802 0.0
C1183 C 0.40762 0.57862 0.00826 0.0
C1184 C 0.38888 0.56728 0.02304 0.0
C1185 C 0.44211 0.6016 0.98037 0.0
C1186 C 0.41908 0.59653 0.97652 0.0
C1187 C 0.40216 0.58523 0.99052 0.0
C1188 C 0.41195 0.60169 0.95758 0.0
C1189 C 0.46079 0.61343 0.96562 0.0
C1190 C 0.41949 0.62445 0.95242 0.0
C1191 C 0.41297 0.62908 0.93427 0.0
C1192 C 0.39888 0.61099 0.92096 0.0
C1193 C 0.39118 0.58819 0.92637 0.0
C1194 C 0.39757 0.58361 0.94453 0.0
H1195 H 0.47693 0.61325 0.96968 0.0
H1196 H 0.45453 0.60502 0.95096 0.0
H1197 H 0.46507 0.63161 0.96454 0.0
H1198 H 0.43043 0.63862 0.96242 0.0
H1199 H 0.41919 0.64683 0.93061 0.0
H1200 H 0.90433 0.42524 0.25672 0.0
H1201 H 0.87689 0.41227 0.22877 0.0
H1202 H 0.89186 0.4819 0.22072 0.0
H1203 H 0.91965 0.49511 0.24842 0.0
H1204 H 0.83655 0.41768 0.22142 0.0
H1205 H 0.9061 0.46106 0.16753 0.0
H1206 H 0.91202 0.4559 0.19217 0.0
H1207 H 0.90636 0.47892 0.18751 0.0
C1208 C 0.90183 0.43781 0.24897 0.0
C1209 C 0.91432 0.46124 0.2547 0.0
C1210 C 0.88602 0.43034 0.23311 0.0
C1211 C 0.88254 0.44616 0.22259 0.0
C1212 C 0.89448 0.46946 0.22856 0.0
H1213 H 0.77867 0.41555 0.12919 0.0
H1214 H 0.80124 0.42847 0.16004 0.0
C1215 C 0.91022 0.47694 0.24447 0.0
C1216 C 0.86706 0.43838 0.20494 0.0
H1217 H 0.86744 0.44225 0.15531 0.0
C1218 C 0.84323 0.4231 0.20696 0.0
C1219 C 0.87593 0.44532 0.18611 0.0
C1220 C 0.90152 0.46106 0.18305 0.0
C1221 C 0.82799 0.41459 0.19057 0.0
C1222 C 0.83686 0.42168 0.17176 0.0
C1223 C 0.86069 0.43697 0.16978 0.0
C1224 C 0.82201 0.4127 0.15378 0.0
C1225 C 0.80264 0.39767 0.19341 0.0
C1226 C 0.82623 0.3996 0.14005 0.0
C1227 C 0.81345 0.39222 0.12245 0.0
C1228 C 0.79622 0.39795 0.11809 0.0
C1229 C 0.79174 0.41077 0.13206 0.0
C1230 C 0.80456 0.4181 0.14974 0.0
H1231 H 0.79939 0.39067 0.20834 0.0
H1232 H 0.79242 0.40642 0.19113 0.0
H1233 H 0.79623 0.38314 0.18259 0.0
H1234 H 0.83966 0.39528 0.14288 0.0
H1235 H 0.81742 0.38238 0.11212 0.0
loop_
_geom_bond_atom_site_label_1
_geom_bond_atom_site_label_2
_geom_bond_distance
_geom_bond_site_symmetry_2
_ccdc_geom_bond_type
H0 C19 0.949 . S
H1 C20 0.950 . S
H2 C22 0.950 . S
H3 C23 0.950 . S
H4 C25 0.950 . S
H5 C28 0.950 . S
H6 C29 0.950 . S
H7 C31 0.951 . S
H8 C32 0.949 . S
H9 C34 0.949 . S
H10 C35 0.950 . S
H11 C37 0.950 . S
H12 C38 0.950 . S
H13 C40 0.950 . S
H14 C43 0.950 . S
H15 C44 0.950 . S
H16 C46 0.951 . S
H17 C47 0.949 . S
C18 C19 1.376 . S
C18 C23 1.386 . S
C18 C24 1.483 . S
C19 H0 0.949 . S
C19 C18 1.376 . S
C19 C20 1.397 . S
C20 H1 0.950 . S
C20 C19 1.397 . S
C20 C21 1.391 . S
C21 C20 1.391 . S
C21 C22 1.405 . S
C22 H2 0.950 . S
C22 C21 1.405 . S
C22 C23 1.367 . S
C23 H3 0.950 . S
C23 C18 1.386 . S
C23 C22 1.367 . S
C24 C18 1.483 . S
C24 C25 1.382 1_655 S
C24 C26 1.403 . S
C25 H4 0.950 . S
C25 C24 1.382 1_455 S
C25 C41 1.411 . S
C26 C24 1.403 . S
C26 C27 1.489 . S
C26 C40 1.411 . S
C27 C26 1.489 . S
C27 C28 1.383 . S
C27 C32 1.382 . S
C28 H5 0.950 . S
C28 C27 1.383 . S
C28 C29 1.395 . S
C29 H6 0.950 . S
C29 C28 1.395 . S
C29 C30 1.288 . S
C30 C29 1.288 . S
C30 C31 1.392 . S
C31 H7 0.951 . S
C31 C30 1.392 . S
C31 C32 1.392 . S
C32 H8 0.949 . S
C32 C27 1.382 . S
C32 C31 1.392 . S
C33 C34 1.376 . S
C33 C38 1.386 . S
C33 C39 1.483 . S
C34 H9 0.949 . S
C34 C33 1.376 . S
C34 C35 1.397 . S
C35 H10 0.950 . S
C35 C34 1.397 . S
C35 C36 1.391 . S
C36 C35 1.391 . S
C36 C37 1.405 . S
C37 H11 0.950 . S
C37 C36 1.405 . S
C37 C38 1.367 . S
C38 H12 0.950 . S
C38 C33 1.386 . S
C38 C37 1.367 . S
C39 C33 1.483 . S
C39 C40 1.382 1_455 S
C39 C41 1.403 . S
C40 H13 0.950 . S
C40 C26 1.411 . S
C40 C39 1.382 1_655 S
C41 C25 1.411 . S
C41 C39 1.403 . S
C41 C42 1.489 . S
C42 C41 1.489 . S
C42 C43 1.383 . S
C42 C47 1.382 . S
C43 H14 0.950 . S
C43 C42 1.383 . S
C43 C44 1.395 . S
C44 H15 0.950 . S
C44 C43 1.395 . S
C44 C45 1.288 . S
C45 C44 1.288 . S
C45 C46 1.392 . S
C46 H16 0.951 . S
C46 C45 1.392 . S
C46 C47 1.392 . S
C47 H17 0.949 . S
C47 C42 1.382 . S
C47 C46 1.392 . S
H48 C67 0.949 . S
H49 C68 0.950 . S
H50 C70 0.950 . S
H51 C71 0.950 . S
H52 C73 0.950 . S
H53 C76 0.950 . S
H54 C77 0.950 . S
H55 C79 0.951 . S
H56 C80 0.949 . S
H57 C82 0.949 . S
H58 C83 0.950 . S
H59 C85 0.950 . S
H60 C86 0.950 . S
H61 C88 0.950 . S
H62 C91 0.950 . S
H63 C92 0.950 . S
H64 C94 0.951 . S
H65 C95 0.949 . S
C66 C67 1.376 . S
C66 C71 1.386 . S
C66 C72 1.483 . S
C67 H48 0.949 . S
C67 C66 1.376 . S
C67 C68 1.397 . S
C68 H49 0.950 . S
C68 C67 1.397 . S
C68 C69 1.391 . S
C69 C68 1.391 . S
C69 C70 1.405 . S
C70 H50 0.950 . S
C70 C69 1.405 . S
C70 C71 1.367 . S
C71 H51 0.950 . S
C71 C66 1.386 . S
C71 C70 1.367 . S
C72 C66 1.483 . S
C72 C73 1.382 1_565 S
C72 C74 1.403 . S
C73 H52 0.950 . S
C73 C72 1.382 1_545 S
C73 C89 1.411 . S
C74 C72 1.403 . S
C74 C75 1.489 . S
C74 C88 1.411 1_565 S
C75 C74 1.489 . S
C75 C76 1.383 . S
C75 C80 1.382 . S
C76 H53 0.950 . S
C76 C75 1.383 . S
C76 C77 1.395 . S
C77 H54 0.950 . S
C77 C76 1.395 . S
C77 C78 1.288 . S
C78 C77 1.288 . S
C78 C79 1.392 . S
C79 H55 0.951 . S
C79 C78 1.392 . S
C79 C80 1.392 . S
C80 H56 0.949 . S
C80 C75 1.382 . S
C80 C79 1.392 . S
C81 C82 1.376 . S
C81 C86 1.386 . S
C81 C87 1.483 . S
C82 H57 0.949 . S
C82 C81 1.376 . S
C82 C83 1.397 . S
C83 H58 0.950 . S
C83 C82 1.397 . S
C83 C84 1.391 . S
C84 C83 1.391 . S
C84 C85 1.405 . S
C85 H59 0.950 . S
C85 C84 1.405 . S
C85 C86 1.367 . S
C86 H60 0.950 . S
C86 C81 1.386 . S
C86 C85 1.367 . S
C87 C81 1.483 . S
C87 C88 1.382 . S
C87 C89 1.403 . S
C88 H61 0.950 . S
C88 C74 1.411 1_545 S
C88 C87 1.382 . S
C89 C73 1.411 . S
C89 C87 1.403 . S
C89 C90 1.489 . S
C90 C89 1.489 . S
C90 C91 1.383 . S
C90 C95 1.382 . S
C91 H62 0.950 . S
C91 C90 1.383 . S
C91 C92 1.395 . S
C92 H63 0.950 . S
C92 C91 1.395 . S
C92 C93 1.288 . S
C93 C92 1.288 . S
C93 C94 1.392 . S
C94 H64 0.951 . S
C94 C93 1.392 . S
C94 C95 1.392 . S
C95 H65 0.949 . S
C95 C90 1.382 . S
C95 C94 1.392 . S
H96 C115 0.949 . S
H97 C116 0.950 . S
H98 C118 0.950 . S
H99 C119 0.950 . S
H100 C121 0.950 . S
H101 C124 0.950 . S
H102 C125 0.950 . S
H103 C127 0.951 . S
H104 C128 0.949 . S
H105 C130 0.949 . S
H106 C131 0.950 . S
H107 C133 0.950 . S
H108 C134 0.950 . S
H109 C136 0.950 . S
H110 C139 0.950 . S
H111 C140 0.950 . S
H112 C142 0.951 . S
H113 C143 0.949 . S
C114 C115 1.376 . S
C114 C119 1.386 . S
C114 C120 1.483 . S
C115 H96 0.949 . S
C115 C114 1.376 . S
C115 C116 1.397 . S
C116 H97 0.950 . S
C116 C115 1.397 . S
C116 C117 1.391 . S
C117 C116 1.391 . S
C117 C118 1.405 . S
C118 H98 0.950 . S
C118 C117 1.405 . S
C118 C119 1.367 . S
C119 H99 0.950 . S
C119 C114 1.386 . S
C119 C118 1.367 . S
C120 C114 1.483 . S
C120 C121 1.382 . S
C120 C122 1.403 . S
C121 H100 0.950 . S
C121 C120 1.382 . S
C121 C137 1.411 . S
C122 C120 1.403 . S
C122 C123 1.489 . S
C122 C136 1.411 . S
C123 C122 1.489 . S
C123 C124 1.383 . S
C123 C128 1.382 . S
C124 H101 0.950 . S
C124 C123 1.383 . S
C124 C125 1.395 . S
C125 H102 0.950 . S
C125 C124 1.395 . S
C125 C126 1.288 . S
C126 C125 1.288 . S
C126 C127 1.392 . S
C127 H103 0.951 . S
C127 C126 1.392 . S
C127 C128 1.392 . S
C128 H104 0.949 . S
C128 C123 1.382 . S
C128 C127 1.392 . S
C129 C130 1.376 . S
C129 C134 1.386 . S
C129 C135 1.483 . S
C130 H105 0.949 . S
C130 C129 1.376 . S
C130 C131 1.397 . S
C131 H106 0.950 . S
C131 C130 1.397 . S
C131 C132 1.391 . S
C132 C131 1.391 . S
C132 C133 1.405 . S
C133 H107 0.950 . S
C133 C132 1.405 . S
C133 C134 1.367 . S
C134 H108 0.950 . S
C134 C129 1.386 . S
C134 C133 1.367 . S
C135 C129 1.483 . S
C135 C136 1.382 . S
C135 C137 1.403 . S
C136 H109 0.950 . S
C136 C122 1.411 . S
C136 C135 1.382 . S
C137 C121 1.411 . S
C137 C135 1.403 . S
C137 C138 1.489 . S
C138 C137 1.489 . S
C138 C139 1.383 . S
C138 C143 1.382 . S
C139 H110 0.950 . S
C139 C138 1.383 . S
C139 C140 1.395 . S
C140 H111 0.950 . S
C140 C139 1.395 . S
C140 C141 1.288 . S
C141 C140 1.288 . S
C141 C142 1.392 . S
C142 H112 0.951 . S
C142 C141 1.392 . S
C142 C143 1.392 . S
C143 H113 0.949 . S
C143 C138 1.382 . S
C143 C142 1.392 . S
H144 C163 0.949 . S
H145 C164 0.950 . S
H146 C166 0.950 . S
H147 C167 0.950 . S
H148 C169 0.950 1_655 S
H149 C172 0.950 . S
H150 C173 0.950 . S
H151 C175 0.951 . S
H152 C176 0.949 . S
H153 C178 0.949 . S
H154 C179 0.950 . S
H155 C181 0.950 . S
H156 C182 0.950 . S
H157 C184 0.950 . S
H158 C187 0.950 . S
H159 C188 0.950 . S
H160 C190 0.951 . S
H161 C191 0.949 . S
C162 C163 1.376 . S
C162 C167 1.386 . S
C162 C168 1.483 . S
C163 H144 0.949 . S
C163 C162 1.376 . S
C163 C164 1.397 . S
C164 H145 0.950 . S
C164 C163 1.397 . S
C164 C165 1.391 . S
C165 C164 1.391 . S
C165 C166 1.405 . S
C166 H146 0.950 . S
C166 C165 1.405 . S
C166 C167 1.367 . S
C167 H147 0.950 . S
C167 C162 1.386 . S
C167 C166 1.367 . S
C168 C162 1.483 . S
C168 C169 1.382 . S
C168 C170 1.403 . S
C169 H148 0.950 1_455 S
C169 C168 1.382 . S
C169 C185 1.411 1_455 S
C170 C168 1.403 . S
C170 C171 1.489 . S
C170 C184 1.411 . S
C171 C170 1.489 . S
C171 C172 1.383 . S
C171 C176 1.382 . S
C172 H149 0.950 . S
C172 C171 1.383 . S
C172 C173 1.395 . S
C173 H150 0.950 . S
C173 C172 1.395 . S
C173 C174 1.288 . S
C174 C173 1.288 . S
C174 C175 1.392 . S
C175 H151 0.951 . S
C175 C174 1.392 . S
C175 C176 1.392 . S
C176 H152 0.949 . S
C176 C171 1.382 . S
C176 C175 1.392 . S
C177 C178 1.376 . S
C177 C182 1.386 . S
C177 C183 1.483 . S
C178 H153 0.949 . S
C178 C177 1.376 . S
C178 C179 1.397 . S
C179 H154 0.950 . S
C179 C178 1.397 . S
C179 C180 1.391 . S
C180 C179 1.391 . S
C180 C181 1.405 . S
C181 H155 0.950 . S
C181 C180 1.405 . S
C181 C182 1.367 . S
C182 H156 0.950 . S
C182 C177 1.386 . S
C182 C181 1.367 . S
C183 C177 1.483 . S
C183 C184 1.382 1_655 S
C183 C185 1.403 . S
C184 H157 0.950 . S
C184 C170 1.411 . S
C184 C183 1.382 1_455 S
C185 C169 1.411 1_655 S
C185 C183 1.403 . S
C185 C186 1.489 . S
C186 C185 1.489 . S
C186 C187 1.383 . S
C186 C191 1.382 . S
C187 H158 0.950 . S
C187 C186 1.383 . S
C187 C188 1.395 . S
C188 H159 0.950 . S
C188 C187 1.395 . S
C188 C189 1.288 . S
C189 C188 1.288 . S
C189 C190 1.392 . S
C190 H160 0.951 . S
C190 C189 1.392 . S
C190 C191 1.392 . S
C191 H161 0.949 . S
C191 C186 1.382 . S
C191 C190 1.392 . S
H192 C211 0.949 . S
H193 C212 0.950 . S
H194 C214 0.950 . S
H195 C215 0.950 . S
H196 C217 0.950 . S
H197 C220 0.950 . S
H198 C221 0.950 . S
H199 C223 0.951 . S
H200 C224 0.949 . S
H201 C226 0.949 . S
H202 C227 0.950 . S
H203 C229 0.950 . S
H204 C230 0.950 . S
H205 C232 0.950 . S
H206 C235 0.950 . S
H207 C236 0.950 . S
H208 C238 0.951 . S
H209 C239 0.949 1_545 S
C210 C211 1.376 . S
C210 C215 1.386 1_554 S
C210 C216 1.483 1_554 S
C211 H192 0.949 . S
C211 C210 1.376 . S
C211 C212 1.397 . S
C212 H193 0.950 . S
C212 C211 1.397 . S
C212 C213 1.391 . S
C213 C212 1.391 . S
C213 C214 1.405 . S
C214 H194 0.950 . S
C214 C213 1.405 . S
C214 C215 1.367 1_554 S
C215 H195 0.950 . S
C215 C210 1.386 1_556 S
C215 C214 1.367 1_556 S
C216 C210 1.483 1_556 S
C216 C217 1.382 1_556 S
C216 C218 1.403 . S
C217 H196 0.950 . S
C217 C216 1.382 1_554 S
C217 C233 1.411 . S
C218 C216 1.403 . S
C218 C219 1.489 . S
C218 C232 1.411 . S
C219 C218 1.489 . S
C219 C220 1.383 . S
C219 C224 1.382 . S
C220 H197 0.950 . S
C220 C219 1.383 . S
C220 C221 1.395 . S
C221 H198 0.950 . S
C221 C220 1.395 . S
C221 C222 1.288 . S
C222 C221 1.288 . S
C222 C223 1.392 . S
C223 H199 0.951 . S
C223 C222 1.392 . S
C223 C224 1.392 . S
C224 H200 0.949 . S
C224 C219 1.382 . S
C224 C223 1.392 . S
C225 C226 1.376 . S
C225 C230 1.386 . S
C225 C231 1.483 . S
C226 H201 0.949 . S
C226 C225 1.376 . S
C226 C227 1.397 . S
C227 H202 0.950 . S
C227 C226 1.397 . S
C227 C228 1.391 . S
C228 C227 1.391 . S
C228 C229 1.405 . S
C229 H203 0.950 . S
C229 C228 1.405 . S
C229 C230 1.367 . S
C230 H204 0.950 . S
C230 C225 1.386 . S
C230 C229 1.367 . S
C231 C225 1.483 . S
C231 C232 1.382 1_565 S
C231 C233 1.403 1_566 S
C232 H205 0.950 . S
C232 C218 1.411 . S
C232 C231 1.382 1_545 S
C233 C217 1.411 . S
C233 C231 1.403 1_544 S
C233 C234 1.489 1_545 S
C234 C233 1.489 1_565 S
C234 C235 1.383 . S
C234 C239 1.382 . S
C235 H206 0.950 . S
C235 C234 1.383 . S
C235 C236 1.395 . S
C236 H207 0.950 . S
C236 C235 1.395 . S
C236 C237 1.288 . S
C237 C236 1.288 . S
C237 C238 1.392 . S
C238 H208 0.951 . S
C238 C237 1.392 . S
C238 C239 1.392 . S
C239 H209 0.949 1_565 S
C239 C234 1.382 . S
C239 C238 1.392 . S
H240 C259 0.949 . S
H241 C260 0.950 . S
H242 C262 0.950 . S
H243 C263 0.950 . S
H244 C265 0.950 . S
H245 C268 0.950 . S
H246 C269 0.950 . S
H247 C271 0.951 . S
H248 C272 0.949 . S
H249 C274 0.949 . S
H250 C275 0.950 . S
H251 C277 0.950 . S
H252 C278 0.950 . S
H253 C280 0.950 . S
H254 C283 0.950 . S
H255 C284 0.950 . S
H256 C286 0.951 . S
H257 C287 0.949 . S
C258 C259 1.376 . S
C258 C263 1.386 . S
C258 C264 1.483 . S
C259 H240 0.949 . S
C259 C258 1.376 . S
C259 C260 1.397 . S
C260 H241 0.950 . S
C260 C259 1.397 . S
C260 C261 1.391 . S
C261 C260 1.391 . S
C261 C262 1.405 . S
C262 H242 0.950 . S
C262 C261 1.405 . S
C262 C263 1.367 . S
C263 H243 0.950 . S
C263 C258 1.386 . S
C263 C262 1.367 . S
C264 C258 1.483 . S
C264 C265 1.382 . S
C264 C266 1.403 . S
C265 H244 0.950 . S
C265 C264 1.382 . S
C265 C281 1.411 . S
C266 C264 1.403 . S
C266 C267 1.489 . S
C266 C280 1.411 . S
C267 C266 1.489 . S
C267 C268 1.383 . S
C267 C272 1.382 . S
C268 H245 0.950 . S
C268 C267 1.383 . S
C268 C269 1.395 . S
C269 H246 0.950 . S
C269 C268 1.395 . S
C269 C270 1.288 . S
C270 C269 1.288 . S
C270 C271 1.392 . S
C271 H247 0.951 . S
C271 C270 1.392 . S
C271 C272 1.392 . S
C272 H248 0.949 . S
C272 C267 1.382 . S
C272 C271 1.392 . S
C273 C274 1.376 . S
C273 C278 1.386 . S
C273 C279 1.483 . S
C274 H249 0.949 . S
C274 C273 1.376 . S
C274 C275 1.397 . S
C275 H250 0.950 . S
C275 C274 1.397 . S
C275 C276 1.391 . S
C276 C275 1.391 . S
C276 C277 1.405 . S
C277 H251 0.950 . S
C277 C276 1.405 . S
C277 C278 1.367 . S
C278 H252 0.950 . S
C278 C273 1.386 . S
C278 C277 1.367 . S
C279 C273 1.483 . S
C279 C280 1.382 . S
C279 C281 1.403 . S
C280 H253 0.950 . S
C280 C266 1.411 . S
C280 C279 1.382 . S
C281 C265 1.411 . S
C281 C279 1.403 . S
C281 C282 1.489 . S
C282 C281 1.489 . S
C282 C283 1.383 . S
C282 C287 1.382 . S
C283 H254 0.950 . S
C283 C282 1.383 . S
C283 C284 1.395 . S
C284 H255 0.950 . S
C284 C283 1.395 . S
C284 C285 1.288 . S
C285 C284 1.288 . S
C285 C286 1.392 . S
C286 H256 0.951 . S
C286 C285 1.392 . S
C286 C287 1.392 . S
C287 H257 0.949 . S
C287 C282 1.382 . S
C287 C286 1.392 . S
Mg288 O289 2.028 . S
Mg288 O295 1.986 . S
Mg288 O297 2.114 . S
Mg288 O298 2.251 . S
Mg288 O301 2.010 . S
O289 Mg288 2.028 . S
O289 C292 1.250 . S
O290 Mg291 2.028 . S
O290 C292 1.248 . S
Mg291 O290 2.028 . S
Mg291 O296 2.032 . S
Mg291 O298 2.079 . S
C292 O289 1.250 . S
C292 O290 1.248 . S
C293 O294 1.264 . S
C293 O301 1.249 . S
O294 C293 1.264 . S
O295 Mg288 1.986 . S
O295 C299 1.246 . S
O296 Mg291 2.032 . S
O296 C299 1.259 . S
O297 Mg288 2.114 . S
O297 C300 1.252 . S
O298 Mg288 2.251 . S
O298 Mg291 2.079 . S
O298 C300 1.273 . S
C299 O295 1.246 . S
C299 O296 1.259 . S
C300 O297 1.252 . S
C300 O298 1.273 . S
O301 Mg288 2.010 . S
O301 C293 1.249 . S
Mg302 O303 2.028 . S
Mg302 O309 1.986 . S
Mg302 O311 2.114 . S
Mg302 O312 2.251 . S
Mg302 O315 2.010 . S
O303 Mg302 2.028 . S
O303 C306 1.250 . S
O304 Mg305 2.028 . S
O304 C306 1.248 . S
Mg305 O304 2.028 . S
Mg305 O310 2.032 . S
Mg305 O312 2.079 . S
C306 O303 1.250 . S
C306 O304 1.248 . S
C307 O308 1.264 . S
C307 O315 1.249 . S
O308 C307 1.264 . S
O309 Mg302 1.986 . S
O309 C313 1.246 . S
O310 Mg305 2.032 . S
O310 C313 1.259 . S
O311 Mg302 2.114 . S
O311 C314 1.252 . S
O312 Mg302 2.251 . S
O312 Mg305 2.079 . S
O312 C314 1.273 . S
C313 O309 1.246 . S
C313 O310 1.259 . S
C314 O311 1.252 . S
C314 O312 1.273 . S
O315 Mg302 2.010 . S
O315 C307 1.249 . S
Mg316 O317 2.028 . S
Mg316 O323 1.986 . S
Mg316 O325 2.114 . S
Mg316 O326 2.251 . S
Mg316 O329 2.010 . S
O317 Mg316 2.028 . S
O317 C320 1.250 . S
O318 Mg319 2.028 . S
O318 C320 1.248 . S
Mg319 O318 2.028 . S
Mg319 O324 2.032 . S
Mg319 O326 2.079 . S
C320 O317 1.250 . S
C320 O318 1.248 . S
C321 O322 1.264 . S
C321 O329 1.249 . S
O322 C321 1.264 . S
O323 Mg316 1.986 . S
O323 C327 1.246 . S
O324 Mg319 2.032 . S
O324 C327 1.259 . S
O325 Mg316 2.114 . S
O325 C328 1.252 . S
O326 Mg316 2.251 . S
O326 Mg319 2.079 . S
O326 C328 1.273 . S
C327 O323 1.246 . S
C327 O324 1.259 . S
C328 O325 1.252 . S
C328 O326 1.273 . S
O329 Mg316 2.010 . S
O329 C321 1.249 . S
Mg330 O331 2.028 . S
Mg330 O337 1.986 . S
Mg330 O339 2.114 . S
Mg330 O340 2.251 . S
Mg330 O343 2.010 . S
O331 Mg330 2.028 . S
O331 C334 1.250 . S
O332 Mg333 2.028 . S
O332 C334 1.248 . S
Mg333 O332 2.028 . S
Mg333 O338 2.032 . S
Mg333 O340 2.079 . S
C334 O331 1.250 . S
C334 O332 1.248 . S
C335 O336 1.264 . S
C335 O343 1.249 . S
O336 C335 1.264 . S
O337 Mg330 1.986 . S
O337 C341 1.246 . S
O338 Mg333 2.032 . S
O338 C341 1.259 . S
O339 Mg330 2.114 . S
O339 C342 1.252 . S
O340 Mg330 2.251 . S
O340 Mg333 2.079 . S
O340 C342 1.273 . S
C341 O337 1.246 . S
C341 O338 1.259 . S
C342 O339 1.252 . S
C342 O340 1.273 . S
O343 Mg330 2.010 . S
O343 C335 1.249 . S
Mg344 O345 2.028 . S
Mg344 O351 1.986 . S
Mg344 O353 2.114 . S
Mg344 O354 2.251 . S
Mg344 O357 2.010 . S
O345 Mg344 2.028 . S
O345 C348 1.250 . S
O346 Mg347 2.028 . S
O346 C348 1.248 . S
Mg347 O346 2.028 . S
Mg347 O352 2.032 . S
Mg347 O354 2.079 . S
C348 O345 1.250 . S
C348 O346 1.248 . S
C349 O350 1.264 . S
C349 O357 1.249 . S
O350 C349 1.264 . S
O351 Mg344 1.986 . S
O351 C355 1.246 . S
O352 Mg347 2.032 . S
O352 C355 1.259 . S
O353 Mg344 2.114 . S
O353 C356 1.252 . S
O354 Mg344 2.251 . S
O354 Mg347 2.079 . S
O354 C356 1.273 . S
C355 O351 1.246 . S
C355 O352 1.259 . S
C356 O353 1.252 . S
C356 O354 1.273 . S
O357 Mg344 2.010 . S
O357 C349 1.249 . S
Mg358 O359 2.028 . S
Mg358 O365 1.986 . S
Mg358 O367 2.114 . S
Mg358 O368 2.251 . S
Mg358 O371 2.010 . S
O359 Mg358 2.028 . S
O359 C362 1.250 . S
O360 Mg361 2.028 . S
O360 C362 1.248 . S
Mg361 O360 2.028 . S
Mg361 O366 2.032 . S
Mg361 O368 2.079 . S
C362 O359 1.250 . S
C362 O360 1.248 . S
C363 O364 1.264 . S
C363 O371 1.249 . S
O364 C363 1.264 . S
O365 Mg358 1.986 . S
O365 C369 1.246 . S
O366 Mg361 2.032 . S
O366 C369 1.259 . S
O367 Mg358 2.114 . S
O367 C370 1.252 . S
O368 Mg358 2.251 . S
O368 Mg361 2.079 . S
O368 C370 1.273 . S
C369 O365 1.246 . S
C369 O366 1.259 . S
C370 O367 1.252 . S
C370 O368 1.273 . S
O371 Mg358 2.010 . S
O371 C363 1.249 . S
H372 C380 0.929 . S
H373 C382 0.930 . S
H374 C384 0.930 . S
H375 C387 0.929 . S
H376 C390 0.930 . S
H377 C392 0.960 . S
H378 C392 0.960 . S
H379 C392 0.960 . S
C380 H372 0.929 . S
C380 C381 1.377 . S
C380 C382 1.384 . S
C381 C380 1.377 . S
C381 C387 1.390 . S
C382 H373 0.930 . S
C382 C380 1.384 . S
C382 C383 1.372 . S
C383 C382 1.372 . S
C383 C384 1.400 . S
C383 C388 1.490 . S
C384 H374 0.930 . S
C384 C383 1.400 . S
C384 C387 1.386 . S
H385 C401 0.930 . S
H386 C402 0.931 . S
C387 H375 0.929 . S
C387 C381 1.390 . S
C387 C384 1.386 . S
C388 C383 1.490 . S
C388 C390 1.395 . S
C388 C391 1.403 . S
H389 C395 0.930 . S
C390 H376 0.930 . S
C390 C388 1.395 . S
C390 C393 1.403 . S
C391 C388 1.403 . S
C391 C392 1.524 . S
C391 C395 1.400 . S
C392 H377 0.960 . S
C392 H378 0.960 . S
C392 H379 0.960 . S
C392 C391 1.524 . S
C393 C390 1.403 . S
C393 C394 1.392 . S
C393 C397 1.495 . S
C394 C393 1.392 . S
C394 C395 1.385 . S
C394 C396 1.478 . S
C395 H389 0.930 . S
C395 C391 1.400 . S
C395 C394 1.385 . S
C396 C394 1.478 . S
C396 C398 1.381 . S
C396 C402 1.383 . S
C397 C393 1.495 . S
C397 H403 0.959 . S
C397 H404 0.961 . S
C397 H405 0.960 . S
C398 C396 1.381 . S
C398 C399 1.394 . S
C398 H406 0.930 . S
C399 C398 1.394 . S
C399 C400 1.383 . S
C399 H407 0.929 . S
C400 C399 1.383 . S
C400 C401 1.377 . S
C401 H385 0.930 . S
C401 C400 1.377 . S
C401 C402 1.379 . S
C402 H386 0.931 . S
C402 C396 1.383 . S
C402 C401 1.379 . S
H403 C397 0.959 . S
H404 C397 0.961 . S
H405 C397 0.960 . S
H406 C398 0.930 . S
H407 C399 0.929 . S
H408 C416 0.929 . S
H409 C418 0.930 . S
H410 C420 0.930 . S
H411 C423 0.929 . S
H412 C426 0.930 . S
H413 C428 0.960 . S
H414 C428 0.960 . S
H415 C428 0.960 . S
C416 H408 0.929 . S
C416 C417 1.377 . S
C416 C418 1.384 . S
C417 C416 1.377 . S
C417 C423 1.390 . S
C418 H409 0.930 . S
C418 C416 1.384 . S
C418 C419 1.372 . S
C419 C418 1.372 . S
C419 C420 1.400 . S
C419 C424 1.490 . S
C420 H410 0.930 . S
C420 C419 1.400 . S
C420 C423 1.386 . S
H421 C437 0.930 . S
H422 C438 0.931 . S
C423 H411 0.929 . S
C423 C417 1.390 . S
C423 C420 1.386 . S
C424 C419 1.490 . S
C424 C426 1.395 . S
C424 C427 1.403 . S
H425 C431 0.930 . S
C426 H412 0.930 . S
C426 C424 1.395 . S
C426 C429 1.403 . S
C427 C424 1.403 . S
C427 C428 1.524 . S
C427 C431 1.400 . S
C428 H413 0.960 . S
C428 H414 0.960 . S
C428 H415 0.960 . S
C428 C427 1.524 . S
C429 C426 1.403 . S
C429 C430 1.392 . S
C429 C433 1.495 . S
C430 C429 1.392 . S
C430 C431 1.385 . S
C430 C432 1.478 . S
C431 H425 0.930 . S
C431 C427 1.400 . S
C431 C430 1.385 . S
C432 C430 1.478 . S
C432 C434 1.381 . S
C432 C438 1.383 . S
C433 C429 1.495 . S
C433 H439 0.959 . S
C433 H440 0.961 . S
C433 H441 0.960 . S
C434 C432 1.381 . S
C434 C435 1.394 . S
C434 H442 0.930 . S
C435 C434 1.394 . S
C435 C436 1.383 . S
C435 H443 0.929 . S
C436 C435 1.383 . S
C436 C437 1.377 . S
C437 H421 0.930 . S
C437 C436 1.377 . S
C437 C438 1.379 . S
C438 H422 0.931 . S
C438 C432 1.383 . S
C438 C437 1.379 . S
H439 C433 0.959 . S
H440 C433 0.961 . S
H441 C433 0.960 . S
H442 C434 0.930 . S
H443 C435 0.929 . S
H444 C452 0.929 . S
H445 C454 0.930 . S
H446 C456 0.930 . S
H447 C459 0.929 . S
H448 C462 0.930 . S
H449 C464 0.960 . S
H450 C464 0.960 . S
H451 C464 0.960 . S
C452 H444 0.929 . S
C452 C453 1.377 . S
C452 C454 1.384 . S
C453 C452 1.377 . S
C453 C459 1.390 . S
C454 H445 0.930 . S
C454 C452 1.384 . S
C454 C455 1.372 . S
C455 C454 1.372 . S
C455 C456 1.400 . S
C455 C460 1.490 . S
C456 H446 0.930 . S
C456 C455 1.400 . S
C456 C459 1.386 . S
H457 C473 0.930 . S
H458 C474 0.931 . S
C459 H447 0.929 . S
C459 C453 1.390 . S
C459 C456 1.386 . S
C460 C455 1.490 . S
C460 C462 1.395 . S
C460 C463 1.403 . S
H461 C467 0.930 . S
C462 H448 0.930 . S
C462 C460 1.395 . S
C462 C465 1.403 . S
C463 C460 1.403 . S
C463 C464 1.524 . S
C463 C467 1.400 . S
C464 H449 0.960 . S
C464 H450 0.960 . S
C464 H451 0.960 . S
C464 C463 1.524 . S
C465 C462 1.403 . S
C465 C466 1.392 . S
C465 C469 1.495 . S
C466 C465 1.392 . S
C466 C467 1.385 . S
C466 C468 1.478 . S
C467 H461 0.930 . S
C467 C463 1.400 . S
C467 C466 1.385 . S
C468 C466 1.478 . S
C468 C470 1.381 . S
C468 C474 1.383 . S
C469 C465 1.495 . S
C469 H475 0.959 . S
C469 H476 0.961 . S
C469 H477 0.960 . S
C470 C468 1.381 . S
C470 C471 1.394 . S
C470 H478 0.930 . S
C471 C470 1.394 . S
C471 C472 1.383 . S
C471 H479 0.929 . S
C472 C471 1.383 . S
C472 C473 1.377 . S
C473 H457 0.930 . S
C473 C472 1.377 . S
C473 C474 1.379 . S
C474 H458 0.931 . S
C474 C468 1.383 . S
C474 C473 1.379 . S
H475 C469 0.959 . S
H476 C469 0.961 . S
H477 C469 0.960 . S
H478 C470 0.930 . S
H479 C471 0.929 . S
H480 C488 0.929 . S
H481 C490 0.930 . S
H482 C492 0.930 . S
H483 C495 0.929 . S
H484 C498 0.930 . S
H485 C500 0.960 . S
H486 C500 0.960 . S
H487 C500 0.960 . S
C488 H480 0.929 . S
C488 C489 1.377 . S
C488 C490 1.384 . S
C489 C488 1.377 . S
C489 C495 1.390 . S
C490 H481 0.930 . S
C490 C488 1.384 . S
C490 C491 1.372 . S
C491 C490 1.372 . S
C491 C492 1.400 . S
C491 C496 1.490 . S
C492 H482 0.930 . S
C492 C491 1.400 . S
C492 C495 1.386 . S
H493 C509 0.930 . S
H494 C510 0.931 . S
C495 H483 0.929 . S
C495 C489 1.390 . S
C495 C492 1.386 . S
C496 C491 1.490 . S
C496 C498 1.395 . S
C496 C499 1.403 . S
H497 C503 0.930 . S
C498 H484 0.930 . S
C498 C496 1.395 . S
C498 C501 1.403 . S
C499 C496 1.403 . S
C499 C500 1.524 . S
C499 C503 1.400 . S
C500 H485 0.960 . S
C500 H486 0.960 . S
C500 H487 0.960 . S
C500 C499 1.524 . S
C501 C498 1.403 . S
C501 C502 1.392 . S
C501 C505 1.495 . S
C502 C501 1.392 . S
C502 C503 1.385 . S
C502 C504 1.478 . S
C503 H497 0.930 . S
C503 C499 1.400 . S
C503 C502 1.385 . S
C504 C502 1.478 . S
C504 C506 1.381 . S
C504 C510 1.383 . S
C505 C501 1.495 . S
C505 H511 0.959 . S
C505 H512 0.961 . S
C505 H513 0.960 . S
C506 C504 1.381 . S
C506 C507 1.394 . S
C506 H514 0.930 . S
C507 C506 1.394 . S
C507 C508 1.383 . S
C507 H515 0.929 . S
C508 C507 1.383 . S
C508 C509 1.377 . S
C509 H493 0.930 . S
C509 C508 1.377 . S
C509 C510 1.379 . S
C510 H494 0.931 . S
C510 C504 1.383 . S
C510 C509 1.379 . S
H511 C505 0.959 . S
H512 C505 0.961 . S
H513 C505 0.960 . S
H514 C506 0.930 . S
H515 C507 0.929 . S
H516 C524 0.929 . S
H517 C526 0.930 . S
H518 C528 0.930 . S
H519 C531 0.929 . S
H520 C534 0.930 . S
H521 C536 0.960 . S
H522 C536 0.960 . S
H523 C536 0.960 . S
C524 H516 0.929 . S
C524 C525 1.377 . S
C524 C526 1.384 . S
C525 C524 1.377 . S
C525 C531 1.390 . S
C526 H517 0.930 . S
C526 C524 1.384 . S
C526 C527 1.372 . S
C527 C526 1.372 . S
C527 C528 1.400 . S
C527 C532 1.490 . S
C528 H518 0.930 . S
C528 C527 1.400 . S
C528 C531 1.386 . S
H529 C545 0.930 . S
H530 C546 0.931 . S
C531 H519 0.929 . S
C531 C525 1.390 . S
C531 C528 1.386 . S
C532 C527 1.490 . S
C532 C534 1.395 . S
C532 C535 1.403 . S
H533 C539 0.930 . S
C534 H520 0.930 . S
C534 C532 1.395 . S
C534 C537 1.403 . S
C535 C532 1.403 . S
C535 C536 1.524 . S
C535 C539 1.400 . S
C536 H521 0.960 . S
C536 H522 0.960 . S
C536 H523 0.960 . S
C536 C535 1.524 . S
C537 C534 1.403 . S
C537 C538 1.392 . S
C537 C541 1.495 . S
C538 C537 1.392 . S
C538 C539 1.385 . S
C538 C540 1.478 . S
C539 H533 0.930 . S
C539 C535 1.400 . S
C539 C538 1.385 . S
C540 C538 1.478 . S
C540 C542 1.381 . S
C540 C546 1.383 . S
C541 C537 1.495 . S
C541 H547 0.959 . S
C541 H548 0.961 . S
C541 H549 0.960 . S
C542 C540 1.381 . S
C542 C543 1.394 . S
C542 H550 0.930 . S
C543 C542 1.394 . S
C543 C544 1.383 . S
C543 H551 0.929 . S
C544 C543 1.383 . S
C544 C545 1.377 . S
C545 H529 0.930 . S
C545 C544 1.377 . S
C545 C546 1.379 . S
C546 H530 0.931 . S
C546 C540 1.383 . S
C546 C545 1.379 . S
H547 C541 0.959 . S
H548 C541 0.961 . S
H549 C541 0.960 . S
H550 C542 0.930 . S
H551 C543 0.929 . S
H552 C560 0.929 . S
H553 C562 0.930 . S
H554 C564 0.930 . S
H555 C567 0.929 . S
H556 C570 0.930 . S
H557 C572 0.960 . S
H558 C572 0.960 . S
H559 C572 0.960 . S
C560 H552 0.929 . S
C560 C561 1.377 . S
C560 C562 1.384 . S
C561 C560 1.377 . S
C561 C567 1.390 . S
C562 H553 0.930 . S
C562 C560 1.384 . S
C562 C563 1.372 . S
C563 C562 1.372 . S
C563 C564 1.400 . S
C563 C568 1.490 . S
C564 H554 0.930 . S
C564 C563 1.400 . S
C564 C567 1.386 . S
H565 C581 0.930 . S
H566 C582 0.931 . S
C567 H555 0.929 . S
C567 C561 1.390 . S
C567 C564 1.386 . S
C568 C563 1.490 . S
C568 C570 1.395 . S
C568 C571 1.403 . S
H569 C575 0.930 . S
C570 H556 0.930 . S
C570 C568 1.395 . S
C570 C573 1.403 . S
C571 C568 1.403 . S
C571 C572 1.524 . S
C571 C575 1.400 . S
C572 H557 0.960 . S
C572 H558 0.960 . S
C572 H559 0.960 . S
C572 C571 1.524 . S
C573 C570 1.403 . S
C573 C574 1.392 . S
C573 C577 1.495 . S
C574 C573 1.392 . S
C574 C575 1.385 . S
C574 C576 1.478 . S
C575 H569 0.930 . S
C575 C571 1.400 . S
C575 C574 1.385 . S
C576 C574 1.478 . S
C576 C578 1.381 . S
C576 C582 1.383 . S
C577 C573 1.495 . S
C577 H583 0.959 . S
C577 H584 0.961 . S
C577 H585 0.960 . S
C578 C576 1.381 . S
C578 C579 1.394 . S
C578 H586 0.930 . S
C579 C578 1.394 . S
C579 C580 1.383 . S
C579 H587 0.929 . S
C580 C579 1.383 . S
C580 C581 1.377 . S
C581 H565 0.930 . S
C581 C580 1.377 . S
C581 C582 1.379 . S
C582 H566 0.931 . S
C582 C576 1.383 . S
C582 C581 1.379 . S
H583 C577 0.959 . S
H584 C577 0.961 . S
H585 C577 0.960 . S
H586 C578 0.930 . S
H587 C579 0.929 . S
H588 C596 0.929 . S
H589 C598 0.930 . S
H590 C600 0.930 . S
H591 C603 0.929 . S
H592 C606 0.930 . S
H593 C608 0.960 . S
H594 C608 0.960 . S
H595 C608 0.960 . S
C596 H588 0.929 . S
C596 C597 1.377 . S
C596 C598 1.384 . S
C597 C596 1.377 . S
C597 C603 1.390 . S
C598 H589 0.930 . S
C598 C596 1.384 . S
C598 C599 1.372 . S
C599 C598 1.372 . S
C599 C600 1.400 . S
C599 C604 1.490 . S
C600 H590 0.930 . S
C600 C599 1.400 . S
C600 C603 1.386 . S
H601 C617 0.930 . S
H602 C618 0.931 . S
C603 H591 0.929 . S
C603 C597 1.390 . S
C603 C600 1.386 . S
C604 C599 1.490 . S
C604 C606 1.395 . S
C604 C607 1.403 . S
H605 C611 0.930 . S
C606 H592 0.930 . S
C606 C604 1.395 . S
C606 C609 1.403 . S
C607 C604 1.403 . S
C607 C608 1.524 . S
C607 C611 1.400 . S
C608 H593 0.960 . S
C608 H594 0.960 . S
C608 H595 0.960 . S
C608 C607 1.524 . S
C609 C606 1.403 . S
C609 C610 1.392 . S
C609 C613 1.495 . S
C610 C609 1.392 . S
C610 C611 1.385 . S
C610 C612 1.478 . S
C611 H605 0.930 . S
C611 C607 1.400 . S
C611 C610 1.385 . S
C612 C610 1.478 . S
C612 C614 1.381 . S
C612 C618 1.383 . S
C613 C609 1.495 . S
C613 H619 0.959 . S
C613 H620 0.961 . S
C613 H621 0.960 . S
C614 C612 1.381 . S
C614 C615 1.394 . S
C614 H622 0.930 . S
C615 C614 1.394 . S
C615 C616 1.383 . S
C615 H623 0.929 . S
C616 C615 1.383 . S
C616 C617 1.377 . S
C617 H601 0.930 . S
C617 C616 1.377 . S
C617 C618 1.379 . S
C618 H602 0.931 . S
C618 C612 1.383 . S
C618 C617 1.379 . S
H619 C613 0.959 . S
H620 C613 0.961 . S
H621 C613 0.960 . S
H622 C614 0.930 . S
H623 C615 0.929 . S
H624 C632 0.929 . S
H625 C634 0.930 . S
H626 C636 0.930 . S
H627 C639 0.929 . S
H628 C642 0.930 . S
H629 C644 0.960 . S
H630 C644 0.960 . S
H631 C644 0.960 . S
C632 H624 0.929 . S
C632 C633 1.377 . S
C632 C634 1.384 . S
C633 C632 1.377 . S
C633 C639 1.390 . S
C634 H625 0.930 . S
C634 C632 1.384 . S
C634 C635 1.372 . S
C635 C634 1.372 . S
C635 C636 1.400 . S
C635 C640 1.490 . S
C636 H626 0.930 . S
C636 C635 1.400 . S
C636 C639 1.386 . S
H637 C653 0.930 . S
H638 C654 0.931 . S
C639 H627 0.929 . S
C639 C633 1.390 . S
C639 C636 1.386 . S
C640 C635 1.490 . S
C640 C642 1.395 . S
C640 C643 1.403 . S
H641 C647 0.930 . S
C642 H628 0.930 . S
C642 C640 1.395 . S
C642 C645 1.403 . S
C643 C640 1.403 . S
C643 C644 1.524 . S
C643 C647 1.400 . S
C644 H629 0.960 . S
C644 H630 0.960 . S
C644 H631 0.960 . S
C644 C643 1.524 . S
C645 C642 1.403 . S
C645 C646 1.392 . S
C645 C649 1.495 . S
C646 C645 1.392 . S
C646 C647 1.385 . S
C646 C648 1.478 . S
C647 H641 0.930 . S
C647 C643 1.400 . S
C647 C646 1.385 . S
C648 C646 1.478 . S
C648 C650 1.381 . S
C648 C654 1.383 . S
C649 C645 1.495 . S
C649 H655 0.959 . S
C649 H656 0.961 . S
C649 H657 0.960 . S
C650 C648 1.381 . S
C650 C651 1.394 . S
C650 H658 0.930 . S
C651 C650 1.394 . S
C651 C652 1.383 . S
C651 H659 0.929 . S
C652 C651 1.383 . S
C652 C653 1.377 . S
C653 H637 0.930 . S
C653 C652 1.377 . S
C653 C654 1.379 . S
C654 H638 0.931 . S
C654 C648 1.383 . S
C654 C653 1.379 . S
H655 C649 0.959 . S
H656 C649 0.961 . S
H657 C649 0.960 . S
H658 C650 0.930 . S
H659 C651 0.929 . S
H660 C668 0.929 . S
H661 C670 0.930 . S
H662 C672 0.930 . S
H663 C675 0.929 . S
H664 C678 0.930 . S
H665 C680 0.960 . S
H666 C680 0.960 . S
H667 C680 0.960 . S
C668 H660 0.929 . S
C668 C669 1.377 . S
C668 C670 1.384 . S
C669 C668 1.377 . S
C669 C675 1.390 . S
C670 H661 0.930 . S
C670 C668 1.384 . S
C670 C671 1.372 . S
C671 C670 1.372 . S
C671 C672 1.400 . S
C671 C676 1.490 . S
C672 H662 0.930 . S
C672 C671 1.400 . S
C672 C675 1.386 . S
H673 C689 0.930 . S
H674 C690 0.931 . S
C675 H663 0.929 . S
C675 C669 1.390 . S
C675 C672 1.386 . S
C676 C671 1.490 . S
C676 C678 1.395 . S
C676 C679 1.403 . S
H677 C683 0.930 . S
C678 H664 0.930 . S
C678 C676 1.395 . S
C678 C681 1.403 . S
C679 C676 1.403 . S
C679 C680 1.524 . S
C679 C683 1.400 . S
C680 H665 0.960 . S
C680 H666 0.960 . S
C680 H667 0.960 . S
C680 C679 1.524 . S
C681 C678 1.403 . S
C681 C682 1.392 . S
C681 C685 1.495 . S
C682 C681 1.392 . S
C682 C683 1.385 . S
C682 C684 1.478 . S
C683 H677 0.930 . S
C683 C679 1.400 . S
C683 C682 1.385 . S
C684 C682 1.478 . S
C684 C686 1.381 . S
C684 C690 1.383 . S
C685 C681 1.495 . S
C685 H691 0.959 . S
C685 H692 0.961 . S
C685 H693 0.960 . S
C686 C684 1.381 . S
C686 C687 1.394 . S
C686 H694 0.930 . S
C687 C686 1.394 . S
C687 C688 1.383 . S
C687 H695 0.929 . S
C688 C687 1.383 . S
C688 C689 1.377 . S
C689 H673 0.930 . S
C689 C688 1.377 . S
C689 C690 1.379 . S
C690 H674 0.931 . S
C690 C684 1.383 . S
C690 C689 1.379 . S
H691 C685 0.959 . S
H692 C685 0.961 . S
H693 C685 0.960 . S
H694 C686 0.930 . S
H695 C687 0.929 . S
H696 C704 0.929 . S
H697 C706 0.930 . S
H698 C708 0.930 . S
H699 C711 0.929 . S
H700 C714 0.930 . S
H701 C716 0.960 1_556 S
H702 C716 0.960 1_556 S
H703 C716 0.960 . S
C704 H696 0.929 . S
C704 C705 1.377 . S
C704 C706 1.384 . S
C705 C704 1.377 . S
C705 C711 1.390 . S
C706 H697 0.930 . S
C706 C704 1.384 . S
C706 C707 1.372 . S
C707 C706 1.372 . S
C707 C708 1.400 . S
C707 C712 1.490 . S
C708 H698 0.930 . S
C708 C707 1.400 . S
C708 C711 1.386 . S
H709 C725 0.930 . S
H710 C726 0.931 . S
C711 H699 0.929 . S
C711 C705 1.390 . S
C711 C708 1.386 . S
C712 C707 1.490 . S
C712 C714 1.395 . S
C712 C715 1.403 . S
H713 C719 0.930 . S
C714 H700 0.930 . S
C714 C712 1.395 . S
C714 C717 1.403 . S
C715 C712 1.403 . S
C715 C716 1.524 . S
C715 C719 1.400 . S
C716 H701 0.960 1_554 S
C716 H702 0.960 1_554 S
C716 H703 0.960 . S
C716 C715 1.524 . S
C717 C714 1.403 . S
C717 C718 1.392 . S
C717 C721 1.495 . S
C718 C717 1.392 . S
C718 C719 1.385 . S
C718 C720 1.478 . S
C719 H713 0.930 . S
C719 C715 1.400 . S
C719 C718 1.385 . S
C720 C718 1.478 . S
C720 C722 1.381 . S
C720 C726 1.383 . S
C721 C717 1.495 . S
C721 H727 0.959 . S
C721 H728 0.961 . S
C721 H729 0.960 . S
C722 C720 1.381 . S
C722 C723 1.394 . S
C722 H730 0.930 . S
C723 C722 1.394 . S
C723 C724 1.383 . S
C723 H731 0.929 . S
C724 C723 1.383 . S
C724 C725 1.377 . S
C725 H709 0.930 . S
C725 C724 1.377 . S
C725 C726 1.379 . S
C726 H710 0.931 . S
C726 C720 1.383 . S
C726 C725 1.379 . S
H727 C721 0.959 . S
H728 C721 0.961 . S
H729 C721 0.960 . S
H730 C722 0.930 . S
H731 C723 0.929 . S
H732 C740 0.929 . S
H733 C742 0.930 . S
H734 C744 0.930 . S
H735 C747 0.929 . S
H736 C750 0.930 . S
H737 C752 0.960 . S
H738 C752 0.960 . S
H739 C752 0.960 . S
C740 H732 0.929 . S
C740 C741 1.377 . S
C740 C742 1.384 . S
C741 C740 1.377 . S
C741 C747 1.390 . S
C742 H733 0.930 . S
C742 C740 1.384 . S
C742 C743 1.372 . S
C743 C742 1.372 . S
C743 C744 1.400 . S
C743 C748 1.490 . S
C744 H734 0.930 . S
C744 C743 1.400 . S
C744 C747 1.386 . S
H745 C761 0.930 . S
H746 C762 0.931 . S
C747 H735 0.929 . S
C747 C741 1.390 . S
C747 C744 1.386 . S
C748 C743 1.490 . S
C748 C750 1.395 . S
C748 C751 1.403 . S
H749 C755 0.930 . S
C750 H736 0.930 . S
C750 C748 1.395 . S
C750 C753 1.403 . S
C751 C748 1.403 . S
C751 C752 1.524 . S
C751 C755 1.400 . S
C752 H737 0.960 . S
C752 H738 0.960 . S
C752 H739 0.960 . S
C752 C751 1.524 . S
C753 C750 1.403 . S
C753 C754 1.392 . S
C753 C757 1.495 . S
C754 C753 1.392 . S
C754 C755 1.385 . S
C754 C756 1.478 . S
C755 H749 0.930 . S
C755 C751 1.400 . S
C755 C754 1.385 . S
C756 C754 1.478 . S
C756 C758 1.381 . S
C756 C762 1.383 . S
C757 C753 1.495 . S
C757 H763 0.959 . S
C757 H764 0.961 . S
C757 H765 0.960 . S
C758 C756 1.381 . S
C758 C759 1.394 . S
C758 H766 0.930 . S
C759 C758 1.394 . S
C759 C760 1.383 . S
C759 H767 0.929 . S
C760 C759 1.383 . S
C760 C761 1.377 . S
C761 H745 0.930 . S
C761 C760 1.377 . S
C761 C762 1.379 . S
C762 H746 0.931 . S
C762 C756 1.383 . S
C762 C761 1.379 . S
H763 C757 0.959 . S
H764 C757 0.961 . S
H765 C757 0.960 . S
H766 C758 0.930 . S
H767 C759 0.929 . S
H768 C776 0.929 . S
H769 C778 0.930 . S
H770 C780 0.930 . S
H771 C783 0.929 . S
H772 C786 0.930 . S
H773 C788 0.960 . S
H774 C788 0.960 . S
H775 C788 0.960 . S
C776 H768 0.929 . S
C776 C777 1.377 . S
C776 C778 1.384 . S
C777 C776 1.377 . S
C777 C783 1.390 . S
C778 H769 0.930 . S
C778 C776 1.384 . S
C778 C779 1.372 . S
C779 C778 1.372 . S
C779 C780 1.400 . S
C779 C784 1.490 . S
C780 H770 0.930 . S
C780 C779 1.400 . S
C780 C783 1.386 . S
H781 C797 0.930 . S
H782 C798 0.931 . S
C783 H771 0.929 . S
C783 C777 1.390 . S
C783 C780 1.386 . S
C784 C779 1.490 . S
C784 C786 1.395 . S
C784 C787 1.403 . S
H785 C791 0.930 . S
C786 H772 0.930 . S
C786 C784 1.395 . S
C786 C789 1.403 . S
C787 C784 1.403 . S
C787 C788 1.524 . S
C787 C791 1.400 . S
C788 H773 0.960 . S
C788 H774 0.960 . S
C788 H775 0.960 . S
C788 C787 1.524 . S
C789 C786 1.403 . S
C789 C790 1.392 . S
C789 C793 1.495 . S
C790 C789 1.392 . S
C790 C791 1.385 . S
C790 C792 1.478 . S
C791 H785 0.930 . S
C791 C787 1.400 . S
C791 C790 1.385 . S
C792 C790 1.478 . S
C792 C794 1.381 . S
C792 C798 1.383 . S
C793 C789 1.495 . S
C793 H799 0.959 . S
C793 H800 0.961 . S
C793 H801 0.960 . S
C794 C792 1.381 . S
C794 C795 1.394 . S
C794 H802 0.930 . S
C795 C794 1.394 . S
C795 C796 1.383 . S
C795 H803 0.929 . S
C796 C795 1.383 . S
C796 C797 1.377 . S
C797 H781 0.930 . S
C797 C796 1.377 . S
C797 C798 1.379 . S
C798 H782 0.931 . S
C798 C792 1.383 . S
C798 C797 1.379 . S
H799 C793 0.959 . S
H800 C793 0.961 . S
H801 C793 0.960 . S
H802 C794 0.930 . S
H803 C795 0.929 . S
H804 C812 0.929 . S
H805 C814 0.930 . S
H806 C816 0.930 . S
H807 C819 0.929 . S
H808 C822 0.930 . S
H809 C824 0.960 . S
H810 C824 0.960 . S
H811 C824 0.960 . S
C812 H804 0.929 . S
C812 C813 1.377 . S
C812 C814 1.384 . S
C813 C812 1.377 . S
C813 C819 1.390 . S
C814 H805 0.930 . S
C814 C812 1.384 . S
C814 C815 1.372 . S
C815 C814 1.372 . S
C815 C816 1.400 . S
C815 C820 1.490 . S
C816 H806 0.930 . S
C816 C815 1.400 . S
C816 C819 1.386 . S
H817 C833 0.930 . S
H818 C834 0.931 . S
C819 H807 0.929 . S
C819 C813 1.390 . S
C819 C816 1.386 . S
C820 C815 1.490 . S
C820 C822 1.395 . S
C820 C823 1.403 . S
H821 C827 0.930 . S
C822 H808 0.930 . S
C822 C820 1.395 . S
C822 C825 1.403 . S
C823 C820 1.403 . S
C823 C824 1.524 . S
C823 C827 1.400 . S
C824 H809 0.960 . S
C824 H810 0.960 . S
C824 H811 0.960 . S
C824 C823 1.524 . S
C825 C822 1.403 . S
C825 C826 1.392 . S
C825 C829 1.495 . S
C826 C825 1.392 . S
C826 C827 1.385 . S
C826 C828 1.478 . S
C827 H821 0.930 . S
C827 C823 1.400 . S
C827 C826 1.385 . S
C828 C826 1.478 . S
C828 C830 1.381 . S
C828 C834 1.383 . S
C829 C825 1.495 . S
C829 H835 0.959 . S
C829 H836 0.961 . S
C829 H837 0.960 . S
C830 C828 1.381 . S
C830 C831 1.394 . S
C830 H838 0.930 . S
C831 C830 1.394 . S
C831 C832 1.383 . S
C831 H839 0.929 . S
C832 C831 1.383 . S
C832 C833 1.377 . S
C833 H817 0.930 . S
C833 C832 1.377 . S
C833 C834 1.379 . S
C834 H818 0.931 . S
C834 C828 1.383 . S
C834 C833 1.379 . S
H835 C829 0.959 . S
H836 C829 0.961 . S
H837 C829 0.960 . S
H838 C830 0.930 . S
H839 C831 0.929 . S
H840 C848 0.929 . S
H841 C850 0.930 . S
H842 C852 0.930 . S
H843 C855 0.929 . S
H844 C858 0.930 . S
H845 C860 0.960 . S
H846 C860 0.960 . S
H847 C860 0.960 . S
C848 H840 0.929 . S
C848 C849 1.377 . S
C848 C850 1.384 . S
C849 C848 1.377 . S
C849 C855 1.390 . S
C850 H841 0.930 . S
C850 C848 1.384 . S
C850 C851 1.372 . S
C851 C850 1.372 . S
C851 C852 1.400 . S
C851 C856 1.490 . S
C852 H842 0.930 . S
C852 C851 1.400 . S
C852 C855 1.386 . S
H853 C869 0.930 . S
H854 C870 0.931 . S
C855 H843 0.929 . S
C855 C849 1.390 . S
C855 C852 1.386 . S
C856 C851 1.490 . S
C856 C858 1.395 . S
C856 C859 1.403 . S
H857 C863 0.930 . S
C858 H844 0.930 . S
C858 C856 1.395 . S
C858 C861 1.403 . S
C859 C856 1.403 . S
C859 C860 1.524 . S
C859 C863 1.400 . S
C860 H845 0.960 . S
C860 H846 0.960 . S
C860 H847 0.960 . S
C860 C859 1.524 . S
C861 C858 1.403 . S
C861 C862 1.392 . S
C861 C865 1.495 . S
C862 C861 1.392 . S
C862 C863 1.385 . S
C862 C864 1.478 . S
C863 H857 0.930 . S
C863 C859 1.400 . S
C863 C862 1.385 . S
C864 C862 1.478 . S
C864 C866 1.381 . S
C864 C870 1.383 . S
C865 C861 1.495 . S
C865 H871 0.959 . S
C865 H872 0.961 . S
C865 H873 0.960 . S
C866 C864 1.381 . S
C866 C867 1.394 . S
C866 H874 0.930 . S
C867 C866 1.394 . S
C867 C868 1.383 . S
C867 H875 0.929 . S
C868 C867 1.383 . S
C868 C869 1.377 . S
C869 H853 0.930 . S
C869 C868 1.377 . S
C869 C870 1.379 . S
C870 H854 0.931 . S
C870 C864 1.383 . S
C870 C869 1.379 . S
H871 C865 0.959 . S
H872 C865 0.961 . S
H873 C865 0.960 . S
H874 C866 0.930 . S
H875 C867 0.929 . S
H876 C884 0.929 . S
H877 C886 0.930 . S
H878 C888 0.930 . S
H879 C891 0.929 . S
H880 C894 0.930 . S
H881 C896 0.960 . S
H882 C896 0.960 . S
H883 C896 0.960 . S
C884 H876 0.929 . S
C884 C885 1.377 . S
C884 C886 1.384 . S
C885 C884 1.377 . S
C885 C891 1.390 . S
C886 H877 0.930 . S
C886 C884 1.384 . S
C886 C887 1.372 . S
C887 C886 1.372 . S
C887 C888 1.400 . S
C887 C892 1.490 . S
C888 H878 0.930 . S
C888 C887 1.400 . S
C888 C891 1.386 . S
H889 C905 0.930 . S
H890 C906 0.931 . S
C891 H879 0.929 . S
C891 C885 1.390 . S
C891 C888 1.386 . S
C892 C887 1.490 . S
C892 C894 1.395 . S
C892 C895 1.403 . S
H893 C899 0.930 . S
C894 H880 0.930 . S
C894 C892 1.395 . S
C894 C897 1.403 . S
C895 C892 1.403 . S
C895 C896 1.524 . S
C895 C899 1.400 . S
C896 H881 0.960 . S
C896 H882 0.960 . S
C896 H883 0.960 . S
C896 C895 1.524 . S
C897 C894 1.403 . S
C897 C898 1.392 . S
C897 C901 1.495 . S
C898 C897 1.392 . S
C898 C899 1.385 . S
C898 C900 1.478 . S
C899 H893 0.930 . S
C899 C895 1.400 . S
C899 C898 1.385 . S
C900 C898 1.478 . S
C900 C902 1.381 . S
C900 C906 1.383 . S
C901 C897 1.495 . S
C901 H907 0.959 . S
C901 H908 0.961 . S
C901 H909 0.960 . S
C902 C900 1.381 . S
C902 C903 1.394 . S
C902 H910 0.930 . S
C903 C902 1.394 . S
C903 C904 1.383 . S
C903 H911 0.929 . S
C904 C903 1.383 . S
C904 C905 1.377 . S
C905 H889 0.930 . S
C905 C904 1.377 . S
C905 C906 1.379 . S
C906 H890 0.931 . S
C906 C900 1.383 . S
C906 C905 1.379 . S
H907 C901 0.959 . S
H908 C901 0.961 . S
H909 C901 0.960 . S
H910 C902 0.930 . S
H911 C903 0.929 . S
H912 C920 0.929 . S
H913 C922 0.930 . S
H914 C924 0.930 . S
H915 C927 0.929 . S
H916 C930 0.930 . S
H917 C932 0.960 . S
H918 C932 0.960 . S
H919 C932 0.960 . S
C920 H912 0.929 . S
C920 C921 1.377 . S
C920 C922 1.384 . S
C921 C920 1.377 . S
C921 C927 1.390 . S
C922 H913 0.930 . S
C922 C920 1.384 . S
C922 C923 1.372 . S
C923 C922 1.372 . S
C923 C924 1.400 . S
C923 C928 1.490 . S
C924 H914 0.930 . S
C924 C923 1.400 . S
C924 C927 1.386 . S
H925 C941 0.930 . S
H926 C942 0.931 1_556 S
C927 H915 0.929 . S
C927 C921 1.390 . S
C927 C924 1.386 . S
C928 C923 1.490 . S
C928 C930 1.395 . S
C928 C931 1.403 . S
H929 C935 0.930 . S
C930 H916 0.930 . S
C930 C928 1.395 . S
C930 C933 1.403 . S
C931 C928 1.403 . S
C931 C932 1.524 . S
C931 C935 1.400 . S
C932 H917 0.960 . S
C932 H918 0.960 . S
C932 H919 0.960 . S
C932 C931 1.524 . S
C933 C930 1.403 . S
C933 C934 1.392 . S
C933 C937 1.495 . S
C934 C933 1.392 . S
C934 C935 1.385 . S
C934 C936 1.478 . S
C935 H929 0.930 . S
C935 C931 1.400 . S
C935 C934 1.385 . S
C936 C934 1.478 . S
C936 C938 1.398 . S
C936 C942 1.383 1_556 S
C937 C933 1.495 . S
C937 H943 0.959 . S
C937 H944 0.961 . S
C937 H945 0.960 . S
C938 C936 1.398 . S
C938 C939 1.350 1_556 S
C938 H946 0.961 . S
C939 C938 1.350 1_554 S
C939 C940 1.383 . S
C939 H947 0.929 . S
C940 C939 1.383 . S
C940 C941 1.377 . S
C941 H925 0.930 . S
C941 C940 1.377 . S
C941 C942 1.379 . S
C942 H926 0.931 1_554 S
C942 C936 1.383 1_554 S
C942 C941 1.379 . S
H943 C937 0.959 . S
H944 C937 0.961 . S
H945 C937 0.960 . S
H946 C938 0.961 . S
H947 C939 0.929 . S
H948 C956 0.929 . S
H949 C958 0.930 . S
H950 C960 0.930 . S
H951 C963 0.929 . S
H952 C966 0.930 . S
H953 C968 0.960 . S
H954 C968 0.960 . S
H955 C968 0.960 . S
C956 H948 0.929 . S
C956 C957 1.377 . S
C956 C958 1.384 . S
C957 C956 1.377 . S
C957 C963 1.390 . S
C958 H949 0.930 . S
C958 C956 1.384 . S
C958 C959 1.372 . S
C959 C958 1.372 . S
C959 C960 1.400 . S
C959 C964 1.490 . S
C960 H950 0.930 . S
C960 C959 1.400 . S
C960 C963 1.386 . S
H961 C977 0.930 . S
H962 C978 0.931 . S
C963 H951 0.929 . S
C963 C957 1.390 . S
C963 C960 1.386 . S
C964 C959 1.490 . S
C964 C966 1.395 . S
C964 C967 1.403 . S
H965 C971 0.930 . S
C966 H952 0.930 . S
C966 C964 1.395 . S
C966 C969 1.403 . S
C967 C964 1.403 . S
C967 C968 1.524 . S
C967 C971 1.400 . S
C968 H953 0.960 . S
C968 H954 0.960 . S
C968 H955 0.960 . S
C968 C967 1.524 . S
C969 C966 1.403 . S
C969 C970 1.392 . S
C969 C973 1.495 . S
C970 C969 1.392 . S
C970 C971 1.385 . S
C970 C972 1.478 . S
C971 H965 0.930 . S
C971 C967 1.400 . S
C971 C970 1.385 . S
C972 C970 1.478 . S
C972 C974 1.381 . S
C972 C978 1.383 . S
C973 C969 1.495 . S
C973 H979 0.959 . S
C973 H980 0.961 . S
C973 H981 0.960 . S
C974 C972 1.381 . S
C974 C975 1.394 . S
C974 H982 0.930 . S
C975 C974 1.394 . S
C975 C976 1.383 . S
C975 H983 0.929 . S
C976 C975 1.383 . S
C976 C977 1.377 . S
C977 H961 0.930 . S
C977 C976 1.377 . S
C977 C978 1.379 . S
C978 H962 0.931 . S
C978 C972 1.383 . S
C978 C977 1.379 . S
H979 C973 0.959 . S
H980 C973 0.961 . S
H981 C973 0.960 . S
H982 C974 0.930 . S
H983 C975 0.929 . S
H984 C992 0.929 . S
H985 C994 0.930 . S
H986 C996 0.930 . S
H987 C999 0.929 . S
H988 C1002 0.930 . S
H989 C1004 0.960 . S
H990 C1004 0.960 . S
H991 C1004 0.960 . S
C992 H984 0.929 . S
C992 C993 1.377 . S
C992 C994 1.384 . S
C993 C992 1.377 . S
C993 C999 1.390 . S
C994 H985 0.930 . S
C994 C992 1.384 . S
C994 C995 1.372 . S
C995 C994 1.372 . S
C995 C996 1.400 . S
C995 C1000 1.490 . S
C996 H986 0.930 . S
C996 C995 1.400 . S
C996 C999 1.386 . S
H997 C1013 0.930 . S
H998 C1014 0.931 . S
C999 H987 0.929 . S
C999 C993 1.390 . S
C999 C996 1.386 . S
C1000 C995 1.490 . S
C1000 C1002 1.395 . S
C1000 C1003 1.403 . S
H1001 C1007 0.930 . S
C1002 H988 0.930 . S
C1002 C1000 1.395 . S
C1002 C1005 1.403 . S
C1003 C1000 1.403 . S
C1003 C1004 1.524 . S
C1003 C1007 1.400 . S
C1004 H989 0.960 . S
C1004 H990 0.960 . S
C1004 H991 0.960 . S
C1004 C1003 1.524 . S
C1005 C1002 1.403 . S
C1005 C1006 1.392 . S
C1005 C1009 1.495 . S
C1006 C1005 1.392 . S
C1006 C1007 1.385 . S
C1006 C1008 1.478 . S
C1007 H1001 0.930 . S
C1007 C1003 1.400 . S
C1007 C1006 1.385 . S
C1008 C1006 1.478 . S
C1008 C1010 1.381 . S
C1008 C1014 1.383 . S
C1009 C1005 1.495 . S
C1009 H1015 0.959 . S
C1009 H1016 0.961 . S
C1009 H1017 0.960 . S
C1010 C1008 1.381 . S
C1010 C1011 1.394 . S
C1010 H1018 0.930 . S
C1011 C1010 1.394 . S
C1011 C1012 1.383 . S
C1011 H1019 0.929 . S
C1012 C1011 1.383 . S
C1012 C1013 1.377 . S
C1013 H997 0.930 . S
C1013 C1012 1.377 . S
C1013 C1014 1.379 . S
C1014 H998 0.931 . S
C1014 C1008 1.383 . S
C1014 C1013 1.379 . S
H1015 C1009 0.959 . S
H1016 C1009 0.961 . S
H1017 C1009 0.960 . S
H1018 C1010 0.930 . S
H1019 C1011 0.929 . S
H1020 C1028 0.929 . S
H1021 C1030 0.930 . S
H1022 C1032 0.930 . S
H1023 C1035 0.929 . S
H1024 C1038 0.930 . S
H1025 C1040 0.960 . S
H1026 C1040 0.960 . S
H1027 C1040 0.960 . S
C1028 H1020 0.929 . S
C1028 C1029 1.377 . S
C1028 C1030 1.384 . S
C1029 C1028 1.377 . S
C1029 C1035 1.390 . S
C1030 H1021 0.930 . S
C1030 C1028 1.384 . S
C1030 C1031 1.372 . S
C1031 C1030 1.372 . S
C1031 C1032 1.400 . S
C1031 C1036 1.490 . S
C1032 H1022 0.930 . S
C1032 C1031 1.400 . S
C1032 C1035 1.386 . S
H1033 C1049 0.930 . S
H1034 C1050 0.931 . S
C1035 H1023 0.929 . S
C1035 C1029 1.390 . S
C1035 C1032 1.386 . S
C1036 C1031 1.490 . S
C1036 C1038 1.395 . S
C1036 C1039 1.403 . S
H1037 C1043 0.930 . S
C1038 H1024 0.930 . S
C1038 C1036 1.395 . S
C1038 C1041 1.403 . S
C1039 C1036 1.403 . S
C1039 C1040 1.524 . S
C1039 C1043 1.400 . S
C1040 H1025 0.960 . S
C1040 H1026 0.960 . S
C1040 H1027 0.960 . S
C1040 C1039 1.524 . S
C1041 C1038 1.403 . S
C1041 C1042 1.392 . S
C1041 C1045 1.495 . S
C1042 C1041 1.392 . S
C1042 C1043 1.385 . S
C1042 C1044 1.478 . S
C1043 H1037 0.930 . S
C1043 C1039 1.400 . S
C1043 C1042 1.385 . S
C1044 C1042 1.478 . S
C1044 C1046 1.381 . S
C1044 C1050 1.383 . S
C1045 C1041 1.495 . S
C1045 H1051 0.959 . S
C1045 H1052 0.961 . S
C1045 H1053 0.960 . S
C1046 C1044 1.381 . S
C1046 C1047 1.394 . S
C1046 H1054 0.930 . S
C1047 C1046 1.394 . S
C1047 C1048 1.383 . S
C1047 H1055 0.929 . S
C1048 C1047 1.383 . S
C1048 C1049 1.377 . S
C1049 H1033 0.930 . S
C1049 C1048 1.377 . S
C1049 C1050 1.379 . S
C1050 H1034 0.931 . S
C1050 C1044 1.383 . S
C1050 C1049 1.379 . S
H1051 C1045 0.959 . S
H1052 C1045 0.961 . S
H1053 C1045 0.960 . S
H1054 C1046 0.930 . S
H1055 C1047 0.929 . S
H1056 C1064 0.929 . S
H1057 C1066 0.930 . S
H1058 C1068 0.930 . S
H1059 C1071 0.929 . S
H1060 C1074 0.930 . S
H1061 C1076 0.960 . S
H1062 C1076 0.960 . S
H1063 C1076 0.960 . S
C1064 H1056 0.929 . S
C1064 C1065 1.377 . S
C1064 C1066 1.384 . S
C1065 C1064 1.377 . S
C1065 C1071 1.390 . S
C1066 H1057 0.930 . S
C1066 C1064 1.384 . S
C1066 C1067 1.372 . S
C1067 C1066 1.372 . S
C1067 C1068 1.400 . S
C1067 C1072 1.490 . S
C1068 H1058 0.930 . S
C1068 C1067 1.400 . S
C1068 C1071 1.386 . S
H1069 C1085 0.930 . S
H1070 C1086 0.931 . S
C1071 H1059 0.929 . S
C1071 C1065 1.390 . S
C1071 C1068 1.386 . S
C1072 C1067 1.490 . S
C1072 C1074 1.395 . S
C1072 C1075 1.403 . S
H1073 C1079 0.930 . S
C1074 H1060 0.930 . S
C1074 C1072 1.395 . S
C1074 C1077 1.403 . S
C1075 C1072 1.403 . S
C1075 C1076 1.524 . S
C1075 C1079 1.400 . S
C1076 H1061 0.960 . S
C1076 H1062 0.960 . S
C1076 H1063 0.960 . S
C1076 C1075 1.524 . S
C1077 C1074 1.403 . S
C1077 C1078 1.392 . S
C1077 C1081 1.495 . S
C1078 C1077 1.392 . S
C1078 C1079 1.385 . S
C1078 C1080 1.478 . S
C1079 H1073 0.930 . S
C1079 C1075 1.400 . S
C1079 C1078 1.385 . S
C1080 C1078 1.478 . S
C1080 C1082 1.381 . S
C1080 C1086 1.383 . S
C1081 C1077 1.495 . S
C1081 H1087 0.959 . S
C1081 H1088 0.961 . S
C1081 H1089 0.960 . S
C1082 C1080 1.381 . S
C1082 C1083 1.394 . S
C1082 H1090 0.930 . S
C1083 C1082 1.394 . S
C1083 C1084 1.383 . S
C1083 H1091 0.929 . S
C1084 C1083 1.383 . S
C1084 C1085 1.377 . S
C1085 H1069 0.930 . S
C1085 C1084 1.377 . S
C1085 C1086 1.379 . S
C1086 H1070 0.931 . S
C1086 C1080 1.383 . S
C1086 C1085 1.379 . S
H1087 C1081 0.959 . S
H1088 C1081 0.961 . S
H1089 C1081 0.960 . S
H1090 C1082 0.930 . S
H1091 C1083 0.929 . S
H1092 C1100 0.929 . S
H1093 C1102 0.930 . S
H1094 C1104 0.930 . S
H1095 C1107 0.929 . S
H1096 C1110 0.930 . S
H1097 C1112 0.960 . S
H1098 C1112 0.960 . S
H1099 C1112 0.960 . S
C1100 H1092 0.929 . S
C1100 C1101 1.377 . S
C1100 C1102 1.384 . S
C1101 C1100 1.377 . S
C1101 C1107 1.390 . S
C1102 H1093 0.930 . S
C1102 C1100 1.384 . S
C1102 C1103 1.372 . S
C1103 C1102 1.372 . S
C1103 C1104 1.400 . S
C1103 C1108 1.490 . S
C1104 H1094 0.930 . S
C1104 C1103 1.400 . S
C1104 C1107 1.386 . S
H1105 C1121 0.930 . S
H1106 C1122 0.931 . S
C1107 H1095 0.929 . S
C1107 C1101 1.390 . S
C1107 C1104 1.386 . S
C1108 C1103 1.490 . S
C1108 C1110 1.395 . S
C1108 C1111 1.403 . S
H1109 C1115 0.930 . S
C1110 H1096 0.930 . S
C1110 C1108 1.395 . S
C1110 C1113 1.403 . S
C1111 C1108 1.403 . S
C1111 C1112 1.524 . S
C1111 C1115 1.400 . S
C1112 H1097 0.960 . S
C1112 H1098 0.960 . S
C1112 H1099 0.960 . S
C1112 C1111 1.524 . S
C1113 C1110 1.403 . S
C1113 C1114 1.392 . S
C1113 C1117 1.495 . S
C1114 C1113 1.392 . S
C1114 C1115 1.385 . S
C1114 C1116 1.478 . S
C1115 H1109 0.930 . S
C1115 C1111 1.400 . S
C1115 C1114 1.385 . S
C1116 C1114 1.478 . S
C1116 C1118 1.381 . S
C1116 C1122 1.383 . S
C1117 C1113 1.495 . S
C1117 H1123 0.959 . S
C1117 H1124 0.961 . S
C1117 H1125 0.960 . S
C1118 C1116 1.381 . S
C1118 C1119 1.394 . S
C1118 H1126 0.930 . S
C1119 C1118 1.394 . S
C1119 C1120 1.383 . S
C1119 H1127 0.929 . S
C1120 C1119 1.383 . S
C1120 C1121 1.377 . S
C1121 H1105 0.930 . S
C1121 C1120 1.377 . S
C1121 C1122 1.379 . S
C1122 H1106 0.931 . S
C1122 C1116 1.383 . S
C1122 C1121 1.379 . S
H1123 C1117 0.959 . S
H1124 C1117 0.961 . S
H1125 C1117 0.960 . S
H1126 C1118 0.930 . S
H1127 C1119 0.929 . S
H1128 C1136 0.929 . S
H1129 C1138 0.930 . S
H1130 C1140 0.930 . S
H1131 C1143 0.929 . S
H1132 C1146 0.930 . S
H1133 C1148 0.960 . S
H1134 C1148 0.960 . S
H1135 C1148 0.960 . S
C1136 H1128 0.929 . S
C1136 C1137 1.377 . S
C1136 C1138 1.384 . S
C1137 C1136 1.377 . S
C1137 C1143 1.390 . S
C1138 H1129 0.930 . S
C1138 C1136 1.384 . S
C1138 C1139 1.372 . S
C1139 C1138 1.372 . S
C1139 C1140 1.400 . S
C1139 C1144 1.490 . S
C1140 H1130 0.930 . S
C1140 C1139 1.400 . S
C1140 C1143 1.386 . S
H1141 C1157 0.930 . S
H1142 C1158 0.931 . S
C1143 H1131 0.929 . S
C1143 C1137 1.390 . S
C1143 C1140 1.386 . S
C1144 C1139 1.490 . S
C1144 C1146 1.395 . S
C1144 C1147 1.403 . S
H1145 C1151 0.930 . S
C1146 H1132 0.930 . S
C1146 C1144 1.395 . S
C1146 C1149 1.403 . S
C1147 C1144 1.403 . S
C1147 C1148 1.524 . S
C1147 C1151 1.400 . S
C1148 H1133 0.960 . S
C1148 H1134 0.960 . S
C1148 H1135 0.960 . S
C1148 C1147 1.524 . S
C1149 C1146 1.403 . S
C1149 C1150 1.392 . S
C1149 C1153 1.495 . S
C1150 C1149 1.392 . S
C1150 C1151 1.385 . S
C1150 C1152 1.478 . S
C1151 H1145 0.930 . S
C1151 C1147 1.400 . S
C1151 C1150 1.385 . S
C1152 C1150 1.478 . S
C1152 C1154 1.381 . S
C1152 C1158 1.383 . S
C1153 C1149 1.495 . S
C1153 H1159 0.959 . S
C1153 H1160 0.961 . S
C1153 H1161 0.960 . S
C1154 C1152 1.381 . S
C1154 C1155 1.394 . S
C1154 H1162 0.930 . S
C1155 C1154 1.394 . S
C1155 C1156 1.383 . S
C1155 H1163 0.929 . S
C1156 C1155 1.383 . S
C1156 C1157 1.377 . S
C1157 H1141 0.930 . S
C1157 C1156 1.377 . S
C1157 C1158 1.379 . S
C1158 H1142 0.931 . S
C1158 C1152 1.383 . S
C1158 C1157 1.379 . S
H1159 C1153 0.959 . S
H1160 C1153 0.961 . S
H1161 C1153 0.960 . S
H1162 C1154 0.930 . S
H1163 C1155 0.929 . S
H1164 C1172 0.929 . S
H1165 C1174 0.930 . S
H1166 C1176 0.930 . S
H1167 C1179 0.929 . S
H1168 C1182 0.930 . S
H1169 C1184 0.960 . S
H1170 C1184 0.960 . S
H1171 C1184 0.960 . S
C1172 H1164 0.929 . S
C1172 C1173 1.377 . S
C1172 C1174 1.384 . S
C1173 C1172 1.377 . S
C1173 C1179 1.390 . S
C1174 H1165 0.930 . S
C1174 C1172 1.384 . S
C1174 C1175 1.372 . S
C1175 C1174 1.372 . S
C1175 C1176 1.400 . S
C1175 C1180 1.490 . S
C1176 H1166 0.930 . S
C1176 C1175 1.400 . S
C1176 C1179 1.386 . S
H1177 C1193 0.930 . S
H1178 C1194 0.931 . S
C1179 H1167 0.929 . S
C1179 C1173 1.390 . S
C1179 C1176 1.386 . S
C1180 C1175 1.490 . S
C1180 C1182 1.395 . S
C1180 C1183 1.403 . S
H1181 C1187 0.930 . S
C1182 H1168 0.930 . S
C1182 C1180 1.395 . S
C1182 C1185 1.403 1_554 S
C1183 C1180 1.403 . S
C1183 C1184 1.524 . S
C1183 C1187 1.400 . S
C1184 H1169 0.960 . S
C1184 H1170 0.960 . S
C1184 H1171 0.960 . S
C1184 C1183 1.524 . S
C1185 C1182 1.403 1_556 S
C1185 C1186 1.392 . S
C1185 C1189 1.495 . S
C1186 C1185 1.392 . S
C1186 C1187 1.385 1_556 S
C1186 C1188 1.478 . S
C1187 H1181 0.930 . S
C1187 C1183 1.400 . S
C1187 C1186 1.385 1_554 S
C1188 C1186 1.478 . S
C1188 C1190 1.381 . S
C1188 C1194 1.383 . S
C1189 C1185 1.495 . S
C1189 H1195 0.959 . S
C1189 H1196 0.961 . S
C1189 H1197 0.960 . S
C1190 C1188 1.381 . S
C1190 C1191 1.394 . S
C1190 H1198 0.930 . S
C1191 C1190 1.394 . S
C1191 C1192 1.383 . S
C1191 H1199 0.929 . S
C1192 C1191 1.383 . S
C1192 C1193 1.377 . S
C1193 H1177 0.930 . S
C1193 C1192 1.377 . S
C1193 C1194 1.379 . S
C1194 H1178 0.931 . S
C1194 C1188 1.383 . S
C1194 C1193 1.379 . S
H1195 C1189 0.959 . S
H1196 C1189 0.961 . S
H1197 C1189 0.960 . S
H1198 C1190 0.930 . S
H1199 C1191 0.929 . S
H1200 C1208 0.929 . S
H1201 C1210 0.930 . S
H1202 C1212 0.930 . S
H1203 C1215 0.929 . S
H1204 C1218 0.930 . S
H1205 C1220 0.960 . S
H1206 C1220 0.960 . S
H1207 C1220 0.960 . S
C1208 H1200 0.929 . S
C1208 C1209 1.377 . S
C1208 C1210 1.384 . S
C1209 C1208 1.377 . S
C1209 C1215 1.390 . S
C1210 H1201 0.930 . S
C1210 C1208 1.384 . S
C1210 C1211 1.372 . S
C1211 C1210 1.372 . S
C1211 C1212 1.400 . S
C1211 C1216 1.490 . S
C1212 H1202 0.930 . S
C1212 C1211 1.400 . S
C1212 C1215 1.386 . S
H1213 C1229 0.930 . S
H1214 C1230 0.931 . S
C1215 H1203 0.929 . S
C1215 C1209 1.390 . S
C1215 C1212 1.386 . S
C1216 C1211 1.490 . S
C1216 C1218 1.395 . S
C1216 C1219 1.403 . S
H1217 C1223 0.930 . S
C1218 H1204 0.930 . S
C1218 C1216 1.395 . S
C1218 C1221 1.403 . S
C1219 C1216 1.403 . S
C1219 C1220 1.524 . S
C1219 C1223 1.400 . S
C1220 H1205 0.960 . S
C1220 H1206 0.960 . S
C1220 H1207 0.960 . S
C1220 C1219 1.524 . S
C1221 C1218 1.403 . S
C1221 C1222 1.392 . S
C1221 C1225 1.495 . S
C1222 C1221 1.392 . S
C1222 C1223 1.385 . S
C1222 C1224 1.478 . S
C1223 H1217 0.930 . S
C1223 C1219 1.400 . S
C1223 C1222 1.385 . S
C1224 C1222 1.478 . S
C1224 C1226 1.381 . S
C1224 C1230 1.383 . S
C1225 C1221 1.495 . S
C1225 H1231 0.959 . S
C1225 H1232 0.961 . S
C1225 H1233 0.960 . S
C1226 C1224 1.381 . S
C1226 C1227 1.394 . S
C1226 H1234 0.930 . S
C1227 C1226 1.394 . S
C1227 C1228 1.383 . S
C1227 H1235 0.929 . S
C1228 C1227 1.383 . S
C1228 C1229 1.377 . S
C1229 H1213 0.930 . S
C1229 C1228 1.377 . S
C1229 C1230 1.379 . S
C1230 H1214 0.931 . S
C1230 C1224 1.383 . S
C1230 C1229 1.379 . S
H1231 C1225 0.959 . S
H1232 C1225 0.961 . S
H1233 C1225 0.960 . S
H1234 C1226 0.930 . S
H1235 C1227 0.929 . S
C400 C363 1.211 . S
C381 C45 1.497 . S
C417 C84 1.531 . S
C436 C293 1.343 . S
C453 C126 1.468 . S
C472 C313 1.497 . S
C489 C189 1.425 . S
C508 C327 1.411 . S
C544 C335 1.174 . S
C525 C228 1.469 . S
C561 C270 1.462 . S
C580 C349 1.227 . S
C597 C69 1.510 . S
C616 C307 1.304 . S
C633 C141 1.470 . S
C652 C321 1.224 . S
C669 C174 1.389 . S
C688 C341 1.421 . S
C724 C355 1.467 . S
C705 C213 1.446 . S
C760 C369 1.456 . S
C741 C285 1.467 . S
C796 C299 1.494 . S
C777 C30 1.460 . S
C813 C36 1.436 . S
C832 C306 1.403 . S
C849 C93 1.458 . S
C868 C320 1.448 . S
C904 C342 1.442 . S
C885 C117 1.445 . S
C921 C180 1.451 . S
C940 C356 1.449 . S
C976 C370 1.401 . S
C957 C237 1.415 . S
C1012 C300 1.385 . S
C993 C261 1.393 . S
C1048 C362 1.395 . S
C1029 C78 1.431 . S
C1065 C132 1.436 . S
C1084 C292 1.396 . S
C1120 C314 1.426 . S
C1101 C165 1.426 . S
C1137 C222 1.441 . S
C1156 C328 1.439 . S
C1173 C276 1.494 . S
C1192 C334 1.459 . S
C1209 C21 1.467 . S
C1228 C348 1.460 . S
