# Generated by pormake.
# Topology pyr, (3,6)-cn, num edge types: 1
# Building blocks:
#     Node 0, Type 0, BuildingBlock: CUQRIR_clean_linker_1, # of connection points: 3
#     Node 1, Type 0, BuildingBlock: CUQRIR_clean_linker_1, # of connection points: 3
#     Node 2, Type 0, BuildingBlock: CUQRIR_clean_linker_1, # of connection points: 3
#     Node 3, Type 0, BuildingBlock: CUQRIR_clean_linker_1, # of connection points: 3
#     Node 4, Type 0, BuildingBlock: CUQRIR_clean_linker_1, # of connection points: 3
#     Node 5, Type 0, BuildingBlock: CUQRIR_clean_linker_1, # of connection points: 3
#     Node 6, Type 0, BuildingBlock: CUQRIR_clean_linker_1, # of connection points: 3
#     Node 7, Type 0, BuildingBlock: CUQRIR_clean_linker_1, # of connection points: 3
#     Node 8, Type 1, BuildingBlock: JUFBIX_clean_sbu_0, # of connection points: 6
#     Node 9, Type 1, BuildingBlock: JUFBIX_clean_sbu_0, # of connection points: 6
#     Node 10, Type 1, BuildingBlock: JUFBIX_clean_sbu_0, # of connection points: 6
#     Node 11, Type 1, BuildingBlock: JUFBIX_clean_sbu_0, # of connection points: 6
#     Edge 12, Type (0, 1), BuildingBlock: OJICUG_clean_linker_0, # of connection points: 2
#     Edge 13, Type (0, 1), BuildingBlock: OJICUG_clean_linker_0, # of connection points: 2
#     Edge 14, Type (0, 1), BuildingBlock: OJICUG_clean_linker_0, # of connection points: 2
#     Edge 15, Type (0, 1), BuildingBlock: OJICUG_clean_linker_0, # of connection points: 2
#     Edge 16, Type (0, 1), BuildingBlock: OJICUG_clean_linker_0, # of connection points: 2
#     Edge 17, Type (0, 1), BuildingBlock: OJICUG_clean_linker_0, # of connection points: 2
#     Edge 18, Type (0, 1), BuildingBlock: OJICUG_clean_linker_0, # of connection points: 2
#     Edge 19, Type (0, 1), BuildingBlock: OJICUG_clean_linker_0, # of connection points: 2
#     Edge 20, Type (0, 1), BuildingBlock: OJICUG_clean_linker_0, # of connection points: 2
#     Edge 21, Type (0, 1), BuildingBlock: OJICUG_clean_linker_0, # of connection points: 2
#     Edge 22, Type (0, 1), BuildingBlock: OJICUG_clean_linker_0, # of connection points: 2
#     Edge 23, Type (0, 1), BuildingBlock: OJICUG_clean_linker_0, # of connection points: 2
#     Edge 24, Type (0, 1), BuildingBlock: OJICUG_clean_linker_0, # of connection points: 2
#     Edge 25, Type (0, 1), BuildingBlock: OJICUG_clean_linker_0, # of connection points: 2
#     Edge 26, Type (0, 1), BuildingBlock: OJICUG_clean_linker_0, # of connection points: 2
#     Edge 27, Type (0, 1), BuildingBlock: OJICUG_clean_linker_0, # of connection points: 2
#     Edge 28, Type (0, 1), BuildingBlock: OJICUG_clean_linker_0, # of connection points: 2
#     Edge 29, Type (0, 1), BuildingBlock: OJICUG_clean_linker_0, # of connection points: 2
#     Edge 30, Type (0, 1), BuildingBlock: OJICUG_clean_linker_0, # of connection points: 2
#     Edge 31, Type (0, 1), BuildingBlock: OJICUG_clean_linker_0, # of connection points: 2
#     Edge 32, Type (0, 1), BuildingBlock: OJICUG_clean_linker_0, # of connection points: 2
#     Edge 33, Type (0, 1), BuildingBlock: OJICUG_clean_linker_0, # of connection points: 2
#     Edge 34, Type (0, 1), BuildingBlock: OJICUG_clean_linker_0, # of connection points: 2
#     Edge 35, Type (0, 1), BuildingBlock: OJICUG_clean_linker_0, # of connection points: 2
# Relax obj value: 0.189
# Max RMSD: 0.233
# Mean RMSD: 0.155
data_MOF--net-pyr--node1-JUFBIX_clean_sbu_0--node2-CUQRIR_clean_linker_1--edge1-OJICUG_clean_linker_0
_symmetry_space_group_name_H-M    P1
_symmetry_Int_Tables_number       1
_symmetry_cell_setting            triclinic
loop_
_symmetry_equiv_pos_as_xyz
'x, y, z'
_cell_length_a     24.504156
_cell_length_b     22.757929
_cell_length_c     23.840123
_cell_angle_alpha  78.353832
_cell_angle_beta   90.266911
_cell_angle_gamma 94.29462
loop_
_atom_site_label
_atom_site_type_symbol
_atom_site_fract_x
_atom_site_fract_y
_atom_site_fract_z
_atom_type_partial_charge
C0 C 0.20584 0.21436 0.23641 0.0
N1 N 0.24106 0.16986 0.24821 0.0
N2 N 0.218 0.25219 0.18571 0.0
C3 C 0.15798 0.22054 0.27416 0.0
C4 C 0.26251 0.22894 0.16674 0.0
N5 N 0.27718 0.17869 0.20429 0.0
C6 C 0.29355 0.25745 0.11261 0.0
H7 H 0.12338 0.23922 0.24803 0.0
H8 H 0.17123 0.25168 0.30274 0.0
H9 H 0.14256 0.17753 0.30168 0.0
H10 H 0.28742 0.30617 0.10042 0.0
H11 H 0.27845 0.23542 0.07743 0.0
H12 H 0.33795 0.25151 0.1178 0.0
C13 C 0.49521 0.90839 0.60767 0.0
N14 N 0.4854 0.94476 0.6443 0.0
N15 N 0.53384 0.87068 0.62845 0.0
C16 C 0.45924 0.90103 0.55763 0.0
C17 C 0.5484 0.88639 0.67853 0.0
N18 N 0.51939 0.93186 0.68798 0.0
C19 C 0.58702 0.85316 0.7203 0.0
H20 H 0.41879 0.87909 0.57383 0.0
H21 H 0.47761 0.87335 0.53043 0.0
H22 H 0.45261 0.94567 0.53082 0.0
H23 H 0.61948 0.83598 0.69701 0.0
H24 H 0.56408 0.81395 0.74766 0.0
H25 H 0.60584 0.88268 0.74804 0.0
C26 C 0.66322 0.40609 0.90004 0.0
N27 N 0.69956 0.38456 0.94079 0.0
N28 N 0.68811 0.44454 0.85524 0.0
C29 C 0.60309 0.38601 0.9026 0.0
C30 C 0.74131 0.44776 0.87097 0.0
N31 N 0.74854 0.41126 0.92279 0.0
C32 C 0.78697 0.48433 0.83477 0.0
H33 H 0.59671 0.34353 0.88657 0.0
H34 H 0.5791 0.42055 0.87592 0.0
H35 H 0.58781 0.37719 0.94748 0.0
H36 H 0.81247 0.51068 0.86097 0.0
H37 H 0.77189 0.5154 0.79712 0.0
H38 H 0.81354 0.45347 0.81921 0.0
C39 C 0.99359 0.59148 0.46893 0.0
N40 N 1.03283 0.63539 0.44768 0.0
N41 N 0.97279 0.59941 0.51907 0.0
C42 C 0.96698 0.54797 0.435 0.0
C43 C 1.00768 0.64361 0.53212 0.0
N44 N 0.04223 0.66807 0.48783 0.0
C45 C 0.99954 0.67116 0.58364 0.0
H46 H 0.93258 0.56883 0.41 0.0
H47 H 0.95046 0.50623 0.46422 0.0
H48 H 0.99655 0.5358 0.40499 0.0
H49 H 0.03909 0.6756 0.60581 0.0
H50 H 0.96938 0.64292 0.61411 0.0
H51 H 0.98497 0.71683 0.56997 0.0
C52 C 0.85181 0.87118 0.94008 0.0
N53 N 0.89137 0.86248 0.90301 0.0
N54 N 0.82437 0.92033 0.91864 0.0
C55 C 0.83608 0.82801 0.99531 0.0
C56 C 0.84816 0.94069 0.86592 0.0
N57 N 0.88864 0.90548 0.85561 0.0
C58 C 0.83501 0.99835 0.8268 0.0
H59 H 0.84438 0.78132 0.99292 0.0
H60 H 0.79203 0.82883 1.00541 0.0
H61 H 0.86032 0.8413 1.03078 0.0
H62 H 0.87172 0.02045 0.80193 0.0
H63 H 0.81922 0.02997 0.85156 0.0
H64 H 0.8029 0.98826 0.79643 0.0
C65 C 0.67201 0.17759 0.54882 0.0
N66 N 0.68407 0.13494 0.51954 0.0
N67 N 0.62315 0.1993 0.53254 0.0
C68 C 0.70868 0.20069 0.59157 0.0
C69 C 0.60512 0.16701 0.49341 0.0
N70 N 0.64208 0.12823 0.48527 0.0
C71 C 0.55768 0.18283 0.4542 0.0
H72 H 0.68359 0.2132 0.62538 0.0
H73 H 0.73333 0.2418 0.5699 0.0
H74 H 0.73669 0.16638 0.61135 0.0
H75 H 0.53982 0.14287 0.43875 0.0
H76 H 0.57244 0.21745 0.41656 0.0
H77 H 0.52524 0.20126 0.47629 0.0
C78 C 0.35471 0.6314 0.20642 0.0
N79 N 0.40018 0.66214 0.22188 0.0
N80 N 0.33786 0.65749 0.15369 0.0
C81 C 0.32773 0.57417 0.24135 0.0
C82 C 0.37438 0.70522 0.13726 0.0
N83 N 0.41293 0.70765 0.17801 0.0
C84 C 0.36851 0.75346 0.0844 0.0
H85 H 0.35829 0.54711 0.26718 0.0
H86 H 0.30618 0.54684 0.21321 0.0
H87 H 0.29703 0.58549 0.27077 0.0
H88 H 0.32601 0.75315 0.06828 0.0
H89 H 0.39594 0.74555 0.05021 0.0
H90 H 0.3804 0.79869 0.09325 0.0
C91 C 0.04498 0.38012 0.6168 0.0
N92 N 0.08555 0.36514 0.58546 0.0
N93 N 0.05539 0.43629 0.62705 0.0
C94 C 1.00006 0.33616 0.6461 0.0
C95 C 0.10165 0.45639 0.5958 0.0
N96 N 0.12212 0.41227 0.57329 0.0
C97 C 0.13373 0.51485 0.59896 0.0
H98 H 0.96814 0.35987 0.66353 0.0
H99 H 1.01757 0.30405 0.68169 0.0
H100 H 0.9814 0.30989 0.61547 0.0
H101 H 0.15998 0.50807 0.63746 0.0
H102 H 0.10566 0.55009 0.60222 0.0
H103 H 0.1602 0.53068 0.56048 0.0
Co104 Co 0.04123 0.01749 0.52314 0.0
C105 C 0.07816 0.90377 0.52792 0.0
Co106 Co 0.11536 1.00257 0.57405 0.0
C107 C 0.936 0.05927 0.50008 0.0
C108 C 0.95335 1.00092 0.44349 0.0
N109 N 0.97626 0.02883 0.48365 0.0
N110 N 0.88882 0.05079 0.47284 0.0
C111 C 0.8992 0.01399 0.43712 0.0
H112 H 0.93988 0.08351 0.53476 0.0
H113 H 0.97356 0.97024 0.4228 0.0
C114 C 0.08071 0.11847 0.56331 0.0
N115 N 0.17719 0.99414 0.61848 0.0
C116 C 0.22957 0.99 0.60367 0.0
C117 C 0.17919 0.99901 0.6741 0.0
N118 N 0.26348 0.99159 0.64807 0.0
C119 C 0.23207 0.99658 0.69256 0.0
C120 C 0.13798 0.04727 0.45551 0.0
O121 O 0.04451 0.09901 0.53209 0.0
O122 O 0.11437 0.08252 0.58857 0.0
O123 O 0.15958 0.03459 0.50493 0.0
O124 O 0.08564 0.04266 0.45253 0.0
O125 O 0.11686 0.92217 0.55778 0.0
H126 H 0.14476 1.00601 0.69951 0.0
H127 H 0.2427 0.98604 0.56139 0.0
O128 O 0.03941 0.93741 0.51244 0.0
O129 O 0.99705 0.9909 0.59478 0.0
O130 O 0.07087 0.97019 0.64297 0.0
C131 C 1.01911 0.97074 0.64272 0.0
H132 H 0.8694 0.99639 0.40989 0.0
H133 H 0.24664 0.99938 0.73497 0.0
Co134 Co 0.53839 0.04602 0.04113 0.0
C135 C 0.52532 0.93717 0.12253 0.0
Co136 Co 0.58298 0.04517 0.12153 0.0
C137 C 0.51837 0.04404 0.92215 0.0
C138 C 0.4457 0.02088 0.9738 0.0
N139 N 0.49831 0.04273 0.9752 0.0
N140 N 0.48104 0.02205 0.88859 0.0
C141 C 0.43521 1.00746 0.92082 0.0
H142 H 0.5611 0.05445 0.91022 0.0
H143 H 0.41855 1.00934 1.01066 0.0
C144 C 0.60025 0.15335 0.04111 0.0
N145 N 0.62522 0.04673 0.18549 0.0
C146 C 0.60988 0.04678 0.23971 0.0
C147 C 0.68042 0.05451 0.18535 0.0
N148 N 0.65337 0.05499 0.27289 0.0
C149 C 0.69777 0.05947 0.23893 0.0
C150 C 0.64335 1.00619 1.03336 0.0
O151 O 0.56717 0.12775 1.0103 0.0
O152 O 0.61087 0.12559 0.09114 0.0
O153 O 0.64533 0.01425 0.08485 0.0
O154 O 0.59941 0.01723 1.00644 0.0
O155 O 0.55598 0.96503 0.15306 0.0
H156 H 0.70661 0.05974 0.14804 0.0
H157 H 0.56772 0.04497 0.25368 0.0
O158 O 0.51249 0.96404 0.07256 0.0
O159 O 0.4754 0.07479 0.0765 0.0
O160 O 0.51905 0.07553 0.15655 0.0
C161 C 0.47491 0.08386 0.12776 0.0
H162 H 0.39846 0.98385 0.90861 0.0
H163 H 0.7396 0.06886 0.25128 0.0
Co164 Co 0.58684 0.56001 0.51792 0.0
C165 C 0.50311 0.57504 0.43799 0.0
Co166 Co 0.50566 0.52606 0.55601 0.0
C167 C 0.70303 0.5716 0.50826 0.0
C168 C 0.66692 0.64032 0.44784 0.0
N169 N 0.65448 0.59048 0.48816 0.0
N170 N 0.74538 0.60849 0.48333 0.0
C171 C 0.72287 0.6515 0.44472 0.0
H172 H 0.70709 0.53343 0.54294 0.0
H173 H 0.63722 0.66817 0.4242 0.0
C174 C 0.59003 0.51541 0.63531 0.0
N175 N 0.43786 0.49024 0.58741 0.0
C176 C 0.38669 0.4906 0.56524 0.0
C177 C 0.43373 0.44508 0.634 0.0
N178 N 0.35138 0.4475 0.59639 0.0
C179 C 0.38144 0.41926 0.6396 0.0
C180 C 0.5649 0.44026 0.51962 0.0
O181 O 0.61863 0.54138 0.59215 0.0
O182 O 0.53941 0.50294 0.62906 0.0
O183 O 0.51919 0.45036 0.53913 0.0
O184 O 0.60113 0.48351 0.50543 0.0
O185 O 0.47346 0.5514 0.48178 0.0
H186 H 0.46727 0.42821 0.66047 0.0
H187 H 0.37612 0.52024 0.52592 0.0
O188 O 0.5548 0.58013 0.44361 0.0
O189 O 0.57305 0.63538 0.53161 0.0
O190 O 0.49393 0.60243 0.57431 0.0
C191 C 0.5313 0.64486 0.55883 0.0
H192 H 0.74504 0.68931 0.41721 0.0
H193 H 0.36778 0.38024 0.67168 0.0
Co194 Co 0.05781 0.54246 0.99351 0.0
C195 C 0.95009 0.48773 1.01802 0.0
Co196 Co 1.02478 0.54986 0.07773 0.0
C197 C 0.05377 0.52659 0.87608 0.0
C198 C 0.1349 0.52504 0.91016 0.0
N199 N 0.08294 0.53386 0.92283 0.0
N200 N 0.08551 0.51267 0.8354 0.0
C201 C 0.13651 0.51169 0.8566 0.0
H202 H 1.00969 0.52717 0.87347 0.0
H203 H 0.16886 0.52466 0.93935 0.0
C204 C 0.1318 0.6009 0.0548 0.0
N205 N 1.00251 0.55983 0.15039 0.0
C206 C 1.02165 0.60351 0.17839 0.0
C207 C 0.97229 0.52015 0.19003 0.0
N208 N 1.00513 0.59215 0.23363 0.0
C209 C 0.97395 0.53985 0.24119 0.0
C210 C 0.08523 0.44764 0.08212 0.0
O211 O 0.12613 0.58608 1.00633 0.0
O212 O 0.0918 0.59028 0.08948 0.0
O213 O 0.05639 0.4744 0.1124 0.0
O214 O 0.08915 0.46867 1.02851 0.0
O215 O 0.9553 0.50699 0.06472 0.0
H216 H 0.95306 0.47785 0.18319 0.0
H217 H 0.04933 0.64159 0.15957 0.0
O218 O 0.99004 0.49801 0.98249 0.0
O219 O 1.02671 0.61698 0.95811 0.0
O220 O 0.99596 0.62592 0.04204 0.0
C221 C 1.00144 0.64685 0.98823 0.0
H222 H 0.1718 0.49891 0.836 0.0
H223 H 0.95607 0.51605 0.28164 0.0
C224 C 0.25086 0.13237 0.35197 0.0
C225 C 0.2334 0.12122 0.29836 0.0
H226 H 0.2352 0.11828 0.44283 0.0
C227 C 0.18897 0.07775 0.29886 0.0
H228 H 0.28354 0.16676 0.35349 0.0
C229 C 0.15885 0.05271 0.34968 0.0
C230 C 0.17357 0.06816 0.40239 0.0
H231 H 0.17303 0.06931 0.25856 0.0
H232 H 0.12249 0.02324 0.3472 0.0
C233 C 0.22198 0.1057 0.40318 0.0
C234 C 0.51965 0.0166 0.73806 0.0
C235 C 0.51589 0.95429 0.74016 0.0
H236 H 0.51214 0.08724 0.78492 0.0
C237 C 0.50177 0.9148 0.79213 0.0
H238 H 0.52971 0.04764 0.69807 0.0
C239 C 0.49014 0.9373 0.84073 0.0
C240 C 0.49331 0.99956 0.83843 0.0
H241 H 0.49707 0.86673 0.79433 0.0
H242 H 0.47829 0.90622 0.8802 0.0
C243 C 0.50926 0.03911 0.78717 0.0
C244 C 0.66605 0.52417 0.77245 0.0
C245 C 0.66527 0.46313 0.79903 0.0
H246 H 0.64366 0.58862 0.69841 0.0
C247 C 0.6398 0.41978 0.77102 0.0
H248 H 0.6846 0.55839 0.79364 0.0
C249 C 0.61445 0.43705 0.71825 0.0
C250 C 0.61577 0.49788 0.6915 0.0
H251 H 0.63933 0.37241 0.79027 0.0
H252 H 0.59462 0.40281 0.69782 0.0
C253 C 0.64235 0.54136 0.71848 0.0
C254 C 1.00041 0.67654 0.35193 0.0
C255 C 0.04335 0.65256 0.38677 0.0
H256 H 0.95348 0.67397 0.27589 0.0
C257 C 0.0812 0.62096 0.36269 0.0
H258 H 0.96928 0.69884 0.36986 0.0
C259 C 0.07146 0.60569 0.30904 0.0
C260 C 1.0241 0.62254 0.27837 0.0
H261 H 0.1137 0.60058 0.38887 0.0
H262 H 0.09783 0.57576 0.29417 0.0
C263 C 0.99042 0.66091 0.29866 0.0
C264 C 0.37238 0.14402 0.22479 0.0
C265 C 0.32279 0.14304 0.19417 0.0
H266 H 0.45829 0.12657 0.22918 0.0
C267 C 0.32396 0.11948 0.14374 0.0
H268 H 0.37419 0.1634 0.26272 0.0
C269 C 0.37239 0.09995 0.12353 0.0
C270 C 0.4226 0.10254 0.15277 0.0
H271 H 0.28745 0.11905 0.11802 0.0
H272 H 0.37056 0.08382 0.08377 0.0
C273 C 0.42115 0.12366 0.20481 0.0
C274 C 0.397 0.93253 0.69347 0.0
C275 C 0.43211 0.9651 0.65 0.0
H276 H 0.31536 0.91648 0.72697 0.0
C277 C 0.4116 1.00937 0.60718 0.0
H278 H 0.4114 0.89621 0.72523 0.0
C279 C 0.35586 0.01876 0.60649 0.0
C280 C 0.3209 0.98506 0.64957 0.0
H281 H 0.43818 0.03425 0.57299 0.0
H282 H 0.33984 0.05155 0.57224 0.0
C283 C 0.34207 0.94323 0.69386 0.0
C284 C 0.79741 0.44231 1.00466 0.0
C285 C 0.79743 0.41426 0.95713 0.0
H286 H 0.84533 0.48742 0.06167 0.0
C287 C 0.84815 0.40324 0.93565 0.0
H288 H 0.75897 0.45228 1.02151 0.0
C289 C 0.89745 0.42448 0.9575 0.0
C290 C 0.89766 0.45667 1.00224 0.0
H291 H 0.84952 0.3818 0.89912 0.0
H292 H 0.93551 0.4179 0.9375 0.0
C293 C 0.84695 0.46303 1.0272 0.0
C294 C 0.89191 0.65712 0.50204 0.0
C295 C 0.91446 0.60201 0.52344 0.0
H296 H 0.82102 0.70239 0.47312 0.0
C297 C 0.87959 0.54928 0.53611 0.0
H298 H 0.91794 0.69838 0.49052 0.0
C299 C 0.82364 0.55131 0.52414 0.0
C300 C 0.80195 0.60622 0.4995 0.0
H301 H 0.89623 0.50634 0.55186 0.0
H302 H 0.79797 0.50963 0.53172 0.0
C303 C 0.83647 0.65922 0.49051 0.0
C304 C 0.16914 0.30873 0.10151 0.0
C305 C 0.18764 0.30319 0.15825 0.0
H306 H 0.12267 0.35795 1.03316 0.0
C307 C 0.17207 0.346 0.18932 0.0
H308 H 0.17967 0.2765 0.07636 0.0
C309 C 0.13746 0.39114 0.1655 0.0
C310 C 0.11853 0.39639 0.10899 0.0
H311 H 0.18643 0.3443 0.23255 0.0
H312 H 0.12653 0.4229 0.19105 0.0
C313 C 0.13572 0.35503 0.07705 0.0
C314 C 0.68799 0.27634 0.94353 0.0
C315 C 0.68978 0.3239 0.97341 0.0
H316 H 0.65565 0.1868 0.93985 0.0
C317 C 0.66462 0.3135 1.02768 0.0
H318 H 0.70568 0.28382 0.90089 0.0
C319 C 0.63638 0.25761 0.05037 0.0
C320 C 0.63077 0.21211 1.01804 0.0
H321 H 0.6639 0.34982 0.05076 0.0
H322 H 0.61662 0.25099 0.09196 0.0
C323 C 0.65801 0.22158 0.96501 0.0
C324 C 1.03315 0.77554 0.45389 0.0
C325 C 0.06516 0.72949 0.48039 0.0
H326 H 1.01151 0.86554 0.44864 0.0
C327 C 0.10711 0.74366 0.51718 0.0
H328 H 0.99927 0.76574 0.42726 0.0
C329 C 0.11343 0.80095 0.53125 0.0
C330 C 0.07766 0.84516 0.50878 0.0
H331 H 0.13133 0.70847 0.53949 0.0
H332 H 0.14396 0.8093 0.56226 0.0
C333 C 0.03923 0.83246 0.46784 0.0
C334 C 0.49879 0.76521 0.63959 0.0
C335 C 0.53677 0.81254 0.61488 0.0
H336 H 0.46624 0.67488 0.64042 0.0
C337 C 0.57145 0.80535 0.5709 0.0
H338 H 0.47087 0.7711 0.67276 0.0
C339 C 0.56853 0.75114 0.55189 0.0
C340 C 0.5304 0.70341 0.57629 0.0
H341 H 0.59984 0.84218 0.55061 0.0
H342 H 0.59613 0.74674 0.51785 0.0
C343 C 0.49552 0.71095 0.62041 0.0
C344 C 0.97947 0.91825 0.80351 0.0
C345 C 0.92179 0.91446 0.80277 0.0
H346 H 0.05495 0.93865 0.75487 0.0
C347 C 0.89679 0.92616 0.74846 0.0
H348 H 1.00049 0.91029 0.84407 0.0
C349 C 0.9279 0.94363 0.69717 0.0
C350 C 0.98559 0.94935 0.69775 0.0
H351 H 0.85262 0.92296 0.7457 0.0
H352 H 0.90651 0.95329 0.65688 0.0
C353 C 1.01076 0.93519 0.75199 0.0
C354 C 0.6112 0.05863 0.42268 0.0
C355 C 0.64645 0.10645 0.43328 0.0
H356 H 0.58583 1.00446 0.36174 0.0
C357 C 0.68462 0.13572 0.39154 0.0
H358 H 0.58135 0.03608 0.45472 0.0
C359 C 0.68791 0.11738 0.33968 0.0
C360 C 0.65219 0.07023 0.3282 0.0
H361 H 0.71116 0.1736 0.39889 0.0
H362 H 0.71702 0.14161 0.30767 0.0
C363 C 0.61375 0.04084 0.37001 0.0
C364 C 0.39783 0.63574 0.32773 0.0
C365 C 0.42809 0.64793 0.27615 0.0
H366 H 0.39697 0.6018 0.41837 0.0
C367 C 0.48416 0.63872 0.27836 0.0
H368 H 0.35479 0.64355 0.32746 0.0
C369 C 0.50879 0.61541 0.33084 0.0
C370 C 0.47764 0.60014 0.38207 0.0
H371 H 0.50835 0.64739 0.23927 0.0
H372 H 0.55195 0.60802 0.33107 0.0
C373 C 0.422 0.61153 0.3798 0.0
C374 C 0.07431 0.41336 0.72942 0.0
C375 C 0.04935 0.44958 0.68312 0.0
H376 H 0.10542 0.40574 0.81425 0.0
C377 C 1.03012 0.50429 0.69023 0.0
H378 H 0.09062 0.37172 0.72455 0.0
C379 C 0.03895 0.52396 0.74196 0.0
C380 C 0.06776 0.48937 0.78628 0.0
H381 H 1.0116 0.53319 0.65469 0.0
H382 H 1.02655 0.56758 0.74608 0.0
C383 C 0.08356 0.43313 0.78029 0.0
C384 C 0.78485 0.95327 1.00341 0.0
C385 C 0.78012 0.94443 0.94651 0.0
H386 H 0.7467 0.97912 0.07527 0.0
C387 C 0.73027 0.95693 0.91865 0.0
H388 H 0.82263 0.94467 1.02625 0.0
C389 C 0.68659 0.97679 0.94677 0.0
C390 C 0.69094 0.98503 1.00397 0.0
H391 H 0.72461 0.95013 0.87529 0.0
H392 H 0.64899 0.9853 0.9235 0.0
C393 C 0.74113 0.97317 1.03162 0.0
C394 C 0.78435 0.15179 0.50411 0.0
C395 C 0.73691 0.11227 0.51376 0.0
H396 H 0.87017 0.16259 0.48377 0.0
C397 C 0.74035 0.05194 0.50948 0.0
H398 H 0.78262 0.19907 0.50426 0.0
C399 C 0.78995 0.03185 0.49481 0.0
C400 C 0.8372 0.07149 0.48547 0.0
H401 H 0.70419 0.02086 0.51605 0.0
H402 H 0.79164 0.98529 0.49141 0.0
C403 C 0.83416 0.13132 0.4911 0.0
C404 C 0.23761 0.6492 0.15524 0.0
C405 C 0.28663 0.64542 0.12693 0.0
H406 H 0.15063 0.64017 0.15389 0.0
C407 C 0.28502 0.63204 0.07188 0.0
H408 H 0.23816 0.66071 0.19717 0.0
C409 C 0.23464 0.62025 0.04643 0.0
C410 C 0.18532 0.62228 0.07568 0.0
H411 H 0.32275 0.62968 0.04926 0.0
H412 H 0.23434 0.60778 1.00491 0.0
C413 C 0.1876 0.63803 0.12993 0.0
C414 C 0.20562 0.38543 0.62424 0.0
C415 C 0.18037 0.40757 0.57229 0.0
H416 H 0.2778 0.38228 0.67346 0.0
C417 C 0.21281 0.44 0.52627 0.0
H418 H 0.18107 0.36375 0.6613 0.0
C419 C 0.26936 0.45202 0.53316 0.0
C420 C 0.29415 0.43209 0.58646 0.0
H421 H 0.19376 0.45931 0.48641 0.0
H422 H 0.29307 0.47834 0.4974 0.0
C423 C 0.2614 0.39743 0.63132 0.0
C424 C 0.93012 0.7693 0.88441 0.0
C425 C 0.92922 0.8151 0.91618 0.0
H426 H 0.95412 0.68046 0.88173 0.0
C427 C 0.95702 0.80697 0.9688 0.0
H428 H 0.90854 0.77355 0.84423 0.0
C429 C 0.98064 0.75295 0.99152 0.0
C430 C 0.97933 0.70584 0.96136 0.0
H431 H 0.95732 0.84135 0.99428 0.0
H432 H 0.99927 0.7477 1.03337 0.0
C433 C 0.9556 0.71563 0.90639 0.0
C434 C 0.45085 0.79773 0.2117 0.0
C435 C 0.45435 0.75657 0.17543 0.0
H436 H 0.47141 0.88813 0.22331 0.0
C437 C 0.48831 0.77266 0.12655 0.0
H438 H 0.42423 0.78664 0.24905 0.0
C439 C 0.51271 0.83108 0.1103 0.0
C440 C 0.50564 0.87375 0.14404 0.0
H441 H 0.49137 0.74161 0.09795 0.0
H442 H 0.53537 0.84359 0.0702 0.0
C443 C 0.47699 0.85588 0.19643 0.0
C444 C 0.11379 0.26201 0.61914 0.0
C445 C 0.09179 0.30532 0.57629 0.0
H446 H 0.12834 0.16897 0.64832 0.0
C447 C 0.06678 0.28701 0.52905 0.0
H448 H 0.13089 0.27456 0.65729 0.0
C449 C 0.06316 0.22632 0.52491 0.0
C450 C 0.08509 0.18277 0.56779 0.0
H451 H 0.04817 0.31952 0.49652 0.0
H452 H 0.04288 0.21346 0.48826 0.0
C453 C 0.11138 0.20146 0.61444 0.0
C454 C 0.64349 0.30823 0.50316 0.0
C455 C 0.60925 0.2595 0.53213 0.0
H456 H 0.656 0.40365 0.47567 0.0
C457 C 0.55923 0.27005 0.55494 0.0
H458 H 0.68162 0.30055 0.48399 0.0
C459 C 0.54378 0.32887 0.54921 0.0
C460 C 0.57835 0.37792 0.52064 0.0
H461 H 0.5321 0.23268 0.57659 0.0
H462 H 0.50521 0.33592 0.56792 0.0
C463 C 0.62837 0.36692 0.49769 0.0
loop_
_geom_bond_atom_site_label_1
_geom_bond_atom_site_label_2
_geom_bond_distance
_geom_bond_site_symmetry_2
_ccdc_geom_bond_type
C0 N1 1.317 . S
C0 N2 1.348 . S
C0 C3 1.485 . S
N1 C0 1.317 . S
N1 N5 1.370 . S
N2 C0 1.348 . S
N2 C4 1.346 . S
C3 C0 1.485 . S
C3 H7 0.960 . S
C3 H8 0.961 . S
C3 H9 0.960 . S
C4 N2 1.346 . S
C4 N5 1.307 . S
C4 C6 1.486 . S
N5 N1 1.370 . S
N5 C4 1.307 . S
C6 C4 1.486 . S
C6 H10 0.960 . S
C6 H11 0.960 . S
C6 H12 0.959 . S
H7 C3 0.960 . S
H8 C3 0.961 . S
H9 C3 0.960 . S
H10 C6 0.960 . S
H11 C6 0.960 . S
H12 C6 0.959 . S
C13 N14 1.317 . S
C13 N15 1.348 . S
C13 C16 1.485 . S
N14 C13 1.317 . S
N14 N18 1.370 . S
N15 C13 1.348 . S
N15 C17 1.346 . S
C16 C13 1.485 . S
C16 H20 0.960 . S
C16 H21 0.961 . S
C16 H22 0.960 . S
C17 N15 1.346 . S
C17 N18 1.307 . S
C17 C19 1.486 . S
N18 N14 1.370 . S
N18 C17 1.307 . S
C19 C17 1.486 . S
C19 H23 0.960 . S
C19 H24 0.960 . S
C19 H25 0.959 . S
H20 C16 0.960 . S
H21 C16 0.961 . S
H22 C16 0.960 . S
H23 C19 0.960 . S
H24 C19 0.960 . S
H25 C19 0.959 . S
C26 N27 1.317 . S
C26 N28 1.348 . S
C26 C29 1.485 . S
N27 C26 1.317 . S
N27 N31 1.370 . S
N28 C26 1.348 . S
N28 C30 1.346 . S
C29 C26 1.485 . S
C29 H33 0.960 . S
C29 H34 0.961 . S
C29 H35 0.960 . S
C30 N28 1.346 . S
C30 N31 1.307 . S
C30 C32 1.486 . S
N31 N27 1.370 . S
N31 C30 1.307 . S
C32 C30 1.486 . S
C32 H36 0.960 . S
C32 H37 0.960 . S
C32 H38 0.959 . S
H33 C29 0.960 . S
H34 C29 0.961 . S
H35 C29 0.960 . S
H36 C32 0.960 . S
H37 C32 0.960 . S
H38 C32 0.959 . S
C39 N40 1.317 . S
C39 N41 1.348 . S
C39 C42 1.485 . S
N40 C39 1.317 . S
N40 N44 1.370 . S
N41 C39 1.348 . S
N41 C43 1.346 . S
C42 C39 1.485 . S
C42 H46 0.960 . S
C42 H47 0.961 . S
C42 H48 0.960 . S
C43 N41 1.346 . S
C43 N44 1.307 . S
C43 C45 1.486 . S
N44 N40 1.370 . S
N44 C43 1.307 . S
C45 C43 1.486 . S
C45 H49 0.960 . S
C45 H50 0.960 . S
C45 H51 0.959 . S
H46 C42 0.960 . S
H47 C42 0.961 . S
H48 C42 0.960 . S
H49 C45 0.960 . S
H50 C45 0.960 . S
H51 C45 0.959 . S
C52 N53 1.317 . S
C52 N54 1.348 . S
C52 C55 1.485 . S
N53 C52 1.317 . S
N53 N57 1.370 . S
N54 C52 1.348 . S
N54 C56 1.346 . S
C55 C52 1.485 . S
C55 H59 0.960 . S
C55 H60 0.961 1_556 S
C55 H61 0.960 1_556 S
C56 N54 1.346 . S
C56 N57 1.307 . S
C56 C58 1.486 1_565 S
N57 N53 1.370 . S
N57 C56 1.307 . S
C58 C56 1.486 1_545 S
C58 H62 0.960 . S
C58 H63 0.960 . S
C58 H64 0.959 . S
H59 C55 0.960 . S
H60 C55 0.961 1_554 S
H61 C55 0.960 1_554 S
H62 C58 0.960 . S
H63 C58 0.960 . S
H64 C58 0.959 . S
C65 N66 1.317 . S
C65 N67 1.348 . S
C65 C68 1.485 . S
N66 C65 1.317 . S
N66 N70 1.370 . S
N67 C65 1.348 . S
N67 C69 1.346 . S
C68 C65 1.485 . S
C68 H72 0.960 . S
C68 H73 0.961 . S
C68 H74 0.960 . S
C69 N67 1.346 . S
C69 N70 1.307 . S
C69 C71 1.486 . S
N70 N66 1.370 . S
N70 C69 1.307 . S
C71 C69 1.486 . S
C71 H75 0.960 . S
C71 H76 0.960 . S
C71 H77 0.959 . S
H72 C68 0.960 . S
H73 C68 0.961 . S
H74 C68 0.960 . S
H75 C71 0.960 . S
H76 C71 0.960 . S
H77 C71 0.959 . S
C78 N79 1.317 . S
C78 N80 1.348 . S
C78 C81 1.485 . S
N79 C78 1.317 . S
N79 N83 1.370 . S
N80 C78 1.348 . S
N80 C82 1.346 . S
C81 C78 1.485 . S
C81 H85 0.960 . S
C81 H86 0.961 . S
C81 H87 0.960 . S
C82 N80 1.346 . S
C82 N83 1.307 . S
C82 C84 1.486 . S
N83 N79 1.370 . S
N83 C82 1.307 . S
C84 C82 1.486 . S
C84 H88 0.960 . S
C84 H89 0.960 . S
C84 H90 0.959 . S
H85 C81 0.960 . S
H86 C81 0.961 . S
H87 C81 0.960 . S
H88 C84 0.960 . S
H89 C84 0.960 . S
H90 C84 0.959 . S
C91 N92 1.317 . S
C91 N93 1.348 . S
C91 C94 1.485 . S
N92 C91 1.317 . S
N92 N96 1.370 . S
N93 C91 1.348 . S
N93 C95 1.346 . S
C94 C91 1.485 . S
C94 H98 0.960 1_455 S
C94 H99 0.961 . S
C94 H100 0.960 . S
C95 N93 1.346 . S
C95 N96 1.307 . S
C95 C97 1.486 . S
N96 N92 1.370 . S
N96 C95 1.307 . S
C97 C95 1.486 . S
C97 H101 0.960 . S
C97 H102 0.960 . S
C97 H103 0.959 . S
H98 C94 0.960 1_655 S
H99 C94 0.961 . S
H100 C94 0.960 . S
H101 C97 0.960 . S
H102 C97 0.960 . S
H103 C97 0.959 . S
Co104 N109 2.057 . S
Co104 O121 2.021 1_655 S
Co104 O124 2.062 1_655 S
Co104 O128 2.117 1_545 S
Co104 O129 2.020 . S
C105 O125 1.259 . S
C105 O128 1.258 1_455 S
Co106 N115 2.057 . S
Co106 O122 2.117 1_565 S
Co106 O123 2.020 1_565 S
Co106 O125 2.021 . S
Co106 O130 2.062 . S
C107 N109 1.316 . S
C107 N110 1.347 . S
C107 H112 0.931 . S
C108 N109 1.390 . S
C108 C111 1.360 . S
C108 H113 0.909 1_545 S
N109 Co104 2.057 . S
N109 C107 1.316 . S
N109 C108 1.390 . S
N110 C107 1.347 . S
N110 C111 1.373 . S
C111 C108 1.360 . S
C111 N110 1.373 . S
C111 H132 0.931 . S
H112 C107 0.931 . S
H113 C108 0.909 1_565 S
C114 O121 1.259 . S
C114 O122 1.258 . S
N115 Co106 2.057 . S
N115 C116 1.316 . S
N115 C117 1.375 1_565 S
C116 N115 1.316 . S
C116 N118 1.347 . S
C116 H127 0.931 . S
C117 N115 1.375 1_545 S
C117 C119 1.350 . S
C117 H126 0.930 . S
N118 C116 1.347 . S
N118 C119 1.373 1_565 S
C119 C117 1.350 . S
C119 N118 1.373 1_545 S
C119 H133 0.931 . S
C120 O123 1.256 . S
C120 O124 1.255 . S
O121 Co104 2.021 1_455 S
O121 C114 1.259 . S
O122 Co106 2.117 1_545 S
O122 C114 1.258 . S
O123 Co106 2.020 1_545 S
O123 C120 1.256 . S
O124 Co104 2.062 1_455 S
O124 C120 1.255 . S
O125 C105 1.259 . S
O125 Co106 2.021 . S
H126 C117 0.930 . S
H127 C116 0.931 . S
O128 Co104 2.117 1_565 S
O128 C105 1.258 1_655 S
O129 Co104 2.020 . S
O129 C131 1.256 1_645 S
O130 Co106 2.062 . S
O130 C131 1.255 . S
C131 O129 1.256 1_465 S
C131 O130 1.255 . S
H132 C111 0.931 . S
H133 C119 0.931 . S
Co134 N139 2.057 1_545 S
Co134 O151 2.021 . S
Co134 O154 2.062 1_545 S
Co134 O158 2.117 1_546 S
Co134 O159 2.020 1_556 S
C135 O155 1.259 . S
C135 O158 1.258 . S
Co136 N145 2.057 . S
Co136 O152 2.117 . S
Co136 O153 2.020 . S
Co136 O155 2.021 1_545 S
Co136 O160 2.062 . S
C137 N139 1.316 . S
C137 N140 1.347 . S
C137 H142 0.931 1_565 S
C138 N139 1.375 . S
C138 C141 1.350 . S
C138 H143 0.930 . S
N139 Co134 2.057 1_565 S
N139 C137 1.316 . S
N139 C138 1.375 . S
N140 C137 1.347 . S
N140 C141 1.373 . S
C141 C138 1.350 . S
C141 N140 1.373 . S
C141 H162 0.931 . S
H142 C137 0.931 1_545 S
H143 C138 0.930 . S
C144 O151 1.259 . S
C144 O152 1.258 1_556 S
N145 Co136 2.057 . S
N145 C146 1.316 . S
N145 C147 1.375 . S
C146 N145 1.316 . S
C146 N148 1.347 . S
C146 H157 0.931 . S
C147 N145 1.375 . S
C147 C149 1.350 . S
C147 H156 0.930 . S
N148 C146 1.347 . S
N148 C149 1.373 . S
C149 C147 1.350 . S
C149 N148 1.373 . S
C149 H163 0.931 . S
C150 O153 1.256 1_565 S
C150 O154 1.255 1_554 S
O151 Co134 2.021 . S
O151 C144 1.259 . S
O152 Co136 2.117 . S
O152 C144 1.258 1_554 S
O153 Co136 2.020 . S
O153 C150 1.256 1_545 S
O154 Co134 2.062 1_565 S
O154 C150 1.255 1_556 S
O155 C135 1.259 . S
O155 Co136 2.021 1_565 S
H156 C147 0.930 . S
H157 C146 0.931 . S
O158 Co134 2.117 1_564 S
O158 C135 1.258 . S
O159 Co134 2.020 1_554 S
O159 C161 1.256 . S
O160 Co136 2.062 . S
O160 C161 1.255 . S
C161 O159 1.256 . S
C161 O160 1.255 . S
H162 C141 0.931 . S
H163 C149 0.931 . S
Co164 N169 2.057 . S
Co164 O181 2.021 . S
Co164 O184 2.062 . S
Co164 O188 2.117 . S
Co164 O189 2.020 . S
C165 O185 1.259 . S
C165 O188 1.258 . S
Co166 N175 2.057 . S
Co166 O182 2.117 . S
Co166 O183 2.020 . S
Co166 O185 2.021 . S
Co166 O190 2.062 . S
C167 N169 1.316 . S
C167 N170 1.347 . S
C167 H172 0.931 . S
C168 N169 1.375 . S
C168 C171 1.350 . S
C168 H173 0.930 . S
N169 Co164 2.057 . S
N169 C167 1.316 . S
N169 C168 1.375 . S
N170 C167 1.347 . S
N170 C171 1.373 . S
C171 C168 1.350 . S
C171 N170 1.373 . S
C171 H192 0.931 . S
H172 C167 0.931 . S
H173 C168 0.930 . S
C174 O181 1.259 . S
C174 O182 1.258 . S
N175 Co166 2.057 . S
N175 C176 1.316 . S
N175 C177 1.375 . S
C176 N175 1.316 . S
C176 N178 1.347 . S
C176 H187 0.931 . S
C177 N175 1.375 . S
C177 C179 1.350 . S
C177 H186 0.930 . S
N178 C176 1.347 . S
N178 C179 1.373 . S
C179 C177 1.350 . S
C179 N178 1.373 . S
C179 H193 0.931 . S
C180 O183 1.256 . S
C180 O184 1.255 . S
O181 Co164 2.021 . S
O181 C174 1.259 . S
O182 Co166 2.117 . S
O182 C174 1.258 . S
O183 Co166 2.020 . S
O183 C180 1.256 . S
O184 Co164 2.062 . S
O184 C180 1.255 . S
O185 C165 1.259 . S
O185 Co166 2.021 . S
H186 C177 0.930 . S
H187 C176 0.931 . S
O188 Co164 2.117 . S
O188 C165 1.258 . S
O189 Co164 2.020 . S
O189 C191 1.256 . S
O190 Co166 2.062 . S
O190 C191 1.255 . S
C191 O189 1.256 . S
C191 O190 1.255 . S
H192 C171 0.931 . S
H193 C179 0.931 . S
Co194 N199 2.057 . S
Co194 O211 2.021 . S
Co194 O214 2.062 . S
Co194 O218 2.117 1_455 S
Co194 O219 2.020 . S
C195 O215 1.259 1_556 S
C195 O218 1.258 . S
Co196 N205 2.057 . S
Co196 O212 2.117 1_655 S
Co196 O213 2.020 1_655 S
Co196 O215 2.021 . S
Co196 O220 2.062 . S
C197 N199 1.316 . S
C197 N200 1.347 . S
C197 H202 0.931 . S
C198 N199 1.375 1_655 S
C198 C201 1.350 1_655 S
C198 H203 0.930 . S
N199 Co194 2.057 . S
N199 C197 1.316 . S
N199 C198 1.375 1_455 S
N200 C197 1.347 . S
N200 C201 1.373 . S
C201 C198 1.350 1_455 S
C201 N200 1.373 . S
C201 H222 0.931 1_455 S
H202 C197 0.931 . S
H203 C198 0.930 . S
C204 O211 1.259 1_554 S
C204 O212 1.258 . S
N205 Co196 2.057 . S
N205 C206 1.316 . S
N205 C207 1.375 1_655 S
C206 N205 1.316 . S
C206 N208 1.347 . S
C206 H217 0.931 . S
C207 N205 1.375 1_455 S
C207 C209 1.350 . S
C207 H216 0.930 . S
N208 C206 1.347 . S
N208 C209 1.373 1_655 S
C209 C207 1.350 . S
C209 N208 1.373 1_455 S
C209 H223 0.931 . S
C210 O213 1.256 . S
C210 O214 1.255 1_554 S
O211 Co194 2.021 . S
O211 C204 1.259 1_556 S
O212 Co196 2.117 1_455 S
O212 C204 1.258 . S
O213 Co196 2.020 1_455 S
O213 C210 1.256 . S
O214 Co194 2.062 . S
O214 C210 1.255 1_556 S
O215 C195 1.259 1_554 S
O215 Co196 2.021 . S
H216 C207 0.930 . S
H217 C206 0.931 . S
O218 Co194 2.117 1_655 S
O218 C195 1.258 . S
O219 Co194 2.020 . S
O219 C221 1.256 1_455 S
O220 Co196 2.062 . S
O220 C221 1.255 1_554 S
C221 O219 1.256 1_655 S
C221 O220 1.255 1_556 S
H222 C201 0.931 1_655 S
H223 C209 0.931 . S
C224 C225 1.387 . S
C224 H228 0.950 . S
C224 C233 1.390 . S
C225 C224 1.387 . S
C225 C227 1.387 . S
H226 C233 0.950 . S
C227 C225 1.387 . S
C227 C229 1.390 . S
C227 H231 0.950 . S
H228 C224 0.950 . S
C229 C227 1.390 . S
C229 C230 1.387 . S
C229 H232 0.950 1_545 S
C230 C229 1.387 . S
C230 C233 1.387 . S
H231 C227 0.950 . S
H232 C229 0.950 1_565 S
C233 C224 1.390 . S
C233 H226 0.950 . S
C233 C230 1.387 . S
C234 C235 1.387 . S
C234 H238 0.950 . S
C234 C243 1.390 . S
C235 C234 1.387 . S
C235 C237 1.387 . S
H236 C243 0.950 . S
C237 C235 1.387 . S
C237 C239 1.390 . S
C237 H241 0.950 . S
H238 C234 0.950 . S
C239 C237 1.390 . S
C239 C240 1.387 . S
C239 H242 0.950 . S
C240 C239 1.387 . S
C240 C243 1.387 . S
H241 C237 0.950 . S
H242 C239 0.950 . S
C243 C234 1.390 . S
C243 H236 0.950 . S
C243 C240 1.387 . S
C244 C245 1.387 . S
C244 H248 0.950 . S
C244 C253 1.390 . S
C245 C244 1.387 . S
C245 C247 1.387 . S
H246 C253 0.950 . S
C247 C245 1.387 . S
C247 C249 1.390 . S
C247 H251 0.950 . S
H248 C244 0.950 . S
C249 C247 1.390 . S
C249 C250 1.387 . S
C249 H252 0.950 . S
C250 C249 1.387 . S
C250 C253 1.387 . S
H251 C247 0.950 . S
H252 C249 0.950 . S
C253 C244 1.390 . S
C253 H246 0.950 . S
C253 C250 1.387 . S
C254 C255 1.387 . S
C254 H258 0.950 . S
C254 C263 1.390 . S
C255 C254 1.387 . S
C255 C257 1.387 . S
H256 C263 0.950 . S
C257 C255 1.387 . S
C257 C259 1.390 . S
C257 H261 0.950 . S
H258 C254 0.950 . S
C259 C257 1.390 . S
C259 C260 1.387 . S
C259 H262 0.950 . S
C260 C259 1.387 . S
C260 C263 1.387 . S
H261 C257 0.950 . S
H262 C259 0.950 . S
C263 C254 1.390 . S
C263 H256 0.950 . S
C263 C260 1.387 . S
C264 C265 1.387 . S
C264 H268 0.950 . S
C264 C273 1.390 . S
C265 C264 1.387 . S
C265 C267 1.387 . S
H266 C273 0.950 . S
C267 C265 1.387 . S
C267 C269 1.390 . S
C267 H271 0.950 . S
H268 C264 0.950 . S
C269 C267 1.390 . S
C269 C270 1.387 . S
C269 H272 0.950 . S
C270 C269 1.387 . S
C270 C273 1.387 . S
H271 C267 0.950 . S
H272 C269 0.950 . S
C273 C264 1.390 . S
C273 H266 0.950 . S
C273 C270 1.387 . S
C274 C275 1.387 . S
C274 H278 0.950 . S
C274 C283 1.390 . S
C275 C274 1.387 . S
C275 C277 1.387 . S
H276 C283 0.950 . S
C277 C275 1.387 . S
C277 C279 1.390 . S
C277 H281 0.950 . S
H278 C274 0.950 . S
C279 C277 1.390 . S
C279 C280 1.387 . S
C279 H282 0.950 . S
C280 C279 1.387 . S
C280 C283 1.387 . S
H281 C277 0.950 . S
H282 C279 0.950 . S
C283 C274 1.390 . S
C283 H276 0.950 . S
C283 C280 1.387 . S
C284 C285 1.387 . S
C284 H288 0.950 . S
C284 C293 1.390 . S
C285 C284 1.387 . S
C285 C287 1.387 . S
H286 C293 0.950 . S
C287 C285 1.387 . S
C287 C289 1.390 . S
C287 H291 0.950 . S
H288 C284 0.950 . S
C289 C287 1.390 . S
C289 C290 1.387 . S
C289 H292 0.950 1_556 S
C290 C289 1.387 . S
C290 C293 1.387 . S
H291 C287 0.950 . S
H292 C289 0.950 1_554 S
C293 C284 1.390 . S
C293 H286 0.950 . S
C293 C290 1.387 . S
C294 C295 1.387 . S
C294 H298 0.950 . S
C294 C303 1.390 . S
C295 C294 1.387 . S
C295 C297 1.387 . S
H296 C303 0.950 . S
C297 C295 1.387 . S
C297 C299 1.390 . S
C297 H301 0.950 . S
H298 C294 0.950 . S
C299 C297 1.390 . S
C299 C300 1.387 . S
C299 H302 0.950 . S
C300 C299 1.387 . S
C300 C303 1.387 . S
H301 C297 0.950 . S
H302 C299 0.950 . S
C303 C294 1.390 . S
C303 H296 0.950 . S
C303 C300 1.387 . S
C304 C305 1.387 . S
C304 H308 0.950 1_554 S
C304 C313 1.390 . S
C305 C304 1.387 . S
C305 C307 1.387 . S
H306 C313 0.950 1_556 S
C307 C305 1.387 . S
C307 C309 1.390 . S
C307 H311 0.950 . S
H308 C304 0.950 1_556 S
C309 C307 1.390 . S
C309 C310 1.387 . S
C309 H312 0.950 . S
C310 C309 1.387 . S
C310 C313 1.387 . S
H311 C307 0.950 . S
H312 C309 0.950 . S
C313 C304 1.390 . S
C313 H306 0.950 1_554 S
C313 C310 1.387 . S
C314 C315 1.387 . S
C314 H318 0.950 . S
C314 C323 1.390 . S
C315 C314 1.387 . S
C315 C317 1.387 . S
H316 C323 0.950 . S
C317 C315 1.387 . S
C317 C319 1.390 1_556 S
C317 H321 0.950 1_556 S
H318 C314 0.950 . S
C319 C317 1.390 1_554 S
C319 C320 1.387 1_554 S
C319 H322 0.950 . S
C320 C319 1.387 1_556 S
C320 C323 1.387 . S
H321 C317 0.950 1_554 S
H322 C319 0.950 . S
C323 C314 1.390 . S
C323 H316 0.950 . S
C323 C320 1.387 . S
C324 C325 1.387 1_455 S
C324 H328 0.950 . S
C324 C333 1.390 . S
C325 C324 1.387 1_655 S
C325 C327 1.387 . S
H326 C333 0.950 . S
C327 C325 1.387 . S
C327 C329 1.390 . S
C327 H331 0.950 . S
H328 C324 0.950 . S
C329 C327 1.390 . S
C329 C330 1.387 1_655 S
C329 H332 0.950 . S
C330 C329 1.387 1_455 S
C330 C333 1.387 . S
H331 C327 0.950 . S
H332 C329 0.950 . S
C333 C324 1.390 . S
C333 H326 0.950 . S
C333 C330 1.387 . S
C334 C335 1.387 . S
C334 H338 0.950 . S
C334 C343 1.390 . S
C335 C334 1.387 . S
C335 C337 1.387 . S
H336 C343 0.950 . S
C337 C335 1.387 . S
C337 C339 1.390 . S
C337 H341 0.950 . S
H338 C334 0.950 . S
C339 C337 1.390 . S
C339 C340 1.387 . S
C339 H342 0.950 . S
C340 C339 1.387 . S
C340 C343 1.387 . S
H341 C337 0.950 . S
H342 C339 0.950 . S
C343 C334 1.390 . S
C343 H336 0.950 . S
C343 C340 1.387 . S
C344 C345 1.387 . S
C344 H348 0.950 1_565 S
C344 C353 1.390 1_665 S
C345 C344 1.387 . S
C345 C347 1.387 . S
H346 C353 0.961 . S
C347 C345 1.387 . S
C347 C349 1.390 . S
C347 H351 0.950 . S
H348 C344 0.950 1_545 S
C349 C347 1.390 . S
C349 C350 1.387 . S
C349 H352 0.950 . S
C350 C349 1.387 . S
C350 C353 1.376 1_665 S
H351 C347 0.950 . S
H352 C349 0.950 . S
C353 C344 1.390 1_445 S
C353 H346 0.961 . S
C353 C350 1.376 1_445 S
C354 C355 1.387 . S
C354 H358 0.950 . S
C354 C363 1.390 . S
C355 C354 1.387 . S
C355 C357 1.387 . S
H356 C363 0.950 . S
C357 C355 1.387 . S
C357 C359 1.390 . S
C357 H361 0.950 . S
H358 C354 0.950 . S
C359 C357 1.390 . S
C359 C360 1.387 . S
C359 H362 0.950 . S
C360 C359 1.387 . S
C360 C363 1.387 . S
H361 C357 0.950 . S
H362 C359 0.950 . S
C363 C354 1.390 . S
C363 H356 0.950 . S
C363 C360 1.387 . S
C364 C365 1.387 . S
C364 H368 0.950 . S
C364 C373 1.390 . S
C365 C364 1.387 . S
C365 C367 1.387 . S
H366 C373 0.950 . S
C367 C365 1.387 . S
C367 C369 1.390 . S
C367 H371 0.950 . S
H368 C364 0.950 . S
C369 C367 1.390 . S
C369 C370 1.387 . S
C369 H372 0.950 . S
C370 C369 1.387 . S
C370 C373 1.387 . S
H371 C367 0.950 . S
H372 C369 0.950 . S
C373 C364 1.390 . S
C373 H366 0.950 . S
C373 C370 1.387 . S
C374 C375 1.387 . S
C374 H378 0.950 . S
C374 C383 1.390 . S
C375 C374 1.387 . S
C375 C377 1.387 . S
H376 C383 0.950 . S
C377 C375 1.387 . S
C377 C379 1.390 . S
C377 H381 0.950 1_455 S
H378 C374 0.950 . S
C379 C377 1.390 . S
C379 C380 1.387 . S
C379 H382 0.950 . S
C380 C379 1.387 . S
C380 C383 1.387 . S
H381 C377 0.950 1_655 S
H382 C379 0.950 . S
C383 C374 1.390 . S
C383 H376 0.950 . S
C383 C380 1.387 . S
C384 C385 1.387 1_545 S
C384 H388 0.950 . S
C384 C393 1.390 . S
C385 C384 1.387 1_565 S
C385 C387 1.387 . S
H386 C393 0.950 . S
C387 C385 1.387 . S
C387 C389 1.390 . S
C387 H391 0.950 . S
H388 C384 0.950 . S
C389 C387 1.390 . S
C389 C390 1.387 . S
C389 H392 0.950 1_556 S
C390 C389 1.387 . S
C390 C393 1.387 1_565 S
H391 C387 0.950 . S
H392 C389 0.950 1_554 S
C393 C384 1.390 . S
C393 H386 0.950 . S
C393 C390 1.387 1_545 S
C394 C395 1.387 . S
C394 H398 0.950 . S
C394 C403 1.390 . S
C395 C394 1.387 . S
C395 C397 1.387 . S
H396 C403 0.950 . S
C397 C395 1.387 . S
C397 C399 1.390 . S
C397 H401 0.950 . S
H398 C394 0.950 . S
C399 C397 1.390 . S
C399 C400 1.387 . S
C399 H402 0.950 . S
C400 C399 1.387 . S
C400 C403 1.387 . S
H401 C397 0.950 . S
H402 C399 0.950 . S
C403 C394 1.390 . S
C403 H396 0.950 . S
C403 C400 1.387 . S
C404 C405 1.387 . S
C404 H408 0.950 . S
C404 C413 1.390 . S
C405 C404 1.387 . S
C405 C407 1.387 . S
H406 C413 0.950 . S
C407 C405 1.387 . S
C407 C409 1.390 . S
C407 H411 0.950 . S
H408 C404 0.950 . S
C409 C407 1.390 . S
C409 C410 1.387 . S
C409 H412 0.950 1_554 S
C410 C409 1.387 . S
C410 C413 1.387 . S
H411 C407 0.950 . S
H412 C409 0.950 1_556 S
C413 C404 1.390 . S
C413 H406 0.950 . S
C413 C410 1.387 . S
C414 C415 1.387 . S
C414 H418 0.950 . S
C414 C423 1.390 . S
C415 C414 1.387 . S
C415 C417 1.387 . S
H416 C423 0.950 . S
C417 C415 1.387 . S
C417 C419 1.390 . S
C417 H421 0.950 . S
H418 C414 0.950 . S
C419 C417 1.390 . S
C419 C420 1.387 . S
C419 H422 0.950 . S
C420 C419 1.387 . S
C420 C423 1.387 . S
H421 C417 0.950 . S
H422 C419 0.950 . S
C423 C414 1.390 . S
C423 H416 0.950 . S
C423 C420 1.387 . S
C424 C425 1.387 . S
C424 H428 0.950 . S
C424 C433 1.390 . S
C425 C424 1.387 . S
C425 C427 1.387 . S
H426 C433 0.950 . S
C427 C425 1.387 . S
C427 C429 1.390 . S
C427 H431 0.950 1_556 S
H428 C424 0.950 . S
C429 C427 1.390 . S
C429 C430 1.387 . S
C429 H432 0.950 1_556 S
C430 C429 1.387 . S
C430 C433 1.387 . S
H431 C427 0.950 1_554 S
H432 C429 0.950 1_554 S
C433 C424 1.390 . S
C433 H426 0.950 . S
C433 C430 1.387 . S
C434 C435 1.387 . S
C434 H438 0.950 . S
C434 C443 1.390 . S
C435 C434 1.387 . S
C435 C437 1.387 . S
H436 C443 0.950 . S
C437 C435 1.387 . S
C437 C439 1.390 . S
C437 H441 0.950 . S
H438 C434 0.950 . S
C439 C437 1.390 . S
C439 C440 1.387 . S
C439 H442 0.950 . S
C440 C439 1.387 . S
C440 C443 1.387 . S
H441 C437 0.950 . S
H442 C439 0.950 . S
C443 C434 1.390 . S
C443 H436 0.950 . S
C443 C440 1.387 . S
C444 C445 1.387 . S
C444 H448 0.950 . S
C444 C453 1.390 . S
C445 C444 1.387 . S
C445 C447 1.387 . S
H446 C453 0.950 . S
C447 C445 1.387 . S
C447 C449 1.390 . S
C447 H451 0.950 . S
H448 C444 0.950 . S
C449 C447 1.390 . S
C449 C450 1.387 . S
C449 H452 0.950 . S
C450 C449 1.387 . S
C450 C453 1.387 . S
H451 C447 0.950 . S
H452 C449 0.950 . S
C453 C444 1.390 . S
C453 H446 0.950 . S
C453 C450 1.387 . S
C454 C455 1.387 . S
C454 H458 0.950 . S
C454 C463 1.390 . S
C455 C454 1.387 . S
C455 C457 1.387 . S
H456 C463 0.950 . S
C457 C455 1.387 . S
C457 C459 1.390 . S
C457 H461 0.950 . S
H458 C454 0.950 . S
C459 C457 1.390 . S
C459 C460 1.387 . S
C459 H462 0.950 . S
C460 C459 1.387 . S
C460 C463 1.387 . S
H461 C457 0.950 . S
H462 C459 0.950 . S
C463 C454 1.390 . S
C463 H456 0.950 . S
C463 C460 1.387 . S
C225 N1 2.020 . S
C230 C120 2.115 . S
C235 N18 1.357 . S
C240 N140 1.322 . S
C250 C174 1.630 . S
C245 N28 1.631 . S
C255 N40 1.353 . S
C260 N208 1.336 . S
C270 C161 2.513 . S
C265 N5 2.463 . S
C280 N118 1.151 . S
C275 N14 1.188 . S
C290 C195 1.999 . S
C285 N31 1.959 . S
C300 N170 0.860 . S
C295 N41 0.851 . S
C305 N2 1.707 . S
C310 C210 1.730 . S
C320 C144 1.756 . S
C315 N27 1.699 . S
C325 N44 1.455 . S
C330 C105 1.517 . S
C335 N15 1.233 . S
C340 C191 1.245 . S
C350 C131 2.341 1_655 S
C345 N57 2.337 . S
C355 N70 1.059 . S
C360 N148 1.033 . S
C365 N79 1.820 . S
C370 C165 1.880 . S
C375 N93 1.185 . S
C380 N200 1.136 . S
C385 N54 2.207 . S
C390 C150 2.209 1_556 S
C400 N110 1.436 . S
C395 N66 1.491 . S
C410 C204 1.613 . S
C405 N80 1.600 . S
C420 N178 1.039 . S
C415 N96 1.017 . S
C425 N53 1.738 . S
C430 C221 1.769 . S
C440 C135 1.674 . S
C435 N83 1.637 . S
C450 C114 1.516 . S
C445 N92 1.493 . S
C455 N67 1.223 . S
C460 C180 1.242 . S
