# Generated by pormake.
# Topology zzz, (3,6)-cn, num edge types: 1
# Building blocks:
#     Node 0, Type 0, BuildingBlock: BETDAH_clean_linker_0, # of connection points: 3
#     Node 1, Type 0, BuildingBlock: BETDAH_clean_linker_0, # of connection points: 3
#     Node 2, Type 0, BuildingBlock: BETDAH_clean_linker_0, # of connection points: 3
#     Node 3, Type 0, BuildingBlock: BETDAH_clean_linker_0, # of connection points: 3
#     Node 4, Type 0, BuildingBlock: BETDAH_clean_linker_0, # of connection points: 3
#     Node 5, Type 0, BuildingBlock: BETDAH_clean_linker_0, # of connection points: 3
#     Node 6, Type 0, BuildingBlock: BETDAH_clean_linker_0, # of connection points: 3
#     Node 7, Type 0, BuildingBlock: BETDAH_clean_linker_0, # of connection points: 3
#     Node 8, Type 1, BuildingBlock: LEVNOQ01_clean_sbu_1, # of connection points: 6
#     Node 9, Type 1, BuildingBlock: LEVNOQ01_clean_sbu_1, # of connection points: 6
#     Node 10, Type 1, BuildingBlock: LEVNOQ01_clean_sbu_1, # of connection points: 6
#     Node 11, Type 1, BuildingBlock: LEVNOQ01_clean_sbu_1, # of connection points: 6
#     Edge 12, Type (0, 1), BuildingBlock: AJUNOK_clean_linker_0, # of connection points: 2
#     Edge 13, Type (0, 1), BuildingBlock: AJUNOK_clean_linker_0, # of connection points: 2
#     Edge 14, Type (0, 1), BuildingBlock: AJUNOK_clean_linker_0, # of connection points: 2
#     Edge 15, Type (0, 1), BuildingBlock: AJUNOK_clean_linker_0, # of connection points: 2
#     Edge 16, Type (0, 1), BuildingBlock: AJUNOK_clean_linker_0, # of connection points: 2
#     Edge 17, Type (0, 1), BuildingBlock: AJUNOK_clean_linker_0, # of connection points: 2
#     Edge 18, Type (0, 1), BuildingBlock: AJUNOK_clean_linker_0, # of connection points: 2
#     Edge 19, Type (0, 1), BuildingBlock: AJUNOK_clean_linker_0, # of connection points: 2
#     Edge 20, Type (0, 1), BuildingBlock: AJUNOK_clean_linker_0, # of connection points: 2
#     Edge 21, Type (0, 1), BuildingBlock: AJUNOK_clean_linker_0, # of connection points: 2
#     Edge 22, Type (0, 1), BuildingBlock: AJUNOK_clean_linker_0, # of connection points: 2
#     Edge 23, Type (0, 1), BuildingBlock: AJUNOK_clean_linker_0, # of connection points: 2
#     Edge 24, Type (0, 1), BuildingBlock: AJUNOK_clean_linker_0, # of connection points: 2
#     Edge 25, Type (0, 1), BuildingBlock: AJUNOK_clean_linker_0, # of connection points: 2
#     Edge 26, Type (0, 1), BuildingBlock: AJUNOK_clean_linker_0, # of connection points: 2
#     Edge 27, Type (0, 1), BuildingBlock: AJUNOK_clean_linker_0, # of connection points: 2
#     Edge 28, Type (0, 1), BuildingBlock: AJUNOK_clean_linker_0, # of connection points: 2
#     Edge 29, Type (0, 1), BuildingBlock: AJUNOK_clean_linker_0, # of connection points: 2
#     Edge 30, Type (0, 1), BuildingBlock: AJUNOK_clean_linker_0, # of connection points: 2
#     Edge 31, Type (0, 1), BuildingBlock: AJUNOK_clean_linker_0, # of connection points: 2
#     Edge 32, Type (0, 1), BuildingBlock: AJUNOK_clean_linker_0, # of connection points: 2
#     Edge 33, Type (0, 1), BuildingBlock: AJUNOK_clean_linker_0, # of connection points: 2
#     Edge 34, Type (0, 1), BuildingBlock: AJUNOK_clean_linker_0, # of connection points: 2
#     Edge 35, Type (0, 1), BuildingBlock: AJUNOK_clean_linker_0, # of connection points: 2
# Relax obj value: 0.130
# Max RMSD: 0.177
# Mean RMSD: 0.107
data_MOF--net-zzz--node1-LEVNOQ01_clean_sbu_1--node2-BETDAH_clean_linker_0--edge1-AJUNOK_clean_linker_0
_symmetry_space_group_name_H-M    P1
_symmetry_Int_Tables_number       1
_symmetry_cell_setting            triclinic
loop_
_symmetry_equiv_pos_as_xyz
'x, y, z'
_cell_length_a     35.862995
_cell_length_b     36.029502
_cell_length_c     12.499998
_cell_angle_alpha  90.052669
_cell_angle_beta   89.9413
_cell_angle_gamma 90.00708
loop_
_atom_site_label
_atom_site_type_symbol
_atom_site_fract_x
_atom_site_fract_y
_atom_site_fract_z
_atom_type_partial_charge
H0 H 0.87948 0.53766 0.27923 0.0
H1 H 0.79985 0.54856 0.02538 0.0
H2 H 0.77801 0.5972 0.33617 0.0
C3 C 0.85298 0.54819 0.24997 0.0
C4 C 0.83097 0.56958 0.31756 0.0
C5 C 0.84338 0.54248 0.14363 0.0
C6 C 0.8078 0.55347 0.10774 0.0
C7 C 0.78341 0.57247 0.1785 0.0
C8 C 0.79577 0.5814 0.28277 0.0
N9 N 0.74721 0.58448 0.14694 0.0
C10 C 0.72727 0.57115 0.05915 0.0
H11 H 0.92334 0.89123 0.10291 0.0
H12 H 0.96447 0.7913 -0.03794 0.0
H13 H 0.95352 0.79822 0.30104 0.0
C14 C 0.93162 0.86246 0.11242 0.0
C15 C 0.94046 0.84915 0.21447 0.0
C16 C 0.94617 0.844 0.02373 0.0
C17 C 0.95413 0.80604 0.03157 0.0
C18 C 0.95188 0.78842 0.13188 0.0
C19 C 0.94793 0.8107 0.22418 0.0
N20 N 0.95758 0.74954 0.14361 0.0
C21 C 0.96685 0.72562 0.0599 0.0
H22 H 0.66333 0.97759 0.1733 0.0
H23 H 0.76159 0.99001 -0.01631 0.0
H24 H 0.76999 0.95142 0.31031 0.0
C25 C 0.69322 0.97351 0.16501 0.0
C26 C 0.71415 0.96258 0.25318 0.0
C27 C 0.71015 0.98411 0.06997 0.0
C28 C 0.74887 0.98136 0.05806 0.0
C29 C 0.77076 0.96812 0.14382 0.0
C30 C 0.75319 0.95936 0.24208 0.0
N31 N 0.81029 0.96482 0.13555 0.0
C32 C 0.8315 0.97728 0.04888 0.0
H33 H 0.57616 0.65889 0.18289 0.0
H34 H 0.56613 0.75441 -0.01606 0.0
H35 H 0.60849 0.76558 0.30585 0.0
C36 C 0.58117 0.68836 0.1711 0.0
C37 C 0.59446 0.70985 0.25542 0.0
C38 C 0.57 0.70438 0.07554 0.0
C39 C 0.57469 0.74255 0.05896 0.0
C40 C 0.58969 0.76496 0.14113 0.0
C41 C 0.59899 0.74838 0.24018 0.0
N42 N 0.59451 0.80406 0.12877 0.0
C43 C 0.58149 0.82525 0.04283 0.0
H44 H 0.16176 0.48351 0.1954 0.0
H45 H 0.26217 0.48132 0.38012 0.0
H46 H 0.25859 0.4286 0.06889 0.0
C47 C 0.1907 0.47507 0.20347 0.0
C48 C 0.20741 0.45419 0.12267 0.0
C49 C 0.21005 0.48477 0.29549 0.0
C50 C 0.24751 0.47433 0.30711 0.0
C51 C 0.26551 0.45427 0.22464 0.0
C52 C 0.24511 0.44404 0.13248 0.0
N53 N 0.30362 0.44355 0.23279 0.0
C54 C 0.32896 0.45964 0.30365 0.0
H55 H 0.0809 0.16914 0.13912 0.0
H56 H 0.06863 0.26932 0.31753 0.0
H57 H 0.09913 0.27388 -0.01663 0.0
C58 C 0.08446 0.19907 0.1431 0.0
C59 C 0.09228 0.21889 0.05015 0.0
C60 C 0.07456 0.21713 0.23706 0.0
C61 C 0.07645 0.25585 0.24361 0.0
C62 C 0.08714 0.27672 0.15309 0.0
C63 C 0.09407 0.258 0.0555 0.0
N64 N 0.08888 0.31629 0.1559 0.0
C65 C 0.07738 0.33796 0.24267 0.0
H66 H 0.37947 0.04764 0.12754 0.0
H67 H 0.28296 0.05124 0.3285 0.0
H68 H 0.27929 0.0984 0.01003 0.0
C69 C 0.35065 0.056 0.13955 0.0
C70 C 0.33201 0.07471 0.0584 0.0
C71 C 0.33327 0.04726 0.23554 0.0
C72 C 0.29603 0.05766 0.2528 0.0
C73 C 0.27614 0.07635 0.17128 0.0
C74 C 0.29438 0.0846 0.07361 0.0
N75 N 0.23818 0.0873 0.18457 0.0
C76 C 0.21524 0.07697 0.26997 0.0
H77 H 0.49443 0.38186 0.09302 0.0
H78 H 0.48618 0.29397 0.32202 0.0
H79 H 0.45377 0.27566 -0.00765 0.0
C80 C 0.48606 0.35366 0.11264 0.0
C81 C 0.47179 0.33107 0.03255 0.0
C82 C 0.49069 0.34103 0.2166 0.0
C83 C 0.4827 0.30375 0.24095 0.0
C84 C 0.46924 0.27975 0.15968 0.0
C85 C 0.46369 0.2938 0.05537 0.0
N86 N 0.4607 0.24174 0.1794 0.0
C87 C 0.47314 0.22123 0.26698 0.0
O88 O 0.06424 0.95902 0.82033 0.0
Mg89 Mg 0.07419 0.96808 0.65655 0.0
O90 O 1.01239 0.9863 0.77368 0.0
Mg91 Mg 0.01765 0.03225 0.64766 0.0
O92 O 0.07969 0.02121 0.59857 0.0
O93 O 0.12672 0.98048 0.60166 0.0
O94 O 0.02178 0.07745 0.51967 0.0
O95 O 0.03871 0.07914 0.76325 0.0
Mg96 Mg 0.95781 0.0942 0.63393 0.0
O97 O 0.95599 0.04265 0.69996 0.0
O98 O 0.9675 0.09852 0.46833 0.0
O99 O 0.99826 0.12406 0.72352 0.0
O100 O 0.90648 0.08005 0.69645 0.0
C101 C 1.00609 0.95321 0.5151 0.0
C102 C 0.02936 0.96261 0.83078 0.0
C103 C 0.11405 1.01268 0.5749 0.0
C104 C 1.00263 0.09814 0.45869 0.0
C105 C 0.02821 0.11322 0.76834 0.0
C106 C 0.92161 0.0494 0.72739 0.0
O107 O 0.0349 0.93949 0.55902 0.0
O108 O 0.99675 0.98724 0.52794 0.0
O109 O 0.43306 1.0004 0.72026 0.0
Mg110 Mg 0.47181 0.96451 0.64577 0.0
O111 O 0.47456 0.04285 0.76603 0.0
Mg112 Mg 0.52353 0.0225 0.65567 0.0
O113 O 0.52197 0.96007 0.72257 0.0
O114 O 0.47902 0.91458 0.71476 0.0
O115 O 0.57271 1.0021 0.54464 0.0
O116 O 0.56719 0.0241 0.79151 0.0
Mg117 Mg 0.57405 0.07759 0.67252 0.0
O118 O 0.52537 0.08573 0.58948 0.0
O119 O 0.61401 0.04338 0.59806 0.0
O120 O 0.58066 0.08058 0.83916 0.0
O121 O 0.57115 0.12802 0.60659 0.0
C122 C 0.4612 0.99633 0.46344 0.0
C123 C 0.44088 0.03097 0.76518 0.0
C124 C 0.51126 0.92629 0.74587 0.0
C125 C 0.60646 0.01376 0.54818 0.0
C126 C 0.58457 0.04614 0.85316 0.0
C127 C 0.53875 0.11894 0.57036 0.0
O128 O 0.46624 0.96212 0.47913 0.0
O129 O 0.47873 0.01945 0.52158 0.0
O130 O 0.55658 0.42821 0.70963 0.0
Mg131 Mg 0.59382 0.46574 0.63587 0.0
O132 O 0.51333 0.46976 0.75116 0.0
Mg133 Mg 0.53402 0.52061 0.65118 0.0
O134 O 0.59636 0.51548 0.71605 0.0
O135 O 0.64403 0.47516 0.70484 0.0
O136 O 0.55507 0.57143 0.54937 0.0
O137 O 0.5311 0.56209 0.79275 0.0
Mg138 Mg 0.47621 0.57374 0.66805 0.0
O139 O 0.4711 0.52462 0.5869 0.0
O140 O 0.51261 0.6126 0.59739 0.0
O141 O 0.47407 0.57693 0.83524 0.0
O142 O 0.4264 0.56857 0.59587 0.0
C143 C 0.55885 0.46148 0.44791 0.0
C144 C 0.5253 0.43624 0.75125 0.0
C145 C 0.63056 0.50603 0.74046 0.0
C146 C 0.54323 0.605 0.55184 0.0
C147 C 0.50857 0.57943 0.85349 0.0
C148 C 0.43752 0.53636 0.56373 0.0
O149 O 0.59328 0.4608 0.46877 0.0
O150 O 0.53709 0.47978 0.50861 0.0
O151 O 0.96356 0.44881 0.85615 0.0
Mg152 Mg 0.9698 0.45973 0.6925 0.0
O153 O 0.98129 0.50657 0.84085 0.0
Mg154 Mg 0.02197 0.51787 0.70026 0.0
O155 O 0.01945 0.45928 0.60963 0.0
O156 O 0.97661 0.41371 0.60338 0.0
O157 O 0.06446 0.53145 0.56531 0.0
O158 O 0.07144 0.48683 0.79152 0.0
Mg159 Mg 0.07274 0.55654 0.80128 0.0
O160 O 0.02168 0.57979 0.78133 0.0
O161 O 0.1094 0.55055 0.67186 0.0
O162 O 0.0821 0.52115 0.9314 0.0
O163 O 0.07209 0.60942 0.84714 0.0
C164 C 0.93767 0.53074 0.60299 0.0
C165 C 0.96394 0.48149 0.89237 0.0
C166 C 1.00845 0.42693 0.57381 0.0
C167 C 0.09843 0.54057 0.58048 0.0
C168 C 0.08684 0.49095 0.88245 0.0
C169 C 0.03708 0.60936 0.82377 0.0
O170 O 0.93039 0.49826 0.63579 0.0
O171 O 0.97118 0.54306 0.60573 0.0
C172 C 0.15121 0.06001 0.32647 0.0
C173 C 0.18894 0.06576 0.35247 0.0
C174 C 0.12596 0.04565 0.40231 0.0
C175 C 0.13776 0.03645 0.50629 0.0
H176 H 0.14141 0.0655 0.24604 0.0
H177 H 0.09759 0.03984 0.37769 0.0
S178 S 0.23268 0.04995 0.61664 0.0
N179 N 0.23603 0.06432 0.49153 0.0
N180 N 0.18901 0.03645 0.63294 0.0
C181 C 0.17503 0.04365 0.53415 0.0
C182 C 0.20054 0.05862 0.4575 0.0
C183 C 0.47503 0.15967 0.35562 0.0
C184 C 0.48687 0.19687 0.35054 0.0
C185 C 0.49064 0.13476 0.43006 0.0
C186 C 0.51867 0.14629 0.5017 0.0
H187 H 0.45431 0.14948 0.29982 0.0
H188 H 0.48175 0.10605 0.42849 0.0
S189 S 0.55696 0.24208 0.52419 0.0
N190 N 0.52664 0.24455 0.42527 0.0
N191 N 0.55552 0.19869 0.56628 0.0
C192 C 0.5295 0.18404 0.49938 0.0
C193 C 0.51374 0.2091 0.42342 0.0
C194 C 0.3726 0.46102 0.45854 0.0
C195 C 0.35671 0.47834 0.36851 0.0
C196 C 0.4002 0.47912 0.51985 0.0
C197 C 0.41228 0.5151 0.49303 0.0
H198 H 0.36368 0.43344 0.48161 0.0
H199 H 0.4114 0.46536 0.58983 0.0
S200 S 0.38035 0.57124 0.26201 0.0
N201 N 0.35593 0.53247 0.25354 0.0
N202 N 0.407 0.56667 0.3689 0.0
C203 C 0.3967 0.5323 0.40259 0.0
C204 C 0.36907 0.51385 0.34018 0.0
C205 C 0.04119 0.34453 0.40956 0.0
C206 C 0.06362 0.36066 0.3304 0.0
C207 C 0.02507 0.36618 0.49054 0.0
C208 C 0.03065 0.40491 0.49567 0.0
H209 H 0.03512 0.31511 0.40769 0.0
H210 H 1.00728 0.35245 0.54836 0.0
S211 S 0.08715 0.46043 0.30549 0.0
N212 N 0.09105 0.41736 0.26138 0.0
N213 N 0.0606 0.45831 0.41347 0.0
C214 C 0.05389 0.42125 0.41815 0.0
C215 C 0.07029 0.39906 0.33529 0.0
C216 C 0.8398 1.00339 0.86707 0.0
C217 C 0.85533 0.99144 -0.03588 0.0
C218 C 0.862 0.02037 0.78833 0.0
C219 C 0.90058 0.02563 0.80333 0.0
H220 H 0.81016 1.00056 0.85281 0.0
H221 H 0.84868 0.03035 0.71611 0.0
S222 S 0.9545 0.99868 0.0442 0.0
N223 N 0.91146 0.98511 0.07079 0.0
N224 N 0.95312 0.01759 0.92383 0.0
C225 C 0.9165 1.01302 0.89948 0.0
C226 C 0.89386 0.99571 -0.02043 0.0
C227 C 0.56975 0.88915 -0.02353 0.0
C228 C 0.56759 0.85047 -0.03894 0.0
C229 C 0.55347 0.91405 0.90307 0.0
C230 C 0.53429 0.90097 0.81236 0.0
H231 H 0.58315 0.90022 0.04732 0.0
H232 H 0.55421 0.9435 0.92039 0.0
S233 S 0.52406 0.8024 0.73076 0.0
N234 N 0.54738 0.80059 0.84439 0.0
N235 N 0.51663 0.84689 0.7076 0.0
C236 C 0.53345 0.86239 0.79422 0.0
C237 C 0.55014 0.83724 0.86831 0.0
C238 C 0.71693 0.54262 0.88123 0.0
C239 C 0.70246 0.55823 -0.02476 0.0
C240 C 0.69313 0.52763 0.80301 0.0
C241 C 0.65399 0.528 0.81554 0.0
H242 H 0.74682 0.54109 0.86921 0.0
H243 H 0.70555 0.51475 0.7332 0.0
S244 S 0.60269 0.5657 0.04947 0.0
N245 N 0.64701 0.57363 0.07735 0.0
N246 N 0.60222 0.54538 0.93084 0.0
C247 C 0.63927 0.54454 0.90839 0.0
C248 C 0.66357 0.55961 -0.01175 0.0
C249 C 0.96173 0.66615 0.96002 0.0
C250 C 0.98057 0.69966 -0.01952 0.0
C251 C 0.9785 0.63793 0.89822 0.0
C252 C 1.01491 0.64218 0.85786 0.0
H253 H 0.93479 0.66096 -0.00365 0.0
H254 H 0.96406 0.61172 0.88901 0.0
S255 S 0.07255 0.72774 0.87384 0.0
N256 N 0.03472 0.73771 0.94358 0.0
N257 N 0.06655 0.68498 0.82931 0.0
C258 C 0.03235 0.67702 0.87034 0.0
C259 C 1.01515 0.70565 0.93181 0.0
C260 C 0.0175 0.18628 0.29892 0.0
C261 C 0.05535 0.19423 0.3166 0.0
C262 C 1.00086 0.1547 0.34316 0.0
C263 C 0.02154 0.12992 0.40658 0.0
H264 H 1.00135 0.20326 0.24447 0.0
H265 H 0.97177 0.14934 0.32573 0.0
S266 S 0.12118 0.14127 0.48474 0.0
N267 N 0.11261 0.17683 0.40537 0.0
N268 N 0.08164 0.11794 0.49256 0.0
C269 C 0.05921 0.13882 0.42891 0.0
C270 C 0.07599 0.17093 0.38323 0.0
C271 C 0.37423 0.99563 0.29103 0.0
C272 C 0.35716 0.02971 0.31656 0.0
C273 C 0.40806 0.98515 0.338 0.0
C274 C 0.42616 1.00852 0.41152 0.0
H275 H 0.36276 0.97836 0.2281 0.0
H276 H 0.4207 0.95913 0.31394 0.0
S277 S 0.38949 0.09816 0.5166 0.0
N278 N 0.35836 0.08484 0.42729 0.0
N279 N 0.42158 0.06534 0.51781 0.0
C280 C 0.40783 0.04153 0.44322 0.0
C281 C 0.37328 0.05192 0.39571 0.0
C282 C 0.54127 0.36543 0.33392 0.0
C283 C 0.50487 0.36867 0.29387 0.0
C284 C 0.55955 0.39623 0.37874 0.0
C285 C 0.54209 0.43131 0.38394 0.0
H286 H 0.55626 0.33946 0.32608 0.0
H287 H 0.58735 0.39239 0.4106 0.0
S288 S 0.44768 0.45426 0.28432 0.0
N289 N 0.45212 0.40939 0.2616 0.0
N290 N 0.4868 0.46738 0.34251 0.0
C291 C 0.50563 0.43465 0.34468 0.0
C292 C 0.48688 0.4033 0.30123 0.0
C293 C 0.17298 0.53769 0.36648 0.0
C294 C 0.18807 0.50195 0.38155 0.0
C295 C 0.14326 0.55046 0.42988 0.0
C296 C 0.12734 0.52729 0.50747 0.0
H297 H 0.18324 0.55517 0.30241 0.0
H298 H 0.13235 0.57813 0.4171 0.0
S299 S 0.15653 0.43174 0.5777 0.0
N300 N 0.18518 0.44414 0.48051 0.0
N301 N 0.12904 0.4678 0.59844 0.0
C302 C 0.14269 0.49197 0.52469 0.0
C303 C 0.17317 0.47932 0.46187 0.0
C304 C 1.00571 0.87391 -0.02116 0.0
C305 C 0.96807 0.86787 0.95206 0.0
C306 C 0.025 0.9051 0.94169 0.0
C307 C 1.00746 0.93132 0.87562 0.0
H308 H 0.01958 0.8557 0.03516 0.0
H309 H 0.05368 0.90897 -0.03355 0.0
S310 S 0.91022 0.92496 0.77172 0.0
N311 N 0.91452 0.88875 0.85151 0.0
N312 N 0.95098 0.94627 0.77456 0.0
C313 C 0.97024 0.92424 0.84326 0.0
C314 C 0.95055 0.89277 0.88303 0.0
C315 C 0.66151 0.9798 0.93273 0.0
C316 C 0.6857 1.00223 -0.00782 0.0
C317 C 0.62843 0.99418 0.89112 0.0
C318 C 0.61807 0.03157 0.90805 0.0
H319 H 0.66707 0.95037 0.92411 0.0
H320 H 0.6108 0.97554 0.84578 0.0
S321 S 0.67305 0.10168 0.0578 0.0
N322 N 0.69814 0.06334 0.06529 0.0
N323 N 0.6359 0.0909 -0.01381 0.0
C324 C 0.64281 0.05455 -0.03506 0.0
C325 C 0.67667 0.03979 0.00679 0.0
C326 C 0.57164 0.6601 0.92535 0.0
C327 C 0.55054 0.67972 0.00067 0.0
C328 C 0.55796 0.62734 0.87998 0.0
C329 C 0.52289 0.61266 0.90971 0.0
H330 H 0.59973 0.66895 0.90609 0.0
H331 H 0.57542 0.61326 0.82199 0.0
S332 S 0.45663 0.65504 0.10208 0.0
N333 N 0.49273 0.68352 0.10116 0.0
N334 N 0.46681 0.62168 0.01612 0.0
C335 C 0.50101 0.63294 -0.01766 0.0
C336 C 0.51488 0.66652 0.02768 0.0
C337 C 0.86859 0.49453 0.01665 0.0
C338 C 0.87322 0.52786 0.07327 0.0
C339 C 0.899 0.47778 -0.03559 0.0
C340 C 0.93491 0.49379 -0.0321 0.0
H341 H 0.84159 0.48109 0.01425 0.0
H342 H 0.89405 0.45286 0.91797 0.0
S343 S 0.96191 0.57962 0.11151 0.0
N344 N 0.91656 0.57598 0.13092 0.0
N345 N 0.97356 0.54358 0.0371 0.0
C346 C 0.93988 0.52663 0.02617 0.0
C347 C 0.90907 0.54398 0.07717 0.0
C348 C 0.05552 0.20638 0.88778 0.0
C349 C 0.08716 0.19797 0.94886 0.0
C350 C 0.03777 0.17902 0.82678 0.0
C351 C 0.05093 0.14204 0.82394 0.0
H352 H 0.04197 0.23311 0.89614 0.0
H353 H 1.0122 0.18672 0.78646 0.0
S354 S 0.13834 0.10845 0.94937 0.0
N355 N 0.13511 0.15226 -0.01258 0.0
N356 N 0.10173 0.10059 0.87246 0.0
C357 C 0.08511 0.13446 0.87442 0.0
C358 C 0.10337 0.16257 0.93607 0.0
C359 C 0.38945 0.09315 -0.03886 0.0
C360 C 0.35286 0.07869 0.95656 0.0
C361 C 0.41774 0.07954 0.89394 0.0
C362 C 0.41009 0.05169 0.81838 0.0
H363 H 0.39731 0.11135 0.02641 0.0
H364 H 0.44612 0.08868 0.90745 0.0
S365 S 0.31626 0.01442 0.75113 0.0
N366 N 0.30893 0.04168 0.85526 0.0
N367 N 0.36122 0.01759 0.72447 0.0
C368 C 0.37238 0.04185 0.80144 0.0
C369 C 0.34384 0.0553 0.87105 0.0
C370 C 0.50233 0.34075 0.86022 0.0
C371 C 0.4712 0.34776 0.9249 0.0
C372 C 0.51824 0.36916 0.79899 0.0
C373 C 0.5034 0.40551 0.79987 0.0
H374 H 0.51748 0.31487 0.86831 0.0
H375 H 0.54402 0.36308 0.75732 0.0
S376 S 0.41538 0.43428 0.93195 0.0
N377 N 0.42104 0.3905 -0.03249 0.0
N378 N 0.45081 0.44418 0.8524 0.0
C379 C 0.46895 0.41108 0.85112 0.0
C380 C 0.45255 0.38188 0.91234 0.0
C381 C 0.14934 0.42938 0.04436 0.0
C382 C 0.18411 0.44682 0.02742 0.0
C383 C 0.11738 0.44094 -0.01132 0.0
C384 C 0.11987 0.46887 0.91104 0.0
H385 H 0.14586 0.41083 0.11176 0.0
H386 H 0.09036 0.43061 0.01355 0.0
S387 S 0.20602 0.51506 0.81575 0.0
N388 N 0.22022 0.48763 0.91339 0.0
N389 N 0.16068 0.50803 0.80489 0.0
C390 C 0.15538 0.4818 0.88137 0.0
C391 C 0.18764 0.47064 0.93958 0.0
C392 C 0.96798 0.91122 0.26362 0.0
C393 C 0.95193 0.87712 0.29774 0.0
C394 C 0.98294 0.93682 0.33549 0.0
C395 C 0.98427 0.92897 0.4445 0.0
H396 H 0.97111 0.91799 0.17984 0.0
H397 H 0.9957 0.96191 0.3046 0.0
S398 S 0.94584 0.846 0.58057 0.0
N399 N 0.93621 0.83919 0.45281 0.0
N400 N 0.96821 0.88601 0.58654 0.0
C401 C 0.96845 0.89569 0.48156 0.0
C402 C 0.95151 0.87007 0.40865 0.0
C403 C 0.6587 0.94706 0.36511 0.0
C404 C 0.69427 0.96373 0.35748 0.0
C405 C 0.63071 0.96215 0.4308 0.0
C406 C 0.63758 0.9939 0.49319 0.0
H407 H 0.65114 0.92496 0.3104 0.0
H408 H 0.603 0.95025 0.42729 0.0
S409 S 0.72937 0.04115 0.52425 0.0
N410 N 0.73681 1.00898 0.43273 0.0
N411 N 0.68535 0.03634 0.5602 0.0
C412 C 0.67467 1.00732 0.49766 0.0
C413 C 0.70285 0.99222 0.42965 0.0
C414 C 0.61111 0.65594 0.36994 0.0
C415 C 0.59449 0.69135 0.36137 0.0
C416 C 0.59583 0.62847 0.43653 0.0
C417 C 0.56397 0.63578 0.49874 0.0
H418 H 0.63298 0.64798 0.31463 0.0
H419 H 0.60743 0.60075 0.43312 0.0
S420 S 0.51722 0.72751 0.52787 0.0
N421 N 0.54956 0.73438 0.43607 0.0
N422 N 0.52183 0.68385 0.56526 0.0
C423 C 0.55089 0.67281 0.50289 0.0
C424 C 0.5662 0.70048 0.43404 0.0
C425 C 0.8405 0.55128 0.5034 0.0
C426 C 0.84731 0.57759 0.42335 0.0
C427 C 0.86954 0.53885 0.569 0.0
C428 C 0.9063 0.55243 0.55681 0.0
H429 H 0.81432 0.53626 0.50463 0.0
H430 H 0.86372 0.51595 0.62259 0.0
S431 S 0.93466 0.63074 0.38298 0.0
N432 N 0.89019 0.62393 0.35466 0.0
N433 N 0.94516 0.60035 0.47717 0.0
C434 C 0.91164 0.58339 0.49046 0.0
C435 C 0.88178 0.59639 0.42486 0.0
loop_
_geom_bond_atom_site_label_1
_geom_bond_atom_site_label_2
_geom_bond_distance
_geom_bond_site_symmetry_2
_ccdc_geom_bond_type
H0 C3 0.929 . S
H1 C6 0.929 . S
H2 C8 0.930 . S
C3 H0 0.929 . S
C3 C4 1.398 . S
C3 C5 1.396 . S
C4 C3 1.398 . S
C4 C8 1.407 . S
C5 C3 1.396 . S
C5 C6 1.394 1_554 S
C6 H1 0.929 . S
C6 C5 1.394 1_556 S
C6 C7 1.382 1_556 S
C7 C6 1.382 1_554 S
C7 C8 1.392 . S
C7 N9 1.420 . S
C8 H2 0.930 . S
C8 C4 1.407 . S
C8 C7 1.392 . S
N9 C7 1.420 . S
N9 C10 1.244 . S
C10 N9 1.244 . S
H11 C14 0.929 . S
H12 C17 0.929 . S
H13 C19 0.930 . S
C14 H11 0.929 . S
C14 C15 1.398 . S
C14 C16 1.396 . S
C15 C14 1.398 . S
C15 C19 1.407 . S
C16 C14 1.396 . S
C16 C17 1.394 1_554 S
C17 H12 0.929 . S
C17 C16 1.394 1_556 S
C17 C18 1.382 1_556 S
C18 C17 1.382 1_554 S
C18 C19 1.392 . S
C18 N20 1.420 . S
C19 H13 0.930 . S
C19 C15 1.407 . S
C19 C18 1.392 . S
N20 C18 1.420 . S
N20 C21 1.244 . S
C21 N20 1.244 . S
H22 C25 0.929 . S
H23 C28 0.929 . S
H24 C30 0.930 . S
C25 H22 0.929 . S
C25 C26 1.398 . S
C25 C27 1.396 . S
C26 C25 1.398 . S
C26 C30 1.407 . S
C27 C25 1.396 . S
C27 C28 1.394 1_554 S
C28 H23 0.929 . S
C28 C27 1.394 1_556 S
C28 C29 1.382 1_556 S
C29 C28 1.382 1_554 S
C29 C30 1.392 . S
C29 N31 1.420 . S
C30 H24 0.930 . S
C30 C26 1.407 . S
C30 C29 1.392 . S
N31 C29 1.420 . S
N31 C32 1.244 . S
C32 N31 1.244 . S
H33 C36 0.929 . S
H34 C39 0.929 . S
H35 C41 0.930 . S
C36 H33 0.929 . S
C36 C37 1.398 . S
C36 C38 1.396 . S
C37 C36 1.398 . S
C37 C41 1.407 . S
C38 C36 1.396 . S
C38 C39 1.394 1_554 S
C39 H34 0.929 . S
C39 C38 1.394 1_556 S
C39 C40 1.382 1_556 S
C40 C39 1.382 1_554 S
C40 C41 1.392 . S
C40 N42 1.420 . S
C41 H35 0.930 . S
C41 C37 1.407 . S
C41 C40 1.392 . S
N42 C40 1.420 . S
N42 C43 1.244 . S
C43 N42 1.244 . S
H44 C47 0.929 . S
H45 C50 0.929 . S
H46 C52 0.930 . S
C47 H44 0.929 . S
C47 C48 1.398 . S
C47 C49 1.396 . S
C48 C47 1.398 . S
C48 C52 1.407 . S
C49 C47 1.396 . S
C49 C50 1.394 . S
C50 H45 0.929 . S
C50 C49 1.394 . S
C50 C51 1.382 . S
C51 C50 1.382 . S
C51 C52 1.392 . S
C51 N53 1.420 . S
C52 H46 0.930 . S
C52 C48 1.407 . S
C52 C51 1.392 . S
N53 C51 1.420 . S
N53 C54 1.244 . S
C54 N53 1.244 . S
H55 C58 0.929 . S
H56 C61 0.929 . S
H57 C63 0.930 . S
C58 H55 0.929 . S
C58 C59 1.398 . S
C58 C60 1.396 . S
C59 C58 1.398 . S
C59 C63 1.407 . S
C60 C58 1.396 . S
C60 C61 1.394 . S
C61 H56 0.929 . S
C61 C60 1.394 . S
C61 C62 1.382 . S
C62 C61 1.382 . S
C62 C63 1.392 . S
C62 N64 1.420 . S
C63 H57 0.930 . S
C63 C59 1.407 . S
C63 C62 1.392 . S
N64 C62 1.420 . S
N64 C65 1.244 . S
C65 N64 1.244 . S
H66 C69 0.929 . S
H67 C72 0.929 . S
H68 C74 0.930 . S
C69 H66 0.929 . S
C69 C70 1.398 . S
C69 C71 1.396 . S
C70 C69 1.398 . S
C70 C74 1.407 . S
C71 C69 1.396 . S
C71 C72 1.394 . S
C72 H67 0.929 . S
C72 C71 1.394 . S
C72 C73 1.382 . S
C73 C72 1.382 . S
C73 C74 1.392 . S
C73 N75 1.420 . S
C74 H68 0.930 . S
C74 C70 1.407 . S
C74 C73 1.392 . S
N75 C73 1.420 . S
N75 C76 1.244 . S
C76 N75 1.244 . S
H77 C80 0.929 . S
H78 C83 0.929 . S
H79 C85 0.930 . S
C80 H77 0.929 . S
C80 C81 1.398 . S
C80 C82 1.396 . S
C81 C80 1.398 . S
C81 C85 1.407 . S
C82 C80 1.396 . S
C82 C83 1.394 . S
C83 H78 0.929 . S
C83 C82 1.394 . S
C83 C84 1.382 . S
C84 C83 1.382 . S
C84 C85 1.392 . S
C84 N86 1.420 . S
C85 H79 0.930 . S
C85 C81 1.407 . S
C85 C84 1.392 . S
N86 C84 1.420 . S
N86 C87 1.244 . S
C87 N86 1.244 . S
O88 Mg89 1.990 . S
O88 C102 1.253 . S
Mg89 O88 1.990 . S
Mg89 O92 2.180 . S
Mg89 O93 2.117 . S
Mg89 O107 2.030 . S
O90 Mg91 2.072 1_565 S
O90 C102 1.260 . S
Mg91 O90 2.072 1_545 S
Mg91 O92 2.099 1_545 S
Mg91 O94 2.079 . S
Mg91 O95 2.072 . S
Mg91 O97 2.099 1_455 S
Mg91 O108 2.079 1_445 S
O92 Mg89 2.180 . S
O92 Mg91 2.099 1_565 S
O92 C103 1.279 . S
O93 Mg89 2.117 . S
O93 C103 1.250 . S
O94 Mg91 2.079 . S
O94 C104 1.264 1_455 S
O95 Mg91 2.072 . S
O95 C105 1.260 . S
Mg96 O97 2.180 . S
Mg96 O98 2.030 . S
Mg96 O99 1.990 . S
Mg96 O100 2.117 . S
O97 Mg91 2.099 1_655 S
O97 Mg96 2.180 . S
O97 C106 1.279 . S
O98 Mg96 2.030 . S
O98 C104 1.248 . S
O99 Mg96 1.990 . S
O99 C105 1.253 1_655 S
O100 Mg96 2.117 . S
O100 C106 1.250 . S
C101 O107 1.248 1_655 S
C101 O108 1.264 . S
C102 O88 1.253 . S
C102 O90 1.260 . S
C103 O92 1.279 . S
C103 O93 1.250 . S
C104 O94 1.264 1_655 S
C104 O98 1.248 . S
C105 O95 1.260 . S
C105 O99 1.253 1_455 S
C106 O97 1.279 . S
C106 O100 1.250 . S
O107 Mg89 2.030 . S
O107 C101 1.248 1_455 S
O108 Mg91 2.079 1_665 S
O108 C101 1.264 . S
O109 Mg110 1.990 . S
O109 C123 1.253 1_565 S
Mg110 O109 1.990 . S
Mg110 O113 2.180 . S
Mg110 O114 2.117 . S
Mg110 O128 2.030 . S
O111 Mg112 2.072 . S
O111 C123 1.260 . S
Mg112 O111 2.072 . S
Mg112 O113 2.099 1_545 S
Mg112 O115 2.079 1_545 S
Mg112 O116 2.072 . S
Mg112 O118 2.099 . S
Mg112 O129 2.079 . S
O113 Mg110 2.180 . S
O113 Mg112 2.099 1_565 S
O113 C124 1.279 . S
O114 Mg110 2.117 . S
O114 C124 1.250 . S
O115 Mg112 2.079 1_565 S
O115 C125 1.264 . S
O116 Mg112 2.072 . S
O116 C126 1.260 . S
Mg117 O118 2.180 . S
Mg117 O119 2.030 . S
Mg117 O120 1.990 . S
Mg117 O121 2.117 . S
O118 Mg112 2.099 . S
O118 Mg117 2.180 . S
O118 C127 1.279 . S
O119 Mg117 2.030 . S
O119 C125 1.248 1_545 S
O120 Mg117 1.990 . S
O120 C126 1.253 . S
O121 Mg117 2.117 . S
O121 C127 1.250 . S
C122 O128 1.264 . S
C122 O129 1.257 1_565 S
C123 O109 1.253 1_545 S
C123 O111 1.260 . S
C124 O113 1.279 . S
C124 O114 1.250 . S
C125 O115 1.264 . S
C125 O119 1.248 1_565 S
C126 O116 1.260 . S
C126 O120 1.253 . S
C127 O118 1.279 . S
C127 O121 1.250 . S
O128 Mg110 2.030 . S
O128 C122 1.264 . S
O129 Mg112 2.079 . S
O129 C122 1.257 1_545 S
O130 Mg131 1.990 . S
O130 C144 1.253 . S
Mg131 O130 1.990 . S
Mg131 O134 2.180 . S
Mg131 O135 2.117 . S
Mg131 O149 2.030 . S
O132 Mg133 2.072 . S
O132 C144 1.260 . S
Mg133 O132 2.072 . S
Mg133 O134 2.099 . S
Mg133 O136 2.079 . S
Mg133 O137 2.072 . S
Mg133 O139 2.099 . S
Mg133 O150 2.079 . S
O134 Mg131 2.180 . S
O134 Mg133 2.099 . S
O134 C145 1.279 . S
O135 Mg131 2.117 . S
O135 C145 1.250 . S
O136 Mg133 2.079 . S
O136 C146 1.264 . S
O137 Mg133 2.072 . S
O137 C147 1.260 . S
Mg138 O139 2.180 . S
Mg138 O140 2.030 . S
Mg138 O141 1.990 . S
Mg138 O142 2.117 . S
O139 Mg133 2.099 . S
O139 Mg138 2.180 . S
O139 C148 1.279 . S
O140 Mg138 2.030 . S
O140 C146 1.248 . S
O141 Mg138 1.990 . S
O141 C147 1.253 . S
O142 Mg138 2.117 . S
O142 C148 1.250 . S
C143 O149 1.248 . S
C143 O150 1.264 . S
C144 O130 1.253 . S
C144 O132 1.260 . S
C145 O134 1.279 . S
C145 O135 1.250 . S
C146 O136 1.264 . S
C146 O140 1.248 . S
C147 O137 1.260 . S
C147 O141 1.253 . S
C148 O139 1.279 . S
C148 O142 1.250 . S
O149 Mg131 2.030 . S
O149 C143 1.248 . S
O150 Mg133 2.079 . S
O150 C143 1.264 . S
O151 Mg152 1.990 . S
O151 C165 1.253 . S
Mg152 O151 1.990 . S
Mg152 O155 2.180 . S
Mg152 O156 2.117 . S
Mg152 O170 2.030 . S
O153 Mg154 2.072 1_655 S
O153 C165 1.260 . S
Mg154 O153 2.072 1_455 S
Mg154 O155 2.099 1_455 S
Mg154 O157 2.079 . S
Mg154 O158 2.072 . S
Mg154 O160 2.099 . S
Mg154 O171 2.079 1_455 S
O155 Mg152 2.180 . S
O155 Mg154 2.099 1_655 S
O155 C166 1.279 . S
O156 Mg152 2.117 . S
O156 C166 1.250 . S
O157 Mg154 2.079 . S
O157 C167 1.264 . S
O158 Mg154 2.072 . S
O158 C168 1.260 . S
Mg159 O160 2.180 . S
Mg159 O161 2.030 . S
Mg159 O162 1.990 . S
Mg159 O163 2.117 . S
O160 Mg154 2.099 . S
O160 Mg159 2.180 . S
O160 C169 1.279 . S
O161 Mg159 2.030 . S
O161 C167 1.248 . S
O162 Mg159 1.990 . S
O162 C168 1.253 . S
O163 Mg159 2.117 . S
O163 C169 1.250 . S
C164 O170 1.248 . S
C164 O171 1.264 . S
C165 O151 1.253 . S
C165 O153 1.260 . S
C166 O155 1.279 . S
C166 O156 1.250 . S
C167 O157 1.264 . S
C167 O161 1.248 . S
C168 O158 1.260 . S
C168 O162 1.253 . S
C169 O160 1.279 . S
C169 O163 1.250 . S
O170 Mg152 2.030 . S
O170 C164 1.248 . S
O171 Mg154 2.079 1_655 S
O171 C164 1.264 . S
C172 C173 1.369 . S
C172 C174 1.419 1_545 S
C172 H176 0.930 1_545 S
C173 C172 1.369 . S
C173 C182 1.429 . S
C174 C172 1.419 1_565 S
C174 C175 1.363 1_565 S
C174 H177 0.929 . S
C175 C174 1.363 1_545 S
C175 C181 1.428 . S
H176 C172 0.930 1_565 S
H177 C174 0.929 . S
S178 N179 1.613 . S
S178 N180 1.610 . S
N179 S178 1.613 . S
N179 C182 1.350 . S
N180 S178 1.610 . S
N180 C181 1.351 . S
C181 C175 1.428 . S
C181 N180 1.351 . S
C181 C182 1.434 . S
C182 C173 1.429 . S
C182 N179 1.350 . S
C182 C181 1.434 . S
C183 C184 1.369 . S
C183 C185 1.419 . S
C183 H187 0.930 . S
C184 C183 1.369 . S
C184 C193 1.429 . S
C185 C183 1.419 . S
C185 C186 1.363 . S
C185 H188 0.929 . S
C186 C185 1.363 . S
C186 C192 1.428 . S
H187 C183 0.930 . S
H188 C185 0.929 . S
S189 N190 1.613 . S
S189 N191 1.610 . S
N190 S189 1.613 . S
N190 C193 1.350 . S
N191 S189 1.610 . S
N191 C192 1.351 . S
C192 C186 1.428 . S
C192 N191 1.351 . S
C192 C193 1.434 . S
C193 C184 1.429 . S
C193 N190 1.350 . S
C193 C192 1.434 . S
C194 C195 1.369 . S
C194 C196 1.419 . S
C194 H198 0.930 . S
C195 C194 1.369 . S
C195 C204 1.429 . S
C196 C194 1.419 . S
C196 C197 1.363 . S
C196 H199 0.929 . S
C197 C196 1.363 . S
C197 C203 1.428 . S
H198 C194 0.930 . S
H199 C196 0.929 . S
S200 N201 1.613 . S
S200 N202 1.610 . S
N201 S200 1.613 . S
N201 C204 1.350 . S
N202 S200 1.610 . S
N202 C203 1.351 . S
C203 C197 1.428 . S
C203 N202 1.351 . S
C203 C204 1.434 . S
C204 C195 1.429 . S
C204 N201 1.350 . S
C204 C203 1.434 . S
C205 C206 1.369 . S
C205 C207 1.419 1_455 S
C205 H209 0.930 1_455 S
C206 C205 1.369 . S
C206 C215 1.429 . S
C207 C205 1.419 1_655 S
C207 C208 1.363 1_655 S
C207 H210 0.929 . S
C208 C207 1.363 1_455 S
C208 C214 1.428 . S
H209 C205 0.930 1_655 S
H210 C207 0.929 . S
S211 N212 1.613 . S
S211 N213 1.610 . S
N212 S211 1.613 . S
N212 C215 1.350 . S
N213 S211 1.610 . S
N213 C214 1.351 . S
C214 C208 1.428 . S
C214 N213 1.351 . S
C214 C215 1.434 . S
C215 C206 1.429 . S
C215 N212 1.350 . S
C215 C214 1.434 . S
C216 C217 1.369 . S
C216 C218 1.419 . S
C216 H220 0.930 . S
C217 C216 1.369 . S
C217 C226 1.429 1_556 S
C218 C216 1.419 . S
C218 C219 1.363 . S
C218 H221 0.929 1_565 S
C219 C218 1.363 . S
C219 C225 1.428 . S
H220 C216 0.930 . S
H221 C218 0.929 1_545 S
S222 N223 1.613 . S
S222 N224 1.610 . S
N223 S222 1.613 . S
N223 C226 1.350 . S
N224 S222 1.610 . S
N224 C225 1.351 1_554 S
C225 C219 1.428 . S
C225 N224 1.351 1_556 S
C225 C226 1.434 1_556 S
C226 C217 1.429 1_554 S
C226 N223 1.350 . S
C226 C225 1.434 1_554 S
C227 C228 1.369 1_554 S
C227 C229 1.419 1_554 S
C227 H231 0.930 . S
C228 C227 1.369 1_556 S
C228 C237 1.429 . S
C229 C227 1.419 1_556 S
C229 C230 1.363 . S
C229 H232 0.929 . S
C230 C229 1.363 . S
C230 C236 1.428 . S
H231 C227 0.930 . S
H232 C229 0.929 . S
S233 N234 1.613 . S
S233 N235 1.610 . S
N234 S233 1.613 . S
N234 C237 1.350 . S
N235 S233 1.610 . S
N235 C236 1.351 . S
C236 C230 1.428 . S
C236 N235 1.351 . S
C236 C237 1.434 . S
C237 C228 1.429 . S
C237 N234 1.350 . S
C237 C236 1.434 . S
C238 C239 1.369 . S
C238 C240 1.419 . S
C238 H242 0.930 . S
C239 C238 1.369 . S
C239 C248 1.429 1_556 S
C240 C238 1.419 . S
C240 C241 1.363 . S
C240 H243 0.929 . S
C241 C240 1.363 . S
C241 C247 1.428 . S
H242 C238 0.930 . S
H243 C240 0.929 . S
S244 N245 1.613 . S
S244 N246 1.610 1_554 S
N245 S244 1.613 . S
N245 C248 1.350 . S
N246 S244 1.610 1_556 S
N246 C247 1.351 . S
C247 C241 1.428 . S
C247 N246 1.351 . S
C247 C248 1.434 1_556 S
C248 C239 1.429 1_554 S
C248 N245 1.350 . S
C248 C247 1.434 1_554 S
C249 C250 1.369 . S
C249 C251 1.419 . S
C249 H253 0.930 1_556 S
C250 C249 1.369 . S
C250 C259 1.429 1_655 S
C251 C249 1.419 . S
C251 C252 1.363 . S
C251 H254 0.929 . S
C252 C251 1.363 . S
C252 C258 1.428 1_655 S
H253 C249 0.930 1_554 S
H254 C251 0.929 . S
S255 N256 1.613 . S
S255 N257 1.610 . S
N256 S255 1.613 . S
N256 C259 1.350 . S
N257 S255 1.610 . S
N257 C258 1.351 . S
C258 C252 1.428 1_455 S
C258 N257 1.351 . S
C258 C259 1.434 . S
C259 C250 1.429 1_455 S
C259 N256 1.350 . S
C259 C258 1.434 . S
C260 C261 1.369 . S
C260 C262 1.419 1_455 S
C260 H264 0.930 1_455 S
C261 C260 1.369 . S
C261 C270 1.429 . S
C262 C260 1.419 1_655 S
C262 C263 1.363 1_655 S
C262 H265 0.929 . S
C263 C262 1.363 1_455 S
C263 C269 1.428 . S
H264 C260 0.930 1_655 S
H265 C262 0.929 . S
S266 N267 1.613 . S
S266 N268 1.610 . S
N267 S266 1.613 . S
N267 C270 1.350 . S
N268 S266 1.610 . S
N268 C269 1.351 . S
C269 C263 1.428 . S
C269 N268 1.351 . S
C269 C270 1.434 . S
C270 C261 1.429 . S
C270 N267 1.350 . S
C270 C269 1.434 . S
C271 C272 1.369 . S
C271 C273 1.419 . S
C271 H275 0.930 . S
C272 C271 1.369 . S
C272 C281 1.429 . S
C273 C271 1.419 . S
C273 C274 1.363 . S
C273 H276 0.929 . S
C274 C273 1.363 . S
C274 C280 1.428 . S
H275 C271 0.930 . S
H276 C273 0.929 . S
S277 N278 1.613 . S
S277 N279 1.610 . S
N278 S277 1.613 . S
N278 C281 1.350 . S
N279 S277 1.610 . S
N279 C280 1.351 . S
C280 C274 1.428 . S
C280 N279 1.351 . S
C280 C281 1.434 . S
C281 C272 1.429 . S
C281 N278 1.350 . S
C281 C280 1.434 . S
C282 C283 1.369 . S
C282 C284 1.419 . S
C282 H286 0.930 . S
C283 C282 1.369 . S
C283 C292 1.429 . S
C284 C282 1.419 . S
C284 C285 1.363 . S
C284 H287 0.929 . S
C285 C284 1.363 . S
C285 C291 1.428 . S
H286 C282 0.930 . S
H287 C284 0.929 . S
S288 N289 1.613 . S
S288 N290 1.610 . S
N289 S288 1.613 . S
N289 C292 1.350 . S
N290 S288 1.610 . S
N290 C291 1.351 . S
C291 C285 1.428 . S
C291 N290 1.351 . S
C291 C292 1.434 . S
C292 C283 1.429 . S
C292 N289 1.350 . S
C292 C291 1.434 . S
C293 C294 1.369 . S
C293 C295 1.419 . S
C293 H297 0.930 . S
C294 C293 1.369 . S
C294 C303 1.429 . S
C295 C293 1.419 . S
C295 C296 1.363 . S
C295 H298 0.929 . S
C296 C295 1.363 . S
C296 C302 1.428 . S
H297 C293 0.930 . S
H298 C295 0.929 . S
S299 N300 1.613 . S
S299 N301 1.610 . S
N300 S299 1.613 . S
N300 C303 1.350 . S
N301 S299 1.610 . S
N301 C302 1.351 . S
C302 C296 1.428 . S
C302 N301 1.351 . S
C302 C303 1.434 . S
C303 C294 1.429 . S
C303 N300 1.350 . S
C303 C302 1.434 . S
C304 C305 1.369 1_455 S
C304 C306 1.419 . S
C304 H308 0.930 . S
C305 C304 1.369 1_655 S
C305 C314 1.429 . S
C306 C304 1.419 . S
C306 C307 1.363 . S
C306 H309 0.929 . S
C307 C306 1.363 . S
C307 C313 1.428 1_455 S
H308 C304 0.930 . S
H309 C306 0.929 . S
S310 N311 1.613 . S
S310 N312 1.610 . S
N311 S310 1.613 . S
N311 C314 1.350 . S
N312 S310 1.610 . S
N312 C313 1.351 . S
C313 C307 1.428 1_655 S
C313 N312 1.351 . S
C313 C314 1.434 . S
C314 C305 1.429 . S
C314 N311 1.350 . S
C314 C313 1.434 . S
C315 C316 1.369 . S
C315 C317 1.419 . S
C315 H319 0.930 . S
C316 C315 1.369 . S
C316 C325 1.429 1_565 S
C317 C315 1.419 . S
C317 C318 1.363 1_565 S
C317 H320 0.929 . S
C318 C317 1.363 1_545 S
C318 C324 1.428 . S
H319 C315 0.930 . S
H320 C317 0.929 . S
S321 N322 1.613 1_556 S
S321 N323 1.610 . S
N322 S321 1.613 1_554 S
N322 C325 1.350 1_554 S
N323 S321 1.610 . S
N323 C324 1.351 . S
C324 C318 1.428 . S
C324 N323 1.351 . S
C324 C325 1.434 . S
C325 C316 1.429 1_545 S
C325 N322 1.350 1_556 S
C325 C324 1.434 . S
C326 C327 1.369 1_554 S
C326 C328 1.419 1_554 S
C326 H330 0.930 . S
C327 C326 1.369 1_556 S
C327 C336 1.429 . S
C328 C326 1.419 1_556 S
C328 C329 1.363 . S
C328 H331 0.929 1_556 S
C329 C328 1.363 . S
C329 C335 1.428 . S
H330 C326 0.930 . S
H331 C328 0.929 1_554 S
S332 N333 1.613 . S
S332 N334 1.610 . S
N333 S332 1.613 . S
N333 C336 1.350 . S
N334 S332 1.610 . S
N334 C335 1.351 . S
C335 C329 1.428 . S
C335 N334 1.351 . S
C335 C336 1.434 . S
C336 C327 1.429 . S
C336 N333 1.350 . S
C336 C335 1.434 . S
C337 C338 1.369 . S
C337 C339 1.419 . S
C337 H341 0.930 . S
C338 C337 1.369 . S
C338 C347 1.429 . S
C339 C337 1.419 . S
C339 C340 1.363 . S
C339 H342 0.929 . S
C340 C339 1.363 . S
C340 C346 1.428 . S
H341 C337 0.930 . S
H342 C339 0.929 . S
S343 N344 1.613 . S
S343 N345 1.610 1_554 S
N344 S343 1.613 . S
N344 C347 1.350 1_554 S
N345 S343 1.610 1_556 S
N345 C346 1.351 . S
C346 C340 1.428 . S
C346 N345 1.351 . S
C346 C347 1.434 . S
C347 C338 1.429 . S
C347 N344 1.350 1_556 S
C347 C346 1.434 . S
C348 C349 1.369 . S
C348 C350 1.419 1_554 S
C348 H352 0.930 1_455 S
C349 C348 1.369 . S
C349 C358 1.429 . S
C350 C348 1.419 1_556 S
C350 C351 1.363 . S
C350 H353 0.929 1_455 S
C351 C350 1.363 . S
C351 C357 1.428 1_556 S
H352 C348 0.930 1_655 S
H353 C350 0.929 1_655 S
S354 N355 1.613 . S
S354 N356 1.610 . S
N355 S354 1.613 . S
N355 C358 1.350 . S
N356 S354 1.610 . S
N356 C357 1.351 . S
C357 C351 1.428 1_554 S
C357 N356 1.351 . S
C357 C358 1.434 . S
C358 C349 1.429 . S
C358 N355 1.350 . S
C358 C357 1.434 . S
C359 C360 1.369 . S
C359 C361 1.419 . S
C359 H363 0.930 . S
C360 C359 1.369 . S
C360 C369 1.429 1_554 S
C361 C359 1.419 . S
C361 C362 1.363 1_554 S
C361 H364 0.929 . S
C362 C361 1.363 1_556 S
C362 C368 1.428 . S
H363 C359 0.930 . S
H364 C361 0.929 . S
S365 N366 1.613 . S
S365 N367 1.610 . S
N366 S365 1.613 . S
N366 C369 1.350 . S
N367 S365 1.610 . S
N367 C368 1.351 . S
C368 C362 1.428 . S
C368 N367 1.351 . S
C368 C369 1.434 . S
C369 C360 1.429 1_556 S
C369 N366 1.350 . S
C369 C368 1.434 . S
C370 C371 1.369 . S
C370 C372 1.419 1_554 S
C370 H374 0.930 1_554 S
C371 C370 1.369 . S
C371 C380 1.429 . S
C372 C370 1.419 1_556 S
C372 C373 1.363 . S
C372 H375 0.929 . S
C373 C372 1.363 . S
C373 C379 1.428 1_556 S
H374 C370 0.930 1_556 S
H375 C372 0.929 . S
S376 N377 1.613 . S
S376 N378 1.610 . S
N377 S376 1.613 . S
N377 C380 1.350 . S
N378 S376 1.610 . S
N378 C379 1.351 . S
C379 C373 1.428 1_554 S
C379 N378 1.351 . S
C379 C380 1.434 . S
C380 C371 1.429 . S
C380 N377 1.350 . S
C380 C379 1.434 . S
C381 C382 1.369 . S
C381 C383 1.419 . S
C381 H385 0.930 . S
C382 C381 1.369 . S
C382 C391 1.429 1_554 S
C383 C381 1.419 . S
C383 C384 1.363 1_554 S
C383 H386 0.929 . S
C384 C383 1.363 1_556 S
C384 C390 1.428 . S
H385 C381 0.930 . S
H386 C383 0.929 . S
S387 N388 1.613 . S
S387 N389 1.610 . S
N388 S387 1.613 . S
N388 C391 1.350 . S
N389 S387 1.610 . S
N389 C390 1.351 . S
C390 C384 1.428 . S
C390 N389 1.351 . S
C390 C391 1.434 . S
C391 C382 1.429 1_556 S
C391 N388 1.350 . S
C391 C390 1.434 . S
C392 C393 1.369 . S
C392 C394 1.419 . S
C392 H396 0.930 . S
C393 C392 1.369 . S
C393 C402 1.429 . S
C394 C392 1.419 . S
C394 C395 1.363 . S
C394 H397 0.929 . S
C395 C394 1.363 . S
C395 C401 1.428 . S
H396 C392 0.930 . S
H397 C394 0.929 . S
S398 N399 1.613 . S
S398 N400 1.610 . S
N399 S398 1.613 . S
N399 C402 1.350 . S
N400 S398 1.610 . S
N400 C401 1.351 . S
C401 C395 1.428 . S
C401 N400 1.351 . S
C401 C402 1.434 . S
C402 C393 1.429 . S
C402 N399 1.350 . S
C402 C401 1.434 . S
C403 C404 1.369 . S
C403 C405 1.419 . S
C403 H407 0.930 . S
C404 C403 1.369 . S
C404 C413 1.429 1_565 S
C405 C403 1.419 . S
C405 C406 1.363 . S
C405 H408 0.929 . S
C406 C405 1.363 . S
C406 C412 1.428 1_565 S
H407 C403 0.930 . S
H408 C405 0.929 . S
S409 N410 1.613 . S
S409 N411 1.610 . S
N410 S409 1.613 . S
N410 C413 1.350 . S
N411 S409 1.610 . S
N411 C412 1.351 . S
C412 C406 1.428 1_545 S
C412 N411 1.351 . S
C412 C413 1.434 . S
C413 C404 1.429 1_545 S
C413 N410 1.350 . S
C413 C412 1.434 . S
C414 C415 1.369 . S
C414 C416 1.419 . S
C414 H418 0.930 . S
C415 C414 1.369 . S
C415 C424 1.429 . S
C416 C414 1.419 . S
C416 C417 1.363 . S
C416 H419 0.929 . S
C417 C416 1.363 . S
C417 C423 1.428 . S
H418 C414 0.930 . S
H419 C416 0.929 . S
S420 N421 1.613 . S
S420 N422 1.610 . S
N421 S420 1.613 . S
N421 C424 1.350 . S
N422 S420 1.610 . S
N422 C423 1.351 . S
C423 C417 1.428 . S
C423 N422 1.351 . S
C423 C424 1.434 . S
C424 C415 1.429 . S
C424 N421 1.350 . S
C424 C423 1.434 . S
C425 C426 1.369 . S
C425 C427 1.419 . S
C425 H429 0.930 . S
C426 C425 1.369 . S
C426 C435 1.429 . S
C427 C425 1.419 . S
C427 C428 1.363 . S
C427 H430 0.929 . S
C428 C427 1.363 . S
C428 C434 1.428 . S
H429 C425 0.930 . S
H430 C427 0.929 . S
S431 N432 1.613 . S
S431 N433 1.610 . S
N432 S431 1.613 . S
N432 C435 1.350 . S
N433 S431 1.610 . S
N433 C434 1.351 . S
C434 C428 1.428 . S
C434 N433 1.351 . S
C434 C435 1.434 . S
C435 C426 1.429 . S
C435 N432 1.350 . S
C435 C434 1.434 . S
C173 C76 1.592 . S
C175 C103 1.487 1_545 S
C186 C127 1.480 . S
C184 C87 1.588 . S
C197 C148 1.476 . S
C195 C54 1.592 . S
C208 C166 1.488 1_455 S
C206 C65 1.593 . S
C219 C106 1.380 1_565 S
C217 C32 1.509 1_556 S
C228 C43 1.503 1_556 S
C230 C124 1.386 . S
C239 C10 1.506 1_556 S
C241 C145 1.377 . S
C250 C21 1.502 1_556 S
C252 C169 1.383 1_655 S
C263 C104 0.923 1_455 S
C261 C60 0.913 . S
C274 C122 0.919 1_545 S
C272 C71 0.899 . S
C285 C143 0.930 . S
C283 C82 0.901 . S
C294 C49 0.917 . S
C296 C167 0.918 . S
C305 C16 0.979 1_556 S
C307 C102 1.011 . S
C318 C126 1.011 . S
C316 C27 0.964 1_556 S
C329 C147 1.007 . S
C327 C38 0.975 1_556 S
C338 C5 0.975 1_556 S
C340 C165 1.011 . S
C349 C59 1.588 . S
C351 C105 1.558 . S
C360 C70 1.591 . S
C362 C123 1.550 . S
C373 C144 1.558 . S
C371 C81 1.586 . S
C384 C168 1.550 . S
C382 C48 1.591 . S
C393 C15 1.467 . S
C395 C101 1.431 . S
C406 C125 1.428 . S
C404 C26 1.462 . S
C417 C146 1.429 . S
C415 C37 1.461 . S
C426 C4 1.465 . S
C428 C164 1.434 . S
