# Generated by pormake.
# Topology the, (3,8)-cn, num edge types: 1
# Building blocks:
#     Node 0, Type 0, BuildingBlock: BETDAH_clean_linker_0, # of connection points: 3
#     Node 1, Type 0, BuildingBlock: BETDAH_clean_linker_0, # of connection points: 3
#     Node 2, Type 0, BuildingBlock: BETDAH_clean_linker_0, # of connection points: 3
#     Node 3, Type 0, BuildingBlock: BETDAH_clean_linker_0, # of connection points: 3
#     Node 4, Type 0, BuildingBlock: BETDAH_clean_linker_0, # of connection points: 3
#     Node 5, Type 0, BuildingBlock: BETDAH_clean_linker_0, # of connection points: 3
#     Node 6, Type 0, BuildingBlock: BETDAH_clean_linker_0, # of connection points: 3
#     Node 7, Type 0, BuildingBlock: BETDAH_clean_linker_0, # of connection points: 3
#     Node 8, Type 1, BuildingBlock: GIZVER_clean_sbu_0, # of connection points: 8
#     Node 9, Type 1, BuildingBlock: GIZVER_clean_sbu_0, # of connection points: 8
#     Node 10, Type 1, BuildingBlock: GIZVER_clean_sbu_0, # of connection points: 8
#     Edge 11, Type (0, 1), BuildingBlock: TEMPAE_clean_linker_10, # of connection points: 2
#     Edge 12, Type (0, 1), BuildingBlock: TEMPAE_clean_linker_10, # of connection points: 2
#     Edge 13, Type (0, 1), BuildingBlock: TEMPAE_clean_linker_10, # of connection points: 2
#     Edge 14, Type (0, 1), BuildingBlock: TEMPAE_clean_linker_10, # of connection points: 2
#     Edge 15, Type (0, 1), BuildingBlock: TEMPAE_clean_linker_10, # of connection points: 2
#     Edge 16, Type (0, 1), BuildingBlock: TEMPAE_clean_linker_10, # of connection points: 2
#     Edge 17, Type (0, 1), BuildingBlock: TEMPAE_clean_linker_10, # of connection points: 2
#     Edge 18, Type (0, 1), BuildingBlock: TEMPAE_clean_linker_10, # of connection points: 2
#     Edge 19, Type (0, 1), BuildingBlock: TEMPAE_clean_linker_10, # of connection points: 2
#     Edge 20, Type (0, 1), BuildingBlock: TEMPAE_clean_linker_10, # of connection points: 2
#     Edge 21, Type (0, 1), BuildingBlock: TEMPAE_clean_linker_10, # of connection points: 2
#     Edge 22, Type (0, 1), BuildingBlock: TEMPAE_clean_linker_10, # of connection points: 2
#     Edge 23, Type (0, 1), BuildingBlock: TEMPAE_clean_linker_10, # of connection points: 2
#     Edge 24, Type (0, 1), BuildingBlock: TEMPAE_clean_linker_10, # of connection points: 2
#     Edge 25, Type (0, 1), BuildingBlock: TEMPAE_clean_linker_10, # of connection points: 2
#     Edge 26, Type (0, 1), BuildingBlock: TEMPAE_clean_linker_10, # of connection points: 2
#     Edge 27, Type (0, 1), BuildingBlock: TEMPAE_clean_linker_10, # of connection points: 2
#     Edge 28, Type (0, 1), BuildingBlock: TEMPAE_clean_linker_10, # of connection points: 2
#     Edge 29, Type (0, 1), BuildingBlock: TEMPAE_clean_linker_10, # of connection points: 2
#     Edge 30, Type (0, 1), BuildingBlock: TEMPAE_clean_linker_10, # of connection points: 2
#     Edge 31, Type (0, 1), BuildingBlock: TEMPAE_clean_linker_10, # of connection points: 2
#     Edge 32, Type (0, 1), BuildingBlock: TEMPAE_clean_linker_10, # of connection points: 2
#     Edge 33, Type (0, 1), BuildingBlock: TEMPAE_clean_linker_10, # of connection points: 2
#     Edge 34, Type (0, 1), BuildingBlock: TEMPAE_clean_linker_10, # of connection points: 2
# Relax obj value: 0.072
# Max RMSD: 0.196
# Mean RMSD: 0.130
data_MOF--net-the--node1-GIZVER_clean_sbu_0--node2-BETDAH_clean_linker_0--edge1-TEMPAE_clean_linker_10
_symmetry_space_group_name_H-M    P1
_symmetry_Int_Tables_number       1
_symmetry_cell_setting            triclinic
loop_
_symmetry_equiv_pos_as_xyz
'x, y, z'
_cell_length_a     40.940881
_cell_length_b     38.950828
_cell_length_c     37.05919
_cell_angle_alpha  86.306177
_cell_angle_beta   95.534154
_cell_angle_gamma 109.50718
loop_
_atom_site_label
_atom_site_type_symbol
_atom_site_fract_x
_atom_site_fract_y
_atom_site_fract_z
_atom_type_partial_charge
H0 H 0.40236 0.29439 0.34937 0.0
H1 H 0.38625 0.31578 0.45753 0.0
H2 H 0.36946 0.38543 0.36889 0.0
C3 C 0.39552 0.3109 0.36781 0.0
C4 C 0.38706 0.34181 0.35421 0.0
C5 C 0.39559 0.30121 0.40505 0.0
C6 C 0.38562 0.32205 0.42861 0.0
C7 C 0.37483 0.35124 0.41531 0.0
C8 C 0.37575 0.3613 0.37827 0.0
N9 N 0.36535 0.37161 0.44021 0.0
C10 C 0.33496 0.38028 0.43493 0.0
H11 H 0.76788 0.26035 0.36562 0.0
H12 H 0.79996 0.34976 0.28765 0.0
H13 H 0.69835 0.27003 0.27365 0.0
C14 C 0.76282 0.27489 0.34094 0.0
C15 C 0.73034 0.26158 0.32109 0.0
C16 C 0.78829 0.30705 0.32958 0.0
C17 C 0.78112 0.32469 0.297 0.0
C18 C 0.74916 0.31163 0.27664 0.0
C19 C 0.72331 0.28028 0.28906 0.0
N20 N 0.74489 0.33071 0.24353 0.0
C21 C 0.71362 0.32988 0.22468 0.0
H22 H 0.76481 0.64917 0.30212 0.0
H23 H 0.79633 0.74386 0.36776 0.0
H24 H 0.71762 0.73286 0.28018 0.0
C25 C 0.76249 0.67499 0.30843 0.0
C26 C 0.73833 0.6882 0.28741 0.0
C27 C 0.78357 0.69463 0.33766 0.0
C28 C 0.77953 0.72758 0.34633 0.0
C29 C 0.75525 0.74088 0.32614 0.0
C30 C 0.73494 0.72132 0.29671 0.0
N31 N 0.75582 0.77685 0.33125 0.0
C32 C 0.73454 0.78529 0.3539 0.0
H33 H 0.31224 0.72167 0.37651 0.0
H34 H 0.3957 0.75329 0.3059 0.0
H35 H 0.3095 0.65495 0.2873 0.0
C36 C 0.32409 0.71696 0.35321 0.0
C37 C 0.30694 0.68607 0.33259 0.0
C38 C 0.35667 0.74106 0.34449 0.0
C39 C 0.37123 0.73434 0.31401 0.0
C40 C 0.35486 0.70329 0.2937 0.0
C41 C 0.32273 0.6787 0.30327 0.0
N42 N 0.37093 0.6992 0.26279 0.0
C43 C 0.36746 0.66658 0.2471 0.0
H44 H 0.33561 0.75612 0.68371 0.0
H45 H 0.30829 0.65165 0.74072 0.0
H46 H 0.40944 0.73023 0.76196 0.0
C47 C 0.34186 0.73719 0.70364 0.0
C48 C 0.37527 0.74711 0.72195 0.0
C49 C 0.31719 0.70265 0.70983 0.0
C50 C 0.32624 0.67882 0.73592 0.0
C51 C 0.35886 0.68863 0.75527 0.0
C52 C 0.38373 0.72271 0.74789 0.0
N53 N 0.36537 0.66268 0.78114 0.0
C54 C 0.39584 0.66667 0.80306 0.0
H55 H 0.42965 0.28152 0.74138 0.0
H56 H 0.34298 0.32111 0.74431 0.0
H57 H 0.33662 0.23814 0.67123 0.0
C58 C 0.40387 0.28144 0.73154 0.0
C59 C 0.38574 0.25829 0.70319 0.0
C60 C 0.38876 0.30422 0.74724 0.0
C61 C 0.35516 0.30369 0.73341 0.0
C62 C 0.33648 0.27968 0.70622 0.0
C63 C 0.35167 0.25698 0.69173 0.0
N64 N 0.30124 0.27533 0.69508 0.0
C65 C 0.28871 0.30385 0.6846 0.0
H66 H 0.81565 0.29093 0.67371 0.0
H67 H 0.81089 0.36386 0.75408 0.0
H68 H 0.73033 0.26054 0.74203 0.0
C69 C 0.80246 0.29672 0.69536 0.0
C70 C 0.77086 0.2713 0.7052 0.0
C71 C 0.81689 0.33017 0.71269 0.0
C72 C 0.79979 0.3382 0.74056 0.0
C73 C 0.769 0.31226 0.75165 0.0
C74 C 0.75487 0.27932 0.73394 0.0
N75 N 0.75174 0.31729 0.78123 0.0
C76 C 0.75272 0.35041 0.79394 0.0
H77 H 0.78501 0.63248 0.6901 0.0
H78 H 0.75663 0.65838 0.57935 0.0
H79 H 0.69392 0.66402 0.66321 0.0
C80 C 0.7676 0.64058 0.67012 0.0
C81 C 0.73816 0.64676 0.68133 0.0
C82 C 0.77486 0.64499 0.63342 0.0
C83 C 0.75228 0.65591 0.60793 0.0
C84 C 0.72401 0.66398 0.61875 0.0
C85 C 0.71692 0.65944 0.6554 0.0
N86 N 0.70218 0.6749 0.59178 0.0
C87 C 0.68839 0.7022 0.59659 0.0
Co88 Co 0.11774 0.48305 0.53885 0.0
Co89 Co 0.08311 0.46607 0.47561 0.0
Co90 Co 0.05133 0.51668 0.5126 0.0
O91 O 0.07046 0.47532 0.52023 0.0
H92 H 0.0542 0.45359 0.53044 0.0
O93 O 0.03173 0.55775 0.5049 0.0
Co94 Co 0.98344 0.54922 0.48815 0.0
Co95 Co 0.02034 0.56658 0.55041 0.0
H96 H 0.04757 0.57948 0.4942 0.0
O97 O 0.09314 0.42457 0.46544 0.0
O98 O 0.13021 0.47583 0.49 0.0
O99 O 0.08034 0.49972 0.43571 0.0
O100 O 0.08404 0.54231 0.4742 0.0
O101 O 0.01619 0.48727 0.47549 0.0
O102 O 0.9405 0.54536 0.47158 0.0
O103 O 0.98694 0.59644 0.47504 0.0
O104 O 0.97275 0.49859 0.49755 0.0
O105 O 0.01892 0.49095 0.55111 0.0
O106 O 0.02438 0.53327 0.59042 0.0
O107 O 0.9729 0.55603 0.53794 0.0
O108 O 0.01052 0.60791 0.5609 0.0
C109 C 0.14529 0.4512 0.56379 0.0
C110 C 0.11912 0.55249 0.5483 0.0
C111 C 0.08987 0.53296 0.44363 0.0
C112 C 0.12467 0.44479 0.47518 0.0
C113 C 0.95386 0.58031 0.46581 0.0
C114 C 0.98369 0.48003 0.47764 0.0
C115 C 0.01473 0.50006 0.5824 0.0
C116 C 0.9788 0.58728 0.55253 0.0
O117 O 0.15996 0.48598 0.55781 0.0
O118 O 0.11256 0.43592 0.55271 0.0
O119 O 0.08663 0.54611 0.54992 0.0
O120 O 0.12946 0.53348 0.52837 0.0
Co121 Co 0.58006 0.94001 0.51099 0.0
Co122 Co 0.60244 0.97292 0.57307 0.0
Co123 Co 0.5525 0.01048 0.52985 0.0
O124 O 0.59017 0.98912 0.52635 0.0
H125 H 0.61031 0.0062 0.51591 0.0
O126 O 0.51438 0.03131 0.53412 0.0
Co127 Co 0.5239 0.07919 0.5524 0.0
Co128 Co 0.50286 0.05006 0.48928 0.0
H129 H 0.49403 0.01359 0.54355 0.0
O130 O 0.64236 0.95903 0.58457 0.0
O131 O 0.58992 0.9243 0.56136 0.0
O132 O 0.57269 0.97254 0.61092 0.0
O133 O 0.53031 0.97445 0.56953 0.0
O134 O 0.58395 0.04491 0.56596 0.0
O135 O 0.52916 0.12177 0.57074 0.0
O136 O 0.48076 0.07269 0.56702 0.0
O137 O 0.57069 0.09232 0.54153 0.0
O138 O 0.57499 0.04654 0.48999 0.0
O139 O 0.53262 0.0533 0.45097 0.0
O140 O 0.51057 0.09728 0.50355 0.0
O141 O 0.46102 0.0581 0.47807 0.0
C142 C 0.60827 0.91142 0.49042 0.0
C143 C 0.51316 0.94171 0.49837 0.0
C144 C 0.54059 0.96532 0.60124 0.0
C145 C 0.62081 0.92728 0.57578 0.0
C146 C 0.49682 0.1061 0.57727 0.0
C147 C 0.59094 0.07931 0.56177 0.0
C148 C 0.56447 0.05753 0.45916 0.0
C149 C 0.47902 0.09067 0.48855 0.0
O150 O 0.57541 0.89591 0.49529 0.0
O151 O 0.62364 0.94519 0.49976 0.0
O152 O 0.52131 0.97615 0.49331 0.0
O153 O 0.53254 0.92821 0.5193 0.0
Co154 Co 0.51271 0.51111 0.08894 0.0
Co155 Co 0.49397 0.44671 0.06232 0.0
Co156 Co 0.55488 0.50307 0.01721 0.0
O157 O 0.51092 0.49336 0.04169 0.0
H158 H 0.49295 0.49825 0.02542 0.0
O159 O 0.59851 0.51316 0.99227 0.0
Co160 Co 0.59673 0.49895 0.94334 0.0
Co161 Co 0.61548 0.5618 0.97499 0.0
H162 H 0.61634 0.50717 1.00781 0.0
O163 O 0.44854 0.42467 0.07677 0.0
O164 O 0.49462 0.46093 0.10954 0.0
O165 O 0.52496 0.41906 0.06379 0.0
O166 O 0.57112 0.46601 0.04874 0.0
O167 O 0.52812 0.46412 0.98194 0.0
O168 O 0.5995 0.48483 0.89925 0.0
O169 O 0.64055 0.49782 0.94611 0.0
O170 O 0.55007 0.49743 0.93432 0.0
O171 O 0.53871 0.53991 0.98567 0.0
O172 O 0.58459 0.58947 0.97724 0.0
O173 O 0.61195 0.55034 0.92645 0.0
O174 O 0.66009 0.58459 0.95743 0.0
C175 C 0.48026 0.52813 0.1166 0.0
C176 C 0.58279 0.5353 0.08678 0.0
C177 C 0.55754 0.43361 0.06209 0.0
C178 C 0.46264 0.43915 0.10747 0.0
C179 C 0.63046 0.48664 0.91315 0.0
C180 C 0.52686 0.47054 0.9477 0.0
C181 C 0.55194 0.57346 0.97556 0.0
C182 C 0.64391 0.57175 0.92683 0.0
O183 O 0.51075 0.52901 0.13116 0.0
O184 O 0.46975 0.51513 0.08432 0.0
O185 O 0.58208 0.54189 0.05256 0.0
O186 O 0.55812 0.50978 0.09982 0.0
C187 C 0.27636 0.36401 0.45498 0.0
C188 C 0.30256 0.38727 0.43477 0.0
C189 C 0.24595 0.37204 0.45869 0.0
C190 C 0.2418 0.40409 0.44161 0.0
C191 C 0.26764 0.42674 0.41964 0.0
C192 C 0.29801 0.41816 0.41669 0.0
C193 C 0.21861 0.34654 0.48139 0.0
C194 C 0.26351 0.46034 0.39989 0.0
C195 C 0.15084 0.41043 0.43844 0.0
C196 C 0.15448 0.43415 0.46662 0.0
C197 C 0.17935 0.4015 0.42894 0.0
C198 C 0.21184 0.41529 0.44922 0.0
C199 C 0.21549 0.43883 0.47802 0.0
C200 C 0.18706 0.44878 0.48564 0.0
C201 C 0.17462 0.37736 0.39724 0.0
C202 C 0.24933 0.45322 0.50116 0.0
H203 H 0.28008 0.33997 0.4687 0.0
H204 H 0.31843 0.43594 0.40091 0.0
H205 H 0.20943 0.36199 0.49995 0.0
H206 H 0.19583 0.33128 0.4634 0.0
H207 H 0.22829 0.3264 0.49758 0.0
H208 H 0.2839 0.47263 0.38072 0.0
H209 H 0.2376 0.45357 0.38458 0.0
H210 H 0.26498 0.48104 0.41975 0.0
H211 H 0.12587 0.39954 0.42317 0.0
H212 H 0.19035 0.46769 0.50688 0.0
H213 H 0.17381 0.34971 0.40737 0.0
H214 H 0.19675 0.38812 0.37994 0.0
H215 H 0.15011 0.37483 0.38023 0.0
H216 H 0.25863 0.43045 0.51145 0.0
H217 H 0.24683 0.4682 0.5247 0.0
H218 H 0.26951 0.4719 0.48456 0.0
C219 C 0.67494 0.23187 0.35033 0.0
C220 C 0.70374 0.2287 0.33512 0.0
C221 C 0.65212 0.20195 0.36848 0.0
C222 C 0.65793 0.16792 0.37077 0.0
C223 C 0.68621 0.16431 0.35397 0.0
C224 C 0.7091 0.19492 0.33679 0.0
C225 C 0.6227 0.20719 0.38657 0.0
C226 C 0.69284 0.12839 0.355 0.0
C227 C 0.62251 0.10428 0.45061 0.0
C228 C 0.59028 0.08199 0.43538 0.0
C229 C 0.64502 0.13191 0.42973 0.0
C230 C 0.63551 0.13681 0.39244 0.0
C231 C 0.60385 0.11309 0.37648 0.0
C232 C 0.58138 0.08631 0.39824 0.0
C233 C 0.67819 0.15701 0.44804 0.0
C234 C 0.5932 0.11671 0.33666 0.0
H235 H 0.67119 0.25819 0.34938 0.0
H236 H 0.73156 0.19268 0.32512 0.0
H237 H 0.59754 0.18715 0.37676 0.0
H238 H 0.62625 0.20231 0.4163 0.0
H239 H 0.62116 0.23505 0.38143 0.0
H240 H 0.71384 0.12924 0.33772 0.0
H241 H 0.70038 0.12114 0.38327 0.0
H242 H 0.66879 0.10636 0.34577 0.0
H243 H 0.62938 0.10144 0.47938 0.0
H244 H 0.55653 0.06911 0.38632 0.0
H245 H 0.67748 0.18531 0.4465 0.0
H246 H 0.70087 0.15716 0.43385 0.0
H247 H 0.68223 0.14901 0.47702 0.0
H248 H 0.58782 0.14272 0.33107 0.0
H249 H 0.56959 0.09395 0.32769 0.0
H250 H 0.61465 0.11749 0.32012 0.0
C251 C 0.83099 0.66667 0.33944 0.0
C252 C 0.81074 0.68144 0.35802 0.0
C253 C 0.85604 0.65326 0.35809 0.0
C254 C 0.8612 0.65463 0.3964 0.0
C255 C 0.84146 0.67028 0.4153 0.0
C256 C 0.81654 0.68352 0.39592 0.0
C257 C 0.87638 0.63673 0.3368 0.0
C258 C 0.84608 0.67225 0.45608 0.0
C259 C 0.89486 0.58194 0.44327 0.0
C260 C 0.93061 0.6007 0.44988 0.0
C261 C 0.87206 0.59943 0.42689 0.0
C262 C 0.88509 0.63685 0.41665 0.0
C263 C 0.92096 0.65636 0.42417 0.0
C264 C 0.94333 0.63806 0.44072 0.0
C265 C 0.83405 0.5775 0.41973 0.0
C266 C 0.93579 0.69638 0.41405 0.0
H267 H 0.82729 0.66561 0.31012 0.0
H268 H 0.80096 0.6947 0.41059 0.0
H269 H 0.90467 0.64988 0.34351 0.0
H270 H 0.86997 0.60733 0.34438 0.0
H271 H 0.87072 0.63955 0.30704 0.0
H272 H 0.82982 0.68656 0.46666 0.0
H273 H 0.8391 0.64435 0.46859 0.0
H274 H 0.87373 0.68664 0.46487 0.0
H275 H 0.8845 0.55316 0.45056 0.0
H276 H 0.9708 0.65288 0.44594 0.0
H277 H 0.82676 0.57695 0.39009 0.0
H278 H 0.8177 0.59043 0.4322 0.0
H279 H 0.82782 0.54898 0.43058 0.0
H280 H 0.9331 0.70037 0.38413 0.0
H281 H 0.96369 0.70817 0.42363 0.0
H282 H 0.92106 0.71169 0.42572 0.0
C283 C 0.41215 0.78181 0.37488 0.0
C284 C 0.37604 0.77266 0.36747 0.0
C285 C 0.4311 0.81133 0.39641 0.0
C286 C 0.41356 0.83208 0.41146 0.0
C287 C 0.37711 0.82299 0.40437 0.0
C288 C 0.35879 0.79347 0.38232 0.0
C289 C 0.46997 0.82005 0.40334 0.0
C290 C 0.35749 0.84425 0.42031 0.0
C291 C 0.46571 0.88209 0.49338 0.0
C292 C 0.48285 0.9165 0.47799 0.0
C293 C 0.44088 0.85517 0.47265 0.0
C294 C 0.43368 0.86258 0.43539 0.0
C295 C 0.44937 0.89803 0.42028 0.0
C296 C 0.47358 0.92478 0.44194 0.0
C297 C 0.42415 0.81808 0.49014 0.0
C298 C 0.44264 0.90693 0.38061 0.0
H299 H 0.42566 0.76549 0.36425 0.0
H300 H 0.33097 0.78687 0.37648 0.0
H301 H 0.48358 0.84883 0.39513 0.0
H302 H 0.47688 0.8168 0.43275 0.0
H303 H 0.47985 0.8022 0.3884 0.0
H304 H 0.32919 0.8338 0.4121 0.0
H305 H 0.36127 0.8429 0.45035 0.0
H306 H 0.36784 0.87339 0.41159 0.0
H307 H 0.47259 0.8758 0.52143 0.0
H308 H 0.48692 0.95135 0.43 0.0
H309 H 0.43552 0.79842 0.48064 0.0
H310 H 0.39582 0.80789 0.48223 0.0
H311 H 0.42819 0.81851 0.52022 0.0
H312 H 0.45503 0.89269 0.36408 0.0
H313 H 0.45324 0.93665 0.37415 0.0
H314 H 0.41437 0.89718 0.3724 0.0
C315 C 0.25383 0.66458 0.70193 0.0
C316 C 0.28324 0.68984 0.68731 0.0
C317 C 0.22412 0.64641 0.67963 0.0
C318 C 0.22306 0.65477 0.64189 0.0
C319 C 0.25097 0.6831 0.62757 0.0
C320 C 0.28095 0.69982 0.65025 0.0
C321 C 0.19533 0.61591 0.69605 0.0
C322 C 0.25035 0.69384 0.5877 0.0
C323 C 0.17835 0.57649 0.57966 0.0
C324 C 0.14536 0.57982 0.57143 0.0
C325 C 0.20348 0.60048 0.60276 0.0
C326 C 0.19615 0.62975 0.61694 0.0
C327 C 0.16332 0.6342 0.6078 0.0
C328 C 0.13798 0.6087 0.58564 0.0
C329 C 0.23773 0.59399 0.61243 0.0
C330 C 0.15511 0.66593 0.62119 0.0
H331 H 0.25458 0.65756 0.73069 0.0
H332 H 0.30324 0.71917 0.63829 0.0
H333 H 0.16955 0.61797 0.68643 0.0
H334 H 0.19591 0.5894 0.68732 0.0
H335 H 0.198 0.61578 0.72617 0.0
H336 H 0.26994 0.72093 0.58232 0.0
H337 H 0.2562 0.6734 0.57227 0.0
H338 H 0.22425 0.69456 0.57723 0.0
H339 H 0.18446 0.5545 0.56868 0.0
H340 H 0.11266 0.61166 0.57903 0.0
H341 H 0.24255 0.59179 0.64234 0.0
H342 H 0.25933 0.61736 0.60244 0.0
H343 H 0.23851 0.56878 0.60066 0.0
H344 H 0.15588 0.66447 0.65123 0.0
H345 H 0.12912 0.6666 0.61012 0.0
H346 H 0.17508 0.69191 0.61338 0.0
C347 C 0.42137 0.21609 0.70528 0.0
C348 C 0.40188 0.23535 0.6851 0.0
C349 C 0.43573 0.19376 0.68819 0.0
C350 C 0.43061 0.19062 0.64997 0.0
C351 C 0.41108 0.21008 0.62951 0.0
C352 C 0.39705 0.23215 0.64724 0.0
C353 C 0.45654 0.17364 0.71101 0.0
C354 C 0.4052 0.20785 0.58875 0.0
C355 C 0.49634 0.16428 0.60179 0.0
C356 C 0.47896 0.12719 0.59529 0.0
C357 C 0.48089 0.18505 0.61941 0.0
C358 C 0.44712 0.16849 0.63115 0.0
C359 C 0.42918 0.13115 0.62442 0.0
C360 C 0.44527 0.11096 0.60648 0.0
C361 C 0.50084 0.22483 0.62544 0.0
C362 C 0.39304 0.11254 0.63628 0.0
H363 H 0.42496 0.21803 0.73452 0.0
H364 H 0.38252 0.24732 0.63128 0.0
H365 H 0.4452 0.14397 0.70645 0.0
H366 H 0.48356 0.1827 0.7028 0.0
H367 H 0.4574 0.17813 0.74044 0.0
H368 H 0.38912 0.22437 0.57677 0.0
H369 H 0.43049 0.21749 0.57646 0.0
H370 H 0.39207 0.1791 0.5812 0.0
H371 H 0.52226 0.17733 0.59303 0.0
H372 H 0.43159 0.08241 0.60154 0.0
H373 H 0.50393 0.23023 0.65482 0.0
H374 H 0.48615 0.24196 0.61172 0.0
H375 H 0.52702 0.23352 0.615 0.0
H376 H 0.39319 0.11438 0.66605 0.0
H377 H 0.38263 0.08337 0.62924 0.0
H378 H 0.37515 0.12655 0.6233 0.0
C379 C 0.84925 0.39046 0.6847 0.0
C380 C 0.84934 0.35684 0.7004 0.0
C381 C 0.87847 0.41391 0.66829 0.0
C382 C 0.90865 0.40371 0.66838 0.0
C383 C 0.90939 0.37058 0.68598 0.0
C384 C 0.8795 0.34727 0.70134 0.0
C385 C 0.87638 0.44868 0.64926 0.0
C386 C 0.94131 0.35917 0.68749 0.0
C387 C 0.96577 0.44205 0.59066 0.0
C388 C 0.99095 0.47278 0.60597 0.0
C389 C 0.93922 0.41903 0.61089 0.0
C390 C 0.9383 0.42634 0.64766 0.0
C391 C 0.96475 0.45614 0.66387 0.0
C392 C 0.99053 0.47931 0.64269 0.0
C393 C 0.91119 0.38793 0.59235 0.0
C394 C 0.9652 0.46421 0.70324 0.0
H395 H 0.82573 0.39758 0.68374 0.0
H396 H 0.87945 0.32122 0.71361 0.0
H397 H 0.89839 0.47238 0.65942 0.0
H398 H 0.87846 0.44743 0.61977 0.0
H399 H 0.85167 0.45344 0.65308 0.0
H400 H 0.93903 0.33477 0.70563 0.0
H401 H 0.94544 0.35281 0.65989 0.0
H402 H 0.9647 0.38177 0.69713 0.0
H403 H 0.96566 0.43699 0.56221 0.0
H404 H 1.00998 0.50297 0.65469 0.0
H405 H 0.88565 0.39205 0.59249 0.0
H406 H 0.90923 0.36181 0.6073 0.0
H407 H 0.91609 0.38548 0.56381 0.0
H408 H 0.94272 0.47303 0.70719 0.0
H409 H 0.98942 0.48597 0.71268 0.0
H410 H 0.96263 0.43925 0.72054 0.0
C411 C 0.6571 0.74102 0.56619 0.0
C412 C 0.67583 0.73256 0.597 0.0
C413 C 0.64728 0.77234 0.56447 0.0
C414 C 0.65663 0.79564 0.59428 0.0
C415 C 0.67486 0.78654 0.62588 0.0
C416 C 0.68441 0.755 0.62681 0.0
C417 C 0.6279 0.78119 0.53036 0.0
C418 C 0.68481 0.81044 0.65834 0.0
C419 C 0.66382 0.8948 0.57468 0.0
C420 C 0.63085 0.89437 0.58213 0.0
C421 C 0.67263 0.86281 0.57849 0.0
C422 C 0.64832 0.83013 0.59159 0.0
C423 C 0.61539 0.83003 0.60033 0.0
C424 C 0.60679 0.86203 0.59475 0.0
C425 C 0.70792 0.8642 0.56838 0.0
C426 C 0.58917 0.79613 0.61537 0.0
H427 H 0.65081 0.72355 0.5431 0.0
H428 H 0.69911 0.74825 0.65051 0.0
H429 H 0.60267 0.78314 0.53667 0.0
H430 H 0.64314 0.80815 0.51885 0.0
H431 H 0.6228 0.76039 0.50952 0.0
H432 H 0.69609 0.79787 0.68192 0.0
H433 H 0.70421 0.83702 0.65111 0.0
H434 H 0.66176 0.81605 0.6665 0.0
H435 H 0.68227 0.91987 0.56467 0.0
H436 H 0.58134 0.86191 0.60073 0.0
H437 H 0.7065 0.83914 0.55481 0.0
H438 H 0.7256 0.86635 0.5934 0.0
H439 H 0.71957 0.88812 0.55017 0.0
H440 H 0.58057 0.77483 0.59478 0.0
H441 H 0.56589 0.80143 0.62347 0.0
H442 H 0.60124 0.78498 0.63935 0.0
C443 C 0.39051 0.24693 0.44761 0.0
C444 C 0.40718 0.27018 0.41949 0.0
C445 C 0.40155 0.21793 0.46171 0.0
C446 C 0.42948 0.2115 0.44686 0.0
C447 C 0.44644 0.23482 0.41855 0.0
C448 C 0.4353 0.264 0.40545 0.0
C449 C 0.3827 0.19376 0.49189 0.0
C450 C 0.47616 0.22871 0.40178 0.0
C451 C 0.48017 0.15454 0.49665 0.0
C452 C 0.46482 0.12089 0.48011 0.0
C453 C 0.46781 0.18378 0.4874 0.0
C454 C 0.44039 0.17972 0.4599 0.0
C455 C 0.42448 0.14569 0.44348 0.0
C456 C 0.43659 0.11658 0.45411 0.0
C457 C 0.48442 0.21917 0.50666 0.0
C458 C 0.39538 0.14035 0.41383 0.0
H459 H 0.36846 0.25107 0.45835 0.0
H460 H 0.44885 0.28218 0.38429 0.0
H461 H 0.36414 0.16833 0.48037 0.0
H462 H 0.4011 0.18597 0.51201 0.0
H463 H 0.36781 0.20718 0.50612 0.0
H464 H 0.48643 0.24916 0.37979 0.0
H465 H 0.49767 0.22997 0.42285 0.0
H466 H 0.46745 0.20113 0.39042 0.0
H467 H 0.50201 0.15819 0.51668 0.0
H468 H 0.42464 0.09074 0.44106 0.0
H469 H 0.46414 0.22813 0.51705 0.0
H470 H 0.49844 0.24075 0.48729 0.0
H471 H 0.50308 0.2168 0.52974 0.0
H472 H 0.37352 0.14695 0.4237 0.0
H473 H 0.38543 0.11202 0.40419 0.0
H474 H 0.40467 0.15924 0.39044 0.0
C475 C 0.82137 0.32302 0.39057 0.0
C476 C 0.82126 0.32397 0.35258 0.0
C477 C 0.85062 0.34369 0.41211 0.0
C478 C 0.88014 0.36675 0.39527 0.0
C479 C 0.88111 0.36605 0.35727 0.0
C480 C 0.85195 0.34419 0.33652 0.0
C481 C 0.84895 0.34275 0.45269 0.0
C482 C 0.9118 0.39062 0.3381 0.0
C483 C 0.92714 0.45587 0.44145 0.0
C484 C 0.95805 0.45083 0.45628 0.0
C485 C 0.90203 0.42894 0.4211 0.0
C486 C 0.90735 0.39545 0.41644 0.0
C487 C 0.93838 0.38991 0.43177 0.0
C488 C 0.96374 0.41802 0.45104 0.0
C489 C 0.86984 0.43652 0.40441 0.0
C490 C 0.9444 0.35413 0.42847 0.0
H491 H 0.79798 0.30774 0.40354 0.0
H492 H 0.85276 0.34422 0.30738 0.0
H493 H 0.87381 0.34204 0.46701 0.0
H494 H 0.84464 0.3678 0.46059 0.0
H495 H 0.82746 0.3188 0.46209 0.0
H496 H 0.91028 0.38386 0.30918 0.0
H497 H 0.91266 0.41932 0.33924 0.0
H498 H 0.93652 0.38884 0.35174 0.0
H499 H 0.92279 0.48128 0.44521 0.0
H500 H 0.98754 0.41401 0.46284 0.0
H501 H 0.84642 0.41708 0.416 0.0
H502 H 0.86693 0.43257 0.37473 0.0
H503 H 0.87057 0.46467 0.40909 0.0
H504 H 0.92362 0.33183 0.4412 0.0
H505 H 0.97 0.35428 0.44164 0.0
H506 H 0.943 0.34776 0.39951 0.0
C507 C 0.7165 0.79478 0.41331 0.0
C508 C 0.7149 0.79987 0.37557 0.0
C509 C 0.69996 0.81164 0.4347 0.0
C510 C 0.68116 0.83389 0.41778 0.0
C511 C 0.67941 0.83872 0.37945 0.0
C512 C 0.69633 0.82166 0.35885 0.0
C513 C 0.70252 0.80498 0.47525 0.0
C514 C 0.66021 0.86252 0.3602 0.0
C515 C 0.61054 0.85487 0.4632 0.0
C516 C 0.62776 0.89063 0.47452 0.0
C517 C 0.62791 0.83561 0.44598 0.0
C518 C 0.66339 0.85242 0.43967 0.0
C519 C 0.68129 0.88792 0.45235 0.0
C520 C 0.66331 0.90657 0.4696 0.0
C521 C 0.608 0.79752 0.43378 0.0
C522 C 0.71933 0.90648 0.44704 0.0
H523 H 0.73109 0.77801 0.42619 0.0
H524 H 0.69551 0.82585 0.3296 0.0
H525 H 0.70103 0.82814 0.4901 0.0
H526 H 0.68071 0.7803 0.48232 0.0
H527 H 0.72711 0.79985 0.48475 0.0
H528 H 0.66141 0.86362 0.33031 0.0
H529 H 0.63252 0.85214 0.36628 0.0
H530 H 0.67143 0.89065 0.37018 0.0
H531 H 0.58319 0.84201 0.46719 0.0
H532 H 0.67704 0.93393 0.47867 0.0
H533 H 0.6232 0.77899 0.44172 0.0
H534 H 0.6036 0.79781 0.40377 0.0
H535 H 0.58237 0.78628 0.44541 0.0
H536 H 0.73456 0.88927 0.45937 0.0
H537 H 0.72979 0.93369 0.45928 0.0
H538 H 0.72323 0.90984 0.41762 0.0
C539 C 0.24402 0.67532 0.33673 0.0
C540 C 0.27217 0.66225 0.34191 0.0
C541 C 0.21164 0.65501 0.34926 0.0
C542 C 0.2077 0.6213 0.36821 0.0
C543 C 0.23594 0.60758 0.37263 0.0
C544 C 0.26785 0.62817 0.35911 0.0
C545 C 0.18202 0.67018 0.34328 0.0
C546 C 0.23296 0.572 0.39312 0.0
C547 C 0.1417 0.58895 0.43888 0.0
C548 C 0.11624 0.55945 0.42191 0.0
C549 C 0.17121 0.6098 0.42136 0.0
C550 C 0.17495 0.60158 0.38563 0.0
C551 C 0.14824 0.57342 0.36746 0.0
C552 C 0.11938 0.55238 0.38598 0.0
C553 C 0.1993 0.63926 0.44193 0.0
C554 C 0.15083 0.56449 0.32903 0.0
H555 H 0.24762 0.70182 0.32345 0.0
H556 H 0.28987 0.61841 0.36334 0.0
H557 H 0.15824 0.64927 0.33168 0.0
H558 H 0.17599 0.67765 0.36963 0.0
H559 H 0.18822 0.69475 0.32483 0.0
H560 H 0.2568 0.56442 0.39285 0.0
H561 H 0.22817 0.57414 0.42173 0.0
H562 H 0.21052 0.5497 0.38126 0.0
H563 H 0.13972 0.59439 0.46677 0.0
H564 H 0.09978 0.52965 0.37271 0.0
H565 H 0.20531 0.66555 0.42625 0.0
H566 H 0.22351 0.63211 0.44567 0.0
H567 H 0.19185 0.6431 0.46905 0.0
H568 H 0.15765 0.58963 0.31147 0.0
H569 H 0.12619 0.54479 0.31737 0.0
H570 H 0.17185 0.55253 0.32845 0.0
C571 C 0.39517 0.81491 0.71224 0.0
C572 C 0.40181 0.78192 0.71154 0.0
C573 C 0.41819 0.84745 0.69824 0.0
C574 C 0.44801 0.84671 0.68227 0.0
C575 C 0.45528 0.81357 0.68246 0.0
C576 C 0.43225 0.78164 0.69747 0.0
C577 C 0.40993 0.88232 0.69937 0.0
C578 C 0.4864 0.81141 0.66507 0.0
C579 C 0.48367 0.91585 0.60666 0.0
C580 C 0.51489 0.93857 0.62356 0.0
C581 C 0.46145 0.88629 0.62564 0.0
C582 C 0.47009 0.87977 0.66279 0.0
C583 C 0.50062 0.90375 0.68055 0.0
C584 C 0.52292 0.93258 0.66059 0.0
C585 C 0.42961 0.86098 0.60538 0.0
C586 C 0.51027 0.89826 0.72032 0.0
H587 H 0.3716 0.81507 0.72319 0.0
H588 H 0.43713 0.75601 0.69655 0.0
H589 H 0.43312 0.90446 0.71026 0.0
H590 H 0.40284 0.89102 0.67147 0.0
H591 H 0.38807 0.87915 0.71629 0.0
H592 H 0.48928 0.78402 0.66898 0.0
H593 H 0.48377 0.81777 0.63553 0.0
H594 H 0.51055 0.83192 0.67648 0.0
H595 H 0.47738 0.91996 0.57797 0.0
H596 H 0.54698 0.95004 0.67381 0.0
H597 H 0.40598 0.8585 0.6191 0.0
H598 H 0.43179 0.83333 0.6054 0.0
H599 H 0.42607 0.87043 0.57679 0.0
H600 H 0.48783 0.89499 0.73638 0.0
H601 H 0.53274 0.92137 0.73093 0.0
H602 H 0.51705 0.87293 0.7246 0.0
C603 C 0.26872 0.33361 0.63085 0.0
C604 C 0.27119 0.32845 0.66854 0.0
C605 C 0.24854 0.35387 0.61386 0.0
C606 C 0.23027 0.36916 0.63513 0.0
C607 C 0.23337 0.36454 0.67346 0.0
C608 C 0.25375 0.34403 0.68975 0.0
C609 C 0.24577 0.35771 0.57306 0.0
C610 C 0.2147 0.38075 0.69715 0.0
C611 C 0.20185 0.44722 0.59251 0.0
C612 C 0.16652 0.42968 0.58202 0.0
C613 C 0.22272 0.42793 0.6099 0.0
C614 C 0.20806 0.39002 0.61718 0.0
C615 C 0.17246 0.37204 0.60656 0.0
C616 C 0.15211 0.39207 0.58909 0.0
C617 C 0.26062 0.44813 0.6202 0.0
C618 C 0.1559 0.33158 0.61352 0.0
H619 H 0.28191 0.321 0.61453 0.0
H620 H 0.25547 0.33957 0.71896 0.0
H621 H 0.21896 0.34196 0.56264 0.0
H622 H 0.25062 0.38659 0.56418 0.0
H623 H 0.26428 0.34751 0.56066 0.0
H624 H 0.22043 0.37545 0.72649 0.0
H625 H 0.22231 0.41064 0.69182 0.0
H626 H 0.18622 0.36922 0.69048 0.0
H627 H 0.21343 0.47624 0.58704 0.0
H628 H 0.12493 0.37825 0.58101 0.0
H629 H 0.27712 0.43708 0.60557 0.0
H630 H 0.26671 0.44406 0.64967 0.0
H631 H 0.26778 0.47784 0.61372 0.0
H632 H 0.16931 0.31654 0.59935 0.0
H633 H 0.12782 0.32175 0.60419 0.0
H634 H 0.15881 0.32482 0.64294 0.0
C635 C 0.75342 0.23886 0.64616 0.0
C636 C 0.75288 0.23783 0.68408 0.0
C637 C 0.73172 0.20978 0.62539 0.0
C638 C 0.70813 0.17946 0.64279 0.0
C639 C 0.70922 0.17703 0.68112 0.0
C640 C 0.73204 0.20591 0.70129 0.0
C641 C 0.73222 0.21285 0.58462 0.0
C642 C 0.68417 0.14549 0.70081 0.0
C643 C 0.62035 0.13838 0.5914 0.0
C644 C 0.62152 0.10463 0.58183 0.0
C645 C 0.64828 0.16266 0.61143 0.0
C646 C 0.67879 0.15361 0.62108 0.0
C647 C 0.6806 0.11996 0.61063 0.0
C648 C 0.65161 0.0955 0.59162 0.0
C649 C 0.64481 0.19781 0.62276 0.0
C650 C 0.71317 0.11002 0.61925 0.0
H651 H 0.76925 0.26321 0.63233 0.0
H652 H 0.73225 0.20413 0.7306 0.0
H653 H 0.73006 0.18634 0.57347 0.0
H654 H 0.70964 0.22053 0.5726 0.0
H655 H 0.75631 0.23384 0.57592 0.0
H656 H 0.69103 0.14549 0.73055 0.0
H657 H 0.65757 0.14721 0.69585 0.0
H658 H 0.6834 0.11914 0.69045 0.0
H659 H 0.59717 0.14557 0.58396 0.0
H660 H 0.65269 0.06955 0.58388 0.0
H661 H 0.6647 0.22144 0.61061 0.0
H662 H 0.64937 0.19985 0.65267 0.0
H663 H 0.61875 0.19996 0.61434 0.0
H664 H 0.7356 0.13147 0.608 0.0
H665 H 0.71083 0.08345 0.60805 0.0
H666 H 0.71906 0.10858 0.64903 0.0
C667 C 0.82483 0.65992 0.59416 0.0
C668 C 0.80557 0.63775 0.62142 0.0
C669 C 0.85302 0.65271 0.58154 0.0
C670 C 0.86279 0.6231 0.59712 0.0
C671 C 0.8439 0.60094 0.62502 0.0
C672 C 0.81536 0.60834 0.63662 0.0
C673 C 0.8725 0.67703 0.55178 0.0
C674 C 0.85379 0.56932 0.64254 0.0
C675 C 0.91564 0.58103 0.54667 0.0
C676 C 0.94939 0.59791 0.56234 0.0
C677 C 0.88742 0.59003 0.55672 0.0
C678 C 0.89282 0.61526 0.58435 0.0
C679 C 0.92679 0.63237 0.60033 0.0
C680 C 0.95475 0.6239 0.58873 0.0
C681 C 0.85182 0.5725 0.53782 0.0
C682 C 0.9335 0.65895 0.6303 0.0
H683 H 0.81798 0.68316 0.58273 0.0
H684 H 0.80041 0.59071 0.65727 0.0
H685 H 0.85793 0.69435 0.5381 0.0
H686 H 0.89789 0.69516 0.56347 0.0
H687 H 0.87789 0.66064 0.53115 0.0
H688 H 0.83721 0.55552 0.66476 0.0
H689 H 0.85144 0.54902 0.62194 0.0
H690 H 0.88132 0.57897 0.65376 0.0
H691 H 0.91117 0.5607 0.52653 0.0
H692 H 0.98071 0.63682 0.60124 0.0
H693 H 0.84125 0.59387 0.5259 0.0
H694 H 0.83371 0.55605 0.5577 0.0
H695 H 0.85228 0.55459 0.51585 0.0
H696 H 0.92469 0.68221 0.62071 0.0
H697 H 0.96144 0.66974 0.64005 0.0
H698 H 0.91835 0.64541 0.65356 0.0
C699 C 0.37152 0.37289 0.29611 0.0
C700 C 0.39271 0.35508 0.31575 0.0
C701 C 0.37849 0.38753 0.26083 0.0
C702 C 0.40683 0.38359 0.24447 0.0
C703 C 0.42766 0.3648 0.26367 0.0
C704 C 0.4207 0.35134 0.29909 0.0
C705 C 0.35617 0.40809 0.24148 0.0
C706 C 0.45801 0.35969 0.24716 0.0
C707 C 0.41684 0.39437 0.14307 0.0
C708 C 0.44437 0.42742 0.14111 0.0
C709 C 0.40294 0.38046 0.17632 0.0
C710 C 0.4163 0.40058 0.20809 0.0
C711 C 0.44223 0.43522 0.20564 0.0
C712 C 0.45641 0.44782 0.17241 0.0
C713 C 0.37569 0.34316 0.17786 0.0
C714 C 0.45656 0.45815 0.23855 0.0
H715 H 0.34958 0.37565 0.30833 0.0
H716 H 0.43799 0.33869 0.31404 0.0
H717 H 0.37223 0.43698 0.23674 0.0
H718 H 0.34566 0.39658 0.21453 0.0
H719 H 0.33414 0.40734 0.25718 0.0
H720 H 0.46987 0.34191 0.26449 0.0
H721 H 0.44953 0.3475 0.22016 0.0
H722 H 0.47831 0.38654 0.24309 0.0
H723 H 0.40744 0.37833 0.11906 0.0
H724 H 0.47772 0.47326 0.17136 0.0
H725 H 0.35397 0.34354 0.19337 0.0
H726 H 0.38735 0.32362 0.19222 0.0
H727 H 0.36504 0.333 0.15039 0.0
H728 H 0.47215 0.48659 0.23103 0.0
H729 H 0.47346 0.44599 0.2564 0.0
H730 H 0.4352 0.45881 0.25448 0.0
C731 C 0.44613 0.64595 0.81776 0.0
C732 C 0.42329 0.66242 0.82856 0.0
C733 C 0.46855 0.63498 0.84348 0.0
C734 C 0.46783 0.64053 0.8808 0.0
C735 C 0.44576 0.65873 0.89151 0.0
C736 C 0.42357 0.66934 0.86516 0.0
C737 C 0.4917 0.61576 0.83088 0.0
C738 C 0.4443 0.6653 0.93093 0.0
C739 C 0.49416 0.57287 0.94557 0.0
C740 C 0.52912 0.59231 0.95563 0.0
C741 C 0.47365 0.58867 0.92216 0.0
C742 C 0.48829 0.62493 0.90859 0.0
C743 C 0.523 0.64531 0.92 0.0
C744 C 0.543 0.62878 0.94332 0.0
C745 C 0.43671 0.56596 0.91069 0.0
C746 C 0.5395 0.68409 0.90637 0.0
H747 H 0.44539 0.64021 0.78938 0.0
H748 H 0.4054 0.68165 0.87337 0.0
H749 H 0.51895 0.6288 0.84193 0.0
H750 H 0.48323 0.58702 0.84124 0.0
H751 H 0.49106 0.61595 0.80083 0.0
H752 H 0.42848 0.68295 0.93442 0.0
H753 H 0.43278 0.63886 0.94558 0.0
H754 H 0.47087 0.67819 0.94384 0.0
H755 H 0.48311 0.5447 0.9548 0.0
H756 H 0.56992 0.64417 0.95097 0.0
H757 H 0.43421 0.56127 0.88119 0.0
H758 H 0.41858 0.58064 0.91548 0.0
H759 H 0.42851 0.53909 0.92544 0.0
H760 H 0.54223 0.68447 0.87684 0.0
H761 H 0.5656 0.69729 0.92031 0.0
H762 H 0.52269 0.70054 0.91028 0.0
C763 C 0.44396 0.3437 0.78112 0.0
C764 C 0.40755 0.32779 0.77843 0.0
C765 C 0.46178 0.36544 0.81046 0.0
C766 C 0.44285 0.37241 0.83757 0.0
C767 C 0.40617 0.3567 0.83504 0.0
C768 C 0.38909 0.33429 0.80593 0.0
C769 C 0.50095 0.38124 0.81227 0.0
C770 C 0.38488 0.36393 0.8629 0.0
C771 C 0.49218 0.40721 0.92819 0.0
C772 C 0.50138 0.44504 0.92228 0.0
C773 C 0.47269 0.38314 0.90111 0.0
C774 C 0.46141 0.39723 0.86774 0.0
C775 C 0.46916 0.4354 0.86257 0.0
C776 C 0.48942 0.45877 0.88962 0.0
C777 C 0.46565 0.34274 0.9075 0.0
C778 C 0.4569 0.45169 0.82799 0.0
H779 H 0.45871 0.33965 0.76001 0.0
H780 H 0.36112 0.32166 0.80496 0.0
H781 H 0.50911 0.4114 0.80977 0.0
H782 H 0.5123 0.37409 0.83892 0.0
H783 H 0.51203 0.37133 0.79048 0.0
H784 H 0.35656 0.34995 0.85697 0.0
H785 H 0.39281 0.35471 0.89025 0.0
H786 H 0.38973 0.39366 0.86382 0.0
H787 H 0.50178 0.39651 0.95318 0.0
H788 H 0.49644 0.48803 0.88498 0.0
H789 H 0.4792 0.33294 0.88798 0.0
H790 H 0.43746 0.32766 0.9027 0.0
H791 H 0.47458 0.33595 0.93547 0.0
H792 H 0.47006 0.44687 0.80496 0.0
H793 H 0.46237 0.4815 0.82955 0.0
H794 H 0.42854 0.43834 0.82191 0.0
C795 C 0.74517 0.41092 0.7935 0.0
C796 C 0.74492 0.37828 0.81172 0.0
C797 C 0.73129 0.43472 0.80878 0.0
C798 C 0.71641 0.42505 0.84255 0.0
C799 C 0.71778 0.39278 0.86162 0.0
C800 C 0.73216 0.36987 0.84596 0.0
C801 C 0.73138 0.46948 0.78833 0.0
C802 C 0.70198 0.38114 0.89748 0.0
C803 C 0.68956 0.48644 0.90069 0.0
C804 C 0.65355 0.47514 0.89184 0.0
C805 C 0.711 0.47249 0.88285 0.0
C806 C 0.69586 0.44594 0.85631 0.0
C807 C 0.65975 0.4359 0.84606 0.0
C808 C 0.63914 0.45095 0.86366 0.0
C809 C 0.74951 0.48483 0.89372 0.0
C810 C 0.6424 0.40746 0.81815 0.0
H811 H 0.75498 0.41715 0.76685 0.0
H812 H 0.73179 0.34431 0.85973 0.0
H813 H 0.70432 0.46906 0.78108 0.0
H814 H 0.74423 0.49298 0.80593 0.0
H815 H 0.74509 0.4738 0.76312 0.0
H816 H 0.70709 0.35648 0.9098 0.0
H817 H 0.71242 0.40344 0.91692 0.0
H818 H 0.67343 0.37517 0.89346 0.0
H819 H 0.70091 0.50568 0.92202 0.0
H820 H 0.61133 0.44223 0.85659 0.0
H821 H 0.76458 0.48959 0.86949 0.0
H822 H 0.75589 0.46321 0.91096 0.0
H823 H 0.75804 0.51021 0.90926 0.0
H824 H 0.65595 0.41449 0.79281 0.0
H825 H 0.61457 0.40451 0.81149 0.0
H826 H 0.64408 0.38069 0.82858 0.0
C827 C 0.73241 0.60662 0.73784 0.0
C828 C 0.72859 0.63794 0.71951 0.0
C829 C 0.72158 0.5965 0.77293 0.0
C830 C 0.70602 0.61787 0.79005 0.0
C831 C 0.70279 0.64997 0.77214 0.0
C832 C 0.71424 0.6597 0.73719 0.0
C833 C 0.72563 0.56214 0.79104 0.0
C834 C 0.68626 0.67345 0.78945 0.0
C835 C 0.64133 0.57092 0.85925 0.0
C836 C 0.6607 0.58255 0.89221 0.0
C837 C 0.6559 0.58198 0.82597 0.0
C838 C 0.69081 0.60524 0.82546 0.0
C839 C 0.71081 0.61652 0.8586 0.0
C840 C 0.69549 0.60509 0.89163 0.0
C841 C 0.63371 0.56915 0.79128 0.0
C842 C 0.74829 0.64084 0.85913 0.0
H843 H 0.74288 0.58921 0.72431 0.0
H844 H 0.71165 0.68423 0.72356 0.0
H845 H 0.73658 0.56692 0.81955 0.0
H846 H 0.69978 0.54066 0.79158 0.0
H847 H 0.74276 0.55178 0.77652 0.0
H848 H 0.68731 0.69852 0.77282 0.0
H849 H 0.65863 0.65768 0.79325 0.0
H850 H 0.69944 0.68146 0.81669 0.0
H851 H 0.61444 0.55348 0.85933 0.0
H852 H 0.7107 0.61405 0.91695 0.0
H853 H 0.64599 0.55424 0.77545 0.0
H854 H 0.63169 0.59296 0.77423 0.0
H855 H 0.60706 0.55096 0.79638 0.0
H856 H 0.76344 0.6279 0.84473 0.0
H857 H 0.76052 0.64656 0.88716 0.0
H858 H 0.75002 0.66709 0.84455 0.0
C859 C 0.68255 0.6652 0.24727 0.0
C860 C 0.71758 0.668 0.25517 0.0
C861 C 0.66258 0.64544 0.21763 0.0
C862 C 0.67783 0.62782 0.19522 0.0
C863 C 0.71333 0.63115 0.20254 0.0
C864 C 0.73274 0.65121 0.23226 0.0
C865 C 0.62481 0.64259 0.21089 0.0
C866 C 0.73065 0.61278 0.17948 0.0
C867 C 0.61536 0.54457 0.14781 0.0
C868 C 0.61024 0.55842 0.11257 0.0
C869 C 0.63798 0.56657 0.17446 0.0
C870 C 0.65591 0.60367 0.16597 0.0
C871 C 0.6518 0.61763 0.1301 0.0
C872 C 0.62914 0.59477 0.10372 0.0
C873 C 0.64186 0.55026 0.21207 0.0
C874 C 0.67036 0.65702 0.11994 0.0
H875 H 0.67042 0.67773 0.26484 0.0
H876 H 0.75993 0.65376 0.23752 0.0
H877 H 0.61922 0.65078 0.18236 0.0
H878 H 0.60809 0.61387 0.21515 0.0
H879 H 0.61745 0.65987 0.22913 0.0
H880 H 0.75889 0.61963 0.18745 0.0
H881 H 0.71823 0.58278 0.18198 0.0
H882 H 0.72716 0.62084 0.15048 0.0
H883 H 0.60112 0.51642 0.15485 0.0
H884 H 0.62521 0.60573 0.07664 0.0
H885 H 0.63181 0.56375 0.23179 0.0
H886 H 0.66972 0.55499 0.22052 0.0
H887 H 0.62764 0.52049 0.21373 0.0
H888 H 0.66085 0.67481 0.13533 0.0
H889 H 0.66624 0.66313 0.09049 0.0
H890 H 0.69867 0.66412 0.12741 0.0
C891 C 0.38525 0.6493 0.1921 0.0
C892 C 0.37288 0.63911 0.22636 0.0
C893 C 0.39787 0.62656 0.17375 0.0
C894 C 0.39781 0.59263 0.19008 0.0
C895 C 0.38303 0.58114 0.22372 0.0
C896 C 0.37105 0.60485 0.24179 0.0
C897 C 0.41372 0.64017 0.13822 0.0
C898 C 0.38178 0.54486 0.24161 0.0
C899 C 0.42223 0.53279 0.12753 0.0
C900 C 0.45801 0.54174 0.13708 0.0
C901 C 0.40165 0.54734 0.14606 0.0
C902 C 0.41744 0.57202 0.17413 0.0
C903 C 0.45333 0.58009 0.18459 0.0
C904 C 0.47303 0.56458 0.16622 0.0
C905 C 0.36328 0.53717 0.13491 0.0
C906 C 0.47141 0.60657 0.21406 0.0
H907 H 0.38688 0.67606 0.18049 0.0
H908 H 0.36167 0.59723 0.26852 0.0
H909 H 0.44219 0.64545 0.14195 0.0
H910 H 0.40289 0.61927 0.11739 0.0
H911 H 0.40919 0.66573 0.1278 0.0
H912 H 0.36408 0.53716 0.26388 0.0
H913 H 0.37312 0.52307 0.22149 0.0
H914 H 0.4082 0.54625 0.25315 0.0
H915 H 0.41035 0.51463 0.10545 0.0
H916 H 0.50064 0.57149 0.17389 0.0
H917 H 0.35769 0.56095 0.12108 0.0
H918 H 0.34808 0.52965 0.15914 0.0
H919 H 0.35416 0.51409 0.1162 0.0
H920 H 0.47019 0.63403 0.20571 0.0
H921 H 0.49913 0.60871 0.21998 0.0
H922 H 0.45807 0.59808 0.23942 0.0
C923 C 0.68366 0.33022 0.16403 0.0
C924 C 0.68637 0.33708 0.20097 0.0
C925 C 0.66186 0.34312 0.13921 0.0
C926 C 0.6426 0.36353 0.15179 0.0
C927 C 0.64445 0.36933 0.18944 0.0
C928 C 0.66648 0.3561 0.21361 0.0
C929 C 0.66059 0.33627 0.09939 0.0
C930 C 0.62426 0.3908 0.20401 0.0
C931 C 0.61599 0.4325 0.08886 0.0
C932 C 0.58039 0.41418 0.08093 0.0
C933 C 0.63675 0.41594 0.11105 0.0
C934 C 0.62164 0.38014 0.1256 0.0
C935 C 0.58611 0.36093 0.11642 0.0
C936 C 0.56596 0.37814 0.09426 0.0
C937 C 0.67459 0.43733 0.12008 0.0
C938 C 0.56905 0.32266 0.13114 0.0
H939 H 0.69962 0.31598 0.15434 0.0
H940 H 0.66916 0.36183 0.24221 0.0
H941 H 0.63325 0.32427 0.08812 0.0
H942 H 0.67202 0.36249 0.08434 0.0
H943 H 0.67506 0.31769 0.09434 0.0
H944 H 0.62707 0.39118 0.23412 0.0
H945 H 0.63349 0.41932 0.1931 0.0
H946 H 0.59626 0.37909 0.19497 0.0
H947 H 0.62743 0.46034 0.07886 0.0
H948 H 0.53854 0.36357 0.08822 0.0
H949 H 0.69121 0.42143 0.11387 0.0
H950 H 0.67921 0.44246 0.14955 0.0
H951 H 0.68289 0.46396 0.10488 0.0
H952 H 0.58405 0.30487 0.12542 0.0
H953 H 0.54185 0.31051 0.1194 0.0
H954 H 0.56887 0.32292 0.16105 0.0
loop_
_geom_bond_atom_site_label_1
_geom_bond_atom_site_label_2
_geom_bond_distance
_geom_bond_site_symmetry_2
_ccdc_geom_bond_type
H0 C3 0.929 . S
H1 C6 0.929 . S
H2 C8 0.930 . S
C3 H0 0.929 . S
C3 C4 1.398 . S
C3 C5 1.396 . S
C4 C3 1.398 . S
C4 C8 1.407 . S
C5 C3 1.396 . S
C5 C6 1.394 . S
C6 H1 0.929 . S
C6 C5 1.394 . S
C6 C7 1.382 . S
C7 C6 1.382 . S
C7 C8 1.392 . S
C7 N9 1.420 . S
C8 H2 0.930 . S
C8 C4 1.407 . S
C8 C7 1.392 . S
N9 C7 1.420 . S
N9 C10 1.244 . S
C10 N9 1.244 . S
H11 C14 0.929 . S
H12 C17 0.929 . S
H13 C19 0.930 . S
C14 H11 0.929 . S
C14 C15 1.398 . S
C14 C16 1.396 . S
C15 C14 1.398 . S
C15 C19 1.407 . S
C16 C14 1.396 . S
C16 C17 1.394 . S
C17 H12 0.929 . S
C17 C16 1.394 . S
C17 C18 1.382 . S
C18 C17 1.382 . S
C18 C19 1.392 . S
C18 N20 1.420 . S
C19 H13 0.930 . S
C19 C15 1.407 . S
C19 C18 1.392 . S
N20 C18 1.420 . S
N20 C21 1.244 . S
C21 N20 1.244 . S
H22 C25 0.929 . S
H23 C28 0.929 . S
H24 C30 0.930 . S
C25 H22 0.929 . S
C25 C26 1.398 . S
C25 C27 1.396 . S
C26 C25 1.398 . S
C26 C30 1.407 . S
C27 C25 1.396 . S
C27 C28 1.394 . S
C28 H23 0.929 . S
C28 C27 1.394 . S
C28 C29 1.382 . S
C29 C28 1.382 . S
C29 C30 1.392 . S
C29 N31 1.420 . S
C30 H24 0.930 . S
C30 C26 1.407 . S
C30 C29 1.392 . S
N31 C29 1.420 . S
N31 C32 1.244 . S
C32 N31 1.244 . S
H33 C36 0.929 . S
H34 C39 0.929 . S
H35 C41 0.930 . S
C36 H33 0.929 . S
C36 C37 1.398 . S
C36 C38 1.396 . S
C37 C36 1.398 . S
C37 C41 1.407 . S
C38 C36 1.396 . S
C38 C39 1.394 . S
C39 H34 0.929 . S
C39 C38 1.394 . S
C39 C40 1.382 . S
C40 C39 1.382 . S
C40 C41 1.392 . S
C40 N42 1.420 . S
C41 H35 0.930 . S
C41 C37 1.407 . S
C41 C40 1.392 . S
N42 C40 1.420 . S
N42 C43 1.244 . S
C43 N42 1.244 . S
H44 C47 0.929 . S
H45 C50 0.929 . S
H46 C52 0.930 . S
C47 H44 0.929 . S
C47 C48 1.398 . S
C47 C49 1.396 . S
C48 C47 1.398 . S
C48 C52 1.407 . S
C49 C47 1.396 . S
C49 C50 1.394 . S
C50 H45 0.929 . S
C50 C49 1.394 . S
C50 C51 1.382 . S
C51 C50 1.382 . S
C51 C52 1.392 . S
C51 N53 1.420 . S
C52 H46 0.930 . S
C52 C48 1.407 . S
C52 C51 1.392 . S
N53 C51 1.420 . S
N53 C54 1.244 . S
C54 N53 1.244 . S
H55 C58 0.929 . S
H56 C61 0.929 . S
H57 C63 0.930 . S
C58 H55 0.929 . S
C58 C59 1.398 . S
C58 C60 1.396 . S
C59 C58 1.398 . S
C59 C63 1.407 . S
C60 C58 1.396 . S
C60 C61 1.394 . S
C61 H56 0.929 . S
C61 C60 1.394 . S
C61 C62 1.382 . S
C62 C61 1.382 . S
C62 C63 1.392 . S
C62 N64 1.420 . S
C63 H57 0.930 . S
C63 C59 1.407 . S
C63 C62 1.392 . S
N64 C62 1.420 . S
N64 C65 1.244 . S
C65 N64 1.244 . S
H66 C69 0.929 . S
H67 C72 0.929 . S
H68 C74 0.930 . S
C69 H66 0.929 . S
C69 C70 1.398 . S
C69 C71 1.396 . S
C70 C69 1.398 . S
C70 C74 1.407 . S
C71 C69 1.396 . S
C71 C72 1.394 . S
C72 H67 0.929 . S
C72 C71 1.394 . S
C72 C73 1.382 . S
C73 C72 1.382 . S
C73 C74 1.392 . S
C73 N75 1.420 . S
C74 H68 0.930 . S
C74 C70 1.407 . S
C74 C73 1.392 . S
N75 C73 1.420 . S
N75 C76 1.244 . S
C76 N75 1.244 . S
H77 C80 0.929 . S
H78 C83 0.929 . S
H79 C85 0.930 . S
C80 H77 0.929 . S
C80 C81 1.398 . S
C80 C82 1.396 . S
C81 C80 1.398 . S
C81 C85 1.407 . S
C82 C80 1.396 . S
C82 C83 1.394 . S
C83 H78 0.929 . S
C83 C82 1.394 . S
C83 C84 1.382 . S
C84 C83 1.382 . S
C84 C85 1.392 . S
C84 N86 1.420 . S
C85 H79 0.930 . S
C85 C81 1.407 . S
C85 C84 1.392 . S
N86 C84 1.420 . S
N86 C87 1.244 . S
C87 N86 1.244 . S
Co88 O91 2.042 . S
Co88 O98 2.264 . S
Co88 O117 2.286 . S
Co88 O118 2.069 . S
Co88 O120 2.015 . S
Co89 O91 2.122 . S
Co89 O97 2.073 . S
Co89 O98 2.327 . S
Co89 O99 1.976 . S
Co90 O91 2.087 . S
Co90 O93 2.087 . S
Co90 O100 2.111 . S
Co90 O101 2.143 1_455 S
Co90 O105 2.123 . S
Co90 O119 2.143 . S
O91 Co88 2.042 . S
O91 Co89 2.122 . S
O91 Co90 2.087 . S
O91 H92 0.980 . S
H92 O91 0.980 . S
O93 Co90 2.087 . S
O93 Co94 2.042 1_455 S
O93 Co95 2.122 1_455 S
O93 H96 0.980 . S
Co94 O93 2.042 1_655 S
Co94 O102 2.286 . S
Co94 O103 2.069 . S
Co94 O104 2.015 . S
Co94 O107 2.264 . S
Co95 O93 2.122 1_655 S
Co95 O106 1.976 . S
Co95 O107 2.327 . S
Co95 O108 2.073 . S
H96 O93 0.980 . S
O97 Co89 2.073 . S
O97 C112 1.245 . S
O98 Co88 2.264 . S
O98 Co89 2.327 . S
O98 C112 1.257 . S
O99 Co89 1.976 . S
O99 C111 1.251 . S
O100 Co90 2.111 . S
O100 C111 1.274 . S
O101 Co90 2.143 1_655 S
O101 C114 1.246 . S
O102 Co94 2.286 . S
O102 C113 1.259 . S
O103 Co94 2.069 . S
O103 C113 1.289 . S
O104 Co94 2.015 . S
O104 C114 1.257 . S
O105 Co90 2.123 . S
O105 C115 1.245 1_455 S
O106 Co95 1.976 . S
O106 C115 1.251 . S
O107 Co94 2.264 . S
O107 Co95 2.327 . S
O107 C116 1.257 . S
O108 Co95 2.073 . S
O108 C116 1.245 . S
C109 O117 1.259 . S
C109 O118 1.289 . S
C110 O119 1.246 . S
C110 O120 1.257 . S
C111 O99 1.251 . S
C111 O100 1.274 . S
C112 O97 1.245 . S
C112 O98 1.257 . S
C113 O102 1.259 . S
C113 O103 1.289 . S
C114 O101 1.246 . S
C114 O104 1.257 . S
C115 O105 1.245 1_655 S
C115 O106 1.251 . S
C116 O107 1.257 . S
C116 O108 1.245 . S
O117 Co88 2.286 . S
O117 C109 1.259 . S
O118 Co88 2.069 . S
O118 C109 1.289 . S
O119 Co90 2.143 . S
O119 C110 1.246 . S
O120 Co88 2.015 . S
O120 C110 1.257 . S
Co121 O124 2.042 . S
Co121 O131 2.264 . S
Co121 O150 2.286 . S
Co121 O151 2.069 . S
Co121 O153 2.015 . S
Co122 O124 2.122 . S
Co122 O130 2.073 . S
Co122 O131 2.327 . S
Co122 O132 1.976 . S
Co123 O124 2.087 1_545 S
Co123 O126 2.087 . S
Co123 O133 2.111 1_545 S
Co123 O134 2.143 . S
Co123 O138 2.111 . S
Co123 O152 2.143 1_545 S
O124 Co121 2.042 . S
O124 Co122 2.122 . S
O124 Co123 2.087 1_565 S
O124 H125 0.980 1_565 S
H125 O124 0.980 1_545 S
O126 Co123 2.087 . S
O126 Co127 2.042 . S
O126 Co128 2.122 . S
O126 H129 0.980 . S
Co127 O126 2.042 . S
Co127 O135 2.286 . S
Co127 O136 2.069 . S
Co127 O137 2.015 . S
Co127 O140 2.264 . S
Co128 O126 2.122 . S
Co128 O139 1.976 . S
Co128 O140 2.327 . S
Co128 O141 2.073 . S
H129 O126 0.980 . S
O130 Co122 2.073 . S
O130 C145 1.245 . S
O131 Co121 2.264 . S
O131 Co122 2.327 . S
O131 C145 1.257 . S
O132 Co122 1.976 . S
O132 C144 1.251 . S
O133 Co123 2.111 1_565 S
O133 C144 1.274 . S
O134 Co123 2.143 . S
O134 C147 1.246 . S
O135 Co127 2.286 . S
O135 C146 1.259 . S
O136 Co127 2.069 . S
O136 C146 1.289 . S
O137 Co127 2.015 . S
O137 C147 1.257 . S
O138 Co123 2.111 . S
O138 C148 1.274 . S
O139 Co128 1.976 . S
O139 C148 1.251 . S
O140 Co127 2.264 . S
O140 Co128 2.327 . S
O140 C149 1.257 . S
O141 Co128 2.073 . S
O141 C149 1.245 . S
C142 O150 1.259 . S
C142 O151 1.289 . S
C143 O152 1.246 . S
C143 O153 1.257 . S
C144 O132 1.251 . S
C144 O133 1.274 . S
C145 O130 1.245 . S
C145 O131 1.257 . S
C146 O135 1.259 . S
C146 O136 1.289 . S
C147 O134 1.246 . S
C147 O137 1.257 . S
C148 O138 1.274 . S
C148 O139 1.251 . S
C149 O140 1.257 . S
C149 O141 1.245 . S
O150 Co121 2.286 . S
O150 C142 1.259 . S
O151 Co121 2.069 . S
O151 C142 1.289 . S
O152 Co123 2.143 1_565 S
O152 C143 1.246 . S
O153 Co121 2.015 . S
O153 C143 1.257 . S
Co154 O157 2.042 . S
Co154 O164 2.264 . S
Co154 O183 2.286 . S
Co154 O184 2.069 . S
Co154 O186 2.015 . S
Co155 O157 2.122 . S
Co155 O163 2.073 . S
Co155 O164 2.327 . S
Co155 O165 1.976 . S
Co156 O157 2.087 . S
Co156 O159 2.087 1_554 S
Co156 O166 2.111 . S
Co156 O167 2.143 1_554 S
Co156 O171 2.111 1_554 S
Co156 O185 2.143 . S
O157 Co154 2.042 . S
O157 Co155 2.122 . S
O157 Co156 2.087 . S
O157 H158 0.980 . S
H158 O157 0.980 . S
O159 Co156 2.087 1_556 S
O159 Co160 2.042 . S
O159 Co161 2.122 . S
O159 H162 0.980 . S
Co160 O159 2.042 . S
Co160 O168 2.286 . S
Co160 O169 2.069 . S
Co160 O170 2.015 . S
Co160 O173 2.264 . S
Co161 O159 2.122 . S
Co161 O172 1.976 . S
Co161 O173 2.327 . S
Co161 O174 2.073 . S
H162 O159 0.980 . S
O163 Co155 2.073 . S
O163 C178 1.245 . S
O164 Co154 2.264 . S
O164 Co155 2.327 . S
O164 C178 1.257 . S
O165 Co155 1.976 . S
O165 C177 1.251 . S
O166 Co156 2.111 . S
O166 C177 1.274 . S
O167 Co156 2.143 1_556 S
O167 C180 1.246 . S
O168 Co160 2.286 . S
O168 C179 1.259 . S
O169 Co160 2.069 . S
O169 C179 1.289 . S
O170 Co160 2.015 . S
O170 C180 1.257 . S
O171 Co156 2.111 1_556 S
O171 C181 1.274 . S
O172 Co161 1.976 . S
O172 C181 1.251 . S
O173 Co160 2.264 . S
O173 Co161 2.327 . S
O173 C182 1.257 . S
O174 Co161 2.073 . S
O174 C182 1.245 . S
C175 O183 1.259 . S
C175 O184 1.289 . S
C176 O185 1.246 . S
C176 O186 1.257 . S
C177 O165 1.251 . S
C177 O166 1.274 . S
C178 O163 1.245 . S
C178 O164 1.257 . S
C179 O168 1.259 . S
C179 O169 1.289 . S
C180 O167 1.246 . S
C180 O170 1.257 . S
C181 O171 1.274 . S
C181 O172 1.251 . S
C182 O173 1.257 . S
C182 O174 1.245 . S
O183 Co154 2.286 . S
O183 C175 1.259 . S
O184 Co154 2.069 . S
O184 C175 1.289 . S
O185 Co156 2.143 . S
O185 C176 1.246 . S
O186 Co154 2.015 . S
O186 C176 1.257 . S
C187 C188 1.391 . S
C187 C189 1.394 . S
C187 H203 0.931 . S
C188 C187 1.391 . S
C188 C192 1.376 . S
C189 C187 1.394 . S
C189 C190 1.369 . S
C189 C193 1.531 . S
C190 C189 1.369 . S
C190 C191 1.410 . S
C190 C198 1.503 . S
C191 C190 1.410 . S
C191 C192 1.392 . S
C191 C194 1.511 . S
C192 C188 1.376 . S
C192 C191 1.392 . S
C192 H204 0.929 . S
C193 C189 1.531 . S
C193 H205 0.960 . S
C193 H206 0.962 . S
C193 H207 0.960 . S
C194 C191 1.511 . S
C194 H208 0.961 . S
C194 H209 0.961 . S
C194 H210 0.961 . S
C195 C196 1.370 . S
C195 C197 1.363 . S
C195 H211 0.931 . S
C196 C195 1.370 . S
C196 C200 1.408 . S
C197 C195 1.363 . S
C197 C198 1.370 . S
C197 C201 1.524 . S
C198 C190 1.503 . S
C198 C197 1.370 . S
C198 C199 1.403 . S
C199 C198 1.403 . S
C199 C200 1.404 . S
C199 C202 1.539 . S
C200 C196 1.408 . S
C200 C199 1.404 . S
C200 H212 0.930 . S
C201 C197 1.524 . S
C201 H213 0.956 . S
C201 H214 0.961 . S
C201 H215 0.961 . S
C202 C199 1.539 . S
C202 H216 0.958 . S
C202 H217 0.961 . S
C202 H218 0.960 . S
H203 C187 0.931 . S
H204 C192 0.929 . S
H205 C193 0.960 . S
H206 C193 0.962 . S
H207 C193 0.960 . S
H208 C194 0.961 . S
H209 C194 0.961 . S
H210 C194 0.961 . S
H211 C195 0.931 . S
H212 C200 0.930 . S
H213 C201 0.956 . S
H214 C201 0.961 . S
H215 C201 0.961 . S
H216 C202 0.958 . S
H217 C202 0.961 . S
H218 C202 0.960 . S
C219 C220 1.391 . S
C219 C221 1.394 . S
C219 H235 0.931 . S
C220 C219 1.391 . S
C220 C224 1.376 . S
C221 C219 1.394 . S
C221 C222 1.369 . S
C221 C225 1.531 . S
C222 C221 1.369 . S
C222 C223 1.410 . S
C222 C230 1.503 . S
C223 C222 1.410 . S
C223 C224 1.392 . S
C223 C226 1.511 . S
C224 C220 1.376 . S
C224 C223 1.392 . S
C224 H236 0.929 . S
C225 C221 1.531 . S
C225 H237 0.960 . S
C225 H238 0.962 . S
C225 H239 0.960 . S
C226 C223 1.511 . S
C226 H240 0.961 . S
C226 H241 0.961 . S
C226 H242 0.961 . S
C227 C228 1.370 . S
C227 C229 1.363 . S
C227 H243 0.931 . S
C228 C227 1.370 . S
C228 C232 1.408 . S
C229 C227 1.363 . S
C229 C230 1.370 . S
C229 C233 1.524 . S
C230 C222 1.503 . S
C230 C229 1.370 . S
C230 C231 1.403 . S
C231 C230 1.403 . S
C231 C232 1.404 . S
C231 C234 1.539 . S
C232 C228 1.408 . S
C232 C231 1.404 . S
C232 H244 0.930 . S
C233 C229 1.524 . S
C233 H245 0.956 . S
C233 H246 0.961 . S
C233 H247 0.961 . S
C234 C231 1.539 . S
C234 H248 0.958 . S
C234 H249 0.961 . S
C234 H250 0.960 . S
H235 C219 0.931 . S
H236 C224 0.929 . S
H237 C225 0.960 . S
H238 C225 0.962 . S
H239 C225 0.960 . S
H240 C226 0.961 . S
H241 C226 0.961 . S
H242 C226 0.961 . S
H243 C227 0.931 . S
H244 C232 0.930 . S
H245 C233 0.956 . S
H246 C233 0.961 . S
H247 C233 0.961 . S
H248 C234 0.958 . S
H249 C234 0.961 . S
H250 C234 0.960 . S
C251 C252 1.391 . S
C251 C253 1.394 . S
C251 H267 0.931 . S
C252 C251 1.391 . S
C252 C256 1.376 . S
C253 C251 1.394 . S
C253 C254 1.369 . S
C253 C257 1.531 . S
C254 C253 1.369 . S
C254 C255 1.410 . S
C254 C262 1.503 . S
C255 C254 1.410 . S
C255 C256 1.392 . S
C255 C258 1.511 . S
C256 C252 1.376 . S
C256 C255 1.392 . S
C256 H268 0.929 . S
C257 C253 1.531 . S
C257 H269 0.960 . S
C257 H270 0.962 . S
C257 H271 0.960 . S
C258 C255 1.511 . S
C258 H272 0.961 . S
C258 H273 0.961 . S
C258 H274 0.961 . S
C259 C260 1.370 . S
C259 C261 1.363 . S
C259 H275 0.931 . S
C260 C259 1.370 . S
C260 C264 1.408 . S
C261 C259 1.363 . S
C261 C262 1.370 . S
C261 C265 1.524 . S
C262 C254 1.503 . S
C262 C261 1.370 . S
C262 C263 1.403 . S
C263 C262 1.403 . S
C263 C264 1.404 . S
C263 C266 1.539 . S
C264 C260 1.408 . S
C264 C263 1.404 . S
C264 H276 0.930 . S
C265 C261 1.524 . S
C265 H277 0.956 . S
C265 H278 0.961 . S
C265 H279 0.961 . S
C266 C263 1.539 . S
C266 H280 0.958 . S
C266 H281 0.961 . S
C266 H282 0.960 . S
H267 C251 0.931 . S
H268 C256 0.929 . S
H269 C257 0.960 . S
H270 C257 0.962 . S
H271 C257 0.960 . S
H272 C258 0.961 . S
H273 C258 0.961 . S
H274 C258 0.961 . S
H275 C259 0.931 . S
H276 C264 0.930 . S
H277 C265 0.956 . S
H278 C265 0.961 . S
H279 C265 0.961 . S
H280 C266 0.958 . S
H281 C266 0.961 . S
H282 C266 0.960 . S
C283 C284 1.391 . S
C283 C285 1.394 . S
C283 H299 0.931 . S
C284 C283 1.391 . S
C284 C288 1.376 . S
C285 C283 1.394 . S
C285 C286 1.369 . S
C285 C289 1.531 . S
C286 C285 1.369 . S
C286 C287 1.410 . S
C286 C294 1.503 . S
C287 C286 1.410 . S
C287 C288 1.392 . S
C287 C290 1.511 . S
C288 C284 1.376 . S
C288 C287 1.392 . S
C288 H300 0.929 . S
C289 C285 1.531 . S
C289 H301 0.960 . S
C289 H302 0.962 . S
C289 H303 0.960 . S
C290 C287 1.511 . S
C290 H304 0.961 . S
C290 H305 0.961 . S
C290 H306 0.961 . S
C291 C292 1.370 . S
C291 C293 1.363 . S
C291 H307 0.931 . S
C292 C291 1.370 . S
C292 C296 1.408 . S
C293 C291 1.363 . S
C293 C294 1.370 . S
C293 C297 1.524 . S
C294 C286 1.503 . S
C294 C293 1.370 . S
C294 C295 1.403 . S
C295 C294 1.403 . S
C295 C296 1.404 . S
C295 C298 1.539 . S
C296 C292 1.408 . S
C296 C295 1.404 . S
C296 H308 0.930 . S
C297 C293 1.524 . S
C297 H309 0.956 . S
C297 H310 0.961 . S
C297 H311 0.961 . S
C298 C295 1.539 . S
C298 H312 0.958 . S
C298 H313 0.961 . S
C298 H314 0.960 . S
H299 C283 0.931 . S
H300 C288 0.929 . S
H301 C289 0.960 . S
H302 C289 0.962 . S
H303 C289 0.960 . S
H304 C290 0.961 . S
H305 C290 0.961 . S
H306 C290 0.961 . S
H307 C291 0.931 . S
H308 C296 0.930 . S
H309 C297 0.956 . S
H310 C297 0.961 . S
H311 C297 0.961 . S
H312 C298 0.958 . S
H313 C298 0.961 . S
H314 C298 0.960 . S
C315 C316 1.391 . S
C315 C317 1.394 . S
C315 H331 0.931 . S
C316 C315 1.391 . S
C316 C320 1.376 . S
C317 C315 1.394 . S
C317 C318 1.369 . S
C317 C321 1.531 . S
C318 C317 1.369 . S
C318 C319 1.410 . S
C318 C326 1.503 . S
C319 C318 1.410 . S
C319 C320 1.392 . S
C319 C322 1.511 . S
C320 C316 1.376 . S
C320 C319 1.392 . S
C320 H332 0.929 . S
C321 C317 1.531 . S
C321 H333 0.960 . S
C321 H334 0.962 . S
C321 H335 0.960 . S
C322 C319 1.511 . S
C322 H336 0.961 . S
C322 H337 0.961 . S
C322 H338 0.961 . S
C323 C324 1.370 . S
C323 C325 1.363 . S
C323 H339 0.931 . S
C324 C323 1.370 . S
C324 C328 1.408 . S
C325 C323 1.363 . S
C325 C326 1.370 . S
C325 C329 1.524 . S
C326 C318 1.503 . S
C326 C325 1.370 . S
C326 C327 1.403 . S
C327 C326 1.403 . S
C327 C328 1.404 . S
C327 C330 1.539 . S
C328 C324 1.408 . S
C328 C327 1.404 . S
C328 H340 0.930 . S
C329 C325 1.524 . S
C329 H341 0.956 . S
C329 H342 0.961 . S
C329 H343 0.961 . S
C330 C327 1.539 . S
C330 H344 0.958 . S
C330 H345 0.961 . S
C330 H346 0.960 . S
H331 C315 0.931 . S
H332 C320 0.929 . S
H333 C321 0.960 . S
H334 C321 0.962 . S
H335 C321 0.960 . S
H336 C322 0.961 . S
H337 C322 0.961 . S
H338 C322 0.961 . S
H339 C323 0.931 . S
H340 C328 0.930 . S
H341 C329 0.956 . S
H342 C329 0.961 . S
H343 C329 0.961 . S
H344 C330 0.958 . S
H345 C330 0.961 . S
H346 C330 0.960 . S
C347 C348 1.391 . S
C347 C349 1.394 . S
C347 H363 0.931 . S
C348 C347 1.391 . S
C348 C352 1.376 . S
C349 C347 1.394 . S
C349 C350 1.369 . S
C349 C353 1.531 . S
C350 C349 1.369 . S
C350 C351 1.410 . S
C350 C358 1.503 . S
C351 C350 1.410 . S
C351 C352 1.392 . S
C351 C354 1.511 . S
C352 C348 1.376 . S
C352 C351 1.392 . S
C352 H364 0.929 . S
C353 C349 1.531 . S
C353 H365 0.960 . S
C353 H366 0.962 . S
C353 H367 0.960 . S
C354 C351 1.511 . S
C354 H368 0.961 . S
C354 H369 0.961 . S
C354 H370 0.961 . S
C355 C356 1.370 . S
C355 C357 1.363 . S
C355 H371 0.931 . S
C356 C355 1.370 . S
C356 C360 1.408 . S
C357 C355 1.363 . S
C357 C358 1.370 . S
C357 C361 1.524 . S
C358 C350 1.503 . S
C358 C357 1.370 . S
C358 C359 1.403 . S
C359 C358 1.403 . S
C359 C360 1.404 . S
C359 C362 1.539 . S
C360 C356 1.408 . S
C360 C359 1.404 . S
C360 H372 0.930 . S
C361 C357 1.524 . S
C361 H373 0.956 . S
C361 H374 0.961 . S
C361 H375 0.961 . S
C362 C359 1.539 . S
C362 H376 0.958 . S
C362 H377 0.961 . S
C362 H378 0.960 . S
H363 C347 0.931 . S
H364 C352 0.929 . S
H365 C353 0.960 . S
H366 C353 0.962 . S
H367 C353 0.960 . S
H368 C354 0.961 . S
H369 C354 0.961 . S
H370 C354 0.961 . S
H371 C355 0.931 . S
H372 C360 0.930 . S
H373 C361 0.956 . S
H374 C361 0.961 . S
H375 C361 0.961 . S
H376 C362 0.958 . S
H377 C362 0.961 . S
H378 C362 0.960 . S
C379 C380 1.391 . S
C379 C381 1.394 . S
C379 H395 0.931 . S
C380 C379 1.391 . S
C380 C384 1.376 . S
C381 C379 1.394 . S
C381 C382 1.369 . S
C381 C385 1.531 . S
C382 C381 1.369 . S
C382 C383 1.410 . S
C382 C390 1.503 . S
C383 C382 1.410 . S
C383 C384 1.392 . S
C383 C386 1.511 . S
C384 C380 1.376 . S
C384 C383 1.392 . S
C384 H396 0.929 . S
C385 C381 1.531 . S
C385 H397 0.960 . S
C385 H398 0.962 . S
C385 H399 0.960 . S
C386 C383 1.511 . S
C386 H400 0.961 . S
C386 H401 0.961 . S
C386 H402 0.961 . S
C387 C388 1.370 . S
C387 C389 1.363 . S
C387 H403 0.931 . S
C388 C387 1.370 . S
C388 C392 1.408 . S
C389 C387 1.363 . S
C389 C390 1.370 . S
C389 C393 1.524 . S
C390 C382 1.503 . S
C390 C389 1.370 . S
C390 C391 1.403 . S
C391 C390 1.403 . S
C391 C392 1.404 . S
C391 C394 1.539 . S
C392 C388 1.408 . S
C392 C391 1.404 . S
C392 H404 0.930 . S
C393 C389 1.524 . S
C393 H405 0.956 . S
C393 H406 0.961 . S
C393 H407 0.961 . S
C394 C391 1.539 . S
C394 H408 0.958 . S
C394 H409 0.961 . S
C394 H410 0.960 . S
H395 C379 0.931 . S
H396 C384 0.929 . S
H397 C385 0.960 . S
H398 C385 0.962 . S
H399 C385 0.960 . S
H400 C386 0.961 . S
H401 C386 0.961 . S
H402 C386 0.961 . S
H403 C387 0.931 . S
H404 C392 0.930 . S
H405 C393 0.956 . S
H406 C393 0.961 . S
H407 C393 0.961 . S
H408 C394 0.958 . S
H409 C394 0.961 . S
H410 C394 0.960 . S
C411 C412 1.391 . S
C411 C413 1.394 . S
C411 H427 0.931 . S
C412 C411 1.391 . S
C412 C416 1.376 . S
C413 C411 1.394 . S
C413 C414 1.369 . S
C413 C417 1.531 . S
C414 C413 1.369 . S
C414 C415 1.410 . S
C414 C422 1.503 . S
C415 C414 1.410 . S
C415 C416 1.392 . S
C415 C418 1.511 . S
C416 C412 1.376 . S
C416 C415 1.392 . S
C416 H428 0.929 . S
C417 C413 1.531 . S
C417 H429 0.960 . S
C417 H430 0.962 . S
C417 H431 0.960 . S
C418 C415 1.511 . S
C418 H432 0.961 . S
C418 H433 0.961 . S
C418 H434 0.961 . S
C419 C420 1.370 . S
C419 C421 1.363 . S
C419 H435 0.931 . S
C420 C419 1.370 . S
C420 C424 1.408 . S
C421 C419 1.363 . S
C421 C422 1.370 . S
C421 C425 1.524 . S
C422 C414 1.503 . S
C422 C421 1.370 . S
C422 C423 1.403 . S
C423 C422 1.403 . S
C423 C424 1.404 . S
C423 C426 1.539 . S
C424 C420 1.408 . S
C424 C423 1.404 . S
C424 H436 0.930 . S
C425 C421 1.524 . S
C425 H437 0.956 . S
C425 H438 0.961 . S
C425 H439 0.961 . S
C426 C423 1.539 . S
C426 H440 0.958 . S
C426 H441 0.961 . S
C426 H442 0.960 . S
H427 C411 0.931 . S
H428 C416 0.929 . S
H429 C417 0.960 . S
H430 C417 0.962 . S
H431 C417 0.960 . S
H432 C418 0.961 . S
H433 C418 0.961 . S
H434 C418 0.961 . S
H435 C419 0.931 . S
H436 C424 0.930 . S
H437 C425 0.956 . S
H438 C425 0.961 . S
H439 C425 0.961 . S
H440 C426 0.958 . S
H441 C426 0.961 . S
H442 C426 0.960 . S
C443 C444 1.391 . S
C443 C445 1.394 . S
C443 H459 0.931 . S
C444 C443 1.391 . S
C444 C448 1.376 . S
C445 C443 1.394 . S
C445 C446 1.369 . S
C445 C449 1.531 . S
C446 C445 1.369 . S
C446 C447 1.410 . S
C446 C454 1.503 . S
C447 C446 1.410 . S
C447 C448 1.392 . S
C447 C450 1.511 . S
C448 C444 1.376 . S
C448 C447 1.392 . S
C448 H460 0.929 . S
C449 C445 1.531 . S
C449 H461 0.960 . S
C449 H462 0.962 . S
C449 H463 0.960 . S
C450 C447 1.511 . S
C450 H464 0.961 . S
C450 H465 0.961 . S
C450 H466 0.961 . S
C451 C452 1.370 . S
C451 C453 1.363 . S
C451 H467 0.931 . S
C452 C451 1.370 . S
C452 C456 1.408 . S
C453 C451 1.363 . S
C453 C454 1.370 . S
C453 C457 1.524 . S
C454 C446 1.503 . S
C454 C453 1.370 . S
C454 C455 1.403 . S
C455 C454 1.403 . S
C455 C456 1.404 . S
C455 C458 1.539 . S
C456 C452 1.408 . S
C456 C455 1.404 . S
C456 H468 0.930 . S
C457 C453 1.524 . S
C457 H469 0.956 . S
C457 H470 0.961 . S
C457 H471 0.961 . S
C458 C455 1.539 . S
C458 H472 0.958 . S
C458 H473 0.961 . S
C458 H474 0.960 . S
H459 C443 0.931 . S
H460 C448 0.929 . S
H461 C449 0.960 . S
H462 C449 0.962 . S
H463 C449 0.960 . S
H464 C450 0.961 . S
H465 C450 0.961 . S
H466 C450 0.961 . S
H467 C451 0.931 . S
H468 C456 0.930 . S
H469 C457 0.956 . S
H470 C457 0.961 . S
H471 C457 0.961 . S
H472 C458 0.958 . S
H473 C458 0.961 . S
H474 C458 0.960 . S
C475 C476 1.391 . S
C475 C477 1.394 . S
C475 H491 0.931 . S
C476 C475 1.391 . S
C476 C480 1.376 . S
C477 C475 1.394 . S
C477 C478 1.369 . S
C477 C481 1.531 . S
C478 C477 1.369 . S
C478 C479 1.410 . S
C478 C486 1.503 . S
C479 C478 1.410 . S
C479 C480 1.392 . S
C479 C482 1.511 . S
C480 C476 1.376 . S
C480 C479 1.392 . S
C480 H492 0.929 . S
C481 C477 1.531 . S
C481 H493 0.960 . S
C481 H494 0.962 . S
C481 H495 0.960 . S
C482 C479 1.511 . S
C482 H496 0.961 . S
C482 H497 0.961 . S
C482 H498 0.961 . S
C483 C484 1.370 . S
C483 C485 1.363 . S
C483 H499 0.931 . S
C484 C483 1.370 . S
C484 C488 1.408 . S
C485 C483 1.363 . S
C485 C486 1.370 . S
C485 C489 1.524 . S
C486 C478 1.503 . S
C486 C485 1.370 . S
C486 C487 1.403 . S
C487 C486 1.403 . S
C487 C488 1.404 . S
C487 C490 1.539 . S
C488 C484 1.408 . S
C488 C487 1.404 . S
C488 H500 0.930 . S
C489 C485 1.524 . S
C489 H501 0.956 . S
C489 H502 0.961 . S
C489 H503 0.961 . S
C490 C487 1.539 . S
C490 H504 0.958 . S
C490 H505 0.961 . S
C490 H506 0.960 . S
H491 C475 0.931 . S
H492 C480 0.929 . S
H493 C481 0.960 . S
H494 C481 0.962 . S
H495 C481 0.960 . S
H496 C482 0.961 . S
H497 C482 0.961 . S
H498 C482 0.961 . S
H499 C483 0.931 . S
H500 C488 0.930 . S
H501 C489 0.956 . S
H502 C489 0.961 . S
H503 C489 0.961 . S
H504 C490 0.958 . S
H505 C490 0.961 . S
H506 C490 0.960 . S
C507 C508 1.391 . S
C507 C509 1.394 . S
C507 H523 0.931 . S
C508 C507 1.391 . S
C508 C512 1.376 . S
C509 C507 1.394 . S
C509 C510 1.369 . S
C509 C513 1.531 . S
C510 C509 1.369 . S
C510 C511 1.410 . S
C510 C518 1.503 . S
C511 C510 1.410 . S
C511 C512 1.392 . S
C511 C514 1.511 . S
C512 C508 1.376 . S
C512 C511 1.392 . S
C512 H524 0.929 . S
C513 C509 1.531 . S
C513 H525 0.960 . S
C513 H526 0.962 . S
C513 H527 0.960 . S
C514 C511 1.511 . S
C514 H528 0.961 . S
C514 H529 0.961 . S
C514 H530 0.961 . S
C515 C516 1.370 . S
C515 C517 1.363 . S
C515 H531 0.931 . S
C516 C515 1.370 . S
C516 C520 1.408 . S
C517 C515 1.363 . S
C517 C518 1.370 . S
C517 C521 1.524 . S
C518 C510 1.503 . S
C518 C517 1.370 . S
C518 C519 1.403 . S
C519 C518 1.403 . S
C519 C520 1.404 . S
C519 C522 1.539 . S
C520 C516 1.408 . S
C520 C519 1.404 . S
C520 H532 0.930 . S
C521 C517 1.524 . S
C521 H533 0.956 . S
C521 H534 0.961 . S
C521 H535 0.961 . S
C522 C519 1.539 . S
C522 H536 0.958 . S
C522 H537 0.961 . S
C522 H538 0.960 . S
H523 C507 0.931 . S
H524 C512 0.929 . S
H525 C513 0.960 . S
H526 C513 0.962 . S
H527 C513 0.960 . S
H528 C514 0.961 . S
H529 C514 0.961 . S
H530 C514 0.961 . S
H531 C515 0.931 . S
H532 C520 0.930 . S
H533 C521 0.956 . S
H534 C521 0.961 . S
H535 C521 0.961 . S
H536 C522 0.958 . S
H537 C522 0.961 . S
H538 C522 0.960 . S
C539 C540 1.391 . S
C539 C541 1.394 . S
C539 H555 0.931 . S
C540 C539 1.391 . S
C540 C544 1.376 . S
C541 C539 1.394 . S
C541 C542 1.369 . S
C541 C545 1.531 . S
C542 C541 1.369 . S
C542 C543 1.410 . S
C542 C550 1.503 . S
C543 C542 1.410 . S
C543 C544 1.392 . S
C543 C546 1.511 . S
C544 C540 1.376 . S
C544 C543 1.392 . S
C544 H556 0.929 . S
C545 C541 1.531 . S
C545 H557 0.960 . S
C545 H558 0.962 . S
C545 H559 0.960 . S
C546 C543 1.511 . S
C546 H560 0.961 . S
C546 H561 0.961 . S
C546 H562 0.961 . S
C547 C548 1.370 . S
C547 C549 1.363 . S
C547 H563 0.931 . S
C548 C547 1.370 . S
C548 C552 1.408 . S
C549 C547 1.363 . S
C549 C550 1.370 . S
C549 C553 1.524 . S
C550 C542 1.503 . S
C550 C549 1.370 . S
C550 C551 1.403 . S
C551 C550 1.403 . S
C551 C552 1.404 . S
C551 C554 1.539 . S
C552 C548 1.408 . S
C552 C551 1.404 . S
C552 H564 0.930 . S
C553 C549 1.524 . S
C553 H565 0.956 . S
C553 H566 0.961 . S
C553 H567 0.961 . S
C554 C551 1.539 . S
C554 H568 0.958 . S
C554 H569 0.961 . S
C554 H570 0.960 . S
H555 C539 0.931 . S
H556 C544 0.929 . S
H557 C545 0.960 . S
H558 C545 0.962 . S
H559 C545 0.960 . S
H560 C546 0.961 . S
H561 C546 0.961 . S
H562 C546 0.961 . S
H563 C547 0.931 . S
H564 C552 0.930 . S
H565 C553 0.956 . S
H566 C553 0.961 . S
H567 C553 0.961 . S
H568 C554 0.958 . S
H569 C554 0.961 . S
H570 C554 0.960 . S
C571 C572 1.391 . S
C571 C573 1.394 . S
C571 H587 0.931 . S
C572 C571 1.391 . S
C572 C576 1.376 . S
C573 C571 1.394 . S
C573 C574 1.369 . S
C573 C577 1.531 . S
C574 C573 1.369 . S
C574 C575 1.410 . S
C574 C582 1.503 . S
C575 C574 1.410 . S
C575 C576 1.392 . S
C575 C578 1.511 . S
C576 C572 1.376 . S
C576 C575 1.392 . S
C576 H588 0.929 . S
C577 C573 1.531 . S
C577 H589 0.960 . S
C577 H590 0.962 . S
C577 H591 0.960 . S
C578 C575 1.511 . S
C578 H592 0.961 . S
C578 H593 0.961 . S
C578 H594 0.961 . S
C579 C580 1.370 . S
C579 C581 1.363 . S
C579 H595 0.931 . S
C580 C579 1.370 . S
C580 C584 1.408 . S
C581 C579 1.363 . S
C581 C582 1.370 . S
C581 C585 1.524 . S
C582 C574 1.503 . S
C582 C581 1.370 . S
C582 C583 1.403 . S
C583 C582 1.403 . S
C583 C584 1.404 . S
C583 C586 1.539 . S
C584 C580 1.408 . S
C584 C583 1.404 . S
C584 H596 0.930 . S
C585 C581 1.524 . S
C585 H597 0.956 . S
C585 H598 0.961 . S
C585 H599 0.961 . S
C586 C583 1.539 . S
C586 H600 0.958 . S
C586 H601 0.961 . S
C586 H602 0.960 . S
H587 C571 0.931 . S
H588 C576 0.929 . S
H589 C577 0.960 . S
H590 C577 0.962 . S
H591 C577 0.960 . S
H592 C578 0.961 . S
H593 C578 0.961 . S
H594 C578 0.961 . S
H595 C579 0.931 . S
H596 C584 0.930 . S
H597 C585 0.956 . S
H598 C585 0.961 . S
H599 C585 0.961 . S
H600 C586 0.958 . S
H601 C586 0.961 . S
H602 C586 0.960 . S
C603 C604 1.391 . S
C603 C605 1.394 . S
C603 H619 0.931 . S
C604 C603 1.391 . S
C604 C608 1.376 . S
C605 C603 1.394 . S
C605 C606 1.369 . S
C605 C609 1.531 . S
C606 C605 1.369 . S
C606 C607 1.410 . S
C606 C614 1.503 . S
C607 C606 1.410 . S
C607 C608 1.392 . S
C607 C610 1.511 . S
C608 C604 1.376 . S
C608 C607 1.392 . S
C608 H620 0.929 . S
C609 C605 1.531 . S
C609 H621 0.960 . S
C609 H622 0.962 . S
C609 H623 0.960 . S
C610 C607 1.511 . S
C610 H624 0.961 . S
C610 H625 0.961 . S
C610 H626 0.961 . S
C611 C612 1.370 . S
C611 C613 1.363 . S
C611 H627 0.931 . S
C612 C611 1.370 . S
C612 C616 1.408 . S
C613 C611 1.363 . S
C613 C614 1.370 . S
C613 C617 1.524 . S
C614 C606 1.503 . S
C614 C613 1.370 . S
C614 C615 1.403 . S
C615 C614 1.403 . S
C615 C616 1.404 . S
C615 C618 1.539 . S
C616 C612 1.408 . S
C616 C615 1.404 . S
C616 H628 0.930 . S
C617 C613 1.524 . S
C617 H629 0.956 . S
C617 H630 0.961 . S
C617 H631 0.961 . S
C618 C615 1.539 . S
C618 H632 0.958 . S
C618 H633 0.961 . S
C618 H634 0.960 . S
H619 C603 0.931 . S
H620 C608 0.929 . S
H621 C609 0.960 . S
H622 C609 0.962 . S
H623 C609 0.960 . S
H624 C610 0.961 . S
H625 C610 0.961 . S
H626 C610 0.961 . S
H627 C611 0.931 . S
H628 C616 0.930 . S
H629 C617 0.956 . S
H630 C617 0.961 . S
H631 C617 0.961 . S
H632 C618 0.958 . S
H633 C618 0.961 . S
H634 C618 0.960 . S
C635 C636 1.391 . S
C635 C637 1.394 . S
C635 H651 0.931 . S
C636 C635 1.391 . S
C636 C640 1.376 . S
C637 C635 1.394 . S
C637 C638 1.369 . S
C637 C641 1.531 . S
C638 C637 1.369 . S
C638 C639 1.410 . S
C638 C646 1.503 . S
C639 C638 1.410 . S
C639 C640 1.392 . S
C639 C642 1.511 . S
C640 C636 1.376 . S
C640 C639 1.392 . S
C640 H652 0.929 . S
C641 C637 1.531 . S
C641 H653 0.960 . S
C641 H654 0.962 . S
C641 H655 0.960 . S
C642 C639 1.511 . S
C642 H656 0.961 . S
C642 H657 0.961 . S
C642 H658 0.961 . S
C643 C644 1.370 . S
C643 C645 1.363 . S
C643 H659 0.931 . S
C644 C643 1.370 . S
C644 C648 1.408 . S
C645 C643 1.363 . S
C645 C646 1.370 . S
C645 C649 1.524 . S
C646 C638 1.503 . S
C646 C645 1.370 . S
C646 C647 1.403 . S
C647 C646 1.403 . S
C647 C648 1.404 . S
C647 C650 1.539 . S
C648 C644 1.408 . S
C648 C647 1.404 . S
C648 H660 0.930 . S
C649 C645 1.524 . S
C649 H661 0.956 . S
C649 H662 0.961 . S
C649 H663 0.961 . S
C650 C647 1.539 . S
C650 H664 0.958 . S
C650 H665 0.961 . S
C650 H666 0.960 . S
H651 C635 0.931 . S
H652 C640 0.929 . S
H653 C641 0.960 . S
H654 C641 0.962 . S
H655 C641 0.960 . S
H656 C642 0.961 . S
H657 C642 0.961 . S
H658 C642 0.961 . S
H659 C643 0.931 . S
H660 C648 0.930 . S
H661 C649 0.956 . S
H662 C649 0.961 . S
H663 C649 0.961 . S
H664 C650 0.958 . S
H665 C650 0.961 . S
H666 C650 0.960 . S
C667 C668 1.391 . S
C667 C669 1.394 . S
C667 H683 0.931 . S
C668 C667 1.391 . S
C668 C672 1.376 . S
C669 C667 1.394 . S
C669 C670 1.369 . S
C669 C673 1.531 . S
C670 C669 1.369 . S
C670 C671 1.410 . S
C670 C678 1.503 . S
C671 C670 1.410 . S
C671 C672 1.392 . S
C671 C674 1.511 . S
C672 C668 1.376 . S
C672 C671 1.392 . S
C672 H684 0.929 . S
C673 C669 1.531 . S
C673 H685 0.960 . S
C673 H686 0.962 . S
C673 H687 0.960 . S
C674 C671 1.511 . S
C674 H688 0.961 . S
C674 H689 0.961 . S
C674 H690 0.961 . S
C675 C676 1.370 . S
C675 C677 1.363 . S
C675 H691 0.931 . S
C676 C675 1.370 . S
C676 C680 1.408 . S
C677 C675 1.363 . S
C677 C678 1.370 . S
C677 C681 1.524 . S
C678 C670 1.503 . S
C678 C677 1.370 . S
C678 C679 1.403 . S
C679 C678 1.403 . S
C679 C680 1.404 . S
C679 C682 1.539 . S
C680 C676 1.408 . S
C680 C679 1.404 . S
C680 H692 0.930 . S
C681 C677 1.524 . S
C681 H693 0.956 . S
C681 H694 0.961 . S
C681 H695 0.961 . S
C682 C679 1.539 . S
C682 H696 0.958 . S
C682 H697 0.961 . S
C682 H698 0.960 . S
H683 C667 0.931 . S
H684 C672 0.929 . S
H685 C673 0.960 . S
H686 C673 0.962 . S
H687 C673 0.960 . S
H688 C674 0.961 . S
H689 C674 0.961 . S
H690 C674 0.961 . S
H691 C675 0.931 . S
H692 C680 0.930 . S
H693 C681 0.956 . S
H694 C681 0.961 . S
H695 C681 0.961 . S
H696 C682 0.958 . S
H697 C682 0.961 . S
H698 C682 0.960 . S
C699 C700 1.391 . S
C699 C701 1.394 . S
C699 H715 0.931 . S
C700 C699 1.391 . S
C700 C704 1.376 . S
C701 C699 1.394 . S
C701 C702 1.369 . S
C701 C705 1.531 . S
C702 C701 1.369 . S
C702 C703 1.410 . S
C702 C710 1.503 . S
C703 C702 1.410 . S
C703 C704 1.392 . S
C703 C706 1.511 . S
C704 C700 1.376 . S
C704 C703 1.392 . S
C704 H716 0.929 . S
C705 C701 1.531 . S
C705 H717 0.960 . S
C705 H718 0.962 . S
C705 H719 0.960 . S
C706 C703 1.511 . S
C706 H720 0.961 . S
C706 H721 0.961 . S
C706 H722 0.961 . S
C707 C708 1.370 . S
C707 C709 1.363 . S
C707 H723 0.931 . S
C708 C707 1.370 . S
C708 C712 1.408 . S
C709 C707 1.363 . S
C709 C710 1.370 . S
C709 C713 1.524 . S
C710 C702 1.503 . S
C710 C709 1.370 . S
C710 C711 1.403 . S
C711 C710 1.403 . S
C711 C712 1.404 . S
C711 C714 1.539 . S
C712 C708 1.408 . S
C712 C711 1.404 . S
C712 H724 0.930 . S
C713 C709 1.524 . S
C713 H725 0.956 . S
C713 H726 0.961 . S
C713 H727 0.961 . S
C714 C711 1.539 . S
C714 H728 0.958 . S
C714 H729 0.961 . S
C714 H730 0.960 . S
H715 C699 0.931 . S
H716 C704 0.929 . S
H717 C705 0.960 . S
H718 C705 0.962 . S
H719 C705 0.960 . S
H720 C706 0.961 . S
H721 C706 0.961 . S
H722 C706 0.961 . S
H723 C707 0.931 . S
H724 C712 0.930 . S
H725 C713 0.956 . S
H726 C713 0.961 . S
H727 C713 0.961 . S
H728 C714 0.958 . S
H729 C714 0.961 . S
H730 C714 0.960 . S
C731 C732 1.391 . S
C731 C733 1.394 . S
C731 H747 0.931 . S
C732 C731 1.391 . S
C732 C736 1.376 . S
C733 C731 1.394 . S
C733 C734 1.369 . S
C733 C737 1.531 . S
C734 C733 1.369 . S
C734 C735 1.410 . S
C734 C742 1.503 . S
C735 C734 1.410 . S
C735 C736 1.392 . S
C735 C738 1.511 . S
C736 C732 1.376 . S
C736 C735 1.392 . S
C736 H748 0.929 . S
C737 C733 1.531 . S
C737 H749 0.960 . S
C737 H750 0.962 . S
C737 H751 0.960 . S
C738 C735 1.511 . S
C738 H752 0.961 . S
C738 H753 0.961 . S
C738 H754 0.961 . S
C739 C740 1.370 . S
C739 C741 1.363 . S
C739 H755 0.931 . S
C740 C739 1.370 . S
C740 C744 1.408 . S
C741 C739 1.363 . S
C741 C742 1.370 . S
C741 C745 1.524 . S
C742 C734 1.503 . S
C742 C741 1.370 . S
C742 C743 1.403 . S
C743 C742 1.403 . S
C743 C744 1.404 . S
C743 C746 1.539 . S
C744 C740 1.408 . S
C744 C743 1.404 . S
C744 H756 0.930 . S
C745 C741 1.524 . S
C745 H757 0.956 . S
C745 H758 0.961 . S
C745 H759 0.961 . S
C746 C743 1.539 . S
C746 H760 0.958 . S
C746 H761 0.961 . S
C746 H762 0.960 . S
H747 C731 0.931 . S
H748 C736 0.929 . S
H749 C737 0.960 . S
H750 C737 0.962 . S
H751 C737 0.960 . S
H752 C738 0.961 . S
H753 C738 0.961 . S
H754 C738 0.961 . S
H755 C739 0.931 . S
H756 C744 0.930 . S
H757 C745 0.956 . S
H758 C745 0.961 . S
H759 C745 0.961 . S
H760 C746 0.958 . S
H761 C746 0.961 . S
H762 C746 0.960 . S
C763 C764 1.391 . S
C763 C765 1.394 . S
C763 H779 0.931 . S
C764 C763 1.391 . S
C764 C768 1.376 . S
C765 C763 1.394 . S
C765 C766 1.369 . S
C765 C769 1.531 . S
C766 C765 1.369 . S
C766 C767 1.410 . S
C766 C774 1.503 . S
C767 C766 1.410 . S
C767 C768 1.392 . S
C767 C770 1.511 . S
C768 C764 1.376 . S
C768 C767 1.392 . S
C768 H780 0.929 . S
C769 C765 1.531 . S
C769 H781 0.960 . S
C769 H782 0.962 . S
C769 H783 0.960 . S
C770 C767 1.511 . S
C770 H784 0.961 . S
C770 H785 0.961 . S
C770 H786 0.961 . S
C771 C772 1.370 . S
C771 C773 1.363 . S
C771 H787 0.931 . S
C772 C771 1.370 . S
C772 C776 1.408 . S
C773 C771 1.363 . S
C773 C774 1.370 . S
C773 C777 1.524 . S
C774 C766 1.503 . S
C774 C773 1.370 . S
C774 C775 1.403 . S
C775 C774 1.403 . S
C775 C776 1.404 . S
C775 C778 1.539 . S
C776 C772 1.408 . S
C776 C775 1.404 . S
C776 H788 0.930 . S
C777 C773 1.524 . S
C777 H789 0.956 . S
C777 H790 0.961 . S
C777 H791 0.961 . S
C778 C775 1.539 . S
C778 H792 0.958 . S
C778 H793 0.961 . S
C778 H794 0.960 . S
H779 C763 0.931 . S
H780 C768 0.929 . S
H781 C769 0.960 . S
H782 C769 0.962 . S
H783 C769 0.960 . S
H784 C770 0.961 . S
H785 C770 0.961 . S
H786 C770 0.961 . S
H787 C771 0.931 . S
H788 C776 0.930 . S
H789 C777 0.956 . S
H790 C777 0.961 . S
H791 C777 0.961 . S
H792 C778 0.958 . S
H793 C778 0.961 . S
H794 C778 0.960 . S
C795 C796 1.391 . S
C795 C797 1.394 . S
C795 H811 0.931 . S
C796 C795 1.391 . S
C796 C800 1.376 . S
C797 C795 1.394 . S
C797 C798 1.369 . S
C797 C801 1.531 . S
C798 C797 1.369 . S
C798 C799 1.410 . S
C798 C806 1.503 . S
C799 C798 1.410 . S
C799 C800 1.392 . S
C799 C802 1.511 . S
C800 C796 1.376 . S
C800 C799 1.392 . S
C800 H812 0.929 . S
C801 C797 1.531 . S
C801 H813 0.960 . S
C801 H814 0.962 . S
C801 H815 0.960 . S
C802 C799 1.511 . S
C802 H816 0.961 . S
C802 H817 0.961 . S
C802 H818 0.961 . S
C803 C804 1.370 . S
C803 C805 1.363 . S
C803 H819 0.931 . S
C804 C803 1.370 . S
C804 C808 1.408 . S
C805 C803 1.363 . S
C805 C806 1.370 . S
C805 C809 1.524 . S
C806 C798 1.503 . S
C806 C805 1.370 . S
C806 C807 1.403 . S
C807 C806 1.403 . S
C807 C808 1.404 . S
C807 C810 1.539 . S
C808 C804 1.408 . S
C808 C807 1.404 . S
C808 H820 0.930 . S
C809 C805 1.524 . S
C809 H821 0.956 . S
C809 H822 0.961 . S
C809 H823 0.961 . S
C810 C807 1.539 . S
C810 H824 0.958 . S
C810 H825 0.961 . S
C810 H826 0.960 . S
H811 C795 0.931 . S
H812 C800 0.929 . S
H813 C801 0.960 . S
H814 C801 0.962 . S
H815 C801 0.960 . S
H816 C802 0.961 . S
H817 C802 0.961 . S
H818 C802 0.961 . S
H819 C803 0.931 . S
H820 C808 0.930 . S
H821 C809 0.956 . S
H822 C809 0.961 . S
H823 C809 0.961 . S
H824 C810 0.958 . S
H825 C810 0.961 . S
H826 C810 0.960 . S
C827 C828 1.391 . S
C827 C829 1.394 . S
C827 H843 0.931 . S
C828 C827 1.391 . S
C828 C832 1.376 . S
C829 C827 1.394 . S
C829 C830 1.369 . S
C829 C833 1.531 . S
C830 C829 1.369 . S
C830 C831 1.410 . S
C830 C838 1.503 . S
C831 C830 1.410 . S
C831 C832 1.392 . S
C831 C834 1.511 . S
C832 C828 1.376 . S
C832 C831 1.392 . S
C832 H844 0.929 . S
C833 C829 1.531 . S
C833 H845 0.960 . S
C833 H846 0.962 . S
C833 H847 0.960 . S
C834 C831 1.511 . S
C834 H848 0.961 . S
C834 H849 0.961 . S
C834 H850 0.961 . S
C835 C836 1.370 . S
C835 C837 1.363 . S
C835 H851 0.931 . S
C836 C835 1.370 . S
C836 C840 1.408 . S
C837 C835 1.363 . S
C837 C838 1.370 . S
C837 C841 1.524 . S
C838 C830 1.503 . S
C838 C837 1.370 . S
C838 C839 1.403 . S
C839 C838 1.403 . S
C839 C840 1.404 . S
C839 C842 1.539 . S
C840 C836 1.408 . S
C840 C839 1.404 . S
C840 H852 0.930 . S
C841 C837 1.524 . S
C841 H853 0.956 . S
C841 H854 0.961 . S
C841 H855 0.961 . S
C842 C839 1.539 . S
C842 H856 0.958 . S
C842 H857 0.961 . S
C842 H858 0.960 . S
H843 C827 0.931 . S
H844 C832 0.929 . S
H845 C833 0.960 . S
H846 C833 0.962 . S
H847 C833 0.960 . S
H848 C834 0.961 . S
H849 C834 0.961 . S
H850 C834 0.961 . S
H851 C835 0.931 . S
H852 C840 0.930 . S
H853 C841 0.956 . S
H854 C841 0.961 . S
H855 C841 0.961 . S
H856 C842 0.958 . S
H857 C842 0.961 . S
H858 C842 0.960 . S
C859 C860 1.391 . S
C859 C861 1.394 . S
C859 H875 0.931 . S
C860 C859 1.391 . S
C860 C864 1.376 . S
C861 C859 1.394 . S
C861 C862 1.369 . S
C861 C865 1.531 . S
C862 C861 1.369 . S
C862 C863 1.410 . S
C862 C870 1.503 . S
C863 C862 1.410 . S
C863 C864 1.392 . S
C863 C866 1.511 . S
C864 C860 1.376 . S
C864 C863 1.392 . S
C864 H876 0.929 . S
C865 C861 1.531 . S
C865 H877 0.960 . S
C865 H878 0.962 . S
C865 H879 0.960 . S
C866 C863 1.511 . S
C866 H880 0.961 . S
C866 H881 0.961 . S
C866 H882 0.961 . S
C867 C868 1.370 . S
C867 C869 1.363 . S
C867 H883 0.931 . S
C868 C867 1.370 . S
C868 C872 1.408 . S
C869 C867 1.363 . S
C869 C870 1.370 . S
C869 C873 1.524 . S
C870 C862 1.503 . S
C870 C869 1.370 . S
C870 C871 1.403 . S
C871 C870 1.403 . S
C871 C872 1.404 . S
C871 C874 1.539 . S
C872 C868 1.408 . S
C872 C871 1.404 . S
C872 H884 0.930 . S
C873 C869 1.524 . S
C873 H885 0.956 . S
C873 H886 0.961 . S
C873 H887 0.961 . S
C874 C871 1.539 . S
C874 H888 0.958 . S
C874 H889 0.961 . S
C874 H890 0.960 . S
H875 C859 0.931 . S
H876 C864 0.929 . S
H877 C865 0.960 . S
H878 C865 0.962 . S
H879 C865 0.960 . S
H880 C866 0.961 . S
H881 C866 0.961 . S
H882 C866 0.961 . S
H883 C867 0.931 . S
H884 C872 0.930 . S
H885 C873 0.956 . S
H886 C873 0.961 . S
H887 C873 0.961 . S
H888 C874 0.958 . S
H889 C874 0.961 . S
H890 C874 0.960 . S
C891 C892 1.391 . S
C891 C893 1.394 . S
C891 H907 0.931 . S
C892 C891 1.391 . S
C892 C896 1.376 . S
C893 C891 1.394 . S
C893 C894 1.369 . S
C893 C897 1.531 . S
C894 C893 1.369 . S
C894 C895 1.410 . S
C894 C902 1.503 . S
C895 C894 1.410 . S
C895 C896 1.392 . S
C895 C898 1.511 . S
C896 C892 1.376 . S
C896 C895 1.392 . S
C896 H908 0.929 . S
C897 C893 1.531 . S
C897 H909 0.960 . S
C897 H910 0.962 . S
C897 H911 0.960 . S
C898 C895 1.511 . S
C898 H912 0.961 . S
C898 H913 0.961 . S
C898 H914 0.961 . S
C899 C900 1.370 . S
C899 C901 1.363 . S
C899 H915 0.931 . S
C900 C899 1.370 . S
C900 C904 1.408 . S
C901 C899 1.363 . S
C901 C902 1.370 . S
C901 C905 1.524 . S
C902 C894 1.503 . S
C902 C901 1.370 . S
C902 C903 1.403 . S
C903 C902 1.403 . S
C903 C904 1.404 . S
C903 C906 1.539 . S
C904 C900 1.408 . S
C904 C903 1.404 . S
C904 H916 0.930 . S
C905 C901 1.524 . S
C905 H917 0.956 . S
C905 H918 0.961 . S
C905 H919 0.961 . S
C906 C903 1.539 . S
C906 H920 0.958 . S
C906 H921 0.961 . S
C906 H922 0.960 . S
H907 C891 0.931 . S
H908 C896 0.929 . S
H909 C897 0.960 . S
H910 C897 0.962 . S
H911 C897 0.960 . S
H912 C898 0.961 . S
H913 C898 0.961 . S
H914 C898 0.961 . S
H915 C899 0.931 . S
H916 C904 0.930 . S
H917 C905 0.956 . S
H918 C905 0.961 . S
H919 C905 0.961 . S
H920 C906 0.958 . S
H921 C906 0.961 . S
H922 C906 0.960 . S
C923 C924 1.391 . S
C923 C925 1.394 . S
C923 H939 0.931 . S
C924 C923 1.391 . S
C924 C928 1.376 . S
C925 C923 1.394 . S
C925 C926 1.369 . S
C925 C929 1.531 . S
C926 C925 1.369 . S
C926 C927 1.410 . S
C926 C934 1.503 . S
C927 C926 1.410 . S
C927 C928 1.392 . S
C927 C930 1.511 . S
C928 C924 1.376 . S
C928 C927 1.392 . S
C928 H940 0.929 . S
C929 C925 1.531 . S
C929 H941 0.960 . S
C929 H942 0.962 . S
C929 H943 0.960 . S
C930 C927 1.511 . S
C930 H944 0.961 . S
C930 H945 0.961 . S
C930 H946 0.961 . S
C931 C932 1.370 . S
C931 C933 1.363 . S
C931 H947 0.931 . S
C932 C931 1.370 . S
C932 C936 1.408 . S
C933 C931 1.363 . S
C933 C934 1.370 . S
C933 C937 1.524 . S
C934 C926 1.503 . S
C934 C933 1.370 . S
C934 C935 1.403 . S
C935 C934 1.403 . S
C935 C936 1.404 . S
C935 C938 1.539 . S
C936 C932 1.408 . S
C936 C935 1.404 . S
C936 H948 0.930 . S
C937 C933 1.524 . S
C937 H949 0.956 . S
C937 H950 0.961 . S
C937 H951 0.961 . S
C938 C935 1.539 . S
C938 H952 0.958 . S
C938 H953 0.961 . S
C938 H954 0.960 . S
H939 C923 0.931 . S
H940 C928 0.929 . S
H941 C929 0.960 . S
H942 C929 0.962 . S
H943 C929 0.960 . S
H944 C930 0.961 . S
H945 C930 0.961 . S
H946 C930 0.961 . S
H947 C931 0.931 . S
H948 C936 0.930 . S
H949 C937 0.956 . S
H950 C937 0.961 . S
H951 C937 0.961 . S
H952 C938 0.958 . S
H953 C938 0.961 . S
H954 C938 0.960 . S
C196 C112 1.370 . S
C188 C10 1.447 . S
C228 C148 1.328 . S
C220 C15 1.415 . S
C260 C113 1.642 . S
C252 C27 1.651 . S
C292 C143 1.533 . S
C284 C38 1.608 . S
C324 C110 1.447 . S
C316 C49 1.487 . S
C348 C59 1.880 . S
C356 C146 1.878 . S
C380 C71 0.804 . S
C388 C115 0.742 . S
C420 C145 1.464 . S
C412 C87 1.511 . S
C452 C149 1.753 . S
C444 C5 1.797 . S
C484 C114 1.163 . S
C476 C16 1.159 . S
C516 C142 1.603 . S
C508 C32 1.602 . S
C548 C111 1.131 . S
C540 C37 1.293 . S
C580 C144 1.668 . S
C572 C48 1.804 . S
C604 C65 1.327 . S
C612 C109 1.313 . S
C636 C70 1.178 . S
C644 C147 1.147 . S
C676 C116 1.466 . S
C668 C82 1.549 . S
C708 C178 1.863 . S
C700 C4 1.933 . S
C732 C54 1.923 . S
C740 C181 1.786 . S
C772 C180 1.933 . S
C764 C60 1.972 . S
C796 C76 1.304 . S
C804 C179 1.280 . S
C836 C182 1.920 . S
C828 C81 2.039 . S
C860 C26 1.897 . S
C868 C176 1.815 . S
C900 C175 1.955 . S
C892 C43 1.959 . S
C924 C21 1.177 . S
C932 C177 1.089 . S
