# Generated by pormake.
# Topology eea, (3,6)-cn, num edge types: 1
# Building blocks:
#     Node 0, Type 0, BuildingBlock: VETTIZ_charged_linker_0, # of connection points: 3
#     Node 1, Type 0, BuildingBlock: VETTIZ_charged_linker_0, # of connection points: 3
#     Node 2, Type 0, BuildingBlock: VETTIZ_charged_linker_0, # of connection points: 3
#     Node 3, Type 0, BuildingBlock: VETTIZ_charged_linker_0, # of connection points: 3
#     Node 4, Type 0, BuildingBlock: VETTIZ_charged_linker_0, # of connection points: 3
#     Node 5, Type 0, BuildingBlock: VETTIZ_charged_linker_0, # of connection points: 3
#     Node 6, Type 0, BuildingBlock: VETTIZ_charged_linker_0, # of connection points: 3
#     Node 7, Type 0, BuildingBlock: VETTIZ_charged_linker_0, # of connection points: 3
#     Node 8, Type 0, BuildingBlock: VETTIZ_charged_linker_0, # of connection points: 3
#     Node 9, Type 0, BuildingBlock: VETTIZ_charged_linker_0, # of connection points: 3
#     Node 10, Type 0, BuildingBlock: VETTIZ_charged_linker_0, # of connection points: 3
#     Node 11, Type 0, BuildingBlock: VETTIZ_charged_linker_0, # of connection points: 3
#     Node 12, Type 0, BuildingBlock: VETTIZ_charged_linker_0, # of connection points: 3
#     Node 13, Type 0, BuildingBlock: VETTIZ_charged_linker_0, # of connection points: 3
#     Node 14, Type 0, BuildingBlock: VETTIZ_charged_linker_0, # of connection points: 3
#     Node 15, Type 0, BuildingBlock: VETTIZ_charged_linker_0, # of connection points: 3
#     Node 16, Type 0, BuildingBlock: VETTIZ_charged_linker_0, # of connection points: 3
#     Node 17, Type 0, BuildingBlock: VETTIZ_charged_linker_0, # of connection points: 3
#     Node 18, Type 1, BuildingBlock: CUKXOW_clean_sbu_0, # of connection points: 6
#     Node 19, Type 1, BuildingBlock: CUKXOW_clean_sbu_0, # of connection points: 6
#     Node 20, Type 1, BuildingBlock: CUKXOW_clean_sbu_0, # of connection points: 6
#     Node 21, Type 1, BuildingBlock: CUKXOW_clean_sbu_0, # of connection points: 6
#     Node 22, Type 1, BuildingBlock: CUKXOW_clean_sbu_0, # of connection points: 6
#     Node 23, Type 1, BuildingBlock: CUKXOW_clean_sbu_0, # of connection points: 6
#     Node 24, Type 1, BuildingBlock: CUKXOW_clean_sbu_0, # of connection points: 6
#     Node 25, Type 1, BuildingBlock: CUKXOW_clean_sbu_0, # of connection points: 6
#     Node 26, Type 1, BuildingBlock: CUKXOW_clean_sbu_0, # of connection points: 6
#     Edge 27, Type (0, 1), BuildingBlock: TEMPAE_clean_linker_10, # of connection points: 2
#     Edge 28, Type (0, 1), BuildingBlock: TEMPAE_clean_linker_10, # of connection points: 2
#     Edge 29, Type (0, 1), BuildingBlock: TEMPAE_clean_linker_10, # of connection points: 2
#     Edge 30, Type (0, 1), BuildingBlock: TEMPAE_clean_linker_10, # of connection points: 2
#     Edge 31, Type (0, 1), BuildingBlock: TEMPAE_clean_linker_10, # of connection points: 2
#     Edge 32, Type (0, 1), BuildingBlock: TEMPAE_clean_linker_10, # of connection points: 2
#     Edge 33, Type (0, 1), BuildingBlock: TEMPAE_clean_linker_10, # of connection points: 2
#     Edge 34, Type (0, 1), BuildingBlock: TEMPAE_clean_linker_10, # of connection points: 2
#     Edge 35, Type (0, 1), BuildingBlock: TEMPAE_clean_linker_10, # of connection points: 2
#     Edge 36, Type (0, 1), BuildingBlock: TEMPAE_clean_linker_10, # of connection points: 2
#     Edge 37, Type (0, 1), BuildingBlock: TEMPAE_clean_linker_10, # of connection points: 2
#     Edge 38, Type (0, 1), BuildingBlock: TEMPAE_clean_linker_10, # of connection points: 2
#     Edge 39, Type (0, 1), BuildingBlock: TEMPAE_clean_linker_10, # of connection points: 2
#     Edge 40, Type (0, 1), BuildingBlock: TEMPAE_clean_linker_10, # of connection points: 2
#     Edge 41, Type (0, 1), BuildingBlock: TEMPAE_clean_linker_10, # of connection points: 2
#     Edge 42, Type (0, 1), BuildingBlock: TEMPAE_clean_linker_10, # of connection points: 2
#     Edge 43, Type (0, 1), BuildingBlock: TEMPAE_clean_linker_10, # of connection points: 2
#     Edge 44, Type (0, 1), BuildingBlock: TEMPAE_clean_linker_10, # of connection points: 2
#     Edge 45, Type (0, 1), BuildingBlock: TEMPAE_clean_linker_10, # of connection points: 2
#     Edge 46, Type (0, 1), BuildingBlock: TEMPAE_clean_linker_10, # of connection points: 2
#     Edge 47, Type (0, 1), BuildingBlock: TEMPAE_clean_linker_10, # of connection points: 2
#     Edge 48, Type (0, 1), BuildingBlock: TEMPAE_clean_linker_10, # of connection points: 2
#     Edge 49, Type (0, 1), BuildingBlock: TEMPAE_clean_linker_10, # of connection points: 2
#     Edge 50, Type (0, 1), BuildingBlock: TEMPAE_clean_linker_10, # of connection points: 2
#     Edge 51, Type (0, 1), BuildingBlock: TEMPAE_clean_linker_10, # of connection points: 2
#     Edge 52, Type (0, 1), BuildingBlock: TEMPAE_clean_linker_10, # of connection points: 2
#     Edge 53, Type (0, 1), BuildingBlock: TEMPAE_clean_linker_10, # of connection points: 2
#     Edge 54, Type (0, 1), BuildingBlock: TEMPAE_clean_linker_10, # of connection points: 2
#     Edge 55, Type (0, 1), BuildingBlock: TEMPAE_clean_linker_10, # of connection points: 2
#     Edge 56, Type (0, 1), BuildingBlock: TEMPAE_clean_linker_10, # of connection points: 2
#     Edge 57, Type (0, 1), BuildingBlock: TEMPAE_clean_linker_10, # of connection points: 2
#     Edge 58, Type (0, 1), BuildingBlock: TEMPAE_clean_linker_10, # of connection points: 2
#     Edge 59, Type (0, 1), BuildingBlock: TEMPAE_clean_linker_10, # of connection points: 2
#     Edge 60, Type (0, 1), BuildingBlock: TEMPAE_clean_linker_10, # of connection points: 2
#     Edge 61, Type (0, 1), BuildingBlock: TEMPAE_clean_linker_10, # of connection points: 2
#     Edge 62, Type (0, 1), BuildingBlock: TEMPAE_clean_linker_10, # of connection points: 2
#     Edge 63, Type (0, 1), BuildingBlock: TEMPAE_clean_linker_10, # of connection points: 2
#     Edge 64, Type (0, 1), BuildingBlock: TEMPAE_clean_linker_10, # of connection points: 2
#     Edge 65, Type (0, 1), BuildingBlock: TEMPAE_clean_linker_10, # of connection points: 2
#     Edge 66, Type (0, 1), BuildingBlock: TEMPAE_clean_linker_10, # of connection points: 2
#     Edge 67, Type (0, 1), BuildingBlock: TEMPAE_clean_linker_10, # of connection points: 2
#     Edge 68, Type (0, 1), BuildingBlock: TEMPAE_clean_linker_10, # of connection points: 2
#     Edge 69, Type (0, 1), BuildingBlock: TEMPAE_clean_linker_10, # of connection points: 2
#     Edge 70, Type (0, 1), BuildingBlock: TEMPAE_clean_linker_10, # of connection points: 2
#     Edge 71, Type (0, 1), BuildingBlock: TEMPAE_clean_linker_10, # of connection points: 2
#     Edge 72, Type (0, 1), BuildingBlock: TEMPAE_clean_linker_10, # of connection points: 2
#     Edge 73, Type (0, 1), BuildingBlock: TEMPAE_clean_linker_10, # of connection points: 2
#     Edge 74, Type (0, 1), BuildingBlock: TEMPAE_clean_linker_10, # of connection points: 2
#     Edge 75, Type (0, 1), BuildingBlock: TEMPAE_clean_linker_10, # of connection points: 2
#     Edge 76, Type (0, 1), BuildingBlock: TEMPAE_clean_linker_10, # of connection points: 2
#     Edge 77, Type (0, 1), BuildingBlock: TEMPAE_clean_linker_10, # of connection points: 2
#     Edge 78, Type (0, 1), BuildingBlock: TEMPAE_clean_linker_10, # of connection points: 2
#     Edge 79, Type (0, 1), BuildingBlock: TEMPAE_clean_linker_10, # of connection points: 2
#     Edge 80, Type (0, 1), BuildingBlock: TEMPAE_clean_linker_10, # of connection points: 2
# Relax obj value: 0.018
# Max RMSD: 0.128
# Mean RMSD: 0.057
data_MOF--net-eea--node1-CUKXOW_clean_sbu_0--node2-VETTIZ_charged_linker_0--edge1-TEMPAE_clean_linker_10
_symmetry_space_group_name_H-M    P1
_symmetry_Int_Tables_number       1
_symmetry_cell_setting            triclinic
loop_
_symmetry_equiv_pos_as_xyz
'x, y, z'
_cell_length_a     67.246775
_cell_length_b     64.28986
_cell_length_c     74.312749
_cell_angle_alpha  93.149291
_cell_angle_beta   93.007928
_cell_angle_gamma 119.90453
loop_
_atom_site_label
_atom_site_type_symbol
_atom_site_fract_x
_atom_site_fract_y
_atom_site_fract_z
_atom_type_partial_charge
C0 C 0.21804 0.17888 0.41134 0.0
C1 C 0.22348 0.20132 0.42009 0.0
C2 C 0.23394 0.20754 0.43803 0.0
C3 C 0.23342 0.16953 0.43796 0.0
C4 C 0.22341 0.16357 0.42036 0.0
C5 C 0.21995 0.13985 0.41246 0.0
H6 H 0.2272 0.04015 0.42335 0.0
C7 C 0.23696 0.14971 0.44327 0.0
C8 C 0.22934 0.13242 0.4283 0.0
H9 H 0.20398 0.05921 0.37484 0.0
H10 H 0.2114 0.09643 0.39071 0.0
H11 H 0.27109 0.09035 0.4328 0.0
H12 H 0.20377 0.05954 0.45186 0.0
H13 H 0.22423 0.07373 0.47073 0.0
H14 H 0.2237 0.04937 0.45714 0.0
H15 H 0.2628 0.07008 0.45019 0.0
H16 H 0.27551 0.10221 0.45541 0.0
C17 C 0.2346 0.1445 0.39611 0.0
C18 C 0.19378 0.1225 0.40776 0.0
C19 C 0.26928 0.1521 0.50731 0.0
C20 C 0.27533 0.13671 0.51565 0.0
C21 C 0.27197 0.11575 0.50575 0.0
C22 C 0.26252 0.11002 0.48773 0.0
C23 C 0.25659 0.12556 0.47946 0.0
C24 C 0.26019 0.14632 0.48915 0.0
C25 C 0.25405 0.16131 0.47775 0.0
C26 C 0.24574 0.14583 0.45976 0.0
C27 C 0.2471 0.12485 0.46094 0.0
C28 C 0.27621 0.18585 0.47646 0.0
C29 C 0.23446 0.16332 0.48618 0.0
C30 C 0.22395 0.05241 0.41602 0.0
C31 C 0.21486 0.04654 0.39778 0.0
C32 C 0.2106 0.06301 0.38896 0.0
C33 C 0.21509 0.08474 0.39817 0.0
C34 C 0.22411 0.09025 0.41639 0.0
C35 C 0.22856 0.07429 0.42496 0.0
C36 C 0.23876 0.08341 0.44418 0.0
C37 C 0.2395 0.10742 0.4458 0.0
C38 C 0.23075 0.11124 0.42954 0.0
C39 C 0.26325 0.08658 0.44591 0.0
C40 C 0.22193 0.06562 0.45676 0.0
H41 H 0.2468 0.19753 0.46062 0.0
H42 H 0.2097 0.1732 0.39769 0.0
H43 H 0.18384 0.12447 0.41858 0.0
H44 H 0.18891 0.10333 0.40673 0.0
H45 H 0.18771 0.12641 0.39488 0.0
H46 H 0.25012 0.16284 0.39782 0.0
H47 H 0.22453 0.14306 0.38329 0.0
H48 H 0.24155 0.13219 0.39459 0.0
H49 H 0.27209 0.16852 0.51463 0.0
H50 H 0.27658 0.10373 0.51204 0.0
H51 H 0.2603 0.09376 0.48093 0.0
H52 H 0.29187 0.18411 0.47767 0.0
H53 H 0.27832 0.19947 0.4874 0.0
H54 H 0.27658 0.19301 0.46321 0.0
H55 H 0.22121 0.14553 0.49016 0.0
H56 H 0.22515 0.16887 0.47673 0.0
H57 H 0.24122 0.17627 0.49851 0.0
H58 H 0.23873 0.22481 0.44507 0.0
C59 C 0.23882 0.19174 0.44702 0.0
C60 C 0.94429 0.1679 0.41147 0.0
C61 C 0.96195 0.18896 0.42133 0.0
C62 C 0.95916 0.1945 0.4393 0.0
C63 C 0.92115 0.15883 0.43701 0.0
C64 C 0.92416 0.15315 0.41954 0.0
C65 C 0.90384 0.13003 0.41094 0.0
H66 H 0.79578 0.03744 0.41592 0.0
C67 C 0.89796 0.14021 0.4411 0.0
C68 C 0.88773 0.12331 0.42586 0.0
H69 H 0.84089 0.04741 0.37367 0.0
H70 H 0.87011 0.08501 0.38953 0.0
H71 H 0.83476 0.05103 0.44789 0.0
H72 H 0.80784 0.09192 0.42318 0.0
H73 H 0.81317 0.10135 0.44642 0.0
H74 H 0.79243 0.07033 0.4388 0.0
H75 H 0.80663 0.0464 0.45115 0.0
H76 H 0.83176 0.06842 0.46541 0.0
C77 C 0.91182 0.11147 0.40719 0.0
C78 C 0.8939 0.13572 0.39386 0.0
C79 C 0.86928 0.14575 0.50223 0.0
C80 C 0.84791 0.13208 0.50921 0.0
C81 C 0.82966 0.11277 0.49819 0.0
C82 C 0.83272 0.1068 0.48056 0.0
C83 C 0.85425 0.12035 0.47381 0.0
C84 C 0.87198 0.13973 0.48446 0.0
C85 C 0.89319 0.15287 0.47456 0.0
C86 C 0.88551 0.13763 0.45649 0.0
C87 C 0.86277 0.11851 0.45623 0.0
C88 C 0.9132 0.15183 0.48496 0.0
C89 C 0.89769 0.17872 0.47265 0.0
C90 C 0.81198 0.04753 0.41007 0.0
C91 C 0.81584 0.03922 0.39342 0.0
C92 C 0.83715 0.0534 0.38629 0.0
C93 C 0.85427 0.07516 0.39563 0.0
C94 C 0.85026 0.08284 0.41242 0.0
C95 C 0.82941 0.06902 0.41939 0.0
C96 C 0.82859 0.07919 0.43785 0.0
C97 C 0.85246 0.10134 0.44088 0.0
C98 C 0.86497 0.10357 0.42587 0.0
C99 C 0.82511 0.06037 0.45138 0.0
C100 C 0.80945 0.08595 0.43668 0.0
H101 H 0.93765 0.18487 0.46084 0.0
H102 H 0.94615 0.16294 0.39775 0.0
H103 H 0.89301 0.15239 0.39672 0.0
H104 H 0.87615 0.12147 0.38916 0.0
H105 H 0.90492 0.13861 0.38256 0.0
H106 H 0.92683 0.11528 0.4167 0.0
H107 H 0.91704 0.11176 0.39323 0.0
H108 H 0.89846 0.09289 0.40931 0.0
H109 H 0.88345 0.16095 0.51035 0.0
H110 H 0.81307 0.10202 0.50335 0.0
H111 H 0.81821 0.09178 0.47291 0.0
H112 H 0.90696 0.13382 0.49003 0.0
H113 H 0.92078 0.16554 0.49683 0.0
H114 H 0.92701 0.15432 0.4764 0.0
H115 H 0.88124 0.17894 0.47127 0.0
H116 H 0.90609 0.18622 0.46034 0.0
H117 H 0.90829 0.19116 0.48469 0.0
H118 H 0.97252 0.21066 0.44713 0.0
C119 C 0.93884 0.17959 0.44717 0.0
C120 C 0.95709 0.79295 0.42464 0.0
C121 C 0.97303 0.78637 0.43099 0.0
C122 C 0.9698 0.7749 0.44704 0.0
C123 C 0.93455 0.77586 0.44991 0.0
C124 C 0.93784 0.78725 0.43417 0.0
C125 C 0.91815 0.7911 0.42859 0.0
H126 H 0.81058 0.76965 0.44094 0.0
C127 C 0.91224 0.77116 0.45593 0.0
C128 C 0.90238 0.7798 0.44342 0.0
H129 H 0.85404 0.80911 0.39992 0.0
H130 H 0.88476 0.80382 0.41302 0.0
H131 H 0.82334 0.72821 0.44121 0.0
H132 H 0.85069 0.79586 0.47361 0.0
H133 H 0.84942 0.77479 0.48823 0.0
H134 H 0.82318 0.77031 0.47653 0.0
H135 H 0.80788 0.73312 0.45833 0.0
H136 H 0.82804 0.72307 0.46359 0.0
C137 C 0.90712 0.77716 0.40977 0.0
C138 C 0.92747 0.81857 0.42917 0.0
C139 C 0.88499 0.72975 0.51331 0.0
C140 C 0.8642 0.72109 0.5213 0.0
C141 C 0.84638 0.72382 0.51317 0.0
C142 C 0.84927 0.7353 0.49726 0.0
C143 C 0.87014 0.74389 0.48929 0.0
C144 C 0.88749 0.74085 0.49722 0.0
C145 C 0.90786 0.74977 0.48622 0.0
C146 C 0.90025 0.75957 0.47081 0.0
C147 C 0.8782 0.75613 0.47273 0.0
C148 C 0.91035 0.72791 0.47957 0.0
C149 C 0.92919 0.77001 0.49798 0.0
C150 C 0.82669 0.777 0.43475 0.0
C151 C 0.82989 0.78957 0.4193 0.0
C152 C 0.85125 0.79937 0.41184 0.0
C153 C 0.86898 0.79618 0.41942 0.0
C154 C 0.86538 0.78315 0.43468 0.0
C155 C 0.84466 0.77423 0.44228 0.0
C156 C 0.84427 0.76192 0.45898 0.0
C157 C 0.86798 0.76445 0.45994 0.0
C158 C 0.88017 0.77662 0.44555 0.0
C159 C 0.82481 0.73521 0.45554 0.0
C160 C 0.84159 0.77622 0.47526 0.0
H161 H 0.94922 0.76103 0.46875 0.0
H162 H 0.95916 0.80154 0.41218 0.0
H163 H 0.94171 0.82859 0.44012 0.0
H164 H 0.91437 0.82347 0.43235 0.0
H165 H 0.93432 0.8256 0.41619 0.0
H166 H 0.90605 0.75929 0.40901 0.0
H167 H 0.91752 0.78726 0.39885 0.0
H168 H 0.88927 0.77315 0.40675 0.0
H169 H 0.89875 0.72744 0.51924 0.0
H170 H 0.83022 0.71712 0.51923 0.0
H171 H 0.83508 0.73688 0.49172 0.0
H172 H 0.89381 0.71058 0.47934 0.0
H173 H 0.92334 0.72653 0.4885 0.0
H174 H 0.91498 0.72861 0.46546 0.0
H175 H 0.92471 0.78247 0.50529 0.0
H176 H 0.94343 0.7814 0.48996 0.0
H177 H 0.93568 0.76238 0.50825 0.0
H178 H 0.982 0.76976 0.45208 0.0
C179 C 0.95075 0.7698 0.45662 0.0
C180 C 0.16278 0.22433 0.58014 0.0
C181 C 0.18481 0.23196 0.5745 0.0
C182 C 0.19157 0.24524 0.55932 0.0
C183 C 0.15438 0.2427 0.55536 0.0
C184 C 0.14799 0.23014 0.57052 0.0
C185 C 0.12446 0.22465 0.57523 0.0
H186 H 0.03078 0.23655 0.55803 0.0
C187 C 0.13504 0.24568 0.54841 0.0
C188 C 0.11752 0.23535 0.56008 0.0
H189 H 0.04465 0.20297 0.60196 0.0
H190 H 0.08012 0.21033 0.58997 0.0
H191 H 0.08375 0.28161 0.55641 0.0
H192 H 0.04339 0.21092 0.5282 0.0
H193 H 0.06282 0.22859 0.51305 0.0
H194 H 0.04189 0.23613 0.52062 0.0
H195 H 0.05823 0.2719 0.54142 0.0
H196 H 0.08598 0.28367 0.5329 0.0
C197 C 0.12725 0.23804 0.59401 0.0
C198 C 0.10872 0.19694 0.57428 0.0
C199 C 0.13998 0.28482 0.49004 0.0
C200 C 0.12406 0.28815 0.47948 0.0
C201 C 0.10219 0.28087 0.48537 0.0
C202 C 0.09632 0.27056 0.50182 0.0
C203 C 0.11239 0.26721 0.51227 0.0
C204 C 0.1337 0.27405 0.50621 0.0
C205 C 0.14805 0.26782 0.51851 0.0
C206 C 0.13183 0.25606 0.53295 0.0
C207 C 0.11115 0.25611 0.52937 0.0
C208 C 0.16999 0.29157 0.5262 0.0
C209 C 0.1528 0.24975 0.5076 0.0
C210 C 0.04161 0.23098 0.56509 0.0
C211 C 0.0352 0.21947 0.58104 0.0
C212 C 0.04935 0.21189 0.58965 0.0
C213 C 0.06996 0.21631 0.58272 0.0
C214 C 0.07642 0.22829 0.56694 0.0
C215 C 0.06211 0.23501 0.55822 0.0
C216 C 0.07112 0.24639 0.54111 0.0
C217 C 0.09376 0.24648 0.54149 0.0
C218 C 0.09684 0.23598 0.55668 0.0
C219 C 0.07492 0.27225 0.54289 0.0
C220 C 0.05396 0.22986 0.52485 0.0
H221 H 0.18255 0.26061 0.53817 0.0
H222 H 0.15737 0.21448 0.59199 0.0
H223 H 0.11255 0.18794 0.56286 0.0
H224 H 0.09026 0.19101 0.57163 0.0
H225 H 0.11134 0.18984 0.58693 0.0
H226 H 0.14356 0.25574 0.59577 0.0
H227 H 0.12774 0.22738 0.60511 0.0
H228 H 0.11359 0.24251 0.59587 0.0
H229 H 0.15679 0.29003 0.48558 0.0
H230 H 0.08976 0.28332 0.47729 0.0
H231 H 0.0795 0.26556 0.50573 0.0
H232 H 0.16641 0.30667 0.52779 0.0
H233 H 0.18398 0.29684 0.51709 0.0
H234 H 0.17643 0.29053 0.53992 0.0
H235 H 0.13734 0.23671 0.49846 0.0
H236 H 0.15662 0.23851 0.51621 0.0
H237 H 0.16724 0.25925 0.49906 0.0
H238 H 0.20852 0.2513 0.55483 0.0
C239 C 0.17644 0.25055 0.54967 0.0
C240 C 0.78321 0.82443 0.58871 0.0
C241 C 0.77519 0.80089 0.5808 0.0
C242 C 0.7623 0.79364 0.56374 0.0
C243 C 0.76528 0.83275 0.56308 0.0
C244 C 0.77779 0.8398 0.57981 0.0
C245 C 0.78376 0.86474 0.587 0.0
H246 H 0.77214 0.96227 0.57848 0.0
C247 C 0.76197 0.85272 0.55785 0.0
C248 C 0.77245 0.87136 0.57193 0.0
H249 H 0.81178 0.95127 0.62085 0.0
H250 H 0.80083 0.91242 0.60594 0.0
H251 H 0.79189 0.94399 0.54671 0.0
H252 H 0.72897 0.90924 0.57264 0.0
H253 H 0.72176 0.89994 0.54938 0.0
H254 H 0.73445 0.93146 0.55705 0.0
H255 H 0.76908 0.95042 0.54251 0.0
H256 H 0.76974 0.92616 0.5297 0.0
C257 C 0.81036 0.88102 0.58885 0.0
C258 C 0.77244 0.86283 0.60493 0.0
C259 C 0.72297 0.84727 0.49594 0.0
C260 C 0.71656 0.86253 0.48784 0.0
C261 C 0.71993 0.88341 0.49788 0.0
C262 C 0.73033 0.88952 0.51565 0.0
C263 C 0.73726 0.87447 0.52347 0.0
C264 C 0.73303 0.85343 0.51382 0.0
C265 C 0.74015 0.83887 0.52482 0.0
C266 C 0.7507 0.85542 0.54222 0.0
C267 C 0.74908 0.87628 0.54128 0.0
C268 C 0.75829 0.83566 0.51497 0.0
C269 C 0.71823 0.81485 0.52779 0.0
C270 C 0.7787 0.95169 0.58453 0.0
C271 C 0.7927 0.95996 0.60105 0.0
C272 C 0.80054 0.94525 0.6084 0.0
C273 C 0.79431 0.92271 0.59963 0.0
C274 C 0.78022 0.91473 0.58323 0.0
C275 C 0.77298 0.92932 0.57581 0.0
C276 C 0.7594 0.91862 0.5577 0.0
C277 C 0.75923 0.89492 0.55568 0.0
C278 C 0.7712 0.89263 0.57077 0.0
C279 C 0.77299 0.93561 0.54331 0.0
C280 C 0.73487 0.9147 0.55908 0.0
H281 H 0.74755 0.8029 0.5419 0.0
H282 H 0.7935 0.83087 0.60162 0.0
H283 H 0.75484 0.84671 0.60383 0.0
H284 H 0.77 0.87823 0.60853 0.0
H285 H 0.7827 0.86109 0.61634 0.0
H286 H 0.81829 0.87494 0.57856 0.0
H287 H 0.81793 0.88069 0.6024 0.0
H288 H 0.81603 0.89989 0.58636 0.0
H289 H 0.72006 0.83086 0.48852 0.0
H290 H 0.71493 0.89526 0.49179 0.0
H291 H 0.73271 0.90581 0.52255 0.0
H292 H 0.77145 0.85309 0.51042 0.0
H293 H 0.75008 0.82247 0.50283 0.0
H294 H 0.76787 0.82965 0.52368 0.0
H295 H 0.70246 0.81639 0.52644 0.0
H296 H 0.71872 0.80945 0.54163 0.0
H297 H 0.71557 0.8 0.51778 0.0
H298 H 0.75557 0.77556 0.55738 0.0
C299 C 0.75742 0.80947 0.55482 0.0
C300 C 0.04984 0.83081 0.58488 0.0
C301 C 0.03187 0.81035 0.57468 0.0
C302 C 0.03411 0.80598 0.5563 0.0
C303 C 0.0722 0.84167 0.55884 0.0
C304 C 0.06967 0.84617 0.57673 0.0
C305 C 0.09015 0.86879 0.58574 0.0
H306 H 0.1947 0.96658 0.57979 0.0
C307 C 0.09513 0.86094 0.55471 0.0
C308 C 0.10563 0.87694 0.57043 0.0
H309 H 0.15504 0.94727 0.62628 0.0
H310 H 0.12528 0.91098 0.60918 0.0
H311 H 0.18796 0.91576 0.57037 0.0
H312 H 0.15257 0.95059 0.54944 0.0
H313 H 0.15788 0.93636 0.53092 0.0
H314 H 0.18177 0.95927 0.54574 0.0
H315 H 0.19889 0.93571 0.55291 0.0
H316 H 0.17909 0.9038 0.54772 0.0
C317 C 0.10081 0.8619 0.6017 0.0
C318 C 0.08208 0.8868 0.59128 0.0
C319 C 0.12399 0.85861 0.4929 0.0
C320 C 0.14529 0.87316 0.48606 0.0
C321 C 0.16262 0.89347 0.49689 0.0
C322 C 0.15894 0.89923 0.51434 0.0
C323 C 0.13775 0.88438 0.52119 0.0
C324 C 0.12069 0.86441 0.51058 0.0
C325 C 0.09972 0.85023 0.52057 0.0
C326 C 0.10711 0.86499 0.53888 0.0
C327 C 0.12932 0.88506 0.53902 0.0
C328 C 0.09629 0.82472 0.52197 0.0
C329 C 0.07908 0.85049 0.51055 0.0
C330 C 0.17978 0.95446 0.58643 0.0
C331 C 0.17728 0.96004 0.60445 0.0
C332 C 0.15731 0.94374 0.61235 0.0
C333 C 0.14006 0.92256 0.60241 0.0
C334 C 0.14276 0.91747 0.58435 0.0
C335 C 0.16251 0.93319 0.57676 0.0
C336 C 0.16284 0.92461 0.55762 0.0
C337 C 0.13969 0.90148 0.55477 0.0
C338 C 0.12797 0.89739 0.57042 0.0
C339 C 0.18328 0.91983 0.55696 0.0
C340 C 0.16397 0.94366 0.54517 0.0
H341 H 0.05498 0.81711 0.53436 0.0
H342 H 0.04845 0.83492 0.59893 0.0
H343 H 0.06853 0.88525 0.58112 0.0
H344 H 0.09593 0.90581 0.59186 0.0
H345 H 0.07471 0.8833 0.60455 0.0
H346 H 0.0997 0.84427 0.59822 0.0
H347 H 0.09162 0.86028 0.614 0.0
H348 H 0.11936 0.87478 0.60507 0.0
H349 H 0.11048 0.84275 0.48487 0.0
H350 H 0.17908 0.90495 0.49178 0.0
H351 H 0.17282 0.91496 0.52186 0.0
H352 H 0.11317 0.82566 0.52465 0.0
H353 H 0.08767 0.81303 0.50917 0.0
H354 H 0.08633 0.81569 0.53327 0.0
H355 H 0.0847 0.86819 0.50512 0.0
H356 H 0.06566 0.84815 0.5195 0.0
H357 H 0.07119 0.83636 0.49896 0.0
H358 H 0.02048 0.79031 0.54818 0.0
C359 C 0.05419 0.8215 0.54834 0.0
C360 C 0.88617 0.5115 0.73868 0.0
C361 C 0.8922 0.53402 0.74762 0.0
C362 C 0.90299 0.53996 0.76545 0.0
C363 C 0.9013 0.50138 0.76503 0.0
C364 C 0.89112 0.49573 0.74748 0.0
C365 C 0.88689 0.47173 0.73945 0.0
H366 H 0.89084 0.37006 0.74988 0.0
C367 C 0.9041 0.48107 0.77018 0.0
C368 C 0.89595 0.46378 0.75517 0.0
H369 H 0.8683 0.39011 0.70157 0.0
H370 H 0.87685 0.42773 0.71753 0.0
H371 H 0.9356 0.41967 0.75937 0.0
H372 H 0.86837 0.39036 0.77845 0.0
H373 H 0.88883 0.40419 0.79733 0.0
H374 H 0.88773 0.37949 0.78378 0.0
H375 H 0.92668 0.39901 0.7765 0.0
H376 H 0.94021 0.43117 0.7821 0.0
C377 C 0.90133 0.47598 0.72301 0.0
C378 C 0.8606 0.45505 0.73484 0.0
C379 C 0.93548 0.48194 0.83417 0.0
C380 C 0.94076 0.46598 0.84248 0.0
C381 C 0.93685 0.44484 0.83249 0.0
C382 C 0.92758 0.4395 0.81443 0.0
C383 C 0.92238 0.45559 0.80621 0.0
C384 C 0.92656 0.47653 0.81598 0.0
C385 C 0.92115 0.49209 0.80465 0.0
C386 C 0.91255 0.47673 0.78662 0.0
C387 C 0.91314 0.45533 0.7877 0.0
C388 C 0.94377 0.51624 0.80347 0.0
C389 C 0.90193 0.49483 0.8131 0.0
C390 C 0.88798 0.38262 0.74261 0.0
C391 C 0.87881 0.37696 0.7244 0.0
C392 C 0.87502 0.39379 0.71566 0.0
C393 C 0.88016 0.41574 0.72492 0.0
C394 C 0.88931 0.42105 0.74311 0.0
C395 C 0.89322 0.40467 0.75159 0.0
C396 C 0.90355 0.41354 0.77081 0.0
C397 C 0.90507 0.43792 0.77251 0.0
C398 C 0.89658 0.44216 0.75631 0.0
C399 C 0.9277 0.41587 0.77245 0.0
C400 C 0.88642 0.39602 0.78337 0.0
H401 H 0.91565 0.52932 0.78774 0.0
H402 H 0.87763 0.50605 0.72509 0.0
H403 H 0.85096 0.45737 0.74575 0.0
H404 H 0.85519 0.43573 0.73372 0.0
H405 H 0.85471 0.45928 0.72203 0.0
H406 H 0.91731 0.49397 0.72483 0.0
H407 H 0.89142 0.4752 0.7103 0.0
H408 H 0.90752 0.46304 0.72123 0.0
H409 H 0.93874 0.49851 0.84155 0.0
H410 H 0.94086 0.43238 0.83875 0.0
H411 H 0.92491 0.42307 0.80757 0.0
H412 H 0.95911 0.51397 0.80496 0.0
H413 H 0.94607 0.5301 0.81427 0.0
H414 H 0.94461 0.52337 0.79015 0.0
H415 H 0.88827 0.47719 0.81698 0.0
H416 H 0.89306 0.50092 0.80371 0.0
H417 H 0.90896 0.50766 0.8255 0.0
H418 H 0.90831 0.55731 0.77261 0.0
C419 C 0.90745 0.52375 0.7742 0.0
C420 C 0.61474 0.51503 0.7479 0.0
C421 C 0.63232 0.537 0.75673 0.0
C422 C 0.62956 0.54459 0.77409 0.0
C423 C 0.59193 0.50869 0.77343 0.0
C424 C 0.59486 0.50117 0.7565 0.0
C425 C 0.57484 0.47708 0.74916 0.0
H426 H 0.47209 0.38011 0.76137 0.0
C427 C 0.56939 0.49002 0.77858 0.0
C428 C 0.55938 0.47135 0.76447 0.0
H429 H 0.51081 0.39287 0.71449 0.0
H430 H 0.54022 0.43145 0.72896 0.0
H431 H 0.51376 0.4 0.79106 0.0
H432 H 0.47928 0.43363 0.76612 0.0
H433 H 0.48493 0.44388 0.7892 0.0
H434 H 0.46663 0.41213 0.7824 0.0
H435 H 0.48599 0.39428 0.79678 0.0
H436 H 0.51228 0.41893 0.80821 0.0
C437 C 0.58374 0.45913 0.7466 0.0
C438 C 0.56372 0.48049 0.7316 0.0
C439 C 0.54095 0.5021 0.83823 0.0
C440 C 0.5212 0.48733 0.84694 0.0
C441 C 0.50503 0.46432 0.8384 0.0
C442 C 0.50823 0.4563 0.82152 0.0
C443 C 0.52794 0.47127 0.813 0.0
C444 C 0.54402 0.49366 0.8214 0.0
C445 C 0.56442 0.50655 0.81061 0.0
C446 C 0.55757 0.48841 0.79419 0.0
C447 C 0.53615 0.46786 0.79567 0.0
C448 C 0.58616 0.51019 0.82193 0.0
C449 C 0.56577 0.53021 0.8055 0.0
C450 C 0.48674 0.39127 0.75409 0.0
C451 C 0.48907 0.38325 0.73674 0.0
C452 C 0.5087 0.39835 0.72796 0.0
C453 C 0.52573 0.42085 0.73635 0.0
C454 C 0.52315 0.42849 0.75372 0.0
C455 C 0.50379 0.41385 0.7622 0.0
C456 C 0.50359 0.4251 0.78041 0.0
C457 C 0.52616 0.44883 0.78156 0.0
C458 C 0.53761 0.45066 0.76596 0.0
C459 C 0.50375 0.40878 0.79497 0.0
C460 C 0.48249 0.42881 0.7797 0.0
H461 H 0.60821 0.5374 0.79562 0.0
H462 H 0.61656 0.5086 0.73465 0.0
H463 H 0.56477 0.49835 0.73254 0.0
H464 H 0.54513 0.46726 0.72902 0.0
H465 H 0.57259 0.47951 0.71966 0.0
H466 H 0.59698 0.46249 0.75776 0.0
H467 H 0.59177 0.461 0.73366 0.0
H468 H 0.57018 0.44018 0.74703 0.0
H469 H 0.55378 0.51984 0.84434 0.0
H470 H 0.49001 0.45216 0.84494 0.0
H471 H 0.4953 0.43861 0.81586 0.0
H472 H 0.58169 0.49578 0.83121 0.0
H473 H 0.5949 0.52774 0.83036 0.0
H474 H 0.59866 0.50899 0.81347 0.0
H475 H 0.54831 0.52701 0.80112 0.0
H476 H 0.57612 0.53771 0.79403 0.0
H477 H 0.573 0.54412 0.81725 0.0
H478 H 0.64287 0.56152 0.78107 0.0
C479 C 0.60941 0.5306 0.78246 0.0
C480 C 0.61825 0.10836 0.75292 0.0
C481 C 0.63441 0.10209 0.75929 0.0
C482 C 0.63111 0.09032 0.7752 0.0
C483 C 0.59595 0.09144 0.77833 0.0
C484 C 0.59906 0.10263 0.76251 0.0
C485 C 0.57948 0.10671 0.75708 0.0
H486 H 0.47873 0.09931 0.77587 0.0
C487 C 0.57422 0.08787 0.78492 0.0
C488 C 0.56437 0.09657 0.77244 0.0
H489 H 0.51531 0.12462 0.72848 0.0
H490 H 0.54475 0.11639 0.74012 0.0
H491 H 0.48277 0.05378 0.77608 0.0
H492 H 0.52416 0.12344 0.80554 0.0
H493 H 0.51885 0.1016 0.82076 0.0
H494 H 0.49496 0.10265 0.80962 0.0
H495 H 0.47399 0.06209 0.79631 0.0
H496 H 0.49175 0.04833 0.79698 0.0
C497 C 0.56748 0.09195 0.73864 0.0
C498 C 0.58928 0.13417 0.75692 0.0
C499 C 0.54915 0.05116 0.8444 0.0
C500 C 0.52938 0.04497 0.85339 0.0
C501 C 0.51249 0.04968 0.84605 0.0
C502 C 0.51522 0.06054 0.82987 0.0
C503 C 0.53498 0.06655 0.82085 0.0
C504 C 0.5515 0.06174 0.82806 0.0
C505 C 0.57078 0.0684 0.8161 0.0
C506 C 0.56319 0.07822 0.80067 0.0
C507 C 0.54232 0.07722 0.80365 0.0
C508 C 0.57104 0.04516 0.80973 0.0
C509 C 0.59339 0.08816 0.82683 0.0
C510 C 0.49323 0.10327 0.76813 0.0
C511 C 0.49491 0.11277 0.75136 0.0
C512 C 0.51372 0.11723 0.74143 0.0
C513 C 0.53077 0.11249 0.74823 0.0
C514 C 0.52884 0.10292 0.76504 0.0
C515 C 0.51019 0.09829 0.77459 0.0
C516 C 0.51032 0.08704 0.79175 0.0
C517 C 0.53229 0.08593 0.79105 0.0
C518 C 0.54318 0.09543 0.77547 0.0
C519 C 0.48858 0.06156 0.7904 0.0
C520 C 0.51201 0.10438 0.80786 0.0
H521 H 0.61051 0.07622 0.79692 0.0
H522 H 0.62027 0.11705 0.74051 0.0
H523 H 0.60181 0.14411 0.76895 0.0
H524 H 0.57597 0.13937 0.75762 0.0
H525 H 0.59842 0.14087 0.74464 0.0
H526 H 0.56907 0.07554 0.73698 0.0
H527 H 0.57522 0.10277 0.72716 0.0
H528 H 0.54871 0.085 0.73736 0.0
H529 H 0.5622 0.04739 0.84978 0.0
H530 H 0.49715 0.04493 0.8529 0.0
H531 H 0.50176 0.0637 0.82498 0.0
H532 H 0.55356 0.02895 0.80918 0.0
H533 H 0.58268 0.0422 0.81906 0.0
H534 H 0.57611 0.04528 0.79581 0.0
H535 H 0.59049 0.10173 0.83434 0.0
H536 H 0.60716 0.09847 0.81809 0.0
H537 H 0.59988 0.08025 0.83687 0.0
H538 H 0.64343 0.08534 0.78024 0.0
C539 C 0.61204 0.08509 0.78483 0.0
C540 C 0.83023 0.55619 0.91112 0.0
C541 C 0.85199 0.56355 0.90501 0.0
C542 C 0.85807 0.57608 0.88943 0.0
C543 C 0.82065 0.57309 0.88591 0.0
C544 C 0.81496 0.56135 0.90149 0.0
C545 C 0.79155 0.55587 0.90654 0.0
H546 H 0.69306 0.55823 0.88728 0.0
C547 C 0.80076 0.5751 0.87887 0.0
C548 C 0.78368 0.56513 0.8909 0.0
H549 H 0.71441 0.53737 0.93559 0.0
H550 H 0.74959 0.54499 0.92309 0.0
H551 H 0.74339 0.60557 0.88399 0.0
H552 H 0.71118 0.53292 0.8584 0.0
H553 H 0.72647 0.55265 0.84233 0.0
H554 H 0.70272 0.55393 0.85151 0.0
H555 H 0.71816 0.59277 0.86817 0.0
H556 H 0.74656 0.60647 0.8606 0.0
C557 C 0.79471 0.57043 0.92489 0.0
C558 C 0.77629 0.52824 0.90673 0.0
C559 C 0.80427 0.61267 0.82006 0.0
C560 C 0.78807 0.61515 0.80914 0.0
C561 C 0.76554 0.60591 0.81429 0.0
C562 C 0.75946 0.59492 0.83051 0.0
C563 C 0.77603 0.59295 0.84152 0.0
C564 C 0.79784 0.60131 0.83598 0.0
C565 C 0.81278 0.59625 0.84858 0.0
C566 C 0.79662 0.58406 0.86293 0.0
C567 C 0.77521 0.58247 0.85892 0.0
C568 C 0.83393 0.62065 0.85628 0.0
C569 C 0.81878 0.5789 0.83801 0.0
C570 C 0.70532 0.55517 0.89501 0.0
C571 C 0.70111 0.5472 0.91239 0.0
C572 C 0.71746 0.54363 0.92222 0.0
C573 C 0.73787 0.54811 0.91495 0.0
C574 C 0.74218 0.55659 0.89775 0.0
C575 C 0.7261 0.56005 0.88807 0.0
C576 C 0.73427 0.57028 0.87038 0.0
C577 C 0.75802 0.57277 0.87127 0.0
C578 C 0.76237 0.5644 0.88724 0.0
C579 C 0.73561 0.59504 0.87061 0.0
C580 C 0.71781 0.55167 0.85474 0.0
H581 H 0.84807 0.59023 0.86796 0.0
H582 H 0.82536 0.54696 0.92329 0.0
H583 H 0.77841 0.51876 0.89464 0.0
H584 H 0.75773 0.5221 0.9062 0.0
H585 H 0.78114 0.52198 0.91896 0.0
H586 H 0.81236 0.58638 0.92752 0.0
H587 H 0.79184 0.55919 0.93638 0.0
H588 H 0.78317 0.57808 0.92523 0.0
H589 H 0.82155 0.6192 0.81614 0.0
H590 H 0.75281 0.60753 0.80589 0.0
H591 H 0.74213 0.58843 0.83389 0.0
H592 H 0.82897 0.63464 0.85864 0.0
H593 H 0.84755 0.62729 0.84675 0.0
H594 H 0.84143 0.61979 0.86961 0.0
H595 H 0.80444 0.56646 0.82774 0.0
H596 H 0.82129 0.56688 0.84673 0.0
H597 H 0.83441 0.58904 0.83077 0.0
H598 H 0.8748 0.58192 0.88457 0.0
C599 C 0.84249 0.58078 0.8798 0.0
C600 C 0.44028 0.15566 0.9342 0.0
C601 C 0.43985 0.13632 0.92398 0.0
C602 C 0.43261 0.1323 0.90531 0.0
C603 C 0.42598 0.16608 0.90752 0.0
C604 C 0.4334 0.17028 0.92573 0.0
C605 C 0.43336 0.19187 0.93458 0.0
H606 H 0.41067 0.28263 0.92744 0.0
C607 C 0.41957 0.18419 0.903 0.0
C608 C 0.42381 0.19933 0.91882 0.0
H609 H 0.44478 0.27021 0.97315 0.0
H610 H 0.43901 0.23379 0.95706 0.0
H611 H 0.43862 0.27278 0.89876 0.0
H612 H 0.37133 0.22753 0.9161 0.0
H613 H 0.36923 0.22016 0.89271 0.0
H614 H 0.37676 0.25035 0.90109 0.0
H615 H 0.41456 0.27686 0.89318 0.0
H616 H 0.42001 0.25672 0.8793 0.0
C617 C 0.45858 0.21125 0.9412 0.0
C618 C 0.41686 0.18347 0.94976 0.0
C619 C 0.3886 0.18305 0.83877 0.0
C620 C 0.37959 0.19642 0.83101 0.0
C621 C 0.37824 0.21416 0.84197 0.0
C622 C 0.38604 0.21881 0.86038 0.0
C623 C 0.39524 0.20552 0.86796 0.0
C624 C 0.39606 0.18771 0.85728 0.0
C625 C 0.4051 0.17448 0.86797 0.0
C626 C 0.41017 0.18775 0.88669 0.0
C627 C 0.40459 0.20607 0.88652 0.0
C628 C 0.42735 0.17809 0.86005 0.0
C629 C 0.38565 0.1478 0.86746 0.0
C630 C 0.417 0.27218 0.93404 0.0
C631 C 0.42832 0.27958 0.95164 0.0
C632 C 0.43576 0.26496 0.95973 0.0
C633 C 0.43269 0.24392 0.95025 0.0
C634 C 0.42232 0.23749 0.93238 0.0
C635 C 0.41459 0.25149 0.92462 0.0
C636 C 0.40528 0.24283 0.90517 0.0
C637 C 0.40901 0.22151 0.90245 0.0
C638 C 0.41874 0.21828 0.91848 0.0
C639 C 0.42017 0.26328 0.89336 0.0
C640 C 0.37934 0.23492 0.90351 0.0
H641 H 0.42033 0.14298 0.88284 0.0
H642 H 0.44559 0.15925 0.94858 0.0
H643 H 0.40068 0.16641 0.94502 0.0
H644 H 0.41145 0.19647 0.954 0.0
H645 H 0.42492 0.18009 0.96184 0.0
H646 H 0.47107 0.20934 0.93302 0.0
H647 H 0.46288 0.20982 0.95554 0.0
H648 H 0.46217 0.22979 0.93966 0.0
H649 H 0.38942 0.169 0.83068 0.0
H650 H 0.37136 0.22465 0.83621 0.0
H651 H 0.38467 0.23265 0.86797 0.0
H652 H 0.43787 0.19683 0.85629 0.0
H653 H 0.42321 0.16564 0.84768 0.0
H654 H 0.4388 0.17566 0.86981 0.0
H655 H 0.36839 0.14627 0.86681 0.0
H656 H 0.38648 0.13932 0.87979 0.0
H657 H 0.38591 0.13692 0.85543 0.0
H658 H 0.43255 0.11791 0.89698 0.0
C659 C 0.42564 0.147 0.89707 0.0
C660 C 0.71528 0.15941 0.91701 0.0
C661 C 0.69757 0.13881 0.90674 0.0
C662 C 0.69999 0.13463 0.88838 0.0
C663 C 0.73765 0.17086 0.89102 0.0
C664 C 0.735 0.17516 0.90891 0.0
C665 C 0.75517 0.19807 0.91792 0.0
H666 H 0.85886 0.29721 0.91173 0.0
C667 C 0.76033 0.19054 0.88688 0.0
C668 C 0.7706 0.20662 0.90259 0.0
H669 H 0.81938 0.27759 0.9583 0.0
H670 H 0.78985 0.24099 0.94127 0.0
H671 H 0.85265 0.24652 0.90216 0.0
H672 H 0.81653 0.28088 0.88169 0.0
H673 H 0.82154 0.26664 0.86301 0.0
H674 H 0.84566 0.28975 0.87755 0.0
H675 H 0.86355 0.26707 0.88507 0.0
H676 H 0.84419 0.23517 0.87937 0.0
C677 C 0.76623 0.19158 0.93385 0.0
C678 C 0.74652 0.21556 0.9235 0.0
C679 C 0.78905 0.18903 0.82498 0.0
C680 C 0.81011 0.20404 0.81797 0.0
C681 C 0.82721 0.22463 0.82871 0.0
C682 C 0.82354 0.23018 0.84622 0.0
C683 C 0.80259 0.21488 0.85321 0.0
C684 C 0.78577 0.19466 0.84268 0.0
C685 C 0.765 0.18007 0.85275 0.0
C686 C 0.77224 0.19488 0.87103 0.0
C687 C 0.79419 0.2153 0.8711 0.0
C688 C 0.7623 0.15486 0.85417 0.0
C689 C 0.74397 0.17968 0.8428 0.0
C690 C 0.84403 0.28496 0.91841 0.0
C691 C 0.84153 0.29046 0.93643 0.0
C692 C 0.82165 0.27404 0.94437 0.0
C693 C 0.80455 0.25271 0.93447 0.0
C694 C 0.80729 0.24764 0.91642 0.0
C695 C 0.8269 0.26358 0.90878 0.0
C696 C 0.82728 0.25515 0.88961 0.0
C697 C 0.80437 0.23177 0.88682 0.0
C698 C 0.7927 0.22743 0.90252 0.0
C699 C 0.84801 0.25086 0.88884 0.0
C700 C 0.82794 0.27405 0.87721 0.0
H701 H 0.72086 0.14627 0.86649 0.0
H702 H 0.71372 0.16334 0.93106 0.0
H703 H 0.73276 0.21363 0.91338 0.0
H704 H 0.76005 0.23471 0.92406 0.0
H705 H 0.73923 0.21188 0.9368 0.0
H706 H 0.76592 0.17438 0.93023 0.0
H707 H 0.75675 0.18929 0.94607 0.0
H708 H 0.78459 0.20504 0.93741 0.0
H709 H 0.77572 0.17296 0.81703 0.0
H710 H 0.84347 0.23651 0.82348 0.0
H711 H 0.83724 0.24614 0.85367 0.0
H712 H 0.77943 0.15632 0.8567 0.0
H713 H 0.75368 0.14301 0.84144 0.0
H714 H 0.75267 0.14573 0.86559 0.0
H715 H 0.74917 0.19712 0.83707 0.0
H716 H 0.73068 0.17742 0.85188 0.0
H717 H 0.73602 0.16522 0.83144 0.0
H718 H 0.68657 0.11885 0.88021 0.0
C719 C 0.71994 0.15051 0.88048 0.0
C720 C 0.56298 0.84353 0.06429 0.0
C721 C 0.56165 0.86174 0.07463 0.0
C722 C 0.5668 0.8645 0.09356 0.0
C723 C 0.57429 0.83131 0.0915 0.0
C724 C 0.56922 0.82855 0.07297 0.0
C725 C 0.57091 0.80799 0.06401 0.0
H726 H 0.58656 0.71281 0.07276 0.0
C727 C 0.57998 0.81276 0.09628 0.0
C728 C 0.57803 0.79901 0.08022 0.0
H729 H 0.56975 0.73579 0.02342 0.0
H730 H 0.57212 0.77019 0.04042 0.0
H731 H 0.62668 0.7647 0.08808 0.0
H732 H 0.55538 0.72354 0.09791 0.0
H733 H 0.57165 0.73624 0.11896 0.0
H734 H 0.57669 0.71588 0.10499 0.0
H735 H 0.61698 0.74198 0.10365 0.0
H736 H 0.6255 0.77285 0.11075 0.0
C737 C 0.5899 0.81825 0.05076 0.0
C738 C 0.54671 0.78905 0.05498 0.0
C739 C 0.60236 0.80878 0.16197 0.0
C740 C 0.60977 0.79436 0.17023 0.0
C741 C 0.61071 0.77614 0.15956 0.0
C742 C 0.60448 0.77234 0.1409 0.0
C743 C 0.59738 0.78706 0.13274 0.0
C744 C 0.5965 0.80498 0.14322 0.0
C745 C 0.5895 0.81949 0.13202 0.0
C746 C 0.58642 0.80735 0.11314 0.0
C747 C 0.59083 0.78824 0.1137 0.0
C748 C 0.60961 0.84596 0.13407 0.0
C749 C 0.56648 0.81609 0.13817 0.0
C750 C 0.58381 0.72542 0.06547 0.0
C751 C 0.57781 0.72135 0.04666 0.0
C752 C 0.57402 0.73819 0.03792 0.0
C753 C 0.57544 0.7582 0.04782 0.0
C754 C 0.5807 0.76149 0.0667 0.0
C755 C 0.58524 0.74548 0.07512 0.0
C756 C 0.59105 0.75197 0.09518 0.0
C757 C 0.58852 0.77409 0.09754 0.0
C758 C 0.58234 0.77954 0.08085 0.0
C759 C 0.61627 0.75806 0.09981 0.0
C760 C 0.57292 0.73084 0.10491 0.0
H761 H 0.57674 0.85245 0.11646 0.0
H762 H 0.55937 0.84103 0.04971 0.0
H763 H 0.53304 0.7875 0.06356 0.0
H764 H 0.54414 0.7707 0.05324 0.0
H765 H 0.54333 0.79416 0.04161 0.0
H766 H 0.60436 0.83626 0.0563 0.0
H767 H 0.58303 0.8204 0.03751 0.0
H768 H 0.59793 0.80706 0.04853 0.0
H769 H 0.60179 0.82313 0.16985 0.0
H770 H 0.61629 0.76478 0.16572 0.0
H771 H 0.60553 0.75815 0.13355 0.0
H772 H 0.62655 0.84675 0.13519 0.0
H773 H 0.60885 0.856 0.14641 0.0
H774 H 0.61009 0.85578 0.12222 0.0
H775 H 0.55529 0.79739 0.14179 0.0
H776 H 0.55605 0.81851 0.12741 0.0
H777 H 0.56952 0.8286 0.15026 0.0
H778 H 0.56558 0.8781 0.10191 0.0
C779 C 0.57313 0.84945 0.10202 0.0
C780 C 0.28924 0.83758 0.0864 0.0
C781 C 0.30623 0.85938 0.09585 0.0
C782 C 0.30374 0.86468 0.11397 0.0
C783 C 0.26703 0.82739 0.11251 0.0
C784 C 0.26993 0.82193 0.09494 0.0
C785 C 0.25034 0.79811 0.08667 0.0
H786 H 0.144 0.70306 0.09185 0.0
C787 C 0.24451 0.80778 0.11701 0.0
C788 C 0.23471 0.79057 0.1019 0.0
H789 H 0.18927 0.71485 0.04941 0.0
H790 H 0.21825 0.75211 0.06576 0.0
H791 H 0.18318 0.71645 0.12367 0.0
H792 H 0.15515 0.75684 0.09987 0.0
H793 H 0.15985 0.76537 0.12323 0.0
H794 H 0.13995 0.73437 0.11498 0.0
H795 H 0.15532 0.71187 0.12791 0.0
H796 H 0.18108 0.73404 0.14154 0.0
C797 C 0.25979 0.78084 0.08274 0.0
C798 C 0.23912 0.80267 0.06975 0.0
C799 C 0.21444 0.81319 0.17765 0.0
C800 C 0.19309 0.7989 0.18448 0.0
C801 C 0.17591 0.77815 0.17395 0.0
C802 C 0.17982 0.77166 0.1568 0.0
C803 C 0.2011 0.78618 0.14998 0.0
C804 C 0.21797 0.80663 0.16028 0.0
C805 C 0.23899 0.8205 0.15028 0.0
C806 C 0.23208 0.80466 0.1325 0.0
C807 C 0.20991 0.78456 0.1325 0.0
C808 C 0.25981 0.82144 0.16103 0.0
C809 C 0.24178 0.84554 0.14766 0.0
C810 C 0.1602 0.71343 0.08608 0.0
C811 C 0.16408 0.70583 0.06914 0.0
C812 C 0.18545 0.72034 0.06219 0.0
C813 C 0.20243 0.74193 0.07181 0.0
C814 C 0.19823 0.74914 0.0887 0.0
C815 C 0.17751 0.73479 0.09565 0.0
C816 C 0.17649 0.74457 0.11421 0.0
C817 C 0.20004 0.76719 0.11725 0.0
C818 C 0.21253 0.76998 0.10216 0.0
C819 C 0.17371 0.72583 0.12763 0.0
C820 C 0.15678 0.7505 0.11321 0.0
H821 H 0.28315 0.85393 0.13609 0.0
H822 H 0.29096 0.83277 0.07261 0.0
H823 H 0.23711 0.81866 0.07267 0.0
H824 H 0.22165 0.78763 0.0653 0.0
H825 H 0.24993 0.80619 0.05824 0.0
H826 H 0.27544 0.78584 0.09191 0.0
H827 H 0.26455 0.78125 0.06862 0.0
H828 H 0.24744 0.76203 0.0852 0.0
H829 H 0.22779 0.82942 0.18542 0.0
H830 H 0.15937 0.76692 0.17904 0.0
H831 H 0.16601 0.75568 0.14947 0.0
H832 H 0.25468 0.80392 0.1666 0.0
H833 H 0.26674 0.83563 0.17258 0.0
H834 H 0.27387 0.82455 0.15255 0.0
H835 H 0.22468 0.84422 0.14536 0.0
H836 H 0.25069 0.8534 0.13564 0.0
H837 H 0.25113 0.85842 0.1598 0.0
H838 H 0.31668 0.88135 0.12152 0.0
C839 C 0.28421 0.84881 0.12234 0.0
C840 C 0.29112 0.45344 0.09123 0.0
C841 C 0.30832 0.44894 0.09825 0.0
C842 C 0.30536 0.43788 0.11454 0.0
C843 C 0.26831 0.43537 0.11619 0.0
C844 C 0.27134 0.44647 0.10034 0.0
C845 C 0.25117 0.44938 0.09445 0.0
H846 H 0.14353 0.42762 0.10675 0.0
C847 C 0.24549 0.42956 0.12186 0.0
C848 C 0.23531 0.43763 0.10911 0.0
H849 H 0.18712 0.46733 0.06586 0.0
H850 H 0.21737 0.46096 0.0784 0.0
H851 H 0.15517 0.38564 0.10587 0.0
H852 H 0.1838 0.45246 0.13952 0.0
H853 H 0.18076 0.43024 0.15366 0.0
H854 H 0.15557 0.4274 0.14137 0.0
H855 H 0.14059 0.38959 0.12413 0.0
H856 H 0.16118 0.37961 0.1276 0.0
C857 C 0.24068 0.43524 0.07562 0.0
C858 C 0.25964 0.4767 0.09492 0.0
C859 C 0.21756 0.38735 0.17904 0.0
C860 C 0.19636 0.37789 0.18658 0.0
C861 C 0.1783 0.37974 0.17784 0.0
C862 C 0.18133 0.39115 0.1619 0.0
C863 C 0.20261 0.40067 0.15449 0.0
C864 C 0.2202 0.39838 0.16286 0.0
C865 C 0.24104 0.40824 0.15228 0.0
C866 C 0.23332 0.41757 0.1366 0.0
C867 C 0.21088 0.41326 0.13809 0.0
C868 C 0.24471 0.3871 0.14592 0.0
C869 C 0.26165 0.42892 0.16436 0.0
C870 C 0.15956 0.43478 0.10046 0.0
C871 C 0.16296 0.44788 0.08527 0.0
C872 C 0.18419 0.45729 0.07763 0.0
C873 C 0.20168 0.4535 0.0849 0.0
C874 C 0.19801 0.44031 0.10007 0.0
C875 C 0.17731 0.43143 0.10769 0.0
C876 C 0.17679 0.41874 0.12421 0.0
C877 C 0.20054 0.42135 0.1252 0.0
C878 C 0.21281 0.43375 0.11093 0.0
C879 C 0.15737 0.39203 0.12045 0.0
C880 C 0.17393 0.43269 0.14062 0.0
H881 H 0.28429 0.42278 0.13586 0.0
H882 H 0.29275 0.46171 0.07867 0.0
H883 H 0.27421 0.48726 0.10552 0.0
H884 H 0.24629 0.48103 0.09853 0.0
H885 H 0.26572 0.48368 0.08175 0.0
H886 H 0.24005 0.41759 0.07507 0.0
H887 H 0.25117 0.44544 0.06477 0.0
H888 H 0.22273 0.43082 0.07234 0.0
H889 H 0.23157 0.38579 0.18541 0.0
H890 H 0.16186 0.37255 0.18352 0.0
H891 H 0.16695 0.39208 0.15597 0.0
H892 H 0.22812 0.3697 0.14402 0.0
H893 H 0.2563 0.38505 0.15597 0.0
H894 H 0.25165 0.3891 0.13257 0.0
H895 H 0.25621 0.44051 0.17175 0.0
H896 H 0.27576 0.44113 0.15657 0.0
H897 H 0.26864 0.42169 0.17459 0.0
H898 H 0.31849 0.43452 0.12036 0.0
C899 C 0.28552 0.43113 0.12355 0.0
C900 C 0.48439 0.87954 0.24285 0.0
C901 C 0.50642 0.8863 0.23755 0.0
C902 C 0.51387 0.89926 0.22228 0.0
C903 C 0.47749 0.89827 0.21762 0.0
C904 C 0.47032 0.8859 0.23279 0.0
C905 C 0.44684 0.88128 0.23695 0.0
H906 H 0.3535 0.8923 0.21505 0.0
C907 C 0.45876 0.90178 0.21004 0.0
C908 C 0.44074 0.89194 0.22126 0.0
H909 H 0.36895 0.86619 0.26309 0.0
H910 H 0.40396 0.87142 0.25163 0.0
H911 H 0.40538 0.93711 0.21395 0.0
H912 H 0.37039 0.8655 0.18627 0.0
H913 H 0.38802 0.88535 0.17115 0.0
H914 H 0.36476 0.88853 0.17936 0.0
H915 H 0.38119 0.92657 0.19734 0.0
H916 H 0.41 0.93898 0.19082 0.0
C917 C 0.4494 0.89522 0.25547 0.0
C918 C 0.43049 0.85371 0.23626 0.0
C919 C 0.46895 0.9437 0.1527 0.0
C920 C 0.45417 0.94774 0.14137 0.0
C921 C 0.43137 0.93936 0.14553 0.0
C922 C 0.42357 0.92755 0.16121 0.0
C923 C 0.43873 0.92393 0.17265 0.0
C924 C 0.46083 0.93154 0.16805 0.0
C925 C 0.47406 0.92466 0.1809 0.0
C926 C 0.45651 0.91219 0.1943 0.0
C927 C 0.43597 0.91213 0.18961 0.0
C928 C 0.49542 0.94811 0.18978 0.0
C929 C 0.47969 0.90706 0.17024 0.0
C930 C 0.36438 0.88749 0.22292 0.0
C931 C 0.35863 0.87886 0.23995 0.0
C932 C 0.37323 0.87301 0.24998 0.0
C933 C 0.39353 0.87612 0.24333 0.0
C934 C 0.39952 0.88551 0.22657 0.0
C935 C 0.38503 0.89097 0.2166 0.0
C936 C 0.39484 0.90186 0.19949 0.0
C937 C 0.4178 0.90255 0.20111 0.0
C938 C 0.42028 0.89269 0.21691 0.0
C939 C 0.39797 0.92745 0.20026 0.0
C940 C 0.37869 0.88462 0.18313 0.0
H941 H 0.50618 0.91498 0.20073 0.0
H942 H 0.47845 0.86993 0.25475 0.0
H943 H 0.4329 0.84441 0.22422 0.0
H944 H 0.41211 0.84844 0.23501 0.0
H945 H 0.434 0.84646 0.2485 0.0
H946 H 0.4672 0.91071 0.25875 0.0
H947 H 0.44549 0.88337 0.26666 0.0
H948 H 0.43833 0.90343 0.25559 0.0
H949 H 0.4864 0.94953 0.14948 0.0
H950 H 0.41973 0.9422 0.13674 0.0
H951 H 0.4061 0.92171 0.16383 0.0
H952 H 0.49119 0.96263 0.19231 0.0
H953 H 0.50975 0.9548 0.1809 0.0
H954 H 0.5017 0.94599 0.2032 0.0
H955 H 0.46625 0.89628 0.1589 0.0
H956 H 0.47994 0.89346 0.17856 0.0
H957 H 0.49643 0.91697 0.16433 0.0
H958 H 0.53079 0.90458 0.218 0.0
C959 C 0.49951 0.90519 0.21225 0.0
C960 C 0.11076 0.48958 0.26191 0.0
C961 C 0.10506 0.46706 0.25312 0.0
C962 C 0.09396 0.46065 0.23538 0.0
C963 C 0.09486 0.4988 0.23551 0.0
C964 C 0.10525 0.50491 0.25299 0.0
C965 C 0.10907 0.52885 0.26079 0.0
H966 H 0.1028 0.62906 0.24889 0.0
C967 C 0.09149 0.51868 0.23015 0.0
C968 C 0.09949 0.53621 0.24499 0.0
H969 H 0.12678 0.61112 0.29759 0.0
H970 H 0.11853 0.57322 0.28223 0.0
H971 H 0.12546 0.60872 0.22067 0.0
H972 H 0.05846 0.57902 0.24022 0.0
H973 H 0.05368 0.56676 0.21767 0.0
H974 H 0.06675 0.59898 0.22263 0.0
H975 H 0.10566 0.619 0.21522 0.0
H976 H 0.10483 0.59427 0.20195 0.0
C977 C 0.13531 0.54604 0.26519 0.0
C978 C 0.0948 0.52462 0.27733 0.0
C979 C 0.06021 0.51642 0.16583 0.0
C980 C 0.05461 0.53199 0.15726 0.0
C981 C 0.05761 0.55282 0.16712 0.0
C982 C 0.06648 0.55836 0.18529 0.0
C983 C 0.07222 0.54278 0.19372 0.0
C984 C 0.06872 0.52202 0.18411 0.0
C985 C 0.07454 0.50694 0.19566 0.0
C986 C 0.08274 0.52247 0.21362 0.0
C987 C 0.08154 0.5435 0.2123 0.0
C988 C 0.09415 0.50471 0.18745 0.0
C989 C 0.05221 0.48249 0.19686 0.0
C990 C 0.10603 0.6169 0.25638 0.0
C991 C 0.1155 0.62323 0.27451 0.0
C992 C 0.11979 0.60691 0.28355 0.0
C993 C 0.11483 0.58481 0.27465 0.0
C994 C 0.1054 0.57885 0.25651 0.0
C995 C 0.101 0.59474 0.24777 0.0
C996 C 0.09051 0.58531 0.22866 0.0
C997 C 0.08945 0.56116 0.22731 0.0
C998 C 0.09832 0.55752 0.24359 0.0
C999 C 0.10729 0.60269 0.21583 0.0
C1000 C 0.06615 0.58247 0.22704 0.0
H1001 H 0.08058 0.47049 0.21306 0.0
H1002 H 0.11945 0.49534 0.27544 0.0
H1003 H 0.07887 0.50659 0.27559 0.0
H1004 H 0.08857 0.53751 0.27917 0.0
H1005 H 0.10486 0.52549 0.28997 0.0
H1006 H 0.14496 0.54387 0.25422 0.0
H1007 H 0.14155 0.54216 0.278 0.0
H1008 H 0.1403 0.56525 0.2662 0.0
H1009 H 0.05763 0.50008 0.15853 0.0
H1010 H 0.05331 0.56495 0.16067 0.0
H1011 H 0.06855 0.57459 0.19204 0.0
H1012 H 0.10765 0.5225 0.18365 0.0
H1013 H 0.08748 0.4919 0.17504 0.0
H1014 H 0.10312 0.49885 0.19695 0.0
H1015 H 0.03655 0.48411 0.19475 0.0
H1016 H 0.05122 0.47585 0.2104 0.0
H1017 H 0.0506 0.46851 0.18647 0.0
H1018 H 0.08882 0.44327 0.22836 0.0
C1019 C 0.08896 0.47642 0.22653 0.0
C1020 C 0.38666 0.47663 0.25677 0.0
C1021 C 0.36951 0.45519 0.24704 0.0
C1022 C 0.37358 0.44826 0.22994 0.0
C1023 C 0.41151 0.48405 0.23251 0.0
C1024 C 0.40734 0.49083 0.24923 0.0
C1025 C 0.42683 0.51479 0.25741 0.0
H1026 H 0.52869 0.61471 0.24858 0.0
C1027 C 0.43437 0.50321 0.22833 0.0
C1028 C 0.44332 0.52139 0.24279 0.0
H1029 H 0.48795 0.5984 0.29446 0.0
H1030 H 0.4602 0.55965 0.27916 0.0
H1031 H 0.52375 0.56164 0.24344 0.0
H1032 H 0.48864 0.59439 0.21809 0.0
H1033 H 0.49117 0.57623 0.20091 0.0
H1034 H 0.51687 0.6011 0.21287 0.0
H1035 H 0.5368 0.58436 0.22807 0.0
H1036 H 0.51979 0.55282 0.22016 0.0
C1037 C 0.43698 0.5108 0.27523 0.0
C1038 C 0.41749 0.53238 0.25976 0.0
C1039 C 0.46687 0.49448 0.16989 0.0
C1040 C 0.48674 0.51025 0.16167 0.0
C1041 C 0.50186 0.53334 0.17064 0.0
C1042 C 0.49758 0.54041 0.18744 0.0
C1043 C 0.47776 0.52448 0.19542 0.0
C1044 C 0.46262 0.50206 0.18658 0.0
C1045 C 0.44161 0.48826 0.19657 0.0
C1046 C 0.44716 0.50579 0.21317 0.0
C1047 C 0.46841 0.52688 0.21243 0.0
C1048 C 0.44057 0.46473 0.20161 0.0
C1049 C 0.42021 0.48429 0.18455 0.0
C1050 C 0.51399 0.60274 0.2555 0.0
C1051 C 0.51054 0.60986 0.27276 0.0
C1052 C 0.49088 0.59367 0.28104 0.0
C1053 C 0.47482 0.57107 0.27217 0.0
C1054 C 0.47841 0.56444 0.25483 0.0
C1055 C 0.49793 0.58004 0.24693 0.0
C1056 C 0.49937 0.5697 0.22873 0.0
C1057 C 0.4773 0.54544 0.22688 0.0
C1058 C 0.46499 0.54255 0.2421 0.0
C1059 C 0.52109 0.56706 0.22996 0.0
C1060 C 0.49918 0.58617 0.21431 0.0
H1061 H 0.39676 0.45626 0.20966 0.0
H1062 H 0.38382 0.48253 0.26984 0.0
H1063 H 0.40512 0.52954 0.24804 0.0
H1064 H 0.43102 0.55149 0.26023 0.0
H1065 H 0.4083 0.52958 0.27219 0.0
H1066 H 0.43585 0.4929 0.27425 0.0
H1067 H 0.42751 0.51149 0.28684 0.0
H1068 H 0.45553 0.52393 0.27838 0.0
H1069 H 0.45476 0.47665 0.1635 0.0
H1070 H 0.51686 0.54632 0.16451 0.0
H1071 H 0.50976 0.55821 0.19343 0.0
H1072 H 0.45788 0.46844 0.20705 0.0
H1073 H 0.43484 0.45142 0.18956 0.0
H1074 H 0.42906 0.45626 0.21229 0.0
H1075 H 0.42494 0.49837 0.17493 0.0
H1076 H 0.40742 0.48573 0.1925 0.0
H1077 H 0.41169 0.46652 0.17641 0.0
H1078 H 0.36056 0.43173 0.22228 0.0
C1079 C 0.39457 0.46251 0.22268 0.0
Tb1080 Tb 0.52485 0.01393 0.99376 0.0
C1081 C 0.51375 0.96887 0.01407 0.0
Tb1082 Tb 0.47526 0.98321 0.0051 0.0
O1083 O 0.53862 0.02426 0.02228 0.0
O1084 O 0.50528 0.01613 0.0142 0.0
O1085 O 0.52719 0.98353 0.00251 0.0
C1086 C 0.43869 0.9593 0.02357 0.0
O1087 O 0.49444 0.96807 0.01841 0.0
C1088 C 0.48077 0.97624 0.97103 0.0
C1089 C 0.48647 0.02835 0.98477 0.0
O1090 O 0.44559 0.9496 0.01146 0.0
O1091 O 0.45219 0.98251 0.0251 0.0
O1092 O 0.46139 0.97265 0.97664 0.0
O1093 O 0.49479 0.98108 0.98462 0.0
O1094 O 0.47294 0.01364 0.99628 0.0
O1095 O 0.5058 0.02918 0.98051 0.0
C1096 C 0.5612 0.038 0.97513 0.0
O1097 O 0.55474 0.04754 0.98772 0.0
O1098 O 0.54747 0.01483 0.97329 0.0
C1099 C 0.51927 0.02091 0.0278 0.0
Tb1100 Tb 0.98743 0.51239 0.99279 0.0
C1101 C 0.03896 0.54691 0.00688 0.0
Tb1102 Tb 0.01627 0.48942 0.00502 0.0
O1103 O 0.9904 0.52741 0.02052 0.0
O1104 O 0.99064 0.49525 0.01531 0.0
O1105 O 0.02091 0.54496 0.99706 0.0
C1106 C 0.04326 0.47641 0.02284 0.0
O1107 O 0.04001 0.52803 0.01221 0.0
C1108 C 0.01019 0.49078 0.97019 0.0
C1109 C 0.96481 0.45504 0.99121 0.0
O1110 O 0.02768 0.47979 0.02981 0.0
O1111 O 0.04351 0.48023 0.00587 0.0
O1112 O 0.0127 0.47411 0.97727 0.0
O1113 O 0.01301 0.5065 0.9825 0.0
O1114 O 0.98232 0.45728 0.00199 0.0
O1115 O 0.96438 0.4738 0.98489 0.0
C1116 C 0.96101 0.52555 0.97436 0.0
O1117 O 0.95855 0.51909 0.99071 0.0
O1118 O 0.9784 0.52469 0.96839 0.0
C1119 C 0.99321 0.5109 0.02758 0.0
Tb1120 Tb 0.481 0.49599 0.00933 0.0
C1121 C 0.48642 0.44989 0.00097 0.0
Tb1122 Tb 0.52768 0.50225 0.99897 0.0
O1123 O 0.47609 0.50757 0.98295 0.0
O1124 O 0.4945 0.48949 0.98622 0.0
O1125 O 0.47492 0.459 0.00919 0.0
C1126 C 0.56313 0.51201 0.97957 0.0
O1127 O 0.50584 0.46347 0.99352 0.0
C1128 C 0.52079 0.49889 0.03321 0.0
C1129 C 0.52244 0.54871 0.00808 0.0
O1130 O 0.55924 0.50143 0.99445 0.0
O1131 O 0.54722 0.51729 0.97575 0.0
O1132 O 0.53479 0.49322 0.02587 0.0
O1133 O 0.51419 0.50853 0.02201 0.0
O1134 O 0.53488 0.53983 0.00111 0.0
O1135 O 0.50177 0.53494 0.01372 0.0
C1136 C 0.44489 0.48716 0.02763 0.0
O1137 O 0.44441 0.48463 0.0101 0.0
O1138 O 0.46561 0.49455 0.03474 0.0
C1139 C 0.48877 0.5002 0.97533 0.0
Tb1140 Tb 0.18834 0.34711 0.32827 0.0
C1141 C 0.17767 0.30294 0.34984 0.0
Tb1142 Tb 0.13799 0.3144 0.33764 0.0
O1143 O 0.20059 0.35859 0.35693 0.0
O1144 O 0.16684 0.34788 0.34753 0.0
O1145 O 0.1923 0.31885 0.33953 0.0
C1146 C 0.10078 0.28962 0.35515 0.0
O1147 O 0.15688 0.29981 0.35199 0.0
C1148 C 0.14622 0.30856 0.30416 0.0
C1149 C 0.14912 0.35985 0.31756 0.0
O1150 O 0.10808 0.28039 0.34301 0.0
O1151 O 0.11415 0.31286 0.35715 0.0
O1152 O 0.1261 0.30383 0.30884 0.0
O1153 O 0.1595 0.31372 0.31833 0.0
O1154 O 0.13445 0.34357 0.32766 0.0
O1155 O 0.16972 0.3627 0.31489 0.0
C1156 C 0.22496 0.36898 0.30967 0.0
O1157 O 0.21893 0.37977 0.32166 0.0
O1158 O 0.21062 0.34597 0.30843 0.0
C1159 C 0.18037 0.35357 0.36161 0.0
Tb1160 Tb 0.64389 0.83681 0.32381 0.0
C1161 C 0.69505 0.87461 0.33663 0.0
Tb1162 Tb 0.67597 0.81776 0.33596 0.0
O1163 O 0.64681 0.85231 0.35138 0.0
O1164 O 0.64925 0.82134 0.3466 0.0
O1165 O 0.67614 0.87084 0.32702 0.0
C1166 C 0.7053 0.80809 0.35409 0.0
O1167 O 0.6978 0.85685 0.34233 0.0
C1168 C 0.66848 0.81766 0.3011 0.0
C1169 C 0.62504 0.78015 0.32308 0.0
O1170 O 0.70498 0.81126 0.33701 0.0
O1171 O 0.689 0.81025 0.36097 0.0
O1172 O 0.67253 0.80203 0.30832 0.0
O1173 O 0.67061 0.83326 0.31323 0.0
O1174 O 0.64334 0.7841 0.33369 0.0
O1175 O 0.62284 0.79782 0.31652 0.0
C1176 C 0.61481 0.84659 0.30557 0.0
O1177 O 0.63241 0.84657 0.29921 0.0
O1178 O 0.61364 0.8412 0.32219 0.0
C1179 C 0.65114 0.83692 0.35865 0.0
Tb1180 Tb 0.14101 0.82496 0.3398 0.0
C1181 C 0.15639 0.78966 0.32537 0.0
Tb1182 Tb 0.19032 0.84677 0.32765 0.0
O1183 O 0.12671 0.81028 0.31179 0.0
O1184 O 0.15832 0.84182 0.31739 0.0
O1185 O 0.14282 0.79228 0.3365 0.0
C1186 C 0.22574 0.85676 0.30824 0.0
O1187 O 0.17375 0.80821 0.31869 0.0
C1188 C 0.18722 0.84531 0.36256 0.0
C1189 C 0.1749 0.88216 0.34257 0.0
O1190 O 0.2207 0.84427 0.32215 0.0
O1191 O 0.21124 0.86428 0.30557 0.0
O1192 O 0.20544 0.86114 0.3555 0.0
O1193 O 0.17319 0.83019 0.35013 0.0
O1194 O 0.18923 0.87982 0.3321 0.0
O1195 O 0.15657 0.86347 0.3482 0.0
C1196 C 0.10425 0.81296 0.35804 0.0
O1197 O 0.10649 0.81978 0.34179 0.0
O1198 O 0.12262 0.8127 0.36394 0.0
C1199 C 0.14465 0.82671 0.30485 0.0
Tb1200 Tb 0.85867 0.68502 0.66143 0.0
C1201 C 0.84784 0.63977 0.68158 0.0
Tb1202 Tb 0.8082 0.65173 0.67043 0.0
O1203 O 0.87026 0.69528 0.69033 0.0
O1204 O 0.83682 0.68515 0.68068 0.0
O1205 O 0.86245 0.65602 0.67144 0.0
C1206 C 0.7711 0.62838 0.68829 0.0
O1207 O 0.82716 0.63673 0.68414 0.0
C1208 C 0.81647 0.64599 0.63701 0.0
C1209 C 0.81896 0.6966 0.64964 0.0
O1210 O 0.77834 0.61826 0.6768 0.0
O1211 O 0.78454 0.65158 0.68949 0.0
O1212 O 0.79615 0.6404 0.64177 0.0
O1213 O 0.82994 0.65163 0.65114 0.0
O1214 O 0.80427 0.68035 0.65974 0.0
O1215 O 0.83976 0.6998 0.64745 0.0
C1216 C 0.89569 0.70981 0.64364 0.0
O1217 O 0.88859 0.71905 0.65596 0.0
O1218 O 0.88229 0.68659 0.6417 0.0
C1219 C 0.85001 0.69025 0.69489 0.0
Tb1220 Tb 0.31839 0.1812 0.66543 0.0
C1221 C 0.36778 0.21694 0.68271 0.0
Tb1222 Tb 0.3486 0.16029 0.67852 0.0
O1223 O 0.31873 0.19443 0.69329 0.0
O1224 O 0.32118 0.16365 0.68787 0.0
O1225 O 0.35132 0.21435 0.67057 0.0
C1226 C 0.37767 0.15006 0.69627 0.0
O1227 O 0.36812 0.19829 0.68929 0.0
C1228 C 0.34478 0.16305 0.64363 0.0
C1229 C 0.29849 0.12418 0.66207 0.0
O1230 O 0.38241 0.16367 0.68305 0.0
O1231 O 0.35633 0.1419 0.69949 0.0
O1232 O 0.34828 0.147 0.65071 0.0
O1233 O 0.34571 0.17764 0.65608 0.0
O1234 O 0.3159 0.12679 0.67317 0.0
O1235 O 0.29717 0.14275 0.65633 0.0
C1236 C 0.2919 0.19369 0.6463 0.0
O1237 O 0.28893 0.18691 0.66254 0.0
O1238 O 0.30983 0.19352 0.64084 0.0
C1239 C 0.32198 0.17818 0.70033 0.0
Tb1240 Tb 0.80771 0.15447 0.6707 0.0
C1241 C 0.82657 0.1209 0.65869 0.0
Tb1242 Tb 0.85766 0.17839 0.65984 0.0
O1243 O 0.7943 0.13841 0.64294 0.0
O1244 O 0.82526 0.17112 0.64827 0.0
O1245 O 0.81085 0.12257 0.66776 0.0
C1246 C 0.89559 0.19194 0.64279 0.0
O1247 O 0.84498 0.13989 0.65346 0.0
C1248 C 0.85297 0.17801 0.69454 0.0
C1249 C 0.83867 0.21181 0.67155 0.0
O1250 O 0.87605 0.18826 0.63544 0.0
O1251 O 0.89381 0.18814 0.65975 0.0
O1252 O 0.87065 0.19476 0.68759 0.0
O1253 O 0.84011 0.16178 0.68224 0.0
O1254 O 0.85356 0.20985 0.66155 0.0
O1255 O 0.82107 0.19297 0.67776 0.0
C1256 C 0.77042 0.14056 0.68862 0.0
O1257 O 0.77241 0.14722 0.67231 0.0
O1258 O 0.78935 0.14165 0.69476 0.0
C1259 C 0.81217 0.15494 0.63601 0.0
C1260 C 0.34875 0.88664 0.09482 0.0
C1261 C 0.32624 0.87651 0.0866 0.0
C1262 C 0.3678 0.90151 0.08554 0.0
C1263 C 0.36417 0.90644 0.06769 0.0
C1264 C 0.34143 0.89697 0.05963 0.0
C1265 C 0.32276 0.88204 0.06915 0.0
C1266 C 0.39176 0.91107 0.09455 0.0
C1267 C 0.33681 0.90212 0.04075 0.0
C1268 C 0.41208 0.95819 0.04614 0.0
C1269 C 0.41958 0.94592 0.03475 0.0
C1270 C 0.39435 0.94565 0.05726 0.0
C1271 C 0.38399 0.92029 0.05695 0.0
C1272 C 0.39181 0.90791 0.04565 0.0
C1273 C 0.40943 0.92088 0.03459 0.0
C1274 C 0.38652 0.95948 0.06914 0.0
C1275 C 0.38145 0.88093 0.04515 0.0
H1276 H 0.35148 0.88226 0.10827 0.0
H1277 H 0.30534 0.87454 0.06289 0.0
H1278 H 0.39973 0.90147 0.08797 0.0
H1279 H 0.40281 0.93053 0.09292 0.0
H1280 H 0.39169 0.9085 0.10921 0.0
H1281 H 0.31814 0.89463 0.03689 0.0
H1282 H 0.34592 0.92184 0.0397 0.0
H1283 H 0.34354 0.89419 0.03084 0.0
H1284 H 0.42002 0.97759 0.0463 0.0
H1285 H 0.41544 0.91142 0.02594 0.0
H1286 H 0.38771 0.95581 0.08345 0.0
H1287 H 0.36818 0.95341 0.06511 0.0
H1288 H 0.39691 0.97924 0.06828 0.0
H1289 H 0.38266 0.87575 0.05898 0.0
H1290 H 0.39012 0.87418 0.03618 0.0
H1291 H 0.3629 0.87178 0.04026 0.0
C1292 C 0.14927 0.47476 0.07357 0.0
C1293 C 0.14444 0.45168 0.07738 0.0
C1294 C 0.132 0.47853 0.06575 0.0
C1295 C 0.10947 0.45865 0.06135 0.0
C1296 C 0.10444 0.43534 0.06538 0.0
C1297 C 0.12197 0.43216 0.07348 0.0
C1298 C 0.13794 0.50372 0.06195 0.0
C1299 C 0.08073 0.41366 0.06068 0.0
C1300 C 0.0603 0.47094 0.05162 0.0
C1301 C 0.05919 0.47059 0.03272 0.0
C1302 C 0.07649 0.46693 0.06119 0.0
C1303 C 0.09159 0.46208 0.05154 0.0
C1304 C 0.09 0.46103 0.0324 0.0
C1305 C 0.07393 0.46549 0.02324 0.0
C1306 C 0.07785 0.46857 0.0816 0.0
C1307 C 0.10548 0.4555 0.02159 0.0
H1308 H 0.16658 0.48991 0.0768 0.0
H1309 H 0.11825 0.41427 0.07634 0.0
H1310 H 0.13599 0.50462 0.04714 0.0
H1311 H 0.12588 0.50846 0.06814 0.0
H1312 H 0.15584 0.51741 0.06723 0.0
H1313 H 0.0794 0.39692 0.06533 0.0
H1314 H 0.06762 0.4167 0.06687 0.0
H1315 H 0.07644 0.41095 0.0458 0.0
H1316 H 0.04881 0.4748 0.05893 0.0
H1317 H 0.07299 0.46511 0.0086 0.0
H1318 H 0.09439 0.48456 0.08719 0.0
H1319 H 0.07754 0.45249 0.08662 0.0
H1320 H 0.0635 0.47018 0.08694 0.0
H1321 H 0.12372 0.46979 0.02504 0.0
H1322 H 0.10131 0.45423 0.00676 0.0
H1323 H 0.10395 0.43823 0.02508 0.0
C1324 C 0.55519 0.68592 0.02346 0.0
C1325 C 0.5739 0.69869 0.03665 0.0
C1326 C 0.54894 0.66264 0.01616 0.0
C1327 C 0.56143 0.65169 0.02244 0.0
C1328 C 0.58129 0.66509 0.03477 0.0
C1329 C 0.58742 0.68851 0.04156 0.0
C1330 C 0.52792 0.64912 0.00274 0.0
C1331 C 0.59502 0.65406 0.04191 0.0
C1332 C 0.52616 0.58447 0.02591 0.0
C1333 C 0.53273 0.57507 0.01143 0.0
C1334 C 0.5356 0.60934 0.02966 0.0
C1335 C 0.5517 0.62529 0.01842 0.0
C1336 C 0.55833 0.61595 0.00366 0.0
C1337 C 0.54894 0.59087 0.00046 0.0
C1338 C 0.52838 0.61852 0.04577 0.0
C1339 C 0.57509 0.6324 0.99119 0.0
H1340 H 0.54452 0.69347 0.01957 0.0
H1341 H 0.60231 0.69848 0.05135 0.0
H1342 H 0.53119 0.63937 0.99156 0.0
H1343 H 0.51338 0.63551 0.00961 0.0
H1344 H 0.5226 0.66133 0.9969 0.0
H1345 H 0.61157 0.66772 0.04951 0.0
H1346 H 0.58477 0.64034 0.05113 0.0
H1347 H 0.59872 0.64475 0.0307 0.0
H1348 H 0.51385 0.57234 0.03458 0.0
H1349 H 0.55395 0.58361 0.98919 0.0
H1350 H 0.52001 0.62869 0.04121 0.0
H1351 H 0.54375 0.63112 0.05508 0.0
H1352 H 0.5162 0.60373 0.05346 0.0
H1353 H 0.56823 0.64307 0.98487 0.0
H1354 H 0.57843 0.6223 0.9803 0.0
H1355 H 0.5917 0.6454 0.999 0.0
C1356 C 0.88283 0.32261 0.94432 0.0
C1357 C 0.85941 0.31349 0.94664 0.0
C1358 C 0.89976 0.34527 0.95255 0.0
C1359 C 0.8932 0.359 0.96366 0.0
C1360 C 0.86974 0.34954 0.96666 0.0
C1361 C 0.85311 0.32697 0.95802 0.0
C1362 C 0.92459 0.3548 0.94892 0.0
C1363 C 0.86214 0.36359 0.97855 0.0
C1364 C 0.94089 0.41093 0.99473 0.0
C1365 C 0.94565 0.43063 0.98488 0.0
C1366 C 0.9234 0.38754 0.98824 0.0
C1367 C 0.91079 0.38378 0.97133 0.0
C1368 C 0.91551 0.40365 0.96138 0.0
C1369 C 0.93273 0.42685 0.96836 0.0
C1370 C 0.91862 0.36682 0.99934 0.0
C1371 C 0.90284 0.40037 0.94311 0.0
H1372 H 0.88796 0.31213 0.93588 0.0
H1373 H 0.83507 0.32025 0.95976 0.0
H1374 H 0.93091 0.37155 0.942 0.0
H1375 H 0.93555 0.3595 0.96185 0.0
H1376 H 0.92692 0.3416 0.94034 0.0
H1377 H 0.84355 0.35294 0.98067 0.0
H1378 H 0.87234 0.3694 0.99193 0.0
H1379 H 0.86531 0.38013 0.97228 0.0
H1380 H 0.95081 0.4138 0.00753 0.0
H1381 H 0.93655 0.44196 0.96055 0.0
H1382 H 0.9224 0.354 0.99181 0.0
H1383 H 0.90012 0.3568 0.00173 0.0
H1384 H 0.92911 0.37294 0.01262 0.0
H1385 H 0.90625 0.38895 0.93348 0.0
H1386 H 0.90808 0.41779 0.93738 0.0
H1387 H 0.88399 0.39094 0.94418 0.0
C1388 C 0.68217 0.55567 0.93741 0.0
C1389 C 0.68012 0.54326 0.9207 0.0
C1390 C 0.6626 0.55127 0.9461 0.0
C1391 C 0.64049 0.53359 0.93809 0.0
C1392 C 0.63831 0.52129 0.92103 0.0
C1393 C 0.65821 0.52648 0.91242 0.0
C1394 C 0.66565 0.56524 0.96403 0.0
C1395 C 0.61507 0.50202 0.9122 0.0
C1396 C 0.5951 0.5054 0.97123 0.0
C1397 C 0.58244 0.51705 0.96861 0.0
C1398 C 0.61356 0.51005 0.96093 0.0
C1399 C 0.61984 0.52724 0.94806 0.0
C1400 C 0.60702 0.53901 0.94535 0.0
C1401 C 0.58823 0.53351 0.9555 0.0
C1402 C 0.62646 0.49671 0.96395 0.0
C1403 C 0.6135 0.55783 0.93206 0.0
H1404 H 0.69917 0.5688 0.9437 0.0
H1405 H 0.65671 0.51684 0.89952 0.0
H1406 H 0.65463 0.57357 0.96359 0.0
H1407 H 0.66011 0.55285 0.97489 0.0
H1408 H 0.68381 0.57966 0.96772 0.0
H1409 H 0.61623 0.49486 0.89859 0.0
H1410 H 0.60733 0.48689 0.92087 0.0
H1411 H 0.60319 0.50923 0.91086 0.0
H1412 H 0.59046 0.49249 0.98126 0.0
H1413 H 0.57839 0.54249 0.95345 0.0
H1414 H 0.6445 0.5096 0.96937 0.0
H1415 H 0.62708 0.48787 0.9509 0.0
H1416 H 0.61844 0.48277 0.97357 0.0
H1417 H 0.63144 0.57272 0.93575 0.0
H1418 H 0.6019 0.5655 0.93169 0.0
H1419 H 0.61289 0.54991 0.91827 0.0
C1420 C 0.46537 0.13001 0.94623 0.0
C1421 C 0.44687 0.12038 0.93272 0.0
C1422 C 0.47188 0.11515 0.95482 0.0
C1423 C 0.45984 0.09006 0.94961 0.0
C1424 C 0.44137 0.08022 0.93584 0.0
C1425 C 0.435 0.09546 0.92766 0.0
C1426 C 0.49168 0.12628 0.96946 0.0
C1427 C 0.42828 0.05357 0.92981 0.0
C1428 C 0.48996 0.05503 0.96046 0.0
C1429 C 0.47958 0.0441 0.97584 0.0
C1430 C 0.48361 0.06991 0.95172 0.0
C1431 C 0.46657 0.07411 0.95861 0.0
C1432 C 0.45604 0.06318 0.97414 0.0
C1433 C 0.46258 0.04818 0.98251 0.0
C1434 C 0.49497 0.08093 0.93503 0.0
C1435 C 0.43799 0.06747 0.98197 0.0
H1436 H 0.47494 0.14927 0.95001 0.0
H1437 H 0.42047 0.08776 0.91745 0.0
H1438 H 0.48583 0.11782 0.98222 0.0
H1439 H 0.50556 0.12287 0.96552 0.0
H1440 H 0.49901 0.14605 0.97215 0.0
H1441 H 0.41474 0.04887 0.91858 0.0
H1442 H 0.44032 0.0477 0.92526 0.0
H1443 H 0.42002 0.04321 0.94134 0.0
H1444 H 0.50293 0.05175 0.95507 0.0
H1445 H 0.45453 0.03987 0.99442 0.0
H1446 H 0.50898 0.07719 0.93213 0.0
H1447 H 0.50226 0.10073 0.93659 0.0
H1448 H 0.48193 0.07362 0.92316 0.0
H1449 H 0.44523 0.08703 0.9857 0.0
H1450 H 0.43155 0.05773 0.99417 0.0
H1451 H 0.42318 0.06156 0.9717 0.0
C1452 C 0.65465 0.11356 0.90684 0.0
C1453 C 0.67677 0.12177 0.91528 0.0
C1454 C 0.63491 0.09864 0.91543 0.0
C1455 C 0.63745 0.09169 0.93278 0.0
C1456 C 0.65974 0.09928 0.94105 0.0
C1457 C 0.67912 0.11431 0.93223 0.0
C1458 C 0.61141 0.09107 0.90626 0.0
C1459 C 0.66316 0.09197 0.95941 0.0
C1460 C 0.5916 0.07674 0.96538 0.0
C1461 C 0.58035 0.05154 0.96404 0.0
C1462 C 0.60978 0.08998 0.95486 0.0
C1463 C 0.61698 0.07768 0.94284 0.0
C1464 C 0.60539 0.05217 0.94123 0.0
C1465 C 0.58715 0.03938 0.95187 0.0
C1466 C 0.62151 0.11715 0.9568 0.0
C1467 C 0.61254 0.03843 0.92857 0.0
H1468 H 0.65279 0.11943 0.89377 0.0
H1469 H 0.6962 0.12034 0.93865 0.0
H1470 H 0.59978 0.07134 0.90622 0.0
H1471 H 0.60355 0.10001 0.9139 0.0
H1472 H 0.61226 0.09592 0.89208 0.0
H1473 H 0.68154 0.0982 0.96348 0.0
H1474 H 0.65672 0.09967 0.96977 0.0
H1475 H 0.65308 0.07208 0.95941 0.0
H1476 H 0.58617 0.08615 0.97466 0.0
H1477 H 0.57834 0.01986 0.95078 0.0
H1478 H 0.62143 0.12388 0.94338 0.0
H1479 H 0.63978 0.12494 0.96214 0.0
H1480 H 0.61308 0.12388 0.96605 0.0
H1481 H 0.61258 0.04386 0.91465 0.0
H1482 H 0.60096 0.01861 0.92819 0.0
H1483 H 0.63036 0.04284 0.93291 0.0
C1484 C 0.86191 0.53447 0.91792 0.0
C1485 C 0.8684 0.55824 0.91486 0.0
C1486 C 0.8774 0.52912 0.92702 0.0
C1487 C 0.89968 0.5481 0.9336 0.0
C1488 C 0.90624 0.57217 0.93061 0.0
C1489 C 0.89059 0.57692 0.92107 0.0
C1490 C 0.86995 0.50319 0.92959 0.0
C1491 C 0.92965 0.59293 0.93774 0.0
C1492 C 0.9299 0.53588 0.97273 0.0
C1493 C 0.94589 0.53201 0.96401 0.0
C1494 C 0.91505 0.54157 0.96303 0.0
C1495 C 0.91586 0.54282 0.94409 0.0
C1496 C 0.932 0.53886 0.93522 0.0
C1497 C 0.94707 0.53385 0.94537 0.0
C1498 C 0.89846 0.54621 0.97304 0.0
C1499 C 0.93305 0.53948 0.915 0.0
H1500 H 0.84479 0.52004 0.91294 0.0
H1501 H 0.8955 0.59532 0.91874 0.0
H1502 H 0.88233 0.49846 0.92402 0.0
H1503 H 0.86997 0.50065 0.94424 0.0
H1504 H 0.85246 0.49048 0.92291 0.0
H1505 H 0.93206 0.61058 0.93427 0.0
H1506 H 0.93195 0.59339 0.95268 0.0
H1507 H 0.94338 0.59045 0.93215 0.0
H1508 H 0.92909 0.5346 0.98719 0.0
H1509 H 0.95954 0.53096 0.93867 0.0
H1510 H 0.88047 0.53264 0.96797 0.0
H1511 H 0.90098 0.56419 0.97052 0.0
H1512 H 0.90065 0.54549 0.98787 0.0
H1513 H 0.91629 0.52541 0.90796 0.0
H1514 H 0.94684 0.5364 0.91023 0.0
H1515 H 0.9361 0.55712 0.91096 0.0
C1516 C 0.43415 0.30659 0.97976 0.0
C1517 C 0.43391 0.30331 0.96088 0.0
C1518 C 0.44115 0.32942 0.98858 0.0
C1519 C 0.4477 0.34933 0.97825 0.0
C1520 C 0.4467 0.34597 0.95917 0.0
C1521 C 0.44011 0.32315 0.95078 0.0
C1522 C 0.44226 0.33239 0.00896 0.0
C1523 C 0.45334 0.3667 0.94762 0.0
C1524 C 0.45225 0.40823 0.99595 0.0
C1525 C 0.47621 0.42351 0.99814 0.0
C1526 C 0.44254 0.3836 0.99034 0.0
C1527 C 0.4572 0.37409 0.98722 0.0
C1528 C 0.48136 0.38917 0.9907 0.0
C1529 C 0.49057 0.41375 0.99593 0.0
C1530 C 0.41673 0.36818 0.98654 0.0
C1531 C 0.49758 0.37966 0.98792 0.0
H1532 H 0.42909 0.29137 0.9877 0.0
H1533 H 0.44055 0.3211 0.93626 0.0
H1534 H 0.46044 0.34414 0.0146 0.0
H1535 H 0.43261 0.34136 0.01323 0.0
H1536 H 0.43516 0.31488 0.01494 0.0
H1537 H 0.4497 0.36067 0.93292 0.0
H1538 H 0.44387 0.37622 0.95097 0.0
H1539 H 0.472 0.37991 0.95045 0.0
H1540 H 0.44111 0.41576 0.99759 0.0
H1541 H 0.50911 0.4255 0.99784 0.0
H1542 H 0.4103 0.35082 0.9926 0.0
H1543 H 0.41221 0.36394 0.9717 0.0
H1544 H 0.40766 0.37736 0.99184 0.0
H1545 H 0.49183 0.36275 0.99452 0.0
H1546 H 0.51555 0.39289 0.99339 0.0
H1547 H 0.49751 0.37537 0.97324 0.0
C1548 C 0.14301 0.68061 0.03993 0.0
C1549 C 0.14608 0.68279 0.05893 0.0
C1550 C 0.12621 0.65895 0.03021 0.0
C1551 C 0.11171 0.63915 0.0397 0.0
C1552 C 0.1145 0.64123 0.05884 0.0
C1553 C 0.13182 0.66286 0.06819 0.0
C1554 C 0.12399 0.65724 0.00978 0.0
C1555 C 0.0991 0.62062 0.06947 0.0
C1556 C 0.05386 0.59017 0.01695 0.0
C1557 C 0.05812 0.57119 0.0134 0.0
C1558 C 0.07127 0.61257 0.02524 0.0
C1559 C 0.09357 0.61617 0.02969 0.0
C1560 C 0.09819 0.59735 0.02542 0.0
C1561 C 0.08032 0.57496 0.01754 0.0
C1562 C 0.06551 0.63199 0.02997 0.0
C1563 C 0.12188 0.60067 0.0296 0.0
H1564 H 0.15358 0.69591 0.03259 0.0
H1565 H 0.13427 0.66403 0.08281 0.0
H1566 H 0.12577 0.64193 0.00423 0.0
H1567 H 0.10665 0.65364 0.00473 0.0
H1568 H 0.13714 0.67398 0.00442 0.0
H1569 H 0.10305 0.6254 0.08432 0.0
H1570 H 0.0808 0.61511 0.06589 0.0
H1571 H 0.101 0.60475 0.06593 0.0
H1572 H 0.03662 0.58719 0.014 0.0
H1573 H 0.08366 0.5603 0.01476 0.0
H1574 H 0.07765 0.64893 0.0243 0.0
H1575 H 0.06745 0.63592 0.0449 0.0
H1576 H 0.04765 0.62672 0.02486 0.0
H1577 H 0.13503 0.61712 0.02396 0.0
H1578 H 0.12311 0.585 0.02402 0.0
H1579 H 0.12616 0.60316 0.04446 0.0
C1580 C 0.33708 0.43901 0.08629 0.0
C1581 C 0.32901 0.45526 0.0884 0.0
C1582 C 0.35619 0.4444 0.07659 0.0
C1583 C 0.36753 0.46662 0.06883 0.0
C1584 C 0.35963 0.48322 0.07107 0.0
C1585 C 0.34044 0.47732 0.0808 0.0
C1586 C 0.36404 0.42619 0.07444 0.0
C1587 C 0.37144 0.5072 0.06317 0.0
C1588 C 0.4287 0.48888 0.05667 0.0
C1589 C 0.42515 0.48231 0.03799 0.0
C1590 C 0.41014 0.4841 0.06687 0.0
C1591 C 0.38748 0.47233 0.05816 0.0
C1592 C 0.38386 0.46581 0.03924 0.0
C1593 C 0.40278 0.47097 0.02935 0.0
C1594 C 0.41477 0.49144 0.08699 0.0
C1595 C 0.35996 0.45317 0.02947 0.0
H1596 H 0.32815 0.4218 0.09193 0.0
H1597 H 0.33446 0.49009 0.08258 0.0
H1598 H 0.363 0.4206 0.05986 0.0
H1599 H 0.38232 0.43442 0.07989 0.0
H1600 H 0.35352 0.40987 0.08148 0.0
H1601 H 0.36338 0.51826 0.06636 0.0
H1602 H 0.38987 0.51753 0.06846 0.0
H1603 H 0.37082 0.50431 0.04825 0.0
H1604 H 0.44605 0.49788 0.0633 0.0
H1605 H 0.40005 0.4659 0.0149 0.0
H1606 H 0.40717 0.47511 0.09446 0.0
H1607 H 0.40649 0.50203 0.0909 0.0
H1608 H 0.43349 0.50235 0.09138 0.0
H1609 H 0.34903 0.43585 0.03521 0.0
H1610 H 0.36008 0.44944 0.01472 0.0
H1611 H 0.35178 0.46435 0.03146 0.0
C1612 C 0.53693 0.86809 0.05167 0.0
C1613 C 0.55468 0.87763 0.06579 0.0
C1614 C 0.53016 0.88283 0.0432 0.0
C1615 C 0.54128 0.90771 0.04906 0.0
C1616 C 0.55911 0.91746 0.06336 0.0
C1617 C 0.56566 0.90233 0.0715 0.0
C1618 C 0.51102 0.87177 0.02803 0.0
C1619 C 0.57131 0.9439 0.07001 0.0
C1620 C 0.53847 0.95002 0.01664 0.0
C1621 C 0.5208 0.95322 0.02298 0.0
C1622 C 0.5453 0.93525 0.02501 0.0
C1623 C 0.53432 0.92354 0.04016 0.0
C1624 C 0.51658 0.92682 0.0467 0.0
C1625 C 0.51002 0.94158 0.03802 0.0
C1626 C 0.56421 0.93208 0.0176 0.0
C1627 C 0.50465 0.91487 0.06295 0.0
H1628 H 0.52809 0.84897 0.04737 0.0
H1629 H 0.57959 0.90992 0.08223 0.0
H1630 H 0.4966 0.87446 0.03167 0.0
H1631 H 0.5173 0.88087 0.01558 0.0
H1632 H 0.50427 0.85217 0.02496 0.0
H1633 H 0.58452 0.94856 0.0815 0.0
H1634 H 0.57984 0.95494 0.05884 0.0
H1635 H 0.55866 0.94897 0.07441 0.0
H1636 H 0.54688 0.95891 0.00503 0.0
H1637 H 0.49654 0.94417 0.04317 0.0
H1638 H 0.55762 0.91274 0.01345 0.0
H1639 H 0.57861 0.93796 0.02827 0.0
H1640 H 0.57105 0.94249 0.00576 0.0
H1641 H 0.4979 0.89517 0.061 0.0
H1642 H 0.49015 0.91792 0.06557 0.0
H1643 H 0.5172 0.92205 0.07513 0.0
C1644 C 0.00493 0.21397 0.42173 0.0
C1645 C 0.983 0.20523 0.41273 0.0
C1646 C 0.02493 0.22864 0.41333 0.0
C1647 C 0.02284 0.23483 0.39561 0.0
C1648 C 0.00072 0.22655 0.38668 0.0
C1649 C 0.98108 0.21175 0.39531 0.0
C1650 C 0.04823 0.23691 0.42319 0.0
C1651 C 0.99779 0.23306 0.36789 0.0
C1652 C 0.07336 0.28764 0.37722 0.0
C1653 C 0.08116 0.27577 0.36573 0.0
C1654 C 0.05466 0.27459 0.38736 0.0
C1655 C 0.04367 0.24911 0.386 0.0
C1656 C 0.05189 0.23712 0.37472 0.0
C1657 C 0.07048 0.25061 0.36463 0.0
C1658 C 0.04637 0.288 0.39921 0.0
C1659 C 0.04085 0.21001 0.37312 0.0
H1660 H 0.00645 0.20881 0.43515 0.0
H1661 H 0.96414 0.20531 0.38845 0.0
H1662 H 0.05683 0.22841 0.41605 0.0
H1663 H 0.05946 0.25671 0.42324 0.0
H1664 H 0.04695 0.23218 0.43741 0.0
H1665 H 0.97943 0.2261 0.36318 0.0
H1666 H 0.00736 0.25293 0.36759 0.0
H1667 H 0.00511 0.22557 0.35817 0.0
H1668 H 0.08174 0.30714 0.37815 0.0
H1669 H 0.0767 0.24145 0.35589 0.0
H1670 H 0.04599 0.283 0.41329 0.0
H1671 H 0.0285 0.28284 0.39428 0.0
H1672 H 0.05744 0.30787 0.39939 0.0
H1673 H 0.04049 0.20361 0.38673 0.0
H1674 H 0.05009 0.20358 0.36451 0.0
H1675 H 0.02274 0.20163 0.3672 0.0
C1676 C 0.789 0.77172 0.40655 0.0
C1677 C 0.81088 0.79209 0.4108 0.0
C1678 C 0.77099 0.77362 0.39789 0.0
C1679 C 0.7749 0.7965 0.39368 0.0
C1680 C 0.79682 0.81722 0.39838 0.0
C1681 C 0.81464 0.81472 0.40673 0.0
C1682 C 0.74796 0.75108 0.39285 0.0
C1683 C 0.80152 0.84198 0.39442 0.0
C1684 C 0.73816 0.80049 0.35498 0.0
C1685 C 0.72232 0.80405 0.36421 0.0
C1686 C 0.75509 0.79756 0.36442 0.0
C1687 C 0.75641 0.79864 0.38357 0.0
C1688 C 0.74027 0.80201 0.39294 0.0
C1689 C 0.72325 0.80446 0.3831 0.0
C1690 C 0.77167 0.79351 0.35391 0.0
C1691 C 0.7413 0.80363 0.41335 0.0
H1692 H 0.78615 0.75419 0.4096 0.0
H1693 H 0.83152 0.8305 0.4102 0.0
H1694 H 0.73411 0.75297 0.39882 0.0
H1695 H 0.744 0.7484 0.37793 0.0
H1696 H 0.74757 0.73475 0.39749 0.0
H1697 H 0.81908 0.85638 0.39987 0.0
H1698 H 0.7997 0.84275 0.37959 0.0
H1699 H 0.78872 0.84575 0.40036 0.0
H1700 H 0.73737 0.80005 0.34035 0.0
H1701 H 0.71088 0.80707 0.3902 0.0
H1702 H 0.77115 0.77671 0.35745 0.0
H1703 H 0.78952 0.80857 0.35759 0.0
H1704 H 0.76772 0.79215 0.33904 0.0
H1705 H 0.74179 0.788 0.41847 0.0
H1706 H 0.72638 0.80429 0.41847 0.0
H1707 H 0.75736 0.82012 0.41905 0.0
C1708 C 0.22403 0.01362 0.39149 0.0
C1709 C 0.20961 0.02322 0.38813 0.0
C1710 C 0.21857 0.99098 0.38337 0.0
C1711 C 0.19844 0.9778 0.37129 0.0
C1712 C 0.18419 0.98765 0.36736 0.0
C1713 C 0.18983 0.01015 0.37595 0.0
C1714 C 0.23407 0.98092 0.38802 0.0
C1715 C 0.16266 0.97416 0.35444 0.0
C1716 C 0.19441 0.92663 0.34024 0.0
C1717 C 0.1802 0.90657 0.3493 0.0
C1718 C 0.20012 0.94994 0.34703 0.0
C1719 C 0.19177 0.95321 0.36343 0.0
C1720 C 0.17739 0.933 0.37261 0.0
C1721 C 0.17165 0.90991 0.36536 0.0
C1722 C 0.21519 0.97108 0.33675 0.0
C1723 C 0.16851 0.93577 0.39031 0.0
H1724 H 0.23961 0.02377 0.40057 0.0
H1725 H 0.17839 0.01719 0.37343 0.0
H1726 H 0.22426 0.96386 0.3944 0.0
H1727 H 0.24017 0.97663 0.37554 0.0
H1728 H 0.2493 0.99364 0.39744 0.0
H1729 H 0.15433 0.98504 0.35186 0.0
H1730 H 0.16681 0.96881 0.34134 0.0
H1731 H 0.1501 0.95738 0.36007 0.0
H1732 H 0.20099 0.9241 0.3278 0.0
H1733 H 0.16092 0.8945 0.37258 0.0
H1734 H 0.23146 0.98353 0.34519 0.0
H1735 H 0.20641 0.98137 0.3337 0.0
H1736 H 0.21951 0.96538 0.32385 0.0
H1737 H 0.18322 0.94617 0.40077 0.0
H1738 H 0.15659 0.91812 0.39525 0.0
H1739 H 0.15936 0.94601 0.38882 0.0
C1740 C 0.55088 0.64453 0.28015 0.0
C1741 C 0.52719 0.6342 0.28187 0.0
C1742 C 0.56661 0.66808 0.2876 0.0
C1743 C 0.55855 0.68151 0.29733 0.0
C1744 C 0.5348 0.67098 0.29966 0.0
C1745 C 0.51938 0.64753 0.29178 0.0
C1746 C 0.5918 0.67879 0.28468 0.0
C1747 C 0.52561 0.68467 0.31013 0.0
C1748 C 0.60323 0.73634 0.32786 0.0
C1749 C 0.60714 0.75506 0.31715 0.0
C1750 C 0.58698 0.71231 0.32179 0.0
C1751 C 0.57488 0.70693 0.30443 0.0
C1752 C 0.57882 0.72581 0.29357 0.0
C1753 C 0.5947 0.74968 0.30016 0.0
C1754 C 0.58294 0.69268 0.33385 0.0
C1755 C 0.56672 0.72079 0.2748 0.0
H1756 H 0.55718 0.63424 0.27286 0.0
H1757 H 0.50111 0.63991 0.29301 0.0
H1758 H 0.59755 0.69501 0.27718 0.0
H1759 H 0.60237 0.68465 0.29789 0.0
H1760 H 0.59531 0.66585 0.27695 0.0
H1761 H 0.50697 0.67333 0.3118 0.0
H1762 H 0.5352 0.69166 0.32373 0.0
H1763 H 0.52823 0.70045 0.303 0.0
H1764 H 0.61281 0.7405 0.34101 0.0
H1765 H 0.59795 0.76409 0.29172 0.0
H1766 H 0.58791 0.68022 0.32732 0.0
H1767 H 0.56435 0.68189 0.33585 0.0
H1768 H 0.5929 0.69998 0.34731 0.0
H1769 H 0.57102 0.7092 0.26619 0.0
H1770 H 0.5716 0.73756 0.26817 0.0
H1771 H 0.54778 0.71085 0.27541 0.0
C1772 C 0.31609 0.86269 0.23891 0.0
C1773 C 0.33818 0.87708 0.24785 0.0
C1774 C 0.29652 0.85954 0.24713 0.0
C1775 C 0.2993 0.87139 0.26452 0.0
C1776 C 0.32171 0.88684 0.27314 0.0
C1777 C 0.34086 0.88929 0.26478 0.0
C1778 C 0.27293 0.84255 0.23761 0.0
C1779 C 0.32546 0.90025 0.29148 0.0
C1780 C 0.25089 0.87723 0.28388 0.0
C1781 C 0.24389 0.86008 0.29651 0.0
C1782 C 0.26851 0.88071 0.27291 0.0
C1783 C 0.27896 0.86637 0.27446 0.0
C1784 C 0.27119 0.84833 0.28669 0.0
C1785 C 0.25391 0.84559 0.29771 0.0
C1786 C 0.27639 0.90015 0.26007 0.0
C1787 C 0.28145 0.83224 0.28841 0.0
H1788 H 0.31409 0.85322 0.22581 0.0
H1789 H 0.35802 0.90065 0.27154 0.0
H1790 H 0.26507 0.82543 0.24413 0.0
H1791 H 0.26137 0.85014 0.23876 0.0
H1792 H 0.27372 0.83836 0.22305 0.0
H1793 H 0.34398 0.91316 0.29559 0.0
H1794 H 0.31601 0.91031 0.29142 0.0
H1795 H 0.31857 0.88722 0.30185 0.0
H1796 H 0.24292 0.88825 0.28283 0.0
H1797 H 0.24818 0.83202 0.30726 0.0
H1798 H 0.27595 0.89257 0.24619 0.0
H1799 H 0.2945 0.91426 0.26429 0.0
H1800 H 0.26557 0.90874 0.25969 0.0
H1801 H 0.28102 0.8237 0.27489 0.0
H1802 H 0.27219 0.81783 0.29745 0.0
H1803 H 0.29977 0.84316 0.29392 0.0
C1804 C 0.11717 0.43578 0.2526 0.0
C1805 C 0.1106 0.45035 0.26241 0.0
C1806 C 0.12263 0.42017 0.26124 0.0
C1807 C 0.12212 0.41956 0.28022 0.0
C1808 C 0.11559 0.43419 0.29023 0.0
C1809 C 0.10957 0.44911 0.28118 0.0
C1810 C 0.12902 0.40438 0.25008 0.0
C1811 C 0.11525 0.43434 0.31054 0.0
C1812 C 0.11887 0.36647 0.3027 0.0
C1813 C 0.1421 0.37517 0.30831 0.0
C1814 C 0.11213 0.38055 0.2932 0.0
C1815 C 0.129 0.40408 0.28971 0.0
C1816 C 0.15246 0.413 0.29551 0.0
C1817 C 0.15877 0.39828 0.30452 0.0
C1818 C 0.08705 0.37018 0.28673 0.0
C1819 C 0.17088 0.43818 0.29237 0.0
H1820 H 0.11839 0.43679 0.23817 0.0
H1821 H 0.10401 0.45978 0.28888 0.0
H1822 H 0.14675 0.40865 0.25458 0.0
H1823 H 0.11728 0.38517 0.25211 0.0
H1824 H 0.1281 0.4066 0.2354 0.0
H1825 H 0.11016 0.44709 0.31637 0.0
H1826 H 0.10306 0.41603 0.31423 0.0
H1827 H 0.13258 0.43944 0.3169 0.0
H1828 H 0.10602 0.34842 0.30536 0.0
H1829 H 0.17675 0.40502 0.30887 0.0
H1830 H 0.08513 0.37056 0.27185 0.0
H1831 H 0.08041 0.38132 0.29296 0.0
H1832 H 0.07621 0.35132 0.29008 0.0
H1833 H 0.17136 0.44025 0.27765 0.0
H1834 H 0.18826 0.44254 0.29809 0.0
H1835 H 0.1668 0.45153 0.29861 0.0
C1836 C 0.32644 0.4336 0.24468 0.0
C1837 C 0.34735 0.44041 0.25471 0.0
C1838 C 0.30544 0.42118 0.25241 0.0
C1839 C 0.30548 0.41525 0.27048 0.0
C1840 C 0.32653 0.42143 0.28043 0.0
C1841 C 0.34723 0.43412 0.27246 0.0
C1842 C 0.28334 0.41516 0.24149 0.0
C1843 C 0.32722 0.41502 0.29961 0.0
C1844 C 0.2575 0.40596 0.2995 0.0
C1845 C 0.24485 0.38082 0.299 0.0
C1846 C 0.27681 0.41741 0.28967 0.0
C1847 C 0.28369 0.4033 0.27933 0.0
C1848 C 0.27057 0.37785 0.27843 0.0
C1849 C 0.25121 0.36689 0.28825 0.0
C1850 C 0.29016 0.44459 0.29069 0.0
C1851 C 0.27738 0.36221 0.26758 0.0
H1852 H 0.32659 0.43868 0.23099 0.0
H1853 H 0.36342 0.43922 0.28013 0.0
H1854 H 0.27037 0.39579 0.24162 0.0
H1855 H 0.27596 0.42561 0.24768 0.0
H1856 H 0.28605 0.41935 0.22721 0.0
H1857 H 0.34488 0.42007 0.30514 0.0
H1858 H 0.32079 0.42439 0.30849 0.0
H1859 H 0.31574 0.39537 0.3002 0.0
H1860 H 0.25238 0.4167 0.30765 0.0
H1861 H 0.2413 0.34741 0.28779 0.0
H1862 H 0.29223 0.45065 0.27687 0.0
H1863 H 0.30768 0.45146 0.29747 0.0
H1864 H 0.28161 0.45283 0.29828 0.0
H1865 H 0.27951 0.36712 0.25345 0.0
H1866 H 0.26447 0.34272 0.26733 0.0
H1867 H 0.29423 0.36526 0.27349 0.0
C1868 C 0.51437 0.85612 0.25094 0.0
C1869 C 0.52182 0.8801 0.24787 0.0
C1870 C 0.52926 0.84991 0.25999 0.0
C1871 C 0.55189 0.86824 0.26643 0.0
C1872 C 0.55932 0.89254 0.26359 0.0
C1873 C 0.54424 0.89815 0.25416 0.0
C1874 C 0.52089 0.82376 0.2625 0.0
C1875 C 0.58316 0.91263 0.27055 0.0
C1876 C 0.58305 0.85588 0.3047 0.0
C1877 C 0.59864 0.85184 0.29551 0.0
C1878 C 0.56773 0.86125 0.29538 0.0
C1879 C 0.56775 0.86211 0.27639 0.0
C1880 C 0.58327 0.85767 0.267 0.0
C1881 C 0.59873 0.85283 0.27674 0.0
C1882 C 0.55177 0.86636 0.3059 0.0
C1883 C 0.58347 0.85792 0.24671 0.0
H1884 H 0.49707 0.84217 0.24589 0.0
H1885 H 0.54989 0.91671 0.25184 0.0
H1886 H 0.53237 0.81818 0.25631 0.0
H1887 H 0.52154 0.82127 0.27712 0.0
H1888 H 0.50298 0.81166 0.25633 0.0
H1889 H 0.58609 0.93062 0.26749 0.0
H1890 H 0.58583 0.91271 0.28542 0.0
H1891 H 0.59633 0.90966 0.26442 0.0
H1892 H 0.58306 0.85519 0.31925 0.0
H1893 H 0.61079 0.84964 0.26966 0.0
H1894 H 0.53359 0.85348 0.30084 0.0
H1895 H 0.55499 0.88473 0.30387 0.0
H1896 H 0.554 0.86506 0.32064 0.0
H1897 H 0.56642 0.84389 0.24008 0.0
H1898 H 0.59692 0.85457 0.24153 0.0
H1899 H 0.58651 0.87555 0.24265 0.0
C1900 C 0.1067 0.65646 0.28031 0.0
C1901 C 0.12113 0.6469 0.28374 0.0
C1902 C 0.11258 0.67951 0.28779 0.0
C1903 C 0.13316 0.69318 0.2993 0.0
C1904 C 0.14744 0.68338 0.30335 0.0
C1905 C 0.14134 0.66042 0.29541 0.0
C1906 C 0.097 0.68945 0.28305 0.0
C1907 C 0.16943 0.69739 0.3157 0.0
C1908 C 0.15948 0.76106 0.30324 0.0
C1909 C 0.1513 0.76511 0.31927 0.0
C1910 C 0.15392 0.73776 0.2967 0.0
C1911 C 0.14009 0.71808 0.30656 0.0
C1912 C 0.13223 0.72211 0.32298 0.0
C1913 C 0.13777 0.74559 0.32906 0.0
C1914 C 0.1623 0.73417 0.27896 0.0
C1915 C 0.11775 0.70158 0.33399 0.0
H1916 H 0.09079 0.64597 0.27164 0.0
H1917 H 0.15276 0.65335 0.29798 0.0
H1918 H 0.09136 0.69437 0.29554 0.0
H1919 H 0.10658 0.70614 0.27618 0.0
H1920 H 0.08147 0.6764 0.27404 0.0
H1921 H 0.17783 0.68661 0.31842 0.0
H1922 H 0.18172 0.71378 0.30949 0.0
H1923 H 0.16586 0.70345 0.32878 0.0
H1924 H 0.16976 0.77605 0.29549 0.0
H1925 H 0.13153 0.74866 0.34152 0.0
H1926 H 0.14735 0.72381 0.2687 0.0
H1927 H 0.17106 0.72355 0.28053 0.0
H1928 H 0.1744 0.75154 0.27374 0.0
H1929 H 0.10117 0.68879 0.32606 0.0
H1930 H 0.11403 0.70791 0.34691 0.0
H1931 H 0.12669 0.69144 0.33709 0.0
C1932 C 0.78444 0.99613 0.39387 0.0
C1933 C 0.79805 0.01552 0.38391 0.0
C1934 C 0.7676 0.97373 0.38521 0.0
C1935 C 0.76465 0.97033 0.36608 0.0
C1936 C 0.77841 0.98965 0.35589 0.0
C1937 C 0.79476 0.01208 0.36492 0.0
C1938 C 0.75301 0.95364 0.39656 0.0
C1939 C 0.77597 0.98656 0.33546 0.0
C1940 C 0.73605 0.90506 0.34662 0.0
C1941 C 0.71333 0.89965 0.34231 0.0
C1942 C 0.75318 0.92832 0.35363 0.0
C1943 C 0.74728 0.94641 0.35683 0.0
C1944 C 0.72445 0.94116 0.35217 0.0
C1945 C 0.70779 0.91788 0.34478 0.0
C1946 C 0.77743 0.93335 0.35808 0.0
C1947 C 0.71738 0.9598 0.35576 0.0
H1948 H 0.7871 0.99829 0.40851 0.0
H1949 H 0.80486 0.02695 0.35705 0.0
H1950 H 0.73446 0.94676 0.39272 0.0
H1951 H 0.7561 0.93836 0.39402 0.0
H1952 H 0.75673 0.95954 0.41128 0.0
H1953 H 0.78829 0.00323 0.32952 0.0
H1954 H 0.77889 0.97174 0.33066 0.0
H1955 H 0.75821 0.98145 0.33026 0.0
H1956 H 0.74041 0.89102 0.34465 0.0
H1957 H 0.69017 0.91368 0.34168 0.0
H1958 H 0.78189 0.93705 0.37294 0.0
H1959 H 0.78988 0.94962 0.35184 0.0
H1960 H 0.77962 0.91799 0.35332 0.0
H1961 H 0.71921 0.96468 0.37055 0.0
H1962 H 0.69927 0.95324 0.35047 0.0
H1963 H 0.72882 0.97649 0.34949 0.0
C1964 C 0.99362 0.77041 0.41322 0.0
C1965 C 0.99235 0.79024 0.42044 0.0
C1966 C 0.01163 0.77361 0.40289 0.0
C1967 C 0.02902 0.79724 0.40015 0.0
C1968 C 0.02796 0.81735 0.40768 0.0
C1969 C 0.00939 0.81358 0.41756 0.0
C1970 C 0.01191 0.75172 0.39475 0.0
C1971 C 0.0465 0.84281 0.40541 0.0
C1972 C 0.08609 0.80527 0.3871 0.0
C1973 C 0.08468 0.80798 0.3686 0.0
C1974 C 0.06825 0.80215 0.39763 0.0
C1975 C 0.04822 0.80087 0.38925 0.0
C1976 C 0.04646 0.80291 0.37043 0.0
C1977 C 0.06487 0.80675 0.36036 0.0
C1978 C 0.07096 0.80057 0.41773 0.0
C1979 C 0.02514 0.80106 0.36095 0.0
H1980 H 0.98026 0.75238 0.41543 0.0
H1981 H 0.00833 0.82884 0.42328 0.0
H1982 H 0.01195 0.75193 0.37983 0.0
H1983 H 0.02786 0.75206 0.39991 0.0
H1984 H 0.99683 0.73459 0.39789 0.0
H1985 H 0.04351 0.85646 0.41264 0.0
H1986 H 0.06356 0.84572 0.41061 0.0
H1987 H 0.04729 0.84581 0.39085 0.0
H1988 H 0.10136 0.80606 0.39342 0.0
H1989 H 0.06375 0.80873 0.346 0.0
H1990 H 0.08798 0.80281 0.42225 0.0
H1991 H 0.05727 0.78288 0.42136 0.0
H1992 H 0.06899 0.81468 0.42533 0.0
H1993 H 0.00974 0.78372 0.36324 0.0
H1994 H 0.0262 0.80222 0.34614 0.0
H1995 H 0.0225 0.81572 0.36666 0.0
C1996 C 0.22018 0.21927 0.39171 0.0
C1997 C 0.21836 0.21805 0.41042 0.0
C1998 C 0.21401 0.23367 0.38212 0.0
C1999 C 0.20654 0.24788 0.39151 0.0
C2000 C 0.20548 0.24755 0.41047 0.0
C2001 C 0.21114 0.23242 0.41967 0.0
C2002 C 0.21501 0.23324 0.36184 0.0
C2003 C 0.19819 0.26302 0.42099 0.0
C2004 C 0.20835 0.29873 0.36665 0.0
C2005 C 0.18515 0.28884 0.36029 0.0
C2006 C 0.21547 0.28591 0.37736 0.0
C2007 C 0.19909 0.26242 0.3813 0.0
C2008 C 0.17564 0.25236 0.37484 0.0
C2009 C 0.16889 0.26586 0.36463 0.0
C2010 C 0.24048 0.29752 0.38452 0.0
C2011 C 0.15773 0.22716 0.37844 0.0
H2012 H 0.22636 0.20885 0.38446 0.0
H2013 H 0.20944 0.23153 0.43406 0.0
H2014 H 0.19768 0.2273 0.35504 0.0
H2015 H 0.2268 0.25163 0.35806 0.0
H2016 H 0.22097 0.22099 0.35655 0.0
H2017 H 0.19868 0.26102 0.43574 0.0
H2018 H 0.2097 0.28224 0.41891 0.0
H2019 H 0.18046 0.25823 0.41599 0.0
H2020 H 0.22084 0.31672 0.3636 0.0
H2021 H 0.15093 0.25825 0.35976 0.0
H2022 H 0.24811 0.28702 0.3789 0.0
H2023 H 0.24193 0.29748 0.39946 0.0
H2024 H 0.25078 0.31639 0.38103 0.0
H2025 H 0.16246 0.21403 0.37281 0.0
H2026 H 0.14024 0.22198 0.37239 0.0
H2027 H 0.15713 0.22569 0.39322 0.0
C2028 C 0.67528 0.56098 0.75688 0.0
C2029 C 0.65339 0.55191 0.74771 0.0
C2030 C 0.6953 0.57415 0.74809 0.0
C2031 C 0.69326 0.57842 0.72977 0.0
C2032 C 0.67119 0.56978 0.72062 0.0
C2033 C 0.65152 0.55652 0.72968 0.0
C2034 C 0.71853 0.58278 0.75822 0.0
C2035 C 0.66834 0.57434 0.70119 0.0
C2036 C 0.7437 0.6286 0.70938 0.0
C2037 C 0.75138 0.61562 0.69898 0.0
C2038 C 0.72511 0.61678 0.71984 0.0
C2039 C 0.71407 0.59142 0.71991 0.0
C2040 C 0.72213 0.57832 0.70972 0.0
C2041 C 0.74065 0.59059 0.69926 0.0
C2042 C 0.71705 0.63136 0.73058 0.0
C2043 C 0.71104 0.55131 0.70973 0.0
H2044 H 0.67672 0.55721 0.77078 0.0
H2045 H 0.6346 0.54977 0.72267 0.0
H2046 H 0.72598 0.57197 0.75284 0.0
H2047 H 0.7307 0.60189 0.75624 0.0
H2048 H 0.71734 0.58097 0.77297 0.0
H2049 H 0.65 0.56714 0.69625 0.0
H2050 H 0.67803 0.59398 0.69976 0.0
H2051 H 0.67559 0.56581 0.69235 0.0
H2052 H 0.75214 0.64801 0.70923 0.0
H2053 H 0.74682 0.58062 0.69139 0.0
H2054 H 0.71705 0.62791 0.74505 0.0
H2055 H 0.69908 0.62576 0.72561 0.0
H2056 H 0.72806 0.65102 0.7296 0.0
H2057 H 0.71096 0.54639 0.72381 0.0
H2058 H 0.72007 0.54397 0.70177 0.0
H2059 H 0.69284 0.54251 0.70395 0.0
C2060 C 0.46592 0.10818 0.72672 0.0
C2061 C 0.47692 0.11773 0.74415 0.0
C2062 C 0.44877 0.11265 0.71973 0.0
C2063 C 0.44287 0.12746 0.7303 0.0
C2064 C 0.4539 0.13709 0.74795 0.0
C2065 C 0.47066 0.13189 0.75474 0.0
C2066 C 0.4371 0.10171 0.70097 0.0
C2067 C 0.44844 0.15337 0.75946 0.0
C2068 C 0.41768 0.15886 0.70366 0.0
C2069 C 0.39417 0.1448 0.70582 0.0
C2070 C 0.43376 0.15381 0.71201 0.0
C2071 C 0.42605 0.13387 0.72245 0.0
C2072 C 0.4023 0.11976 0.72487 0.0
C2073 C 0.38662 0.12558 0.71666 0.0
C2074 C 0.45898 0.16962 0.70944 0.0
C2075 C 0.39342 0.09816 0.73569 0.0
H2076 H 0.4706 0.09699 0.71864 0.0
H2077 H 0.47928 0.13935 0.7682 0.0
H2078 H 0.41812 0.09151 0.70138 0.0
H2079 H 0.44111 0.1162 0.69191 0.0
H2080 H 0.44262 0.08939 0.69499 0.0
H2081 H 0.45805 0.15878 0.7731 0.0
H2082 H 0.45285 0.16988 0.75265 0.0
H2083 H 0.42972 0.14423 0.76108 0.0
H2084 H 0.42354 0.17388 0.6954 0.0
H2085 H 0.3684 0.11472 0.71831 0.0
H2086 H 0.46526 0.15894 0.70196 0.0
H2087 H 0.46927 0.17644 0.72278 0.0
H2088 H 0.46227 0.18527 0.70183 0.0
H2089 H 0.39724 0.08469 0.7293 0.0
H2090 H 0.37455 0.08943 0.73667 0.0
H2091 H 0.40231 0.10355 0.74957 0.0
C2092 C 0.85305 0.34061 0.70273 0.0
C2093 C 0.87305 0.35349 0.71472 0.0
C2094 C 0.84687 0.31789 0.69425 0.0
C2095 C 0.86084 0.30766 0.69807 0.0
C2096 C 0.88122 0.32071 0.7099 0.0
C2097 C 0.88719 0.34354 0.71792 0.0
C2098 C 0.82512 0.30456 0.68157 0.0
C2099 C 0.89645 0.31029 0.71443 0.0
C2100 C 0.83412 0.23978 0.69319 0.0
C2101 C 0.8428 0.23608 0.67732 0.0
C2102 C 0.83956 0.26296 0.69992 0.0
C2103 C 0.85369 0.28288 0.69038 0.0
C2104 C 0.86186 0.27919 0.67402 0.0
C2105 C 0.8565 0.25581 0.66777 0.0
C2106 C 0.83086 0.2662 0.7176 0.0
C2107 C 0.87668 0.29998 0.66335 0.0
H2108 H 0.84186 0.34798 0.70031 0.0
H2109 H 0.90294 0.35357 0.72684 0.0
H2110 H 0.82887 0.29881 0.66844 0.0
H2111 H 0.81246 0.28802 0.6874 0.0
H2112 H 0.81708 0.31571 0.679 0.0
H2113 H 0.91191 0.32293 0.72368 0.0
H2114 H 0.88656 0.29336 0.72095 0.0
H2115 H 0.9022 0.30567 0.70188 0.0
H2116 H 0.82375 0.22464 0.70077 0.0
H2117 H 0.86317 0.253 0.65546 0.0
H2118 H 0.8216 0.2763 0.7159 0.0
H2119 H 0.84566 0.27695 0.72791 0.0
H2120 H 0.81911 0.24872 0.72284 0.0
H2121 H 0.86814 0.3106 0.66061 0.0
H2122 H 0.88025 0.29387 0.65027 0.0
H2123 H 0.89334 0.31226 0.67139 0.0
C2124 C 0.18889 0.99634 0.62628 0.0
C2125 C 0.1952 0.98302 0.61471 0.0
C2126 C 0.20551 0.01874 0.63514 0.0
C2127 C 0.22898 0.02827 0.63216 0.0
C2128 C 0.23556 0.01477 0.62081 0.0
C2129 C 0.21863 0.99223 0.61237 0.0
C2130 C 0.19787 0.03254 0.64728 0.0
C2131 C 0.2604 0.02442 0.61718 0.0
C2132 C 0.2678 0.09622 0.6382 0.0
C2133 C 0.28031 0.09966 0.65488 0.0
C2134 C 0.25113 0.07309 0.63065 0.0
C2135 C 0.24653 0.0529 0.64017 0.0
C2136 C 0.25888 0.05626 0.65713 0.0
C2137 C 0.27583 0.07962 0.66421 0.0
C2138 C 0.23874 0.07025 0.61233 0.0
C2139 C 0.2542 0.03519 0.66778 0.0
H2140 H 0.17086 0.9896 0.62802 0.0
H2141 H 0.22378 0.9819 0.60379 0.0
H2142 H 0.20797 0.03797 0.6607 0.0
H2143 H 0.20117 0.04929 0.64131 0.0
H2144 H 0.17926 0.02186 0.64929 0.0
H2145 H 0.26274 0.01142 0.60835 0.0
H2146 H 0.26677 0.04138 0.61054 0.0
H2147 H 0.27131 0.02879 0.6301 0.0
H2148 H 0.27143 0.11161 0.63078 0.0
H2149 H 0.28543 0.08222 0.67712 0.0
H2150 H 0.21984 0.0605 0.61317 0.0
H2151 H 0.24255 0.05933 0.60254 0.0
H2152 H 0.24387 0.08786 0.60696 0.0
H2153 H 0.23574 0.02515 0.67031 0.0
H2154 H 0.26483 0.04091 0.68098 0.0
H2155 H 0.25779 0.02249 0.65985 0.0
C2156 C 0.01053 0.23529 0.59234 0.0
C2157 C 0.01404 0.21577 0.58889 0.0
C2158 C 0.99107 0.23233 0.60055 0.0
C2159 C 0.97455 0.20919 0.60505 0.0
C2160 C 0.97772 0.18928 0.6011 0.0
C2161 C 0.9976 0.19288 0.59324 0.0
C2162 C 0.98848 0.25404 0.60483 0.0
C2163 C 0.96027 0.16426 0.60538 0.0
C2164 C 0.93675 0.20317 0.64285 0.0
C2165 C 0.91607 0.19776 0.63316 0.0
C2166 C 0.9561 0.20752 0.63385 0.0
C2167 C 0.95452 0.20596 0.61469 0.0
C2168 C 0.93371 0.2008 0.60485 0.0
C2169 C 0.91477 0.197 0.61425 0.0
C2170 C 0.97813 0.21348 0.64484 0.0
C2171 C 0.93123 0.19861 0.58442 0.0
H2172 H 0.02337 0.25303 0.58906 0.0
H2173 H 0.00026 0.17776 0.5904 0.0
H2174 H 0.97175 0.25083 0.59853 0.0
H2175 H 0.9885 0.25711 0.61967 0.0
H2176 H 0.00254 0.27066 0.59999 0.0
H2177 H 0.9646 0.1505 0.60045 0.0
H2178 H 0.95929 0.16387 0.62022 0.0
H2179 H 0.94291 0.15921 0.59914 0.0
H2180 H 0.93779 0.20388 0.6575 0.0
H2181 H 0.89877 0.19292 0.60678 0.0
H2182 H 0.99261 0.23061 0.64111 0.0
H2183 H 0.98243 0.19916 0.64182 0.0
H2184 H 0.97685 0.21523 0.65964 0.0
H2185 H 0.9145 0.19627 0.57885 0.0
H2186 H 0.93251 0.18287 0.57917 0.0
H2187 H 0.94538 0.21481 0.57927 0.0
C2188 C 0.78465 0.76765 0.5809 0.0
C2189 C 0.78007 0.78401 0.59047 0.0
C2190 C 0.78985 0.75213 0.58998 0.0
C2191 C 0.791 0.75336 0.60911 0.0
C2192 C 0.78621 0.76964 0.61884 0.0
C2193 C 0.78049 0.7845 0.60941 0.0
C2194 C 0.7944 0.73464 0.57912 0.0
C2195 C 0.78759 0.77175 0.63928 0.0
C2196 C 0.78825 0.7026 0.63471 0.0
C2197 C 0.81165 0.71115 0.63953 0.0
C2198 C 0.78127 0.71583 0.62433 0.0
C2199 C 0.79808 0.73835 0.61907 0.0
C2200 C 0.82173 0.74705 0.62393 0.0
C2201 C 0.82823 0.7332 0.63392 0.0
C2202 C 0.75594 0.70568 0.61895 0.0
C2203 C 0.84016 0.77117 0.61883 0.0
H2204 H 0.78464 0.76725 0.5663 0.0
H2205 H 0.77639 0.79657 0.61694 0.0
H2206 H 0.81235 0.73886 0.58254 0.0
H2207 H 0.7828 0.71603 0.58258 0.0
H2208 H 0.79179 0.73515 0.5643 0.0
H2209 H 0.78342 0.78538 0.64481 0.0
H2210 H 0.77553 0.75411 0.64409 0.0
H2211 H 0.80521 0.77684 0.6449 0.0
H2212 H 0.77541 0.68532 0.63871 0.0
H2213 H 0.84636 0.73984 0.63758 0.0
H2214 H 0.75286 0.70464 0.60402 0.0
H2215 H 0.75021 0.7178 0.6249 0.0
H2216 H 0.74514 0.68743 0.62343 0.0
H2217 H 0.83918 0.77151 0.60391 0.0
H2218 H 0.85777 0.77532 0.6237 0.0
H2219 H 0.83733 0.78566 0.62463 0.0
C2220 C 0.01344 0.78635 0.60041 0.0
C2221 C 0.01105 0.79362 0.58338 0.0
C2222 C 0.99411 0.77163 0.6094 0.0
C2223 C 0.97179 0.76411 0.60122 0.0
C2224 C 0.96919 0.7709 0.58382 0.0
C2225 C 0.98889 0.78553 0.57506 0.0
C2226 C 0.99762 0.76451 0.62782 0.0
C2227 C 0.94567 0.76338 0.57473 0.0
C2228 C 0.92186 0.71161 0.62046 0.0
C2229 C 0.91493 0.72362 0.63266 0.0
C2230 C 0.93997 0.72451 0.60976 0.0
C2231 C 0.95136 0.75001 0.61133 0.0
C2232 C 0.94407 0.76217 0.6234 0.0
C2233 C 0.92597 0.7488 0.63397 0.0
C2234 C 0.94718 0.71089 0.59702 0.0
C2235 C 0.95561 0.78932 0.62533 0.0
H2236 H 0.03053 0.79226 0.60676 0.0
H2237 H 0.98698 0.79125 0.56195 0.0
H2238 H 0.99105 0.77212 0.63813 0.0
H2239 H 0.98769 0.74461 0.62787 0.0
H2240 H 0.01603 0.77092 0.63192 0.0
H2241 H 0.94643 0.76802 0.5605 0.0
H2242 H 0.93394 0.74369 0.57486 0.0
H2243 H 0.93797 0.77254 0.58232 0.0
H2244 H 0.91323 0.6921 0.61938 0.0
H2245 H 0.92043 0.75809 0.64327 0.0
H2246 H 0.96509 0.7155 0.60125 0.0
H2247 H 0.94701 0.71625 0.5831 0.0
H2248 H 0.93576 0.69106 0.59669 0.0
H2249 H 0.97392 0.79726 0.63059 0.0
H2250 H 0.94713 0.79594 0.63463 0.0
H2251 H 0.95538 0.796 0.61191 0.0
C2252 C 0.22276 0.24502 0.59152 0.0
C2253 C 0.20088 0.2264 0.58455 0.0
C2254 C 0.23804 0.24008 0.6014 0.0
C2255 C 0.23144 0.21589 0.60398 0.0
C2256 C 0.20952 0.19698 0.59662 0.0
C2257 C 0.19435 0.2025 0.58718 0.0
C2258 C 0.26107 0.26076 0.60936 0.0
C2259 C 0.20208 0.17093 0.59872 0.0
C2260 C 0.27895 0.20233 0.61705 0.0
C2261 C 0.27685 0.19987 0.63556 0.0
C2262 C 0.26405 0.20718 0.6065 0.0
C2263 C 0.24721 0.21042 0.61485 0.0
C2264 C 0.24542 0.20849 0.63367 0.0
C2265 C 0.26009 0.20293 0.64376 0.0
C2266 C 0.26613 0.2085 0.58641 0.0
C2267 C 0.22804 0.21237 0.64314 0.0
H2268 H 0.22768 0.26351 0.58954 0.0
H2269 H 0.17748 0.18812 0.58162 0.0
H2270 H 0.26256 0.26064 0.6243 0.0
H2271 H 0.27522 0.25868 0.60419 0.0
H2272 H 0.26356 0.27853 0.60612 0.0
H2273 H 0.18495 0.15833 0.5914 0.0
H2274 H 0.21492 0.16662 0.59356 0.0
H2275 H 0.20125 0.16778 0.61326 0.0
H2276 H 0.29203 0.20011 0.61076 0.0
H2277 H 0.25858 0.20116 0.65812 0.0
H2278 H 0.26974 0.22643 0.58265 0.0
H2279 H 0.24958 0.19486 0.57883 0.0
H2280 H 0.28 0.20531 0.58199 0.0
H2281 H 0.23054 0.23041 0.64091 0.0
H2282 H 0.22938 0.211 0.65795 0.0
H2283 H 0.21034 0.19882 0.6374 0.0
C2284 C 0.80092 0.98703 0.62952 0.0
C2285 C 0.79907 0.98377 0.61053 0.0
C2286 C 0.80648 0.00925 0.63858 0.0
C2287 C 0.80969 0.02848 0.62842 0.0
C2288 C 0.80794 0.02542 0.60929 0.0
C2289 C 0.80298 0.00323 0.6006 0.0
C2290 C 0.80863 0.01204 0.65901 0.0
C2291 C 0.81088 0.04544 0.59798 0.0
C2292 C 0.7999 0.07733 0.64941 0.0
C2293 C 0.82249 0.09672 0.65279 0.0
C2294 C 0.7955 0.05488 0.64172 0.0
C2295 C 0.81419 0.05165 0.63771 0.0
C2296 C 0.83708 0.07091 0.64178 0.0
C2297 C 0.84096 0.09336 0.64906 0.0
C2298 C 0.77084 0.03493 0.63717 0.0
C2299 C 0.85744 0.06796 0.63806 0.0
H2300 H 0.7976 0.9721 0.63736 0.0
H2301 H 0.80216 0.00118 0.58597 0.0
H2302 H 0.82545 0.02794 0.6642 0.0
H2303 H 0.79497 0.01523 0.66386 0.0
H2304 H 0.80717 0.99588 0.66492 0.0
H2305 H 0.80889 0.04011 0.58323 0.0
H2306 H 0.79794 0.05077 0.60095 0.0
H2307 H 0.82814 0.06159 0.60148 0.0
H2308 H 0.78557 0.07998 0.65203 0.0
H2309 H 0.85845 0.10834 0.65171 0.0
H2310 H 0.76779 0.01851 0.64354 0.0
H2311 H 0.76743 0.03016 0.62232 0.0
H2312 H 0.7583 0.04012 0.64172 0.0
H2313 H 0.85594 0.05195 0.64421 0.0
H2314 H 0.87409 0.08404 0.64341 0.0
H2315 H 0.85769 0.06489 0.62326 0.0
C2316 C 0.44776 0.35059 0.72987 0.0
C2317 C 0.47119 0.35919 0.72798 0.0
C2318 C 0.43077 0.32756 0.72231 0.0
C2319 C 0.4373 0.31287 0.71238 0.0
C2320 C 0.46085 0.32156 0.71011 0.0
C2321 C 0.47751 0.34455 0.71802 0.0
C2322 C 0.40583 0.31884 0.72513 0.0
C2323 C 0.46845 0.30644 0.69951 0.0
C2324 C 0.39694 0.24514 0.70738 0.0
C2325 C 0.38574 0.24145 0.69007 0.0
C2326 C 0.41361 0.26832 0.71487 0.0
C2327 C 0.41953 0.28822 0.70464 0.0
C2328 C 0.40841 0.28457 0.68708 0.0
C2329 C 0.39145 0.26122 0.68007 0.0
C2330 C 0.42469 0.27151 0.7338 0.0
C2331 C 0.41448 0.30533 0.6757 0.0
H2332 H 0.44264 0.36192 0.73725 0.0
H2333 H 0.49557 0.35085 0.71669 0.0
H2334 H 0.39557 0.31439 0.71187 0.0
H2335 H 0.39861 0.30209 0.73211 0.0
H2336 H 0.40363 0.33245 0.73328 0.0
H2337 H 0.48731 0.31621 0.69835 0.0
H2338 H 0.46381 0.28978 0.70617 0.0
H2339 H 0.45936 0.30083 0.68569 0.0
H2340 H 0.39236 0.22993 0.71527 0.0
H2341 H 0.38285 0.25839 0.66666 0.0
H2342 H 0.42145 0.28384 0.74259 0.0
H2343 H 0.44362 0.2799 0.73361 0.0
H2344 H 0.41804 0.25416 0.73997 0.0
H2345 H 0.41114 0.31878 0.68276 0.0
H2346 H 0.40449 0.2994 0.6622 0.0
H2347 H 0.43312 0.31457 0.67374 0.0
C2348 C 0.65769 0.08873 0.74234 0.0
C2349 C 0.65449 0.10746 0.74919 0.0
C2350 C 0.67639 0.09349 0.73233 0.0
C2351 C 0.69251 0.11762 0.72955 0.0
C2352 C 0.68952 0.13664 0.73676 0.0
C2353 C 0.67032 0.13128 0.7463 0.0
C2354 C 0.67875 0.07272 0.72454 0.0
C2355 C 0.70666 0.16263 0.73446 0.0
C2356 C 0.75175 0.13141 0.71743 0.0
C2357 C 0.75028 0.13392 0.69889 0.0
C2358 C 0.73316 0.12637 0.72765 0.0
C2359 C 0.71238 0.12297 0.71893 0.0
C2360 C 0.71062 0.12483 0.70008 0.0
C2361 C 0.72973 0.13059 0.69031 0.0
C2362 C 0.73586 0.12508 0.74779 0.0
C2363 C 0.68858 0.1208 0.69025 0.0
H2364 H 0.64527 0.0703 0.74454 0.0
H2365 H 0.6678 0.14571 0.75174 0.0
H2366 H 0.67886 0.07281 0.70962 0.0
H2367 H 0.69537 0.0747 0.72991 0.0
H2368 H 0.66455 0.055 0.72773 0.0
H2369 H 0.70228 0.17532 0.74149 0.0
H2370 H 0.72417 0.16706 0.73986 0.0
H2371 H 0.70734 0.16552 0.71988 0.0
H2372 H 0.76762 0.13384 0.72402 0.0
H2373 H 0.72857 0.13239 0.67593 0.0
H2374 H 0.72279 0.10709 0.75146 0.0
H2375 H 0.7329 0.13862 0.75519 0.0
H2376 H 0.75323 0.12841 0.75252 0.0
H2377 H 0.67408 0.1028 0.69253 0.0
H2378 H 0.68976 0.12195 0.67545 0.0
H2379 H 0.68436 0.13441 0.69568 0.0
C2380 C 0.88066 0.56574 0.74807 0.0
C2381 C 0.88725 0.55113 0.73835 0.0
C2382 C 0.87527 0.58135 0.73932 0.0
C2383 C 0.87592 0.58192 0.72035 0.0
C2384 C 0.88269 0.56741 0.71047 0.0
C2385 C 0.88862 0.55251 0.71962 0.0
C2386 C 0.86868 0.59706 0.75035 0.0
C2387 C 0.88319 0.56723 0.69016 0.0
C2388 C 0.83868 0.60189 0.69528 0.0
C2389 C 0.85514 0.62494 0.69122 0.0
C2390 C 0.84524 0.58766 0.70472 0.0
C2391 C 0.86874 0.59704 0.71067 0.0
C2392 C 0.88538 0.62055 0.70696 0.0
C2393 C 0.8784 0.63412 0.69703 0.0
C2394 C 0.82706 0.56248 0.7081 0.0
C2395 C 0.91048 0.63141 0.71359 0.0
H2396 H 0.87925 0.56468 0.76248 0.0
H2397 H 0.89427 0.54185 0.712 0.0
H2398 H 0.88028 0.61626 0.74823 0.0
H2399 H 0.85089 0.59257 0.74581 0.0
H2400 H 0.86964 0.59498 0.76506 0.0
H2401 H 0.88867 0.55473 0.68447 0.0
H2402 H 0.86582 0.56174 0.68369 0.0
H2403 H 0.89515 0.5856 0.68645 0.0
H2404 H 0.82067 0.5948 0.69081 0.0
H2405 H 0.89108 0.65215 0.69418 0.0
H2406 H 0.82665 0.56066 0.72285 0.0
H2407 H 0.83135 0.5492 0.70204 0.0
H2408 H 0.8096 0.5578 0.70233 0.0
H2409 H 0.91232 0.63116 0.72849 0.0
H2410 H 0.92107 0.65028 0.71018 0.0
H2411 H 0.91747 0.62052 0.70753 0.0
C2412 C 0.4542 0.94786 0.10794 0.0
C2413 C 0.46272 0.96034 0.12511 0.0
C2414 C 0.46383 0.95898 0.09242 0.0
C2415 C 0.4823 0.98314 0.09425 0.0
C2416 C 0.49058 0.99595 0.11161 0.0
C2417 C 0.48079 0.98428 0.12689 0.0
C2418 C 0.45483 0.9446 0.07418 0.0
C2419 C 0.51001 0.0218 0.11406 0.0
C2420 C 0.52162 0.00335 0.05629 0.0
C2421 C 0.51202 0.01425 0.04592 0.0
C2422 C 0.51221 0.99327 0.07217 0.0
C2423 C 0.49323 0.99482 0.07801 0.0
C2424 C 0.48418 0.0068 0.06797 0.0
C2425 C 0.49366 0.01631 0.05196 0.0
C2426 C 0.52204 0.98022 0.08233 0.0
C2427 C 0.46413 0.00903 0.07389 0.0
H2428 H 0.44058 0.92916 0.10673 0.0
H2429 H 0.48738 0.99374 0.14029 0.0
H2430 H 0.45196 0.95523 0.06421 0.0
H2431 H 0.46785 0.94049 0.06916 0.0
H2432 H 0.43848 0.92736 0.07473 0.0
H2433 H 0.51366 0.02953 0.12839 0.0
H2434 H 0.52591 0.02294 0.10941 0.0
H2435 H 0.50575 0.03304 0.10565 0.0
H2436 H 0.53571 0.00159 0.05149 0.0
H2437 H 0.48641 0.02491 0.04392 0.0
H2438 H 0.50831 0.96141 0.08355 0.0
H2439 H 0.52872 0.98911 0.09626 0.0
H2440 H 0.5362 0.97978 0.07557 0.0
H2441 H 0.44933 0.99096 0.07556 0.0
H2442 H 0.45842 0.01787 0.0641 0.0
H2443 H 0.46908 0.0197 0.08726 0.0
C2444 C 0.0588 0.52533 0.12467 0.0
C2445 C 0.04551 0.52665 0.13809 0.0
C2446 C 0.051 0.52205 0.10629 0.0
C2447 C 0.02924 0.5196 0.10137 0.0
C2448 C 0.01548 0.52013 0.11497 0.0
C2449 C 0.02392 0.52395 0.1332 0.0
C2450 C 0.06647 0.52226 0.09221 0.0
C2451 C 0.992 0.5171 0.11026 0.0
C2452 C 0.01587 0.53577 0.05582 0.0
C2453 C 0.00272 0.51302 0.04625 0.0
C2454 C 0.02533 0.53824 0.0736 0.0
C2455 C 0.02107 0.51736 0.08204 0.0
C2456 C 0.008 0.49433 0.0723 0.0
C2457 C 0.99905 0.49245 0.05443 0.0
C2458 C 0.03978 0.56315 0.08335 0.0
C2459 C 0.00321 0.47171 0.08086 0.0
H2460 H 0.07562 0.52768 0.12858 0.0
H2461 H 0.01369 0.52488 0.14368 0.0
H2462 H 0.05657 0.50779 0.08113 0.0
H2463 H 0.07402 0.53969 0.08611 0.0
H2464 H 0.08077 0.52006 0.09808 0.0
H2465 H 0.98295 0.51657 0.12246 0.0
H2466 H 0.99375 0.53223 0.10267 0.0
H2467 H 0.98113 0.50019 0.10134 0.0
H2468 H 0.019 0.5517 0.04933 0.0
H2469 H 0.98887 0.47488 0.04692 0.0
H2470 H 0.05702 0.56616 0.08808 0.0
H2471 H 0.03158 0.56483 0.09549 0.0
H2472 H 0.04208 0.57753 0.07462 0.0
H2473 H 0.01965 0.47287 0.08572 0.0
H2474 H 0.99319 0.45526 0.0713 0.0
H2475 H 0.99342 0.46987 0.09282 0.0
C2476 C 0.51411 0.51239 0.13912 0.0
C2477 C 0.49135 0.50343 0.1435 0.0
C2478 C 0.51894 0.50919 0.1214 0.0
C2479 C 0.50055 0.49587 0.10781 0.0
C2480 C 0.47754 0.48504 0.1124 0.0
C2481 C 0.47319 0.48924 0.13011 0.0
C2482 C 0.54373 0.52145 0.117 0.0
C2483 C 0.45751 0.46983 0.0984 0.0
C2484 C 0.51081 0.51466 0.06026 0.0
C2485 C 0.51595 0.49788 0.05229 0.0
C2486 C 0.50573 0.51409 0.0783 0.0
C2487 C 0.50538 0.49598 0.08853 0.0
C2488 C 0.51028 0.47874 0.08045 0.0
C2489 C 0.51586 0.48011 0.06241 0.0
C2490 C 0.5009 0.53301 0.08643 0.0
C2491 C 0.50938 0.45877 0.09079 0.0
H2492 H 0.52831 0.52263 0.14943 0.0
H2493 H 0.45552 0.48221 0.13319 0.0
H2494 H 0.54733 0.50849 0.10949 0.0
H2495 H 0.54693 0.53594 0.10812 0.0
H2496 H 0.55604 0.52957 0.12933 0.0
H2497 H 0.44064 0.46223 0.10421 0.0
H2498 H 0.4576 0.48074 0.08735 0.0
H2499 H 0.45925 0.45477 0.09223 0.0
H2500 H 0.51102 0.52848 0.05241 0.0
H2501 H 0.51964 0.46701 0.0561 0.0
H2502 H 0.51297 0.54285 0.09866 0.0
H2503 H 0.48318 0.5243 0.09073 0.0
H2504 H 0.50261 0.54629 0.07677 0.0
H2505 H 0.52199 0.46646 0.10293 0.0
H2506 H 0.51313 0.4465 0.08242 0.0
H2507 H 0.49206 0.44806 0.09562 0.0
C2508 C 0.93888 0.47433 0.87534 0.0
C2509 C 0.95079 0.47142 0.86143 0.0
C2510 C 0.94772 0.47808 0.89351 0.0
C2511 C 0.96912 0.47935 0.89768 0.0
C2512 C 0.98146 0.47708 0.88357 0.0
C2513 C 0.972 0.47287 0.8656 0.0
C2514 C 0.93368 0.47966 0.90817 0.0
C2515 C 0.00452 0.47877 0.88747 0.0
C2516 C 0.00338 0.5083 0.94313 0.0
C2517 C 0.99944 0.48802 0.95184 0.0
C2518 C 0.99314 0.50576 0.9256 0.0
C2519 C 0.9785 0.48238 0.91678 0.0
C2520 C 0.97393 0.46185 0.92583 0.0
C2521 C 0.98475 0.46494 0.94319 0.0
C2522 C 0.99833 0.52804 0.91637 0.0
C2523 C 0.95782 0.43663 0.91713 0.0
H2524 H 0.92234 0.47295 0.87203 0.0
H2525 H 0.98119 0.47075 0.85474 0.0
H2526 H 0.92527 0.46233 0.9144 0.0
H2527 H 0.94478 0.49396 0.91904 0.0
H2528 H 0.92006 0.48324 0.90277 0.0
H2529 H 0.01239 0.4778 0.8749 0.0
H2530 H 0.01659 0.49596 0.89568 0.0
H2531 H 0.00248 0.46388 0.89549 0.0
H2532 H 0.01476 0.52613 0.94992 0.0
H2533 H 0.98146 0.44926 0.95011 0.0
H2534 H 0.98208 0.52717 0.91134 0.0
H2535 H 0.00794 0.529 0.90446 0.0
H2536 H 0.00872 0.54483 0.92554 0.0
H2537 H 0.94106 0.43475 0.91232 0.0
H2538 H 0.95464 0.42269 0.92658 0.0
H2539 H 0.96523 0.43308 0.90514 0.0
C2540 C 0.53626 0.50795 0.87843 0.0
C2541 C 0.51766 0.49514 0.86514 0.0
C2542 C 0.53266 0.51272 0.89626 0.0
C2543 C 0.50988 0.50393 0.90099 0.0
C2544 C 0.49117 0.49217 0.88745 0.0
C2545 C 0.49533 0.48828 0.86966 0.0
C2546 C 0.55315 0.52585 0.91021 0.0
C2547 C 0.46657 0.4821 0.89199 0.0
C2548 C 0.49784 0.48402 0.94806 0.0
C2549 C 0.49411 0.50169 0.95638 0.0
C2550 C 0.50303 0.48465 0.93007 0.0
C2551 C 0.50527 0.5039 0.92031 0.0
C2552 C 0.50216 0.52223 0.92882 0.0
C2553 C 0.49618 0.52067 0.94676 0.0
C2554 C 0.50569 0.46445 0.92142 0.0
C2555 C 0.50537 0.5435 0.91904 0.0
H2556 H 0.55359 0.51328 0.87518 0.0
H2557 H 0.48091 0.47905 0.85939 0.0
H2558 H 0.55107 0.53844 0.91969 0.0
H2559 H 0.55468 0.51263 0.91829 0.0
H2560 H 0.56945 0.53615 0.90379 0.0
H2561 H 0.45415 0.47518 0.8797 0.0
H2562 H 0.462 0.46709 0.90064 0.0
H2563 H 0.46457 0.49605 0.89977 0.0
H2564 H 0.49623 0.46934 0.95557 0.0
H2565 H 0.49364 0.53452 0.95337 0.0
H2566 H 0.52332 0.47173 0.91712 0.0
H2567 H 0.49342 0.4558 0.90913 0.0
H2568 H 0.5026 0.45041 0.93074 0.0
H2569 H 0.52275 0.55268 0.91407 0.0
H2570 H 0.50341 0.55678 0.92784 0.0
H2571 H 0.49264 0.5373 0.90703 0.0
C2572 C 0.50868 0.0089 0.87008 0.0
C2573 C 0.52573 0.03311 0.87023 0.0
C2574 C 0.50268 0.99803 0.88628 0.0
C2575 C 0.51365 0.01197 0.90294 0.0
C2576 C 0.5316 0.03623 0.90307 0.0
C2577 C 0.53757 0.0465 0.8866 0.0
C2578 C 0.48388 0.97197 0.88558 0.0
C2579 C 0.54356 0.05168 0.92059 0.0
C2580 C 0.47764 0.99384 0.94287 0.0
C2581 C 0.48781 0.98325 0.95292 0.0
C2582 C 0.48616 0.00358 0.9267 0.0
C2583 C 0.50477 0.00187 0.92017 0.0
C2584 C 0.51458 0.99043 0.93 0.0
C2585 C 0.50605 0.98137 0.94639 0.0
C2586 C 0.47553 0.0161 0.91681 0.0
C2587 C 0.53402 0.98773 0.9232 0.0
H2588 H 0.49963 0.99869 0.85729 0.0
H2589 H 0.5507 0.06529 0.88656 0.0
H2590 H 0.48936 0.96194 0.89432 0.0
H2591 H 0.46827 0.97087 0.89081 0.0
H2592 H 0.47918 0.96291 0.87159 0.0
H2593 H 0.55804 0.06973 0.91834 0.0
H2594 H 0.531 0.05409 0.92823 0.0
H2595 H 0.55034 0.04266 0.92921 0.0
H2596 H 0.46364 0.99546 0.94804 0.0
H2597 H 0.51372 0.97296 0.95418 0.0
H2598 H 0.46688 0.00585 0.90355 0.0
H2599 H 0.4891 0.03437 0.91408 0.0
H2600 H 0.46267 0.01784 0.92458 0.0
H2601 H 0.52801 0.97627 0.91014 0.0
H2602 H 0.54051 0.97947 0.93292 0.0
H2603 H 0.54855 0.00553 0.9206 0.0
C2604 C 0.148 0.32284 0.46222 0.0
C2605 C 0.13032 0.29892 0.46223 0.0
C2606 C 0.1554 0.33291 0.44592 0.0
C2607 C 0.14529 0.31842 0.42932 0.0
C2608 C 0.12711 0.2943 0.42929 0.0
C2609 C 0.11963 0.28489 0.44581 0.0
C2610 C 0.17439 0.35888 0.44647 0.0
C2611 C 0.11621 0.27818 0.41187 0.0
C2612 C 0.15377 0.34788 0.3853 0.0
C2613 C 0.17261 0.34654 0.37955 0.0
C2614 C 0.14478 0.33903 0.40161 0.0
C2615 C 0.15465 0.32816 0.41211 0.0
C2616 C 0.17373 0.32681 0.40629 0.0
C2617 C 0.18281 0.33652 0.39025 0.0
C2618 C 0.12479 0.34131 0.40761 0.0
C2619 C 0.1842 0.31454 0.41673 0.0
H2620 H 0.15612 0.33357 0.47502 0.0
H2621 H 0.10602 0.26632 0.44597 0.0
H2622 H 0.19002 0.35973 0.44149 0.0
H2623 H 0.16911 0.36877 0.4374 0.0
H2624 H 0.17896 0.36824 0.46035 0.0
H2625 H 0.10167 0.26018 0.41413 0.0
H2626 H 0.10977 0.28667 0.40239 0.0
H2627 H 0.12933 0.27569 0.40516 0.0
H2628 H 0.14605 0.3558 0.37698 0.0
H2629 H 0.19729 0.33535 0.38568 0.0
H2630 H 0.12996 0.3524 0.42081 0.0
H2631 H 0.11013 0.32333 0.40965 0.0
H2632 H 0.11877 0.34972 0.39766 0.0
H2633 H 0.19097 0.32387 0.43053 0.0
H2634 H 0.19844 0.31429 0.40997 0.0
H2635 H 0.17079 0.29568 0.41825 0.0
C2636 C 0.6846 0.85303 0.4645 0.0
C2637 C 0.70681 0.85709 0.46884 0.0
C2638 C 0.67546 0.84879 0.44641 0.0
C2639 C 0.68915 0.84927 0.43241 0.0
C2640 C 0.71164 0.85331 0.43679 0.0
C2641 C 0.72012 0.85694 0.45503 0.0
C2642 C 0.65126 0.84407 0.44226 0.0
C2643 C 0.72708 0.85478 0.4223 0.0
C2644 C 0.65878 0.82009 0.38581 0.0
C2645 C 0.66095 0.83996 0.37739 0.0
C2646 C 0.66813 0.82288 0.4037 0.0
C2647 C 0.68006 0.84613 0.41321 0.0
C2648 C 0.6827 0.86633 0.40455 0.0
C2649 C 0.67286 0.86294 0.38677 0.0
C2650 C 0.6651 0.80097 0.41247 0.0
C2651 C 0.69591 0.8915 0.41405 0.0
H2652 H 0.6744 0.85313 0.47529 0.0
H2653 H 0.73743 0.86038 0.45851 0.0
H2654 H 0.65164 0.85857 0.43458 0.0
H2655 H 0.64085 0.82683 0.43361 0.0
H2656 H 0.64251 0.84315 0.45472 0.0
H2657 H 0.74229 0.85385 0.42778 0.0
H2658 H 0.71752 0.84011 0.4113 0.0
H2659 H 0.73332 0.87209 0.41619 0.0
H2660 H 0.64953 0.80234 0.37846 0.0
H2661 H 0.67479 0.87835 0.3801 0.0
H2662 H 0.65563 0.79875 0.42466 0.0
H2663 H 0.68219 0.80341 0.41699 0.0
H2664 H 0.65555 0.78421 0.40315 0.0
H2665 H 0.68737 0.89263 0.42614 0.0
H2666 H 0.6972 0.90535 0.40513 0.0
H2667 H 0.71358 0.89582 0.41885 0.0
C2668 C 0.16936 0.86472 0.46591 0.0
C2669 C 0.15 0.86714 0.46787 0.0
C2670 C 0.17504 0.86047 0.44874 0.0
C2671 C 0.16121 0.85901 0.43315 0.0
C2672 C 0.14145 0.86122 0.43508 0.0
C2673 C 0.13597 0.86507 0.45248 0.0
C2674 C 0.19604 0.85789 0.44728 0.0
C2675 C 0.12665 0.8606 0.41884 0.0
C2676 C 0.18997 0.87201 0.38926 0.0
C2677 C 0.18117 0.84873 0.38079 0.0
C2678 C 0.18315 0.87566 0.40611 0.0
C2679 C 0.1677 0.85548 0.41488 0.0
C2680 C 0.15897 0.83191 0.4064 0.0
C2681 C 0.16575 0.82883 0.38938 0.0
C2682 C 0.19247 0.90109 0.4145 0.0
C2683 C 0.14271 0.80994 0.4154 0.0
H2684 H 0.18012 0.86623 0.47787 0.0
H2685 H 0.12115 0.86725 0.45404 0.0
H2686 H 0.19116 0.8405 0.43955 0.0
H2687 H 0.20874 0.87247 0.43975 0.0
H2688 H 0.2045 0.85866 0.46074 0.0
H2689 H 0.10935 0.85666 0.42242 0.0
H2690 H 0.13519 0.87844 0.41335 0.0
H2691 H 0.12452 0.84702 0.40793 0.0
H2692 H 0.20173 0.88741 0.38248 0.0
H2693 H 0.15907 0.81084 0.3828 0.0
H2694 H 0.2035 0.90419 0.42714 0.0
H2695 H 0.17811 0.90381 0.41821 0.0
H2696 H 0.20279 0.91478 0.40527 0.0
H2697 H 0.15222 0.80781 0.42715 0.0
H2698 H 0.135 0.79321 0.40603 0.0
H2699 H 0.12864 0.81209 0.42064 0.0
C2700 C 0.63893 0.80192 0.19559 0.0
C2701 C 0.61738 0.79876 0.18979 0.0
C2702 C 0.64639 0.80561 0.21404 0.0
C2703 C 0.63176 0.80572 0.22702 0.0
C2704 C 0.60998 0.8027 0.22123 0.0
C2705 C 0.60311 0.79943 0.20262 0.0
C2706 C 0.66993 0.80927 0.21965 0.0
C2707 C 0.59365 0.80213 0.23465 0.0
C2708 C 0.64546 0.79154 0.27331 0.0
C2709 C 0.65827 0.81461 0.28248 0.0
C2710 C 0.63563 0.78826 0.25553 0.0
C2711 C 0.63933 0.80863 0.2466 0.0
C2712 C 0.65186 0.83194 0.25599 0.0
C2713 C 0.66109 0.83462 0.27392 0.0
C2714 C 0.62169 0.76304 0.24621 0.0
C2715 C 0.65606 0.85406 0.24696 0.0
H2716 H 0.65005 0.80167 0.18563 0.0
H2717 H 0.58635 0.79678 0.19809 0.0
H2718 H 0.68025 0.82645 0.22837 0.0
H2719 H 0.66817 0.79453 0.22773 0.0
H2720 H 0.67955 0.80965 0.20785 0.0
H2721 H 0.57919 0.80355 0.22811 0.0
H2722 H 0.58637 0.78492 0.24103 0.0
H2723 H 0.60281 0.81693 0.24562 0.0
H2724 H 0.64297 0.77602 0.2801 0.0
H2725 H 0.67097 0.85244 0.28111 0.0
H2726 H 0.63092 0.76083 0.23499 0.0
H2727 H 0.60484 0.75989 0.24022 0.0
H2728 H 0.61851 0.74907 0.25562 0.0
H2729 H 0.66646 0.85616 0.23536 0.0
H2730 H 0.66525 0.87074 0.25639 0.0
H2731 H 0.63946 0.85205 0.24149 0.0
C2732 C 0.16873 0.80839 0.20338 0.0
C2733 C 0.18807 0.80572 0.20225 0.0
C2734 C 0.1625 0.81309 0.22016 0.0
C2735 C 0.17564 0.8146 0.2362 0.0
C2736 C 0.19544 0.81227 0.23513 0.0
C2737 C 0.20164 0.80821 0.21807 0.0
C2738 C 0.14158 0.81599 0.22072 0.0
C2739 C 0.20982 0.81363 0.25195 0.0
C2740 C 0.168 0.84379 0.27907 0.0
C2741 C 0.15162 0.82366 0.28692 0.0
C2742 C 0.17628 0.84114 0.26267 0.0
C2743 C 0.16801 0.81775 0.25405 0.0
C2744 C 0.15155 0.79733 0.26205 0.0
C2745 C 0.1433 0.80056 0.2783 0.0
C2746 C 0.19373 0.86334 0.25452 0.0
C2747 C 0.14279 0.77206 0.25353 0.0
H2748 H 0.1584 0.80666 0.19108 0.0
H2749 H 0.21659 0.80611 0.21712 0.0
H2750 H 0.12816 0.8012 0.22764 0.0
H2751 H 0.14619 0.8332 0.2286 0.0
H2752 H 0.1341 0.81579 0.20697 0.0
H2753 H 0.22225 0.80759 0.24895 0.0
H2754 H 0.21966 0.8325 0.25817 0.0
H2755 H 0.19869 0.80243 0.26213 0.0
H2756 H 0.17434 0.86164 0.2858 0.0
H2757 H 0.13087 0.78497 0.28455 0.0
H2758 H 0.18659 0.86428 0.24098 0.0
H2759 H 0.20949 0.86235 0.25258 0.0
H2760 H 0.19868 0.88019 0.26311 0.0
H2761 H 0.1326 0.76918 0.24047 0.0
H2762 H 0.13178 0.75813 0.26235 0.0
H2763 H 0.15748 0.76949 0.25058 0.0
C2764 C 0.17469 0.34235 0.20381 0.0
C2765 C 0.19268 0.3661 0.20356 0.0
C2766 C 0.16887 0.33178 0.22014 0.0
C2767 C 0.18096 0.34555 0.23663 0.0
C2768 C 0.19986 0.36924 0.23637 0.0
C2769 C 0.20564 0.37918 0.21974 0.0
C2770 C 0.14907 0.30625 0.2198 0.0
C2771 C 0.21302 0.38461 0.25366 0.0
C2772 C 0.14524 0.32855 0.27678 0.0
C2773 C 0.15428 0.3166 0.28645 0.0
C2774 C 0.15439 0.33881 0.26091 0.0
C2775 C 0.17226 0.33597 0.25407 0.0
C2776 C 0.18102 0.32328 0.26354 0.0
C2777 C 0.17206 0.31396 0.27979 0.0
C2778 C 0.14511 0.35297 0.25162 0.0
C2779 C 0.19964 0.31937 0.25644 0.0
H2780 H 0.16482 0.33226 0.19121 0.0
H2781 H 0.2195 0.39761 0.21947 0.0
H2782 H 0.15401 0.2956 0.22832 0.0
H2783 H 0.1342 0.30636 0.2255 0.0
H2784 H 0.14343 0.29705 0.20586 0.0
H2785 H 0.22885 0.40141 0.25108 0.0
H2786 H 0.20182 0.38958 0.26102 0.0
H2787 H 0.21796 0.37445 0.26269 0.0
H2788 H 0.13153 0.33066 0.28199 0.0
H2789 H 0.17888 0.30453 0.28728 0.0
H2790 H 0.13676 0.34393 0.23798 0.0
H2791 H 0.15944 0.37126 0.24977 0.0
H2792 H 0.13234 0.35485 0.2594 0.0
H2793 H 0.19328 0.30856 0.24311 0.0
H2794 H 0.20516 0.30989 0.26577 0.0
H2795 H 0.21491 0.33687 0.2543 0.0
C2796 C 0.78473 0.61489 0.77548 0.0
C2797 C 0.79501 0.62743 0.79245 0.0
C2798 C 0.79315 0.62566 0.75952 0.0
C2799 C 0.81189 0.64966 0.76068 0.0
C2800 C 0.82159 0.66267 0.77785 0.0
C2801 C 0.81322 0.65127 0.79354 0.0
C2802 C 0.78262 0.61108 0.74148 0.0
C2803 C 0.84119 0.68844 0.77965 0.0
C2804 C 0.85093 0.67046 0.72251 0.0
C2805 C 0.84165 0.68196 0.71252 0.0
C2806 C 0.84106 0.65939 0.73798 0.0
C2807 C 0.82211 0.66084 0.74403 0.0
C2808 C 0.81324 0.67326 0.73432 0.0
C2809 C 0.82301 0.68349 0.71854 0.0
C2810 C 0.85054 0.64561 0.74754 0.0
C2811 C 0.79346 0.67573 0.7406 0.0
H2812 H 0.77075 0.59637 0.77472 0.0
H2813 H 0.82106 0.6609 0.80674 0.0
H2814 H 0.77736 0.62099 0.73249 0.0
H2815 H 0.79564 0.60839 0.73478 0.0
H2816 H 0.76738 0.59316 0.74281 0.0
H2817 H 0.8455 0.69662 0.79389 0.0
H2818 H 0.85677 0.68919 0.77464 0.0
H2819 H 0.83673 0.69952 0.77123 0.0
H2820 H 0.86529 0.66918 0.71778 0.0
H2821 H 0.81601 0.69259 0.71083 0.0
H2822 H 0.83665 0.62668 0.74811 0.0
H2823 H 0.85701 0.65365 0.76169 0.0
H2824 H 0.86479 0.64551 0.74069 0.0
H2825 H 0.7785 0.65775 0.74219 0.0
H2826 H 0.78788 0.68495 0.73106 0.0
H2827 H 0.79868 0.68619 0.75407 0.0
C2828 C 0.34936 0.18776 0.80621 0.0
C2829 C 0.3714 0.19189 0.81157 0.0
C2830 C 0.3416 0.18451 0.78784 0.0
C2831 C 0.35643 0.18587 0.77454 0.0
C2832 C 0.37865 0.18977 0.77988 0.0
C2833 C 0.3858 0.19251 0.79839 0.0
C2834 C 0.31763 0.17992 0.78267 0.0
C2835 C 0.39509 0.19178 0.76608 0.0
C2836 C 0.32877 0.1597 0.72679 0.0
C2837 C 0.33106 0.18012 0.71915 0.0
C2838 C 0.3373 0.16133 0.74477 0.0
C2839 C 0.34882 0.18403 0.7551 0.0
C2840 C 0.35192 0.20485 0.74714 0.0
C2841 C 0.34265 0.20256 0.72932 0.0
C2842 C 0.33348 0.13871 0.75283 0.0
C2843 C 0.36481 0.2295 0.75748 0.0
H2844 H 0.33817 0.18705 0.81643 0.0
H2845 H 0.40292 0.19589 0.80259 0.0
H2846 H 0.31866 0.19502 0.77545 0.0
H2847 H 0.3079 0.16327 0.7733 0.0
H2848 H 0.30781 0.17801 0.79464 0.0
H2849 H 0.41143 0.19397 0.77243 0.0
H2850 H 0.38696 0.17553 0.75623 0.0
H2851 H 0.39921 0.20748 0.75831 0.0
H2852 H 0.31987 0.14238 0.71881 0.0
H2853 H 0.34478 0.21842 0.72324 0.0
H2854 H 0.3227 0.13541 0.76432 0.0
H2855 H 0.35015 0.14089 0.75826 0.0
H2856 H 0.32485 0.12262 0.74279 0.0
H2857 H 0.35494 0.23026 0.76876 0.0
H2858 H 0.36767 0.24408 0.74876 0.0
H2859 H 0.38178 0.23306 0.76352 0.0
C2860 C 0.79968 0.19447 0.78455 0.0
C2861 C 0.81475 0.19822 0.79971 0.0
C2862 C 0.80487 0.19059 0.76705 0.0
C2863 C 0.82546 0.19013 0.7648 0.0
C2864 C 0.84038 0.19325 0.78015 0.0
C2865 C 0.83491 0.19742 0.79742 0.0
C2866 C 0.78878 0.18795 0.75102 0.0
C2867 C 0.86231 0.19255 0.77834 0.0
C2868 C 0.83176 0.16082 0.72135 0.0
C2869 C 0.84599 0.18099 0.71248 0.0
C2870 C 0.82461 0.16349 0.7383 0.0
C2871 C 0.83179 0.1869 0.74641 0.0
C2872 C 0.8459 0.20732 0.73729 0.0
C2873 C 0.85308 0.20411 0.72051 0.0
C2874 C 0.80978 0.1413 0.74768 0.0
C2875 C 0.85352 0.23255 0.74529 0.0
H2876 H 0.7842 0.19533 0.78634 0.0
H2877 H 0.84645 0.20013 0.8092 0.0
H2878 H 0.79625 0.20514 0.74459 0.0
H2879 H 0.78665 0.17374 0.74068 0.0
H2880 H 0.77154 0.18361 0.75504 0.0
H2881 H 0.87159 0.19441 0.79168 0.0
H2882 H 0.85837 0.17533 0.77084 0.0
H2883 H 0.87397 0.20735 0.77043 0.0
H2884 H 0.82642 0.14295 0.71511 0.0
H2885 H 0.86392 0.2197 0.7135 0.0
H2886 H 0.79504 0.14216 0.75291 0.0
H2887 H 0.82009 0.14043 0.75946 0.0
H2888 H 0.80302 0.12448 0.73854 0.0
H2889 H 0.83833 0.23397 0.74862 0.0
H2890 H 0.8633 0.24636 0.73596 0.0
H2891 H 0.86459 0.23668 0.7581 0.0
C2892 C 0.30737 0.14528 0.53856 0.0
C2893 C 0.28559 0.14254 0.53456 0.0
C2894 C 0.31702 0.14971 0.5565 0.0
C2895 C 0.30431 0.15087 0.57073 0.0
C2896 C 0.28232 0.14832 0.56671 0.0
C2897 C 0.27329 0.14439 0.54858 0.0
C2898 C 0.34068 0.15277 0.56023 0.0
C2899 C 0.26785 0.14863 0.58147 0.0
C2900 C 0.32099 0.13699 0.61611 0.0
C2901 C 0.33451 0.16011 0.62506 0.0
C2902 C 0.31031 0.13367 0.59865 0.0
C2903 C 0.31389 0.15404 0.58979 0.0
C2904 C 0.32751 0.17745 0.59885 0.0
C2905 C 0.33759 0.1802 0.61648 0.0
C2906 C 0.29531 0.10837 0.58968 0.0
C2907 C 0.3317 0.19957 0.58981 0.0
H2908 H 0.31683 0.14394 0.52761 0.0
H2909 H 0.25631 0.14199 0.54539 0.0
H2910 H 0.35213 0.17002 0.56859 0.0
H2911 H 0.33949 0.13804 0.56804 0.0
H2912 H 0.34875 0.15262 0.54759 0.0
H2913 H 0.25407 0.15209 0.5763 0.0
H2914 H 0.25959 0.13085 0.58706 0.0
H2915 H 0.27854 0.16243 0.59275 0.0
H2916 H 0.31838 0.12144 0.6229 0.0
H2917 H 0.3481 0.19806 0.62349 0.0
H2918 H 0.30331 0.10568 0.57777 0.0
H2919 H 0.27821 0.10557 0.58473 0.0
H2920 H 0.29269 0.09447 0.59901 0.0
H2921 H 0.34197 0.20154 0.57815 0.0
H2922 H 0.34105 0.21627 0.59922 0.0
H2923 H 0.31511 0.19766 0.58443 0.0
C2924 C 0.85933 0.13894 0.54249 0.0
C2925 C 0.84447 0.13764 0.52797 0.0
C2926 C 0.8552 0.14241 0.56042 0.0
C2927 C 0.83596 0.14497 0.56382 0.0
C2928 C 0.82133 0.14439 0.54914 0.0
C2929 C 0.82567 0.14053 0.53138 0.0
C2930 C 0.87088 0.1423 0.57568 0.0
C2931 C 0.80086 0.14742 0.5522 0.0
C2932 C 0.80928 0.12961 0.60841 0.0
C2933 C 0.81835 0.1525 0.61764 0.0
C2934 C 0.81536 0.12685 0.59105 0.0
C2935 C 0.83059 0.14755 0.58267 0.0
C2936 C 0.83992 0.17072 0.59204 0.0
C2937 C 0.83366 0.17292 0.60946 0.0
C2938 C 0.8055 0.10181 0.58168 0.0
C2939 C 0.85629 0.19318 0.58358 0.0
H2940 H 0.87373 0.13643 0.53981 0.0
H2941 H 0.8143 0.13969 0.5201 0.0
H2942 H 0.87502 0.15671 0.58657 0.0
H2943 H 0.86198 0.12484 0.58168 0.0
H2944 H 0.88723 0.14467 0.57095 0.0
H2945 H 0.79181 0.14761 0.53931 0.0
H2946 H 0.78843 0.13248 0.55961 0.0
H2947 H 0.80648 0.16449 0.5607 0.0
H2948 H 0.79766 0.1138 0.61488 0.0
H2949 H 0.84057 0.19062 0.61665 0.0
H2950 H 0.81968 0.09857 0.57834 0.0
H2951 H 0.79552 0.10004 0.56875 0.0
H2952 H 0.79406 0.08761 0.59014 0.0
H2953 H 0.87109 0.19172 0.57916 0.0
H2954 H 0.863 0.20971 0.59305 0.0
H2955 H 0.84736 0.19512 0.57136 0.0
C2956 C 0.87243 0.72182 0.55445 0.0
C2957 C 0.86068 0.70878 0.53794 0.0
C2958 C 0.867 0.71086 0.5707 0.0
C2959 C 0.84977 0.68624 0.5702 0.0
C2960 C 0.83894 0.67272 0.55336 0.0
C2961 C 0.84431 0.68428 0.53742 0.0
C2962 C 0.87865 0.72594 0.58842 0.0
C2963 C 0.82093 0.64631 0.55225 0.0
C2964 C 0.84311 0.65411 0.61283 0.0
C2965 C 0.8241 0.65443 0.61932 0.0
C2966 C 0.85165 0.6642 0.5967 0.0
C2967 C 0.84117 0.67531 0.58723 0.0
C2968 C 0.82193 0.67561 0.59383 0.0
C2969 C 0.81329 0.66462 0.60955 0.0
C2970 C 0.8717 0.66286 0.58973 0.0
C2971 C 0.81077 0.68803 0.58453 0.0
H2972 H 0.88508 0.74082 0.55471 0.0
H2973 H 0.83541 0.67431 0.52453 0.0
H2974 H 0.86582 0.72778 0.59612 0.0
H2975 H 0.8857 0.71701 0.59686 0.0
H2976 H 0.89287 0.74425 0.58642 0.0
H2977 H 0.81647 0.63773 0.53812 0.0
H2978 H 0.82705 0.6365 0.56065 0.0
H2979 H 0.80503 0.64423 0.55765 0.0
H2980 H 0.85124 0.64593 0.62037 0.0
H2981 H 0.7986 0.66491 0.61463 0.0
H2982 H 0.88585 0.68113 0.58765 0.0
H2983 H 0.8662 0.65209 0.57638 0.0
H2984 H 0.87851 0.65451 0.59909 0.0
H2985 H 0.82391 0.70699 0.58303 0.0
H2986 H 0.79695 0.68796 0.59214 0.0
H2987 H 0.80323 0.67898 0.57075 0.0
loop_
_geom_bond_atom_site_label_1
_geom_bond_atom_site_label_2
_geom_bond_distance
_geom_bond_site_symmetry_2
_ccdc_geom_bond_type
C0 C1 1.391 . S
C0 C4 1.391 . S
C0 H42 0.948 . S
C1 C0 1.391 . S
C1 C2 1.391 . S
C2 C1 1.391 . S
C2 H58 0.947 . S
C2 C59 1.392 . S
C3 C4 1.391 . S
C3 C7 1.397 . S
C3 C59 1.419 . S
C4 C0 1.391 . S
C4 C3 1.391 . S
C4 C5 1.399 . S
C5 C4 1.399 . S
C5 C8 1.396 . S
C5 C17 1.453 . S
C5 C18 1.684 . S
H6 C30 0.948 . S
C7 C3 1.397 . S
C7 C8 1.394 . S
C7 C26 1.723 . S
C8 C5 1.396 . S
C8 C7 1.394 . S
C8 C38 1.723 . S
H9 C32 0.947 . S
H10 C33 0.948 . S
H11 C39 0.982 . S
H12 C40 0.979 . S
H13 C40 0.980 . S
H14 C40 0.983 . S
H15 C39 0.979 . S
H16 C39 0.977 . S
C17 C5 1.453 . S
C17 H46 0.982 . S
C17 H47 0.979 . S
C17 H48 0.977 . S
C18 C5 1.684 . S
C18 H43 0.979 . S
C18 H44 0.980 . S
C18 H45 0.983 . S
C19 C20 1.391 . S
C19 C24 1.391 . S
C19 H49 0.948 . S
C20 C19 1.391 . S
C20 C21 1.391 . S
C21 C20 1.391 . S
C21 C22 1.392 . S
C21 H50 0.947 . S
C22 C21 1.392 . S
C22 C23 1.419 . S
C22 H51 0.948 . S
C23 C22 1.419 . S
C23 C24 1.391 . S
C23 C27 1.397 . S
C24 C19 1.391 . S
C24 C23 1.391 . S
C24 C25 1.399 . S
C25 C24 1.399 . S
C25 C26 1.396 . S
C25 C28 1.453 . S
C25 C29 1.684 . S
C26 C7 1.723 . S
C26 C25 1.396 . S
C26 C27 1.394 . S
C27 C23 1.397 . S
C27 C26 1.394 . S
C27 C37 1.723 . S
C28 C25 1.453 . S
C28 H52 0.982 . S
C28 H53 0.979 . S
C28 H54 0.977 . S
C29 C25 1.684 . S
C29 H55 0.979 . S
C29 H56 0.980 . S
C29 H57 0.983 . S
C30 H6 0.948 . S
C30 C31 1.391 . S
C30 C35 1.391 . S
C31 C30 1.391 . S
C31 C32 1.391 . S
C32 H9 0.947 . S
C32 C31 1.391 . S
C32 C33 1.392 . S
C33 H10 0.948 . S
C33 C32 1.392 . S
C33 C34 1.419 . S
C34 C33 1.419 . S
C34 C35 1.391 . S
C34 C38 1.397 . S
C35 C30 1.391 . S
C35 C34 1.391 . S
C35 C36 1.399 . S
C36 C35 1.399 . S
C36 C37 1.396 . S
C36 C39 1.453 . S
C36 C40 1.684 . S
C37 C27 1.723 . S
C37 C36 1.396 . S
C37 C38 1.394 . S
C38 C8 1.723 . S
C38 C34 1.397 . S
C38 C37 1.394 . S
C39 H11 0.982 . S
C39 H15 0.979 . S
C39 H16 0.977 . S
C39 C36 1.453 . S
C40 H12 0.979 . S
C40 H13 0.980 . S
C40 H14 0.983 . S
C40 C36 1.684 . S
H41 C59 0.948 . S
H42 C0 0.948 . S
H43 C18 0.979 . S
H44 C18 0.980 . S
H45 C18 0.983 . S
H46 C17 0.982 . S
H47 C17 0.979 . S
H48 C17 0.977 . S
H49 C19 0.948 . S
H50 C21 0.947 . S
H51 C22 0.948 . S
H52 C28 0.982 . S
H53 C28 0.979 . S
H54 C28 0.977 . S
H55 C29 0.979 . S
H56 C29 0.980 . S
H57 C29 0.983 . S
H58 C2 0.947 . S
C59 C2 1.392 . S
C59 C3 1.419 . S
C59 H41 0.948 . S
C60 C61 1.391 . S
C60 C64 1.391 . S
C60 H102 0.948 . S
C61 C60 1.391 . S
C61 C62 1.391 . S
C62 C61 1.391 . S
C62 H118 0.947 . S
C62 C119 1.392 . S
C63 C64 1.391 . S
C63 C67 1.397 . S
C63 C119 1.419 . S
C64 C60 1.391 . S
C64 C63 1.391 . S
C64 C65 1.399 . S
C65 C64 1.399 . S
C65 C68 1.396 . S
C65 C77 1.453 . S
C65 C78 1.684 . S
H66 C90 0.948 . S
C67 C63 1.397 . S
C67 C68 1.394 . S
C67 C86 1.723 . S
C68 C65 1.396 . S
C68 C67 1.394 . S
C68 C98 1.723 . S
H69 C92 0.947 . S
H70 C93 0.948 . S
H71 C99 0.982 . S
H72 C100 0.979 . S
H73 C100 0.980 . S
H74 C100 0.983 . S
H75 C99 0.979 . S
H76 C99 0.977 . S
C77 C65 1.453 . S
C77 H106 0.982 . S
C77 H107 0.979 . S
C77 H108 0.977 . S
C78 C65 1.684 . S
C78 H103 0.979 . S
C78 H104 0.980 . S
C78 H105 0.983 . S
C79 C80 1.391 . S
C79 C84 1.391 . S
C79 H109 0.948 . S
C80 C79 1.391 . S
C80 C81 1.391 . S
C81 C80 1.391 . S
C81 C82 1.392 . S
C81 H110 0.947 . S
C82 C81 1.392 . S
C82 C83 1.419 . S
C82 H111 0.948 . S
C83 C82 1.419 . S
C83 C84 1.391 . S
C83 C87 1.397 . S
C84 C79 1.391 . S
C84 C83 1.391 . S
C84 C85 1.399 . S
C85 C84 1.399 . S
C85 C86 1.396 . S
C85 C88 1.453 . S
C85 C89 1.684 . S
C86 C67 1.723 . S
C86 C85 1.396 . S
C86 C87 1.394 . S
C87 C83 1.397 . S
C87 C86 1.394 . S
C87 C97 1.723 . S
C88 C85 1.453 . S
C88 H112 0.982 . S
C88 H113 0.979 . S
C88 H114 0.977 . S
C89 C85 1.684 . S
C89 H115 0.979 . S
C89 H116 0.980 . S
C89 H117 0.983 . S
C90 H66 0.948 . S
C90 C91 1.391 . S
C90 C95 1.391 . S
C91 C90 1.391 . S
C91 C92 1.391 . S
C92 H69 0.947 . S
C92 C91 1.391 . S
C92 C93 1.392 . S
C93 H70 0.948 . S
C93 C92 1.392 . S
C93 C94 1.419 . S
C94 C93 1.419 . S
C94 C95 1.391 . S
C94 C98 1.397 . S
C95 C90 1.391 . S
C95 C94 1.391 . S
C95 C96 1.399 . S
C96 C95 1.399 . S
C96 C97 1.396 . S
C96 C99 1.453 . S
C96 C100 1.684 . S
C97 C87 1.723 . S
C97 C96 1.396 . S
C97 C98 1.394 . S
C98 C68 1.723 . S
C98 C94 1.397 . S
C98 C97 1.394 . S
C99 H71 0.982 . S
C99 H75 0.979 . S
C99 H76 0.977 . S
C99 C96 1.453 . S
C100 H72 0.979 . S
C100 H73 0.980 . S
C100 H74 0.983 . S
C100 C96 1.684 . S
H101 C119 0.948 . S
H102 C60 0.948 . S
H103 C78 0.979 . S
H104 C78 0.980 . S
H105 C78 0.983 . S
H106 C77 0.982 . S
H107 C77 0.979 . S
H108 C77 0.977 . S
H109 C79 0.948 . S
H110 C81 0.947 . S
H111 C82 0.948 . S
H112 C88 0.982 . S
H113 C88 0.979 . S
H114 C88 0.977 . S
H115 C89 0.979 . S
H116 C89 0.980 . S
H117 C89 0.983 . S
H118 C62 0.947 . S
C119 C62 1.392 . S
C119 C63 1.419 . S
C119 H101 0.948 . S
C120 C121 1.391 . S
C120 C124 1.391 . S
C120 H162 0.948 . S
C121 C120 1.391 . S
C121 C122 1.391 . S
C122 C121 1.391 . S
C122 H178 0.947 . S
C122 C179 1.392 . S
C123 C124 1.391 . S
C123 C127 1.397 . S
C123 C179 1.419 . S
C124 C120 1.391 . S
C124 C123 1.391 . S
C124 C125 1.399 . S
C125 C124 1.399 . S
C125 C128 1.396 . S
C125 C137 1.453 . S
C125 C138 1.684 . S
H126 C150 0.948 . S
C127 C123 1.397 . S
C127 C128 1.394 . S
C127 C146 1.723 . S
C128 C125 1.396 . S
C128 C127 1.394 . S
C128 C158 1.723 . S
H129 C152 0.947 . S
H130 C153 0.948 . S
H131 C159 0.982 . S
H132 C160 0.979 . S
H133 C160 0.980 . S
H134 C160 0.983 . S
H135 C159 0.979 . S
H136 C159 0.977 . S
C137 C125 1.453 . S
C137 H166 0.982 . S
C137 H167 0.979 . S
C137 H168 0.977 . S
C138 C125 1.684 . S
C138 H163 0.979 . S
C138 H164 0.980 . S
C138 H165 0.983 . S
C139 C140 1.391 . S
C139 C144 1.391 . S
C139 H169 0.948 . S
C140 C139 1.391 . S
C140 C141 1.391 . S
C141 C140 1.391 . S
C141 C142 1.392 . S
C141 H170 0.947 . S
C142 C141 1.392 . S
C142 C143 1.419 . S
C142 H171 0.948 . S
C143 C142 1.419 . S
C143 C144 1.391 . S
C143 C147 1.397 . S
C144 C139 1.391 . S
C144 C143 1.391 . S
C144 C145 1.399 . S
C145 C144 1.399 . S
C145 C146 1.396 . S
C145 C148 1.453 . S
C145 C149 1.684 . S
C146 C127 1.723 . S
C146 C145 1.396 . S
C146 C147 1.394 . S
C147 C143 1.397 . S
C147 C146 1.394 . S
C147 C157 1.723 . S
C148 C145 1.453 . S
C148 H172 0.982 . S
C148 H173 0.979 . S
C148 H174 0.977 . S
C149 C145 1.684 . S
C149 H175 0.979 . S
C149 H176 0.980 . S
C149 H177 0.983 . S
C150 H126 0.948 . S
C150 C151 1.391 . S
C150 C155 1.391 . S
C151 C150 1.391 . S
C151 C152 1.391 . S
C152 H129 0.947 . S
C152 C151 1.391 . S
C152 C153 1.392 . S
C153 H130 0.948 . S
C153 C152 1.392 . S
C153 C154 1.419 . S
C154 C153 1.419 . S
C154 C155 1.391 . S
C154 C158 1.397 . S
C155 C150 1.391 . S
C155 C154 1.391 . S
C155 C156 1.399 . S
C156 C155 1.399 . S
C156 C157 1.396 . S
C156 C159 1.453 . S
C156 C160 1.684 . S
C157 C147 1.723 . S
C157 C156 1.396 . S
C157 C158 1.394 . S
C158 C128 1.723 . S
C158 C154 1.397 . S
C158 C157 1.394 . S
C159 H131 0.982 . S
C159 H135 0.979 . S
C159 H136 0.977 . S
C159 C156 1.453 . S
C160 H132 0.979 . S
C160 H133 0.980 . S
C160 H134 0.983 . S
C160 C156 1.684 . S
H161 C179 0.948 . S
H162 C120 0.948 . S
H163 C138 0.979 . S
H164 C138 0.980 . S
H165 C138 0.983 . S
H166 C137 0.982 . S
H167 C137 0.979 . S
H168 C137 0.977 . S
H169 C139 0.948 . S
H170 C141 0.947 . S
H171 C142 0.948 . S
H172 C148 0.982 . S
H173 C148 0.979 . S
H174 C148 0.977 . S
H175 C149 0.979 . S
H176 C149 0.980 . S
H177 C149 0.983 . S
H178 C122 0.947 . S
C179 C122 1.392 . S
C179 C123 1.419 . S
C179 H161 0.948 . S
C180 C181 1.391 . S
C180 C184 1.391 . S
C180 H222 0.948 . S
C181 C180 1.391 . S
C181 C182 1.391 . S
C182 C181 1.391 . S
C182 H238 0.947 . S
C182 C239 1.392 . S
C183 C184 1.391 . S
C183 C187 1.397 . S
C183 C239 1.419 . S
C184 C180 1.391 . S
C184 C183 1.391 . S
C184 C185 1.399 . S
C185 C184 1.399 . S
C185 C188 1.396 . S
C185 C197 1.453 . S
C185 C198 1.684 . S
H186 C210 0.948 . S
C187 C183 1.397 . S
C187 C188 1.394 . S
C187 C206 1.723 . S
C188 C185 1.396 . S
C188 C187 1.394 . S
C188 C218 1.723 . S
H189 C212 0.947 . S
H190 C213 0.948 . S
H191 C219 0.982 . S
H192 C220 0.979 . S
H193 C220 0.980 . S
H194 C220 0.983 . S
H195 C219 0.979 . S
H196 C219 0.977 . S
C197 C185 1.453 . S
C197 H226 0.982 . S
C197 H227 0.979 . S
C197 H228 0.977 . S
C198 C185 1.684 . S
C198 H223 0.979 . S
C198 H224 0.980 . S
C198 H225 0.983 . S
C199 C200 1.391 . S
C199 C204 1.391 . S
C199 H229 0.948 . S
C200 C199 1.391 . S
C200 C201 1.391 . S
C201 C200 1.391 . S
C201 C202 1.392 . S
C201 H230 0.947 . S
C202 C201 1.392 . S
C202 C203 1.419 . S
C202 H231 0.948 . S
C203 C202 1.419 . S
C203 C204 1.391 . S
C203 C207 1.397 . S
C204 C199 1.391 . S
C204 C203 1.391 . S
C204 C205 1.399 . S
C205 C204 1.399 . S
C205 C206 1.396 . S
C205 C208 1.453 . S
C205 C209 1.684 . S
C206 C187 1.723 . S
C206 C205 1.396 . S
C206 C207 1.394 . S
C207 C203 1.397 . S
C207 C206 1.394 . S
C207 C217 1.723 . S
C208 C205 1.453 . S
C208 H232 0.982 . S
C208 H233 0.979 . S
C208 H234 0.977 . S
C209 C205 1.684 . S
C209 H235 0.979 . S
C209 H236 0.980 . S
C209 H237 0.983 . S
C210 H186 0.948 . S
C210 C211 1.391 . S
C210 C215 1.391 . S
C211 C210 1.391 . S
C211 C212 1.391 . S
C212 H189 0.947 . S
C212 C211 1.391 . S
C212 C213 1.392 . S
C213 H190 0.948 . S
C213 C212 1.392 . S
C213 C214 1.419 . S
C214 C213 1.419 . S
C214 C215 1.391 . S
C214 C218 1.397 . S
C215 C210 1.391 . S
C215 C214 1.391 . S
C215 C216 1.399 . S
C216 C215 1.399 . S
C216 C217 1.396 . S
C216 C219 1.453 . S
C216 C220 1.684 . S
C217 C207 1.723 . S
C217 C216 1.396 . S
C217 C218 1.394 . S
C218 C188 1.723 . S
C218 C214 1.397 . S
C218 C217 1.394 . S
C219 H191 0.982 . S
C219 H195 0.979 . S
C219 H196 0.977 . S
C219 C216 1.453 . S
C220 H192 0.979 . S
C220 H193 0.980 . S
C220 H194 0.983 . S
C220 C216 1.684 . S
H221 C239 0.948 . S
H222 C180 0.948 . S
H223 C198 0.979 . S
H224 C198 0.980 . S
H225 C198 0.983 . S
H226 C197 0.982 . S
H227 C197 0.979 . S
H228 C197 0.977 . S
H229 C199 0.948 . S
H230 C201 0.947 . S
H231 C202 0.948 . S
H232 C208 0.982 . S
H233 C208 0.979 . S
H234 C208 0.977 . S
H235 C209 0.979 . S
H236 C209 0.980 . S
H237 C209 0.983 . S
H238 C182 0.947 . S
C239 C182 1.392 . S
C239 C183 1.419 . S
C239 H221 0.948 . S
C240 C241 1.391 . S
C240 C244 1.391 . S
C240 H282 0.948 . S
C241 C240 1.391 . S
C241 C242 1.391 . S
C242 C241 1.391 . S
C242 H298 0.947 . S
C242 C299 1.392 . S
C243 C244 1.391 . S
C243 C247 1.397 . S
C243 C299 1.419 . S
C244 C240 1.391 . S
C244 C243 1.391 . S
C244 C245 1.399 . S
C245 C244 1.399 . S
C245 C248 1.396 . S
C245 C257 1.453 . S
C245 C258 1.684 . S
H246 C270 0.948 . S
C247 C243 1.397 . S
C247 C248 1.394 . S
C247 C266 1.723 . S
C248 C245 1.396 . S
C248 C247 1.394 . S
C248 C278 1.723 . S
H249 C272 0.947 . S
H250 C273 0.948 . S
H251 C279 0.982 . S
H252 C280 0.979 . S
H253 C280 0.980 . S
H254 C280 0.983 . S
H255 C279 0.979 . S
H256 C279 0.977 . S
C257 C245 1.453 . S
C257 H286 0.982 . S
C257 H287 0.979 . S
C257 H288 0.977 . S
C258 C245 1.684 . S
C258 H283 0.979 . S
C258 H284 0.980 . S
C258 H285 0.983 . S
C259 C260 1.391 . S
C259 C264 1.391 . S
C259 H289 0.948 . S
C260 C259 1.391 . S
C260 C261 1.391 . S
C261 C260 1.391 . S
C261 C262 1.392 . S
C261 H290 0.947 . S
C262 C261 1.392 . S
C262 C263 1.419 . S
C262 H291 0.948 . S
C263 C262 1.419 . S
C263 C264 1.391 . S
C263 C267 1.397 . S
C264 C259 1.391 . S
C264 C263 1.391 . S
C264 C265 1.399 . S
C265 C264 1.399 . S
C265 C266 1.396 . S
C265 C268 1.453 . S
C265 C269 1.684 . S
C266 C247 1.723 . S
C266 C265 1.396 . S
C266 C267 1.394 . S
C267 C263 1.397 . S
C267 C266 1.394 . S
C267 C277 1.723 . S
C268 C265 1.453 . S
C268 H292 0.982 . S
C268 H293 0.979 . S
C268 H294 0.977 . S
C269 C265 1.684 . S
C269 H295 0.979 . S
C269 H296 0.980 . S
C269 H297 0.983 . S
C270 H246 0.948 . S
C270 C271 1.391 . S
C270 C275 1.391 . S
C271 C270 1.391 . S
C271 C272 1.391 . S
C272 H249 0.947 . S
C272 C271 1.391 . S
C272 C273 1.392 . S
C273 H250 0.948 . S
C273 C272 1.392 . S
C273 C274 1.419 . S
C274 C273 1.419 . S
C274 C275 1.391 . S
C274 C278 1.397 . S
C275 C270 1.391 . S
C275 C274 1.391 . S
C275 C276 1.399 . S
C276 C275 1.399 . S
C276 C277 1.396 . S
C276 C279 1.453 . S
C276 C280 1.684 . S
C277 C267 1.723 . S
C277 C276 1.396 . S
C277 C278 1.394 . S
C278 C248 1.723 . S
C278 C274 1.397 . S
C278 C277 1.394 . S
C279 H251 0.982 . S
C279 H255 0.979 . S
C279 H256 0.977 . S
C279 C276 1.453 . S
C280 H252 0.979 . S
C280 H253 0.980 . S
C280 H254 0.983 . S
C280 C276 1.684 . S
H281 C299 0.948 . S
H282 C240 0.948 . S
H283 C258 0.979 . S
H284 C258 0.980 . S
H285 C258 0.983 . S
H286 C257 0.982 . S
H287 C257 0.979 . S
H288 C257 0.977 . S
H289 C259 0.948 . S
H290 C261 0.947 . S
H291 C262 0.948 . S
H292 C268 0.982 . S
H293 C268 0.979 . S
H294 C268 0.977 . S
H295 C269 0.979 . S
H296 C269 0.980 . S
H297 C269 0.983 . S
H298 C242 0.947 . S
C299 C242 1.392 . S
C299 C243 1.419 . S
C299 H281 0.948 . S
C300 C301 1.391 . S
C300 C304 1.391 . S
C300 H342 0.948 . S
C301 C300 1.391 . S
C301 C302 1.391 . S
C302 C301 1.391 . S
C302 H358 0.947 . S
C302 C359 1.392 . S
C303 C304 1.391 . S
C303 C307 1.397 . S
C303 C359 1.419 . S
C304 C300 1.391 . S
C304 C303 1.391 . S
C304 C305 1.399 . S
C305 C304 1.399 . S
C305 C308 1.396 . S
C305 C317 1.453 . S
C305 C318 1.684 . S
H306 C330 0.948 . S
C307 C303 1.397 . S
C307 C308 1.394 . S
C307 C326 1.723 . S
C308 C305 1.396 . S
C308 C307 1.394 . S
C308 C338 1.723 . S
H309 C332 0.947 . S
H310 C333 0.948 . S
H311 C339 0.982 . S
H312 C340 0.979 . S
H313 C340 0.980 . S
H314 C340 0.983 . S
H315 C339 0.979 . S
H316 C339 0.977 . S
C317 C305 1.453 . S
C317 H346 0.982 . S
C317 H347 0.979 . S
C317 H348 0.977 . S
C318 C305 1.684 . S
C318 H343 0.979 . S
C318 H344 0.980 . S
C318 H345 0.983 . S
C319 C320 1.391 . S
C319 C324 1.391 . S
C319 H349 0.948 . S
C320 C319 1.391 . S
C320 C321 1.391 . S
C321 C320 1.391 . S
C321 C322 1.392 . S
C321 H350 0.947 . S
C322 C321 1.392 . S
C322 C323 1.419 . S
C322 H351 0.948 . S
C323 C322 1.419 . S
C323 C324 1.391 . S
C323 C327 1.397 . S
C324 C319 1.391 . S
C324 C323 1.391 . S
C324 C325 1.399 . S
C325 C324 1.399 . S
C325 C326 1.396 . S
C325 C328 1.453 . S
C325 C329 1.684 . S
C326 C307 1.723 . S
C326 C325 1.396 . S
C326 C327 1.394 . S
C327 C323 1.397 . S
C327 C326 1.394 . S
C327 C337 1.723 . S
C328 C325 1.453 . S
C328 H352 0.982 . S
C328 H353 0.979 . S
C328 H354 0.977 . S
C329 C325 1.684 . S
C329 H355 0.979 . S
C329 H356 0.980 . S
C329 H357 0.983 . S
C330 H306 0.948 . S
C330 C331 1.391 . S
C330 C335 1.391 . S
C331 C330 1.391 . S
C331 C332 1.391 . S
C332 H309 0.947 . S
C332 C331 1.391 . S
C332 C333 1.392 . S
C333 H310 0.948 . S
C333 C332 1.392 . S
C333 C334 1.419 . S
C334 C333 1.419 . S
C334 C335 1.391 . S
C334 C338 1.397 . S
C335 C330 1.391 . S
C335 C334 1.391 . S
C335 C336 1.399 . S
C336 C335 1.399 . S
C336 C337 1.396 . S
C336 C339 1.453 . S
C336 C340 1.684 . S
C337 C327 1.723 . S
C337 C336 1.396 . S
C337 C338 1.394 . S
C338 C308 1.723 . S
C338 C334 1.397 . S
C338 C337 1.394 . S
C339 H311 0.982 . S
C339 H315 0.979 . S
C339 H316 0.977 . S
C339 C336 1.453 . S
C340 H312 0.979 . S
C340 H313 0.980 . S
C340 H314 0.983 . S
C340 C336 1.684 . S
H341 C359 0.948 . S
H342 C300 0.948 . S
H343 C318 0.979 . S
H344 C318 0.980 . S
H345 C318 0.983 . S
H346 C317 0.982 . S
H347 C317 0.979 . S
H348 C317 0.977 . S
H349 C319 0.948 . S
H350 C321 0.947 . S
H351 C322 0.948 . S
H352 C328 0.982 . S
H353 C328 0.979 . S
H354 C328 0.977 . S
H355 C329 0.979 . S
H356 C329 0.980 . S
H357 C329 0.983 . S
H358 C302 0.947 . S
C359 C302 1.392 . S
C359 C303 1.419 . S
C359 H341 0.948 . S
C360 C361 1.391 . S
C360 C364 1.391 . S
C360 H402 0.948 . S
C361 C360 1.391 . S
C361 C362 1.391 . S
C362 C361 1.391 . S
C362 H418 0.947 . S
C362 C419 1.392 . S
C363 C364 1.391 . S
C363 C367 1.397 . S
C363 C419 1.419 . S
C364 C360 1.391 . S
C364 C363 1.391 . S
C364 C365 1.399 . S
C365 C364 1.399 . S
C365 C368 1.396 . S
C365 C377 1.453 . S
C365 C378 1.684 . S
H366 C390 0.948 . S
C367 C363 1.397 . S
C367 C368 1.394 . S
C367 C386 1.723 . S
C368 C365 1.396 . S
C368 C367 1.394 . S
C368 C398 1.723 . S
H369 C392 0.947 . S
H370 C393 0.948 . S
H371 C399 0.982 . S
H372 C400 0.979 . S
H373 C400 0.980 . S
H374 C400 0.983 . S
H375 C399 0.979 . S
H376 C399 0.977 . S
C377 C365 1.453 . S
C377 H406 0.982 . S
C377 H407 0.979 . S
C377 H408 0.977 . S
C378 C365 1.684 . S
C378 H403 0.979 . S
C378 H404 0.980 . S
C378 H405 0.983 . S
C379 C380 1.391 . S
C379 C384 1.391 . S
C379 H409 0.948 . S
C380 C379 1.391 . S
C380 C381 1.391 . S
C381 C380 1.391 . S
C381 C382 1.392 . S
C381 H410 0.947 . S
C382 C381 1.392 . S
C382 C383 1.419 . S
C382 H411 0.948 . S
C383 C382 1.419 . S
C383 C384 1.391 . S
C383 C387 1.397 . S
C384 C379 1.391 . S
C384 C383 1.391 . S
C384 C385 1.399 . S
C385 C384 1.399 . S
C385 C386 1.396 . S
C385 C388 1.453 . S
C385 C389 1.684 . S
C386 C367 1.723 . S
C386 C385 1.396 . S
C386 C387 1.394 . S
C387 C383 1.397 . S
C387 C386 1.394 . S
C387 C397 1.723 . S
C388 C385 1.453 . S
C388 H412 0.982 . S
C388 H413 0.979 . S
C388 H414 0.977 . S
C389 C385 1.684 . S
C389 H415 0.979 . S
C389 H416 0.980 . S
C389 H417 0.983 . S
C390 H366 0.948 . S
C390 C391 1.391 . S
C390 C395 1.391 . S
C391 C390 1.391 . S
C391 C392 1.391 . S
C392 H369 0.947 . S
C392 C391 1.391 . S
C392 C393 1.392 . S
C393 H370 0.948 . S
C393 C392 1.392 . S
C393 C394 1.419 . S
C394 C393 1.419 . S
C394 C395 1.391 . S
C394 C398 1.397 . S
C395 C390 1.391 . S
C395 C394 1.391 . S
C395 C396 1.399 . S
C396 C395 1.399 . S
C396 C397 1.396 . S
C396 C399 1.453 . S
C396 C400 1.684 . S
C397 C387 1.723 . S
C397 C396 1.396 . S
C397 C398 1.394 . S
C398 C368 1.723 . S
C398 C394 1.397 . S
C398 C397 1.394 . S
C399 H371 0.982 . S
C399 H375 0.979 . S
C399 H376 0.977 . S
C399 C396 1.453 . S
C400 H372 0.979 . S
C400 H373 0.980 . S
C400 H374 0.983 . S
C400 C396 1.684 . S
H401 C419 0.948 . S
H402 C360 0.948 . S
H403 C378 0.979 . S
H404 C378 0.980 . S
H405 C378 0.983 . S
H406 C377 0.982 . S
H407 C377 0.979 . S
H408 C377 0.977 . S
H409 C379 0.948 . S
H410 C381 0.947 . S
H411 C382 0.948 . S
H412 C388 0.982 . S
H413 C388 0.979 . S
H414 C388 0.977 . S
H415 C389 0.979 . S
H416 C389 0.980 . S
H417 C389 0.983 . S
H418 C362 0.947 . S
C419 C362 1.392 . S
C419 C363 1.419 . S
C419 H401 0.948 . S
C420 C421 1.391 . S
C420 C424 1.391 . S
C420 H462 0.948 . S
C421 C420 1.391 . S
C421 C422 1.391 . S
C422 C421 1.391 . S
C422 H478 0.947 . S
C422 C479 1.392 . S
C423 C424 1.391 . S
C423 C427 1.397 . S
C423 C479 1.419 . S
C424 C420 1.391 . S
C424 C423 1.391 . S
C424 C425 1.399 . S
C425 C424 1.399 . S
C425 C428 1.396 . S
C425 C437 1.453 . S
C425 C438 1.684 . S
H426 C450 0.948 . S
C427 C423 1.397 . S
C427 C428 1.394 . S
C427 C446 1.723 . S
C428 C425 1.396 . S
C428 C427 1.394 . S
C428 C458 1.723 . S
H429 C452 0.947 . S
H430 C453 0.948 . S
H431 C459 0.982 . S
H432 C460 0.979 . S
H433 C460 0.980 . S
H434 C460 0.983 . S
H435 C459 0.979 . S
H436 C459 0.977 . S
C437 C425 1.453 . S
C437 H466 0.982 . S
C437 H467 0.979 . S
C437 H468 0.977 . S
C438 C425 1.684 . S
C438 H463 0.979 . S
C438 H464 0.980 . S
C438 H465 0.983 . S
C439 C440 1.391 . S
C439 C444 1.391 . S
C439 H469 0.948 . S
C440 C439 1.391 . S
C440 C441 1.391 . S
C441 C440 1.391 . S
C441 C442 1.392 . S
C441 H470 0.947 . S
C442 C441 1.392 . S
C442 C443 1.419 . S
C442 H471 0.948 . S
C443 C442 1.419 . S
C443 C444 1.391 . S
C443 C447 1.397 . S
C444 C439 1.391 . S
C444 C443 1.391 . S
C444 C445 1.399 . S
C445 C444 1.399 . S
C445 C446 1.396 . S
C445 C448 1.453 . S
C445 C449 1.684 . S
C446 C427 1.723 . S
C446 C445 1.396 . S
C446 C447 1.394 . S
C447 C443 1.397 . S
C447 C446 1.394 . S
C447 C457 1.723 . S
C448 C445 1.453 . S
C448 H472 0.982 . S
C448 H473 0.979 . S
C448 H474 0.977 . S
C449 C445 1.684 . S
C449 H475 0.979 . S
C449 H476 0.980 . S
C449 H477 0.983 . S
C450 H426 0.948 . S
C450 C451 1.391 . S
C450 C455 1.391 . S
C451 C450 1.391 . S
C451 C452 1.391 . S
C452 H429 0.947 . S
C452 C451 1.391 . S
C452 C453 1.392 . S
C453 H430 0.948 . S
C453 C452 1.392 . S
C453 C454 1.419 . S
C454 C453 1.419 . S
C454 C455 1.391 . S
C454 C458 1.397 . S
C455 C450 1.391 . S
C455 C454 1.391 . S
C455 C456 1.399 . S
C456 C455 1.399 . S
C456 C457 1.396 . S
C456 C459 1.453 . S
C456 C460 1.684 . S
C457 C447 1.723 . S
C457 C456 1.396 . S
C457 C458 1.394 . S
C458 C428 1.723 . S
C458 C454 1.397 . S
C458 C457 1.394 . S
C459 H431 0.982 . S
C459 H435 0.979 . S
C459 H436 0.977 . S
C459 C456 1.453 . S
C460 H432 0.979 . S
C460 H433 0.980 . S
C460 H434 0.983 . S
C460 C456 1.684 . S
H461 C479 0.948 . S
H462 C420 0.948 . S
H463 C438 0.979 . S
H464 C438 0.980 . S
H465 C438 0.983 . S
H466 C437 0.982 . S
H467 C437 0.979 . S
H468 C437 0.977 . S
H469 C439 0.948 . S
H470 C441 0.947 . S
H471 C442 0.948 . S
H472 C448 0.982 . S
H473 C448 0.979 . S
H474 C448 0.977 . S
H475 C449 0.979 . S
H476 C449 0.980 . S
H477 C449 0.983 . S
H478 C422 0.947 . S
C479 C422 1.392 . S
C479 C423 1.419 . S
C479 H461 0.948 . S
C480 C481 1.391 . S
C480 C484 1.391 . S
C480 H522 0.948 . S
C481 C480 1.391 . S
C481 C482 1.391 . S
C482 C481 1.391 . S
C482 H538 0.947 . S
C482 C539 1.392 . S
C483 C484 1.391 . S
C483 C487 1.397 . S
C483 C539 1.419 . S
C484 C480 1.391 . S
C484 C483 1.391 . S
C484 C485 1.399 . S
C485 C484 1.399 . S
C485 C488 1.396 . S
C485 C497 1.453 . S
C485 C498 1.684 . S
H486 C510 0.948 . S
C487 C483 1.397 . S
C487 C488 1.394 . S
C487 C506 1.723 . S
C488 C485 1.396 . S
C488 C487 1.394 . S
C488 C518 1.723 . S
H489 C512 0.947 . S
H490 C513 0.948 . S
H491 C519 0.982 . S
H492 C520 0.979 . S
H493 C520 0.980 . S
H494 C520 0.983 . S
H495 C519 0.979 . S
H496 C519 0.977 . S
C497 C485 1.453 . S
C497 H526 0.982 . S
C497 H527 0.979 . S
C497 H528 0.977 . S
C498 C485 1.684 . S
C498 H523 0.979 . S
C498 H524 0.980 . S
C498 H525 0.983 . S
C499 C500 1.391 . S
C499 C504 1.391 . S
C499 H529 0.948 . S
C500 C499 1.391 . S
C500 C501 1.391 . S
C501 C500 1.391 . S
C501 C502 1.392 . S
C501 H530 0.947 . S
C502 C501 1.392 . S
C502 C503 1.419 . S
C502 H531 0.948 . S
C503 C502 1.419 . S
C503 C504 1.391 . S
C503 C507 1.397 . S
C504 C499 1.391 . S
C504 C503 1.391 . S
C504 C505 1.399 . S
C505 C504 1.399 . S
C505 C506 1.396 . S
C505 C508 1.453 . S
C505 C509 1.684 . S
C506 C487 1.723 . S
C506 C505 1.396 . S
C506 C507 1.394 . S
C507 C503 1.397 . S
C507 C506 1.394 . S
C507 C517 1.723 . S
C508 C505 1.453 . S
C508 H532 0.982 . S
C508 H533 0.979 . S
C508 H534 0.977 . S
C509 C505 1.684 . S
C509 H535 0.979 . S
C509 H536 0.980 . S
C509 H537 0.983 . S
C510 H486 0.948 . S
C510 C511 1.391 . S
C510 C515 1.391 . S
C511 C510 1.391 . S
C511 C512 1.391 . S
C512 H489 0.947 . S
C512 C511 1.391 . S
C512 C513 1.392 . S
C513 H490 0.948 . S
C513 C512 1.392 . S
C513 C514 1.419 . S
C514 C513 1.419 . S
C514 C515 1.391 . S
C514 C518 1.397 . S
C515 C510 1.391 . S
C515 C514 1.391 . S
C515 C516 1.399 . S
C516 C515 1.399 . S
C516 C517 1.396 . S
C516 C519 1.453 . S
C516 C520 1.684 . S
C517 C507 1.723 . S
C517 C516 1.396 . S
C517 C518 1.394 . S
C518 C488 1.723 . S
C518 C514 1.397 . S
C518 C517 1.394 . S
C519 H491 0.982 . S
C519 H495 0.979 . S
C519 H496 0.977 . S
C519 C516 1.453 . S
C520 H492 0.979 . S
C520 H493 0.980 . S
C520 H494 0.983 . S
C520 C516 1.684 . S
H521 C539 0.948 . S
H522 C480 0.948 . S
H523 C498 0.979 . S
H524 C498 0.980 . S
H525 C498 0.983 . S
H526 C497 0.982 . S
H527 C497 0.979 . S
H528 C497 0.977 . S
H529 C499 0.948 . S
H530 C501 0.947 . S
H531 C502 0.948 . S
H532 C508 0.982 . S
H533 C508 0.979 . S
H534 C508 0.977 . S
H535 C509 0.979 . S
H536 C509 0.980 . S
H537 C509 0.983 . S
H538 C482 0.947 . S
C539 C482 1.392 . S
C539 C483 1.419 . S
C539 H521 0.948 . S
C540 C541 1.391 . S
C540 C544 1.391 . S
C540 H582 0.948 . S
C541 C540 1.391 . S
C541 C542 1.391 . S
C542 C541 1.391 . S
C542 H598 0.947 . S
C542 C599 1.392 . S
C543 C544 1.391 . S
C543 C547 1.397 . S
C543 C599 1.419 . S
C544 C540 1.391 . S
C544 C543 1.391 . S
C544 C545 1.399 . S
C545 C544 1.399 . S
C545 C548 1.396 . S
C545 C557 1.453 . S
C545 C558 1.684 . S
H546 C570 0.948 . S
C547 C543 1.397 . S
C547 C548 1.394 . S
C547 C566 1.723 . S
C548 C545 1.396 . S
C548 C547 1.394 . S
C548 C578 1.723 . S
H549 C572 0.947 . S
H550 C573 0.948 . S
H551 C579 0.982 . S
H552 C580 0.979 . S
H553 C580 0.980 . S
H554 C580 0.983 . S
H555 C579 0.979 . S
H556 C579 0.977 . S
C557 C545 1.453 . S
C557 H586 0.982 . S
C557 H587 0.979 . S
C557 H588 0.977 . S
C558 C545 1.684 . S
C558 H583 0.979 . S
C558 H584 0.980 . S
C558 H585 0.983 . S
C559 C560 1.391 . S
C559 C564 1.391 . S
C559 H589 0.948 . S
C560 C559 1.391 . S
C560 C561 1.391 . S
C561 C560 1.391 . S
C561 C562 1.392 . S
C561 H590 0.947 . S
C562 C561 1.392 . S
C562 C563 1.419 . S
C562 H591 0.948 . S
C563 C562 1.419 . S
C563 C564 1.391 . S
C563 C567 1.397 . S
C564 C559 1.391 . S
C564 C563 1.391 . S
C564 C565 1.399 . S
C565 C564 1.399 . S
C565 C566 1.396 . S
C565 C568 1.453 . S
C565 C569 1.684 . S
C566 C547 1.723 . S
C566 C565 1.396 . S
C566 C567 1.394 . S
C567 C563 1.397 . S
C567 C566 1.394 . S
C567 C577 1.723 . S
C568 C565 1.453 . S
C568 H592 0.982 . S
C568 H593 0.979 . S
C568 H594 0.977 . S
C569 C565 1.684 . S
C569 H595 0.979 . S
C569 H596 0.980 . S
C569 H597 0.983 . S
C570 H546 0.948 . S
C570 C571 1.391 . S
C570 C575 1.391 . S
C571 C570 1.391 . S
C571 C572 1.391 . S
C572 H549 0.947 . S
C572 C571 1.391 . S
C572 C573 1.392 . S
C573 H550 0.948 . S
C573 C572 1.392 . S
C573 C574 1.419 . S
C574 C573 1.419 . S
C574 C575 1.391 . S
C574 C578 1.397 . S
C575 C570 1.391 . S
C575 C574 1.391 . S
C575 C576 1.399 . S
C576 C575 1.399 . S
C576 C577 1.396 . S
C576 C579 1.453 . S
C576 C580 1.684 . S
C577 C567 1.723 . S
C577 C576 1.396 . S
C577 C578 1.394 . S
C578 C548 1.723 . S
C578 C574 1.397 . S
C578 C577 1.394 . S
C579 H551 0.982 . S
C579 H555 0.979 . S
C579 H556 0.977 . S
C579 C576 1.453 . S
C580 H552 0.979 . S
C580 H553 0.980 . S
C580 H554 0.983 . S
C580 C576 1.684 . S
H581 C599 0.948 . S
H582 C540 0.948 . S
H583 C558 0.979 . S
H584 C558 0.980 . S
H585 C558 0.983 . S
H586 C557 0.982 . S
H587 C557 0.979 . S
H588 C557 0.977 . S
H589 C559 0.948 . S
H590 C561 0.947 . S
H591 C562 0.948 . S
H592 C568 0.982 . S
H593 C568 0.979 . S
H594 C568 0.977 . S
H595 C569 0.979 . S
H596 C569 0.980 . S
H597 C569 0.983 . S
H598 C542 0.947 . S
C599 C542 1.392 . S
C599 C543 1.419 . S
C599 H581 0.948 . S
C600 C601 1.391 . S
C600 C604 1.391 . S
C600 H642 0.948 . S
C601 C600 1.391 . S
C601 C602 1.391 . S
C602 C601 1.391 . S
C602 H658 0.947 . S
C602 C659 1.392 . S
C603 C604 1.391 . S
C603 C607 1.397 . S
C603 C659 1.419 . S
C604 C600 1.391 . S
C604 C603 1.391 . S
C604 C605 1.399 . S
C605 C604 1.399 . S
C605 C608 1.396 . S
C605 C617 1.453 . S
C605 C618 1.684 . S
H606 C630 0.948 . S
C607 C603 1.397 . S
C607 C608 1.394 . S
C607 C626 1.723 . S
C608 C605 1.396 . S
C608 C607 1.394 . S
C608 C638 1.723 . S
H609 C632 0.947 . S
H610 C633 0.948 . S
H611 C639 0.982 . S
H612 C640 0.979 . S
H613 C640 0.980 . S
H614 C640 0.983 . S
H615 C639 0.979 . S
H616 C639 0.977 . S
C617 C605 1.453 . S
C617 H646 0.982 . S
C617 H647 0.979 . S
C617 H648 0.977 . S
C618 C605 1.684 . S
C618 H643 0.979 . S
C618 H644 0.980 . S
C618 H645 0.983 . S
C619 C620 1.391 . S
C619 C624 1.391 . S
C619 H649 0.948 . S
C620 C619 1.391 . S
C620 C621 1.391 . S
C621 C620 1.391 . S
C621 C622 1.392 . S
C621 H650 0.947 . S
C622 C621 1.392 . S
C622 C623 1.419 . S
C622 H651 0.948 . S
C623 C622 1.419 . S
C623 C624 1.391 . S
C623 C627 1.397 . S
C624 C619 1.391 . S
C624 C623 1.391 . S
C624 C625 1.399 . S
C625 C624 1.399 . S
C625 C626 1.396 . S
C625 C628 1.453 . S
C625 C629 1.684 . S
C626 C607 1.723 . S
C626 C625 1.396 . S
C626 C627 1.394 . S
C627 C623 1.397 . S
C627 C626 1.394 . S
C627 C637 1.723 . S
C628 C625 1.453 . S
C628 H652 0.982 . S
C628 H653 0.979 . S
C628 H654 0.977 . S
C629 C625 1.684 . S
C629 H655 0.979 . S
C629 H656 0.980 . S
C629 H657 0.983 . S
C630 H606 0.948 . S
C630 C631 1.391 . S
C630 C635 1.391 . S
C631 C630 1.391 . S
C631 C632 1.391 . S
C632 H609 0.947 . S
C632 C631 1.391 . S
C632 C633 1.392 . S
C633 H610 0.948 . S
C633 C632 1.392 . S
C633 C634 1.419 . S
C634 C633 1.419 . S
C634 C635 1.391 . S
C634 C638 1.397 . S
C635 C630 1.391 . S
C635 C634 1.391 . S
C635 C636 1.399 . S
C636 C635 1.399 . S
C636 C637 1.396 . S
C636 C639 1.453 . S
C636 C640 1.684 . S
C637 C627 1.723 . S
C637 C636 1.396 . S
C637 C638 1.394 . S
C638 C608 1.723 . S
C638 C634 1.397 . S
C638 C637 1.394 . S
C639 H611 0.982 . S
C639 H615 0.979 . S
C639 H616 0.977 . S
C639 C636 1.453 . S
C640 H612 0.979 . S
C640 H613 0.980 . S
C640 H614 0.983 . S
C640 C636 1.684 . S
H641 C659 0.948 . S
H642 C600 0.948 . S
H643 C618 0.979 . S
H644 C618 0.980 . S
H645 C618 0.983 . S
H646 C617 0.982 . S
H647 C617 0.979 . S
H648 C617 0.977 . S
H649 C619 0.948 . S
H650 C621 0.947 . S
H651 C622 0.948 . S
H652 C628 0.982 . S
H653 C628 0.979 . S
H654 C628 0.977 . S
H655 C629 0.979 . S
H656 C629 0.980 . S
H657 C629 0.983 . S
H658 C602 0.947 . S
C659 C602 1.392 . S
C659 C603 1.419 . S
C659 H641 0.948 . S
C660 C661 1.391 . S
C660 C664 1.391 . S
C660 H702 0.948 . S
C661 C660 1.391 . S
C661 C662 1.391 . S
C662 C661 1.391 . S
C662 H718 0.947 . S
C662 C719 1.392 . S
C663 C664 1.391 . S
C663 C667 1.397 . S
C663 C719 1.419 . S
C664 C660 1.391 . S
C664 C663 1.391 . S
C664 C665 1.399 . S
C665 C664 1.399 . S
C665 C668 1.396 . S
C665 C677 1.453 . S
C665 C678 1.684 . S
H666 C690 0.948 . S
C667 C663 1.397 . S
C667 C668 1.394 . S
C667 C686 1.723 . S
C668 C665 1.396 . S
C668 C667 1.394 . S
C668 C698 1.723 . S
H669 C692 0.947 . S
H670 C693 0.948 . S
H671 C699 0.982 . S
H672 C700 0.979 . S
H673 C700 0.980 . S
H674 C700 0.983 . S
H675 C699 0.979 . S
H676 C699 0.977 . S
C677 C665 1.453 . S
C677 H706 0.982 . S
C677 H707 0.979 . S
C677 H708 0.977 . S
C678 C665 1.684 . S
C678 H703 0.979 . S
C678 H704 0.980 . S
C678 H705 0.983 . S
C679 C680 1.391 . S
C679 C684 1.391 . S
C679 H709 0.948 . S
C680 C679 1.391 . S
C680 C681 1.391 . S
C681 C680 1.391 . S
C681 C682 1.392 . S
C681 H710 0.947 . S
C682 C681 1.392 . S
C682 C683 1.419 . S
C682 H711 0.948 . S
C683 C682 1.419 . S
C683 C684 1.391 . S
C683 C687 1.397 . S
C684 C679 1.391 . S
C684 C683 1.391 . S
C684 C685 1.399 . S
C685 C684 1.399 . S
C685 C686 1.396 . S
C685 C688 1.453 . S
C685 C689 1.684 . S
C686 C667 1.723 . S
C686 C685 1.396 . S
C686 C687 1.394 . S
C687 C683 1.397 . S
C687 C686 1.394 . S
C687 C697 1.723 . S
C688 C685 1.453 . S
C688 H712 0.982 . S
C688 H713 0.979 . S
C688 H714 0.977 . S
C689 C685 1.684 . S
C689 H715 0.979 . S
C689 H716 0.980 . S
C689 H717 0.983 . S
C690 H666 0.948 . S
C690 C691 1.391 . S
C690 C695 1.391 . S
C691 C690 1.391 . S
C691 C692 1.391 . S
C692 H669 0.947 . S
C692 C691 1.391 . S
C692 C693 1.392 . S
C693 H670 0.948 . S
C693 C692 1.392 . S
C693 C694 1.419 . S
C694 C693 1.419 . S
C694 C695 1.391 . S
C694 C698 1.397 . S
C695 C690 1.391 . S
C695 C694 1.391 . S
C695 C696 1.399 . S
C696 C695 1.399 . S
C696 C697 1.396 . S
C696 C699 1.453 . S
C696 C700 1.684 . S
C697 C687 1.723 . S
C697 C696 1.396 . S
C697 C698 1.394 . S
C698 C668 1.723 . S
C698 C694 1.397 . S
C698 C697 1.394 . S
C699 H671 0.982 . S
C699 H675 0.979 . S
C699 H676 0.977 . S
C699 C696 1.453 . S
C700 H672 0.979 . S
C700 H673 0.980 . S
C700 H674 0.983 . S
C700 C696 1.684 . S
H701 C719 0.948 . S
H702 C660 0.948 . S
H703 C678 0.979 . S
H704 C678 0.980 . S
H705 C678 0.983 . S
H706 C677 0.982 . S
H707 C677 0.979 . S
H708 C677 0.977 . S
H709 C679 0.948 . S
H710 C681 0.947 . S
H711 C682 0.948 . S
H712 C688 0.982 . S
H713 C688 0.979 . S
H714 C688 0.977 . S
H715 C689 0.979 . S
H716 C689 0.980 . S
H717 C689 0.983 . S
H718 C662 0.947 . S
C719 C662 1.392 . S
C719 C663 1.419 . S
C719 H701 0.948 . S
C720 C721 1.391 . S
C720 C724 1.391 . S
C720 H762 0.948 . S
C721 C720 1.391 . S
C721 C722 1.391 . S
C722 C721 1.391 . S
C722 H778 0.947 . S
C722 C779 1.392 . S
C723 C724 1.391 . S
C723 C727 1.397 . S
C723 C779 1.419 . S
C724 C720 1.391 . S
C724 C723 1.391 . S
C724 C725 1.399 . S
C725 C724 1.399 . S
C725 C728 1.396 . S
C725 C737 1.453 . S
C725 C738 1.684 . S
H726 C750 0.948 . S
C727 C723 1.397 . S
C727 C728 1.394 . S
C727 C746 1.723 . S
C728 C725 1.396 . S
C728 C727 1.394 . S
C728 C758 1.723 . S
H729 C752 0.947 . S
H730 C753 0.948 . S
H731 C759 0.982 . S
H732 C760 0.979 . S
H733 C760 0.980 . S
H734 C760 0.983 . S
H735 C759 0.979 . S
H736 C759 0.977 . S
C737 C725 1.453 . S
C737 H766 0.982 . S
C737 H767 0.979 . S
C737 H768 0.977 . S
C738 C725 1.684 . S
C738 H763 0.979 . S
C738 H764 0.980 . S
C738 H765 0.983 . S
C739 C740 1.391 . S
C739 C744 1.391 . S
C739 H769 0.948 . S
C740 C739 1.391 . S
C740 C741 1.391 . S
C741 C740 1.391 . S
C741 C742 1.392 . S
C741 H770 0.947 . S
C742 C741 1.392 . S
C742 C743 1.419 . S
C742 H771 0.948 . S
C743 C742 1.419 . S
C743 C744 1.391 . S
C743 C747 1.397 . S
C744 C739 1.391 . S
C744 C743 1.391 . S
C744 C745 1.399 . S
C745 C744 1.399 . S
C745 C746 1.396 . S
C745 C748 1.453 . S
C745 C749 1.684 . S
C746 C727 1.723 . S
C746 C745 1.396 . S
C746 C747 1.394 . S
C747 C743 1.397 . S
C747 C746 1.394 . S
C747 C757 1.723 . S
C748 C745 1.453 . S
C748 H772 0.982 . S
C748 H773 0.979 . S
C748 H774 0.977 . S
C749 C745 1.684 . S
C749 H775 0.979 . S
C749 H776 0.980 . S
C749 H777 0.983 . S
C750 H726 0.948 . S
C750 C751 1.391 . S
C750 C755 1.391 . S
C751 C750 1.391 . S
C751 C752 1.391 . S
C752 H729 0.947 . S
C752 C751 1.391 . S
C752 C753 1.392 . S
C753 H730 0.948 . S
C753 C752 1.392 . S
C753 C754 1.419 . S
C754 C753 1.419 . S
C754 C755 1.391 . S
C754 C758 1.397 . S
C755 C750 1.391 . S
C755 C754 1.391 . S
C755 C756 1.399 . S
C756 C755 1.399 . S
C756 C757 1.396 . S
C756 C759 1.453 . S
C756 C760 1.684 . S
C757 C747 1.723 . S
C757 C756 1.396 . S
C757 C758 1.394 . S
C758 C728 1.723 . S
C758 C754 1.397 . S
C758 C757 1.394 . S
C759 H731 0.982 . S
C759 H735 0.979 . S
C759 H736 0.977 . S
C759 C756 1.453 . S
C760 H732 0.979 . S
C760 H733 0.980 . S
C760 H734 0.983 . S
C760 C756 1.684 . S
H761 C779 0.948 . S
H762 C720 0.948 . S
H763 C738 0.979 . S
H764 C738 0.980 . S
H765 C738 0.983 . S
H766 C737 0.982 . S
H767 C737 0.979 . S
H768 C737 0.977 . S
H769 C739 0.948 . S
H770 C741 0.947 . S
H771 C742 0.948 . S
H772 C748 0.982 . S
H773 C748 0.979 . S
H774 C748 0.977 . S
H775 C749 0.979 . S
H776 C749 0.980 . S
H777 C749 0.983 . S
H778 C722 0.947 . S
C779 C722 1.392 . S
C779 C723 1.419 . S
C779 H761 0.948 . S
C780 C781 1.391 . S
C780 C784 1.391 . S
C780 H822 0.948 . S
C781 C780 1.391 . S
C781 C782 1.391 . S
C782 C781 1.391 . S
C782 H838 0.947 . S
C782 C839 1.392 . S
C783 C784 1.391 . S
C783 C787 1.397 . S
C783 C839 1.419 . S
C784 C780 1.391 . S
C784 C783 1.391 . S
C784 C785 1.399 . S
C785 C784 1.399 . S
C785 C788 1.396 . S
C785 C797 1.453 . S
C785 C798 1.684 . S
H786 C810 0.948 . S
C787 C783 1.397 . S
C787 C788 1.394 . S
C787 C806 1.723 . S
C788 C785 1.396 . S
C788 C787 1.394 . S
C788 C818 1.723 . S
H789 C812 0.947 . S
H790 C813 0.948 . S
H791 C819 0.982 . S
H792 C820 0.979 . S
H793 C820 0.980 . S
H794 C820 0.983 . S
H795 C819 0.979 . S
H796 C819 0.977 . S
C797 C785 1.453 . S
C797 H826 0.982 . S
C797 H827 0.979 . S
C797 H828 0.977 . S
C798 C785 1.684 . S
C798 H823 0.979 . S
C798 H824 0.980 . S
C798 H825 0.983 . S
C799 C800 1.391 . S
C799 C804 1.391 . S
C799 H829 0.948 . S
C800 C799 1.391 . S
C800 C801 1.391 . S
C801 C800 1.391 . S
C801 C802 1.392 . S
C801 H830 0.947 . S
C802 C801 1.392 . S
C802 C803 1.419 . S
C802 H831 0.948 . S
C803 C802 1.419 . S
C803 C804 1.391 . S
C803 C807 1.397 . S
C804 C799 1.391 . S
C804 C803 1.391 . S
C804 C805 1.399 . S
C805 C804 1.399 . S
C805 C806 1.396 . S
C805 C808 1.453 . S
C805 C809 1.684 . S
C806 C787 1.723 . S
C806 C805 1.396 . S
C806 C807 1.394 . S
C807 C803 1.397 . S
C807 C806 1.394 . S
C807 C817 1.723 . S
C808 C805 1.453 . S
C808 H832 0.982 . S
C808 H833 0.979 . S
C808 H834 0.977 . S
C809 C805 1.684 . S
C809 H835 0.979 . S
C809 H836 0.980 . S
C809 H837 0.983 . S
C810 H786 0.948 . S
C810 C811 1.391 . S
C810 C815 1.391 . S
C811 C810 1.391 . S
C811 C812 1.391 . S
C812 H789 0.947 . S
C812 C811 1.391 . S
C812 C813 1.392 . S
C813 H790 0.948 . S
C813 C812 1.392 . S
C813 C814 1.419 . S
C814 C813 1.419 . S
C814 C815 1.391 . S
C814 C818 1.397 . S
C815 C810 1.391 . S
C815 C814 1.391 . S
C815 C816 1.399 . S
C816 C815 1.399 . S
C816 C817 1.396 . S
C816 C819 1.453 . S
C816 C820 1.684 . S
C817 C807 1.723 . S
C817 C816 1.396 . S
C817 C818 1.394 . S
C818 C788 1.723 . S
C818 C814 1.397 . S
C818 C817 1.394 . S
C819 H791 0.982 . S
C819 H795 0.979 . S
C819 H796 0.977 . S
C819 C816 1.453 . S
C820 H792 0.979 . S
C820 H793 0.980 . S
C820 H794 0.983 . S
C820 C816 1.684 . S
H821 C839 0.948 . S
H822 C780 0.948 . S
H823 C798 0.979 . S
H824 C798 0.980 . S
H825 C798 0.983 . S
H826 C797 0.982 . S
H827 C797 0.979 . S
H828 C797 0.977 . S
H829 C799 0.948 . S
H830 C801 0.947 . S
H831 C802 0.948 . S
H832 C808 0.982 . S
H833 C808 0.979 . S
H834 C808 0.977 . S
H835 C809 0.979 . S
H836 C809 0.980 . S
H837 C809 0.983 . S
H838 C782 0.947 . S
C839 C782 1.392 . S
C839 C783 1.419 . S
C839 H821 0.948 . S
C840 C841 1.391 . S
C840 C844 1.391 . S
C840 H882 0.948 . S
C841 C840 1.391 . S
C841 C842 1.391 . S
C842 C841 1.391 . S
C842 H898 0.947 . S
C842 C899 1.392 . S
C843 C844 1.391 . S
C843 C847 1.397 . S
C843 C899 1.419 . S
C844 C840 1.391 . S
C844 C843 1.391 . S
C844 C845 1.399 . S
C845 C844 1.399 . S
C845 C848 1.396 . S
C845 C857 1.453 . S
C845 C858 1.684 . S
H846 C870 0.948 . S
C847 C843 1.397 . S
C847 C848 1.394 . S
C847 C866 1.723 . S
C848 C845 1.396 . S
C848 C847 1.394 . S
C848 C878 1.723 . S
H849 C872 0.947 . S
H850 C873 0.948 . S
H851 C879 0.982 . S
H852 C880 0.979 . S
H853 C880 0.980 . S
H854 C880 0.983 . S
H855 C879 0.979 . S
H856 C879 0.977 . S
C857 C845 1.453 . S
C857 H886 0.982 . S
C857 H887 0.979 . S
C857 H888 0.977 . S
C858 C845 1.684 . S
C858 H883 0.979 . S
C858 H884 0.980 . S
C858 H885 0.983 . S
C859 C860 1.391 . S
C859 C864 1.391 . S
C859 H889 0.948 . S
C860 C859 1.391 . S
C860 C861 1.391 . S
C861 C860 1.391 . S
C861 C862 1.392 . S
C861 H890 0.947 . S
C862 C861 1.392 . S
C862 C863 1.419 . S
C862 H891 0.948 . S
C863 C862 1.419 . S
C863 C864 1.391 . S
C863 C867 1.397 . S
C864 C859 1.391 . S
C864 C863 1.391 . S
C864 C865 1.399 . S
C865 C864 1.399 . S
C865 C866 1.396 . S
C865 C868 1.453 . S
C865 C869 1.684 . S
C866 C847 1.723 . S
C866 C865 1.396 . S
C866 C867 1.394 . S
C867 C863 1.397 . S
C867 C866 1.394 . S
C867 C877 1.723 . S
C868 C865 1.453 . S
C868 H892 0.982 . S
C868 H893 0.979 . S
C868 H894 0.977 . S
C869 C865 1.684 . S
C869 H895 0.979 . S
C869 H896 0.980 . S
C869 H897 0.983 . S
C870 H846 0.948 . S
C870 C871 1.391 . S
C870 C875 1.391 . S
C871 C870 1.391 . S
C871 C872 1.391 . S
C872 H849 0.947 . S
C872 C871 1.391 . S
C872 C873 1.392 . S
C873 H850 0.948 . S
C873 C872 1.392 . S
C873 C874 1.419 . S
C874 C873 1.419 . S
C874 C875 1.391 . S
C874 C878 1.397 . S
C875 C870 1.391 . S
C875 C874 1.391 . S
C875 C876 1.399 . S
C876 C875 1.399 . S
C876 C877 1.396 . S
C876 C879 1.453 . S
C876 C880 1.684 . S
C877 C867 1.723 . S
C877 C876 1.396 . S
C877 C878 1.394 . S
C878 C848 1.723 . S
C878 C874 1.397 . S
C878 C877 1.394 . S
C879 H851 0.982 . S
C879 H855 0.979 . S
C879 H856 0.977 . S
C879 C876 1.453 . S
C880 H852 0.979 . S
C880 H853 0.980 . S
C880 H854 0.983 . S
C880 C876 1.684 . S
H881 C899 0.948 . S
H882 C840 0.948 . S
H883 C858 0.979 . S
H884 C858 0.980 . S
H885 C858 0.983 . S
H886 C857 0.982 . S
H887 C857 0.979 . S
H888 C857 0.977 . S
H889 C859 0.948 . S
H890 C861 0.947 . S
H891 C862 0.948 . S
H892 C868 0.982 . S
H893 C868 0.979 . S
H894 C868 0.977 . S
H895 C869 0.979 . S
H896 C869 0.980 . S
H897 C869 0.983 . S
H898 C842 0.947 . S
C899 C842 1.392 . S
C899 C843 1.419 . S
C899 H881 0.948 . S
C900 C901 1.391 . S
C900 C904 1.391 . S
C900 H942 0.948 . S
C901 C900 1.391 . S
C901 C902 1.391 . S
C902 C901 1.391 . S
C902 H958 0.947 . S
C902 C959 1.392 . S
C903 C904 1.391 . S
C903 C907 1.397 . S
C903 C959 1.419 . S
C904 C900 1.391 . S
C904 C903 1.391 . S
C904 C905 1.399 . S
C905 C904 1.399 . S
C905 C908 1.396 . S
C905 C917 1.453 . S
C905 C918 1.684 . S
H906 C930 0.948 . S
C907 C903 1.397 . S
C907 C908 1.394 . S
C907 C926 1.723 . S
C908 C905 1.396 . S
C908 C907 1.394 . S
C908 C938 1.723 . S
H909 C932 0.947 . S
H910 C933 0.948 . S
H911 C939 0.982 . S
H912 C940 0.979 . S
H913 C940 0.980 . S
H914 C940 0.983 . S
H915 C939 0.979 . S
H916 C939 0.977 . S
C917 C905 1.453 . S
C917 H946 0.982 . S
C917 H947 0.979 . S
C917 H948 0.977 . S
C918 C905 1.684 . S
C918 H943 0.979 . S
C918 H944 0.980 . S
C918 H945 0.983 . S
C919 C920 1.391 . S
C919 C924 1.391 . S
C919 H949 0.948 . S
C920 C919 1.391 . S
C920 C921 1.391 . S
C921 C920 1.391 . S
C921 C922 1.392 . S
C921 H950 0.947 . S
C922 C921 1.392 . S
C922 C923 1.419 . S
C922 H951 0.948 . S
C923 C922 1.419 . S
C923 C924 1.391 . S
C923 C927 1.397 . S
C924 C919 1.391 . S
C924 C923 1.391 . S
C924 C925 1.399 . S
C925 C924 1.399 . S
C925 C926 1.396 . S
C925 C928 1.453 . S
C925 C929 1.684 . S
C926 C907 1.723 . S
C926 C925 1.396 . S
C926 C927 1.394 . S
C927 C923 1.397 . S
C927 C926 1.394 . S
C927 C937 1.723 . S
C928 C925 1.453 . S
C928 H952 0.982 . S
C928 H953 0.979 . S
C928 H954 0.977 . S
C929 C925 1.684 . S
C929 H955 0.979 . S
C929 H956 0.980 . S
C929 H957 0.983 . S
C930 H906 0.948 . S
C930 C931 1.391 . S
C930 C935 1.391 . S
C931 C930 1.391 . S
C931 C932 1.391 . S
C932 H909 0.947 . S
C932 C931 1.391 . S
C932 C933 1.392 . S
C933 H910 0.948 . S
C933 C932 1.392 . S
C933 C934 1.419 . S
C934 C933 1.419 . S
C934 C935 1.391 . S
C934 C938 1.397 . S
C935 C930 1.391 . S
C935 C934 1.391 . S
C935 C936 1.399 . S
C936 C935 1.399 . S
C936 C937 1.396 . S
C936 C939 1.453 . S
C936 C940 1.684 . S
C937 C927 1.723 . S
C937 C936 1.396 . S
C937 C938 1.394 . S
C938 C908 1.723 . S
C938 C934 1.397 . S
C938 C937 1.394 . S
C939 H911 0.982 . S
C939 H915 0.979 . S
C939 H916 0.977 . S
C939 C936 1.453 . S
C940 H912 0.979 . S
C940 H913 0.980 . S
C940 H914 0.983 . S
C940 C936 1.684 . S
H941 C959 0.948 . S
H942 C900 0.948 . S
H943 C918 0.979 . S
H944 C918 0.980 . S
H945 C918 0.983 . S
H946 C917 0.982 . S
H947 C917 0.979 . S
H948 C917 0.977 . S
H949 C919 0.948 . S
H950 C921 0.947 . S
H951 C922 0.948 . S
H952 C928 0.982 . S
H953 C928 0.979 . S
H954 C928 0.977 . S
H955 C929 0.979 . S
H956 C929 0.980 . S
H957 C929 0.983 . S
H958 C902 0.947 . S
C959 C902 1.392 . S
C959 C903 1.419 . S
C959 H941 0.948 . S
C960 C961 1.391 . S
C960 C964 1.391 . S
C960 H1002 0.948 . S
C961 C960 1.391 . S
C961 C962 1.391 . S
C962 C961 1.391 . S
C962 H1018 0.947 . S
C962 C1019 1.392 . S
C963 C964 1.391 . S
C963 C967 1.397 . S
C963 C1019 1.419 . S
C964 C960 1.391 . S
C964 C963 1.391 . S
C964 C965 1.399 . S
C965 C964 1.399 . S
C965 C968 1.396 . S
C965 C977 1.453 . S
C965 C978 1.684 . S
H966 C990 0.948 . S
C967 C963 1.397 . S
C967 C968 1.394 . S
C967 C986 1.723 . S
C968 C965 1.396 . S
C968 C967 1.394 . S
C968 C998 1.723 . S
H969 C992 0.947 . S
H970 C993 0.948 . S
H971 C999 0.982 . S
H972 C1000 0.979 . S
H973 C1000 0.980 . S
H974 C1000 0.983 . S
H975 C999 0.979 . S
H976 C999 0.977 . S
C977 C965 1.453 . S
C977 H1006 0.982 . S
C977 H1007 0.979 . S
C977 H1008 0.977 . S
C978 C965 1.684 . S
C978 H1003 0.979 . S
C978 H1004 0.980 . S
C978 H1005 0.983 . S
C979 C980 1.391 . S
C979 C984 1.391 . S
C979 H1009 0.948 . S
C980 C979 1.391 . S
C980 C981 1.391 . S
C981 C980 1.391 . S
C981 C982 1.392 . S
C981 H1010 0.947 . S
C982 C981 1.392 . S
C982 C983 1.419 . S
C982 H1011 0.948 . S
C983 C982 1.419 . S
C983 C984 1.391 . S
C983 C987 1.397 . S
C984 C979 1.391 . S
C984 C983 1.391 . S
C984 C985 1.399 . S
C985 C984 1.399 . S
C985 C986 1.396 . S
C985 C988 1.453 . S
C985 C989 1.684 . S
C986 C967 1.723 . S
C986 C985 1.396 . S
C986 C987 1.394 . S
C987 C983 1.397 . S
C987 C986 1.394 . S
C987 C997 1.723 . S
C988 C985 1.453 . S
C988 H1012 0.982 . S
C988 H1013 0.979 . S
C988 H1014 0.977 . S
C989 C985 1.684 . S
C989 H1015 0.979 . S
C989 H1016 0.980 . S
C989 H1017 0.983 . S
C990 H966 0.948 . S
C990 C991 1.391 . S
C990 C995 1.391 . S
C991 C990 1.391 . S
C991 C992 1.391 . S
C992 H969 0.947 . S
C992 C991 1.391 . S
C992 C993 1.392 . S
C993 H970 0.948 . S
C993 C992 1.392 . S
C993 C994 1.419 . S
C994 C993 1.419 . S
C994 C995 1.391 . S
C994 C998 1.397 . S
C995 C990 1.391 . S
C995 C994 1.391 . S
C995 C996 1.399 . S
C996 C995 1.399 . S
C996 C997 1.396 . S
C996 C999 1.453 . S
C996 C1000 1.684 . S
C997 C987 1.723 . S
C997 C996 1.396 . S
C997 C998 1.394 . S
C998 C968 1.723 . S
C998 C994 1.397 . S
C998 C997 1.394 . S
C999 H971 0.982 . S
C999 H975 0.979 . S
C999 H976 0.977 . S
C999 C996 1.453 . S
C1000 H972 0.979 . S
C1000 H973 0.980 . S
C1000 H974 0.983 . S
C1000 C996 1.684 . S
H1001 C1019 0.948 . S
H1002 C960 0.948 . S
H1003 C978 0.979 . S
H1004 C978 0.980 . S
H1005 C978 0.983 . S
H1006 C977 0.982 . S
H1007 C977 0.979 . S
H1008 C977 0.977 . S
H1009 C979 0.948 . S
H1010 C981 0.947 . S
H1011 C982 0.948 . S
H1012 C988 0.982 . S
H1013 C988 0.979 . S
H1014 C988 0.977 . S
H1015 C989 0.979 . S
H1016 C989 0.980 . S
H1017 C989 0.983 . S
H1018 C962 0.947 . S
C1019 C962 1.392 . S
C1019 C963 1.419 . S
C1019 H1001 0.948 . S
C1020 C1021 1.391 . S
C1020 C1024 1.391 . S
C1020 H1062 0.948 . S
C1021 C1020 1.391 . S
C1021 C1022 1.391 . S
C1022 C1021 1.391 . S
C1022 H1078 0.947 . S
C1022 C1079 1.392 . S
C1023 C1024 1.391 . S
C1023 C1027 1.397 . S
C1023 C1079 1.419 . S
C1024 C1020 1.391 . S
C1024 C1023 1.391 . S
C1024 C1025 1.399 . S
C1025 C1024 1.399 . S
C1025 C1028 1.396 . S
C1025 C1037 1.453 . S
C1025 C1038 1.684 . S
H1026 C1050 0.948 . S
C1027 C1023 1.397 . S
C1027 C1028 1.394 . S
C1027 C1046 1.723 . S
C1028 C1025 1.396 . S
C1028 C1027 1.394 . S
C1028 C1058 1.723 . S
H1029 C1052 0.947 . S
H1030 C1053 0.948 . S
H1031 C1059 0.982 . S
H1032 C1060 0.979 . S
H1033 C1060 0.980 . S
H1034 C1060 0.983 . S
H1035 C1059 0.979 . S
H1036 C1059 0.977 . S
C1037 C1025 1.453 . S
C1037 H1066 0.982 . S
C1037 H1067 0.979 . S
C1037 H1068 0.977 . S
C1038 C1025 1.684 . S
C1038 H1063 0.979 . S
C1038 H1064 0.980 . S
C1038 H1065 0.983 . S
C1039 C1040 1.391 . S
C1039 C1044 1.391 . S
C1039 H1069 0.948 . S
C1040 C1039 1.391 . S
C1040 C1041 1.391 . S
C1041 C1040 1.391 . S
C1041 C1042 1.392 . S
C1041 H1070 0.947 . S
C1042 C1041 1.392 . S
C1042 C1043 1.419 . S
C1042 H1071 0.948 . S
C1043 C1042 1.419 . S
C1043 C1044 1.391 . S
C1043 C1047 1.397 . S
C1044 C1039 1.391 . S
C1044 C1043 1.391 . S
C1044 C1045 1.399 . S
C1045 C1044 1.399 . S
C1045 C1046 1.396 . S
C1045 C1048 1.453 . S
C1045 C1049 1.684 . S
C1046 C1027 1.723 . S
C1046 C1045 1.396 . S
C1046 C1047 1.394 . S
C1047 C1043 1.397 . S
C1047 C1046 1.394 . S
C1047 C1057 1.723 . S
C1048 C1045 1.453 . S
C1048 H1072 0.982 . S
C1048 H1073 0.979 . S
C1048 H1074 0.977 . S
C1049 C1045 1.684 . S
C1049 H1075 0.979 . S
C1049 H1076 0.980 . S
C1049 H1077 0.983 . S
C1050 H1026 0.948 . S
C1050 C1051 1.391 . S
C1050 C1055 1.391 . S
C1051 C1050 1.391 . S
C1051 C1052 1.391 . S
C1052 H1029 0.947 . S
C1052 C1051 1.391 . S
C1052 C1053 1.392 . S
C1053 H1030 0.948 . S
C1053 C1052 1.392 . S
C1053 C1054 1.419 . S
C1054 C1053 1.419 . S
C1054 C1055 1.391 . S
C1054 C1058 1.397 . S
C1055 C1050 1.391 . S
C1055 C1054 1.391 . S
C1055 C1056 1.399 . S
C1056 C1055 1.399 . S
C1056 C1057 1.396 . S
C1056 C1059 1.453 . S
C1056 C1060 1.684 . S
C1057 C1047 1.723 . S
C1057 C1056 1.396 . S
C1057 C1058 1.394 . S
C1058 C1028 1.723 . S
C1058 C1054 1.397 . S
C1058 C1057 1.394 . S
C1059 H1031 0.982 . S
C1059 H1035 0.979 . S
C1059 H1036 0.977 . S
C1059 C1056 1.453 . S
C1060 H1032 0.979 . S
C1060 H1033 0.980 . S
C1060 H1034 0.983 . S
C1060 C1056 1.684 . S
H1061 C1079 0.948 . S
H1062 C1020 0.948 . S
H1063 C1038 0.979 . S
H1064 C1038 0.980 . S
H1065 C1038 0.983 . S
H1066 C1037 0.982 . S
H1067 C1037 0.979 . S
H1068 C1037 0.977 . S
H1069 C1039 0.948 . S
H1070 C1041 0.947 . S
H1071 C1042 0.948 . S
H1072 C1048 0.982 . S
H1073 C1048 0.979 . S
H1074 C1048 0.977 . S
H1075 C1049 0.979 . S
H1076 C1049 0.980 . S
H1077 C1049 0.983 . S
H1078 C1022 0.947 . S
C1079 C1022 1.392 . S
C1079 C1023 1.419 . S
C1079 H1061 0.948 . S
Tb1080 O1083 2.453 . S
Tb1080 O1084 2.596 1_545 S
Tb1080 O1085 2.374 1_545 S
Tb1080 O1093 2.343 1_554 S
Tb1080 O1095 2.353 . S
Tb1080 O1097 2.427 1_554 S
Tb1080 O1098 2.513 1_554 S
C1081 O1085 1.251 . S
C1081 O1087 1.263 1_554 S
Tb1082 O1084 2.343 1_556 S
Tb1082 O1087 2.353 . S
Tb1082 O1090 2.427 1_556 S
Tb1082 O1091 2.513 1_556 S
Tb1082 O1092 2.453 . S
Tb1082 O1093 2.596 1_565 S
Tb1082 O1094 2.374 1_565 S
O1083 Tb1080 2.453 . S
O1083 C1099 1.245 . S
O1084 Tb1080 2.596 1_565 S
O1084 Tb1082 2.343 1_554 S
O1084 C1099 1.259 1_565 S
O1085 Tb1080 2.374 1_565 S
O1085 C1081 1.251 . S
C1086 O1090 1.275 . S
C1086 O1091 1.246 . S
O1087 C1081 1.263 1_556 S
O1087 Tb1082 2.353 . S
C1088 O1092 1.245 . S
C1088 O1093 1.259 1_565 S
C1089 O1094 1.250 . S
C1089 O1095 1.263 1_556 S
O1090 Tb1082 2.427 1_554 S
O1090 C1086 1.275 . S
O1091 Tb1082 2.513 1_554 S
O1091 C1086 1.246 . S
O1092 Tb1082 2.453 . S
O1092 C1088 1.245 . S
O1093 Tb1080 2.343 1_556 S
O1093 Tb1082 2.596 1_545 S
O1093 C1088 1.259 1_545 S
O1094 Tb1082 2.374 1_545 S
O1094 C1089 1.250 . S
O1095 Tb1080 2.353 . S
O1095 C1089 1.263 1_554 S
C1096 O1097 1.275 . S
C1096 O1098 1.246 . S
O1097 Tb1080 2.427 1_556 S
O1097 C1096 1.275 . S
O1098 Tb1080 2.513 1_556 S
O1098 C1096 1.246 . S
C1099 O1083 1.245 . S
C1099 O1084 1.259 1_545 S
Tb1100 O1103 2.453 . S
Tb1100 O1104 2.596 1_655 S
Tb1100 O1105 2.374 1_655 S
Tb1100 O1113 2.343 1_554 S
Tb1100 O1115 2.344 1_554 S
Tb1100 O1117 2.427 1_554 S
Tb1100 O1118 2.513 1_554 S
C1101 O1105 1.251 . S
C1101 O1107 1.263 . S
Tb1102 O1104 2.343 1_556 S
Tb1102 O1107 2.353 1_556 S
Tb1102 O1110 2.427 1_556 S
Tb1102 O1111 2.513 1_556 S
Tb1102 O1112 2.453 . S
Tb1102 O1113 2.596 1_455 S
Tb1102 O1114 2.374 1_455 S
O1103 Tb1100 2.453 . S
O1103 C1119 1.245 1_655 S
O1104 Tb1100 2.596 1_455 S
O1104 Tb1102 2.343 1_554 S
O1104 C1119 1.259 . S
O1105 Tb1100 2.374 1_455 S
O1105 C1101 1.251 . S
C1106 O1110 1.275 . S
C1106 O1111 1.246 . S
O1107 C1101 1.263 . S
O1107 Tb1102 2.353 1_554 S
C1108 O1112 1.217 1_655 S
C1108 O1113 1.270 . S
C1109 O1114 1.250 . S
C1109 O1115 1.293 . S
O1110 Tb1102 2.427 1_554 S
O1110 C1106 1.275 . S
O1111 Tb1102 2.513 1_554 S
O1111 C1106 1.246 . S
O1112 Tb1102 2.453 . S
O1112 C1108 1.217 1_455 S
O1113 Tb1100 2.343 1_556 S
O1113 Tb1102 2.596 1_655 S
O1113 C1108 1.270 . S
O1114 Tb1102 2.374 1_655 S
O1114 C1109 1.250 . S
O1115 Tb1100 2.344 1_556 S
O1115 C1109 1.293 . S
C1116 O1117 1.275 . S
C1116 O1118 1.246 . S
O1117 Tb1100 2.427 1_556 S
O1117 C1116 1.275 . S
O1118 Tb1100 2.513 1_556 S
O1118 C1116 1.246 . S
C1119 O1103 1.245 1_455 S
C1119 O1104 1.259 . S
Tb1120 O1123 2.453 . S
Tb1120 O1124 2.596 . S
Tb1120 O1125 2.374 . S
Tb1120 O1133 2.343 1_556 S
Tb1120 O1135 2.348 1_556 S
Tb1120 O1137 2.427 1_556 S
Tb1120 O1138 2.513 1_556 S
C1121 O1125 1.251 . S
C1121 O1127 1.239 1_556 S
Tb1122 O1124 2.343 1_554 S
Tb1122 O1127 2.361 . S
Tb1122 O1130 2.427 1_554 S
Tb1122 O1131 2.513 1_554 S
Tb1122 O1132 2.453 . S
Tb1122 O1133 2.596 . S
Tb1122 O1134 2.374 . S
O1123 Tb1120 2.453 . S
O1123 C1139 1.245 . S
O1124 Tb1120 2.596 . S
O1124 Tb1122 2.343 1_556 S
O1124 C1139 1.259 . S
O1125 Tb1120 2.374 . S
O1125 C1121 1.251 . S
C1126 O1130 1.275 . S
C1126 O1131 1.246 . S
O1127 C1121 1.239 1_554 S
O1127 Tb1122 2.361 . S
C1128 O1132 1.245 . S
C1128 O1133 1.259 . S
C1129 O1134 1.250 . S
C1129 O1135 1.285 . S
O1130 Tb1122 2.427 1_556 S
O1130 C1126 1.275 . S
O1131 Tb1122 2.513 1_556 S
O1131 C1126 1.246 . S
O1132 Tb1122 2.453 . S
O1132 C1128 1.245 . S
O1133 Tb1120 2.343 1_554 S
O1133 Tb1122 2.596 . S
O1133 C1128 1.259 . S
O1134 Tb1122 2.374 . S
O1134 C1129 1.250 . S
O1135 Tb1120 2.348 1_554 S
O1135 C1129 1.285 . S
C1136 O1137 1.275 . S
C1136 O1138 1.246 . S
O1137 Tb1120 2.427 1_554 S
O1137 C1136 1.275 . S
O1138 Tb1120 2.513 1_554 S
O1138 C1136 1.246 . S
C1139 O1123 1.245 . S
C1139 O1124 1.259 . S
Tb1140 O1143 2.453 . S
Tb1140 O1144 2.596 . S
Tb1140 O1145 2.374 . S
Tb1140 O1153 2.343 . S
Tb1140 O1155 2.353 . S
Tb1140 O1157 2.427 . S
Tb1140 O1158 2.513 . S
C1141 O1145 1.251 . S
C1141 O1147 1.263 . S
Tb1142 O1144 2.343 . S
Tb1142 O1147 2.353 . S
Tb1142 O1150 2.427 . S
Tb1142 O1151 2.513 . S
Tb1142 O1152 2.453 . S
Tb1142 O1153 2.596 . S
Tb1142 O1154 2.374 . S
O1143 Tb1140 2.453 . S
O1143 C1159 1.245 . S
O1144 Tb1140 2.596 . S
O1144 Tb1142 2.343 . S
O1144 C1159 1.259 . S
O1145 Tb1140 2.374 . S
O1145 C1141 1.251 . S
C1146 O1150 1.275 . S
C1146 O1151 1.246 . S
O1147 C1141 1.263 . S
O1147 Tb1142 2.353 . S
C1148 O1152 1.245 . S
C1148 O1153 1.259 . S
C1149 O1154 1.250 . S
C1149 O1155 1.263 . S
O1150 Tb1142 2.427 . S
O1150 C1146 1.275 . S
O1151 Tb1142 2.513 . S
O1151 C1146 1.246 . S
O1152 Tb1142 2.453 . S
O1152 C1148 1.245 . S
O1153 Tb1140 2.343 . S
O1153 Tb1142 2.596 . S
O1153 C1148 1.259 . S
O1154 Tb1142 2.374 . S
O1154 C1149 1.250 . S
O1155 Tb1140 2.353 . S
O1155 C1149 1.263 . S
C1156 O1157 1.275 . S
C1156 O1158 1.246 . S
O1157 Tb1140 2.427 . S
O1157 C1156 1.275 . S
O1158 Tb1140 2.513 . S
O1158 C1156 1.246 . S
C1159 O1143 1.245 . S
C1159 O1144 1.259 . S
Tb1160 O1163 2.453 . S
Tb1160 O1164 2.596 . S
Tb1160 O1165 2.374 . S
Tb1160 O1173 2.343 . S
Tb1160 O1175 2.353 . S
Tb1160 O1177 2.427 . S
Tb1160 O1178 2.513 . S
C1161 O1165 1.251 . S
C1161 O1167 1.263 . S
Tb1162 O1164 2.343 . S
Tb1162 O1167 2.353 . S
Tb1162 O1170 2.427 . S
Tb1162 O1171 2.513 . S
Tb1162 O1172 2.453 . S
Tb1162 O1173 2.596 . S
Tb1162 O1174 2.374 . S
O1163 Tb1160 2.453 . S
O1163 C1179 1.245 . S
O1164 Tb1160 2.596 . S
O1164 Tb1162 2.343 . S
O1164 C1179 1.259 . S
O1165 Tb1160 2.374 . S
O1165 C1161 1.251 . S
C1166 O1170 1.275 . S
C1166 O1171 1.246 . S
O1167 C1161 1.263 . S
O1167 Tb1162 2.353 . S
C1168 O1172 1.245 . S
C1168 O1173 1.259 . S
C1169 O1174 1.250 . S
C1169 O1175 1.263 . S
O1170 Tb1162 2.427 . S
O1170 C1166 1.275 . S
O1171 Tb1162 2.513 . S
O1171 C1166 1.246 . S
O1172 Tb1162 2.453 . S
O1172 C1168 1.245 . S
O1173 Tb1160 2.343 . S
O1173 Tb1162 2.596 . S
O1173 C1168 1.259 . S
O1174 Tb1162 2.374 . S
O1174 C1169 1.250 . S
O1175 Tb1160 2.353 . S
O1175 C1169 1.263 . S
C1176 O1177 1.275 . S
C1176 O1178 1.246 . S
O1177 Tb1160 2.427 . S
O1177 C1176 1.275 . S
O1178 Tb1160 2.513 . S
O1178 C1176 1.246 . S
C1179 O1163 1.245 . S
C1179 O1164 1.259 . S
Tb1180 O1183 2.453 . S
Tb1180 O1184 2.596 . S
Tb1180 O1185 2.374 . S
Tb1180 O1193 2.343 . S
Tb1180 O1195 2.353 . S
Tb1180 O1197 2.427 . S
Tb1180 O1198 2.513 . S
C1181 O1185 1.251 . S
C1181 O1187 1.263 . S
Tb1182 O1184 2.343 . S
Tb1182 O1187 2.353 . S
Tb1182 O1190 2.427 . S
Tb1182 O1191 2.513 . S
Tb1182 O1192 2.453 . S
Tb1182 O1193 2.596 . S
Tb1182 O1194 2.374 . S
O1183 Tb1180 2.453 . S
O1183 C1199 1.245 . S
O1184 Tb1180 2.596 . S
O1184 Tb1182 2.343 . S
O1184 C1199 1.259 . S
O1185 Tb1180 2.374 . S
O1185 C1181 1.251 . S
C1186 O1190 1.275 . S
C1186 O1191 1.246 . S
O1187 C1181 1.263 . S
O1187 Tb1182 2.353 . S
C1188 O1192 1.245 . S
C1188 O1193 1.259 . S
C1189 O1194 1.250 . S
C1189 O1195 1.263 . S
O1190 Tb1182 2.427 . S
O1190 C1186 1.275 . S
O1191 Tb1182 2.513 . S
O1191 C1186 1.246 . S
O1192 Tb1182 2.453 . S
O1192 C1188 1.245 . S
O1193 Tb1180 2.343 . S
O1193 Tb1182 2.596 . S
O1193 C1188 1.259 . S
O1194 Tb1182 2.374 . S
O1194 C1189 1.250 . S
O1195 Tb1180 2.353 . S
O1195 C1189 1.263 . S
C1196 O1197 1.275 . S
C1196 O1198 1.246 . S
O1197 Tb1180 2.427 . S
O1197 C1196 1.275 . S
O1198 Tb1180 2.513 . S
O1198 C1196 1.246 . S
C1199 O1183 1.245 . S
C1199 O1184 1.259 . S
Tb1200 O1203 2.453 . S
Tb1200 O1204 2.596 . S
Tb1200 O1205 2.374 . S
Tb1200 O1213 2.343 . S
Tb1200 O1215 2.353 . S
Tb1200 O1217 2.427 . S
Tb1200 O1218 2.513 . S
C1201 O1205 1.251 . S
C1201 O1207 1.263 . S
Tb1202 O1204 2.343 . S
Tb1202 O1207 2.353 . S
Tb1202 O1210 2.427 . S
Tb1202 O1211 2.513 . S
Tb1202 O1212 2.453 . S
Tb1202 O1213 2.596 . S
Tb1202 O1214 2.374 . S
O1203 Tb1200 2.453 . S
O1203 C1219 1.245 . S
O1204 Tb1200 2.596 . S
O1204 Tb1202 2.343 . S
O1204 C1219 1.259 . S
O1205 Tb1200 2.374 . S
O1205 C1201 1.251 . S
C1206 O1210 1.275 . S
C1206 O1211 1.246 . S
O1207 C1201 1.263 . S
O1207 Tb1202 2.353 . S
C1208 O1212 1.245 . S
C1208 O1213 1.259 . S
C1209 O1214 1.250 . S
C1209 O1215 1.263 . S
O1210 Tb1202 2.427 . S
O1210 C1206 1.275 . S
O1211 Tb1202 2.513 . S
O1211 C1206 1.246 . S
O1212 Tb1202 2.453 . S
O1212 C1208 1.245 . S
O1213 Tb1200 2.343 . S
O1213 Tb1202 2.596 . S
O1213 C1208 1.259 . S
O1214 Tb1202 2.374 . S
O1214 C1209 1.250 . S
O1215 Tb1200 2.353 . S
O1215 C1209 1.263 . S
C1216 O1217 1.275 . S
C1216 O1218 1.246 . S
O1217 Tb1200 2.427 . S
O1217 C1216 1.275 . S
O1218 Tb1200 2.513 . S
O1218 C1216 1.246 . S
C1219 O1203 1.245 . S
C1219 O1204 1.259 . S
Tb1220 O1223 2.453 . S
Tb1220 O1224 2.596 . S
Tb1220 O1225 2.374 . S
Tb1220 O1233 2.343 . S
Tb1220 O1235 2.353 . S
Tb1220 O1237 2.427 . S
Tb1220 O1238 2.513 . S
C1221 O1225 1.251 . S
C1221 O1227 1.263 . S
Tb1222 O1224 2.343 . S
Tb1222 O1227 2.353 . S
Tb1222 O1230 2.427 . S
Tb1222 O1231 2.513 . S
Tb1222 O1232 2.453 . S
Tb1222 O1233 2.596 . S
Tb1222 O1234 2.374 . S
O1223 Tb1220 2.453 . S
O1223 C1239 1.245 . S
O1224 Tb1220 2.596 . S
O1224 Tb1222 2.343 . S
O1224 C1239 1.259 . S
O1225 Tb1220 2.374 . S
O1225 C1221 1.251 . S
C1226 O1230 1.275 . S
C1226 O1231 1.246 . S
O1227 C1221 1.263 . S
O1227 Tb1222 2.353 . S
C1228 O1232 1.245 . S
C1228 O1233 1.259 . S
C1229 O1234 1.250 . S
C1229 O1235 1.263 . S
O1230 Tb1222 2.427 . S
O1230 C1226 1.275 . S
O1231 Tb1222 2.513 . S
O1231 C1226 1.246 . S
O1232 Tb1222 2.453 . S
O1232 C1228 1.245 . S
O1233 Tb1220 2.343 . S
O1233 Tb1222 2.596 . S
O1233 C1228 1.259 . S
O1234 Tb1222 2.374 . S
O1234 C1229 1.250 . S
O1235 Tb1220 2.353 . S
O1235 C1229 1.263 . S
C1236 O1237 1.275 . S
C1236 O1238 1.246 . S
O1237 Tb1220 2.427 . S
O1237 C1236 1.275 . S
O1238 Tb1220 2.513 . S
O1238 C1236 1.246 . S
C1239 O1223 1.245 . S
C1239 O1224 1.259 . S
Tb1240 O1243 2.453 . S
Tb1240 O1244 2.596 . S
Tb1240 O1245 2.374 . S
Tb1240 O1253 2.343 . S
Tb1240 O1255 2.353 . S
Tb1240 O1257 2.427 . S
Tb1240 O1258 2.513 . S
C1241 O1245 1.251 . S
C1241 O1247 1.263 . S
Tb1242 O1244 2.343 . S
Tb1242 O1247 2.353 . S
Tb1242 O1250 2.427 . S
Tb1242 O1251 2.513 . S
Tb1242 O1252 2.453 . S
Tb1242 O1253 2.596 . S
Tb1242 O1254 2.374 . S
O1243 Tb1240 2.453 . S
O1243 C1259 1.245 . S
O1244 Tb1240 2.596 . S
O1244 Tb1242 2.343 . S
O1244 C1259 1.259 . S
O1245 Tb1240 2.374 . S
O1245 C1241 1.251 . S
C1246 O1250 1.275 . S
C1246 O1251 1.246 . S
O1247 C1241 1.263 . S
O1247 Tb1242 2.353 . S
C1248 O1252 1.245 . S
C1248 O1253 1.259 . S
C1249 O1254 1.250 . S
C1249 O1255 1.263 . S
O1250 Tb1242 2.427 . S
O1250 C1246 1.275 . S
O1251 Tb1242 2.513 . S
O1251 C1246 1.246 . S
O1252 Tb1242 2.453 . S
O1252 C1248 1.245 . S
O1253 Tb1240 2.343 . S
O1253 Tb1242 2.596 . S
O1253 C1248 1.259 . S
O1254 Tb1242 2.374 . S
O1254 C1249 1.250 . S
O1255 Tb1240 2.353 . S
O1255 C1249 1.263 . S
C1256 O1257 1.275 . S
C1256 O1258 1.246 . S
O1257 Tb1240 2.427 . S
O1257 C1256 1.275 . S
O1258 Tb1240 2.513 . S
O1258 C1256 1.246 . S
C1259 O1243 1.245 . S
C1259 O1244 1.259 . S
C1260 C1261 1.391 . S
C1260 C1262 1.394 . S
C1260 H1276 0.931 . S
C1261 C1260 1.391 . S
C1261 C1265 1.376 . S
C1262 C1260 1.394 . S
C1262 C1263 1.369 . S
C1262 C1266 1.531 . S
C1263 C1262 1.369 . S
C1263 C1264 1.410 . S
C1263 C1271 1.503 . S
C1264 C1263 1.410 . S
C1264 C1265 1.392 . S
C1264 C1267 1.511 . S
C1265 C1261 1.376 . S
C1265 C1264 1.392 . S
C1265 H1277 0.929 . S
C1266 C1262 1.531 . S
C1266 H1278 0.960 . S
C1266 H1279 0.962 . S
C1266 H1280 0.960 . S
C1267 C1264 1.511 . S
C1267 H1281 0.961 . S
C1267 H1282 0.961 . S
C1267 H1283 0.961 . S
C1268 C1269 1.370 . S
C1268 C1270 1.363 . S
C1268 H1284 0.931 . S
C1269 C1268 1.370 . S
C1269 C1273 1.408 . S
C1270 C1268 1.363 . S
C1270 C1271 1.370 . S
C1270 C1274 1.524 . S
C1271 C1263 1.503 . S
C1271 C1270 1.370 . S
C1271 C1272 1.403 . S
C1272 C1271 1.403 . S
C1272 C1273 1.404 . S
C1272 C1275 1.539 . S
C1273 C1269 1.408 . S
C1273 C1272 1.404 . S
C1273 H1285 0.930 . S
C1274 C1270 1.524 . S
C1274 H1286 0.956 . S
C1274 H1287 0.961 . S
C1274 H1288 0.961 . S
C1275 C1272 1.539 . S
C1275 H1289 0.958 . S
C1275 H1290 0.961 . S
C1275 H1291 0.960 . S
H1276 C1260 0.931 . S
H1277 C1265 0.929 . S
H1278 C1266 0.960 . S
H1279 C1266 0.962 . S
H1280 C1266 0.960 . S
H1281 C1267 0.961 . S
H1282 C1267 0.961 . S
H1283 C1267 0.961 . S
H1284 C1268 0.931 . S
H1285 C1273 0.930 . S
H1286 C1274 0.956 . S
H1287 C1274 0.961 . S
H1288 C1274 0.961 . S
H1289 C1275 0.958 . S
H1290 C1275 0.961 . S
H1291 C1275 0.960 . S
C1292 C1293 1.391 . S
C1292 C1294 1.394 . S
C1292 H1308 0.931 . S
C1293 C1292 1.391 . S
C1293 C1297 1.376 . S
C1294 C1292 1.394 . S
C1294 C1295 1.369 . S
C1294 C1298 1.531 . S
C1295 C1294 1.369 . S
C1295 C1296 1.410 . S
C1295 C1303 1.503 . S
C1296 C1295 1.410 . S
C1296 C1297 1.392 . S
C1296 C1299 1.511 . S
C1297 C1293 1.376 . S
C1297 C1296 1.392 . S
C1297 H1309 0.929 . S
C1298 C1294 1.531 . S
C1298 H1310 0.960 . S
C1298 H1311 0.962 . S
C1298 H1312 0.960 . S
C1299 C1296 1.511 . S
C1299 H1313 0.961 . S
C1299 H1314 0.961 . S
C1299 H1315 0.961 . S
C1300 C1301 1.370 . S
C1300 C1302 1.363 . S
C1300 H1316 0.931 . S
C1301 C1300 1.370 . S
C1301 C1305 1.408 . S
C1302 C1300 1.363 . S
C1302 C1303 1.370 . S
C1302 C1306 1.524 . S
C1303 C1295 1.503 . S
C1303 C1302 1.370 . S
C1303 C1304 1.403 . S
C1304 C1303 1.403 . S
C1304 C1305 1.404 . S
C1304 C1307 1.539 . S
C1305 C1301 1.408 . S
C1305 C1304 1.404 . S
C1305 H1317 0.930 . S
C1306 C1302 1.524 . S
C1306 H1318 0.956 . S
C1306 H1319 0.961 . S
C1306 H1320 0.961 . S
C1307 C1304 1.539 . S
C1307 H1321 0.958 . S
C1307 H1322 0.961 . S
C1307 H1323 0.960 . S
H1308 C1292 0.931 . S
H1309 C1297 0.929 . S
H1310 C1298 0.960 . S
H1311 C1298 0.962 . S
H1312 C1298 0.960 . S
H1313 C1299 0.961 . S
H1314 C1299 0.961 . S
H1315 C1299 0.961 . S
H1316 C1300 0.931 . S
H1317 C1305 0.930 . S
H1318 C1306 0.956 . S
H1319 C1306 0.961 . S
H1320 C1306 0.961 . S
H1321 C1307 0.958 . S
H1322 C1307 0.961 . S
H1323 C1307 0.960 . S
C1324 C1325 1.391 . S
C1324 C1326 1.394 . S
C1324 H1340 0.931 . S
C1325 C1324 1.391 . S
C1325 C1329 1.376 . S
C1326 C1324 1.394 . S
C1326 C1327 1.369 . S
C1326 C1330 1.531 . S
C1327 C1326 1.369 . S
C1327 C1328 1.410 . S
C1327 C1335 1.503 . S
C1328 C1327 1.410 . S
C1328 C1329 1.392 . S
C1328 C1331 1.511 . S
C1329 C1325 1.376 . S
C1329 C1328 1.392 . S
C1329 H1341 0.929 . S
C1330 C1326 1.531 . S
C1330 H1342 0.960 . S
C1330 H1343 0.962 . S
C1330 H1344 0.960 . S
C1331 C1328 1.511 . S
C1331 H1345 0.961 . S
C1331 H1346 0.961 . S
C1331 H1347 0.961 . S
C1332 C1333 1.370 . S
C1332 C1334 1.363 . S
C1332 H1348 0.931 . S
C1333 C1332 1.370 . S
C1333 C1337 1.408 . S
C1334 C1332 1.363 . S
C1334 C1335 1.370 . S
C1334 C1338 1.524 . S
C1335 C1327 1.503 . S
C1335 C1334 1.370 . S
C1335 C1336 1.403 . S
C1336 C1335 1.403 . S
C1336 C1337 1.404 . S
C1336 C1339 1.539 1_554 S
C1337 C1333 1.408 . S
C1337 C1336 1.404 . S
C1337 H1349 0.930 1_554 S
C1338 C1334 1.524 . S
C1338 H1350 0.956 . S
C1338 H1351 0.961 . S
C1338 H1352 0.961 . S
C1339 C1336 1.539 1_556 S
C1339 H1353 0.958 . S
C1339 H1354 0.961 . S
C1339 H1355 0.960 1_556 S
H1340 C1324 0.931 . S
H1341 C1329 0.929 . S
H1342 C1330 0.960 . S
H1343 C1330 0.962 . S
H1344 C1330 0.960 . S
H1345 C1331 0.961 . S
H1346 C1331 0.961 . S
H1347 C1331 0.961 . S
H1348 C1332 0.931 . S
H1349 C1337 0.930 1_556 S
H1350 C1338 0.956 . S
H1351 C1338 0.961 . S
H1352 C1338 0.961 . S
H1353 C1339 0.958 . S
H1354 C1339 0.961 . S
H1355 C1339 0.960 1_554 S
C1356 C1357 1.391 . S
C1356 C1358 1.394 . S
C1356 H1372 0.931 . S
C1357 C1356 1.391 . S
C1357 C1361 1.376 . S
C1358 C1356 1.394 . S
C1358 C1359 1.369 . S
C1358 C1362 1.531 . S
C1359 C1358 1.369 . S
C1359 C1360 1.410 . S
C1359 C1367 1.503 . S
C1360 C1359 1.410 . S
C1360 C1361 1.392 . S
C1360 C1363 1.511 . S
C1361 C1357 1.376 . S
C1361 C1360 1.392 . S
C1361 H1373 0.929 . S
C1362 C1358 1.531 . S
C1362 H1374 0.960 . S
C1362 H1375 0.962 . S
C1362 H1376 0.960 . S
C1363 C1360 1.511 . S
C1363 H1377 0.961 . S
C1363 H1378 0.961 . S
C1363 H1379 0.961 . S
C1364 C1365 1.370 . S
C1364 C1366 1.363 . S
C1364 H1380 0.914 1_556 S
C1365 C1364 1.370 . S
C1365 C1369 1.408 . S
C1366 C1364 1.363 . S
C1366 C1367 1.370 . S
C1366 C1370 1.524 . S
C1367 C1359 1.503 . S
C1367 C1366 1.370 . S
C1367 C1368 1.403 . S
C1368 C1367 1.403 . S
C1368 C1369 1.404 . S
C1368 C1371 1.539 . S
C1369 C1365 1.408 . S
C1369 C1368 1.404 . S
C1369 H1381 0.930 . S
C1370 C1366 1.524 . S
C1370 H1382 0.956 . S
C1370 H1383 0.961 . S
C1370 H1384 0.961 1_556 S
C1371 C1368 1.539 . S
C1371 H1385 0.958 . S
C1371 H1386 0.961 . S
C1371 H1387 0.960 . S
H1372 C1356 0.931 . S
H1373 C1361 0.929 . S
H1374 C1362 0.960 . S
H1375 C1362 0.962 . S
H1376 C1362 0.960 . S
H1377 C1363 0.961 . S
H1378 C1363 0.961 . S
H1379 C1363 0.961 . S
H1380 C1364 0.914 1_554 S
H1381 C1369 0.930 . S
H1382 C1370 0.956 . S
H1383 C1370 0.961 . S
H1384 C1370 0.961 1_554 S
H1385 C1371 0.958 . S
H1386 C1371 0.961 . S
H1387 C1371 0.960 . S
C1388 C1389 1.391 . S
C1388 C1390 1.394 . S
C1388 H1404 0.931 . S
C1389 C1388 1.391 . S
C1389 C1393 1.376 . S
C1390 C1388 1.394 . S
C1390 C1391 1.369 . S
C1390 C1394 1.531 . S
C1391 C1390 1.369 . S
C1391 C1392 1.410 . S
C1391 C1399 1.503 . S
C1392 C1391 1.410 . S
C1392 C1393 1.392 . S
C1392 C1395 1.511 . S
C1393 C1389 1.376 . S
C1393 C1392 1.392 . S
C1393 H1405 0.929 . S
C1394 C1390 1.531 . S
C1394 H1406 0.960 . S
C1394 H1407 0.962 . S
C1394 H1408 0.960 . S
C1395 C1392 1.511 . S
C1395 H1409 0.961 . S
C1395 H1410 0.961 . S
C1395 H1411 0.961 . S
C1396 C1397 1.370 . S
C1396 C1398 1.363 . S
C1396 H1412 0.931 . S
C1397 C1396 1.370 . S
C1397 C1401 1.408 . S
C1398 C1396 1.363 . S
C1398 C1399 1.370 . S
C1398 C1402 1.524 . S
C1399 C1391 1.503 . S
C1399 C1398 1.370 . S
C1399 C1400 1.403 . S
C1400 C1399 1.403 . S
C1400 C1401 1.404 . S
C1400 C1403 1.539 . S
C1401 C1397 1.408 . S
C1401 C1400 1.404 . S
C1401 H1413 0.930 . S
C1402 C1398 1.524 . S
C1402 H1414 0.956 . S
C1402 H1415 0.961 . S
C1402 H1416 0.961 . S
C1403 C1400 1.539 . S
C1403 H1417 0.958 . S
C1403 H1418 0.961 . S
C1403 H1419 0.960 . S
H1404 C1388 0.931 . S
H1405 C1393 0.929 . S
H1406 C1394 0.960 . S
H1407 C1394 0.962 . S
H1408 C1394 0.960 . S
H1409 C1395 0.961 . S
H1410 C1395 0.961 . S
H1411 C1395 0.961 . S
H1412 C1396 0.931 . S
H1413 C1401 0.930 . S
H1414 C1402 0.956 . S
H1415 C1402 0.961 . S
H1416 C1402 0.961 . S
H1417 C1403 0.958 . S
H1418 C1403 0.961 . S
H1419 C1403 0.960 . S
C1420 C1421 1.391 . S
C1420 C1422 1.394 . S
C1420 H1436 0.931 . S
C1421 C1420 1.391 . S
C1421 C1425 1.376 . S
C1422 C1420 1.394 . S
C1422 C1423 1.369 . S
C1422 C1426 1.531 . S
C1423 C1422 1.369 . S
C1423 C1424 1.410 . S
C1423 C1431 1.503 . S
C1424 C1423 1.410 . S
C1424 C1425 1.392 . S
C1424 C1427 1.511 . S
C1425 C1421 1.376 . S
C1425 C1424 1.392 . S
C1425 H1437 0.929 . S
C1426 C1422 1.531 . S
C1426 H1438 0.960 . S
C1426 H1439 0.962 . S
C1426 H1440 0.960 . S
C1427 C1424 1.511 . S
C1427 H1441 0.961 . S
C1427 H1442 0.961 . S
C1427 H1443 0.961 . S
C1428 C1429 1.370 . S
C1428 C1430 1.363 . S
C1428 H1444 0.931 . S
C1429 C1428 1.370 . S
C1429 C1433 1.448 . S
C1430 C1428 1.363 . S
C1430 C1431 1.370 . S
C1430 C1434 1.524 . S
C1431 C1423 1.503 . S
C1431 C1430 1.370 . S
C1431 C1432 1.403 . S
C1432 C1431 1.403 . S
C1432 C1433 1.422 . S
C1432 C1435 1.539 1_556 S
C1433 C1429 1.448 . S
C1433 C1432 1.422 . S
C1433 H1445 0.875 1_556 S
C1434 C1430 1.524 . S
C1434 H1446 0.956 . S
C1434 H1447 0.961 . S
C1434 H1448 0.961 . S
C1435 C1432 1.539 1_554 S
C1435 H1449 0.958 . S
C1435 H1450 0.961 . S
C1435 H1451 0.960 . S
H1436 C1420 0.931 . S
H1437 C1425 0.929 . S
H1438 C1426 0.960 . S
H1439 C1426 0.962 . S
H1440 C1426 0.960 . S
H1441 C1427 0.961 . S
H1442 C1427 0.961 . S
H1443 C1427 0.961 . S
H1444 C1428 0.931 . S
H1445 C1433 0.875 1_554 S
H1446 C1434 0.956 . S
H1447 C1434 0.961 . S
H1448 C1434 0.961 . S
H1449 C1435 0.958 . S
H1450 C1435 0.961 . S
H1451 C1435 0.960 . S
C1452 C1453 1.391 . S
C1452 C1454 1.394 . S
C1452 H1468 0.931 . S
C1453 C1452 1.391 . S
C1453 C1457 1.376 . S
C1454 C1452 1.394 . S
C1454 C1455 1.369 . S
C1454 C1458 1.531 . S
C1455 C1454 1.369 . S
C1455 C1456 1.410 . S
C1455 C1463 1.503 . S
C1456 C1455 1.410 . S
C1456 C1457 1.392 . S
C1456 C1459 1.511 . S
C1457 C1453 1.376 . S
C1457 C1456 1.392 . S
C1457 H1469 0.929 . S
C1458 C1454 1.531 . S
C1458 H1470 0.960 . S
C1458 H1471 0.962 . S
C1458 H1472 0.960 . S
C1459 C1456 1.511 . S
C1459 H1473 0.961 . S
C1459 H1474 0.961 . S
C1459 H1475 0.961 . S
C1460 C1461 1.370 . S
C1460 C1462 1.363 . S
C1460 H1476 0.931 . S
C1461 C1460 1.370 . S
C1461 C1465 1.408 . S
C1462 C1460 1.363 . S
C1462 C1463 1.370 . S
C1462 C1466 1.524 . S
C1463 C1455 1.503 . S
C1463 C1462 1.370 . S
C1463 C1464 1.403 . S
C1464 C1463 1.403 . S
C1464 C1465 1.404 . S
C1464 C1467 1.539 . S
C1465 C1461 1.408 . S
C1465 C1464 1.404 . S
C1465 H1477 0.930 . S
C1466 C1462 1.524 . S
C1466 H1478 0.956 . S
C1466 H1479 0.961 . S
C1466 H1480 0.961 1_556 S
C1467 C1464 1.539 . S
C1467 H1481 0.958 . S
C1467 H1482 0.961 . S
C1467 H1483 0.960 . S
H1468 C1452 0.931 . S
H1469 C1457 0.929 . S
H1470 C1458 0.960 . S
H1471 C1458 0.962 . S
H1472 C1458 0.960 . S
H1473 C1459 0.961 . S
H1474 C1459 0.961 . S
H1475 C1459 0.961 . S
H1476 C1460 0.931 . S
H1477 C1465 0.930 . S
H1478 C1466 0.956 . S
H1479 C1466 0.961 . S
H1480 C1466 0.961 1_554 S
H1481 C1467 0.958 . S
H1482 C1467 0.961 . S
H1483 C1467 0.960 . S
C1484 C1485 1.391 . S
C1484 C1486 1.394 . S
C1484 H1500 0.931 . S
C1485 C1484 1.391 . S
C1485 C1489 1.376 . S
C1486 C1484 1.394 . S
C1486 C1487 1.369 . S
C1486 C1490 1.531 . S
C1487 C1486 1.369 . S
C1487 C1488 1.410 . S
C1487 C1495 1.503 . S
C1488 C1487 1.410 . S
C1488 C1489 1.392 . S
C1488 C1491 1.511 . S
C1489 C1485 1.376 . S
C1489 C1488 1.392 . S
C1489 H1501 0.929 . S
C1490 C1486 1.531 . S
C1490 H1502 0.960 . S
C1490 H1503 0.962 . S
C1490 H1504 0.960 . S
C1491 C1488 1.511 . S
C1491 H1505 0.961 . S
C1491 H1506 0.961 . S
C1491 H1507 0.961 . S
C1492 C1493 1.370 . S
C1492 C1494 1.363 . S
C1492 H1508 0.931 . S
C1493 C1492 1.370 . S
C1493 C1497 1.408 . S
C1494 C1492 1.363 . S
C1494 C1495 1.370 . S
C1494 C1498 1.524 . S
C1495 C1487 1.503 . S
C1495 C1494 1.370 . S
C1495 C1496 1.403 . S
C1496 C1495 1.403 . S
C1496 C1497 1.404 . S
C1496 C1499 1.539 . S
C1497 C1493 1.408 . S
C1497 C1496 1.404 . S
C1497 H1509 0.930 . S
C1498 C1494 1.524 . S
C1498 H1510 0.956 . S
C1498 H1511 0.961 . S
C1498 H1512 0.961 . S
C1499 C1496 1.539 . S
C1499 H1513 0.958 . S
C1499 H1514 0.961 . S
C1499 H1515 0.960 . S
H1500 C1484 0.931 . S
H1501 C1489 0.929 . S
H1502 C1490 0.960 . S
H1503 C1490 0.962 . S
H1504 C1490 0.960 . S
H1505 C1491 0.961 . S
H1506 C1491 0.961 . S
H1507 C1491 0.961 . S
H1508 C1492 0.931 . S
H1509 C1497 0.930 . S
H1510 C1498 0.956 . S
H1511 C1498 0.961 . S
H1512 C1498 0.961 . S
H1513 C1499 0.958 . S
H1514 C1499 0.961 . S
H1515 C1499 0.960 . S
C1516 C1517 1.391 . S
C1516 C1518 1.394 . S
C1516 H1532 0.931 . S
C1517 C1516 1.391 . S
C1517 C1521 1.376 . S
C1518 C1516 1.394 . S
C1518 C1519 1.369 . S
C1518 C1522 1.531 . S
C1519 C1518 1.369 . S
C1519 C1520 1.410 . S
C1519 C1527 1.503 . S
C1520 C1519 1.410 . S
C1520 C1521 1.392 . S
C1520 C1523 1.511 . S
C1521 C1517 1.376 . S
C1521 C1520 1.392 . S
C1521 H1533 0.929 . S
C1522 C1518 1.531 . S
C1522 H1534 0.960 1_556 S
C1522 H1535 0.962 . S
C1522 H1536 0.960 1_556 S
C1523 C1520 1.511 . S
C1523 H1537 0.961 . S
C1523 H1538 0.961 . S
C1523 H1539 0.961 . S
C1524 C1525 1.370 . S
C1524 C1526 1.363 . S
C1524 H1540 0.931 . S
C1525 C1524 1.370 . S
C1525 C1529 1.408 . S
C1526 C1524 1.363 . S
C1526 C1527 1.370 . S
C1526 C1530 1.524 . S
C1527 C1519 1.503 . S
C1527 C1526 1.370 . S
C1527 C1528 1.403 . S
C1528 C1527 1.403 . S
C1528 C1529 1.404 . S
C1528 C1531 1.539 . S
C1529 C1525 1.408 . S
C1529 C1528 1.404 . S
C1529 H1541 0.930 1_556 S
C1530 C1526 1.524 . S
C1530 H1542 0.956 . S
C1530 H1543 0.961 . S
C1530 H1544 0.961 . S
C1531 C1528 1.539 . S
C1531 H1545 0.958 1_556 S
C1531 H1546 0.960 1_556 S
C1531 H1547 0.960 . S
H1532 C1516 0.931 . S
H1533 C1521 0.929 . S
H1534 C1522 0.960 1_554 S
H1535 C1522 0.962 . S
H1536 C1522 0.960 1_554 S
H1537 C1523 0.961 . S
H1538 C1523 0.961 . S
H1539 C1523 0.961 . S
H1540 C1524 0.931 . S
H1541 C1529 0.930 1_554 S
H1542 C1530 0.956 . S
H1543 C1530 0.961 . S
H1544 C1530 0.961 . S
H1545 C1531 0.958 1_554 S
H1546 C1531 0.960 1_554 S
H1547 C1531 0.960 . S
C1548 C1549 1.391 . S
C1548 C1550 1.394 . S
C1548 H1564 0.931 . S
C1549 C1548 1.391 . S
C1549 C1553 1.376 . S
C1550 C1548 1.394 . S
C1550 C1551 1.369 . S
C1550 C1554 1.531 . S
C1551 C1550 1.369 . S
C1551 C1552 1.410 . S
C1551 C1559 1.503 . S
C1552 C1551 1.410 . S
C1552 C1553 1.392 . S
C1552 C1555 1.511 . S
C1553 C1549 1.376 . S
C1553 C1552 1.392 . S
C1553 H1565 0.929 . S
C1554 C1550 1.531 . S
C1554 H1566 0.960 . S
C1554 H1567 0.962 . S
C1554 H1568 0.960 . S
C1555 C1552 1.511 . S
C1555 H1569 0.961 . S
C1555 H1570 0.961 . S
C1555 H1571 0.961 . S
C1556 C1557 1.370 . S
C1556 C1558 1.363 . S
C1556 H1572 0.931 . S
C1557 C1556 1.370 . S
C1557 C1561 1.408 . S
C1558 C1556 1.363 . S
C1558 C1559 1.370 . S
C1558 C1562 1.524 . S
C1559 C1551 1.503 . S
C1559 C1558 1.370 . S
C1559 C1560 1.403 . S
C1560 C1559 1.403 . S
C1560 C1561 1.404 . S
C1560 C1563 1.539 . S
C1561 C1557 1.408 . S
C1561 C1560 1.404 . S
C1561 H1573 0.930 1_554 S
C1562 C1558 1.524 . S
C1562 H1574 0.956 . S
C1562 H1575 0.961 . S
C1562 H1576 0.961 . S
C1563 C1560 1.539 . S
C1563 H1577 0.958 1_554 S
C1563 H1578 0.961 1_554 S
C1563 H1579 0.960 . S
H1564 C1548 0.931 . S
H1565 C1553 0.929 . S
H1566 C1554 0.960 . S
H1567 C1554 0.962 . S
H1568 C1554 0.960 . S
H1569 C1555 0.961 . S
H1570 C1555 0.961 . S
H1571 C1555 0.961 . S
H1572 C1556 0.931 . S
H1573 C1561 0.930 1_556 S
H1574 C1562 0.956 . S
H1575 C1562 0.961 . S
H1576 C1562 0.961 . S
H1577 C1563 0.958 1_556 S
H1578 C1563 0.961 1_556 S
H1579 C1563 0.960 . S
C1580 C1581 1.391 . S
C1580 C1582 1.394 . S
C1580 H1596 0.931 . S
C1581 C1580 1.391 . S
C1581 C1585 1.376 . S
C1582 C1580 1.394 . S
C1582 C1583 1.369 . S
C1582 C1586 1.531 . S
C1583 C1582 1.369 . S
C1583 C1584 1.410 . S
C1583 C1591 1.503 . S
C1584 C1583 1.410 . S
C1584 C1585 1.392 . S
C1584 C1587 1.511 . S
C1585 C1581 1.376 . S
C1585 C1584 1.392 . S
C1585 H1597 0.929 . S
C1586 C1582 1.531 . S
C1586 H1598 0.960 . S
C1586 H1599 0.962 . S
C1586 H1600 0.960 . S
C1587 C1584 1.511 . S
C1587 H1601 0.961 . S
C1587 H1602 0.961 . S
C1587 H1603 0.961 . S
C1588 C1589 1.370 . S
C1588 C1590 1.363 . S
C1588 H1604 0.931 . S
C1589 C1588 1.370 . S
C1589 C1593 1.408 . S
C1590 C1588 1.363 . S
C1590 C1591 1.370 . S
C1590 C1594 1.524 . S
C1591 C1583 1.503 . S
C1591 C1590 1.370 . S
C1591 C1592 1.403 . S
C1592 C1591 1.403 . S
C1592 C1593 1.404 . S
C1592 C1595 1.539 . S
C1593 C1589 1.408 . S
C1593 C1592 1.404 . S
C1593 H1605 0.930 . S
C1594 C1590 1.524 . S
C1594 H1606 0.956 . S
C1594 H1607 0.961 . S
C1594 H1608 0.961 . S
C1595 C1592 1.539 . S
C1595 H1609 0.958 . S
C1595 H1610 0.961 . S
C1595 H1611 0.960 . S
H1596 C1580 0.931 . S
H1597 C1585 0.929 . S
H1598 C1586 0.960 . S
H1599 C1586 0.962 . S
H1600 C1586 0.960 . S
H1601 C1587 0.961 . S
H1602 C1587 0.961 . S
H1603 C1587 0.961 . S
H1604 C1588 0.931 . S
H1605 C1593 0.930 . S
H1606 C1594 0.956 . S
H1607 C1594 0.961 . S
H1608 C1594 0.961 . S
H1609 C1595 0.958 . S
H1610 C1595 0.961 . S
H1611 C1595 0.960 . S
C1612 C1613 1.391 . S
C1612 C1614 1.394 . S
C1612 H1628 0.931 . S
C1613 C1612 1.391 . S
C1613 C1617 1.376 . S
C1614 C1612 1.394 . S
C1614 C1615 1.369 . S
C1614 C1618 1.531 . S
C1615 C1614 1.369 . S
C1615 C1616 1.410 . S
C1615 C1623 1.503 . S
C1616 C1615 1.410 . S
C1616 C1617 1.392 . S
C1616 C1619 1.511 . S
C1617 C1613 1.376 . S
C1617 C1616 1.392 . S
C1617 H1629 0.929 . S
C1618 C1614 1.531 . S
C1618 H1630 0.960 . S
C1618 H1631 1.002 . S
C1618 H1632 0.960 . S
C1619 C1616 1.511 . S
C1619 H1633 0.961 . S
C1619 H1634 0.961 . S
C1619 H1635 0.961 . S
C1620 C1621 1.370 . S
C1620 C1622 1.363 . S
C1620 H1636 0.931 . S
C1621 C1620 1.370 . S
C1621 C1625 1.408 . S
C1622 C1620 1.363 . S
C1622 C1623 1.370 . S
C1622 C1626 1.524 . S
C1623 C1615 1.503 . S
C1623 C1622 1.370 . S
C1623 C1624 1.403 . S
C1624 C1623 1.403 . S
C1624 C1625 1.404 . S
C1624 C1627 1.539 . S
C1625 C1621 1.408 . S
C1625 C1624 1.404 . S
C1625 H1637 0.930 . S
C1626 C1622 1.524 . S
C1626 H1638 0.956 . S
C1626 H1639 0.961 . S
C1626 H1640 0.961 . S
C1627 C1624 1.539 . S
C1627 H1641 0.958 . S
C1627 H1642 0.961 . S
C1627 H1643 0.960 . S
H1628 C1612 0.931 . S
H1629 C1617 0.929 . S
H1630 C1618 0.960 . S
H1631 C1618 1.002 . S
H1632 C1618 0.960 . S
H1633 C1619 0.961 . S
H1634 C1619 0.961 . S
H1635 C1619 0.961 . S
H1636 C1620 0.931 . S
H1637 C1625 0.930 . S
H1638 C1626 0.956 . S
H1639 C1626 0.961 . S
H1640 C1626 0.961 . S
H1641 C1627 0.958 . S
H1642 C1627 0.961 . S
H1643 C1627 0.960 . S
C1644 C1645 1.391 . S
C1644 C1646 1.394 1_655 S
C1644 H1660 0.931 . S
C1645 C1644 1.391 . S
C1645 C1649 1.376 . S
C1646 C1644 1.394 1_455 S
C1646 C1647 1.369 . S
C1646 C1650 1.531 . S
C1647 C1646 1.369 . S
C1647 C1648 1.453 . S
C1647 C1655 1.503 . S
C1648 C1647 1.453 . S
C1648 C1649 1.353 1_455 S
C1648 C1651 1.508 . S
C1649 C1645 1.376 . S
C1649 C1648 1.353 1_655 S
C1649 H1661 0.929 . S
C1650 C1646 1.531 . S
C1650 H1662 0.960 . S
C1650 H1663 0.962 . S
C1650 H1664 0.960 . S
C1651 C1648 1.508 . S
C1651 H1665 0.961 . S
C1651 H1666 0.961 . S
C1651 H1667 0.961 . S
C1652 C1653 1.370 . S
C1652 C1654 1.363 . S
C1652 H1668 0.931 . S
C1653 C1652 1.370 . S
C1653 C1657 1.408 . S
C1654 C1652 1.363 . S
C1654 C1655 1.370 . S
C1654 C1658 1.524 . S
C1655 C1647 1.503 . S
C1655 C1654 1.370 . S
C1655 C1656 1.403 . S
C1656 C1655 1.403 . S
C1656 C1657 1.404 . S
C1656 C1659 1.539 . S
C1657 C1653 1.408 . S
C1657 C1656 1.404 . S
C1657 H1669 0.930 . S
C1658 C1654 1.524 . S
C1658 H1670 0.956 . S
C1658 H1671 0.961 . S
C1658 H1672 0.961 . S
C1659 C1656 1.539 . S
C1659 H1673 0.958 . S
C1659 H1674 0.961 . S
C1659 H1675 0.960 . S
H1660 C1644 0.931 . S
H1661 C1649 0.929 . S
H1662 C1650 0.960 . S
H1663 C1650 0.962 . S
H1664 C1650 0.960 . S
H1665 C1651 0.961 . S
H1666 C1651 0.961 . S
H1667 C1651 0.961 . S
H1668 C1652 0.931 . S
H1669 C1657 0.930 . S
H1670 C1658 0.956 . S
H1671 C1658 0.961 . S
H1672 C1658 0.961 . S
H1673 C1659 0.958 . S
H1674 C1659 0.961 . S
H1675 C1659 0.960 . S
C1676 C1677 1.391 . S
C1676 C1678 1.394 . S
C1676 H1692 0.931 . S
C1677 C1676 1.391 . S
C1677 C1681 1.376 . S
C1678 C1676 1.394 . S
C1678 C1679 1.369 . S
C1678 C1682 1.531 . S
C1679 C1678 1.369 . S
C1679 C1680 1.410 . S
C1679 C1687 1.503 . S
C1680 C1679 1.410 . S
C1680 C1681 1.392 . S
C1680 C1683 1.511 . S
C1681 C1677 1.376 . S
C1681 C1680 1.392 . S
C1681 H1693 0.929 . S
C1682 C1678 1.531 . S
C1682 H1694 0.960 . S
C1682 H1695 0.962 . S
C1682 H1696 0.960 . S
C1683 C1680 1.511 . S
C1683 H1697 0.961 . S
C1683 H1698 0.961 . S
C1683 H1699 0.961 . S
C1684 C1685 1.370 . S
C1684 C1686 1.363 . S
C1684 H1700 0.931 . S
C1685 C1684 1.370 . S
C1685 C1689 1.408 . S
C1686 C1684 1.363 . S
C1686 C1687 1.370 . S
C1686 C1690 1.524 . S
C1687 C1679 1.503 . S
C1687 C1686 1.370 . S
C1687 C1688 1.403 . S
C1688 C1687 1.403 . S
C1688 C1689 1.404 . S
C1688 C1691 1.539 . S
C1689 C1685 1.408 . S
C1689 C1688 1.404 . S
C1689 H1701 0.930 . S
C1690 C1686 1.524 . S
C1690 H1702 0.956 . S
C1690 H1703 0.961 . S
C1690 H1704 0.961 . S
C1691 C1688 1.539 . S
C1691 H1705 0.958 . S
C1691 H1706 0.961 . S
C1691 H1707 0.960 . S
H1692 C1676 0.931 . S
H1693 C1681 0.929 . S
H1694 C1682 0.960 . S
H1695 C1682 0.962 . S
H1696 C1682 0.960 . S
H1697 C1683 0.961 . S
H1698 C1683 0.961 . S
H1699 C1683 0.961 . S
H1700 C1684 0.931 . S
H1701 C1689 0.930 . S
H1702 C1690 0.956 . S
H1703 C1690 0.961 . S
H1704 C1690 0.961 . S
H1705 C1691 0.958 . S
H1706 C1691 0.961 . S
H1707 C1691 0.960 . S
C1708 C1709 1.391 . S
C1708 C1710 1.394 1_545 S
C1708 H1724 0.931 . S
C1709 C1708 1.391 . S
C1709 C1713 1.376 . S
C1710 C1708 1.394 1_565 S
C1710 C1711 1.369 . S
C1710 C1714 1.531 . S
C1711 C1710 1.369 . S
C1711 C1712 1.410 . S
C1711 C1719 1.503 . S
C1712 C1711 1.410 . S
C1712 C1713 1.392 1_565 S
C1712 C1715 1.511 . S
C1713 C1709 1.376 . S
C1713 C1712 1.392 1_545 S
C1713 H1725 0.929 . S
C1714 C1710 1.531 . S
C1714 H1726 0.960 . S
C1714 H1727 0.962 . S
C1714 H1728 0.960 . S
C1715 C1712 1.511 . S
C1715 H1729 0.961 . S
C1715 H1730 0.961 . S
C1715 H1731 0.961 . S
C1716 C1717 1.370 . S
C1716 C1718 1.363 . S
C1716 H1732 0.931 . S
C1717 C1716 1.370 . S
C1717 C1721 1.408 . S
C1718 C1716 1.363 . S
C1718 C1719 1.370 . S
C1718 C1722 1.524 . S
C1719 C1711 1.503 . S
C1719 C1718 1.370 . S
C1719 C1720 1.403 . S
C1720 C1719 1.403 . S
C1720 C1721 1.404 . S
C1720 C1723 1.539 . S
C1721 C1717 1.408 . S
C1721 C1720 1.404 . S
C1721 H1733 0.930 . S
C1722 C1718 1.524 . S
C1722 H1734 0.956 . S
C1722 H1735 0.961 . S
C1722 H1736 0.961 . S
C1723 C1720 1.539 . S
C1723 H1737 0.958 . S
C1723 H1738 0.961 . S
C1723 H1739 0.960 . S
H1724 C1708 0.931 . S
H1725 C1713 0.929 . S
H1726 C1714 0.960 . S
H1727 C1714 0.962 . S
H1728 C1714 0.960 . S
H1729 C1715 0.961 . S
H1730 C1715 0.961 . S
H1731 C1715 0.961 . S
H1732 C1716 0.931 . S
H1733 C1721 0.930 . S
H1734 C1722 0.956 . S
H1735 C1722 0.961 . S
H1736 C1722 0.961 . S
H1737 C1723 0.958 . S
H1738 C1723 0.961 . S
H1739 C1723 0.960 . S
C1740 C1741 1.391 . S
C1740 C1742 1.394 . S
C1740 H1756 0.931 . S
C1741 C1740 1.391 . S
C1741 C1745 1.376 . S
C1742 C1740 1.394 . S
C1742 C1743 1.369 . S
C1742 C1746 1.531 . S
C1743 C1742 1.369 . S
C1743 C1744 1.410 . S
C1743 C1751 1.503 . S
C1744 C1743 1.410 . S
C1744 C1745 1.392 . S
C1744 C1747 1.511 . S
C1745 C1741 1.376 . S
C1745 C1744 1.392 . S
C1745 H1757 0.929 . S
C1746 C1742 1.531 . S
C1746 H1758 0.960 . S
C1746 H1759 0.962 . S
C1746 H1760 0.960 . S
C1747 C1744 1.511 . S
C1747 H1761 0.961 . S
C1747 H1762 0.961 . S
C1747 H1763 0.961 . S
C1748 C1749 1.370 . S
C1748 C1750 1.363 . S
C1748 H1764 0.931 . S
C1749 C1748 1.370 . S
C1749 C1753 1.408 . S
C1750 C1748 1.363 . S
C1750 C1751 1.370 . S
C1750 C1754 1.524 . S
C1751 C1743 1.503 . S
C1751 C1750 1.370 . S
C1751 C1752 1.403 . S
C1752 C1751 1.403 . S
C1752 C1753 1.404 . S
C1752 C1755 1.539 . S
C1753 C1749 1.408 . S
C1753 C1752 1.404 . S
C1753 H1765 0.930 . S
C1754 C1750 1.524 . S
C1754 H1766 0.956 . S
C1754 H1767 0.961 . S
C1754 H1768 0.961 . S
C1755 C1752 1.539 . S
C1755 H1769 0.958 . S
C1755 H1770 0.961 . S
C1755 H1771 0.960 . S
H1756 C1740 0.931 . S
H1757 C1745 0.929 . S
H1758 C1746 0.960 . S
H1759 C1746 0.962 . S
H1760 C1746 0.960 . S
H1761 C1747 0.961 . S
H1762 C1747 0.961 . S
H1763 C1747 0.961 . S
H1764 C1748 0.931 . S
H1765 C1753 0.930 . S
H1766 C1754 0.956 . S
H1767 C1754 0.961 . S
H1768 C1754 0.961 . S
H1769 C1755 0.958 . S
H1770 C1755 0.961 . S
H1771 C1755 0.960 . S
C1772 C1773 1.391 . S
C1772 C1774 1.394 . S
C1772 H1788 0.931 . S
C1773 C1772 1.391 . S
C1773 C1777 1.376 . S
C1774 C1772 1.394 . S
C1774 C1775 1.369 . S
C1774 C1778 1.531 . S
C1775 C1774 1.369 . S
C1775 C1776 1.410 . S
C1775 C1783 1.503 . S
C1776 C1775 1.410 . S
C1776 C1777 1.392 . S
C1776 C1779 1.511 . S
C1777 C1773 1.376 . S
C1777 C1776 1.392 . S
C1777 H1789 0.929 . S
C1778 C1774 1.531 . S
C1778 H1790 0.960 . S
C1778 H1791 0.962 . S
C1778 H1792 0.960 . S
C1779 C1776 1.511 . S
C1779 H1793 0.961 . S
C1779 H1794 0.961 . S
C1779 H1795 0.961 . S
C1780 C1781 1.370 . S
C1780 C1782 1.363 . S
C1780 H1796 0.931 . S
C1781 C1780 1.370 . S
C1781 C1785 1.408 . S
C1782 C1780 1.363 . S
C1782 C1783 1.370 . S
C1782 C1786 1.524 . S
C1783 C1775 1.503 . S
C1783 C1782 1.370 . S
C1783 C1784 1.403 . S
C1784 C1783 1.403 . S
C1784 C1785 1.404 . S
C1784 C1787 1.539 . S
C1785 C1781 1.408 . S
C1785 C1784 1.404 . S
C1785 H1797 0.930 . S
C1786 C1782 1.524 . S
C1786 H1798 0.956 . S
C1786 H1799 0.961 . S
C1786 H1800 0.961 . S
C1787 C1784 1.539 . S
C1787 H1801 0.958 . S
C1787 H1802 0.961 . S
C1787 H1803 0.960 . S
H1788 C1772 0.931 . S
H1789 C1777 0.929 . S
H1790 C1778 0.960 . S
H1791 C1778 0.962 . S
H1792 C1778 0.960 . S
H1793 C1779 0.961 . S
H1794 C1779 0.961 . S
H1795 C1779 0.961 . S
H1796 C1780 0.931 . S
H1797 C1785 0.930 . S
H1798 C1786 0.956 . S
H1799 C1786 0.961 . S
H1800 C1786 0.961 . S
H1801 C1787 0.958 . S
H1802 C1787 0.961 . S
H1803 C1787 0.960 . S
C1804 C1805 1.391 . S
C1804 C1806 1.394 . S
C1804 H1820 0.931 . S
C1805 C1804 1.391 . S
C1805 C1809 1.376 . S
C1806 C1804 1.394 . S
C1806 C1807 1.369 . S
C1806 C1810 1.531 . S
C1807 C1806 1.369 . S
C1807 C1808 1.410 . S
C1807 C1815 1.503 . S
C1808 C1807 1.410 . S
C1808 C1809 1.392 . S
C1808 C1811 1.511 . S
C1809 C1805 1.376 . S
C1809 C1808 1.392 . S
C1809 H1821 0.929 . S
C1810 C1806 1.531 . S
C1810 H1822 0.960 . S
C1810 H1823 0.962 . S
C1810 H1824 0.960 . S
C1811 C1808 1.511 . S
C1811 H1825 0.961 . S
C1811 H1826 0.961 . S
C1811 H1827 0.961 . S
C1812 C1813 1.370 . S
C1812 C1814 1.363 . S
C1812 H1828 0.931 . S
C1813 C1812 1.370 . S
C1813 C1817 1.408 . S
C1814 C1812 1.363 . S
C1814 C1815 1.370 . S
C1814 C1818 1.524 . S
C1815 C1807 1.503 . S
C1815 C1814 1.370 . S
C1815 C1816 1.403 . S
C1816 C1815 1.403 . S
C1816 C1817 1.404 . S
C1816 C1819 1.539 . S
C1817 C1813 1.408 . S
C1817 C1816 1.404 . S
C1817 H1829 0.930 . S
C1818 C1814 1.524 . S
C1818 H1830 0.956 . S
C1818 H1831 0.961 . S
C1818 H1832 0.961 . S
C1819 C1816 1.539 . S
C1819 H1833 0.958 . S
C1819 H1834 0.961 . S
C1819 H1835 0.960 . S
H1820 C1804 0.931 . S
H1821 C1809 0.929 . S
H1822 C1810 0.960 . S
H1823 C1810 0.962 . S
H1824 C1810 0.960 . S
H1825 C1811 0.961 . S
H1826 C1811 0.961 . S
H1827 C1811 0.961 . S
H1828 C1812 0.931 . S
H1829 C1817 0.930 . S
H1830 C1818 0.956 . S
H1831 C1818 0.961 . S
H1832 C1818 0.961 . S
H1833 C1819 0.958 . S
H1834 C1819 0.961 . S
H1835 C1819 0.960 . S
C1836 C1837 1.391 . S
C1836 C1838 1.394 . S
C1836 H1852 0.931 . S
C1837 C1836 1.391 . S
C1837 C1841 1.376 . S
C1838 C1836 1.394 . S
C1838 C1839 1.369 . S
C1838 C1842 1.531 . S
C1839 C1838 1.369 . S
C1839 C1840 1.410 . S
C1839 C1847 1.503 . S
C1840 C1839 1.410 . S
C1840 C1841 1.392 . S
C1840 C1843 1.511 . S
C1841 C1837 1.376 . S
C1841 C1840 1.392 . S
C1841 H1853 0.929 . S
C1842 C1838 1.531 . S
C1842 H1854 0.960 . S
C1842 H1855 0.962 . S
C1842 H1856 0.960 . S
C1843 C1840 1.511 . S
C1843 H1857 0.961 . S
C1843 H1858 0.961 . S
C1843 H1859 0.961 . S
C1844 C1845 1.370 . S
C1844 C1846 1.363 . S
C1844 H1860 0.931 . S
C1845 C1844 1.370 . S
C1845 C1849 1.408 . S
C1846 C1844 1.363 . S
C1846 C1847 1.370 . S
C1846 C1850 1.524 . S
C1847 C1839 1.503 . S
C1847 C1846 1.370 . S
C1847 C1848 1.403 . S
C1848 C1847 1.403 . S
C1848 C1849 1.404 . S
C1848 C1851 1.539 . S
C1849 C1845 1.408 . S
C1849 C1848 1.404 . S
C1849 H1861 0.930 . S
C1850 C1846 1.524 . S
C1850 H1862 0.956 . S
C1850 H1863 0.961 . S
C1850 H1864 0.961 . S
C1851 C1848 1.539 . S
C1851 H1865 0.958 . S
C1851 H1866 0.961 . S
C1851 H1867 0.960 . S
H1852 C1836 0.931 . S
H1853 C1841 0.929 . S
H1854 C1842 0.960 . S
H1855 C1842 0.962 . S
H1856 C1842 0.960 . S
H1857 C1843 0.961 . S
H1858 C1843 0.961 . S
H1859 C1843 0.961 . S
H1860 C1844 0.931 . S
H1861 C1849 0.930 . S
H1862 C1850 0.956 . S
H1863 C1850 0.961 . S
H1864 C1850 0.961 . S
H1865 C1851 0.958 . S
H1866 C1851 0.961 . S
H1867 C1851 0.960 . S
C1868 C1869 1.391 . S
C1868 C1870 1.394 . S
C1868 H1884 0.931 . S
C1869 C1868 1.391 . S
C1869 C1873 1.376 . S
C1870 C1868 1.394 . S
C1870 C1871 1.369 . S
C1870 C1874 1.531 . S
C1871 C1870 1.369 . S
C1871 C1872 1.410 . S
C1871 C1879 1.503 . S
C1872 C1871 1.410 . S
C1872 C1873 1.392 . S
C1872 C1875 1.511 . S
C1873 C1869 1.376 . S
C1873 C1872 1.392 . S
C1873 H1885 0.929 . S
C1874 C1870 1.531 . S
C1874 H1886 0.960 . S
C1874 H1887 0.962 . S
C1874 H1888 0.960 . S
C1875 C1872 1.511 . S
C1875 H1889 0.961 . S
C1875 H1890 0.961 . S
C1875 H1891 0.961 . S
C1876 C1877 1.370 . S
C1876 C1878 1.363 . S
C1876 H1892 0.931 . S
C1877 C1876 1.370 . S
C1877 C1881 1.408 . S
C1878 C1876 1.363 . S
C1878 C1879 1.370 . S
C1878 C1882 1.524 . S
C1879 C1871 1.503 . S
C1879 C1878 1.370 . S
C1879 C1880 1.403 . S
C1880 C1879 1.403 . S
C1880 C1881 1.404 . S
C1880 C1883 1.539 . S
C1881 C1877 1.408 . S
C1881 C1880 1.404 . S
C1881 H1893 0.930 . S
C1882 C1878 1.524 . S
C1882 H1894 0.956 . S
C1882 H1895 0.961 . S
C1882 H1896 0.961 . S
C1883 C1880 1.539 . S
C1883 H1897 0.958 . S
C1883 H1898 0.961 . S
C1883 H1899 0.960 . S
H1884 C1868 0.931 . S
H1885 C1873 0.929 . S
H1886 C1874 0.960 . S
H1887 C1874 0.962 . S
H1888 C1874 0.960 . S
H1889 C1875 0.961 . S
H1890 C1875 0.961 . S
H1891 C1875 0.961 . S
H1892 C1876 0.931 . S
H1893 C1881 0.930 . S
H1894 C1882 0.956 . S
H1895 C1882 0.961 . S
H1896 C1882 0.961 . S
H1897 C1883 0.958 . S
H1898 C1883 0.961 . S
H1899 C1883 0.960 . S
C1900 C1901 1.391 . S
C1900 C1902 1.394 . S
C1900 H1916 0.931 . S
C1901 C1900 1.391 . S
C1901 C1905 1.376 . S
C1902 C1900 1.394 . S
C1902 C1903 1.369 . S
C1902 C1906 1.531 . S
C1903 C1902 1.369 . S
C1903 C1904 1.410 . S
C1903 C1911 1.503 . S
C1904 C1903 1.410 . S
C1904 C1905 1.392 . S
C1904 C1907 1.511 . S
C1905 C1901 1.376 . S
C1905 C1904 1.392 . S
C1905 H1917 0.929 . S
C1906 C1902 1.531 . S
C1906 H1918 0.960 . S
C1906 H1919 0.962 . S
C1906 H1920 0.960 . S
C1907 C1904 1.511 . S
C1907 H1921 0.961 . S
C1907 H1922 0.961 . S
C1907 H1923 0.961 . S
C1908 C1909 1.370 . S
C1908 C1910 1.363 . S
C1908 H1924 0.931 . S
C1909 C1908 1.370 . S
C1909 C1913 1.408 . S
C1910 C1908 1.363 . S
C1910 C1911 1.370 . S
C1910 C1914 1.524 . S
C1911 C1903 1.503 . S
C1911 C1910 1.370 . S
C1911 C1912 1.403 . S
C1912 C1911 1.403 . S
C1912 C1913 1.404 . S
C1912 C1915 1.539 . S
C1913 C1909 1.408 . S
C1913 C1912 1.404 . S
C1913 H1925 0.930 . S
C1914 C1910 1.524 . S
C1914 H1926 0.956 . S
C1914 H1927 0.961 . S
C1914 H1928 0.961 . S
C1915 C1912 1.539 . S
C1915 H1929 0.958 . S
C1915 H1930 0.961 . S
C1915 H1931 0.960 . S
H1916 C1900 0.931 . S
H1917 C1905 0.929 . S
H1918 C1906 0.960 . S
H1919 C1906 0.962 . S
H1920 C1906 0.960 . S
H1921 C1907 0.961 . S
H1922 C1907 0.961 . S
H1923 C1907 0.961 . S
H1924 C1908 0.931 . S
H1925 C1913 0.930 . S
H1926 C1914 0.956 . S
H1927 C1914 0.961 . S
H1928 C1914 0.961 . S
H1929 C1915 0.958 . S
H1930 C1915 0.961 . S
H1931 C1915 0.960 . S
C1932 C1933 1.391 . S
C1932 C1934 1.394 1_545 S
C1932 H1948 0.931 . S
C1933 C1932 1.391 . S
C1933 C1937 1.376 . S
C1934 C1932 1.394 1_565 S
C1934 C1935 1.369 . S
C1934 C1938 1.531 . S
C1935 C1934 1.369 . S
C1935 C1936 1.410 . S
C1935 C1943 1.503 . S
C1936 C1935 1.410 . S
C1936 C1937 1.392 1_565 S
C1936 C1939 1.511 . S
C1937 C1933 1.376 . S
C1937 C1936 1.392 1_545 S
C1937 H1949 0.929 . S
C1938 C1934 1.531 . S
C1938 H1950 0.960 . S
C1938 H1951 0.962 . S
C1938 H1952 0.960 . S
C1939 C1936 1.511 . S
C1939 H1953 0.961 . S
C1939 H1954 0.961 . S
C1939 H1955 0.961 . S
C1940 C1941 1.370 . S
C1940 C1942 1.363 . S
C1940 H1956 0.931 . S
C1941 C1940 1.370 . S
C1941 C1945 1.408 . S
C1942 C1940 1.363 . S
C1942 C1943 1.370 . S
C1942 C1946 1.524 . S
C1943 C1935 1.503 . S
C1943 C1942 1.370 . S
C1943 C1944 1.403 . S
C1944 C1943 1.403 . S
C1944 C1945 1.404 . S
C1944 C1947 1.539 . S
C1945 C1941 1.408 . S
C1945 C1944 1.404 . S
C1945 H1957 0.930 . S
C1946 C1942 1.524 . S
C1946 H1958 0.956 . S
C1946 H1959 0.961 . S
C1946 H1960 0.961 . S
C1947 C1944 1.539 . S
C1947 H1961 0.958 . S
C1947 H1962 0.961 . S
C1947 H1963 0.960 . S
H1948 C1932 0.931 . S
H1949 C1937 0.929 . S
H1950 C1938 0.960 . S
H1951 C1938 0.962 . S
H1952 C1938 0.960 . S
H1953 C1939 0.961 . S
H1954 C1939 0.961 . S
H1955 C1939 0.961 . S
H1956 C1940 0.931 . S
H1957 C1945 0.930 . S
H1958 C1946 0.956 . S
H1959 C1946 0.961 . S
H1960 C1946 0.961 . S
H1961 C1947 0.958 . S
H1962 C1947 0.961 . S
H1963 C1947 0.960 . S
C1964 C1965 1.391 . S
C1964 C1966 1.394 1_655 S
C1964 H1980 0.931 . S
C1965 C1964 1.391 . S
C1965 C1969 1.376 . S
C1966 C1964 1.394 1_455 S
C1966 C1967 1.369 . S
C1966 C1970 1.531 . S
C1967 C1966 1.369 . S
C1967 C1968 1.410 . S
C1967 C1975 1.503 . S
C1968 C1967 1.410 . S
C1968 C1969 1.392 1_455 S
C1968 C1971 1.511 . S
C1969 C1965 1.376 . S
C1969 C1968 1.392 1_655 S
C1969 H1981 0.929 . S
C1970 C1966 1.531 . S
C1970 H1982 0.960 . S
C1970 H1983 0.962 . S
C1970 H1984 0.960 . S
C1971 C1968 1.511 . S
C1971 H1985 0.961 . S
C1971 H1986 0.961 . S
C1971 H1987 0.961 . S
C1972 C1973 1.370 . S
C1972 C1974 1.363 . S
C1972 H1988 0.931 . S
C1973 C1972 1.370 . S
C1973 C1977 1.408 . S
C1974 C1972 1.363 . S
C1974 C1975 1.370 . S
C1974 C1978 1.524 . S
C1975 C1967 1.503 . S
C1975 C1974 1.370 . S
C1975 C1976 1.403 . S
C1976 C1975 1.403 . S
C1976 C1977 1.404 . S
C1976 C1979 1.539 . S
C1977 C1973 1.408 . S
C1977 C1976 1.404 . S
C1977 H1989 0.930 . S
C1978 C1974 1.524 . S
C1978 H1990 0.956 . S
C1978 H1991 0.961 . S
C1978 H1992 0.961 . S
C1979 C1976 1.539 . S
C1979 H1993 0.958 . S
C1979 H1994 0.961 . S
C1979 H1995 0.960 . S
H1980 C1964 0.931 . S
H1981 C1969 0.929 . S
H1982 C1970 0.960 . S
H1983 C1970 0.962 . S
H1984 C1970 0.960 . S
H1985 C1971 0.961 . S
H1986 C1971 0.961 . S
H1987 C1971 0.961 . S
H1988 C1972 0.931 . S
H1989 C1977 0.930 . S
H1990 C1978 0.956 . S
H1991 C1978 0.961 . S
H1992 C1978 0.961 . S
H1993 C1979 0.958 . S
H1994 C1979 0.961 . S
H1995 C1979 0.960 . S
C1996 C1997 1.391 . S
C1996 C1998 1.394 . S
C1996 H2012 0.931 . S
C1997 C1996 1.391 . S
C1997 C2001 1.376 . S
C1998 C1996 1.394 . S
C1998 C1999 1.369 . S
C1998 C2002 1.531 . S
C1999 C1998 1.369 . S
C1999 C2000 1.410 . S
C1999 C2007 1.503 . S
C2000 C1999 1.410 . S
C2000 C2001 1.392 . S
C2000 C2003 1.511 . S
C2001 C1997 1.376 . S
C2001 C2000 1.392 . S
C2001 H2013 0.929 . S
C2002 C1998 1.531 . S
C2002 H2014 0.960 . S
C2002 H2015 0.962 . S
C2002 H2016 0.960 . S
C2003 C2000 1.511 . S
C2003 H2017 0.961 . S
C2003 H2018 0.961 . S
C2003 H2019 0.961 . S
C2004 C2005 1.370 . S
C2004 C2006 1.363 . S
C2004 H2020 0.931 . S
C2005 C2004 1.370 . S
C2005 C2009 1.408 . S
C2006 C2004 1.363 . S
C2006 C2007 1.370 . S
C2006 C2010 1.524 . S
C2007 C1999 1.503 . S
C2007 C2006 1.370 . S
C2007 C2008 1.403 . S
C2008 C2007 1.403 . S
C2008 C2009 1.404 . S
C2008 C2011 1.539 . S
C2009 C2005 1.408 . S
C2009 C2008 1.404 . S
C2009 H2021 0.930 . S
C2010 C2006 1.524 . S
C2010 H2022 0.956 . S
C2010 H2023 0.961 . S
C2010 H2024 0.961 . S
C2011 C2008 1.539 . S
C2011 H2025 0.958 . S
C2011 H2026 0.961 . S
C2011 H2027 0.960 . S
H2012 C1996 0.931 . S
H2013 C2001 0.929 . S
H2014 C2002 0.960 . S
H2015 C2002 0.962 . S
H2016 C2002 0.960 . S
H2017 C2003 0.961 . S
H2018 C2003 0.961 . S
H2019 C2003 0.961 . S
H2020 C2004 0.931 . S
H2021 C2009 0.930 . S
H2022 C2010 0.956 . S
H2023 C2010 0.961 . S
H2024 C2010 0.961 . S
H2025 C2011 0.958 . S
H2026 C2011 0.961 . S
H2027 C2011 0.960 . S
C2028 C2029 1.391 . S
C2028 C2030 1.394 . S
C2028 H2044 0.931 . S
C2029 C2028 1.391 . S
C2029 C2033 1.376 . S
C2030 C2028 1.394 . S
C2030 C2031 1.369 . S
C2030 C2034 1.531 . S
C2031 C2030 1.369 . S
C2031 C2032 1.410 . S
C2031 C2039 1.503 . S
C2032 C2031 1.410 . S
C2032 C2033 1.392 . S
C2032 C2035 1.511 . S
C2033 C2029 1.376 . S
C2033 C2032 1.392 . S
C2033 H2045 0.929 . S
C2034 C2030 1.531 . S
C2034 H2046 0.960 . S
C2034 H2047 0.962 . S
C2034 H2048 0.960 . S
C2035 C2032 1.511 . S
C2035 H2049 0.961 . S
C2035 H2050 0.961 . S
C2035 H2051 0.961 . S
C2036 C2037 1.370 . S
C2036 C2038 1.363 . S
C2036 H2052 0.931 . S
C2037 C2036 1.370 . S
C2037 C2041 1.408 . S
C2038 C2036 1.363 . S
C2038 C2039 1.370 . S
C2038 C2042 1.524 . S
C2039 C2031 1.503 . S
C2039 C2038 1.370 . S
C2039 C2040 1.403 . S
C2040 C2039 1.403 . S
C2040 C2041 1.404 . S
C2040 C2043 1.539 . S
C2041 C2037 1.408 . S
C2041 C2040 1.404 . S
C2041 H2053 0.930 . S
C2042 C2038 1.524 . S
C2042 H2054 0.956 . S
C2042 H2055 0.961 . S
C2042 H2056 0.961 . S
C2043 C2040 1.539 . S
C2043 H2057 0.958 . S
C2043 H2058 0.961 . S
C2043 H2059 0.960 . S
H2044 C2028 0.931 . S
H2045 C2033 0.929 . S
H2046 C2034 0.960 . S
H2047 C2034 0.962 . S
H2048 C2034 0.960 . S
H2049 C2035 0.961 . S
H2050 C2035 0.961 . S
H2051 C2035 0.961 . S
H2052 C2036 0.931 . S
H2053 C2041 0.930 . S
H2054 C2042 0.956 . S
H2055 C2042 0.961 . S
H2056 C2042 0.961 . S
H2057 C2043 0.958 . S
H2058 C2043 0.961 . S
H2059 C2043 0.960 . S
C2060 C2061 1.391 . S
C2060 C2062 1.394 . S
C2060 H2076 0.931 . S
C2061 C2060 1.391 . S
C2061 C2065 1.376 . S
C2062 C2060 1.394 . S
C2062 C2063 1.369 . S
C2062 C2066 1.531 . S
C2063 C2062 1.369 . S
C2063 C2064 1.410 . S
C2063 C2071 1.503 . S
C2064 C2063 1.410 . S
C2064 C2065 1.392 . S
C2064 C2067 1.511 . S
C2065 C2061 1.376 . S
C2065 C2064 1.392 . S
C2065 H2077 0.929 . S
C2066 C2062 1.531 . S
C2066 H2078 0.960 . S
C2066 H2079 0.962 . S
C2066 H2080 0.960 . S
C2067 C2064 1.511 . S
C2067 H2081 0.961 . S
C2067 H2082 0.961 . S
C2067 H2083 0.961 . S
C2068 C2069 1.370 . S
C2068 C2070 1.363 . S
C2068 H2084 0.931 . S
C2069 C2068 1.370 . S
C2069 C2073 1.408 . S
C2070 C2068 1.363 . S
C2070 C2071 1.370 . S
C2070 C2074 1.524 . S
C2071 C2063 1.503 . S
C2071 C2070 1.370 . S
C2071 C2072 1.403 . S
C2072 C2071 1.403 . S
C2072 C2073 1.404 . S
C2072 C2075 1.539 . S
C2073 C2069 1.408 . S
C2073 C2072 1.404 . S
C2073 H2085 0.930 . S
C2074 C2070 1.524 . S
C2074 H2086 0.956 . S
C2074 H2087 0.961 . S
C2074 H2088 0.961 . S
C2075 C2072 1.539 . S
C2075 H2089 0.958 . S
C2075 H2090 0.961 . S
C2075 H2091 0.960 . S
H2076 C2060 0.931 . S
H2077 C2065 0.929 . S
H2078 C2066 0.960 . S
H2079 C2066 0.962 . S
H2080 C2066 0.960 . S
H2081 C2067 0.961 . S
H2082 C2067 0.961 . S
H2083 C2067 0.961 . S
H2084 C2068 0.931 . S
H2085 C2073 0.930 . S
H2086 C2074 0.956 . S
H2087 C2074 0.961 . S
H2088 C2074 0.961 . S
H2089 C2075 0.958 . S
H2090 C2075 0.961 . S
H2091 C2075 0.960 . S
C2092 C2093 1.391 . S
C2092 C2094 1.394 . S
C2092 H2108 0.931 . S
C2093 C2092 1.391 . S
C2093 C2097 1.376 . S
C2094 C2092 1.394 . S
C2094 C2095 1.369 . S
C2094 C2098 1.531 . S
C2095 C2094 1.369 . S
C2095 C2096 1.410 . S
C2095 C2103 1.503 . S
C2096 C2095 1.410 . S
C2096 C2097 1.392 . S
C2096 C2099 1.511 . S
C2097 C2093 1.376 . S
C2097 C2096 1.392 . S
C2097 H2109 0.929 . S
C2098 C2094 1.531 . S
C2098 H2110 0.960 . S
C2098 H2111 0.962 . S
C2098 H2112 0.960 . S
C2099 C2096 1.511 . S
C2099 H2113 0.961 . S
C2099 H2114 0.961 . S
C2099 H2115 0.961 . S
C2100 C2101 1.370 . S
C2100 C2102 1.363 . S
C2100 H2116 0.931 . S
C2101 C2100 1.370 . S
C2101 C2105 1.408 . S
C2102 C2100 1.363 . S
C2102 C2103 1.370 . S
C2102 C2106 1.524 . S
C2103 C2095 1.503 . S
C2103 C2102 1.370 . S
C2103 C2104 1.403 . S
C2104 C2103 1.403 . S
C2104 C2105 1.404 . S
C2104 C2107 1.539 . S
C2105 C2101 1.408 . S
C2105 C2104 1.404 . S
C2105 H2117 0.930 . S
C2106 C2102 1.524 . S
C2106 H2118 0.956 . S
C2106 H2119 0.961 . S
C2106 H2120 0.961 . S
C2107 C2104 1.539 . S
C2107 H2121 0.958 . S
C2107 H2122 0.961 . S
C2107 H2123 0.960 . S
H2108 C2092 0.931 . S
H2109 C2097 0.929 . S
H2110 C2098 0.960 . S
H2111 C2098 0.962 . S
H2112 C2098 0.960 . S
H2113 C2099 0.961 . S
H2114 C2099 0.961 . S
H2115 C2099 0.961 . S
H2116 C2100 0.931 . S
H2117 C2105 0.930 . S
H2118 C2106 0.956 . S
H2119 C2106 0.961 . S
H2120 C2106 0.961 . S
H2121 C2107 0.958 . S
H2122 C2107 0.961 . S
H2123 C2107 0.960 . S
C2124 C2125 1.391 . S
C2124 C2126 1.394 1_565 S
C2124 H2140 0.931 . S
C2125 C2124 1.391 . S
C2125 C2129 1.376 . S
C2126 C2124 1.394 1_545 S
C2126 C2127 1.369 . S
C2126 C2130 1.531 . S
C2127 C2126 1.369 . S
C2127 C2128 1.410 . S
C2127 C2135 1.503 . S
C2128 C2127 1.410 . S
C2128 C2129 1.392 1_545 S
C2128 C2131 1.511 . S
C2129 C2125 1.376 . S
C2129 C2128 1.392 1_565 S
C2129 H2141 0.929 . S
C2130 C2126 1.531 . S
C2130 H2142 0.960 . S
C2130 H2143 0.962 . S
C2130 H2144 0.960 . S
C2131 C2128 1.511 . S
C2131 H2145 0.961 . S
C2131 H2146 0.961 . S
C2131 H2147 0.961 . S
C2132 C2133 1.370 . S
C2132 C2134 1.363 . S
C2132 H2148 0.931 . S
C2133 C2132 1.370 . S
C2133 C2137 1.408 . S
C2134 C2132 1.363 . S
C2134 C2135 1.370 . S
C2134 C2138 1.524 . S
C2135 C2127 1.503 . S
C2135 C2134 1.370 . S
C2135 C2136 1.403 . S
C2136 C2135 1.403 . S
C2136 C2137 1.404 . S
C2136 C2139 1.539 . S
C2137 C2133 1.408 . S
C2137 C2136 1.404 . S
C2137 H2149 0.930 . S
C2138 C2134 1.524 . S
C2138 H2150 0.956 . S
C2138 H2151 0.961 . S
C2138 H2152 0.961 . S
C2139 C2136 1.539 . S
C2139 H2153 0.958 . S
C2139 H2154 0.961 . S
C2139 H2155 0.960 . S
H2140 C2124 0.931 . S
H2141 C2129 0.929 . S
H2142 C2130 0.960 . S
H2143 C2130 0.962 . S
H2144 C2130 0.960 . S
H2145 C2131 0.961 . S
H2146 C2131 0.961 . S
H2147 C2131 0.961 . S
H2148 C2132 0.931 . S
H2149 C2137 0.930 . S
H2150 C2138 0.956 . S
H2151 C2138 0.961 . S
H2152 C2138 0.961 . S
H2153 C2139 0.958 . S
H2154 C2139 0.961 . S
H2155 C2139 0.960 . S
C2156 C2157 1.391 . S
C2156 C2158 1.394 1_455 S
C2156 H2172 0.931 . S
C2157 C2156 1.391 . S
C2157 C2161 1.376 . S
C2158 C2156 1.394 1_655 S
C2158 C2159 1.369 . S
C2158 C2162 1.531 . S
C2159 C2158 1.369 . S
C2159 C2160 1.410 . S
C2159 C2167 1.503 . S
C2160 C2159 1.410 . S
C2160 C2161 1.392 1_655 S
C2160 C2163 1.511 . S
C2161 C2157 1.376 . S
C2161 C2160 1.392 1_455 S
C2161 H2173 0.929 . S
C2162 C2158 1.531 . S
C2162 H2174 0.960 . S
C2162 H2175 0.962 . S
C2162 H2176 0.960 . S
C2163 C2160 1.511 . S
C2163 H2177 0.961 1_655 S
C2163 H2178 0.961 . S
C2163 H2179 0.961 . S
C2164 C2165 1.370 . S
C2164 C2166 1.363 . S
C2164 H2180 0.931 . S
C2165 C2164 1.370 . S
C2165 C2169 1.408 . S
C2166 C2164 1.363 . S
C2166 C2167 1.370 . S
C2166 C2170 1.524 . S
C2167 C2159 1.503 . S
C2167 C2166 1.370 . S
C2167 C2168 1.403 . S
C2168 C2167 1.403 . S
C2168 C2169 1.404 . S
C2168 C2171 1.539 . S
C2169 C2165 1.408 . S
C2169 C2168 1.404 . S
C2169 H2181 0.930 . S
C2170 C2166 1.524 . S
C2170 H2182 0.956 . S
C2170 H2183 0.961 . S
C2170 H2184 0.961 . S
C2171 C2168 1.539 . S
C2171 H2185 0.958 . S
C2171 H2186 0.961 . S
C2171 H2187 0.960 . S
H2172 C2156 0.931 . S
H2173 C2161 0.929 . S
H2174 C2162 0.960 . S
H2175 C2162 0.962 . S
H2176 C2162 0.960 . S
H2177 C2163 0.961 1_455 S
H2178 C2163 0.961 . S
H2179 C2163 0.961 . S
H2180 C2164 0.931 . S
H2181 C2169 0.930 . S
H2182 C2170 0.956 . S
H2183 C2170 0.961 . S
H2184 C2170 0.961 . S
H2185 C2171 0.958 . S
H2186 C2171 0.961 . S
H2187 C2171 0.960 . S
C2188 C2189 1.391 . S
C2188 C2190 1.394 . S
C2188 H2204 0.931 . S
C2189 C2188 1.391 . S
C2189 C2193 1.376 . S
C2190 C2188 1.394 . S
C2190 C2191 1.369 . S
C2190 C2194 1.531 . S
C2191 C2190 1.369 . S
C2191 C2192 1.410 . S
C2191 C2199 1.503 . S
C2192 C2191 1.410 . S
C2192 C2193 1.392 . S
C2192 C2195 1.511 . S
C2193 C2189 1.376 . S
C2193 C2192 1.392 . S
C2193 H2205 0.929 . S
C2194 C2190 1.531 . S
C2194 H2206 0.960 . S
C2194 H2207 0.962 . S
C2194 H2208 0.960 . S
C2195 C2192 1.511 . S
C2195 H2209 0.961 . S
C2195 H2210 0.961 . S
C2195 H2211 0.961 . S
C2196 C2197 1.370 . S
C2196 C2198 1.363 . S
C2196 H2212 0.931 . S
C2197 C2196 1.370 . S
C2197 C2201 1.408 . S
C2198 C2196 1.363 . S
C2198 C2199 1.370 . S
C2198 C2202 1.524 . S
C2199 C2191 1.503 . S
C2199 C2198 1.370 . S
C2199 C2200 1.403 . S
C2200 C2199 1.403 . S
C2200 C2201 1.404 . S
C2200 C2203 1.539 . S
C2201 C2197 1.408 . S
C2201 C2200 1.404 . S
C2201 H2213 0.930 . S
C2202 C2198 1.524 . S
C2202 H2214 0.956 . S
C2202 H2215 0.961 . S
C2202 H2216 0.961 . S
C2203 C2200 1.539 . S
C2203 H2217 0.958 . S
C2203 H2218 0.961 . S
C2203 H2219 0.960 . S
H2204 C2188 0.931 . S
H2205 C2193 0.929 . S
H2206 C2194 0.960 . S
H2207 C2194 0.962 . S
H2208 C2194 0.960 . S
H2209 C2195 0.961 . S
H2210 C2195 0.961 . S
H2211 C2195 0.961 . S
H2212 C2196 0.931 . S
H2213 C2201 0.930 . S
H2214 C2202 0.956 . S
H2215 C2202 0.961 . S
H2216 C2202 0.961 . S
H2217 C2203 0.958 . S
H2218 C2203 0.961 . S
H2219 C2203 0.960 . S
C2220 C2221 1.391 . S
C2220 C2222 1.394 . S
C2220 H2236 0.931 . S
C2221 C2220 1.391 . S
C2221 C2225 1.376 . S
C2222 C2220 1.394 . S
C2222 C2223 1.369 1_455 S
C2222 C2226 1.531 1_455 S
C2223 C2222 1.369 1_655 S
C2223 C2224 1.410 . S
C2223 C2231 1.503 . S
C2224 C2223 1.410 . S
C2224 C2225 1.392 1_655 S
C2224 C2227 1.511 . S
C2225 C2221 1.376 . S
C2225 C2224 1.392 1_455 S
C2225 H2237 0.929 . S
C2226 C2222 1.531 1_655 S
C2226 H2238 0.960 . S
C2226 H2239 0.962 . S
C2226 H2240 0.960 1_655 S
C2227 C2224 1.511 . S
C2227 H2241 0.961 . S
C2227 H2242 0.961 . S
C2227 H2243 0.961 . S
C2228 C2229 1.370 . S
C2228 C2230 1.363 . S
C2228 H2244 0.931 . S
C2229 C2228 1.370 . S
C2229 C2233 1.408 . S
C2230 C2228 1.363 . S
C2230 C2231 1.370 . S
C2230 C2234 1.524 . S
C2231 C2223 1.503 . S
C2231 C2230 1.370 . S
C2231 C2232 1.403 . S
C2232 C2231 1.403 . S
C2232 C2233 1.404 . S
C2232 C2235 1.539 . S
C2233 C2229 1.408 . S
C2233 C2232 1.404 . S
C2233 H2245 0.930 . S
C2234 C2230 1.524 . S
C2234 H2246 0.956 . S
C2234 H2247 0.961 . S
C2234 H2248 0.961 . S
C2235 C2232 1.539 . S
C2235 H2249 0.958 . S
C2235 H2250 0.961 . S
C2235 H2251 0.960 . S
H2236 C2220 0.931 . S
H2237 C2225 0.929 . S
H2238 C2226 0.960 . S
H2239 C2226 0.962 . S
H2240 C2226 0.960 1_455 S
H2241 C2227 0.961 . S
H2242 C2227 0.961 . S
H2243 C2227 0.961 . S
H2244 C2228 0.931 . S
H2245 C2233 0.930 . S
H2246 C2234 0.956 . S
H2247 C2234 0.961 . S
H2248 C2234 0.961 . S
H2249 C2235 0.958 . S
H2250 C2235 0.961 . S
H2251 C2235 0.960 . S
C2252 C2253 1.391 . S
C2252 C2254 1.394 . S
C2252 H2268 0.931 . S
C2253 C2252 1.391 . S
C2253 C2257 1.376 . S
C2254 C2252 1.394 . S
C2254 C2255 1.369 . S
C2254 C2258 1.531 . S
C2255 C2254 1.369 . S
C2255 C2256 1.410 . S
C2255 C2263 1.503 . S
C2256 C2255 1.410 . S
C2256 C2257 1.392 . S
C2256 C2259 1.511 . S
C2257 C2253 1.376 . S
C2257 C2256 1.392 . S
C2257 H2269 0.929 . S
C2258 C2254 1.531 . S
C2258 H2270 0.960 . S
C2258 H2271 0.962 . S
C2258 H2272 0.960 . S
C2259 C2256 1.511 . S
C2259 H2273 0.961 . S
C2259 H2274 0.961 . S
C2259 H2275 0.961 . S
C2260 C2261 1.370 . S
C2260 C2262 1.363 . S
C2260 H2276 0.931 . S
C2261 C2260 1.370 . S
C2261 C2265 1.408 . S
C2262 C2260 1.363 . S
C2262 C2263 1.370 . S
C2262 C2266 1.524 . S
C2263 C2255 1.503 . S
C2263 C2262 1.370 . S
C2263 C2264 1.403 . S
C2264 C2263 1.403 . S
C2264 C2265 1.404 . S
C2264 C2267 1.539 . S
C2265 C2261 1.408 . S
C2265 C2264 1.404 . S
C2265 H2277 0.930 . S
C2266 C2262 1.524 . S
C2266 H2278 0.956 . S
C2266 H2279 0.961 . S
C2266 H2280 0.961 . S
C2267 C2264 1.539 . S
C2267 H2281 0.958 . S
C2267 H2282 0.961 . S
C2267 H2283 0.960 . S
H2268 C2252 0.931 . S
H2269 C2257 0.929 . S
H2270 C2258 0.960 . S
H2271 C2258 0.962 . S
H2272 C2258 0.960 . S
H2273 C2259 0.961 . S
H2274 C2259 0.961 . S
H2275 C2259 0.961 . S
H2276 C2260 0.931 . S
H2277 C2265 0.930 . S
H2278 C2266 0.956 . S
H2279 C2266 0.961 . S
H2280 C2266 0.961 . S
H2281 C2267 0.958 . S
H2282 C2267 0.961 . S
H2283 C2267 0.960 . S
C2284 C2285 1.391 . S
C2284 C2286 1.394 1_565 S
C2284 H2300 0.931 . S
C2285 C2284 1.391 . S
C2285 C2289 1.376 . S
C2286 C2284 1.394 1_545 S
C2286 C2287 1.369 . S
C2286 C2290 1.531 . S
C2287 C2286 1.369 . S
C2287 C2288 1.410 . S
C2287 C2295 1.503 . S
C2288 C2287 1.410 . S
C2288 C2289 1.392 1_545 S
C2288 C2291 1.511 . S
C2289 C2285 1.376 . S
C2289 C2288 1.392 1_565 S
C2289 H2301 0.929 . S
C2290 C2286 1.531 . S
C2290 H2302 0.960 . S
C2290 H2303 0.962 . S
C2290 H2304 0.960 1_545 S
C2291 C2288 1.511 . S
C2291 H2305 0.961 . S
C2291 H2306 0.961 . S
C2291 H2307 0.961 . S
C2292 C2293 1.370 . S
C2292 C2294 1.363 . S
C2292 H2308 0.931 . S
C2293 C2292 1.370 . S
C2293 C2297 1.408 . S
C2294 C2292 1.363 . S
C2294 C2295 1.370 . S
C2294 C2298 1.524 . S
C2295 C2287 1.503 . S
C2295 C2294 1.370 . S
C2295 C2296 1.403 . S
C2296 C2295 1.403 . S
C2296 C2297 1.404 . S
C2296 C2299 1.539 . S
C2297 C2293 1.408 . S
C2297 C2296 1.404 . S
C2297 H2309 0.930 . S
C2298 C2294 1.524 . S
C2298 H2310 0.956 . S
C2298 H2311 0.961 . S
C2298 H2312 0.961 . S
C2299 C2296 1.539 . S
C2299 H2313 0.958 . S
C2299 H2314 0.961 . S
C2299 H2315 0.960 . S
H2300 C2284 0.931 . S
H2301 C2289 0.929 . S
H2302 C2290 0.960 . S
H2303 C2290 0.962 . S
H2304 C2290 0.960 1_565 S
H2305 C2291 0.961 . S
H2306 C2291 0.961 . S
H2307 C2291 0.961 . S
H2308 C2292 0.931 . S
H2309 C2297 0.930 . S
H2310 C2298 0.956 . S
H2311 C2298 0.961 . S
H2312 C2298 0.961 . S
H2313 C2299 0.958 . S
H2314 C2299 0.961 . S
H2315 C2299 0.960 . S
C2316 C2317 1.391 . S
C2316 C2318 1.394 . S
C2316 H2332 0.931 . S
C2317 C2316 1.391 . S
C2317 C2321 1.376 . S
C2318 C2316 1.394 . S
C2318 C2319 1.369 . S
C2318 C2322 1.531 . S
C2319 C2318 1.369 . S
C2319 C2320 1.410 . S
C2319 C2327 1.503 . S
C2320 C2319 1.410 . S
C2320 C2321 1.392 . S
C2320 C2323 1.511 . S
C2321 C2317 1.376 . S
C2321 C2320 1.392 . S
C2321 H2333 0.929 . S
C2322 C2318 1.531 . S
C2322 H2334 0.960 . S
C2322 H2335 0.962 . S
C2322 H2336 0.960 . S
C2323 C2320 1.511 . S
C2323 H2337 0.961 . S
C2323 H2338 0.961 . S
C2323 H2339 0.961 . S
C2324 C2325 1.370 . S
C2324 C2326 1.363 . S
C2324 H2340 0.931 . S
C2325 C2324 1.370 . S
C2325 C2329 1.408 . S
C2326 C2324 1.363 . S
C2326 C2327 1.370 . S
C2326 C2330 1.524 . S
C2327 C2319 1.503 . S
C2327 C2326 1.370 . S
C2327 C2328 1.403 . S
C2328 C2327 1.403 . S
C2328 C2329 1.404 . S
C2328 C2331 1.539 . S
C2329 C2325 1.408 . S
C2329 C2328 1.404 . S
C2329 H2341 0.930 . S
C2330 C2326 1.524 . S
C2330 H2342 0.956 . S
C2330 H2343 0.961 . S
C2330 H2344 0.961 . S
C2331 C2328 1.539 . S
C2331 H2345 0.958 . S
C2331 H2346 0.961 . S
C2331 H2347 0.960 . S
H2332 C2316 0.931 . S
H2333 C2321 0.929 . S
H2334 C2322 0.960 . S
H2335 C2322 0.962 . S
H2336 C2322 0.960 . S
H2337 C2323 0.961 . S
H2338 C2323 0.961 . S
H2339 C2323 0.961 . S
H2340 C2324 0.931 . S
H2341 C2329 0.930 . S
H2342 C2330 0.956 . S
H2343 C2330 0.961 . S
H2344 C2330 0.961 . S
H2345 C2331 0.958 . S
H2346 C2331 0.961 . S
H2347 C2331 0.960 . S
C2348 C2349 1.391 . S
C2348 C2350 1.394 . S
C2348 H2364 0.931 . S
C2349 C2348 1.391 . S
C2349 C2353 1.376 . S
C2350 C2348 1.394 . S
C2350 C2351 1.369 . S
C2350 C2354 1.531 . S
C2351 C2350 1.369 . S
C2351 C2352 1.410 . S
C2351 C2359 1.503 . S
C2352 C2351 1.410 . S
C2352 C2353 1.392 . S
C2352 C2355 1.511 . S
C2353 C2349 1.376 . S
C2353 C2352 1.392 . S
C2353 H2365 0.929 . S
C2354 C2350 1.531 . S
C2354 H2366 0.960 . S
C2354 H2367 0.962 . S
C2354 H2368 0.960 . S
C2355 C2352 1.511 . S
C2355 H2369 0.961 . S
C2355 H2370 0.961 . S
C2355 H2371 0.961 . S
C2356 C2357 1.370 . S
C2356 C2358 1.363 . S
C2356 H2372 0.931 . S
C2357 C2356 1.370 . S
C2357 C2361 1.408 . S
C2358 C2356 1.363 . S
C2358 C2359 1.370 . S
C2358 C2362 1.524 . S
C2359 C2351 1.503 . S
C2359 C2358 1.370 . S
C2359 C2360 1.403 . S
C2360 C2359 1.403 . S
C2360 C2361 1.404 . S
C2360 C2363 1.539 . S
C2361 C2357 1.408 . S
C2361 C2360 1.404 . S
C2361 H2373 0.930 . S
C2362 C2358 1.524 . S
C2362 H2374 0.956 . S
C2362 H2375 0.961 . S
C2362 H2376 0.961 . S
C2363 C2360 1.539 . S
C2363 H2377 0.958 . S
C2363 H2378 0.961 . S
C2363 H2379 0.960 . S
H2364 C2348 0.931 . S
H2365 C2353 0.929 . S
H2366 C2354 0.960 . S
H2367 C2354 0.962 . S
H2368 C2354 0.960 . S
H2369 C2355 0.961 . S
H2370 C2355 0.961 . S
H2371 C2355 0.961 . S
H2372 C2356 0.931 . S
H2373 C2361 0.930 . S
H2374 C2362 0.956 . S
H2375 C2362 0.961 . S
H2376 C2362 0.961 . S
H2377 C2363 0.958 . S
H2378 C2363 0.961 . S
H2379 C2363 0.960 . S
C2380 C2381 1.391 . S
C2380 C2382 1.394 . S
C2380 H2396 0.931 . S
C2381 C2380 1.391 . S
C2381 C2385 1.376 . S
C2382 C2380 1.394 . S
C2382 C2383 1.369 . S
C2382 C2386 1.531 . S
C2383 C2382 1.369 . S
C2383 C2384 1.410 . S
C2383 C2391 1.503 . S
C2384 C2383 1.410 . S
C2384 C2385 1.392 . S
C2384 C2387 1.511 . S
C2385 C2381 1.376 . S
C2385 C2384 1.392 . S
C2385 H2397 0.929 . S
C2386 C2382 1.531 . S
C2386 H2398 0.960 . S
C2386 H2399 0.962 . S
C2386 H2400 0.960 . S
C2387 C2384 1.511 . S
C2387 H2401 0.961 . S
C2387 H2402 0.961 . S
C2387 H2403 0.961 . S
C2388 C2389 1.370 . S
C2388 C2390 1.363 . S
C2388 H2404 0.931 . S
C2389 C2388 1.370 . S
C2389 C2393 1.408 . S
C2390 C2388 1.363 . S
C2390 C2391 1.370 . S
C2390 C2394 1.524 . S
C2391 C2383 1.503 . S
C2391 C2390 1.370 . S
C2391 C2392 1.403 . S
C2392 C2391 1.403 . S
C2392 C2393 1.404 . S
C2392 C2395 1.539 . S
C2393 C2389 1.408 . S
C2393 C2392 1.404 . S
C2393 H2405 0.930 . S
C2394 C2390 1.524 . S
C2394 H2406 0.956 . S
C2394 H2407 0.961 . S
C2394 H2408 0.961 . S
C2395 C2392 1.539 . S
C2395 H2409 0.958 . S
C2395 H2410 0.961 . S
C2395 H2411 0.960 . S
H2396 C2380 0.931 . S
H2397 C2385 0.929 . S
H2398 C2386 0.960 . S
H2399 C2386 0.962 . S
H2400 C2386 0.960 . S
H2401 C2387 0.961 . S
H2402 C2387 0.961 . S
H2403 C2387 0.961 . S
H2404 C2388 0.931 . S
H2405 C2393 0.930 . S
H2406 C2394 0.956 . S
H2407 C2394 0.961 . S
H2408 C2394 0.961 . S
H2409 C2395 0.958 . S
H2410 C2395 0.961 . S
H2411 C2395 0.960 . S
C2412 C2413 1.391 . S
C2412 C2414 1.394 . S
C2412 H2428 0.931 . S
C2413 C2412 1.391 . S
C2413 C2417 1.376 . S
C2414 C2412 1.394 . S
C2414 C2415 1.369 . S
C2414 C2418 1.531 . S
C2415 C2414 1.369 . S
C2415 C2416 1.410 . S
C2415 C2423 1.503 . S
C2416 C2415 1.410 . S
C2416 C2417 1.392 . S
C2416 C2419 1.511 1_565 S
C2417 C2413 1.376 . S
C2417 C2416 1.392 . S
C2417 H2429 0.929 . S
C2418 C2414 1.531 . S
C2418 H2430 0.960 . S
C2418 H2431 0.962 . S
C2418 H2432 0.960 . S
C2419 C2416 1.511 1_545 S
C2419 H2433 0.961 . S
C2419 H2434 0.961 . S
C2419 H2435 0.957 . S
C2420 C2421 1.372 1_545 S
C2420 C2422 1.357 1_545 S
C2420 H2436 0.938 . S
C2421 C2420 1.372 1_565 S
C2421 C2425 1.408 . S
C2422 C2420 1.357 1_565 S
C2422 C2423 1.370 . S
C2422 C2426 1.524 1_565 S
C2423 C2415 1.503 . S
C2423 C2422 1.370 . S
C2423 C2424 1.403 . S
C2424 C2423 1.403 . S
C2424 C2425 1.404 . S
C2424 C2427 1.539 . S
C2425 C2421 1.408 . S
C2425 C2424 1.404 . S
C2425 H2437 0.930 . S
C2426 C2422 1.524 1_545 S
C2426 H2438 0.956 1_545 S
C2426 H2439 0.961 . S
C2426 H2440 0.961 . S
C2427 C2424 1.539 . S
C2427 H2441 0.958 . S
C2427 H2442 0.961 . S
C2427 H2443 0.960 . S
H2428 C2412 0.931 . S
H2429 C2417 0.929 . S
H2430 C2418 0.960 . S
H2431 C2418 0.962 . S
H2432 C2418 0.960 . S
H2433 C2419 0.961 . S
H2434 C2419 0.961 . S
H2435 C2419 0.957 . S
H2436 C2420 0.938 . S
H2437 C2425 0.930 . S
H2438 C2426 0.956 1_565 S
H2439 C2426 0.961 . S
H2440 C2426 0.961 . S
H2441 C2427 0.958 . S
H2442 C2427 0.961 . S
H2443 C2427 0.960 . S
C2444 C2445 1.391 . S
C2444 C2446 1.394 . S
C2444 H2460 0.931 . S
C2445 C2444 1.391 . S
C2445 C2449 1.376 . S
C2446 C2444 1.394 . S
C2446 C2447 1.369 . S
C2446 C2450 1.531 . S
C2447 C2446 1.369 . S
C2447 C2448 1.410 . S
C2447 C2455 1.503 . S
C2448 C2447 1.410 . S
C2448 C2449 1.392 . S
C2448 C2451 1.511 1_455 S
C2449 C2445 1.376 . S
C2449 C2448 1.392 . S
C2449 H2461 0.929 . S
C2450 C2446 1.531 . S
C2450 H2462 0.960 . S
C2450 H2463 0.962 . S
C2450 H2464 0.960 . S
C2451 C2448 1.511 1_655 S
C2451 H2465 0.952 . S
C2451 H2466 0.961 1_655 S
C2451 H2467 0.961 . S
C2452 C2453 1.370 . S
C2452 C2454 1.363 . S
C2452 H2468 0.931 . S
C2453 C2452 1.370 . S
C2453 C2457 1.408 1_455 S
C2454 C2452 1.363 . S
C2454 C2455 1.370 . S
C2454 C2458 1.524 . S
C2455 C2447 1.503 . S
C2455 C2454 1.370 . S
C2455 C2456 1.403 1_455 S
C2456 C2455 1.403 1_655 S
C2456 C2457 1.404 . S
C2456 C2459 1.539 . S
C2457 C2453 1.408 1_655 S
C2457 C2456 1.404 . S
C2457 H2469 0.930 . S
C2458 C2454 1.524 . S
C2458 H2470 0.956 . S
C2458 H2471 0.961 . S
C2458 H2472 0.961 . S
C2459 C2456 1.539 . S
C2459 H2473 0.958 . S
C2459 H2474 0.961 . S
C2459 H2475 0.960 . S
H2460 C2444 0.931 . S
H2461 C2449 0.929 . S
H2462 C2450 0.960 . S
H2463 C2450 0.962 . S
H2464 C2450 0.960 . S
H2465 C2451 0.952 . S
H2466 C2451 0.961 1_455 S
H2467 C2451 0.961 . S
H2468 C2452 0.931 . S
H2469 C2457 0.930 . S
H2470 C2458 0.956 . S
H2471 C2458 0.961 . S
H2472 C2458 0.961 . S
H2473 C2459 0.958 . S
H2474 C2459 0.961 . S
H2475 C2459 0.960 . S
C2476 C2477 1.391 . S
C2476 C2478 1.394 . S
C2476 H2492 0.931 . S
C2477 C2476 1.391 . S
C2477 C2481 1.376 . S
C2478 C2476 1.394 . S
C2478 C2479 1.369 . S
C2478 C2482 1.531 . S
C2479 C2478 1.369 . S
C2479 C2480 1.410 . S
C2479 C2487 1.503 . S
C2480 C2479 1.410 . S
C2480 C2481 1.392 . S
C2480 C2483 1.511 . S
C2481 C2477 1.376 . S
C2481 C2480 1.392 . S
C2481 H2493 0.929 . S
C2482 C2478 1.531 . S
C2482 H2494 0.960 . S
C2482 H2495 0.962 . S
C2482 H2496 0.960 . S
C2483 C2480 1.511 . S
C2483 H2497 0.961 . S
C2483 H2498 0.961 . S
C2483 H2499 0.961 . S
C2484 C2485 1.370 . S
C2484 C2486 1.363 . S
C2484 H2500 0.931 . S
C2485 C2484 1.370 . S
C2485 C2489 1.408 . S
C2486 C2484 1.363 . S
C2486 C2487 1.370 . S
C2486 C2490 1.524 . S
C2487 C2479 1.503 . S
C2487 C2486 1.370 . S
C2487 C2488 1.403 . S
C2488 C2487 1.403 . S
C2488 C2489 1.404 . S
C2488 C2491 1.539 . S
C2489 C2485 1.408 . S
C2489 C2488 1.404 . S
C2489 H2501 0.930 . S
C2490 C2486 1.524 . S
C2490 H2502 0.956 . S
C2490 H2503 0.961 . S
C2490 H2504 0.961 . S
C2491 C2488 1.539 . S
C2491 H2505 0.958 . S
C2491 H2506 0.961 . S
C2491 H2507 0.960 . S
H2492 C2476 0.931 . S
H2493 C2481 0.929 . S
H2494 C2482 0.960 . S
H2495 C2482 0.962 . S
H2496 C2482 0.960 . S
H2497 C2483 0.961 . S
H2498 C2483 0.961 . S
H2499 C2483 0.961 . S
H2500 C2484 0.931 . S
H2501 C2489 0.930 . S
H2502 C2490 0.956 . S
H2503 C2490 0.961 . S
H2504 C2490 0.961 . S
H2505 C2491 0.958 . S
H2506 C2491 0.961 . S
H2507 C2491 0.960 . S
C2508 C2509 1.391 . S
C2508 C2510 1.394 . S
C2508 H2524 0.931 . S
C2509 C2508 1.391 . S
C2509 C2513 1.419 . S
C2510 C2508 1.394 . S
C2510 C2511 1.369 . S
C2510 C2514 1.531 . S
C2511 C2510 1.369 . S
C2511 C2512 1.410 1_655 S
C2511 C2519 1.503 . S
C2512 C2511 1.410 1_455 S
C2512 C2513 1.387 1_455 S
C2512 C2515 1.511 . S
C2513 C2509 1.419 . S
C2513 C2512 1.387 1_655 S
C2513 H2525 0.892 1_655 S
C2514 C2510 1.531 . S
C2514 H2526 0.960 . S
C2514 H2527 0.962 . S
C2514 H2528 0.960 . S
C2515 C2512 1.511 . S
C2515 H2529 0.961 . S
C2515 H2530 0.961 . S
C2515 H2531 0.961 . S
C2516 C2517 1.370 . S
C2516 C2518 1.363 . S
C2516 H2532 0.931 . S
C2517 C2516 1.370 . S
C2517 C2521 1.408 . S
C2518 C2516 1.363 . S
C2518 C2519 1.370 . S
C2518 C2522 1.524 . S
C2519 C2511 1.503 . S
C2519 C2518 1.370 . S
C2519 C2520 1.403 . S
C2520 C2519 1.403 . S
C2520 C2521 1.404 . S
C2520 C2523 1.539 . S
C2521 C2517 1.408 . S
C2521 C2520 1.404 . S
C2521 H2533 0.930 . S
C2522 C2518 1.524 . S
C2522 H2534 0.956 . S
C2522 H2535 0.961 . S
C2522 H2536 0.961 . S
C2523 C2520 1.539 . S
C2523 H2537 0.958 . S
C2523 H2538 0.961 . S
C2523 H2539 0.960 . S
H2524 C2508 0.931 . S
H2525 C2513 0.892 1_455 S
H2526 C2514 0.960 . S
H2527 C2514 0.962 . S
H2528 C2514 0.960 . S
H2529 C2515 0.961 . S
H2530 C2515 0.961 . S
H2531 C2515 0.961 . S
H2532 C2516 0.931 . S
H2533 C2521 0.930 . S
H2534 C2522 0.956 . S
H2535 C2522 0.961 . S
H2536 C2522 0.961 . S
H2537 C2523 0.958 . S
H2538 C2523 0.961 . S
H2539 C2523 0.960 . S
C2540 C2541 1.391 . S
C2540 C2542 1.394 . S
C2540 H2556 0.931 . S
C2541 C2540 1.391 . S
C2541 C2545 1.376 . S
C2542 C2540 1.394 . S
C2542 C2543 1.369 . S
C2542 C2546 1.531 . S
C2543 C2542 1.369 . S
C2543 C2544 1.410 . S
C2543 C2551 1.503 . S
C2544 C2543 1.410 . S
C2544 C2545 1.392 . S
C2544 C2547 1.511 . S
C2545 C2541 1.376 . S
C2545 C2544 1.392 . S
C2545 H2557 0.929 . S
C2546 C2542 1.531 . S
C2546 H2558 0.960 . S
C2546 H2559 0.962 . S
C2546 H2560 0.960 . S
C2547 C2544 1.511 . S
C2547 H2561 0.961 . S
C2547 H2562 0.961 . S
C2547 H2563 0.961 . S
C2548 C2549 1.370 . S
C2548 C2550 1.363 . S
C2548 H2564 0.931 . S
C2549 C2548 1.370 . S
C2549 C2553 1.408 . S
C2550 C2548 1.363 . S
C2550 C2551 1.370 . S
C2550 C2554 1.524 . S
C2551 C2543 1.503 . S
C2551 C2550 1.370 . S
C2551 C2552 1.403 . S
C2552 C2551 1.403 . S
C2552 C2553 1.404 . S
C2552 C2555 1.539 . S
C2553 C2549 1.408 . S
C2553 C2552 1.404 . S
C2553 H2565 0.930 . S
C2554 C2550 1.524 . S
C2554 H2566 0.956 . S
C2554 H2567 0.961 . S
C2554 H2568 0.961 . S
C2555 C2552 1.539 . S
C2555 H2569 0.958 . S
C2555 H2570 0.961 . S
C2555 H2571 0.960 . S
H2556 C2540 0.931 . S
H2557 C2545 0.929 . S
H2558 C2546 0.960 . S
H2559 C2546 0.962 . S
H2560 C2546 0.960 . S
H2561 C2547 0.961 . S
H2562 C2547 0.961 . S
H2563 C2547 0.961 . S
H2564 C2548 0.931 . S
H2565 C2553 0.930 . S
H2566 C2554 0.956 . S
H2567 C2554 0.961 . S
H2568 C2554 0.961 . S
H2569 C2555 0.958 . S
H2570 C2555 0.961 . S
H2571 C2555 0.960 . S
C2572 C2573 1.391 . S
C2572 C2574 1.394 . S
C2572 H2588 0.931 . S
C2573 C2572 1.391 . S
C2573 C2577 1.376 . S
C2574 C2572 1.394 . S
C2574 C2575 1.369 . S
C2574 C2578 1.531 . S
C2575 C2574 1.369 . S
C2575 C2576 1.410 . S
C2575 C2583 1.503 . S
C2576 C2575 1.410 . S
C2576 C2577 1.392 . S
C2576 C2579 1.511 . S
C2577 C2573 1.376 . S
C2577 C2576 1.392 . S
C2577 H2589 0.929 . S
C2578 C2574 1.531 . S
C2578 H2590 0.960 . S
C2578 H2591 0.962 . S
C2578 H2592 0.960 . S
C2579 C2576 1.511 . S
C2579 H2593 0.961 . S
C2579 H2594 0.961 . S
C2579 H2595 0.961 . S
C2580 C2581 1.370 1_565 S
C2580 C2582 1.377 . S
C2580 H2596 0.931 . S
C2581 C2580 1.370 1_545 S
C2581 C2585 1.408 . S
C2582 C2580 1.377 . S
C2582 C2583 1.332 1_565 S
C2582 C2586 1.551 . S
C2583 C2575 1.503 . S
C2583 C2582 1.332 1_545 S
C2583 C2584 1.403 . S
C2584 C2583 1.403 . S
C2584 C2585 1.404 . S
C2584 C2587 1.539 . S
C2585 C2581 1.408 . S
C2585 C2584 1.404 . S
C2585 H2597 0.930 . S
C2586 C2582 1.551 . S
C2586 H2598 0.956 . S
C2586 H2599 0.961 . S
C2586 H2600 0.961 . S
C2587 C2584 1.539 . S
C2587 H2601 0.958 . S
C2587 H2602 0.961 . S
C2587 H2603 0.960 . S
H2588 C2572 0.931 . S
H2589 C2577 0.929 . S
H2590 C2578 0.960 . S
H2591 C2578 0.962 . S
H2592 C2578 0.960 . S
H2593 C2579 0.961 . S
H2594 C2579 0.961 . S
H2595 C2579 0.961 . S
H2596 C2580 0.931 . S
H2597 C2585 0.930 . S
H2598 C2586 0.956 . S
H2599 C2586 0.961 . S
H2600 C2586 0.961 . S
H2601 C2587 0.958 . S
H2602 C2587 0.961 . S
H2603 C2587 0.960 . S
C2604 C2605 1.391 . S
C2604 C2606 1.394 . S
C2604 H2620 0.931 . S
C2605 C2604 1.391 . S
C2605 C2609 1.376 . S
C2606 C2604 1.394 . S
C2606 C2607 1.369 . S
C2606 C2610 1.531 . S
C2607 C2606 1.369 . S
C2607 C2608 1.410 . S
C2607 C2615 1.503 . S
C2608 C2607 1.410 . S
C2608 C2609 1.392 . S
C2608 C2611 1.511 . S
C2609 C2605 1.376 . S
C2609 C2608 1.392 . S
C2609 H2621 0.929 . S
C2610 C2606 1.531 . S
C2610 H2622 0.960 . S
C2610 H2623 0.962 . S
C2610 H2624 0.960 . S
C2611 C2608 1.511 . S
C2611 H2625 0.961 . S
C2611 H2626 0.961 . S
C2611 H2627 0.961 . S
C2612 C2613 1.370 . S
C2612 C2614 1.363 . S
C2612 H2628 0.931 . S
C2613 C2612 1.370 . S
C2613 C2617 1.408 . S
C2614 C2612 1.363 . S
C2614 C2615 1.370 . S
C2614 C2618 1.524 . S
C2615 C2607 1.503 . S
C2615 C2614 1.370 . S
C2615 C2616 1.403 . S
C2616 C2615 1.403 . S
C2616 C2617 1.404 . S
C2616 C2619 1.539 . S
C2617 C2613 1.408 . S
C2617 C2616 1.404 . S
C2617 H2629 0.930 . S
C2618 C2614 1.524 . S
C2618 H2630 0.956 . S
C2618 H2631 0.961 . S
C2618 H2632 0.961 . S
C2619 C2616 1.539 . S
C2619 H2633 0.958 . S
C2619 H2634 0.961 . S
C2619 H2635 0.960 . S
H2620 C2604 0.931 . S
H2621 C2609 0.929 . S
H2622 C2610 0.960 . S
H2623 C2610 0.962 . S
H2624 C2610 0.960 . S
H2625 C2611 0.961 . S
H2626 C2611 0.961 . S
H2627 C2611 0.961 . S
H2628 C2612 0.931 . S
H2629 C2617 0.930 . S
H2630 C2618 0.956 . S
H2631 C2618 0.961 . S
H2632 C2618 0.961 . S
H2633 C2619 0.958 . S
H2634 C2619 0.961 . S
H2635 C2619 0.960 . S
C2636 C2637 1.391 . S
C2636 C2638 1.394 . S
C2636 H2652 0.931 . S
C2637 C2636 1.391 . S
C2637 C2641 1.376 . S
C2638 C2636 1.394 . S
C2638 C2639 1.369 . S
C2638 C2642 1.531 . S
C2639 C2638 1.369 . S
C2639 C2640 1.410 . S
C2639 C2647 1.503 . S
C2640 C2639 1.410 . S
C2640 C2641 1.392 . S
C2640 C2643 1.511 . S
C2641 C2637 1.376 . S
C2641 C2640 1.392 . S
C2641 H2653 0.929 . S
C2642 C2638 1.531 . S
C2642 H2654 0.960 . S
C2642 H2655 0.962 . S
C2642 H2656 0.960 . S
C2643 C2640 1.511 . S
C2643 H2657 0.961 . S
C2643 H2658 0.961 . S
C2643 H2659 0.961 . S
C2644 C2645 1.370 . S
C2644 C2646 1.363 . S
C2644 H2660 0.931 . S
C2645 C2644 1.370 . S
C2645 C2649 1.408 . S
C2646 C2644 1.363 . S
C2646 C2647 1.370 . S
C2646 C2650 1.524 . S
C2647 C2639 1.503 . S
C2647 C2646 1.370 . S
C2647 C2648 1.403 . S
C2648 C2647 1.403 . S
C2648 C2649 1.404 . S
C2648 C2651 1.539 . S
C2649 C2645 1.408 . S
C2649 C2648 1.404 . S
C2649 H2661 0.930 . S
C2650 C2646 1.524 . S
C2650 H2662 0.956 . S
C2650 H2663 0.961 . S
C2650 H2664 0.961 . S
C2651 C2648 1.539 . S
C2651 H2665 0.958 . S
C2651 H2666 0.961 . S
C2651 H2667 0.960 . S
H2652 C2636 0.931 . S
H2653 C2641 0.929 . S
H2654 C2642 0.960 . S
H2655 C2642 0.962 . S
H2656 C2642 0.960 . S
H2657 C2643 0.961 . S
H2658 C2643 0.961 . S
H2659 C2643 0.961 . S
H2660 C2644 0.931 . S
H2661 C2649 0.930 . S
H2662 C2650 0.956 . S
H2663 C2650 0.961 . S
H2664 C2650 0.961 . S
H2665 C2651 0.958 . S
H2666 C2651 0.961 . S
H2667 C2651 0.960 . S
C2668 C2669 1.391 . S
C2668 C2670 1.394 . S
C2668 H2684 0.931 . S
C2669 C2668 1.391 . S
C2669 C2673 1.376 . S
C2670 C2668 1.394 . S
C2670 C2671 1.369 . S
C2670 C2674 1.531 . S
C2671 C2670 1.369 . S
C2671 C2672 1.410 . S
C2671 C2679 1.503 . S
C2672 C2671 1.410 . S
C2672 C2673 1.392 . S
C2672 C2675 1.511 . S
C2673 C2669 1.376 . S
C2673 C2672 1.392 . S
C2673 H2685 0.929 . S
C2674 C2670 1.531 . S
C2674 H2686 0.960 . S
C2674 H2687 0.962 . S
C2674 H2688 0.960 . S
C2675 C2672 1.511 . S
C2675 H2689 0.961 . S
C2675 H2690 0.961 . S
C2675 H2691 0.961 . S
C2676 C2677 1.370 . S
C2676 C2678 1.363 . S
C2676 H2692 0.931 . S
C2677 C2676 1.370 . S
C2677 C2681 1.408 . S
C2678 C2676 1.363 . S
C2678 C2679 1.370 . S
C2678 C2682 1.524 . S
C2679 C2671 1.503 . S
C2679 C2678 1.370 . S
C2679 C2680 1.403 . S
C2680 C2679 1.403 . S
C2680 C2681 1.404 . S
C2680 C2683 1.539 . S
C2681 C2677 1.408 . S
C2681 C2680 1.404 . S
C2681 H2693 0.930 . S
C2682 C2678 1.524 . S
C2682 H2694 0.956 . S
C2682 H2695 0.961 . S
C2682 H2696 0.961 . S
C2683 C2680 1.539 . S
C2683 H2697 0.958 . S
C2683 H2698 0.961 . S
C2683 H2699 0.960 . S
H2684 C2668 0.931 . S
H2685 C2673 0.929 . S
H2686 C2674 0.960 . S
H2687 C2674 0.962 . S
H2688 C2674 0.960 . S
H2689 C2675 0.961 . S
H2690 C2675 0.961 . S
H2691 C2675 0.961 . S
H2692 C2676 0.931 . S
H2693 C2681 0.930 . S
H2694 C2682 0.956 . S
H2695 C2682 0.961 . S
H2696 C2682 0.961 . S
H2697 C2683 0.958 . S
H2698 C2683 0.961 . S
H2699 C2683 0.960 . S
C2700 C2701 1.391 . S
C2700 C2702 1.394 . S
C2700 H2716 0.931 . S
C2701 C2700 1.391 . S
C2701 C2705 1.376 . S
C2702 C2700 1.394 . S
C2702 C2703 1.369 . S
C2702 C2706 1.531 . S
C2703 C2702 1.369 . S
C2703 C2704 1.410 . S
C2703 C2711 1.503 . S
C2704 C2703 1.410 . S
C2704 C2705 1.392 . S
C2704 C2707 1.511 . S
C2705 C2701 1.376 . S
C2705 C2704 1.392 . S
C2705 H2717 0.929 . S
C2706 C2702 1.531 . S
C2706 H2718 0.960 . S
C2706 H2719 0.962 . S
C2706 H2720 0.960 . S
C2707 C2704 1.511 . S
C2707 H2721 0.961 . S
C2707 H2722 0.961 . S
C2707 H2723 0.961 . S
C2708 C2709 1.370 . S
C2708 C2710 1.363 . S
C2708 H2724 0.931 . S
C2709 C2708 1.370 . S
C2709 C2713 1.408 . S
C2710 C2708 1.363 . S
C2710 C2711 1.370 . S
C2710 C2714 1.524 . S
C2711 C2703 1.503 . S
C2711 C2710 1.370 . S
C2711 C2712 1.403 . S
C2712 C2711 1.403 . S
C2712 C2713 1.404 . S
C2712 C2715 1.539 . S
C2713 C2709 1.408 . S
C2713 C2712 1.404 . S
C2713 H2725 0.930 . S
C2714 C2710 1.524 . S
C2714 H2726 0.956 . S
C2714 H2727 0.961 . S
C2714 H2728 0.961 . S
C2715 C2712 1.539 . S
C2715 H2729 0.958 . S
C2715 H2730 0.961 . S
C2715 H2731 0.960 . S
H2716 C2700 0.931 . S
H2717 C2705 0.929 . S
H2718 C2706 0.960 . S
H2719 C2706 0.962 . S
H2720 C2706 0.960 . S
H2721 C2707 0.961 . S
H2722 C2707 0.961 . S
H2723 C2707 0.961 . S
H2724 C2708 0.931 . S
H2725 C2713 0.930 . S
H2726 C2714 0.956 . S
H2727 C2714 0.961 . S
H2728 C2714 0.961 . S
H2729 C2715 0.958 . S
H2730 C2715 0.961 . S
H2731 C2715 0.960 . S
C2732 C2733 1.391 . S
C2732 C2734 1.394 . S
C2732 H2748 0.931 . S
C2733 C2732 1.391 . S
C2733 C2737 1.376 . S
C2734 C2732 1.394 . S
C2734 C2735 1.369 . S
C2734 C2738 1.531 . S
C2735 C2734 1.369 . S
C2735 C2736 1.410 . S
C2735 C2743 1.503 . S
C2736 C2735 1.410 . S
C2736 C2737 1.392 . S
C2736 C2739 1.511 . S
C2737 C2733 1.376 . S
C2737 C2736 1.392 . S
C2737 H2749 0.929 . S
C2738 C2734 1.531 . S
C2738 H2750 0.960 . S
C2738 H2751 0.962 . S
C2738 H2752 0.960 . S
C2739 C2736 1.511 . S
C2739 H2753 0.961 . S
C2739 H2754 0.961 . S
C2739 H2755 0.961 . S
C2740 C2741 1.370 . S
C2740 C2742 1.363 . S
C2740 H2756 0.931 . S
C2741 C2740 1.370 . S
C2741 C2745 1.408 . S
C2742 C2740 1.363 . S
C2742 C2743 1.370 . S
C2742 C2746 1.524 . S
C2743 C2735 1.503 . S
C2743 C2742 1.370 . S
C2743 C2744 1.403 . S
C2744 C2743 1.403 . S
C2744 C2745 1.404 . S
C2744 C2747 1.539 . S
C2745 C2741 1.408 . S
C2745 C2744 1.404 . S
C2745 H2757 0.930 . S
C2746 C2742 1.524 . S
C2746 H2758 0.956 . S
C2746 H2759 0.961 . S
C2746 H2760 0.961 . S
C2747 C2744 1.539 . S
C2747 H2761 0.958 . S
C2747 H2762 0.961 . S
C2747 H2763 0.960 . S
H2748 C2732 0.931 . S
H2749 C2737 0.929 . S
H2750 C2738 0.960 . S
H2751 C2738 0.962 . S
H2752 C2738 0.960 . S
H2753 C2739 0.961 . S
H2754 C2739 0.961 . S
H2755 C2739 0.961 . S
H2756 C2740 0.931 . S
H2757 C2745 0.930 . S
H2758 C2746 0.956 . S
H2759 C2746 0.961 . S
H2760 C2746 0.961 . S
H2761 C2747 0.958 . S
H2762 C2747 0.961 . S
H2763 C2747 0.960 . S
C2764 C2765 1.391 . S
C2764 C2766 1.394 . S
C2764 H2780 0.931 . S
C2765 C2764 1.391 . S
C2765 C2769 1.376 . S
C2766 C2764 1.394 . S
C2766 C2767 1.369 . S
C2766 C2770 1.531 . S
C2767 C2766 1.369 . S
C2767 C2768 1.410 . S
C2767 C2775 1.503 . S
C2768 C2767 1.410 . S
C2768 C2769 1.392 . S
C2768 C2771 1.511 . S
C2769 C2765 1.376 . S
C2769 C2768 1.392 . S
C2769 H2781 0.929 . S
C2770 C2766 1.531 . S
C2770 H2782 0.960 . S
C2770 H2783 0.962 . S
C2770 H2784 0.960 . S
C2771 C2768 1.511 . S
C2771 H2785 0.961 . S
C2771 H2786 0.961 . S
C2771 H2787 0.961 . S
C2772 C2773 1.370 . S
C2772 C2774 1.363 . S
C2772 H2788 0.931 . S
C2773 C2772 1.370 . S
C2773 C2777 1.408 . S
C2774 C2772 1.363 . S
C2774 C2775 1.370 . S
C2774 C2778 1.524 . S
C2775 C2767 1.503 . S
C2775 C2774 1.370 . S
C2775 C2776 1.403 . S
C2776 C2775 1.403 . S
C2776 C2777 1.404 . S
C2776 C2779 1.539 . S
C2777 C2773 1.408 . S
C2777 C2776 1.404 . S
C2777 H2789 0.930 . S
C2778 C2774 1.524 . S
C2778 H2790 0.956 . S
C2778 H2791 0.961 . S
C2778 H2792 0.961 . S
C2779 C2776 1.539 . S
C2779 H2793 0.958 . S
C2779 H2794 0.961 . S
C2779 H2795 0.960 . S
H2780 C2764 0.931 . S
H2781 C2769 0.929 . S
H2782 C2770 0.960 . S
H2783 C2770 0.962 . S
H2784 C2770 0.960 . S
H2785 C2771 0.961 . S
H2786 C2771 0.961 . S
H2787 C2771 0.961 . S
H2788 C2772 0.931 . S
H2789 C2777 0.930 . S
H2790 C2778 0.956 . S
H2791 C2778 0.961 . S
H2792 C2778 0.961 . S
H2793 C2779 0.958 . S
H2794 C2779 0.961 . S
H2795 C2779 0.960 . S
C2796 C2797 1.391 . S
C2796 C2798 1.394 . S
C2796 H2812 0.931 . S
C2797 C2796 1.391 . S
C2797 C2801 1.376 . S
C2798 C2796 1.394 . S
C2798 C2799 1.369 . S
C2798 C2802 1.531 . S
C2799 C2798 1.369 . S
C2799 C2800 1.410 . S
C2799 C2807 1.503 . S
C2800 C2799 1.410 . S
C2800 C2801 1.392 . S
C2800 C2803 1.511 . S
C2801 C2797 1.376 . S
C2801 C2800 1.392 . S
C2801 H2813 0.929 . S
C2802 C2798 1.531 . S
C2802 H2814 0.960 . S
C2802 H2815 0.962 . S
C2802 H2816 0.960 . S
C2803 C2800 1.511 . S
C2803 H2817 0.961 . S
C2803 H2818 0.961 . S
C2803 H2819 0.961 . S
C2804 C2805 1.370 . S
C2804 C2806 1.363 . S
C2804 H2820 0.931 . S
C2805 C2804 1.370 . S
C2805 C2809 1.408 . S
C2806 C2804 1.363 . S
C2806 C2807 1.370 . S
C2806 C2810 1.524 . S
C2807 C2799 1.503 . S
C2807 C2806 1.370 . S
C2807 C2808 1.403 . S
C2808 C2807 1.403 . S
C2808 C2809 1.404 . S
C2808 C2811 1.539 . S
C2809 C2805 1.408 . S
C2809 C2808 1.404 . S
C2809 H2821 0.930 . S
C2810 C2806 1.524 . S
C2810 H2822 0.956 . S
C2810 H2823 0.961 . S
C2810 H2824 0.961 . S
C2811 C2808 1.539 . S
C2811 H2825 0.958 . S
C2811 H2826 0.961 . S
C2811 H2827 0.960 . S
H2812 C2796 0.931 . S
H2813 C2801 0.929 . S
H2814 C2802 0.960 . S
H2815 C2802 0.962 . S
H2816 C2802 0.960 . S
H2817 C2803 0.961 . S
H2818 C2803 0.961 . S
H2819 C2803 0.961 . S
H2820 C2804 0.931 . S
H2821 C2809 0.930 . S
H2822 C2810 0.956 . S
H2823 C2810 0.961 . S
H2824 C2810 0.961 . S
H2825 C2811 0.958 . S
H2826 C2811 0.961 . S
H2827 C2811 0.960 . S
C2828 C2829 1.391 . S
C2828 C2830 1.394 . S
C2828 H2844 0.931 . S
C2829 C2828 1.391 . S
C2829 C2833 1.376 . S
C2830 C2828 1.394 . S
C2830 C2831 1.369 . S
C2830 C2834 1.531 . S
C2831 C2830 1.369 . S
C2831 C2832 1.410 . S
C2831 C2839 1.503 . S
C2832 C2831 1.410 . S
C2832 C2833 1.392 . S
C2832 C2835 1.511 . S
C2833 C2829 1.376 . S
C2833 C2832 1.392 . S
C2833 H2845 0.929 . S
C2834 C2830 1.531 . S
C2834 H2846 0.960 . S
C2834 H2847 0.962 . S
C2834 H2848 0.960 . S
C2835 C2832 1.511 . S
C2835 H2849 0.961 . S
C2835 H2850 0.961 . S
C2835 H2851 0.961 . S
C2836 C2837 1.370 . S
C2836 C2838 1.363 . S
C2836 H2852 0.931 . S
C2837 C2836 1.370 . S
C2837 C2841 1.408 . S
C2838 C2836 1.363 . S
C2838 C2839 1.370 . S
C2838 C2842 1.524 . S
C2839 C2831 1.503 . S
C2839 C2838 1.370 . S
C2839 C2840 1.403 . S
C2840 C2839 1.403 . S
C2840 C2841 1.404 . S
C2840 C2843 1.539 . S
C2841 C2837 1.408 . S
C2841 C2840 1.404 . S
C2841 H2853 0.930 . S
C2842 C2838 1.524 . S
C2842 H2854 0.956 . S
C2842 H2855 0.961 . S
C2842 H2856 0.961 . S
C2843 C2840 1.539 . S
C2843 H2857 0.958 . S
C2843 H2858 0.961 . S
C2843 H2859 0.960 . S
H2844 C2828 0.931 . S
H2845 C2833 0.929 . S
H2846 C2834 0.960 . S
H2847 C2834 0.962 . S
H2848 C2834 0.960 . S
H2849 C2835 0.961 . S
H2850 C2835 0.961 . S
H2851 C2835 0.961 . S
H2852 C2836 0.931 . S
H2853 C2841 0.930 . S
H2854 C2842 0.956 . S
H2855 C2842 0.961 . S
H2856 C2842 0.961 . S
H2857 C2843 0.958 . S
H2858 C2843 0.961 . S
H2859 C2843 0.960 . S
C2860 C2861 1.391 . S
C2860 C2862 1.394 . S
C2860 H2876 0.931 . S
C2861 C2860 1.391 . S
C2861 C2865 1.376 . S
C2862 C2860 1.394 . S
C2862 C2863 1.369 . S
C2862 C2866 1.531 . S
C2863 C2862 1.369 . S
C2863 C2864 1.410 . S
C2863 C2871 1.503 . S
C2864 C2863 1.410 . S
C2864 C2865 1.392 . S
C2864 C2867 1.511 . S
C2865 C2861 1.376 . S
C2865 C2864 1.392 . S
C2865 H2877 0.929 . S
C2866 C2862 1.531 . S
C2866 H2878 0.960 . S
C2866 H2879 0.962 . S
C2866 H2880 0.960 . S
C2867 C2864 1.511 . S
C2867 H2881 0.961 . S
C2867 H2882 0.961 . S
C2867 H2883 0.961 . S
C2868 C2869 1.370 . S
C2868 C2870 1.363 . S
C2868 H2884 0.931 . S
C2869 C2868 1.370 . S
C2869 C2873 1.408 . S
C2870 C2868 1.363 . S
C2870 C2871 1.370 . S
C2870 C2874 1.524 . S
C2871 C2863 1.503 . S
C2871 C2870 1.370 . S
C2871 C2872 1.403 . S
C2872 C2871 1.403 . S
C2872 C2873 1.404 . S
C2872 C2875 1.539 . S
C2873 C2869 1.408 . S
C2873 C2872 1.404 . S
C2873 H2885 0.930 . S
C2874 C2870 1.524 . S
C2874 H2886 0.956 . S
C2874 H2887 0.961 . S
C2874 H2888 0.961 . S
C2875 C2872 1.539 . S
C2875 H2889 0.958 . S
C2875 H2890 0.961 . S
C2875 H2891 0.960 . S
H2876 C2860 0.931 . S
H2877 C2865 0.929 . S
H2878 C2866 0.960 . S
H2879 C2866 0.962 . S
H2880 C2866 0.960 . S
H2881 C2867 0.961 . S
H2882 C2867 0.961 . S
H2883 C2867 0.961 . S
H2884 C2868 0.931 . S
H2885 C2873 0.930 . S
H2886 C2874 0.956 . S
H2887 C2874 0.961 . S
H2888 C2874 0.961 . S
H2889 C2875 0.958 . S
H2890 C2875 0.961 . S
H2891 C2875 0.960 . S
C2892 C2893 1.391 . S
C2892 C2894 1.394 . S
C2892 H2908 0.931 . S
C2893 C2892 1.391 . S
C2893 C2897 1.376 . S
C2894 C2892 1.394 . S
C2894 C2895 1.369 . S
C2894 C2898 1.531 . S
C2895 C2894 1.369 . S
C2895 C2896 1.410 . S
C2895 C2903 1.503 . S
C2896 C2895 1.410 . S
C2896 C2897 1.392 . S
C2896 C2899 1.511 . S
C2897 C2893 1.376 . S
C2897 C2896 1.392 . S
C2897 H2909 0.929 . S
C2898 C2894 1.531 . S
C2898 H2910 0.960 . S
C2898 H2911 0.962 . S
C2898 H2912 0.960 . S
C2899 C2896 1.511 . S
C2899 H2913 0.961 . S
C2899 H2914 0.961 . S
C2899 H2915 0.961 . S
C2900 C2901 1.370 . S
C2900 C2902 1.363 . S
C2900 H2916 0.931 . S
C2901 C2900 1.370 . S
C2901 C2905 1.408 . S
C2902 C2900 1.363 . S
C2902 C2903 1.370 . S
C2902 C2906 1.524 . S
C2903 C2895 1.503 . S
C2903 C2902 1.370 . S
C2903 C2904 1.403 . S
C2904 C2903 1.403 . S
C2904 C2905 1.404 . S
C2904 C2907 1.539 . S
C2905 C2901 1.408 . S
C2905 C2904 1.404 . S
C2905 H2917 0.930 . S
C2906 C2902 1.524 . S
C2906 H2918 0.956 . S
C2906 H2919 0.961 . S
C2906 H2920 0.961 . S
C2907 C2904 1.539 . S
C2907 H2921 0.958 . S
C2907 H2922 0.961 . S
C2907 H2923 0.960 . S
H2908 C2892 0.931 . S
H2909 C2897 0.929 . S
H2910 C2898 0.960 . S
H2911 C2898 0.962 . S
H2912 C2898 0.960 . S
H2913 C2899 0.961 . S
H2914 C2899 0.961 . S
H2915 C2899 0.961 . S
H2916 C2900 0.931 . S
H2917 C2905 0.930 . S
H2918 C2906 0.956 . S
H2919 C2906 0.961 . S
H2920 C2906 0.961 . S
H2921 C2907 0.958 . S
H2922 C2907 0.961 . S
H2923 C2907 0.960 . S
C2924 C2925 1.391 . S
C2924 C2926 1.394 . S
C2924 H2940 0.931 . S
C2925 C2924 1.391 . S
C2925 C2929 1.376 . S
C2926 C2924 1.394 . S
C2926 C2927 1.369 . S
C2926 C2930 1.531 . S
C2927 C2926 1.369 . S
C2927 C2928 1.410 . S
C2927 C2935 1.503 . S
C2928 C2927 1.410 . S
C2928 C2929 1.392 . S
C2928 C2931 1.511 . S
C2929 C2925 1.376 . S
C2929 C2928 1.392 . S
C2929 H2941 0.929 . S
C2930 C2926 1.531 . S
C2930 H2942 0.960 . S
C2930 H2943 0.962 . S
C2930 H2944 0.960 . S
C2931 C2928 1.511 . S
C2931 H2945 0.961 . S
C2931 H2946 0.961 . S
C2931 H2947 0.961 . S
C2932 C2933 1.370 . S
C2932 C2934 1.363 . S
C2932 H2948 0.931 . S
C2933 C2932 1.370 . S
C2933 C2937 1.408 . S
C2934 C2932 1.363 . S
C2934 C2935 1.370 . S
C2934 C2938 1.524 . S
C2935 C2927 1.503 . S
C2935 C2934 1.370 . S
C2935 C2936 1.403 . S
C2936 C2935 1.403 . S
C2936 C2937 1.404 . S
C2936 C2939 1.539 . S
C2937 C2933 1.408 . S
C2937 C2936 1.404 . S
C2937 H2949 0.930 . S
C2938 C2934 1.524 . S
C2938 H2950 0.956 . S
C2938 H2951 0.961 . S
C2938 H2952 0.961 . S
C2939 C2936 1.539 . S
C2939 H2953 0.958 . S
C2939 H2954 0.961 . S
C2939 H2955 0.960 . S
H2940 C2924 0.931 . S
H2941 C2929 0.929 . S
H2942 C2930 0.960 . S
H2943 C2930 0.962 . S
H2944 C2930 0.960 . S
H2945 C2931 0.961 . S
H2946 C2931 0.961 . S
H2947 C2931 0.961 . S
H2948 C2932 0.931 . S
H2949 C2937 0.930 . S
H2950 C2938 0.956 . S
H2951 C2938 0.961 . S
H2952 C2938 0.961 . S
H2953 C2939 0.958 . S
H2954 C2939 0.961 . S
H2955 C2939 0.960 . S
C2956 C2957 1.391 . S
C2956 C2958 1.394 . S
C2956 H2972 0.931 . S
C2957 C2956 1.391 . S
C2957 C2961 1.376 . S
C2958 C2956 1.394 . S
C2958 C2959 1.369 . S
C2958 C2962 1.531 . S
C2959 C2958 1.369 . S
C2959 C2960 1.410 . S
C2959 C2967 1.503 . S
C2960 C2959 1.410 . S
C2960 C2961 1.392 . S
C2960 C2963 1.511 . S
C2961 C2957 1.376 . S
C2961 C2960 1.392 . S
C2961 H2973 0.929 . S
C2962 C2958 1.531 . S
C2962 H2974 0.960 . S
C2962 H2975 0.962 . S
C2962 H2976 0.960 . S
C2963 C2960 1.511 . S
C2963 H2977 0.961 . S
C2963 H2978 0.961 . S
C2963 H2979 0.961 . S
C2964 C2965 1.370 . S
C2964 C2966 1.363 . S
C2964 H2980 0.931 . S
C2965 C2964 1.370 . S
C2965 C2969 1.408 . S
C2966 C2964 1.363 . S
C2966 C2967 1.370 . S
C2966 C2970 1.524 . S
C2967 C2959 1.503 . S
C2967 C2966 1.370 . S
C2967 C2968 1.403 . S
C2968 C2967 1.403 . S
C2968 C2969 1.404 . S
C2968 C2971 1.539 . S
C2969 C2965 1.408 . S
C2969 C2968 1.404 . S
C2969 H2981 0.930 . S
C2970 C2966 1.524 . S
C2970 H2982 0.956 . S
C2970 H2983 0.961 . S
C2970 H2984 0.961 . S
C2971 C2968 1.539 . S
C2971 H2985 0.958 . S
C2971 H2986 0.961 . S
C2971 H2987 0.960 . S
H2972 C2956 0.931 . S
H2973 C2961 0.929 . S
H2974 C2962 0.960 . S
H2975 C2962 0.962 . S
H2976 C2962 0.960 . S
H2977 C2963 0.961 . S
H2978 C2963 0.961 . S
H2979 C2963 0.961 . S
H2980 C2964 0.931 . S
H2981 C2969 0.930 . S
H2982 C2970 0.956 . S
H2983 C2970 0.961 . S
H2984 C2970 0.961 . S
H2985 C2971 0.958 . S
H2986 C2971 0.961 . S
H2987 C2971 0.960 . S
C1261 C781 1.568 . S
C1269 C1086 1.547 . S
C1293 C871 1.505 . S
C1301 C1106 1.486 . S
C1325 C751 1.551 . S
C1333 C1129 1.555 . S
C1357 C691 1.417 . S
C1365 C1109 1.472 . S
C1397 C1126 1.423 . S
C1389 C571 1.422 . S
C1421 C601 1.486 . S
C1429 C1089 1.466 . S
C1461 C1096 1.551 . S
C1453 C661 1.500 . S
C1493 C1116 1.503 . S
C1485 C541 1.449 . S
C1517 C631 1.566 . S
C1525 C1121 1.564 . S
C1549 C811 1.456 . S
C1557 C1101 1.463 . S
C1581 C841 1.437 . S
C1589 C1136 1.415 . S
C1621 C1081 1.478 . S
C1613 C721 1.391 . S
C1653 C1146 1.536 . S
C1645 C61 1.577 . S
C1677 C151 1.501 . S
C1685 C1166 1.502 . S
C1709 C31 1.511 . S
C1717 C1189 1.571 . S
C1741 C1051 1.425 . S
C1749 C1169 1.472 . S
C1773 C931 1.356 . S
C1781 C1186 1.425 . S
C1805 C961 1.459 . S
C1813 C1149 1.478 . S
C1837 C1021 1.494 . S
C1845 C1156 1.553 . S
C1869 C901 1.450 . S
C1877 C1176 1.503 . S
C1909 C1181 1.556 . S
C1901 C991 1.576 . S
C1933 C91 1.475 . S
C1941 C1161 1.457 . S
C1973 C1196 1.415 . S
C1965 C121 1.436 . S
C1997 C1 1.419 . S
C2005 C1141 1.476 . S
C2037 C1206 1.546 . S
C2029 C421 1.569 . S
C2061 C511 1.509 . S
C2069 C1226 1.489 . S
C2101 C1249 1.556 . S
C2093 C391 1.539 . S
C2133 C1229 1.457 . S
C2125 C331 1.451 . S
C2165 C1246 1.432 . S
C2157 C211 1.374 . S
C2189 C241 1.480 . S
C2197 C1209 1.472 . S
C2221 C301 1.542 . S
C2229 C1216 1.540 . S
C2253 C181 1.501 . S
C2261 C1236 1.484 . S
C2293 C1241 1.561 . S
C2285 C271 1.568 . S
C2317 C451 1.469 . S
C2325 C1221 1.457 . S
C2349 C481 1.429 . S
C2357 C1256 1.418 . S
C2381 C361 1.402 . S
C2389 C1201 1.470 . S
C2413 C920 1.225 . S
C2421 C1099 1.254 1_565 S
C2453 C1119 1.608 . S
C2445 C980 1.672 . S
C2477 C1040 1.477 . S
C2485 C1128 1.452 . S
C2509 C380 1.598 . S
C2517 C1108 1.620 . S
C2541 C440 1.488 . S
C2549 C1139 1.447 . S
C2581 C1088 1.255 1_545 S
C2573 C500 1.215 . S
C2605 C200 1.273 . S
C2613 C1159 1.230 . S
C2637 C260 1.642 . S
C2645 C1179 1.625 . S
C2669 C320 1.476 . S
C2677 C1188 1.459 . S
C2701 C740 1.625 . S
C2709 C1168 1.630 . S
C2741 C1199 1.459 . S
C2733 C800 1.453 . S
C2765 C860 1.267 . S
C2773 C1148 1.239 . S
C2797 C560 1.254 . S
C2805 C1219 1.237 . S
C2829 C620 1.645 . S
C2837 C1239 1.628 . S
C2869 C1248 1.452 . S
C2861 C680 1.419 . S
C2893 C20 1.645 . S
C2901 C1228 1.621 . S
C2925 C80 1.493 . S
C2933 C1259 1.449 . S
C2957 C140 1.200 . S
C2965 C1208 1.248 . S
