# Generated by pormake.
# Topology llk, (3,12)-cn, num edge types: 1
# Building blocks:
#     Node 0, Type 0, BuildingBlock: ESEHIV_clean_linker_0, # of connection points: 3
#     Node 1, Type 0, BuildingBlock: ESEHIV_clean_linker_0, # of connection points: 3
#     Node 2, Type 0, BuildingBlock: ESEHIV_clean_linker_0, # of connection points: 3
#     Node 3, Type 0, BuildingBlock: ESEHIV_clean_linker_0, # of connection points: 3
#     Node 4, Type 0, BuildingBlock: ESEHIV_clean_linker_0, # of connection points: 3
#     Node 5, Type 0, BuildingBlock: ESEHIV_clean_linker_0, # of connection points: 3
#     Node 6, Type 0, BuildingBlock: ESEHIV_clean_linker_0, # of connection points: 3
#     Node 7, Type 0, BuildingBlock: ESEHIV_clean_linker_0, # of connection points: 3
#     Node 8, Type 0, BuildingBlock: ESEHIV_clean_linker_0, # of connection points: 3
#     Node 9, Type 0, BuildingBlock: ESEHIV_clean_linker_0, # of connection points: 3
#     Node 10, Type 0, BuildingBlock: ESEHIV_clean_linker_0, # of connection points: 3
#     Node 11, Type 0, BuildingBlock: ESEHIV_clean_linker_0, # of connection points: 3
#     Node 12, Type 0, BuildingBlock: ESEHIV_clean_linker_0, # of connection points: 3
#     Node 13, Type 0, BuildingBlock: ESEHIV_clean_linker_0, # of connection points: 3
#     Node 14, Type 0, BuildingBlock: ESEHIV_clean_linker_0, # of connection points: 3
#     Node 15, Type 0, BuildingBlock: ESEHIV_clean_linker_0, # of connection points: 3
#     Node 16, Type 0, BuildingBlock: ESEHIV_clean_linker_0, # of connection points: 3
#     Node 17, Type 0, BuildingBlock: ESEHIV_clean_linker_0, # of connection points: 3
#     Node 18, Type 0, BuildingBlock: ESEHIV_clean_linker_0, # of connection points: 3
#     Node 19, Type 0, BuildingBlock: ESEHIV_clean_linker_0, # of connection points: 3
#     Node 20, Type 0, BuildingBlock: ESEHIV_clean_linker_0, # of connection points: 3
#     Node 21, Type 0, BuildingBlock: ESEHIV_clean_linker_0, # of connection points: 3
#     Node 22, Type 0, BuildingBlock: ESEHIV_clean_linker_0, # of connection points: 3
#     Node 23, Type 0, BuildingBlock: ESEHIV_clean_linker_0, # of connection points: 3
#     Node 24, Type 1, BuildingBlock: QEWDON_clean_sbu_0, # of connection points: 12
#     Node 25, Type 1, BuildingBlock: QEWDON_clean_sbu_0, # of connection points: 12
#     Node 26, Type 1, BuildingBlock: QEWDON_clean_sbu_0, # of connection points: 12
#     Node 27, Type 1, BuildingBlock: QEWDON_clean_sbu_0, # of connection points: 12
#     Node 28, Type 1, BuildingBlock: QEWDON_clean_sbu_0, # of connection points: 12
#     Node 29, Type 1, BuildingBlock: QEWDON_clean_sbu_0, # of connection points: 12
#     Edge 30, Type (0, 1), BuildingBlock: XIVTED_clean_linker_0, # of connection points: 2
#     Edge 31, Type (0, 1), BuildingBlock: XIVTED_clean_linker_0, # of connection points: 2
#     Edge 32, Type (0, 1), BuildingBlock: XIVTED_clean_linker_0, # of connection points: 2
#     Edge 33, Type (0, 1), BuildingBlock: XIVTED_clean_linker_0, # of connection points: 2
#     Edge 34, Type (0, 1), BuildingBlock: XIVTED_clean_linker_0, # of connection points: 2
#     Edge 35, Type (0, 1), BuildingBlock: XIVTED_clean_linker_0, # of connection points: 2
#     Edge 36, Type (0, 1), BuildingBlock: XIVTED_clean_linker_0, # of connection points: 2
#     Edge 37, Type (0, 1), BuildingBlock: XIVTED_clean_linker_0, # of connection points: 2
#     Edge 38, Type (0, 1), BuildingBlock: XIVTED_clean_linker_0, # of connection points: 2
#     Edge 39, Type (0, 1), BuildingBlock: XIVTED_clean_linker_0, # of connection points: 2
#     Edge 40, Type (0, 1), BuildingBlock: XIVTED_clean_linker_0, # of connection points: 2
#     Edge 41, Type (0, 1), BuildingBlock: XIVTED_clean_linker_0, # of connection points: 2
#     Edge 42, Type (0, 1), BuildingBlock: XIVTED_clean_linker_0, # of connection points: 2
#     Edge 43, Type (0, 1), BuildingBlock: XIVTED_clean_linker_0, # of connection points: 2
#     Edge 44, Type (0, 1), BuildingBlock: XIVTED_clean_linker_0, # of connection points: 2
#     Edge 45, Type (0, 1), BuildingBlock: XIVTED_clean_linker_0, # of connection points: 2
#     Edge 46, Type (0, 1), BuildingBlock: XIVTED_clean_linker_0, # of connection points: 2
#     Edge 47, Type (0, 1), BuildingBlock: XIVTED_clean_linker_0, # of connection points: 2
#     Edge 48, Type (0, 1), BuildingBlock: XIVTED_clean_linker_0, # of connection points: 2
#     Edge 49, Type (0, 1), BuildingBlock: XIVTED_clean_linker_0, # of connection points: 2
#     Edge 50, Type (0, 1), BuildingBlock: XIVTED_clean_linker_0, # of connection points: 2
#     Edge 51, Type (0, 1), BuildingBlock: XIVTED_clean_linker_0, # of connection points: 2
#     Edge 52, Type (0, 1), BuildingBlock: XIVTED_clean_linker_0, # of connection points: 2
#     Edge 53, Type (0, 1), BuildingBlock: XIVTED_clean_linker_0, # of connection points: 2
#     Edge 54, Type (0, 1), BuildingBlock: XIVTED_clean_linker_0, # of connection points: 2
#     Edge 55, Type (0, 1), BuildingBlock: XIVTED_clean_linker_0, # of connection points: 2
#     Edge 56, Type (0, 1), BuildingBlock: XIVTED_clean_linker_0, # of connection points: 2
#     Edge 57, Type (0, 1), BuildingBlock: XIVTED_clean_linker_0, # of connection points: 2
#     Edge 58, Type (0, 1), BuildingBlock: XIVTED_clean_linker_0, # of connection points: 2
#     Edge 59, Type (0, 1), BuildingBlock: XIVTED_clean_linker_0, # of connection points: 2
#     Edge 60, Type (0, 1), BuildingBlock: XIVTED_clean_linker_0, # of connection points: 2
#     Edge 61, Type (0, 1), BuildingBlock: XIVTED_clean_linker_0, # of connection points: 2
#     Edge 62, Type (0, 1), BuildingBlock: XIVTED_clean_linker_0, # of connection points: 2
#     Edge 63, Type (0, 1), BuildingBlock: XIVTED_clean_linker_0, # of connection points: 2
#     Edge 64, Type (0, 1), BuildingBlock: XIVTED_clean_linker_0, # of connection points: 2
#     Edge 65, Type (0, 1), BuildingBlock: XIVTED_clean_linker_0, # of connection points: 2
#     Edge 66, Type (0, 1), BuildingBlock: XIVTED_clean_linker_0, # of connection points: 2
#     Edge 67, Type (0, 1), BuildingBlock: XIVTED_clean_linker_0, # of connection points: 2
#     Edge 68, Type (0, 1), BuildingBlock: XIVTED_clean_linker_0, # of connection points: 2
#     Edge 69, Type (0, 1), BuildingBlock: XIVTED_clean_linker_0, # of connection points: 2
#     Edge 70, Type (0, 1), BuildingBlock: XIVTED_clean_linker_0, # of connection points: 2
#     Edge 71, Type (0, 1), BuildingBlock: XIVTED_clean_linker_0, # of connection points: 2
#     Edge 72, Type (0, 1), BuildingBlock: XIVTED_clean_linker_0, # of connection points: 2
#     Edge 73, Type (0, 1), BuildingBlock: XIVTED_clean_linker_0, # of connection points: 2
#     Edge 74, Type (0, 1), BuildingBlock: XIVTED_clean_linker_0, # of connection points: 2
#     Edge 75, Type (0, 1), BuildingBlock: XIVTED_clean_linker_0, # of connection points: 2
#     Edge 76, Type (0, 1), BuildingBlock: XIVTED_clean_linker_0, # of connection points: 2
#     Edge 77, Type (0, 1), BuildingBlock: XIVTED_clean_linker_0, # of connection points: 2
#     Edge 78, Type (0, 1), BuildingBlock: XIVTED_clean_linker_0, # of connection points: 2
#     Edge 79, Type (0, 1), BuildingBlock: XIVTED_clean_linker_0, # of connection points: 2
#     Edge 80, Type (0, 1), BuildingBlock: XIVTED_clean_linker_0, # of connection points: 2
#     Edge 81, Type (0, 1), BuildingBlock: XIVTED_clean_linker_0, # of connection points: 2
#     Edge 82, Type (0, 1), BuildingBlock: XIVTED_clean_linker_0, # of connection points: 2
#     Edge 83, Type (0, 1), BuildingBlock: XIVTED_clean_linker_0, # of connection points: 2
#     Edge 84, Type (0, 1), BuildingBlock: XIVTED_clean_linker_0, # of connection points: 2
#     Edge 85, Type (0, 1), BuildingBlock: XIVTED_clean_linker_0, # of connection points: 2
#     Edge 86, Type (0, 1), BuildingBlock: XIVTED_clean_linker_0, # of connection points: 2
#     Edge 87, Type (0, 1), BuildingBlock: XIVTED_clean_linker_0, # of connection points: 2
#     Edge 88, Type (0, 1), BuildingBlock: XIVTED_clean_linker_0, # of connection points: 2
#     Edge 89, Type (0, 1), BuildingBlock: XIVTED_clean_linker_0, # of connection points: 2
#     Edge 90, Type (0, 1), BuildingBlock: XIVTED_clean_linker_0, # of connection points: 2
#     Edge 91, Type (0, 1), BuildingBlock: XIVTED_clean_linker_0, # of connection points: 2
#     Edge 92, Type (0, 1), BuildingBlock: XIVTED_clean_linker_0, # of connection points: 2
#     Edge 93, Type (0, 1), BuildingBlock: XIVTED_clean_linker_0, # of connection points: 2
#     Edge 94, Type (0, 1), BuildingBlock: XIVTED_clean_linker_0, # of connection points: 2
#     Edge 95, Type (0, 1), BuildingBlock: XIVTED_clean_linker_0, # of connection points: 2
#     Edge 96, Type (0, 1), BuildingBlock: XIVTED_clean_linker_0, # of connection points: 2
#     Edge 97, Type (0, 1), BuildingBlock: XIVTED_clean_linker_0, # of connection points: 2
#     Edge 98, Type (0, 1), BuildingBlock: XIVTED_clean_linker_0, # of connection points: 2
#     Edge 99, Type (0, 1), BuildingBlock: XIVTED_clean_linker_0, # of connection points: 2
#     Edge 100, Type (0, 1), BuildingBlock: XIVTED_clean_linker_0, # of connection points: 2
#     Edge 101, Type (0, 1), BuildingBlock: XIVTED_clean_linker_0, # of connection points: 2
# Relax obj value: 0.131
# Max RMSD: 0.164
# Mean RMSD: 0.148
data_MOF--net-llk--node1-QEWDON_clean_sbu_0--node2-ESEHIV_clean_linker_0--edge1-XIVTED_clean_linker_0
_symmetry_space_group_name_H-M    P1
_symmetry_Int_Tables_number       1
_symmetry_cell_setting            triclinic
loop_
_symmetry_equiv_pos_as_xyz
'x, y, z'
_cell_length_a     44.152807
_cell_length_b     45.366926
_cell_length_c     44.760337
_cell_angle_alpha  90.030019
_cell_angle_beta   89.839285
_cell_angle_gamma 89.61943
loop_
_atom_site_label
_atom_site_type_symbol
_atom_site_fract_x
_atom_site_fract_y
_atom_site_fract_z
_atom_type_partial_charge
H0 H 0.04617 0.2724 0.31734 0.0
H1 H 0.04452 0.33791 0.24793 0.0
H2 H 0.02329 0.24787 0.22751 0.0
C3 C 0.04411 0.27852 0.29404 0.0
C4 C 0.03692 0.25657 0.27314 0.0
C5 C 0.04598 0.3082 0.28558 0.0
C6 C 0.04212 0.3153 0.25532 0.0
C7 C 0.03321 0.29405 0.23443 0.0
C8 C 0.03079 0.26439 0.24329 0.0
H9 H 0.69981 0.0451 0.22291 0.0
H10 H 0.76142 0.0404 0.29645 0.0
H11 H 0.79588 0.05065 0.20686 0.0
C12 C 0.72274 0.04627 0.23151 0.0
C13 C 0.74705 0.04933 0.21157 0.0
C14 C 0.72777 0.04247 0.26197 0.0
C15 C 0.75734 0.043 0.27269 0.0
C16 C 0.78189 0.04639 0.25308 0.0
C17 C 0.77695 0.04914 0.22222 0.0
H18 H 0.0369 0.77662 0.31177 0.0
H19 H 0.02285 0.70334 0.253 0.0
H20 H 0.00488 0.79193 0.22245 0.0
C21 C 0.03115 0.76812 0.28984 0.0
C22 C 0.02125 0.78768 0.26779 0.0
C23 C 0.03098 0.73773 0.28504 0.0
C24 C 0.02319 0.72695 0.25682 0.0
C25 C 0.01434 0.74631 0.23385 0.0
C26 C 0.01313 0.77692 0.23945 0.0
H27 H 0.23412 0.98975 0.29187 0.0
H28 H 0.31468 0.9926 0.23868 0.0
H29 H 0.22706 0.99532 0.19604 0.0
C30 C 0.24478 0.99004 0.26998 0.0
C31 C 0.22688 0.99131 0.24426 0.0
C32 C 0.27618 0.99061 0.26799 0.0
C33 C 0.29016 0.99156 0.24008 0.0
C34 C 0.27261 0.99297 0.21401 0.0
C35 C 0.24074 0.9933 0.216 0.0
H36 H 0.97331 0.77478 0.70032 0.0
H37 H -0.00522 0.70431 0.75988 0.0
H38 H -0.00109 0.79433 0.7911 0.0
C39 C 0.97917 0.76758 0.7227 0.0
C40 C 0.98462 0.78841 0.74512 0.0
C41 C 0.98302 0.73755 0.72785 0.0
C42 C -0.00831 0.72775 0.7561 0.0
C43 C -0.0024 0.74796 0.77914 0.0
C44 C -0.00601 0.77853 0.77365 0.0
H45 H 0.26703 0.98733 0.71403 0.0
H46 H 0.32146 0.96647 0.78984 0.0
H47 H 0.23034 0.99874 0.80248 0.0
C48 C 0.26896 0.98437 0.73802 0.0
C49 C 0.24489 0.99258 0.75672 0.0
C50 C 0.29668 0.97559 0.74995 0.0
C51 C 0.29933 0.97172 0.78067 0.0
C52 C 0.27561 0.98008 0.79993 0.0
C53 C 0.24813 0.99058 0.78788 0.0
H54 H 0.00372 0.33378 0.75441 0.0
H55 H 0.00666 0.2589 0.69603 0.0
H56 H 0.01779 0.24674 0.79079 0.0
C57 C 0.00565 0.31014 0.7512 0.0
C58 C 0.0099 0.29177 0.77617 0.0
C59 C 0.00467 0.29857 0.72225 0.0
C60 C 0.00787 0.2682 0.71833 0.0
C61 C 0.01284 0.24944 0.74268 0.0
C62 C 0.01416 0.26117 0.77184 0.0
H63 H 0.71749 0.04512 0.78455 0.0
H64 H 0.7952 0.02486 0.73087 0.0
H65 H 0.80685 0.04685 0.82367 0.0
C66 C 0.74187 0.04268 0.78249 0.0
C67 C 0.76053 0.04692 0.80753 0.0
C68 C 0.75426 0.03424 0.75504 0.0
C69 C 0.78544 0.03034 0.75249 0.0
C70 C 0.80453 0.03517 0.77685 0.0
C71 C 0.79217 0.04328 0.80468 0.0
H72 H 0.22855 0.32353 0.02306 0.0
H73 H 0.29384 0.25377 0.01661 0.0
H74 H 0.19876 0.23309 0.01782 0.0
C75 C 0.23364 0.30012 0.02191 0.0
C76 C 0.21001 0.27955 0.02146 0.0
C77 C 0.26373 0.29085 0.02015 0.0
C78 C 0.27037 0.26092 0.01841 0.0
C79 C 0.24736 0.23994 0.01764 0.0
C80 C 0.21678 0.24913 0.01889 0.0
H81 H 0.28347 0.78979 0.99123 0.0
H82 H 0.22269 0.7188 0.00899 0.0
H83 H 0.19486 0.8081 0.02798 0.0
C84 C 0.26127 0.78224 -0.00181 0.0
C85 C 0.23956 0.80262 0.00846 0.0
C86 C 0.25528 0.75207 -0.00151 0.0
C87 C 0.22715 0.74229 0.00845 0.0
C88 C 0.20534 0.76213 0.01943 0.0
C89 C 0.21143 0.79258 0.0193 0.0
H90 H 0.74947 0.25447 0.00234 0.0
H91 H 0.82012 0.3188 0.00298 0.0
H92 H 0.84192 0.22774 0.98533 0.0
C93 C 0.77332 0.25988 0.00053 0.0
C94 C 0.79453 0.23766 0.99387 0.0
C95 C 0.78242 0.28914 0.0035 0.0
C96 C 0.81299 0.29608 0.00046 0.0
C97 C 0.83457 0.27425 0.99401 0.0
C98 C 0.82544 0.24474 0.99069 0.0
H99 H 0.72289 0.7921 0.98595 0.0
H100 H 0.78548 0.72025 0.9774 0.0
H101 H 0.81806 0.80714 -0.00058 0.0
C102 C 0.7461 0.78399 0.98571 0.0
C103 C 0.76975 0.80327 0.99223 0.0
C104 C 0.75152 0.75415 0.98087 0.0
C105 C 0.78128 0.74367 0.98032 0.0
C106 C 0.80549 0.76267 0.98667 0.0
C107 C 0.79974 0.79265 0.99313 0.0
H108 H 0.53669 0.75552 0.80864 0.0
H109 H 0.53773 0.82619 0.74491 0.0
H110 H 0.52653 0.73651 0.71506 0.0
C111 C 0.53595 0.76314 0.78567 0.0
C112 C 0.53157 0.74257 0.76283 0.0
C113 C 0.53738 0.79335 0.77965 0.0
C114 C 0.53682 0.80282 0.7499 0.0
C115 C 0.5335 0.7825 0.72643 0.0
C116 C 0.53029 0.7522 0.7329 0.0
H117 H 0.24097 0.54121 0.72305 0.0
H118 H 0.29704 0.54594 0.80068 0.0
H119 H 0.33804 0.53794 0.71319 0.0
C120 C 0.26342 0.54194 0.73288 0.0
C121 C 0.28895 0.53951 0.71449 0.0
C122 C 0.26624 0.54404 0.76373 0.0
C123 C 0.29499 0.54452 0.77658 0.0
C124 C 0.32111 0.54288 0.75859 0.0
C125 C 0.31813 0.53983 0.72727 0.0
H126 H 0.45348 0.21252 0.73752 0.0
H127 H 0.46981 0.2711 0.81087 0.0
H128 H 0.49235 0.29787 0.72148 0.0
C129 C 0.45992 0.2341 0.74569 0.0
C130 C 0.47181 0.25471 0.72558 0.0
C131 C 0.46041 0.23917 0.77653 0.0
C132 C 0.46887 0.26702 0.78702 0.0
C133 C 0.47942 0.28875 0.76733 0.0
C134 C 0.48181 0.28225 0.7365 0.0
H135 H 0.71809 0.50272 0.81916 0.0
H136 H 0.78934 0.51596 0.75577 0.0
H137 H 0.69976 0.49425 0.72486 0.0
C138 C 0.7256 0.50416 0.7961 0.0
C139 C 0.70514 0.49845 0.77291 0.0
C140 C 0.75592 0.51 0.79001 0.0
C141 C 0.76566 0.51152 0.76046 0.0
C142 C 0.74576 0.50604 0.73683 0.0
C143 C 0.71518 0.49925 0.74292 0.0
H144 H 0.48366 0.26941 0.19971 0.0
H145 H 0.50092 0.21355 0.27474 0.0
H146 H 0.49655 0.30766 0.2872 0.0
C147 C 0.48711 0.267 0.22356 0.0
C148 C 0.48872 0.2922 0.24183 0.0
C149 C 0.492 0.23879 0.23526 0.0
C150 C 0.49783 0.23554 0.26564 0.0
C151 C 0.49963 0.25999 0.28459 0.0
C152 C 0.49506 0.2886 0.27272 0.0
H153 H 0.73432 0.49257 0.21443 0.0
H154 H 0.78979 0.50491 0.29163 0.0
H155 H 0.69388 0.49113 0.30239 0.0
C156 C 0.73656 0.49354 0.23855 0.0
C157 C 0.71081 0.49065 0.25676 0.0
C158 C 0.76486 0.49922 0.25099 0.0
C159 C 0.76764 0.50121 0.28191 0.0
C160 C 0.74246 0.4979 0.30063 0.0
C161 C 0.71363 0.493 0.28812 0.0
H162 H 0.56014 0.83352 0.27594 0.0
H163 H 0.56144 0.77008 0.20475 0.0
H164 H 0.54114 0.74243 0.29451 0.0
C165 C 0.55847 0.81091 0.26825 0.0
C166 C 0.55093 0.78887 0.28881 0.0
C167 C 0.56146 0.80464 0.23776 0.0
C168 C 0.5598 0.77523 0.22835 0.0
C169 C 0.55328 0.75248 0.24861 0.0
C170 C 0.54782 0.75948 0.27894 0.0
H171 H 0.23117 0.54133 0.25878 0.0
H172 H 0.30705 0.55026 0.19986 0.0
H173 H 0.32136 0.54594 0.29505 0.0
C174 C 0.25538 0.54385 0.25545 0.0
C175 C 0.27467 0.54426 0.28023 0.0
C176 C 0.26689 0.54576 0.22652 0.0
C177 C 0.29793 0.54947 0.22239 0.0
C178 C 0.31774 0.54969 0.24686 0.0
C179 C 0.30619 0.54673 0.27609 0.0
H180 H 0.75879 0.83353 0.50005 0.0
H181 H 0.8231 0.76356 0.48693 0.0
H182 H 0.72834 0.74336 0.4972 0.0
C183 C 0.7637 0.81018 0.49766 0.0
C184 C 0.73993 0.78982 0.49899 0.0
C185 C 0.79364 0.80081 0.49336 0.0
C186 C 0.79985 0.77077 0.4902 0.0
C187 C 0.77675 0.74978 0.49157 0.0
C188 C 0.74645 0.75931 0.49611 0.0
H189 H 0.82103 0.27344 0.48473 0.0
H190 H 0.75142 0.2093 0.49725 0.0
H191 H 0.72773 0.30127 0.49338 0.0
C192 C 0.79725 0.26815 0.48719 0.0
C193 C 0.77553 0.29095 0.48761 0.0
C194 C 0.7889 0.2387 0.49046 0.0
C195 C 0.75843 0.2321 0.49548 0.0
C196 C 0.73641 0.25439 0.49713 0.0
C197 C 0.74482 0.28402 0.49297 0.0
H198 H 0.19829 0.76371 0.53158 0.0
H199 H 0.26519 0.82944 0.51523 0.0
H200 H 0.29224 0.73801 0.52206 0.0
C201 C 0.22196 0.76936 0.52863 0.0
C202 C 0.24414 0.74708 0.52784 0.0
C203 C 0.22954 0.79873 0.52393 0.0
C204 C 0.2596 0.80646 0.51888 0.0
C205 C 0.28254 0.78493 0.51862 0.0
C206 C 0.27481 0.75491 0.52278 0.0
H207 H 0.2009 0.26991 0.52702 0.0
H208 H 0.27127 0.20497 0.51863 0.0
H209 H 0.29443 0.29677 0.5217 0.0
C210 C 0.22478 0.26437 0.52554 0.0
C211 C 0.24645 0.28697 0.5256 0.0
C212 C 0.23341 0.23481 0.52299 0.0
C213 C 0.26412 0.22786 0.51974 0.0
C214 C 0.28615 0.24988 0.51882 0.0
C215 C 0.27741 0.27968 0.52172 0.0
Zn216 Zn 0.9645 0.99099 0.4488 0.0
Zn217 Zn 0.96105 0.06044 0.45376 0.0
O218 O 0.98964 0.02789 0.44447 0.0
H219 H 0.00455 0.02922 0.42871 0.0
C220 C 0.94839 0.9547 0.51992 0.0
O221 O 0.94325 0.98122 0.50923 0.0
Zn222 Zn 0.0644 0.05401 0.5577 0.0
Zn223 Zn 0.05048 0.98475 0.56451 0.0
O224 O 0.03178 0.0253 0.56649 0.0
H225 H 0.01731 0.02875 0.58235 0.0
Zn226 Zn 0.97795 0.98955 0.56501 0.0
O227 O 0.98172 0.02538 0.53833 0.0
Zn228 Zn 0.97083 0.05993 0.56407 0.0
H229 H 0.98682 0.02457 0.5174 0.0
Zn230 Zn 0.04065 0.98655 0.44754 0.0
O231 O 0.04055 0.02343 0.47254 0.0
H232 H 0.03087 0.02528 0.49179 0.0
Zn233 Zn 0.05531 0.05567 0.44593 0.0
C234 C 0.07001 0.95012 0.49246 0.0
O235 O 0.07382 0.97577 0.5055 0.0
O236 O 0.92284 0.00061 0.4314 0.0
O237 O 0.92077 0.04935 0.43654 0.0
O238 O 0.09207 0.99046 0.58313 0.0
O239 O 0.10228 0.03813 0.57717 0.0
O240 O 0.95697 0.99825 0.60565 0.0
O241 O 0.94819 0.0463 0.60038 0.0
C242 C 0.00076 0.0997 0.42215 0.0
O243 O 0.062 0.99212 0.40708 0.0
O244 O 0.07574 0.03921 0.40846 0.0
O245 O 0.02721 0.95301 0.58897 0.0
C246 C 0.90944 0.02521 0.42732 0.0
O247 O 0.98262 0.95363 0.4287 0.0
C248 C 0.02916 0.09663 0.59085 0.0
O249 O 0.96398 0.95191 0.54357 0.0
C250 C 0.10878 0.01277 0.58777 0.0
O251 O 0.05478 0.94881 0.46848 0.0
C252 C 0.94322 0.08549 0.51203 0.0
O253 O 0.97364 0.09609 0.43078 0.0
O254 O 0.02122 0.08232 0.43183 0.0
C255 C 0.94557 0.02241 0.61511 0.0
O256 O 0.0555 0.09067 0.58106 0.0
O257 O 0.00666 0.08252 0.58057 0.0
C258 C 0.08496 0.07799 0.49889 0.0
O259 O 0.94405 0.08651 0.54037 0.0
O260 O 0.96054 0.06796 0.49793 0.0
C261 C 0.07541 0.01411 0.3955 0.0
O262 O 0.08423 0.07913 0.47048 0.0
O263 O 0.06716 0.06111 0.51305 0.0
C264 C 0.02693 0.95897 0.61675 0.0
O265 O 0.03912 0.98378 0.62572 0.0
C266 C -0.00461 0.95758 0.40353 0.0
O267 O -0.00216 0.98452 0.39314 0.0
Zn268 Zn 0.46836 0.07536 0.03754 0.0
Zn269 Zn 0.46699 0.07873 0.96691 0.0
O270 O 0.47326 0.0502 0.00035 0.0
H271 H 0.48574 0.03266 -0.00067 0.0
C272 C 0.53656 0.09658 0.07603 0.0
O273 O 0.52081 0.09886 0.05132 0.0
Zn274 Zn 0.55555 0.96908 0.96364 0.0
Zn275 Zn 0.55569 0.97003 0.03523 0.0
O276 O 0.55107 0.99613 -0.00144 0.0
H277 H 0.54051 0.01483 -0.00166 0.0
Zn278 Zn 0.57985 0.07544 0.03288 0.0
O279 O 0.54918 0.07682 -4e-05 0.0
Zn280 Zn 0.57341 0.07489 0.96276 0.0
H281 H 0.52941 0.06824 0.00244 0.0
Zn282 Zn 0.45478 0.96451 0.04054 0.0
O283 O 0.47791 0.97409 0.0037 0.0
H284 H 0.49965 0.97529 0.0032 0.0
Zn285 Zn 0.4492 0.97447 0.96968 0.0
C286 C 0.50304 0.93272 0.0706 0.0
O287 O 0.51065 0.92687 0.04281 0.0
O288 O 0.43794 0.10857 0.02972 0.0
O289 O 0.43865 0.11208 0.98029 0.0
O290 O 0.58301 0.93473 0.02539 0.0
O291 O 0.58085 0.93344 0.97582 0.0
O292 O 0.62201 0.08949 0.0193 0.0
O293 O 0.61644 0.08997 0.9699 0.0
C294 C 0.43621 0.03248 0.93554 0.0
O295 O 0.4119 0.94968 0.03192 0.0
O296 O 0.40738 0.9593 0.98332 0.0
O297 O 0.57477 0.99006 0.07169 0.0
C298 C 0.42802 0.11991 0.00566 0.0
O299 O 0.45351 0.05435 0.07535 0.0
C300 C 0.58875 0.01569 0.93499 0.0
O301 O 0.56355 0.08675 0.07469 0.0
C302 C 0.59137 0.92378 0.00053 0.0
O303 O 0.47954 0.94824 0.0758 0.0
C304 C 0.52306 0.10053 0.9322 0.0
O305 O 0.44332 0.05951 0.9343 0.0
O306 O 0.44927 0.0164 0.95491 0.0
C307 C 0.63248 0.09429 0.99322 0.0
O308 O 0.58256 0.98844 0.93342 0.0
O309 O 0.57202 0.03222 0.95098 0.0
C310 C 0.49542 0.94511 0.93503 0.0
O311 O 0.55181 0.09874 0.93111 0.0
O312 O 0.50946 0.0886 0.95401 0.0
C313 C 0.39634 0.94988 0.008 0.0
O314 O 0.46685 0.94753 0.93823 0.0
O315 O 0.51236 0.96133 0.95085 0.0
C316 C 0.59277 0.01085 0.06536 0.0
O317 O 0.59453 0.02005 0.03762 0.0
C318 C 0.43813 0.03118 0.07129 0.0
O319 O 0.43715 0.01956 0.04445 0.0
Zn320 Zn 0.97745 0.49295 0.96066 0.0
Zn321 Zn 0.96048 0.56327 0.96904 0.0
O322 O -0.00551 0.53322 0.97172 0.0
H323 H 0.0105 0.53535 0.98617 0.0
C324 C 0.95686 0.44195 0.02225 0.0
O325 O 0.95023 0.46389 0.00428 0.0
Zn326 Zn 0.06318 0.56373 0.04481 0.0
Zn327 Zn 0.05172 0.49272 0.05496 0.0
O328 O 0.03136 0.53178 0.04347 0.0
H329 H 0.03869 0.51227 0.04832 0.0
Zn330 Zn 0.9739 0.48985 0.06546 0.0
O331 O 0.96594 0.52581 0.03972 0.0
Zn332 Zn 0.96476 0.55989 0.0693 0.0
H333 H 0.95465 0.52392 0.02138 0.0
Zn334 Zn 0.06007 0.4956 0.94159 0.0
O335 O 0.06482 0.53028 0.96951 0.0
H336 H 0.07758 0.52797 0.98686 0.0
Zn337 Zn 0.06022 0.56649 0.94312 0.0
C338 C 0.08176 0.44799 0.98314 0.0
O339 O 0.08103 0.46907 0.00326 0.0
O340 O 0.93325 0.49675 0.94752 0.0
O341 O 0.9232 0.54474 0.95187 0.0
O342 O 0.0955 0.49922 0.06897 0.0
O343 O 0.10166 0.54745 0.062 0.0
O344 O 0.95373 0.49653 0.10607 0.0
O345 O 0.94854 0.54536 0.10866 0.0
C346 C -0.00121 0.59972 0.9349 0.0
O347 O 0.07669 0.50761 0.90056 0.0
O348 O 0.07783 0.55675 0.90281 0.0
O349 O 0.02971 0.45921 0.07884 0.0
C350 C 0.91538 0.51869 0.94468 0.0
O351 O 0.00021 0.46206 0.93386 0.0
C352 C 0.02278 0.59912 0.07782 0.0
O353 O 0.96709 0.44754 0.04814 0.0
C354 C 0.11158 0.52238 0.07052 0.0
O355 O 0.07388 0.4538 0.95645 0.0
C356 C 0.9371 0.59504 0.02649 0.0
O357 O 0.97153 0.59775 0.94349 0.0
O358 O 0.01655 0.57859 0.94179 0.0
C359 C 0.94476 0.5197 0.11966 0.0
O360 O 0.05024 0.59812 0.06969 0.0
O361 O 0.0063 0.57728 0.07094 0.0
C362 C 0.07957 0.60131 0.99023 0.0
O363 O 0.93769 0.59195 0.05459 0.0
O364 O 0.95211 0.57677 0.0108 0.0
C365 C 0.08305 0.53255 0.88908 0.0
O366 O 0.08015 0.6013 0.96188 0.0
O367 O 0.07032 0.57824 0.00332 0.0
C368 C 0.02983 0.43302 0.06862 0.0
O369 O 0.04035 0.42826 0.04159 0.0
C370 C 0.00855 0.43645 0.94229 0.0
O371 O 0.00695 0.42959 0.97074 0.0
Zn372 Zn 0.4748 0.47424 0.97545 0.0
Zn373 Zn 0.47086 0.47064 0.04752 0.0
O374 O 0.48057 0.49846 0.01332 0.0
H375 H 0.47915 0.5197 0.01294 0.0
C376 C 0.53346 0.44254 0.91698 0.0
O377 O 0.525 0.47029 0.91565 0.0
Zn378 Zn 0.55414 0.57345 0.05034 0.0
Zn379 Zn 0.54785 0.55832 0.98014 0.0
O380 O 0.53714 0.5432 0.02207 0.0
H381 H 0.53135 0.5234 0.02729 0.0
Zn382 Zn 0.56531 0.45807 0.97634 0.0
O383 O 0.53989 0.4642 0.01418 0.0
Zn384 Zn 0.5681 0.46663 0.0504 0.0
H385 H 0.51967 0.45628 0.01416 0.0
Zn386 Zn 0.47048 0.58246 0.98061 0.0
O387 O 0.49445 0.58585 0.01969 0.0
H388 H 0.51187 0.59851 0.02125 0.0
Zn389 Zn 0.46459 0.57831 0.05313 0.0
C390 C 0.49873 0.59527 0.91944 0.0
O391 O 0.50854 0.56792 0.91976 0.0
O392 O 0.44649 0.43947 0.98269 0.0
O393 O 0.4451 0.43777 0.03249 0.0
O394 O 0.57327 0.5961 0.97957 0.0
O395 O 0.57603 0.60552 0.02823 0.0
O396 O 0.60765 0.44434 0.98955 0.0
O397 O 0.60714 0.44754 0.03935 0.0
C398 C 0.44963 0.51909 0.0831 0.0
O399 O 0.42569 0.59142 0.98938 0.0
O400 O 0.42395 0.59321 0.03913 0.0
O401 O 0.55442 0.53179 0.94258 0.0
C402 C 0.43712 0.42813 0.00696 0.0
O403 O 0.46761 0.49374 0.93399 0.0
C404 C 0.58829 0.52693 0.07996 0.0
O405 O 0.54869 0.43356 0.93942 0.0
C406 C 0.58227 0.61194 0.0012 0.0
O407 O 0.48411 0.60531 0.94185 0.0
C408 C 0.52322 0.44271 0.08789 0.0
O409 O 0.44954 0.49133 0.08004 0.0
O410 O 0.46226 0.53479 0.06308 0.0
C411 C 0.62008 0.4404 0.01494 0.0
O412 O 0.58392 0.55443 0.07703 0.0
O413 O 0.57508 0.5096 0.06174 0.0
C414 C 0.5041 0.60348 0.09646 0.0
O415 O 0.55174 0.4439 0.08565 0.0
O416 O 0.50815 0.45553 0.0675 0.0
C417 C 0.4115 0.59667 0.01363 0.0
O418 O 0.47637 0.60083 0.08969 0.0
O419 O 0.52411 0.59223 0.07929 0.0
C420 C 0.57733 0.51496 0.93951 0.0
O421 O 0.59586 0.51134 0.96216 0.0
C422 C 0.45409 0.51822 0.92999 0.0
O423 O 0.44582 0.53388 0.95335 0.0
Zn424 Zn 0.95836 0.48808 0.47095 0.0
Zn425 Zn 0.95189 0.55877 0.46727 0.0
O426 O 0.98101 0.52617 0.47621 0.0
H427 H -0.00053 0.52799 0.48757 0.0
C428 C 0.90562 0.46025 0.52103 0.0
O429 O 0.89593 0.4865 0.52919 0.0
Zn430 Zn 0.0712 0.56114 0.55004 0.0
Zn431 Zn 0.07499 0.49149 0.54621 0.0
O432 O 0.04607 0.52568 0.54398 0.0
H433 H 0.02708 0.52519 0.53336 0.0
Zn434 Zn 0.95389 0.48344 0.55428 0.0
O435 O 0.95569 0.52272 0.53361 0.0
Zn436 Zn 0.95809 0.55366 0.56526 0.0
H437 H 0.9425 0.52415 0.51652 0.0
Zn438 Zn 0.06993 0.48453 0.45842 0.0
O439 O 0.06579 0.52284 0.48078 0.0
H440 H 0.07839 0.5239 0.4983 0.0
Zn441 Zn 0.06268 0.55508 0.45046 0.0
C442 C 0.12026 0.4607 0.48836 0.0
O443 O 0.12961 0.48659 0.47913 0.0
O444 O 0.91554 0.49433 0.45292 0.0
O445 O 0.91368 0.54312 0.44718 0.0
O446 O 0.11646 0.50246 0.56447 0.0
O447 O 0.11162 0.55108 0.57012 0.0
O448 O 0.93095 0.48955 0.59364 0.0
O449 O 0.93648 0.53758 0.60221 0.0
C450 C 0.00279 0.58709 0.43801 0.0
O451 O 0.09194 0.49283 0.41895 0.0
O452 O 0.0829 0.54071 0.41245 0.0
O453 O 0.05483 0.45333 0.56064 0.0
C454 C 0.90182 0.51762 0.44419 0.0
O455 O 0.98443 0.45397 0.45375 0.0
C456 C 0.01663 0.5871 0.57685 0.0
O457 O 0.93226 0.45229 0.52835 0.0
C458 C 0.12688 0.52717 0.57318 0.0
O459 O 0.09313 0.45318 0.48298 0.0
C460 C 0.92518 0.59187 0.52556 0.0
O461 O 0.9743 0.5886 0.44259 0.0
O462 O 0.01781 0.56533 0.44816 0.0
C463 C 0.92546 0.51248 0.60921 0.0
O464 O 0.04511 0.58982 0.57275 0.0
O465 O 0.00311 0.56403 0.56796 0.0
C466 C 0.09513 0.59179 0.49113 0.0
O467 O 0.93153 0.58834 0.55299 0.0
O468 O 0.93994 0.57642 0.5068 0.0
C469 C 0.09525 0.51652 0.40409 0.0
O470 O 0.08949 0.58909 0.46348 0.0
O471 O 0.07931 0.57651 0.50897 0.0
C472 C 0.02926 0.45517 0.57367 0.0
O473 O 0.01626 0.48112 0.57683 0.0
C474 C 0.00561 0.46145 0.43608 0.0
O475 O 0.00989 0.48959 0.43072 0.0
Zn476 Zn 0.46832 0.99486 0.45643 0.0
Zn477 Zn 0.45194 0.06519 0.46006 0.0
O478 O 0.48623 0.03599 0.45239 0.0
H479 H 0.50203 0.03867 0.43772 0.0
C480 C 0.44055 0.93787 0.51367 0.0
O481 O 0.45233 0.94786 0.48876 0.0
Zn482 Zn 0.57369 0.06423 0.55384 0.0
Zn483 Zn 0.57393 0.99193 0.55334 0.0
O484 O 0.54629 0.02822 0.55474 0.0
H485 H 0.52593 0.02707 0.56256 0.0
Zn486 Zn 0.47256 0.98813 0.55075 0.0
O487 O 0.47494 0.02835 0.52941 0.0
Zn488 Zn 0.47228 0.06069 0.56121 0.0
H489 H 0.47404 0.00846 0.53702 0.0
Zn490 Zn 0.55275 0.99873 0.47598 0.0
O491 O 0.53698 0.0395 0.49102 0.0
H492 H 0.54353 0.01963 0.48648 0.0
Zn493 Zn 0.54391 0.06912 0.45706 0.0
C494 C 0.59757 0.95468 0.48784 0.0
O495 O 0.60919 0.97155 0.46698 0.0
O496 O 0.42273 0.99801 0.44821 0.0
O497 O 0.41327 0.04632 0.44631 0.0
O498 O 0.6164 0.00342 0.5676 0.0
O499 O 0.61457 0.05247 0.56926 0.0
O500 O 0.46791 0.99424 0.59589 0.0
O501 O 0.4593 0.04254 0.59991 0.0
C502 C 0.48648 0.11072 0.43546 0.0
O503 O 0.56682 0.00052 0.43222 0.0
O504 O 0.55997 0.04793 0.42116 0.0
O505 O 0.56107 0.95174 0.57294 0.0
C506 C 0.40484 0.0196 0.44323 0.0
O507 O 0.48702 0.95894 0.43239 0.0
C508 C 0.52881 0.09907 0.58197 0.0
O509 O 0.44589 0.9512 0.53815 0.0
C510 C 0.62845 0.02812 0.57373 0.0
O511 O 0.57257 0.96261 0.49979 0.0
C512 C 0.43686 0.09371 0.5213 0.0
O513 O 0.45907 0.10299 0.43826 0.0
O514 O 0.50689 0.09299 0.44464 0.0
C515 C 0.46045 0.01677 0.61127 0.0
O516 O 0.55733 0.0967 0.57954 0.0
O517 O 0.51291 0.07969 0.56875 0.0
C518 C 0.58574 0.09911 0.4937 0.0
O519 O 0.44229 0.09134 0.54897 0.0
O520 O 0.45002 0.07573 0.50359 0.0
C521 C 0.56827 0.02194 0.41398 0.0
O522 O 0.57565 0.09809 0.46732 0.0
O523 O 0.57525 0.08072 0.51242 0.0
C524 C 0.53719 0.93621 0.57146 0.0
O525 O 0.51434 0.94522 0.55505 0.0
C526 C 0.50686 0.94015 0.44067 0.0
O527 O 0.51968 0.94305 0.46693 0.0
H528 H 0.1816 0.23173 0.55746 0.0
H529 H 0.14511 0.06966 0.49999 0.0
H530 H 0.23303 0.18352 0.49096 0.0
H531 H 0.07424 0.12804 0.53067 0.0
H532 H 0.18257 0.10717 0.51222 0.0
H533 H 0.14551 0.19088 0.55963 0.0
C534 C 0.18533 0.21269 0.5433 0.0
C535 C 0.21062 0.21099 0.52415 0.0
C536 C 0.15888 0.11158 0.51687 0.0
C537 C 0.17022 0.16409 0.52752 0.0
C538 C 0.13768 0.09013 0.51022 0.0
C539 C 0.10692 0.09608 0.51445 0.0
C540 C 0.14903 0.13924 0.52722 0.0
C541 C 0.098 0.12287 0.5274 0.0
C542 C 0.16492 0.18935 0.54484 0.0
C543 C 0.21443 0.1856 0.50662 0.0
N544 N 0.11905 0.14389 0.53295 0.0
N545 N 0.19455 0.16315 0.50886 0.0
H546 H 0.83898 0.23562 0.45364 0.0
H547 H 0.88362 0.07509 0.51082 0.0
H548 H 0.79131 0.1871 0.52211 0.0
H549 H 0.95141 0.13614 0.48055 0.0
H550 H 0.84422 0.11128 0.49881 0.0
H551 H 0.87632 0.19552 0.45066 0.0
C552 C 0.83631 0.21665 0.46807 0.0
C553 C 0.81183 0.21477 0.48818 0.0
C554 C 0.86766 0.11654 0.49419 0.0
C555 C 0.85366 0.16862 0.48381 0.0
C556 C 0.88998 0.09588 0.50074 0.0
C557 C 0.92042 0.103 0.49665 0.0
C558 C 0.87606 0.14453 0.48394 0.0
C559 C 0.92794 0.13011 0.48381 0.0
C560 C 0.85744 0.19373 0.46605 0.0
C561 C 0.80931 0.18937 0.50583 0.0
N562 N 0.90578 0.15031 0.47827 0.0
N563 N 0.8299 0.16729 0.50315 0.0
H564 H 0.79633 0.85326 0.46319 0.0
H565 H 0.95464 0.89681 0.53566 0.0
H566 H 0.84807 0.79682 0.52181 0.0
H567 H 0.90335 0.95469 0.47799 0.0
H568 H 0.91967 0.85708 0.52417 0.0
H569 H 0.83808 0.88853 0.46319 0.0
C570 C 0.81648 0.84835 0.47607 0.0
C571 C 0.81874 0.82222 0.49265 0.0
C572 C 0.91622 0.87837 0.51375 0.0
C573 C 0.86658 0.86214 0.49253 0.0
C574 C 0.93625 0.90105 0.52024 0.0
C575 C 0.93143 0.92927 0.50835 0.0
C576 C 0.89106 0.88405 0.49545 0.0
C577 C 0.90759 0.93338 0.48807 0.0
C578 C 0.84038 0.86831 0.47586 0.0
C579 C 0.8455 0.81663 0.50855 0.0
N580 N 0.88794 0.91112 0.48264 0.0
N581 N 0.86828 0.83651 0.50824 0.0
H582 H 0.20101 0.82754 0.56955 0.0
H583 H 0.07754 0.89844 0.46224 0.0
H584 H 0.20327 0.81916 0.47369 0.0
H585 H 0.10524 0.9436 0.54256 0.0
H586 H 0.11527 0.86031 0.47206 0.0
H587 H 0.15856 0.86292 0.56499 0.0
C588 C 0.19257 0.83339 0.54762 0.0
C589 C 0.20544 0.82095 0.52189 0.0
C590 C 0.11283 0.87844 0.48767 0.0
C591 C 0.15711 0.8601 0.5166 0.0
C592 C 0.09117 0.90011 0.48224 0.0
C593 C 0.08857 0.9245 0.5014 0.0
C594 C 0.13173 0.88089 0.51262 0.0
C595 C 0.10678 0.92533 0.52706 0.0
C596 C 0.1685 0.85335 0.54504 0.0
C597 C 0.19384 0.82863 0.49392 0.0
N598 N 0.12783 0.90385 0.53189 0.0
N599 N 0.17014 0.84766 0.492 0.0
H600 H 0.45258 0.22313 0.19082 0.0
H601 H 0.56335 0.09707 0.13105 0.0
H602 H 0.53473 0.19533 0.23489 0.0
H603 H 0.48252 0.12517 0.08466 0.0
H604 H 0.54747 0.12611 0.17424 0.0
H605 H 0.45805 0.18158 0.15612 0.0
C606 C 0.47164 0.20817 0.19323 0.0
C607 C 0.49338 0.21273 0.21549 0.0
C608 C 0.53301 0.12568 0.15474 0.0
C609 C 0.49979 0.16539 0.17617 0.0
C610 C 0.54208 0.10907 0.13009 0.0
C611 C 0.52468 0.10943 0.10395 0.0
C612 C 0.50655 0.14296 0.15309 0.0
C613 C 0.49699 0.12484 0.10415 0.0
C614 C 0.47466 0.1844 0.17362 0.0
C615 C 0.51739 0.19252 0.21809 0.0
N616 N 0.48903 0.14146 0.12817 0.0
N617 N 0.52012 0.16992 0.19846 0.0
H618 H 0.78375 0.46389 0.20528 0.0
H619 H 0.92309 0.56254 0.15753 0.0
H620 H 0.80696 0.54287 0.25361 0.0
H621 H 0.91773 0.46926 0.13874 0.0
H622 H 0.87937 0.55792 0.19092 0.0
H623 H 0.8305 0.46852 0.17622 0.0
C624 C 0.79865 0.48229 0.20958 0.0
C625 C 0.7918 0.5029 0.23192 0.0
C626 C 0.88815 0.53845 0.17979 0.0
C627 C 0.84514 0.50818 0.19922 0.0
C628 C 0.91317 0.54102 0.1609 0.0
C629 C 0.92392 0.51631 0.14514 0.0
C630 C 0.87367 0.51114 0.18243 0.0
C631 C 0.91021 0.48894 0.15035 0.0
C632 C 0.8254 0.48476 0.19329 0.0
C633 C 0.81178 0.52633 0.23678 0.0
N634 N 0.88545 0.4872 0.16816 0.0
N635 N 0.83762 0.5284 0.22047 0.0
H636 H 0.53055 0.85701 0.24067 0.0
H637 H 0.54802 0.89067 0.06815 0.0
H638 H 0.5914 0.80757 0.18347 0.0
H639 H 0.49655 0.94434 0.13002 0.0
H640 H 0.57 0.86398 0.11049 0.0
H641 H 0.52427 0.89321 0.20158 0.0
C642 C 0.54328 0.85403 0.22017 0.0
C643 C 0.5615 0.82895 0.21547 0.0
C644 C 0.55422 0.88187 0.11477 0.0
C645 C 0.55326 0.87017 0.16974 0.0
C646 C 0.54163 0.89709 0.09063 0.0
C647 C 0.51983 0.91924 0.0956 0.0
C648 C 0.54487 0.88892 0.14395 0.0
C649 C 0.51273 0.92695 0.12513 0.0
C650 C 0.53939 0.87472 0.19761 0.0
C651 C 0.57666 0.82622 0.18793 0.0
N652 N 0.52493 0.91158 0.14814 0.0
N653 N 0.57184 0.84635 0.16591 0.0
H654 H 0.26433 0.57753 0.1746 0.0
H655 H 0.13259 0.47828 0.10664 0.0
H656 H 0.2246 0.50301 0.2196 0.0
H657 H 0.15566 0.56432 0.07241 0.0
H658 H 0.1742 0.48186 0.14211 0.0
H659 H 0.23126 0.56845 0.13172 0.0
C660 C 0.24869 0.55925 0.17536 0.0
C661 C 0.24687 0.54117 0.20066 0.0
C662 C 0.17039 0.49977 0.12654 0.0
C663 C 0.20945 0.53051 0.15193 0.0
C664 C 0.14682 0.49764 0.1061 0.0
C665 C 0.14039 0.52127 0.0869 0.0
C666 C 0.18767 0.5256 0.1276 0.0
C667 C 0.1596 0.54578 0.08716 0.0
C668 C 0.22989 0.55407 0.15098 0.0
C669 C 0.22627 0.51778 0.20067 0.0
N670 N 0.18222 0.54747 0.1075 0.0
N671 N 0.20831 0.51314 0.17667 0.0
H672 H 0.50207 0.78958 0.82922 0.0
H673 H 0.54624 0.94582 0.89893 0.0
H674 H 0.56778 0.8461 0.7869 0.0
H675 H 0.47142 0.89157 0.92664 0.0
H676 H 0.5607 0.90762 0.86207 0.0
H677 H 0.49719 0.82453 0.86964 0.0
C678 C 0.51591 0.80921 0.82863 0.0
C679 C 0.53563 0.81472 0.80471 0.0
C680 C 0.54134 0.90409 0.8765 0.0
C681 C 0.52931 0.85575 0.85091 0.0
C682 C 0.53325 0.9257 0.89755 0.0
C683 C 0.50748 0.92179 0.91549 0.0
C684 C 0.52371 0.87849 0.87404 0.0
C685 C 0.49121 0.89557 0.91292 0.0
C686 C 0.51287 0.8294 0.85169 0.0
C687 C 0.5522 0.84108 0.80487 0.0
N688 N 0.49956 0.87503 0.89258 0.0
N689 N 0.54859 0.86078 0.82763 0.0
H690 H 0.25101 0.50369 0.80575 0.0
H691 H 0.09758 0.57991 0.85403 0.0
H692 H 0.2187 0.58242 0.76199 0.0
H693 H 0.11458 0.48659 0.86463 0.0
H694 H 0.14146 0.58277 0.82071 0.0
H695 H 0.20198 0.49924 0.83107 0.0
C696 C 0.23367 0.52027 0.80195 0.0
C697 C 0.23868 0.54356 0.78214 0.0
C698 C 0.13517 0.56161 0.82994 0.0
C699 C 0.18278 0.53845 0.81029 0.0
C700 C 0.11007 0.55992 0.84879 0.0
C701 C 0.10283 0.53311 0.86259 0.0
C702 C 0.15323 0.53643 0.82541 0.0
C703 C 0.11956 0.50782 0.85479 0.0
C704 C 0.20564 0.51751 0.81594 0.0
C705 C 0.21549 0.56426 0.77734 0.0
N706 N 0.14445 0.51023 0.83723 0.0
N707 N 0.18847 0.56133 0.79149 0.0
H708 H 0.43466 0.23629 0.83289 0.0
H709 H 0.5382 0.10028 0.87373 0.0
H710 H 0.48491 0.1845 0.7684 0.0
H711 H 0.47102 0.13368 0.93529 0.0
H712 H 0.51506 0.12902 0.83392 0.0
H713 H 0.44328 0.19734 0.87004 0.0
C714 C 0.44688 0.21653 0.82635 0.0
C715 C 0.45916 0.21382 0.79747 0.0
C716 C 0.50496 0.12983 0.85599 0.0
C717 C 0.46921 0.16947 0.83971 0.0
C718 C 0.51827 0.11349 0.87871 0.0
C719 C 0.50653 0.11486 0.90774 0.0
C720 C 0.48014 0.14832 0.86247 0.0
C721 C 0.48056 0.13205 0.91308 0.0
C722 C 0.4517 0.1943 0.8475 0.0
C723 C 0.47461 0.18761 0.79014 0.0
N724 N 0.46849 0.14865 0.89071 0.0
N725 N 0.47952 0.16675 0.8112 0.0
H726 H 0.80894 0.47987 0.79373 0.0
H727 H 0.86715 0.55677 0.94061 0.0
H728 H 0.75283 0.54216 0.8418 0.0
H729 H 0.89958 0.47179 0.91024 0.0
H730 H 0.82565 0.55377 0.90459 0.0
H731 H 0.84474 0.47982 0.83505 0.0
C732 C 0.80434 0.49371 0.81297 0.0
C733 C 0.77809 0.51117 0.81445 0.0
C734 C 0.84162 0.53563 0.90624 0.0
C735 C 0.81858 0.51086 0.86189 0.0
C736 C 0.86522 0.53728 0.92677 0.0
C737 C 0.887 0.51465 0.92814 0.0
C738 C 0.84027 0.51146 0.88675 0.0
C739 C 0.88338 0.48981 0.90987 0.0
C740 C 0.82453 0.49339 0.83666 0.0
C741 C 0.77286 0.52837 0.84 0.0
N742 N 0.86075 0.48912 0.88954 0.0
N743 N 0.79312 0.52795 0.86278 0.0
H744 H 0.73654 0.71127 0.94014 0.0
H745 H 0.59743 0.65624 0.03925 0.0
H746 H 0.70826 0.75103 0.02329 0.0
H747 H 0.61479 0.62332 0.95023 0.0
H748 H 0.63736 0.69221 0.03249 0.0
H749 H 0.69214 0.67875 0.94247 0.0
C750 C 0.72096 0.71305 0.9588 0.0
C751 C 0.72571 0.73382 0.98142 0.0
C752 C 0.63232 0.67734 0.01427 0.0
C753 C 0.67544 0.69717 0.98432 0.0
C754 C 0.60945 0.6568 0.01812 0.0
C755 C 0.60302 0.63656 0.9954 0.0
C756 C 0.64913 0.6775 0.98759 0.0
C757 C 0.61913 0.63849 0.96837 0.0
C758 C 0.69564 0.69474 0.96006 0.0
C759 C 0.70507 0.73549 0.0052 0.0
N760 N 0.64178 0.6584 0.96533 0.0
N761 N 0.6809 0.71737 0.00606 0.0
H762 H 0.25533 0.70332 0.9622 0.0
H763 H 0.38453 0.62911 0.05758 0.0
H764 H 0.30962 0.75063 0.026 0.0
H765 H 0.37416 0.6036 0.96514 0.0
H766 H 0.34635 0.6674 0.05041 0.0
H767 H 0.29137 0.66172 0.96498 0.0
C768 C 0.27519 0.70512 0.97623 0.0
C769 C 0.27968 0.73026 0.99393 0.0
C770 C 0.35223 0.65313 0.03184 0.0
C771 C 0.31967 0.6829 -0.00193 0.0
C772 C 0.37367 0.63098 0.03599 0.0
C773 C 0.38288 0.61343 0.01178 0.0
C774 C 0.33954 0.6574 0.00349 0.0
C775 C 0.36794 0.61694 0.98429 0.0
C776 C 0.29548 0.68146 0.97793 0.0
C777 C 0.30554 0.73169 0.01188 0.0
N778 N 0.34704 0.63878 0.98077 0.0
N779 N 0.32432 0.70806 0.01391 0.0
H780 H 0.26835 0.33844 0.98326 0.0
H781 H 0.42919 0.38436 0.04708 0.0
H782 H 0.31583 0.29052 0.05218 0.0
H783 H 0.39329 0.41981 0.9649 0.0
H784 H 0.38717 0.35001 0.04928 0.0
H785 H 0.31263 0.37025 0.9771 0.0
C786 C 0.28798 0.33495 -0.00268 0.0
C787 C 0.2886 0.31209 0.01835 0.0
C788 C 0.38857 0.36507 0.03058 0.0
C789 C 0.33908 0.34763 0.01112 0.0
C790 C 0.41254 0.38461 0.02934 0.0
C791 C 0.41447 0.40483 0.00589 0.0
C792 C 0.36609 0.36622 0.00851 0.0
C793 C 0.39253 0.40432 0.98329 0.0
C794 C 0.31329 0.35275 0.99354 0.0
C795 C 0.3146 0.30795 0.0357 0.0
N796 N 0.36886 0.38549 0.98536 0.0
N797 N 0.33884 0.32559 0.0317 0.0
H798 H 0.73607 0.29198 0.04428 0.0
H799 H 0.66257 0.43417 0.97134 0.0
H800 H 0.77786 0.34003 0.9721 0.0
H801 H 0.64033 0.40637 0.06098 0.0
H802 H 0.70421 0.39862 0.9706 0.0
H803 H 0.69884 0.33208 0.04995 0.0
C804 C 0.73737 0.311 0.02973 0.0
C805 C 0.75997 0.31291 0.00779 0.0
C806 C 0.69051 0.40061 0.99061 0.0
C807 C 0.71793 0.35842 0.01404 0.0
C808 C 0.66683 0.4209 0.99103 0.0
C809 C 0.64813 0.42311 0.01621 0.0
C810 C 0.69509 0.3821 0.01533 0.0
C811 C 0.65446 0.40541 0.04118 0.0
C812 C 0.71639 0.33389 0.0331 0.0
C813 C 0.76093 0.33795 0.98951 0.0
N814 N 0.67723 0.38524 0.03996 0.0
N815 N 0.74006 0.35966 0.99292 0.0
H816 H 0.01323 0.74218 0.67571 0.0
H817 H 0.97136 0.58295 0.61841 0.0
H818 H 0.94997 0.6867 0.72254 0.0
H819 H 0.02576 0.64532 0.56978 0.0
H820 H 0.95538 0.62259 0.65243 0.0
H821 H 0.01219 0.70865 0.63354 0.0
C822 C -0.00122 0.723 0.67683 0.0
C823 C 0.98161 0.71708 0.70242 0.0
C824 C 0.97021 0.62771 0.63386 0.0
C825 C 0.98037 0.67832 0.6543 0.0
C826 C 0.97906 0.60519 0.61435 0.0
C827 C 0.00028 0.611 0.59184 0.0
C828 C 0.98289 0.65586 0.63056 0.0
C829 C 0.00984 0.63998 0.5874 0.0
C830 C -0.0019 0.70385 0.65274 0.0
C831 C 0.96368 0.69172 0.70313 0.0
N832 N 0.00143 0.66127 0.6069 0.0
N833 N 0.96365 0.67303 0.67937 0.0
H834 H 0.34467 0.93721 0.74204 0.0
H835 H 0.43447 0.05785 0.64807 0.0
H836 H 0.31202 0.02423 0.7195 0.0
H837 H 0.4551 0.96476 0.64187 0.0
H838 H 0.39866 0.04737 0.68796 0.0
H839 H 0.3925 0.94819 0.71578 0.0
C840 C 0.34755 0.95841 0.73132 0.0
C841 C 0.32432 0.97959 0.7321 0.0
C842 C 0.41145 0.0293 0.6782 0.0
C843 C 0.37865 0.99265 0.70368 0.0
C844 C 0.43208 0.03528 0.65558 0.0
C845 C 0.44695 0.01201 0.64092 0.0
C846 C 0.40571 -8e-05 0.68608 0.0
C847 C 0.44341 0.98328 0.65205 0.0
C848 C 0.37475 0.96475 0.71672 0.0
C849 C 0.32912 0.00701 0.71859 0.0
N850 N 0.42253 0.9779 0.67361 0.0
N851 N 0.35575 0.01275 0.70497 0.0
H852 H 0.0342 0.29425 0.66864 0.0
H853 H 0.98337 0.45362 0.61496 0.0
H854 H 0.96855 0.34779 0.71597 0.0
H855 H 0.04718 0.39783 0.5679 0.0
H856 H 0.97048 0.41209 0.64723 0.0
H857 H 0.03225 0.32865 0.62714 0.0
C858 C 0.01898 0.31302 0.67015 0.0
C859 C 0.00172 0.31827 0.696 0.0
C860 C 0.98694 0.40883 0.62953 0.0
C861 C -6e-05 0.35827 0.64865 0.0
C862 C -0.00574 0.4325 0.61105 0.0
C863 C 0.01695 0.4293 0.58925 0.0
C864 C 0.00246 0.38191 0.62608 0.0
C865 C 0.03006 0.40141 0.58492 0.0
C866 C 0.01799 0.33278 0.64644 0.0
C867 C 0.98276 0.34323 0.69675 0.0
N868 N 0.02293 0.37889 0.60347 0.0
N869 N 0.98263 0.36252 0.67354 0.0
H870 H 0.71256 0.07346 0.73433 0.0
H871 H 0.66079 0.98069 0.5949 0.0
H872 H 0.75372 0.98911 0.71464 0.0
H873 H 0.65674 0.07589 0.5978 0.0
H874 H 0.69325 0.98119 0.63901 0.0
H875 H 0.68663 0.07186 0.68617 0.0
C876 C 0.71576 0.05444 0.71999 0.0
C877 C 0.7353 0.03146 0.72821 0.0
C878 C 0.68569 0.00193 0.62955 0.0
C879 C 0.70641 0.02974 0.67314 0.0
C880 C 0.66737 0.00173 0.60424 0.0
C881 C 0.6554 0.02829 0.59306 0.0
C882 C 0.69172 0.02881 0.64372 0.0
C883 C 0.66492 0.05484 0.60596 0.0
C884 C 0.70139 0.05373 0.69239 0.0
C885 C 0.73896 0.00736 0.70881 0.0
N886 N 0.68199 0.0544 0.63105 0.0
N887 N 0.72457 0.00707 0.68206 0.0
H888 H 0.02076 0.36368 0.2832 0.0
H889 H 0.01109 0.40207 0.44684 0.0
H890 H 0.07376 0.30731 0.34136 0.0
H891 H 0.03593 0.46978 0.38378 0.0
H892 H 0.02943 0.36457 0.4113 0.0
H893 H 0.02046 0.40121 0.32146 0.0
C894 C 0.03309 0.35922 0.30357 0.0
C895 C 0.04779 0.33206 0.30851 0.0
C896 C 0.03145 0.38771 0.40573 0.0
C897 C 0.04581 0.37499 0.35329 0.0
C898 C 0.02087 0.40905 0.4258 0.0
C899 C 0.02148 0.439 0.41794 0.0
C900 C 0.04186 0.39655 0.37753 0.0
C901 C 0.03469 0.44693 0.39059 0.0
C902 C 0.03256 0.38076 0.32558 0.0
C903 C 0.0618 0.32761 0.33645 0.0
N904 N 0.04363 0.42577 0.37101 0.0
N905 N 0.06 0.3487 0.35807 0.0
H906 H 0.72446 -2e-05 0.30501 0.0
H907 H 0.56423 0.05583 0.36409 0.0
H908 H 0.67303 0.07051 0.26442 0.0
H909 H 0.61119 0.98035 0.4007 0.0
H910 H 0.60101 0.05746 0.32352 0.0
H911 H 0.68153 0.98968 0.3379 0.0
C912 C 0.70413 0.01336 0.30316 0.0
C913 C 0.70224 0.03628 0.28221 0.0
C914 C 0.60303 0.04021 0.34012 0.0
C915 C 0.65305 0.02435 0.31922 0.0
C916 C 0.58192 0.03918 0.36316 0.0
C917 C 0.58495 0.01817 0.38587 0.0
C918 C 0.62753 0.02034 0.3401 0.0
C919 C 0.60812 0.99697 0.38361 0.0
C920 C 0.67956 0.00727 0.32166 0.0
C921 C 0.67529 0.05258 0.28023 0.0
N922 N 0.62896 0.99895 0.36138 0.0
N923 N 0.65178 0.04641 0.29866 0.0
H924 H 0.00527 0.74397 0.33972 0.0
H925 H 0.04605 0.58252 0.39437 0.0
H926 H 0.06322 0.68553 0.2888 0.0
H927 H -0.00835 0.64526 0.44342 0.0
H928 H 0.06084 0.62185 0.35968 0.0
H929 H 0.00742 0.71017 0.38137 0.0
C930 C 0.01903 0.72422 0.33753 0.0
C931 C 0.03431 0.71765 0.31082 0.0
C932 C 0.04623 0.62711 0.37844 0.0
C933 C 0.03618 0.67813 0.35846 0.0
C934 C 0.03807 0.60477 0.39833 0.0
C935 C 0.01743 0.61082 0.42138 0.0
C936 C 0.03352 0.6554 0.38193 0.0
C937 C 0.00726 0.63976 0.42552 0.0
C938 C 0.02012 0.70476 0.36135 0.0
C939 C 0.05097 0.69126 0.30899 0.0
N940 N 0.01515 0.66092 0.40577 0.0
N941 N 0.05128 0.67224 0.33249 0.0
H942 H 0.30656 0.94764 0.29821 0.0
H943 H 0.36209 0.05926 0.424 0.0
H944 H 0.28398 0.04013 0.30012 0.0
H945 H 0.38397 0.96628 0.42375 0.0
H946 H 0.32678 0.05101 0.3832 0.0
H947 H 0.33136 0.95283 0.34699 0.0
C948 C 0.3072 0.96905 0.30893 0.0
C949 C 0.29373 0.99359 0.29546 0.0
C950 C 0.33897 0.03233 0.39238 0.0
C951 C 0.32111 -0.0003 0.35092 0.0
C952 C 0.35893 0.03699 0.41591 0.0
C953 C 0.37673 0.0136 0.42668 0.0
C954 C 0.33697 0.00415 0.37955 0.0
C955 C 0.37125 0.98512 0.41568 0.0
C956 C 0.32097 0.972 0.33677 0.0
C957 C 0.29449 0.02085 0.31002 0.0
N958 N 0.35234 0.98129 0.39221 0.0
N959 N 0.30807 0.02323 0.33701 0.0
H960 H 0.07941 0.21585 0.28931 0.0
H961 H 0.96302 0.1429 0.40175 0.0
H962 H 0.98318 0.23138 0.28646 0.0
H963 H 0.05256 0.10636 0.38823 0.0
H964 H 0.97127 0.17619 0.35998 0.0
H965 H 0.07104 0.1745 0.32373 0.0
C966 C 0.05645 0.20974 0.29509 0.0
C967 C 0.03187 0.22661 0.28482 0.0
C968 C 0.98911 0.16083 0.36599 0.0
C969 C 0.02222 0.18066 0.32522 0.0
C970 C 0.98453 0.14194 0.39007 0.0
C971 C 0.00717 0.12181 0.39863 0.0
C972 C 0.01664 0.15986 0.35025 0.0
C973 C 0.03459 0.12171 0.3826 0.0
C974 C 0.0517 0.18645 0.31499 0.0
C975 C 0.00262 0.21851 0.29353 0.0
N976 N 0.0386 0.14051 0.35918 0.0
N977 N -0.00137 0.19643 0.31363 0.0
H978 H 0.8127 0.09197 0.27662 0.0
H979 H 0.88802 0.9803 0.39251 0.0
H980 H 0.81636 0.99805 0.26325 0.0
H981 H 0.879 0.07411 0.40732 0.0
H982 H 0.86405 0.98629 0.34396 0.0
H983 H 0.8446 0.08645 0.3208 0.0
C984 C 0.82166 0.07036 0.28215 0.0
C985 C 0.81204 0.0454 0.26653 0.0
C986 C 0.86711 0.00552 0.35794 0.0
C987 C 0.84672 0.03861 0.31775 0.0
C988 C 0.88031 0.00207 0.38596 0.0
C989 C 0.88605 0.02684 0.40389 0.0
C990 C 0.85942 0.03388 0.34788 0.0
C991 C 0.87541 0.05442 0.39413 0.0
C992 C 0.83916 0.06708 0.30778 0.0
C993 C 0.82357 0.01778 0.27479 0.0
N994 N 0.86296 0.05725 0.36661 0.0
N995 N 0.83977 0.01498 0.30036 0.0
H996 H 0.05882 0.83534 0.26627 0.0
H997 H 0.97614 0.90067 0.40875 0.0
H998 H 0.971 0.8065 0.29586 0.0
H999 H 0.03116 0.9572 0.35354 0.0
H1000 H 0.98182 0.86149 0.37157 0.0
H1001 H 0.05457 0.87814 0.30002 0.0
C1002 C 0.03812 0.8388 0.27888 0.0
C1003 C 0.01484 0.81798 0.27781 0.0
C1004 C -0.00729 0.88248 0.36768 0.0
C1005 C 0.01078 0.86518 0.31762 0.0
C1006 C 0.98975 0.90471 0.38901 0.0
C1007 C 0.00279 0.93235 0.38395 0.0
C1008 C 0.00919 0.88778 0.34137 0.0
C1009 C 0.02037 0.9363 0.35805 0.0
C1010 C 0.03594 0.86281 0.29847 0.0
C1011 C 0.98901 0.82259 0.29553 0.0
N1012 N 0.02305 0.91423 0.33761 0.0
N1013 N 0.98791 0.84539 0.31513 0.0
H1014 H 0.19157 0.04035 0.24462 0.0
H1015 H 0.09196 0.96221 0.36894 0.0
H1016 H 0.18946 0.94658 0.25885 0.0
H1017 H 0.09519 0.05648 0.35636 0.0
H1018 H 0.12017 0.95554 0.32256 0.0
H1019 H 0.14708 0.04592 0.27695 0.0
C1020 C 0.18065 0.02079 0.25325 0.0
C1021 C 0.19397 0.99298 0.24909 0.0
C1022 C 0.11438 0.97769 0.32966 0.0
C1023 C 0.1443 0.99917 0.28724 0.0
C1024 C 0.09831 0.98154 0.35624 0.0
C1025 C 0.09139 0.00999 0.36669 0.0
C1026 C 0.12363 0.00246 0.31326 0.0
C1027 C 0.10036 0.03417 0.34933 0.0
C1028 C 0.15566 0.02399 0.27222 0.0
C1029 C 0.17957 0.96835 0.26138 0.0
N1030 N 0.11618 0.02986 0.32356 0.0
N1031 N 0.15592 0.97207 0.2805 0.0
H1032 H 0.94071 0.81661 0.71287 0.0
H1033 H 0.03599 0.95996 0.67695 0.0
H1034 H 0.02709 0.8314 0.75489 0.0
H1035 H -0.00691 0.90898 0.60764 0.0
H1036 H 0.0213 0.92255 0.71354 0.0
H1037 H 0.94789 0.86115 0.68294 0.0
C1038 C 0.96075 0.82977 0.71653 0.0
C1039 C 0.98365 0.81995 0.73605 0.0
C1040 C 0.01495 0.91979 0.69035 0.0
C1041 C -0.0084 0.87109 0.70221 0.0
C1042 C 0.0232 0.94108 0.66943 0.0
C1043 C 0.01593 0.93749 0.63911 0.0
C1044 C -0.00128 0.89507 0.68104 0.0
C1045 C -0.0007 0.91256 0.63074 0.0
C1046 C 0.96488 0.85497 0.69925 0.0
C1047 C 0.00891 0.83809 0.74016 0.0
N1048 N 0.99119 0.89227 0.65165 0.0
N1049 N 0.01239 0.86272 0.72309 0.0
H1050 H 0.24208 0.04279 0.72402 0.0
H1051 H 0.10895 0.97185 0.63185 0.0
H1052 H 0.18792 0.97028 0.75495 0.0
H1053 H 0.15421 0.05125 0.60341 0.0
H1054 H 0.135 0.97437 0.67912 0.0
H1055 H 0.20566 0.0518 0.68396 0.0
C1056 C 0.22171 0.02961 0.72307 0.0
C1057 C 0.218 0.00549 0.74237 0.0
C1058 C 0.13954 0.99117 0.66255 0.0
C1059 C 0.17705 0.01492 0.69626 0.0
C1060 C 0.12507 0.98945 0.63515 0.0
C1061 C 0.12983 0.0111 0.61324 0.0
C1062 C 0.15958 0.01432 0.66812 0.0
C1063 C 0.15025 0.03386 0.61948 0.0
C1064 C 0.20118 0.03449 0.7 0.0
C1065 C 0.19155 0.98894 0.74034 0.0
N1066 N 0.1646 0.03476 0.64634 0.0
N1067 N 0.17233 0.99355 0.71717 0.0
H1068 H 0.06561 0.22091 0.73109 0.0
H1069 H 0.97876 0.10668 0.62605 0.0
H1070 H 0.96909 0.2086 0.734 0.0
H1071 H 0.07269 0.13086 0.61633 0.0
H1072 H 0.97587 0.1368 0.67154 0.0
H1073 H 0.07018 0.17871 0.69729 0.0
C1074 C 0.04556 0.20829 0.72582 0.0
C1075 C 0.01699 0.21793 0.73556 0.0
C1076 C -0.00291 0.13547 0.65941 0.0
C1077 C 0.02169 0.17075 0.69557 0.0
C1078 C -0.00133 0.11855 0.63324 0.0
C1079 C 0.02588 0.1166 0.61698 0.0
C1080 C 0.02291 0.15049 0.66943 0.0
C1081 C 0.05112 0.13192 0.62786 0.0
C1082 C 0.04804 0.1846 0.70599 0.0
C1083 C -0.00845 0.20149 0.72726 0.0
N1084 N 0.04899 0.14821 0.65325 0.0
N1085 N -0.0056 0.17902 0.70727 0.0
H1086 H 0.84086 0.08118 0.76473 0.0
H1087 H 0.93401 0.97676 0.65396 0.0
H1088 H 0.84 0.98649 0.77033 0.0
H1089 H 0.92167 0.0707 0.64307 0.0
H1090 H 0.90839 0.98003 0.70252 0.0
H1091 H 0.88208 0.07805 0.72838 0.0
C1092 C 0.85064 0.05978 0.75961 0.0
C1093 C 0.83718 0.03405 0.77046 0.0
C1094 C 0.91158 -8e-05 0.68955 0.0
C1095 C 0.88308 0.0301 0.72781 0.0
C1096 C 0.92603 0.99805 0.66177 0.0
C1097 C 0.92992 0.02347 0.64434 0.0
C1098 C 0.90114 0.02741 0.69998 0.0
C1099 C 0.91916 0.05047 0.65563 0.0
C1100 C 0.87366 0.05792 0.73829 0.0
C1101 C 0.85005 0.0068 0.76251 0.0
N1102 N 0.90522 0.05169 0.68263 0.0
N1103 N 0.87182 0.00545 0.74103 0.0
H1104 H 0.28241 0.0442 0.1849 0.0
H1105 H 0.41289 0.97714 0.08063 0.0
H1106 H 0.30185 0.95112 0.18128 0.0
H1107 H 0.40998 0.06715 0.11139 0.0
H1108 H 0.36753 0.96669 0.1105 0.0
H1109 H 0.32283 0.05281 0.14836 0.0
C1110 C 0.29447 0.02551 0.17543 0.0
C1111 C 0.28878 0.99693 0.18561 0.0
C1112 C 0.37694 0.98868 0.11074 0.0
C1113 C 0.33553 0.00653 0.145 0.0
C1114 C 0.40273 0.99459 0.09374 0.0
C1115 C 0.4149 0.02303 0.09331 0.0
C1116 C 0.36315 0.01155 0.12709 0.0
C1117 C 0.4014 0.04485 0.1112 0.0
C1118 C 0.31783 0.03042 0.15506 0.0
C1119 C 0.30549 0.97341 0.17349 0.0
N1120 N 0.37605 0.03872 0.12714 0.0
N1121 N 0.32838 0.97873 0.15391 0.0
H1122 H 0.98496 0.32888 0.22268 0.0
H1123 H 0.045 0.37494 0.06084 0.0
H1124 H 0.06057 0.28569 0.17975 0.0
H1125 H -0.002 0.43365 0.12136 0.0
H1126 H 0.03915 0.3349 0.09712 0.0
H1127 H 0.97741 0.35909 0.17803 0.0
C1128 C -0.00068 0.3251 0.20335 0.0
C1129 C 0.02342 0.30484 0.20477 0.0
C1130 C 0.02977 0.35645 0.10221 0.0
C1131 C 0.01535 0.33972 0.15392 0.0
C1132 C 0.03297 0.37931 0.08151 0.0
C1133 C 0.02234 0.40782 0.08829 0.0
C1134 C 0.01541 0.36202 0.12965 0.0
C1135 C 0.0069 0.41213 0.11539 0.0
C1136 C -0.0048 0.34254 0.17804 0.0
C1137 C 0.04163 0.30096 0.17937 0.0
N1138 N 0.00405 0.38953 0.13513 0.0
N1139 N 0.03748 0.31857 0.15502 0.0
H1140 H 0.72502 0.09407 0.17768 0.0
H1141 H 0.61745 0.97707 0.10933 0.0
H1142 H 0.74783 0.00168 0.17588 0.0
H1143 H 0.62275 0.06309 0.06889 0.0
H1144 H 0.66284 0.98811 0.13829 0.0
H1145 H 0.68782 0.08585 0.13805 0.0
C1146 C 0.72342 0.0724 0.16763 0.0
C1147 C 0.73945 0.04849 0.17976 0.0
C1148 C 0.6541 0.00452 0.12294 0.0
C1149 C 0.69601 0.03865 0.13625 0.0
C1150 C 0.62794 0.99845 0.10685 0.0
C1151 C 0.61659 0.0192 0.08652 0.0
C1152 C 0.66862 0.03169 0.11903 0.0
C1153 C 0.63114 0.04646 0.084 0.0
C1154 C 0.7018 0.0676 0.14552 0.0
C1155 C 0.73602 0.02064 0.16679 0.0
N1156 N 0.65643 0.05206 0.10019 0.0
N1157 N 0.71392 0.01625 0.14632 0.0
H1158 H 0.04009 0.75592 0.1792 0.0
H1159 H 0.97394 0.60502 0.11628 0.0
H1160 H 0.9698 0.70654 0.22299 0.0
H1161 H 0.04673 0.65385 0.07561 0.0
H1162 H 0.96366 0.6474 0.14921 0.0
H1163 H 0.03428 0.72479 0.13481 0.0
C1164 C 0.02278 0.7391 0.17905 0.0
C1165 C 0.00561 0.73349 0.20474 0.0
C1166 C 0.98154 0.64897 0.13269 0.0
C1167 C -0.00079 0.69736 0.15453 0.0
C1168 C 0.98729 0.62483 0.11386 0.0
C1169 C 0.01162 0.62569 0.09372 0.0
C1170 C 0.00024 0.67401 0.13119 0.0
C1171 C 0.02816 0.65197 0.09134 0.0
C1172 C 0.01959 0.72114 0.15385 0.0
C1173 C 0.98367 0.71126 0.20361 0.0
N1174 N 0.02244 0.67485 0.11009 0.0
N1175 N 0.98141 0.69369 0.17912 0.0
H1176 H 0.27715 0.03283 0.82762 0.0
H1177 H 0.41332 0.97605 0.92964 0.0
H1178 H 0.29683 0.94067 0.84113 0.0
H1179 H 0.40005 0.0656 0.89972 0.0
H1180 H 0.36576 0.96243 0.90533 0.0
H1181 H 0.31454 0.04518 0.86546 0.0
C1182 C 0.28818 0.01512 0.83977 0.0
C1183 C 0.28421 0.98573 0.83115 0.0
C1184 C 0.37328 0.98508 0.90433 0.0
C1185 C 0.328 -0.00038 0.87334 0.0
C1186 C 0.40044 0.99284 0.9182 0.0
C1187 C 0.41043 0.0221 0.91742 0.0
C1188 C 0.35616 0.00679 0.88954 0.0
C1189 C 0.39322 0.04278 0.90127 0.0
C1190 C 0.31009 0.02217 0.86086 0.0
C1191 C 0.29946 0.96362 0.84721 0.0
N1192 N 0.36695 0.03475 0.88813 0.0
N1193 N 0.32135 0.97102 0.86707 0.0
H1194 H 0.96505 0.32591 0.79862 0.0
H1195 H 0.02943 0.37958 0.9509 0.0
H1196 H 0.05315 0.29092 0.82088 0.0
H1197 H 0.00047 0.44 0.882 0.0
H1198 H 0.03178 0.33989 0.91322 0.0
H1199 H 0.96825 0.35959 0.84105 0.0
C1200 C 0.98477 0.32484 0.81295 0.0
C1201 C 0.009 0.30584 0.8061 0.0
C1202 C 0.02535 0.36199 0.90653 0.0
C1203 C 0.01275 0.34437 0.85461 0.0
C1204 C 0.02401 0.38464 0.92788 0.0
C1205 C 0.0146 0.41321 0.91965 0.0
C1206 C 0.01627 0.36792 0.87714 0.0
C1207 C 0.00774 0.41842 0.88951 0.0
C1208 C 0.98666 0.34418 0.83693 0.0
C1209 C 0.03399 0.30523 0.82551 0.0
N1210 N 0.00814 0.39591 0.86954 0.0
N1211 N 0.03542 0.32453 0.84892 0.0
H1212 H 0.76512 0.01402 0.85807 0.0
H1213 H 0.60268 0.07068 0.91252 0.0
H1214 H 0.7206 0.09087 0.82197 0.0
H1215 H 0.6404 0.98422 0.9286 0.0
H1216 H 0.65146 0.08582 0.8909 0.0
H1217 H 0.7266 0.01184 0.8974 0.0
C1218 C 0.74794 0.03115 0.8592 0.0
C1219 C 0.7456 0.05232 0.83659 0.0
C1220 C 0.64905 0.06365 0.89949 0.0
C1221 C 0.70103 0.04947 0.88065 0.0
C1222 C 0.62126 0.05504 0.91174 0.0
C1223 C 0.61745 0.02612 0.92197 0.0
C1224 C 0.67304 0.04315 0.8977 0.0
C1225 C 0.6422 0.00661 0.92042 0.0
C1226 C 0.72571 0.0297 0.88137 0.0
C1227 C 0.7228 0.07395 0.83889 0.0
N1228 N 0.66883 0.01543 0.9084 0.0
N1229 N 0.70092 0.0716 0.86013 0.0
H1230 H 0.97118 0.75591 0.834 0.0
H1231 H 0.04672 0.60773 0.89558 0.0
H1232 H 0.04539 0.71123 0.79021 0.0
H1233 H 0.97174 0.65348 0.93711 0.0
H1234 H 0.05421 0.65054 0.86266 0.0
H1235 H 0.97896 0.72462 0.87799 0.0
C1236 C 0.98974 0.74016 0.83407 0.0
C1237 C 0.00744 0.73589 0.8084 0.0
C1238 C 0.03648 0.65136 0.8794 0.0
C1239 C 0.01603 0.69937 0.85818 0.0
C1240 C 0.03233 0.62695 0.89827 0.0
C1241 C 0.00828 0.62677 0.9188 0.0
C1242 C 0.01647 0.67566 0.88126 0.0
C1243 C 0.99028 0.65235 0.9213 0.0
C1244 C -0.00597 0.72204 0.85904 0.0
C1245 C 0.03103 0.71493 0.80952 0.0
N1246 N -0.00551 0.67548 0.90259 0.0
N1247 N 0.0343 0.6971 0.83373 0.0
H1248 H 0.18091 0.30791 0.06668 0.0
H1249 H 0.0862 0.3993 0.94708 0.0
H1250 H 0.1708 0.28178 0.97481 0.0
H1251 H 0.10329 0.4285 0.03723 0.0
H1252 H 0.1075 0.35109 0.95971 0.0
H1253 H 0.14153 0.34544 0.05976 0.0
C1254 C 0.1693 0.3092 0.04542 0.0
C1255 C 0.17893 0.29173 0.02128 0.0
C1256 C 0.10621 0.36789 0.97686 0.0
C1257 C 0.13497 0.33548 0.01271 0.0
C1258 C 0.09406 0.39549 0.96965 0.0
C1259 C 0.09296 0.41808 0.99108 0.0
C1260 C 0.1176 0.36281 0.00568 0.0
C1261 C 0.1037 0.41182 0.01992 0.0
C1262 C 0.14719 0.33096 0.0413 0.0
C1263 C 0.16374 0.29466 0.99401 0.0
N1264 N 0.11574 0.38489 0.0263 0.0
N1265 N 0.14294 0.3166 0.99025 0.0
H1266 H 0.14842 0.771 -0.00237 0.0
H1267 H 0.11405 0.60645 0.04112 0.0
H1268 H 0.19798 0.72277 0.06461 0.0
H1269 H 0.06476 0.65713 0.97571 0.0
H1270 H 0.13579 0.65239 0.06054 0.0
H1271 H 0.10766 0.73493 0.00119 0.0
C1272 C 0.15006 0.75354 0.01406 0.0
C1273 C 0.17666 0.74948 0.03047 0.0
C1274 C 0.11963 0.65353 0.04242 0.0
C1275 C 0.13107 0.70733 0.03368 0.0
C1276 C 0.10725 0.62732 0.03141 0.0
C1277 C 0.08825 0.62817 0.00643 0.0
C1278 C 0.11274 0.68051 0.02826 0.0
C1279 C 0.07999 0.65564 0.99459 0.0
C1280 C 0.12702 0.73263 0.01582 0.0
C1281 C 0.17783 0.72633 0.0513 0.0
N1282 N 0.09257 0.68065 0.00534 0.0
N1283 N 0.15579 0.70559 0.05169 0.0
H1284 H 0.26013 0.21053 0.96645 0.0
H1285 H 0.39689 0.13738 0.05564 0.0
H1286 H 0.26276 0.20242 0.06216 0.0
H1287 H 0.39303 0.14078 0.95929 0.0
H1288 H 0.34577 0.15761 0.05802 0.0
H1289 H 0.3042 0.17781 0.9627 0.0
C1290 C 0.26884 0.20034 0.98659 0.0
C1291 C 0.2578 0.20917 0.01467 0.0
C1292 C 0.35606 0.15401 0.03632 0.0
C1293 C 0.30926 0.17315 0.01075 0.0
C1294 C 0.38552 0.14279 0.03492 0.0
C1295 C 0.39953 0.13743 0.00718 0.0
C1296 C 0.34029 0.16015 0.00983 0.0
C1297 C 0.38334 0.14472 0.98118 0.0
C1298 C 0.29457 0.18232 0.98451 0.0
C1299 C 0.27046 0.19597 0.0401 0.0
N1300 N 0.3546 0.15567 0.98315 0.0
N1301 N 0.29604 0.1793 0.03762 0.0
H1302 H 0.85998 0.29976 0.94548 0.0
H1303 H 0.96297 0.39185 0.05601 0.0
H1304 H 0.87832 0.27497 0.03646 0.0
H1305 H 0.93427 0.4218 0.96898 0.0
H1306 H 0.94428 0.34269 0.04412 0.0
H1307 H 0.90011 0.33659 0.94823 0.0
C1308 C 0.87366 0.30101 0.9655 0.0
C1309 C 0.86609 0.28424 0.99072 0.0
C1310 C 0.94247 0.35989 0.02745 0.0
C1311 C 0.91091 0.32724 0.99463 0.0
C1312 C 0.9531 0.38803 0.03423 0.0
C1313 C 0.94955 0.41121 0.01373 0.0
C1314 C 0.92811 0.35482 -3e-05 0.0
C1315 C 0.93694 0.40477 0.98572 0.0
C1316 C 0.89618 0.32241 0.96729 0.0
C1317 C 0.88379 0.28727 0.01645 0.0
N1318 N 0.92631 0.3773 0.97983 0.0
N1319 N 0.90496 0.30886 0.01799 0.0
H1320 H 0.7514 0.82382 0.04617 0.0
H1321 H 0.62721 0.90991 0.95253 0.0
H1322 H 0.76284 0.84917 0.95426 0.0
H1323 H 0.62017 0.89735 0.04794 0.0
H1324 H 0.67834 0.88961 0.95389 0.0
H1325 H 0.70744 0.85666 0.04987 0.0
C1326 C 0.74581 0.83778 0.0273 0.0
C1327 C 0.76047 0.83358 -0.00027 0.0
C1328 C 0.66563 0.89121 0.97456 0.0
C1329 C 0.70939 0.86986 0.00322 0.0
C1330 C 0.63612 0.90232 0.97371 0.0
C1331 C 0.61917 0.90527 0.00014 0.0
C1332 C 0.67837 0.88267 0.00197 0.0
C1333 C 0.63231 0.89541 0.02697 0.0
C1334 C 0.72016 0.85591 0.02916 0.0
C1335 C 0.75203 0.85176 0.97585 0.0
N1336 N 0.66111 0.88456 0.02719 0.0
N1337 N 0.72641 0.8684 0.97782 0.0
H1338 H 0.8474 0.74634 0.94468 0.0
H1339 H 0.87992 0.6092 0.04151 0.0
H1340 H 0.82838 0.74434 0.03906 0.0
H1341 H 0.95387 0.63648 0.98524 0.0
H1342 H 0.85386 0.65567 0.03102 0.0
H1343 H 0.88394 0.70553 0.95135 0.0
C1344 C 0.85205 0.73822 0.96696 0.0
C1345 C 0.83524 0.74873 0.99146 0.0
C1346 C 0.87567 0.65136 0.02068 0.0
C1347 C 0.87504 0.70148 -0.00121 0.0
C1348 C 0.89028 0.62477 0.02629 0.0
C1349 C 0.91879 0.61904 0.01384 0.0
C1350 C 0.88967 0.67243 0.00252 0.0
C1351 C 0.93147 0.63993 0.99445 0.0
C1352 C 0.87251 0.7148 0.97066 0.0
C1353 C 0.84126 0.73704 0.01976 0.0
N1354 N 0.91681 0.66601 0.98936 0.0
N1355 N 0.86007 0.71347 0.02255 0.0
H1356 H 0.25417 0.83342 0.05831 0.0
H1357 H 0.35745 0.94015 0.96112 0.0
H1358 H 0.24909 0.84059 0.96255 0.0
H1359 H 0.36525 0.92938 0.05667 0.0
H1360 H 0.31036 0.91208 0.96242 0.0
H1361 H 0.28647 0.87711 0.05947 0.0
C1362 C 0.25879 0.84506 0.03768 0.0
C1363 C 0.24887 0.83371 0.01033 0.0
C1364 C 0.32218 0.9162 0.98316 0.0
C1365 C 0.28663 0.88286 0.0112 0.0
C1366 C 0.3491 0.93224 0.98242 0.0
C1367 C 0.3657 0.93668 0.00872 0.0
C1368 C 0.31183 0.90441 0.01036 0.0
C1369 C 0.35355 0.92612 0.03571 0.0
C1370 C 0.27756 0.86973 0.03824 0.0
C1371 C 0.25616 0.84895 0.98408 0.0
N1372 N 0.32761 0.91017 0.03576 0.0
N1373 N 0.27499 0.87251 0.9851 0.0
H1374 H 0.7707 0.21557 0.94302 0.0
H1375 H 0.6765 0.09812 0.03598 0.0
H1376 H 0.78852 0.19397 0.03495 0.0
H1377 H 0.65802 0.12051 0.94405 0.0
H1378 H 0.72355 0.12591 0.03312 0.0
H1379 H 0.73622 0.17364 0.93985 0.0
C1380 C 0.76827 0.20113 0.96214 0.0
C1381 C 0.78275 0.20773 0.98911 0.0
C1382 C 0.70942 0.12448 0.01344 0.0
C1383 C 0.74245 0.16061 0.98619 0.0
C1384 C 0.68248 0.10863 0.01506 0.0
C1385 C 0.663 0.10738 0.99034 0.0
C1386 C 0.71687 0.13946 0.98701 0.0
C1387 C 0.6722 0.12107 0.96373 0.0
C1388 C 0.74831 0.17745 0.96049 0.0
C1389 C 0.77813 0.18913 0.01363 0.0
N1390 N 0.69824 0.1369 0.96291 0.0
N1391 N 0.75804 0.16662 0.01172 0.0
H1392 H 0.57181 0.69801 0.77413 0.0
H1393 H 0.46497 0.64297 0.90241 0.0
H1394 H 0.47699 0.72038 0.77755 0.0
H1395 H 0.54101 0.58938 0.8745 0.0
H1396 H 0.47092 0.67289 0.85744 0.0
H1397 H 0.56265 0.65756 0.80952 0.0
C1398 C 0.54883 0.69342 0.78119 0.0
C1399 C 0.52499 0.7121 0.77248 0.0
C1400 C 0.48619 0.65445 0.861 0.0
C1401 C 0.51467 0.6673 0.81425 0.0
C1402 C 0.483 0.63753 0.88685 0.0
C1403 C 0.50261 0.6137 0.89232 0.0
C1404 C 0.50956 0.64797 0.84062 0.0
C1405 C 0.52539 0.60755 0.87114 0.0
C1406 C 0.54368 0.67067 0.80173 0.0
C1407 C 0.49582 0.70604 0.78324 0.0
N1408 N 0.5285 0.62481 0.84639 0.0
N1409 N 0.49159 0.68462 0.80404 0.0
H1410 H 0.36296 0.49847 0.76351 0.0
H1411 H 0.42832 0.57037 0.91158 0.0
H1412 H 0.34486 0.58803 0.79041 0.0
H1413 H 0.45484 0.48428 0.87951 0.0
H1414 H 0.4038 0.58003 0.8636 0.0
H1415 H 0.40314 0.49548 0.80122 0.0
C1416 C 0.36829 0.51784 0.77661 0.0
C1417 C 0.35077 0.54355 0.77389 0.0
C1418 C 0.41539 0.55918 0.86686 0.0
C1419 C 0.39583 0.54013 0.81765 0.0
C1420 C 0.42937 0.55365 0.89431 0.0
C1421 C 0.44336 0.52632 0.89972 0.0
C1422 C 0.41503 0.53707 0.84479 0.0
C1423 C 0.44427 0.50561 0.87638 0.0
C1424 C 0.39097 0.51608 0.79836 0.0
C1425 C 0.35801 0.56784 0.79186 0.0
N1426 N 0.42989 0.51122 0.85015 0.0
N1427 N 0.37966 0.56541 0.81325 0.0
H1428 H 0.5337 0.29498 0.79439 0.0
H1429 H 0.49702 0.45228 0.86801 0.0
H1430 H 0.45193 0.34288 0.77371 0.0
H1431 H 0.55431 0.38609 0.90836 0.0
H1432 H 0.48591 0.41781 0.82716 0.0
H1433 H 0.5484 0.33445 0.82869 0.0
C1434 C 0.51935 0.31436 0.79637 0.0
C1435 C 0.49185 0.31597 0.78087 0.0
C1436 C 0.50091 0.41092 0.84498 0.0
C1437 C 0.50797 0.36083 0.82085 0.0
C1438 C 0.50721 0.43053 0.86838 0.0
C1439 C 0.52639 0.42203 0.89195 0.0
C1440 C 0.51439 0.38279 0.84479 0.0
C1441 C 0.53924 0.39364 0.89089 0.0
C1442 C 0.5275 0.33667 0.81626 0.0
C1443 C 0.4736 0.34114 0.78485 0.0
N1444 N 0.5331 0.37517 0.86775 0.0
N1445 N 0.48189 0.36257 0.80459 0.0
H1446 H 0.68667 0.4473 0.79771 0.0
H1447 H 0.5567 0.53439 0.88526 0.0
H1448 H 0.65486 0.53364 0.77256 0.0
H1449 H 0.61815 0.47142 0.92505 0.0
H1450 H 0.57824 0.52292 0.83608 0.0
H1451 H 0.64605 0.44436 0.8349 0.0
C1452 C 0.67001 0.46492 0.79886 0.0
C1453 C 0.67404 0.49077 0.78212 0.0
C1454 C 0.58652 0.51121 0.85553 0.0
C1455 C 0.62822 0.48796 0.82513 0.0
C1456 C 0.57427 0.51769 0.88362 0.0
C1457 C 0.5861 0.50426 0.9094 0.0
C1458 C 0.61042 0.49081 0.85315 0.0
C1459 C 0.60873 0.48267 0.90584 0.0
C1460 C 0.6472 0.46346 0.82044 0.0
C1461 C 0.65234 0.51329 0.78492 0.0
N1462 N 0.62035 0.47681 0.87827 0.0
N1463 N 0.63067 0.51166 0.80655 0.0
H1464 H 0.52657 0.33979 0.24696 0.0
H1465 H 0.47013 0.41032 0.09286 0.0
H1466 H 0.44604 0.31104 0.20157 0.0
H1467 H 0.54615 0.44167 0.14375 0.0
H1468 H 0.45582 0.37877 0.13549 0.0
H1469 H 0.52913 0.38218 0.2132 0.0
C1470 C 0.50892 0.34285 0.23047 0.0
C1471 C 0.48624 0.32165 0.22698 0.0
C1472 C 0.47534 0.39296 0.13747 0.0
C1473 C 0.48939 0.36984 0.18749 0.0
C1474 C 0.48337 0.41108 0.11318 0.0
C1475 C 0.50968 0.42825 0.11457 0.0
C1476 C 0.49373 0.39217 0.16323 0.0
C1477 C 0.52603 0.42834 0.14147 0.0
C1478 C 0.51052 0.36693 0.2109 0.0
C1479 C 0.46418 0.32665 0.20481 0.0
N1480 N 0.51802 0.41043 0.16445 0.0
N1481 N 0.46655 0.34988 0.18567 0.0
H1482 H 0.68925 0.44452 0.22422 0.0
H1483 H 0.61984 0.5619 0.11744 0.0
H1484 H 0.6682 0.53341 0.25128 0.0
H1485 H 0.59762 0.47045 0.10332 0.0
H1486 H 0.64112 0.54947 0.16537 0.0
H1487 H 0.65511 0.4502 0.18133 0.0
C1488 C 0.67622 0.4647 0.22193 0.0
C1489 C 0.68144 0.48857 0.24125 0.0
C1490 C 0.63127 0.53205 0.15207 0.0
C1491 C 0.64389 0.49567 0.19168 0.0
C1492 C 0.61933 0.53902 0.12435 0.0
C1493 C 0.60591 0.51724 0.10644 0.0
C1494 C 0.63053 0.50289 0.16219 0.0
C1495 C 0.60693 0.48799 0.11662 0.0
C1496 C 0.65712 0.46806 0.19725 0.0
C1497 C 0.66461 0.51445 0.23704 0.0
N1498 N 0.61905 0.48157 0.14395 0.0
N1499 N 0.64719 0.5176 0.21227 0.0
H1500 H 0.59489 0.72011 0.21773 0.0
H1501 H 0.46727 0.62171 0.14237 0.0
H1502 H 0.50265 0.71776 0.24912 0.0
H1503 H 0.56069 0.62178 0.11378 0.0
H1504 H 0.4811 0.65136 0.18579 0.0
H1505 H 0.58459 0.67825 0.18497 0.0
C1506 C 0.57268 0.71011 0.21836 0.0
C1507 C 0.54957 0.72237 0.23615 0.0
C1508 C 0.49864 0.64474 0.17017 0.0
C1509 C 0.53723 0.675 0.19789 0.0
C1510 C 0.49074 0.62789 0.14524 0.0
C1511 C 0.51276 0.61965 0.12403 0.0
C1512 C 0.52878 0.65371 0.17392 0.0
C1513 C 0.54288 0.62787 0.12932 0.0
C1514 C 0.5667 0.68637 0.19944 0.0
C1515 C 0.52112 0.70882 0.23591 0.0
N1516 N 0.54992 0.64471 0.15351 0.0
N1517 N 0.51559 0.68617 0.21667 0.0
H1518 H 0.35393 0.59598 0.23261 0.0
H1519 H 0.39394 0.50429 0.10054 0.0
H1520 H 0.3529 0.50143 0.24032 0.0
H1521 H 0.47 0.5575 0.12633 0.0
H1522 H 0.37109 0.51289 0.14946 0.0
H1523 H 0.39362 0.59175 0.19419 0.0
C1524 C 0.36348 0.57447 0.22761 0.0
C1525 C 0.35025 0.54897 0.23957 0.0
C1526 C 0.39253 0.52317 0.14416 0.0
C1527 C 0.39403 0.54405 0.19501 0.0
C1528 C 0.4053 0.51871 0.11618 0.0
C1529 C 0.4333 0.53118 0.10902 0.0
C1530 C 0.40769 0.54041 0.16521 0.0
C1531 C 0.44762 0.54891 0.13045 0.0
C1532 C 0.38576 0.57208 0.20543 0.0
C1533 C 0.36272 0.52156 0.23177 0.0
N1534 N 0.43451 0.55325 0.15779 0.0
N1535 N 0.38308 0.51972 0.20906 0.0
H1536 H 0.76636 0.45796 0.70704 0.0
H1537 H 0.89476 0.55865 0.63517 0.0
H1538 H 0.76056 0.55254 0.70181 0.0
H1539 H 0.89611 0.46356 0.63032 0.0
H1540 H 0.84523 0.55651 0.65931 0.0
H1541 H 0.81108 0.45894 0.67461 0.0
C1542 C 0.77353 0.4788 0.69766 0.0
C1543 C 0.75968 0.50519 0.70687 0.0
C1544 C 0.85642 0.53609 0.6531 0.0
C1545 C 0.8118 0.50675 0.67134 0.0
C1546 C 0.88502 0.53727 0.63975 0.0
C1547 C 0.89975 0.51125 0.63058 0.0
C1548 C 0.8424 0.5087 0.65753 0.0
C1549 C 0.88567 0.48423 0.63693 0.0
C1550 C 0.79953 0.47946 0.67976 0.0
C1551 C 0.77044 0.53171 0.69489 0.0
N1552 N 0.85776 0.48367 0.64985 0.0
N1553 N 0.79627 0.53189 0.67829 0.0
H1554 H 0.58144 0.79345 0.69039 0.0
H1555 H 0.48686 0.90266 0.58444 0.0
H1556 H 0.48432 0.8012 0.69459 0.0
H1557 H 0.58348 0.90626 0.59824 0.0
H1558 H 0.48488 0.85863 0.61643 0.0
H1559 H 0.5818 0.82663 0.64727 0.0
C1560 C 0.5601 0.80134 0.68145 0.0
C1561 C 0.53281 0.79436 0.69567 0.0
C1562 C 0.5065 0.86898 0.6122 0.0
C1563 C 0.53298 0.8333 0.64716 0.0
C1564 C 0.50767 0.89409 0.59395 0.0
C1565 C 0.53535 0.90843 0.58892 0.0
C1566 C 0.53325 0.85797 0.6252 0.0
C1567 C 0.56158 0.89623 0.60174 0.0
C1568 C 0.56029 0.82059 0.65711 0.0
C1569 C 0.50577 0.80579 0.68384 0.0
N1570 N 0.55984 0.87188 0.6193 0.0
N1571 N 0.50652 0.825 0.66043 0.0
H1572 H 0.28141 0.58299 0.6737 0.0
H1573 H 0.16199 0.48045 0.59142 0.0
H1574 H 0.27787 0.48885 0.68446 0.0
H1575 H 0.16118 0.57554 0.58735 0.0
H1576 H 0.21064 0.48216 0.61715 0.0
H1577 H 0.24591 0.57941 0.63201 0.0
C1578 C 0.27449 0.56138 0.66612 0.0
C1579 C 0.28277 0.53615 0.6823 0.0
C1580 C 0.20001 0.50265 0.61035 0.0
C1581 C 0.24082 0.53194 0.63581 0.0
C1582 C 0.17212 0.50172 0.5957 0.0
C1583 C 0.15719 0.52794 0.58749 0.0
C1584 C 0.21327 0.52998 0.61679 0.0
C1585 C 0.1716 0.55478 0.59358 0.0
C1586 C 0.25364 0.55937 0.64277 0.0
C1587 C 0.27235 0.50875 0.67223 0.0
N1588 N 0.19869 0.5551 0.60802 0.0
N1589 N 0.25136 0.50741 0.65008 0.0
H1590 H 0.52793 0.24519 0.70286 0.0
H1591 H 0.47505 0.13107 0.57673 0.0
H1592 H 0.43347 0.23498 0.68183 0.0
H1593 H 0.55553 0.12261 0.63046 0.0
H1594 H 0.46058 0.17524 0.60605 0.0
H1595 H 0.54064 0.20866 0.66454 0.0
C1596 C 0.50997 0.2363 0.68916 0.0
C1597 C 0.47964 0.24327 0.6954 0.0
C1598 C 0.48127 0.16346 0.61142 0.0
C1599 C 0.49386 0.20052 0.6522 0.0
C1600 C 0.48928 0.13805 0.59501 0.0
C1601 C 0.51639 0.12292 0.60132 0.0
C1602 C 0.50075 0.17383 0.63391 0.0
C1603 C 0.53449 0.13357 0.62468 0.0
C1604 C 0.51714 0.21497 0.6677 0.0
C1605 C 0.45716 0.23034 0.67749 0.0
N1606 N 0.52645 0.15827 0.63992 0.0
N1607 N 0.46465 0.20928 0.65694 0.0
H1608 H 0.75634 0.45252 0.33745 0.0
H1609 H 0.86381 0.56193 0.42519 0.0
H1610 H 0.74693 0.54694 0.33498 0.0
H1611 H 0.87069 0.46709 0.43077 0.0
H1612 H 0.81569 0.55681 0.399 0.0
H1613 H 0.79088 0.45707 0.37981 0.0
C1614 C 0.76022 0.47413 0.34699 0.0
C1615 C 0.74858 0.49938 0.33297 0.0
C1616 C 0.82755 0.53711 0.40621 0.0
C1617 C 0.78937 0.50499 0.38029 0.0
C1618 C 0.85517 0.54002 0.42106 0.0
C1619 C 0.87165 0.51491 0.42986 0.0
C1620 C 0.81629 0.50888 0.39986 0.0
C1621 C 0.85902 0.4871 0.42414 0.0
C1622 C 0.78047 0.4768 0.37078 0.0
C1623 C 0.75514 0.52694 0.34549 0.0
N1624 N 0.83232 0.48485 0.40925 0.0
N1625 N 0.77564 0.52908 0.368 0.0
H1626 H 0.49471 0.80081 0.30989 0.0
H1627 H 0.55437 0.9007 0.44502 0.0
H1628 H 0.58879 0.80329 0.33461 0.0
H1629 H 0.474 0.91935 0.39356 0.0
H1630 H 0.56396 0.85718 0.41347 0.0
H1631 H 0.48284 0.83485 0.3509 0.0
C1632 C 0.51263 0.80746 0.32489 0.0
C1633 C 0.54266 0.79889 0.31925 0.0
C1634 C 0.54419 0.87079 0.40926 0.0
C1635 C 0.52955 0.83869 0.36545 0.0
C1636 C 0.53872 0.89564 0.42717 0.0
C1637 C 0.51346 0.91389 0.42179 0.0
C1638 C 0.52392 0.86381 0.38619 0.0
C1639 C 0.4939 0.90615 0.39841 0.0
C1640 C 0.50598 0.82731 0.34792 0.0
C1641 C 0.56528 0.809 0.33865 0.0
N1642 N 0.49949 0.88173 0.38159 0.0
N1643 N 0.55833 0.82861 0.36075 0.0
H1644 H 0.24982 0.58688 0.31474 0.0
H1645 H 0.13447 0.47224 0.38729 0.0
H1646 H 0.2628 0.49295 0.3088 0.0
H1647 H 0.11486 0.56455 0.37266 0.0
H1648 H 0.18392 0.47889 0.3637 0.0
H1649 H 0.20499 0.57901 0.34582 0.0
C1650 C 0.24409 0.56463 0.32137 0.0
C1651 C 0.26002 0.54052 0.30948 0.0
C1652 C 0.16864 0.49759 0.36545 0.0
C1653 C 0.20792 0.5312 0.34338 0.0
C1654 C 0.14019 0.49376 0.37852 0.0
C1655 C 0.12046 0.51796 0.38229 0.0
C1656 C 0.17747 0.52581 0.35617 0.0
C1657 C 0.12929 0.54528 0.3705 0.0
C1658 C 0.21806 0.56008 0.3384 0.0
C1659 C 0.25123 0.51206 0.31793 0.0
N1660 N 0.15726 0.54851 0.35832 0.0
N1661 N 0.22536 0.50811 0.33393 0.0
H1662 H 0.46011 0.2658 0.33114 0.0
H1663 H 0.54068 0.12918 0.41094 0.0
H1664 H 0.55026 0.23592 0.30948 0.0
H1665 H 0.44846 0.15732 0.42653 0.0
H1666 H 0.54922 0.17452 0.38208 0.0
H1667 H 0.4609 0.23455 0.37573 0.0
C1668 C 0.48064 0.25378 0.33659 0.0
C1669 C 0.50511 0.25345 0.31662 0.0
C1670 C 0.52725 0.17093 0.39221 0.0
C1671 C 0.5057 0.21633 0.36668 0.0
C1672 C 0.52239 0.14504 0.40865 0.0
C1673 C 0.49366 0.13917 0.42071 0.0
C1674 C 0.50327 0.19116 0.38801 0.0
C1675 C 0.47083 0.16061 0.41719 0.0
C1676 C 0.48092 0.23543 0.36175 0.0
C1677 C 0.53095 0.23686 0.32443 0.0
N1678 N 0.47604 0.1854 0.40103 0.0
N1679 N 0.53032 0.21842 0.34841 0.0
H1680 H 0.71239 0.81319 0.5485 0.0
H1681 H 0.61741 0.91855 0.44434 0.0
H1682 H 0.69876 0.79764 0.45467 0.0
H1683 H 0.60759 0.92258 0.54007 0.0
H1684 H 0.64384 0.87164 0.44905 0.0
H1685 H 0.67038 0.84907 0.54805 0.0
C1686 C 0.69966 0.81644 0.52809 0.0
C1687 C 0.70878 0.80215 0.50164 0.0
C1688 C 0.6357 0.88241 0.46914 0.0
C1689 C 0.66174 0.8442 0.50059 0.0
C1690 C 0.6207 0.90937 0.46646 0.0
C1691 C 0.61055 0.92466 0.49184 0.0
C1692 C 0.6415 0.87063 0.49757 0.0
C1693 C 0.6151 0.91151 0.51992 0.0
C1694 C 0.67592 0.83717 0.52776 0.0
C1695 C 0.69215 0.80777 0.47563 0.0
N1696 N 0.63079 0.88546 0.52209 0.0
N1697 N 0.66989 0.82869 0.47564 0.0
H1698 H 0.70637 0.24086 0.54868 0.0
H1699 H 0.63235 0.11387 0.45873 0.0
H1700 H 0.69719 0.24183 0.45299 0.0
H1701 H 0.59004 0.13684 0.54258 0.0
H1702 H 0.66283 0.15815 0.46153 0.0
H1703 H 0.66621 0.20351 0.55167 0.0
C1704 C 0.69475 0.23433 0.52847 0.0
C1705 C 0.70479 0.24459 0.50054 0.0
C1706 C 0.64698 0.15358 0.47944 0.0
C1707 C 0.66058 0.20091 0.50366 0.0
C1708 C 0.62991 0.12806 0.4781 0.0
C1709 C 0.60869 0.12167 0.50045 0.0
C1710 C 0.6431 0.17309 0.50342 0.0
C1711 C 0.60647 0.14083 0.52508 0.0
C1712 C 0.67224 0.21274 0.53016 0.0
C1713 C 0.68977 0.23481 0.47493 0.0
N1714 N 0.62351 0.16592 0.52593 0.0
N1715 N 0.669 0.21297 0.47704 0.0
H1716 H 0.80645 0.72197 0.44602 0.0
H1717 H 0.87772 0.60746 0.561 0.0
H1718 H 0.77205 0.70755 0.53487 0.0
H1719 H 0.91131 0.61771 0.47105 0.0
H1720 H 0.83462 0.63887 0.54892 0.0
H1721 H 0.8391 0.67844 0.45121 0.0
C1722 C 0.80485 0.70885 0.46618 0.0
C1723 C 0.78643 0.71836 0.49006 0.0
C1724 C 0.85127 0.6343 0.5317 0.0
C1725 C 0.82462 0.66904 0.4966 0.0
C1726 C 0.87612 0.61647 0.53864 0.0
C1727 C 0.89859 0.61038 0.51717 0.0
C1728 C 0.84882 0.64675 0.50311 0.0
C1729 C 0.89473 0.6221 0.48838 0.0
C1730 C 0.82383 0.68422 0.46929 0.0
C1731 C 0.78565 0.70088 0.51584 0.0
N1732 N 0.87056 0.64007 0.48231 0.0
N1733 N 0.80488 0.67741 0.51863 0.0
H1734 H 0.31 0.80384 0.46752 0.0
H1735 H 0.41963 0.90662 0.56181 0.0
H1736 H 0.32449 0.79389 0.56201 0.0
H1737 H 0.41812 0.90713 0.46542 0.0
H1738 H 0.38738 0.86313 0.56163 0.0
H1739 H 0.353 0.83777 0.46508 0.0
C1740 C 0.32311 0.80786 0.48753 0.0
C1741 C 0.31403 0.79565 0.51494 0.0
C1742 C 0.39423 0.87256 0.54047 0.0
C1743 C 0.36228 0.8357 0.51269 0.0
C1744 C 0.41256 0.89759 0.54055 0.0
C1745 C 0.42147 0.91086 0.5136 0.0
C1746 C 0.3843 0.86064 0.51324 0.0
C1747 C 0.41173 0.89782 0.48678 0.0
C1748 C 0.34738 0.82758 0.48624 0.0
C1749 C 0.33112 0.80236 0.54037 0.0
N1750 N 0.39348 0.87366 0.48729 0.0
N1751 N 0.35406 0.82226 0.53874 0.0
H1752 H 0.20522 0.30765 0.56605 0.0
H1753 H 0.18198 0.46327 0.48687 0.0
H1754 H 0.26172 0.33612 0.49289 0.0
H1755 H 0.10824 0.4099 0.51921 0.0
H1756 H 0.2178 0.42493 0.50277 0.0
H1757 H 0.17689 0.35399 0.56302 0.0
C1758 C 0.21209 0.32396 0.54975 0.0
C1759 C 0.23538 0.31775 0.52915 0.0
C1760 C 0.1938 0.42189 0.50667 0.0
C1761 C 0.20332 0.37087 0.52597 0.0
C1762 C 0.17334 0.4437 0.49772 0.0
C1763 C 0.14205 0.4395 0.50132 0.0
C1764 C 0.18291 0.39604 0.51984 0.0
C1765 C 0.13214 0.41381 0.51564 0.0
C1766 C 0.19587 0.3503 0.54805 0.0
C1767 C 0.2438 0.33993 0.50902 0.0
N1768 N 0.15254 0.39296 0.5243 0.0
N1769 N 0.22746 0.36547 0.50764 0.0
H1770 H 0.32155 0.24316 0.46893 0.0
H1771 H 0.37961 0.09954 0.54041 0.0
H1772 H 0.3203 0.22947 0.56408 0.0
H1773 H 0.44569 0.14109 0.48365 0.0
H1774 H 0.34823 0.14401 0.53787 0.0
H1775 H 0.362 0.20555 0.46441 0.0
C1776 C 0.33093 0.23338 0.48898 0.0
C1777 C 0.31793 0.23962 0.517 0.0
C1778 C 0.36935 0.1432 0.5255 0.0
C1779 C 0.36233 0.19573 0.51176 0.0
C1780 C 0.387 0.11773 0.52656 0.0
C1781 C 0.41496 0.1165 0.51179 0.0
C1782 C 0.37965 0.16777 0.50958 0.0
C1783 C 0.42382 0.14093 0.4946 0.0
C1784 C 0.3536 0.21167 0.48632 0.0
C1785 C 0.33007 0.22562 0.54219 0.0
N1786 N 0.40621 0.16584 0.49403 0.0
N1787 N 0.35093 0.20374 0.53889 0.0
H1788 H 0.76088 0.34075 0.51988 0.0
H1789 H 0.9185 0.40658 0.49561 0.0
H1790 H 0.8158 0.31058 0.44592 0.0
H1791 H 0.84429 0.46585 0.51578 0.0
H1792 H 0.88183 0.36951 0.47958 0.0
H1793 H 0.7901 0.38668 0.52073 0.0
C1794 C 0.77842 0.34412 0.5033 0.0
C1795 C 0.78641 0.32157 0.48329 0.0
C1796 C 0.87369 0.39086 0.48704 0.0
C1797 C 0.82029 0.37324 0.4848 0.0
C1798 C 0.89456 0.41193 0.4963 0.0
C1799 C 0.88439 0.43916 0.50741 0.0
C1800 C 0.84254 0.39688 0.48958 0.0
C1801 C 0.85309 0.44501 0.50765 0.0
C1802 C 0.79519 0.37019 0.50391 0.0
C1803 C 0.80948 0.3271 0.46231 0.0
N1804 N 0.83318 0.42378 0.4995 0.0
N1805 N 0.8262 0.35199 0.46415 0.0
H1806 H 0.21041 0.72217 0.57224 0.0
H1807 H 0.14532 0.60391 0.45838 0.0
H1808 H 0.2504 0.70286 0.48653 0.0
H1809 H 0.10647 0.61874 0.54563 0.0
H1810 H 0.18812 0.63472 0.47177 0.0
H1811 H 0.17774 0.67907 0.567 0.0
C1812 C 0.2131 0.70815 0.55279 0.0
C1813 C 0.23317 0.71615 0.52974 0.0
C1814 C 0.17039 0.63125 0.48813 0.0
C1815 C 0.19507 0.66721 0.52313 0.0
C1816 C 0.14575 0.61374 0.48044 0.0
C1817 C 0.12188 0.60919 0.5007 0.0
C1818 C 0.1712 0.64495 0.51623 0.0
C1819 C 0.1242 0.62191 0.52921 0.0
C1820 C 0.19417 0.68373 0.54965 0.0
C1821 C 0.23546 0.69743 0.5049 0.0
N1822 N 0.14818 0.6396 0.53597 0.0
N1823 N 0.21625 0.67419 0.50202 0.0
loop_
_geom_bond_atom_site_label_1
_geom_bond_atom_site_label_2
_geom_bond_distance
_geom_bond_site_symmetry_2
_ccdc_geom_bond_type
H0 C3 0.931 . S
H1 C6 0.928 . S
H2 C8 0.930 . S
C3 H0 0.931 . S
C3 C4 1.413 . S
C3 C5 1.360 . S
C4 C3 1.413 . S
C4 C8 1.429 . S
C5 C3 1.360 . S
C5 C6 1.372 . S
C6 H1 0.928 . S
C6 C5 1.372 . S
C6 C7 1.404 . S
C7 C6 1.404 . S
C7 C8 1.391 . S
C8 H2 0.930 . S
C8 C4 1.429 . S
C8 C7 1.391 . S
H9 C12 0.931 . S
H10 C15 0.928 . S
H11 C17 0.930 . S
C12 H9 0.931 . S
C12 C13 1.413 . S
C12 C14 1.360 . S
C13 C12 1.413 . S
C13 C17 1.429 . S
C14 C12 1.360 . S
C14 C15 1.372 . S
C15 H10 0.928 . S
C15 C14 1.372 . S
C15 C16 1.404 . S
C16 C15 1.404 . S
C16 C17 1.391 . S
C17 H11 0.930 . S
C17 C13 1.429 . S
C17 C16 1.391 . S
H18 C21 0.931 . S
H19 C24 0.928 . S
H20 C26 0.930 . S
C21 H18 0.931 . S
C21 C22 1.413 . S
C21 C23 1.360 . S
C22 C21 1.413 . S
C22 C26 1.429 . S
C23 C21 1.360 . S
C23 C24 1.372 . S
C24 H19 0.928 . S
C24 C23 1.372 . S
C24 C25 1.404 . S
C25 C24 1.404 . S
C25 C26 1.391 . S
C26 H20 0.930 . S
C26 C22 1.429 . S
C26 C25 1.391 . S
H27 C30 0.931 . S
H28 C33 0.928 . S
H29 C35 0.930 . S
C30 H27 0.931 . S
C30 C31 1.413 . S
C30 C32 1.360 . S
C31 C30 1.413 . S
C31 C35 1.429 . S
C32 C30 1.360 . S
C32 C33 1.372 . S
C33 H28 0.928 . S
C33 C32 1.372 . S
C33 C34 1.404 . S
C34 C33 1.404 . S
C34 C35 1.391 . S
C35 H29 0.930 . S
C35 C31 1.429 . S
C35 C34 1.391 . S
H36 C39 0.931 . S
H37 C42 0.928 . S
H38 C44 0.930 . S
C39 H36 0.931 . S
C39 C40 1.413 . S
C39 C41 1.360 . S
C40 C39 1.413 . S
C40 C44 1.429 1_655 S
C41 C39 1.360 . S
C41 C42 1.372 . S
C42 H37 0.928 . S
C42 C41 1.372 . S
C42 C43 1.404 . S
C43 C42 1.404 . S
C43 C44 1.390 1_655 S
C44 H38 0.930 . S
C44 C40 1.429 1_455 S
C44 C43 1.390 1_455 S
H45 C48 0.931 . S
H46 C51 0.928 . S
H47 C53 0.930 . S
C48 H45 0.931 . S
C48 C49 1.413 . S
C48 C50 1.360 . S
C49 C48 1.413 . S
C49 C53 1.429 . S
C50 C48 1.360 . S
C50 C51 1.372 . S
C51 H46 0.928 . S
C51 C50 1.372 . S
C51 C52 1.404 . S
C52 C51 1.404 . S
C52 C53 1.391 . S
C53 H47 0.930 . S
C53 C49 1.429 . S
C53 C52 1.391 . S
H54 C57 0.931 . S
H55 C60 0.928 . S
H56 C62 0.930 . S
C57 H54 0.931 . S
C57 C58 1.413 . S
C57 C59 1.360 . S
C58 C57 1.413 . S
C58 C62 1.429 . S
C59 C57 1.360 . S
C59 C60 1.372 . S
C60 H55 0.928 . S
C60 C59 1.372 . S
C60 C61 1.404 . S
C61 C60 1.404 . S
C61 C62 1.391 . S
C62 H56 0.930 . S
C62 C58 1.429 . S
C62 C61 1.391 . S
H63 C66 0.931 . S
H64 C69 0.928 . S
H65 C71 0.930 . S
C66 H63 0.931 . S
C66 C67 1.413 . S
C66 C68 1.360 . S
C67 C66 1.413 . S
C67 C71 1.429 . S
C68 C66 1.360 . S
C68 C69 1.372 . S
C69 H64 0.928 . S
C69 C68 1.372 . S
C69 C70 1.404 . S
C70 C69 1.404 . S
C70 C71 1.391 . S
C71 H65 0.930 . S
C71 C67 1.429 . S
C71 C70 1.391 . S
H72 C75 0.931 . S
H73 C78 0.928 . S
H74 C80 0.930 . S
C75 H72 0.931 . S
C75 C76 1.413 . S
C75 C77 1.360 . S
C76 C75 1.413 . S
C76 C80 1.429 . S
C77 C75 1.360 . S
C77 C78 1.372 . S
C78 H73 0.928 . S
C78 C77 1.372 . S
C78 C79 1.404 . S
C79 C78 1.404 . S
C79 C80 1.391 . S
C80 H74 0.930 . S
C80 C76 1.429 . S
C80 C79 1.391 . S
H81 C84 0.931 . S
H82 C87 0.928 . S
H83 C89 0.930 . S
C84 H81 0.931 . S
C84 C85 1.413 . S
C84 C86 1.360 . S
C85 C84 1.413 . S
C85 C89 1.429 . S
C86 C84 1.360 . S
C86 C87 1.372 . S
C87 H82 0.928 . S
C87 C86 1.372 . S
C87 C88 1.404 . S
C88 C87 1.404 . S
C88 C89 1.391 . S
C89 H83 0.930 . S
C89 C85 1.429 . S
C89 C88 1.391 . S
H90 C93 0.931 . S
H91 C96 0.928 1_556 S
H92 C98 0.930 . S
C93 H90 0.931 . S
C93 C94 1.413 . S
C93 C95 1.360 . S
C94 C93 1.413 . S
C94 C98 1.429 . S
C95 C93 1.360 . S
C95 C96 1.372 . S
C96 H91 0.928 1_554 S
C96 C95 1.372 . S
C96 C97 1.404 . S
C97 C96 1.404 . S
C97 C98 1.391 . S
C98 H92 0.930 . S
C98 C94 1.429 . S
C98 C97 1.391 . S
H99 C102 0.931 . S
H100 C105 0.928 . S
H101 C107 0.930 . S
C102 H99 0.931 . S
C102 C103 1.413 . S
C102 C104 1.360 . S
C103 C102 1.413 . S
C103 C107 1.429 . S
C104 C102 1.360 . S
C104 C105 1.372 . S
C105 H100 0.928 . S
C105 C104 1.372 . S
C105 C106 1.404 . S
C106 C105 1.404 . S
C106 C107 1.391 . S
C107 H101 0.930 . S
C107 C103 1.429 . S
C107 C106 1.391 . S
H108 C111 0.931 . S
H109 C114 0.928 . S
H110 C116 0.930 . S
C111 H108 0.931 . S
C111 C112 1.413 . S
C111 C113 1.360 . S
C112 C111 1.413 . S
C112 C116 1.429 . S
C113 C111 1.360 . S
C113 C114 1.372 . S
C114 H109 0.928 . S
C114 C113 1.372 . S
C114 C115 1.404 . S
C115 C114 1.404 . S
C115 C116 1.391 . S
C116 H110 0.930 . S
C116 C112 1.429 . S
C116 C115 1.391 . S
H117 C120 0.931 . S
H118 C123 0.928 . S
H119 C125 0.930 . S
C120 H117 0.931 . S
C120 C121 1.413 . S
C120 C122 1.360 . S
C121 C120 1.413 . S
C121 C125 1.429 . S
C122 C120 1.360 . S
C122 C123 1.372 . S
C123 H118 0.928 . S
C123 C122 1.372 . S
C123 C124 1.404 . S
C124 C123 1.404 . S
C124 C125 1.391 . S
C125 H119 0.930 . S
C125 C121 1.429 . S
C125 C124 1.391 . S
H126 C129 0.931 . S
H127 C132 0.928 . S
H128 C134 0.930 . S
C129 H126 0.931 . S
C129 C130 1.413 . S
C129 C131 1.360 . S
C130 C129 1.413 . S
C130 C134 1.429 . S
C131 C129 1.360 . S
C131 C132 1.372 . S
C132 H127 0.928 . S
C132 C131 1.372 . S
C132 C133 1.404 . S
C133 C132 1.404 . S
C133 C134 1.391 . S
C134 H128 0.930 . S
C134 C130 1.429 . S
C134 C133 1.391 . S
H135 C138 0.931 . S
H136 C141 0.928 . S
H137 C143 0.930 . S
C138 H135 0.931 . S
C138 C139 1.413 . S
C138 C140 1.360 . S
C139 C138 1.413 . S
C139 C143 1.429 . S
C140 C138 1.360 . S
C140 C141 1.372 . S
C141 H136 0.928 . S
C141 C140 1.372 . S
C141 C142 1.404 . S
C142 C141 1.404 . S
C142 C143 1.391 . S
C143 H137 0.930 . S
C143 C139 1.429 . S
C143 C142 1.391 . S
H144 C147 0.931 . S
H145 C150 0.928 . S
H146 C152 0.930 . S
C147 H144 0.931 . S
C147 C148 1.413 . S
C147 C149 1.360 . S
C148 C147 1.413 . S
C148 C152 1.429 . S
C149 C147 1.360 . S
C149 C150 1.372 . S
C150 H145 0.928 . S
C150 C149 1.372 . S
C150 C151 1.404 . S
C151 C150 1.404 . S
C151 C152 1.391 . S
C152 H146 0.930 . S
C152 C148 1.429 . S
C152 C151 1.391 . S
H153 C156 0.931 . S
H154 C159 0.928 . S
H155 C161 0.930 . S
C156 H153 0.931 . S
C156 C157 1.413 . S
C156 C158 1.360 . S
C157 C156 1.413 . S
C157 C161 1.429 . S
C158 C156 1.360 . S
C158 C159 1.372 . S
C159 H154 0.928 . S
C159 C158 1.372 . S
C159 C160 1.404 . S
C160 C159 1.404 . S
C160 C161 1.391 . S
C161 H155 0.930 . S
C161 C157 1.429 . S
C161 C160 1.391 . S
H162 C165 0.931 . S
H163 C168 0.928 . S
H164 C170 0.930 . S
C165 H162 0.931 . S
C165 C166 1.413 . S
C165 C167 1.360 . S
C166 C165 1.413 . S
C166 C170 1.429 . S
C167 C165 1.360 . S
C167 C168 1.372 . S
C168 H163 0.928 . S
C168 C167 1.372 . S
C168 C169 1.404 . S
C169 C168 1.404 . S
C169 C170 1.391 . S
C170 H164 0.930 . S
C170 C166 1.429 . S
C170 C169 1.391 . S
H171 C174 0.931 . S
H172 C177 0.928 . S
H173 C179 0.930 . S
C174 H171 0.931 . S
C174 C175 1.413 . S
C174 C176 1.360 . S
C175 C174 1.413 . S
C175 C179 1.429 . S
C176 C174 1.360 . S
C176 C177 1.372 . S
C177 H172 0.928 . S
C177 C176 1.372 . S
C177 C178 1.404 . S
C178 C177 1.404 . S
C178 C179 1.391 . S
C179 H173 0.930 . S
C179 C175 1.429 . S
C179 C178 1.391 . S
H180 C183 0.931 . S
H181 C186 0.928 . S
H182 C188 0.930 . S
C183 H180 0.931 . S
C183 C184 1.413 . S
C183 C185 1.360 . S
C184 C183 1.413 . S
C184 C188 1.429 . S
C185 C183 1.360 . S
C185 C186 1.372 . S
C186 H181 0.928 . S
C186 C185 1.372 . S
C186 C187 1.404 . S
C187 C186 1.404 . S
C187 C188 1.391 . S
C188 H182 0.930 . S
C188 C184 1.429 . S
C188 C187 1.391 . S
H189 C192 0.931 . S
H190 C195 0.928 . S
H191 C197 0.930 . S
C192 H189 0.931 . S
C192 C193 1.413 . S
C192 C194 1.360 . S
C193 C192 1.413 . S
C193 C197 1.429 . S
C194 C192 1.360 . S
C194 C195 1.372 . S
C195 H190 0.928 . S
C195 C194 1.372 . S
C195 C196 1.404 . S
C196 C195 1.404 . S
C196 C197 1.391 . S
C197 H191 0.930 . S
C197 C193 1.429 . S
C197 C196 1.391 . S
H198 C201 0.931 . S
H199 C204 0.928 . S
H200 C206 0.930 . S
C201 H198 0.931 . S
C201 C202 1.413 . S
C201 C203 1.360 . S
C202 C201 1.413 . S
C202 C206 1.429 . S
C203 C201 1.360 . S
C203 C204 1.372 . S
C204 H199 0.928 . S
C204 C203 1.372 . S
C204 C205 1.404 . S
C205 C204 1.404 . S
C205 C206 1.391 . S
C206 H200 0.930 . S
C206 C202 1.429 . S
C206 C205 1.391 . S
H207 C210 0.931 . S
H208 C213 0.928 . S
H209 C215 0.930 . S
C210 H207 0.931 . S
C210 C211 1.413 . S
C210 C212 1.360 . S
C211 C210 1.413 . S
C211 C215 1.429 . S
C212 C210 1.360 . S
C212 C213 1.372 . S
C213 H208 0.928 . S
C213 C212 1.372 . S
C213 C214 1.404 . S
C214 C213 1.404 . S
C214 C215 1.391 . S
C215 H209 0.930 . S
C215 C211 1.429 . S
C215 C214 1.391 . S
Zn216 O218 1.933 1_565 S
Zn216 O236 1.985 . S
Zn216 O247 1.955 . S
Zn217 O218 1.911 . S
Zn217 O237 1.970 . S
Zn217 O253 1.945 . S
Zn217 O260 1.981 . S
O218 Zn216 1.933 1_545 S
O218 Zn217 1.911 . S
O218 H219 0.841 1_655 S
H219 O218 0.841 1_455 S
C220 O221 1.246 . S
C220 O249 1.276 . S
O221 C220 1.246 . S
Zn222 O224 1.911 . S
Zn222 O239 1.970 . S
Zn222 O256 1.945 . S
Zn222 O263 1.981 . S
Zn223 O224 1.933 1_565 S
Zn223 O238 1.985 . S
Zn223 O245 1.955 . S
O224 Zn222 1.911 . S
O224 Zn223 1.933 1_545 S
O224 H225 0.841 . S
H225 O224 0.841 . S
Zn226 O227 1.933 1_565 S
Zn226 O240 1.985 . S
Zn226 O249 1.955 . S
O227 Zn226 1.933 1_545 S
O227 Zn228 1.911 . S
O227 H229 0.841 . S
Zn228 O227 1.911 . S
Zn228 O241 1.970 . S
Zn228 O257 1.981 1_655 S
Zn228 O259 1.945 . S
H229 O227 0.841 . S
Zn230 O231 1.933 1_565 S
Zn230 O243 1.985 . S
Zn230 O251 1.955 . S
O231 Zn230 1.933 1_545 S
O231 H232 0.841 . S
O231 Zn233 1.911 . S
H232 O231 0.841 . S
Zn233 O231 1.911 . S
Zn233 O244 1.970 . S
Zn233 O254 1.981 . S
Zn233 O262 1.945 . S
C234 O235 1.246 . S
C234 O251 1.276 . S
O235 C234 1.246 . S
O236 Zn216 1.985 . S
O236 C246 1.245 1_565 S
O237 Zn217 1.970 . S
O237 C246 1.263 . S
O238 Zn223 1.985 . S
O238 C250 1.245 1_565 S
O239 Zn222 1.970 . S
O239 C250 1.263 . S
O240 Zn226 1.985 . S
O240 C255 1.245 1_565 S
O241 Zn228 1.970 . S
O241 C255 1.263 . S
C242 O253 1.262 1_455 S
C242 O254 1.245 . S
O243 Zn230 1.985 . S
O243 C261 1.245 1_565 S
O244 Zn233 1.970 . S
O244 C261 1.263 . S
O245 Zn223 1.955 . S
O245 C264 1.276 . S
C246 O236 1.245 1_545 S
C246 O237 1.263 . S
O247 Zn216 1.955 . S
O247 C266 1.276 1_655 S
C248 O256 1.262 . S
C248 O257 1.245 . S
O249 C220 1.276 . S
O249 Zn226 1.955 . S
C250 O238 1.245 1_545 S
C250 O239 1.263 . S
O251 Zn230 1.955 . S
O251 C234 1.276 . S
C252 O259 1.262 . S
C252 O260 1.245 . S
O253 Zn217 1.945 . S
O253 C242 1.262 1_655 S
O254 Zn233 1.981 . S
O254 C242 1.245 . S
C255 O240 1.245 1_545 S
C255 O241 1.263 . S
O256 Zn222 1.945 . S
O256 C248 1.262 . S
O257 Zn228 1.981 1_455 S
O257 C248 1.245 . S
C258 O262 1.262 . S
C258 O263 1.245 . S
O259 Zn228 1.945 . S
O259 C252 1.262 . S
O260 Zn217 1.981 . S
O260 C252 1.245 . S
C261 O243 1.245 1_545 S
C261 O244 1.263 . S
O262 Zn233 1.945 . S
O262 C258 1.262 . S
O263 Zn222 1.981 . S
O263 C258 1.245 . S
C264 O245 1.276 . S
C264 O265 1.246 . S
O265 C264 1.246 . S
C266 O247 1.276 1_455 S
C266 O267 1.246 . S
O267 C266 1.246 . S
Zn268 O270 1.933 . S
Zn268 O288 1.985 . S
Zn268 O299 1.955 . S
Zn269 O270 1.911 1_556 S
Zn269 O289 1.970 . S
Zn269 O305 1.945 . S
Zn269 O312 1.981 . S
O270 Zn268 1.933 . S
O270 Zn269 1.911 1_554 S
O270 H271 0.841 . S
H271 O270 0.841 . S
C272 O273 1.246 . S
C272 O301 1.276 . S
O273 C272 1.246 . S
Zn274 O276 1.911 1_556 S
Zn274 O291 1.970 . S
Zn274 O308 1.945 . S
Zn274 O315 1.981 . S
Zn275 O276 1.933 . S
Zn275 O290 1.985 . S
Zn275 O297 1.955 . S
O276 Zn274 1.911 1_554 S
O276 Zn275 1.933 . S
O276 H277 0.841 1_565 S
H277 O276 0.841 1_545 S
Zn278 O279 1.933 . S
Zn278 O292 1.985 . S
Zn278 O301 1.955 . S
O279 Zn278 1.933 . S
O279 Zn280 1.911 1_554 S
O279 H281 0.841 . S
Zn280 O279 1.911 1_556 S
Zn280 O293 1.970 . S
Zn280 O309 1.981 . S
Zn280 O311 1.945 . S
H281 O279 0.841 . S
Zn282 O283 1.933 . S
Zn282 O295 1.985 . S
Zn282 O303 1.955 . S
O283 Zn282 1.933 . S
O283 H284 0.841 . S
O283 Zn285 1.911 1_554 S
H284 O283 0.841 . S
Zn285 O283 1.911 1_556 S
Zn285 O296 1.970 . S
Zn285 O306 1.981 1_565 S
Zn285 O314 1.945 . S
C286 O287 1.246 . S
C286 O303 1.276 . S
O287 C286 1.246 . S
O288 Zn268 1.985 . S
O288 C298 1.245 . S
O289 Zn269 1.970 . S
O289 C298 1.263 1_556 S
O290 Zn275 1.985 . S
O290 C302 1.245 . S
O291 Zn274 1.970 . S
O291 C302 1.263 1_556 S
O292 Zn278 1.985 . S
O292 C307 1.245 . S
O293 Zn280 1.970 . S
O293 C307 1.263 1_556 S
C294 O305 1.262 . S
C294 O306 1.245 . S
O295 Zn282 1.985 . S
O295 C313 1.245 . S
O296 Zn285 1.970 . S
O296 C313 1.263 1_556 S
O297 Zn275 1.955 . S
O297 C316 1.276 1_565 S
C298 O288 1.245 . S
C298 O289 1.263 1_554 S
O299 Zn268 1.955 . S
O299 C318 1.276 . S
C300 O308 1.262 1_545 S
C300 O309 1.245 . S
O301 C272 1.276 . S
O301 Zn278 1.955 . S
C302 O290 1.245 . S
C302 O291 1.263 1_554 S
O303 Zn282 1.955 . S
O303 C286 1.276 . S
C304 O311 1.262 . S
C304 O312 1.245 . S
O305 Zn269 1.945 . S
O305 C294 1.262 . S
O306 Zn285 1.981 1_545 S
O306 C294 1.245 . S
C307 O292 1.245 . S
C307 O293 1.263 1_554 S
O308 Zn274 1.945 . S
O308 C300 1.262 1_565 S
O309 Zn280 1.981 . S
O309 C300 1.245 . S
C310 O314 1.262 . S
C310 O315 1.245 . S
O311 Zn280 1.945 . S
O311 C304 1.262 . S
O312 Zn269 1.981 . S
O312 C304 1.245 . S
C313 O295 1.245 . S
C313 O296 1.263 1_554 S
O314 Zn285 1.945 . S
O314 C310 1.262 . S
O315 Zn274 1.981 . S
O315 C310 1.245 . S
C316 O297 1.276 1_545 S
C316 O317 1.246 . S
O317 C316 1.246 . S
C318 O299 1.276 . S
C318 O319 1.246 . S
O319 C318 1.246 . S
Zn320 O322 1.933 . S
Zn320 O340 1.985 . S
Zn320 O351 1.955 . S
Zn321 O322 1.911 . S
Zn321 O341 1.970 . S
Zn321 O357 1.945 . S
Zn321 O364 1.981 . S
O322 Zn320 1.933 . S
O322 Zn321 1.911 . S
O322 H323 0.841 1_655 S
H323 O322 0.841 1_455 S
C324 O325 1.246 1_554 S
C324 O353 1.276 . S
O325 C324 1.246 1_556 S
Zn326 O328 1.911 . S
Zn326 O343 1.970 . S
Zn326 O360 1.945 . S
Zn326 O367 1.981 . S
Zn327 O328 1.933 . S
Zn327 O342 1.985 . S
Zn327 O349 1.955 . S
O328 Zn326 1.911 . S
O328 Zn327 1.933 . S
O328 H329 0.841 . S
H329 O328 0.841 . S
Zn330 O331 1.933 . S
Zn330 O344 1.985 . S
Zn330 O353 1.955 . S
O331 Zn330 1.933 . S
O331 Zn332 1.911 . S
O331 H333 0.841 . S
Zn332 O331 1.911 . S
Zn332 O345 1.970 . S
Zn332 O361 1.981 1_655 S
Zn332 O363 1.945 . S
H333 O331 0.841 . S
Zn334 O335 1.933 . S
Zn334 O347 1.985 . S
Zn334 O355 1.955 . S
O335 Zn334 1.933 . S
O335 H336 0.841 1_556 S
O335 Zn337 1.911 . S
H336 O335 0.841 1_554 S
Zn337 O335 1.911 . S
Zn337 O348 1.970 . S
Zn337 O358 1.981 . S
Zn337 O366 1.945 . S
C338 O339 1.246 . S
C338 O355 1.276 1_554 S
O339 C338 1.246 . S
O340 Zn320 1.985 . S
O340 C350 1.245 . S
O341 Zn321 1.970 . S
O341 C350 1.263 . S
O342 Zn327 1.985 . S
O342 C354 1.245 . S
O343 Zn326 1.970 . S
O343 C354 1.263 . S
O344 Zn330 1.985 . S
O344 C359 1.245 . S
O345 Zn332 1.970 . S
O345 C359 1.263 . S
C346 O357 1.262 1_455 S
C346 O358 1.245 . S
O347 Zn334 1.985 . S
O347 C365 1.245 . S
O348 Zn337 1.970 . S
O348 C365 1.263 . S
O349 Zn327 1.955 . S
O349 C368 1.276 . S
C350 O340 1.245 . S
C350 O341 1.263 . S
O351 Zn320 1.955 . S
O351 C370 1.276 1_655 S
C352 O360 1.262 . S
C352 O361 1.245 . S
O353 C324 1.276 . S
O353 Zn330 1.955 . S
C354 O342 1.245 . S
C354 O343 1.263 . S
O355 Zn334 1.955 . S
O355 C338 1.276 1_556 S
C356 O363 1.262 . S
C356 O364 1.245 1_554 S
O357 Zn321 1.945 . S
O357 C346 1.262 1_655 S
O358 Zn337 1.981 . S
O358 C346 1.245 . S
C359 O344 1.245 . S
C359 O345 1.263 . S
O360 Zn326 1.945 . S
O360 C352 1.262 . S
O361 Zn332 1.981 1_455 S
O361 C352 1.245 . S
C362 O366 1.262 1_554 S
C362 O367 1.245 . S
O363 Zn332 1.945 . S
O363 C356 1.262 . S
O364 Zn321 1.981 . S
O364 C356 1.245 1_556 S
C365 O347 1.245 . S
C365 O348 1.263 . S
O366 Zn337 1.945 . S
O366 C362 1.262 1_556 S
O367 Zn326 1.981 . S
O367 C362 1.245 . S
C368 O349 1.276 . S
C368 O369 1.246 . S
O369 C368 1.246 . S
C370 O351 1.276 1_455 S
C370 O371 1.246 . S
O371 C370 1.246 . S
Zn372 O374 1.933 1_556 S
Zn372 O392 1.985 . S
Zn372 O403 1.955 . S
Zn373 O374 1.911 . S
Zn373 O393 1.970 . S
Zn373 O409 1.945 . S
Zn373 O416 1.981 . S
O374 Zn372 1.933 1_554 S
O374 Zn373 1.911 . S
O374 H375 0.841 . S
H375 O374 0.841 . S
C376 O377 1.246 . S
C376 O405 1.276 . S
O377 C376 1.246 . S
Zn378 O380 1.911 . S
Zn378 O395 1.970 . S
Zn378 O412 1.945 . S
Zn378 O419 1.981 . S
Zn379 O380 1.933 1_556 S
Zn379 O394 1.985 . S
Zn379 O401 1.955 . S
O380 Zn378 1.911 . S
O380 Zn379 1.933 1_554 S
O380 H381 0.841 . S
H381 O380 0.841 . S
Zn382 O383 1.933 1_556 S
Zn382 O396 1.985 . S
Zn382 O405 1.955 . S
O383 Zn382 1.933 1_554 S
O383 Zn384 1.911 . S
O383 H385 0.841 . S
Zn384 O383 1.911 . S
Zn384 O397 1.970 . S
Zn384 O413 1.981 . S
Zn384 O415 1.945 . S
H385 O383 0.841 . S
Zn386 O387 1.933 1_556 S
Zn386 O399 1.985 . S
Zn386 O407 1.955 . S
O387 Zn386 1.933 1_554 S
O387 H388 0.841 . S
O387 Zn389 1.911 . S
H388 O387 0.841 . S
Zn389 O387 1.911 . S
Zn389 O400 1.970 . S
Zn389 O410 1.981 . S
Zn389 O418 1.945 . S
C390 O391 1.246 . S
C390 O407 1.276 . S
O391 C390 1.246 . S
O392 Zn372 1.985 . S
O392 C402 1.245 1_556 S
O393 Zn373 1.970 . S
O393 C402 1.263 . S
O394 Zn379 1.985 . S
O394 C406 1.245 1_556 S
O395 Zn378 1.970 . S
O395 C406 1.263 . S
O396 Zn382 1.985 . S
O396 C411 1.245 1_556 S
O397 Zn384 1.970 . S
O397 C411 1.263 . S
C398 O409 1.262 . S
C398 O410 1.245 . S
O399 Zn386 1.985 . S
O399 C417 1.245 1_556 S
O400 Zn389 1.970 . S
O400 C417 1.263 . S
O401 Zn379 1.955 . S
O401 C420 1.276 . S
C402 O392 1.245 1_554 S
C402 O393 1.263 . S
O403 Zn372 1.955 . S
O403 C422 1.276 . S
C404 O412 1.262 . S
C404 O413 1.245 . S
O405 C376 1.276 . S
O405 Zn382 1.955 . S
C406 O394 1.245 1_554 S
C406 O395 1.263 . S
O407 Zn386 1.955 . S
O407 C390 1.276 . S
C408 O415 1.262 . S
C408 O416 1.245 . S
O409 Zn373 1.945 . S
O409 C398 1.262 . S
O410 Zn389 1.981 . S
O410 C398 1.245 . S
C411 O396 1.245 1_554 S
C411 O397 1.263 . S
O412 Zn378 1.945 . S
O412 C404 1.262 . S
O413 Zn384 1.981 . S
O413 C404 1.245 . S
C414 O418 1.262 . S
C414 O419 1.245 . S
O415 Zn384 1.945 . S
O415 C408 1.262 . S
O416 Zn373 1.981 . S
O416 C408 1.245 . S
C417 O399 1.245 1_554 S
C417 O400 1.263 . S
O418 Zn389 1.945 . S
O418 C414 1.262 . S
O419 Zn378 1.981 . S
O419 C414 1.245 . S
C420 O401 1.276 . S
C420 O421 1.246 . S
O421 C420 1.246 . S
C422 O403 1.276 . S
C422 O423 1.246 . S
O423 C422 1.246 . S
Zn424 O426 1.933 . S
Zn424 O444 1.985 . S
Zn424 O455 1.955 . S
Zn425 O426 1.911 . S
Zn425 O445 1.970 . S
Zn425 O461 1.945 . S
Zn425 O468 1.981 . S
O426 Zn424 1.933 . S
O426 Zn425 1.911 . S
O426 H427 0.841 1_655 S
H427 O426 0.841 1_455 S
C428 O429 1.246 . S
C428 O457 1.276 . S
O429 C428 1.246 . S
Zn430 O432 1.911 . S
Zn430 O447 1.970 . S
Zn430 O464 1.945 . S
Zn430 O471 1.981 . S
Zn431 O432 1.933 . S
Zn431 O446 1.985 . S
Zn431 O453 1.955 . S
O432 Zn430 1.911 . S
O432 Zn431 1.933 . S
O432 H433 0.841 . S
H433 O432 0.841 . S
Zn434 O435 1.933 . S
Zn434 O448 1.985 . S
Zn434 O457 1.955 . S
O435 Zn434 1.933 . S
O435 Zn436 1.911 . S
O435 H437 0.841 . S
Zn436 O435 1.911 . S
Zn436 O449 1.970 . S
Zn436 O465 1.981 1_655 S
Zn436 O467 1.945 . S
H437 O435 0.841 . S
Zn438 O439 1.933 . S
Zn438 O451 1.985 . S
Zn438 O459 1.955 . S
O439 Zn438 1.933 . S
O439 H440 0.841 . S
O439 Zn441 1.911 . S
H440 O439 0.841 . S
Zn441 O439 1.911 . S
Zn441 O452 1.970 . S
Zn441 O462 1.981 . S
Zn441 O470 1.945 . S
C442 O443 1.246 . S
C442 O459 1.276 . S
O443 C442 1.246 . S
O444 Zn424 1.985 . S
O444 C454 1.245 . S
O445 Zn425 1.970 . S
O445 C454 1.263 . S
O446 Zn431 1.985 . S
O446 C458 1.245 . S
O447 Zn430 1.970 . S
O447 C458 1.263 . S
O448 Zn434 1.985 . S
O448 C463 1.245 . S
O449 Zn436 1.970 . S
O449 C463 1.263 . S
C450 O461 1.262 1_455 S
C450 O462 1.245 . S
O451 Zn438 1.985 . S
O451 C469 1.245 . S
O452 Zn441 1.970 . S
O452 C469 1.263 . S
O453 Zn431 1.955 . S
O453 C472 1.276 . S
C454 O444 1.245 . S
C454 O445 1.263 . S
O455 Zn424 1.955 . S
O455 C474 1.276 1_655 S
C456 O464 1.262 . S
C456 O465 1.245 . S
O457 C428 1.276 . S
O457 Zn434 1.955 . S
C458 O446 1.245 . S
C458 O447 1.263 . S
O459 Zn438 1.955 . S
O459 C442 1.276 . S
C460 O467 1.262 . S
C460 O468 1.245 . S
O461 Zn425 1.945 . S
O461 C450 1.262 1_655 S
O462 Zn441 1.981 . S
O462 C450 1.245 . S
C463 O448 1.245 . S
C463 O449 1.263 . S
O464 Zn430 1.945 . S
O464 C456 1.262 . S
O465 Zn436 1.981 1_455 S
O465 C456 1.245 . S
C466 O470 1.262 . S
C466 O471 1.245 . S
O467 Zn436 1.945 . S
O467 C460 1.262 . S
O468 Zn425 1.981 . S
O468 C460 1.245 . S
C469 O451 1.245 . S
C469 O452 1.263 . S
O470 Zn441 1.945 . S
O470 C466 1.262 . S
O471 Zn430 1.981 . S
O471 C466 1.245 . S
C472 O453 1.276 . S
C472 O473 1.246 . S
O473 C472 1.246 . S
C474 O455 1.276 1_455 S
C474 O475 1.246 . S
O475 C474 1.246 . S
Zn476 O478 1.933 1_565 S
Zn476 O496 1.985 . S
Zn476 O507 1.955 . S
Zn477 O478 1.911 . S
Zn477 O497 1.970 . S
Zn477 O513 1.945 . S
Zn477 O520 1.981 . S
O478 Zn476 1.933 1_545 S
O478 Zn477 1.911 . S
O478 H479 0.841 . S
H479 O478 0.841 . S
C480 O481 1.246 . S
C480 O509 1.276 . S
O481 C480 1.246 . S
Zn482 O484 1.911 . S
Zn482 O499 1.970 . S
Zn482 O516 1.945 . S
Zn482 O523 1.981 . S
Zn483 O484 1.933 1_565 S
Zn483 O498 1.982 1_565 S
Zn483 O505 1.955 . S
O484 Zn482 1.911 . S
O484 Zn483 1.933 1_545 S
O484 H485 0.841 . S
H485 O484 0.841 . S
Zn486 O487 1.933 1_565 S
Zn486 O500 1.985 . S
Zn486 O509 1.955 . S
O487 Zn486 1.933 1_545 S
O487 Zn488 1.911 . S
O487 H489 0.841 . S
Zn488 O487 1.911 . S
Zn488 O501 1.970 . S
Zn488 O517 1.981 . S
Zn488 O519 1.945 . S
H489 O487 0.841 . S
Zn490 O491 1.933 1_565 S
Zn490 O503 1.982 1_565 S
Zn490 O511 1.955 . S
O491 Zn490 1.933 1_545 S
O491 H492 0.841 . S
O491 Zn493 1.911 . S
H492 O491 0.841 . S
Zn493 O491 1.911 . S
Zn493 O504 1.970 . S
Zn493 O514 1.981 . S
Zn493 O522 1.945 . S
C494 O495 1.246 . S
C494 O511 1.276 . S
O495 C494 1.246 . S
O496 Zn476 1.985 . S
O496 C506 1.245 1_565 S
O497 Zn477 1.970 . S
O497 C506 1.263 . S
O498 Zn483 1.982 1_545 S
O498 C510 1.257 . S
O499 Zn482 1.970 . S
O499 C510 1.263 . S
O500 Zn486 1.985 . S
O500 C515 1.245 1_565 S
O501 Zn488 1.970 . S
O501 C515 1.263 . S
C502 O513 1.262 . S
C502 O514 1.245 . S
O503 Zn490 1.982 1_545 S
O503 C521 1.259 . S
O504 Zn493 1.970 . S
O504 C521 1.263 . S
O505 Zn483 1.955 . S
O505 C524 1.276 . S
C506 O496 1.245 1_545 S
C506 O497 1.263 . S
O507 Zn476 1.955 . S
O507 C526 1.276 . S
C508 O516 1.262 . S
C508 O517 1.245 . S
O509 C480 1.276 . S
O509 Zn486 1.955 . S
C510 O498 1.257 . S
C510 O499 1.263 . S
O511 Zn490 1.955 . S
O511 C494 1.276 . S
C512 O519 1.262 . S
C512 O520 1.245 . S
O513 Zn477 1.945 . S
O513 C502 1.262 . S
O514 Zn493 1.981 . S
O514 C502 1.245 . S
C515 O500 1.245 1_545 S
C515 O501 1.263 . S
O516 Zn482 1.945 . S
O516 C508 1.262 . S
O517 Zn488 1.981 . S
O517 C508 1.245 . S
C518 O522 1.262 . S
C518 O523 1.245 . S
O519 Zn488 1.945 . S
O519 C512 1.262 . S
O520 Zn477 1.981 . S
O520 C512 1.245 . S
C521 O503 1.259 . S
C521 O504 1.263 . S
O522 Zn493 1.945 . S
O522 C518 1.262 . S
O523 Zn482 1.981 . S
O523 C518 1.245 . S
C524 O505 1.276 . S
C524 O525 1.246 . S
O525 C524 1.246 . S
C526 O507 1.276 . S
C526 O527 1.246 . S
O527 C526 1.246 . S
H528 C534 0.930 . S
H529 C538 0.930 . S
H530 C543 0.929 . S
H531 C541 0.929 . S
H532 C536 0.929 . S
H533 C542 0.929 . S
C534 H528 0.930 . S
C534 C535 1.367 . S
C534 C542 1.378 . S
C535 C534 1.367 . S
C535 C543 1.433 . S
C536 H532 0.929 . S
C536 C538 1.378 . S
C536 C540 1.350 . S
C537 C540 1.463 . S
C537 C542 1.350 . S
C537 N545 1.427 . S
C538 H529 0.930 . S
C538 C536 1.378 . S
C538 C539 1.367 . S
C539 C538 1.367 . S
C539 C541 1.433 . S
C540 C536 1.350 . S
C540 C537 1.463 . S
C540 N544 1.427 . S
C541 H531 0.929 . S
C541 C539 1.433 . S
C541 N544 1.384 . S
C542 H533 0.929 . S
C542 C534 1.378 . S
C542 C537 1.350 . S
C543 H530 0.929 . S
C543 C535 1.433 . S
C543 N545 1.384 . S
N544 C540 1.427 . S
N544 C541 1.384 . S
N545 C537 1.427 . S
N545 C543 1.384 . S
H546 C552 0.930 . S
H547 C556 0.930 . S
H548 C561 0.929 . S
H549 C559 0.929 . S
H550 C554 0.929 . S
H551 C560 0.929 . S
C552 H546 0.930 . S
C552 C553 1.367 . S
C552 C560 1.378 . S
C553 C552 1.367 . S
C553 C561 1.433 . S
C554 H550 0.929 . S
C554 C556 1.378 . S
C554 C558 1.350 . S
C555 C558 1.463 . S
C555 C560 1.350 . S
C555 N563 1.427 . S
C556 H547 0.930 . S
C556 C554 1.378 . S
C556 C557 1.367 . S
C557 C556 1.367 . S
C557 C559 1.433 . S
C558 C554 1.350 . S
C558 C555 1.463 . S
C558 N562 1.427 . S
C559 H549 0.929 . S
C559 C557 1.433 . S
C559 N562 1.384 . S
C560 H551 0.929 . S
C560 C552 1.378 . S
C560 C555 1.350 . S
C561 H548 0.929 . S
C561 C553 1.433 . S
C561 N563 1.384 . S
N562 C558 1.427 . S
N562 C559 1.384 . S
N563 C555 1.427 . S
N563 C561 1.384 . S
H564 C570 0.930 . S
H565 C574 0.930 . S
H566 C579 0.929 . S
H567 C577 0.929 . S
H568 C572 0.929 . S
H569 C578 0.929 . S
C570 H564 0.930 . S
C570 C571 1.367 . S
C570 C578 1.378 . S
C571 C570 1.367 . S
C571 C579 1.433 . S
C572 H568 0.929 . S
C572 C574 1.378 . S
C572 C576 1.350 . S
C573 C576 1.463 . S
C573 C578 1.350 . S
C573 N581 1.427 . S
C574 H565 0.930 . S
C574 C572 1.378 . S
C574 C575 1.367 . S
C575 C574 1.367 . S
C575 C577 1.433 . S
C576 C572 1.350 . S
C576 C573 1.463 . S
C576 N580 1.427 . S
C577 H567 0.929 . S
C577 C575 1.433 . S
C577 N580 1.384 . S
C578 H569 0.929 . S
C578 C570 1.378 . S
C578 C573 1.350 . S
C579 H566 0.929 . S
C579 C571 1.433 . S
C579 N581 1.384 . S
N580 C576 1.427 . S
N580 C577 1.384 . S
N581 C573 1.427 . S
N581 C579 1.384 . S
H582 C588 0.930 . S
H583 C592 0.930 . S
H584 C597 0.929 . S
H585 C595 0.929 . S
H586 C590 0.929 . S
H587 C596 0.929 . S
C588 H582 0.930 . S
C588 C589 1.367 . S
C588 C596 1.378 . S
C589 C588 1.367 . S
C589 C597 1.433 . S
C590 H586 0.929 . S
C590 C592 1.378 . S
C590 C594 1.350 . S
C591 C594 1.463 . S
C591 C596 1.350 . S
C591 N599 1.427 . S
C592 H583 0.930 . S
C592 C590 1.378 . S
C592 C593 1.367 . S
C593 C592 1.367 . S
C593 C595 1.433 . S
C594 C590 1.350 . S
C594 C591 1.463 . S
C594 N598 1.427 . S
C595 H585 0.929 . S
C595 C593 1.433 . S
C595 N598 1.384 . S
C596 H587 0.929 . S
C596 C588 1.378 . S
C596 C591 1.350 . S
C597 H584 0.929 . S
C597 C589 1.433 . S
C597 N599 1.384 . S
N598 C594 1.427 . S
N598 C595 1.384 . S
N599 C591 1.427 . S
N599 C597 1.384 . S
H600 C606 0.930 . S
H601 C610 0.930 . S
H602 C615 0.929 . S
H603 C613 0.929 . S
H604 C608 0.929 . S
H605 C614 0.929 . S
C606 H600 0.930 . S
C606 C607 1.367 . S
C606 C614 1.378 . S
C607 C606 1.367 . S
C607 C615 1.433 . S
C608 H604 0.929 . S
C608 C610 1.378 . S
C608 C612 1.350 . S
C609 C612 1.463 . S
C609 C614 1.350 . S
C609 N617 1.427 . S
C610 H601 0.930 . S
C610 C608 1.378 . S
C610 C611 1.367 . S
C611 C610 1.367 . S
C611 C613 1.433 . S
C612 C608 1.350 . S
C612 C609 1.463 . S
C612 N616 1.427 . S
C613 H603 0.929 . S
C613 C611 1.433 . S
C613 N616 1.384 . S
C614 H605 0.929 . S
C614 C606 1.378 . S
C614 C609 1.350 . S
C615 H602 0.929 . S
C615 C607 1.433 . S
C615 N617 1.384 . S
N616 C612 1.427 . S
N616 C613 1.384 . S
N617 C609 1.427 . S
N617 C615 1.384 . S
H618 C624 0.930 . S
H619 C628 0.930 . S
H620 C633 0.929 . S
H621 C631 0.929 . S
H622 C626 0.929 . S
H623 C632 0.929 . S
C624 H618 0.930 . S
C624 C625 1.367 . S
C624 C632 1.378 . S
C625 C624 1.367 . S
C625 C633 1.433 . S
C626 H622 0.929 . S
C626 C628 1.378 . S
C626 C630 1.350 . S
C627 C630 1.463 . S
C627 C632 1.350 . S
C627 N635 1.427 . S
C628 H619 0.930 . S
C628 C626 1.378 . S
C628 C629 1.367 . S
C629 C628 1.367 . S
C629 C631 1.433 . S
C630 C626 1.350 . S
C630 C627 1.463 . S
C630 N634 1.427 . S
C631 H621 0.929 . S
C631 C629 1.433 . S
C631 N634 1.384 . S
C632 H623 0.929 . S
C632 C624 1.378 . S
C632 C627 1.350 . S
C633 H620 0.929 . S
C633 C625 1.433 . S
C633 N635 1.384 . S
N634 C630 1.427 . S
N634 C631 1.384 . S
N635 C627 1.427 . S
N635 C633 1.384 . S
H636 C642 0.930 . S
H637 C646 0.930 . S
H638 C651 0.929 . S
H639 C649 0.929 . S
H640 C644 0.929 . S
H641 C650 0.929 . S
C642 H636 0.930 . S
C642 C643 1.367 . S
C642 C650 1.378 . S
C643 C642 1.367 . S
C643 C651 1.433 . S
C644 H640 0.929 . S
C644 C646 1.378 . S
C644 C648 1.350 . S
C645 C648 1.463 . S
C645 C650 1.350 . S
C645 N653 1.427 . S
C646 H637 0.930 . S
C646 C644 1.378 . S
C646 C647 1.367 . S
C647 C646 1.367 . S
C647 C649 1.433 . S
C648 C644 1.350 . S
C648 C645 1.463 . S
C648 N652 1.427 . S
C649 H639 0.929 . S
C649 C647 1.433 . S
C649 N652 1.384 . S
C650 H641 0.929 . S
C650 C642 1.378 . S
C650 C645 1.350 . S
C651 H638 0.929 . S
C651 C643 1.433 . S
C651 N653 1.384 . S
N652 C648 1.427 . S
N652 C649 1.384 . S
N653 C645 1.427 . S
N653 C651 1.384 . S
H654 C660 0.930 . S
H655 C664 0.930 . S
H656 C669 0.929 . S
H657 C667 0.929 . S
H658 C662 0.929 . S
H659 C668 0.929 . S
C660 H654 0.930 . S
C660 C661 1.367 . S
C660 C668 1.378 . S
C661 C660 1.367 . S
C661 C669 1.433 . S
C662 H658 0.929 . S
C662 C664 1.378 . S
C662 C666 1.350 . S
C663 C666 1.463 . S
C663 C668 1.350 . S
C663 N671 1.427 . S
C664 H655 0.930 . S
C664 C662 1.378 . S
C664 C665 1.367 . S
C665 C664 1.367 . S
C665 C667 1.433 . S
C666 C662 1.350 . S
C666 C663 1.463 . S
C666 N670 1.427 . S
C667 H657 0.929 . S
C667 C665 1.433 . S
C667 N670 1.384 . S
C668 H659 0.929 . S
C668 C660 1.378 . S
C668 C663 1.350 . S
C669 H656 0.929 . S
C669 C661 1.433 . S
C669 N671 1.384 . S
N670 C666 1.427 . S
N670 C667 1.384 . S
N671 C663 1.427 . S
N671 C669 1.384 . S
H672 C678 0.930 . S
H673 C682 0.930 . S
H674 C687 0.929 . S
H675 C685 0.929 . S
H676 C680 0.929 . S
H677 C686 0.929 . S
C678 H672 0.930 . S
C678 C679 1.367 . S
C678 C686 1.378 . S
C679 C678 1.367 . S
C679 C687 1.433 . S
C680 H676 0.929 . S
C680 C682 1.378 . S
C680 C684 1.350 . S
C681 C684 1.463 . S
C681 C686 1.350 . S
C681 N689 1.427 . S
C682 H673 0.930 . S
C682 C680 1.378 . S
C682 C683 1.367 . S
C683 C682 1.367 . S
C683 C685 1.433 . S
C684 C680 1.350 . S
C684 C681 1.463 . S
C684 N688 1.427 . S
C685 H675 0.929 . S
C685 C683 1.433 . S
C685 N688 1.384 . S
C686 H677 0.929 . S
C686 C678 1.378 . S
C686 C681 1.350 . S
C687 H674 0.929 . S
C687 C679 1.433 . S
C687 N689 1.384 . S
N688 C684 1.427 . S
N688 C685 1.384 . S
N689 C681 1.427 . S
N689 C687 1.384 . S
H690 C696 0.930 . S
H691 C700 0.930 . S
H692 C705 0.929 . S
H693 C703 0.929 . S
H694 C698 0.929 . S
H695 C704 0.929 . S
C696 H690 0.930 . S
C696 C697 1.367 . S
C696 C704 1.378 . S
C697 C696 1.367 . S
C697 C705 1.433 . S
C698 H694 0.929 . S
C698 C700 1.378 . S
C698 C702 1.350 . S
C699 C702 1.463 . S
C699 C704 1.350 . S
C699 N707 1.427 . S
C700 H691 0.930 . S
C700 C698 1.378 . S
C700 C701 1.367 . S
C701 C700 1.367 . S
C701 C703 1.433 . S
C702 C698 1.350 . S
C702 C699 1.463 . S
C702 N706 1.427 . S
C703 H693 0.929 . S
C703 C701 1.433 . S
C703 N706 1.384 . S
C704 H695 0.929 . S
C704 C696 1.378 . S
C704 C699 1.350 . S
C705 H692 0.929 . S
C705 C697 1.433 . S
C705 N707 1.384 . S
N706 C702 1.427 . S
N706 C703 1.384 . S
N707 C699 1.427 . S
N707 C705 1.384 . S
H708 C714 0.930 . S
H709 C718 0.930 . S
H710 C723 0.929 . S
H711 C721 0.929 . S
H712 C716 0.929 . S
H713 C722 0.929 . S
C714 H708 0.930 . S
C714 C715 1.367 . S
C714 C722 1.378 . S
C715 C714 1.367 . S
C715 C723 1.433 . S
C716 H712 0.929 . S
C716 C718 1.378 . S
C716 C720 1.350 . S
C717 C720 1.463 . S
C717 C722 1.350 . S
C717 N725 1.427 . S
C718 H709 0.930 . S
C718 C716 1.378 . S
C718 C719 1.367 . S
C719 C718 1.367 . S
C719 C721 1.433 . S
C720 C716 1.350 . S
C720 C717 1.463 . S
C720 N724 1.427 . S
C721 H711 0.929 . S
C721 C719 1.433 . S
C721 N724 1.384 . S
C722 H713 0.929 . S
C722 C714 1.378 . S
C722 C717 1.350 . S
C723 H710 0.929 . S
C723 C715 1.433 . S
C723 N725 1.384 . S
N724 C720 1.427 . S
N724 C721 1.384 . S
N725 C717 1.427 . S
N725 C723 1.384 . S
H726 C732 0.930 . S
H727 C736 0.930 . S
H728 C741 0.929 . S
H729 C739 0.929 . S
H730 C734 0.929 . S
H731 C740 0.929 . S
C732 H726 0.930 . S
C732 C733 1.367 . S
C732 C740 1.378 . S
C733 C732 1.367 . S
C733 C741 1.433 . S
C734 H730 0.929 . S
C734 C736 1.378 . S
C734 C738 1.350 . S
C735 C738 1.463 . S
C735 C740 1.350 . S
C735 N743 1.427 . S
C736 H727 0.930 . S
C736 C734 1.378 . S
C736 C737 1.367 . S
C737 C736 1.367 . S
C737 C739 1.433 . S
C738 C734 1.350 . S
C738 C735 1.463 . S
C738 N742 1.427 . S
C739 H729 0.929 . S
C739 C737 1.433 . S
C739 N742 1.384 . S
C740 H731 0.929 . S
C740 C732 1.378 . S
C740 C735 1.350 . S
C741 H728 0.929 . S
C741 C733 1.433 . S
C741 N743 1.384 . S
N742 C738 1.427 . S
N742 C739 1.384 . S
N743 C735 1.427 . S
N743 C741 1.384 . S
H744 C750 0.930 . S
H745 C754 0.930 . S
H746 C759 0.929 . S
H747 C757 0.929 . S
H748 C752 0.929 . S
H749 C758 0.929 . S
C750 H744 0.930 . S
C750 C751 1.367 1_556 S
C750 C758 1.378 . S
C751 C750 1.367 1_554 S
C751 C759 1.433 . S
C752 H748 0.929 . S
C752 C754 1.378 . S
C752 C756 1.350 . S
C753 C756 1.463 . S
C753 C758 1.350 1_554 S
C753 N761 1.427 . S
C754 H745 0.930 . S
C754 C752 1.378 . S
C754 C755 1.367 . S
C755 C754 1.367 . S
C755 C757 1.433 1_554 S
C756 C752 1.350 . S
C756 C753 1.463 . S
C756 N760 1.427 1_554 S
C757 H747 0.929 . S
C757 C755 1.433 1_556 S
C757 N760 1.384 . S
C758 H749 0.929 . S
C758 C750 1.378 . S
C758 C753 1.350 1_556 S
C759 H746 0.929 . S
C759 C751 1.433 . S
C759 N761 1.384 . S
N760 C756 1.427 1_556 S
N760 C757 1.384 . S
N761 C753 1.427 . S
N761 C759 1.384 . S
H762 C768 0.930 . S
H763 C772 0.930 . S
H764 C777 0.929 . S
H765 C775 0.929 . S
H766 C770 0.929 . S
H767 C776 0.929 . S
C768 H762 0.930 . S
C768 C769 1.367 1_556 S
C768 C776 1.378 . S
C769 C768 1.367 1_554 S
C769 C777 1.433 . S
C770 H766 0.929 . S
C770 C772 1.378 . S
C770 C774 1.350 . S
C771 C774 1.463 . S
C771 C776 1.350 1_554 S
C771 N779 1.427 . S
C772 H763 0.930 . S
C772 C770 1.378 . S
C772 C773 1.367 . S
C773 C772 1.367 . S
C773 C775 1.433 1_554 S
C774 C770 1.350 . S
C774 C771 1.463 . S
C774 N778 1.427 1_554 S
C775 H765 0.929 . S
C775 C773 1.433 1_556 S
C775 N778 1.384 . S
C776 H767 0.929 . S
C776 C768 1.378 . S
C776 C771 1.350 1_556 S
C777 H764 0.929 . S
C777 C769 1.433 . S
C777 N779 1.384 . S
N778 C774 1.427 1_556 S
N778 C775 1.384 . S
N779 C771 1.427 . S
N779 C777 1.384 . S
H780 C786 0.930 1_556 S
H781 C790 0.930 . S
H782 C795 0.929 . S
H783 C793 0.931 1_556 S
H784 C788 0.929 . S
H785 C794 0.929 1_556 S
C786 H780 0.930 1_554 S
C786 C787 1.367 . S
C786 C794 1.378 . S
C787 C786 1.367 . S
C787 C795 1.433 . S
C788 H784 0.929 . S
C788 C790 1.378 . S
C788 C792 1.350 . S
C789 C792 1.463 . S
C789 C794 1.350 . S
C789 N797 1.427 . S
C790 H781 0.930 . S
C790 C788 1.378 . S
C790 C791 1.367 . S
C791 C790 1.367 . S
C791 C793 1.432 . S
C792 C788 1.350 . S
C792 C789 1.463 . S
C792 N796 1.427 . S
C793 H783 0.931 1_554 S
C793 C791 1.432 . S
C793 N796 1.383 . S
C794 H785 0.929 1_554 S
C794 C786 1.378 . S
C794 C789 1.350 . S
C795 H782 0.929 . S
C795 C787 1.433 . S
C795 N797 1.384 . S
N796 C792 1.427 . S
N796 C793 1.383 . S
N797 C789 1.427 . S
N797 C795 1.384 . S
H798 C804 0.930 . S
H799 C808 0.930 . S
H800 C813 0.929 . S
H801 C811 0.929 . S
H802 C806 0.929 . S
H803 C812 0.929 . S
C804 H798 0.930 . S
C804 C805 1.367 . S
C804 C812 1.378 . S
C805 C804 1.367 . S
C805 C813 1.433 1_554 S
C806 H802 0.929 . S
C806 C808 1.378 . S
C806 C810 1.350 1_556 S
C807 C810 1.463 . S
C807 C812 1.350 . S
C807 N815 1.427 1_554 S
C808 H799 0.930 . S
C808 C806 1.378 . S
C808 C809 1.367 1_556 S
C809 C808 1.367 1_554 S
C809 C811 1.433 . S
C810 C806 1.350 1_554 S
C810 C807 1.463 . S
C810 N814 1.427 . S
C811 H801 0.929 . S
C811 C809 1.433 . S
C811 N814 1.384 . S
C812 H803 0.929 . S
C812 C804 1.378 . S
C812 C807 1.350 . S
C813 H800 0.929 . S
C813 C805 1.433 1_556 S
C813 N815 1.384 . S
N814 C810 1.427 . S
N814 C811 1.384 . S
N815 C807 1.427 1_556 S
N815 C813 1.384 . S
H816 C822 0.930 . S
H817 C826 0.930 . S
H818 C831 0.929 . S
H819 C829 0.929 . S
H820 C824 0.929 . S
H821 C830 0.929 . S
C822 H816 0.930 . S
C822 C823 1.367 . S
C822 C830 1.378 . S
C823 C822 1.367 . S
C823 C831 1.433 1_455 S
C824 H820 0.929 . S
C824 C826 1.378 . S
C824 C828 1.350 1_655 S
C825 C828 1.463 . S
C825 C830 1.350 . S
C825 N833 1.427 1_455 S
C826 H817 0.930 . S
C826 C824 1.378 . S
C826 C827 1.367 1_655 S
C827 C826 1.367 1_455 S
C827 C829 1.433 . S
C828 C824 1.350 1_455 S
C828 C825 1.463 . S
C828 N832 1.427 . S
C829 H819 0.929 . S
C829 C827 1.433 . S
C829 N832 1.384 . S
C830 H821 0.929 . S
C830 C822 1.378 . S
C830 C825 1.350 . S
C831 H818 0.929 . S
C831 C823 1.433 1_655 S
C831 N833 1.384 . S
N832 C828 1.427 . S
N832 C829 1.384 . S
N833 C825 1.427 1_655 S
N833 C831 1.384 . S
H834 C840 0.930 . S
H835 C844 0.930 . S
H836 C849 0.929 . S
H837 C847 0.929 . S
H838 C842 0.929 . S
H839 C848 0.929 . S
C840 H834 0.930 . S
C840 C841 1.367 1_565 S
C840 C848 1.378 . S
C841 C840 1.367 1_545 S
C841 C849 1.433 . S
C842 H838 0.929 . S
C842 C844 1.378 . S
C842 C846 1.350 . S
C843 C846 1.463 . S
C843 C848 1.350 1_545 S
C843 N851 1.427 . S
C844 H835 0.930 . S
C844 C842 1.378 . S
C844 C845 1.367 . S
C845 C844 1.367 . S
C845 C847 1.433 1_545 S
C846 C842 1.350 . S
C846 C843 1.463 . S
C846 N850 1.427 1_545 S
C847 H837 0.929 . S
C847 C845 1.433 1_565 S
C847 N850 1.384 . S
C848 H839 0.929 . S
C848 C840 1.378 . S
C848 C843 1.350 1_565 S
C849 H836 0.929 . S
C849 C841 1.433 . S
C849 N851 1.384 . S
N850 C846 1.427 1_565 S
N850 C847 1.384 . S
N851 C843 1.427 . S
N851 C849 1.384 . S
H852 C858 0.930 . S
H853 C862 0.930 1_655 S
H854 C867 0.929 . S
H855 C865 0.929 . S
H856 C860 0.929 1_655 S
H857 C866 0.929 . S
C858 H852 0.930 . S
C858 C859 1.367 . S
C858 C866 1.378 . S
C859 C858 1.367 . S
C859 C867 1.433 . S
C860 H856 0.929 1_455 S
C860 C862 1.378 . S
C860 C864 1.350 . S
C861 C864 1.463 . S
C861 C866 1.350 . S
C861 N869 1.427 . S
C862 H853 0.930 1_455 S
C862 C860 1.378 . S
C862 C863 1.367 . S
C863 C862 1.367 . S
C863 C865 1.433 . S
C864 C860 1.350 . S
C864 C861 1.463 . S
C864 N868 1.427 . S
C865 H855 0.929 . S
C865 C863 1.433 . S
C865 N868 1.384 . S
C866 H857 0.929 . S
C866 C858 1.378 . S
C866 C861 1.350 . S
C867 H854 0.929 . S
C867 C859 1.433 . S
C867 N869 1.384 . S
N868 C864 1.427 . S
N868 C865 1.384 . S
N869 C861 1.427 . S
N869 C867 1.384 . S
H870 C876 0.930 . S
H871 C880 0.930 1_565 S
H872 C885 0.929 . S
H873 C883 0.929 . S
H874 C878 0.929 1_565 S
H875 C884 0.929 . S
C876 H870 0.930 . S
C876 C877 1.367 . S
C876 C884 1.378 . S
C877 C876 1.367 . S
C877 C885 1.433 . S
C878 H874 0.929 1_545 S
C878 C880 1.378 . S
C878 C882 1.350 . S
C879 C882 1.463 . S
C879 C884 1.350 . S
C879 N887 1.427 . S
C880 H871 0.930 1_545 S
C880 C878 1.378 . S
C880 C881 1.367 . S
C881 C880 1.367 . S
C881 C883 1.433 . S
C882 C878 1.350 . S
C882 C879 1.463 . S
C882 N886 1.427 . S
C883 H873 0.929 . S
C883 C881 1.433 . S
C883 N886 1.384 . S
C884 H875 0.929 . S
C884 C876 1.378 . S
C884 C879 1.350 . S
C885 H872 0.929 . S
C885 C877 1.433 . S
C885 N887 1.384 . S
N886 C882 1.427 . S
N886 C883 1.384 . S
N887 C879 1.427 . S
N887 C885 1.384 . S
H888 C894 0.930 . S
H889 C898 0.930 . S
H890 C903 0.929 . S
H891 C901 0.929 . S
H892 C896 0.929 . S
H893 C902 0.929 . S
C894 H888 0.930 . S
C894 C895 1.367 . S
C894 C902 1.378 . S
C895 C894 1.367 . S
C895 C903 1.433 . S
C896 H892 0.929 . S
C896 C898 1.378 . S
C896 C900 1.350 . S
C897 C900 1.463 . S
C897 C902 1.350 . S
C897 N905 1.427 . S
C898 H889 0.930 . S
C898 C896 1.378 . S
C898 C899 1.367 . S
C899 C898 1.367 . S
C899 C901 1.433 . S
C900 C896 1.350 . S
C900 C897 1.463 . S
C900 N904 1.427 . S
C901 H891 0.929 . S
C901 C899 1.433 . S
C901 N904 1.384 . S
C902 H893 0.929 . S
C902 C894 1.378 . S
C902 C897 1.350 . S
C903 H890 0.929 . S
C903 C895 1.433 . S
C903 N905 1.384 . S
N904 C900 1.427 . S
N904 C901 1.384 . S
N905 C897 1.427 . S
N905 C903 1.384 . S
H906 C912 0.930 . S
H907 C916 0.930 . S
H908 C921 0.929 . S
H909 C919 0.929 1_565 S
H910 C914 0.929 . S
H911 C920 0.929 1_565 S
C912 H906 0.930 . S
C912 C913 1.367 . S
C912 C920 1.378 . S
C913 C912 1.367 . S
C913 C921 1.433 . S
C914 H910 0.929 . S
C914 C916 1.378 . S
C914 C918 1.350 . S
C915 C918 1.463 . S
C915 C920 1.350 . S
C915 N923 1.427 . S
C916 H907 0.930 . S
C916 C914 1.378 . S
C916 C917 1.367 . S
C917 C916 1.367 . S
C917 C919 1.433 . S
C918 C914 1.350 . S
C918 C915 1.463 . S
C918 N922 1.427 . S
C919 H909 0.929 1_545 S
C919 C917 1.433 . S
C919 N922 1.384 . S
C920 H911 0.929 1_545 S
C920 C912 1.378 . S
C920 C915 1.350 . S
C921 H908 0.929 . S
C921 C913 1.433 . S
C921 N923 1.384 . S
N922 C918 1.427 . S
N922 C919 1.384 . S
N923 C915 1.427 . S
N923 C921 1.384 . S
H924 C930 0.933 . S
H925 C934 0.930 . S
H926 C939 0.929 . S
H927 C937 0.929 1_655 S
H928 C932 0.929 . S
H929 C938 0.916 1_655 S
C930 H924 0.933 . S
C930 C931 1.364 1_655 S
C930 C938 1.378 1_655 S
C931 C930 1.364 1_455 S
C931 C939 1.433 . S
C932 H928 0.929 . S
C932 C934 1.378 . S
C932 C936 1.350 . S
C933 C936 1.463 . S
C933 C938 1.363 . S
C933 N941 1.427 . S
C934 H925 0.930 . S
C934 C932 1.378 . S
C934 C935 1.367 . S
C935 C934 1.367 . S
C935 C937 1.433 . S
C936 C932 1.350 . S
C936 C933 1.463 . S
C936 N940 1.427 . S
C937 H927 0.929 1_455 S
C937 C935 1.433 . S
C937 N940 1.384 . S
C938 H929 0.916 1_455 S
C938 C930 1.378 1_455 S
C938 C933 1.363 . S
C939 H926 0.929 . S
C939 C931 1.433 . S
C939 N941 1.384 . S
N940 C936 1.427 . S
N940 C937 1.384 . S
N941 C933 1.427 . S
N941 C939 1.384 . S
H942 C948 0.930 . S
H943 C952 0.930 . S
H944 C957 0.929 . S
H945 C955 0.929 . S
H946 C950 0.929 . S
H947 C956 0.929 . S
C948 H942 0.930 . S
C948 C949 1.367 1_565 S
C948 C956 1.378 . S
C949 C948 1.367 1_545 S
C949 C957 1.433 . S
C950 H946 0.929 . S
C950 C952 1.378 . S
C950 C954 1.350 . S
C951 C954 1.463 . S
C951 C956 1.350 1_545 S
C951 N959 1.427 . S
C952 H943 0.930 . S
C952 C950 1.378 . S
C952 C953 1.367 . S
C953 C952 1.367 . S
C953 C955 1.433 1_545 S
C954 C950 1.350 . S
C954 C951 1.463 . S
C954 N958 1.427 1_545 S
C955 H945 0.929 . S
C955 C953 1.433 1_565 S
C955 N958 1.384 . S
C956 H947 0.929 . S
C956 C948 1.378 . S
C956 C951 1.350 1_565 S
C957 H944 0.929 . S
C957 C949 1.433 . S
C957 N959 1.384 . S
N958 C954 1.427 1_565 S
N958 C955 1.384 . S
N959 C951 1.427 . S
N959 C957 1.384 . S
H960 C966 0.930 . S
H961 C970 0.930 . S
H962 C975 0.929 . S
H963 C973 0.929 . S
H964 C968 0.929 . S
H965 C974 0.929 . S
C966 H960 0.930 . S
C966 C967 1.367 . S
C966 C974 1.378 . S
C967 C966 1.367 . S
C967 C975 1.433 . S
C968 H964 0.929 . S
C968 C970 1.378 . S
C968 C972 1.350 . S
C969 C972 1.463 . S
C969 C974 1.350 . S
C969 N977 1.427 . S
C970 H961 0.930 . S
C970 C968 1.378 . S
C970 C971 1.367 . S
C971 C970 1.367 . S
C971 C973 1.433 . S
C972 C968 1.350 . S
C972 C969 1.463 . S
C972 N976 1.427 . S
C973 H963 0.929 . S
C973 C971 1.433 . S
C973 N976 1.384 . S
C974 H965 0.929 . S
C974 C966 1.378 . S
C974 C969 1.350 . S
C975 H962 0.929 . S
C975 C967 1.433 . S
C975 N977 1.384 . S
N976 C972 1.427 . S
N976 C973 1.384 . S
N977 C969 1.427 . S
N977 C975 1.384 . S
H978 C984 0.930 . S
H979 C988 0.930 1_565 S
H980 C993 0.935 . S
H981 C991 0.929 . S
H982 C986 0.929 1_565 S
H983 C992 0.929 . S
C984 H978 0.930 . S
C984 C985 1.367 . S
C984 C992 1.378 . S
C985 C984 1.367 . S
C985 C993 1.433 . S
C986 H982 0.929 1_545 S
C986 C988 1.378 . S
C986 C990 1.350 . S
C987 C990 1.463 . S
C987 C992 1.350 . S
C987 N995 1.427 . S
C988 H979 0.930 1_545 S
C988 C986 1.378 . S
C988 C989 1.367 . S
C989 C988 1.367 . S
C989 C991 1.433 . S
C990 C986 1.350 . S
C990 C987 1.463 . S
C990 N994 1.427 . S
C991 H981 0.929 . S
C991 C989 1.433 . S
C991 N994 1.384 . S
C992 H983 0.929 . S
C992 C984 1.378 . S
C992 C987 1.350 . S
C993 H980 0.935 . S
C993 C985 1.433 . S
C993 N995 1.384 . S
N994 C990 1.427 . S
N994 C991 1.384 . S
N995 C987 1.427 . S
N995 C993 1.384 . S
H996 C1002 0.930 . S
H997 C1006 0.930 . S
H998 C1011 0.929 . S
H999 C1009 0.929 . S
H1000 C1004 0.929 . S
H1001 C1010 0.929 . S
C1002 H996 0.930 . S
C1002 C1003 1.367 . S
C1002 C1010 1.378 . S
C1003 C1002 1.367 . S
C1003 C1011 1.433 . S
C1004 H1000 0.929 . S
C1004 C1006 1.378 . S
C1004 C1008 1.350 . S
C1005 C1008 1.463 . S
C1005 C1010 1.350 . S
C1005 N1013 1.427 . S
C1006 H997 0.930 . S
C1006 C1004 1.378 . S
C1006 C1007 1.367 . S
C1007 C1006 1.367 . S
C1007 C1009 1.433 . S
C1008 C1004 1.350 . S
C1008 C1005 1.463 . S
C1008 N1012 1.427 . S
C1009 H999 0.929 . S
C1009 C1007 1.433 . S
C1009 N1012 1.384 . S
C1010 H1001 0.929 . S
C1010 C1002 1.378 . S
C1010 C1005 1.350 . S
C1011 H998 0.929 . S
C1011 C1003 1.433 . S
C1011 N1013 1.384 . S
N1012 C1008 1.427 . S
N1012 C1009 1.384 . S
N1013 C1005 1.427 . S
N1013 C1011 1.384 . S
H1014 C1020 0.930 . S
H1015 C1024 0.931 . S
H1016 C1029 0.929 . S
H1017 C1027 0.929 . S
H1018 C1022 0.929 1_565 S
H1019 C1028 0.929 . S
C1020 H1014 0.930 . S
C1020 C1021 1.367 . S
C1020 C1028 1.378 . S
C1021 C1020 1.367 . S
C1021 C1029 1.433 1_545 S
C1022 H1018 0.929 1_545 S
C1022 C1024 1.378 . S
C1022 C1026 1.350 . S
C1023 C1026 1.463 . S
C1023 C1028 1.350 . S
C1023 N1031 1.427 1_545 S
C1024 H1015 0.931 . S
C1024 C1022 1.378 . S
C1024 C1025 1.367 . S
C1025 C1024 1.367 . S
C1025 C1027 1.433 . S
C1026 C1022 1.350 . S
C1026 C1023 1.463 . S
C1026 N1030 1.427 . S
C1027 H1017 0.929 . S
C1027 C1025 1.433 . S
C1027 N1030 1.384 . S
C1028 H1019 0.929 . S
C1028 C1020 1.378 . S
C1028 C1023 1.350 . S
C1029 H1016 0.929 . S
C1029 C1021 1.433 1_565 S
C1029 N1031 1.384 . S
N1030 C1026 1.427 . S
N1030 C1027 1.384 . S
N1031 C1023 1.427 1_565 S
N1031 C1029 1.384 . S
H1032 C1038 0.930 . S
H1033 C1042 0.930 . S
H1034 C1047 0.929 . S
H1035 C1045 0.929 1_655 S
H1036 C1040 0.929 . S
H1037 C1046 0.929 . S
C1038 H1032 0.930 . S
C1038 C1039 1.362 1_655 S
C1038 C1046 1.378 . S
C1039 C1038 1.362 1_455 S
C1039 C1047 1.440 . S
C1040 H1036 0.929 . S
C1040 C1042 1.378 . S
C1040 C1044 1.350 . S
C1041 C1044 1.463 . S
C1041 C1046 1.350 1_455 S
C1041 N1049 1.427 . S
C1042 H1033 0.930 . S
C1042 C1040 1.378 . S
C1042 C1043 1.367 . S
C1043 C1042 1.367 . S
C1043 C1045 1.433 . S
C1044 C1040 1.350 . S
C1044 C1041 1.463 . S
C1044 N1048 1.427 . S
C1045 H1035 0.929 1_455 S
C1045 C1043 1.433 . S
C1045 N1048 1.384 . S
C1046 H1037 0.929 . S
C1046 C1038 1.378 . S
C1046 C1041 1.350 1_655 S
C1047 H1034 0.929 . S
C1047 C1039 1.440 . S
C1047 N1049 1.384 . S
N1048 C1044 1.427 . S
N1048 C1045 1.384 . S
N1049 C1041 1.427 . S
N1049 C1047 1.384 . S
H1050 C1056 0.930 . S
H1051 C1060 0.930 . S
H1052 C1065 0.929 . S
H1053 C1063 0.929 . S
H1054 C1058 0.929 . S
H1055 C1064 0.929 . S
C1056 H1050 0.930 . S
C1056 C1057 1.367 . S
C1056 C1064 1.378 . S
C1057 C1056 1.367 . S
C1057 C1065 1.433 . S
C1058 H1054 0.929 . S
C1058 C1060 1.378 . S
C1058 C1062 1.350 . S
C1059 C1062 1.463 . S
C1059 C1064 1.350 . S
C1059 N1067 1.427 . S
C1060 H1051 0.930 . S
C1060 C1058 1.378 . S
C1060 C1061 1.367 . S
C1061 C1060 1.367 . S
C1061 C1063 1.433 . S
C1062 C1058 1.350 . S
C1062 C1059 1.463 . S
C1062 N1066 1.427 . S
C1063 H1053 0.929 . S
C1063 C1061 1.433 . S
C1063 N1066 1.384 . S
C1064 H1055 0.929 . S
C1064 C1056 1.378 . S
C1064 C1059 1.350 . S
C1065 H1052 0.929 . S
C1065 C1057 1.433 . S
C1065 N1067 1.384 . S
N1066 C1062 1.427 . S
N1066 C1063 1.384 . S
N1067 C1059 1.427 . S
N1067 C1065 1.384 . S
H1068 C1074 0.930 . S
H1069 C1078 0.930 . S
H1070 C1083 0.943 . S
H1071 C1081 0.929 . S
H1072 C1076 0.929 . S
H1073 C1082 0.929 . S
C1074 H1068 0.930 . S
C1074 C1075 1.367 . S
C1074 C1082 1.378 . S
C1075 C1074 1.367 . S
C1075 C1083 1.418 1_455 S
C1076 H1072 0.929 . S
C1076 C1078 1.378 . S
C1076 C1080 1.350 1_655 S
C1077 C1080 1.463 . S
C1077 C1082 1.350 . S
C1077 N1085 1.427 1_455 S
C1078 H1069 0.930 . S
C1078 C1076 1.378 . S
C1078 C1079 1.367 1_655 S
C1079 C1078 1.367 1_455 S
C1079 C1081 1.433 . S
C1080 C1076 1.350 1_455 S
C1080 C1077 1.463 . S
C1080 N1084 1.427 . S
C1081 H1071 0.929 . S
C1081 C1079 1.433 . S
C1081 N1084 1.384 . S
C1082 H1073 0.929 . S
C1082 C1074 1.378 . S
C1082 C1077 1.350 . S
C1083 H1070 0.943 . S
C1083 C1075 1.418 1_655 S
C1083 N1085 1.384 . S
N1084 C1080 1.427 . S
N1084 C1081 1.384 . S
N1085 C1077 1.427 1_655 S
N1085 C1083 1.384 . S
H1086 C1092 0.930 . S
H1087 C1096 0.930 . S
H1088 C1101 0.929 1_565 S
H1089 C1099 0.929 . S
H1090 C1094 0.929 1_565 S
H1091 C1100 0.929 . S
C1092 H1086 0.930 . S
C1092 C1093 1.367 . S
C1092 C1100 1.378 . S
C1093 C1092 1.367 . S
C1093 C1101 1.433 . S
C1094 H1090 0.929 1_545 S
C1094 C1096 1.378 1_545 S
C1094 C1098 1.350 . S
C1095 C1098 1.463 . S
C1095 C1100 1.350 . S
C1095 N1103 1.427 . S
C1096 H1087 0.930 . S
C1096 C1094 1.378 1_565 S
C1096 C1097 1.367 1_565 S
C1097 C1096 1.367 1_545 S
C1097 C1099 1.433 . S
C1098 C1094 1.350 . S
C1098 C1095 1.463 . S
C1098 N1102 1.427 . S
C1099 H1089 0.929 . S
C1099 C1097 1.433 . S
C1099 N1102 1.384 . S
C1100 H1091 0.929 . S
C1100 C1092 1.378 . S
C1100 C1095 1.350 . S
C1101 H1088 0.929 1_545 S
C1101 C1093 1.433 . S
C1101 N1103 1.384 . S
N1102 C1098 1.427 . S
N1102 C1099 1.384 . S
N1103 C1095 1.427 . S
N1103 C1101 1.384 . S
H1104 C1110 0.930 . S
H1105 C1114 0.930 . S
H1106 C1119 0.929 . S
H1107 C1117 0.929 . S
H1108 C1112 0.929 . S
H1109 C1118 0.929 . S
C1110 H1104 0.930 . S
C1110 C1111 1.367 . S
C1110 C1118 1.378 . S
C1111 C1110 1.367 . S
C1111 C1119 1.433 1_545 S
C1112 H1108 0.929 . S
C1112 C1114 1.378 . S
C1112 C1116 1.350 1_565 S
C1113 C1116 1.463 . S
C1113 C1118 1.350 . S
C1113 N1121 1.427 1_545 S
C1114 H1105 0.930 . S
C1114 C1112 1.378 . S
C1114 C1115 1.367 1_565 S
C1115 C1114 1.367 1_545 S
C1115 C1117 1.433 . S
C1116 C1112 1.350 1_545 S
C1116 C1113 1.463 . S
C1116 N1120 1.427 . S
C1117 H1107 0.929 . S
C1117 C1115 1.433 . S
C1117 N1120 1.384 . S
C1118 H1109 0.929 . S
C1118 C1110 1.378 . S
C1118 C1113 1.350 . S
C1119 H1106 0.929 . S
C1119 C1111 1.433 1_565 S
C1119 N1121 1.384 . S
N1120 C1116 1.427 . S
N1120 C1117 1.384 . S
N1121 C1113 1.427 1_565 S
N1121 C1119 1.384 . S
H1122 C1128 0.930 . S
H1123 C1132 0.930 . S
H1124 C1137 0.929 . S
H1125 C1135 0.929 . S
H1126 C1130 0.929 . S
H1127 C1136 0.929 . S
C1128 H1122 0.930 . S
C1128 C1129 1.367 . S
C1128 C1136 1.378 . S
C1129 C1128 1.367 . S
C1129 C1137 1.433 . S
C1130 H1126 0.929 . S
C1130 C1132 1.378 . S
C1130 C1134 1.350 . S
C1131 C1134 1.463 . S
C1131 C1136 1.350 . S
C1131 N1139 1.427 . S
C1132 H1123 0.930 . S
C1132 C1130 1.378 . S
C1132 C1133 1.367 . S
C1133 C1132 1.367 . S
C1133 C1135 1.433 . S
C1134 C1130 1.350 . S
C1134 C1131 1.463 . S
C1134 N1138 1.427 . S
C1135 H1125 0.929 . S
C1135 C1133 1.433 . S
C1135 N1138 1.384 . S
C1136 H1127 0.929 . S
C1136 C1128 1.378 . S
C1136 C1131 1.350 . S
C1137 H1124 0.929 . S
C1137 C1129 1.433 . S
C1137 N1139 1.384 . S
N1138 C1134 1.427 . S
N1138 C1135 1.384 . S
N1139 C1131 1.427 . S
N1139 C1137 1.384 . S
H1140 C1146 0.930 . S
H1141 C1150 0.930 1_565 S
H1142 C1155 0.929 1_565 S
H1143 C1153 0.929 . S
H1144 C1148 0.929 1_565 S
H1145 C1154 0.929 . S
C1146 H1140 0.930 . S
C1146 C1147 1.367 . S
C1146 C1154 1.378 . S
C1147 C1146 1.367 . S
C1147 C1155 1.433 . S
C1148 H1144 0.929 1_545 S
C1148 C1150 1.378 . S
C1148 C1152 1.350 . S
C1149 C1152 1.463 . S
C1149 C1154 1.350 . S
C1149 N1157 1.427 . S
C1150 H1141 0.930 1_545 S
C1150 C1148 1.378 . S
C1150 C1151 1.367 . S
C1151 C1150 1.367 . S
C1151 C1153 1.433 . S
C1152 C1148 1.350 . S
C1152 C1149 1.463 . S
C1152 N1156 1.427 . S
C1153 H1143 0.929 . S
C1153 C1151 1.433 . S
C1153 N1156 1.384 . S
C1154 H1145 0.929 . S
C1154 C1146 1.378 . S
C1154 C1149 1.350 . S
C1155 H1142 0.929 1_545 S
C1155 C1147 1.433 . S
C1155 N1157 1.384 . S
N1156 C1152 1.427 . S
N1156 C1153 1.384 . S
N1157 C1149 1.427 . S
N1157 C1155 1.384 . S
H1158 C1164 0.930 . S
H1159 C1168 0.930 . S
H1160 C1173 0.929 . S
H1161 C1171 0.929 . S
H1162 C1166 0.929 . S
H1163 C1172 0.929 . S
C1164 H1158 0.930 . S
C1164 C1165 1.367 . S
C1164 C1172 1.378 . S
C1165 C1164 1.367 . S
C1165 C1173 1.433 1_455 S
C1166 H1162 0.929 . S
C1166 C1168 1.378 . S
C1166 C1170 1.350 1_655 S
C1167 C1170 1.463 . S
C1167 C1172 1.350 . S
C1167 N1175 1.427 1_455 S
C1168 H1159 0.930 . S
C1168 C1166 1.378 . S
C1168 C1169 1.367 1_655 S
C1169 C1168 1.367 1_455 S
C1169 C1171 1.433 . S
C1170 C1166 1.350 1_455 S
C1170 C1167 1.463 . S
C1170 N1174 1.427 . S
C1171 H1161 0.929 . S
C1171 C1169 1.433 . S
C1171 N1174 1.384 . S
C1172 H1163 0.929 . S
C1172 C1164 1.378 . S
C1172 C1167 1.350 . S
C1173 H1160 0.929 . S
C1173 C1165 1.433 1_655 S
C1173 N1175 1.384 . S
N1174 C1170 1.427 . S
N1174 C1171 1.384 . S
N1175 C1167 1.427 1_655 S
N1175 C1173 1.384 . S
H1176 C1182 0.930 . S
H1177 C1186 0.930 . S
H1178 C1191 0.929 . S
H1179 C1189 0.929 . S
H1180 C1184 0.929 . S
H1181 C1190 0.929 . S
C1182 H1176 0.930 . S
C1182 C1183 1.367 . S
C1182 C1190 1.378 . S
C1183 C1182 1.367 . S
C1183 C1191 1.433 1_545 S
C1184 H1180 0.929 . S
C1184 C1186 1.378 . S
C1184 C1188 1.350 1_565 S
C1185 C1188 1.463 . S
C1185 C1190 1.350 . S
C1185 N1193 1.427 1_545 S
C1186 H1177 0.930 . S
C1186 C1184 1.378 . S
C1186 C1187 1.367 1_565 S
C1187 C1186 1.367 1_545 S
C1187 C1189 1.433 . S
C1188 C1184 1.350 1_545 S
C1188 C1185 1.463 . S
C1188 N1192 1.427 . S
C1189 H1179 0.929 . S
C1189 C1187 1.433 . S
C1189 N1192 1.384 . S
C1190 H1181 0.929 . S
C1190 C1182 1.378 . S
C1190 C1185 1.350 . S
C1191 H1178 0.929 . S
C1191 C1183 1.433 1_565 S
C1191 N1193 1.384 . S
N1192 C1188 1.427 . S
N1192 C1189 1.384 . S
N1193 C1185 1.427 1_565 S
N1193 C1191 1.384 . S
H1194 C1200 0.930 . S
H1195 C1204 0.930 . S
H1196 C1209 0.929 . S
H1197 C1207 0.929 . S
H1198 C1202 0.929 . S
H1199 C1208 0.929 . S
C1200 H1194 0.930 . S
C1200 C1201 1.367 . S
C1200 C1208 1.378 . S
C1201 C1200 1.367 . S
C1201 C1209 1.433 . S
C1202 H1198 0.929 . S
C1202 C1204 1.378 . S
C1202 C1206 1.350 . S
C1203 C1206 1.463 . S
C1203 C1208 1.350 . S
C1203 N1211 1.427 . S
C1204 H1195 0.930 . S
C1204 C1202 1.378 . S
C1204 C1205 1.367 . S
C1205 C1204 1.367 . S
C1205 C1207 1.433 . S
C1206 C1202 1.350 . S
C1206 C1203 1.463 . S
C1206 N1210 1.427 . S
C1207 H1197 0.929 . S
C1207 C1205 1.433 . S
C1207 N1210 1.384 . S
C1208 H1199 0.929 . S
C1208 C1200 1.378 . S
C1208 C1203 1.350 . S
C1209 H1196 0.929 . S
C1209 C1201 1.433 . S
C1209 N1211 1.384 . S
N1210 C1206 1.427 . S
N1210 C1207 1.384 . S
N1211 C1203 1.427 . S
N1211 C1209 1.384 . S
H1212 C1218 0.930 1_565 S
H1213 C1222 0.930 . S
H1214 C1227 0.929 . S
H1215 C1225 0.929 1_565 S
H1216 C1220 0.929 . S
H1217 C1226 0.929 1_565 S
C1218 H1212 0.930 1_545 S
C1218 C1219 1.367 . S
C1218 C1226 1.378 . S
C1219 C1218 1.367 . S
C1219 C1227 1.433 . S
C1220 H1216 0.929 . S
C1220 C1222 1.378 . S
C1220 C1224 1.350 . S
C1221 C1224 1.463 . S
C1221 C1226 1.350 . S
C1221 N1229 1.427 . S
C1222 H1213 0.930 . S
C1222 C1220 1.378 . S
C1222 C1223 1.367 . S
C1223 C1222 1.367 . S
C1223 C1225 1.433 . S
C1224 C1220 1.350 . S
C1224 C1221 1.463 . S
C1224 N1228 1.427 . S
C1225 H1215 0.929 1_545 S
C1225 C1223 1.433 . S
C1225 N1228 1.384 . S
C1226 H1217 0.929 1_545 S
C1226 C1218 1.378 . S
C1226 C1221 1.350 . S
C1227 H1214 0.929 . S
C1227 C1219 1.433 . S
C1227 N1229 1.384 . S
N1228 C1224 1.427 . S
N1228 C1225 1.384 . S
N1229 C1221 1.427 . S
N1229 C1227 1.384 . S
H1230 C1236 0.930 . S
H1231 C1240 0.930 . S
H1232 C1245 0.929 . S
H1233 C1243 0.929 1_655 S
H1234 C1238 0.929 . S
H1235 C1244 0.929 . S
C1236 H1230 0.930 . S
C1236 C1237 1.367 1_655 S
C1236 C1244 1.378 . S
C1237 C1236 1.367 1_455 S
C1237 C1245 1.433 . S
C1238 H1234 0.929 . S
C1238 C1240 1.378 . S
C1238 C1242 1.350 . S
C1239 C1242 1.463 . S
C1239 C1244 1.350 1_455 S
C1239 N1247 1.427 . S
C1240 H1231 0.930 . S
C1240 C1238 1.378 . S
C1240 C1241 1.367 . S
C1241 C1240 1.367 . S
C1241 C1243 1.433 . S
C1242 C1238 1.350 . S
C1242 C1239 1.463 . S
C1242 N1246 1.427 . S
C1243 H1233 0.929 1_455 S
C1243 C1241 1.433 . S
C1243 N1246 1.384 . S
C1244 H1235 0.929 . S
C1244 C1236 1.378 . S
C1244 C1239 1.350 1_655 S
C1245 H1232 0.929 . S
C1245 C1237 1.433 . S
C1245 N1247 1.384 . S
N1246 C1242 1.427 . S
N1246 C1243 1.384 . S
N1247 C1239 1.427 . S
N1247 C1245 1.384 . S
H1248 C1254 0.930 . S
H1249 C1258 0.930 . S
H1250 C1263 0.929 . S
H1251 C1261 0.929 . S
H1252 C1256 0.929 . S
H1253 C1262 0.929 . S
C1254 H1248 0.930 . S
C1254 C1255 1.367 . S
C1254 C1262 1.378 . S
C1255 C1254 1.367 . S
C1255 C1263 1.433 1_554 S
C1256 H1252 0.929 . S
C1256 C1258 1.378 . S
C1256 C1260 1.350 1_556 S
C1257 C1260 1.463 . S
C1257 C1262 1.350 . S
C1257 N1265 1.427 1_554 S
C1258 H1249 0.930 . S
C1258 C1256 1.378 . S
C1258 C1259 1.367 1_556 S
C1259 C1258 1.367 1_554 S
C1259 C1261 1.433 . S
C1260 C1256 1.350 1_554 S
C1260 C1257 1.463 . S
C1260 N1264 1.427 . S
C1261 H1251 0.929 . S
C1261 C1259 1.433 . S
C1261 N1264 1.384 . S
C1262 H1253 0.929 . S
C1262 C1254 1.378 . S
C1262 C1257 1.350 . S
C1263 H1250 0.929 . S
C1263 C1255 1.433 1_556 S
C1263 N1265 1.384 . S
N1264 C1260 1.427 . S
N1264 C1261 1.384 . S
N1265 C1257 1.427 1_556 S
N1265 C1263 1.384 . S
H1266 C1272 0.930 . S
H1267 C1276 0.930 . S
H1268 C1281 0.929 . S
H1269 C1279 0.929 . S
H1270 C1274 0.929 . S
H1271 C1280 0.929 . S
C1272 H1266 0.930 . S
C1272 C1273 1.367 . S
C1272 C1280 1.378 . S
C1273 C1272 1.367 . S
C1273 C1281 1.433 . S
C1274 H1270 0.929 . S
C1274 C1276 1.378 . S
C1274 C1278 1.350 . S
C1275 C1278 1.463 . S
C1275 C1280 1.350 . S
C1275 N1283 1.427 . S
C1276 H1267 0.930 . S
C1276 C1274 1.378 . S
C1276 C1277 1.367 . S
C1277 C1276 1.367 . S
C1277 C1279 1.433 . S
C1278 C1274 1.350 . S
C1278 C1275 1.463 . S
C1278 N1282 1.427 . S
C1279 H1269 0.929 . S
C1279 C1277 1.433 . S
C1279 N1282 1.384 . S
C1280 H1271 0.929 . S
C1280 C1272 1.378 . S
C1280 C1275 1.350 . S
C1281 H1268 0.929 . S
C1281 C1273 1.433 . S
C1281 N1283 1.384 . S
N1282 C1278 1.427 . S
N1282 C1279 1.384 . S
N1283 C1275 1.427 . S
N1283 C1281 1.384 . S
H1284 C1290 0.930 . S
H1285 C1294 0.930 . S
H1286 C1299 0.929 . S
H1287 C1297 0.929 . S
H1288 C1292 0.929 . S
H1289 C1298 0.929 . S
C1290 H1284 0.930 . S
C1290 C1291 1.367 1_556 S
C1290 C1298 1.378 . S
C1291 C1290 1.367 1_554 S
C1291 C1299 1.433 . S
C1292 H1288 0.929 . S
C1292 C1294 1.378 . S
C1292 C1296 1.350 . S
C1293 C1296 1.463 . S
C1293 C1298 1.350 1_554 S
C1293 N1301 1.427 . S
C1294 H1285 0.930 . S
C1294 C1292 1.378 . S
C1294 C1295 1.367 . S
C1295 C1294 1.367 . S
C1295 C1297 1.433 1_554 S
C1296 C1292 1.350 . S
C1296 C1293 1.463 . S
C1296 N1300 1.427 1_554 S
C1297 H1287 0.929 . S
C1297 C1295 1.433 1_556 S
C1297 N1300 1.384 . S
C1298 H1289 0.929 . S
C1298 C1290 1.378 . S
C1298 C1293 1.350 1_556 S
C1299 H1286 0.929 . S
C1299 C1291 1.433 . S
C1299 N1301 1.384 . S
N1300 C1296 1.427 1_556 S
N1300 C1297 1.384 . S
N1301 C1293 1.427 . S
N1301 C1299 1.384 . S
H1302 C1308 0.930 . S
H1303 C1312 0.930 . S
H1304 C1317 0.929 . S
H1305 C1315 0.929 . S
H1306 C1310 0.929 . S
H1307 C1316 0.929 . S
C1308 H1302 0.930 . S
C1308 C1309 1.367 1_556 S
C1308 C1316 1.378 . S
C1309 C1308 1.367 1_554 S
C1309 C1317 1.433 . S
C1310 H1306 0.929 . S
C1310 C1312 1.378 . S
C1310 C1314 1.350 . S
C1311 C1314 1.465 . S
C1311 C1316 1.320 1_554 S
C1311 N1319 1.458 . S
C1312 H1303 0.930 . S
C1312 C1310 1.378 . S
C1312 C1313 1.367 . S
C1313 C1312 1.367 . S
C1313 C1315 1.433 1_554 S
C1314 C1310 1.350 . S
C1314 C1311 1.465 . S
C1314 N1318 1.427 1_554 S
C1315 H1305 0.929 . S
C1315 C1313 1.433 1_556 S
C1315 N1318 1.384 . S
C1316 H1307 0.929 . S
C1316 C1308 1.378 . S
C1316 C1311 1.320 1_556 S
C1317 H1304 0.929 . S
C1317 C1309 1.433 . S
C1317 N1319 1.384 . S
N1318 C1314 1.427 1_556 S
N1318 C1315 1.384 . S
N1319 C1311 1.458 . S
N1319 C1317 1.384 . S
H1320 C1326 0.930 . S
H1321 C1330 0.930 . S
H1322 C1335 0.929 . S
H1323 C1333 0.929 . S
H1324 C1328 0.929 . S
H1325 C1334 0.929 . S
C1326 H1320 0.930 . S
C1326 C1327 1.367 . S
C1326 C1334 1.378 . S
C1327 C1326 1.367 . S
C1327 C1335 1.433 1_554 S
C1328 H1324 0.929 . S
C1328 C1330 1.378 . S
C1328 C1332 1.350 1_556 S
C1329 C1332 1.463 . S
C1329 C1334 1.350 . S
C1329 N1337 1.427 1_554 S
C1330 H1321 0.930 . S
C1330 C1328 1.378 . S
C1330 C1331 1.367 1_556 S
C1331 C1330 1.367 1_554 S
C1331 C1333 1.433 . S
C1332 C1328 1.350 1_554 S
C1332 C1329 1.463 . S
C1332 N1336 1.427 . S
C1333 H1323 0.929 . S
C1333 C1331 1.433 . S
C1333 N1336 1.384 . S
C1334 H1325 0.929 . S
C1334 C1326 1.378 . S
C1334 C1329 1.350 . S
C1335 H1322 0.929 . S
C1335 C1327 1.433 1_556 S
C1335 N1337 1.384 . S
N1336 C1332 1.427 . S
N1336 C1333 1.384 . S
N1337 C1329 1.427 1_556 S
N1337 C1335 1.384 . S
H1338 C1344 0.930 . S
H1339 C1348 0.930 . S
H1340 C1353 0.929 . S
H1341 C1351 0.929 . S
H1342 C1346 0.929 . S
H1343 C1352 0.929 . S
C1344 H1338 0.930 . S
C1344 C1345 1.367 1_556 S
C1344 C1352 1.378 . S
C1345 C1344 1.367 1_554 S
C1345 C1353 1.433 . S
C1346 H1342 0.929 . S
C1346 C1348 1.378 . S
C1346 C1350 1.350 . S
C1347 C1350 1.463 . S
C1347 C1352 1.350 1_554 S
C1347 N1355 1.427 . S
C1348 H1339 0.930 . S
C1348 C1346 1.378 . S
C1348 C1349 1.367 . S
C1349 C1348 1.367 . S
C1349 C1351 1.433 1_554 S
C1350 C1346 1.350 . S
C1350 C1347 1.463 . S
C1350 N1354 1.427 1_554 S
C1351 H1341 0.929 . S
C1351 C1349 1.433 1_556 S
C1351 N1354 1.384 . S
C1352 H1343 0.929 . S
C1352 C1344 1.378 . S
C1352 C1347 1.350 1_556 S
C1353 H1340 0.929 . S
C1353 C1345 1.433 . S
C1353 N1355 1.384 . S
N1354 C1350 1.427 1_556 S
N1354 C1351 1.384 . S
N1355 C1347 1.427 . S
N1355 C1353 1.384 . S
H1356 C1362 0.930 . S
H1357 C1366 0.930 . S
H1358 C1371 0.929 . S
H1359 C1369 0.929 . S
H1360 C1364 0.929 . S
H1361 C1370 0.929 . S
C1362 H1356 0.930 . S
C1362 C1363 1.367 . S
C1362 C1370 1.378 . S
C1363 C1362 1.367 . S
C1363 C1371 1.433 1_554 S
C1364 H1360 0.929 . S
C1364 C1366 1.378 . S
C1364 C1368 1.350 1_556 S
C1365 C1368 1.463 . S
C1365 C1370 1.350 . S
C1365 N1373 1.427 1_554 S
C1366 H1357 0.930 . S
C1366 C1364 1.378 . S
C1366 C1367 1.367 1_556 S
C1367 C1366 1.367 1_554 S
C1367 C1369 1.433 . S
C1368 C1364 1.350 1_554 S
C1368 C1365 1.463 . S
C1368 N1372 1.427 . S
C1369 H1359 0.929 . S
C1369 C1367 1.433 . S
C1369 N1372 1.384 . S
C1370 H1361 0.929 . S
C1370 C1362 1.378 . S
C1370 C1365 1.350 . S
C1371 H1358 0.929 . S
C1371 C1363 1.433 1_556 S
C1371 N1373 1.384 . S
N1372 C1368 1.427 . S
N1372 C1369 1.384 . S
N1373 C1365 1.427 1_556 S
N1373 C1371 1.384 . S
H1374 C1380 0.927 1_556 S
H1375 C1384 0.930 . S
H1376 C1389 0.929 . S
H1377 C1387 0.929 . S
H1378 C1382 0.929 . S
H1379 C1388 0.930 . S
C1380 H1374 0.927 1_554 S
C1380 C1381 1.370 . S
C1380 C1388 1.380 . S
C1381 C1380 1.370 . S
C1381 C1389 1.433 . S
C1382 H1378 0.929 . S
C1382 C1384 1.378 . S
C1382 C1386 1.350 . S
C1383 C1386 1.463 . S
C1383 C1388 1.350 . S
C1383 N1391 1.427 . S
C1384 H1375 0.930 . S
C1384 C1382 1.378 . S
C1384 C1385 1.367 . S
C1385 C1384 1.367 . S
C1385 C1387 1.433 . S
C1386 C1382 1.350 . S
C1386 C1383 1.463 . S
C1386 N1390 1.427 . S
C1387 H1377 0.929 . S
C1387 C1385 1.433 . S
C1387 N1390 1.384 . S
C1388 H1379 0.930 . S
C1388 C1380 1.380 . S
C1388 C1383 1.350 . S
C1389 H1376 0.929 . S
C1389 C1381 1.433 . S
C1389 N1391 1.384 . S
N1390 C1386 1.427 . S
N1390 C1387 1.384 . S
N1391 C1383 1.427 . S
N1391 C1389 1.384 . S
H1392 C1398 0.930 . S
H1393 C1402 0.930 . S
H1394 C1407 0.929 . S
H1395 C1405 0.929 . S
H1396 C1400 0.929 . S
H1397 C1406 0.929 . S
C1398 H1392 0.930 . S
C1398 C1399 1.367 . S
C1398 C1406 1.378 . S
C1399 C1398 1.367 . S
C1399 C1407 1.433 . S
C1400 H1396 0.929 . S
C1400 C1402 1.378 . S
C1400 C1404 1.350 . S
C1401 C1404 1.463 . S
C1401 C1406 1.350 . S
C1401 N1409 1.427 . S
C1402 H1393 0.930 . S
C1402 C1400 1.378 . S
C1402 C1403 1.367 . S
C1403 C1402 1.367 . S
C1403 C1405 1.433 . S
C1404 C1400 1.350 . S
C1404 C1401 1.463 . S
C1404 N1408 1.427 . S
C1405 H1395 0.929 . S
C1405 C1403 1.433 . S
C1405 N1408 1.384 . S
C1406 H1397 0.929 . S
C1406 C1398 1.378 . S
C1406 C1401 1.350 . S
C1407 H1394 0.929 . S
C1407 C1399 1.433 . S
C1407 N1409 1.384 . S
N1408 C1404 1.427 . S
N1408 C1405 1.384 . S
N1409 C1401 1.427 . S
N1409 C1407 1.384 . S
H1410 C1416 0.930 . S
H1411 C1420 0.930 . S
H1412 C1425 0.929 . S
H1413 C1423 0.929 . S
H1414 C1418 0.929 . S
H1415 C1424 0.929 . S
C1416 H1410 0.930 . S
C1416 C1417 1.367 . S
C1416 C1424 1.378 . S
C1417 C1416 1.367 . S
C1417 C1425 1.433 . S
C1418 H1414 0.929 . S
C1418 C1420 1.378 . S
C1418 C1422 1.350 . S
C1419 C1422 1.463 . S
C1419 C1424 1.350 . S
C1419 N1427 1.427 . S
C1420 H1411 0.930 . S
C1420 C1418 1.378 . S
C1420 C1421 1.367 . S
C1421 C1420 1.367 . S
C1421 C1423 1.433 . S
C1422 C1418 1.350 . S
C1422 C1419 1.463 . S
C1422 N1426 1.427 . S
C1423 H1413 0.929 . S
C1423 C1421 1.433 . S
C1423 N1426 1.384 . S
C1424 H1415 0.929 . S
C1424 C1416 1.378 . S
C1424 C1419 1.350 . S
C1425 H1412 0.929 . S
C1425 C1417 1.433 . S
C1425 N1427 1.384 . S
N1426 C1422 1.427 . S
N1426 C1423 1.384 . S
N1427 C1419 1.427 . S
N1427 C1425 1.384 . S
H1428 C1434 0.930 . S
H1429 C1438 0.930 . S
H1430 C1443 0.929 . S
H1431 C1441 0.929 . S
H1432 C1436 0.929 . S
H1433 C1442 0.929 . S
C1434 H1428 0.930 . S
C1434 C1435 1.367 . S
C1434 C1442 1.378 . S
C1435 C1434 1.367 . S
C1435 C1443 1.433 . S
C1436 H1432 0.929 . S
C1436 C1438 1.378 . S
C1436 C1440 1.350 . S
C1437 C1440 1.463 . S
C1437 C1442 1.350 . S
C1437 N1445 1.427 . S
C1438 H1429 0.930 . S
C1438 C1436 1.378 . S
C1438 C1439 1.367 . S
C1439 C1438 1.367 . S
C1439 C1441 1.433 . S
C1440 C1436 1.350 . S
C1440 C1437 1.463 . S
C1440 N1444 1.427 . S
C1441 H1431 0.929 . S
C1441 C1439 1.433 . S
C1441 N1444 1.384 . S
C1442 H1433 0.929 . S
C1442 C1434 1.378 . S
C1442 C1437 1.350 . S
C1443 H1430 0.929 . S
C1443 C1435 1.433 . S
C1443 N1445 1.384 . S
N1444 C1440 1.427 . S
N1444 C1441 1.384 . S
N1445 C1437 1.427 . S
N1445 C1443 1.384 . S
H1446 C1452 0.930 . S
H1447 C1456 0.930 . S
H1448 C1461 0.929 . S
H1449 C1459 0.929 . S
H1450 C1454 0.929 . S
H1451 C1460 0.929 . S
C1452 H1446 0.930 . S
C1452 C1453 1.367 . S
C1452 C1460 1.378 . S
C1453 C1452 1.367 . S
C1453 C1461 1.433 . S
C1454 H1450 0.929 . S
C1454 C1456 1.378 . S
C1454 C1458 1.350 . S
C1455 C1458 1.463 . S
C1455 C1460 1.350 . S
C1455 N1463 1.427 . S
C1456 H1447 0.930 . S
C1456 C1454 1.378 . S
C1456 C1457 1.367 . S
C1457 C1456 1.367 . S
C1457 C1459 1.433 . S
C1458 C1454 1.350 . S
C1458 C1455 1.463 . S
C1458 N1462 1.427 . S
C1459 H1449 0.929 . S
C1459 C1457 1.433 . S
C1459 N1462 1.384 . S
C1460 H1451 0.929 . S
C1460 C1452 1.378 . S
C1460 C1455 1.350 . S
C1461 H1448 0.929 . S
C1461 C1453 1.433 . S
C1461 N1463 1.384 . S
N1462 C1458 1.427 . S
N1462 C1459 1.384 . S
N1463 C1455 1.427 . S
N1463 C1461 1.384 . S
H1464 C1470 0.930 . S
H1465 C1474 0.930 . S
H1466 C1479 0.929 . S
H1467 C1477 0.929 . S
H1468 C1472 0.929 . S
H1469 C1478 0.929 . S
C1470 H1464 0.930 . S
C1470 C1471 1.367 . S
C1470 C1478 1.378 . S
C1471 C1470 1.367 . S
C1471 C1479 1.433 . S
C1472 H1468 0.929 . S
C1472 C1474 1.378 . S
C1472 C1476 1.350 . S
C1473 C1476 1.463 . S
C1473 C1478 1.350 . S
C1473 N1481 1.427 . S
C1474 H1465 0.930 . S
C1474 C1472 1.378 . S
C1474 C1475 1.367 . S
C1475 C1474 1.367 . S
C1475 C1477 1.433 . S
C1476 C1472 1.350 . S
C1476 C1473 1.463 . S
C1476 N1480 1.427 . S
C1477 H1467 0.929 . S
C1477 C1475 1.433 . S
C1477 N1480 1.384 . S
C1478 H1469 0.929 . S
C1478 C1470 1.378 . S
C1478 C1473 1.350 . S
C1479 H1466 0.929 . S
C1479 C1471 1.433 . S
C1479 N1481 1.384 . S
N1480 C1476 1.427 . S
N1480 C1477 1.384 . S
N1481 C1473 1.427 . S
N1481 C1479 1.384 . S
H1482 C1488 0.930 . S
H1483 C1492 0.930 . S
H1484 C1497 0.929 . S
H1485 C1495 0.929 . S
H1486 C1490 0.929 . S
H1487 C1496 0.929 . S
C1488 H1482 0.930 . S
C1488 C1489 1.367 . S
C1488 C1496 1.378 . S
C1489 C1488 1.367 . S
C1489 C1497 1.433 . S
C1490 H1486 0.929 . S
C1490 C1492 1.378 . S
C1490 C1494 1.350 . S
C1491 C1494 1.463 . S
C1491 C1496 1.350 . S
C1491 N1499 1.427 . S
C1492 H1483 0.930 . S
C1492 C1490 1.378 . S
C1492 C1493 1.367 . S
C1493 C1492 1.367 . S
C1493 C1495 1.433 . S
C1494 C1490 1.350 . S
C1494 C1491 1.463 . S
C1494 N1498 1.427 . S
C1495 H1485 0.929 . S
C1495 C1493 1.433 . S
C1495 N1498 1.384 . S
C1496 H1487 0.929 . S
C1496 C1488 1.378 . S
C1496 C1491 1.350 . S
C1497 H1484 0.929 . S
C1497 C1489 1.433 . S
C1497 N1499 1.384 . S
N1498 C1494 1.427 . S
N1498 C1495 1.384 . S
N1499 C1491 1.427 . S
N1499 C1497 1.384 . S
H1500 C1506 0.930 . S
H1501 C1510 0.930 . S
H1502 C1515 0.929 . S
H1503 C1513 0.929 . S
H1504 C1508 0.929 . S
H1505 C1514 0.929 . S
C1506 H1500 0.930 . S
C1506 C1507 1.367 . S
C1506 C1514 1.378 . S
C1507 C1506 1.367 . S
C1507 C1515 1.433 . S
C1508 H1504 0.929 . S
C1508 C1510 1.378 . S
C1508 C1512 1.350 . S
C1509 C1512 1.463 . S
C1509 C1514 1.350 . S
C1509 N1517 1.427 . S
C1510 H1501 0.930 . S
C1510 C1508 1.378 . S
C1510 C1511 1.367 . S
C1511 C1510 1.367 . S
C1511 C1513 1.433 . S
C1512 C1508 1.350 . S
C1512 C1509 1.463 . S
C1512 N1516 1.427 . S
C1513 H1503 0.929 . S
C1513 C1511 1.433 . S
C1513 N1516 1.384 . S
C1514 H1505 0.929 . S
C1514 C1506 1.378 . S
C1514 C1509 1.350 . S
C1515 H1502 0.929 . S
C1515 C1507 1.433 . S
C1515 N1517 1.384 . S
N1516 C1512 1.427 . S
N1516 C1513 1.384 . S
N1517 C1509 1.427 . S
N1517 C1515 1.384 . S
H1518 C1524 0.930 . S
H1519 C1528 0.930 . S
H1520 C1533 0.929 . S
H1521 C1531 0.929 . S
H1522 C1526 0.929 . S
H1523 C1532 0.929 . S
C1524 H1518 0.930 . S
C1524 C1525 1.367 . S
C1524 C1532 1.378 . S
C1525 C1524 1.367 . S
C1525 C1533 1.433 . S
C1526 H1522 0.929 . S
C1526 C1528 1.378 . S
C1526 C1530 1.350 . S
C1527 C1530 1.463 . S
C1527 C1532 1.350 . S
C1527 N1535 1.427 . S
C1528 H1519 0.930 . S
C1528 C1526 1.378 . S
C1528 C1529 1.367 . S
C1529 C1528 1.367 . S
C1529 C1531 1.433 . S
C1530 C1526 1.350 . S
C1530 C1527 1.463 . S
C1530 N1534 1.427 . S
C1531 H1521 0.929 . S
C1531 C1529 1.433 . S
C1531 N1534 1.384 . S
C1532 H1523 0.929 . S
C1532 C1524 1.378 . S
C1532 C1527 1.350 . S
C1533 H1520 0.929 . S
C1533 C1525 1.433 . S
C1533 N1535 1.384 . S
N1534 C1530 1.427 . S
N1534 C1531 1.384 . S
N1535 C1527 1.427 . S
N1535 C1533 1.384 . S
H1536 C1542 0.930 . S
H1537 C1546 0.930 . S
H1538 C1551 0.929 . S
H1539 C1549 0.929 . S
H1540 C1544 0.929 . S
H1541 C1550 0.929 . S
C1542 H1536 0.930 . S
C1542 C1543 1.367 . S
C1542 C1550 1.378 . S
C1543 C1542 1.367 . S
C1543 C1551 1.433 . S
C1544 H1540 0.929 . S
C1544 C1546 1.378 . S
C1544 C1548 1.350 . S
C1545 C1548 1.463 . S
C1545 C1550 1.350 . S
C1545 N1553 1.427 . S
C1546 H1537 0.930 . S
C1546 C1544 1.378 . S
C1546 C1547 1.367 . S
C1547 C1546 1.367 . S
C1547 C1549 1.433 . S
C1548 C1544 1.350 . S
C1548 C1545 1.463 . S
C1548 N1552 1.427 . S
C1549 H1539 0.929 . S
C1549 C1547 1.433 . S
C1549 N1552 1.384 . S
C1550 H1541 0.929 . S
C1550 C1542 1.378 . S
C1550 C1545 1.350 . S
C1551 H1538 0.929 . S
C1551 C1543 1.433 . S
C1551 N1553 1.384 . S
N1552 C1548 1.427 . S
N1552 C1549 1.384 . S
N1553 C1545 1.427 . S
N1553 C1551 1.384 . S
H1554 C1560 0.930 . S
H1555 C1564 0.930 . S
H1556 C1569 0.929 . S
H1557 C1567 0.929 . S
H1558 C1562 0.929 . S
H1559 C1568 0.929 . S
C1560 H1554 0.930 . S
C1560 C1561 1.367 . S
C1560 C1568 1.378 . S
C1561 C1560 1.367 . S
C1561 C1569 1.433 . S
C1562 H1558 0.929 . S
C1562 C1564 1.378 . S
C1562 C1566 1.350 . S
C1563 C1566 1.463 . S
C1563 C1568 1.350 . S
C1563 N1571 1.427 . S
C1564 H1555 0.930 . S
C1564 C1562 1.378 . S
C1564 C1565 1.367 . S
C1565 C1564 1.367 . S
C1565 C1567 1.433 . S
C1566 C1562 1.350 . S
C1566 C1563 1.463 . S
C1566 N1570 1.427 . S
C1567 H1557 0.929 . S
C1567 C1565 1.433 . S
C1567 N1570 1.384 . S
C1568 H1559 0.929 . S
C1568 C1560 1.378 . S
C1568 C1563 1.350 . S
C1569 H1556 0.929 . S
C1569 C1561 1.433 . S
C1569 N1571 1.384 . S
N1570 C1566 1.427 . S
N1570 C1567 1.384 . S
N1571 C1563 1.427 . S
N1571 C1569 1.384 . S
H1572 C1578 0.930 . S
H1573 C1582 0.930 . S
H1574 C1587 0.929 . S
H1575 C1585 0.929 . S
H1576 C1580 0.929 . S
H1577 C1586 0.929 . S
C1578 H1572 0.930 . S
C1578 C1579 1.367 . S
C1578 C1586 1.378 . S
C1579 C1578 1.367 . S
C1579 C1587 1.433 . S
C1580 H1576 0.929 . S
C1580 C1582 1.378 . S
C1580 C1584 1.350 . S
C1581 C1584 1.463 . S
C1581 C1586 1.350 . S
C1581 N1589 1.427 . S
C1582 H1573 0.930 . S
C1582 C1580 1.378 . S
C1582 C1583 1.367 . S
C1583 C1582 1.367 . S
C1583 C1585 1.433 . S
C1584 C1580 1.350 . S
C1584 C1581 1.463 . S
C1584 N1588 1.427 . S
C1585 H1575 0.929 . S
C1585 C1583 1.433 . S
C1585 N1588 1.384 . S
C1586 H1577 0.929 . S
C1586 C1578 1.378 . S
C1586 C1581 1.350 . S
C1587 H1574 0.929 . S
C1587 C1579 1.433 . S
C1587 N1589 1.384 . S
N1588 C1584 1.427 . S
N1588 C1585 1.384 . S
N1589 C1581 1.427 . S
N1589 C1587 1.384 . S
H1590 C1596 0.930 . S
H1591 C1600 0.930 . S
H1592 C1605 0.929 . S
H1593 C1603 0.929 . S
H1594 C1598 0.929 . S
H1595 C1604 0.929 . S
C1596 H1590 0.930 . S
C1596 C1597 1.367 . S
C1596 C1604 1.378 . S
C1597 C1596 1.367 . S
C1597 C1605 1.433 . S
C1598 H1594 0.929 . S
C1598 C1600 1.378 . S
C1598 C1602 1.350 . S
C1599 C1602 1.463 . S
C1599 C1604 1.350 . S
C1599 N1607 1.427 . S
C1600 H1591 0.930 . S
C1600 C1598 1.378 . S
C1600 C1601 1.367 . S
C1601 C1600 1.367 . S
C1601 C1603 1.433 . S
C1602 C1598 1.350 . S
C1602 C1599 1.463 . S
C1602 N1606 1.427 . S
C1603 H1593 0.929 . S
C1603 C1601 1.433 . S
C1603 N1606 1.384 . S
C1604 H1595 0.929 . S
C1604 C1596 1.378 . S
C1604 C1599 1.350 . S
C1605 H1592 0.929 . S
C1605 C1597 1.433 . S
C1605 N1607 1.384 . S
N1606 C1602 1.427 . S
N1606 C1603 1.384 . S
N1607 C1599 1.427 . S
N1607 C1605 1.384 . S
H1608 C1614 0.930 . S
H1609 C1618 0.930 . S
H1610 C1623 0.929 . S
H1611 C1621 0.929 . S
H1612 C1616 0.929 . S
H1613 C1622 0.929 . S
C1614 H1608 0.930 . S
C1614 C1615 1.367 . S
C1614 C1622 1.378 . S
C1615 C1614 1.367 . S
C1615 C1623 1.433 . S
C1616 H1612 0.929 . S
C1616 C1618 1.378 . S
C1616 C1620 1.350 . S
C1617 C1620 1.463 . S
C1617 C1622 1.350 . S
C1617 N1625 1.427 . S
C1618 H1609 0.930 . S
C1618 C1616 1.378 . S
C1618 C1619 1.367 . S
C1619 C1618 1.367 . S
C1619 C1621 1.433 . S
C1620 C1616 1.350 . S
C1620 C1617 1.463 . S
C1620 N1624 1.427 . S
C1621 H1611 0.929 . S
C1621 C1619 1.433 . S
C1621 N1624 1.384 . S
C1622 H1613 0.929 . S
C1622 C1614 1.378 . S
C1622 C1617 1.350 . S
C1623 H1610 0.929 . S
C1623 C1615 1.433 . S
C1623 N1625 1.384 . S
N1624 C1620 1.427 . S
N1624 C1621 1.384 . S
N1625 C1617 1.427 . S
N1625 C1623 1.384 . S
H1626 C1632 0.930 . S
H1627 C1636 0.930 . S
H1628 C1641 0.929 . S
H1629 C1639 0.929 . S
H1630 C1634 0.929 . S
H1631 C1640 0.929 . S
C1632 H1626 0.930 . S
C1632 C1633 1.367 . S
C1632 C1640 1.378 . S
C1633 C1632 1.367 . S
C1633 C1641 1.433 . S
C1634 H1630 0.929 . S
C1634 C1636 1.378 . S
C1634 C1638 1.350 . S
C1635 C1638 1.463 . S
C1635 C1640 1.350 . S
C1635 N1643 1.427 . S
C1636 H1627 0.930 . S
C1636 C1634 1.378 . S
C1636 C1637 1.367 . S
C1637 C1636 1.367 . S
C1637 C1639 1.433 . S
C1638 C1634 1.350 . S
C1638 C1635 1.463 . S
C1638 N1642 1.427 . S
C1639 H1629 0.929 . S
C1639 C1637 1.433 . S
C1639 N1642 1.384 . S
C1640 H1631 0.929 . S
C1640 C1632 1.378 . S
C1640 C1635 1.350 . S
C1641 H1628 0.929 . S
C1641 C1633 1.433 . S
C1641 N1643 1.384 . S
N1642 C1638 1.427 . S
N1642 C1639 1.384 . S
N1643 C1635 1.427 . S
N1643 C1641 1.384 . S
H1644 C1650 0.930 . S
H1645 C1654 0.930 . S
H1646 C1659 0.929 . S
H1647 C1657 0.929 . S
H1648 C1652 0.929 . S
H1649 C1658 0.929 . S
C1650 H1644 0.930 . S
C1650 C1651 1.367 . S
C1650 C1658 1.378 . S
C1651 C1650 1.367 . S
C1651 C1659 1.433 . S
C1652 H1648 0.929 . S
C1652 C1654 1.378 . S
C1652 C1656 1.350 . S
C1653 C1656 1.463 . S
C1653 C1658 1.350 . S
C1653 N1661 1.427 . S
C1654 H1645 0.930 . S
C1654 C1652 1.378 . S
C1654 C1655 1.367 . S
C1655 C1654 1.367 . S
C1655 C1657 1.433 . S
C1656 C1652 1.350 . S
C1656 C1653 1.463 . S
C1656 N1660 1.427 . S
C1657 H1647 0.929 . S
C1657 C1655 1.433 . S
C1657 N1660 1.384 . S
C1658 H1649 0.929 . S
C1658 C1650 1.378 . S
C1658 C1653 1.350 . S
C1659 H1646 0.929 . S
C1659 C1651 1.433 . S
C1659 N1661 1.384 . S
N1660 C1656 1.427 . S
N1660 C1657 1.384 . S
N1661 C1653 1.427 . S
N1661 C1659 1.384 . S
H1662 C1668 0.930 . S
H1663 C1672 0.930 . S
H1664 C1677 0.929 . S
H1665 C1675 0.929 . S
H1666 C1670 0.929 . S
H1667 C1676 0.929 . S
C1668 H1662 0.930 . S
C1668 C1669 1.367 . S
C1668 C1676 1.378 . S
C1669 C1668 1.367 . S
C1669 C1677 1.433 . S
C1670 H1666 0.929 . S
C1670 C1672 1.378 . S
C1670 C1674 1.350 . S
C1671 C1674 1.463 . S
C1671 C1676 1.350 . S
C1671 N1679 1.427 . S
C1672 H1663 0.930 . S
C1672 C1670 1.378 . S
C1672 C1673 1.367 . S
C1673 C1672 1.367 . S
C1673 C1675 1.433 . S
C1674 C1670 1.350 . S
C1674 C1671 1.463 . S
C1674 N1678 1.427 . S
C1675 H1665 0.929 . S
C1675 C1673 1.433 . S
C1675 N1678 1.384 . S
C1676 H1667 0.929 . S
C1676 C1668 1.378 . S
C1676 C1671 1.350 . S
C1677 H1664 0.929 . S
C1677 C1669 1.433 . S
C1677 N1679 1.384 . S
N1678 C1674 1.427 . S
N1678 C1675 1.384 . S
N1679 C1671 1.427 . S
N1679 C1677 1.384 . S
H1680 C1686 0.930 . S
H1681 C1690 0.930 . S
H1682 C1695 0.929 . S
H1683 C1693 0.929 . S
H1684 C1688 0.929 . S
H1685 C1694 0.929 . S
C1686 H1680 0.930 . S
C1686 C1687 1.367 . S
C1686 C1694 1.378 . S
C1687 C1686 1.367 . S
C1687 C1695 1.433 . S
C1688 H1684 0.929 . S
C1688 C1690 1.378 . S
C1688 C1692 1.350 . S
C1689 C1692 1.463 . S
C1689 C1694 1.350 . S
C1689 N1697 1.427 . S
C1690 H1681 0.930 . S
C1690 C1688 1.378 . S
C1690 C1691 1.367 . S
C1691 C1690 1.367 . S
C1691 C1693 1.433 . S
C1692 C1688 1.350 . S
C1692 C1689 1.463 . S
C1692 N1696 1.427 . S
C1693 H1683 0.929 . S
C1693 C1691 1.433 . S
C1693 N1696 1.384 . S
C1694 H1685 0.929 . S
C1694 C1686 1.378 . S
C1694 C1689 1.350 . S
C1695 H1682 0.929 . S
C1695 C1687 1.433 . S
C1695 N1697 1.384 . S
N1696 C1692 1.427 . S
N1696 C1693 1.384 . S
N1697 C1689 1.427 . S
N1697 C1695 1.384 . S
H1698 C1704 0.930 . S
H1699 C1708 0.930 . S
H1700 C1713 0.929 . S
H1701 C1711 0.929 . S
H1702 C1706 0.929 . S
H1703 C1712 0.929 . S
C1704 H1698 0.930 . S
C1704 C1705 1.367 . S
C1704 C1712 1.378 . S
C1705 C1704 1.367 . S
C1705 C1713 1.433 . S
C1706 H1702 0.929 . S
C1706 C1708 1.378 . S
C1706 C1710 1.350 . S
C1707 C1710 1.463 . S
C1707 C1712 1.350 . S
C1707 N1715 1.427 . S
C1708 H1699 0.930 . S
C1708 C1706 1.378 . S
C1708 C1709 1.367 . S
C1709 C1708 1.367 . S
C1709 C1711 1.433 . S
C1710 C1706 1.350 . S
C1710 C1707 1.463 . S
C1710 N1714 1.427 . S
C1711 H1701 0.929 . S
C1711 C1709 1.433 . S
C1711 N1714 1.384 . S
C1712 H1703 0.929 . S
C1712 C1704 1.378 . S
C1712 C1707 1.350 . S
C1713 H1700 0.929 . S
C1713 C1705 1.433 . S
C1713 N1715 1.384 . S
N1714 C1710 1.427 . S
N1714 C1711 1.384 . S
N1715 C1707 1.427 . S
N1715 C1713 1.384 . S
H1716 C1722 0.930 . S
H1717 C1726 0.930 . S
H1718 C1731 0.929 . S
H1719 C1729 0.929 . S
H1720 C1724 0.929 . S
H1721 C1730 0.929 . S
C1722 H1716 0.930 . S
C1722 C1723 1.367 . S
C1722 C1730 1.378 . S
C1723 C1722 1.367 . S
C1723 C1731 1.433 . S
C1724 H1720 0.929 . S
C1724 C1726 1.378 . S
C1724 C1728 1.350 . S
C1725 C1728 1.463 . S
C1725 C1730 1.350 . S
C1725 N1733 1.427 . S
C1726 H1717 0.930 . S
C1726 C1724 1.378 . S
C1726 C1727 1.367 . S
C1727 C1726 1.367 . S
C1727 C1729 1.433 . S
C1728 C1724 1.350 . S
C1728 C1725 1.463 . S
C1728 N1732 1.427 . S
C1729 H1719 0.929 . S
C1729 C1727 1.433 . S
C1729 N1732 1.384 . S
C1730 H1721 0.929 . S
C1730 C1722 1.378 . S
C1730 C1725 1.350 . S
C1731 H1718 0.929 . S
C1731 C1723 1.433 . S
C1731 N1733 1.384 . S
N1732 C1728 1.427 . S
N1732 C1729 1.384 . S
N1733 C1725 1.427 . S
N1733 C1731 1.384 . S
H1734 C1740 0.930 . S
H1735 C1744 0.930 . S
H1736 C1749 0.929 . S
H1737 C1747 0.929 . S
H1738 C1742 0.929 . S
H1739 C1748 0.929 . S
C1740 H1734 0.930 . S
C1740 C1741 1.367 . S
C1740 C1748 1.378 . S
C1741 C1740 1.367 . S
C1741 C1749 1.433 . S
C1742 H1738 0.929 . S
C1742 C1744 1.378 . S
C1742 C1746 1.350 . S
C1743 C1746 1.463 . S
C1743 C1748 1.350 . S
C1743 N1751 1.427 . S
C1744 H1735 0.930 . S
C1744 C1742 1.378 . S
C1744 C1745 1.367 . S
C1745 C1744 1.367 . S
C1745 C1747 1.433 . S
C1746 C1742 1.350 . S
C1746 C1743 1.463 . S
C1746 N1750 1.427 . S
C1747 H1737 0.929 . S
C1747 C1745 1.433 . S
C1747 N1750 1.384 . S
C1748 H1739 0.929 . S
C1748 C1740 1.378 . S
C1748 C1743 1.350 . S
C1749 H1736 0.929 . S
C1749 C1741 1.433 . S
C1749 N1751 1.384 . S
N1750 C1746 1.427 . S
N1750 C1747 1.384 . S
N1751 C1743 1.427 . S
N1751 C1749 1.384 . S
H1752 C1758 0.930 . S
H1753 C1762 0.930 . S
H1754 C1767 0.929 . S
H1755 C1765 0.929 . S
H1756 C1760 0.929 . S
H1757 C1766 0.929 . S
C1758 H1752 0.930 . S
C1758 C1759 1.367 . S
C1758 C1766 1.378 . S
C1759 C1758 1.367 . S
C1759 C1767 1.433 . S
C1760 H1756 0.929 . S
C1760 C1762 1.378 . S
C1760 C1764 1.350 . S
C1761 C1764 1.463 . S
C1761 C1766 1.350 . S
C1761 N1769 1.427 . S
C1762 H1753 0.930 . S
C1762 C1760 1.378 . S
C1762 C1763 1.367 . S
C1763 C1762 1.367 . S
C1763 C1765 1.433 . S
C1764 C1760 1.350 . S
C1764 C1761 1.463 . S
C1764 N1768 1.427 . S
C1765 H1755 0.929 . S
C1765 C1763 1.433 . S
C1765 N1768 1.384 . S
C1766 H1757 0.929 . S
C1766 C1758 1.378 . S
C1766 C1761 1.350 . S
C1767 H1754 0.929 . S
C1767 C1759 1.433 . S
C1767 N1769 1.384 . S
N1768 C1764 1.427 . S
N1768 C1765 1.384 . S
N1769 C1761 1.427 . S
N1769 C1767 1.384 . S
H1770 C1776 0.930 . S
H1771 C1780 0.930 . S
H1772 C1785 0.929 . S
H1773 C1783 0.929 . S
H1774 C1778 0.929 . S
H1775 C1784 0.929 . S
C1776 H1770 0.930 . S
C1776 C1777 1.367 . S
C1776 C1784 1.378 . S
C1777 C1776 1.367 . S
C1777 C1785 1.433 . S
C1778 H1774 0.929 . S
C1778 C1780 1.378 . S
C1778 C1782 1.350 . S
C1779 C1782 1.463 . S
C1779 C1784 1.350 . S
C1779 N1787 1.427 . S
C1780 H1771 0.930 . S
C1780 C1778 1.378 . S
C1780 C1781 1.367 . S
C1781 C1780 1.367 . S
C1781 C1783 1.433 . S
C1782 C1778 1.350 . S
C1782 C1779 1.463 . S
C1782 N1786 1.427 . S
C1783 H1773 0.929 . S
C1783 C1781 1.433 . S
C1783 N1786 1.384 . S
C1784 H1775 0.929 . S
C1784 C1776 1.378 . S
C1784 C1779 1.350 . S
C1785 H1772 0.929 . S
C1785 C1777 1.433 . S
C1785 N1787 1.384 . S
N1786 C1782 1.427 . S
N1786 C1783 1.384 . S
N1787 C1779 1.427 . S
N1787 C1785 1.384 . S
H1788 C1794 0.930 . S
H1789 C1798 0.930 . S
H1790 C1803 0.929 . S
H1791 C1801 0.929 . S
H1792 C1796 0.929 . S
H1793 C1802 0.929 . S
C1794 H1788 0.930 . S
C1794 C1795 1.367 . S
C1794 C1802 1.378 . S
C1795 C1794 1.367 . S
C1795 C1803 1.433 . S
C1796 H1792 0.929 . S
C1796 C1798 1.378 . S
C1796 C1800 1.350 . S
C1797 C1800 1.463 . S
C1797 C1802 1.350 . S
C1797 N1805 1.427 . S
C1798 H1789 0.930 . S
C1798 C1796 1.378 . S
C1798 C1799 1.367 . S
C1799 C1798 1.367 . S
C1799 C1801 1.433 . S
C1800 C1796 1.350 . S
C1800 C1797 1.463 . S
C1800 N1804 1.427 . S
C1801 H1791 0.929 . S
C1801 C1799 1.433 . S
C1801 N1804 1.384 . S
C1802 H1793 0.929 . S
C1802 C1794 1.378 . S
C1802 C1797 1.350 . S
C1803 H1790 0.929 . S
C1803 C1795 1.433 . S
C1803 N1805 1.384 . S
N1804 C1800 1.427 . S
N1804 C1801 1.384 . S
N1805 C1797 1.427 . S
N1805 C1803 1.384 . S
H1806 C1812 0.930 . S
H1807 C1816 0.930 . S
H1808 C1821 0.929 . S
H1809 C1819 0.929 . S
H1810 C1814 0.929 . S
H1811 C1820 0.929 . S
C1812 H1806 0.930 . S
C1812 C1813 1.367 . S
C1812 C1820 1.378 . S
C1813 C1812 1.367 . S
C1813 C1821 1.433 . S
C1814 H1810 0.929 . S
C1814 C1816 1.378 . S
C1814 C1818 1.350 . S
C1815 C1818 1.463 . S
C1815 C1820 1.350 . S
C1815 N1823 1.427 . S
C1816 H1807 0.930 . S
C1816 C1814 1.378 . S
C1816 C1817 1.367 . S
C1817 C1816 1.367 . S
C1817 C1819 1.433 . S
C1818 C1814 1.350 . S
C1818 C1815 1.463 . S
C1818 N1822 1.427 . S
C1819 H1809 0.929 . S
C1819 C1817 1.433 . S
C1819 N1822 1.384 . S
C1820 H1811 0.929 . S
C1820 C1812 1.378 . S
C1820 C1815 1.350 . S
C1821 H1808 0.929 . S
C1821 C1813 1.433 . S
C1821 N1823 1.384 . S
N1822 C1818 1.427 . S
N1822 C1819 1.384 . S
N1823 C1815 1.427 . S
N1823 C1821 1.384 . S
C539 C258 1.069 . S
C535 C212 1.121 . S
C553 C194 1.148 . S
C557 C252 1.085 . S
C575 C220 1.203 . S
C571 C185 1.275 . S
C589 C203 1.297 . S
C593 C234 1.207 . S
C611 C272 1.538 . S
C607 C149 1.644 . S
C629 C359 1.128 . S
C625 C158 1.152 . S
C643 C167 1.677 . S
C647 C286 1.586 . S
C665 C354 0.826 . S
C661 C176 0.843 . S
C679 C113 1.684 . S
C683 C310 1.604 . S
C701 C365 1.172 . S
C697 C122 1.202 . S
C715 C131 1.629 . S
C719 C304 1.557 . S
C733 C140 0.884 . S
C737 C350 0.884 . S
C755 C406 0.876 . S
C751 C104 0.883 . S
C769 C86 1.219 . S
C773 C417 1.194 . S
C787 C77 0.946 . S
C791 C402 0.941 . S
C809 C411 1.258 . S
C805 C95 1.276 . S
C823 C41 1.226 1_455 S
C827 C456 1.179 . S
C841 C50 0.472 . S
C845 C515 0.500 . S
C859 C59 1.366 . S
C863 C472 1.273 . S
C877 C68 0.844 . S
C881 C510 0.839 . S
C899 C474 1.317 . S
C895 C5 1.389 . S
C917 C521 0.482 . S
C913 C14 0.432 . S
C931 C23 1.220 . S
C935 C450 1.162 . S
C953 C506 0.800 . S
C949 C32 0.808 . S
C971 C242 1.550 . S
C967 C4 1.577 . S
C985 C16 1.306 . S
C989 C246 1.337 . S
C1003 C22 1.621 . S
C1007 C266 1.574 . S
C1021 C31 1.088 . S
C1025 C261 1.093 . S
C1039 C40 1.617 1_455 S
C1043 C264 1.579 . S
C1061 C250 1.312 . S
C1057 C49 1.287 . S
C1075 C61 1.540 . S
C1079 C248 1.522 . S
C1097 C255 1.071 . S
C1093 C70 1.044 . S
C1115 C318 1.536 . S
C1111 C34 1.559 . S
C1129 C7 1.834 . S
C1133 C368 1.797 . S
C1151 C316 1.281 . S
C1147 C13 1.318 . S
C1169 C352 1.714 . S
C1165 C25 1.747 . S
C1183 C52 1.241 . S
C1187 C294 1.234 . S
C1205 C370 1.781 . S
C1201 C58 1.827 . S
C1223 C300 1.504 . S
C1219 C67 1.522 . S
C1241 C346 1.722 . S
C1237 C43 1.762 1_455 S
C1259 C338 1.510 . S
C1255 C76 1.514 . S
C1273 C88 1.344 . S
C1277 C362 1.357 . S
C1295 C298 1.247 . S
C1291 C79 1.213 . S
C1313 C324 1.394 . S
C1309 C97 1.379 . S
C1327 C103 1.184 . S
C1331 C302 1.209 . S
C1345 C106 1.449 . S
C1349 C356 1.455 . S
C1367 C313 1.465 . S
C1363 C85 1.412 . S
C1385 C307 1.510 . S
C1381 C94 1.444 . S
C1403 C390 1.851 . S
C1399 C112 1.884 . S
C1421 C422 1.524 . S
C1417 C124 1.496 . S
C1435 C133 1.841 . S
C1439 C376 1.850 . S
C1457 C420 1.254 . S
C1453 C139 1.263 . S
C1475 C408 1.826 . S
C1471 C148 1.844 . S
C1489 C157 1.448 . S
C1493 C404 1.460 . S
C1507 C169 1.857 . S
C1511 C414 1.881 . S
C1529 C398 1.188 . S
C1525 C178 1.200 . S
C1547 C463 1.420 . S
C1543 C142 1.380 . S
C1561 C115 1.583 . S
C1565 C524 1.595 . S
C1583 C458 1.190 . S
C1579 C121 1.155 . S
C1601 C508 1.578 . S
C1597 C130 1.541 . S
C1619 C454 1.140 . S
C1615 C160 1.094 . S
C1633 C166 1.532 . S
C1637 C526 1.548 . S
C1655 C469 1.389 . S
C1651 C175 1.361 . S
C1673 C502 1.477 . S
C1669 C151 1.477 . S
C1691 C494 1.648 . S
C1687 C184 1.692 . S
C1705 C196 1.754 . S
C1709 C518 1.697 . S
C1727 C460 1.447 . S
C1723 C187 1.463 . S
C1741 C205 1.816 . S
C1745 C480 1.759 . S
C1763 C442 1.496 . S
C1759 C211 1.534 . S
C1781 C512 1.573 . S
C1777 C214 1.595 . S
C1799 C428 1.478 . S
C1795 C193 1.522 . S
C1813 C202 1.456 . S
C1817 C466 1.423 . S
