# Generated by pormake.
# Topology pyr, (3,6)-cn, num edge types: 1
# Building blocks:
#     Node 0, Type 0, BuildingBlock: BETDIP_clean_linker_0, # of connection points: 3
#     Node 1, Type 0, BuildingBlock: BETDIP_clean_linker_0, # of connection points: 3
#     Node 2, Type 0, BuildingBlock: BETDIP_clean_linker_0, # of connection points: 3
#     Node 3, Type 0, BuildingBlock: BETDIP_clean_linker_0, # of connection points: 3
#     Node 4, Type 0, BuildingBlock: BETDIP_clean_linker_0, # of connection points: 3
#     Node 5, Type 0, BuildingBlock: BETDIP_clean_linker_0, # of connection points: 3
#     Node 6, Type 0, BuildingBlock: BETDIP_clean_linker_0, # of connection points: 3
#     Node 7, Type 0, BuildingBlock: BETDIP_clean_linker_0, # of connection points: 3
#     Node 8, Type 1, BuildingBlock: BETFAJ_clean_sbu_0, # of connection points: 6
#     Node 9, Type 1, BuildingBlock: BETFAJ_clean_sbu_0, # of connection points: 6
#     Node 10, Type 1, BuildingBlock: BETFAJ_clean_sbu_0, # of connection points: 6
#     Node 11, Type 1, BuildingBlock: BETFAJ_clean_sbu_0, # of connection points: 6
#     Edge 12, Type (0, 1), BuildingBlock: TEMPAE_clean_linker_10, # of connection points: 2
#     Edge 13, Type (0, 1), BuildingBlock: TEMPAE_clean_linker_10, # of connection points: 2
#     Edge 14, Type (0, 1), BuildingBlock: TEMPAE_clean_linker_10, # of connection points: 2
#     Edge 15, Type (0, 1), BuildingBlock: TEMPAE_clean_linker_10, # of connection points: 2
#     Edge 16, Type (0, 1), BuildingBlock: TEMPAE_clean_linker_10, # of connection points: 2
#     Edge 17, Type (0, 1), BuildingBlock: TEMPAE_clean_linker_10, # of connection points: 2
#     Edge 18, Type (0, 1), BuildingBlock: TEMPAE_clean_linker_10, # of connection points: 2
#     Edge 19, Type (0, 1), BuildingBlock: TEMPAE_clean_linker_10, # of connection points: 2
#     Edge 20, Type (0, 1), BuildingBlock: TEMPAE_clean_linker_10, # of connection points: 2
#     Edge 21, Type (0, 1), BuildingBlock: TEMPAE_clean_linker_10, # of connection points: 2
#     Edge 22, Type (0, 1), BuildingBlock: TEMPAE_clean_linker_10, # of connection points: 2
#     Edge 23, Type (0, 1), BuildingBlock: TEMPAE_clean_linker_10, # of connection points: 2
#     Edge 24, Type (0, 1), BuildingBlock: TEMPAE_clean_linker_10, # of connection points: 2
#     Edge 25, Type (0, 1), BuildingBlock: TEMPAE_clean_linker_10, # of connection points: 2
#     Edge 26, Type (0, 1), BuildingBlock: TEMPAE_clean_linker_10, # of connection points: 2
#     Edge 27, Type (0, 1), BuildingBlock: TEMPAE_clean_linker_10, # of connection points: 2
#     Edge 28, Type (0, 1), BuildingBlock: TEMPAE_clean_linker_10, # of connection points: 2
#     Edge 29, Type (0, 1), BuildingBlock: TEMPAE_clean_linker_10, # of connection points: 2
#     Edge 30, Type (0, 1), BuildingBlock: TEMPAE_clean_linker_10, # of connection points: 2
#     Edge 31, Type (0, 1), BuildingBlock: TEMPAE_clean_linker_10, # of connection points: 2
#     Edge 32, Type (0, 1), BuildingBlock: TEMPAE_clean_linker_10, # of connection points: 2
#     Edge 33, Type (0, 1), BuildingBlock: TEMPAE_clean_linker_10, # of connection points: 2
#     Edge 34, Type (0, 1), BuildingBlock: TEMPAE_clean_linker_10, # of connection points: 2
#     Edge 35, Type (0, 1), BuildingBlock: TEMPAE_clean_linker_10, # of connection points: 2
# Relax obj value: 0.128
# Max RMSD: 0.169
# Mean RMSD: 0.137
data_MOF--net-pyr--node1-BETFAJ_clean_sbu_0--node2-BETDIP_clean_linker_0--edge1-TEMPAE_clean_linker_10
_symmetry_space_group_name_H-M    P1
_symmetry_Int_Tables_number       1
_symmetry_cell_setting            triclinic
loop_
_symmetry_equiv_pos_as_xyz
'x, y, z'
_cell_length_a     38.297145
_cell_length_b     40.500223
_cell_length_c     38.544578
_cell_angle_alpha  93.17683
_cell_angle_beta   86.316298
_cell_angle_gamma 106.45938
loop_
_atom_site_label
_atom_site_type_symbol
_atom_site_fract_x
_atom_site_fract_y
_atom_site_fract_z
_atom_type_partial_charge
H0 H 0.30941 0.3073 0.22319 0.0
H1 H 0.39194 0.2836 0.1546 0.0
H2 H 0.3557 0.22746 0.2485 0.0
H3 H 0.34764 0.36586 0.20469 0.0
C4 C 0.34126 0.35617 0.17828 0.0
C5 C 0.32941 0.29313 0.21788 0.0
C6 C 0.3293 0.26605 0.23903 0.0
C7 C 0.35307 0.30028 0.18819 0.0
C8 C 0.37592 0.2793 0.17896 0.0
C9 C 0.37718 0.2525 0.20035 0.0
C10 C 0.35461 0.24716 0.23108 0.0
N11 N 0.35146 0.3264 0.16569 0.0
H12 H 0.30277 0.94124 0.64845 0.0
H13 H 0.30813 0.89129 0.54747 0.0
H14 H 0.31089 0.83751 0.63967 0.0
H15 H 0.31144 0.94181 0.52661 0.0
C16 C 0.30107 0.95691 0.54669 0.0
C17 C 0.30388 0.91856 0.63258 0.0
C18 C 0.30594 0.8889 0.64836 0.0
C19 C 0.30471 0.91992 0.59637 0.0
C20 C 0.30711 0.8909 0.57553 0.0
C21 C 0.30886 0.86097 0.59113 0.0
C22 C 0.30808 0.8601 0.62753 0.0
N23 N 0.30234 0.9508 0.5824 0.0
H24 H 0.70875 0.41533 0.84128 0.0
H25 H 0.61819 0.32354 0.83442 0.0
H26 H 0.69514 0.33705 0.91523 0.0
H27 H 0.59659 0.35436 0.79496 0.0
C28 C 0.6174 0.37741 0.78707 0.0
C29 C 0.69368 0.39043 0.85098 0.0
C30 C 0.70629 0.37806 0.87999 0.0
C31 C 0.66137 0.37189 0.83467 0.0
C32 C 0.64206 0.33866 0.84736 0.0
C33 C 0.65439 0.32468 0.87626 0.0
C34 C 0.68585 0.34577 0.89248 0.0
N35 N 0.65058 0.38789 0.80569 0.0
H36 H 0.81672 0.63593 0.35677 0.0
H37 H 0.89788 0.73078 0.3344 0.0
H38 H 0.81678 0.72856 0.41746 0.0
H39 H 0.8837 0.70271 0.27549 0.0
C40 C 0.88643 0.67766 0.28145 0.0
C41 C 0.82792 0.66327 0.36236 0.0
C42 C 0.81219 0.67991 0.38956 0.0
C43 C 0.85797 0.68155 0.34175 0.0
C44 C 0.87401 0.71682 0.34958 0.0
C45 C 0.85962 0.73389 0.37744 0.0
C46 C 0.82834 0.7153 0.39661 0.0
N47 N 0.87207 0.66341 0.31407 0.0
H48 H 0.64769 0.79637 0.90136 0.0
H49 H 0.72386 0.77017 0.82697 0.0
H50 H 0.67175 0.84632 0.80289 0.0
H51 H 0.69015 0.71314 0.85049 0.0
C52 C 0.69874 0.72437 0.87593 0.0
C53 C 0.66092 0.79932 0.8756 0.0
C54 C 0.65626 0.82423 0.85345 0.0
C55 C 0.68364 0.77854 0.86521 0.0
C56 C 0.70377 0.78403 0.83335 0.0
C57 C 0.70047 0.80914 0.81115 0.0
C58 C 0.67544 0.82801 0.82073 0.0
N59 N 0.68875 0.75432 0.8883 0.0
H60 H 0.75776 0.14542 0.42905 0.0
H61 H 0.75803 0.22579 0.5068 0.0
H62 H 0.70431 0.22258 0.41156 0.0
H63 H 0.81421 0.21598 0.51653 0.0
C64 C 0.80605 0.18798 0.51525 0.0
C65 C 0.75017 0.16852 0.4376 0.0
C66 C 0.72953 0.18205 0.41658 0.0
C67 C 0.76114 0.18459 0.46972 0.0
C68 C 0.75087 0.21411 0.48133 0.0
C69 C 0.72985 0.22765 0.46067 0.0
C70 C 0.71964 0.21168 0.42817 0.0
N71 N 0.78141 0.16964 0.49026 0.0
H72 H 0.31947 0.65739 0.2226 0.0
H73 H 0.40963 0.74941 0.23021 0.0
H74 H 0.33522 0.73447 0.14695 0.0
H75 H 0.43167 0.71707 0.26863 0.0
C76 C 0.40979 0.69541 0.27785 0.0
C77 C 0.33482 0.68213 0.21273 0.0
C78 C 0.32312 0.69397 0.18289 0.0
C79 C 0.3666 0.70097 0.22964 0.0
C80 C 0.38624 0.73402 0.21675 0.0
C81 C 0.37471 0.74753 0.18709 0.0
C82 C 0.34384 0.7261 0.17027 0.0
N83 N 0.3764 0.6856 0.25958 0.0
H84 H 0.1174 0.32656 0.72172 0.0
H85 H 0.20668 0.41917 0.71839 0.0
H86 H 0.2068 0.33521 0.6456 0.0
H87 H 0.19122 0.42259 0.77583 0.0
C88 C 0.16163 0.41388 0.77739 0.0
C89 C 0.14352 0.34083 0.71029 0.0
C90 C 0.1598 0.32637 0.68165 0.0
C91 C 0.16057 0.37386 0.72443 0.0
C92 C 0.19379 0.39328 0.70868 0.0
C93 C 0.21056 0.37949 0.6801 0.0
C94 C 0.1936 0.34595 0.66727 0.0
N95 N 0.1432 0.38713 0.75379 0.0
Sm96 Sm 0.02171 0.05021 0.4952 0.0
Sm97 Sm 0.01901 1.00939 0.55939 0.0
C98 C 0.0196 0.08512 0.44002 0.0
C99 C 0.0498 0.11013 0.42175 0.0
C100 C 0.04461 0.13939 0.40744 0.0
C101 C 0.07422 0.1637 0.39167 0.0
C102 C 0.10941 0.15915 0.39043 0.0
C103 C 0.11426 0.12971 0.4047 0.0
C104 C 0.08488 0.10556 0.42017 0.0
C105 C 0.08756 0.03992 0.50884 0.0
C106 C 0.05123 0.09106 0.56604 0.0
C107 C 0.01796 0.9641 0.60649 0.0
C108 C 0.98524 0.94041 0.62239 0.0
C109 C 0.98738 0.91473 0.64435 0.0
C110 C 0.95546 0.89332 0.65988 0.0
C111 C 0.92107 0.8975 0.65371 0.0
C112 C 0.91937 0.92301 0.63108 0.0
C113 C 0.95105 0.94402 0.61546 0.0
C114 C 0.96341 0.0397 0.55874 0.0
C115 C 0.97972 0.96717 0.49024 0.0
O116 O 1.01035 0.09481 0.47143 0.0
O117 O 0.02154 0.05331 0.43807 0.0
O118 O 0.05705 1.01803 0.5118 0.0
O119 O 0.0845 0.06805 0.4969 0.0
O120 O 0.03006 0.09092 0.54027 0.0
O121 O 0.05888 0.06244 0.57362 0.0
O122 O 0.0238 0.95829 0.57328 0.0
O123 O 0.02168 0.99666 0.6143 0.0
O124 O 0.97583 1.02553 0.53288 0.0
O125 O 0.97819 0.0357 0.58685 0.0
O126 O 0.9857 0.96616 0.52347 0.0
O127 O 0.99055 0.99624 0.47347 0.0
H128 H 0.01781 0.14351 0.40866 0.0
H129 H 0.06971 0.18617 0.38083 0.0
H130 H 0.1408 0.12502 0.40346 0.0
H131 H 0.08973 0.08321 0.43091 0.0
H132 H 0.01359 0.91145 0.64971 0.0
H133 H 0.95774 0.87367 0.67684 0.0
H134 H 0.89364 0.92758 0.6262 0.0
H135 H 0.9489 0.96364 0.59837 0.0
Sm136 Sm 0.54786 0.04131 0.04487 0.0
Sm137 Sm 0.48317 0.02941 1.01665 0.0
C138 C 0.61083 0.06451 0.07543 0.0
C139 C 0.6238 0.0757 0.11039 0.0
C140 C 0.61086 0.10002 0.13078 0.0
C141 C 0.62376 0.11034 0.16383 0.0
C142 C 0.64946 0.09624 0.17713 0.0
C143 C 0.66208 0.07168 0.15686 0.0
C144 C 0.64946 0.06163 0.12366 0.0
C145 C 0.50137 0.97809 0.06715 0.0
C146 C 0.4881 0.07548 0.08476 0.0
C147 C 0.41963 1.00483 0.98726 0.0
C148 C 0.40474 0.98792 0.95453 0.0
C149 C 0.41037 0.95644 0.94202 0.0
C150 C 0.39596 0.94117 0.91072 0.0
C151 C 0.37614 0.95735 0.89138 0.0
C152 C 0.37027 0.98859 0.90408 0.0
C153 C 0.38429 1.00364 0.93549 0.0
C154 C 0.52931 0.09298 0.995 0.0
C155 C 0.54368 0.99724 0.97572 0.0
O156 O 0.5954 0.08427 0.06014 0.0
O157 O 0.59422 0.03187 0.07076 0.0
O158 O 0.49286 1.00629 0.06698 0.0
O159 O 0.53403 0.98257 0.05351 0.0
O160 O 0.52313 0.07904 0.07893 0.0
O161 O 0.46455 0.05191 0.06712 0.0
O162 O 0.43292 0.98707 1.00742 0.0
O163 O 0.43911 0.03687 0.98575 0.0
O164 O 0.53807 0.06485 0.99485 0.0
O165 O 0.49648 0.08816 1.00844 0.0
O166 O 0.50854 0.99213 0.9826 0.0
O167 O 0.56679 1.0216 0.99298 0.0
H168 H 0.59077 0.11103 0.12127 0.0
H169 H 0.61333 0.12903 0.17918 0.0
H170 H 0.68206 0.06063 0.16652 0.0
H171 H 0.65973 0.04284 0.1083 0.0
H172 H 0.42611 0.94378 0.95619 0.0
H173 H 0.40106 0.9172 0.9012 0.0
H174 H 0.35484 1.00138 0.88965 0.0
H175 H 0.3794 0.02776 0.94481 0.0
Sm176 Sm 0.51013 0.50867 0.51064 0.0
Sm177 Sm 0.50942 0.56507 0.55987 0.0
C178 C 0.53132 0.46167 0.47179 0.0
C179 C 0.56005 0.44483 0.47655 0.0
C180 C 0.59705 0.46229 0.46956 0.0
C181 C 0.62423 0.44712 0.47633 0.0
C182 C 0.61493 0.41434 0.49029 0.0
C183 C 0.57806 0.39691 0.49729 0.0
C184 C 0.55086 0.41194 0.49033 0.0
C185 C 0.44309 0.50003 0.54509 0.0
C186 C 0.53923 0.50588 0.59118 0.0
C187 C 0.49129 0.61415 0.59821 0.0
C188 C 0.47071 0.63818 0.59053 0.0
C189 C 0.43846 0.6267 0.57246 0.0
C190 C 0.41965 0.64988 0.56433 0.0
C191 C 0.43297 0.68502 0.57376 0.0
C192 C 0.46577 0.69651 0.59109 0.0
C193 C 0.48436 0.67323 0.59955 0.0
C194 C 0.57627 0.57184 0.5259 0.0
C195 C 0.48079 0.5681 0.47883 0.0
O196 O 0.54248 0.4945 0.46564 0.0
O197 O 0.50297 0.45393 0.49374 0.0
O198 O 0.47357 0.51051 0.55873 0.0
O199 O 0.44727 0.49314 0.51199 0.0
O200 O 0.54083 0.49582 0.55774 0.0
O201 O 0.52473 0.53135 0.60007 0.0
O202 O 0.47273 0.58167 0.5994 0.0
O203 O 0.52306 0.61891 0.58164 0.0
O204 O 0.54593 0.56309 0.51202 0.0
O205 O 0.57225 0.57817 0.55908 0.0
O206 O 0.48143 0.57994 0.51183 0.0
O207 O 0.49259 0.54086 0.47055 0.0
H208 H 0.60514 0.48777 0.45908 0.0
H209 H 0.65249 0.46096 0.47059 0.0
H210 H 0.57018 0.37123 0.50732 0.0
H211 H 0.52264 0.39789 0.49591 0.0
H212 H 0.42767 0.59979 0.56463 0.0
H213 H 0.39433 0.64012 0.55129 0.0
H214 H 0.47717 0.72353 0.59808 0.0
H215 H 0.50954 0.68262 0.61291 0.0
Sm216 Sm 0.01479 0.50016 0.0464 0.0
Sm217 Sm 0.01339 0.57231 1.01877 0.0
C218 C 0.03205 0.44451 0.06318 0.0
C219 C 0.06537 0.43534 0.07063 0.0
C220 C 0.09637 0.44277 0.04764 0.0
C221 C 0.12776 0.43419 0.0557 0.0
C222 C 0.12885 0.41824 0.08699 0.0
C223 C 0.09777 0.41109 0.10995 0.0
C224 C 0.06637 0.4194 0.10176 0.0
C225 C 0.97821 0.53805 0.08831 0.0
C226 C 0.08578 0.5706 0.06032 0.0
C227 C 0.99329 0.62933 1.01596 0.0
C228 C 0.96645 0.64017 0.99724 0.0
C229 C 0.96529 0.67448 1.00033 0.0
C230 C 0.93697 0.68404 0.98623 0.0
C231 C 0.90921 0.65928 0.96921 0.0
C232 C 0.91114 0.62511 0.96529 0.0
C233 C 0.93963 0.61569 0.97905 0.0
C234 C 0.04269 0.53616 0.96679 0.0
C235 C 0.94571 0.50078 0.99996 0.0
O236 O 0.02844 0.45151 0.03105 0.0
O237 O 0.02135 0.46504 0.08621 0.0
O238 O 1.00813 0.5495 0.07141 0.0
O239 O 0.9663 0.50472 0.08388 0.0
O240 O 0.0729 0.53632 0.05921 0.0
O241 O 0.06718 0.5903 0.04814 0.0
O242 O 0.97913 0.6055 0.0385 0.0
O243 O 0.02151 0.62422 0.99763 0.0
O244 O 0.03118 0.5271 0.99709 0.0
O245 O 0.03916 0.56675 0.96287 0.0
O246 O 0.95684 0.53502 1.00348 0.0
O247 O 0.96501 0.48144 1.01153 0.0
H248 H 0.09645 0.45525 0.02348 0.0
H249 H 0.15102 0.43978 0.03726 0.0
H250 H 0.09782 0.39949 0.13459 0.0
H251 H 0.04288 0.41363 0.11996 0.0
H252 H 0.98564 0.69363 1.01453 0.0
H253 H 0.93604 0.7105 0.98978 0.0
H254 H 0.89037 0.6056 0.95191 0.0
H255 H 0.94016 0.58909 0.97637 0.0
C256 C 0.28658 0.2788 0.28706 0.0
C257 C 0.29978 0.25475 0.26651 0.0
C258 C 0.25583 0.26805 0.30999 0.0
C259 C 0.2381 0.23245 0.31256 0.0
C260 C 0.25202 0.20806 0.29279 0.0
C261 C 0.28249 0.2195 0.26992 0.0
C262 C 0.24173 0.29476 0.33069 0.0
C263 C 0.23407 0.1698 0.29498 0.0
C264 C 0.17515 0.19293 0.38816 0.0
C265 C 0.14114 0.18383 0.37312 0.0
C266 C 0.20685 0.21092 0.36954 0.0
C267 C 0.20441 0.22018 0.33512 0.0
C268 C 0.16979 0.21349 0.32082 0.0
C269 C 0.1385 0.19531 0.34001 0.0
C270 C 0.24318 0.2177 0.3858 0.0
C271 C 0.16606 0.22329 0.28431 0.0
H272 H 0.29997 0.30608 0.28484 0.0
H273 H 0.2919 0.2007 0.2537 0.0
H274 H 0.21419 0.29367 0.32242 0.0
H275 H 0.23897 0.28926 0.35877 0.0
H276 H 0.25983 0.32129 0.32726 0.0
H277 H 0.24923 0.15421 0.279 0.0
H278 H 0.23204 0.16207 0.32238 0.0
H279 H 0.20592 0.16346 0.28593 0.0
H280 H 0.17719 0.18471 0.41406 0.0
H281 H 0.11231 0.1883 0.32824 0.0
H282 H 0.25997 0.24454 0.38169 0.0
H283 H 0.25838 0.20029 0.37316 0.0
H284 H 0.24002 0.21328 0.41416 0.0
H285 H 0.1823 0.25027 0.27998 0.0
H286 H 0.13722 0.22053 0.2788 0.0
H287 H 0.17681 0.20648 0.26537 0.0
C288 C 0.34006 0.88152 0.69876 0.0
C289 C 0.31008 0.88964 0.68623 0.0
C290 C 0.34814 0.88763 0.73385 0.0
C291 C 0.32539 0.90182 0.75685 0.0
C292 C 0.29347 0.90747 0.74484 0.0
C293 C 0.28638 0.90164 0.70946 0.0
C294 C 0.38262 0.88159 0.74558 0.0
C295 C 0.26816 0.92186 0.76881 0.0
C296 C 0.34211 0.90822 0.85338 0.0
C297 C 0.36294 0.94264 0.8572 0.0
C298 C 0.32915 0.89446 0.82089 0.0
C299 C 0.33791 0.91557 0.79172 0.0
C300 C 0.35929 0.95025 0.79552 0.0
C301 C 0.37132 0.96341 0.8283 0.0
C302 C 0.30596 0.85756 0.81779 0.0
C303 C 0.3697 0.97344 0.7649 0.0
H304 H 0.35851 0.87243 0.68068 0.0
H305 H 0.26296 0.90752 0.69972 0.0
H306 H 0.40308 0.90677 0.75028 0.0
H307 H 0.37734 0.86802 0.77042 0.0
H308 H 0.39457 0.86628 0.72588 0.0
H309 H 0.24186 0.91955 0.75692 0.0
H310 H 0.26252 0.90841 0.79374 0.0
H311 H 0.28132 0.94952 0.77495 0.0
H312 H 0.33551 0.8923 0.87592 0.0
H313 H 0.3878 0.98992 0.8313 0.0
H314 H 0.31906 0.84273 0.79867 0.0
H315 H 0.27908 0.85665 0.80796 0.0
H316 H 0.30146 0.84467 0.84305 0.0
H317 H 0.38472 0.96188 0.74432 0.0
H318 H 0.38705 0.99957 0.77224 0.0
H319 H 0.34482 0.97609 0.75349 0.0
C320 C 0.63329 0.4275 0.74414 0.0
C321 C 0.60867 0.39759 0.75775 0.0
C322 C 0.62402 0.44554 0.71678 0.0
C323 C 0.58906 0.43397 0.70218 0.0
C324 C 0.56429 0.40378 0.71591 0.0
C325 C 0.5743 0.38623 0.74299 0.0
C326 C 0.65181 0.4772 0.70346 0.0
C327 C 0.52672 0.38993 0.70209 0.0
C328 C 0.54887 0.4968 0.65498 0.0
C329 C 0.55331 0.48812 0.61928 0.0
C330 C 0.56067 0.48001 0.68167 0.0
C331 C 0.5779 0.45349 0.67333 0.0
C332 C 0.58292 0.44489 0.6373 0.0
C333 C 0.57061 0.46197 0.61109 0.0
C334 C 0.55409 0.49046 0.71914 0.0
C335 C 0.60108 0.41721 0.62629 0.0
H336 H 0.65996 0.43689 0.75481 0.0
H337 H 0.55478 0.36332 0.75288 0.0
H338 H 0.65722 0.47389 0.67504 0.0
H339 H 0.64096 0.49986 0.70759 0.0
H340 H 0.67797 0.48273 0.71656 0.0
H341 H 0.5105 0.36622 0.71508 0.0
H342 H 0.51174 0.40973 0.70589 0.0
H343 H 0.52888 0.38403 0.67371 0.0
H344 H 0.53563 0.51669 0.6623 0.0
H345 H 0.57451 0.45461 0.58396 0.0
H346 H 0.58021 0.49842 0.7324 0.0
H347 H 0.53601 0.46813 0.73293 0.0
H348 H 0.54134 0.51199 0.72172 0.0
H349 H 0.62796 0.42286 0.63802 0.0
H350 H 0.60514 0.41476 0.59757 0.0
H351 H 0.5842 0.39205 0.6359 0.0
C352 C 0.89796 0.66446 0.21833 0.0
C353 C 0.89897 0.65654 0.25313 0.0
C354 C 0.90932 0.64484 0.19089 0.0
C355 C 0.92317 0.61721 0.1984 0.0
C356 C 0.92465 0.60937 0.23362 0.0
C357 C 0.91206 0.62881 0.26052 0.0
C358 C 0.90634 0.65361 0.15383 0.0
C359 C 0.94015 0.58084 0.2429 0.0
C360 C 0.92739 0.54706 0.12887 0.0
C361 C 0.96346 0.5587 0.11544 0.0
C362 C 0.91368 0.56614 0.15535 0.0
C363 C 0.93691 0.59708 0.16949 0.0
C364 C 0.97343 0.6088 0.15602 0.0
C365 C 0.98606 0.58977 0.12886 0.0
C366 C 0.8743 0.55323 0.16815 0.0
C367 C 0.99946 0.64112 0.17074 0.0
H368 H 0.88772 0.68581 0.21253 0.0
H369 H 0.9132 0.62275 0.28739 0.0
H370 H 0.93383 0.66161 0.14058 0.0
H371 H 0.89022 0.63051 0.13923 0.0
H372 H 0.89327 0.67468 0.15231 0.0
H373 H 0.9399 0.57828 0.27147 0.0
H374 H 0.92429 0.55593 0.23114 0.0
H375 H 0.96865 0.58583 0.2321 0.0
H376 H 0.90979 0.52315 0.11845 0.0
H377 H 0.01406 0.59881 0.11873 0.0
H378 H 0.86033 0.57349 0.16577 0.0
H379 H 0.87266 0.54745 0.19609 0.0
H380 H 0.85938 0.52961 0.15345 0.0
H381 H 0.98908 0.66364 0.16746 0.0
H382 H 0.02724 0.64627 0.15802 0.0
H383 H 1.00141 0.63886 0.19907 0.0
C384 C 0.4317 0.23913 0.16836 0.0
C385 C 0.39937 0.22826 0.18925 0.0
C386 C 0.45002 0.21551 0.15425 0.0
C387 C 0.43654 0.18031 0.16224 0.0
C388 C 0.40567 0.16959 0.18537 0.0
C389 C 0.38704 0.19339 0.19788 0.0
C390 C 0.48235 0.22785 0.12898 0.0
C391 C 0.39089 0.13245 0.19529 0.0
C392 C 0.44565 0.11147 0.09463 0.0
C393 C 0.47521 0.10165 0.10581 0.0
C394 C 0.43375 0.13775 0.11221 0.0
C395 C 0.45099 0.15391 0.14256 0.0
C396 C 0.48069 0.14387 0.1543 0.0
C397 C 0.49298 0.11822 0.1353 0.0
C398 C 0.40272 0.1483 0.09811 0.0
C399 C 0.49893 0.15971 0.18719 0.0
H400 H 0.44228 0.266 0.16212 0.0
H401 H 0.36182 0.18399 0.21324 0.0
H402 H 0.50533 0.21823 0.1357 0.0
H403 H 0.47466 0.21742 0.10243 0.0
H404 H 0.49187 0.25641 0.12837 0.0
H405 H 0.37101 0.12948 0.218 0.0
H406 H 0.37694 0.11677 0.17303 0.0
H407 H 0.41335 0.12184 0.20157 0.0
H408 H 0.43237 0.09921 0.07135 0.0
H409 H 0.51597 0.1107 0.14381 0.0
H410 H 0.41087 0.17651 0.0945 0.0
H411 H 0.37886 0.14238 0.11695 0.0
H412 H 0.3941 0.13489 0.07283 0.0
H413 H 0.50898 0.18811 0.18558 0.0
H414 H 0.52218 0.14967 0.19235 0.0
H415 H 0.47879 0.15421 0.20964 0.0
C416 C 0.26477 0.97455 0.50375 0.0
C417 C 0.27822 0.97839 0.53706 0.0
C418 C 0.23716 0.98922 0.49633 0.0
C419 C 0.22305 1.00811 0.52295 0.0
C420 C 0.23889 1.01458 0.55567 0.0
C421 C 0.26639 0.99963 0.56233 0.0
C422 C 0.22111 0.98212 0.46101 0.0
C423 C 0.22475 0.0348 0.58463 0.0
C424 C 0.15541 0.05638 0.50339 0.0
C425 C 0.12233 0.03229 0.51258 0.0
C426 C 0.18865 0.04881 0.50614 0.0
C427 C 0.18848 1.01654 0.51854 0.0
C428 C 0.15505 0.99223 0.52795 0.0
C429 C 0.12234 1.00043 0.52482 0.0
C430 C 0.22384 0.07526 0.49594 0.0
C431 C 0.1538 0.95759 0.54154 0.0
H432 H 0.27418 0.9583 0.48418 0.0
H433 H 0.27727 1.0032 0.58799 0.0
H434 H 0.19397 0.96289 0.46327 0.0
H435 H 0.21708 1.00588 0.45103 0.0
H436 H 0.23864 0.97185 0.44176 0.0
H437 H 0.24326 0.04163 0.60657 0.0
H438 H 0.22113 0.05882 0.57489 0.0
H439 H 0.19765 1.01919 0.59472 0.0
H440 H 0.15531 0.08105 0.49388 0.0
H441 H 0.09671 0.98185 0.53198 0.0
H442 H 0.23949 0.06404 0.47568 0.0
H443 H 0.24104 0.08289 0.51874 0.0
H444 H 0.21916 0.09875 0.48587 0.0
H445 H 0.16734 0.94331 0.52222 0.0
H446 H 0.12547 0.94151 0.54725 0.0
H447 H 0.16888 0.96124 0.56574 0.0
C448 C 0.74292 0.4006 0.93388 0.0
C449 C 0.74107 0.39838 0.89736 0.0
C450 C 0.77551 0.41791 0.95048 0.0
C451 C 0.80792 0.43349 0.93047 0.0
C452 C 0.80619 0.43169 0.89362 0.0
C453 C 0.77307 0.41453 0.87768 0.0
C454 C 0.77526 0.41932 0.98969 0.0
C455 C 0.83968 0.44739 0.87084 0.0
C456 C 0.8864 0.50248 0.97416 0.0
C457 C 0.91039 0.48359 0.98224 0.0
C458 C 0.85337 0.48675 0.95752 0.0
C459 C 0.84355 0.45097 0.94806 0.0
C460 C 0.86776 0.43182 0.95593 0.0
C461 C 0.90043 0.44814 0.9729 0.0
C462 C 0.82877 0.50854 0.95028 0.0
C463 C 0.8592 0.39386 0.94629 0.0
H464 H 0.71861 0.38887 0.94972 0.0
H465 H 0.77254 0.41295 0.84956 0.0
H466 H 0.79467 0.40606 0.99833 0.0
H467 H 0.78445 0.44651 0.99954 0.0
H468 H 0.74781 0.40708 1.00174 0.0
H469 H 0.83405 0.44448 0.84275 0.0
H470 H 0.85056 0.47521 0.87784 0.0
H471 H 0.86131 0.43498 0.87524 0.0
H472 H 0.89325 0.52976 0.98113 0.0
H473 H 0.91842 0.43298 0.97861 0.0
H474 H 0.80167 0.49821 0.96377 0.0
H475 H 0.82442 0.50741 0.92202 0.0
H476 H 0.84009 0.53592 0.95893 0.0
H477 H 0.83314 0.3798 0.95967 0.0
H478 H 0.88094 0.38258 0.95332 0.0
H479 H 0.85564 0.38962 0.91789 0.0
C480 C 0.75153 0.63415 0.3947 0.0
C481 C 0.77876 0.6607 0.41033 0.0
C482 C 0.71932 0.61711 0.41351 0.0
C483 C 0.71344 0.62744 0.44858 0.0
C484 C 0.74089 0.65376 0.46472 0.0
C485 C 0.77334 0.66956 0.44567 0.0
C486 C 0.69119 0.58853 0.39555 0.0
C487 C 0.73555 0.66603 0.50188 0.0
C488 C 0.61517 0.61249 0.48368 0.0
C489 C 0.61106 0.5853 0.50587 0.0
C490 C 0.64839 0.62652 0.46508 0.0
C491 C 0.67781 0.61218 0.46783 0.0
C492 C 0.67328 0.58392 0.48952 0.0
C493 C 0.64009 0.57122 0.50883 0.0
C494 C 0.65222 0.65715 0.44303 0.0
C495 C 0.70339 0.56705 0.49222 0.0
H496 H 0.75484 0.62713 0.36742 0.0
H497 H 0.79437 0.68916 0.4586 0.0
H498 H 0.68269 0.56552 0.41177 0.0
H499 H 0.66654 0.59696 0.39206 0.0
H500 H 0.70151 0.58095 0.3696 0.0
H501 H 0.75956 0.68667 0.51073 0.0
H502 H 0.71133 0.67606 0.50444 0.0
H503 H 0.73028 0.64423 0.51951 0.0
H504 H 0.59258 0.62333 0.48155 0.0
H505 H 0.6366 0.54991 0.5258 0.0
H506 H 0.65888 0.65074 0.41551 0.0
H507 H 0.67503 0.67904 0.45188 0.0
H508 H 0.62698 0.66563 0.4442 0.0
H509 H 0.71263 0.55943 0.46589 0.0
H510 H 0.69464 0.54385 0.50822 0.0
H511 H 0.7272 0.58561 0.50401 0.0
C512 C 0.30463 0.3569 0.12666 0.0
C513 C 0.31442 0.36845 0.16058 0.0
C514 C 0.27659 0.36626 0.11144 0.0
C515 C 0.2577 0.38716 0.13086 0.0
C516 C 0.26836 0.3997 0.16472 0.0
C517 C 0.29679 0.39038 0.17903 0.0
C518 C 0.26642 0.35291 0.07505 0.0
C519 C 0.24868 0.42173 0.18645 0.0
C520 C 0.19705 0.43179 0.08889 0.0
C521 C 0.16225 0.40934 0.09603 0.0
C522 C 0.22854 0.42435 0.09895 0.0
C523 C 0.22513 0.394 0.117 0.0
C524 C 0.19019 0.37091 0.12363 0.0
C525 C 0.15927 0.37871 0.11282 0.0
C526 C 0.26537 0.4494 0.09108 0.0
C527 C 0.18535 0.33837 0.14303 0.0
H528 H 0.3184 0.3401 0.11222 0.0
H529 H 0.30436 0.39927 0.20529 0.0
H530 H 0.23881 0.33438 0.07591 0.0
H531 H 0.26542 0.37439 0.05883 0.0
H532 H 0.28592 0.33975 0.06226 0.0
H533 H 0.2615 0.43077 0.21159 0.0
H534 H 0.24825 0.44452 0.17199 0.0
H535 H 0.21993 0.40673 0.19197 0.0
H536 H 0.19968 0.45569 0.07627 0.0
H537 H 0.13262 0.36083 0.11778 0.0
H538 H 0.28419 0.43566 0.07802 0.0
H539 H 0.27753 0.46136 0.1157 0.0
H540 H 0.26365 0.47021 0.07423 0.0
H541 H 0.20167 0.32235 0.12962 0.0
H542 H 0.1564 0.32271 0.14533 0.0
H543 H 0.19546 0.34505 0.16958 0.0
C544 C 0.59819 0.2715 0.88669 0.0
C545 C 0.63556 0.28851 0.89032 0.0
C546 C 0.58092 0.23887 0.90143 0.0
C547 C 0.60068 0.22249 0.92163 0.0
C548 C 0.6383 0.2392 0.92504 0.0
C549 C 0.65515 0.27082 0.90878 0.0
C550 C 0.54119 0.222 0.89553 0.0
C551 C 0.66095 0.22407 0.94675 0.0
C552 C 0.54776 0.15799 0.99078 0.0
C553 C 0.54952 0.12568 0.9765 0.0
C554 C 0.56441 0.18919 0.97363 0.0
C555 C 0.58222 0.18875 0.94012 0.0
C556 C 0.58348 0.15601 0.92523 0.0
C557 C 0.56792 0.12524 0.94373 0.0
C558 C 0.56326 0.22286 0.99179 0.0
C559 C 0.60055 0.15334 0.88922 0.0
H560 H 0.58198 0.28381 0.87275 0.0
H561 H 0.68422 0.28155 0.91087 0.0
H562 H 0.5369 0.19454 0.88713 0.0
H563 H 0.52481 0.22264 0.92022 0.0
H564 H 0.53076 0.23509 0.87562 0.0
H565 H 0.68923 0.24101 0.94886 0.0
H566 H 0.64807 0.21967 0.97336 0.0
H567 H 0.66227 0.19872 0.93526 0.0
H568 H 0.53359 0.15893 1.01592 0.0
H569 H 0.56902 0.10062 0.93191 0.0
H570 H 0.54796 0.23599 0.97651 0.0
H571 H 0.59136 0.24022 0.99363 0.0
H572 H 0.55018 0.21927 1.01842 0.0
H573 H 0.58831 0.16627 0.8706 0.0
H574 H 0.59695 0.12617 0.87997 0.0
H575 H 0.63013 0.16675 0.88894 0.0
C576 C 0.91571 0.78217 0.39091 0.0
C577 C 0.87778 0.77058 0.38803 0.0
C578 C 0.93259 0.81526 0.40508 0.0
C579 C 0.9111 0.83743 0.41672 0.0
C580 C 0.87302 0.82644 0.41248 0.0
C581 C 0.85689 0.79329 0.39817 0.0
C582 C 0.97327 0.82592 0.40896 0.0
C583 C 0.84905 0.8492 0.42431 0.0
C584 C 0.94688 0.90391 0.48945 0.0
C585 C 0.96083 0.93443 0.47134 0.0
C586 C 0.93052 0.8724 0.47202 0.0
C587 C 0.92803 0.87108 0.43542 0.0
C588 C 0.94171 0.9018 0.41697 0.0
C589 C 0.95785 0.93307 0.43511 0.0
C590 C 0.91611 0.8404 0.49284 0.0
C591 C 0.93965 0.90157 0.37798 0.0
H592 H 0.93209 0.7648 0.38347 0.0
H593 H 0.82766 0.78486 0.39553 0.0
H594 H 0.98587 0.85145 0.39769 0.0
H595 H 0.97904 0.82848 0.43699 0.0
H596 H 0.98651 0.807 0.39613 0.0
H597 H 0.82039 0.8379 0.417 0.0
H598 H 0.84928 0.85324 0.45301 0.0
H599 H 0.85973 0.87489 0.41288 0.0
H600 H 0.94888 0.9045 0.51741 0.0
H601 H 0.96861 0.95637 0.42076 0.0
H602 H 0.93038 0.82093 0.48381 0.0
H603 H 0.88668 0.82881 0.48872 0.0
H604 H 0.9197 0.84579 0.52117 0.0
H605 H 0.95495 0.88426 0.36531 0.0
H606 H 0.95097 0.92766 0.36748 0.0
H607 H 0.91091 0.89129 0.37069 0.0
C608 C 0.34918 0.83854 0.54919 0.0
C609 C 0.31702 0.8322 0.57028 0.0
C610 C 0.36493 0.81186 0.53972 0.0
C611 C 0.34781 0.77842 0.55167 0.0
C612 C 0.31249 0.77105 0.56809 0.0
C613 C 0.29754 0.79825 0.57752 0.0
C614 C 0.40225 0.82056 0.52146 0.0
C615 C 0.29277 0.73543 0.58007 0.0
C616 C 0.39379 0.70683 0.53598 0.0
C617 C 0.41193 0.7094 0.56699 0.0
C618 C 0.37299 0.7293 0.53012 0.0
C619 C 0.3703 0.75475 0.55597 0.0
C620 C 0.38883 0.75762 0.58715 0.0
C621 C 0.40918 0.73481 0.59231 0.0
C622 C 0.35329 0.72514 0.49678 0.0
C623 C 0.38681 0.78455 0.61545 0.0
H624 H 0.36412 0.86484 0.54341 0.0
H625 H 0.27229 0.7934 0.59336 0.0
H626 H 0.42314 0.82388 0.54103 0.0
H627 H 0.40499 0.7995 0.50277 0.0
H628 H 0.40806 0.84487 0.50734 0.0
H629 H 0.26316 0.73231 0.58528 0.0
H630 H 0.29637 0.71546 0.56039 0.0
H631 H 0.30431 0.73095 0.60449 0.0
H632 H 0.39583 0.68727 0.51626 0.0
H633 H 0.42235 0.73644 0.61666 0.0
H634 H 0.35504 0.75052 0.48621 0.0
H635 H 0.32401 0.71183 0.50212 0.0
H636 H 0.36433 0.70958 0.4766 0.0
H637 H 0.39589 0.81065 0.60473 0.0
H638 H 0.40394 0.78403 0.63749 0.0
H639 H 0.35821 0.78029 0.62573 0.0
C640 C 0.73912 0.7931 0.76137 0.0
C641 C 0.72666 0.81843 0.78056 0.0
C642 C 0.76901 0.80218 0.73728 0.0
C643 C 0.78631 0.8374 0.73169 0.0
C644 C 0.77212 0.86296 0.7489 0.0
C645 C 0.74271 0.85321 0.77333 0.0
C646 C 0.78342 0.77418 0.71953 0.0
C647 C 0.78936 0.90081 0.74307 0.0
C648 C 0.88727 0.87041 0.70757 0.0
C649 C 0.88714 0.87724 0.6723 0.0
C650 C 0.85468 0.85561 0.7267 0.0
C651 C 0.82108 0.84795 0.71033 0.0
C652 C 0.82084 0.85314 0.67439 0.0
C653 C 0.85391 0.86739 0.65573 0.0
C654 C 0.85609 0.84982 0.7649 0.0
C655 C 0.78558 0.84545 0.65606 0.0
H656 H 0.72642 0.76612 0.7662 0.0
H657 H 0.73373 0.87309 0.78817 0.0
H658 H 0.78839 0.77822 0.69121 0.0
H659 H 0.80993 0.7751 0.7302 0.0
H660 H 0.76444 0.74811 0.72342 0.0
H661 H 0.7727 0.9171 0.75544 0.0
H662 H 0.81668 0.90905 0.75411 0.0
H663 H 0.79321 0.90559 0.71483 0.0
H664 H 0.91264 0.87813 0.72076 0.0
H665 H 0.85358 0.87178 0.62829 0.0
H666 H 0.8398 0.82331 0.77119 0.0
H667 H 0.84399 0.86796 0.78066 0.0
H668 H 0.88442 0.85375 0.77281 0.0
H669 H 0.76804 0.81923 0.66179 0.0
H670 H 0.79023 0.84745 0.62741 0.0
H671 H 0.77033 0.86395 0.66576 0.0
C672 C 0.7441 0.15854 0.35793 0.0
C673 C 0.71827 0.16562 0.3824 0.0
C674 C 0.73416 0.14563 0.32437 0.0
C675 C 0.69749 0.13932 0.31546 0.0
C676 C 0.67109 0.1453 0.34054 0.0
C677 C 0.68187 0.15859 0.3737 0.0
C678 C 0.76308 0.13988 0.29812 0.0
C679 C 0.63163 0.13844 0.3321 0.0
C680 C 0.67525 0.14226 0.22162 0.0
C681 C 0.66302 0.10716 0.21214 0.0
C682 C 0.68745 0.15307 0.25496 0.0
C683 C 0.68691 0.12812 0.27945 0.0
C684 C 0.67493 0.09262 0.2699 0.0
C685 C 0.6633 0.08254 0.23619 0.0
C686 C 0.70048 0.19118 0.26412 0.0
C687 C 0.67358 0.06534 0.29551 0.0
H688 H 0.7723 0.16426 0.36468 0.0
H689 H 0.66188 0.16378 0.39284 0.0
H690 H 0.75474 0.11319 0.28683 0.0
H691 H 0.76629 0.15755 0.2764 0.0
H692 H 0.78993 0.14439 0.30972 0.0
H693 H 0.61417 0.14243 0.35519 0.0
H694 H 0.62936 0.15583 0.31164 0.0
H695 H 0.6209 0.1116 0.32168 0.0
H696 H 0.67542 0.16126 0.20282 0.0
H697 H 0.65356 0.05538 0.22887 0.0
H698 H 0.72838 0.19785 0.27383 0.0
H699 H 0.68247 0.19799 0.28534 0.0
H700 H 0.7008 0.20721 0.24156 0.0
H701 H 0.70081 0.06936 0.30607 0.0
H702 H 0.66472 0.03888 0.28359 0.0
H703 H 0.6544 0.06739 0.31781 0.0
C704 C 0.45263 0.68503 0.32132 0.0
C705 C 0.41751 0.67571 0.30806 0.0
C706 C 0.46172 0.66779 0.34916 0.0
C707 C 0.43519 0.64013 0.3653 0.0
C708 C 0.39947 0.63074 0.35229 0.0
C709 C 0.39117 0.64831 0.32404 0.0
C710 C 0.50014 0.67926 0.36128 0.0
C711 C 0.36979 0.60199 0.36835 0.0
C712 C 0.46945 0.57485 0.41497 0.0
C713 C 0.46766 0.58604 0.45025 0.0
C714 C 0.45865 0.59164 0.38769 0.0
C715 C 0.44527 0.62085 0.39496 0.0
C716 C 0.44313 0.63217 0.43056 0.0
C717 C 0.45413 0.61484 0.45741 0.0
C718 C 0.4622 0.57829 0.3507 0.0
C719 C 0.42901 0.66274 0.44053 0.0
H720 H 0.47346 0.70603 0.30962 0.0
H721 H 0.36387 0.64059 0.31461 0.0
H722 H 0.49983 0.68723 0.38929 0.0
H723 H 0.51244 0.65747 0.35848 0.0
H724 H 0.51777 0.7011 0.34644 0.0
H725 H 0.34336 0.59782 0.35605 0.0
H726 H 0.37782 0.57767 0.36581 0.0
H727 H 0.36601 0.6079 0.39656 0.0
H728 H 0.47978 0.55288 0.40841 0.0
H729 H 0.45227 0.62412 0.48419 0.0
H730 H 0.48141 0.59859 0.33515 0.0
H731 H 0.43544 0.5719 0.33863 0.0
H732 H 0.47217 0.555 0.349 0.0
H733 H 0.44231 0.68465 0.42374 0.0
H734 H 0.43362 0.67142 0.46811 0.0
H735 H 0.39931 0.6557 0.43663 0.0
C736 C 0.1039 0.41964 0.81004 0.0
C737 C 0.14208 0.42907 0.80589 0.0
C738 C 0.0861 0.43509 0.83674 0.0
C739 C 0.10693 0.46055 0.85984 0.0
C740 C 0.14548 0.46971 0.85594 0.0
C741 C 0.16248 0.45394 0.82908 0.0
C742 C 0.04499 0.42454 0.83993 0.0
C743 C 0.16887 0.49665 0.87982 0.0
C744 C 0.06592 0.52795 0.90569 0.0
C745 C 0.05801 0.51593 0.93955 0.0
C746 C 0.08102 0.50981 0.87945 0.0
C747 C 0.08866 0.47881 0.88713 0.0
C748 C 0.08039 0.46637 0.92126 0.0
C749 C 0.06516 0.48506 0.94701 0.0
C750 C 0.08934 0.52415 0.84356 0.0
C751 C 0.08826 0.43364 0.93078 0.0
H752 H 0.08788 0.40045 0.79228 0.0
H753 H 0.19199 0.46132 0.82604 0.0
H754 H 0.03539 0.41588 0.86657 0.0
H755 H 0.03484 0.44701 0.8357 0.0
H756 H 0.03272 0.40348 0.8209 0.0
H757 H 0.19845 0.49997 0.87418 0.0
H758 H 0.16331 0.5218 0.8771 0.0
H759 H 0.16202 0.48951 0.90731 0.0
H760 H 0.06041 0.55177 0.89967 0.0
H761 H 0.0594 0.47578 0.97311 0.0
H762 H 0.07558 0.50457 0.82386 0.0
H763 H 0.11908 0.53044 0.83708 0.0
H764 H 0.08049 0.54778 0.84138 0.0
H765 H 0.07526 0.41211 0.91258 0.0
H766 H 0.07836 0.42635 0.95779 0.0
H767 H 0.11807 0.43695 0.9283 0.0
C768 C 0.64385 0.8823 0.85494 0.0
C769 C 0.6339 0.84805 0.86558 0.0
C770 C 0.62529 0.90586 0.86846 0.0
C771 C 0.59707 0.89557 0.89448 0.0
C772 C 0.5859 0.86089 0.90451 0.0
C773 C 0.60393 0.83743 0.88945 0.0
C774 C 0.63737 0.94236 0.85628 0.0
C775 C 0.55651 0.84904 0.93281 0.0
C776 C 0.58978 0.9656 0.96153 0.0
C777 C 0.55749 0.97247 0.95329 0.0
C778 C 0.60243 0.94026 0.94291 0.0
C779 C 0.583 0.92206 0.91447 0.0
C780 C 0.55076 0.92943 0.90541 0.0
C781 C 0.53794 0.95416 0.92543 0.0
C782 C 0.63631 0.93256 0.95417 0.0
C783 C 0.53007 0.91143 0.8745 0.0
H784 H 0.6672 0.89145 0.8371 0.0
H785 H 0.59507 0.81095 0.89724 0.0
H786 H 0.61343 0.95159 0.85182 0.0
H787 H 0.65315 0.95965 0.87662 0.0
H788 H 0.65486 0.94466 0.83189 0.0
H789 H 0.54877 0.82068 0.9355 0.0
H790 H 0.56637 0.86169 0.95803 0.0
H791 H 0.53182 0.85669 0.92757 0.0
H792 H 0.60463 0.97926 0.98346 0.0
H793 H 0.51291 0.95944 0.91912 0.0
H794 H 0.65796 0.93831 0.93304 0.0
H795 H 0.6303 0.90479 0.9594 0.0
H796 H 0.64712 0.94783 0.97794 0.0
H797 H 0.54836 0.91565 0.85064 0.0
H798 H 0.50605 0.92072 0.87039 0.0
H799 H 0.52061 0.88326 0.87807 0.0
C800 C 0.86461 0.18539 0.53744 0.0
C801 C 0.82789 0.16934 0.5317 0.0
C802 C 0.8875 0.16597 0.54641 0.0
C803 C 0.87282 0.13003 0.5502 0.0
C804 C 0.83503 0.11443 0.54741 0.0
C805 C 0.81301 0.1343 0.53789 0.0
C806 C 0.92775 0.18337 0.54909 0.0
C807 C 0.81829 0.07629 0.55201 0.0
C808 C 0.93093 0.07051 0.52428 0.0
C809 C 0.93993 0.06241 0.55671 0.0
C810 C 0.90996 0.0934 0.52187 0.0
C811 C 0.89727 0.10794 0.5527 0.0
C812 C 0.90634 0.09986 0.58555 0.0
C813 C 0.92783 0.07724 0.58716 0.0
C814 C 0.90112 0.10177 0.48632 0.0
C815 C 0.89293 0.11469 0.61889 0.0
H816 H 0.8759 0.21258 0.53264 0.0
H817 H 0.78436 0.12212 0.53395 0.0
H818 H 0.93812 0.17516 0.57241 0.0
H819 H 0.94288 0.17564 0.52599 0.0
H820 H 0.93391 0.2119 0.55031 0.0
H821 H 0.78802 0.06917 0.55349 0.0
H822 H 0.82724 0.06163 0.52969 0.0
H823 H 0.82758 0.06816 0.57597 0.0
H824 H 0.94052 0.05915 0.50076 0.0
H825 H 0.93504 0.07103 0.61225 0.0
H826 H 0.90946 0.13008 0.48342 0.0
H827 H 0.87126 0.09246 0.48333 0.0
H828 H 0.91492 0.08985 0.46497 0.0
H829 H 0.90141 0.14324 0.61872 0.0
H830 H 0.9034 0.1066 0.64228 0.0
H831 H 0.86269 0.10626 0.62102 0.0
C832 C 0.28823 0.67034 0.12826 0.0
C833 C 0.28895 0.6733 0.16486 0.0
C834 C 0.25617 0.65271 0.11099 0.0
C835 C 0.22318 0.6376 0.13038 0.0
C836 C 0.22379 0.64012 0.16732 0.0
C837 C 0.25639 0.65755 0.18394 0.0
C838 C 0.25761 0.6505 0.07175 0.0
C839 C 0.18962 0.625 0.18944 0.0
C840 C 0.13204 0.62333 0.08575 0.0
C841 C 0.1215 0.58767 0.07739 0.0
C842 C 0.16452 0.63959 0.10298 0.0
C843 C 0.18801 0.62018 0.11207 0.0
C844 C 0.17775 0.58423 0.10339 0.0
C845 C 0.14481 0.56851 0.08656 0.0
C846 C 0.17354 0.67775 0.11176 0.0
C847 C 0.20168 0.56221 0.11187 0.0
H848 H 0.313 0.68177 0.11291 0.0
H849 H 0.25607 0.65972 0.2121 0.0
H850 H 0.2482 0.62318 0.06238 0.0
H851 H 0.23891 0.66397 0.06198 0.0
H852 H 0.28548 0.66213 0.06028 0.0
H853 H 0.19443 0.62832 0.2177 0.0
H854 H 0.16837 0.63753 0.18399 0.0
H855 H 0.17866 0.59712 0.1828 0.0
H856 H 0.11453 0.63868 0.07929 0.0
H857 H 0.13739 0.54104 0.08045 0.0
H858 H 0.20013 0.69121 0.09889 0.0
H859 H 0.17624 0.68249 0.14023 0.0
H860 H 0.15245 0.68929 0.10356 0.0
H861 H 0.22935 0.57242 0.09945 0.0
H862 H 0.19052 0.53487 0.10296 0.0
H863 H 0.20471 0.5632 0.14036 0.0
C864 C 0.2505 0.43457 0.65505 0.0
C865 C 0.2455 0.40004 0.66295 0.0
C866 C 0.28233 0.45337 0.63677 0.0
C867 C 0.30992 0.43734 0.62614 0.0
C868 C 0.30536 0.40277 0.63476 0.0
C869 C 0.27332 0.38461 0.65301 0.0
C870 C 0.28608 0.49016 0.62815 0.0
C871 C 0.33413 0.38471 0.62421 0.0
C872 C 0.37624 0.46934 0.54907 0.0
C873 C 0.40818 0.48687 0.56564 0.0
C874 C 0.3438 0.454 0.56843 0.0
C875 C 0.34321 0.45625 0.6053 0.0
C876 C 0.37509 0.47497 0.62211 0.0
C877 C 0.40714 0.49006 0.6021 0.0
C878 C 0.31045 0.43442 0.54942 0.0
C879 C 0.37569 0.47815 0.66129 0.0
H880 H 0.22904 0.44662 0.6623 0.0
H881 H 0.26998 0.35814 0.65945 0.0
H882 H 0.31189 0.50739 0.63781 0.0
H883 H 0.28731 0.49236 0.59951 0.0
H884 H 0.26302 0.49941 0.6396 0.0
H885 H 0.32688 0.35806 0.63363 0.0
H886 H 0.33802 0.38352 0.59544 0.0
H887 H 0.36064 0.39944 0.63464 0.0
H888 H 0.3768 0.46688 0.52091 0.0
H889 H 0.4317 0.50369 0.6151 0.0
H890 H 0.28681 0.44394 0.55839 0.0
H891 H 0.30329 0.40673 0.55533 0.0
H892 H 0.31467 0.43677 0.52077 0.0
H893 H 0.35304 0.48819 0.67227 0.0
H894 H 0.40183 0.49544 0.67034 0.0
H895 H 0.37157 0.45234 0.67192 0.0
C896 C 0.73981 0.72675 0.92486 0.0
C897 C 0.72727 0.7133 0.89222 0.0
C898 C 0.76866 0.71772 0.93891 0.0
C899 C 0.78551 0.69508 0.91961 0.0
C900 C 0.77251 0.6811 0.88687 0.0
C901 C 0.74338 0.69022 0.8737 0.0
C902 C 0.78145 0.73274 0.97414 0.0
C903 C 0.78992 0.65712 0.86535 0.0
C904 C 0.88288 0.6983 0.93754 0.0
C905 C 0.87761 0.66873 0.95672 0.0
C906 C 0.85311 0.70731 0.92548 0.0
C907 C 0.81723 0.68647 0.93322 0.0
C908 C 0.81175 0.65686 0.95302 0.0
C909 C 0.84203 0.64823 0.96436 0.0
C910 C 0.86007 0.73882 0.90401 0.0
C911 C 0.77392 0.63424 0.96215 0.0
H912 H 0.72732 0.74454 0.93931 0.0
H913 H 0.73374 0.67992 0.84839 0.0
H914 H 0.78089 0.71178 0.9917 0.0
H915 H 0.81009 0.74901 0.97152 0.0
H916 H 0.76442 0.74869 0.98649 0.0
H917 H 0.77624 0.64815 0.8406 0.0
H918 H 0.81905 0.67042 0.85912 0.0
H919 H 0.78904 0.63429 0.88036 0.0
H920 H 0.91038 0.71404 0.93142 0.0
H921 H 0.83786 0.62561 0.97962 0.0
H922 H 0.84575 0.75699 0.91651 0.0
H923 H 0.84902 0.73126 0.87792 0.0
H924 H 0.88957 0.7525 0.90065 0.0
H925 H 0.75741 0.64982 0.97608 0.0
H926 H 0.7743 0.61277 0.97872 0.0
H927 H 0.76 0.62316 0.93804 0.0
C928 C 0.43092 0.80076 0.17714 0.0
C929 C 0.3937 0.78358 0.17291 0.0
C930 C 0.44838 0.83327 0.16224 0.0
C931 C 0.42898 0.84935 0.14133 0.0
C932 C 0.39148 0.83248 0.13734 0.0
C933 C 0.37442 0.80097 0.15369 0.0
C934 C 0.48795 0.85032 0.16873 0.0
C935 C 0.36922 0.84732 0.11488 0.0
C936 C 0.46202 0.94633 0.11831 0.0
C937 C 0.48094 0.94559 0.08586 0.0
C938 C 0.44618 0.91575 0.13702 0.0
C939 C 0.4477 0.8829 0.12266 0.0
C940 C 0.46605 0.88215 0.08945 0.0
C941 C 0.48293 0.91318 0.0721 0.0
C942 C 0.42847 0.91873 0.17269 0.0
C943 C 0.46752 0.84833 0.07184 0.0
H944 H 0.44687 0.78865 0.19168 0.0
H945 H 0.34544 0.79005 0.15109 0.0
H946 H 0.50476 0.8497 0.14432 0.0
H947 H 0.49197 0.87779 0.17698 0.0
H948 H 0.49809 0.83738 0.18897 0.0
H949 H 0.34097 0.83038 0.11259 0.0
H950 H 0.36782 0.87282 0.12586 0.0
H951 H 0.38248 0.85133 0.08839 0.0
H952 H 0.46072 0.97104 0.12973 0.0
H953 H 0.49748 0.912 0.0472 0.0
H954 H 0.44048 0.90614 0.19181 0.0
H955 H 0.39895 0.90515 0.17262 0.0
H956 H 0.43178 0.94597 0.18154 0.0
H957 H 0.48247 0.83537 0.08771 0.0
H958 H 0.48112 0.85168 0.04541 0.0
H959 H 0.43948 0.83095 0.06964 0.0
C960 C 0.12218 0.26414 0.68762 0.0
C961 C 0.14192 0.29104 0.66642 0.0
C962 C 0.10633 0.23075 0.67345 0.0
C963 C 0.11083 0.22369 0.63726 0.0
C964 C 0.13062 0.25065 0.61574 0.0
C965 C 0.14535 0.28389 0.63042 0.0
C966 C 0.08476 0.20299 0.69724 0.0
C967 C 0.13641 0.24436 0.57708 0.0
C968 C 0.09942 0.13131 0.6018 0.0
C969 C 0.06568 0.12376 0.58651 0.0
C970 C 0.11424 0.16351 0.61889 0.0
C971 C 0.0944 0.1884 0.62155 0.0
C972 C 0.05962 0.18022 0.60733 0.0
C973 C 0.04595 0.14827 0.58964 0.0
C974 C 0.1517 0.17137 0.63299 0.0
C975 C 0.03705 0.20546 0.6102 0.0
H976 H 0.11952 0.26896 0.71545 0.0
H977 H 0.15953 0.3044 0.61341 0.0
H978 H 0.05682 0.19196 0.688 0.0
H979 H 0.09772 0.18169 0.69669 0.0
H980 H 0.08273 0.2128 0.72456 0.0
H981 H 0.15386 0.26762 0.56417 0.0
H982 H 0.14934 0.22313 0.57224 0.0
H983 H 0.10977 0.23628 0.56473 0.0
H984 H 0.11484 0.11254 0.5993 0.0
H985 H 0.01962 0.14243 0.57824 0.0
H986 H 0.15078 0.17936 0.66094 0.0
H987 H 0.17056 0.19322 0.6191 0.0
H988 H 0.16304 0.14892 0.63001 0.0
H989 H 0.03437 0.2145 0.63768 0.0
H990 H 1.00933 0.19406 0.60047 0.0
H991 H 0.05087 0.22841 0.59497 0.0
C992 C 0.74192 0.28703 0.48842 0.0
C993 C 0.71775 0.25804 0.47295 0.0
C994 C 0.73107 0.31682 0.49749 0.0
C995 C 0.69553 0.31752 0.49036 0.0
C996 C 0.67064 0.2878 0.47607 0.0
C997 C 0.682 0.25835 0.46784 0.0
C998 C 0.75805 0.34784 0.51328 0.0
C999 C 0.63236 0.28744 0.46815 0.0
C1000 C 0.64228 0.37817 0.5243 0.0
C1001 C 0.64304 0.3966 0.49442 0.0
C1002 C 0.66309 0.35487 0.5251 0.0
C1003 C 0.68442 0.34965 0.49508 0.0
C1004 C 0.68827 0.37094 0.46636 0.0
C1005 C 0.66752 0.39434 0.46643 0.0
C1006 C 0.65931 0.33344 0.55665 0.0
C1007 C 0.71087 0.36623 0.43389 0.0
H1008 H 0.76963 0.28683 0.49239 0.0
H1009 H 0.663 0.23564 0.45674 0.0
H1010 H 0.76898 0.36714 0.49312 0.0
H1011 H 0.74472 0.36026 0.53455 0.0
H1012 H 0.78133 0.34094 0.52371 0.0
H1013 H 0.61628 0.26192 0.45771 0.0
H1014 H 0.61773 0.29425 0.49203 0.0
H1015 H 0.63342 0.30698 0.44874 0.0
H1016 H 0.62382 0.3805 0.54623 0.0
H1017 H 0.66816 0.40866 0.44333 0.0
H1018 H 0.68583 0.32937 0.56221 0.0
H1019 H 0.63987 0.30775 0.55162 0.0
H1020 H 0.64884 0.34564 0.58005 0.0
H1021 H 0.73759 0.36343 0.44057 0.0
H1022 H 0.71567 0.38816 0.41641 0.0
H1023 H 0.69643 0.3423 0.4194 0.0
loop_
_geom_bond_atom_site_label_1
_geom_bond_atom_site_label_2
_geom_bond_distance
_geom_bond_site_symmetry_2
_ccdc_geom_bond_type
H0 C5 0.930 . S
H1 C8 0.930 . S
H2 C10 0.930 . S
H3 C4 1.016 . S
C4 H3 1.016 . S
C4 N11 1.286 . S
C5 H0 0.930 . S
C5 C6 1.397 . S
C5 C7 1.361 . S
C6 C5 1.397 . S
C6 C10 1.390 . S
C7 C5 1.361 . S
C7 C8 1.393 . S
C7 N11 1.413 . S
C8 H1 0.930 . S
C8 C7 1.393 . S
C8 C9 1.399 . S
C9 C8 1.399 . S
C9 C10 1.381 . S
C10 H2 0.930 . S
C10 C6 1.390 . S
C10 C9 1.381 . S
N11 C4 1.286 . S
N11 C7 1.413 . S
H12 C17 0.930 . S
H13 C20 0.930 . S
H14 C22 0.930 . S
H15 C16 1.016 . S
C16 H15 1.016 . S
C16 N23 1.286 . S
C17 H12 0.930 . S
C17 C18 1.397 . S
C17 C19 1.361 . S
C18 C17 1.397 . S
C18 C22 1.390 . S
C19 C17 1.361 . S
C19 C20 1.393 . S
C19 N23 1.413 . S
C20 H13 0.930 . S
C20 C19 1.393 . S
C20 C21 1.399 . S
C21 C20 1.399 . S
C21 C22 1.381 . S
C22 H14 0.930 . S
C22 C18 1.390 . S
C22 C21 1.381 . S
N23 C16 1.286 . S
N23 C19 1.413 . S
H24 C29 0.930 . S
H25 C32 0.930 . S
H26 C34 0.930 . S
H27 C28 1.016 . S
C28 H27 1.016 . S
C28 N35 1.286 . S
C29 H24 0.930 . S
C29 C30 1.397 . S
C29 C31 1.361 . S
C30 C29 1.397 . S
C30 C34 1.390 . S
C31 C29 1.361 . S
C31 C32 1.393 . S
C31 N35 1.413 . S
C32 H25 0.930 . S
C32 C31 1.393 . S
C32 C33 1.399 . S
C33 C32 1.399 . S
C33 C34 1.381 . S
C34 H26 0.930 . S
C34 C30 1.390 . S
C34 C33 1.381 . S
N35 C28 1.286 . S
N35 C31 1.413 . S
H36 C41 0.930 . S
H37 C44 0.930 . S
H38 C46 0.930 . S
H39 C40 1.016 . S
C40 H39 1.016 . S
C40 N47 1.286 . S
C41 H36 0.930 . S
C41 C42 1.397 . S
C41 C43 1.361 . S
C42 C41 1.397 . S
C42 C46 1.390 . S
C43 C41 1.361 . S
C43 C44 1.393 . S
C43 N47 1.413 . S
C44 H37 0.930 . S
C44 C43 1.393 . S
C44 C45 1.399 . S
C45 C44 1.399 . S
C45 C46 1.381 . S
C46 H38 0.930 . S
C46 C42 1.390 . S
C46 C45 1.381 . S
N47 C40 1.286 . S
N47 C43 1.413 . S
H48 C53 0.930 . S
H49 C56 0.930 . S
H50 C58 0.930 . S
H51 C52 1.016 . S
C52 H51 1.016 . S
C52 N59 1.286 . S
C53 H48 0.930 . S
C53 C54 1.397 . S
C53 C55 1.361 . S
C54 C53 1.397 . S
C54 C58 1.390 . S
C55 C53 1.361 . S
C55 C56 1.393 . S
C55 N59 1.413 . S
C56 H49 0.930 . S
C56 C55 1.393 . S
C56 C57 1.399 . S
C57 C56 1.399 . S
C57 C58 1.381 . S
C58 H50 0.930 . S
C58 C54 1.390 . S
C58 C57 1.381 . S
N59 C52 1.286 . S
N59 C55 1.413 . S
H60 C65 0.930 . S
H61 C68 0.930 . S
H62 C70 0.930 . S
H63 C64 1.016 . S
C64 H63 1.016 . S
C64 N71 1.286 . S
C65 H60 0.930 . S
C65 C66 1.397 . S
C65 C67 1.361 . S
C66 C65 1.397 . S
C66 C70 1.390 . S
C67 C65 1.361 . S
C67 C68 1.393 . S
C67 N71 1.413 . S
C68 H61 0.930 . S
C68 C67 1.393 . S
C68 C69 1.399 . S
C69 C68 1.399 . S
C69 C70 1.381 . S
C70 H62 0.930 . S
C70 C66 1.390 . S
C70 C69 1.381 . S
N71 C64 1.286 . S
N71 C67 1.413 . S
H72 C77 0.930 . S
H73 C80 0.930 . S
H74 C82 0.930 . S
H75 C76 1.016 . S
C76 H75 1.016 . S
C76 N83 1.286 . S
C77 H72 0.930 . S
C77 C78 1.397 . S
C77 C79 1.361 . S
C78 C77 1.397 . S
C78 C82 1.390 . S
C79 C77 1.361 . S
C79 C80 1.393 . S
C79 N83 1.413 . S
C80 H73 0.930 . S
C80 C79 1.393 . S
C80 C81 1.399 . S
C81 C80 1.399 . S
C81 C82 1.381 . S
C82 H74 0.930 . S
C82 C78 1.390 . S
C82 C81 1.381 . S
N83 C76 1.286 . S
N83 C79 1.413 . S
H84 C89 0.930 . S
H85 C92 0.930 . S
H86 C94 0.930 . S
H87 C88 1.016 . S
C88 H87 1.016 . S
C88 N95 1.286 . S
C89 H84 0.930 . S
C89 C90 1.397 . S
C89 C91 1.361 . S
C90 C89 1.397 . S
C90 C94 1.390 . S
C91 C89 1.361 . S
C91 C92 1.393 . S
C91 N95 1.413 . S
C92 H85 0.930 . S
C92 C91 1.393 . S
C92 C93 1.399 . S
C93 C92 1.399 . S
C93 C94 1.381 . S
C94 H86 0.930 . S
C94 C90 1.390 . S
C94 C93 1.381 . S
N95 C88 1.286 . S
N95 C91 1.413 . S
Sm96 C98 2.846 . S
Sm96 O116 2.543 . S
Sm96 O117 2.450 . S
Sm96 O118 2.681 1_545 S
Sm96 O119 2.464 1_545 S
Sm96 O120 2.396 . S
Sm96 O124 2.386 1_455 S
Sm96 O127 2.408 1_445 S
Sm97 C107 2.851 . S
Sm97 O118 2.390 1_655 S
Sm97 O121 2.402 1_665 S
Sm97 O122 2.550 . S
Sm97 O123 2.452 . S
Sm97 O124 2.677 1_565 S
Sm97 O125 2.459 1_565 S
Sm97 O126 2.400 . S
C98 Sm96 2.846 . S
C98 C99 1.506 . S
C98 O116 1.261 . S
C98 O117 1.242 . S
C99 C98 1.506 . S
C99 C100 1.358 . S
C99 C104 1.382 . S
C100 C99 1.358 . S
C100 C101 1.385 . S
C100 H128 0.930 . S
C101 C100 1.385 . S
C101 C102 1.395 . S
C101 H129 0.929 . S
C102 C101 1.395 . S
C102 C103 1.335 . S
C103 C102 1.335 . S
C103 C104 1.398 . S
C103 H130 0.930 . S
C104 C99 1.382 . S
C104 C103 1.398 . S
C104 H131 0.929 . S
C105 O118 1.271 . S
C105 O119 1.251 . S
C106 O120 1.252 . S
C106 O121 1.272 . S
C107 Sm97 2.851 . S
C107 C108 1.506 . S
C107 O122 1.261 . S
C107 O123 1.242 . S
C108 C107 1.506 . S
C108 C109 1.358 . S
C108 C113 1.382 . S
C109 C108 1.358 . S
C109 C110 1.385 . S
C109 H132 0.930 . S
C110 C109 1.385 . S
C110 C111 1.395 . S
C110 H133 0.929 . S
C111 C110 1.395 . S
C111 C112 1.335 . S
C112 C111 1.335 . S
C112 C113 1.398 . S
C112 H134 0.930 . S
C113 C108 1.382 . S
C113 C112 1.398 . S
C113 H135 0.929 . S
C114 O124 1.271 . S
C114 O125 1.251 . S
C115 O126 1.252 . S
C115 O127 1.272 . S
O116 Sm96 2.543 . S
O116 C98 1.261 . S
O117 Sm96 2.450 . S
O117 C98 1.242 . S
O118 Sm96 2.681 1_565 S
O118 Sm97 2.390 1_455 S
O118 C105 1.271 . S
O119 Sm96 2.464 1_565 S
O119 C105 1.251 . S
O120 Sm96 2.396 . S
O120 C106 1.252 . S
O121 Sm97 2.402 1_445 S
O121 C106 1.272 . S
O122 Sm97 2.550 . S
O122 C107 1.261 . S
O123 Sm97 2.452 . S
O123 C107 1.242 . S
O124 Sm96 2.386 1_655 S
O124 Sm97 2.677 1_545 S
O124 C114 1.271 . S
O125 Sm97 2.459 1_545 S
O125 C114 1.251 . S
O126 Sm97 2.400 . S
O126 C115 1.252 . S
O127 Sm96 2.408 1_665 S
O127 C115 1.272 . S
H128 C100 0.930 . S
H129 C101 0.929 . S
H130 C103 0.930 . S
H131 C104 0.929 . S
H132 C109 0.930 . S
H133 C110 0.929 . S
H134 C112 0.930 . S
H135 C113 0.929 . S
Sm136 C138 2.846 . S
Sm136 O156 2.543 . S
Sm136 O157 2.450 . S
Sm136 O158 2.681 1_545 S
Sm136 O159 2.464 1_545 S
Sm136 O160 2.396 . S
Sm136 O164 2.387 . S
Sm136 O167 2.408 1_544 S
Sm137 C147 2.846 1_545 S
Sm137 O158 2.386 1_546 S
Sm137 O161 2.408 1_556 S
Sm137 O162 2.543 1_545 S
Sm137 O163 2.449 1_545 S
Sm137 O164 2.681 1_556 S
Sm137 O165 2.464 . S
Sm137 O166 2.396 1_545 S
C138 Sm136 2.846 . S
C138 C139 1.506 . S
C138 O156 1.261 . S
C138 O157 1.242 . S
C139 C138 1.506 . S
C139 C140 1.358 . S
C139 C144 1.382 . S
C140 C139 1.358 . S
C140 C141 1.385 . S
C140 H168 0.930 . S
C141 C140 1.385 . S
C141 C142 1.395 . S
C141 H169 0.929 . S
C142 C141 1.395 . S
C142 C143 1.335 . S
C143 C142 1.335 . S
C143 C144 1.398 . S
C143 H170 0.930 . S
C144 C139 1.382 . S
C144 C143 1.398 . S
C144 H171 0.929 . S
C145 O158 1.271 . S
C145 O159 1.251 . S
C146 O160 1.252 . S
C146 O161 1.272 . S
C147 Sm137 2.846 1_565 S
C147 C148 1.506 . S
C147 O162 1.261 . S
C147 O163 1.277 . S
C148 C147 1.506 . S
C148 C149 1.358 . S
C148 C153 1.382 . S
C149 C148 1.358 . S
C149 C150 1.385 . S
C149 H172 0.930 . S
C150 C149 1.385 . S
C150 C151 1.395 . S
C150 H173 0.929 . S
C151 C150 1.395 . S
C151 C152 1.335 . S
C152 C151 1.335 . S
C152 C153 1.398 . S
C152 H174 0.930 . S
C153 C148 1.382 . S
C153 C152 1.398 . S
C153 H175 0.929 . S
C154 O164 1.270 1_556 S
C154 O165 1.251 . S
C155 O166 1.252 . S
C155 O167 1.272 . S
O156 Sm136 2.543 . S
O156 C138 1.261 . S
O157 Sm136 2.450 . S
O157 C138 1.242 . S
O158 Sm136 2.681 1_565 S
O158 Sm137 2.386 1_564 S
O158 C145 1.271 . S
O159 Sm136 2.464 1_565 S
O159 C145 1.251 . S
O160 Sm136 2.396 . S
O160 C146 1.252 . S
O161 Sm137 2.408 1_554 S
O161 C146 1.272 . S
O162 Sm137 2.543 1_565 S
O162 C147 1.261 . S
O163 Sm137 2.449 1_565 S
O163 C147 1.277 . S
O164 Sm136 2.387 . S
O164 Sm137 2.681 1_554 S
O164 C154 1.270 1_554 S
O165 Sm137 2.464 . S
O165 C154 1.251 . S
O166 Sm137 2.396 1_565 S
O166 C155 1.252 . S
O167 Sm136 2.408 1_566 S
O167 C155 1.272 . S
H168 C140 0.930 . S
H169 C141 0.929 . S
H170 C143 0.930 . S
H171 C144 0.929 . S
H172 C149 0.930 . S
H173 C150 0.929 . S
H174 C152 0.930 . S
H175 C153 0.929 . S
Sm176 C178 2.846 . S
Sm176 O196 2.543 . S
Sm176 O197 2.450 . S
Sm176 O198 2.681 . S
Sm176 O199 2.464 . S
Sm176 O200 2.396 . S
Sm176 O204 2.386 . S
Sm176 O207 2.408 . S
Sm177 C187 2.846 . S
Sm177 O198 2.386 . S
Sm177 O201 2.408 . S
Sm177 O202 2.543 . S
Sm177 O203 2.450 . S
Sm177 O204 2.681 . S
Sm177 O205 2.464 . S
Sm177 O206 2.396 . S
C178 Sm176 2.846 . S
C178 C179 1.506 . S
C178 O196 1.261 . S
C178 O197 1.242 . S
C179 C178 1.506 . S
C179 C180 1.358 . S
C179 C184 1.382 . S
C180 C179 1.358 . S
C180 C181 1.385 . S
C180 H208 0.930 . S
C181 C180 1.385 . S
C181 C182 1.395 . S
C181 H209 0.929 . S
C182 C181 1.395 . S
C182 C183 1.335 . S
C183 C182 1.335 . S
C183 C184 1.398 . S
C183 H210 0.930 . S
C184 C179 1.382 . S
C184 C183 1.398 . S
C184 H211 0.929 . S
C185 O198 1.271 . S
C185 O199 1.251 . S
C186 O200 1.252 . S
C186 O201 1.272 . S
C187 Sm177 2.846 . S
C187 C188 1.506 . S
C187 O202 1.261 . S
C187 O203 1.242 . S
C188 C187 1.506 . S
C188 C189 1.358 . S
C188 C193 1.382 . S
C189 C188 1.358 . S
C189 C190 1.385 . S
C189 H212 0.930 . S
C190 C189 1.385 . S
C190 C191 1.395 . S
C190 H213 0.929 . S
C191 C190 1.395 . S
C191 C192 1.335 . S
C192 C191 1.335 . S
C192 C193 1.398 . S
C192 H214 0.930 . S
C193 C188 1.382 . S
C193 C192 1.398 . S
C193 H215 0.929 . S
C194 O204 1.271 . S
C194 O205 1.251 . S
C195 O206 1.252 . S
C195 O207 1.272 . S
O196 Sm176 2.543 . S
O196 C178 1.261 . S
O197 Sm176 2.450 . S
O197 C178 1.242 . S
O198 Sm176 2.681 . S
O198 Sm177 2.386 . S
O198 C185 1.271 . S
O199 Sm176 2.464 . S
O199 C185 1.251 . S
O200 Sm176 2.396 . S
O200 C186 1.252 . S
O201 Sm177 2.408 . S
O201 C186 1.272 . S
O202 Sm177 2.543 . S
O202 C187 1.261 . S
O203 Sm177 2.450 . S
O203 C187 1.242 . S
O204 Sm176 2.386 . S
O204 Sm177 2.681 . S
O204 C194 1.271 . S
O205 Sm177 2.464 . S
O205 C194 1.251 . S
O206 Sm177 2.396 . S
O206 C195 1.252 . S
O207 Sm176 2.408 . S
O207 C195 1.272 . S
H208 C180 0.930 . S
H209 C181 0.929 . S
H210 C183 0.930 . S
H211 C184 0.929 . S
H212 C189 0.930 . S
H213 C190 0.929 . S
H214 C192 0.930 . S
H215 C193 0.929 . S
Sm216 C218 2.846 . S
Sm216 O236 2.543 . S
Sm216 O237 2.450 . S
Sm216 O238 2.681 1_455 S
Sm216 O239 2.464 1_455 S
Sm216 O240 2.396 . S
Sm216 O244 2.386 1_554 S
Sm216 O247 2.408 1_454 S
Sm217 C227 2.846 1_455 S
Sm217 O238 2.386 1_456 S
Sm217 O241 2.408 1_556 S
Sm217 O242 2.543 1_455 S
Sm217 O243 2.450 1_455 S
Sm217 O244 2.681 . S
Sm217 O245 2.464 . S
Sm217 O246 2.396 1_455 S
C218 Sm216 2.846 . S
C218 C219 1.506 . S
C218 O236 1.261 . S
C218 O237 1.242 . S
C219 C218 1.506 . S
C219 C220 1.358 . S
C219 C224 1.382 . S
C220 C219 1.358 . S
C220 C221 1.385 . S
C220 H248 0.930 . S
C221 C220 1.385 . S
C221 C222 1.395 . S
C221 H249 0.929 . S
C222 C221 1.395 . S
C222 C223 1.335 . S
C223 C222 1.335 . S
C223 C224 1.398 . S
C223 H250 0.930 . S
C224 C219 1.382 . S
C224 C223 1.398 . S
C224 H251 0.929 . S
C225 O238 1.271 . S
C225 O239 1.251 . S
C226 O240 1.252 . S
C226 O241 1.272 . S
C227 Sm217 2.846 1_655 S
C227 C228 1.506 . S
C227 O242 1.261 . S
C227 O243 1.242 . S
C228 C227 1.506 . S
C228 C229 1.358 . S
C228 C233 1.382 . S
C229 C228 1.358 . S
C229 C230 1.385 . S
C229 H252 0.930 . S
C230 C229 1.385 . S
C230 C231 1.395 . S
C230 H253 0.929 . S
C231 C230 1.395 . S
C231 C232 1.335 . S
C232 C231 1.335 . S
C232 C233 1.398 . S
C232 H254 0.930 . S
C233 C228 1.382 . S
C233 C232 1.398 . S
C233 H255 0.929 . S
C234 O244 1.271 . S
C234 O245 1.251 . S
C235 O246 1.252 . S
C235 O247 1.272 . S
O236 Sm216 2.543 . S
O236 C218 1.261 . S
O237 Sm216 2.450 . S
O237 C218 1.242 . S
O238 Sm216 2.681 1_655 S
O238 Sm217 2.386 1_654 S
O238 C225 1.271 . S
O239 Sm216 2.464 1_655 S
O239 C225 1.251 . S
O240 Sm216 2.396 . S
O240 C226 1.252 . S
O241 Sm217 2.408 1_554 S
O241 C226 1.272 . S
O242 Sm217 2.543 1_655 S
O242 C227 1.261 . S
O243 Sm217 2.450 1_655 S
O243 C227 1.242 . S
O244 Sm216 2.386 1_556 S
O244 Sm217 2.681 . S
O244 C234 1.271 . S
O245 Sm217 2.464 . S
O245 C234 1.251 . S
O246 Sm217 2.396 1_655 S
O246 C235 1.252 . S
O247 Sm216 2.408 1_656 S
O247 C235 1.272 . S
H248 C220 0.930 . S
H249 C221 0.929 . S
H250 C223 0.930 . S
H251 C224 0.929 . S
H252 C229 0.930 . S
H253 C230 0.929 . S
H254 C232 0.930 . S
H255 C233 0.929 . S
C256 C257 1.391 . S
C256 C258 1.394 . S
C256 H272 0.931 . S
C257 C256 1.391 . S
C257 C261 1.376 . S
C258 C256 1.394 . S
C258 C259 1.369 . S
C258 C262 1.531 . S
C259 C258 1.369 . S
C259 C260 1.410 . S
C259 C267 1.503 . S
C260 C259 1.410 . S
C260 C261 1.392 . S
C260 C263 1.511 . S
C261 C257 1.376 . S
C261 C260 1.392 . S
C261 H273 0.929 . S
C262 C258 1.531 . S
C262 H274 0.960 . S
C262 H275 0.962 . S
C262 H276 0.960 . S
C263 C260 1.511 . S
C263 H277 0.961 . S
C263 H278 0.961 . S
C263 H279 0.961 . S
C264 C265 1.370 . S
C264 C266 1.363 . S
C264 H280 0.931 . S
C265 C264 1.370 . S
C265 C269 1.408 . S
C266 C264 1.363 . S
C266 C267 1.370 . S
C266 C270 1.524 . S
C267 C259 1.503 . S
C267 C266 1.370 . S
C267 C268 1.403 . S
C268 C267 1.403 . S
C268 C269 1.404 . S
C268 C271 1.539 . S
C269 C265 1.408 . S
C269 C268 1.404 . S
C269 H281 0.930 . S
C270 C266 1.524 . S
C270 H282 0.956 . S
C270 H283 0.961 . S
C270 H284 0.961 . S
C271 C268 1.539 . S
C271 H285 0.958 . S
C271 H286 0.961 . S
C271 H287 0.960 . S
H272 C256 0.931 . S
H273 C261 0.929 . S
H274 C262 0.960 . S
H275 C262 0.962 . S
H276 C262 0.960 . S
H277 C263 0.961 . S
H278 C263 0.961 . S
H279 C263 0.961 . S
H280 C264 0.931 . S
H281 C269 0.930 . S
H282 C270 0.956 . S
H283 C270 0.961 . S
H284 C270 0.961 . S
H285 C271 0.958 . S
H286 C271 0.961 . S
H287 C271 0.960 . S
C288 C289 1.391 . S
C288 C290 1.394 . S
C288 H304 0.931 . S
C289 C288 1.391 . S
C289 C293 1.376 . S
C290 C288 1.394 . S
C290 C291 1.369 . S
C290 C294 1.531 . S
C291 C290 1.369 . S
C291 C292 1.410 . S
C291 C299 1.503 . S
C292 C291 1.410 . S
C292 C293 1.392 . S
C292 C295 1.511 . S
C293 C289 1.376 . S
C293 C292 1.392 . S
C293 H305 0.929 . S
C294 C290 1.531 . S
C294 H306 0.960 . S
C294 H307 0.962 . S
C294 H308 0.960 . S
C295 C292 1.511 . S
C295 H309 0.961 . S
C295 H310 0.961 . S
C295 H311 0.961 . S
C296 C297 1.370 . S
C296 C298 1.363 . S
C296 H312 0.931 . S
C297 C296 1.370 . S
C297 C301 1.408 . S
C298 C296 1.363 . S
C298 C299 1.370 . S
C298 C302 1.524 . S
C299 C291 1.503 . S
C299 C298 1.370 . S
C299 C300 1.403 . S
C300 C299 1.403 . S
C300 C301 1.404 . S
C300 C303 1.539 . S
C301 C297 1.408 . S
C301 C300 1.404 . S
C301 H313 0.930 . S
C302 C298 1.524 . S
C302 H314 0.956 . S
C302 H315 0.961 . S
C302 H316 0.961 . S
C303 C300 1.539 . S
C303 H317 0.958 . S
C303 H318 0.961 . S
C303 H319 0.960 . S
H304 C288 0.931 . S
H305 C293 0.929 . S
H306 C294 0.960 . S
H307 C294 0.962 . S
H308 C294 0.960 . S
H309 C295 0.961 . S
H310 C295 0.961 . S
H311 C295 0.961 . S
H312 C296 0.931 . S
H313 C301 0.930 . S
H314 C302 0.956 . S
H315 C302 0.961 . S
H316 C302 0.961 . S
H317 C303 0.958 . S
H318 C303 0.961 . S
H319 C303 0.960 . S
C320 C321 1.391 . S
C320 C322 1.394 . S
C320 H336 0.931 . S
C321 C320 1.391 . S
C321 C325 1.376 . S
C322 C320 1.394 . S
C322 C323 1.369 . S
C322 C326 1.531 . S
C323 C322 1.369 . S
C323 C324 1.410 . S
C323 C331 1.503 . S
C324 C323 1.410 . S
C324 C325 1.392 . S
C324 C327 1.511 . S
C325 C321 1.376 . S
C325 C324 1.392 . S
C325 H337 0.929 . S
C326 C322 1.531 . S
C326 H338 0.960 . S
C326 H339 0.962 . S
C326 H340 0.960 . S
C327 C324 1.511 . S
C327 H341 0.961 . S
C327 H342 0.961 . S
C327 H343 0.961 . S
C328 C329 1.370 . S
C328 C330 1.363 . S
C328 H344 0.931 . S
C329 C328 1.370 . S
C329 C333 1.408 . S
C330 C328 1.363 . S
C330 C331 1.370 . S
C330 C334 1.524 . S
C331 C323 1.503 . S
C331 C330 1.370 . S
C331 C332 1.403 . S
C332 C331 1.403 . S
C332 C333 1.404 . S
C332 C335 1.539 . S
C333 C329 1.408 . S
C333 C332 1.404 . S
C333 H345 0.930 . S
C334 C330 1.524 . S
C334 H346 0.956 . S
C334 H347 0.961 . S
C334 H348 0.961 . S
C335 C332 1.539 . S
C335 H349 0.958 . S
C335 H350 0.961 . S
C335 H351 0.960 . S
H336 C320 0.931 . S
H337 C325 0.929 . S
H338 C326 0.960 . S
H339 C326 0.962 . S
H340 C326 0.960 . S
H341 C327 0.961 . S
H342 C327 0.961 . S
H343 C327 0.961 . S
H344 C328 0.931 . S
H345 C333 0.930 . S
H346 C334 0.956 . S
H347 C334 0.961 . S
H348 C334 0.961 . S
H349 C335 0.958 . S
H350 C335 0.961 . S
H351 C335 0.960 . S
C352 C353 1.391 . S
C352 C354 1.394 . S
C352 H368 0.931 . S
C353 C352 1.391 . S
C353 C357 1.376 . S
C354 C352 1.394 . S
C354 C355 1.369 . S
C354 C358 1.531 . S
C355 C354 1.369 . S
C355 C356 1.410 . S
C355 C363 1.503 . S
C356 C355 1.410 . S
C356 C357 1.392 . S
C356 C359 1.511 . S
C357 C353 1.376 . S
C357 C356 1.392 . S
C357 H369 0.929 . S
C358 C354 1.531 . S
C358 H370 0.960 . S
C358 H371 0.962 . S
C358 H372 0.960 . S
C359 C356 1.511 . S
C359 H373 0.961 . S
C359 H374 0.961 . S
C359 H375 0.961 . S
C360 C361 1.370 . S
C360 C362 1.363 . S
C360 H376 0.931 . S
C361 C360 1.370 . S
C361 C365 1.408 . S
C362 C360 1.363 . S
C362 C363 1.370 . S
C362 C366 1.524 . S
C363 C355 1.503 . S
C363 C362 1.370 . S
C363 C364 1.403 . S
C364 C363 1.403 . S
C364 C365 1.404 . S
C364 C367 1.539 . S
C365 C361 1.408 . S
C365 C364 1.404 . S
C365 H377 0.930 1_655 S
C366 C362 1.524 . S
C366 H378 0.956 . S
C366 H379 0.961 . S
C366 H380 0.961 . S
C367 C364 1.539 . S
C367 H381 0.958 . S
C367 H382 0.961 1_655 S
C367 H383 0.960 . S
H368 C352 0.931 . S
H369 C357 0.929 . S
H370 C358 0.960 . S
H371 C358 0.962 . S
H372 C358 0.960 . S
H373 C359 0.961 . S
H374 C359 0.961 . S
H375 C359 0.961 . S
H376 C360 0.931 . S
H377 C365 0.930 1_455 S
H378 C366 0.956 . S
H379 C366 0.961 . S
H380 C366 0.961 . S
H381 C367 0.958 . S
H382 C367 0.961 1_455 S
H383 C367 0.960 . S
C384 C385 1.391 . S
C384 C386 1.394 . S
C384 H400 0.931 . S
C385 C384 1.391 . S
C385 C389 1.376 . S
C386 C384 1.394 . S
C386 C387 1.369 . S
C386 C390 1.531 . S
C387 C386 1.369 . S
C387 C388 1.410 . S
C387 C395 1.503 . S
C388 C387 1.410 . S
C388 C389 1.392 . S
C388 C391 1.511 . S
C389 C385 1.376 . S
C389 C388 1.392 . S
C389 H401 0.929 . S
C390 C386 1.531 . S
C390 H402 0.960 . S
C390 H403 0.962 . S
C390 H404 0.960 . S
C391 C388 1.511 . S
C391 H405 0.961 . S
C391 H406 0.961 . S
C391 H407 0.961 . S
C392 C393 1.370 . S
C392 C394 1.363 . S
C392 H408 0.931 . S
C393 C392 1.370 . S
C393 C397 1.408 . S
C394 C392 1.363 . S
C394 C395 1.370 . S
C394 C398 1.524 . S
C395 C387 1.503 . S
C395 C394 1.370 . S
C395 C396 1.403 . S
C396 C395 1.403 . S
C396 C397 1.404 . S
C396 C399 1.539 . S
C397 C393 1.408 . S
C397 C396 1.404 . S
C397 H409 0.930 . S
C398 C394 1.524 . S
C398 H410 0.956 . S
C398 H411 0.961 . S
C398 H412 0.961 . S
C399 C396 1.539 . S
C399 H413 0.958 . S
C399 H414 0.961 . S
C399 H415 0.960 . S
H400 C384 0.931 . S
H401 C389 0.929 . S
H402 C390 0.960 . S
H403 C390 0.962 . S
H404 C390 0.960 . S
H405 C391 0.961 . S
H406 C391 0.961 . S
H407 C391 0.961 . S
H408 C392 0.931 . S
H409 C397 0.930 . S
H410 C398 0.956 . S
H411 C398 0.961 . S
H412 C398 0.961 . S
H413 C399 0.958 . S
H414 C399 0.961 . S
H415 C399 0.960 . S
C416 C417 1.391 . S
C416 C418 1.394 . S
C416 H432 0.931 . S
C417 C416 1.391 . S
C417 C421 1.376 . S
C418 C416 1.394 . S
C418 C419 1.369 . S
C418 C422 1.531 . S
C419 C418 1.369 . S
C419 C420 1.410 . S
C419 C427 1.503 . S
C420 C419 1.410 . S
C420 C421 1.392 . S
C420 C423 1.511 . S
C421 C417 1.376 . S
C421 C420 1.392 . S
C421 H433 0.929 . S
C422 C418 1.531 . S
C422 H434 0.960 . S
C422 H435 0.962 . S
C422 H436 0.960 . S
C423 C420 1.511 . S
C423 H437 0.961 . S
C423 H438 0.961 . S
C423 H439 0.961 . S
C424 C425 1.370 . S
C424 C426 1.363 . S
C424 H440 0.931 . S
C425 C424 1.370 . S
C425 C429 1.408 . S
C426 C424 1.363 . S
C426 C427 1.370 . S
C426 C430 1.524 . S
C427 C419 1.503 . S
C427 C426 1.370 . S
C427 C428 1.403 . S
C428 C427 1.403 . S
C428 C429 1.404 . S
C428 C431 1.539 . S
C429 C425 1.408 . S
C429 C428 1.404 . S
C429 H441 0.930 . S
C430 C426 1.524 . S
C430 H442 0.956 . S
C430 H443 0.961 . S
C430 H444 0.961 . S
C431 C428 1.539 . S
C431 H445 0.958 . S
C431 H446 0.961 . S
C431 H447 0.960 . S
H432 C416 0.931 . S
H433 C421 0.929 . S
H434 C422 0.960 . S
H435 C422 0.962 . S
H436 C422 0.960 . S
H437 C423 0.961 . S
H438 C423 0.961 . S
H439 C423 0.961 . S
H440 C424 0.931 . S
H441 C429 0.930 . S
H442 C430 0.956 . S
H443 C430 0.961 . S
H444 C430 0.961 . S
H445 C431 0.958 . S
H446 C431 0.961 . S
H447 C431 0.960 . S
C448 C449 1.391 . S
C448 C450 1.394 . S
C448 H464 0.931 . S
C449 C448 1.391 . S
C449 C453 1.376 . S
C450 C448 1.394 . S
C450 C451 1.369 . S
C450 C454 1.531 . S
C451 C450 1.369 . S
C451 C452 1.410 . S
C451 C459 1.503 . S
C452 C451 1.410 . S
C452 C453 1.392 . S
C452 C455 1.511 . S
C453 C449 1.376 . S
C453 C452 1.392 . S
C453 H465 0.929 . S
C454 C450 1.531 . S
C454 H466 0.960 . S
C454 H467 0.962 . S
C454 H468 0.960 . S
C455 C452 1.511 . S
C455 H469 0.961 . S
C455 H470 0.961 . S
C455 H471 0.961 . S
C456 C457 1.370 . S
C456 C458 1.363 . S
C456 H472 0.931 . S
C457 C456 1.370 . S
C457 C461 1.408 . S
C458 C456 1.363 . S
C458 C459 1.370 . S
C458 C462 1.524 . S
C459 C451 1.503 . S
C459 C458 1.370 . S
C459 C460 1.403 . S
C460 C459 1.403 . S
C460 C461 1.404 . S
C460 C463 1.539 . S
C461 C457 1.408 . S
C461 C460 1.404 . S
C461 H473 0.930 . S
C462 C458 1.524 . S
C462 H474 0.956 . S
C462 H475 0.961 . S
C462 H476 0.961 . S
C463 C460 1.539 . S
C463 H477 0.958 . S
C463 H478 0.961 . S
C463 H479 0.960 . S
H464 C448 0.931 . S
H465 C453 0.929 . S
H466 C454 0.960 . S
H467 C454 0.962 . S
H468 C454 0.960 . S
H469 C455 0.961 . S
H470 C455 0.961 . S
H471 C455 0.961 . S
H472 C456 0.931 . S
H473 C461 0.930 . S
H474 C462 0.956 . S
H475 C462 0.961 . S
H476 C462 0.961 . S
H477 C463 0.958 . S
H478 C463 0.961 . S
H479 C463 0.960 . S
C480 C481 1.391 . S
C480 C482 1.394 . S
C480 H496 0.931 . S
C481 C480 1.391 . S
C481 C485 1.376 . S
C482 C480 1.394 . S
C482 C483 1.369 . S
C482 C486 1.531 . S
C483 C482 1.369 . S
C483 C484 1.410 . S
C483 C491 1.503 . S
C484 C483 1.410 . S
C484 C485 1.392 . S
C484 C487 1.511 . S
C485 C481 1.376 . S
C485 C484 1.392 . S
C485 H497 0.929 . S
C486 C482 1.531 . S
C486 H498 0.960 . S
C486 H499 0.962 . S
C486 H500 0.960 . S
C487 C484 1.511 . S
C487 H501 0.961 . S
C487 H502 0.961 . S
C487 H503 0.961 . S
C488 C489 1.370 . S
C488 C490 1.363 . S
C488 H504 0.931 . S
C489 C488 1.370 . S
C489 C493 1.408 . S
C490 C488 1.363 . S
C490 C491 1.370 . S
C490 C494 1.524 . S
C491 C483 1.503 . S
C491 C490 1.370 . S
C491 C492 1.403 . S
C492 C491 1.403 . S
C492 C493 1.404 . S
C492 C495 1.539 . S
C493 C489 1.408 . S
C493 C492 1.404 . S
C493 H505 0.930 . S
C494 C490 1.524 . S
C494 H506 0.956 . S
C494 H507 0.961 . S
C494 H508 0.961 . S
C495 C492 1.539 . S
C495 H509 0.958 . S
C495 H510 0.961 . S
C495 H511 0.960 . S
H496 C480 0.931 . S
H497 C485 0.929 . S
H498 C486 0.960 . S
H499 C486 0.962 . S
H500 C486 0.960 . S
H501 C487 0.961 . S
H502 C487 0.961 . S
H503 C487 0.961 . S
H504 C488 0.931 . S
H505 C493 0.930 . S
H506 C494 0.956 . S
H507 C494 0.961 . S
H508 C494 0.961 . S
H509 C495 0.958 . S
H510 C495 0.961 . S
H511 C495 0.960 . S
C512 C513 1.391 . S
C512 C514 1.394 . S
C512 H528 0.931 . S
C513 C512 1.391 . S
C513 C517 1.376 . S
C514 C512 1.394 . S
C514 C515 1.369 . S
C514 C518 1.531 . S
C515 C514 1.369 . S
C515 C516 1.410 . S
C515 C523 1.503 . S
C516 C515 1.410 . S
C516 C517 1.392 . S
C516 C519 1.511 . S
C517 C513 1.376 . S
C517 C516 1.392 . S
C517 H529 0.929 . S
C518 C514 1.531 . S
C518 H530 0.960 . S
C518 H531 0.962 . S
C518 H532 0.960 . S
C519 C516 1.511 . S
C519 H533 0.961 . S
C519 H534 0.961 . S
C519 H535 0.961 . S
C520 C521 1.370 . S
C520 C522 1.363 . S
C520 H536 0.931 . S
C521 C520 1.370 . S
C521 C525 1.408 . S
C522 C520 1.363 . S
C522 C523 1.370 . S
C522 C526 1.524 . S
C523 C515 1.503 . S
C523 C522 1.370 . S
C523 C524 1.403 . S
C524 C523 1.403 . S
C524 C525 1.404 . S
C524 C527 1.539 . S
C525 C521 1.408 . S
C525 C524 1.404 . S
C525 H537 0.930 . S
C526 C522 1.524 . S
C526 H538 0.956 . S
C526 H539 0.961 . S
C526 H540 0.961 . S
C527 C524 1.539 . S
C527 H541 0.958 . S
C527 H542 0.961 . S
C527 H543 0.960 . S
H528 C512 0.931 . S
H529 C517 0.929 . S
H530 C518 0.960 . S
H531 C518 0.962 . S
H532 C518 0.960 . S
H533 C519 0.961 . S
H534 C519 0.961 . S
H535 C519 0.961 . S
H536 C520 0.931 . S
H537 C525 0.930 . S
H538 C526 0.956 . S
H539 C526 0.961 . S
H540 C526 0.961 . S
H541 C527 0.958 . S
H542 C527 0.961 . S
H543 C527 0.960 . S
C544 C545 1.391 . S
C544 C546 1.394 . S
C544 H560 0.931 . S
C545 C544 1.391 . S
C545 C549 1.376 . S
C546 C544 1.394 . S
C546 C547 1.369 . S
C546 C550 1.531 . S
C547 C546 1.369 . S
C547 C548 1.410 . S
C547 C555 1.503 . S
C548 C547 1.410 . S
C548 C549 1.392 . S
C548 C551 1.511 . S
C549 C545 1.376 . S
C549 C548 1.392 . S
C549 H561 0.929 . S
C550 C546 1.531 . S
C550 H562 0.960 . S
C550 H563 0.962 . S
C550 H564 0.960 . S
C551 C548 1.511 . S
C551 H565 0.961 . S
C551 H566 0.961 . S
C551 H567 0.961 . S
C552 C553 1.370 . S
C552 C554 1.363 . S
C552 H568 0.931 . S
C553 C552 1.370 . S
C553 C557 1.408 . S
C554 C552 1.363 . S
C554 C555 1.370 . S
C554 C558 1.524 . S
C555 C547 1.503 . S
C555 C554 1.370 . S
C555 C556 1.403 . S
C556 C555 1.403 . S
C556 C557 1.404 . S
C556 C559 1.539 . S
C557 C553 1.408 . S
C557 C556 1.404 . S
C557 H569 0.930 . S
C558 C554 1.524 . S
C558 H570 0.956 . S
C558 H571 0.961 . S
C558 H572 0.961 . S
C559 C556 1.539 . S
C559 H573 0.958 . S
C559 H574 0.961 . S
C559 H575 0.960 . S
H560 C544 0.931 . S
H561 C549 0.929 . S
H562 C550 0.960 . S
H563 C550 0.962 . S
H564 C550 0.960 . S
H565 C551 0.961 . S
H566 C551 0.961 . S
H567 C551 0.961 . S
H568 C552 0.931 . S
H569 C557 0.930 . S
H570 C558 0.956 . S
H571 C558 0.961 . S
H572 C558 0.961 . S
H573 C559 0.958 . S
H574 C559 0.961 . S
H575 C559 0.960 . S
C576 C577 1.391 . S
C576 C578 1.394 . S
C576 H592 0.931 . S
C577 C576 1.391 . S
C577 C581 1.376 . S
C578 C576 1.394 . S
C578 C579 1.369 . S
C578 C582 1.531 . S
C579 C578 1.369 . S
C579 C580 1.410 . S
C579 C587 1.503 . S
C580 C579 1.410 . S
C580 C581 1.392 . S
C580 C583 1.511 . S
C581 C577 1.376 . S
C581 C580 1.392 . S
C581 H593 0.929 . S
C582 C578 1.531 . S
C582 H594 0.960 . S
C582 H595 0.962 . S
C582 H596 0.960 . S
C583 C580 1.511 . S
C583 H597 0.961 . S
C583 H598 0.961 . S
C583 H599 0.961 . S
C584 C585 1.370 . S
C584 C586 1.363 . S
C584 H600 0.931 . S
C585 C584 1.370 . S
C585 C589 1.408 . S
C586 C584 1.363 . S
C586 C587 1.370 . S
C586 C590 1.524 . S
C587 C579 1.503 . S
C587 C586 1.370 . S
C587 C588 1.403 . S
C588 C587 1.403 . S
C588 C589 1.404 . S
C588 C591 1.539 . S
C589 C585 1.408 . S
C589 C588 1.404 . S
C589 H601 0.930 . S
C590 C586 1.524 . S
C590 H602 0.956 . S
C590 H603 0.961 . S
C590 H604 0.961 . S
C591 C588 1.539 . S
C591 H605 0.958 . S
C591 H606 0.961 . S
C591 H607 0.960 . S
H592 C576 0.931 . S
H593 C581 0.929 . S
H594 C582 0.960 . S
H595 C582 0.962 . S
H596 C582 0.960 . S
H597 C583 0.961 . S
H598 C583 0.961 . S
H599 C583 0.961 . S
H600 C584 0.931 . S
H601 C589 0.930 . S
H602 C590 0.956 . S
H603 C590 0.961 . S
H604 C590 0.961 . S
H605 C591 0.958 . S
H606 C591 0.961 . S
H607 C591 0.960 . S
C608 C609 1.391 . S
C608 C610 1.394 . S
C608 H624 0.931 . S
C609 C608 1.391 . S
C609 C613 1.376 . S
C610 C608 1.394 . S
C610 C611 1.369 . S
C610 C614 1.531 . S
C611 C610 1.369 . S
C611 C612 1.410 . S
C611 C619 1.503 . S
C612 C611 1.410 . S
C612 C613 1.392 . S
C612 C615 1.511 . S
C613 C609 1.376 . S
C613 C612 1.392 . S
C613 H625 0.929 . S
C614 C610 1.531 . S
C614 H626 0.960 . S
C614 H627 0.962 . S
C614 H628 0.960 . S
C615 C612 1.511 . S
C615 H629 0.961 . S
C615 H630 0.961 . S
C615 H631 0.961 . S
C616 C617 1.370 . S
C616 C618 1.363 . S
C616 H632 0.931 . S
C617 C616 1.370 . S
C617 C621 1.408 . S
C618 C616 1.363 . S
C618 C619 1.370 . S
C618 C622 1.524 . S
C619 C611 1.503 . S
C619 C618 1.370 . S
C619 C620 1.403 . S
C620 C619 1.403 . S
C620 C621 1.404 . S
C620 C623 1.539 . S
C621 C617 1.408 . S
C621 C620 1.404 . S
C621 H633 0.930 . S
C622 C618 1.524 . S
C622 H634 0.956 . S
C622 H635 0.961 . S
C622 H636 0.961 . S
C623 C620 1.539 . S
C623 H637 0.958 . S
C623 H638 0.961 . S
C623 H639 0.960 . S
H624 C608 0.931 . S
H625 C613 0.929 . S
H626 C614 0.960 . S
H627 C614 0.962 . S
H628 C614 0.960 . S
H629 C615 0.961 . S
H630 C615 0.961 . S
H631 C615 0.961 . S
H632 C616 0.931 . S
H633 C621 0.930 . S
H634 C622 0.956 . S
H635 C622 0.961 . S
H636 C622 0.961 . S
H637 C623 0.958 . S
H638 C623 0.961 . S
H639 C623 0.960 . S
C640 C641 1.391 . S
C640 C642 1.394 . S
C640 H656 0.931 . S
C641 C640 1.391 . S
C641 C645 1.376 . S
C642 C640 1.394 . S
C642 C643 1.369 . S
C642 C646 1.531 . S
C643 C642 1.369 . S
C643 C644 1.410 . S
C643 C651 1.503 . S
C644 C643 1.410 . S
C644 C645 1.392 . S
C644 C647 1.511 . S
C645 C641 1.376 . S
C645 C644 1.392 . S
C645 H657 0.929 . S
C646 C642 1.531 . S
C646 H658 0.960 . S
C646 H659 0.962 . S
C646 H660 0.960 . S
C647 C644 1.511 . S
C647 H661 0.961 . S
C647 H662 0.961 . S
C647 H663 0.961 . S
C648 C649 1.370 . S
C648 C650 1.363 . S
C648 H664 0.931 . S
C649 C648 1.370 . S
C649 C653 1.408 . S
C650 C648 1.363 . S
C650 C651 1.370 . S
C650 C654 1.524 . S
C651 C643 1.503 . S
C651 C650 1.370 . S
C651 C652 1.403 . S
C652 C651 1.403 . S
C652 C653 1.404 . S
C652 C655 1.539 . S
C653 C649 1.408 . S
C653 C652 1.404 . S
C653 H665 0.930 . S
C654 C650 1.524 . S
C654 H666 0.956 . S
C654 H667 0.961 . S
C654 H668 0.961 . S
C655 C652 1.539 . S
C655 H669 0.958 . S
C655 H670 0.961 . S
C655 H671 0.960 . S
H656 C640 0.931 . S
H657 C645 0.929 . S
H658 C646 0.960 . S
H659 C646 0.962 . S
H660 C646 0.960 . S
H661 C647 0.961 . S
H662 C647 0.961 . S
H663 C647 0.961 . S
H664 C648 0.931 . S
H665 C653 0.930 . S
H666 C654 0.956 . S
H667 C654 0.961 . S
H668 C654 0.961 . S
H669 C655 0.958 . S
H670 C655 0.961 . S
H671 C655 0.960 . S
C672 C673 1.391 . S
C672 C674 1.394 . S
C672 H688 0.931 . S
C673 C672 1.391 . S
C673 C677 1.376 . S
C674 C672 1.394 . S
C674 C675 1.369 . S
C674 C678 1.531 . S
C675 C674 1.369 . S
C675 C676 1.410 . S
C675 C683 1.503 . S
C676 C675 1.410 . S
C676 C677 1.392 . S
C676 C679 1.511 . S
C677 C673 1.376 . S
C677 C676 1.392 . S
C677 H689 0.929 . S
C678 C674 1.531 . S
C678 H690 0.960 . S
C678 H691 0.962 . S
C678 H692 0.960 . S
C679 C676 1.511 . S
C679 H693 0.961 . S
C679 H694 0.961 . S
C679 H695 0.961 . S
C680 C681 1.370 . S
C680 C682 1.363 . S
C680 H696 0.931 . S
C681 C680 1.370 . S
C681 C685 1.408 . S
C682 C680 1.363 . S
C682 C683 1.370 . S
C682 C686 1.524 . S
C683 C675 1.503 . S
C683 C682 1.370 . S
C683 C684 1.403 . S
C684 C683 1.403 . S
C684 C685 1.404 . S
C684 C687 1.539 . S
C685 C681 1.408 . S
C685 C684 1.404 . S
C685 H697 0.930 . S
C686 C682 1.524 . S
C686 H698 0.956 . S
C686 H699 0.961 . S
C686 H700 0.961 . S
C687 C684 1.539 . S
C687 H701 0.958 . S
C687 H702 0.961 . S
C687 H703 0.960 . S
H688 C672 0.931 . S
H689 C677 0.929 . S
H690 C678 0.960 . S
H691 C678 0.962 . S
H692 C678 0.960 . S
H693 C679 0.961 . S
H694 C679 0.961 . S
H695 C679 0.961 . S
H696 C680 0.931 . S
H697 C685 0.930 . S
H698 C686 0.956 . S
H699 C686 0.961 . S
H700 C686 0.961 . S
H701 C687 0.958 . S
H702 C687 0.961 . S
H703 C687 0.960 . S
C704 C705 1.391 . S
C704 C706 1.394 . S
C704 H720 0.931 . S
C705 C704 1.391 . S
C705 C709 1.376 . S
C706 C704 1.394 . S
C706 C707 1.369 . S
C706 C710 1.531 . S
C707 C706 1.369 . S
C707 C708 1.410 . S
C707 C715 1.503 . S
C708 C707 1.410 . S
C708 C709 1.392 . S
C708 C711 1.511 . S
C709 C705 1.376 . S
C709 C708 1.392 . S
C709 H721 0.929 . S
C710 C706 1.531 . S
C710 H722 0.960 . S
C710 H723 0.962 . S
C710 H724 0.960 . S
C711 C708 1.511 . S
C711 H725 0.961 . S
C711 H726 0.961 . S
C711 H727 0.961 . S
C712 C713 1.370 . S
C712 C714 1.363 . S
C712 H728 0.931 . S
C713 C712 1.370 . S
C713 C717 1.408 . S
C714 C712 1.363 . S
C714 C715 1.370 . S
C714 C718 1.524 . S
C715 C707 1.503 . S
C715 C714 1.370 . S
C715 C716 1.403 . S
C716 C715 1.403 . S
C716 C717 1.404 . S
C716 C719 1.539 . S
C717 C713 1.408 . S
C717 C716 1.404 . S
C717 H729 0.930 . S
C718 C714 1.524 . S
C718 H730 0.956 . S
C718 H731 0.961 . S
C718 H732 0.961 . S
C719 C716 1.539 . S
C719 H733 0.958 . S
C719 H734 0.961 . S
C719 H735 0.960 . S
H720 C704 0.931 . S
H721 C709 0.929 . S
H722 C710 0.960 . S
H723 C710 0.962 . S
H724 C710 0.960 . S
H725 C711 0.961 . S
H726 C711 0.961 . S
H727 C711 0.961 . S
H728 C712 0.931 . S
H729 C717 0.930 . S
H730 C718 0.956 . S
H731 C718 0.961 . S
H732 C718 0.961 . S
H733 C719 0.958 . S
H734 C719 0.961 . S
H735 C719 0.960 . S
C736 C737 1.391 . S
C736 C738 1.394 . S
C736 H752 0.931 . S
C737 C736 1.391 . S
C737 C741 1.376 . S
C738 C736 1.394 . S
C738 C739 1.369 . S
C738 C742 1.531 . S
C739 C738 1.369 . S
C739 C740 1.410 . S
C739 C747 1.503 . S
C740 C739 1.410 . S
C740 C741 1.392 . S
C740 C743 1.511 . S
C741 C737 1.376 . S
C741 C740 1.392 . S
C741 H753 0.929 . S
C742 C738 1.531 . S
C742 H754 0.960 . S
C742 H755 0.962 . S
C742 H756 0.960 . S
C743 C740 1.511 . S
C743 H757 0.961 . S
C743 H758 0.961 . S
C743 H759 0.961 . S
C744 C745 1.370 . S
C744 C746 1.363 . S
C744 H760 0.931 . S
C745 C744 1.370 . S
C745 C749 1.408 . S
C746 C744 1.363 . S
C746 C747 1.370 . S
C746 C750 1.524 . S
C747 C739 1.503 . S
C747 C746 1.370 . S
C747 C748 1.403 . S
C748 C747 1.403 . S
C748 C749 1.404 . S
C748 C751 1.539 . S
C749 C745 1.408 . S
C749 C748 1.404 . S
C749 H761 0.930 . S
C750 C746 1.524 . S
C750 H762 0.956 . S
C750 H763 0.961 . S
C750 H764 0.961 . S
C751 C748 1.539 . S
C751 H765 0.958 . S
C751 H766 0.961 . S
C751 H767 0.960 . S
H752 C736 0.931 . S
H753 C741 0.929 . S
H754 C742 0.960 . S
H755 C742 0.962 . S
H756 C742 0.960 . S
H757 C743 0.961 . S
H758 C743 0.961 . S
H759 C743 0.961 . S
H760 C744 0.931 . S
H761 C749 0.930 . S
H762 C750 0.956 . S
H763 C750 0.961 . S
H764 C750 0.961 . S
H765 C751 0.958 . S
H766 C751 0.961 . S
H767 C751 0.960 . S
C768 C769 1.391 . S
C768 C770 1.394 . S
C768 H784 0.931 . S
C769 C768 1.391 . S
C769 C773 1.376 . S
C770 C768 1.394 . S
C770 C771 1.369 . S
C770 C774 1.531 . S
C771 C770 1.369 . S
C771 C772 1.410 . S
C771 C779 1.503 . S
C772 C771 1.410 . S
C772 C773 1.392 . S
C772 C775 1.511 . S
C773 C769 1.376 . S
C773 C772 1.392 . S
C773 H785 0.929 . S
C774 C770 1.531 . S
C774 H786 0.960 . S
C774 H787 0.962 . S
C774 H788 0.960 . S
C775 C772 1.511 . S
C775 H789 0.961 . S
C775 H790 0.961 . S
C775 H791 0.961 . S
C776 C777 1.370 . S
C776 C778 1.363 . S
C776 H792 0.931 . S
C777 C776 1.370 . S
C777 C781 1.408 . S
C778 C776 1.363 . S
C778 C779 1.370 . S
C778 C782 1.524 . S
C779 C771 1.503 . S
C779 C778 1.370 . S
C779 C780 1.403 . S
C780 C779 1.403 . S
C780 C781 1.404 . S
C780 C783 1.539 . S
C781 C777 1.408 . S
C781 C780 1.404 . S
C781 H793 0.930 . S
C782 C778 1.524 . S
C782 H794 0.956 . S
C782 H795 0.961 . S
C782 H796 0.961 . S
C783 C780 1.539 . S
C783 H797 0.958 . S
C783 H798 0.961 . S
C783 H799 0.960 . S
H784 C768 0.931 . S
H785 C773 0.929 . S
H786 C774 0.960 . S
H787 C774 0.962 . S
H788 C774 0.960 . S
H789 C775 0.961 . S
H790 C775 0.961 . S
H791 C775 0.961 . S
H792 C776 0.931 . S
H793 C781 0.930 . S
H794 C782 0.956 . S
H795 C782 0.961 . S
H796 C782 0.961 . S
H797 C783 0.958 . S
H798 C783 0.961 . S
H799 C783 0.960 . S
C800 C801 1.391 . S
C800 C802 1.394 . S
C800 H816 0.931 . S
C801 C800 1.391 . S
C801 C805 1.376 . S
C802 C800 1.394 . S
C802 C803 1.369 . S
C802 C806 1.531 . S
C803 C802 1.369 . S
C803 C804 1.410 . S
C803 C811 1.503 . S
C804 C803 1.410 . S
C804 C805 1.392 . S
C804 C807 1.511 . S
C805 C801 1.376 . S
C805 C804 1.392 . S
C805 H817 0.929 . S
C806 C802 1.531 . S
C806 H818 0.960 . S
C806 H819 0.962 . S
C806 H820 0.960 . S
C807 C804 1.511 . S
C807 H821 0.961 . S
C807 H822 0.961 . S
C807 H823 0.961 . S
C808 C809 1.370 . S
C808 C810 1.363 . S
C808 H824 0.931 . S
C809 C808 1.370 . S
C809 C813 1.408 . S
C810 C808 1.363 . S
C810 C811 1.370 . S
C810 C814 1.524 . S
C811 C803 1.503 . S
C811 C810 1.370 . S
C811 C812 1.403 . S
C812 C811 1.403 . S
C812 C813 1.404 . S
C812 C815 1.539 . S
C813 C809 1.408 . S
C813 C812 1.404 . S
C813 H825 0.930 . S
C814 C810 1.524 . S
C814 H826 0.956 . S
C814 H827 0.961 . S
C814 H828 0.961 . S
C815 C812 1.539 . S
C815 H829 0.958 . S
C815 H830 0.961 . S
C815 H831 0.960 . S
H816 C800 0.931 . S
H817 C805 0.929 . S
H818 C806 0.960 . S
H819 C806 0.962 . S
H820 C806 0.960 . S
H821 C807 0.961 . S
H822 C807 0.961 . S
H823 C807 0.961 . S
H824 C808 0.931 . S
H825 C813 0.930 . S
H826 C814 0.956 . S
H827 C814 0.961 . S
H828 C814 0.961 . S
H829 C815 0.958 . S
H830 C815 0.961 . S
H831 C815 0.960 . S
C832 C833 1.391 . S
C832 C834 1.394 . S
C832 H848 0.931 . S
C833 C832 1.391 . S
C833 C837 1.376 . S
C834 C832 1.394 . S
C834 C835 1.369 . S
C834 C838 1.531 . S
C835 C834 1.369 . S
C835 C836 1.410 . S
C835 C843 1.503 . S
C836 C835 1.410 . S
C836 C837 1.392 . S
C836 C839 1.511 . S
C837 C833 1.376 . S
C837 C836 1.392 . S
C837 H849 0.929 . S
C838 C834 1.531 . S
C838 H850 0.960 . S
C838 H851 0.962 . S
C838 H852 0.960 . S
C839 C836 1.511 . S
C839 H853 0.961 . S
C839 H854 0.961 . S
C839 H855 0.961 . S
C840 C841 1.370 . S
C840 C842 1.363 . S
C840 H856 0.931 . S
C841 C840 1.370 . S
C841 C845 1.408 . S
C842 C840 1.363 . S
C842 C843 1.370 . S
C842 C846 1.524 . S
C843 C835 1.503 . S
C843 C842 1.370 . S
C843 C844 1.403 . S
C844 C843 1.403 . S
C844 C845 1.404 . S
C844 C847 1.539 . S
C845 C841 1.408 . S
C845 C844 1.404 . S
C845 H857 0.930 . S
C846 C842 1.524 . S
C846 H858 0.956 . S
C846 H859 0.961 . S
C846 H860 0.961 . S
C847 C844 1.539 . S
C847 H861 0.958 . S
C847 H862 0.961 . S
C847 H863 0.960 . S
H848 C832 0.931 . S
H849 C837 0.929 . S
H850 C838 0.960 . S
H851 C838 0.962 . S
H852 C838 0.960 . S
H853 C839 0.961 . S
H854 C839 0.961 . S
H855 C839 0.961 . S
H856 C840 0.931 . S
H857 C845 0.930 . S
H858 C846 0.956 . S
H859 C846 0.961 . S
H860 C846 0.961 . S
H861 C847 0.958 . S
H862 C847 0.961 . S
H863 C847 0.960 . S
C864 C865 1.391 . S
C864 C866 1.394 . S
C864 H880 0.931 . S
C865 C864 1.391 . S
C865 C869 1.376 . S
C866 C864 1.394 . S
C866 C867 1.369 . S
C866 C870 1.531 . S
C867 C866 1.369 . S
C867 C868 1.410 . S
C867 C875 1.503 . S
C868 C867 1.410 . S
C868 C869 1.392 . S
C868 C871 1.511 . S
C869 C865 1.376 . S
C869 C868 1.392 . S
C869 H881 0.929 . S
C870 C866 1.531 . S
C870 H882 0.960 . S
C870 H883 0.962 . S
C870 H884 0.960 . S
C871 C868 1.511 . S
C871 H885 0.961 . S
C871 H886 0.961 . S
C871 H887 0.961 . S
C872 C873 1.370 . S
C872 C874 1.363 . S
C872 H888 0.931 . S
C873 C872 1.370 . S
C873 C877 1.408 . S
C874 C872 1.363 . S
C874 C875 1.370 . S
C874 C878 1.524 . S
C875 C867 1.503 . S
C875 C874 1.370 . S
C875 C876 1.403 . S
C876 C875 1.403 . S
C876 C877 1.404 . S
C876 C879 1.539 . S
C877 C873 1.408 . S
C877 C876 1.404 . S
C877 H889 0.930 . S
C878 C874 1.524 . S
C878 H890 0.956 . S
C878 H891 0.961 . S
C878 H892 0.961 . S
C879 C876 1.539 . S
C879 H893 0.958 . S
C879 H894 0.961 . S
C879 H895 0.960 . S
H880 C864 0.931 . S
H881 C869 0.929 . S
H882 C870 0.960 . S
H883 C870 0.962 . S
H884 C870 0.960 . S
H885 C871 0.961 . S
H886 C871 0.961 . S
H887 C871 0.961 . S
H888 C872 0.931 . S
H889 C877 0.930 . S
H890 C878 0.956 . S
H891 C878 0.961 . S
H892 C878 0.961 . S
H893 C879 0.958 . S
H894 C879 0.961 . S
H895 C879 0.960 . S
C896 C897 1.391 . S
C896 C898 1.394 . S
C896 H912 0.931 . S
C897 C896 1.391 . S
C897 C901 1.376 . S
C898 C896 1.394 . S
C898 C899 1.369 . S
C898 C902 1.531 . S
C899 C898 1.369 . S
C899 C900 1.410 . S
C899 C907 1.503 . S
C900 C899 1.410 . S
C900 C901 1.392 . S
C900 C903 1.511 . S
C901 C897 1.376 . S
C901 C900 1.392 . S
C901 H913 0.929 . S
C902 C898 1.531 . S
C902 H914 0.960 . S
C902 H915 0.962 . S
C902 H916 0.960 . S
C903 C900 1.511 . S
C903 H917 0.961 . S
C903 H918 0.961 . S
C903 H919 0.961 . S
C904 C905 1.370 . S
C904 C906 1.363 . S
C904 H920 0.931 . S
C905 C904 1.370 . S
C905 C909 1.408 . S
C906 C904 1.363 . S
C906 C907 1.370 . S
C906 C910 1.524 . S
C907 C899 1.503 . S
C907 C906 1.370 . S
C907 C908 1.403 . S
C908 C907 1.403 . S
C908 C909 1.404 . S
C908 C911 1.539 . S
C909 C905 1.408 . S
C909 C908 1.404 . S
C909 H921 0.930 . S
C910 C906 1.524 . S
C910 H922 0.956 . S
C910 H923 0.961 . S
C910 H924 0.961 . S
C911 C908 1.539 . S
C911 H925 0.958 . S
C911 H926 0.961 . S
C911 H927 0.960 . S
H912 C896 0.931 . S
H913 C901 0.929 . S
H914 C902 0.960 . S
H915 C902 0.962 . S
H916 C902 0.960 . S
H917 C903 0.961 . S
H918 C903 0.961 . S
H919 C903 0.961 . S
H920 C904 0.931 . S
H921 C909 0.930 . S
H922 C910 0.956 . S
H923 C910 0.961 . S
H924 C910 0.961 . S
H925 C911 0.958 . S
H926 C911 0.961 . S
H927 C911 0.960 . S
C928 C929 1.391 . S
C928 C930 1.394 . S
C928 H944 0.931 . S
C929 C928 1.391 . S
C929 C933 1.376 . S
C930 C928 1.394 . S
C930 C931 1.369 . S
C930 C934 1.531 . S
C931 C930 1.369 . S
C931 C932 1.410 . S
C931 C939 1.503 . S
C932 C931 1.410 . S
C932 C933 1.392 . S
C932 C935 1.511 . S
C933 C929 1.376 . S
C933 C932 1.392 . S
C933 H945 0.929 . S
C934 C930 1.531 . S
C934 H946 0.960 . S
C934 H947 0.962 . S
C934 H948 0.960 . S
C935 C932 1.511 . S
C935 H949 0.961 . S
C935 H950 0.961 . S
C935 H951 0.961 . S
C936 C937 1.370 . S
C936 C938 1.363 . S
C936 H952 0.931 . S
C937 C936 1.370 . S
C937 C941 1.408 . S
C938 C936 1.363 . S
C938 C939 1.370 . S
C938 C942 1.524 . S
C939 C931 1.503 . S
C939 C938 1.370 . S
C939 C940 1.403 . S
C940 C939 1.403 . S
C940 C941 1.404 . S
C940 C943 1.539 . S
C941 C937 1.408 . S
C941 C940 1.404 . S
C941 H953 0.930 . S
C942 C938 1.524 . S
C942 H954 0.956 . S
C942 H955 0.961 . S
C942 H956 0.961 . S
C943 C940 1.539 . S
C943 H957 0.958 . S
C943 H958 0.961 . S
C943 H959 0.960 . S
H944 C928 0.931 . S
H945 C933 0.929 . S
H946 C934 0.960 . S
H947 C934 0.962 . S
H948 C934 0.960 . S
H949 C935 0.961 . S
H950 C935 0.961 . S
H951 C935 0.961 . S
H952 C936 0.931 . S
H953 C941 0.930 . S
H954 C942 0.956 . S
H955 C942 0.961 . S
H956 C942 0.961 . S
H957 C943 0.958 . S
H958 C943 0.961 . S
H959 C943 0.960 . S
C960 C961 1.391 . S
C960 C962 1.394 . S
C960 H976 0.931 . S
C961 C960 1.391 . S
C961 C965 1.376 . S
C962 C960 1.394 . S
C962 C963 1.369 . S
C962 C966 1.531 . S
C963 C962 1.369 . S
C963 C964 1.410 . S
C963 C971 1.503 . S
C964 C963 1.410 . S
C964 C965 1.392 . S
C964 C967 1.511 . S
C965 C961 1.376 . S
C965 C964 1.392 . S
C965 H977 0.929 . S
C966 C962 1.531 . S
C966 H978 0.960 . S
C966 H979 0.962 . S
C966 H980 0.960 . S
C967 C964 1.511 . S
C967 H981 0.961 . S
C967 H982 0.961 . S
C967 H983 0.961 . S
C968 C969 1.370 . S
C968 C970 1.363 . S
C968 H984 0.931 . S
C969 C968 1.370 . S
C969 C973 1.408 . S
C970 C968 1.363 . S
C970 C971 1.370 . S
C970 C974 1.524 . S
C971 C963 1.503 . S
C971 C970 1.370 . S
C971 C972 1.403 . S
C972 C971 1.403 . S
C972 C973 1.404 . S
C972 C975 1.539 . S
C973 C969 1.408 . S
C973 C972 1.404 . S
C973 H985 0.930 . S
C974 C970 1.524 . S
C974 H986 0.956 . S
C974 H987 0.961 . S
C974 H988 0.961 . S
C975 C972 1.539 . S
C975 H989 0.958 . S
C975 H990 0.961 . S
C975 H991 0.960 . S
H976 C960 0.931 . S
H977 C965 0.929 . S
H978 C966 0.960 . S
H979 C966 0.962 . S
H980 C966 0.960 . S
H981 C967 0.961 . S
H982 C967 0.961 . S
H983 C967 0.961 . S
H984 C968 0.931 . S
H985 C973 0.930 . S
H986 C974 0.956 . S
H987 C974 0.961 . S
H988 C974 0.961 . S
H989 C975 0.958 . S
H990 C975 0.961 . S
H991 C975 0.960 . S
C992 C993 1.391 . S
C992 C994 1.394 . S
C992 H1008 0.931 . S
C993 C992 1.391 . S
C993 C997 1.376 . S
C994 C992 1.394 . S
C994 C995 1.369 . S
C994 C998 1.531 . S
C995 C994 1.369 . S
C995 C996 1.410 . S
C995 C1003 1.503 . S
C996 C995 1.410 . S
C996 C997 1.392 . S
C996 C999 1.511 . S
C997 C993 1.376 . S
C997 C996 1.392 . S
C997 H1009 0.929 . S
C998 C994 1.531 . S
C998 H1010 0.960 . S
C998 H1011 0.962 . S
C998 H1012 0.960 . S
C999 C996 1.511 . S
C999 H1013 0.961 . S
C999 H1014 0.961 . S
C999 H1015 0.961 . S
C1000 C1001 1.370 . S
C1000 C1002 1.363 . S
C1000 H1016 0.931 . S
C1001 C1000 1.370 . S
C1001 C1005 1.408 . S
C1002 C1000 1.363 . S
C1002 C1003 1.370 . S
C1002 C1006 1.524 . S
C1003 C995 1.503 . S
C1003 C1002 1.370 . S
C1003 C1004 1.403 . S
C1004 C1003 1.403 . S
C1004 C1005 1.404 . S
C1004 C1007 1.539 . S
C1005 C1001 1.408 . S
C1005 C1004 1.404 . S
C1005 H1017 0.930 . S
C1006 C1002 1.524 . S
C1006 H1018 0.956 . S
C1006 H1019 0.961 . S
C1006 H1020 0.961 . S
C1007 C1004 1.539 . S
C1007 H1021 0.958 . S
C1007 H1022 0.961 . S
C1007 H1023 0.960 . S
H1008 C992 0.931 . S
H1009 C997 0.929 . S
H1010 C998 0.960 . S
H1011 C998 0.962 . S
H1012 C998 0.960 . S
H1013 C999 0.961 . S
H1014 C999 0.961 . S
H1015 C999 0.961 . S
H1016 C1000 0.931 . S
H1017 C1005 0.930 . S
H1018 C1006 0.956 . S
H1019 C1006 0.961 . S
H1020 C1006 0.961 . S
H1021 C1007 0.958 . S
H1022 C1007 0.961 . S
H1023 C1007 0.960 . S
C257 C6 1.004 . S
C265 C102 1.070 . S
C289 C18 1.262 . S
C297 C151 1.227 . S
C329 C186 2.582 . S
C321 C28 2.620 . S
C353 C40 1.786 . S
C361 C225 1.753 . S
C393 C146 2.342 . S
C385 C9 2.240 . S
C425 C105 0.855 . S
C417 C16 0.841 . S
C457 C235 1.886 . S
C449 C30 1.927 . S
C489 C194 1.313 . S
C481 C42 1.322 . S
C513 C4 1.439 . S
C521 C222 1.502 . S
C553 C154 2.510 . S
C545 C33 2.586 . S
C577 C45 2.075 . S
C585 C115 2.060 . S
C609 C21 0.970 . S
C617 C191 1.033 . S
C649 C111 1.089 . S
C641 C57 1.105 . S
C673 C66 1.265 . S
C681 C142 1.256 . S
C705 C76 2.675 . S
C713 C195 2.631 . S
C737 C88 1.721 . S
C745 C234 1.706 . S
C769 C54 2.218 . S
C777 C155 2.325 . S
C809 C114 0.922 . S
C801 C64 0.969 . S
C841 C226 1.797 . S
C833 C78 1.841 . S
C873 C185 1.350 . S
C865 C93 1.369 . S
C897 C52 1.446 . S
C905 C231 1.500 . S
C937 C145 2.498 . S
C929 C81 2.567 . S
C969 C106 2.046 . S
C961 C90 2.045 . S
C993 C69 1.013 . S
C1001 C182 1.036 . S
