# Generated by pormake.
# Topology ssa, (4,4)-cn, num edge types: 1
# Building blocks:
#     Node 0, Type 0, BuildingBlock: KOZSID_clean_sbu_0, # of connection points: 4
#     Node 1, Type 0, BuildingBlock: KOZSID_clean_sbu_0, # of connection points: 4
#     Node 2, Type 0, BuildingBlock: KOZSID_clean_sbu_0, # of connection points: 4
#     Node 3, Type 0, BuildingBlock: KOZSID_clean_sbu_0, # of connection points: 4
#     Node 4, Type 0, BuildingBlock: KOZSID_clean_sbu_0, # of connection points: 4
#     Node 5, Type 0, BuildingBlock: KOZSID_clean_sbu_0, # of connection points: 4
#     Node 6, Type 1, BuildingBlock: GIZVER_clean_linker_0, # of connection points: 4
#     Node 7, Type 1, BuildingBlock: GIZVER_clean_linker_0, # of connection points: 4
#     Node 8, Type 1, BuildingBlock: GIZVER_clean_linker_0, # of connection points: 4
#     Node 9, Type 1, BuildingBlock: GIZVER_clean_linker_0, # of connection points: 4
#     Node 10, Type 1, BuildingBlock: GIZVER_clean_linker_0, # of connection points: 4
#     Node 11, Type 1, BuildingBlock: GIZVER_clean_linker_0, # of connection points: 4
#     Edge 12, Type (0, 1), BuildingBlock: ZUJKAS_clean_linker_0, # of connection points: 2
#     Edge 13, Type (0, 1), BuildingBlock: ZUJKAS_clean_linker_0, # of connection points: 2
#     Edge 14, Type (0, 1), BuildingBlock: ZUJKAS_clean_linker_0, # of connection points: 2
#     Edge 15, Type (0, 1), BuildingBlock: ZUJKAS_clean_linker_0, # of connection points: 2
#     Edge 16, Type (0, 1), BuildingBlock: ZUJKAS_clean_linker_0, # of connection points: 2
#     Edge 17, Type (0, 1), BuildingBlock: ZUJKAS_clean_linker_0, # of connection points: 2
#     Edge 18, Type (0, 1), BuildingBlock: ZUJKAS_clean_linker_0, # of connection points: 2
#     Edge 19, Type (0, 1), BuildingBlock: ZUJKAS_clean_linker_0, # of connection points: 2
#     Edge 20, Type (0, 1), BuildingBlock: ZUJKAS_clean_linker_0, # of connection points: 2
#     Edge 21, Type (0, 1), BuildingBlock: ZUJKAS_clean_linker_0, # of connection points: 2
#     Edge 22, Type (0, 1), BuildingBlock: ZUJKAS_clean_linker_0, # of connection points: 2
#     Edge 23, Type (0, 1), BuildingBlock: ZUJKAS_clean_linker_0, # of connection points: 2
#     Edge 24, Type (0, 1), BuildingBlock: ZUJKAS_clean_linker_0, # of connection points: 2
#     Edge 25, Type (0, 1), BuildingBlock: ZUJKAS_clean_linker_0, # of connection points: 2
#     Edge 26, Type (0, 1), BuildingBlock: ZUJKAS_clean_linker_0, # of connection points: 2
#     Edge 27, Type (0, 1), BuildingBlock: ZUJKAS_clean_linker_0, # of connection points: 2
#     Edge 28, Type (0, 1), BuildingBlock: ZUJKAS_clean_linker_0, # of connection points: 2
#     Edge 29, Type (0, 1), BuildingBlock: ZUJKAS_clean_linker_0, # of connection points: 2
#     Edge 30, Type (0, 1), BuildingBlock: ZUJKAS_clean_linker_0, # of connection points: 2
#     Edge 31, Type (0, 1), BuildingBlock: ZUJKAS_clean_linker_0, # of connection points: 2
#     Edge 32, Type (0, 1), BuildingBlock: ZUJKAS_clean_linker_0, # of connection points: 2
#     Edge 33, Type (0, 1), BuildingBlock: ZUJKAS_clean_linker_0, # of connection points: 2
#     Edge 34, Type (0, 1), BuildingBlock: ZUJKAS_clean_linker_0, # of connection points: 2
#     Edge 35, Type (0, 1), BuildingBlock: ZUJKAS_clean_linker_0, # of connection points: 2
# Relax obj value: 0.003
# Max RMSD: 0.033
# Mean RMSD: 0.019
data_MOF--net-ssa--node1-KOZSID_clean_sbu_0--node2-GIZVER_clean_linker_0--edge1-ZUJKAS_clean_linker_0
_symmetry_space_group_name_H-M    P1
_symmetry_Int_Tables_number       1
_symmetry_cell_setting            triclinic
loop_
_symmetry_equiv_pos_as_xyz
'x, y, z'
_cell_length_a     74.600938
_cell_length_b     76.005642
_cell_length_c     40.826773
_cell_angle_alpha  87.402222
_cell_angle_beta   89.866936
_cell_angle_gamma 121.83664
loop_
_atom_site_label
_atom_site_type_symbol
_atom_site_fract_x
_atom_site_fract_y
_atom_site_fract_z
_atom_type_partial_charge
C0 C 0.96893 0.51229 0.01231 0.0
C1 C 0.9541 0.50934 0.03606 0.0
C2 C 0.95795 0.50119 0.06362 0.0
C3 C 0.97479 0.49958 0.05516 0.0
N4 N 0.98212 0.5064 0.02393 0.0
Co5 Co 0.00588 0.50612 0.00116 0.0
N6 N 0.01078 0.49306 0.04123 0.0
C7 C 0.99999 0.48764 0.07035 0.0
C8 C 0.00739 0.47968 0.09364 0.0
C9 C 0.02401 0.48019 0.07866 0.0
C10 C 0.02575 0.48837 0.04686 0.0
N11 N 0.02961 0.50582 0.97837 0.0
C12 C 0.04274 0.49984 0.98992 0.0
C13 C 0.05724 0.50232 0.96593 0.0
C14 C 0.05341 0.51051 0.93839 0.0
C15 C 0.0368 0.51246 0.94703 0.0
N16 N 1.00102 0.5192 0.96112 0.0
C17 C 0.01198 0.52492 0.93214 0.0
C18 C 0.00482 0.53325 0.90909 0.0
C19 C 0.98814 0.53266 0.92408 0.0
C20 C 0.98604 0.52388 0.9555 0.0
N21 N 0.02642 0.53409 0.0167 0.0
C22 C 0.05653 0.57314 0.03972 0.0
C23 C 0.05747 0.56852 0.00729 0.0
C24 C 0.0423 0.54912 0.99632 0.0
C25 C 0.0401 0.55801 0.06027 0.0
C26 C 0.02541 0.53877 0.04841 0.0
N27 N 0.98534 0.47816 0.98561 0.0
C28 C 0.97094 0.4545 0.94175 0.0
C29 C 0.95463 0.43938 0.96251 0.0
C30 C 0.95425 0.44382 0.99522 0.0
C31 C 0.96972 0.46306 0.00622 0.0
C32 C 0.98594 0.47363 0.95366 0.0
H33 H 0.96855 0.46541 0.03142 0.0
H34 H 0.99766 0.48459 0.9364 0.0
H35 H 0.04385 0.54662 0.97132 0.0
H36 H 0.01355 0.52786 0.06554 0.0
C37 C 0.98356 0.491 0.07556 0.0
C38 C 0.96927 0.51989 0.97875 0.0
C39 C 0.04241 0.49217 0.02344 0.0
C40 C 0.02824 0.52132 0.92677 0.0
H41 H 0.94154 0.5124 0.03355 0.0
H42 H 0.94923 0.49657 0.08685 0.0
H43 H 1.00166 0.47456 0.11875 0.0
H44 H 0.03395 0.47542 0.09013 0.0
H45 H 0.0695 0.49883 0.96826 0.0
H46 H 0.06195 0.51487 0.91502 0.0
H47 H 0.01076 0.53874 0.88415 0.0
H48 H 0.97841 0.53783 0.91299 0.0
H49 H 0.06979 0.57985 0.99034 0.0
H50 H 0.03884 0.56077 0.08574 0.0
H51 H 0.9718 0.45184 0.9161 0.0
H52 H 0.94207 0.43246 0.01234 0.0
C53 C 0.53782 0.02851 0.54295 0.0
C54 C 0.54168 0.02752 0.57608 0.0
C55 C 0.52403 0.01062 0.59009 0.0
C56 C 0.51031 0.0024 0.56504 0.0
N57 N 0.51822 0.01279 0.53564 0.0
Co58 Co 0.50249 0.0077 0.49377 0.0
N59 N 0.47583 0.98411 0.51531 0.0
C60 C 0.47321 0.97643 0.54668 0.0
C61 C 0.45342 0.95962 0.55412 0.0
C62 C 0.44281 0.9561 0.52565 0.0
C63 C 0.45683 0.97103 0.50241 0.0
N64 N 0.48661 0.00323 0.45224 0.0
C65 C 0.46634 0.98882 0.44564 0.0
C66 C 0.46171 0.99119 0.4134 0.0
C67 C 0.47968 0.0076 0.39913 0.0
C68 C 0.49422 0.0143 0.42328 0.0
N69 N 0.52932 0.03076 0.47193 0.0
C70 C 0.53249 0.03708 0.4398 0.0
C71 C 0.55267 0.05304 0.43188 0.0
C72 C 0.56294 0.0574 0.46078 0.0
C73 C 0.54829 0.04392 0.4848 0.0
N74 N 0.51022 0.98743 0.48138 0.0
C75 C 0.51743 0.9563 0.4627 0.0
C76 C 0.51794 0.97064 0.43949 0.0
C77 C 0.51446 0.98598 0.44927 0.0
C78 C 0.51406 0.9583 0.49563 0.0
C79 C 0.5105 0.97383 0.50435 0.0
N80 N 0.49473 0.02787 0.50613 0.0
C81 C 0.49512 0.0596 0.49457 0.0
C82 C 0.48593 0.05782 0.52537 0.0
C83 C 0.48082 0.04054 0.54606 0.0
C84 C 0.48532 0.02591 0.53607 0.0
C85 C 0.49924 0.04452 0.48545 0.0
H86 H 0.48133 0.01331 0.55322 0.0
H87 H 0.50629 0.04679 0.46167 0.0
H88 H 0.515 0.99629 0.43026 0.0
H89 H 0.50764 0.97426 0.52977 0.0
C90 C 0.48955 0.98559 0.56869 0.0
C91 C 0.55279 0.04513 0.51968 0.0
C92 C 0.4514 0.9719 0.46835 0.0
C93 C 0.51564 0.02941 0.41857 0.0
H94 H 0.55551 0.03814 0.58921 0.0
H95 H 0.52125 0.00538 0.61573 0.0
H96 H 0.44747 0.9509 0.57742 0.0
H97 H 0.42661 0.94383 0.52227 0.0
H98 H 0.44705 0.98168 0.40113 0.0
H99 H 0.48209 0.01344 0.3738 0.0
H100 H 0.55892 0.06111 0.40819 0.0
H101 H 0.57919 0.06958 0.46401 0.0
H102 H 0.52099 0.97003 0.41373 0.0
H103 H 0.51354 0.94755 0.51454 0.0
H104 H 0.49912 0.07257 0.47749 0.0
H105 H 0.4739 0.03855 0.57033 0.0
C106 C 0.54666 0.52367 0.96193 0.0
C107 C 0.55424 0.53272 0.93067 0.0
C108 C 0.53822 0.53317 0.91548 0.0
C109 C 0.52182 0.52435 0.93815 0.0
N110 N 0.52646 0.51855 0.96715 0.0
Co111 Co 0.50676 0.50389 0.00613 0.0
N112 N 0.48273 0.50321 0.98287 0.0
C113 C 0.48318 0.51081 0.95206 0.0
C114 C 0.46444 0.50861 0.94311 0.0
C115 C 0.45128 0.49931 0.96997 0.0
C116 C 0.46284 0.49645 0.99387 0.0
N117 N 0.48699 0.48893 0.04494 0.0
C118 C 0.4666 0.4833 0.04991 0.0
C119 C 0.45891 0.47375 0.08089 0.0
C120 C 0.47499 0.4734 0.09605 0.0
C121 C 0.49155 0.48276 0.07368 0.0
N122 N 0.53088 0.50485 0.02957 0.0
C123 C 0.53065 0.49791 0.06076 0.0
C124 C 0.54948 0.50032 0.06979 0.0
C125 C 0.56246 0.5091 0.0426 0.0
C126 C 0.55071 0.51145 0.01847 0.0
N127 N 0.51449 0.53098 0.02359 0.0
C128 C 0.52211 0.56809 0.04938 0.0
C129 C 0.52117 0.55232 0.0697 0.0
C130 C 0.51749 0.53414 0.05641 0.0
C131 C 0.5199 0.56527 0.01574 0.0
C132 C 0.5161 0.54674 0.00347 0.0
N133 N 0.49901 0.47681 0.98872 0.0
C134 C 0.49523 0.44319 0.99595 0.0
C135 C 0.4902 0.43922 0.96307 0.0
C136 C 0.48922 0.45425 0.94349 0.0
C137 C 0.49364 0.47274 0.95666 0.0
C138 C 0.49947 0.46187 0.00816 0.0
H139 H 0.49278 0.48356 0.94033 0.0
H140 H 0.50336 0.46395 0.03331 0.0
H141 H 0.51689 0.52277 0.07331 0.0
H142 H 0.51417 0.54541 0.97771 0.0
C143 C 0.50161 0.52042 0.93242 0.0
C144 C 0.55882 0.51921 0.98506 0.0
C145 C 0.45436 0.48774 0.02687 0.0
C146 C 0.51201 0.48754 0.07994 0.0
H147 H 0.56958 0.53799 0.91965 0.0
H148 H 0.53833 0.53874 0.89056 0.0
H149 H 0.46088 0.51349 0.92 0.0
H150 H 0.43507 0.49535 0.97194 0.0
H151 H 0.44348 0.46813 0.09185 0.0
H152 H 0.47485 0.46766 0.12087 0.0
H153 H 0.55311 0.49562 0.093 0.0
H154 H 0.57861 0.51289 0.04047 0.0
H155 H 0.52324 0.55396 0.09587 0.0
H156 H 0.52048 0.57704 0.999 0.0
H157 H 0.49637 0.43216 0.01214 0.0
H158 H 0.48497 0.4518 0.91802 0.0
C159 C 0.96826 0.46023 0.49264 0.0
C160 C 0.95397 0.44834 0.46929 0.0
C161 C 0.95805 0.46123 0.44224 0.0
C162 C 0.97459 0.48013 0.45049 0.0
N163 N 0.98149 0.48011 0.48111 0.0
Co164 Co 0.00525 0.5043 0.50296 0.0
N165 N 0.01093 0.52336 0.46333 0.0
C166 C 1.00031 0.51845 0.43505 0.0
C167 C 0.00834 0.53451 0.41174 0.0
C168 C 0.02527 0.55063 0.42575 0.0
C169 C 0.02653 0.54347 0.45706 0.0
N170 N 0.02903 0.52849 0.52477 0.0
C171 C 0.04281 0.54812 0.51272 0.0
C172 C 0.05713 0.56006 0.53599 0.0
C173 C 0.05254 0.54742 0.56354 0.0
C174 C 0.0357 0.52861 0.5556 0.0
N175 N 0.99963 0.48525 0.54257 0.0
C176 C 0.01001 0.49029 0.57108 0.0
C177 C 1.00223 0.47414 0.59419 0.0
C178 C 0.98581 0.45779 0.57974 0.0
C179 C 0.98458 0.4649 0.54837 0.0
N180 N 0.02556 0.49748 0.48514 0.0
C181 C 0.05511 0.48897 0.4592 0.0
C182 C 0.05574 0.49389 0.49188 0.0
C183 C 0.04085 0.49792 0.50431 0.0
C184 C 0.03934 0.48821 0.43982 0.0
C185 C 0.02492 0.49256 0.45311 0.0
N186 N 0.98489 0.51111 0.52083 0.0
C187 C 0.9707 0.5198 0.5664 0.0
C188 C 0.95481 0.51893 0.54714 0.0
C189 C 0.95455 0.51449 0.51423 0.0
C190 C 0.96963 0.51075 0.50169 0.0
C191 C 0.98536 0.51582 0.55294 0.0
H192 H 0.96844 0.50738 0.47651 0.0
H193 H 0.99682 0.51655 0.56913 0.0
H194 H 0.04208 0.50145 0.52945 0.0
H195 H 0.01355 0.49205 0.43688 0.0
C196 C 0.98374 0.49826 0.43027 0.0
C197 C 0.96835 0.45196 0.52553 0.0
C198 C 0.04344 0.55597 0.47924 0.0
C199 C 0.02649 0.51052 0.57592 0.0
H200 H 0.94174 0.43205 0.47166 0.0
H201 H 0.94982 0.45733 0.41937 0.0
H202 H 0.00294 0.53433 0.3871 0.0
H203 H 0.03578 0.56576 0.41385 0.0
H204 H 0.06982 0.57616 0.53312 0.0
H205 H 0.06078 0.55135 0.58639 0.0
H206 H 0.00759 0.47435 0.61887 0.0
H207 H 0.97569 0.44247 0.59131 0.0
H208 H 0.06758 0.49448 0.50792 0.0
H209 H 0.03838 0.48473 0.41421 0.0
H210 H 0.97196 0.52362 0.59187 0.0
H211 H 0.9425 0.51347 0.49824 0.0
C212 C 0.47185 0.98636 0.05089 0.0
C213 C 0.46626 0.9873 0.08297 0.0
C214 C 0.48374 0.00326 0.0962 0.0
C215 C 0.49899 0.01102 0.07172 0.0
N216 N 0.4923 1.00116 0.04345 0.0
Co217 Co 0.5099 0.00638 0.0027 0.0
N218 N 0.53568 0.02987 0.02233 0.0
C219 C 0.53679 0.03736 0.05219 0.0
C220 C 0.55589 0.05473 0.05789 0.0
C221 C 0.5677 0.05877 0.02989 0.0
C222 C 0.55517 0.04334 0.00875 0.0
N223 N 0.52765 0.011 0.96251 0.0
C224 C 0.54838 0.02505 0.95572 0.0
C225 C 0.55484 0.02183 0.92582 0.0
C226 C 0.53744 0.00562 0.91282 0.0
C227 C 0.52148 0.99968 0.93559 0.0
N228 N 0.48397 0.98352 0.9825 0.0
C229 C 0.48239 0.97709 0.95169 0.0
C230 C 0.46248 0.96146 0.94447 0.0
C231 C 0.4506 0.95757 0.97238 0.0
C232 C 0.46407 0.97101 0.99518 0.0
N233 N 0.50286 0.02666 0.98463 0.0
C234 C 0.4943 0.0564 0.95848 0.0
C235 C 0.49514 0.04241 0.93842 0.0
C236 C 0.49944 0.02784 0.95186 0.0
C237 C 0.4976 0.05508 0.99193 0.0
C238 C 0.50172 0.04017 0.0044 0.0
N239 N 0.517 0.98611 0.02075 0.0
C240 C 0.5174 0.95467 0.01614 0.0
C241 C 0.52664 0.9571 0.0466 0.0
C242 C 0.53107 0.97434 0.06386 0.0
C243 C 0.52607 0.98846 0.05069 0.0
C244 C 0.51285 0.96927 0.00371 0.0
H245 H 0.52957 1.00107 0.06534 0.0
H246 H 0.50594 0.96652 0.98028 0.0
H247 H 0.50013 0.01782 0.93517 0.0
H248 H 0.50402 0.03995 0.03011 0.0
C249 C 0.51956 0.02782 0.07428 0.0
C250 C 0.45736 0.97078 0.02883 0.0
C251 C 0.56225 0.04236 0.9758 0.0
C252 C 0.5003 0.98463 0.93133 0.0
H253 H 0.45119 0.97737 0.09569 0.0
H254 H 0.48519 0.0085 0.12082 0.0
H255 H 0.56054 0.06363 0.07961 0.0
H256 H 0.58362 0.07184 0.0256 0.0
H257 H 0.57043 0.03058 0.91425 0.0
H258 H 0.53645 0.99924 0.88925 0.0
H259 H 0.45735 0.95344 0.92192 0.0
H260 H 0.43398 0.94588 0.97581 0.0
H261 H 0.49293 0.04296 0.91226 0.0
H262 H 0.49685 0.06541 0.00853 0.0
H263 H 0.51385 0.94164 0.00173 0.0
H264 H 0.53798 0.97672 0.0878 0.0
C265 C 0.51674 0.5465 0.51011 0.0
C266 C 0.51422 0.55756 0.53392 0.0
C267 C 0.50442 0.54408 0.56041 0.0
C268 C 0.50162 0.52567 0.55137 0.0
N269 N 0.50928 0.5266 0.52083 0.0
Co270 Co 0.50813 0.50328 0.4977 0.0
N271 N 0.4929 0.48323 0.53621 0.0
C272 C 0.48692 0.48726 0.56482 0.0
C273 C 0.47759 0.47066 0.58718 0.0
C274 C 0.47788 0.45513 0.57221 0.0
C275 C 0.48736 0.4632 0.54138 0.0
N276 N 0.50682 0.47992 0.47448 0.0
C277 C 0.4999 0.4602 0.48555 0.0
C278 C 0.50221 0.44903 0.46172 0.0
C279 C 0.5113 0.46228 0.43476 0.0
C280 C 0.51394 0.48067 0.44362 0.0
N281 N 0.52356 0.52338 0.4593 0.0
C282 C 0.52954 0.51928 0.43073 0.0
C283 C 0.53922 0.53594 0.40853 0.0
C284 C 0.53931 0.55161 0.42363 0.0
C285 C 0.52972 0.54361 0.45444 0.0
N286 N 0.53553 0.51009 0.51631 0.0
C287 C 0.57356 0.51773 0.54364 0.0
C288 C 0.56973 0.51389 0.51046 0.0
C289 C 0.55081 0.51022 0.49739 0.0
C290 C 0.55815 0.51802 0.56273 0.0
C291 C 0.53946 0.51421 0.54872 0.0
N292 N 0.4807 0.4965 0.47906 0.0
C293 C 0.45886 0.49066 0.43212 0.0
C294 C 0.44305 0.48986 0.45169 0.0
C295 C 0.44611 0.49179 0.48537 0.0
C296 C 0.4649 0.4951 0.49841 0.0
C297 C 0.47732 0.49385 0.44618 0.0
H298 H 0.46638 0.49681 0.52414 0.0
H299 H 0.48871 0.49435 0.42984 0.0
H300 H 0.54885 0.50735 0.47199 0.0
H301 H 0.5283 0.5144 0.56473 0.0
C302 C 0.49137 0.50713 0.57065 0.0
C303 C 0.52582 0.55549 0.47746 0.0
C304 C 0.49186 0.45163 0.51869 0.0
C305 C 0.52454 0.49928 0.42458 0.0
H306 H 0.51875 0.57366 0.53215 0.0
H307 H 0.49963 0.54724 0.58334 0.0
H308 H 0.47184 0.4701 0.61181 0.0
H309 H 0.47225 0.43979 0.58312 0.0
H310 H 0.49817 0.43309 0.46391 0.0
H311 H 0.51604 0.45908 0.41181 0.0
H312 H 0.54494 0.53645 0.38391 0.0
H313 H 0.54529 0.56702 0.41273 0.0
H314 H 0.58129 0.51378 0.49453 0.0
H315 H 0.56022 0.52066 0.58868 0.0
H316 H 0.45704 0.48883 0.40595 0.0
H317 H 0.43432 0.49133 0.50154 0.0
H318 H 0.23073 0.49639 0.16802 0.0
H319 H 0.23292 0.4943 0.27353 0.0
H320 H 0.17336 0.46821 0.22646 0.0
H321 H 0.26373 0.51822 0.19469 0.0
H322 H 0.2643 0.51981 0.23813 0.0
H323 H 0.27151 0.49473 0.16871 0.0
H324 H 0.29751 0.46612 0.22851 0.0
H325 H 0.26837 0.49506 0.27411 0.0
C326 C 0.22267 0.49128 0.19184 0.0
C327 C 0.20057 0.48105 0.19392 0.0
C328 C 0.23446 0.49575 0.22052 0.0
C329 C 0.22389 0.49009 0.2514 0.0
C330 C 0.20177 0.47986 0.25373 0.0
C331 C 0.19032 0.47506 0.22486 0.0
C332 C 0.25829 0.50869 0.21823 0.0
C333 C 0.26785 0.49545 0.22112 0.0
C334 C 0.27409 0.48992 0.19273 0.0
C335 C 0.28464 0.47914 0.19529 0.0
C336 C 0.28838 0.47344 0.22647 0.0
C337 C 0.28275 0.47924 0.25498 0.0
C338 C 0.27228 0.49008 0.25221 0.0
H339 H 0.7272 0.22728 0.68797 0.0
H340 H 0.74461 0.22529 0.78787 0.0
H341 H 0.70058 0.16891 0.74235 0.0
H342 H 0.74569 0.25857 0.71541 0.0
H343 H 0.74425 0.2565 0.75899 0.0
H344 H 0.77754 0.26481 0.68522 0.0
H345 H 0.83464 0.29551 0.73869 0.0
H346 H 0.77456 0.26354 0.7907 0.0
C347 C 0.72656 0.21839 0.70994 0.0
C348 C 0.71281 0.19674 0.7118 0.0
C349 C 0.73817 0.22876 0.73733 0.0
C350 C 0.73623 0.21721 0.76654 0.0
C351 C 0.72263 0.1955 0.76877 0.0
C352 C 0.71151 0.18554 0.7409 0.0
C353 C 0.74974 0.25214 0.73719 0.0
C354 C 0.77341 0.26221 0.73799 0.0
C355 C 0.78541 0.26829 0.70845 0.0
C356 C 0.80754 0.28 0.70876 0.0
C357 C 0.81761 0.28529 0.73883 0.0
C358 C 0.80598 0.27968 0.76863 0.0
C359 C 0.78379 0.26772 0.768 0.0
H360 H 0.52186 0.7406 0.21862 0.0
H361 H 0.52322 0.73771 0.32417 0.0
H362 H 0.55141 0.71167 0.26772 0.0
H363 H 0.49794 0.74598 0.25205 0.0
H364 H 0.49826 0.74442 0.29572 0.0
H365 H 0.5255 0.778 0.22008 0.0
H366 H 0.55054 0.83411 0.27122 0.0
H367 H 0.51923 0.77529 0.32547 0.0
C368 C 0.52715 0.73678 0.24102 0.0
C369 C 0.53795 0.72627 0.2395 0.0
C370 C 0.52221 0.74142 0.27151 0.0
C371 C 0.52792 0.73515 0.30059 0.0
C372 C 0.5387 0.72463 0.29929 0.0
C373 C 0.54412 0.72079 0.26869 0.0
C374 C 0.50862 0.75065 0.27319 0.0
C375 C 0.52178 0.77404 0.27291 0.0
C376 C 0.52895 0.78581 0.24287 0.0
C377 C 0.53955 0.80755 0.2421 0.0
C378 C 0.54343 0.81743 0.27175 0.0
C379 C 0.53608 0.80599 0.30184 0.0
C380 C 0.52541 0.78425 0.30236 0.0
H381 H 0.76674 0.55713 0.72738 0.0
H382 H 0.76313 0.55759 0.83276 0.0
H383 H 0.70641 0.52576 0.77824 0.0
H384 H 0.79706 0.58355 0.75944 0.0
H385 H 0.79621 0.58104 0.80317 0.0
H386 H 0.80276 0.56029 0.72597 0.0
H387 H 0.83301 0.53184 0.77418 0.0
H388 H 0.80496 0.55773 0.83152 0.0
C389 C 0.75749 0.55206 0.75017 0.0
C390 C 0.73537 0.54013 0.74939 0.0
C391 C 0.76768 0.55803 0.78027 0.0
C392 C 0.75545 0.55235 0.80962 0.0
C393 C 0.73331 0.54048 0.80901 0.0
C394 C 0.72351 0.53412 0.77891 0.0
C395 C 0.79141 0.57203 0.7807 0.0
C396 C 0.80209 0.55983 0.779 0.0
C397 C 0.80697 0.55528 0.74837 0.0
C398 C 0.81782 0.54485 0.74658 0.0
C399 C 0.82365 0.5389 0.77565 0.0
C400 C 0.81929 0.54358 0.80637 0.0
C401 C 0.80825 0.55387 0.80793 0.0
H402 H 0.27523 0.78594 0.20738 0.0
H403 H 0.27458 0.78555 0.31294 0.0
H404 H 0.30336 0.8433 0.25561 0.0
H405 H 0.26893 0.75541 0.24067 0.0
H406 H 0.26867 0.75522 0.28435 0.0
H407 H 0.23736 0.74862 0.20986 0.0
H408 H 0.17831 0.71281 0.2639 0.0
H409 H 0.23629 0.7437 0.3155 0.0
C410 C 0.27846 0.79417 0.22973 0.0
C411 C 0.28928 0.81592 0.2279 0.0
C412 C 0.27273 0.78306 0.26035 0.0
C413 C 0.27812 0.79396 0.28929 0.0
C414 C 0.28895 0.81574 0.28773 0.0
C415 C 0.29398 0.82648 0.25696 0.0
C416 C 0.26327 0.75991 0.2621 0.0
C417 C 0.23945 0.74815 0.26266 0.0
C418 C 0.22856 0.7433 0.23307 0.0
C419 C 0.20642 0.73078 0.23339 0.0
C420 C 0.19527 0.72349 0.26361 0.0
C421 C 0.20583 0.7279 0.29332 0.0
C422 C 0.22796 0.74052 0.2927 0.0
H423 H 0.44236 0.24742 0.78948 0.0
H424 H 0.45025 0.24918 0.68436 0.0
H425 H 0.47285 0.30566 0.7333 0.0
H426 H 0.42292 0.21581 0.76061 0.0
H427 H 0.42296 0.21684 0.71689 0.0
H428 H 0.44931 0.21164 0.79047 0.0
H429 H 0.48046 0.18755 0.73662 0.0
H430 H 0.44794 0.21247 0.68481 0.0
C431 C 0.44858 0.25618 0.76622 0.0
C432 C 0.45796 0.27781 0.76479 0.0
C433 C 0.44589 0.2457 0.73725 0.0
C434 C 0.45297 0.25715 0.70688 0.0
C435 C 0.46301 0.27882 0.70554 0.0
C436 C 0.46567 0.28895 0.73454 0.0
C437 C 0.43344 0.22228 0.73827 0.0
C438 C 0.44771 0.21377 0.73763 0.0
C439 C 0.45422 0.20888 0.76723 0.0
C440 C 0.46631 0.19968 0.76687 0.0
C441 C 0.47211 0.19568 0.73675 0.0
C442 C 0.46549 0.20006 0.70704 0.0
C443 C 0.45343 0.20932 0.70759 0.0
H444 H 0.04044 0.45576 0.03737 0.0
H445 H 0.06867 0.45115 0.05836 0.0
H446 H 0.1114 0.51755 0.05452 0.0
H447 H 0.08316 0.52213 0.03352 0.0
H448 H 0.12881 0.49335 0.0304 0.0
H449 H 0.08926 0.4659 0.15392 0.0
H450 H 0.07342 0.45262 0.1198 0.0
H451 H 0.08232 0.47941 0.12405 0.0
C452 C 0.05592 0.46929 0.04089 0.0
C453 C 0.05973 0.48928 0.03427 0.0
C454 C 0.07198 0.46668 0.05284 0.0
C455 C 0.09203 0.48402 0.05826 0.0
C456 C 0.09602 0.50399 0.0505 0.0
H457 H 0.20717 0.51175 0.14923 0.0
H458 H 0.18152 0.51089 0.11112 0.0
C459 C 0.07995 0.5066 0.03866 0.0
C460 C 0.10852 0.48143 0.0737 0.0
H461 H 0.12089 0.46674 0.14606 0.0
C462 C 0.1271 0.48744 0.05563 0.0
C463 C 0.10618 0.47371 0.10658 0.0
C464 C 0.08682 0.46766 0.12743 0.0
C465 C 0.14344 0.48585 0.06964 0.0
C466 C 0.14127 0.47848 0.10277 0.0
C467 C 0.12252 0.47224 0.1206 0.0
C468 C 0.15851 0.47813 0.1204 0.0
C469 C 0.16274 0.49189 0.04873 0.0
C470 C 0.15436 0.45995 0.1379 0.0
C471 C 0.16893 0.46049 0.15992 0.0
C472 C 0.18797 0.4792 0.16478 0.0
C473 C 0.1928 0.49704 0.14552 0.0
C474 C 0.17811 0.49655 0.1237 0.0
H475 H 0.15911 0.49044 0.02226 0.0
H476 H 0.175 0.50834 0.0523 0.0
H477 H 0.16936 0.48217 0.05555 0.0
H478 H 0.13935 0.44557 0.13581 0.0
H479 H 0.16482 0.44654 0.17456 0.0
H480 H 0.56213 0.08492 0.51394 0.0
H481 H 0.5928 0.11595 0.53455 0.0
H482 H 0.61602 0.07834 0.57455 0.0
H483 H 0.58636 0.04775 0.55135 0.0
H484 H 0.60257 0.1258 0.59182 0.0
H485 H 0.66997 0.12492 0.53926 0.0
H486 H 0.64349 0.10814 0.52555 0.0
H487 H 0.65286 0.10049 0.56087 0.0
C488 C 0.57408 0.08346 0.52657 0.0
C489 C 0.57184 0.06399 0.53147 0.0
C490 C 0.59157 0.10116 0.53843 0.0
C491 C 0.60703 0.0997 0.55583 0.0
C492 C 0.60481 0.08017 0.56037 0.0
H493 H 0.67112 0.16661 0.71865 0.0
H494 H 0.64719 0.14614 0.67673 0.0
C495 C 0.58764 0.06258 0.54767 0.0
C496 C 0.62425 0.11808 0.57192 0.0
H497 H 0.67637 0.14236 0.59065 0.0
C498 C 0.61878 0.12963 0.59089 0.0
C499 C 0.64564 0.12371 0.57024 0.0
C500 C 0.65332 0.11378 0.54752 0.0
C501 C 0.63367 0.14559 0.60977 0.0
C502 C 0.65444 0.14953 0.61106 0.0
C503 C 0.66034 0.13905 0.59036 0.0
C504 C 0.66942 0.16277 0.63607 0.0
C505 C 0.62681 0.15787 0.62841 0.0
C506 C 0.69031 0.17861 0.62751 0.0
C507 C 0.70446 0.19005 0.65187 0.0
C508 C 0.69794 0.18571 0.68516 0.0
C509 C 0.67689 0.17012 0.69337 0.0
C510 C 0.66298 0.15861 0.66926 0.0
H511 H 0.61461 0.15919 0.61495 0.0
H512 H 0.61963 0.14967 0.65248 0.0
H513 H 0.64028 0.17372 0.63262 0.0
H514 H 0.69572 0.182 0.60205 0.0
H515 H 0.72056 0.20191 0.64474 0.0
H516 H 0.50268 0.57035 0.10426 0.0
H517 H 0.50779 0.60135 0.12869 0.0
H518 H 0.5529 0.63974 0.05119 0.0
H519 H 0.54771 0.60864 0.02637 0.0
H520 H 0.54417 0.63282 0.15198 0.0
H521 H 0.51477 0.66318 0.05344 0.0
H522 H 0.50986 0.63722 0.05451 0.0
H523 H 0.53516 0.6589 0.04063 0.0
C524 C 0.51371 0.58539 0.0924 0.0
C525 C 0.52487 0.58704 0.06346 0.0
C526 C 0.51653 0.60309 0.1063 0.0
C527 C 0.53056 0.62287 0.09162 0.0
C528 C 0.54166 0.62463 0.06258 0.0
H529 H 0.57305 0.72899 0.21299 0.0
H530 H 0.57365 0.70692 0.1716 0.0
C531 C 0.53873 0.60685 0.04849 0.0
C532 C 0.53424 0.64152 0.10798 0.0
H533 H 0.52945 0.68381 0.09921 0.0
C534 C 0.54105 0.64403 0.14037 0.0
C535 C 0.53002 0.65604 0.09285 0.0
C536 C 0.52187 0.65369 0.05854 0.0
C537 C 0.54341 0.66038 0.15832 0.0
C538 C 0.53939 0.67505 0.14315 0.0
C539 C 0.5328 0.67272 0.1106 0.0
C540 C 0.54035 0.69181 0.16188 0.0
C541 C 0.54932 0.66125 0.19384 0.0
C542 C 0.52183 0.69178 0.1682 0.0
C543 C 0.52155 0.70464 0.19139 0.0
C544 C 0.53978 0.71764 0.20869 0.0
C545 C 0.55876 0.71901 0.20012 0.0
C546 C 0.55908 0.70632 0.17668 0.0
H547 H 0.54705 0.64631 0.20367 0.0
H548 H 0.56622 0.67344 0.19604 0.0
H549 H 0.53979 0.66517 0.20936 0.0
H550 H 0.50723 0.68078 0.15693 0.0
H551 H 0.50667 0.70314 0.19771 0.0
H552 H 0.93677 0.53919 0.5184 0.0
H553 H 0.91051 0.54519 0.54287 0.0
H554 H 0.91026 0.51308 0.63274 0.0
H555 H 0.93586 0.50637 0.60838 0.0
H556 H 0.8672 0.51089 0.57913 0.0
H557 H 0.92618 0.57573 0.6518 0.0
H558 H 0.93324 0.56861 0.61443 0.0
H559 H 0.92798 0.55301 0.6517 0.0
C560 C 0.93093 0.53314 0.54322 0.0
C561 C 0.9386 0.52241 0.56147 0.0
C562 C 0.916 0.53667 0.55716 0.0
C563 C 0.90862 0.52967 0.5896 0.0
C564 C 0.91595 0.51873 0.60772 0.0
H565 H 0.81396 0.50955 0.72548 0.0
H566 H 0.83391 0.50699 0.68037 0.0
C567 C 0.93072 0.51507 0.5938 0.0
C568 C 0.89359 0.53409 0.60517 0.0
H569 H 0.89009 0.56183 0.66547 0.0
C570 C 0.87217 0.52223 0.59767 0.0
C571 C 0.90023 0.54904 0.62902 0.0
C572 C 0.92318 0.56249 0.6372 0.0
C573 C 0.85701 0.52427 0.61471 0.0
C574 C 0.86351 0.5384 0.63992 0.0
C575 C 0.8851 0.551 0.64614 0.0
C576 C 0.84825 0.539 0.66251 0.0
C577 C 0.83414 0.51103 0.60599 0.0
C578 C 0.84933 0.55774 0.66711 0.0
C579 C 0.83789 0.55922 0.69295 0.0
C580 C 0.82546 0.54205 0.71483 0.0
C581 C 0.8234 0.523 0.70891 0.0
C582 C 0.8347 0.5215 0.68302 0.0
H583 H 0.83254 0.50623 0.58032 0.0
H584 H 0.8263 0.49677 0.62244 0.0
H585 H 0.82577 0.51938 0.60908 0.0
H586 H 0.85982 0.57148 0.65172 0.0
H587 H 0.83997 0.57415 0.69719 0.0
H588 H 0.44422 0.93022 0.04046 0.0
H589 H 0.41033 0.90245 0.06516 0.0
H590 H 0.38946 0.9455 0.07044 0.0
H591 H 0.42341 0.97329 0.04564 0.0
H592 H 0.3864 0.92381 0.13018 0.0
H593 H 0.34996 0.86984 0.02997 0.0
H594 H 0.37682 0.87757 0.03746 0.0
H595 H 0.37101 0.89661 0.02266 0.0
C596 C 0.4322 0.93357 0.04646 0.0
C597 C 0.43625 0.95375 0.0414 0.0
C598 C 0.41285 0.91774 0.06032 0.0
C599 C 0.39728 0.92186 0.0692 0.0
C600 C 0.40121 0.94198 0.06348 0.0
H601 H 0.28747 0.84874 0.20214 0.0
H602 H 0.31071 0.87398 0.15863 0.0
C603 C 0.42052 0.95779 0.04946 0.0
C604 C 0.37788 0.90575 0.08751 0.0
H605 H 0.3349 0.8566 0.08392 0.0
C606 C 0.37494 0.90923 0.11995 0.0
C607 C 0.36311 0.88671 0.0741 0.0
C608 C 0.36522 0.88246 0.03903 0.0
C609 C 0.35808 0.89388 0.13987 0.0
C610 C 0.34338 0.87469 0.12665 0.0
C611 C 0.34608 0.87136 0.09393 0.0
C612 C 0.32615 0.85748 0.14739 0.0
C613 C 0.35681 0.89803 0.17538 0.0
C614 C 0.32601 0.83909 0.15367 0.0
C615 C 0.31248 0.82449 0.17806 0.0
C616 C 0.29897 0.82812 0.1966 0.0
C617 C 0.29786 0.84567 0.18832 0.0
C618 C 0.31121 0.86014 0.16368 0.0
H619 H 0.37192 0.9114 0.18343 0.0
H620 H 0.34438 0.9017 0.17863 0.0
H621 H 0.35266 0.88422 0.19167 0.0
H622 H 0.33733 0.83668 0.14126 0.0
H623 H 0.31379 0.81119 0.18412 0.0
H624 H 0.45608 0.41336 0.52815 0.0
H625 H 0.45322 0.3815 0.55152 0.0
H626 H 0.52096 0.41425 0.55838 0.0
H627 H 0.52376 0.44607 0.53526 0.0
H628 H 0.47364 0.35879 0.53184 0.0
H629 H 0.49647 0.39263 0.65396 0.0
H630 H 0.48776 0.40328 0.62185 0.0
H631 H 0.51405 0.40811 0.62011 0.0
C632 C 0.47029 0.41357 0.53443 0.0
C633 C 0.4901 0.432 0.53036 0.0
C634 C 0.46868 0.39545 0.5476 0.0
C635 C 0.48687 0.39561 0.5569 0.0
C636 C 0.50674 0.41388 0.55161 0.0
H637 H 0.50177 0.3105 0.68429 0.0
H638 H 0.50913 0.33749 0.64187 0.0
C639 C 0.50834 0.43197 0.53844 0.0
C640 C 0.48498 0.37713 0.57422 0.0
H641 H 0.49138 0.35964 0.64899 0.0
C642 C 0.47758 0.35892 0.55742 0.0
C643 C 0.49009 0.3774 0.60757 0.0
C644 C 0.49738 0.39631 0.62713 0.0
C645 C 0.47535 0.34097 0.57312 0.0
C646 C 0.48031 0.34121 0.60661 0.0
C647 C 0.4878 0.3595 0.62323 0.0
C648 C 0.47692 0.32256 0.62584 0.0
C649 C 0.46798 0.32206 0.55363 0.0
C650 C 0.4566 0.30469 0.62987 0.0
C651 C 0.45249 0.28908 0.65372 0.0
C652 C 0.46858 0.29129 0.67417 0.0
C653 C 0.48919 0.3084 0.66853 0.0
C654 C 0.49335 0.32385 0.64447 0.0
H655 H 0.47143 0.32629 0.52696 0.0
H656 H 0.47554 0.31341 0.56175 0.0
H657 H 0.45063 0.3116 0.55722 0.0
H658 H 0.44356 0.30352 0.61639 0.0
H659 H 0.43639 0.27623 0.65812 0.0
H660 H 0.49943 0.93203 0.41091 0.0
H661 H 0.50425 0.90468 0.39227 0.0
H662 H 0.54583 0.91439 0.47197 0.0
H663 H 0.54092 0.94179 0.49098 0.0
H664 H 0.54109 0.90907 0.37172 0.0
H665 H 0.50623 0.85142 0.47762 0.0
H666 H 0.50216 0.87277 0.47215 0.0
H667 H 0.5266 0.87708 0.48765 0.0
C668 C 0.50961 0.92836 0.42451 0.0
C669 C 0.51989 0.93916 0.45232 0.0
C670 C 0.51226 0.91264 0.41392 0.0
C671 C 0.52523 0.90732 0.43089 0.0
C672 C 0.53539 0.91791 0.45889 0.0
H673 H 0.57035 0.83948 0.32693 0.0
H674 H 0.56965 0.86347 0.36427 0.0
C675 C 0.53263 0.93361 0.46965 0.0
C676 C 0.52893 0.89153 0.41781 0.0
H677 H 0.52229 0.84393 0.43479 0.0
C678 C 0.53707 0.89487 0.38558 0.0
C679 C 0.52353 0.87295 0.43587 0.0
C680 C 0.51397 0.86817 0.47015 0.0
C681 C 0.53965 0.88007 0.37066 0.0
C682 C 0.53449 0.86156 0.38878 0.0
C683 C 0.52652 0.85824 0.42115 0.0
C684 C 0.53583 0.84497 0.3733 0.0
C685 C 0.54711 0.88406 0.33515 0.0
C686 C 0.51732 0.82588 0.36811 0.0
C687 C 0.51777 0.81199 0.34726 0.0
C688 C 0.53672 0.81706 0.33121 0.0
C689 C 0.55553 0.83526 0.33892 0.0
C690 C 0.55512 0.84903 0.36003 0.0
H691 H 0.5457 0.89659 0.32281 0.0
H692 H 0.56398 0.8889 0.33379 0.0
H693 H 0.53794 0.86982 0.32134 0.0
H694 H 0.50229 0.8224 0.37823 0.0
H695 H 0.50302 0.79817 0.34151 0.0
H696 H 0.59767 0.55425 0.97369 0.0
H697 H 0.62962 0.55674 0.95115 0.0
H698 H 0.596 0.49007 0.94882 0.0
H699 H 0.56407 0.48765 0.97107 0.0
H700 H 0.65307 0.5375 0.97361 0.0
H701 H 0.61675 0.51219 0.85251 0.0
H702 H 0.60614 0.52106 0.88294 0.0
H703 H 0.60152 0.49534 0.8872 0.0
C704 C 0.59728 0.5402 0.96852 0.0
C705 C 0.57855 0.52078 0.97367 0.0
C706 C 0.61546 0.5416 0.95581 0.0
C707 C 0.61508 0.5236 0.94801 0.0
C708 C 0.59653 0.50415 0.95432 0.0
H709 H 0.69977 0.50365 0.83314 0.0
H710 H 0.67245 0.49877 0.87236 0.0
C711 C 0.57838 0.50275 0.96704 0.0
C712 C 0.63368 0.5252 0.93164 0.0
H713 H 0.65024 0.51674 0.85939 0.0
C714 C 0.65251 0.53295 0.94866 0.0
C715 C 0.63287 0.5193 0.89907 0.0
C716 C 0.61332 0.51166 0.87916 0.0
C717 C 0.67052 0.53465 0.93406 0.0
C718 C 0.6697 0.52878 0.90142 0.0
C719 C 0.65082 0.52104 0.88452 0.0
C720 C 0.68827 0.53111 0.88349 0.0
C721 C 0.69009 0.54239 0.95386 0.0
C722 C 0.70667 0.55077 0.87766 0.0
C723 C 0.72244 0.55352 0.85553 0.0
C724 C 0.71989 0.53671 0.83854 0.0
C725 C 0.70212 0.51684 0.84599 0.0
C726 C 0.68649 0.51407 0.86828 0.0
H727 H 0.68629 0.54017 0.98063 0.0
H728 H 0.69844 0.53434 0.94801 0.0
H729 H 0.70098 0.55923 0.94798 0.0
H730 H 0.70824 0.56424 0.8885 0.0
H731 H 0.7358 0.56905 0.84981 0.0
H732 H 0.0832 0.56447 0.4685 0.0
H733 H 0.11408 0.59709 0.44646 0.0
H734 H 0.07632 0.62476 0.43972 0.0
H735 H 0.04565 0.5923 0.46278 0.0
H736 H 0.11768 0.61507 0.38692 0.0
H737 H 0.12869 0.67021 0.48052 0.0
H738 H 0.11208 0.64245 0.48793 0.0
H739 H 0.10241 0.65653 0.46541 0.0
C740 C 0.08168 0.57767 0.46267 0.0
C741 C 0.06219 0.57602 0.46703 0.0
C742 C 0.09925 0.59625 0.45015 0.0
C743 C 0.09762 0.61348 0.44186 0.0
C744 C 0.07813 0.61187 0.44668 0.0
H745 H 0.16879 0.72285 0.31603 0.0
H746 H 0.14426 0.69659 0.35733 0.0
C747 C 0.06058 0.59332 0.45946 0.0
C748 C 0.11577 0.63245 0.42553 0.0
H749 H 0.14701 0.68517 0.42871 0.0
C750 C 0.12427 0.63035 0.39634 0.0
C751 C 0.12431 0.65241 0.43776 0.0
C752 C 0.11655 0.65556 0.4698 0.0
C753 C 0.14065 0.64766 0.37855 0.0
C754 C 0.14893 0.66762 0.39045 0.0
C755 C 0.14065 0.6698 0.4198 0.0
C756 C 0.16537 0.68634 0.37136 0.0
C757 C 0.14854 0.64455 0.34655 0.0
C758 C 0.18572 0.68991 0.36686 0.0
C759 C 0.19976 0.7049 0.34331 0.0
C760 C 0.1936 0.71646 0.32387 0.0
C761 C 0.17388 0.71405 0.3305 0.0
C762 C 0.15989 0.69911 0.35411 0.0
H763 H 0.13812 0.62861 0.33815 0.0
H764 H 0.1497 0.65582 0.32707 0.0
H765 H 0.16455 0.64724 0.34972 0.0
H766 H 0.19024 0.68025 0.38012 0.0
H767 H 0.21475 0.70627 0.3386 0.0
H768 H 0.51428 0.09739 0.97221 0.0
H769 H 0.50911 0.1241 0.94668 0.0
H770 H 0.46041 0.07841 0.88743 0.0
H771 H 0.46556 0.05167 0.91272 0.0
H772 H 0.48956 0.11255 0.85129 0.0
H773 H 0.46247 0.13619 0.95794 0.0
H774 H 0.48686 0.13726 0.96395 0.0
H775 H 0.46297 0.11268 0.95896 0.0
C776 C 0.50221 0.09297 0.95416 0.0
C777 C 0.49035 0.07241 0.94445 0.0
C778 C 0.49923 0.10825 0.93966 0.0
C779 C 0.48417 0.10322 0.91546 0.0
C780 C 0.47208 0.08264 0.90613 0.0
H781 H 0.43797 0.17339 0.8146 0.0
H782 H 0.44328 0.15179 0.855 0.0
C783 C 0.47512 0.0674 0.92047 0.0
C784 C 0.48208 0.11958 0.89798 0.0
H785 H 0.47107 0.15736 0.90851 0.0
C786 C 0.48548 0.12231 0.86383 0.0
C787 C 0.47659 0.13221 0.91433 0.0
C788 C 0.47181 0.12936 0.95078 0.0
C789 C 0.48367 0.13734 0.84558 0.0
C790 C 0.47879 0.15038 0.86199 0.0
C791 C 0.47514 0.14756 0.8961 0.0
C792 C 0.47664 0.16638 0.84349 0.0
C793 C 0.48658 0.13882 0.80872 0.0
C794 C 0.49389 0.18252 0.82512 0.0
C795 C 0.49088 0.1948 0.80207 0.0
C796 C 0.47062 0.1913 0.79729 0.0
C797 C 0.45377 0.17653 0.818 0.0
C798 C 0.45677 0.16411 0.84094 0.0
H799 H 0.48532 0.12469 0.79947 0.0
H800 H 0.47467 0.14118 0.79648 0.0
H801 H 0.50249 0.15227 0.8015 0.0
H802 H 0.50942 0.18474 0.82714 0.0
H803 H 0.50412 0.20615 0.78646 0.0
H804 H 0.44072 0.50947 0.39574 0.0
H805 H 0.40918 0.50519 0.37025 0.0
H806 H 0.37024 0.46071 0.44815 0.0
H807 H 0.40188 0.46506 0.47402 0.0
H808 H 0.37647 0.46983 0.34733 0.0
H809 H 0.34755 0.49923 0.44338 0.0
H810 H 0.37378 0.50354 0.44308 0.0
H811 H 0.35155 0.47881 0.45726 0.0
C812 C 0.42545 0.49875 0.40746 0.0
C813 C 0.42379 0.48753 0.43683 0.0
C814 C 0.40744 0.49641 0.39296 0.0
C815 C 0.38736 0.48281 0.40746 0.0
C816 C 0.3856 0.47163 0.4369 0.0
H817 H 0.27889 0.44408 0.2832 0.0
H818 H 0.30109 0.44251 0.32596 0.0
C819 C 0.40367 0.47407 0.45158 0.0
C820 C 0.36837 0.47968 0.39054 0.0
H821 H 0.32606 0.48543 0.39741 0.0
C822 C 0.36539 0.47313 0.35835 0.0
C823 C 0.35402 0.48414 0.40491 0.0
C824 C 0.3569 0.492 0.43895 0.0
C825 C 0.34873 0.4713 0.33986 0.0
C826 C 0.33423 0.47557 0.35427 0.0
C827 C 0.33702 0.48188 0.38662 0.0
C828 C 0.31724 0.4752 0.33487 0.0
C829 C 0.34739 0.46565 0.30456 0.0
C830 C 0.31779 0.49372 0.32767 0.0
C831 C 0.30484 0.49455 0.30371 0.0
C832 C 0.29126 0.47689 0.28653 0.0
C833 C 0.28932 0.45793 0.29599 0.0
C834 C 0.30209 0.45706 0.32021 0.0
H835 H 0.36237 0.46757 0.29525 0.0
H836 H 0.33469 0.44917 0.3026 0.0
H837 H 0.3436 0.47535 0.28845 0.0
H838 H 0.3293 0.50788 0.33882 0.0
H839 H 0.30678 0.50939 0.2967 0.0
H840 H 0.91204 0.41997 0.97362 0.0
H841 H 0.8841 0.38848 0.94942 0.0
H842 H 0.93106 0.38261 0.898 0.0
H843 H 0.95912 0.41406 0.92216 0.0
H844 H 0.88113 0.38515 0.87707 0.0
H845 H 0.88767 0.32298 0.94211 0.0
H846 H 0.89682 0.34778 0.95924 0.0
H847 H 0.91194 0.34573 0.92707 0.0
C848 C 0.91642 0.41175 0.95764 0.0
C849 C 0.93778 0.41948 0.94977 0.0
C850 C 0.90045 0.39383 0.94379 0.0
C851 C 0.90555 0.38313 0.92226 0.0
C852 C 0.92683 0.3905 0.91494 0.0
H853 H 0.84379 0.28582 0.78928 0.0
H854 H 0.86615 0.30936 0.83058 0.0
C855 C 0.94282 0.40855 0.92851 0.0
C856 C 0.88867 0.36539 0.9051 0.0
H857 H 0.86559 0.31341 0.89618 0.0
C858 C 0.87751 0.3694 0.88146 0.0
C859 C 0.88423 0.34498 0.91075 0.0
C860 C 0.89565 0.33995 0.93631 0.0
C861 C 0.86247 0.35364 0.86242 0.0
C862 C 0.85793 0.33311 0.86801 0.0
C863 C 0.8689 0.32907 0.89211 0.0
C864 C 0.84297 0.3161 0.84734 0.0
C865 C 0.85237 0.35941 0.83542 0.0
C866 C 0.82207 0.31111 0.8443 0.0
C867 C 0.80936 0.29796 0.82021 0.0
C868 C 0.81723 0.28927 0.7991 0.0
C869 C 0.83741 0.29264 0.80458 0.0
C870 C 0.85019 0.306 0.82835 0.0
H871 H 0.86148 0.37636 0.82902 0.0
H872 H 0.85103 0.35118 0.81291 0.0
H873 H 0.83628 0.35499 0.84372 0.0
H874 H 0.81594 0.31824 0.85938 0.0
H875 H 0.79395 0.29579 0.81678 0.0
H876 H 0.93652 0.49451 0.9412 0.0
H877 H 0.90829 0.49937 0.92115 0.0
H878 H 0.93493 0.5562 0.97159 0.0
H879 H 0.96327 0.55136 0.99141 0.0
H880 H 0.87807 0.50448 0.95775 0.0
H881 H 0.93169 0.57307 0.87471 0.0
H882 H 0.93932 0.55573 0.89183 0.0
H883 H 0.93896 0.57435 0.91689 0.0
C884 C 0.93621 0.50797 0.94798 0.0
C885 C 0.95191 0.52261 0.96764 0.0
C886 C 0.92013 0.51071 0.93668 0.0
C887 C 0.91963 0.52822 0.94469 0.0
C888 C 0.93517 0.54271 0.96484 0.0
H889 H 0.84188 0.57052 0.85356 0.0
H890 H 0.86399 0.56683 0.89418 0.0
C891 C 0.95126 0.53994 0.97619 0.0
C892 C 0.90314 0.5315 0.93107 0.0
H893 H 0.89574 0.56184 0.87553 0.0
C894 C 0.8819 0.51712 0.93997 0.0
C895 C 0.90822 0.54806 0.90806 0.0
C896 C 0.93075 0.56365 0.89702 0.0
C897 C 0.86555 0.51866 0.92599 0.0
C898 C 0.87059 0.53477 0.90202 0.0
C899 C 0.89188 0.54955 0.89401 0.0
C900 C 0.85421 0.53556 0.8825 0.0
C901 C 0.84306 0.50298 0.93696 0.0
C902 C 0.84088 0.51899 0.86317 0.0
C903 C 0.82814 0.52101 0.8402 0.0
C904 C 0.82864 0.53972 0.83583 0.0
C905 C 0.84097 0.55584 0.85662 0.0
C906 C 0.85374 0.5538 0.87966 0.0
H907 H 0.84224 0.49669 0.9624 0.0
H908 H 0.8331 0.50984 0.93585 0.0
H909 H 0.83639 0.4898 0.92064 0.0
H910 H 0.84125 0.50492 0.86437 0.0
H911 H 0.81876 0.50832 0.82456 0.0
H912 H 0.44155 0.9328 0.4578 0.0
H913 H 0.40911 0.90472 0.43468 0.0
H914 H 0.38379 0.94431 0.42868 0.0
H915 H 0.41629 0.9724 0.45175 0.0
H916 H 0.36476 0.8851 0.45589 0.0
H917 H 0.38355 0.92702 0.3333 0.0
H918 H 0.40305 0.93413 0.36436 0.0
H919 H 0.38362 0.94115 0.36749 0.0
C920 C 0.42893 0.93534 0.45171 0.0
C921 C 0.4313 0.95466 0.45612 0.0
C922 C 0.41046 0.91936 0.43865 0.0
C923 C 0.39417 0.92253 0.42969 0.0
C924 C 0.39629 0.94165 0.43509 0.0
H925 H 0.28741 0.84888 0.30692 0.0
H926 H 0.30984 0.87373 0.34694 0.0
C927 C 0.41475 0.95762 0.44823 0.0
C928 C 0.37549 0.90617 0.41317 0.0
H929 H 0.35176 0.89474 0.33928 0.0
C930 C 0.36179 0.88719 0.43045 0.0
C931 C 0.37169 0.909 0.38002 0.0
C932 C 0.38629 0.92884 0.36 0.0
C933 C 0.34434 0.87091 0.41536 0.0
C934 C 0.34081 0.87358 0.38195 0.0
C935 C 0.35435 0.89272 0.36494 0.0
C936 C 0.32412 0.8565 0.36321 0.0
C937 C 0.32981 0.8511 0.4354 0.0
C938 C 0.32408 0.83816 0.35989 0.0
C939 C 0.3111 0.82385 0.33728 0.0
C940 C 0.29817 0.82778 0.31724 0.0
C941 C 0.29724 0.84548 0.32207 0.0
C942 C 0.31008 0.85969 0.34485 0.0
H943 H 0.3303 0.85389 0.46196 0.0
H944 H 0.31325 0.84382 0.4275 0.0
H945 H 0.33498 0.83999 0.43221 0.0
H946 H 0.33509 0.83555 0.37315 0.0
H947 H 0.31242 0.81053 0.33368 0.0
H948 H 0.50262 0.43463 0.90257 0.0
H949 H 0.49552 0.40273 0.87893 0.0
H950 H 0.46306 0.36794 0.96864 0.0
H951 H 0.4693 0.39973 0.99208 0.0
H952 H 0.507 0.37497 0.89927 0.0
H953 H 0.41958 0.33664 0.89968 0.0
H954 H 0.43685 0.36381 0.90663 0.0
H955 H 0.43162 0.34457 0.93868 0.0
C956 C 0.49371 0.42018 0.91718 0.0
C957 C 0.48632 0.41976 0.94912 0.0
C958 C 0.48986 0.40197 0.90374 0.0
C959 C 0.47855 0.3829 0.92186 0.0
C960 C 0.47153 0.38242 0.95401 0.0
H961 H 0.47237 0.27703 0.82661 0.0
H962 H 0.47614 0.29933 0.87144 0.0
C963 C 0.47531 0.40066 0.96748 0.0
C964 C 0.474 0.36366 0.90654 0.0
H965 H 0.43396 0.31871 0.87705 0.0
C966 C 0.49103 0.3625 0.89478 0.0
C967 C 0.45313 0.34746 0.90069 0.0
C968 C 0.4342 0.34813 0.91181 0.0
C969 C 0.48781 0.34607 0.87605 0.0
C970 C 0.46696 0.33016 0.8694 0.0
C971 C 0.44991 0.33083 0.88246 0.0
C972 C 0.46263 0.31469 0.84481 0.0
C973 C 0.50677 0.34654 0.86183 0.0
C974 C 0.45298 0.31529 0.81573 0.0
C975 C 0.45073 0.30262 0.7905 0.0
C976 C 0.45809 0.28901 0.7937 0.0
C977 C 0.46668 0.28748 0.82351 0.0
C978 C 0.46898 0.30029 0.84894 0.0
H979 H 0.5217 0.36154 0.86521 0.0
H980 H 0.50813 0.334 0.87413 0.0
H981 H 0.50495 0.34385 0.83521 0.0
H982 H 0.44786 0.32618 0.81204 0.0
H983 H 0.4437 0.30385 0.76799 0.0
H984 H 0.04826 0.45815 0.41946 0.0
H985 H 0.07464 0.45335 0.39274 0.0
H986 H 0.12425 0.50654 0.43936 0.0
H987 H 0.09789 0.51123 0.46653 0.0
H988 H 0.10453 0.48047 0.3494 0.0
H989 H 0.14304 0.4658 0.45397 0.0
H990 H 0.11827 0.46448 0.45856 0.0
H991 H 0.14278 0.48917 0.45665 0.0
C992 C 0.06478 0.46871 0.42425 0.0
C993 C 0.07101 0.48509 0.44504 0.0
C994 C 0.07984 0.46589 0.4091 0.0
C995 C 0.10143 0.47941 0.41436 0.0
C996 C 0.10768 0.49557 0.43559 0.0
H997 H 0.21203 0.508 0.30056 0.0
H998 H 0.18846 0.50624 0.34426 0.0
C999 C 0.0926 0.4983 0.45099 0.0
C1000 C 0.11737 0.47772 0.39518 0.0
H1001 H 0.16054 0.47322 0.40137 0.0
C1002 C 0.11663 0.47868 0.36083 0.0
C1003 C 0.13325 0.4755 0.41009 0.0
C1004 C 0.13431 0.47347 0.44685 0.0
C1005 C 0.13145 0.47779 0.341 0.0
C1006 C 0.1474 0.47574 0.35585 0.0
C1007 C 0.14825 0.47477 0.39015 0.0
C1008 C 0.16336 0.47494 0.33551 0.0
C1009 C 0.1302 0.4794 0.30417 0.0
C1010 C 0.15741 0.45753 0.31739 0.0
C1011 C 0.17083 0.45845 0.29255 0.0
C1012 C 0.19043 0.47683 0.28542 0.0
C1013 C 0.19712 0.49358 0.30564 0.0
C1014 C 0.18365 0.49264 0.33052 0.0
H1015 H 0.11906 0.48424 0.29663 0.0
H1016 H 0.14601 0.49069 0.2929 0.0
H1017 H 0.12473 0.46407 0.29422 0.0
H1018 H 0.14183 0.4437 0.32104 0.0
H1019 H 0.16534 0.44526 0.27752 0.0
H1020 H 0.5682 0.0667 0.92115 0.0
H1021 H 0.60147 0.09423 0.89546 0.0
H1022 H 0.63554 0.0861 0.9741 0.0
H1023 H 0.60224 0.05688 0.99771 0.0
H1024 H 0.62864 0.12926 0.91226 0.0
H1025 H 0.67035 0.08716 0.90178 0.0
H1026 H 0.64298 0.07417 0.91457 0.0
H1027 H 0.66342 0.08824 0.94335 0.0
C1028 C 0.58286 0.07062 0.93261 0.0
C1029 C 0.58271 0.05973 0.96135 0.0
C1030 C 0.60189 0.08646 0.9181 0.0
C1031 C 0.62123 0.09221 0.93248 0.0
C1032 C 0.62103 0.08164 0.9618 0.0
H1033 H 0.71978 0.20763 0.83043 0.0
H1034 H 0.70098 0.18479 0.8784 0.0
C1035 C 0.60197 0.0652 0.97564 0.0
C1036 C 0.64127 0.10956 0.91674 0.0
H1037 H 0.68973 0.12281 0.88599 0.0
C1038 C 0.64196 0.12778 0.90642 0.0
C1039 C 0.6588 0.10777 0.90925 0.0
C1040 C 0.65882 0.08822 0.91753 0.0
C1041 C 0.65878 0.14355 0.88693 0.0
C1042 C 0.67642 0.14188 0.87956 0.0
C1043 C 0.67636 0.12424 0.89174 0.0
C1044 C 0.69344 0.15661 0.85547 0.0
C1045 C 0.65648 0.16091 0.87256 0.0
C1046 C 0.6982 0.14885 0.82842 0.0
C1047 C 0.71022 0.16208 0.80176 0.0
C1048 C 0.71698 0.18325 0.80087 0.0
C1049 C 0.71455 0.19139 0.82969 0.0
C1050 C 0.7033 0.17822 0.85703 0.0
H1051 H 0.63984 0.15689 0.87383 0.0
H1052 H 0.66595 0.17494 0.88665 0.0
H1053 H 0.66197 0.16473 0.84646 0.0
H1054 H 0.69138 0.13233 0.82675 0.0
H1055 H 0.71272 0.15536 0.78073 0.0
H1056 H 0.56356 0.59163 0.46452 0.0
H1057 H 0.56933 0.62506 0.44299 0.0
H1058 H 0.50206 0.59892 0.44518 0.0
H1059 H 0.49631 0.56548 0.46625 0.0
H1060 H 0.55074 0.62871 0.38205 0.0
H1061 H 0.52761 0.65608 0.48876 0.0
H1062 H 0.53563 0.63743 0.49303 0.0
H1063 H 0.50965 0.62948 0.47957 0.0
C1064 C 0.5501 0.59319 0.46062 0.0
C1065 C 0.52951 0.57612 0.46672 0.0
C1066 C 0.55337 0.61221 0.44849 0.0
C1067 C 0.53613 0.61449 0.44289 0.0
C1068 C 0.51558 0.59757 0.44988 0.0
H1069 H 0.50814 0.69811 0.34395 0.0
H1070 H 0.50989 0.67369 0.38299 0.0
C1071 C 0.51229 0.57851 0.46171 0.0
C1072 C 0.53941 0.63388 0.42684 0.0
H1073 H 0.53168 0.67379 0.43705 0.0
C1074 C 0.54688 0.63877 0.39415 0.0
C1075 C 0.53413 0.64677 0.4427 0.0
C1076 C 0.52645 0.64234 0.47805 0.0
C1077 C 0.54844 0.65578 0.37636 0.0
C1078 C 0.54305 0.66869 0.39211 0.0
C1079 C 0.53598 0.66402 0.4251 0.0
C1080 C 0.54317 0.6861 0.3738 0.0
C1081 C 0.55482 0.65907 0.3404 0.0
C1082 C 0.56155 0.70196 0.35717 0.0
C1083 C 0.56053 0.71579 0.33464 0.0
C1084 C 0.54119 0.71427 0.32899 0.0
C1085 C 0.52327 0.69974 0.34807 0.0
C1086 C 0.52424 0.68571 0.37025 0.0
H1087 H 0.55325 0.64498 0.3304 0.0
H1088 H 0.54508 0.66341 0.32571 0.0
H1089 H 0.5716 0.67181 0.33716 0.0
H1090 H 0.57645 0.70291 0.36023 0.0
H1091 H 0.57457 0.72693 0.32029 0.0
H1092 H 0.51234 0.09999 0.51691 0.0
H1093 H 0.5079 0.12674 0.53981 0.0
H1094 H 0.44732 0.07947 0.58208 0.0
H1095 H 0.45154 0.05262 0.55914 0.0
H1096 H 0.47469 0.13624 0.53512 0.0
H1097 H 0.48317 0.11087 0.66104 0.0
H1098 H 0.49024 0.10288 0.62475 0.0
H1099 H 0.463 0.09086 0.63747 0.0
C1100 C 0.49789 0.09529 0.53056 0.0
C1101 C 0.48238 0.07414 0.5365 0.0
C1102 C 0.4954 0.1106 0.54366 0.0
C1103 C 0.47741 0.10505 0.56296 0.0
C1104 C 0.46147 0.08404 0.56766 0.0
H1105 H 0.43651 0.17711 0.66166 0.0
H1106 H 0.44009 0.15632 0.62091 0.0
C1107 C 0.46395 0.06873 0.55465 0.0
C1108 C 0.47601 0.12108 0.58011 0.0
H1109 H 0.47545 0.13723 0.65655 0.0
C1110 C 0.47482 0.13648 0.56166 0.0
C1111 C 0.47642 0.12145 0.61472 0.0
C1112 C 0.47845 0.10576 0.63574 0.0
C1113 C 0.47374 0.15211 0.57709 0.0
C1114 C 0.47395 0.15228 0.61165 0.0
C1115 C 0.47527 0.13698 0.63 0.0
C1116 C 0.47304 0.16823 0.62978 0.0
C1117 C 0.4727 0.16851 0.55657 0.0
C1118 C 0.49058 0.18234 0.64727 0.0
C1119 C 0.48862 0.19429 0.67032 0.0
C1120 C 0.469 0.19216 0.67658 0.0
C1121 C 0.45187 0.17925 0.65713 0.0
C1122 C 0.45387 0.16731 0.63393 0.0
H1123 H 0.47498 0.16754 0.52996 0.0
H1124 H 0.45708 0.16668 0.56067 0.0
H1125 H 0.48493 0.18417 0.56414 0.0
H1126 H 0.50548 0.18321 0.64444 0.0
H1127 H 0.50211 0.20421 0.68481 0.0
H1128 H 0.44602 0.51767 0.03843 0.0
H1129 H 0.41272 0.51307 0.05901 0.0
H1130 H 0.38355 0.44666 0.06011 0.0
H1131 H 0.41686 0.45129 0.03936 0.0
H1132 H 0.36922 0.4888 0.03278 0.0
H1133 H 0.37795 0.46082 0.15662 0.0
H1134 H 0.39986 0.4749 0.12751 0.0
H1135 H 0.3803 0.44818 0.12213 0.0
C1136 C 0.4324 0.50214 0.04287 0.0
C1137 C 0.43389 0.48481 0.03776 0.0
C1138 C 0.41344 0.49951 0.05449 0.0
C1139 C 0.39576 0.47953 0.0613 0.0
C1140 C 0.39708 0.4622 0.05526 0.0
H1141 H 0.28266 0.44399 0.17741 0.0
H1142 H 0.30677 0.44208 0.13902 0.0
C1143 C 0.41602 0.46482 0.04348 0.0
C1144 C 0.37635 0.47691 0.07636 0.0
H1145 H 0.34782 0.46258 0.1485 0.0
C1146 C 0.3644 0.48295 0.05801 0.0
C1147 C 0.37013 0.46922 0.10921 0.0
C1148 C 0.38274 0.46301 0.13024 0.0
C1149 C 0.34634 0.48153 0.07176 0.0
C1150 C 0.34042 0.47435 0.10495 0.0
C1151 C 0.35223 0.46797 0.12301 0.0
C1152 C 0.32297 0.47447 0.12242 0.0
C1153 C 0.33373 0.48759 0.05051 0.0
C1154 C 0.32345 0.4931 0.12494 0.0
C1155 C 0.30946 0.49412 0.14652 0.0
C1156 C 0.295 0.47662 0.16637 0.0
C1157 C 0.29363 0.45769 0.16231 0.0
C1158 C 0.30745 0.45662 0.1405 0.0
H1159 H 0.33569 0.4857 0.02416 0.0
H1160 H 0.31667 0.4782 0.05751 0.0
H1161 H 0.33946 0.50418 0.05342 0.0
H1162 H 0.33556 0.50721 0.11194 0.0
H1163 H 0.31114 0.50899 0.1496 0.0
H1164 H 0.97066 0.41777 0.53942 0.0
H1165 H 0.9422 0.38341 0.56131 0.0
H1166 H 0.89867 0.4045 0.55814 0.0
H1167 H 0.92714 0.43885 0.53664 0.0
H1168 H 0.91906 0.37807 0.62169 0.0
H1169 H 0.86642 0.34691 0.51606 0.0
H1170 H 0.89395 0.36728 0.51133 0.0
H1171 H 0.87481 0.37308 0.52491 0.0
C1172 C 0.95493 0.41488 0.54316 0.0
C1173 C 0.95096 0.43079 0.53662 0.0
C1174 C 0.93874 0.39534 0.55549 0.0
C1175 C 0.9183 0.39137 0.56089 0.0
C1176 C 0.91423 0.40714 0.55354 0.0
H1177 H 0.80325 0.30462 0.66324 0.0
H1178 H 0.83019 0.3291 0.62279 0.0
C1179 C 0.93046 0.42672 0.54149 0.0
C1180 C 0.90173 0.3715 0.57727 0.0
H1181 H 0.85216 0.32945 0.56836 0.0
C1182 C 0.90455 0.36724 0.60994 0.0
C1183 C 0.8828 0.35759 0.56185 0.0
C1184 C 0.87929 0.36128 0.5265 0.0
C1185 C 0.88856 0.34987 0.62819 0.0
C1186 C 0.86945 0.33598 0.61294 0.0
C1187 C 0.86685 0.33999 0.57993 0.0
C1188 C 0.85147 0.31828 0.63187 0.0
C1189 C 0.89192 0.34723 0.66412 0.0
C1190 C 0.85391 0.30323 0.64889 0.0
C1191 C 0.83863 0.28939 0.67225 0.0
C1192 C 0.82046 0.29007 0.67831 0.0
C1193 C 0.81703 0.30367 0.65882 0.0
C1194 C 0.83247 0.31772 0.63582 0.0
H1195 H 0.90513 0.36176 0.67365 0.0
H1196 H 0.87743 0.34236 0.6791 0.0
H1197 H 0.89585 0.33509 0.66753 0.0
H1198 H 0.86819 0.30302 0.64557 0.0
H1199 H 0.84157 0.27898 0.68694 0.0
H1200 H 0.50123 0.91483 0.048 0.0
H1201 H 0.50793 0.88928 0.07407 0.0
H1202 H 0.56917 0.93861 0.10231 0.0
H1203 H 0.56243 0.96426 0.07671 0.0
H1204 H 0.53899 0.88011 0.06545 0.0
H1205 H 0.54166 0.90832 0.18959 0.0
H1206 H 0.53254 0.91641 0.15457 0.0
H1207 H 0.56036 0.9279 0.16043 0.0
C1208 C 0.5162 0.92022 0.0595 0.0
C1209 C 0.53122 0.94156 0.06063 0.0
C1210 C 0.52001 0.90561 0.07438 0.0
C1211 C 0.53889 0.91205 0.09061 0.0
C1212 C 0.55428 0.93332 0.0906 0.0
H1213 H 0.57527 0.84429 0.2226 0.0
H1214 H 0.57788 0.86938 0.18013 0.0
C1215 C 0.55041 0.94794 0.07598 0.0
C1216 C 0.54204 0.89657 0.10875 0.0
H1217 H 0.54919 0.88205 0.18552 0.0
C1218 C 0.5413 0.88055 0.09169 0.0
C1219 C 0.54496 0.89712 0.14301 0.0
C1220 C 0.54474 0.91322 0.16308 0.0
C1221 C 0.54345 0.8651 0.10803 0.0
C1222 C 0.54625 0.86564 0.14227 0.0
C1223 C 0.54728 0.88181 0.15918 0.0
C1224 C 0.5467 0.84898 0.16187 0.0
C1225 C 0.54275 0.84836 0.08859 0.0
C1226 C 0.52865 0.8289 0.16475 0.0
C1227 C 0.52712 0.81453 0.18902 0.0
C1228 C 0.54357 0.82011 0.21094 0.0
C1229 C 0.56232 0.83962 0.20616 0.0
C1230 C 0.56383 0.85396 0.18192 0.0
H1231 H 0.54642 0.85321 0.06212 0.0
H1232 H 0.55407 0.84419 0.098 0.0
H1233 H 0.52665 0.83428 0.09093 0.0
H1234 H 0.51509 0.82484 0.14996 0.0
H1235 H 0.51238 0.79974 0.19237 0.0
H1236 H 0.59349 0.49676 0.53256 0.0
H1237 H 0.62408 0.50011 0.56057 0.0
H1238 H 0.62832 0.54883 0.61661 0.0
H1239 H 0.59795 0.54577 0.58856 0.0
H1240 H 0.6669 0.53558 0.56867 0.0
H1241 H 0.62005 0.50291 0.68558 0.0
H1242 H 0.60797 0.50076 0.6465 0.0
H1243 H 0.61972 0.52463 0.66708 0.0
C1244 C 0.60115 0.50844 0.55044 0.0
C1245 C 0.59313 0.52085 0.55858 0.0
C1246 C 0.61859 0.51029 0.56646 0.0
C1247 C 0.62825 0.52452 0.59093 0.0
C1248 C 0.62086 0.53752 0.59814 0.0
H1249 H 0.74143 0.56806 0.69963 0.0
H1250 H 0.71681 0.56288 0.65616 0.0
C1251 C 0.60345 0.53569 0.58219 0.0
C1252 C 0.64526 0.52503 0.61031 0.0
H1253 H 0.65682 0.51692 0.68816 0.0
C1254 C 0.66473 0.53139 0.59476 0.0
C1255 C 0.64222 0.51923 0.64419 0.0
C1256 C 0.62132 0.51131 0.66186 0.0
C1257 C 0.68149 0.5327 0.61255 0.0
C1258 C 0.67868 0.52766 0.64672 0.0
C1259 C 0.659 0.5208 0.66197 0.0
C1260 C 0.69591 0.52997 0.66779 0.0
C1261 C 0.70198 0.53933 0.59464 0.0
C1262 C 0.69266 0.51312 0.68827 0.0
C1263 C 0.7066 0.5161 0.71323 0.0
C1264 C 0.72408 0.53598 0.71814 0.0
C1265 C 0.72825 0.55253 0.69606 0.0
C1266 C 0.71418 0.54957 0.67119 0.0
H1267 H 0.69964 0.53664 0.56804 0.0
H1268 H 0.71315 0.55618 0.59719 0.0
H1269 H 0.7093 0.53091 0.60501 0.0
H1270 H 0.67867 0.49787 0.68611 0.0
H1271 H 0.70306 0.5031 0.72994 0.0
H1272 H 0.05049 0.59794 0.07885 0.0
H1273 H 0.07742 0.62965 0.10356 0.0
H1274 H 0.12626 0.62534 0.05494 0.0
H1275 H 0.09938 0.59376 0.02983 0.0
H1276 H 0.10608 0.63193 0.14555 0.0
H1277 H 0.14792 0.68629 0.03817 0.0
H1278 H 0.1226 0.66258 0.03522 0.0
H1279 H 0.14641 0.66202 0.0359 0.0
C1280 C 0.06697 0.60387 0.07318 0.0
C1281 C 0.07281 0.59333 0.05245 0.0
C1282 C 0.08234 0.62204 0.08718 0.0
C1283 C 0.10388 0.63006 0.08079 0.0
C1284 C 0.10977 0.61979 0.05957 0.0
H1285 H 0.21565 0.71331 0.18423 0.0
H1286 H 0.19145 0.69134 0.14272 0.0
C1287 C 0.09438 0.60168 0.04534 0.0
C1288 C 0.12005 0.6479 0.09888 0.0
H1289 H 0.16483 0.69621 0.0897 0.0
C1290 C 0.11877 0.64606 0.13329 0.0
C1291 C 0.13672 0.66629 0.08287 0.0
C1292 C 0.13843 0.66955 0.046 0.0
C1293 C 0.13384 0.66189 0.15212 0.0
C1294 C 0.15056 0.6802 0.13617 0.0
C1295 C 0.15193 0.68215 0.10178 0.0
C1296 C 0.16688 0.69708 0.15537 0.0
C1297 C 0.13203 0.65874 0.18905 0.0
C1298 C 0.16146 0.70839 0.17494 0.0
C1299 C 0.17524 0.72097 0.19854 0.0
C1300 C 0.19469 0.72245 0.20293 0.0
C1301 C 0.20086 0.71261 0.18124 0.0
C1302 C 0.18702 0.69998 0.15763 0.0
H1303 H 0.12054 0.64234 0.19728 0.0
H1304 H 0.1476 0.66349 0.19943 0.0
H1305 H 0.12665 0.66853 0.19928 0.0
H1306 H 0.14603 0.70646 0.17333 0.0
H1307 H 0.17016 0.72851 0.21475 0.0
loop_
_geom_bond_atom_site_label_1
_geom_bond_atom_site_label_2
_geom_bond_distance
_geom_bond_site_symmetry_2
_ccdc_geom_bond_type
C0 C1 1.443 1_556 S
C0 N4 1.376 1_556 S
C0 C38 1.389 . S
C1 C0 1.443 1_554 S
C1 C2 1.340 . S
C1 H41 0.951 . S
C2 C1 1.340 . S
C2 C3 1.439 . S
C2 H42 0.950 . S
C3 C2 1.439 . S
C3 N4 1.374 . S
C3 C37 1.395 . S
N4 C0 1.376 1_554 S
N4 C3 1.374 . S
N4 Co5 2.008 1_655 S
Co5 N4 2.008 1_455 S
Co5 N6 1.995 . S
Co5 N11 2.008 1_554 S
Co5 N16 1.995 1_554 S
Co5 N21 2.282 . S
Co5 N27 2.282 1_454 S
N6 Co5 1.995 . S
N6 C7 1.376 1_455 S
N6 C10 1.383 . S
C7 N6 1.376 1_655 S
C7 C8 1.446 . S
C7 C37 1.391 . S
C8 C7 1.446 . S
C8 C9 1.339 1_655 S
C8 H43 0.949 . S
C9 C8 1.339 1_455 S
C9 C10 1.439 . S
C9 H44 0.950 . S
C10 N6 1.383 . S
C10 C9 1.439 . S
C10 C39 1.392 . S
N11 Co5 2.008 1_556 S
N11 C12 1.376 1_556 S
N11 C15 1.374 . S
C12 N11 1.376 1_554 S
C12 C13 1.443 1_554 S
C12 C39 1.389 . S
C13 C12 1.443 1_556 S
C13 C14 1.340 . S
C13 H45 0.951 . S
C14 C13 1.340 . S
C14 C15 1.439 . S
C14 H46 0.950 . S
C15 N11 1.374 . S
C15 C14 1.439 . S
C15 C40 1.395 . S
N16 Co5 1.995 1_556 S
N16 C17 1.376 . S
N16 C20 1.383 1_455 S
C17 N16 1.376 . S
C17 C18 1.446 . S
C17 C40 1.391 . S
C18 C17 1.446 . S
C18 C19 1.339 1_455 S
C18 H47 0.949 . S
C19 C18 1.339 1_655 S
C19 C20 1.439 . S
C19 H48 0.950 . S
C20 N16 1.383 1_655 S
C20 C19 1.439 . S
C20 C38 1.392 . S
N21 Co5 2.282 . S
N21 C24 1.332 . S
N21 C26 1.332 . S
C22 C23 1.386 . S
C22 C25 1.388 . S
C23 C22 1.386 . S
C23 C24 1.382 . S
C23 H49 0.950 . S
C24 N21 1.332 . S
C24 C23 1.382 . S
C24 H35 0.952 1_554 S
C25 C22 1.388 . S
C25 C26 1.382 . S
C25 H50 0.950 . S
C26 N21 1.332 . S
C26 C25 1.382 . S
C26 H36 0.948 . S
N27 Co5 2.282 1_656 S
N27 C31 1.332 . S
N27 C32 1.332 . S
C28 C29 1.388 . S
C28 C32 1.382 . S
C28 H51 0.950 . S
C29 C28 1.388 . S
C29 C30 1.386 . S
C30 C29 1.386 . S
C30 C31 1.382 . S
C30 H52 0.950 . S
C31 N27 1.332 . S
C31 C30 1.382 . S
C31 H33 0.952 1_556 S
C32 N27 1.332 . S
C32 C28 1.382 . S
C32 H34 0.948 . S
H33 C31 0.952 1_554 S
H34 C32 0.948 . S
H35 C24 0.952 1_556 S
H36 C26 0.948 . S
C37 C3 1.395 . S
C37 C7 1.391 . S
C38 C0 1.389 . S
C38 C20 1.392 . S
C39 C10 1.392 . S
C39 C12 1.389 . S
C40 C15 1.395 . S
C40 C17 1.391 . S
H41 C1 0.951 . S
H42 C2 0.950 . S
H43 C8 0.949 . S
H44 C9 0.950 . S
H45 C13 0.951 . S
H46 C14 0.950 . S
H47 C18 0.949 . S
H48 C19 0.950 . S
H49 C23 0.950 . S
H50 C25 0.950 . S
H51 C28 0.950 . S
H52 C30 0.950 . S
C53 C54 1.443 . S
C53 N57 1.376 . S
C53 C91 1.389 . S
C54 C53 1.443 . S
C54 C55 1.354 . S
C54 H94 0.951 . S
C55 C54 1.354 . S
C55 C56 1.435 1_545 S
C55 H95 0.942 1_545 S
C56 C55 1.435 1_565 S
C56 N57 1.374 1_565 S
C56 C90 1.395 . S
N57 C53 1.376 . S
N57 C56 1.374 1_545 S
N57 Co58 2.008 . S
Co58 N57 2.008 . S
Co58 N59 1.995 1_545 S
Co58 N64 2.008 . S
Co58 N69 1.995 . S
Co58 N74 2.282 1_545 S
Co58 N80 2.282 . S
N59 Co58 1.995 1_565 S
N59 C60 1.376 . S
N59 C63 1.383 . S
C60 N59 1.376 . S
C60 C61 1.446 . S
C60 C90 1.391 . S
C61 C60 1.446 . S
C61 C62 1.339 . S
C61 H96 0.949 . S
C62 C61 1.339 . S
C62 C63 1.439 . S
C62 H97 0.950 . S
C63 N59 1.383 . S
C63 C62 1.439 . S
C63 C92 1.392 . S
N64 Co58 2.008 . S
N64 C65 1.376 1_545 S
N64 C68 1.374 . S
C65 N64 1.376 1_565 S
C65 C66 1.443 . S
C65 C92 1.389 . S
C66 C65 1.443 . S
C66 C67 1.340 1_565 S
C66 H98 0.951 . S
C67 C66 1.340 1_545 S
C67 C68 1.439 . S
C67 H99 0.950 . S
C68 N64 1.374 . S
C68 C67 1.439 . S
C68 C93 1.395 . S
N69 Co58 1.995 . S
N69 C70 1.376 . S
N69 C73 1.383 . S
C70 N69 1.376 . S
C70 C71 1.446 . S
C70 C93 1.391 . S
C71 C70 1.446 . S
C71 C72 1.339 . S
C71 H100 0.949 . S
C72 C71 1.339 . S
C72 C73 1.439 . S
C72 H101 0.950 . S
C73 N69 1.383 . S
C73 C72 1.439 . S
C73 C91 1.392 . S
N74 Co58 2.282 1_565 S
N74 C77 1.332 . S
N74 C79 1.332 . S
C75 C76 1.386 . S
C75 C78 1.388 . S
C76 C75 1.386 . S
C76 C77 1.382 . S
C76 H102 0.950 . S
C77 N74 1.332 . S
C77 C76 1.382 . S
C77 H88 0.952 1_565 S
C78 C75 1.388 . S
C78 C79 1.382 . S
C78 H103 0.950 . S
C79 N74 1.332 . S
C79 C78 1.382 . S
C79 H89 0.948 . S
N80 Co58 2.282 . S
N80 C84 1.332 . S
N80 C85 1.332 . S
C81 C82 1.388 . S
C81 C85 1.382 . S
C81 H104 0.950 . S
C82 C81 1.388 . S
C82 C83 1.386 . S
C83 C82 1.386 . S
C83 C84 1.382 . S
C83 H105 0.950 . S
C84 N80 1.332 . S
C84 C83 1.382 . S
C84 H86 0.952 . S
C85 N80 1.332 . S
C85 C81 1.382 . S
C85 H87 0.948 . S
H86 C84 0.952 . S
H87 C85 0.948 . S
H88 C77 0.952 1_545 S
H89 C79 0.948 . S
C90 C56 1.395 . S
C90 C60 1.391 . S
C91 C53 1.389 . S
C91 C73 1.392 . S
C92 C63 1.392 . S
C92 C65 1.389 . S
C93 C68 1.395 . S
C93 C70 1.391 . S
H94 C54 0.951 . S
H95 C55 0.942 1_565 S
H96 C61 0.949 . S
H97 C62 0.950 . S
H98 C66 0.951 . S
H99 C67 0.950 . S
H100 C71 0.949 . S
H101 C72 0.950 . S
H102 C76 0.950 . S
H103 C78 0.950 . S
H104 C81 0.950 . S
H105 C83 0.950 . S
C106 C107 1.443 . S
C106 N110 1.376 . S
C106 C144 1.389 . S
C107 C106 1.443 . S
C107 C108 1.340 . S
C107 H147 0.951 . S
C108 C107 1.340 . S
C108 C109 1.439 . S
C108 H148 0.950 . S
C109 C108 1.439 . S
C109 N110 1.374 . S
C109 C143 1.395 . S
N110 C106 1.376 . S
N110 C109 1.374 . S
N110 Co111 2.008 1_556 S
Co111 N110 2.008 1_554 S
Co111 N112 1.995 1_554 S
Co111 N117 2.008 . S
Co111 N122 1.995 . S
Co111 N127 2.282 . S
Co111 N133 2.282 1_554 S
N112 Co111 1.995 1_556 S
N112 C113 1.376 . S
N112 C116 1.383 1_556 S
C113 N112 1.376 . S
C113 C114 1.446 . S
C113 C143 1.391 . S
C114 C113 1.446 . S
C114 C115 1.339 . S
C114 H149 0.949 . S
C115 C114 1.339 . S
C115 C116 1.439 1_556 S
C115 H150 0.950 . S
C116 N112 1.383 1_554 S
C116 C115 1.439 1_554 S
C116 C145 1.392 . S
N117 Co111 2.008 . S
N117 C118 1.376 . S
N117 C121 1.374 . S
C118 N117 1.376 . S
C118 C119 1.443 . S
C118 C145 1.389 . S
C119 C118 1.443 . S
C119 C120 1.340 . S
C119 H151 0.951 . S
C120 C119 1.340 . S
C120 C121 1.439 . S
C120 H152 0.950 . S
C121 N117 1.374 . S
C121 C120 1.439 . S
C121 C146 1.395 . S
N122 Co111 1.995 . S
N122 C123 1.376 . S
N122 C126 1.380 1_554 S
C123 N122 1.376 . S
C123 C124 1.446 . S
C123 C146 1.391 . S
C124 C123 1.446 . S
C124 C125 1.339 . S
C124 H153 0.949 . S
C125 C124 1.339 . S
C125 C126 1.436 1_554 S
C125 H154 0.950 . S
C126 N122 1.380 1_556 S
C126 C125 1.436 1_556 S
C126 C144 1.397 . S
N127 Co111 2.282 . S
N127 C130 1.332 . S
N127 C132 1.332 . S
C128 C129 1.386 . S
C128 C131 1.388 . S
C129 C128 1.386 . S
C129 C130 1.382 . S
C129 H155 0.950 . S
C130 N127 1.332 . S
C130 C129 1.382 . S
C130 H141 0.952 . S
C131 C128 1.388 . S
C131 C132 1.382 . S
C131 H156 0.950 . S
C132 N127 1.332 . S
C132 C131 1.382 . S
C132 H142 0.948 1_554 S
N133 Co111 2.282 1_556 S
N133 C137 1.332 . S
N133 C138 1.332 . S
C134 C135 1.388 . S
C134 C138 1.382 . S
C134 H157 0.950 . S
C135 C134 1.388 . S
C135 C136 1.386 . S
C136 C135 1.386 . S
C136 C137 1.382 . S
C136 H158 0.950 . S
C137 N133 1.332 . S
C137 C136 1.382 . S
C137 H139 0.952 . S
C138 N133 1.332 . S
C138 C134 1.382 . S
C138 H140 0.948 1_556 S
H139 C137 0.952 . S
H140 C138 0.948 1_554 S
H141 C130 0.952 . S
H142 C132 0.948 1_556 S
C143 C109 1.395 . S
C143 C113 1.391 . S
C144 C106 1.389 . S
C144 C126 1.397 . S
C145 C116 1.392 . S
C145 C118 1.389 . S
C146 C121 1.395 . S
C146 C123 1.391 . S
H147 C107 0.951 . S
H148 C108 0.950 . S
H149 C114 0.949 . S
H150 C115 0.950 . S
H151 C119 0.951 . S
H152 C120 0.950 . S
H153 C124 0.949 . S
H154 C125 0.950 . S
H155 C129 0.950 . S
H156 C131 0.950 . S
H157 C134 0.950 . S
H158 C136 0.950 . S
C159 C160 1.443 . S
C159 N163 1.376 . S
C159 C197 1.389 . S
C160 C159 1.443 . S
C160 C161 1.340 . S
C160 H200 0.951 . S
C161 C160 1.340 . S
C161 C162 1.439 . S
C161 H201 0.950 . S
C162 C161 1.439 . S
C162 N163 1.374 . S
C162 C196 1.395 . S
N163 C159 1.376 . S
N163 C162 1.374 . S
N163 Co164 2.008 1_655 S
Co164 N163 2.008 1_455 S
Co164 N165 1.995 . S
Co164 N170 2.008 . S
Co164 N175 1.995 . S
Co164 N180 2.282 . S
Co164 N186 2.282 1_455 S
N165 Co164 1.995 . S
N165 C166 1.376 1_455 S
N165 C169 1.383 . S
C166 N165 1.376 1_655 S
C166 C167 1.446 . S
C166 C196 1.391 . S
C167 C166 1.446 . S
C167 C168 1.339 1_655 S
C167 H202 0.949 . S
C168 C167 1.339 1_455 S
C168 C169 1.439 . S
C168 H203 0.950 . S
C169 N165 1.383 . S
C169 C168 1.439 . S
C169 C198 1.392 . S
N170 Co164 2.008 . S
N170 C171 1.376 . S
N170 C174 1.374 . S
C171 N170 1.376 . S
C171 C172 1.443 . S
C171 C198 1.389 . S
C172 C171 1.443 . S
C172 C173 1.340 . S
C172 H204 0.951 . S
C173 C172 1.340 . S
C173 C174 1.439 . S
C173 H205 0.950 . S
C174 N170 1.374 . S
C174 C173 1.439 . S
C174 C199 1.395 . S
N175 Co164 1.995 . S
N175 C176 1.376 . S
N175 C179 1.383 1_455 S
C176 N175 1.376 . S
C176 C177 1.446 . S
C176 C199 1.391 . S
C177 C176 1.446 . S
C177 C178 1.339 1_455 S
C177 H206 0.949 . S
C178 C177 1.339 1_655 S
C178 C179 1.439 . S
C178 H207 0.950 . S
C179 N175 1.383 1_655 S
C179 C178 1.439 . S
C179 C197 1.392 . S
N180 Co164 2.282 . S
N180 C183 1.332 . S
N180 C185 1.332 . S
C181 C182 1.386 . S
C181 C184 1.388 . S
C182 C181 1.386 . S
C182 C183 1.382 . S
C182 H208 0.950 . S
C183 N180 1.332 . S
C183 C182 1.382 . S
C183 H194 0.952 . S
C184 C181 1.388 . S
C184 C185 1.382 . S
C184 H209 0.950 . S
C185 N180 1.332 . S
C185 C184 1.382 . S
C185 H195 0.948 . S
N186 Co164 2.282 1_655 S
N186 C190 1.332 . S
N186 C191 1.332 . S
C187 C188 1.388 . S
C187 C191 1.382 . S
C187 H210 0.950 . S
C188 C187 1.388 . S
C188 C189 1.386 . S
C189 C188 1.386 . S
C189 C190 1.382 . S
C189 H211 0.950 . S
C190 N186 1.332 . S
C190 C189 1.382 . S
C190 H192 0.952 . S
C191 N186 1.332 . S
C191 C187 1.382 . S
C191 H193 0.948 . S
H192 C190 0.952 . S
H193 C191 0.948 . S
H194 C183 0.952 . S
H195 C185 0.948 . S
C196 C162 1.395 . S
C196 C166 1.391 . S
C197 C159 1.389 . S
C197 C179 1.392 . S
C198 C169 1.392 . S
C198 C171 1.389 . S
C199 C174 1.395 . S
C199 C176 1.391 . S
H200 C160 0.951 . S
H201 C161 0.950 . S
H202 C167 0.949 . S
H203 C168 0.950 . S
H204 C172 0.951 . S
H205 C173 0.950 . S
H206 C177 0.949 . S
H207 C178 0.950 . S
H208 C182 0.950 . S
H209 C184 0.950 . S
H210 C187 0.950 . S
H211 C189 0.950 . S
C212 C213 1.443 . S
C212 N216 1.376 1_565 S
C212 C250 1.389 . S
C213 C212 1.443 . S
C213 C214 1.340 1_565 S
C213 H253 0.951 . S
C214 C213 1.340 1_545 S
C214 C215 1.439 . S
C214 H254 0.950 . S
C215 C214 1.439 . S
C215 N216 1.374 . S
C215 C249 1.395 . S
N216 C212 1.376 1_545 S
N216 C215 1.374 . S
N216 Co217 2.028 . S
Co217 N216 2.028 . S
Co217 N218 2.001 . S
Co217 N223 1.988 1_554 S
Co217 N228 1.989 1_544 S
Co217 N233 2.274 1_554 S
Co217 N239 2.291 1_545 S
N218 Co217 2.001 . S
N218 C219 1.376 . S
N218 C222 1.383 1_554 S
C219 N218 1.376 . S
C219 C220 1.446 . S
C219 C249 1.391 . S
C220 C219 1.446 . S
C220 C221 1.339 . S
C220 H255 0.949 . S
C221 C220 1.339 . S
C221 C222 1.439 1_554 S
C221 H256 0.950 1_554 S
C222 N218 1.383 1_556 S
C222 C221 1.439 1_556 S
C222 C251 1.392 . S
N223 Co217 1.988 1_556 S
N223 C224 1.376 . S
N223 C227 1.374 1_545 S
C224 N223 1.376 . S
C224 C225 1.443 . S
C224 C251 1.389 . S
C225 C224 1.443 . S
C225 C226 1.340 . S
C225 H257 0.951 . S
C226 C225 1.340 . S
C226 C227 1.439 1_545 S
C226 H258 0.950 1_545 S
C227 N223 1.374 1_565 S
C227 C226 1.439 1_565 S
C227 C252 1.395 . S
N228 Co217 1.989 1_566 S
N228 C229 1.376 . S
N228 C232 1.383 1_556 S
C229 N228 1.376 . S
C229 C230 1.446 . S
C229 C252 1.391 . S
C230 C229 1.446 . S
C230 C231 1.339 . S
C230 H259 0.949 . S
C231 C230 1.339 . S
C231 C232 1.439 1_556 S
C231 H260 0.950 1_556 S
C232 N228 1.383 1_554 S
C232 C231 1.439 1_554 S
C232 C250 1.392 . S
N233 Co217 2.274 1_556 S
N233 C236 1.332 . S
N233 C238 1.332 . S
C234 C235 1.386 . S
C234 C237 1.388 . S
C235 C234 1.386 . S
C235 C236 1.382 . S
C235 H261 0.950 . S
C236 N233 1.332 . S
C236 C235 1.382 . S
C236 H247 0.952 . S
C237 C234 1.388 . S
C237 C238 1.382 . S
C237 H262 0.950 . S
C238 N233 1.332 . S
C238 C237 1.382 . S
C238 H248 0.948 1_556 S
N239 Co217 2.291 1_565 S
N239 C243 1.332 . S
N239 C244 1.332 . S
C240 C241 1.388 . S
C240 C244 1.382 . S
C240 H263 0.950 . S
C241 C240 1.388 . S
C241 C242 1.386 . S
C242 C241 1.386 . S
C242 C243 1.382 . S
C242 H264 0.950 . S
C243 N239 1.332 . S
C243 C242 1.382 . S
C243 H245 0.952 1_565 S
C244 N239 1.332 . S
C244 C240 1.382 . S
C244 H246 0.948 1_554 S
H245 C243 0.952 1_545 S
H246 C244 0.948 1_556 S
H247 C236 0.952 . S
H248 C238 0.948 1_554 S
C249 C215 1.395 . S
C249 C219 1.391 . S
C250 C212 1.389 . S
C250 C232 1.392 . S
C251 C222 1.392 . S
C251 C224 1.389 . S
C252 C227 1.395 . S
C252 C229 1.391 . S
H253 C213 0.951 . S
H254 C214 0.950 . S
H255 C220 0.949 . S
H256 C221 0.950 1_556 S
H257 C225 0.951 . S
H258 C226 0.950 1_565 S
H259 C230 0.949 . S
H260 C231 0.950 1_554 S
H261 C235 0.950 . S
H262 C237 0.950 . S
H263 C240 0.950 . S
H264 C242 0.950 . S
C265 C266 1.443 . S
C265 N269 1.376 . S
C265 C303 1.389 . S
C266 C265 1.443 . S
C266 C267 1.340 . S
C266 H306 0.951 . S
C267 C266 1.340 . S
C267 C268 1.439 . S
C267 H307 0.950 . S
C268 C267 1.439 . S
C268 N269 1.374 . S
C268 C302 1.395 . S
N269 C265 1.376 . S
N269 C268 1.374 . S
N269 Co270 2.008 . S
Co270 N269 2.008 . S
Co270 N271 1.995 . S
Co270 N276 2.008 . S
Co270 N281 1.995 . S
Co270 N286 2.282 . S
Co270 N292 2.282 . S
N271 Co270 1.995 . S
N271 C272 1.376 . S
N271 C275 1.383 . S
C272 N271 1.376 . S
C272 C273 1.446 . S
C272 C302 1.391 . S
C273 C272 1.446 . S
C273 C274 1.339 . S
C273 H308 0.949 . S
C274 C273 1.339 . S
C274 C275 1.439 . S
C274 H309 0.950 . S
C275 N271 1.383 . S
C275 C274 1.439 . S
C275 C304 1.392 . S
N276 Co270 2.008 . S
N276 C277 1.376 . S
N276 C280 1.374 . S
C277 N276 1.376 . S
C277 C278 1.443 . S
C277 C304 1.389 . S
C278 C277 1.443 . S
C278 C279 1.340 . S
C278 H310 0.951 . S
C279 C278 1.340 . S
C279 C280 1.439 . S
C279 H311 0.950 . S
C280 N276 1.374 . S
C280 C279 1.439 . S
C280 C305 1.395 . S
N281 Co270 1.995 . S
N281 C282 1.376 . S
N281 C285 1.383 . S
C282 N281 1.376 . S
C282 C283 1.446 . S
C282 C305 1.391 . S
C283 C282 1.446 . S
C283 C284 1.339 . S
C283 H312 0.949 . S
C284 C283 1.339 . S
C284 C285 1.439 . S
C284 H313 0.950 . S
C285 N281 1.383 . S
C285 C284 1.439 . S
C285 C303 1.392 . S
N286 Co270 2.282 . S
N286 C289 1.332 . S
N286 C291 1.332 . S
C287 C288 1.386 . S
C287 C290 1.388 . S
C288 C287 1.386 . S
C288 C289 1.382 . S
C288 H314 0.950 . S
C289 N286 1.332 . S
C289 C288 1.382 . S
C289 H300 0.952 . S
C290 C287 1.388 . S
C290 C291 1.382 . S
C290 H315 0.950 . S
C291 N286 1.332 . S
C291 C290 1.382 . S
C291 H301 0.948 . S
N292 Co270 2.282 . S
N292 C296 1.332 . S
N292 C297 1.332 . S
C293 C294 1.388 . S
C293 C297 1.382 . S
C293 H316 0.950 . S
C294 C293 1.388 . S
C294 C295 1.386 . S
C295 C294 1.386 . S
C295 C296 1.382 . S
C295 H317 0.950 . S
C296 N292 1.332 . S
C296 C295 1.382 . S
C296 H298 0.952 . S
C297 N292 1.332 . S
C297 C293 1.382 . S
C297 H299 0.948 . S
H298 C296 0.952 . S
H299 C297 0.948 . S
H300 C289 0.952 . S
H301 C291 0.948 . S
C302 C268 1.395 . S
C302 C272 1.391 . S
C303 C265 1.389 . S
C303 C285 1.392 . S
C304 C275 1.392 . S
C304 C277 1.389 . S
C305 C280 1.395 . S
C305 C282 1.391 . S
H306 C266 0.951 . S
H307 C267 0.950 . S
H308 C273 0.949 . S
H309 C274 0.950 . S
H310 C278 0.951 . S
H311 C279 0.950 . S
H312 C283 0.949 . S
H313 C284 0.950 . S
H314 C288 0.950 . S
H315 C290 0.950 . S
H316 C293 0.950 . S
H317 C295 0.950 . S
H318 C326 0.930 . S
H319 C329 0.930 . S
H320 C331 0.930 . S
H321 C332 0.970 . S
H322 C332 0.970 . S
H323 C334 0.930 . S
H324 C336 0.930 . S
H325 C338 0.930 . S
C326 H318 0.930 . S
C326 C327 1.382 . S
C326 C328 1.426 . S
C327 C326 1.382 . S
C327 C331 1.389 . S
C328 C326 1.426 . S
C328 C329 1.375 . S
C328 C332 1.532 . S
C329 H319 0.930 . S
C329 C328 1.375 . S
C329 C330 1.416 . S
C330 C329 1.416 . S
C330 C331 1.371 . S
C331 H320 0.930 . S
C331 C327 1.389 . S
C331 C330 1.371 . S
C332 H321 0.970 . S
C332 H322 0.970 . S
C332 C328 1.532 . S
C332 C333 1.499 . S
C333 C332 1.499 . S
C333 C334 1.370 . S
C333 C338 1.415 . S
C334 H323 0.930 . S
C334 C333 1.370 . S
C334 C335 1.407 . S
C335 C334 1.407 . S
C335 C336 1.365 . S
C336 H324 0.930 . S
C336 C335 1.365 . S
C336 C337 1.393 . S
C337 C336 1.393 . S
C337 C338 1.387 . S
C338 H325 0.930 . S
C338 C333 1.415 . S
C338 C337 1.387 . S
H339 C347 0.930 . S
H340 C350 0.930 . S
H341 C352 0.930 . S
H342 C353 0.970 . S
H343 C353 0.970 . S
H344 C355 0.930 . S
H345 C357 0.930 . S
H346 C359 0.930 . S
C347 H339 0.930 . S
C347 C348 1.382 . S
C347 C349 1.426 . S
C348 C347 1.382 . S
C348 C352 1.389 . S
C349 C347 1.426 . S
C349 C350 1.375 . S
C349 C353 1.532 . S
C350 H340 0.930 . S
C350 C349 1.375 . S
C350 C351 1.416 . S
C351 C350 1.416 . S
C351 C352 1.371 . S
C352 H341 0.930 . S
C352 C348 1.389 . S
C352 C351 1.371 . S
C353 H342 0.970 . S
C353 H343 0.970 . S
C353 C349 1.532 . S
C353 C354 1.499 . S
C354 C353 1.499 . S
C354 C355 1.370 . S
C354 C359 1.415 . S
C355 H344 0.930 . S
C355 C354 1.370 . S
C355 C356 1.407 . S
C356 C355 1.407 . S
C356 C357 1.365 . S
C357 H345 0.930 . S
C357 C356 1.365 . S
C357 C358 1.393 . S
C358 C357 1.393 . S
C358 C359 1.387 . S
C359 H346 0.930 . S
C359 C354 1.415 . S
C359 C358 1.387 . S
H360 C368 0.930 . S
H361 C371 0.930 . S
H362 C373 0.930 . S
H363 C374 0.970 . S
H364 C374 0.970 . S
H365 C376 0.930 . S
H366 C378 0.930 . S
H367 C380 0.930 . S
C368 H360 0.930 . S
C368 C369 1.382 . S
C368 C370 1.426 . S
C369 C368 1.382 . S
C369 C373 1.389 . S
C370 C368 1.426 . S
C370 C371 1.375 . S
C370 C374 1.532 . S
C371 H361 0.930 . S
C371 C370 1.375 . S
C371 C372 1.416 . S
C372 C371 1.416 . S
C372 C373 1.371 . S
C373 H362 0.930 . S
C373 C369 1.389 . S
C373 C372 1.371 . S
C374 H363 0.970 . S
C374 H364 0.970 . S
C374 C370 1.532 . S
C374 C375 1.499 . S
C375 C374 1.499 . S
C375 C376 1.370 . S
C375 C380 1.415 . S
C376 H365 0.930 . S
C376 C375 1.370 . S
C376 C377 1.407 . S
C377 C376 1.407 . S
C377 C378 1.365 . S
C378 H366 0.930 . S
C378 C377 1.365 . S
C378 C379 1.393 . S
C379 C378 1.393 . S
C379 C380 1.387 . S
C380 H367 0.930 . S
C380 C375 1.415 . S
C380 C379 1.387 . S
H381 C389 0.930 . S
H382 C392 0.930 . S
H383 C394 0.930 . S
H384 C395 0.970 . S
H385 C395 0.970 . S
H386 C397 0.930 . S
H387 C399 0.930 . S
H388 C401 0.930 . S
C389 H381 0.930 . S
C389 C390 1.382 . S
C389 C391 1.426 . S
C390 C389 1.382 . S
C390 C394 1.389 . S
C391 C389 1.426 . S
C391 C392 1.375 . S
C391 C395 1.532 . S
C392 H382 0.930 . S
C392 C391 1.375 . S
C392 C393 1.416 . S
C393 C392 1.416 . S
C393 C394 1.371 . S
C394 H383 0.930 . S
C394 C390 1.389 . S
C394 C393 1.371 . S
C395 H384 0.970 . S
C395 H385 0.970 . S
C395 C391 1.532 . S
C395 C396 1.499 . S
C396 C395 1.499 . S
C396 C397 1.370 . S
C396 C401 1.415 . S
C397 H386 0.930 . S
C397 C396 1.370 . S
C397 C398 1.407 . S
C398 C397 1.407 . S
C398 C399 1.365 . S
C399 H387 0.930 . S
C399 C398 1.365 . S
C399 C400 1.393 . S
C400 C399 1.393 . S
C400 C401 1.387 . S
C401 H388 0.930 . S
C401 C396 1.415 . S
C401 C400 1.387 . S
H402 C410 0.930 . S
H403 C413 0.930 . S
H404 C415 0.930 . S
H405 C416 0.970 . S
H406 C416 0.970 . S
H407 C418 0.930 . S
H408 C420 0.930 . S
H409 C422 0.930 . S
C410 H402 0.930 . S
C410 C411 1.382 . S
C410 C412 1.426 . S
C411 C410 1.382 . S
C411 C415 1.389 . S
C412 C410 1.426 . S
C412 C413 1.375 . S
C412 C416 1.532 . S
C413 H403 0.930 . S
C413 C412 1.375 . S
C413 C414 1.416 . S
C414 C413 1.416 . S
C414 C415 1.371 . S
C415 H404 0.930 . S
C415 C411 1.389 . S
C415 C414 1.371 . S
C416 H405 0.970 . S
C416 H406 0.970 . S
C416 C412 1.532 . S
C416 C417 1.499 . S
C417 C416 1.499 . S
C417 C418 1.370 . S
C417 C422 1.415 . S
C418 H407 0.930 . S
C418 C417 1.370 . S
C418 C419 1.407 . S
C419 C418 1.407 . S
C419 C420 1.365 . S
C420 H408 0.930 . S
C420 C419 1.365 . S
C420 C421 1.393 . S
C421 C420 1.393 . S
C421 C422 1.387 . S
C422 H409 0.930 . S
C422 C417 1.415 . S
C422 C421 1.387 . S
H423 C431 0.930 . S
H424 C434 0.930 . S
H425 C436 0.930 . S
H426 C437 0.970 . S
H427 C437 0.970 . S
H428 C439 0.930 . S
H429 C441 0.930 . S
H430 C443 0.930 . S
C431 H423 0.930 . S
C431 C432 1.382 . S
C431 C433 1.426 . S
C432 C431 1.382 . S
C432 C436 1.389 . S
C433 C431 1.426 . S
C433 C434 1.375 . S
C433 C437 1.532 . S
C434 H424 0.930 . S
C434 C433 1.375 . S
C434 C435 1.416 . S
C435 C434 1.416 . S
C435 C436 1.371 . S
C436 H425 0.930 . S
C436 C432 1.389 . S
C436 C435 1.371 . S
C437 H426 0.970 . S
C437 H427 0.970 . S
C437 C433 1.532 . S
C437 C438 1.499 . S
C438 C437 1.499 . S
C438 C439 1.370 . S
C438 C443 1.415 . S
C439 H428 0.930 . S
C439 C438 1.370 . S
C439 C440 1.407 . S
C440 C439 1.407 . S
C440 C441 1.365 . S
C441 H429 0.930 . S
C441 C440 1.365 . S
C441 C442 1.393 . S
C442 C441 1.393 . S
C442 C443 1.387 . S
C443 H430 0.930 . S
C443 C438 1.415 . S
C443 C442 1.387 . S
H444 C452 0.929 . S
H445 C454 0.930 . S
H446 C456 0.930 . S
H447 C459 0.929 . S
H448 C462 0.930 . S
H449 C464 0.960 . S
H450 C464 0.960 . S
H451 C464 0.960 . S
C452 H444 0.929 . S
C452 C453 1.377 . S
C452 C454 1.384 . S
C453 C452 1.377 . S
C453 C459 1.390 . S
C454 H445 0.930 . S
C454 C452 1.384 . S
C454 C455 1.372 . S
C455 C454 1.372 . S
C455 C456 1.400 . S
C455 C460 1.490 . S
C456 H446 0.930 . S
C456 C455 1.400 . S
C456 C459 1.386 . S
H457 C473 0.930 . S
H458 C474 0.931 . S
C459 H447 0.929 . S
C459 C453 1.390 . S
C459 C456 1.386 . S
C460 C455 1.490 . S
C460 C462 1.395 . S
C460 C463 1.403 . S
H461 C467 0.930 . S
C462 H448 0.930 . S
C462 C460 1.395 . S
C462 C465 1.403 . S
C463 C460 1.403 . S
C463 C464 1.524 . S
C463 C467 1.400 . S
C464 H449 0.960 . S
C464 H450 0.960 . S
C464 H451 0.960 . S
C464 C463 1.524 . S
C465 C462 1.403 . S
C465 C466 1.392 . S
C465 C469 1.495 . S
C466 C465 1.392 . S
C466 C467 1.385 . S
C466 C468 1.478 . S
C467 H461 0.930 . S
C467 C463 1.400 . S
C467 C466 1.385 . S
C468 C466 1.478 . S
C468 C470 1.381 . S
C468 C474 1.383 . S
C469 C465 1.495 . S
C469 H475 0.959 . S
C469 H476 0.961 . S
C469 H477 0.960 . S
C470 C468 1.381 . S
C470 C471 1.394 . S
C470 H478 0.930 . S
C471 C470 1.394 . S
C471 C472 1.383 . S
C471 H479 0.929 . S
C472 C471 1.383 . S
C472 C473 1.377 . S
C473 H457 0.930 . S
C473 C472 1.377 . S
C473 C474 1.379 . S
C474 H458 0.931 . S
C474 C468 1.383 . S
C474 C473 1.379 . S
H475 C469 0.959 . S
H476 C469 0.961 . S
H477 C469 0.960 . S
H478 C470 0.930 . S
H479 C471 0.929 . S
H480 C488 0.929 . S
H481 C490 0.930 . S
H482 C492 0.930 . S
H483 C495 0.929 . S
H484 C498 0.930 . S
H485 C500 0.960 . S
H486 C500 0.960 . S
H487 C500 0.960 . S
C488 H480 0.929 . S
C488 C489 1.377 . S
C488 C490 1.384 . S
C489 C488 1.377 . S
C489 C495 1.390 . S
C490 H481 0.930 . S
C490 C488 1.384 . S
C490 C491 1.372 . S
C491 C490 1.372 . S
C491 C492 1.400 . S
C491 C496 1.490 . S
C492 H482 0.930 . S
C492 C491 1.400 . S
C492 C495 1.386 . S
H493 C509 0.930 . S
H494 C510 0.931 . S
C495 H483 0.929 . S
C495 C489 1.390 . S
C495 C492 1.386 . S
C496 C491 1.490 . S
C496 C498 1.395 . S
C496 C499 1.403 . S
H497 C503 0.930 . S
C498 H484 0.930 . S
C498 C496 1.395 . S
C498 C501 1.403 . S
C499 C496 1.403 . S
C499 C500 1.524 . S
C499 C503 1.400 . S
C500 H485 0.960 . S
C500 H486 0.960 . S
C500 H487 0.960 . S
C500 C499 1.524 . S
C501 C498 1.403 . S
C501 C502 1.392 . S
C501 C505 1.495 . S
C502 C501 1.392 . S
C502 C503 1.385 . S
C502 C504 1.478 . S
C503 H497 0.930 . S
C503 C499 1.400 . S
C503 C502 1.385 . S
C504 C502 1.478 . S
C504 C506 1.381 . S
C504 C510 1.383 . S
C505 C501 1.495 . S
C505 H511 0.959 . S
C505 H512 0.961 . S
C505 H513 0.960 . S
C506 C504 1.381 . S
C506 C507 1.394 . S
C506 H514 0.930 . S
C507 C506 1.394 . S
C507 C508 1.383 . S
C507 H515 0.929 . S
C508 C507 1.383 . S
C508 C509 1.377 . S
C509 H493 0.930 . S
C509 C508 1.377 . S
C509 C510 1.379 . S
C510 H494 0.931 . S
C510 C504 1.383 . S
C510 C509 1.379 . S
H511 C505 0.959 . S
H512 C505 0.961 . S
H513 C505 0.960 . S
H514 C506 0.930 . S
H515 C507 0.929 . S
H516 C524 0.929 . S
H517 C526 0.930 . S
H518 C528 0.930 . S
H519 C531 0.929 . S
H520 C534 0.930 . S
H521 C536 0.960 . S
H522 C536 0.960 . S
H523 C536 0.960 . S
C524 H516 0.929 . S
C524 C525 1.377 . S
C524 C526 1.384 . S
C525 C524 1.377 . S
C525 C531 1.390 . S
C526 H517 0.930 . S
C526 C524 1.384 . S
C526 C527 1.372 . S
C527 C526 1.372 . S
C527 C528 1.400 . S
C527 C532 1.490 . S
C528 H518 0.930 . S
C528 C527 1.400 . S
C528 C531 1.386 . S
H529 C545 0.930 . S
H530 C546 0.931 . S
C531 H519 0.929 . S
C531 C525 1.390 . S
C531 C528 1.386 . S
C532 C527 1.490 . S
C532 C534 1.395 . S
C532 C535 1.403 . S
H533 C539 0.930 . S
C534 H520 0.930 . S
C534 C532 1.395 . S
C534 C537 1.403 . S
C535 C532 1.403 . S
C535 C536 1.524 . S
C535 C539 1.400 . S
C536 H521 0.960 . S
C536 H522 0.960 . S
C536 H523 0.960 . S
C536 C535 1.524 . S
C537 C534 1.403 . S
C537 C538 1.392 . S
C537 C541 1.495 . S
C538 C537 1.392 . S
C538 C539 1.385 . S
C538 C540 1.478 . S
C539 H533 0.930 . S
C539 C535 1.400 . S
C539 C538 1.385 . S
C540 C538 1.478 . S
C540 C542 1.381 . S
C540 C546 1.383 . S
C541 C537 1.495 . S
C541 H547 0.959 . S
C541 H548 0.961 . S
C541 H549 0.960 . S
C542 C540 1.381 . S
C542 C543 1.394 . S
C542 H550 0.930 . S
C543 C542 1.394 . S
C543 C544 1.383 . S
C543 H551 0.929 . S
C544 C543 1.383 . S
C544 C545 1.377 . S
C545 H529 0.930 . S
C545 C544 1.377 . S
C545 C546 1.379 . S
C546 H530 0.931 . S
C546 C540 1.383 . S
C546 C545 1.379 . S
H547 C541 0.959 . S
H548 C541 0.961 . S
H549 C541 0.960 . S
H550 C542 0.930 . S
H551 C543 0.929 . S
H552 C560 0.929 . S
H553 C562 0.930 . S
H554 C564 0.930 . S
H555 C567 0.929 . S
H556 C570 0.930 . S
H557 C572 0.960 . S
H558 C572 0.960 . S
H559 C572 0.960 . S
C560 H552 0.929 . S
C560 C561 1.377 . S
C560 C562 1.384 . S
C561 C560 1.377 . S
C561 C567 1.390 . S
C562 H553 0.930 . S
C562 C560 1.384 . S
C562 C563 1.372 . S
C563 C562 1.372 . S
C563 C564 1.400 . S
C563 C568 1.490 . S
C564 H554 0.930 . S
C564 C563 1.400 . S
C564 C567 1.386 . S
H565 C581 0.930 . S
H566 C582 0.931 . S
C567 H555 0.929 . S
C567 C561 1.390 . S
C567 C564 1.386 . S
C568 C563 1.490 . S
C568 C570 1.395 . S
C568 C571 1.403 . S
H569 C575 0.930 . S
C570 H556 0.930 . S
C570 C568 1.395 . S
C570 C573 1.403 . S
C571 C568 1.403 . S
C571 C572 1.524 . S
C571 C575 1.400 . S
C572 H557 0.960 . S
C572 H558 0.960 . S
C572 H559 0.960 . S
C572 C571 1.524 . S
C573 C570 1.403 . S
C573 C574 1.392 . S
C573 C577 1.495 . S
C574 C573 1.392 . S
C574 C575 1.385 . S
C574 C576 1.478 . S
C575 H569 0.930 . S
C575 C571 1.400 . S
C575 C574 1.385 . S
C576 C574 1.478 . S
C576 C578 1.381 . S
C576 C582 1.383 . S
C577 C573 1.495 . S
C577 H583 0.959 . S
C577 H584 0.961 . S
C577 H585 0.960 . S
C578 C576 1.381 . S
C578 C579 1.394 . S
C578 H586 0.930 . S
C579 C578 1.394 . S
C579 C580 1.383 . S
C579 H587 0.929 . S
C580 C579 1.383 . S
C580 C581 1.377 . S
C581 H565 0.930 . S
C581 C580 1.377 . S
C581 C582 1.379 . S
C582 H566 0.931 . S
C582 C576 1.383 . S
C582 C581 1.379 . S
H583 C577 0.959 . S
H584 C577 0.961 . S
H585 C577 0.960 . S
H586 C578 0.930 . S
H587 C579 0.929 . S
H588 C596 0.929 . S
H589 C598 0.930 . S
H590 C600 0.930 . S
H591 C603 0.929 . S
H592 C606 0.930 . S
H593 C608 0.960 . S
H594 C608 0.960 . S
H595 C608 0.960 . S
C596 H588 0.929 . S
C596 C597 1.377 . S
C596 C598 1.384 . S
C597 C596 1.377 . S
C597 C603 1.390 . S
C598 H589 0.930 . S
C598 C596 1.384 . S
C598 C599 1.372 . S
C599 C598 1.372 . S
C599 C600 1.400 . S
C599 C604 1.490 . S
C600 H590 0.930 . S
C600 C599 1.400 . S
C600 C603 1.386 . S
H601 C617 0.930 . S
H602 C618 0.931 . S
C603 H591 0.929 . S
C603 C597 1.390 . S
C603 C600 1.386 . S
C604 C599 1.490 . S
C604 C606 1.395 . S
C604 C607 1.403 . S
H605 C611 0.930 . S
C606 H592 0.930 . S
C606 C604 1.395 . S
C606 C609 1.403 . S
C607 C604 1.403 . S
C607 C608 1.524 . S
C607 C611 1.400 . S
C608 H593 0.960 . S
C608 H594 0.960 . S
C608 H595 0.960 . S
C608 C607 1.524 . S
C609 C606 1.403 . S
C609 C610 1.392 . S
C609 C613 1.495 . S
C610 C609 1.392 . S
C610 C611 1.385 . S
C610 C612 1.478 . S
C611 H605 0.930 . S
C611 C607 1.400 . S
C611 C610 1.385 . S
C612 C610 1.478 . S
C612 C614 1.381 . S
C612 C618 1.383 . S
C613 C609 1.495 . S
C613 H619 0.959 . S
C613 H620 0.961 . S
C613 H621 0.960 . S
C614 C612 1.381 . S
C614 C615 1.394 . S
C614 H622 0.930 . S
C615 C614 1.394 . S
C615 C616 1.383 . S
C615 H623 0.929 . S
C616 C615 1.383 . S
C616 C617 1.377 . S
C617 H601 0.930 . S
C617 C616 1.377 . S
C617 C618 1.379 . S
C618 H602 0.931 . S
C618 C612 1.383 . S
C618 C617 1.379 . S
H619 C613 0.959 . S
H620 C613 0.961 . S
H621 C613 0.960 . S
H622 C614 0.930 . S
H623 C615 0.929 . S
H624 C632 0.929 . S
H625 C634 0.930 . S
H626 C636 0.930 . S
H627 C639 0.929 . S
H628 C642 0.930 . S
H629 C644 0.960 . S
H630 C644 0.960 . S
H631 C644 0.960 . S
C632 H624 0.929 . S
C632 C633 1.377 . S
C632 C634 1.384 . S
C633 C632 1.377 . S
C633 C639 1.390 . S
C634 H625 0.930 . S
C634 C632 1.384 . S
C634 C635 1.372 . S
C635 C634 1.372 . S
C635 C636 1.400 . S
C635 C640 1.490 . S
C636 H626 0.930 . S
C636 C635 1.400 . S
C636 C639 1.386 . S
H637 C653 0.930 . S
H638 C654 0.931 . S
C639 H627 0.929 . S
C639 C633 1.390 . S
C639 C636 1.386 . S
C640 C635 1.490 . S
C640 C642 1.395 . S
C640 C643 1.403 . S
H641 C647 0.930 . S
C642 H628 0.930 . S
C642 C640 1.395 . S
C642 C645 1.403 . S
C643 C640 1.403 . S
C643 C644 1.524 . S
C643 C647 1.400 . S
C644 H629 0.960 . S
C644 H630 0.960 . S
C644 H631 0.960 . S
C644 C643 1.524 . S
C645 C642 1.403 . S
C645 C646 1.392 . S
C645 C649 1.495 . S
C646 C645 1.392 . S
C646 C647 1.385 . S
C646 C648 1.478 . S
C647 H641 0.930 . S
C647 C643 1.400 . S
C647 C646 1.385 . S
C648 C646 1.478 . S
C648 C650 1.381 . S
C648 C654 1.383 . S
C649 C645 1.495 . S
C649 H655 0.959 . S
C649 H656 0.961 . S
C649 H657 0.960 . S
C650 C648 1.381 . S
C650 C651 1.394 . S
C650 H658 0.930 . S
C651 C650 1.394 . S
C651 C652 1.383 . S
C651 H659 0.929 . S
C652 C651 1.383 . S
C652 C653 1.377 . S
C653 H637 0.930 . S
C653 C652 1.377 . S
C653 C654 1.379 . S
C654 H638 0.931 . S
C654 C648 1.383 . S
C654 C653 1.379 . S
H655 C649 0.959 . S
H656 C649 0.961 . S
H657 C649 0.960 . S
H658 C650 0.930 . S
H659 C651 0.929 . S
H660 C668 0.929 . S
H661 C670 0.930 . S
H662 C672 0.930 . S
H663 C675 0.929 . S
H664 C678 0.930 . S
H665 C680 0.960 . S
H666 C680 0.960 . S
H667 C680 0.960 . S
C668 H660 0.929 . S
C668 C669 1.377 . S
C668 C670 1.384 . S
C669 C668 1.377 . S
C669 C675 1.390 . S
C670 H661 0.930 . S
C670 C668 1.384 . S
C670 C671 1.372 . S
C671 C670 1.372 . S
C671 C672 1.400 . S
C671 C676 1.490 . S
C672 H662 0.930 . S
C672 C671 1.400 . S
C672 C675 1.386 . S
H673 C689 0.930 . S
H674 C690 0.931 . S
C675 H663 0.929 . S
C675 C669 1.390 . S
C675 C672 1.386 . S
C676 C671 1.490 . S
C676 C678 1.395 . S
C676 C679 1.403 . S
H677 C683 0.930 . S
C678 H664 0.930 . S
C678 C676 1.395 . S
C678 C681 1.403 . S
C679 C676 1.403 . S
C679 C680 1.524 . S
C679 C683 1.400 . S
C680 H665 0.960 . S
C680 H666 0.960 . S
C680 H667 0.960 . S
C680 C679 1.524 . S
C681 C678 1.403 . S
C681 C682 1.392 . S
C681 C685 1.495 . S
C682 C681 1.392 . S
C682 C683 1.385 . S
C682 C684 1.478 . S
C683 H677 0.930 . S
C683 C679 1.400 . S
C683 C682 1.385 . S
C684 C682 1.478 . S
C684 C686 1.381 . S
C684 C690 1.383 . S
C685 C681 1.495 . S
C685 H691 0.959 . S
C685 H692 0.961 . S
C685 H693 0.960 . S
C686 C684 1.381 . S
C686 C687 1.394 . S
C686 H694 0.930 . S
C687 C686 1.394 . S
C687 C688 1.383 . S
C687 H695 0.929 . S
C688 C687 1.383 . S
C688 C689 1.377 . S
C689 H673 0.930 . S
C689 C688 1.377 . S
C689 C690 1.379 . S
C690 H674 0.931 . S
C690 C684 1.383 . S
C690 C689 1.379 . S
H691 C685 0.959 . S
H692 C685 0.961 . S
H693 C685 0.960 . S
H694 C686 0.930 . S
H695 C687 0.929 . S
H696 C704 0.929 . S
H697 C706 0.930 . S
H698 C708 0.930 . S
H699 C711 0.929 . S
H700 C714 0.930 . S
H701 C716 0.960 . S
H702 C716 0.960 . S
H703 C716 0.960 . S
C704 H696 0.929 . S
C704 C705 1.377 . S
C704 C706 1.384 . S
C705 C704 1.377 . S
C705 C711 1.390 . S
C706 H697 0.930 . S
C706 C704 1.384 . S
C706 C707 1.372 . S
C707 C706 1.372 . S
C707 C708 1.400 . S
C707 C712 1.490 . S
C708 H698 0.930 . S
C708 C707 1.400 . S
C708 C711 1.386 . S
H709 C725 0.930 . S
H710 C726 0.931 . S
C711 H699 0.929 . S
C711 C705 1.390 . S
C711 C708 1.386 . S
C712 C707 1.490 . S
C712 C714 1.395 . S
C712 C715 1.403 . S
H713 C719 0.930 . S
C714 H700 0.930 . S
C714 C712 1.395 . S
C714 C717 1.403 . S
C715 C712 1.403 . S
C715 C716 1.524 . S
C715 C719 1.400 . S
C716 H701 0.960 . S
C716 H702 0.960 . S
C716 H703 0.960 . S
C716 C715 1.524 . S
C717 C714 1.403 . S
C717 C718 1.392 . S
C717 C721 1.495 . S
C718 C717 1.392 . S
C718 C719 1.385 . S
C718 C720 1.478 . S
C719 H713 0.930 . S
C719 C715 1.400 . S
C719 C718 1.385 . S
C720 C718 1.478 . S
C720 C722 1.381 . S
C720 C726 1.383 . S
C721 C717 1.495 . S
C721 H727 0.959 . S
C721 H728 0.961 . S
C721 H729 0.960 . S
C722 C720 1.381 . S
C722 C723 1.394 . S
C722 H730 0.930 . S
C723 C722 1.394 . S
C723 C724 1.383 . S
C723 H731 0.929 . S
C724 C723 1.383 . S
C724 C725 1.377 . S
C725 H709 0.930 . S
C725 C724 1.377 . S
C725 C726 1.379 . S
C726 H710 0.931 . S
C726 C720 1.383 . S
C726 C725 1.379 . S
H727 C721 0.959 . S
H728 C721 0.961 . S
H729 C721 0.960 . S
H730 C722 0.930 . S
H731 C723 0.929 . S
H732 C740 0.929 . S
H733 C742 0.930 . S
H734 C744 0.930 . S
H735 C747 0.929 . S
H736 C750 0.930 . S
H737 C752 0.960 . S
H738 C752 0.960 . S
H739 C752 0.960 . S
C740 H732 0.929 . S
C740 C741 1.377 . S
C740 C742 1.384 . S
C741 C740 1.377 . S
C741 C747 1.390 . S
C742 H733 0.930 . S
C742 C740 1.384 . S
C742 C743 1.372 . S
C743 C742 1.372 . S
C743 C744 1.400 . S
C743 C748 1.490 . S
C744 H734 0.930 . S
C744 C743 1.400 . S
C744 C747 1.386 . S
H745 C761 0.930 . S
H746 C762 0.931 . S
C747 H735 0.929 . S
C747 C741 1.390 . S
C747 C744 1.386 . S
C748 C743 1.490 . S
C748 C750 1.395 . S
C748 C751 1.403 . S
H749 C755 0.930 . S
C750 H736 0.930 . S
C750 C748 1.395 . S
C750 C753 1.403 . S
C751 C748 1.403 . S
C751 C752 1.524 . S
C751 C755 1.400 . S
C752 H737 0.960 . S
C752 H738 0.960 . S
C752 H739 0.960 . S
C752 C751 1.524 . S
C753 C750 1.403 . S
C753 C754 1.392 . S
C753 C757 1.495 . S
C754 C753 1.392 . S
C754 C755 1.385 . S
C754 C756 1.478 . S
C755 H749 0.930 . S
C755 C751 1.400 . S
C755 C754 1.385 . S
C756 C754 1.478 . S
C756 C758 1.381 . S
C756 C762 1.383 . S
C757 C753 1.495 . S
C757 H763 0.959 . S
C757 H764 0.961 . S
C757 H765 0.960 . S
C758 C756 1.381 . S
C758 C759 1.394 . S
C758 H766 0.930 . S
C759 C758 1.394 . S
C759 C760 1.383 . S
C759 H767 0.929 . S
C760 C759 1.383 . S
C760 C761 1.377 . S
C761 H745 0.930 . S
C761 C760 1.377 . S
C761 C762 1.379 . S
C762 H746 0.931 . S
C762 C756 1.383 . S
C762 C761 1.379 . S
H763 C757 0.959 . S
H764 C757 0.961 . S
H765 C757 0.960 . S
H766 C758 0.930 . S
H767 C759 0.929 . S
H768 C776 0.929 . S
H769 C778 0.930 . S
H770 C780 0.930 . S
H771 C783 0.929 . S
H772 C786 0.930 . S
H773 C788 0.960 . S
H774 C788 0.960 . S
H775 C788 0.960 . S
C776 H768 0.929 . S
C776 C777 1.377 . S
C776 C778 1.384 . S
C777 C776 1.377 . S
C777 C783 1.390 . S
C778 H769 0.930 . S
C778 C776 1.384 . S
C778 C779 1.372 . S
C779 C778 1.372 . S
C779 C780 1.400 . S
C779 C784 1.490 . S
C780 H770 0.930 . S
C780 C779 1.400 . S
C780 C783 1.386 . S
H781 C797 0.930 . S
H782 C798 0.931 . S
C783 H771 0.929 . S
C783 C777 1.390 . S
C783 C780 1.386 . S
C784 C779 1.490 . S
C784 C786 1.395 . S
C784 C787 1.403 . S
H785 C791 0.930 . S
C786 H772 0.930 . S
C786 C784 1.395 . S
C786 C789 1.403 . S
C787 C784 1.403 . S
C787 C788 1.524 . S
C787 C791 1.400 . S
C788 H773 0.960 . S
C788 H774 0.960 . S
C788 H775 0.960 . S
C788 C787 1.524 . S
C789 C786 1.403 . S
C789 C790 1.392 . S
C789 C793 1.495 . S
C790 C789 1.392 . S
C790 C791 1.385 . S
C790 C792 1.478 . S
C791 H785 0.930 . S
C791 C787 1.400 . S
C791 C790 1.385 . S
C792 C790 1.478 . S
C792 C794 1.381 . S
C792 C798 1.383 . S
C793 C789 1.495 . S
C793 H799 0.959 . S
C793 H800 0.961 . S
C793 H801 0.960 . S
C794 C792 1.381 . S
C794 C795 1.394 . S
C794 H802 0.930 . S
C795 C794 1.394 . S
C795 C796 1.383 . S
C795 H803 0.929 . S
C796 C795 1.383 . S
C796 C797 1.377 . S
C797 H781 0.930 . S
C797 C796 1.377 . S
C797 C798 1.379 . S
C798 H782 0.931 . S
C798 C792 1.383 . S
C798 C797 1.379 . S
H799 C793 0.959 . S
H800 C793 0.961 . S
H801 C793 0.960 . S
H802 C794 0.930 . S
H803 C795 0.929 . S
H804 C812 0.929 . S
H805 C814 0.930 . S
H806 C816 0.930 . S
H807 C819 0.929 . S
H808 C822 0.930 . S
H809 C824 0.960 . S
H810 C824 0.960 . S
H811 C824 0.960 . S
C812 H804 0.929 . S
C812 C813 1.377 . S
C812 C814 1.384 . S
C813 C812 1.377 . S
C813 C819 1.390 . S
C814 H805 0.930 . S
C814 C812 1.384 . S
C814 C815 1.372 . S
C815 C814 1.372 . S
C815 C816 1.400 . S
C815 C820 1.490 . S
C816 H806 0.930 . S
C816 C815 1.400 . S
C816 C819 1.386 . S
H817 C833 0.930 . S
H818 C834 0.931 . S
C819 H807 0.929 . S
C819 C813 1.390 . S
C819 C816 1.386 . S
C820 C815 1.490 . S
C820 C822 1.395 . S
C820 C823 1.403 . S
H821 C827 0.930 . S
C822 H808 0.930 . S
C822 C820 1.395 . S
C822 C825 1.403 . S
C823 C820 1.403 . S
C823 C824 1.524 . S
C823 C827 1.400 . S
C824 H809 0.960 . S
C824 H810 0.960 . S
C824 H811 0.960 . S
C824 C823 1.524 . S
C825 C822 1.403 . S
C825 C826 1.392 . S
C825 C829 1.495 . S
C826 C825 1.392 . S
C826 C827 1.385 . S
C826 C828 1.478 . S
C827 H821 0.930 . S
C827 C823 1.400 . S
C827 C826 1.385 . S
C828 C826 1.478 . S
C828 C830 1.381 . S
C828 C834 1.383 . S
C829 C825 1.495 . S
C829 H835 0.959 . S
C829 H836 0.961 . S
C829 H837 0.960 . S
C830 C828 1.381 . S
C830 C831 1.394 . S
C830 H838 0.930 . S
C831 C830 1.394 . S
C831 C832 1.383 . S
C831 H839 0.929 . S
C832 C831 1.383 . S
C832 C833 1.377 . S
C833 H817 0.930 . S
C833 C832 1.377 . S
C833 C834 1.379 . S
C834 H818 0.931 . S
C834 C828 1.383 . S
C834 C833 1.379 . S
H835 C829 0.959 . S
H836 C829 0.961 . S
H837 C829 0.960 . S
H838 C830 0.930 . S
H839 C831 0.929 . S
H840 C848 0.929 . S
H841 C850 0.930 . S
H842 C852 0.930 . S
H843 C855 0.929 . S
H844 C858 0.930 . S
H845 C860 0.960 . S
H846 C860 0.960 . S
H847 C860 0.960 . S
C848 H840 0.929 . S
C848 C849 1.377 . S
C848 C850 1.384 . S
C849 C848 1.377 . S
C849 C855 1.390 . S
C850 H841 0.930 . S
C850 C848 1.384 . S
C850 C851 1.372 . S
C851 C850 1.372 . S
C851 C852 1.400 . S
C851 C856 1.490 . S
C852 H842 0.930 . S
C852 C851 1.400 . S
C852 C855 1.386 . S
H853 C869 0.930 . S
H854 C870 0.931 . S
C855 H843 0.929 . S
C855 C849 1.390 . S
C855 C852 1.386 . S
C856 C851 1.490 . S
C856 C858 1.395 . S
C856 C859 1.403 . S
H857 C863 0.930 . S
C858 H844 0.930 . S
C858 C856 1.395 . S
C858 C861 1.403 . S
C859 C856 1.403 . S
C859 C860 1.524 . S
C859 C863 1.400 . S
C860 H845 0.960 . S
C860 H846 0.960 . S
C860 H847 0.960 . S
C860 C859 1.524 . S
C861 C858 1.403 . S
C861 C862 1.392 . S
C861 C865 1.495 . S
C862 C861 1.392 . S
C862 C863 1.385 . S
C862 C864 1.478 . S
C863 H857 0.930 . S
C863 C859 1.400 . S
C863 C862 1.385 . S
C864 C862 1.478 . S
C864 C866 1.381 . S
C864 C870 1.383 . S
C865 C861 1.495 . S
C865 H871 0.959 . S
C865 H872 0.961 . S
C865 H873 0.960 . S
C866 C864 1.381 . S
C866 C867 1.394 . S
C866 H874 0.930 . S
C867 C866 1.394 . S
C867 C868 1.383 . S
C867 H875 0.929 . S
C868 C867 1.383 . S
C868 C869 1.377 . S
C869 H853 0.930 . S
C869 C868 1.377 . S
C869 C870 1.379 . S
C870 H854 0.931 . S
C870 C864 1.383 . S
C870 C869 1.379 . S
H871 C865 0.959 . S
H872 C865 0.961 . S
H873 C865 0.960 . S
H874 C866 0.930 . S
H875 C867 0.929 . S
H876 C884 0.929 . S
H877 C886 0.930 . S
H878 C888 0.930 . S
H879 C891 0.929 . S
H880 C894 0.930 . S
H881 C896 0.960 . S
H882 C896 0.960 . S
H883 C896 0.960 . S
C884 H876 0.929 . S
C884 C885 1.377 . S
C884 C886 1.384 . S
C885 C884 1.377 . S
C885 C891 1.390 . S
C886 H877 0.930 . S
C886 C884 1.384 . S
C886 C887 1.372 . S
C887 C886 1.372 . S
C887 C888 1.400 . S
C887 C892 1.490 . S
C888 H878 0.930 . S
C888 C887 1.400 . S
C888 C891 1.386 . S
H889 C905 0.930 . S
H890 C906 0.931 . S
C891 H879 0.929 . S
C891 C885 1.390 . S
C891 C888 1.386 . S
C892 C887 1.490 . S
C892 C894 1.395 . S
C892 C895 1.403 . S
H893 C899 0.930 . S
C894 H880 0.930 . S
C894 C892 1.395 . S
C894 C897 1.403 . S
C895 C892 1.403 . S
C895 C896 1.524 . S
C895 C899 1.400 . S
C896 H881 0.960 . S
C896 H882 0.960 . S
C896 H883 0.960 . S
C896 C895 1.524 . S
C897 C894 1.403 . S
C897 C898 1.392 . S
C897 C901 1.495 . S
C898 C897 1.392 . S
C898 C899 1.385 . S
C898 C900 1.478 . S
C899 H893 0.930 . S
C899 C895 1.400 . S
C899 C898 1.385 . S
C900 C898 1.478 . S
C900 C902 1.381 . S
C900 C906 1.383 . S
C901 C897 1.495 . S
C901 H907 0.959 . S
C901 H908 0.961 . S
C901 H909 0.960 . S
C902 C900 1.381 . S
C902 C903 1.394 . S
C902 H910 0.930 . S
C903 C902 1.394 . S
C903 C904 1.383 . S
C903 H911 0.929 . S
C904 C903 1.383 . S
C904 C905 1.377 . S
C905 H889 0.930 . S
C905 C904 1.377 . S
C905 C906 1.379 . S
C906 H890 0.931 . S
C906 C900 1.383 . S
C906 C905 1.379 . S
H907 C901 0.959 . S
H908 C901 0.961 . S
H909 C901 0.960 . S
H910 C902 0.930 . S
H911 C903 0.929 . S
H912 C920 0.929 . S
H913 C922 0.930 . S
H914 C924 0.930 . S
H915 C927 0.929 . S
H916 C930 0.930 . S
H917 C932 0.960 . S
H918 C932 0.960 . S
H919 C932 0.960 . S
C920 H912 0.929 . S
C920 C921 1.377 . S
C920 C922 1.384 . S
C921 C920 1.377 . S
C921 C927 1.390 . S
C922 H913 0.930 . S
C922 C920 1.384 . S
C922 C923 1.372 . S
C923 C922 1.372 . S
C923 C924 1.400 . S
C923 C928 1.490 . S
C924 H914 0.930 . S
C924 C923 1.400 . S
C924 C927 1.386 . S
H925 C941 0.930 . S
H926 C942 0.931 . S
C927 H915 0.929 . S
C927 C921 1.390 . S
C927 C924 1.386 . S
C928 C923 1.490 . S
C928 C930 1.395 . S
C928 C931 1.403 . S
H929 C935 0.930 . S
C930 H916 0.930 . S
C930 C928 1.395 . S
C930 C933 1.403 . S
C931 C928 1.403 . S
C931 C932 1.524 . S
C931 C935 1.400 . S
C932 H917 0.960 . S
C932 H918 0.960 . S
C932 H919 0.960 . S
C932 C931 1.524 . S
C933 C930 1.403 . S
C933 C934 1.392 . S
C933 C937 1.495 . S
C934 C933 1.392 . S
C934 C935 1.385 . S
C934 C936 1.478 . S
C935 H929 0.930 . S
C935 C931 1.400 . S
C935 C934 1.385 . S
C936 C934 1.478 . S
C936 C938 1.381 . S
C936 C942 1.383 . S
C937 C933 1.495 . S
C937 H943 0.959 . S
C937 H944 0.961 . S
C937 H945 0.960 . S
C938 C936 1.381 . S
C938 C939 1.394 . S
C938 H946 0.930 . S
C939 C938 1.394 . S
C939 C940 1.383 . S
C939 H947 0.929 . S
C940 C939 1.383 . S
C940 C941 1.377 . S
C941 H925 0.930 . S
C941 C940 1.377 . S
C941 C942 1.379 . S
C942 H926 0.931 . S
C942 C936 1.383 . S
C942 C941 1.379 . S
H943 C937 0.959 . S
H944 C937 0.961 . S
H945 C937 0.960 . S
H946 C938 0.930 . S
H947 C939 0.929 . S
H948 C956 0.929 . S
H949 C958 0.930 . S
H950 C960 0.930 . S
H951 C963 0.929 . S
H952 C966 0.930 . S
H953 C968 0.960 . S
H954 C968 0.960 . S
H955 C968 0.960 . S
C956 H948 0.929 . S
C956 C957 1.377 . S
C956 C958 1.384 . S
C957 C956 1.377 . S
C957 C963 1.390 . S
C958 H949 0.930 . S
C958 C956 1.384 . S
C958 C959 1.372 . S
C959 C958 1.372 . S
C959 C960 1.400 . S
C959 C964 1.490 . S
C960 H950 0.930 . S
C960 C959 1.400 . S
C960 C963 1.386 . S
H961 C977 0.930 . S
H962 C978 0.931 . S
C963 H951 0.929 . S
C963 C957 1.390 . S
C963 C960 1.386 . S
C964 C959 1.490 . S
C964 C966 1.395 . S
C964 C967 1.403 . S
H965 C971 0.930 . S
C966 H952 0.930 . S
C966 C964 1.395 . S
C966 C969 1.403 . S
C967 C964 1.403 . S
C967 C968 1.524 . S
C967 C971 1.400 . S
C968 H953 0.960 . S
C968 H954 0.960 . S
C968 H955 0.960 . S
C968 C967 1.524 . S
C969 C966 1.403 . S
C969 C970 1.392 . S
C969 C973 1.495 . S
C970 C969 1.392 . S
C970 C971 1.385 . S
C970 C972 1.478 . S
C971 H965 0.930 . S
C971 C967 1.400 . S
C971 C970 1.385 . S
C972 C970 1.478 . S
C972 C974 1.381 . S
C972 C978 1.383 . S
C973 C969 1.495 . S
C973 H979 0.959 . S
C973 H980 0.961 . S
C973 H981 0.960 . S
C974 C972 1.381 . S
C974 C975 1.394 . S
C974 H982 0.930 . S
C975 C974 1.394 . S
C975 C976 1.383 . S
C975 H983 0.929 . S
C976 C975 1.383 . S
C976 C977 1.377 . S
C977 H961 0.930 . S
C977 C976 1.377 . S
C977 C978 1.379 . S
C978 H962 0.931 . S
C978 C972 1.383 . S
C978 C977 1.379 . S
H979 C973 0.959 . S
H980 C973 0.961 . S
H981 C973 0.960 . S
H982 C974 0.930 . S
H983 C975 0.929 . S
H984 C992 0.929 . S
H985 C994 0.930 . S
H986 C996 0.930 . S
H987 C999 0.929 . S
H988 C1002 0.930 . S
H989 C1004 0.960 . S
H990 C1004 0.960 . S
H991 C1004 0.960 . S
C992 H984 0.929 . S
C992 C993 1.377 . S
C992 C994 1.384 . S
C993 C992 1.377 . S
C993 C999 1.390 . S
C994 H985 0.930 . S
C994 C992 1.384 . S
C994 C995 1.372 . S
C995 C994 1.372 . S
C995 C996 1.400 . S
C995 C1000 1.490 . S
C996 H986 0.930 . S
C996 C995 1.400 . S
C996 C999 1.386 . S
H997 C1013 0.930 . S
H998 C1014 0.931 . S
C999 H987 0.929 . S
C999 C993 1.390 . S
C999 C996 1.386 . S
C1000 C995 1.490 . S
C1000 C1002 1.395 . S
C1000 C1003 1.403 . S
H1001 C1007 0.930 . S
C1002 H988 0.930 . S
C1002 C1000 1.395 . S
C1002 C1005 1.403 . S
C1003 C1000 1.403 . S
C1003 C1004 1.524 . S
C1003 C1007 1.400 . S
C1004 H989 0.960 . S
C1004 H990 0.960 . S
C1004 H991 0.960 . S
C1004 C1003 1.524 . S
C1005 C1002 1.403 . S
C1005 C1006 1.392 . S
C1005 C1009 1.495 . S
C1006 C1005 1.392 . S
C1006 C1007 1.385 . S
C1006 C1008 1.478 . S
C1007 H1001 0.930 . S
C1007 C1003 1.400 . S
C1007 C1006 1.385 . S
C1008 C1006 1.478 . S
C1008 C1010 1.381 . S
C1008 C1014 1.383 . S
C1009 C1005 1.495 . S
C1009 H1015 0.959 . S
C1009 H1016 0.961 . S
C1009 H1017 0.960 . S
C1010 C1008 1.381 . S
C1010 C1011 1.394 . S
C1010 H1018 0.930 . S
C1011 C1010 1.394 . S
C1011 C1012 1.383 . S
C1011 H1019 0.929 . S
C1012 C1011 1.383 . S
C1012 C1013 1.377 . S
C1013 H997 0.930 . S
C1013 C1012 1.377 . S
C1013 C1014 1.379 . S
C1014 H998 0.931 . S
C1014 C1008 1.383 . S
C1014 C1013 1.379 . S
H1015 C1009 0.959 . S
H1016 C1009 0.961 . S
H1017 C1009 0.960 . S
H1018 C1010 0.930 . S
H1019 C1011 0.929 . S
H1020 C1028 0.929 . S
H1021 C1030 0.930 . S
H1022 C1032 0.930 . S
H1023 C1035 0.929 . S
H1024 C1038 0.930 . S
H1025 C1040 0.960 . S
H1026 C1040 0.960 . S
H1027 C1040 0.960 . S
C1028 H1020 0.929 . S
C1028 C1029 1.377 . S
C1028 C1030 1.384 . S
C1029 C1028 1.377 . S
C1029 C1035 1.390 . S
C1030 H1021 0.930 . S
C1030 C1028 1.384 . S
C1030 C1031 1.372 . S
C1031 C1030 1.372 . S
C1031 C1032 1.400 . S
C1031 C1036 1.490 . S
C1032 H1022 0.930 . S
C1032 C1031 1.400 . S
C1032 C1035 1.386 . S
H1033 C1049 0.930 . S
H1034 C1050 0.931 . S
C1035 H1023 0.929 . S
C1035 C1029 1.390 . S
C1035 C1032 1.386 . S
C1036 C1031 1.490 . S
C1036 C1038 1.395 . S
C1036 C1039 1.403 . S
H1037 C1043 0.930 . S
C1038 H1024 0.930 . S
C1038 C1036 1.395 . S
C1038 C1041 1.403 . S
C1039 C1036 1.403 . S
C1039 C1040 1.524 . S
C1039 C1043 1.400 . S
C1040 H1025 0.960 . S
C1040 H1026 0.960 . S
C1040 H1027 0.960 . S
C1040 C1039 1.524 . S
C1041 C1038 1.403 . S
C1041 C1042 1.392 . S
C1041 C1045 1.495 . S
C1042 C1041 1.392 . S
C1042 C1043 1.385 . S
C1042 C1044 1.478 . S
C1043 H1037 0.930 . S
C1043 C1039 1.400 . S
C1043 C1042 1.385 . S
C1044 C1042 1.478 . S
C1044 C1046 1.381 . S
C1044 C1050 1.383 . S
C1045 C1041 1.495 . S
C1045 H1051 0.959 . S
C1045 H1052 0.961 . S
C1045 H1053 0.960 . S
C1046 C1044 1.381 . S
C1046 C1047 1.394 . S
C1046 H1054 0.930 . S
C1047 C1046 1.394 . S
C1047 C1048 1.383 . S
C1047 H1055 0.929 . S
C1048 C1047 1.383 . S
C1048 C1049 1.377 . S
C1049 H1033 0.930 . S
C1049 C1048 1.377 . S
C1049 C1050 1.379 . S
C1050 H1034 0.931 . S
C1050 C1044 1.383 . S
C1050 C1049 1.379 . S
H1051 C1045 0.959 . S
H1052 C1045 0.961 . S
H1053 C1045 0.960 . S
H1054 C1046 0.930 . S
H1055 C1047 0.929 . S
H1056 C1064 0.929 . S
H1057 C1066 0.930 . S
H1058 C1068 0.930 . S
H1059 C1071 0.929 . S
H1060 C1074 0.930 . S
H1061 C1076 0.960 . S
H1062 C1076 0.960 . S
H1063 C1076 0.960 . S
C1064 H1056 0.929 . S
C1064 C1065 1.377 . S
C1064 C1066 1.384 . S
C1065 C1064 1.377 . S
C1065 C1071 1.390 . S
C1066 H1057 0.930 . S
C1066 C1064 1.384 . S
C1066 C1067 1.372 . S
C1067 C1066 1.372 . S
C1067 C1068 1.400 . S
C1067 C1072 1.490 . S
C1068 H1058 0.930 . S
C1068 C1067 1.400 . S
C1068 C1071 1.386 . S
H1069 C1085 0.930 . S
H1070 C1086 0.931 . S
C1071 H1059 0.929 . S
C1071 C1065 1.390 . S
C1071 C1068 1.386 . S
C1072 C1067 1.490 . S
C1072 C1074 1.395 . S
C1072 C1075 1.403 . S
H1073 C1079 0.930 . S
C1074 H1060 0.930 . S
C1074 C1072 1.395 . S
C1074 C1077 1.403 . S
C1075 C1072 1.403 . S
C1075 C1076 1.524 . S
C1075 C1079 1.400 . S
C1076 H1061 0.960 . S
C1076 H1062 0.960 . S
C1076 H1063 0.960 . S
C1076 C1075 1.524 . S
C1077 C1074 1.403 . S
C1077 C1078 1.392 . S
C1077 C1081 1.495 . S
C1078 C1077 1.392 . S
C1078 C1079 1.385 . S
C1078 C1080 1.478 . S
C1079 H1073 0.930 . S
C1079 C1075 1.400 . S
C1079 C1078 1.385 . S
C1080 C1078 1.478 . S
C1080 C1082 1.381 . S
C1080 C1086 1.383 . S
C1081 C1077 1.495 . S
C1081 H1087 0.959 . S
C1081 H1088 0.961 . S
C1081 H1089 0.960 . S
C1082 C1080 1.381 . S
C1082 C1083 1.394 . S
C1082 H1090 0.930 . S
C1083 C1082 1.394 . S
C1083 C1084 1.383 . S
C1083 H1091 0.929 . S
C1084 C1083 1.383 . S
C1084 C1085 1.377 . S
C1085 H1069 0.930 . S
C1085 C1084 1.377 . S
C1085 C1086 1.379 . S
C1086 H1070 0.931 . S
C1086 C1080 1.383 . S
C1086 C1085 1.379 . S
H1087 C1081 0.959 . S
H1088 C1081 0.961 . S
H1089 C1081 0.960 . S
H1090 C1082 0.930 . S
H1091 C1083 0.929 . S
H1092 C1100 0.929 . S
H1093 C1102 0.930 . S
H1094 C1104 0.930 . S
H1095 C1107 0.929 . S
H1096 C1110 0.930 . S
H1097 C1112 0.960 . S
H1098 C1112 0.960 . S
H1099 C1112 0.960 . S
C1100 H1092 0.929 . S
C1100 C1101 1.377 . S
C1100 C1102 1.384 . S
C1101 C1100 1.377 . S
C1101 C1107 1.390 . S
C1102 H1093 0.930 . S
C1102 C1100 1.384 . S
C1102 C1103 1.372 . S
C1103 C1102 1.372 . S
C1103 C1104 1.400 . S
C1103 C1108 1.490 . S
C1104 H1094 0.930 . S
C1104 C1103 1.400 . S
C1104 C1107 1.386 . S
H1105 C1121 0.930 . S
H1106 C1122 0.931 . S
C1107 H1095 0.929 . S
C1107 C1101 1.390 . S
C1107 C1104 1.386 . S
C1108 C1103 1.490 . S
C1108 C1110 1.395 . S
C1108 C1111 1.403 . S
H1109 C1115 0.930 . S
C1110 H1096 0.930 . S
C1110 C1108 1.395 . S
C1110 C1113 1.403 . S
C1111 C1108 1.403 . S
C1111 C1112 1.524 . S
C1111 C1115 1.400 . S
C1112 H1097 0.960 . S
C1112 H1098 0.960 . S
C1112 H1099 0.960 . S
C1112 C1111 1.524 . S
C1113 C1110 1.403 . S
C1113 C1114 1.392 . S
C1113 C1117 1.495 . S
C1114 C1113 1.392 . S
C1114 C1115 1.385 . S
C1114 C1116 1.478 . S
C1115 H1109 0.930 . S
C1115 C1111 1.400 . S
C1115 C1114 1.385 . S
C1116 C1114 1.478 . S
C1116 C1118 1.381 . S
C1116 C1122 1.383 . S
C1117 C1113 1.495 . S
C1117 H1123 0.959 . S
C1117 H1124 0.961 . S
C1117 H1125 0.960 . S
C1118 C1116 1.381 . S
C1118 C1119 1.394 . S
C1118 H1126 0.930 . S
C1119 C1118 1.394 . S
C1119 C1120 1.383 . S
C1119 H1127 0.929 . S
C1120 C1119 1.383 . S
C1120 C1121 1.377 . S
C1121 H1105 0.930 . S
C1121 C1120 1.377 . S
C1121 C1122 1.379 . S
C1122 H1106 0.931 . S
C1122 C1116 1.383 . S
C1122 C1121 1.379 . S
H1123 C1117 0.959 . S
H1124 C1117 0.961 . S
H1125 C1117 0.960 . S
H1126 C1118 0.930 . S
H1127 C1119 0.929 . S
H1128 C1136 0.929 . S
H1129 C1138 0.930 . S
H1130 C1140 0.930 . S
H1131 C1143 0.929 . S
H1132 C1146 0.930 . S
H1133 C1148 0.960 . S
H1134 C1148 0.960 . S
H1135 C1148 0.960 . S
C1136 H1128 0.929 . S
C1136 C1137 1.377 . S
C1136 C1138 1.384 . S
C1137 C1136 1.377 . S
C1137 C1143 1.390 . S
C1138 H1129 0.930 . S
C1138 C1136 1.384 . S
C1138 C1139 1.372 . S
C1139 C1138 1.372 . S
C1139 C1140 1.400 . S
C1139 C1144 1.490 . S
C1140 H1130 0.930 . S
C1140 C1139 1.400 . S
C1140 C1143 1.386 . S
H1141 C1157 0.930 . S
H1142 C1158 0.931 . S
C1143 H1131 0.929 . S
C1143 C1137 1.390 . S
C1143 C1140 1.386 . S
C1144 C1139 1.490 . S
C1144 C1146 1.395 . S
C1144 C1147 1.403 . S
H1145 C1151 0.930 . S
C1146 H1132 0.930 . S
C1146 C1144 1.395 . S
C1146 C1149 1.403 . S
C1147 C1144 1.403 . S
C1147 C1148 1.524 . S
C1147 C1151 1.400 . S
C1148 H1133 0.960 . S
C1148 H1134 0.960 . S
C1148 H1135 0.960 . S
C1148 C1147 1.524 . S
C1149 C1146 1.403 . S
C1149 C1150 1.392 . S
C1149 C1153 1.495 . S
C1150 C1149 1.392 . S
C1150 C1151 1.385 . S
C1150 C1152 1.478 . S
C1151 H1145 0.930 . S
C1151 C1147 1.400 . S
C1151 C1150 1.385 . S
C1152 C1150 1.478 . S
C1152 C1154 1.381 . S
C1152 C1158 1.383 . S
C1153 C1149 1.495 . S
C1153 H1159 0.959 . S
C1153 H1160 0.961 . S
C1153 H1161 0.960 . S
C1154 C1152 1.381 . S
C1154 C1155 1.394 . S
C1154 H1162 0.930 . S
C1155 C1154 1.394 . S
C1155 C1156 1.383 . S
C1155 H1163 0.929 . S
C1156 C1155 1.383 . S
C1156 C1157 1.377 . S
C1157 H1141 0.930 . S
C1157 C1156 1.377 . S
C1157 C1158 1.379 . S
C1158 H1142 0.931 . S
C1158 C1152 1.383 . S
C1158 C1157 1.379 . S
H1159 C1153 0.959 . S
H1160 C1153 0.961 . S
H1161 C1153 0.960 . S
H1162 C1154 0.930 . S
H1163 C1155 0.929 . S
H1164 C1172 0.929 . S
H1165 C1174 0.930 . S
H1166 C1176 0.930 . S
H1167 C1179 0.929 . S
H1168 C1182 0.930 . S
H1169 C1184 0.960 . S
H1170 C1184 0.960 . S
H1171 C1184 0.960 . S
C1172 H1164 0.929 . S
C1172 C1173 1.377 . S
C1172 C1174 1.384 . S
C1173 C1172 1.377 . S
C1173 C1179 1.390 . S
C1174 H1165 0.930 . S
C1174 C1172 1.384 . S
C1174 C1175 1.372 . S
C1175 C1174 1.372 . S
C1175 C1176 1.400 . S
C1175 C1180 1.490 . S
C1176 H1166 0.930 . S
C1176 C1175 1.400 . S
C1176 C1179 1.386 . S
H1177 C1193 0.930 . S
H1178 C1194 0.931 . S
C1179 H1167 0.929 . S
C1179 C1173 1.390 . S
C1179 C1176 1.386 . S
C1180 C1175 1.490 . S
C1180 C1182 1.395 . S
C1180 C1183 1.403 . S
H1181 C1187 0.930 . S
C1182 H1168 0.930 . S
C1182 C1180 1.395 . S
C1182 C1185 1.403 . S
C1183 C1180 1.403 . S
C1183 C1184 1.524 . S
C1183 C1187 1.400 . S
C1184 H1169 0.960 . S
C1184 H1170 0.960 . S
C1184 H1171 0.960 . S
C1184 C1183 1.524 . S
C1185 C1182 1.403 . S
C1185 C1186 1.392 . S
C1185 C1189 1.495 . S
C1186 C1185 1.392 . S
C1186 C1187 1.385 . S
C1186 C1188 1.478 . S
C1187 H1181 0.930 . S
C1187 C1183 1.400 . S
C1187 C1186 1.385 . S
C1188 C1186 1.478 . S
C1188 C1190 1.381 . S
C1188 C1194 1.383 . S
C1189 C1185 1.495 . S
C1189 H1195 0.959 . S
C1189 H1196 0.961 . S
C1189 H1197 0.960 . S
C1190 C1188 1.381 . S
C1190 C1191 1.394 . S
C1190 H1198 0.930 . S
C1191 C1190 1.394 . S
C1191 C1192 1.383 . S
C1191 H1199 0.929 . S
C1192 C1191 1.383 . S
C1192 C1193 1.377 . S
C1193 H1177 0.930 . S
C1193 C1192 1.377 . S
C1193 C1194 1.379 . S
C1194 H1178 0.931 . S
C1194 C1188 1.383 . S
C1194 C1193 1.379 . S
H1195 C1189 0.959 . S
H1196 C1189 0.961 . S
H1197 C1189 0.960 . S
H1198 C1190 0.930 . S
H1199 C1191 0.929 . S
H1200 C1208 0.929 . S
H1201 C1210 0.930 . S
H1202 C1212 0.930 . S
H1203 C1215 0.929 . S
H1204 C1218 0.930 . S
H1205 C1220 0.960 . S
H1206 C1220 0.960 . S
H1207 C1220 0.960 . S
C1208 H1200 0.929 . S
C1208 C1209 1.377 . S
C1208 C1210 1.384 . S
C1209 C1208 1.377 . S
C1209 C1215 1.390 . S
C1210 H1201 0.930 . S
C1210 C1208 1.384 . S
C1210 C1211 1.372 . S
C1211 C1210 1.372 . S
C1211 C1212 1.400 . S
C1211 C1216 1.490 . S
C1212 H1202 0.930 . S
C1212 C1211 1.400 . S
C1212 C1215 1.386 . S
H1213 C1229 0.930 . S
H1214 C1230 0.931 . S
C1215 H1203 0.929 . S
C1215 C1209 1.390 . S
C1215 C1212 1.386 . S
C1216 C1211 1.490 . S
C1216 C1218 1.395 . S
C1216 C1219 1.403 . S
H1217 C1223 0.930 . S
C1218 H1204 0.930 . S
C1218 C1216 1.395 . S
C1218 C1221 1.403 . S
C1219 C1216 1.403 . S
C1219 C1220 1.524 . S
C1219 C1223 1.400 . S
C1220 H1205 0.960 . S
C1220 H1206 0.960 . S
C1220 H1207 0.960 . S
C1220 C1219 1.524 . S
C1221 C1218 1.403 . S
C1221 C1222 1.392 . S
C1221 C1225 1.495 . S
C1222 C1221 1.392 . S
C1222 C1223 1.385 . S
C1222 C1224 1.478 . S
C1223 H1217 0.930 . S
C1223 C1219 1.400 . S
C1223 C1222 1.385 . S
C1224 C1222 1.478 . S
C1224 C1226 1.381 . S
C1224 C1230 1.383 . S
C1225 C1221 1.495 . S
C1225 H1231 0.959 . S
C1225 H1232 0.961 . S
C1225 H1233 0.960 . S
C1226 C1224 1.381 . S
C1226 C1227 1.394 . S
C1226 H1234 0.930 . S
C1227 C1226 1.394 . S
C1227 C1228 1.383 . S
C1227 H1235 0.929 . S
C1228 C1227 1.383 . S
C1228 C1229 1.377 . S
C1229 H1213 0.930 . S
C1229 C1228 1.377 . S
C1229 C1230 1.379 . S
C1230 H1214 0.931 . S
C1230 C1224 1.383 . S
C1230 C1229 1.379 . S
H1231 C1225 0.959 . S
H1232 C1225 0.961 . S
H1233 C1225 0.960 . S
H1234 C1226 0.930 . S
H1235 C1227 0.929 . S
H1236 C1244 0.929 . S
H1237 C1246 0.930 . S
H1238 C1248 0.930 . S
H1239 C1251 0.929 . S
H1240 C1254 0.930 . S
H1241 C1256 0.960 . S
H1242 C1256 0.960 . S
H1243 C1256 0.960 . S
C1244 H1236 0.929 . S
C1244 C1245 1.377 . S
C1244 C1246 1.384 . S
C1245 C1244 1.377 . S
C1245 C1251 1.390 . S
C1246 H1237 0.930 . S
C1246 C1244 1.384 . S
C1246 C1247 1.372 . S
C1247 C1246 1.372 . S
C1247 C1248 1.400 . S
C1247 C1252 1.490 . S
C1248 H1238 0.930 . S
C1248 C1247 1.400 . S
C1248 C1251 1.386 . S
H1249 C1265 0.930 . S
H1250 C1266 0.931 . S
C1251 H1239 0.929 . S
C1251 C1245 1.390 . S
C1251 C1248 1.386 . S
C1252 C1247 1.490 . S
C1252 C1254 1.395 . S
C1252 C1255 1.403 . S
H1253 C1259 0.930 . S
C1254 H1240 0.930 . S
C1254 C1252 1.395 . S
C1254 C1257 1.403 . S
C1255 C1252 1.403 . S
C1255 C1256 1.524 . S
C1255 C1259 1.400 . S
C1256 H1241 0.960 . S
C1256 H1242 0.960 . S
C1256 H1243 0.960 . S
C1256 C1255 1.524 . S
C1257 C1254 1.403 . S
C1257 C1258 1.392 . S
C1257 C1261 1.495 . S
C1258 C1257 1.392 . S
C1258 C1259 1.385 . S
C1258 C1260 1.478 . S
C1259 H1253 0.930 . S
C1259 C1255 1.400 . S
C1259 C1258 1.385 . S
C1260 C1258 1.478 . S
C1260 C1262 1.381 . S
C1260 C1266 1.383 . S
C1261 C1257 1.495 . S
C1261 H1267 0.959 . S
C1261 H1268 0.961 . S
C1261 H1269 0.960 . S
C1262 C1260 1.381 . S
C1262 C1263 1.394 . S
C1262 H1270 0.930 . S
C1263 C1262 1.394 . S
C1263 C1264 1.383 . S
C1263 H1271 0.929 . S
C1264 C1263 1.383 . S
C1264 C1265 1.377 . S
C1265 H1249 0.930 . S
C1265 C1264 1.377 . S
C1265 C1266 1.379 . S
C1266 H1250 0.931 . S
C1266 C1260 1.383 . S
C1266 C1265 1.379 . S
H1267 C1261 0.959 . S
H1268 C1261 0.961 . S
H1269 C1261 0.960 . S
H1270 C1262 0.930 . S
H1271 C1263 0.929 . S
H1272 C1280 0.929 . S
H1273 C1282 0.930 . S
H1274 C1284 0.930 . S
H1275 C1287 0.929 . S
H1276 C1290 0.930 . S
H1277 C1292 0.960 . S
H1278 C1292 0.960 . S
H1279 C1292 0.960 . S
C1280 H1272 0.929 . S
C1280 C1281 1.377 . S
C1280 C1282 1.384 . S
C1281 C1280 1.377 . S
C1281 C1287 1.390 . S
C1282 H1273 0.930 . S
C1282 C1280 1.384 . S
C1282 C1283 1.372 . S
C1283 C1282 1.372 . S
C1283 C1284 1.400 . S
C1283 C1288 1.490 . S
C1284 H1274 0.930 . S
C1284 C1283 1.400 . S
C1284 C1287 1.386 . S
H1285 C1301 0.930 . S
H1286 C1302 0.931 . S
C1287 H1275 0.929 . S
C1287 C1281 1.390 . S
C1287 C1284 1.386 . S
C1288 C1283 1.490 . S
C1288 C1290 1.395 . S
C1288 C1291 1.403 . S
H1289 C1295 0.930 . S
C1290 H1276 0.930 . S
C1290 C1288 1.395 . S
C1290 C1293 1.403 . S
C1291 C1288 1.403 . S
C1291 C1292 1.524 . S
C1291 C1295 1.400 . S
C1292 H1277 0.960 . S
C1292 H1278 0.960 . S
C1292 H1279 0.960 . S
C1292 C1291 1.524 . S
C1293 C1290 1.403 . S
C1293 C1294 1.392 . S
C1293 C1297 1.495 . S
C1294 C1293 1.392 . S
C1294 C1295 1.385 . S
C1294 C1296 1.478 . S
C1295 H1289 0.930 . S
C1295 C1291 1.400 . S
C1295 C1294 1.385 . S
C1296 C1294 1.478 . S
C1296 C1298 1.381 . S
C1296 C1302 1.383 . S
C1297 C1293 1.495 . S
C1297 H1303 0.959 . S
C1297 H1304 0.961 . S
C1297 H1305 0.960 . S
C1298 C1296 1.381 . S
C1298 C1299 1.394 . S
C1298 H1306 0.930 . S
C1299 C1298 1.394 . S
C1299 C1300 1.383 . S
C1299 H1307 0.929 . S
C1300 C1299 1.383 . S
C1300 C1301 1.377 . S
C1301 H1285 0.930 . S
C1301 C1300 1.377 . S
C1301 C1302 1.379 . S
C1302 H1286 0.931 . S
C1302 C1296 1.383 . S
C1302 C1301 1.379 . S
H1303 C1297 0.959 . S
H1304 C1297 0.961 . S
H1305 C1297 0.960 . S
H1306 C1298 0.930 . S
H1307 C1299 0.929 . S
C453 C39 1.667 . S
C472 C327 1.495 . S
C489 C91 1.660 . S
C508 C348 1.508 . S
C544 C369 1.358 . S
C525 C128 1.487 . S
C580 C398 1.447 . S
C561 C188 1.485 . S
C616 C411 1.411 . S
C597 C250 1.529 . S
C652 C435 1.578 . S
C633 C304 1.659 . S
C669 C75 1.552 . S
C688 C379 1.397 . S
C705 C144 1.704 . S
C724 C393 1.587 . S
C760 C421 1.446 . S
C741 C198 1.601 . S
C796 C440 1.411 . S
C777 C234 1.515 . S
C813 C294 1.426 . S
C832 C337 1.319 . S
C868 C358 1.372 . S
C849 C29 1.506 . S
C904 C400 1.624 . S
C885 C38 1.686 . S
C921 C92 1.691 . S
C940 C414 1.550 . S
C976 C432 1.438 . S
C957 C135 1.513 . S
C993 C181 1.505 . S
C1012 C330 1.330 . S
C1029 C251 1.556 . S
C1048 C351 1.374 . S
C1065 C303 1.690 . S
C1084 C372 1.474 . S
C1101 C82 1.576 . S
C1120 C442 1.519 . S
C1156 C335 1.578 . S
C1137 C145 1.729 . S
C1173 C197 1.633 . S
C1192 C356 1.448 . S
C1209 C241 1.542 . S
C1228 C377 1.420 . S
C1245 C287 1.453 . S
C1264 C390 1.423 . S
C1281 C22 1.533 . S
C1300 C419 1.366 . S
