# Generated by pormake.
# Topology pth, (4,4)-cn, num edge types: 1
# Building blocks:
#     Node 0, Type 0, BuildingBlock: GALJAG_clean_sbu_0, # of connection points: 4
#     Node 1, Type 0, BuildingBlock: GALJAG_clean_sbu_0, # of connection points: 4
#     Node 2, Type 0, BuildingBlock: GALJAG_clean_sbu_0, # of connection points: 4
#     Node 3, Type 1, BuildingBlock: NAHDIM_clean_linker_0, # of connection points: 4
#     Node 4, Type 1, BuildingBlock: NAHDIM_clean_linker_0, # of connection points: 4
#     Node 5, Type 1, BuildingBlock: NAHDIM_clean_linker_0, # of connection points: 4
#     Edge 6, Type (0, 1), BuildingBlock: CIFDUS_clean_linker_0, # of connection points: 2
#     Edge 7, Type (0, 1), BuildingBlock: CIFDUS_clean_linker_0, # of connection points: 2
#     Edge 8, Type (0, 1), BuildingBlock: CIFDUS_clean_linker_0, # of connection points: 2
#     Edge 9, Type (0, 1), BuildingBlock: CIFDUS_clean_linker_0, # of connection points: 2
#     Edge 10, Type (0, 1), BuildingBlock: CIFDUS_clean_linker_0, # of connection points: 2
#     Edge 11, Type (0, 1), BuildingBlock: CIFDUS_clean_linker_0, # of connection points: 2
#     Edge 12, Type (0, 1), BuildingBlock: CIFDUS_clean_linker_0, # of connection points: 2
#     Edge 13, Type (0, 1), BuildingBlock: CIFDUS_clean_linker_0, # of connection points: 2
#     Edge 14, Type (0, 1), BuildingBlock: CIFDUS_clean_linker_0, # of connection points: 2
#     Edge 15, Type (0, 1), BuildingBlock: CIFDUS_clean_linker_0, # of connection points: 2
#     Edge 16, Type (0, 1), BuildingBlock: CIFDUS_clean_linker_0, # of connection points: 2
#     Edge 17, Type (0, 1), BuildingBlock: CIFDUS_clean_linker_0, # of connection points: 2
# Relax obj value: 0.024
# Max RMSD: 0.068
# Mean RMSD: 0.066
data_MOF--net-pth--node1-GALJAG_clean_sbu_0--node2-NAHDIM_clean_linker_0--edge1-CIFDUS_clean_linker_0
_symmetry_space_group_name_H-M    P1
_symmetry_Int_Tables_number       1
_symmetry_cell_setting            triclinic
loop_
_symmetry_equiv_pos_as_xyz
'x, y, z'
_cell_length_a     29.60379
_cell_length_b     29.58562
_cell_length_c     72.016353
_cell_angle_alpha  89.750413
_cell_angle_beta   90.93524
_cell_angle_gamma 119.95044
loop_
_atom_site_label
_atom_site_type_symbol
_atom_site_fract_x
_atom_site_fract_y
_atom_site_fract_z
_atom_type_partial_charge
In0 In 0.02622 0.04396 0.05127 0.0
O1 O 0.97908 0.07746 0.06408 0.0
O2 O 0.05739 0.10697 0.0735 0.0
C3 C 0.95067 0.96987 0.02982 0.0
C4 C 0.09321 0.11537 0.02733 0.0
C5 C 0.03681 0.97713 0.07399 0.0
O6 O 0.94274 -0.00021 0.04004 0.0
O7 O 0.99697 0.97846 0.03008 0.0
O8 O 0.06804 -0.0 0.0609 0.0
O9 O 0.00208 0.98946 0.0758 0.0
C10 C 0.01572 0.10848 0.07478 0.0
O11 O 0.10872 0.10047 0.04127 0.0
O12 O 0.04438 0.09332 0.0253 0.0
In13 In 0.999 0.02379 0.38919 0.0
O14 O 0.03895 0.10694 0.37732 0.0
O15 O 0.97367 0.04716 0.36279 0.0
C16 C 0.08842 0.04529 0.40735 0.0
C17 C 0.93001 0.01821 0.41453 0.0
C18 C 0.96869 0.93236 0.37193 0.0
O19 O 0.06313 0.06777 0.41135 0.0
O20 O 0.06995 0.01433 0.3938 0.0
O21 O 0.94079 0.93694 0.38406 0.0
O22 O 0.01029 0.97381 0.36831 0.0
C23 C 0.00735 0.09489 0.36376 0.0
O24 O 0.93702 0.04129 0.39922 0.0
O25 O 0.95627 0.9956 0.41686 0.0
In26 In 0.01888 0.0306 0.71563 0.0
O27 O 0.98553 0.94641 0.72518 0.0
O28 O 0.94622 0.98671 0.73318 0.0
C29 C 0.08181 0.02114 0.69102 0.0
C30 C 0.96629 0.06702 0.69532 0.0
C31 C 0.07718 0.08416 0.74556 0.0
O32 O 0.03512 0.98599 0.69327 0.0
O33 O 0.09586 0.06178 0.70053 0.0
O34 O 0.04907 0.09803 0.73664 0.0
O35 O 0.07533 0.04346 0.73941 0.0
C36 C 0.94787 0.94492 0.73368 0.0
O37 O 0.01087 0.09686 0.7023 0.0
O38 O 0.94933 0.01916 0.69807 0.0
C39 C 0.92035 0.63015 0.34386 0.0
C40 C 0.96284 0.67629 0.33312 0.0
C41 C 0.97636 0.65765 0.30147 0.0
C42 C 0.03097 0.68178 0.3015 0.0
C43 C 0.05629 0.66555 0.28914 0.0
C44 C 0.02631 0.62423 0.27659 0.0
C45 C 0.97135 0.60208 0.27578 0.0
C46 C 0.94724 0.61985 0.28807 0.0
C47 C 0.11495 0.69131 0.28994 0.0
C48 C 0.93771 0.55794 0.26258 0.0
C49 C 0.04892 0.28245 0.32006 0.0
C50 C 0.03976 0.31701 0.30742 0.0
C51 C 0.07832 0.40705 0.29725 0.0
C52 C 0.03144 0.40036 0.28943 0.0
C53 C 0.02994 0.44104 0.28 0.0
C54 C 0.0763 0.48955 0.27818 0.0
C55 C 0.12343 0.49692 0.28621 0.0
C56 C 0.12378 0.45548 0.29572 0.0
C57 C 0.97871 0.43204 0.27187 0.0
C58 C 0.17341 0.54828 0.28448 0.0
C59 C 0.06762 0.39526 0.16202 0.0
C60 C 0.02415 0.39125 0.17118 0.0
C61 C 0.02611 0.43502 0.1794 0.0
C62 C 0.07282 0.48377 0.17885 0.0
C63 C 0.11637 0.48829 0.1694 0.0
C64 C 0.11305 0.44392 0.16102 0.0
C65 C 0.97829 0.4288 0.18898 0.0
C66 C 0.16662 0.53972 0.16851 0.0
C67 C 0.94684 0.68088 0.11921 0.0
C68 C 0.97278 0.72451 0.13379 0.0
C69 C 0.0281 0.69961 0.15204 0.0
C70 C 0.98725 0.6561 0.16079 0.0
C71 C 0.99762 0.62464 0.17273 0.0
C72 C 0.04986 0.63745 0.17625 0.0
C73 C 0.09103 0.68177 0.16778 0.0
C74 C 0.07952 0.71217 0.15574 0.0
C75 C 0.95267 0.57711 0.18131 0.0
C76 C 0.14715 0.6965 0.17122 0.0
C77 C 0.05109 0.59911 0.26632 0.0
C78 C 0.0609 0.56409 0.27625 0.0
C79 C 0.07515 0.53155 0.26723 0.0
C80 C 0.08011 0.53393 0.24773 0.0
C81 C 0.09186 0.49988 0.23814 0.0
C82 C 0.09188 0.49911 0.21886 0.0
C83 C 0.08077 0.53278 0.20845 0.0
C84 C 0.07613 0.52904 0.18889 0.0
C85 C 0.06746 0.56457 0.17887 0.0
C86 C 0.06129 0.60284 0.18792 0.0
C87 C 0.06274 0.60525 0.20756 0.0
C88 C 0.05362 0.64114 0.2172 0.0
C89 C 0.0507 0.63994 0.23652 0.0
C90 C 0.058 0.60364 0.24688 0.0
C91 C 0.07116 0.56987 0.23751 0.0
C92 C 0.0724 0.56989 0.21783 0.0
C93 C 0.02923 0.27787 0.17364 0.0
C94 C 0.02843 0.30171 0.15476 0.0
O95 O 0.95066 0.66937 0.31431 0.0
O96 O 0.02002 0.73004 0.13975 0.0
O97 O 0.0677 0.35352 0.15414 0.0
O98 O 0.08092 0.36777 0.30624 0.0
H99 H 0.99937 0.67539 0.33626 0.0
H100 H 0.92197 0.5943 0.34065 0.0
H101 H 0.88088 0.62279 0.33982 0.0
H102 H 0.92653 0.63742 0.35907 0.0
H103 H 0.05386 0.71279 0.31131 0.0
H104 H 0.90517 0.60232 0.28792 0.0
H105 H 0.12625 0.66459 0.29675 0.0
H106 H 0.13299 0.7285 0.29792 0.0
H107 H 0.13092 0.69921 0.2757 0.0
H108 H 0.89544 0.54169 0.26502 0.0
H109 H 0.9469 0.52601 0.26398 0.0
H110 H 0.94587 0.57219 0.24807 0.0
H111 H 0.02274 0.29972 0.29353 0.0
H112 H 0.99404 0.26488 0.34128 0.0
H113 H 0.09229 0.30264 0.32283 0.0
H114 H 0.04827 0.25163 0.31075 0.0
H115 H 0.99567 0.36339 0.29056 0.0
H116 H 0.15974 0.46053 0.30181 0.0
H117 H 0.98231 0.43948 0.2567 0.0
H118 H 0.96846 0.45978 0.27824 0.0
H119 H 0.94627 0.39171 0.27423 0.0
H120 H 0.20656 0.5484 0.29198 0.0
H121 H 0.16807 0.58022 0.29006 0.0
H122 H 0.18332 0.5567 0.26959 0.0
H123 H 0.98986 0.29893 0.15257 0.0
H124 H 0.98852 0.35419 0.17217 0.0
H125 H 0.14634 0.44683 0.15388 0.0
H126 H 0.98482 0.43091 0.20424 0.0
H127 H 0.94295 0.39089 0.1856 0.0
H128 H 0.97079 0.46078 0.18498 0.0
H129 H 0.19761 0.53641 0.1612 0.0
H130 H 0.1807 0.5548 0.18278 0.0
H131 H 0.15958 0.56876 0.16116 0.0
H132 H 0.94644 0.71501 0.14582 0.0
H133 H 0.97275 0.68906 0.10715 0.0
H134 H 0.90944 0.6773 0.11424 0.0
H135 H 0.9382 0.64284 0.12519 0.0
H136 H 0.94716 0.64581 0.15823 0.0
H137 H 0.11077 0.74581 0.14897 0.0
H138 H 0.95489 0.58138 0.19665 0.0
H139 H 0.95514 0.54182 0.17796 0.0
H140 H 0.9142 0.5709 0.1764 0.0
H141 H 0.17481 0.73453 0.16485 0.0
H142 H 0.1541 0.66592 0.16533 0.0
H143 H 0.15547 0.69865 0.18639 0.0
H144 H 0.05426 0.55982 0.2911 0.0
H145 H 0.09997 0.47255 0.24542 0.0
H146 H 0.1001 0.47131 0.2122 0.0
H147 H 0.0635 0.56117 0.16386 0.0
H148 H 0.04711 0.66948 0.20989 0.0
H149 H 0.04208 0.66736 0.24326 0.0
H150 H 0.99848 0.23608 0.17397 0.0
H151 H 0.02166 0.29839 0.18497 0.0
H152 H 0.06778 0.28106 0.17636 0.0
C153 C 0.30912 0.94104 0.67408 0.0
C154 C 0.31917 0.98565 0.66087 0.0
C155 C 0.35413 0.98821 0.63042 0.0
C156 C 0.38703 0.04215 0.62843 0.0
C157 C 0.42996 0.06185 0.61663 0.0
C158 C 0.44032 0.02674 0.60681 0.0
C159 C 0.40598 0.97229 0.60832 0.0
C160 C 0.36266 0.95379 0.61989 0.0
C161 C 0.46482 0.1201 0.61495 0.0
C162 C 0.41601 0.9336 0.59824 0.0
C163 C 0.75653 0.17762 0.67939 0.0
C164 C 0.74618 0.13475 0.6653 0.0
C165 C 0.71433 0.13574 0.63415 0.0
C166 C 0.68269 0.08198 0.63101 0.0
C167 C 0.64098 0.06294 0.61817 0.0
C168 C 0.63046 0.09849 0.60848 0.0
C169 C 0.66363 0.15288 0.61115 0.0
C170 C 0.70586 0.17077 0.62373 0.0
C171 C 0.60742 0.00484 0.61531 0.0
C172 C 0.65333 0.19209 0.60132 0.0
C173 C 0.72857 0.12724 0.49117 0.0
C174 C 0.69537 0.07512 0.49622 0.0
C175 C 0.64716 0.05995 0.5044 0.0
C176 C 0.63215 0.09777 0.50761 0.0
C177 C 0.66446 0.14974 0.50166 0.0
C178 C 0.71208 0.16361 0.4933 0.0
C179 C 0.61272 0.00377 0.50994 0.0
C180 C 0.6493 0.19089 0.50454 0.0
C181 C 0.2467 0.02027 0.50198 0.0
C182 C 0.28373 0.06108 0.48822 0.0
C183 C 0.35982 0.04997 0.48868 0.0
C184 C 0.36726 0.00693 0.48948 0.0
C185 C 0.41118 0.01028 0.49857 0.0
C186 C 0.44884 0.05824 0.50664 0.0
C187 C 0.44276 0.10261 0.50499 0.0
C188 C 0.39825 0.09799 0.49601 0.0
C189 C 0.4167 0.96239 0.50002 0.0
C190 C 0.48296 0.15477 0.51295 0.0
C191 C 0.48891 0.0467 0.59603 0.0
C192 C 0.53532 0.06186 0.60593 0.0
C193 C 0.5824 0.07896 0.59682 0.0
C194 C 0.5831 0.07922 0.5772 0.0
C195 C 0.62905 0.09306 0.56754 0.0
C196 C 0.6295 0.09417 0.54822 0.0
C197 C 0.58408 0.08184 0.53782 0.0
C198 C 0.58432 0.08375 0.51818 0.0
C199 C 0.53923 0.07411 0.50834 0.0
C200 C 0.4934 0.06185 0.51761 0.0
C201 C 0.49162 0.05704 0.53717 0.0
C202 C 0.44546 0.04251 0.54685 0.0
C203 C 0.44432 0.03869 0.56612 0.0
C204 C 0.48948 0.05003 0.57645 0.0
C205 C 0.53661 0.0655 0.56699 0.0
C206 C 0.53736 0.06781 0.54731 0.0
C207 C 0.86099 0.17115 0.49627 0.0
C208 C 0.81014 0.12556 0.48865 0.0
O209 O 0.31463 0.96842 0.6427 0.0
O210 O 0.31555 0.04423 0.48058 0.0
O211 O 0.77643 0.14381 0.48402 0.0
O212 O 0.75229 0.15474 0.6475 0.0
H213 H 0.35971 0.01754 0.66399 0.0
H214 H 0.33867 0.92897 0.67193 0.0
H215 H 0.26982 0.90668 0.67151 0.0
H216 H 0.31212 0.95389 0.68874 0.0
H217 H 0.37929 0.06876 0.63621 0.0
H218 H 0.33655 0.91222 0.62142 0.0
H219 H 0.50261 0.13206 0.62214 0.0
H220 H 0.44726 0.14191 0.62121 0.0
H221 H 0.47307 0.1313 0.60013 0.0
H222 H 0.38799 0.89265 0.60211 0.0
H223 H 0.45621 0.94159 0.60137 0.0
H224 H 0.41281 0.93778 0.58303 0.0
H225 H 0.70497 0.10363 0.66749 0.0
H226 H 0.7537 0.16285 0.69379 0.0
H227 H 0.72694 0.18996 0.67748 0.0
H228 H 0.79568 0.2124 0.67752 0.0
H229 H 0.69034 0.05493 0.63873 0.0
H230 H 0.73096 0.21222 0.62617 0.0
H231 H 0.56906 0.99111 0.62186 0.0
H232 H 0.62548 0.98307 0.62152 0.0
H233 H 0.60023 0.99544 0.60025 0.0
H234 H 0.67996 0.23262 0.60622 0.0
H235 H 0.61245 0.18257 0.60351 0.0
H236 H 0.65851 0.19039 0.58617 0.0
H237 H 0.79394 0.09594 0.49988 0.0
H238 H 0.70689 0.04623 0.49376 0.0
H239 H 0.73757 0.20347 0.48894 0.0
H240 H 0.61187 0.00089 0.52532 0.0
H241 H 0.62671 0.97803 0.5044 0.0
H242 H 0.57212 0.98936 0.5049 0.0
H243 H 0.68026 0.2302 0.50016 0.0
H244 H 0.64087 0.19262 0.51941 0.0
H245 H 0.61318 0.18041 0.49642 0.0
H246 H 0.30739 0.09843 0.49588 0.0
H247 H 0.22096 0.03315 0.50829 0.0
H248 H 0.26949 0.01494 0.51332 0.0
H249 H 0.22216 0.98214 0.49489 0.0
H250 H 0.33767 0.97023 0.48349 0.0
H251 H 0.39378 0.132 0.49463 0.0
H252 H 0.41747 0.95248 0.51487 0.0
H253 H 0.45424 0.97048 0.49395 0.0
H254 H 0.38434 0.92814 0.49279 0.0
H255 H 0.47426 0.18625 0.50941 0.0
H256 H 0.52216 0.16571 0.50769 0.0
H257 H 0.4845 0.15197 0.52831 0.0
H258 H 0.53483 0.06067 0.62099 0.0
H259 H 0.66516 0.1031 0.57483 0.0
H260 H 0.66612 0.10535 0.54157 0.0
H261 H 0.54018 0.07737 0.49332 0.0
H262 H 0.40957 0.03361 0.53963 0.0
H263 H 0.40773 0.02729 0.57284 0.0
H264 H 0.87953 0.20228 0.48566 0.0
H265 H 0.88866 0.15773 0.50044 0.0
H266 H 0.85287 0.18792 0.5087 0.0
C267 C 0.68452 0.65448 0.76127 0.0
C268 C 0.69401 0.6989 0.77451 0.0
C269 C 0.66856 0.6661 0.80579 0.0
C270 C 0.63416 0.68432 0.80975 0.0
C271 C 0.59416 0.65834 0.82258 0.0
C272 C 0.58885 0.61353 0.83169 0.0
C273 C 0.62557 0.59711 0.82859 0.0
C274 C 0.66544 0.62409 0.81577 0.0
C275 C 0.55654 0.67771 0.82598 0.0
C276 C 0.62139 0.54982 0.83823 0.0
C277 C 0.23038 0.25969 0.78914 0.0
C278 C 0.27487 0.29318 0.8017 0.0
C279 C 0.32848 0.38398 0.8116 0.0
C280 C 0.36123 0.37471 0.82344 0.0
C281 C 0.40194 0.4155 0.83353 0.0
C282 C 0.40894 0.46638 0.83235 0.0
C283 C 0.37555 0.47576 0.82071 0.0
C284 C 0.33601 0.43443 0.81034 0.0
C285 C 0.43771 0.40406 0.84533 0.0
C286 C 0.38169 0.52942 0.8192 0.0
C287 C 0.31779 0.41927 0.95386 0.0
C288 C 0.34963 0.40158 0.9466 0.0
C289 C 0.39294 0.43462 0.93588 0.0
C290 C 0.40403 0.4863 0.93234 0.0
C291 C 0.37183 0.50423 0.9398 0.0
C292 C 0.32925 0.47052 0.95068 0.0
C293 C 0.42708 0.41453 0.92851 0.0
C294 C 0.38271 0.55912 0.93643 0.0
C295 C 0.73023 0.66658 0.99062 0.0
C296 C 0.75279 0.70779 0.97526 0.0
C297 C 0.67487 0.68668 0.95605 0.0
C298 C 0.66811 0.63995 0.94844 0.0
C299 C 0.625 0.60872 0.93689 0.0
C300 C 0.5884 0.6249 0.93265 0.0
C301 C 0.59576 0.67245 0.93992 0.0
C302 C 0.63894 0.70267 0.95156 0.0
C303 C 0.61804 0.55795 0.92945 0.0
C304 C 0.55757 0.69092 0.93563 0.0
C305 C 0.54204 0.58092 0.84292 0.0
C306 C 0.49757 0.54307 0.8335 0.0
C307 C 0.45213 0.5097 0.84298 0.0
C308 C 0.45034 0.51474 0.86242 0.0
C309 C 0.40461 0.48308 0.87231 0.0
C310 C 0.40412 0.48607 0.89156 0.0
C311 C 0.44942 0.52062 0.90165 0.0
C312 C 0.45011 0.522 0.92127 0.0
C313 C 0.49577 0.55681 0.93085 0.0
C314 C 0.54109 0.59076 0.92138 0.0
C315 C 0.54118 0.59026 0.90175 0.0
C316 C 0.58597 0.6242 0.89176 0.0
C317 C 0.58616 0.6219 0.87245 0.0
C318 C 0.54168 0.58536 0.86245 0.0
C319 C 0.49567 0.55184 0.87222 0.0
C320 C 0.49533 0.55449 0.89188 0.0
C321 C 0.19741 0.38782 0.9619 0.0
C322 C 0.22661 0.3581 0.95849 0.0
O323 O 0.7045 0.68776 0.79225 0.0
O324 O 0.71469 0.7172 0.96794 0.0
O325 O 0.27767 0.38755 0.96482 0.0
O326 O 0.28977 0.34566 0.8011 0.0
H327 H 0.65743 0.70087 0.7741 0.0
H328 H 0.64874 0.61817 0.76536 0.0
H329 H 0.71757 0.64677 0.76175 0.0
H330 H 0.67885 0.66414 0.7468 0.0
H331 H 0.63817 0.71847 0.80266 0.0
H332 H 0.69291 0.61104 0.81286 0.0
H333 H 0.51738 0.64884 0.82042 0.0
H334 H 0.56894 0.71593 0.81925 0.0
H335 H 0.55283 0.6816 0.84113 0.0
H336 H 0.65388 0.54297 0.83469 0.0
H337 H 0.58391 0.51472 0.83426 0.0
H338 H 0.62141 0.55468 0.85351 0.0
H339 H 0.30824 0.28581 0.80085 0.0
H340 H 0.24674 0.24354 0.77874 0.0
H341 H 0.2266 0.28658 0.77888 0.0
H342 H 0.1704 0.21169 0.8075 0.0
H343 H 0.35581 0.33591 0.82479 0.0
H344 H 0.31055 0.44128 0.80123 0.0
H345 H 0.4294 0.4054 0.86023 0.0
H346 H 0.47912 0.43389 0.84306 0.0
H347 H 0.43256 0.36495 0.84232 0.0
H348 H 0.34908 0.52908 0.81123 0.0
H349 H 0.41875 0.55587 0.81214 0.0
H350 H 0.38383 0.54571 0.83326 0.0
H351 H 0.22583 0.35073 0.94327 0.0
H352 H 0.34063 0.36198 0.94947 0.0
H353 H 0.30519 0.48425 0.95687 0.0
H354 H 0.42441 0.41283 0.91312 0.0
H355 H 0.41565 0.37496 0.9338 0.0
H356 H 0.46846 0.44157 0.93246 0.0
H357 H 0.35115 0.56541 0.94166 0.0
H358 H 0.38742 0.56797 0.92135 0.0
H359 H 0.41983 0.58712 0.94355 0.0
H360 H 0.76853 0.69398 0.96407 0.0
H361 H 0.71367 0.67938 0.00182 0.0
H362 H 0.76116 0.6599 0.99668 0.0
H363 H 0.69881 0.62886 0.98499 0.0
H364 H 0.69575 0.62712 0.95159 0.0
H365 H 0.64456 0.73883 0.95743 0.0
H366 H 0.6188 0.55908 0.91405 0.0
H367 H 0.57946 0.52517 0.93353 0.0
H368 H 0.64889 0.54989 0.9346 0.0
H369 H 0.57122 0.73089 0.94103 0.0
H370 H 0.51949 0.66384 0.94196 0.0
H371 H 0.55103 0.69051 0.92039 0.0
H372 H 0.4988 0.53865 0.81859 0.0
H373 H 0.3688 0.45532 0.86527 0.0
H374 H 0.36795 0.4604 0.89846 0.0
H375 H 0.49621 0.5571 0.94592 0.0
H376 H 0.62149 0.65264 0.89879 0.0
H377 H 0.62181 0.64861 0.86547 0.0
H378 H 0.19936 0.39778 0.97686 0.0
H379 H 0.15586 0.3641 0.95748 0.0
H380 H 0.21482 0.42432 0.95369 0.0
H381 H 0.09126 0.18266 0.09679 0.0
H382 H 0.92736 0.11103 0.08291 0.0
H383 H 0.91726 0.16529 0.1061 0.0
H384 H 0.95452 0.23119 0.13092 0.0
H385 H 0.11838 0.30318 0.1447 0.0
H386 H 0.12908 0.25054 0.12093 0.0
C387 C 0.05336 0.17907 0.0988 0.0
C388 C 0.01007 0.14282 0.08821 0.0
C389 C 0.04789 0.2104 0.11212 0.0
C390 C 0.96127 0.1387 0.09089 0.0
C391 C 0.95546 0.16963 0.10417 0.0
C392 C 0.99265 0.2357 0.12857 0.0
C393 C 0.03573 0.27142 0.13937 0.0
C394 C 0.99843 0.20536 0.11492 0.0
C395 C 0.08481 0.27634 0.13639 0.0
C396 C 0.09087 0.24619 0.12286 0.0
H397 H 0.87945 0.07304 0.41297 0.0
H398 H 0.91278 0.97707 0.44953 0.0
H399 H 0.87346 0.99795 0.47535 0.0
H400 H 0.83779 0.0507 0.48812 0.0
H401 H 0.81054 0.15106 0.45167 0.0
H402 H 0.83899 0.12104 0.42521 0.0
C403 C 0.87736 0.05597 0.42652 0.0
C404 C 0.89919 0.02375 0.42937 0.0
C405 C 0.85605 0.06924 0.44134 0.0
C406 C 0.89625 0.002 0.44699 0.0
C407 C 0.87401 0.01414 0.46177 0.0
C408 C 0.83717 0.06511 0.4743 0.0
C409 C 0.82122 0.10232 0.47184 0.0
C410 C 0.855 0.04877 0.4592 0.0
C411 C 0.8217 0.12172 0.45393 0.0
C412 C 0.83827 0.1048 0.43879 0.0
H413 H 0.85223 0.92447 0.74432 0.0
H414 H 0.95337 0.85858 0.74326 0.0
H415 H 0.88514 0.77798 0.75703 0.0
H416 H 0.79557 0.72516 0.76826 0.0
H417 H 0.69274 0.78919 0.76725 0.0
H418 H 0.76304 0.87194 0.75572 0.0
C419 C 0.85942 0.89257 0.74724 0.0
C420 C 0.90764 0.89733 0.7428 0.0
C421 C 0.81968 0.84602 0.75474 0.0
C422 C 0.9164 0.85566 0.74651 0.0
C423 C 0.87745 0.80963 0.75438 0.0
C424 C 0.7885 0.75712 0.76539 0.0
C425 C 0.73868 0.75066 0.76822 0.0
C426 C 0.82872 0.80414 0.75834 0.0
C427 C 0.73051 0.79293 0.76492 0.0
C428 C 0.77067 0.84023 0.75833 0.0
H429 H 0.9712 0.92309 0.10164 0.0
H430 H 0.10195 0.93673 0.07132 0.0
H431 H 0.09527 0.86114 0.08785 0.0
H432 H 0.04854 0.78799 0.10951 0.0
H433 H 0.91626 0.77362 0.13893 0.0
H434 H 0.92711 0.85275 0.12407 0.0
C435 C 0.99864 0.90991 0.09877 0.0
C436 C 0.03697 0.93536 0.08525 0.0
C437 C 0.99403 0.86615 0.10807 0.0
C438 C 0.07218 0.91781 0.08169 0.0
C439 C 0.06821 0.8745 0.09107 0.0
C440 C 0.02259 0.80268 0.11282 0.0
C441 C 0.98205 0.77543 0.12547 0.0
C442 C 0.02876 0.8479 0.10408 0.0
C443 C 0.94807 0.79426 0.12941 0.0
C444 C 0.95419 0.83938 0.12089 0.0
H445 H 0.13478 0.10774 0.43751 0.0
H446 H 0.13839 0.99 0.40342 0.0
H447 H 0.20078 0.98597 0.42489 0.0
H448 H 0.24869 0.01051 0.45459 0.0
H449 H 0.24664 0.12899 0.48864 0.0
H450 H 0.18905 0.1379 0.46601 0.0
C451 C 0.14988 0.08183 0.43466 0.0
C452 C 0.13177 0.04905 0.41897 0.0
C453 C 0.18567 0.07948 0.44713 0.0
C454 C 0.15169 0.01568 0.41541 0.0
C455 C 0.18721 0.01312 0.42773 0.0
C456 C 0.23656 0.03906 0.45688 0.0
C457 C 0.25258 0.06967 0.47314 0.0
C458 C 0.20365 0.04406 0.44381 0.0
C459 C 0.23537 0.10555 0.47609 0.0
C460 C 0.20236 0.11053 0.4632 0.0
H461 H 0.0848 0.17063 0.7615 0.0
H462 H 0.14184 0.06116 0.76427 0.0
H463 H 0.20209 0.10478 0.78978 0.0
H464 H 0.25745 0.18964 0.81525 0.0
H465 H 0.18993 0.31994 0.81408 0.0
H466 H 0.11555 0.25617 0.78533 0.0
C467 C 0.11034 0.15853 0.76795 0.0
C468 C 0.11093 0.11371 0.76158 0.0
C469 C 0.14273 0.18819 0.78244 0.0
C470 C 0.14333 0.09594 0.76974 0.0
C471 C 0.17841 0.12059 0.78451 0.0
C472 C 0.22929 0.20052 0.81055 0.0
C473 C 0.23788 0.26608 0.81538 0.0
C474 C 0.18345 0.1654 0.79217 0.0
C475 C 0.18665 0.28351 0.80967 0.0
C476 C 0.14228 0.24491 0.79124 0.0
H477 H 0.86283 0.01195 0.68781 0.0
H478 H 0.99707 0.16599 0.68343 0.0
H479 H 0.94129 0.19972 0.67196 0.0
H480 H 0.85344 0.18637 0.66538 0.0
H481 H 0.71916 0.03345 0.67233 0.0
H482 H 0.77589 0.99807 0.68025 0.0
C483 C 0.88 0.05278 0.6841 0.0
C484 C 0.93394 0.08647 0.68646 0.0
C485 C 0.84758 0.0721 0.67808 0.0
C486 C 0.95559 0.13933 0.68175 0.0
C487 C 0.92372 0.15862 0.67524 0.0
C488 C 0.83669 0.14534 0.66865 0.0
C489 C 0.78213 0.11278 0.66864 0.0
C490 C 0.86951 0.12557 0.67373 0.0
C491 C 0.76099 0.05943 0.67248 0.0
C492 C 0.79338 0.0392 0.67703 0.0
H493 H 0.9592 0.90087 0.00758 0.0
H494 H 0.84728 0.93974 0.02884 0.0
H495 H 0.77646 0.86296 0.01346 0.0
H496 H 0.74609 0.78282 0.99514 0.0
H497 H 0.85779 0.74363 0.97403 0.0
H498 H 0.9291 0.82244 0.98832 0.0
C499 C 0.91935 0.89278 0.00872 0.0
C500 C 0.90845 0.92587 0.01934 0.0
C501 C 0.87886 0.84845 -5e-05 0.0
C502 C 0.85666 0.91488 0.02071 0.0
C503 C 0.81615 0.87092 0.01198 0.0
C504 C 0.78613 0.792 0.99346 0.0
C505 C 0.79682 0.75804 0.98325 0.0
C506 C 0.82677 0.8372 0.00172 0.0
C507 C 0.84875 0.76965 0.98157 0.0
C508 C 0.88944 0.81457 0.98977 0.0
H509 H 0.03751 0.90876 0.35753 0.0
H510 H 0.87391 0.84288 0.3687 0.0
H511 H 0.85662 0.75824 0.35654 0.0
H512 H 0.88899 0.70307 0.34364 0.0
H513 H 0.05424 0.76818 0.33554 0.0
H514 H 0.06983 0.85363 0.34525 0.0
C515 C 0.99796 0.87597 0.35715 0.0
C516 C 0.95693 0.88189 0.36386 0.0
C517 C 0.98875 0.82742 0.35076 0.0
C518 C 0.90604 0.83905 0.36357 0.0
C519 C 0.89623 0.79079 0.35664 0.0
C520 C 0.92852 0.73559 0.34422 0.0
C521 C 0.97064 0.72867 0.33931 0.0
C522 C 0.93745 0.78439 0.35041 0.0
C523 C 0.02127 0.77211 0.33953 0.0
C524 C 0.03024 0.82102 0.34509 0.0
H525 H 0.18662 0.08356 0.69006 0.0
H526 H 0.0607 0.93835 0.66864 0.0
H527 H 0.12356 0.91702 0.65556 0.0
H528 H 0.21418 0.93537 0.65328 0.0
H529 H 0.33927 0.07819 0.67648 0.0
H530 H 0.27701 0.10497 0.68568 0.0
C531 C 0.17291 0.04769 0.68223 0.0
C532 C 0.11913 0.01243 0.68041 0.0
C533 C 0.20919 0.03503 0.67524 0.0
C534 C 0.10195 0.96605 0.67028 0.0
C535 C 0.13786 0.95373 0.66287 0.0
C536 C 0.2277 0.97265 0.66012 0.0
C537 C 0.28114 0.00468 0.66427 0.0
C538 C 0.19154 0.98722 0.66575 0.0
C539 C 0.29832 0.05287 0.67316 0.0
C540 C 0.26275 0.06813 0.67845 0.0
H541 H 0.07271 0.13698 0.99273 0.0
H542 H 0.19269 0.19187 0.03533 0.0
H543 H 0.24609 0.27116 0.0175 0.0
H544 H 0.25479 0.32787 0.99123 0.0
H545 H 0.1366 0.27123 0.94786 0.0
H546 H 0.08606 0.18946 0.96468 0.0
C547 C 0.11087 0.16604 0.99797 0.0
C548 C 0.12862 0.15898 0.01536 0.0
C549 C 0.14132 0.21131 0.98763 0.0
C550 C 0.17828 0.19651 0.02195 0.0
C551 C 0.20864 0.24196 0.01182 0.0
C552 C 0.21847 0.29744 0.98524 0.0
C553 C 0.19942 0.30578 0.96825 0.0
C554 C 0.19001 0.25027 0.99484 0.0
C555 C 0.15202 0.26571 0.96088 0.0
C556 C 0.12313 0.21905 0.97049 0.0
H557 H 0.06475 0.20033 0.36691 0.0
H558 H 0.94372 0.07333 0.33433 0.0
H559 H 0.9214 0.12827 0.31609 0.0
H560 H 0.93099 0.22604 0.30597 0.0
H561 H 0.06994 0.37919 0.34517 0.0
H562 H 0.09099 0.30512 0.36455 0.0
C563 C 0.03604 0.18745 0.35573 0.0
C564 C 0.00456 0.13377 0.35151 0.0
C565 C 0.02811 0.22427 0.34661 0.0
C566 C 0.96598 0.11488 0.33709 0.0
C567 C 0.95232 0.14596 0.32645 0.0
C568 C 0.95889 0.24052 0.3174 0.0
C569 C 0.00437 0.31132 0.32115 0.0
C570 C 0.97699 0.19884 0.32955 0.0
C571 C 0.04741 0.33782 0.34223 0.0
C572 C 0.06205 0.29198 0.35348 0.0
loop_
_geom_bond_atom_site_label_1
_geom_bond_atom_site_label_2
_geom_bond_distance
_geom_bond_site_symmetry_2
_ccdc_geom_bond_type
In0 O1 2.294 1_455 S
In0 O2 2.326 . S
In0 O6 2.266 1_445 S
In0 O7 2.326 1_445 S
In0 O8 2.266 1_545 S
In0 O9 2.326 1_445 S
In0 O11 2.294 . S
In0 O12 2.326 . S
O1 In0 2.294 1_655 S
O1 C10 1.240 1_655 S
O2 In0 2.326 . S
O2 C10 1.252 . S
C3 O6 1.252 . S
C3 O7 1.260 . S
C4 O11 1.240 . S
C4 O12 1.252 . S
C5 O8 1.252 . S
C5 O9 1.260 1_455 S
O6 In0 2.266 1_665 S
O6 C3 1.252 . S
O7 In0 2.326 1_665 S
O7 C3 1.260 . S
O8 In0 2.266 1_565 S
O8 C5 1.252 . S
O9 In0 2.326 1_665 S
O9 C5 1.260 1_655 S
C10 O1 1.240 1_455 S
C10 O2 1.252 . S
O11 In0 2.294 . S
O11 C4 1.240 . S
O12 In0 2.326 . S
O12 C4 1.252 . S
In13 O14 2.294 . S
In13 O15 2.326 1_455 S
In13 O19 2.266 . S
In13 O20 2.326 . S
In13 O21 2.266 1_445 S
In13 O22 2.326 . S
In13 O24 2.294 1_455 S
In13 O25 2.326 1_455 S
O14 In13 2.294 . S
O14 C23 1.240 . S
O15 In13 2.326 1_655 S
O15 C23 1.252 1_655 S
C16 O19 1.252 . S
C16 O20 1.260 . S
C17 O24 1.240 . S
C17 O25 1.252 . S
C18 O21 1.252 1_455 S
C18 O22 1.260 1_565 S
O19 In13 2.266 . S
O19 C16 1.252 . S
O20 In13 2.326 . S
O20 C16 1.260 . S
O21 In13 2.266 1_665 S
O21 C18 1.252 1_655 S
O22 In13 2.326 . S
O22 C18 1.260 1_545 S
C23 O14 1.240 . S
C23 O15 1.252 1_455 S
O24 In13 2.294 1_655 S
O24 C17 1.240 . S
O25 In13 2.326 1_655 S
O25 C17 1.252 . S
In26 O27 2.294 1_445 S
In26 O28 2.326 1_455 S
In26 O32 2.266 . S
In26 O33 2.326 . S
In26 O34 2.266 . S
In26 O35 2.326 . S
In26 O37 2.294 1_455 S
In26 O38 2.326 1_445 S
O27 In26 2.294 1_665 S
O27 C36 1.240 . S
O28 In26 2.326 1_655 S
O28 C36 1.252 1_545 S
C29 O32 1.252 . S
C29 O33 1.260 . S
C30 O37 1.240 . S
C30 O38 1.252 1_545 S
C31 O34 1.252 . S
C31 O35 1.260 . S
O32 In26 2.266 . S
O32 C29 1.252 . S
O33 In26 2.326 . S
O33 C29 1.260 . S
O34 In26 2.266 . S
O34 C31 1.252 . S
O35 In26 2.326 . S
O35 C31 1.260 . S
C36 O27 1.240 . S
C36 O28 1.252 1_565 S
O37 In26 2.294 1_655 S
O37 C30 1.240 . S
O38 In26 2.326 1_665 S
O38 C30 1.252 1_565 S
C39 C40 1.560 . S
C39 H100 0.959 . S
C39 H101 0.959 . S
C39 H102 0.960 . S
C40 C39 1.560 . S
C40 O95 1.426 . S
C40 H99 0.980 1_655 S
C41 C42 1.407 1_655 S
C41 C46 1.418 . S
C41 O95 1.334 . S
C42 C41 1.407 1_455 S
C42 C43 1.360 . S
C42 H103 0.929 . S
C43 C42 1.360 . S
C43 C44 1.401 . S
C43 C47 1.527 . S
C44 C43 1.401 . S
C44 C45 1.405 1_455 S
C44 C77 1.587 . S
C45 C44 1.405 1_655 S
C45 C46 1.332 . S
C45 C48 1.496 . S
C46 C41 1.418 . S
C46 C45 1.332 . S
C46 H104 0.929 . S
C47 C43 1.527 . S
C47 H105 0.959 . S
C47 H106 0.961 . S
C47 H107 0.961 . S
C48 C45 1.496 . S
C48 H108 0.960 . S
C48 H109 0.960 . S
C48 H110 0.961 . S
C49 C50 1.517 . S
C49 H112 0.961 . S
C49 H113 0.960 . S
C49 H114 0.959 . S
C50 C49 1.517 . S
C50 O98 1.468 . S
C50 H111 0.980 . S
C51 C52 1.349 . S
C51 C56 1.367 . S
C51 O98 1.408 . S
C52 C51 1.349 . S
C52 C53 1.407 . S
C52 H115 0.930 . S
C53 C52 1.407 . S
C53 C54 1.449 . S
C53 C57 1.535 1_455 S
C54 C53 1.449 . S
C54 C55 1.384 . S
C54 C79 1.553 . S
C55 C54 1.384 . S
C55 C56 1.364 . S
C55 C58 1.450 . S
C56 C51 1.367 . S
C56 C55 1.364 . S
C56 H116 0.931 . S
C57 C53 1.535 1_655 S
C57 H117 0.959 . S
C57 H118 0.961 . S
C57 H119 0.959 . S
C58 C55 1.450 . S
C58 H120 0.960 . S
C58 H121 0.960 . S
C58 H122 0.960 . S
C59 C60 1.309 . S
C59 C64 1.304 . S
C59 O97 1.435 . S
C60 C59 1.309 . S
C60 C61 1.476 . S
C60 H124 0.930 1_455 S
C61 C60 1.476 . S
C61 C62 1.400 . S
C61 C65 1.567 1_455 S
C62 C61 1.400 . S
C62 C63 1.373 . S
C62 C84 1.432 . S
C63 C62 1.373 . S
C63 C64 1.339 . S
C63 C66 1.530 . S
C64 C59 1.304 . S
C64 C63 1.339 . S
C64 H125 0.930 . S
C65 C61 1.567 1_655 S
C65 H126 0.961 . S
C65 H127 0.960 . S
C65 H128 0.958 . S
C66 C63 1.530 . S
C66 H129 0.961 . S
C66 H130 0.960 . S
C66 H131 0.960 . S
C67 C68 1.530 1_655 S
C67 H133 0.961 . S
C67 H134 0.961 . S
C67 H135 0.959 . S
C68 C67 1.530 1_455 S
C68 O96 1.412 1_455 S
C68 H132 0.980 . S
C69 C70 1.288 . S
C69 C74 1.377 1_655 S
C69 O96 1.393 . S
C70 C69 1.288 . S
C70 C71 1.369 . S
C70 H136 0.932 . S
C71 C70 1.369 . S
C71 C72 1.398 1_655 S
C71 C75 1.527 . S
C72 C71 1.398 1_455 S
C72 C73 1.380 . S
C72 C86 1.497 . S
C73 C72 1.380 . S
C73 C74 1.383 . S
C73 C76 1.603 . S
C74 C69 1.377 1_455 S
C74 C73 1.383 . S
C74 H137 0.929 . S
C75 C71 1.527 . S
C75 H138 0.961 . S
C75 H139 0.959 . S
C75 H140 0.959 . S
C76 C73 1.603 . S
C76 H141 0.960 . S
C76 H142 0.962 . S
C76 H143 0.961 . S
C77 C44 1.587 . S
C77 C78 1.360 . S
C77 C90 1.412 . S
C78 C77 1.360 . S
C78 C79 1.365 . S
C78 H144 0.929 . S
C79 C54 1.553 . S
C79 C78 1.365 . S
C79 C80 1.404 . S
C80 C79 1.404 . S
C80 C81 1.395 . S
C80 C91 1.451 . S
C81 C80 1.395 . S
C81 C82 1.322 . S
C81 H145 0.930 . S
C82 C81 1.322 . S
C82 C83 1.459 . S
C82 H146 0.929 . S
C83 C82 1.459 . S
C83 C84 1.445 . S
C83 C92 1.395 . S
C84 C62 1.432 . S
C84 C83 1.445 . S
C84 C85 1.370 . S
C85 C84 1.370 . S
C85 C86 1.438 . S
C85 H147 0.930 . S
C86 C72 1.497 . S
C86 C85 1.438 . S
C86 C87 1.360 . S
C87 C86 1.360 . S
C87 C88 1.401 . S
C87 C92 1.446 . S
C88 C87 1.401 . S
C88 C89 1.347 . S
C88 H148 0.929 . S
C89 C88 1.347 . S
C89 C90 1.455 . S
C89 H149 0.930 . S
C90 C77 1.412 . S
C90 C89 1.455 . S
C90 C91 1.331 . S
C91 C80 1.451 . S
C91 C90 1.331 . S
C91 C92 1.497 . S
C92 C83 1.395 . S
C92 C87 1.446 . S
C92 C91 1.497 . S
C93 C94 1.582 . S
C93 H150 0.962 . S
C93 H151 0.959 . S
C93 H152 0.958 . S
C94 C93 1.582 . S
C94 O97 1.458 . S
C94 H123 0.980 . S
O95 C40 1.426 . S
O95 C41 1.334 . S
O96 C68 1.412 1_655 S
O96 C69 1.393 . S
O97 C59 1.435 . S
O97 C94 1.458 . S
O98 C50 1.468 . S
O98 C51 1.408 . S
H99 C40 0.980 1_455 S
H100 C39 0.959 . S
H101 C39 0.959 . S
H102 C39 0.960 . S
H103 C42 0.929 . S
H104 C46 0.929 . S
H105 C47 0.959 . S
H106 C47 0.961 . S
H107 C47 0.961 . S
H108 C48 0.960 . S
H109 C48 0.960 . S
H110 C48 0.961 . S
H111 C50 0.980 . S
H112 C49 0.961 . S
H113 C49 0.960 . S
H114 C49 0.959 . S
H115 C52 0.930 . S
H116 C56 0.931 . S
H117 C57 0.959 . S
H118 C57 0.961 . S
H119 C57 0.959 . S
H120 C58 0.960 . S
H121 C58 0.960 . S
H122 C58 0.960 . S
H123 C94 0.980 . S
H124 C60 0.930 1_655 S
H125 C64 0.930 . S
H126 C65 0.961 . S
H127 C65 0.960 . S
H128 C65 0.958 . S
H129 C66 0.961 . S
H130 C66 0.960 . S
H131 C66 0.960 . S
H132 C68 0.980 . S
H133 C67 0.961 . S
H134 C67 0.961 . S
H135 C67 0.959 . S
H136 C70 0.932 . S
H137 C74 0.929 . S
H138 C75 0.961 . S
H139 C75 0.959 . S
H140 C75 0.959 . S
H141 C76 0.960 . S
H142 C76 0.962 . S
H143 C76 0.961 . S
H144 C78 0.929 . S
H145 C81 0.930 . S
H146 C82 0.929 . S
H147 C85 0.930 . S
H148 C88 0.929 . S
H149 C89 0.930 . S
H150 C93 0.962 . S
H151 C93 0.959 . S
H152 C93 0.958 . S
C153 C154 1.560 1_565 S
C153 H214 0.959 . S
C153 H215 0.959 . S
C153 H216 0.960 . S
C154 C153 1.560 1_545 S
C154 O209 1.426 1_545 S
C154 H213 0.980 . S
C155 C156 1.407 . S
C155 C160 1.418 1_545 S
C155 O209 1.334 1_545 S
C156 C155 1.407 . S
C156 C157 1.360 . S
C156 H217 0.929 . S
C157 C156 1.360 . S
C157 C158 1.401 . S
C157 C161 1.527 . S
C158 C157 1.401 . S
C158 C159 1.405 1_545 S
C158 C191 1.587 . S
C159 C158 1.405 1_565 S
C159 C160 1.332 . S
C159 C162 1.496 . S
C160 C155 1.418 1_565 S
C160 C159 1.332 . S
C160 H218 0.929 . S
C161 C157 1.527 . S
C161 H219 0.959 . S
C161 H220 0.961 . S
C161 H221 0.961 . S
C162 C159 1.496 . S
C162 H222 0.960 . S
C162 H223 0.960 . S
C162 H224 0.961 . S
C163 C164 1.517 . S
C163 H226 0.961 . S
C163 H227 0.960 . S
C163 H228 0.959 . S
C164 C163 1.517 . S
C164 O212 1.468 . S
C164 H225 0.980 . S
C165 C166 1.349 . S
C165 C170 1.367 . S
C165 O212 1.408 . S
C166 C165 1.349 . S
C166 C167 1.407 . S
C166 H229 0.930 . S
C167 C166 1.407 . S
C167 C168 1.449 . S
C167 C171 1.535 1_545 S
C168 C167 1.449 . S
C168 C169 1.384 . S
C168 C193 1.553 . S
C169 C168 1.384 . S
C169 C170 1.364 . S
C169 C172 1.450 . S
C170 C165 1.367 . S
C170 C169 1.364 . S
C170 H230 0.931 . S
C171 C167 1.535 1_565 S
C171 H231 0.959 . S
C171 H232 0.961 . S
C171 H233 0.959 . S
C172 C169 1.450 . S
C172 H234 0.960 . S
C172 H235 0.960 . S
C172 H236 0.960 . S
C173 C174 1.309 . S
C173 C178 1.304 . S
C173 O211 1.435 . S
C174 C173 1.309 . S
C174 C175 1.476 . S
C174 H238 0.930 . S
C175 C174 1.476 . S
C175 C176 1.400 . S
C175 C179 1.567 1_545 S
C176 C175 1.400 . S
C176 C177 1.373 . S
C176 C198 1.432 . S
C177 C176 1.373 . S
C177 C178 1.339 . S
C177 C180 1.530 . S
C178 C173 1.304 . S
C178 C177 1.339 . S
C178 H239 0.930 . S
C179 C175 1.567 1_565 S
C179 H240 0.961 . S
C179 H241 0.960 . S
C179 H242 0.958 . S
C180 C177 1.530 . S
C180 H243 0.961 . S
C180 H244 0.960 . S
C180 H245 0.960 . S
C181 C182 1.530 . S
C181 H247 0.961 . S
C181 H248 0.961 1_545 S
C181 H249 0.959 1_545 S
C182 C181 1.530 . S
C182 O210 1.412 . S
C182 H246 0.980 . S
C183 C184 1.288 1_545 S
C183 C188 1.377 . S
C183 O210 1.393 . S
C184 C183 1.288 1_565 S
C184 C185 1.369 . S
C184 H250 0.932 . S
C185 C184 1.369 . S
C185 C186 1.398 1_565 S
C185 C189 1.527 . S
C186 C185 1.398 1_545 S
C186 C187 1.380 . S
C186 C200 1.497 . S
C187 C186 1.380 . S
C187 C188 1.383 . S
C187 C190 1.603 . S
C188 C183 1.377 . S
C188 C187 1.383 . S
C188 H251 0.929 . S
C189 C185 1.527 . S
C189 H252 0.961 . S
C189 H253 0.959 . S
C189 H254 0.959 . S
C190 C187 1.603 . S
C190 H255 0.960 . S
C190 H256 0.962 . S
C190 H257 0.961 . S
C191 C158 1.587 . S
C191 C192 1.360 . S
C191 C204 1.412 . S
C192 C191 1.360 . S
C192 C193 1.365 . S
C192 H258 0.929 . S
C193 C168 1.553 . S
C193 C192 1.365 . S
C193 C194 1.404 . S
C194 C193 1.404 . S
C194 C195 1.395 . S
C194 C205 1.451 . S
C195 C194 1.395 . S
C195 C196 1.322 . S
C195 H259 0.930 . S
C196 C195 1.322 . S
C196 C197 1.459 . S
C196 H260 0.929 . S
C197 C196 1.459 . S
C197 C198 1.445 . S
C197 C206 1.395 . S
C198 C176 1.432 . S
C198 C197 1.445 . S
C198 C199 1.370 . S
C199 C198 1.370 . S
C199 C200 1.438 . S
C199 H261 0.930 . S
C200 C186 1.497 . S
C200 C199 1.438 . S
C200 C201 1.360 . S
C201 C200 1.360 . S
C201 C202 1.401 . S
C201 C206 1.446 . S
C202 C201 1.401 . S
C202 C203 1.347 . S
C202 H262 0.929 . S
C203 C202 1.347 . S
C203 C204 1.455 . S
C203 H263 0.930 . S
C204 C191 1.412 . S
C204 C203 1.455 . S
C204 C205 1.331 . S
C205 C194 1.451 . S
C205 C204 1.331 . S
C205 C206 1.497 . S
C206 C197 1.395 . S
C206 C201 1.446 . S
C206 C205 1.497 . S
C207 C208 1.582 . S
C207 H264 0.962 . S
C207 H265 0.959 . S
C207 H266 0.958 . S
C208 C207 1.582 . S
C208 O211 1.458 . S
C208 H237 0.980 . S
O209 C154 1.426 1_565 S
O209 C155 1.334 1_565 S
O210 C182 1.412 . S
O210 C183 1.393 . S
O211 C173 1.435 . S
O211 C208 1.458 . S
O212 C164 1.468 . S
O212 C165 1.408 . S
H213 C154 0.980 . S
H214 C153 0.959 . S
H215 C153 0.959 . S
H216 C153 0.960 . S
H217 C156 0.929 . S
H218 C160 0.929 . S
H219 C161 0.959 . S
H220 C161 0.961 . S
H221 C161 0.961 . S
H222 C162 0.960 . S
H223 C162 0.960 . S
H224 C162 0.961 . S
H225 C164 0.980 . S
H226 C163 0.961 . S
H227 C163 0.960 . S
H228 C163 0.959 . S
H229 C166 0.930 . S
H230 C170 0.931 . S
H231 C171 0.959 . S
H232 C171 0.961 . S
H233 C171 0.959 . S
H234 C172 0.960 . S
H235 C172 0.960 . S
H236 C172 0.960 . S
H237 C208 0.980 . S
H238 C174 0.930 . S
H239 C178 0.930 . S
H240 C179 0.961 . S
H241 C179 0.960 . S
H242 C179 0.958 . S
H243 C180 0.961 . S
H244 C180 0.960 . S
H245 C180 0.960 . S
H246 C182 0.980 . S
H247 C181 0.961 . S
H248 C181 0.961 1_565 S
H249 C181 0.959 1_565 S
H250 C184 0.932 . S
H251 C188 0.929 . S
H252 C189 0.961 . S
H253 C189 0.959 . S
H254 C189 0.959 . S
H255 C190 0.960 . S
H256 C190 0.962 . S
H257 C190 0.961 . S
H258 C192 0.929 . S
H259 C195 0.930 . S
H260 C196 0.929 . S
H261 C199 0.930 . S
H262 C202 0.929 . S
H263 C203 0.930 . S
H264 C207 0.962 . S
H265 C207 0.959 . S
H266 C207 0.958 . S
C267 C268 1.560 . S
C267 H328 0.959 . S
C267 H329 0.959 . S
C267 H330 0.960 . S
C268 C267 1.560 . S
C268 O323 1.426 . S
C268 H327 0.980 . S
C269 C270 1.407 . S
C269 C274 1.418 . S
C269 O323 1.334 . S
C270 C269 1.407 . S
C270 C271 1.360 . S
C270 H331 0.929 . S
C271 C270 1.360 . S
C271 C272 1.401 . S
C271 C275 1.527 . S
C272 C271 1.401 . S
C272 C273 1.405 . S
C272 C305 1.587 . S
C273 C272 1.405 . S
C273 C274 1.332 . S
C273 C276 1.496 . S
C274 C269 1.418 . S
C274 C273 1.332 . S
C274 H332 0.929 . S
C275 C271 1.527 . S
C275 H333 0.959 . S
C275 H334 0.961 . S
C275 H335 0.961 . S
C276 C273 1.496 . S
C276 H336 0.960 . S
C276 H337 0.960 . S
C276 H338 0.961 . S
C277 C278 1.517 . S
C277 H340 0.961 . S
C277 H341 0.960 . S
C277 H342 0.959 . S
C278 C277 1.517 . S
C278 O326 1.468 . S
C278 H339 0.980 . S
C279 C280 1.349 . S
C279 C284 1.367 . S
C279 O326 1.408 . S
C280 C279 1.349 . S
C280 C281 1.407 . S
C280 H343 0.930 . S
C281 C280 1.407 . S
C281 C282 1.449 . S
C281 C285 1.535 . S
C282 C281 1.449 . S
C282 C283 1.384 . S
C282 C307 1.553 . S
C283 C282 1.384 . S
C283 C284 1.364 . S
C283 C286 1.450 . S
C284 C279 1.367 . S
C284 C283 1.364 . S
C284 H344 0.931 . S
C285 C281 1.535 . S
C285 H345 0.959 . S
C285 H346 0.961 . S
C285 H347 0.959 . S
C286 C283 1.450 . S
C286 H348 0.960 . S
C286 H349 0.960 . S
C286 H350 0.960 . S
C287 C288 1.309 . S
C287 C292 1.304 . S
C287 O325 1.435 . S
C288 C287 1.309 . S
C288 C289 1.476 . S
C288 H352 0.930 . S
C289 C288 1.476 . S
C289 C290 1.400 . S
C289 C293 1.567 . S
C290 C289 1.400 . S
C290 C291 1.373 . S
C290 C312 1.432 . S
C291 C290 1.373 . S
C291 C292 1.339 . S
C291 C294 1.530 . S
C292 C287 1.304 . S
C292 C291 1.339 . S
C292 H353 0.930 . S
C293 C289 1.567 . S
C293 H354 0.961 . S
C293 H355 0.960 . S
C293 H356 0.958 . S
C294 C291 1.530 . S
C294 H357 0.961 . S
C294 H358 0.960 . S
C294 H359 0.960 . S
C295 C296 1.530 . S
C295 H361 0.961 . S
C295 H362 0.961 . S
C295 H363 0.959 . S
C296 C295 1.530 . S
C296 O324 1.412 . S
C296 H360 0.980 . S
C297 C298 1.288 . S
C297 C302 1.377 . S
C297 O324 1.393 . S
C298 C297 1.288 . S
C298 C299 1.369 . S
C298 H364 0.932 . S
C299 C298 1.369 . S
C299 C300 1.398 . S
C299 C303 1.527 . S
C300 C299 1.398 . S
C300 C301 1.380 . S
C300 C314 1.497 . S
C301 C300 1.380 . S
C301 C302 1.383 . S
C301 C304 1.603 . S
C302 C297 1.377 . S
C302 C301 1.383 . S
C302 H365 0.929 . S
C303 C299 1.527 . S
C303 H366 0.961 . S
C303 H367 0.959 . S
C303 H368 0.959 . S
C304 C301 1.603 . S
C304 H369 0.960 . S
C304 H370 0.962 . S
C304 H371 0.961 . S
C305 C272 1.587 . S
C305 C306 1.360 . S
C305 C318 1.412 . S
C306 C305 1.360 . S
C306 C307 1.365 . S
C306 H372 0.929 . S
C307 C282 1.553 . S
C307 C306 1.365 . S
C307 C308 1.404 . S
C308 C307 1.404 . S
C308 C309 1.395 . S
C308 C319 1.451 . S
C309 C308 1.395 . S
C309 C310 1.322 . S
C309 H373 0.930 . S
C310 C309 1.322 . S
C310 C311 1.459 . S
C310 H374 0.929 . S
C311 C310 1.459 . S
C311 C312 1.445 . S
C311 C320 1.395 . S
C312 C290 1.432 . S
C312 C311 1.445 . S
C312 C313 1.370 . S
C313 C312 1.370 . S
C313 C314 1.438 . S
C313 H375 0.930 . S
C314 C300 1.497 . S
C314 C313 1.438 . S
C314 C315 1.360 . S
C315 C314 1.360 . S
C315 C316 1.401 . S
C315 C320 1.446 . S
C316 C315 1.401 . S
C316 C317 1.347 . S
C316 H376 0.929 . S
C317 C316 1.347 . S
C317 C318 1.455 . S
C317 H377 0.930 . S
C318 C305 1.412 . S
C318 C317 1.455 . S
C318 C319 1.331 . S
C319 C308 1.451 . S
C319 C318 1.331 . S
C319 C320 1.497 . S
C320 C311 1.395 . S
C320 C315 1.446 . S
C320 C319 1.497 . S
C321 C322 1.582 . S
C321 H378 0.962 . S
C321 H379 0.959 . S
C321 H380 0.958 . S
C322 C321 1.582 . S
C322 O325 1.458 . S
C322 H351 0.980 . S
O323 C268 1.426 . S
O323 C269 1.334 . S
O324 C296 1.412 . S
O324 C297 1.393 . S
O325 C287 1.435 . S
O325 C322 1.458 . S
O326 C278 1.468 . S
O326 C279 1.408 . S
H327 C268 0.980 . S
H328 C267 0.959 . S
H329 C267 0.959 . S
H330 C267 0.960 . S
H331 C270 0.929 . S
H332 C274 0.929 . S
H333 C275 0.959 . S
H334 C275 0.961 . S
H335 C275 0.961 . S
H336 C276 0.960 . S
H337 C276 0.960 . S
H338 C276 0.961 . S
H339 C278 0.980 . S
H340 C277 0.961 . S
H341 C277 0.960 . S
H342 C277 0.959 . S
H343 C280 0.930 . S
H344 C284 0.931 . S
H345 C285 0.959 . S
H346 C285 0.961 . S
H347 C285 0.959 . S
H348 C286 0.960 . S
H349 C286 0.960 . S
H350 C286 0.960 . S
H351 C322 0.980 . S
H352 C288 0.930 . S
H353 C292 0.930 . S
H354 C293 0.961 . S
H355 C293 0.960 . S
H356 C293 0.958 . S
H357 C294 0.961 . S
H358 C294 0.960 . S
H359 C294 0.960 . S
H360 C296 0.980 . S
H361 C295 0.961 . S
H362 C295 0.961 . S
H363 C295 0.959 . S
H364 C298 0.932 . S
H365 C302 0.929 . S
H366 C303 0.961 . S
H367 C303 0.959 . S
H368 C303 0.959 . S
H369 C304 0.960 . S
H370 C304 0.962 . S
H371 C304 0.961 . S
H372 C306 0.929 . S
H373 C309 0.930 . S
H374 C310 0.929 . S
H375 C313 0.930 . S
H376 C316 0.929 . S
H377 C317 0.930 . S
H378 C321 0.962 . S
H379 C321 0.959 . S
H380 C321 0.958 . S
H381 C387 0.930 . S
H382 C390 0.930 . S
H383 C391 0.930 . S
H384 C392 0.930 . S
H385 C395 0.930 . S
H386 C396 0.930 . S
C387 H381 0.930 . S
C387 C388 1.355 . S
C387 C389 1.415 . S
C388 C387 1.355 . S
C388 C390 1.419 1_455 S
C389 C387 1.415 . S
C389 C394 1.425 1_455 S
C389 C396 1.409 . S
C390 H382 0.930 . S
C390 C388 1.419 1_655 S
C390 C391 1.362 . S
C391 H383 0.930 . S
C391 C390 1.362 . S
C391 C394 1.409 . S
C392 H384 0.930 . S
C392 C393 1.355 1_655 S
C392 C394 1.415 . S
C393 C392 1.355 1_455 S
C393 C395 1.419 . S
C394 C389 1.425 1_655 S
C394 C391 1.409 . S
C394 C392 1.415 . S
C395 H385 0.930 . S
C395 C393 1.419 . S
C395 C396 1.362 . S
C396 H386 0.930 . S
C396 C389 1.409 . S
C396 C395 1.362 . S
H397 C403 0.930 . S
H398 C406 0.930 . S
H399 C407 0.930 . S
H400 C408 0.930 . S
H401 C411 0.930 . S
H402 C412 0.930 . S
C403 H397 0.930 . S
C403 C404 1.355 . S
C403 C405 1.415 . S
C404 C403 1.355 . S
C404 C406 1.419 . S
C405 C403 1.415 . S
C405 C410 1.425 . S
C405 C412 1.409 . S
C406 H398 0.930 . S
C406 C404 1.419 . S
C406 C407 1.362 . S
C407 H399 0.930 . S
C407 C406 1.362 . S
C407 C410 1.409 . S
C408 H400 0.930 . S
C408 C409 1.355 . S
C408 C410 1.415 . S
C409 C408 1.355 . S
C409 C411 1.419 . S
C410 C405 1.425 . S
C410 C407 1.409 . S
C410 C408 1.415 . S
C411 H401 0.930 . S
C411 C409 1.419 . S
C411 C412 1.362 . S
C412 H402 0.930 . S
C412 C405 1.409 . S
C412 C411 1.362 . S
H413 C419 0.930 . S
H414 C422 0.930 . S
H415 C423 0.930 . S
H416 C424 0.930 . S
H417 C427 0.930 . S
H418 C428 0.930 . S
C419 H413 0.930 . S
C419 C420 1.355 . S
C419 C421 1.415 . S
C420 C419 1.355 . S
C420 C422 1.419 . S
C421 C419 1.415 . S
C421 C426 1.425 . S
C421 C428 1.409 . S
C422 H414 0.930 . S
C422 C420 1.419 . S
C422 C423 1.362 . S
C423 H415 0.930 . S
C423 C422 1.362 . S
C423 C426 1.409 . S
C424 H416 0.930 . S
C424 C425 1.355 . S
C424 C426 1.415 . S
C425 C424 1.355 . S
C425 C427 1.419 . S
C426 C421 1.425 . S
C426 C423 1.409 . S
C426 C424 1.415 . S
C427 H417 0.930 . S
C427 C425 1.419 . S
C427 C428 1.362 . S
C428 H418 0.930 . S
C428 C421 1.409 . S
C428 C427 1.362 . S
H429 C435 0.930 . S
H430 C438 0.930 . S
H431 C439 0.930 . S
H432 C440 0.930 . S
H433 C443 0.930 . S
H434 C444 0.930 . S
C435 H429 0.930 . S
C435 C436 1.355 1_655 S
C435 C437 1.415 . S
C436 C435 1.355 1_455 S
C436 C438 1.419 . S
C437 C435 1.415 . S
C437 C442 1.425 1_655 S
C437 C444 1.409 . S
C438 H430 0.930 . S
C438 C436 1.419 . S
C438 C439 1.362 . S
C439 H431 0.930 . S
C439 C438 1.362 . S
C439 C442 1.409 . S
C440 H432 0.930 . S
C440 C441 1.355 . S
C440 C442 1.415 . S
C441 C440 1.355 . S
C441 C443 1.419 1_455 S
C442 C437 1.425 1_455 S
C442 C439 1.409 . S
C442 C440 1.415 . S
C443 H433 0.930 . S
C443 C441 1.419 1_655 S
C443 C444 1.362 . S
C444 H434 0.930 . S
C444 C437 1.409 . S
C444 C443 1.362 . S
H445 C451 0.930 . S
H446 C454 0.930 1_565 S
H447 C455 0.930 1_565 S
H448 C456 0.930 . S
H449 C459 0.930 . S
H450 C460 0.930 . S
C451 H445 0.930 . S
C451 C452 1.355 . S
C451 C453 1.415 . S
C452 C451 1.355 . S
C452 C454 1.419 . S
C453 C451 1.415 . S
C453 C458 1.425 . S
C453 C460 1.409 . S
C454 H446 0.930 1_545 S
C454 C452 1.419 . S
C454 C455 1.362 . S
C455 H447 0.930 1_545 S
C455 C454 1.362 . S
C455 C458 1.409 . S
C456 H448 0.930 . S
C456 C457 1.355 . S
C456 C458 1.415 . S
C457 C456 1.355 . S
C457 C459 1.419 . S
C458 C453 1.425 . S
C458 C455 1.409 . S
C458 C456 1.415 . S
C459 H449 0.930 . S
C459 C457 1.419 . S
C459 C460 1.362 . S
C460 H450 0.930 . S
C460 C453 1.409 . S
C460 C459 1.362 . S
H461 C467 0.930 . S
H462 C470 0.930 . S
H463 C471 0.930 . S
H464 C472 0.930 . S
H465 C475 0.930 . S
H466 C476 0.930 . S
C467 H461 0.930 . S
C467 C468 1.355 . S
C467 C469 1.415 . S
C468 C467 1.355 . S
C468 C470 1.419 . S
C469 C467 1.415 . S
C469 C474 1.425 . S
C469 C476 1.409 . S
C470 H462 0.930 . S
C470 C468 1.419 . S
C470 C471 1.362 . S
C471 H463 0.930 . S
C471 C470 1.362 . S
C471 C474 1.409 . S
C472 H464 0.930 . S
C472 C473 1.355 . S
C472 C474 1.415 . S
C473 C472 1.355 . S
C473 C475 1.419 . S
C474 C469 1.425 . S
C474 C471 1.409 . S
C474 C472 1.415 . S
C475 H465 0.930 . S
C475 C473 1.419 . S
C475 C476 1.362 . S
C476 H466 0.930 . S
C476 C469 1.409 . S
C476 C475 1.362 . S
H477 C483 0.930 . S
H478 C486 0.930 . S
H479 C487 0.930 . S
H480 C488 0.930 . S
H481 C491 0.930 . S
H482 C492 0.930 . S
C483 H477 0.930 . S
C483 C484 1.355 . S
C483 C485 1.415 . S
C484 C483 1.355 . S
C484 C486 1.419 . S
C485 C483 1.415 . S
C485 C490 1.425 . S
C485 C492 1.409 . S
C486 H478 0.930 . S
C486 C484 1.419 . S
C486 C487 1.362 . S
C487 H479 0.930 . S
C487 C486 1.362 . S
C487 C490 1.409 . S
C488 H480 0.930 . S
C488 C489 1.355 . S
C488 C490 1.415 . S
C489 C488 1.355 . S
C489 C491 1.419 . S
C490 C485 1.425 . S
C490 C487 1.409 . S
C490 C488 1.415 . S
C491 H481 0.930 . S
C491 C489 1.419 . S
C491 C492 1.362 . S
C492 H482 0.930 . S
C492 C485 1.409 . S
C492 C491 1.362 . S
H493 C499 0.930 . S
H494 C502 0.930 . S
H495 C503 0.930 . S
H496 C504 0.947 . S
H497 C507 0.930 . S
H498 C508 0.930 . S
C499 H493 0.930 . S
C499 C500 1.355 . S
C499 C501 1.415 . S
C500 C499 1.355 . S
C500 C502 1.419 . S
C501 C499 1.415 . S
C501 C506 1.425 . S
C501 C508 1.409 1_554 S
C502 H494 0.930 . S
C502 C500 1.419 . S
C502 C503 1.362 . S
C503 H495 0.930 . S
C503 C502 1.362 . S
C503 C506 1.409 . S
C504 H496 0.947 . S
C504 C505 1.321 1_554 S
C504 C506 1.432 . S
C505 C504 1.321 1_556 S
C505 C507 1.419 . S
C506 C501 1.425 . S
C506 C503 1.409 . S
C506 C504 1.432 . S
C507 H497 0.930 . S
C507 C505 1.419 . S
C507 C508 1.362 . S
C508 H498 0.930 . S
C508 C501 1.409 1_556 S
C508 C507 1.362 . S
H509 C515 0.930 . S
H510 C518 0.930 . S
H511 C519 0.930 . S
H512 C520 0.930 . S
H513 C523 0.930 . S
H514 C524 0.930 . S
C515 H509 0.930 . S
C515 C516 1.355 . S
C515 C517 1.415 . S
C516 C515 1.355 . S
C516 C518 1.419 1_455 S
C517 C515 1.415 . S
C517 C522 1.425 1_455 S
C517 C524 1.409 . S
C518 H510 0.930 . S
C518 C516 1.419 1_655 S
C518 C519 1.362 . S
C519 H511 0.930 . S
C519 C518 1.362 . S
C519 C522 1.409 . S
C520 H512 0.930 . S
C520 C521 1.355 1_655 S
C520 C522 1.415 . S
C521 C520 1.355 1_455 S
C521 C523 1.419 . S
C522 C517 1.425 1_655 S
C522 C519 1.409 . S
C522 C520 1.415 . S
C523 H513 0.930 . S
C523 C521 1.419 . S
C523 C524 1.362 . S
C524 H514 0.930 . S
C524 C517 1.409 . S
C524 C523 1.362 . S
H525 C531 0.930 . S
H526 C534 0.930 . S
H527 C535 0.930 . S
H528 C536 0.930 . S
H529 C539 0.930 . S
H530 C540 0.930 . S
C531 H525 0.930 . S
C531 C532 1.355 . S
C531 C533 1.415 . S
C532 C531 1.355 . S
C532 C534 1.419 . S
C533 C531 1.415 . S
C533 C538 1.425 . S
C533 C540 1.409 . S
C534 H526 0.930 . S
C534 C532 1.419 . S
C534 C535 1.362 . S
C535 H527 0.930 . S
C535 C534 1.362 . S
C535 C538 1.409 . S
C536 H528 0.930 . S
C536 C537 1.355 . S
C536 C538 1.415 . S
C537 C536 1.355 . S
C537 C539 1.419 . S
C538 C533 1.425 . S
C538 C535 1.409 . S
C538 C536 1.415 . S
C539 H529 0.930 . S
C539 C537 1.419 . S
C539 C540 1.362 . S
C540 H530 0.930 . S
C540 C533 1.409 . S
C540 C539 1.362 . S
H541 C547 0.930 . S
H542 C550 0.930 . S
H543 C551 0.930 . S
H544 C552 0.930 1_554 S
H545 C555 0.930 . S
H546 C556 0.930 . S
C547 H541 0.930 . S
C547 C548 1.355 . S
C547 C549 1.415 1_554 S
C548 C547 1.355 . S
C548 C550 1.419 . S
C549 C547 1.415 1_556 S
C549 C554 1.425 1_556 S
C549 C556 1.409 . S
C550 H542 0.930 . S
C550 C548 1.419 . S
C550 C551 1.362 . S
C551 H543 0.930 . S
C551 C550 1.362 . S
C551 C554 1.409 . S
C552 H544 0.930 1_556 S
C552 C553 1.355 . S
C552 C554 1.415 1_556 S
C553 C552 1.355 . S
C553 C555 1.419 . S
C554 C549 1.425 1_554 S
C554 C551 1.409 . S
C554 C552 1.415 1_554 S
C555 H545 0.930 . S
C555 C553 1.419 . S
C555 C556 1.362 . S
C556 H546 0.930 . S
C556 C549 1.409 . S
C556 C555 1.362 . S
H557 C563 0.930 . S
H558 C566 0.930 . S
H559 C567 0.930 . S
H560 C568 0.930 . S
H561 C571 0.930 . S
H562 C572 0.930 . S
C563 H557 0.930 . S
C563 C564 1.355 . S
C563 C565 1.415 . S
C564 C563 1.355 . S
C564 C566 1.419 1_455 S
C565 C563 1.415 . S
C565 C570 1.425 1_455 S
C565 C572 1.409 . S
C566 H558 0.930 . S
C566 C564 1.419 1_655 S
C566 C567 1.362 . S
C567 H559 0.930 . S
C567 C566 1.362 . S
C567 C570 1.409 . S
C568 H560 0.930 . S
C568 C569 1.355 1_655 S
C568 C570 1.415 . S
C569 C568 1.355 1_455 S
C569 C571 1.419 . S
C570 C565 1.425 1_655 S
C570 C567 1.409 . S
C570 C568 1.415 . S
C571 H561 0.930 . S
C571 C569 1.419 . S
C571 C572 1.362 . S
C572 H562 0.930 . S
C572 C565 1.409 . S
C572 C571 1.362 . S
C393 C94 1.131 . S
C388 C10 1.599 . S
C404 C17 1.609 . S
C409 C208 1.228 . S
C420 C36 1.395 . S
C425 C268 1.127 . S
C436 C5 1.482 . S
C441 C68 1.065 . S
C457 C182 1.109 . S
C452 C16 1.493 . S
C468 C31 1.529 . S
C473 C278 0.949 . S
C489 C164 0.895 . S
C484 C30 1.526 . S
C500 C3 1.485 . S
C505 C296 1.068 . S
C521 C40 1.167 1_455 S
C516 C18 1.393 . S
C537 C154 1.059 . S
C532 C29 1.401 . S
C553 C322 1.057 . S
C548 C4 1.602 . S
C564 C23 1.519 . S
C569 C50 0.877 . S
