# Generated by pormake.
# Topology anh, (6,3)-cn, num edge types: 1
# Building blocks:
#     Node 0, Type 0, BuildingBlock: CUWYAW_clean_sbu_0, # of connection points: 6
#     Node 1, Type 0, BuildingBlock: CUWYAW_clean_sbu_0, # of connection points: 6
#     Node 2, Type 0, BuildingBlock: CUWYAW_clean_sbu_0, # of connection points: 6
#     Node 3, Type 1, BuildingBlock: MIDCAF_clean_linker_0, # of connection points: 3
#     Node 4, Type 1, BuildingBlock: MIDCAF_clean_linker_0, # of connection points: 3
#     Node 5, Type 1, BuildingBlock: MIDCAF_clean_linker_0, # of connection points: 3
#     Node 6, Type 1, BuildingBlock: MIDCAF_clean_linker_0, # of connection points: 3
#     Node 7, Type 1, BuildingBlock: MIDCAF_clean_linker_0, # of connection points: 3
#     Node 8, Type 1, BuildingBlock: MIDCAF_clean_linker_0, # of connection points: 3
#     Edge 9, Type (0, 1), BuildingBlock: UVAHIK_clean_linker_0, # of connection points: 2
#     Edge 10, Type (0, 1), BuildingBlock: UVAHIK_clean_linker_0, # of connection points: 2
#     Edge 11, Type (0, 1), BuildingBlock: UVAHIK_clean_linker_0, # of connection points: 2
#     Edge 12, Type (0, 1), BuildingBlock: UVAHIK_clean_linker_0, # of connection points: 2
#     Edge 13, Type (0, 1), BuildingBlock: UVAHIK_clean_linker_0, # of connection points: 2
#     Edge 14, Type (0, 1), BuildingBlock: UVAHIK_clean_linker_0, # of connection points: 2
#     Edge 15, Type (0, 1), BuildingBlock: UVAHIK_clean_linker_0, # of connection points: 2
#     Edge 16, Type (0, 1), BuildingBlock: UVAHIK_clean_linker_0, # of connection points: 2
#     Edge 17, Type (0, 1), BuildingBlock: UVAHIK_clean_linker_0, # of connection points: 2
#     Edge 18, Type (0, 1), BuildingBlock: UVAHIK_clean_linker_0, # of connection points: 2
#     Edge 19, Type (0, 1), BuildingBlock: UVAHIK_clean_linker_0, # of connection points: 2
#     Edge 20, Type (0, 1), BuildingBlock: UVAHIK_clean_linker_0, # of connection points: 2
#     Edge 21, Type (0, 1), BuildingBlock: UVAHIK_clean_linker_0, # of connection points: 2
#     Edge 22, Type (0, 1), BuildingBlock: UVAHIK_clean_linker_0, # of connection points: 2
#     Edge 23, Type (0, 1), BuildingBlock: UVAHIK_clean_linker_0, # of connection points: 2
#     Edge 24, Type (0, 1), BuildingBlock: UVAHIK_clean_linker_0, # of connection points: 2
#     Edge 25, Type (0, 1), BuildingBlock: UVAHIK_clean_linker_0, # of connection points: 2
#     Edge 26, Type (0, 1), BuildingBlock: UVAHIK_clean_linker_0, # of connection points: 2
# Relax obj value: 0.207
# Max RMSD: 0.181
# Mean RMSD: 0.150
data_MOF--net-anh--node1-CUWYAW_clean_sbu_0--node2-MIDCAF_clean_linker_0--edge1-UVAHIK_clean_linker_0
_symmetry_space_group_name_H-M    P1
_symmetry_Int_Tables_number       1
_symmetry_cell_setting            triclinic
loop_
_symmetry_equiv_pos_as_xyz
'x, y, z'
_cell_length_a     45.19804
_cell_length_b     45.287594
_cell_length_c     82.570135
_cell_angle_alpha  90.323886
_cell_angle_beta   89.833367
_cell_angle_gamma 119.95073
loop_
_atom_site_label
_atom_site_type_symbol
_atom_site_fract_x
_atom_site_fract_y
_atom_site_fract_z
_atom_type_partial_charge
C0 C 1.03673 0.45888 0.1423 0.0
Eu1 Eu 0.08117 0.51735 0.15436 0.0
C2 C 0.99943 0.44421 0.14187 0.0
C3 C 0.98254 0.44797 0.15535 0.0
C4 C 0.94863 0.44003 0.15418 0.0
C5 C 0.93089 0.42852 0.13946 0.0
C6 C 0.94739 0.42361 0.1261 0.0
C7 C 0.98148 0.43151 0.1273 0.0
C8 C 0.0911 0.53154 0.18651 0.0
C9 C 1.03846 0.55917 0.15729 0.0
C10 C 0.16059 0.65045 0.17456 0.0
Eu11 Eu 0.11837 0.59151 0.16206 0.0
C12 C 0.19779 0.67133 0.17318 0.0
C13 C 0.21492 0.66552 0.16043 0.0
C14 C 0.25034 0.68519 0.15907 0.0
C15 C 0.26922 0.71084 0.1705 0.0
C16 C 0.25199 0.71612 0.18344 0.0
C17 C 0.21649 0.69648 0.18476 0.0
C18 C 0.10775 0.57673 0.13015 0.0
C19 C 0.16219 0.55096 0.15559 0.0
O20 O 1.05366 0.48616 0.13346 0.0
O21 O 1.05045 0.4621 0.15661 0.0
O22 O 0.09316 0.50692 0.17949 0.0
O23 O 0.0825 0.5468 0.17643 0.0
O24 O 1.04038 0.533 0.15127 0.0
O25 O 0.06513 0.58435 0.1647 0.0
O26 O 0.14957 0.6218 0.18241 0.0
O27 O 0.14357 0.64679 0.1612 0.0
O28 O 0.10631 0.60204 0.13675 0.0
O29 O 0.11664 0.56222 0.14038 0.0
O30 O 0.16151 0.57794 0.16162 0.0
O31 O 0.13379 0.52423 0.15025 0.0
H32 H 0.99587 0.45831 0.16668 0.0
H33 H 0.93647 0.44344 0.16478 0.0
H34 H 0.9344 0.4149 0.11458 0.0
H35 H 0.99425 0.42908 0.11667 0.0
H36 H 0.20085 0.64587 0.15147 0.0
H37 H 0.26297 0.68037 0.14908 0.0
H38 H 0.26587 0.73603 0.19231 0.0
H39 H 0.20364 0.70107 0.19472 0.0
C40 C 0.53769 0.1136 0.47887 0.0
Eu41 Eu 0.57004 0.08304 0.48833 0.0
C42 C 0.54905 0.15018 0.47921 0.0
C43 C 0.56778 0.17024 0.49248 0.0
C44 C 0.5859 0.20564 0.4913 0.0
C45 C 0.58599 0.2217 0.47677 0.0
C46 C 0.56556 0.2017 0.46382 0.0
C47 C 0.54726 0.16617 0.46503 0.0
C48 C 0.59221 0.08472 0.51914 0.0
C49 C 0.65283 0.12906 0.48931 0.0
C50 C 0.63459 1.00831 0.49948 0.0
Eu51 Eu 0.61008 0.04753 0.492 0.0
C52 C 0.62001 0.97185 0.50319 0.0
C53 C 0.62511 0.95113 0.49217 0.0
C54 C 0.61053 0.91629 0.49489 0.0
C55 C 0.59098 0.90139 0.50887 0.0
C56 C 0.5858 0.92216 0.51992 0.0
C57 C 0.60009 0.95708 0.51709 0.0
C58 C 0.60715 0.06747 0.46154 0.0
C59 C 0.52643 1.00015 0.48882 0.0
O60 O 0.5556 0.10579 0.46908 0.0
O61 O 0.53179 0.09809 0.49288 0.0
O62 O 0.5915 0.1099 0.51216 0.0
O63 O 0.58033 0.05926 0.50972 0.0
O64 O 0.62442 0.1259 0.48302 0.0
O65 O 0.65238 0.10254 0.49633 0.0
O66 O 0.63054 1.02759 0.51013 0.0
O67 O 0.63006 1.01486 0.4846 0.0
O68 O 0.63489 0.07074 0.46782 0.0
O69 O 0.58288 0.05375 0.47142 0.0
O70 O 0.55613 1.00104 0.49021 0.0
O71 O 0.52508 1.02869 0.48822 0.0
H72 H 0.56998 0.15861 0.5035 0.0
H73 H 0.60079 0.22041 0.50162 0.0
H74 H 0.56519 0.21336 0.45246 0.0
H75 H 0.53342 0.15111 0.45456 0.0
H76 H 0.64017 0.96187 0.48132 0.0
H77 H 0.61456 0.90102 0.48598 0.0
H78 H 0.57128 0.9116 0.53092 0.0
H79 H 0.59557 0.97241 0.52577 0.0
C80 C 0.71711 0.6268 0.81041 0.0
Eu81 Eu 0.65685 0.60568 0.8227 0.0
C82 C 0.73074 0.60813 0.80138 0.0
C83 C 0.76425 0.61541 0.80414 0.0
C84 C 0.77505 0.59325 0.7984 0.0
C85 C 0.75244 0.56345 0.7898 0.0
C86 C 0.71986 0.55797 0.78583 0.0
C87 C 0.70899 0.57989 0.79174 0.0
C88 C 0.64019 0.60322 0.85447 0.0
C89 C 0.61931 0.52196 0.82558 0.0
C90 C 0.5201 0.54108 0.84065 0.0
Eu91 Eu 0.58161 0.56501 0.82946 0.0
C92 C 0.49107 0.54647 0.83748 0.0
C93 C 0.46113 0.51959 0.83084 0.0
C94 C 0.43345 0.52392 0.82726 0.0
C95 C 0.43497 0.55515 0.83041 0.0
C96 C 0.46483 0.58211 0.83715 0.0
C97 C 0.49282 0.57789 0.84057 0.0
C98 C 0.59846 0.56735 0.79787 0.0
C99 C 0.61802 0.64894 0.82327 0.0
O100 O 0.69331 0.63011 0.8031 0.0
O101 O 0.7098 0.61805 0.82559 0.0
O102 O 0.66455 0.63003 0.84748 0.0
O103 O 0.62676 0.57849 0.84464 0.0
O104 O 0.64382 0.55003 0.81872 0.0
O105 O 0.59413 0.5228 0.8334 0.0
O106 O 0.5471 0.56568 0.84781 0.0
O107 O 0.52782 0.52676 0.82885 0.0
O108 O 0.57316 0.54085 0.80446 0.0
O109 O 0.61146 0.59146 0.8079 0.0
O110 O 0.5906 0.62002 0.82787 0.0
O111 O 0.64698 0.64972 0.81971 0.0
H112 H 0.78131 0.63695 0.81164 0.0
H113 H 0.80018 0.5981 0.80188 0.0
H114 H 0.70195 0.53553 0.77909 0.0
H115 H 0.68286 0.5735 0.78962 0.0
H116 H 0.45911 0.4951 0.82842 0.0
H117 H 0.41047 0.50247 0.8224 0.0
H118 H 0.46653 0.60638 0.83975 0.0
H119 H 0.51567 0.59915 0.84562 0.0
C120 C 0.52638 1.01347 0.21477 0.0
C121 C 0.53851 1.01309 0.19908 0.0
C122 C 0.55868 0.04432 0.19115 0.0
C123 C 0.56561 0.07497 0.19852 0.0
H124 H 0.55897 0.16584 0.18801 0.0
H125 H 0.58293 0.21445 0.16983 0.0
H126 H 0.63844 0.28095 0.20987 0.0
H127 H 0.61351 0.23246 0.22814 0.0
H128 H 0.60204 0.19613 0.26474 0.0
H129 H 0.60575 0.19771 0.29439 0.0
H130 H 0.53505 0.08939 0.29589 0.0
H131 H 0.53142 0.08767 0.2665 0.0
H132 H 0.52362 0.04337 0.23421 0.0
H133 H 0.51007 0.99001 0.22115 0.0
H134 H 0.56894 0.04514 0.17919 0.0
H135 H 0.58096 0.09856 0.19204 0.0
N136 N 0.5678 0.13513 0.21268 0.0
N137 N 0.57484 0.16751 0.23616 0.0
N138 N 0.5589 0.10975 0.23816 0.0
C139 C 0.57502 0.16517 0.21973 0.0
C140 C 0.56642 0.13967 0.24543 0.0
C141 C 0.55985 0.10739 0.22182 0.0
C142 C 0.58498 0.19527 0.20944 0.0
C143 C 0.5758 0.19095 0.19298 0.0
C144 C 0.5895 0.2188 0.18256 0.0
C145 C 0.61307 0.25151 0.18831 0.0
C146 C 0.62016 0.25618 0.20502 0.0
C147 C 0.60608 0.22832 0.21551 0.0
C148 C 0.56657 0.14174 0.2633 0.0
C149 C 0.58697 0.17278 0.27145 0.0
C150 C 0.58925 0.17368 0.28837 0.0
C151 C 0.57065 0.14369 0.2974 0.0
C152 C 0.54939 0.11296 0.28925 0.0
C153 C 0.54752 0.11196 0.2724 0.0
C154 C 0.55301 0.07511 0.21409 0.0
C155 C 0.53381 0.04411 0.22223 0.0
C156 C 0.76036 0.54189 0.54351 0.0
C157 C 0.75986 0.55177 0.5274 0.0
C158 C 0.75902 0.58196 0.52466 0.0
C159 C 0.75478 0.59954 0.53755 0.0
H160 H 0.68 0.62601 0.54421 0.0
H161 H 0.63579 0.63958 0.53755 0.0
H162 H 0.61711 0.64542 0.58849 0.0
H163 H 0.66185 0.63261 0.59524 0.0
H164 H 0.72832 0.64745 0.6187 0.0
H165 H 0.7317 0.63961 0.64749 0.0
H166 H 0.75873 0.56223 0.63765 0.0
H167 H 0.75503 0.56995 0.6085 0.0
H168 H 0.75486 0.5503 0.56861 0.0
H169 H 0.76069 0.51868 0.54617 0.0
H170 H 0.75958 0.59091 0.51246 0.0
H171 H 0.75186 0.62139 0.53498 0.0
N172 N 0.71663 0.61116 0.56263 0.0
N173 N 0.71066 0.62032 0.59002 0.0
N174 N 0.74757 0.60033 0.58223 0.0
C175 C 0.70186 0.6205 0.57436 0.0
C176 C 0.73359 0.61054 0.59406 0.0
C177 C 0.73956 0.60123 0.56643 0.0
C178 C 0.67481 0.62857 0.57027 0.0
C179 C 0.66646 0.63009 0.55402 0.0
C180 C 0.64079 0.63748 0.55019 0.0
C181 C 0.62282 0.64343 0.5625 0.0
C182 C 0.6307 0.64125 0.57873 0.0
C183 C 0.65642 0.63397 0.58258 0.0
C184 C 0.74101 0.60903 0.61134 0.0
C185 C 0.73551 0.62911 0.62262 0.0
C186 C 0.73781 0.62486 0.63916 0.0
C187 C 0.74549 0.60028 0.64486 0.0
C188 C 0.75261 0.58125 0.63359 0.0
C189 C 0.75065 0.58579 0.61693 0.0
C190 C 0.75214 0.58778 0.55348 0.0
C191 C 0.75681 0.55992 0.55644 0.0
C192 C 0.86569 0.37777 0.88747 0.0
C193 C 0.86462 0.37403 0.8705 0.0
C194 C 0.88892 0.3679 0.86293 0.0
C195 C 0.9155 0.36883 0.87183 0.0
H196 H 1.01692 0.41734 0.86266 0.0
H197 H 0.06916 0.4402 0.8466 0.0
H198 H 0.12392 0.43585 0.88842 0.0
H199 H 0.07188 0.41322 0.90458 0.0
H200 H 1.04037 0.41546 0.93907 0.0
H201 H 1.05244 0.43723 0.9666 0.0
H202 H 0.9545 0.43206 0.96908 0.0
H203 H 0.94199 0.40968 0.9414 0.0
H204 H 0.8938 0.38404 0.90929 0.0
H205 H 0.84689 0.38179 0.89373 0.0
H206 H 0.88915 0.36507 0.8499 0.0
H207 H 0.93479 0.36591 0.86538 0.0
N208 N 0.97873 0.39149 0.88799 0.0
N209 N 1.01264 0.40806 0.91126 0.0
N210 N 0.9544 0.39081 0.91322 0.0
C211 C 1.0096 0.40294 0.89502 0.0
C212 C 0.98525 0.40202 0.92048 0.0
C213 C 0.95092 0.385 0.89695 0.0
C214 C 1.04028 0.41349 0.88492 0.0
C215 C 1.03998 0.42083 0.8684 0.0
C216 C 0.06988 0.43416 0.85922 0.0
C217 C 0.10045 0.43983 0.86631 0.0
C218 C 0.10056 0.43149 0.88265 0.0
C219 C 0.07082 0.41865 0.89191 0.0
C220 C 0.99034 0.41117 0.93791 0.0
C221 C 1.02118 0.41867 0.94546 0.0
C222 C 1.02824 0.43135 0.96125 0.0
C223 C 1.00471 0.43697 0.96992 0.0
C224 C 0.97314 0.42797 0.96271 0.0
C225 C 0.966 0.41517 0.94684 0.0
C226 C 0.91862 0.37615 0.88852 0.0
C227 C 0.89249 0.37889 0.89641 0.0
C228 C 0.19476 0.67848 0.4415 0.0
C229 C 0.20787 0.68 0.45709 0.0
C230 C 0.18891 0.65171 0.46736 0.0
C231 C 0.15877 0.62232 0.46184 0.0
H232 H 1.02958 0.52839 0.46703 0.0
H233 H 0.97691 0.47759 0.47632 0.0
H234 H 0.98963 0.41749 0.43912 0.0
H235 H 1.04098 0.46758 0.42986 0.0
H236 H 1.05192 0.50461 0.39422 0.0
H237 H 1.05121 0.50257 0.3647 0.0
H238 H 0.12917 0.60872 0.36324 0.0
H239 H 0.12984 0.61098 0.39276 0.0
H240 H 0.15662 0.65003 0.42384 0.0
H241 H 0.2077 0.6998 0.43331 0.0
H242 H 0.19798 0.65178 0.47949 0.0
H243 H 0.14567 0.60069 0.46984 0.0
N244 N 0.09279 0.56169 0.44726 0.0
N245 N 0.06775 0.53275 0.42279 0.0
N246 N 0.11603 0.58684 0.42201 0.0
C247 C 0.06768 0.5334 0.43927 0.0
C248 C 0.09155 0.55923 0.41405 0.0
C249 C 0.11739 0.58873 0.43848 0.0
C250 C 1.0397 0.50239 0.4476 0.0
C251 C 1.02145 0.50415 0.4611 0.0
C252 C 0.99104 0.4749 0.46636 0.0
C253 C 0.97809 0.44313 0.45827 0.0
C254 C 0.9977 0.44134 0.44542 0.0
C255 C 1.02764 0.47027 0.44018 0.0
C256 C 0.09096 0.55796 0.39598 0.0
C257 C 0.06891 0.52759 0.38765 0.0
C258 C 0.06862 0.52634 0.37069 0.0
C259 C 0.09016 0.55547 0.36156 0.0
C260 C 0.11201 0.58589 0.36987 0.0
C261 C 0.11252 0.5871 0.38684 0.0
C262 C 0.14667 0.62054 0.44592 0.0
C263 C 0.16497 0.64959 0.43607 0.0
C264 C 0.59616 0.18382 0.77637 0.0
C265 C 0.61113 0.19851 0.79136 0.0
C266 C 0.62302 0.18065 0.80094 0.0
C267 C 0.62137 0.15012 0.79527 0.0
H268 H 0.62369 0.04252 0.80353 0.0
H269 H 0.62258 0.99091 0.8139 0.0
H270 H 0.5862 0.94207 0.76743 0.0
H271 H 0.5862 0.99178 0.75752 0.0
H272 H 0.59079 1.02637 0.72657 0.0
H273 H 0.58926 1.02568 0.69714 0.0
H274 H 0.62877 0.13452 0.6971 0.0
H275 H 0.62859 0.13476 0.72656 0.0
H276 H 0.58323 0.14424 0.75899 0.0
H277 H 0.58559 0.19567 0.76876 0.0
H278 H 0.63467 0.19085 0.8126 0.0
H279 H 0.63188 0.13791 0.80267 0.0
N280 N 0.60832 0.08021 0.78032 0.0
N281 N 0.60825 0.05441 0.75538 0.0
N282 N 0.61004 0.1067 0.75548 0.0
C283 C 0.60765 0.05343 0.77186 0.0
C284 C 0.60964 0.08074 0.74708 0.0
C285 C 0.60921 0.10704 0.77197 0.0
C286 C 0.60513 1.02193 0.7796 0.0
C287 C 0.615 1.02054 0.79565 0.0
C288 C 0.61466 0.99089 0.80154 0.0
C289 C 0.60409 0.96163 0.79161 0.0
C290 C 0.59386 0.96324 0.77572 0.0
C291 C 0.59425 0.99244 0.76992 0.0
C292 C 0.60972 0.08061 0.72902 0.0
C293 C 0.59918 0.05019 0.72029 0.0
C294 C 0.59854 0.04986 0.70331 0.0
C295 C 0.60889 0.08004 0.69451 0.0
C296 C 0.61988 0.11056 0.7033 0.0
C297 C 0.62002 0.11078 0.72028 0.0
C298 C 0.60778 0.13662 0.77986 0.0
C299 C 0.5946 0.1538 0.77077 0.0
C300 C 0.72728 0.59534 0.11319 0.0
C301 C 0.72554 0.57258 0.12522 0.0
C302 C 0.69339 0.55179 0.13262 0.0
C303 C 0.66386 0.55256 0.12749 0.0
H304 H 0.56856 0.58679 0.13611 0.0
H305 H 0.51571 0.58401 0.14605 0.0
H306 H 0.46258 0.52685 0.10337 0.0
H307 H 0.51436 0.52924 0.09375 0.0
H308 H 0.55755 0.56241 0.06081 0.0
H309 H 0.55932 0.56532 0.03137 0.0
H310 H 0.66372 0.58662 0.03201 0.0
H311 H 0.66179 0.58298 0.06144 0.0
H312 H 0.70063 0.61294 0.09829 0.0
H313 H 0.75137 0.61268 0.10747 0.0
H314 H 0.69065 0.53383 0.1419 0.0
H315 H 0.63942 0.5351 0.13288 0.0
N316 N 0.60581 0.56601 0.1148 0.0
N317 N 0.58015 0.56529 0.08985 0.0
N318 N 0.63527 0.57322 0.09017 0.0
C319 C 0.57835 0.56326 0.10629 0.0
C320 C 0.60831 0.5703 0.08167 0.0
C321 C 0.63454 0.57099 0.10661 0.0
C322 C 0.54598 0.55819 0.11411 0.0
C323 C 0.54538 0.57306 0.12906 0.0
C324 C 0.51507 0.5718 0.13465 0.0
C325 C 0.48444 0.55517 0.12557 0.0
C326 C 0.48513 0.53949 0.11092 0.0
C327 C 0.51518 0.54104 0.10532 0.0
C328 C 0.60952 0.57242 0.06362 0.0
C329 C 0.58094 0.56772 0.05472 0.0
C330 C 0.58201 0.56958 0.03778 0.0
C331 C 0.61167 0.57623 0.02922 0.0
C332 C 0.64025 0.58096 0.03812 0.0
C333 C 0.63919 0.57907 0.05507 0.0
C334 C 0.66566 0.574 0.11477 0.0
C335 C 0.698 0.59583 0.10801 0.0
C336 C 0.19704 0.52345 0.14732 0.0
C337 C 0.19575 0.55167 0.15377 0.0
C338 C 0.22835 0.52432 0.14504 0.0
C339 C 0.32149 0.57209 0.15674 0.0
H340 H 0.33076 0.52494 0.11949 0.0
C341 C 0.45252 0.58329 0.13789 0.0
C342 C 0.45198 0.5546 0.1308 0.0
C343 C 0.42193 0.58341 0.14135 0.0
C344 C 0.32871 0.53792 0.13011 0.0
H345 H 0.2273 0.60308 0.16296 0.0
H346 H 0.28171 0.60476 0.15885 0.0
H347 H 0.27737 0.5244 0.12408 0.0
H348 H 0.41789 0.50277 0.12273 0.0
H349 H 0.36528 0.50289 0.12877 0.0
H350 H 0.37308 0.58573 0.16268 0.0
C351 C 0.25839 0.58162 0.15571 0.0
C352 C 0.29777 0.5376 0.13277 0.0
C353 C 0.22699 0.58073 0.15801 0.0
C354 C 0.41973 0.52572 0.12782 0.0
C355 C 0.38929 0.52582 0.13127 0.0
C356 C 0.35254 0.57243 0.15406 0.0
C357 C 0.25972 0.55349 0.14908 0.0
C358 C 0.29339 0.55448 0.14619 0.0
C359 C 0.38969 0.55482 0.13786 0.0
C360 C 0.35669 0.55515 0.14074 0.0
H361 H 0.17374 0.50051 0.14394 0.0
H362 H 0.22783 0.5018 0.14021 0.0
H363 H 0.31936 0.58513 0.16732 0.0
H364 H 0.47663 0.60619 0.14027 0.0
H365 H 0.42367 0.60639 0.14631 0.0
C366 C 0.7174 0.16606 0.49256 0.0
C367 C 0.68592 0.16242 0.48759 0.0
C368 C 0.74838 0.1969 0.49024 0.0
C369 C 0.78696 0.27809 0.46594 0.0
H370 H 0.86222 0.30807 0.4961 0.0
C371 C 0.92276 0.38985 0.45022 0.0
C372 C 0.94393 0.41218 0.4625 0.0
C373 C 0.89148 0.3605 0.45383 0.0
C374 C 0.84148 0.3004 0.48756 0.0
H375 H 0.66301 0.18952 0.4765 0.0
H376 H 0.71635 0.24287 0.47271 0.0
H377 H 0.80826 0.25604 0.50152 0.0
H378 H 0.94746 0.42029 0.48848 0.0
H379 H 0.89276 0.36938 0.49478 0.0
H380 H 0.81981 0.32259 0.45212 0.0
C381 C 0.71743 0.22173 0.47814 0.0
C382 C 0.81041 0.27006 0.49059 0.0
C383 C 0.68653 0.19094 0.48044 0.0
C384 C 0.93214 0.40407 0.4786 0.0
C385 C 0.90073 0.37447 0.48224 0.0
C386 C 0.81798 0.3083 0.46291 0.0
C387 C 0.7491 0.22533 0.48286 0.0
C388 C 0.78248 0.2582 0.47981 0.0
C389 C 0.87975 0.35204 0.4699 0.0
C390 C 0.84601 0.32005 0.47359 0.0
H391 H 0.71825 0.14485 0.49806 0.0
H392 H 0.77191 0.19809 0.49393 0.0
H393 H 0.7666 0.27007 0.45716 0.0
H394 H 0.93021 0.39511 0.43763 0.0
H395 H 0.87672 0.34408 0.4439 0.0
C396 C 0.5872 0.68306 0.82641 0.0
C397 C 0.61604 0.68114 0.82139 0.0
C398 C 0.58557 0.71322 0.82441 0.0
C399 C 0.64057 0.80765 0.81466 0.0
H400 H 0.553 0.80147 0.80777 0.0
C401 C 0.62918 0.93083 0.80773 0.0
C402 C 0.60393 0.92958 0.79727 0.0
C403 C 0.63022 0.90099 0.81173 0.0
C404 C 0.57788 0.80401 0.80949 0.0
H405 H 0.66575 0.71028 0.8101 0.0
H406 H 0.66265 0.76183 0.80624 0.0
H407 H 0.5558 0.74992 0.81189 0.0
H408 H 0.55882 0.89442 0.78361 0.0
H409 H 0.56132 0.84363 0.78997 0.0
H410 H 0.66276 0.86164 0.81158 0.0
C411 C 0.64141 0.74049 0.81215 0.0
C412 C 0.57944 0.77405 0.81216 0.0
C413 C 0.64312 0.7105 0.81427 0.0
C414 C 0.57924 0.89712 0.79141 0.0
C415 C 0.58036 0.86747 0.79532 0.0
C416 C 0.63903 0.8376 0.81187 0.0
C417 C 0.61263 0.74264 0.81718 0.0
C418 C 0.61084 0.7751 0.81472 0.0
C419 C 0.60602 0.86864 0.80546 0.0
C420 C 0.60766 0.83649 0.80912 0.0
H421 H 0.56578 0.66124 0.83199 0.0
H422 H 0.56307 0.71342 0.82875 0.0
H423 H 0.66535 0.81025 0.81684 0.0
H424 H 0.64881 0.95503 0.81252 0.0
H425 H 0.65015 0.90346 0.8198 0.0
C426 C 1.0009 0.58577 0.16211 0.0
C427 C 1.00588 0.56019 0.15502 0.0
C428 C 0.97049 0.5867 0.15948 0.0
C429 C 0.89406 0.55209 0.13148 0.0
H430 H 0.85722 0.58581 0.1645 0.0
C431 C 0.78112 0.57492 0.11723 0.0
C432 C 0.75693 0.57004 0.12932 0.0
C433 C 0.81072 0.5734 0.12079 0.0
C434 C 0.86681 0.57596 0.15514 0.0
H435 H 0.98202 0.51551 0.13946 0.0
H436 H 0.92997 0.51731 0.13481 0.0
H437 H 0.90913 0.58361 0.16992 0.0
H438 H 0.74584 0.55923 0.15486 0.0
H439 H 0.79693 0.5557 0.16098 0.0
H440 H 0.85138 0.54344 0.11687 0.0
C441 C 0.94932 0.53681 0.14246 0.0
C442 C 0.89714 0.57516 0.15819 0.0
C443 C 0.97943 0.53566 0.14522 0.0
C444 C 0.76347 0.56302 0.14513 0.0
C445 C 0.79321 0.5614 0.14869 0.0
C446 C 0.86377 0.55277 0.12847 0.0
C447 C 0.94407 0.56225 0.14955 0.0
C448 C 0.91147 0.56327 0.14639 0.0
C449 C 0.81748 0.56658 0.13657 0.0
C450 C 0.84957 0.56492 0.14017 0.0
H451 H 1.02059 0.60526 0.16966 0.0
H452 H 0.96809 0.60713 0.16501 0.0
H453 H 0.90403 0.54315 0.12188 0.0
H454 H 0.77715 0.57969 0.10482 0.0
H455 H 0.82859 0.57806 0.11105 0.0
C456 C 0.46191 0.96446 0.48547 0.0
C457 C 0.49381 0.96624 0.48722 0.0
C458 C 0.43155 0.93298 0.48337 0.0
C459 C 0.39924 0.84189 0.47084 0.0
H460 H 0.31346 0.82748 0.48844 0.0
C461 C 0.26855 0.72655 0.45083 0.0
C462 C 0.24146 0.71085 0.46205 0.0
C463 C 0.29923 0.75636 0.45478 0.0
C464 C 0.33714 0.83077 0.48352 0.0
H465 H 0.51794 0.93524 0.48827 0.0
H466 H 0.46536 0.88069 0.48473 0.0
H467 H 0.36611 0.88098 0.49381 0.0
H468 H 0.22657 0.71482 0.48655 0.0
H469 H 0.28013 0.76673 0.49351 0.0
H470 H 0.3704 0.79165 0.46065 0.0
C471 C 0.46375 0.90374 0.48478 0.0
C472 C 0.36753 0.86187 0.48645 0.0
C473 C 0.49411 0.93525 0.48693 0.0
C474 C 0.24664 0.72587 0.47756 0.0
C475 C 0.27739 0.756 0.48149 0.0
C476 C 0.36887 0.81091 0.46784 0.0
C477 C 0.43182 0.90195 0.48287 0.0
C478 C 0.39922 0.86816 0.48011 0.0
C479 C 0.30427 0.77194 0.47014 0.0
C480 C 0.33712 0.80475 0.47402 0.0
H481 H 0.46032 0.98754 0.48555 0.0
H482 H 0.40788 0.93315 0.48176 0.0
H483 H 0.42274 0.84544 0.46556 0.0
H484 H 0.26607 0.71578 0.43884 0.0
H485 H 0.31879 0.76763 0.44556 0.0
C486 C 0.58988 0.45705 0.82626 0.0
C487 C 0.61963 0.48886 0.82385 0.0
C488 C 0.58989 0.42612 0.82383 0.0
C489 C 0.64148 0.39068 0.80403 0.0
H490 H 0.58025 0.30888 0.82768 0.0
C491 C 0.62164 0.25786 0.78471 0.0
C492 C 0.61465 0.23252 0.79639 0.0
C493 C 0.62325 0.28885 0.78884 0.0
C494 C 0.59784 0.33144 0.82102 0.0
H495 H 0.67317 0.51235 0.81747 0.0
H496 H 0.67362 0.45891 0.81426 0.0
H497 H 0.58123 0.36221 0.83368 0.0
H498 H 0.60453 0.22133 0.82194 0.0
H499 H 0.60784 0.27549 0.82922 0.0
H500 H 0.65866 0.36027 0.79162 0.0
C501 C 0.64973 0.45769 0.81721 0.0
C502 C 0.59808 0.36224 0.82433 0.0
C503 C 0.64958 0.48858 0.8193 0.0
C504 C 0.61006 0.23992 0.81252 0.0
C505 C 0.61158 0.27106 0.81668 0.0
C506 C 0.64127 0.35998 0.80074 0.0
C507 C 0.6198 0.42574 0.8191 0.0
C508 C 0.61981 0.39256 0.81586 0.0
C509 C 0.61809 0.29616 0.80488 0.0
C510 C 0.61925 0.32956 0.80905 0.0
H511 H 0.56621 0.45597 0.82967 0.0
H512 H 0.56608 0.40246 0.82532 0.0
H513 H 0.65839 0.41289 0.79698 0.0
H514 H 0.62597 0.25386 0.77219 0.0
H515 H 0.62793 0.30684 0.77924 0.0
C516 C 0.5977 0.84986 0.50851 0.0
C517 C 0.57762 0.86469 0.51222 0.0
C518 C 0.58632 0.81593 0.51221 0.0
C519 C 0.53578 0.75235 0.54176 0.0
H520 H 0.5624 0.69887 0.51499 0.0
C521 C 0.57617 0.64084 0.54498 0.0
C522 C 0.5982 0.65481 0.55833 0.0
C523 C 0.55738 0.65567 0.53946 0.0
C524 C 0.55377 0.71271 0.52255 0.0
H525 H 0.52922 0.85501 0.52234 0.0
H526 H 0.50972 0.79553 0.52929 0.0
H527 H 0.55937 0.74626 0.50318 0.0
H528 H 0.61597 0.6938 0.57703 0.0
H529 H 0.58378 0.71973 0.5674 0.0
H530 H 0.53174 0.71973 0.56133 0.0
C531 C 0.53421 0.81041 0.52338 0.0
C532 C 0.55241 0.74014 0.51579 0.0
C533 C 0.54551 0.84448 0.51952 0.0
C534 C 0.59904 0.68221 0.56679 0.0
C535 C 0.58036 0.69702 0.56128 0.0
C536 C 0.53699 0.72476 0.54852 0.0
C537 C 0.55467 0.79592 0.51985 0.0
C538 C 0.54553 0.76148 0.52557 0.0
C539 C 0.56037 0.6848 0.54718 0.0
C540 C 0.54812 0.70603 0.53922 0.0
H541 H 0.62288 0.86477 0.50325 0.0
H542 H 0.60313 0.80582 0.50973 0.0
H543 H 0.5302 0.76823 0.54958 0.0
H544 H 0.57446 0.61926 0.53842 0.0
H545 H 0.54181 0.64534 0.52871 0.0
C546 C 0.73568 0.50216 0.79231 0.0
C547 C 0.76045 0.53552 0.78802 0.0
C548 C 0.74515 0.47797 0.79594 0.0
C549 C 0.82079 0.48202 0.81349 0.0
H550 H 0.76276 0.38387 0.81614 0.0
C551 C 0.83894 0.41051 0.86467 0.0
C552 C 0.84256 0.38237 0.86043 0.0
C553 C 0.8256 0.42393 0.85363 0.0
C554 C 0.77933 0.41122 0.81536 0.0
H555 H 0.81351 0.56788 0.78136 0.0
H556 H 0.83 0.52531 0.78717 0.0
H557 H 0.74822 0.41633 0.79728 0.0
H558 H 0.83161 0.34416 0.84185 0.0
H559 H 0.80872 0.36821 0.82239 0.0
H560 H 0.85163 0.47717 0.8316 0.0
C561 C 0.80346 0.51832 0.78853 0.0
C562 C 0.77101 0.42982 0.80462 0.0
C563 C 0.79403 0.5427 0.78514 0.0
C564 C 0.82976 0.36625 0.84537 0.0
C565 C 0.81646 0.37984 0.83427 0.0
C566 C 0.82901 0.46353 0.82415 0.0
C567 C 0.77959 0.48655 0.7951 0.0
C568 C 0.79124 0.4656 0.80386 0.0
C569 C 0.81573 0.40972 0.83807 0.0
C570 C 0.80785 0.42814 0.82558 0.0
H571 H 0.70951 0.49564 0.79442 0.0
H572 H 0.72597 0.45379 0.80088 0.0
H573 H 0.83676 0.50949 0.81351 0.0
H574 H 0.84867 0.42382 0.87605 0.0
H575 H 0.82454 0.44653 0.85702 0.0
C576 C 0.32842 0.74287 0.1819 0.0
C577 C 0.30649 0.73345 0.16847 0.0
C578 C 0.36271 0.76791 0.18041 0.0
C579 C 0.43747 0.81866 0.17326 0.0
H580 H 0.43926 0.89914 0.15633 0.0
C581 C 0.51949 0.97625 0.17408 0.0
C582 C 0.52761 0.98006 0.19068 0.0
C583 C 0.50291 0.94395 0.16692 0.0
C584 C 0.43999 0.87701 0.16067 0.0
H585 H 0.30364 0.74117 0.14275 0.0
H586 H 0.36358 0.78509 0.14019 0.0
H587 H 0.38978 0.84388 0.15169 0.0
H588 H 0.52861 0.9532 0.21217 0.0
H589 H 0.49764 0.89701 0.2001 0.0
H590 H 0.48738 0.8521 0.18274 0.0
C591 C 0.35422 0.77309 0.15184 0.0
C592 C 0.41135 0.84515 0.15802 0.0
C593 C 0.31998 0.74789 0.1533 0.0
C594 C 0.52163 0.95114 0.19951 0.0
C595 C 0.5044 0.91879 0.19244 0.0
C596 C 0.46646 0.8506 0.17573 0.0
C597 C 0.37561 0.78413 0.16549 0.0
C598 C 0.40914 0.81587 0.16493 0.0
C599 C 0.49333 0.91465 0.17625 0.0
C600 C 0.46734 0.88037 0.17016 0.0
H601 H 0.31877 0.73176 0.19368 0.0
H602 H 0.37849 0.77611 0.19118 0.0
H603 H 0.43656 0.79636 0.17852 0.0
H604 H 0.52378 0.99784 0.1668 0.0
H605 H 0.49576 0.94186 0.15428 0.0
C606 C 0.64217 0.27465 0.48124 0.0
C607 C 0.6088 0.25897 0.475 0.0
C608 C 0.66311 0.30994 0.4807 0.0
C609 C 0.70746 0.38543 0.47464 0.0
H610 H 0.66082 0.43293 0.48923 0.0
C611 C 0.73096 0.5231 0.50145 0.0
C612 C 0.75431 0.52778 0.51382 0.0
C613 C 0.71899 0.49528 0.49094 0.0
C614 C 0.67434 0.42043 0.48474 0.0
H615 H 0.57194 0.2678 0.46241 0.0
H616 H 0.6088 0.32962 0.4612 0.0
H617 H 0.62775 0.37365 0.48134 0.0
H618 H 0.78645 0.50907 0.52348 0.0
H619 H 0.76445 0.45969 0.50557 0.0
H620 H 0.75422 0.4321 0.47899 0.0
C621 C 0.61851 0.31458 0.46679 0.0
C622 C 0.65527 0.38628 0.4802 0.0
C623 C 0.59747 0.27919 0.46739 0.0
C624 C 0.76785 0.50578 0.51436 0.0
C625 C 0.75556 0.47769 0.50393 0.0
C626 C 0.72661 0.41969 0.47925 0.0
C627 C 0.65127 0.33042 0.4738 0.0
C628 C 0.67158 0.36804 0.4756 0.0
C629 C 0.72971 0.47123 0.49267 0.0
C630 C 0.71023 0.43725 0.48482 0.0
H631 H 0.65197 0.25966 0.48682 0.0
H632 H 0.68801 0.32121 0.48636 0.0
H633 H 0.72078 0.37222 0.47087 0.0
H634 H 0.71974 0.53929 0.50061 0.0
H635 H 0.6996 0.49138 0.48215 0.0
C636 C 0.39151 0.56973 0.84024 0.0
C637 C 0.40423 0.55812 0.82771 0.0
C638 C 0.35867 0.56524 0.8392 0.0
C639 C 0.27795 0.50252 0.82155 0.0
H640 H 0.24415 0.55474 0.84442 0.0
C641 C 0.15367 0.44093 0.85724 0.0
C642 C 0.13251 0.45535 0.85688 0.0
C643 C 0.18507 0.45676 0.8493 0.0
C644 C 0.25313 0.54012 0.83771 0.0
H645 H 0.39452 0.53646 0.80354 0.0
H646 H 0.33726 0.52896 0.80161 0.0
H647 H 0.3048 0.58147 0.83761 0.0
H648 H 0.12711 0.49723 0.8478 0.0
H649 H 0.1826 0.52532 0.83401 0.0
H650 H 0.22666 0.4608 0.82225 0.0
C651 C 0.35223 0.54072 0.8124 0.0
C652 C 0.28786 0.55533 0.83393 0.0
C653 C 0.38496 0.54503 0.81348 0.0
C654 C 0.14295 0.48553 0.84814 0.0
C655 C 0.17466 0.50165 0.84035 0.0
C656 C 0.24338 0.48736 0.82538 0.0
C657 C 0.3381 0.54919 0.82557 0.0
C658 C 0.30082 0.53626 0.82635 0.0
C659 C 0.19609 0.48751 0.84098 0.0
C660 C 0.23091 0.50558 0.83405 0.0
H661 H 0.40581 0.57981 0.85136 0.0
H662 H 0.34851 0.57183 0.84962 0.0
H663 H 0.28704 0.48695 0.81584 0.0
H664 H 0.14608 0.4176 0.86383 0.0
H665 H 0.20129 0.44554 0.85017 0.0
C666 C 0.8863 0.44427 0.1458 0.0
C667 C 0.89541 0.4221 0.13821 0.0
C668 C 0.85236 0.4366 0.1462 0.0
C669 C 0.76442 0.37493 0.13154 0.0
H670 H 0.7404 0.38104 0.17604 0.0
C671 C 0.6474 0.27182 0.1629 0.0
C672 C 0.63419 0.27926 0.17679 0.0
C673 C 0.67351 0.29791 0.15401 0.0
C674 C 0.74636 0.37993 0.16342 0.0
H675 H 0.87623 0.37523 0.12442 0.0
H676 H 0.81672 0.36104 0.12563 0.0
H677 H 0.79954 0.41189 0.16787 0.0
H678 H 0.63519 0.32007 0.19106 0.0
H679 H 0.68109 0.36586 0.17549 0.0
H680 H 0.71105 0.34104 0.12747 0.0
C681 C 0.83593 0.38494 0.13089 0.0
C682 C 0.78051 0.39767 0.15871 0.0
C683 C 0.87004 0.39291 0.13029 0.0
C684 C 0.64538 0.31352 0.18063 0.0
C685 C 0.67158 0.33972 0.17169 0.0
C686 C 0.73013 0.35715 0.13626 0.0
C687 C 0.82658 0.40617 0.13931 0.0
C688 C 0.7901 0.39408 0.14293 0.0
C689 C 0.68712 0.33208 0.1588 0.0
C690 C 0.72096 0.35812 0.15247 0.0
H691 H 0.90529 0.46712 0.15189 0.0
H692 H 0.84613 0.45383 0.15252 0.0
H693 H 0.77095 0.37227 0.11919 0.0
H694 H 0.63972 0.24578 0.15964 0.0
H695 H 0.68503 0.29097 0.14428 0.0
C696 C 0.1037 0.53913 0.10714 0.0
C697 C 0.09801 0.56477 0.11335 0.0
C698 C 0.09331 0.5266 0.09147 0.0
C699 C 1.0337 0.51848 0.05919 0.0
H700 H 0.09357 0.50085 0.03218 0.0
C701 C 0.9904 0.44159 -0.00102 0.0
C702 C 1.01396 0.45341 0.98614 0.0
C703 C 1.00001 0.45651 0.01437 0.0
C704 C 0.07664 0.50587 0.03951 0.0
H705 H 0.07723 0.59766 0.10813 0.0
H706 H 1.05924 0.57592 0.08055 0.0
H707 H 0.1123 0.52518 0.0591 0.0
H708 H 0.06545 0.49129 0.97916 0.0
H709 H 0.08213 0.51717 0.00591 0.0
H710 H 0.99815 0.49939 0.03946 0.0
C711 C 0.07145 0.56528 0.08788 0.0
C712 C 0.08724 0.51948 0.055 0.0
C713 C 0.08198 0.57792 0.10358 0.0
C714 C 1.04695 0.48104 0.9889 0.0
C715 C 1.05651 0.49591 0.00422 0.0
C716 C 1.02302 0.50472 0.04367 0.0
C717 C 0.07699 0.53946 0.08167 0.0
C718 C 0.06587 0.52584 0.06504 0.0
C719 C 1.03333 0.48355 0.01719 0.0
C720 C 1.0444 0.49828 0.03366 0.0
H721 H 0.11598 0.52852 0.11445 0.0
H722 H 0.09757 0.50642 0.08712 0.0
H723 H 1.01655 0.52282 0.06671 0.0
H724 H 0.96486 0.42024 -0.00275 0.0
H725 H 0.98165 0.44625 0.02416 0.0
C726 C 0.57192 0.06999 0.43908 0.0
C727 C 0.6042 0.07875 0.44524 0.0
C728 C 0.56872 0.08026 0.42361 0.0
C729 C 0.61575 0.14193 0.3913 0.0
H730 H 0.54491 0.07381 0.36378 0.0
C731 C 0.60728 0.15847 0.32217 0.0
C732 C 0.57462 0.14355 0.31519 0.0
C733 C 0.61107 0.15398 0.33863 0.0
C734 C 0.56445 0.09336 0.37138 0.0
H735 H 0.65851 0.10546 0.44028 0.0
H736 H 0.65293 0.12332 0.41303 0.0
H737 H 0.55148 0.05908 0.39127 0.0
H738 H 0.52034 0.11438 0.32005 0.0
H739 H 0.52682 0.10717 0.34882 0.0
H740 H 0.62874 0.17621 0.37131 0.0
C741 C 0.63014 0.10872 0.42024 0.0
C742 C 0.56827 0.08485 0.38712 0.0
C743 C 0.63332 0.0983 0.43575 0.0
C744 C 0.54581 0.12572 0.32511 0.0
C745 C 0.54957 0.12147 0.34155 0.0
C746 C 0.61183 0.15053 0.37552 0.0
C747 C 0.59775 0.09953 0.41397 0.0
C748 C 0.59393 0.109 0.39727 0.0
C749 C 0.58224 0.13466 0.34841 0.0
C750 C 0.58609 0.12631 0.36537 0.0
H751 H 0.54905 0.05496 0.44618 0.0
H752 H 0.54347 0.07316 0.41919 0.0
H753 H 0.63557 0.16115 0.39891 0.0
H754 H 0.62992 0.17209 0.31475 0.0
H755 H 0.63659 0.16428 0.34348 0.0
C756 C 0.60788 0.53562 0.77555 0.0
C757 C 0.61492 0.56674 0.78259 0.0
C758 C 0.62589 0.53515 0.76186 0.0
C759 C 0.70563 0.58772 0.7393 0.0
H760 H 0.65517 0.53247 0.70235 0.0
C761 C 0.75345 0.61873 0.67392 0.0
C762 C 0.74208 0.59236 0.6624 0.0
C763 C 0.7433 0.61153 0.69007 0.0
C764 C 0.66988 0.54744 0.71266 0.0
H765 H 0.64508 0.62166 0.78066 0.0
H766 H 0.67647 0.62092 0.75667 0.0
H767 H 0.62535 0.52766 0.72763 0.0
H768 H 0.71371 0.53752 0.65903 0.0
H769 H 0.69673 0.52486 0.68735 0.0
H770 H 0.75005 0.60818 0.7242 0.0
C771 C 0.65761 0.59691 0.76189 0.0
C772 C 0.65269 0.54477 0.72713 0.0
C773 C 0.63953 0.59735 0.77553 0.0
C774 C 0.72294 0.55842 0.66763 0.0
C775 C 0.71285 0.55119 0.68381 0.0
C776 C 0.72289 0.59029 0.72484 0.0
C777 C 0.65119 0.5658 0.75501 0.0
C778 C 0.67021 0.5656 0.74042 0.0
C779 C 0.72168 0.57775 0.69506 0.0
C780 C 0.70502 0.57088 0.71121 0.0
H781 H 0.58914 0.51165 0.78087 0.0
H782 H 0.62048 0.51083 0.7568 0.0
H783 H 0.71986 0.60357 0.7495 0.0
H784 H 0.76863 0.64512 0.67027 0.0
H785 H 0.75051 0.63266 0.69836 0.0
C786 C 0.59961 0.1102 0.54681 0.0
C787 C 0.59622 0.0833 0.53692 0.0
C788 C 0.60122 0.1085 0.56367 0.0
C789 C 0.62275 0.06971 0.59707 0.0
H790 H 0.56298 0.09068 0.62225 0.0
C791 C 0.61404 0.05676 0.66726 0.0
C792 C 0.60787 0.07963 0.67631 0.0
C793 C 0.61245 0.05602 0.65028 0.0
C794 C 0.58034 0.0853 0.61551 0.0
H795 H 0.59285 1.03388 0.537 0.0
H796 H 0.59659 1.03129 0.56661 0.0
H797 H 0.56152 0.09198 0.59283 0.0
H798 H 0.59502 0.11968 0.67415 0.0
H799 H 0.59417 0.11973 0.64483 0.0
H800 H 0.6425 0.06415 0.61967 0.0
C801 C 0.59765 0.05356 0.56122 0.0
C802 C 0.57928 0.08583 0.59857 0.0
C803 C 0.59547 0.055 0.54429 0.0
C804 C 0.60045 0.10198 0.66777 0.0
C805 C 0.59932 0.10157 0.65081 0.0
C806 C 0.62422 0.06969 0.61405 0.0
C807 C 0.60002 0.0801 0.57111 0.0
C808 C 0.60056 0.07822 0.58914 0.0
C809 C 0.60504 0.07842 0.64175 0.0
C810 C 0.60315 0.07768 0.62357 0.0
H811 H 0.60037 0.13242 0.54154 0.0
H812 H 0.60346 0.12954 0.57092 0.0
H813 H 0.63965 0.06398 0.59013 0.0
H814 H 0.62038 1.03944 0.67324 0.0
H815 H 0.61664 1.03751 0.64388 0.0
C816 C 0.65376 0.62819 0.88244 0.0
C817 C 0.63427 0.6002 0.87221 0.0
C818 C 0.64944 0.62515 0.89926 0.0
C819 C 0.61672 0.56083 0.93209 0.0
H820 H 0.62409 0.63603 0.95788 0.0
C821 C 0.62974 0.56479 0.00201 0.0
C822 C 0.6128 0.57825 0.01113 0.0
C823 C 0.63096 0.56684 0.98508 0.0
C824 C 0.62163 0.61462 0.95089 0.0
H825 H 0.59436 0.54721 0.87158 0.0
H826 H 0.58646 0.5419 0.90096 0.0
H827 H 0.62742 0.64051 0.92847 0.0
H828 H 0.58403 0.60471 0.00936 0.0
H829 H 0.58553 0.60763 0.97988 0.0
H830 H 0.61039 0.53473 0.95451 0.0
C831 C 0.60554 0.56613 0.89601 0.0
C832 C 0.62396 0.61736 0.93398 0.0
C833 C 0.6099 0.5692 0.87916 0.0
C834 C 0.59701 0.59373 0.00279 0.0
C835 C 0.59823 0.59578 0.98585 0.0
C836 C 0.61439 0.55809 0.94901 0.0
C837 C 0.62544 0.59401 0.90632 0.0
C838 C 0.62173 0.59059 0.92433 0.0
C839 C 0.61527 0.58242 0.97674 0.0
C840 C 0.61699 0.58501 0.95866 0.0
H841 H 0.67278 0.65242 0.87745 0.0
H842 H 0.66554 0.64706 0.90676 0.0
H843 H 0.61522 0.5398 0.92512 0.0
H844 H 0.64186 0.55233 0.00796 0.0
H845 H 0.64465 0.55659 0.97853 0.0
C846 C 0.09508 0.51311 0.21452 0.0
C847 C 0.09179 0.53607 0.20434 0.0
C848 C 0.09456 0.5162 0.23137 0.0
C849 C 0.1084 0.57669 0.26453 0.0
H850 H 1.05467 0.49457 0.28953 0.0
C851 C 0.09116 0.58051 0.33418 0.0
C852 C 0.09001 0.55401 0.34348 0.0
C853 C 0.09087 0.57898 0.31721 0.0
C854 C 0.07023 0.51776 0.28281 0.0
H855 H 0.08605 0.58077 0.20387 0.0
H856 H 0.08551 0.58646 0.23344 0.0
H857 H 1.05557 0.49111 0.26012 0.0
H858 H 0.08844 0.50545 0.3421 0.0
H859 H 0.08853 0.50299 0.31263 0.0
H860 H 0.12361 0.6033 0.28722 0.0
C861 C 0.08841 0.56598 0.22833 0.0
C862 C 0.07063 0.51575 0.2659 0.0
C863 C 0.08859 0.56266 0.21141 0.0
C864 C 0.08879 0.52606 0.33534 0.0
C865 C 0.08875 0.52463 0.31839 0.0
C866 C 0.10823 0.57869 0.28149 0.0
C867 C 0.09105 0.54255 0.23852 0.0
C868 C 0.08987 0.54514 0.25652 0.0
C869 C 0.08964 0.551 0.30904 0.0
C870 C 0.08929 0.54919 0.2909 0.0
H871 H 0.09773 0.49242 0.20946 0.0
H872 H 0.09717 0.49803 0.23882 0.0
H873 H 0.12375 0.59978 0.25769 0.0
H874 H 0.0917 0.60224 0.34004 0.0
H875 H 0.09104 0.59955 0.31051 0.0
loop_
_geom_bond_atom_site_label_1
_geom_bond_atom_site_label_2
_geom_bond_distance
_geom_bond_site_symmetry_2
_ccdc_geom_bond_type
C0 Eu1 2.835 1_655 S
C0 C2 1.500 . S
C0 O20 1.257 . S
C0 O21 1.260 . S
Eu1 C0 2.835 1_455 S
Eu1 O20 2.473 1_455 S
Eu1 O21 2.480 1_455 S
Eu1 O22 2.430 . S
Eu1 O23 2.670 . S
Eu1 O24 2.394 1_455 S
Eu1 O29 2.355 . S
Eu1 O31 2.374 . S
C2 C0 1.500 . S
C2 C3 1.377 . S
C2 C7 1.377 . S
C3 C2 1.377 . S
C3 C4 1.395 . S
C3 H32 0.931 . S
C4 C3 1.395 . S
C4 C5 1.383 . S
C4 H33 0.931 . S
C5 C4 1.383 . S
C5 C6 1.394 . S
C6 C5 1.394 . S
C6 C7 1.378 . S
C6 H34 0.931 . S
C7 C2 1.377 . S
C7 C6 1.378 . S
C7 H35 0.931 . S
C8 O22 1.259 . S
C8 O23 1.270 . S
C9 O24 1.251 . S
C9 O25 1.251 . S
C10 Eu11 2.835 . S
C10 C12 1.500 . S
C10 O26 1.257 . S
C10 O27 1.260 . S
Eu11 C10 2.835 . S
Eu11 O23 2.355 . S
Eu11 O25 2.374 1_455 S
Eu11 O26 2.473 . S
Eu11 O27 2.480 . S
Eu11 O28 2.430 . S
Eu11 O29 2.670 . S
Eu11 O30 2.394 . S
C12 C10 1.500 . S
C12 C13 1.377 . S
C12 C17 1.377 . S
C13 C12 1.377 . S
C13 C14 1.395 . S
C13 H36 0.931 . S
C14 C13 1.395 . S
C14 C15 1.383 . S
C14 H37 0.931 . S
C15 C14 1.383 . S
C15 C16 1.394 . S
C16 C15 1.394 . S
C16 C17 1.378 . S
C16 H38 0.931 . S
C17 C12 1.377 . S
C17 C16 1.378 . S
C17 H39 0.931 . S
C18 O28 1.259 . S
C18 O29 1.270 . S
C19 O30 1.251 . S
C19 O31 1.251 . S
O20 C0 1.257 . S
O20 Eu1 2.473 1_655 S
O21 C0 1.260 . S
O21 Eu1 2.480 1_655 S
O22 Eu1 2.430 . S
O22 C8 1.259 . S
O23 Eu1 2.670 . S
O23 C8 1.270 . S
O23 Eu11 2.355 . S
O24 Eu1 2.394 1_655 S
O24 C9 1.251 . S
O25 C9 1.251 . S
O25 Eu11 2.374 1_655 S
O26 C10 1.257 . S
O26 Eu11 2.473 . S
O27 C10 1.260 . S
O27 Eu11 2.480 . S
O28 Eu11 2.430 . S
O28 C18 1.259 . S
O29 Eu1 2.355 . S
O29 Eu11 2.670 . S
O29 C18 1.270 . S
O30 Eu11 2.394 . S
O30 C19 1.251 . S
O31 Eu1 2.374 . S
O31 C19 1.251 . S
H32 C3 0.931 . S
H33 C4 0.931 . S
H34 C6 0.931 . S
H35 C7 0.931 . S
H36 C13 0.931 . S
H37 C14 0.931 . S
H38 C16 0.931 . S
H39 C17 0.931 . S
C40 Eu41 2.835 . S
C40 C42 1.500 . S
C40 O60 1.257 . S
C40 O61 1.260 . S
Eu41 C40 2.835 . S
Eu41 O60 2.473 . S
Eu41 O61 2.480 . S
Eu41 O62 2.430 . S
Eu41 O63 2.670 . S
Eu41 O64 2.394 . S
Eu41 O69 2.355 . S
Eu41 O71 2.374 1_545 S
C42 C40 1.500 . S
C42 C43 1.377 . S
C42 C47 1.377 . S
C43 C42 1.377 . S
C43 C44 1.395 . S
C43 H72 0.931 . S
C44 C43 1.395 . S
C44 C45 1.383 . S
C44 H73 0.931 . S
C45 C44 1.383 . S
C45 C46 1.394 . S
C46 C45 1.394 . S
C46 C47 1.378 . S
C46 H74 0.931 . S
C47 C42 1.377 . S
C47 C46 1.378 . S
C47 H75 0.931 . S
C48 O62 1.259 . S
C48 O63 1.270 . S
C49 O64 1.251 . S
C49 O65 1.251 . S
C50 Eu51 2.835 1_565 S
C50 C52 1.500 . S
C50 O66 1.257 . S
C50 O67 1.260 . S
Eu51 C50 2.835 1_545 S
Eu51 O63 2.355 . S
Eu51 O65 2.374 . S
Eu51 O66 2.473 1_545 S
Eu51 O67 2.480 1_545 S
Eu51 O68 2.430 . S
Eu51 O69 2.670 . S
Eu51 O70 2.394 1_545 S
C52 C50 1.500 . S
C52 C53 1.377 . S
C52 C57 1.377 . S
C53 C52 1.377 . S
C53 C54 1.395 . S
C53 H76 0.931 . S
C54 C53 1.395 . S
C54 C55 1.383 . S
C54 H77 0.931 . S
C55 C54 1.383 . S
C55 C56 1.394 . S
C56 C55 1.394 . S
C56 C57 1.378 . S
C56 H78 0.931 . S
C57 C52 1.377 . S
C57 C56 1.378 . S
C57 H79 0.931 . S
C58 O68 1.259 . S
C58 O69 1.270 . S
C59 O70 1.251 . S
C59 O71 1.251 . S
O60 C40 1.257 . S
O60 Eu41 2.473 . S
O61 C40 1.260 . S
O61 Eu41 2.480 . S
O62 Eu41 2.430 . S
O62 C48 1.259 . S
O63 Eu41 2.670 . S
O63 C48 1.270 . S
O63 Eu51 2.355 . S
O64 Eu41 2.394 . S
O64 C49 1.251 . S
O65 C49 1.251 . S
O65 Eu51 2.374 . S
O66 C50 1.257 . S
O66 Eu51 2.473 1_565 S
O67 C50 1.260 . S
O67 Eu51 2.480 1_565 S
O68 Eu51 2.430 . S
O68 C58 1.259 . S
O69 Eu41 2.355 . S
O69 Eu51 2.670 . S
O69 C58 1.270 . S
O70 Eu51 2.394 1_565 S
O70 C59 1.251 . S
O71 Eu41 2.374 1_565 S
O71 C59 1.251 . S
H72 C43 0.931 . S
H73 C44 0.931 . S
H74 C46 0.931 . S
H75 C47 0.931 . S
H76 C53 0.931 . S
H77 C54 0.931 . S
H78 C56 0.931 . S
H79 C57 0.931 . S
C80 Eu81 2.835 . S
C80 C82 1.500 . S
C80 O100 1.257 . S
C80 O101 1.260 . S
Eu81 C80 2.835 . S
Eu81 O100 2.473 . S
Eu81 O101 2.480 . S
Eu81 O102 2.430 . S
Eu81 O103 2.670 . S
Eu81 O104 2.394 . S
Eu81 O109 2.355 . S
Eu81 O111 2.374 . S
C82 C80 1.500 . S
C82 C83 1.377 . S
C82 C87 1.377 . S
C83 C82 1.377 . S
C83 C84 1.395 . S
C83 H112 0.931 . S
C84 C83 1.395 . S
C84 C85 1.383 . S
C84 H113 0.931 . S
C85 C84 1.383 . S
C85 C86 1.394 . S
C86 C85 1.394 . S
C86 C87 1.378 . S
C86 H114 0.931 . S
C87 C82 1.377 . S
C87 C86 1.378 . S
C87 H115 0.931 . S
C88 O102 1.259 . S
C88 O103 1.270 . S
C89 O104 1.251 . S
C89 O105 1.251 . S
C90 Eu91 2.835 . S
C90 C92 1.500 . S
C90 O106 1.257 . S
C90 O107 1.260 . S
Eu91 C90 2.835 . S
Eu91 O103 2.355 . S
Eu91 O105 2.374 . S
Eu91 O106 2.473 . S
Eu91 O107 2.480 . S
Eu91 O108 2.430 . S
Eu91 O109 2.670 . S
Eu91 O110 2.394 . S
C92 C90 1.500 . S
C92 C93 1.377 . S
C92 C97 1.377 . S
C93 C92 1.377 . S
C93 C94 1.395 . S
C93 H116 0.931 . S
C94 C93 1.395 . S
C94 C95 1.383 . S
C94 H117 0.931 . S
C95 C94 1.383 . S
C95 C96 1.394 . S
C96 C95 1.394 . S
C96 C97 1.378 . S
C96 H118 0.931 . S
C97 C92 1.377 . S
C97 C96 1.378 . S
C97 H119 0.931 . S
C98 O108 1.259 . S
C98 O109 1.270 . S
C99 O110 1.251 . S
C99 O111 1.251 . S
O100 C80 1.257 . S
O100 Eu81 2.473 . S
O101 C80 1.260 . S
O101 Eu81 2.480 . S
O102 Eu81 2.430 . S
O102 C88 1.259 . S
O103 Eu81 2.670 . S
O103 C88 1.270 . S
O103 Eu91 2.355 . S
O104 Eu81 2.394 . S
O104 C89 1.251 . S
O105 C89 1.251 . S
O105 Eu91 2.374 . S
O106 C90 1.257 . S
O106 Eu91 2.473 . S
O107 C90 1.260 . S
O107 Eu91 2.480 . S
O108 Eu91 2.430 . S
O108 C98 1.259 . S
O109 Eu81 2.355 . S
O109 Eu91 2.670 . S
O109 C98 1.270 . S
O110 Eu91 2.394 . S
O110 C99 1.251 . S
O111 Eu81 2.374 . S
O111 C99 1.251 . S
H112 C83 0.931 . S
H113 C84 0.931 . S
H114 C86 0.931 . S
H115 C87 0.931 . S
H116 C93 0.931 . S
H117 C94 0.931 . S
H118 C96 0.931 . S
H119 C97 0.931 . S
C120 C121 1.384 . S
C120 H133 0.947 . S
C120 C155 1.382 . S
C121 C120 1.384 . S
C121 C122 1.378 . S
C122 C121 1.378 . S
C122 C123 1.378 . S
C122 H134 0.952 . S
C123 C122 1.378 . S
C123 H135 0.950 1_565 S
C123 C154 1.382 1_565 S
H124 C143 0.947 . S
H125 C144 0.946 . S
H126 C146 0.953 . S
H127 C147 0.945 . S
H128 C149 0.952 . S
H129 C150 0.949 . S
H130 C152 0.950 . S
H131 C153 0.970 . S
H132 C155 0.951 . S
H133 C120 0.947 . S
H134 C122 0.952 . S
H135 C123 0.950 1_545 S
N136 C139 1.382 . S
N136 C141 1.363 . S
N137 C139 1.371 . S
N137 C140 1.372 . S
N138 C140 1.361 . S
N138 C141 1.377 . S
C139 N136 1.382 . S
C139 N137 1.371 . S
C139 C142 1.480 . S
C140 N137 1.372 . S
C140 N138 1.361 . S
C140 C148 1.457 . S
C141 N136 1.363 . S
C141 N138 1.377 . S
C141 C154 1.485 . S
C142 C139 1.480 . S
C142 C143 1.383 . S
C142 C147 1.385 . S
C143 H124 0.947 . S
C143 C142 1.383 . S
C143 C144 1.388 . S
C144 H125 0.946 . S
C144 C143 1.388 . S
C144 C145 1.384 . S
C145 C144 1.384 . S
C145 C146 1.377 . S
C146 H126 0.953 . S
C146 C145 1.377 . S
C146 C147 1.369 . S
C147 H127 0.945 . S
C147 C142 1.385 . S
C147 C146 1.369 . S
C148 C140 1.457 . S
C148 C149 1.372 . S
C148 C153 1.364 . S
C149 H128 0.952 . S
C149 C148 1.372 . S
C149 C150 1.389 . S
C150 H129 0.949 . S
C150 C149 1.389 . S
C150 C151 1.387 . S
C151 C150 1.387 . S
C151 C152 1.372 . S
C152 H130 0.950 . S
C152 C151 1.372 . S
C152 C153 1.379 . S
C153 H131 0.970 . S
C153 C148 1.364 . S
C153 C152 1.379 . S
C154 C123 1.382 1_545 S
C154 C141 1.485 . S
C154 C155 1.392 1_545 S
C155 C120 1.382 . S
C155 H132 0.951 . S
C155 C154 1.392 1_565 S
C156 C157 1.384 . S
C156 H169 0.947 . S
C156 C191 1.382 . S
C157 C156 1.384 . S
C157 C158 1.378 . S
C158 C157 1.378 . S
C158 C159 1.378 . S
C158 H170 0.952 . S
C159 C158 1.378 . S
C159 H171 0.950 . S
C159 C190 1.383 . S
H160 C179 0.947 . S
H161 C180 0.946 . S
H162 C182 0.953 . S
H163 C183 0.945 . S
H164 C185 0.952 . S
H165 C186 0.949 . S
H166 C188 0.950 . S
H167 C189 0.948 . S
H168 C191 0.951 . S
H169 C156 0.947 . S
H170 C158 0.952 . S
H171 C159 0.950 . S
N172 C175 1.382 . S
N172 C177 1.363 . S
N173 C175 1.371 . S
N173 C176 1.372 . S
N174 C176 1.361 . S
N174 C177 1.377 . S
C175 N172 1.382 . S
C175 N173 1.371 . S
C175 C178 1.480 . S
C176 N173 1.372 . S
C176 N174 1.361 . S
C176 C184 1.457 . S
C177 N172 1.363 . S
C177 N174 1.377 . S
C177 C190 1.479 . S
C178 C175 1.480 . S
C178 C179 1.383 . S
C178 C183 1.385 . S
C179 H160 0.947 . S
C179 C178 1.383 . S
C179 C180 1.388 . S
C180 H161 0.946 . S
C180 C179 1.388 . S
C180 C181 1.384 . S
C181 C180 1.384 . S
C181 C182 1.377 . S
C182 H162 0.953 . S
C182 C181 1.377 . S
C182 C183 1.369 . S
C183 H163 0.945 . S
C183 C178 1.385 . S
C183 C182 1.369 . S
C184 C176 1.457 . S
C184 C185 1.372 . S
C184 C189 1.364 . S
C185 H164 0.952 . S
C185 C184 1.372 . S
C185 C186 1.389 . S
C186 H165 0.949 . S
C186 C185 1.389 . S
C186 C187 1.387 . S
C187 C186 1.387 . S
C187 C188 1.372 . S
C188 H166 0.950 . S
C188 C187 1.372 . S
C188 C189 1.379 . S
C189 H167 0.948 . S
C189 C184 1.364 . S
C189 C188 1.379 . S
C190 C159 1.383 . S
C190 C177 1.479 . S
C190 C191 1.398 . S
C191 C156 1.382 . S
C191 H168 0.951 . S
C191 C190 1.398 . S
C192 C193 1.384 . S
C192 H205 0.947 . S
C192 C227 1.382 . S
C193 C192 1.384 . S
C193 C194 1.378 . S
C194 C193 1.378 . S
C194 C195 1.378 . S
C194 H206 0.952 . S
C195 C194 1.378 . S
C195 H207 0.950 . S
C195 C226 1.383 . S
H196 C215 0.947 . S
H197 C216 0.946 . S
H198 C218 0.953 . S
H199 C219 0.945 . S
H200 C221 0.952 . S
H201 C222 0.949 . S
H202 C224 0.950 . S
H203 C225 0.948 . S
H204 C227 0.951 . S
H205 C192 0.947 . S
H206 C194 0.952 . S
H207 C195 0.950 . S
N208 C211 1.409 . S
N208 C213 1.337 1_455 S
N209 C211 1.371 . S
N209 C212 1.372 . S
N210 C212 1.361 1_655 S
N210 C213 1.377 . S
C211 N208 1.409 . S
C211 N209 1.371 . S
C211 C214 1.480 . S
C212 N209 1.372 . S
C212 N210 1.361 1_455 S
C212 C220 1.457 . S
C213 N208 1.337 1_655 S
C213 N210 1.377 . S
C213 C226 1.479 . S
C214 C211 1.480 . S
C214 C215 1.383 . S
C214 C219 1.385 . S
C215 H196 0.947 . S
C215 C214 1.383 . S
C215 C216 1.388 . S
C216 H197 0.946 . S
C216 C215 1.388 . S
C216 C217 1.384 . S
C217 C216 1.384 . S
C217 C218 1.377 . S
C218 H198 0.953 . S
C218 C217 1.377 . S
C218 C219 1.369 . S
C219 H199 0.945 . S
C219 C214 1.385 . S
C219 C218 1.369 . S
C220 C212 1.457 . S
C220 C221 1.372 . S
C220 C225 1.364 1_455 S
C221 H200 0.952 . S
C221 C220 1.372 . S
C221 C222 1.389 . S
C222 H201 0.949 . S
C222 C221 1.389 . S
C222 C223 1.387 . S
C223 C222 1.387 . S
C223 C224 1.372 1_455 S
C224 H202 0.950 . S
C224 C223 1.372 1_655 S
C224 C225 1.379 . S
C225 H203 0.948 . S
C225 C220 1.364 1_655 S
C225 C224 1.379 . S
C226 C195 1.383 . S
C226 C213 1.479 . S
C226 C227 1.398 . S
C227 C192 1.382 . S
C227 H204 0.951 . S
C227 C226 1.398 . S
C228 C229 1.384 . S
C228 H241 0.947 . S
C228 C263 1.382 . S
C229 C228 1.384 . S
C229 C230 1.378 . S
C230 C229 1.378 . S
C230 C231 1.378 . S
C230 H242 0.952 . S
C231 C230 1.378 . S
C231 H243 0.950 . S
C231 C262 1.383 . S
H232 C251 0.947 . S
H233 C252 0.946 . S
H234 C254 0.953 . S
H235 C255 0.945 . S
H236 C257 0.952 . S
H237 C258 0.949 . S
H238 C260 0.950 . S
H239 C261 0.948 . S
H240 C263 0.951 . S
H241 C228 0.947 . S
H242 C230 0.952 . S
H243 C231 0.950 . S
N244 C247 1.382 . S
N244 C249 1.363 . S
N245 C247 1.371 . S
N245 C248 1.372 . S
N246 C248 1.361 . S
N246 C249 1.377 . S
C247 N244 1.382 . S
C247 N245 1.371 . S
C247 C250 1.480 . S
C248 N245 1.372 . S
C248 N246 1.361 . S
C248 C256 1.457 . S
C249 N244 1.363 . S
C249 N246 1.377 . S
C249 C262 1.479 . S
C250 C247 1.480 . S
C250 C251 1.383 . S
C250 C255 1.385 1_455 S
C251 H232 0.947 . S
C251 C250 1.383 . S
C251 C252 1.388 1_455 S
C252 H233 0.946 . S
C252 C251 1.388 1_655 S
C252 C253 1.384 . S
C253 C252 1.384 . S
C253 C254 1.377 . S
C254 H234 0.953 . S
C254 C253 1.377 . S
C254 C255 1.369 . S
C255 H235 0.945 . S
C255 C250 1.385 1_655 S
C255 C254 1.369 . S
C256 C248 1.457 . S
C256 C257 1.372 . S
C256 C261 1.364 . S
C257 H236 0.952 . S
C257 C256 1.372 . S
C257 C258 1.389 . S
C258 H237 0.949 . S
C258 C257 1.389 . S
C258 C259 1.387 . S
C259 C258 1.387 . S
C259 C260 1.372 . S
C260 H238 0.950 . S
C260 C259 1.372 . S
C260 C261 1.379 . S
C261 H239 0.948 . S
C261 C256 1.364 . S
C261 C260 1.379 . S
C262 C231 1.383 . S
C262 C249 1.479 . S
C262 C263 1.398 . S
C263 C228 1.382 . S
C263 H240 0.951 . S
C263 C262 1.398 . S
C264 C265 1.384 . S
C264 H277 0.947 . S
C264 C299 1.382 . S
C265 C264 1.384 . S
C265 C266 1.378 . S
C266 C265 1.378 . S
C266 C267 1.378 . S
C266 H278 0.952 . S
C267 C266 1.378 . S
C267 H279 0.950 . S
C267 C298 1.383 . S
H268 C287 0.947 . S
H269 C288 0.946 . S
H270 C290 0.953 . S
H271 C291 0.945 . S
H272 C293 0.952 . S
H273 C294 0.949 . S
H274 C296 0.950 . S
H275 C297 0.948 . S
H276 C299 0.951 . S
H277 C264 0.947 . S
H278 C266 0.952 . S
H279 C267 0.950 . S
N280 C283 1.382 1_545 S
N280 C285 1.363 . S
N281 C283 1.371 . S
N281 C284 1.372 1_565 S
N282 C284 1.361 . S
N282 C285 1.377 . S
C283 N280 1.382 1_565 S
C283 N281 1.371 . S
C283 C286 1.480 . S
C284 N281 1.372 1_545 S
C284 N282 1.361 . S
C284 C292 1.457 . S
C285 N280 1.363 . S
C285 N282 1.377 . S
C285 C298 1.479 . S
C286 C283 1.480 . S
C286 C287 1.383 . S
C286 C291 1.385 . S
C287 H268 0.947 . S
C287 C286 1.383 . S
C287 C288 1.388 . S
C288 H269 0.946 . S
C288 C287 1.388 . S
C288 C289 1.384 . S
C289 C288 1.384 . S
C289 C290 1.377 . S
C290 H270 0.953 . S
C290 C289 1.377 . S
C290 C291 1.369 . S
C291 H271 0.945 . S
C291 C286 1.385 . S
C291 C290 1.369 . S
C292 C284 1.457 . S
C292 C293 1.372 1_545 S
C292 C297 1.364 . S
C293 H272 0.952 . S
C293 C292 1.372 1_565 S
C293 C294 1.389 . S
C294 H273 0.949 . S
C294 C293 1.389 . S
C294 C295 1.387 1_565 S
C295 C294 1.387 1_545 S
C295 C296 1.372 . S
C296 H274 0.950 . S
C296 C295 1.372 . S
C296 C297 1.379 . S
C297 H275 0.948 . S
C297 C292 1.364 . S
C297 C296 1.379 . S
C298 C267 1.383 . S
C298 C285 1.479 . S
C298 C299 1.398 . S
C299 C264 1.382 . S
C299 H276 0.951 . S
C299 C298 1.398 . S
C300 C301 1.384 . S
C300 H313 0.947 . S
C300 C335 1.382 . S
C301 C300 1.384 . S
C301 C302 1.378 . S
C302 C301 1.378 . S
C302 C303 1.378 . S
C302 H314 0.952 . S
C303 C302 1.378 . S
C303 H315 0.950 . S
C303 C334 1.383 . S
H304 C323 0.947 . S
H305 C324 0.946 . S
H306 C326 0.953 . S
H307 C327 0.945 . S
H308 C329 0.952 . S
H309 C330 0.949 . S
H310 C332 0.950 . S
H311 C333 0.948 . S
H312 C335 0.951 . S
H313 C300 0.947 . S
H314 C302 0.952 . S
H315 C303 0.950 . S
N316 C319 1.382 . S
N316 C321 1.363 . S
N317 C319 1.371 . S
N317 C320 1.372 . S
N318 C320 1.361 . S
N318 C321 1.377 . S
C319 N316 1.382 . S
C319 N317 1.371 . S
C319 C322 1.480 . S
C320 N317 1.372 . S
C320 N318 1.361 . S
C320 C328 1.457 . S
C321 N316 1.363 . S
C321 N318 1.377 . S
C321 C334 1.479 . S
C322 C319 1.480 . S
C322 C323 1.383 . S
C322 C327 1.385 . S
C323 H304 0.947 . S
C323 C322 1.383 . S
C323 C324 1.388 . S
C324 H305 0.946 . S
C324 C323 1.388 . S
C324 C325 1.384 . S
C325 C324 1.384 . S
C325 C326 1.377 . S
C326 H306 0.953 . S
C326 C325 1.377 . S
C326 C327 1.369 . S
C327 H307 0.945 . S
C327 C322 1.385 . S
C327 C326 1.369 . S
C328 C320 1.457 . S
C328 C329 1.372 . S
C328 C333 1.364 . S
C329 H308 0.952 . S
C329 C328 1.372 . S
C329 C330 1.389 . S
C330 H309 0.949 . S
C330 C329 1.389 . S
C330 C331 1.387 . S
C331 C330 1.387 . S
C331 C332 1.372 . S
C332 H310 0.950 . S
C332 C331 1.372 . S
C332 C333 1.379 . S
C333 H311 0.948 . S
C333 C328 1.364 . S
C333 C332 1.379 . S
C334 C303 1.383 . S
C334 C321 1.479 . S
C334 C335 1.398 . S
C335 C300 1.382 . S
C335 H312 0.951 . S
C335 C334 1.398 . S
C336 C337 1.349 . S
C336 C338 1.327 . S
C336 H361 0.950 . S
C337 C336 1.349 . S
C337 C353 1.349 . S
C338 C336 1.327 . S
C338 C357 1.429 . S
C338 H362 0.950 . S
C339 C356 1.574 . S
C339 C358 1.368 . S
C339 H363 0.949 . S
H340 C344 0.949 . S
C341 C342 1.349 . S
C341 C343 1.327 . S
C341 H364 0.950 . S
C342 C341 1.349 . S
C342 C354 1.349 . S
C343 C341 1.327 . S
C343 C359 1.429 . S
C343 H365 0.950 . S
C344 H340 0.949 . S
C344 C352 1.574 . S
C344 C360 1.368 . S
H345 C353 0.950 . S
H346 C351 0.950 . S
H347 C352 0.949 . S
H348 C354 0.950 . S
H349 C355 0.950 . S
H350 C356 0.949 . S
C351 H346 0.950 . S
C351 C353 1.327 . S
C351 C357 1.429 . S
C352 C344 1.574 . S
C352 H347 0.949 . S
C352 C358 1.368 . S
C353 C337 1.349 . S
C353 H345 0.950 . S
C353 C351 1.327 . S
C354 C342 1.349 . S
C354 H348 0.950 . S
C354 C355 1.327 . S
C355 H349 0.950 . S
C355 C354 1.327 . S
C355 C359 1.429 . S
C356 C339 1.574 . S
C356 H350 0.949 . S
C356 C360 1.368 . S
C357 C338 1.429 . S
C357 C351 1.429 . S
C357 C358 1.523 . S
C358 C339 1.368 . S
C358 C352 1.368 . S
C358 C357 1.523 . S
C359 C343 1.429 . S
C359 C355 1.429 . S
C359 C360 1.523 . S
C360 C344 1.368 . S
C360 C356 1.368 . S
C360 C359 1.523 . S
H361 C336 0.950 . S
H362 C338 0.950 . S
H363 C339 0.949 . S
H364 C341 0.950 . S
H365 C343 0.950 . S
C366 C367 1.349 . S
C366 C368 1.327 . S
C366 H391 0.950 . S
C367 C366 1.349 . S
C367 C383 1.349 . S
C368 C366 1.327 . S
C368 C387 1.429 . S
C368 H392 0.950 . S
C369 C386 1.574 . S
C369 C388 1.368 . S
C369 H393 0.949 . S
H370 C374 0.949 . S
C371 C372 1.349 . S
C371 C373 1.327 . S
C371 H394 0.950 . S
C372 C371 1.349 . S
C372 C384 1.349 . S
C373 C371 1.327 . S
C373 C389 1.429 . S
C373 H395 0.950 . S
C374 H370 0.949 . S
C374 C382 1.574 . S
C374 C390 1.368 . S
H375 C383 0.950 . S
H376 C381 0.950 . S
H377 C382 0.949 . S
H378 C384 0.950 . S
H379 C385 0.950 . S
H380 C386 0.949 . S
C381 H376 0.950 . S
C381 C383 1.327 . S
C381 C387 1.429 . S
C382 C374 1.574 . S
C382 H377 0.949 . S
C382 C388 1.368 . S
C383 C367 1.349 . S
C383 H375 0.950 . S
C383 C381 1.327 . S
C384 C372 1.349 . S
C384 H378 0.950 . S
C384 C385 1.327 . S
C385 H379 0.950 . S
C385 C384 1.327 . S
C385 C389 1.429 . S
C386 C369 1.574 . S
C386 H380 0.949 . S
C386 C390 1.368 . S
C387 C368 1.429 . S
C387 C381 1.429 . S
C387 C388 1.523 . S
C388 C369 1.368 . S
C388 C382 1.368 . S
C388 C387 1.523 . S
C389 C373 1.429 . S
C389 C385 1.429 . S
C389 C390 1.523 . S
C390 C374 1.368 . S
C390 C386 1.368 . S
C390 C389 1.523 . S
H391 C366 0.950 . S
H392 C368 0.950 . S
H393 C369 0.949 . S
H394 C371 0.950 . S
H395 C373 0.950 . S
C396 C397 1.349 . S
C396 C398 1.327 . S
C396 H421 0.950 . S
C397 C396 1.349 . S
C397 C413 1.349 . S
C398 C396 1.327 . S
C398 C417 1.429 . S
C398 H422 0.950 . S
C399 C416 1.574 . S
C399 C418 1.368 . S
C399 H423 0.949 . S
H400 C404 0.949 . S
C401 C402 1.349 . S
C401 C403 1.327 . S
C401 H424 0.950 . S
C402 C401 1.349 . S
C402 C414 1.349 . S
C403 C401 1.327 . S
C403 C419 1.429 . S
C403 H425 0.950 . S
C404 H400 0.949 . S
C404 C412 1.574 . S
C404 C420 1.368 . S
H405 C413 0.950 . S
H406 C411 0.950 . S
H407 C412 0.949 . S
H408 C414 0.950 . S
H409 C415 0.950 . S
H410 C416 0.949 . S
C411 H406 0.950 . S
C411 C413 1.327 . S
C411 C417 1.429 . S
C412 C404 1.574 . S
C412 H407 0.949 . S
C412 C418 1.368 . S
C413 C397 1.349 . S
C413 H405 0.950 . S
C413 C411 1.327 . S
C414 C402 1.349 . S
C414 H408 0.950 . S
C414 C415 1.327 . S
C415 H409 0.950 . S
C415 C414 1.327 . S
C415 C419 1.429 . S
C416 C399 1.574 . S
C416 H410 0.949 . S
C416 C420 1.368 . S
C417 C398 1.429 . S
C417 C411 1.429 . S
C417 C418 1.523 . S
C418 C399 1.368 . S
C418 C412 1.368 . S
C418 C417 1.523 . S
C419 C403 1.429 . S
C419 C415 1.429 . S
C419 C420 1.523 . S
C420 C404 1.368 . S
C420 C416 1.368 . S
C420 C419 1.523 . S
H421 C396 0.950 . S
H422 C398 0.950 . S
H423 C399 0.949 . S
H424 C401 0.950 . S
H425 C403 0.950 . S
C426 C427 1.349 . S
C426 C428 1.327 . S
C426 H451 0.950 . S
C427 C426 1.349 . S
C427 C443 1.349 . S
C428 C426 1.327 . S
C428 C447 1.429 . S
C428 H452 0.950 . S
C429 C446 1.574 . S
C429 C448 1.368 . S
C429 H453 0.949 . S
H430 C434 0.949 . S
C431 C432 1.349 . S
C431 C433 1.327 . S
C431 H454 0.950 . S
C432 C431 1.349 . S
C432 C444 1.349 . S
C433 C431 1.327 . S
C433 C449 1.429 . S
C433 H455 0.950 . S
C434 H430 0.949 . S
C434 C442 1.574 . S
C434 C450 1.368 . S
H435 C443 0.950 . S
H436 C441 0.950 . S
H437 C442 0.949 . S
H438 C444 0.950 . S
H439 C445 0.950 . S
H440 C446 0.949 . S
C441 H436 0.950 . S
C441 C443 1.327 . S
C441 C447 1.429 . S
C442 C434 1.574 . S
C442 H437 0.949 . S
C442 C448 1.368 . S
C443 C427 1.349 . S
C443 H435 0.950 . S
C443 C441 1.327 . S
C444 C432 1.349 . S
C444 H438 0.950 . S
C444 C445 1.327 . S
C445 H439 0.950 . S
C445 C444 1.327 . S
C445 C449 1.429 . S
C446 C429 1.574 . S
C446 H440 0.949 . S
C446 C450 1.368 . S
C447 C428 1.429 . S
C447 C441 1.429 . S
C447 C448 1.523 . S
C448 C429 1.368 . S
C448 C442 1.368 . S
C448 C447 1.523 . S
C449 C433 1.429 . S
C449 C445 1.429 . S
C449 C450 1.523 . S
C450 C434 1.368 . S
C450 C446 1.368 . S
C450 C449 1.523 . S
H451 C426 0.950 . S
H452 C428 0.950 . S
H453 C429 0.949 . S
H454 C431 0.950 . S
H455 C433 0.950 . S
C456 C457 1.349 . S
C456 C458 1.327 . S
C456 H481 0.950 . S
C457 C456 1.349 . S
C457 C473 1.349 . S
C458 C456 1.327 . S
C458 C477 1.429 . S
C458 H482 0.950 . S
C459 C476 1.574 . S
C459 C478 1.368 . S
C459 H483 0.949 . S
H460 C464 0.949 . S
C461 C462 1.349 . S
C461 C463 1.327 . S
C461 H484 0.950 . S
C462 C461 1.349 . S
C462 C474 1.349 . S
C463 C461 1.327 . S
C463 C479 1.429 . S
C463 H485 0.950 . S
C464 H460 0.949 . S
C464 C472 1.574 . S
C464 C480 1.368 . S
H465 C473 0.950 . S
H466 C471 0.950 . S
H467 C472 0.949 . S
H468 C474 0.950 . S
H469 C475 0.950 . S
H470 C476 0.949 . S
C471 H466 0.950 . S
C471 C473 1.327 . S
C471 C477 1.429 . S
C472 C464 1.574 . S
C472 H467 0.949 . S
C472 C478 1.368 . S
C473 C457 1.349 . S
C473 H465 0.950 . S
C473 C471 1.327 . S
C474 C462 1.349 . S
C474 H468 0.950 . S
C474 C475 1.327 . S
C475 H469 0.950 . S
C475 C474 1.327 . S
C475 C479 1.429 . S
C476 C459 1.574 . S
C476 H470 0.949 . S
C476 C480 1.368 . S
C477 C458 1.429 . S
C477 C471 1.429 . S
C477 C478 1.523 . S
C478 C459 1.368 . S
C478 C472 1.368 . S
C478 C477 1.523 . S
C479 C463 1.429 . S
C479 C475 1.429 . S
C479 C480 1.523 . S
C480 C464 1.368 . S
C480 C476 1.368 . S
C480 C479 1.523 . S
H481 C456 0.950 . S
H482 C458 0.950 . S
H483 C459 0.949 . S
H484 C461 0.950 . S
H485 C463 0.950 . S
C486 C487 1.349 . S
C486 C488 1.327 . S
C486 H511 0.950 . S
C487 C486 1.349 . S
C487 C503 1.349 . S
C488 C486 1.327 . S
C488 C507 1.429 . S
C488 H512 0.950 . S
C489 C506 1.574 . S
C489 C508 1.368 . S
C489 H513 0.949 . S
H490 C494 0.949 . S
C491 C492 1.349 . S
C491 C493 1.327 . S
C491 H514 0.950 . S
C492 C491 1.349 . S
C492 C504 1.349 . S
C493 C491 1.327 . S
C493 C509 1.429 . S
C493 H515 0.950 . S
C494 H490 0.949 . S
C494 C502 1.574 . S
C494 C510 1.368 . S
H495 C503 0.950 . S
H496 C501 0.950 . S
H497 C502 0.949 . S
H498 C504 0.950 . S
H499 C505 0.950 . S
H500 C506 0.949 . S
C501 H496 0.950 . S
C501 C503 1.327 . S
C501 C507 1.429 . S
C502 C494 1.574 . S
C502 H497 0.949 . S
C502 C508 1.368 . S
C503 C487 1.349 . S
C503 H495 0.950 . S
C503 C501 1.327 . S
C504 C492 1.349 . S
C504 H498 0.950 . S
C504 C505 1.327 . S
C505 H499 0.950 . S
C505 C504 1.327 . S
C505 C509 1.429 . S
C506 C489 1.574 . S
C506 H500 0.949 . S
C506 C510 1.368 . S
C507 C488 1.429 . S
C507 C501 1.429 . S
C507 C508 1.523 . S
C508 C489 1.368 . S
C508 C502 1.368 . S
C508 C507 1.523 . S
C509 C493 1.429 . S
C509 C505 1.429 . S
C509 C510 1.523 . S
C510 C494 1.368 . S
C510 C506 1.368 . S
C510 C509 1.523 . S
H511 C486 0.950 . S
H512 C488 0.950 . S
H513 C489 0.949 . S
H514 C491 0.950 . S
H515 C493 0.950 . S
C516 C517 1.349 . S
C516 C518 1.327 . S
C516 H541 0.950 . S
C517 C516 1.349 . S
C517 C533 1.349 . S
C518 C516 1.327 . S
C518 C537 1.429 . S
C518 H542 0.950 . S
C519 C536 1.574 . S
C519 C538 1.368 . S
C519 H543 0.949 . S
H520 C524 0.949 . S
C521 C522 1.349 . S
C521 C523 1.327 . S
C521 H544 0.950 . S
C522 C521 1.349 . S
C522 C534 1.349 . S
C523 C521 1.327 . S
C523 C539 1.429 . S
C523 H545 0.950 . S
C524 H520 0.949 . S
C524 C532 1.574 . S
C524 C540 1.368 . S
H525 C533 0.950 . S
H526 C531 0.950 . S
H527 C532 0.949 . S
H528 C534 0.950 . S
H529 C535 0.950 . S
H530 C536 0.949 . S
C531 H526 0.950 . S
C531 C533 1.327 . S
C531 C537 1.429 . S
C532 C524 1.574 . S
C532 H527 0.949 . S
C532 C538 1.368 . S
C533 C517 1.349 . S
C533 H525 0.950 . S
C533 C531 1.327 . S
C534 C522 1.349 . S
C534 H528 0.950 . S
C534 C535 1.327 . S
C535 H529 0.950 . S
C535 C534 1.327 . S
C535 C539 1.429 . S
C536 C519 1.574 . S
C536 H530 0.949 . S
C536 C540 1.368 . S
C537 C518 1.429 . S
C537 C531 1.429 . S
C537 C538 1.523 . S
C538 C519 1.368 . S
C538 C532 1.368 . S
C538 C537 1.523 . S
C539 C523 1.429 . S
C539 C535 1.429 . S
C539 C540 1.523 . S
C540 C524 1.368 . S
C540 C536 1.368 . S
C540 C539 1.523 . S
H541 C516 0.950 . S
H542 C518 0.950 . S
H543 C519 0.949 . S
H544 C521 0.950 . S
H545 C523 0.950 . S
C546 C547 1.349 . S
C546 C548 1.327 . S
C546 H571 0.950 . S
C547 C546 1.349 . S
C547 C563 1.349 . S
C548 C546 1.327 . S
C548 C567 1.429 . S
C548 H572 0.950 . S
C549 C566 1.574 . S
C549 C568 1.368 . S
C549 H573 0.949 . S
H550 C554 0.949 . S
C551 C552 1.349 . S
C551 C553 1.327 . S
C551 H574 0.950 . S
C552 C551 1.349 . S
C552 C564 1.349 . S
C553 C551 1.327 . S
C553 C569 1.429 . S
C553 H575 0.950 . S
C554 H550 0.949 . S
C554 C562 1.574 . S
C554 C570 1.368 . S
H555 C563 0.950 . S
H556 C561 0.950 . S
H557 C562 0.949 . S
H558 C564 0.950 . S
H559 C565 0.950 . S
H560 C566 0.949 . S
C561 H556 0.950 . S
C561 C563 1.327 . S
C561 C567 1.429 . S
C562 C554 1.574 . S
C562 H557 0.949 . S
C562 C568 1.368 . S
C563 C547 1.349 . S
C563 H555 0.950 . S
C563 C561 1.327 . S
C564 C552 1.349 . S
C564 H558 0.950 . S
C564 C565 1.327 . S
C565 H559 0.950 . S
C565 C564 1.327 . S
C565 C569 1.429 . S
C566 C549 1.574 . S
C566 H560 0.949 . S
C566 C570 1.368 . S
C567 C548 1.429 . S
C567 C561 1.429 . S
C567 C568 1.523 . S
C568 C549 1.368 . S
C568 C562 1.368 . S
C568 C567 1.523 . S
C569 C553 1.429 . S
C569 C565 1.429 . S
C569 C570 1.523 . S
C570 C554 1.368 . S
C570 C566 1.368 . S
C570 C569 1.523 . S
H571 C546 0.950 . S
H572 C548 0.950 . S
H573 C549 0.949 . S
H574 C551 0.950 . S
H575 C553 0.950 . S
C576 C577 1.349 . S
C576 C578 1.327 . S
C576 H601 0.950 . S
C577 C576 1.349 . S
C577 C593 1.349 . S
C578 C576 1.327 . S
C578 C597 1.429 . S
C578 H602 0.950 . S
C579 C596 1.574 . S
C579 C598 1.368 . S
C579 H603 0.949 . S
H580 C584 0.949 . S
C581 C582 1.349 . S
C581 C583 1.327 . S
C581 H604 0.950 . S
C582 C581 1.349 . S
C582 C594 1.349 . S
C583 C581 1.327 . S
C583 C599 1.429 . S
C583 H605 0.950 . S
C584 H580 0.949 . S
C584 C592 1.574 . S
C584 C600 1.368 . S
H585 C593 0.950 . S
H586 C591 0.950 . S
H587 C592 0.949 . S
H588 C594 0.950 . S
H589 C595 0.950 . S
H590 C596 0.949 . S
C591 H586 0.950 . S
C591 C593 1.327 . S
C591 C597 1.429 . S
C592 C584 1.574 . S
C592 H587 0.949 . S
C592 C598 1.368 . S
C593 C577 1.349 . S
C593 H585 0.950 . S
C593 C591 1.327 . S
C594 C582 1.349 . S
C594 H588 0.950 . S
C594 C595 1.327 . S
C595 H589 0.950 . S
C595 C594 1.327 . S
C595 C599 1.429 . S
C596 C579 1.574 . S
C596 H590 0.949 . S
C596 C600 1.368 . S
C597 C578 1.429 . S
C597 C591 1.429 . S
C597 C598 1.523 . S
C598 C579 1.368 . S
C598 C592 1.368 . S
C598 C597 1.523 . S
C599 C583 1.429 . S
C599 C595 1.429 . S
C599 C600 1.523 . S
C600 C584 1.368 . S
C600 C596 1.368 . S
C600 C599 1.523 . S
H601 C576 0.950 . S
H602 C578 0.950 . S
H603 C579 0.949 . S
H604 C581 0.950 . S
H605 C583 0.950 . S
C606 C607 1.349 . S
C606 C608 1.327 . S
C606 H631 0.950 . S
C607 C606 1.349 . S
C607 C623 1.349 . S
C608 C606 1.327 . S
C608 C627 1.429 . S
C608 H632 0.950 . S
C609 C626 1.574 . S
C609 C628 1.368 . S
C609 H633 0.949 . S
H610 C614 0.949 . S
C611 C612 1.349 . S
C611 C613 1.327 . S
C611 H634 0.950 . S
C612 C611 1.349 . S
C612 C624 1.349 . S
C613 C611 1.327 . S
C613 C629 1.429 . S
C613 H635 0.950 . S
C614 H610 0.949 . S
C614 C622 1.574 . S
C614 C630 1.368 . S
H615 C623 0.950 . S
H616 C621 0.950 . S
H617 C622 0.949 . S
H618 C624 0.950 . S
H619 C625 0.950 . S
H620 C626 0.949 . S
C621 H616 0.950 . S
C621 C623 1.327 . S
C621 C627 1.429 . S
C622 C614 1.574 . S
C622 H617 0.949 . S
C622 C628 1.368 . S
C623 C607 1.349 . S
C623 H615 0.950 . S
C623 C621 1.327 . S
C624 C612 1.349 . S
C624 H618 0.950 . S
C624 C625 1.327 . S
C625 H619 0.950 . S
C625 C624 1.327 . S
C625 C629 1.429 . S
C626 C609 1.574 . S
C626 H620 0.949 . S
C626 C630 1.368 . S
C627 C608 1.429 . S
C627 C621 1.429 . S
C627 C628 1.523 . S
C628 C609 1.368 . S
C628 C622 1.368 . S
C628 C627 1.523 . S
C629 C613 1.429 . S
C629 C625 1.429 . S
C629 C630 1.523 . S
C630 C614 1.368 . S
C630 C626 1.368 . S
C630 C629 1.523 . S
H631 C606 0.950 . S
H632 C608 0.950 . S
H633 C609 0.949 . S
H634 C611 0.950 . S
H635 C613 0.950 . S
C636 C637 1.349 . S
C636 C638 1.327 . S
C636 H661 0.950 . S
C637 C636 1.349 . S
C637 C653 1.349 . S
C638 C636 1.327 . S
C638 C657 1.429 . S
C638 H662 0.950 . S
C639 C656 1.574 . S
C639 C658 1.368 . S
C639 H663 0.949 . S
H640 C644 0.949 . S
C641 C642 1.349 . S
C641 C643 1.327 . S
C641 H664 0.950 . S
C642 C641 1.349 . S
C642 C654 1.349 . S
C643 C641 1.327 . S
C643 C659 1.429 . S
C643 H665 0.950 . S
C644 H640 0.949 . S
C644 C652 1.574 . S
C644 C660 1.368 . S
H645 C653 0.950 . S
H646 C651 0.950 . S
H647 C652 0.949 . S
H648 C654 0.950 . S
H649 C655 0.950 . S
H650 C656 0.949 . S
C651 H646 0.950 . S
C651 C653 1.327 . S
C651 C657 1.429 . S
C652 C644 1.574 . S
C652 H647 0.949 . S
C652 C658 1.368 . S
C653 C637 1.349 . S
C653 H645 0.950 . S
C653 C651 1.327 . S
C654 C642 1.349 . S
C654 H648 0.950 . S
C654 C655 1.327 . S
C655 H649 0.950 . S
C655 C654 1.327 . S
C655 C659 1.429 . S
C656 C639 1.574 . S
C656 H650 0.949 . S
C656 C660 1.368 . S
C657 C638 1.429 . S
C657 C651 1.429 . S
C657 C658 1.523 . S
C658 C639 1.368 . S
C658 C652 1.368 . S
C658 C657 1.523 . S
C659 C643 1.429 . S
C659 C655 1.429 . S
C659 C660 1.523 . S
C660 C644 1.368 . S
C660 C656 1.368 . S
C660 C659 1.523 . S
H661 C636 0.950 . S
H662 C638 0.950 . S
H663 C639 0.949 . S
H664 C641 0.950 . S
H665 C643 0.950 . S
C666 C667 1.349 . S
C666 C668 1.327 . S
C666 H691 0.950 . S
C667 C666 1.349 . S
C667 C683 1.349 . S
C668 C666 1.327 . S
C668 C687 1.429 . S
C668 H692 0.950 . S
C669 C686 1.574 . S
C669 C688 1.368 . S
C669 H693 0.949 . S
H670 C674 0.949 . S
C671 C672 1.349 . S
C671 C673 1.327 . S
C671 H694 0.950 . S
C672 C671 1.349 . S
C672 C684 1.349 . S
C673 C671 1.327 . S
C673 C689 1.429 . S
C673 H695 0.950 . S
C674 H670 0.949 . S
C674 C682 1.574 . S
C674 C690 1.368 . S
H675 C683 0.950 . S
H676 C681 0.950 . S
H677 C682 0.949 . S
H678 C684 0.950 . S
H679 C685 0.950 . S
H680 C686 0.949 . S
C681 H676 0.950 . S
C681 C683 1.327 . S
C681 C687 1.429 . S
C682 C674 1.574 . S
C682 H677 0.949 . S
C682 C688 1.368 . S
C683 C667 1.349 . S
C683 H675 0.950 . S
C683 C681 1.327 . S
C684 C672 1.349 . S
C684 H678 0.950 . S
C684 C685 1.327 . S
C685 H679 0.950 . S
C685 C684 1.327 . S
C685 C689 1.429 . S
C686 C669 1.574 . S
C686 H680 0.949 . S
C686 C690 1.368 . S
C687 C668 1.429 . S
C687 C681 1.429 . S
C687 C688 1.523 . S
C688 C669 1.368 . S
C688 C682 1.368 . S
C688 C687 1.523 . S
C689 C673 1.429 . S
C689 C685 1.429 . S
C689 C690 1.523 . S
C690 C674 1.368 . S
C690 C686 1.368 . S
C690 C689 1.523 . S
H691 C666 0.950 . S
H692 C668 0.950 . S
H693 C669 0.949 . S
H694 C671 0.950 . S
H695 C673 0.950 . S
C696 C697 1.349 . S
C696 C698 1.327 . S
C696 H721 0.950 . S
C697 C696 1.349 . S
C697 C713 1.349 1_455 S
C698 C696 1.327 . S
C698 C717 1.429 . S
C698 H722 0.950 . S
C699 C716 1.574 . S
C699 C718 1.368 1_655 S
C699 H723 0.949 . S
H700 C704 0.949 . S
C701 C702 1.349 1_655 S
C701 C703 1.327 1_556 S
C701 H724 0.950 . S
C702 C701 1.349 1_455 S
C702 C714 1.349 . S
C703 C701 1.327 1_554 S
C703 C719 1.429 1_655 S
C703 H725 0.950 . S
C704 H700 0.949 . S
C704 C712 1.574 . S
C704 C720 1.368 . S
H705 C713 0.950 . S
H706 C711 0.950 . S
H707 C712 0.949 . S
H708 C714 0.950 . S
H709 C715 0.950 . S
H710 C716 0.949 . S
C711 H706 0.950 . S
C711 C713 1.327 . S
C711 C717 1.429 1_655 S
C712 C704 1.574 . S
C712 H707 0.949 . S
C712 C718 1.368 . S
C713 C697 1.349 1_655 S
C713 H705 0.950 . S
C713 C711 1.327 . S
C714 C702 1.349 . S
C714 H708 0.950 . S
C714 C715 1.327 1_556 S
C715 H709 0.950 . S
C715 C714 1.327 1_554 S
C715 C719 1.429 . S
C716 C699 1.574 . S
C716 H710 0.949 . S
C716 C720 1.368 1_655 S
C717 C698 1.429 . S
C717 C711 1.429 1_455 S
C717 C718 1.523 . S
C718 C699 1.368 1_455 S
C718 C712 1.368 . S
C718 C717 1.523 . S
C719 C703 1.429 1_455 S
C719 C715 1.429 . S
C719 C720 1.523 . S
C720 C704 1.368 . S
C720 C716 1.368 1_455 S
C720 C719 1.523 . S
H721 C696 0.950 . S
H722 C698 0.950 . S
H723 C699 0.949 . S
H724 C701 0.950 . S
H725 C703 0.950 . S
C726 C727 1.349 . S
C726 C728 1.327 . S
C726 H751 0.950 1_545 S
C727 C726 1.349 . S
C727 C743 1.349 . S
C728 C726 1.327 . S
C728 C747 1.429 . S
C728 H752 0.950 1_545 S
C729 C746 1.574 . S
C729 C748 1.368 . S
C729 H753 0.949 . S
H730 C734 0.949 . S
C731 C732 1.349 . S
C731 C733 1.327 . S
C731 H754 0.950 . S
C732 C731 1.349 . S
C732 C744 1.349 . S
C733 C731 1.327 . S
C733 C749 1.429 . S
C733 H755 0.950 . S
C734 H730 0.949 . S
C734 C742 1.574 . S
C734 C750 1.368 . S
H735 C743 0.950 . S
H736 C741 0.950 . S
H737 C742 0.949 1_565 S
H738 C744 0.950 . S
H739 C745 0.950 . S
H740 C746 0.949 . S
C741 H736 0.950 . S
C741 C743 1.327 . S
C741 C747 1.429 . S
C742 C734 1.574 . S
C742 H737 0.949 1_545 S
C742 C748 1.368 . S
C743 C727 1.349 . S
C743 H735 0.950 . S
C743 C741 1.327 . S
C744 C732 1.349 . S
C744 H738 0.950 . S
C744 C745 1.327 . S
C745 H739 0.950 . S
C745 C744 1.327 . S
C745 C749 1.429 . S
C746 C729 1.574 . S
C746 H740 0.949 . S
C746 C750 1.368 . S
C747 C728 1.429 . S
C747 C741 1.429 . S
C747 C748 1.523 . S
C748 C729 1.368 . S
C748 C742 1.368 . S
C748 C747 1.523 . S
C749 C733 1.429 . S
C749 C745 1.429 . S
C749 C750 1.523 . S
C750 C734 1.368 . S
C750 C746 1.368 . S
C750 C749 1.523 . S
H751 C726 0.950 1_565 S
H752 C728 0.950 1_565 S
H753 C729 0.949 . S
H754 C731 0.950 . S
H755 C733 0.950 . S
C756 C757 1.349 . S
C756 C758 1.327 . S
C756 H781 0.950 . S
C757 C756 1.349 . S
C757 C773 1.349 . S
C758 C756 1.327 . S
C758 C777 1.429 . S
C758 H782 0.950 . S
C759 C776 1.574 . S
C759 C778 1.368 . S
C759 H783 0.949 . S
H760 C764 0.949 . S
C761 C762 1.349 . S
C761 C763 1.327 . S
C761 H784 0.950 . S
C762 C761 1.349 . S
C762 C774 1.349 . S
C763 C761 1.327 . S
C763 C779 1.429 . S
C763 H785 0.950 . S
C764 H760 0.949 . S
C764 C772 1.574 . S
C764 C780 1.368 . S
H765 C773 0.950 . S
H766 C771 0.950 . S
H767 C772 0.949 . S
H768 C774 0.950 . S
H769 C775 0.950 . S
H770 C776 0.949 . S
C771 H766 0.950 . S
C771 C773 1.327 . S
C771 C777 1.429 . S
C772 C764 1.574 . S
C772 H767 0.949 . S
C772 C778 1.368 . S
C773 C757 1.349 . S
C773 H765 0.950 . S
C773 C771 1.327 . S
C774 C762 1.349 . S
C774 H768 0.950 . S
C774 C775 1.327 . S
C775 H769 0.950 . S
C775 C774 1.327 . S
C775 C779 1.429 . S
C776 C759 1.574 . S
C776 H770 0.949 . S
C776 C780 1.368 . S
C777 C758 1.429 . S
C777 C771 1.429 . S
C777 C778 1.523 . S
C778 C759 1.368 . S
C778 C772 1.368 . S
C778 C777 1.523 . S
C779 C763 1.429 . S
C779 C775 1.429 . S
C779 C780 1.523 . S
C780 C764 1.368 . S
C780 C776 1.368 . S
C780 C779 1.523 . S
H781 C756 0.950 . S
H782 C758 0.950 . S
H783 C759 0.949 . S
H784 C761 0.950 . S
H785 C763 0.950 . S
C786 C787 1.349 . S
C786 C788 1.327 . S
C786 H811 0.950 . S
C787 C786 1.349 . S
C787 C803 1.387 . S
C788 C786 1.327 . S
C788 C807 1.429 . S
C788 H812 0.950 . S
C789 C806 1.574 . S
C789 C808 1.368 1_565 S
C789 H813 0.949 . S
H790 C794 0.949 . S
C791 C792 1.349 1_565 S
C791 C793 1.327 . S
C791 H814 0.950 . S
C792 C791 1.349 1_545 S
C792 C804 1.349 . S
C793 C791 1.327 . S
C793 C809 1.429 1_565 S
C793 H815 0.950 . S
C794 H790 0.949 . S
C794 C802 1.574 . S
C794 C810 1.368 . S
H795 C803 0.914 1_565 S
H796 C801 0.950 . S
H797 C802 0.949 . S
H798 C804 0.950 . S
H799 C805 0.950 . S
H800 C806 0.949 . S
C801 H796 0.950 . S
C801 C803 1.326 1_565 S
C801 C807 1.429 1_565 S
C802 C794 1.574 . S
C802 H797 0.949 . S
C802 C808 1.368 . S
C803 C787 1.387 . S
C803 H795 0.914 1_545 S
C803 C801 1.326 1_545 S
C804 C792 1.349 . S
C804 H798 0.950 . S
C804 C805 1.327 . S
C805 H799 0.950 . S
C805 C804 1.327 . S
C805 C809 1.429 . S
C806 C789 1.574 . S
C806 H800 0.949 . S
C806 C810 1.368 1_565 S
C807 C788 1.429 . S
C807 C801 1.429 1_545 S
C807 C808 1.523 . S
C808 C789 1.368 1_545 S
C808 C802 1.368 . S
C808 C807 1.523 . S
C809 C793 1.429 1_545 S
C809 C805 1.429 . S
C809 C810 1.523 . S
C810 C794 1.368 . S
C810 C806 1.368 1_545 S
C810 C809 1.523 . S
H811 C786 0.950 . S
H812 C788 0.950 . S
H813 C789 0.949 . S
H814 C791 0.950 . S
H815 C793 0.950 . S
C816 C817 1.349 . S
C816 C818 1.327 . S
C816 H841 0.950 . S
C817 C816 1.349 . S
C817 C833 1.349 . S
C818 C816 1.327 . S
C818 C837 1.429 . S
C818 H842 0.950 . S
C819 C836 1.574 . S
C819 C838 1.368 . S
C819 H843 0.949 . S
H820 C824 0.949 . S
C821 C822 1.349 . S
C821 C823 1.327 1_554 S
C821 H844 0.950 . S
C822 C821 1.349 . S
C822 C834 1.349 . S
C823 C821 1.327 1_556 S
C823 C839 1.429 . S
C823 H845 0.950 . S
C824 H820 0.949 . S
C824 C832 1.574 . S
C824 C840 1.368 . S
H825 C833 0.950 . S
H826 C831 0.950 . S
H827 C832 0.949 . S
H828 C834 0.950 . S
H829 C835 0.950 . S
H830 C836 0.949 . S
C831 H826 0.950 . S
C831 C833 1.327 . S
C831 C837 1.429 . S
C832 C824 1.574 . S
C832 H827 0.949 . S
C832 C838 1.368 . S
C833 C817 1.349 . S
C833 H825 0.950 . S
C833 C831 1.327 . S
C834 C822 1.349 . S
C834 H828 0.950 . S
C834 C835 1.327 1_554 S
C835 H829 0.950 . S
C835 C834 1.327 1_556 S
C835 C839 1.429 . S
C836 C819 1.574 . S
C836 H830 0.949 . S
C836 C840 1.368 . S
C837 C818 1.429 . S
C837 C831 1.429 . S
C837 C838 1.523 . S
C838 C819 1.368 . S
C838 C832 1.368 . S
C838 C837 1.523 . S
C839 C823 1.429 . S
C839 C835 1.429 . S
C839 C840 1.523 . S
C840 C824 1.368 . S
C840 C836 1.368 . S
C840 C839 1.523 . S
H841 C816 0.950 . S
H842 C818 0.950 . S
H843 C819 0.949 . S
H844 C821 0.950 . S
H845 C823 0.950 . S
C846 C847 1.349 . S
C846 C848 1.327 . S
C846 H871 0.950 . S
C847 C846 1.349 . S
C847 C863 1.349 . S
C848 C846 1.327 . S
C848 C867 1.429 . S
C848 H872 0.950 . S
C849 C866 1.574 . S
C849 C868 1.368 . S
C849 H873 0.949 . S
H850 C854 0.949 . S
C851 C852 1.349 . S
C851 C853 1.327 . S
C851 H874 0.950 . S
C852 C851 1.349 . S
C852 C864 1.349 . S
C853 C851 1.327 . S
C853 C869 1.429 . S
C853 H875 0.950 . S
C854 H850 0.949 . S
C854 C862 1.574 . S
C854 C870 1.368 . S
H855 C863 0.950 . S
H856 C861 0.950 . S
H857 C862 0.949 . S
H858 C864 0.950 . S
H859 C865 0.950 . S
H860 C866 0.949 . S
C861 H856 0.950 . S
C861 C863 1.327 . S
C861 C867 1.429 . S
C862 C854 1.574 . S
C862 H857 0.949 . S
C862 C868 1.368 . S
C863 C847 1.349 . S
C863 H855 0.950 . S
C863 C861 1.327 . S
C864 C852 1.349 . S
C864 H858 0.950 . S
C864 C865 1.327 . S
C865 H859 0.950 . S
C865 C864 1.327 . S
C865 C869 1.429 . S
C866 C849 1.574 . S
C866 H860 0.949 . S
C866 C870 1.368 . S
C867 C848 1.429 . S
C867 C861 1.429 . S
C867 C868 1.523 . S
C868 C849 1.368 . S
C868 C862 1.368 . S
C868 C867 1.523 . S
C869 C853 1.429 . S
C869 C865 1.429 . S
C869 C870 1.523 . S
C870 C854 1.368 . S
C870 C866 1.368 . S
C870 C869 1.523 . S
H871 C846 0.950 . S
H872 C848 0.950 . S
H873 C849 0.949 . S
H874 C851 0.950 . S
H875 C853 0.950 . S
C337 C19 2.910 . S
C342 C325 2.866 . S
C367 C49 3.015 . S
C372 C253 2.942 . S
C397 C99 2.910 . S
C402 C289 2.866 . S
C427 C9 3.012 . S
C432 C301 2.978 . S
C462 C229 2.896 . S
C457 C59 2.908 . S
C492 C265 2.979 . S
C487 C89 3.012 . S
C517 C55 0.293 . S
C522 C181 0.334 . S
C547 C85 0.323 . S
C552 C193 0.194 . S
C577 C15 0.287 . S
C582 C121 0.321 . S
C612 C157 0.194 . S
C607 C45 0.323 . S
C642 C217 0.333 . S
C637 C95 0.291 . S
C667 C5 0.324 . S
C672 C145 0.295 . S
C702 C223 1.100 . S
C697 C18 1.077 . S
C727 C58 1.076 . S
C732 C151 1.094 . S
C757 C98 1.077 . S
C762 C187 1.100 . S
C792 C295 1.778 . S
C787 C48 1.700 . S
C822 C331 1.779 . S
C817 C88 1.700 . S
C847 C8 1.700 . S
C852 C259 1.780 . S
