# Generated by pormake.
# Topology sqc, (4,8)-cn, num edge types: 1
# Building blocks:
#     Node 0, Type 0, BuildingBlock: NAWXER_clean_linker_0, # of connection points: 4
#     Node 1, Type 0, BuildingBlock: NAWXER_clean_linker_0, # of connection points: 4
#     Node 2, Type 0, BuildingBlock: NAWXER_clean_linker_0, # of connection points: 4
#     Node 3, Type 0, BuildingBlock: NAWXER_clean_linker_0, # of connection points: 4
#     Node 4, Type 0, BuildingBlock: NAWXER_clean_linker_0, # of connection points: 4
#     Node 5, Type 0, BuildingBlock: NAWXER_clean_linker_0, # of connection points: 4
#     Node 6, Type 0, BuildingBlock: NAWXER_clean_linker_0, # of connection points: 4
#     Node 7, Type 0, BuildingBlock: NAWXER_clean_linker_0, # of connection points: 4
#     Node 8, Type 1, BuildingBlock: VETTIZ_charged_sbu_0, # of connection points: 8
#     Node 9, Type 1, BuildingBlock: VETTIZ_charged_sbu_0, # of connection points: 8
#     Node 10, Type 1, BuildingBlock: VETTIZ_charged_sbu_0, # of connection points: 8
#     Node 11, Type 1, BuildingBlock: VETTIZ_charged_sbu_0, # of connection points: 8
#     Edge 12, Type (0, 1), BuildingBlock: KIFKEQ_clean_linker_1, # of connection points: 2
#     Edge 13, Type (0, 1), BuildingBlock: KIFKEQ_clean_linker_1, # of connection points: 2
#     Edge 14, Type (0, 1), BuildingBlock: KIFKEQ_clean_linker_1, # of connection points: 2
#     Edge 15, Type (0, 1), BuildingBlock: KIFKEQ_clean_linker_1, # of connection points: 2
#     Edge 16, Type (0, 1), BuildingBlock: KIFKEQ_clean_linker_1, # of connection points: 2
#     Edge 17, Type (0, 1), BuildingBlock: KIFKEQ_clean_linker_1, # of connection points: 2
#     Edge 18, Type (0, 1), BuildingBlock: KIFKEQ_clean_linker_1, # of connection points: 2
#     Edge 19, Type (0, 1), BuildingBlock: KIFKEQ_clean_linker_1, # of connection points: 2
#     Edge 20, Type (0, 1), BuildingBlock: KIFKEQ_clean_linker_1, # of connection points: 2
#     Edge 21, Type (0, 1), BuildingBlock: KIFKEQ_clean_linker_1, # of connection points: 2
#     Edge 22, Type (0, 1), BuildingBlock: KIFKEQ_clean_linker_1, # of connection points: 2
#     Edge 23, Type (0, 1), BuildingBlock: KIFKEQ_clean_linker_1, # of connection points: 2
#     Edge 24, Type (0, 1), BuildingBlock: KIFKEQ_clean_linker_1, # of connection points: 2
#     Edge 25, Type (0, 1), BuildingBlock: KIFKEQ_clean_linker_1, # of connection points: 2
#     Edge 26, Type (0, 1), BuildingBlock: KIFKEQ_clean_linker_1, # of connection points: 2
#     Edge 27, Type (0, 1), BuildingBlock: KIFKEQ_clean_linker_1, # of connection points: 2
#     Edge 28, Type (0, 1), BuildingBlock: KIFKEQ_clean_linker_1, # of connection points: 2
#     Edge 29, Type (0, 1), BuildingBlock: KIFKEQ_clean_linker_1, # of connection points: 2
#     Edge 30, Type (0, 1), BuildingBlock: KIFKEQ_clean_linker_1, # of connection points: 2
#     Edge 31, Type (0, 1), BuildingBlock: KIFKEQ_clean_linker_1, # of connection points: 2
#     Edge 32, Type (0, 1), BuildingBlock: KIFKEQ_clean_linker_1, # of connection points: 2
#     Edge 33, Type (0, 1), BuildingBlock: KIFKEQ_clean_linker_1, # of connection points: 2
#     Edge 34, Type (0, 1), BuildingBlock: KIFKEQ_clean_linker_1, # of connection points: 2
#     Edge 35, Type (0, 1), BuildingBlock: KIFKEQ_clean_linker_1, # of connection points: 2
#     Edge 36, Type (0, 1), BuildingBlock: KIFKEQ_clean_linker_1, # of connection points: 2
#     Edge 37, Type (0, 1), BuildingBlock: KIFKEQ_clean_linker_1, # of connection points: 2
#     Edge 38, Type (0, 1), BuildingBlock: KIFKEQ_clean_linker_1, # of connection points: 2
#     Edge 39, Type (0, 1), BuildingBlock: KIFKEQ_clean_linker_1, # of connection points: 2
#     Edge 40, Type (0, 1), BuildingBlock: KIFKEQ_clean_linker_1, # of connection points: 2
#     Edge 41, Type (0, 1), BuildingBlock: KIFKEQ_clean_linker_1, # of connection points: 2
#     Edge 42, Type (0, 1), BuildingBlock: KIFKEQ_clean_linker_1, # of connection points: 2
#     Edge 43, Type (0, 1), BuildingBlock: KIFKEQ_clean_linker_1, # of connection points: 2
# Relax obj value: 0.124
# Max RMSD: 0.266
# Mean RMSD: 0.155
data_MOF--net-sqc--node1-VETTIZ_charged_sbu_0--node2-NAWXER_clean_linker_0--edge1-KIFKEQ_clean_linker_1
_symmetry_space_group_name_H-M    P1
_symmetry_Int_Tables_number       1
_symmetry_cell_setting            triclinic
loop_
_symmetry_equiv_pos_as_xyz
'x, y, z'
_cell_length_a     28.406669
_cell_length_b     28.435346
_cell_length_c     84.348138
_cell_angle_alpha  89.541508
_cell_angle_beta   90.352951
_cell_angle_gamma 89.781014
loop_
_atom_site_label
_atom_site_type_symbol
_atom_site_fract_x
_atom_site_fract_y
_atom_site_fract_z
_atom_type_partial_charge
C0 C 0.16734 0.98207 0.49451 0.0
C1 C 0.17679 0.93412 0.49211 0.0
C2 C 0.12567 0.99621 0.50174 0.0
C3 C 0.0927 0.96264 0.50672 0.0
C4 C 0.14413 0.90049 0.49733 0.0
C5 C 0.10215 0.91472 0.50444 0.0
C6 C 0.04737 0.97759 0.51351 0.0
C7 C 0.15258 0.01611 0.55254 0.0
C8 C 0.15744 0.06503 0.55413 0.0
C9 C 0.1171 0.99763 0.54285 0.0
C10 C 0.08571 0.02786 0.53482 0.0
C11 C 0.12657 0.09511 0.54581 0.0
C12 C 0.09067 0.07665 0.5364 0.0
C13 C 0.04449 0.00926 0.52624 0.0
C14 C 0.86542 0.99834 0.55484 0.0
C15 C 0.85138 0.04575 0.55596 0.0
C16 C 0.89792 0.98452 0.54341 0.0
C17 C 0.91735 0.01792 0.5331 0.0
C18 C 0.86855 0.07829 0.54473 0.0
C19 C 0.90196 0.06466 0.53363 0.0
C20 C 0.96098 0.0066 0.52477 0.0
C21 C 0.84828 0.98201 0.48854 0.0
C22 C 0.84467 0.93599 0.48269 0.0
C23 C 0.88619 0.99485 0.4982 0.0
C24 C 0.92114 0.96185 0.50245 0.0
C25 C 0.8797 0.90298 0.48693 0.0
C26 C 0.9176 0.91585 0.49664 0.0
C27 C 0.96338 0.97634 0.51164 0.0
H28 H 0.19201 0.00867 0.49062 0.0
H29 H 0.11869 0.03343 0.50309 0.0
H30 H 0.15038 0.86336 0.49544 0.0
H31 H 0.07693 0.88834 0.5081 0.0
H32 H 0.17618 0.99227 0.55879 0.0
H33 H 0.11328 0.95984 0.54201 0.0
H34 H 0.12948 0.13292 0.54692 0.0
H35 H 0.06638 0.1005 0.53044 0.0
H36 H 0.85349 0.97228 0.56331 0.0
H37 H 0.91047 0.94849 0.5434 0.0
H38 H 0.85746 0.11475 0.54484 0.0
H39 H 0.91724 0.09096 0.52587 0.0
H40 H 0.82259 0.00861 0.48522 0.0
H41 H 0.88894 0.03115 0.50182 0.0
H42 H 0.87782 0.86712 0.48275 0.0
H43 H 0.94432 0.88985 0.49957 0.0
N44 N 0.00671 0.96248 0.50659 0.0
N45 N 1.00143 0.02217 0.53144 0.0
C46 C 0.30886 0.6103 0.74155 0.0
C47 C 0.28511 0.60732 0.72693 0.0
C48 C 0.30167 0.64881 0.75144 0.0
C49 C 0.27087 0.68516 0.7468 0.0
C50 C 0.25315 0.64294 0.72253 0.0
C51 C 0.24653 0.68186 0.73232 0.0
C52 C 0.26692 0.72828 0.75636 0.0
C53 C 0.19274 0.61834 0.7863 0.0
C54 C 0.21111 0.61224 0.80173 0.0
C55 C 0.20908 0.65451 0.77648 0.0
C56 C 0.2444 0.68499 0.78185 0.0
C57 C 0.24737 0.64202 0.80688 0.0
C58 C 0.26365 0.67813 0.79707 0.0
C59 C 0.25701 0.72771 0.77274 0.0
C60 C 0.21189 0.9251 0.78776 0.0
C61 C 0.22886 0.9263 0.80345 0.0
C62 C 0.22569 0.88914 0.77758 0.0
C63 C 0.2567 0.8538 0.78293 0.0
C64 C 0.26149 0.8921 0.80855 0.0
C65 C 0.27494 0.85593 0.79841 0.0
C66 C 0.26464 0.81117 0.77341 0.0
C67 C 0.33857 0.92587 0.74698 0.0
C68 C 0.32469 0.93325 0.73111 0.0
C69 C 0.32251 0.88687 0.75551 0.0
C70 C 0.29126 0.85482 0.74851 0.0
C71 C 0.29366 0.90095 0.72408 0.0
C72 C 0.27724 0.86214 0.73269 0.0
C73 C 0.2762 0.81177 0.75714 0.0
H74 H 0.3337 0.58323 0.74519 0.0
H75 H 0.32143 0.65098 0.76243 0.0
H76 H 0.23483 0.64162 0.71124 0.0
H77 H 0.22287 0.70975 0.72849 0.0
H78 H 0.16425 0.59649 0.78206 0.0
H79 H 0.19253 0.65993 0.76501 0.0
H80 H 0.26271 0.63786 0.81859 0.0
H81 H 0.29068 0.70146 0.80151 0.0
H82 H 0.18694 0.95126 0.7835 0.0
H83 H 0.21034 0.8877 0.76581 0.0
H84 H 0.2748 0.89195 0.82061 0.0
H85 H 0.29849 0.8287 0.80283 0.0
H86 H 0.36203 0.95016 0.75286 0.0
H87 H 0.3355 0.88137 0.76747 0.0
H88 H 0.28282 0.905 0.71182 0.0
H89 H 0.25378 0.83759 0.72691 0.0
N90 N 0.27639 0.77024 0.74922 0.0
N91 N 0.25603 0.7692 0.78054 0.0
C92 C 0.34624 0.01707 0.98366 0.0
C93 C 0.34221 0.0658 0.98081 0.0
C94 C 0.38643 0.99818 0.9911 0.0
C95 C 0.42344 0.02761 0.99589 0.0
C96 C 0.37954 0.09505 0.98551 0.0
C97 C 0.41978 0.07611 0.99285 0.0
C98 C 0.46673 0.00847 1.00361 0.0
C99 C 0.34949 0.97899 0.03897 0.0
C100 C 0.33734 0.931 0.03817 0.0
C101 C 0.39122 0.9954 0.03218 0.0
C102 C 0.42193 0.96406 0.02471 0.0
C103 C 0.36821 0.90005 0.03037 0.0
C104 C 0.41033 0.91634 0.02393 0.0
C105 C 0.46607 0.98059 0.01752 0.0
C106 C 0.66739 0.9982 0.0395 0.0
C107 C 0.6755 0.95376 0.04645 0.0
C108 C 0.62693 0.00672 0.03032 0.0
C109 C 0.59351 0.97105 0.0279 0.0
C110 C 0.64185 0.9182 0.04411 0.0
C111 C 0.60108 0.92692 0.03508 0.0
C112 C 0.55015 0.98031 0.01833 0.0
C113 C 0.66765 0.97936 0.98323 0.0
C114 C 0.67199 0.01925 0.9735 0.0
C115 C 0.62864 0.97433 0.99311 0.0
C116 C 0.59416 0.01 0.9939 0.0
C117 C 0.63737 0.05455 0.97405 0.0
C118 C 0.59894 0.05006 0.98419 0.0
C119 C 0.55078 1.00373 1.00345 0.0
H120 H 0.31815 0.99352 0.98025 0.0
H121 H 0.38877 0.96052 0.99292 0.0
H122 H 0.37801 0.13259 0.98329 0.0
H123 H 0.44804 0.09949 0.99627 0.0
H124 H 0.32734 1.00389 0.0451 0.0
H125 H 0.39981 0.03241 0.03292 0.0
H126 H 0.35987 0.86316 0.02913 0.0
H127 H 0.43353 0.89176 0.01805 0.0
H128 H 0.69259 0.02632 0.04104 0.0
H129 H 0.62158 0.04141 0.02521 0.0
H130 H 0.64667 0.88378 0.04948 0.0
H131 H 0.57569 0.89897 0.03354 0.0
H132 H 0.69372 0.95149 0.98283 0.0
H133 H 0.62497 0.94187 0.99976 0.0
H134 H 0.6402 0.08574 0.96666 0.0
H135 H 0.57269 0.07779 0.98435 0.0
N136 N 0.50909 0.01824 0.99697 0.0
N137 N 0.50768 0.96829 0.02454 0.0
C138 C 0.20868 0.11897 0.23651 0.0
C139 C 0.15961 0.11292 0.235 0.0
C140 C 0.22724 0.15515 0.24574 0.0
C141 C 0.19723 0.18631 0.25365 0.0
C142 C 0.12971 0.14405 0.24311 0.0
C143 C 0.14835 0.18059 0.25219 0.0
C144 C 0.21638 0.22721 0.26228 0.0
C145 C 0.2602 0.10035 0.29221 0.0
C146 C 0.30914 0.09176 0.29171 0.0
C147 C 0.24103 0.14251 0.28628 0.0
C148 C 0.27034 0.17736 0.27989 0.0
C149 C 0.33809 0.12663 0.28492 0.0
C150 C 0.31897 0.16908 0.2793 0.0
C151 C 0.25096 0.2232 0.27435 0.0
C152 C 0.24983 0.42128 0.30009 0.0
C153 C 0.29731 0.42579 0.30457 0.0
C154 C 0.23487 0.38273 0.29122 0.0
C155 C 0.26718 0.34819 0.28633 0.0
C156 C 0.32953 0.39091 0.29985 0.0
C157 C 0.31457 0.35246 0.29087 0.0
C158 C 0.25126 0.30685 0.27704 0.0
C159 C 0.23103 0.4298 0.24419 0.0
C160 C 0.18379 0.44279 0.2417 0.0
C161 C 0.24237 0.38724 0.25169 0.0
C162 C 0.2067 0.35665 0.2568 0.0
C163 C 0.14807 0.41226 0.24686 0.0
C164 C 0.15946 0.36926 0.25417 0.0
C165 C 0.21902 0.31085 0.26427 0.0
H166 H 0.23297 0.09662 0.23017 0.0
H167 H 0.26506 0.15966 0.2463 0.0
H168 H 0.09185 0.14027 0.24245 0.0
H169 H 0.12454 0.20451 0.25809 0.0
H170 H 0.23659 0.07516 0.29759 0.0
H171 H 0.20342 0.14839 0.28704 0.0
H172 H 0.37568 0.12132 0.28391 0.0
H173 H 0.34224 0.19543 0.27436 0.0
H174 H 0.22395 0.44692 0.30382 0.0
H175 H 0.19777 0.37958 0.28842 0.0
H176 H 0.36642 0.39345 0.30302 0.0
H177 H 0.34015 0.32622 0.28738 0.0
H178 H 0.25925 0.45268 0.24036 0.0
H179 H 0.2791 0.37789 0.25333 0.0
H180 H 0.11136 0.42121 0.24493 0.0
H181 H 0.13143 0.346 0.25788 0.0
N182 N 0.20212 0.27091 0.25759 0.0
N183 N 0.26674 0.26317 0.28139 0.0
C184 C 0.8421 0.08092 0.25773 0.0
C185 C 0.82384 0.07 0.24269 0.0
C186 C 0.83182 0.12424 0.26468 0.0
C187 C 0.80349 0.15731 0.25661 0.0
C188 C 0.79605 0.10347 0.23458 0.0
C189 C 0.78639 0.14695 0.24142 0.0
C190 C 0.79106 0.20265 0.26391 0.0
C191 C 0.7146 0.08716 0.28879 0.0
C192 C 0.72487 0.08295 0.3051 0.0
C193 C 0.7272 0.12752 0.28029 0.0
C194 C 0.75178 0.16416 0.28771 0.0
C195 C 0.74791 0.12057 0.31263 0.0
C196 C 0.76118 0.16068 0.30403 0.0
C197 C 0.76755 0.20609 0.27856 0.0
C198 C 0.70694 0.40769 0.28062 0.0
C199 C 0.71691 0.4186 0.29654 0.0
C200 C 0.72473 0.36647 0.27385 0.0
C201 C 0.75274 0.33529 0.28288 0.0
C202 C 0.74597 0.38762 0.30537 0.0
C203 C 0.7631 0.34622 0.29868 0.0
C204 C 0.76904 0.29 0.27627 0.0
C205 C 0.85184 0.40253 0.25078 0.0
C206 C 0.85068 0.40071 0.23414 0.0
C207 C 0.83297 0.36585 0.25987 0.0
C208 C 0.8112 0.32733 0.25249 0.0
C209 C 0.82973 0.36192 0.22676 0.0
C210 C 0.81012 0.32573 0.23583 0.0
C211 C 0.79354 0.28639 0.26176 0.0
H212 H 0.86367 0.0557 0.26419 0.0
H213 H 0.84577 0.13187 0.27636 0.0
H214 H 0.78213 0.09614 0.22288 0.0
H215 H 0.76471 0.17217 0.23499 0.0
H216 H 0.69721 0.05909 0.28248 0.0
H217 H 0.71783 0.12987 0.26785 0.0
H218 H 0.75537 0.11936 0.32523 0.0
H219 H 0.77938 0.18876 0.3101 0.0
H220 H 0.68427 0.4302 0.27349 0.0
H221 H 0.7156 0.35834 0.26169 0.0
H222 H 0.75549 0.39519 0.31753 0.0
H223 H 0.78468 0.32272 0.30585 0.0
H224 H 0.8683 0.43184 0.25675 0.0
H225 H 0.83654 0.36724 0.27264 0.0
H226 H 0.828 0.35985 0.21395 0.0
H227 H 0.79415 0.29628 0.22979 0.0
N228 N 0.80303 0.24275 0.25612 0.0
N229 N 0.75757 0.24971 0.2842 0.0
C230 C 0.67824 0.92254 0.75228 0.0
C231 C 0.68913 0.92908 0.73617 0.0
C232 C 0.69515 0.8832 0.76064 0.0
C233 C 0.72421 0.85002 0.75317 0.0
C234 C 0.71753 0.89548 0.72864 0.0
C235 C 0.7348 0.85639 0.73704 0.0
C236 C 0.74129 0.8072 0.76171 0.0
C237 C 0.80941 0.92658 0.78735 0.0
C238 C 0.79915 0.93064 0.80358 0.0
C239 C 0.79544 0.88703 0.77886 0.0
C240 C 0.76983 0.85094 0.78627 0.0
C241 C 0.77332 0.8946 0.81099 0.0
C242 C 0.75905 0.85505 0.80243 0.0
C243 C 0.75808 0.80727 0.77757 0.0
C244 C 0.82282 0.6066 0.78788 0.0
C245 C 0.80534 0.59821 0.80324 0.0
C246 C 0.81018 0.64721 0.77942 0.0
C247 C 0.77861 0.6799 0.78587 0.0
C248 C 0.77443 0.6315 0.8098 0.0
C249 C 0.76133 0.67191 0.80122 0.0
C250 C 0.765 0.72339 0.77706 0.0
C251 C 0.71615 0.60315 0.74606 0.0
C252 C 0.7412 0.60064 0.73171 0.0
C253 C 0.71951 0.64283 0.7557 0.0
C254 C 0.74788 0.68085 0.75118 0.0
C255 C 0.76994 0.63879 0.72736 0.0
C256 C 0.77283 0.6786 0.73691 0.0
C257 C 0.75092 0.72372 0.76095 0.0
H258 H 0.65572 0.94732 0.75834 0.0
H259 H 0.68484 0.87843 0.77288 0.0
H260 H 0.72681 0.89965 0.71628 0.0
H261 H 0.75671 0.83118 0.73093 0.0
H262 H 0.8288 0.95382 0.7812 0.0
H263 H 0.80572 0.88427 0.76656 0.0
H264 H 0.76537 0.89623 0.82352 0.0
H265 H 0.73999 0.82738 0.80849 0.0
H266 H 0.84631 0.58172 0.78231 0.0
H267 H 0.82554 0.65313 0.76786 0.0
H268 H 0.76094 0.62685 0.82169 0.0
H269 H 0.73753 0.69695 0.80659 0.0
H270 H 0.69287 0.57503 0.74967 0.0
H271 H 0.69935 0.64416 0.76655 0.0
H272 H 0.79029 0.63799 0.71655 0.0
H273 H 0.79497 0.70759 0.73323 0.0
N274 N 0.73929 0.76547 0.75399 0.0
N275 N 0.76833 0.76527 0.78468 0.0
C276 C 0.64161 0.54319 0.97858 0.0
C277 C 0.64594 0.49775 0.97223 0.0
C278 C 0.60255 0.55517 0.98784 0.0
C279 C 0.56754 0.52166 0.99117 0.0
C280 C 0.60955 0.46527 0.97495 0.0
C281 C 0.571 0.47704 0.98429 0.0
C282 C 0.52658 0.53217 1.00148 0.0
C283 C 0.65638 0.54788 0.03088 0.0
C284 C 0.66306 0.59293 0.03728 0.0
C285 C 0.61295 0.53509 0.02443 0.0
C286 C 0.57559 0.56756 0.02368 0.0
C287 C 0.62496 0.62484 0.03699 0.0
C288 C 0.58172 0.61225 0.03026 0.0
C289 C 0.52992 0.55471 0.01634 0.0
C290 C 0.33484 0.52495 0.0434 0.0
C291 C 0.32733 0.56884 0.05053 0.0
C292 C 0.37365 0.51769 0.03353 0.0
C293 C 0.40519 0.55451 0.03021 0.0
C294 C 0.35952 0.6053 0.04749 0.0
C295 C 0.398 0.59817 0.03748 0.0
C296 C 0.44651 0.54749 0.01966 0.0
C297 C 0.31958 0.51839 0.98817 0.0
C298 C 0.31881 0.47222 0.98229 0.0
C299 C 0.35971 0.53548 0.99588 0.0
C300 C 0.39941 0.50646 0.99795 0.0
C301 C 0.35845 0.44322 0.98462 0.0
C302 C 0.39838 0.46027 0.99228 0.0
C303 C 0.44357 0.52436 1.00491 0.0
H304 H 0.6688 0.56918 0.97669 0.0
H305 H 0.60003 0.59041 0.99254 0.0
H306 H 0.61081 0.43043 0.96987 0.0
H307 H 0.54416 0.45077 0.98638 0.0
H308 H 0.68474 0.52235 0.03075 0.0
H309 H 0.60873 0.49977 0.01994 0.0
H310 H 0.62818 0.65937 0.04219 0.0
H311 H 0.55314 0.63759 0.03009 0.0
H312 H 0.3113 0.49588 0.04575 0.0
H313 H 0.3792 0.48303 0.02865 0.0
H314 H 0.35468 0.6396 0.05274 0.0
H315 H 0.42195 0.62703 0.03528 0.0
H316 H 0.28975 0.54171 0.9864 0.0
H317 H 0.36014 0.57159 0.99986 0.0
H318 H 0.35868 0.40726 0.98048 0.0
H319 H 0.42869 0.43734 0.99373 0.0
N320 N 0.48359 0.51763 0.9965 0.0
N321 N 0.48969 0.56203 0.02475 0.0
C322 C 0.85887 0.5356 0.5564 0.0
C323 C 0.85676 0.48898 0.56204 0.0
C324 C 0.89802 0.55141 0.54788 0.0
C325 C 0.93544 0.52061 0.54446 0.0
C326 C 0.89476 0.4586 0.55898 0.0
C327 C 0.9336 0.47425 0.55031 0.0
C328 C 0.97738 0.53639 0.53534 0.0
C329 C 0.85624 0.55438 0.50098 0.0
C330 C 0.84581 0.60166 0.49739 0.0
C331 C 0.89765 0.54236 0.50908 0.0
C332 C 0.92947 0.57739 0.5137 0.0
C333 C 0.8774 0.63675 0.50221 0.0
C334 C 0.91919 0.62463 0.51014 0.0
C335 C 0.97459 0.56453 0.52144 0.0
C336 C 0.16019 0.54721 0.49098 0.0
C337 C 0.17606 0.5938 0.4888 0.0
C338 C 0.12284 0.53713 0.5012 0.0
C339 C 0.09968 0.57336 0.50923 0.0
C340 C 0.15295 0.62985 0.4972 0.0
C341 C 0.11471 0.6198 0.50705 0.0
C342 C 0.05839 0.56286 0.51926 0.0
C343 C 0.18605 0.53448 0.54992 0.0
C344 C 0.18934 0.48871 0.55625 0.0
C345 C 0.1449 0.54957 0.54218 0.0
C346 C 0.1066 0.51885 0.54031 0.0
C347 C 0.15106 0.45804 0.55436 0.0
C348 C 0.11016 0.47298 0.5465 0.0
C349 C 0.06137 0.53501 0.53318 0.0
H350 H 0.83056 0.5601 0.5588 0.0
H351 H 0.89911 0.58788 0.54413 0.0
H352 H 0.89411 0.42239 0.56304 0.0
H353 H 0.96204 0.4498 0.54799 0.0
H354 H 0.83244 0.52666 0.49742 0.0
H355 H 0.90526 0.50561 0.51148 0.0
H356 H 0.87043 0.67339 0.49944 0.0
H357 H 0.94355 0.65211 0.51349 0.0
H358 H 0.17577 0.51836 0.48456 0.0
H359 H 0.11126 0.50106 0.50255 0.0
H360 H 0.16437 0.66601 0.49629 0.0
H361 H 0.09723 0.64827 0.51315 0.0
H362 H 0.2147 0.55911 0.55142 0.0
H363 H 0.14261 0.58574 0.53817 0.0
H364 H 0.15273 0.42241 0.55897 0.0
H365 H 0.08109 0.44866 0.54534 0.0
N366 N 0.02074 0.52273 0.54059 0.0
N367 N 0.01516 0.57673 0.51398 0.0
Fe368 Fe 1.00012 0.76044 0.16156 0.0
O369 O 0.04412 0.75641 0.14328 0.0
Fe370 Fe 0.89053 0.74921 0.14223 0.0
Fe371 Fe 0.11018 0.77181 0.14279 0.0
O372 O 0.9566 0.76471 0.14297 0.0
O373 O 0.9586 0.74693 0.14071 0.0
O374 O 0.04204 0.77382 0.14077 0.0
Fe375 Fe 1.00065 0.75893 0.12218 0.0
C376 C 0.06252 0.85016 0.16258 0.0
O377 O 0.05021 0.74644 0.17851 0.0
O378 O 0.1135 0.7303 0.16332 0.0
O379 O 0.95286 0.73321 0.10579 0.0
O380 O 0.89427 0.70787 0.12213 0.0
O381 O 0.9007 0.6917 0.157 0.0
O382 O 0.97948 0.68931 0.16265 0.0
O383 O 0.11394 0.71301 0.12891 0.0
O384 O 0.03826 0.69416 0.12173 0.0
C385 C 0.93756 0.67148 0.16302 0.0
O386 O 0.96305 0.82349 0.11997 0.0
O387 O 0.88721 0.80687 0.12743 0.0
O388 O 0.02088 0.83158 0.16254 0.0
O389 O 0.09944 0.83027 0.15672 0.0
C390 C 0.09019 0.72665 0.17631 0.0
C391 C 0.0833 0.68579 0.12241 0.0
C392 C 0.0864 0.80691 0.10833 0.0
O393 O 0.10654 0.81166 0.12198 0.0
O394 O 0.04928 0.78207 0.10576 0.0
C395 C 0.91511 0.70957 0.10861 0.0
O396 O 0.88721 0.7917 0.16217 0.0
O397 O 0.94925 0.77394 0.17808 0.0
C398 C 0.91811 0.83254 0.12034 0.0
C399 C 0.90953 0.79418 0.17546 0.0
Fe400 Fe 0.50844 0.75731 0.40994 0.0
O401 O 0.53491 0.71683 0.39306 0.0
Fe402 Fe 0.48732 0.86342 0.3911 0.0
Fe403 Fe 0.53015 0.64828 0.39416 0.0
O404 O 0.48163 0.79459 0.3919 0.0
O405 O 0.48147 0.79435 0.39024 0.0
O406 O 0.53528 0.71689 0.39148 0.0
Fe407 Fe 0.5092 0.75435 0.37311 0.0
C408 C 0.57342 0.68067 0.42503 0.0
O409 O 0.44778 0.71862 0.41076 0.0
O410 O 0.47959 0.64732 0.41199 0.0
O411 O 0.47716 0.80115 0.35645 0.0
O412 O 0.44169 0.85809 0.372 0.0
O413 O 0.43964 0.85908 0.40926 0.0
O414 O 0.47532 0.80384 0.42558 0.0
O415 O 0.47766 0.64218 0.37764 0.0
O416 O 0.44862 0.7139 0.37207 0.0
C417 C 0.4448 0.83716 0.42272 0.0
O418 O 0.57 0.79427 0.37232 0.0
O419 O 0.53953 0.86652 0.37455 0.0
O420 O 0.54251 0.71413 0.42694 0.0
O421 O 0.5783 0.65633 0.41219 0.0
C422 C 0.44585 0.67567 0.41482 0.0
C423 C 0.44586 0.66908 0.37191 0.0
C424 C 0.57143 0.67076 0.36133 0.0
O425 O 0.57569 0.65052 0.37518 0.0
O426 O 0.54307 0.70588 0.35791 0.0
C427 C 0.4483 0.83658 0.35862 0.0
O428 O 0.53861 0.86746 0.40885 0.0
O429 O 0.56898 0.79563 0.40966 0.0
C430 C 0.57247 0.83878 0.37057 0.0
C431 C 0.57199 0.83918 0.41247 0.0
Fe432 Fe 0.5096 0.30461 0.67961 0.0
O433 O 0.51613 0.30377 0.65641 0.0
Fe434 Fe 0.45994 0.27533 0.64318 0.0
Fe435 Fe 0.56938 0.27115 0.64563 0.0
O436 O 0.51113 0.30365 0.65634 0.0
O437 O 0.51335 0.24389 0.63218 0.0
O438 O 0.51809 0.24377 0.63229 0.0
Fe439 Fe 0.51965 0.24266 0.60906 0.0
C440 C 0.60673 0.34069 0.67089 0.0
O441 O 0.55828 0.25163 0.68379 0.0
O442 O 0.56473 0.2144 0.66082 0.0
O443 O 0.46247 0.19891 0.61109 0.0
O444 O 0.41333 0.24006 0.62773 0.0
O445 O 0.45508 0.21848 0.65826 0.0
O446 O 0.45709 0.25497 0.68151 0.0
O447 O 0.61793 0.23123 0.63249 0.0
O448 O 0.57175 0.19421 0.61373 0.0
C449 C 0.44843 0.21892 0.67314 0.0
O450 O 0.47096 0.29551 0.60498 0.0
O451 O 0.46197 0.33211 0.62799 0.0
O452 O 0.56615 0.34887 0.67733 0.0
O453 O 0.61602 0.30652 0.66111 0.0
C454 C 0.56773 0.21491 0.67586 0.0
C455 C 0.6104 0.19886 0.62187 0.0
C456 C 0.58747 0.32497 0.61573 0.0
O457 O 0.57773 0.32752 0.63041 0.0
O458 O 0.57329 0.29108 0.60718 0.0
C459 C 0.4214 0.20807 0.61703 0.0
O460 O 0.41069 0.31409 0.65648 0.0
O461 O 0.45679 0.3525 0.675 0.0
C462 C 0.4565 0.33033 0.61304 0.0
C463 C 0.41838 0.34714 0.66681 0.0
Fe464 Fe 0.96294 0.25974 0.92865 0.0
O465 O 0.96671 0.25761 0.90544 0.0
Fe466 Fe 0.99248 0.31694 0.89335 0.0
Fe467 Fe 1.00195 0.20784 0.89383 0.0
O468 O 0.96591 0.26234 0.90534 0.0
O469 O 0.02909 0.26722 0.8821 0.0
O470 O 0.02966 0.2624 0.88215 0.0
Fe471 Fe 0.0345 0.26452 0.85898 0.0
C472 C 0.05564 0.20441 0.92466 0.0
O473 O 0.92194 0.20157 0.92482 0.0
O474 O 0.96644 0.157 0.9076 0.0
O475 O 0.98039 0.31138 0.8549 0.0
O476 O 0.93815 0.31458 0.87702 0.0
O477 O 0.94862 0.36151 0.90693 0.0
O478 O 0.91222 0.31013 0.92438 0.0
O479 O 0.94747 0.20221 0.87774 0.0
O480 O 0.9883 0.20983 0.85542 0.0
C481 C 0.9152 0.34994 0.9168 0.0
O482 O 0.07489 0.32354 0.86276 0.0
O483 O 0.02674 0.36738 0.87913 0.0
O484 O 0.01864 0.21341 0.93259 0.0
O485 O 0.05703 0.21001 0.9097 0.0
C486 C 0.93157 0.16301 0.91737 0.0
C487 C 0.95264 0.19481 0.86299 0.0
C488 C 0.07744 0.17225 0.87007 0.0
O489 O 0.04369 0.16297 0.88002 0.0
O490 O 0.08438 0.21297 0.86338 0.0
C491 C 0.94316 0.32294 0.86227 0.0
O492 O 0.04683 0.32294 0.90926 0.0
O493 O 0.00881 0.31487 0.9321 0.0
C494 C 0.06108 0.36282 0.86903 0.0
C495 C 0.04421 0.32854 0.92414 0.0
H496 H 0.24086 0.86545 0.50004 0.0
H497 H 0.20766 0.96968 0.46417 0.0
H498 H 0.3109 0.84223 0.48518 0.0
H499 H 0.276 0.94577 0.44909 0.0
H500 H 0.41876 0.92559 0.43034 0.0
H501 H 0.35824 0.94928 0.44895 0.0
H502 H 0.33556 0.80341 0.46163 0.0
H503 H 0.39836 0.7802 0.44353 0.0
C504 C 0.24854 0.88318 0.48894 0.0
C505 C 0.21925 0.91964 0.48331 0.0
C506 C 0.28848 0.86986 0.48041 0.0
C507 C 0.29951 0.89245 0.466 0.0
C508 C 0.26958 0.92849 0.46035 0.0
C509 C 0.23019 0.9421 0.46894 0.0
C510 C 0.40131 0.89876 0.43733 0.0
C511 C 0.41284 0.85116 0.4355 0.0
C512 C 0.36634 0.9122 0.44789 0.0
C513 C 0.34118 0.87821 0.45655 0.0
C514 C 0.35435 0.83058 0.45524 0.0
C515 C 0.39021 0.81721 0.44487 0.0
H516 H 0.27814 0.98842 0.70911 0.0
H517 H 0.4136 0.97036 0.73208 0.0
H518 H 0.30866 0.05593 0.6944 0.0
H519 H 0.44337 0.03855 0.71771 0.0
H520 H 0.45597 0.19578 0.70443 0.0
H521 H 0.42648 0.12571 0.71783 0.0
H522 H 0.37047 0.07516 0.67345 0.0
H523 H 0.40016 0.14551 0.65993 0.0
C524 C 0.31448 0.9985 0.71095 0.0
C525 C 0.34326 0.97401 0.72189 0.0
C526 C 0.33188 0.03724 0.70253 0.0
C527 C 0.37828 0.0526 0.70498 0.0
C528 C 0.40722 0.0279 0.71576 0.0
C529 C 0.39002 0.98895 0.72405 0.0
C530 C 0.43719 0.16986 0.69752 0.0
C531 C 0.43013 0.17632 0.68114 0.0
C532 C 0.42065 0.12956 0.70518 0.0
C533 C 0.3962 0.09501 0.69668 0.0
C534 C 0.38892 0.10144 0.6803 0.0
C535 C 0.40609 0.14154 0.67257 0.0
H536 H 0.2938 0.14623 0.98831 0.0
H537 H 0.29417 0.03142 0.95511 0.0
H538 H 0.22531 0.18038 0.9748 0.0
H539 H 0.22509 0.06503 0.94182 0.0
H540 H 0.13517 0.16644 0.91155 0.0
H541 H 0.20381 0.13349 0.92519 0.0
H542 H 0.14086 0.16512 0.97035 0.0
H543 H 0.07224 0.19853 0.95673 0.0
C544 C 0.27931 0.12828 0.97812 0.0
C545 C 0.29962 0.08607 0.97279 0.0
C546 C 0.23974 0.14764 0.97046 0.0
C547 C 0.21964 0.12552 0.95719 0.0
C548 C 0.23991 0.08328 0.95189 0.0
C549 C 0.27925 0.06372 0.95962 0.0
C550 C 0.13591 0.16656 0.9244 0.0
C551 C 0.09794 0.18513 0.93302 0.0
C552 C 0.17521 0.14732 0.93222 0.0
C553 C 0.17786 0.14644 0.94888 0.0
C554 C 0.14019 0.16554 0.95751 0.0
C555 C 0.10068 0.18446 0.94969 0.0
H556 H 0.07962 0.11543 0.21623 0.0
H557 H 0.19486 0.02413 0.23035 0.0
H558 H 0.05074 0.05468 0.19828 0.0
H559 H 0.16701 0.96488 0.21191 0.0
H560 H 0.14229 0.90324 0.1631 0.0
H561 H 0.1612 0.96746 0.18075 0.0
H562 H 0.02041 0.96396 0.19958 0.0
H563 H 1.00107 0.89834 0.18198 0.0
C564 C 0.09857 0.08239 0.21569 0.0
C565 C 0.14003 0.0751 0.22469 0.0
C566 C 0.08202 0.04774 0.20534 0.0
C567 C 0.10697 1.00544 0.20359 0.0
C568 C 0.14754 0.99757 0.21285 0.0
C569 C 0.16365 0.03174 0.22335 0.0
C570 C 0.11492 0.91622 0.17082 0.0
C571 C 0.07023 0.89497 0.1712 0.0
C572 C 0.12596 0.953 0.18099 0.0
C573 C 0.09256 0.97006 0.1917 0.0
C574 C 0.04685 0.95126 0.19144 0.0
C575 C 0.0358 0.91381 0.18132 0.0
H576 H 0.22177 0.13143 0.54626 0.0
H577 H 0.1761 0.04387 0.58523 0.0
H578 H 0.28361 0.16446 0.56309 0.0
H579 H 0.23781 0.07775 0.60222 0.0
H580 H 0.32804 0.20741 0.62624 0.0
H581 H 0.26164 0.17111 0.61209 0.0
H582 H 0.35732 0.11686 0.57716 0.0
H583 H 0.42314 0.1516 0.59109 0.0
C584 C 0.22483 0.11957 0.55846 0.0
C585 C 0.1945 0.08498 0.56445 0.0
C586 C 0.26007 0.1384 0.56806 0.0
C587 C 0.26514 0.12363 0.5839 0.0
C588 C 0.23424 0.0898 0.59005 0.0
C589 C 0.19941 0.07023 0.58033 0.0
C590 C 0.33494 0.18722 0.61566 0.0
C591 C 0.38103 0.18281 0.6098 0.0
C592 C 0.29701 0.16645 0.60762 0.0
C593 C 0.30465 0.14173 0.5935 0.0
C594 C 0.35062 0.13614 0.58795 0.0
C595 C 0.38833 0.15605 0.59603 0.0
H596 H 0.27768 0.98021 0.82466 0.0
H597 H 0.13707 0.94951 0.80807 0.0
H598 H 0.2453 0.03614 0.84373 0.0
H599 H 0.1049 1.00546 0.82692 0.0
H600 H 0.05637 0.07848 0.87068 0.0
H601 H 0.09661 0.01594 0.85638 0.0
H602 H 0.2033 0.11434 0.84151 0.0
H603 H 0.16341 0.17683 0.85584 0.0
C604 C 0.23992 0.98537 0.82513 0.0
C605 C 0.20989 0.96089 0.81481 0.0
C606 C 0.22145 0.01735 0.83599 0.0
C607 C 0.1726 0.02484 0.83687 0.0
C608 C 0.14264 0.9999 0.82667 0.0
C609 C 0.16109 0.9684 0.81572 0.0
C610 C 0.08904 0.08654 0.86471 0.0
C611 C 0.1064 0.13274 0.86424 0.0
C612 C 0.11183 0.05081 0.85641 0.0
C613 C 0.15267 0.06049 0.84767 0.0
C614 C 0.17193 0.10585 0.84817 0.0
C615 C 0.14892 0.14167 0.85632 0.0
H616 H 0.3234 0.84498 0.0525 0.0
H617 H 0.25164 0.97594 0.04152 0.0
H618 H 0.25361 0.81676 0.066 0.0
H619 H 0.18281 0.94817 0.05603 0.0
H620 H 0.12213 0.89504 0.10693 0.0
H621 H 0.17621 0.92636 0.08705 0.0
H622 H 0.1622 0.79881 0.06007 0.0
H623 H 0.10685 0.76791 0.0798 0.0
C624 C 0.29268 0.86759 0.05267 0.0
C625 C 0.29361 0.91298 0.04585 0.0
C626 C 0.25266 0.8513 0.06048 0.0
C627 C 0.21288 0.88023 0.06196 0.0
C628 C 0.21317 0.92524 0.05502 0.0
C629 C 0.25288 0.94125 0.04689 0.0
C630 C 0.12949 0.87439 0.09648 0.0
C631 C 0.11036 0.82922 0.09481 0.0
C632 C 0.16029 0.8923 0.08512 0.0
C633 C 0.1734 0.86487 0.07211 0.0
C634 C 0.15252 0.82057 0.07002 0.0
C635 C 0.12071 0.80309 0.08122 0.0
H636 H 0.3955 0.08016 0.30638 0.0
H637 H 0.27058 1.00256 0.2933 0.0
H638 H 0.42813 0.00981 0.31879 0.0
H639 H 0.30269 0.93285 0.30665 0.0
H640 H 0.48893 0.86677 0.33123 0.0
H641 H 0.45521 0.92391 0.31231 0.0
H642 H 0.32215 0.91657 0.33659 0.0
H643 H 0.35616 0.86055 0.35564 0.0
C644 C 0.37513 0.04812 0.30585 0.0
C645 C 0.33007 0.04765 0.29874 0.0
C646 C 0.39398 0.00768 0.31306 0.0
C647 C 0.36807 0.96576 0.31364 0.0
C648 C 0.32341 0.96476 0.30641 0.0
C649 C 0.30486 1.005 0.2989 0.0
C650 C 0.45201 0.87605 0.33211 0.0
C651 C 0.42496 0.85898 0.34478 0.0
C652 C 0.43288 0.90913 0.32142 0.0
C653 C 0.38612 0.9249 0.32304 0.0
C654 C 0.35812 0.90487 0.33497 0.0
C655 C 0.37752 0.87272 0.34585 0.0
H656 H 0.85476 0.12983 0.57162 0.0
H657 H 0.77983 0.9977 0.57076 0.0
H658 H 0.80073 0.15927 0.59123 0.0
H659 H 0.72895 0.02537 0.59171 0.0
H660 H 0.60349 0.11834 0.60495 0.0
H661 H 0.66594 0.07586 0.59235 0.0
H662 H 0.76884 0.16149 0.61664 0.0
H663 H 0.70514 0.20664 0.62863 0.0
C664 C 0.82696 0.10682 0.57567 0.0
C665 C 0.82091 0.06181 0.56916 0.0
C666 C 0.79659 0.12338 0.5873 0.0
C667 C 0.75995 0.09498 0.59302 0.0
C668 C 0.756 0.04875 0.58733 0.0
C669 C 0.78566 0.0326 0.5754 0.0
C670 C 0.63939 0.12802 0.60779 0.0
C671 C 0.64925 0.16691 0.61743 0.0
C672 C 0.67553 0.103 0.60068 0.0
C673 C 0.72273 0.11556 0.60321 0.0
C674 C 0.73283 0.15166 0.61407 0.0
C675 C 0.69637 0.17727 0.62108 0.0
H676 H 0.77164 0.03938 0.32995 0.0
H677 H 0.64583 0.02866 0.30108 0.0
H678 H 0.74591 0.97186 0.34571 0.0
H679 H 0.62158 0.96029 0.31639 0.0
H680 H 0.59941 0.82162 0.34031 0.0
H681 H 0.64498 0.87543 0.32352 0.0
H682 H 0.67591 0.96077 0.36437 0.0
H683 H 0.62988 0.90747 0.38097 0.0
C684 C 0.73865 0.02273 0.32689 0.0
C685 C 0.71079 0.03997 0.31422 0.0
C686 C 0.72422 0.98371 0.33584 0.0
C687 C 0.68199 0.96052 0.33219 0.0
C688 C 0.65482 0.9768 0.31929 0.0
C689 C 0.66883 0.01614 0.31049 0.0
C690 C 0.61776 0.85073 0.34576 0.0
C691 C 0.61174 0.8603 0.36191 0.0
C692 C 0.64326 0.88184 0.33615 0.0
C693 C 0.66361 0.92253 0.34262 0.0
C694 C 0.66095 0.9296 0.35906 0.0
C695 C 0.6348 0.89904 0.36858 0.0
H696 H 0.7342 0.8772 0.04573 0.0
H697 H 0.71406 0.00962 0.06946 0.0
H698 H 0.80188 0.86002 0.06285 0.0
H699 H 0.78208 0.99256 0.08656 0.0
H700 H 0.84961 0.89582 0.12737 0.0
H701 H 0.79648 0.93345 0.10825 0.0
H702 H 0.88415 0.88548 0.06997 0.0
H703 H 0.93762 0.84812 0.08921 0.0
C704 C 0.74442 0.90278 0.05454 0.0
C705 C 0.7185 0.94463 0.05629 0.0
C706 C 0.7836 0.89323 0.06423 0.0
C707 C 0.79761 0.92504 0.07604 0.0
C708 C 0.77223 0.96732 0.07759 0.0
C709 C 0.73337 0.97715 0.06775 0.0
C710 C 0.85872 0.89528 0.11491 0.0
C711 C 0.89799 0.86938 0.1098 0.0
C712 C 0.8281 0.91659 0.10393 0.0
C713 C 0.83562 0.9118 0.08756 0.0
C714 C 0.87709 0.88931 0.08249 0.0
C715 C 0.9082 0.86862 0.09353 0.0
H716 H 0.75491 0.98064 0.82713 0.0
H717 H 0.88525 0.97223 0.80114 0.0
H718 H 0.78571 0.04797 0.84185 0.0
H719 H 0.91538 0.03926 0.81558 0.0
H720 H 0.94148 0.18548 0.83114 0.0
H721 H 0.89956 0.12402 0.81712 0.0
H722 H 0.84932 0.06821 0.86165 0.0
H723 H 0.89108 0.1305 0.87581 0.0
C724 C 0.7901 0.99298 0.82458 0.0
C725 C 0.81735 0.97133 0.81279 0.0
C726 C 0.80766 0.03156 0.833 0.0
C727 C 0.85269 0.04938 0.82971 0.0
C728 C 0.88007 0.02721 0.81811 0.0
C729 C 0.86271 0.98873 0.8098 0.0
C730 C 0.92099 0.16057 0.83798 0.0
C731 C 0.92021 0.16254 0.85462 0.0
C732 C 0.89714 0.12517 0.82993 0.0
C733 C 0.87196 0.09065 0.83829 0.0
C734 C 0.86847 0.0943 0.85487 0.0
C735 C 0.89238 0.12999 0.86298 0.0
H736 H 0.84854 0.88218 0.45594 0.0
H737 H 0.75154 0.96082 0.48483 0.0
H738 H 0.78424 0.86138 0.4381 0.0
H739 H 0.68712 0.93986 0.46702 0.0
H740 H 0.5891 0.92771 0.4241 0.0
H741 H 0.65581 0.9527 0.44039 0.0
H742 H 0.71511 0.81284 0.43787 0.0
H743 H 0.6497 0.78836 0.42131 0.0
C744 C 0.81341 0.89467 0.45858 0.0
C745 C 0.80522 0.923 0.47188 0.0
C746 C 0.77651 0.88283 0.44832 0.0
C747 C 0.73041 0.89892 0.45111 0.0
C748 C 0.72227 0.92748 0.46436 0.0
C749 C 0.75921 0.93938 0.47461 0.0
C750 C 0.61664 0.90247 0.42689 0.0
C751 C 0.6138 0.85597 0.42143 0.0
C752 C 0.6547 0.91668 0.43634 0.0
C753 C 0.69081 0.88475 0.44051 0.0
C754 C 0.68835 0.83859 0.43475 0.0
C755 C 0.65051 0.82445 0.42531 0.0
H756 H 0.90931 0.0275 0.23914 0.0
H757 H 0.76118 0.00941 0.22949 0.0
H758 H 0.92675 0.95561 0.22467 0.0
H759 H 0.77807 0.93652 0.21553 0.0
H760 H 0.83324 0.85278 0.17313 0.0
H761 H 0.81101 0.91506 0.19104 0.0
H762 H 0.92169 0.87219 0.22352 0.0
H763 H 0.9452 0.81062 0.20524 0.0
C764 C 0.88044 0.00751 0.23418 0.0
C765 C 0.83399 0.02411 0.23527 0.0
C766 C 0.89032 0.96617 0.22595 0.0
C767 C 0.85383 0.94027 0.21883 0.0
C768 C 0.80714 0.95603 0.22056 0.0
C769 C 0.79739 0.99766 0.22859 0.0
C770 C 0.85249 0.85602 0.18419 0.0
C771 C 0.89129 0.82676 0.18764 0.0
C772 C 0.83953 0.89176 0.19454 0.0
C773 C 0.86472 0.89899 0.20872 0.0
C774 C 0.90205 0.86823 0.21257 0.0
C775 C 0.91526 0.8326 0.20214 0.0
H776 H 0.76508 0.01916 0.98126 0.0
H777 H 0.66947 0.03085 0.94153 0.0
H778 H 0.83081 0.03971 0.96408 0.0
H779 H 0.73523 0.04873 0.92402 0.0
H780 H 0.84044 0.16533 0.90954 0.0
H781 H 0.77884 0.11717 0.92077 0.0
H782 H 0.88409 0.02739 0.94288 0.0
H783 H 0.94612 0.07761 0.93182 0.0
C784 C 0.75851 0.02488 0.96872 0.0
C785 C 0.7124 0.02438 0.96271 0.0
C786 C 0.79617 0.0362 0.95881 0.0
C787 C 0.78841 0.04654 0.94263 0.0
C788 C 0.74246 0.0422 0.93647 0.0
C789 C 0.70478 0.03186 0.94644 0.0
C790 C 0.85032 0.13424 0.91632 0.0
C791 C 0.89769 0.12495 0.91984 0.0
C792 C 0.81499 0.10638 0.92276 0.0
C793 C 0.82628 0.06851 0.93295 0.0
C794 C 0.87412 0.05676 0.93532 0.0
C795 C 0.90967 0.08495 0.92882 0.0
H796 H 0.68627 0.02075 0.74569 0.0
H797 H 0.6501 0.93121 0.70641 0.0
H798 H 0.65649 0.08889 0.73101 0.0
H799 H 0.61928 0.99912 0.6918 0.0
H800 H 0.61329 0.13798 0.66383 0.0
H801 H 0.64233 0.06903 0.67828 0.0
H802 H 0.58606 0.12512 0.72174 0.0
H803 H 0.55852 0.19461 0.70739 0.0
C804 C 0.67149 0.01558 0.73397 0.0
C805 C 0.6706 0.97058 0.72722 0.0
C806 C 0.65424 0.05464 0.72555 0.0
C807 C 0.63528 0.04968 0.71019 0.0
C808 C 0.63429 1.00453 0.70347 0.0
C809 C 0.65188 0.96552 0.71186 0.0
C810 C 0.60707 0.13553 0.67647 0.0
C811 C 0.58397 0.17205 0.68447 0.0
C812 C 0.62352 0.09583 0.68476 0.0
C813 C 0.61685 0.09144 0.70124 0.0
C814 C 0.59283 0.12763 0.70914 0.0
C815 C 0.5768 0.16747 0.70089 0.0
H816 H 0.69154 0.41327 0.97354 0.0
H817 H 0.69731 0.54939 0.95045 0.0
H818 H 0.75615 0.386 0.95727 0.0
H819 H 0.76389 0.52195 0.93441 0.0
H820 H 0.91976 0.44115 0.92736 0.0
H821 H 0.85435 0.48473 0.93966 0.0
H822 H 0.75853 0.37455 0.92609 0.0
H823 H 0.82315 0.33151 0.91401 0.0
C824 C 0.7064 0.43742 0.96495 0.0
C825 C 0.68833 0.48325 0.96308 0.0
C826 C 0.74366 0.42181 0.95569 0.0
C827 C 0.76445 0.45166 0.94442 0.0
C828 C 0.74828 0.49825 0.94299 0.0
C829 C 0.71031 0.51388 0.9522 0.0
C830 C 0.88432 0.42743 0.9265 0.0
C831 C 0.87629 0.38302 0.91983 0.0
C832 C 0.84706 0.45214 0.93357 0.0
C833 C 0.80169 0.43246 0.93404 0.0
C834 C 0.79328 0.39014 0.92608 0.0
C835 C 0.83016 0.36568 0.9191 0.0
H836 H 0.91185 0.39456 0.20931 0.0
H837 H 0.83305 0.49437 0.23699 0.0
H838 H 0.93864 0.45867 0.1919 0.0
H839 H 0.85919 0.55804 0.21947 0.0
H840 H 0.85337 0.63085 0.16999 0.0
H841 H 0.83829 0.56531 0.18776 0.0
H842 H 0.98745 0.54545 0.19501 0.0
H843 H 1.00333 0.61246 0.17726 0.0
C844 C 0.90063 0.43024 0.21172 0.0
C845 C 0.87021 0.4396 0.22443 0.0
C846 C 0.9162 0.46678 0.20186 0.0
C847 C 0.90083 0.51304 0.20438 0.0
C848 C 0.87145 0.52255 0.21731 0.0
C849 C 0.85662 0.48624 0.22733 0.0
C850 C 0.8833 0.61254 0.17516 0.0
C851 C 0.92971 0.62735 0.17219 0.0
C852 C 0.87445 0.57509 0.18544 0.0
C853 C 0.91165 0.55087 0.19285 0.0
C854 C 0.95821 0.56384 0.18942 0.0
C855 C 0.9672 0.60208 0.17926 0.0
H856 H 0.81708 0.56227 0.46981 0.0
H857 H 0.77925 0.66909 0.50351 0.0
H858 H 0.74846 0.58219 0.4538 0.0
H859 H 0.70882 0.68808 0.48781 0.0
H860 H 0.61623 0.74135 0.44558 0.0
H861 H 0.6808 0.72303 0.46397 0.0
H862 H 0.66713 0.57544 0.45281 0.0
H863 H 0.60515 0.59442 0.43383 0.0
C864 C 0.79351 0.58959 0.4739 0.0
C865 C 0.80327 0.6139 0.48794 0.0
C866 C 0.75389 0.60092 0.46478 0.0
C867 C 0.72241 0.63639 0.46958 0.0
C868 C 0.73235 0.66087 0.48365 0.0
C869 C 0.77256 0.64993 0.49268 0.0
C870 C 0.62688 0.70503 0.44725 0.0
C871 C 0.6063 0.66937 0.43815 0.0
C872 C 0.66378 0.6944 0.45782 0.0
C873 C 0.68005 0.64776 0.45969 0.0
C874 C 0.65688 0.61193 0.45132 0.0
C875 C 0.62095 0.62268 0.44054 0.0
H876 H 0.73107 0.50732 0.73981 0.0
H877 H 0.7383 0.60051 0.69916 0.0
H878 H 0.71148 0.44232 0.72243 0.0
H879 H 0.72192 0.53492 0.68174 0.0
H880 H 0.60733 0.43213 0.66318 0.0
H881 H 0.65178 0.49345 0.6763 0.0
H882 H 0.73195 0.38759 0.70194 0.0
H883 H 0.68593 0.32597 0.68883 0.0
C884 C 0.72912 0.5139 0.72716 0.0
C885 C 0.73548 0.55953 0.72098 0.0
C886 C 0.71873 0.47633 0.71713 0.0
C887 C 0.71476 0.48332 0.70064 0.0
C888 C 0.72398 0.52833 0.69439 0.0
C889 C 0.73391 0.56596 0.70442 0.0
C890 C 0.63572 0.42206 0.67117 0.0
C891 C 0.64361 0.37461 0.67495 0.0
C892 C 0.66132 0.45719 0.67872 0.0
C893 C 0.69525 0.44562 0.69035 0.0
C894 C 0.70561 0.39774 0.69322 0.0
C895 C 0.67989 0.36244 0.68557 0.0
H896 H 0.707 0.67908 0.03727 0.0
H897 H 0.72344 0.53615 0.05439 0.0
H898 H 0.77671 0.70188 0.0522 0.0
H899 H 0.79496 0.55818 0.06819 0.0
H900 H 0.86121 0.63177 0.11118 0.0
H901 H 0.80774 0.60028 0.09162 0.0
H902 H 0.86054 0.6987 0.05672 0.0
H903 H 0.91362 0.73162 0.07679 0.0
C904 C 0.72568 0.65235 0.04404 0.0
C905 C 0.70882 0.6059 0.04481 0.0
C906 C 0.76629 0.66529 0.05238 0.0
C907 C 0.79134 0.63198 0.06155 0.0
C908 C 0.77612 0.58498 0.0615 0.0
C909 C 0.73522 0.5722 0.05338 0.0
C910 C 0.86211 0.64621 0.09926 0.0
C911 C 0.89123 0.68453 0.09557 0.0
C912 C 0.83162 0.62782 0.08795 0.0
C913 C 0.82945 0.64709 0.07257 0.0
C914 C 0.86085 0.68348 0.06853 0.0
C915 C 0.89164 0.70198 0.07994 0.0
H916 H 0.68562 0.42663 0.32701 0.0
H917 H 0.69942 0.50669 0.28348 0.0
H918 H 0.65518 0.49584 0.34016 0.0
H919 H 0.66651 0.5759 0.29673 0.0
H920 H 0.54537 0.65466 0.33035 0.0
H921 H 0.58289 0.59796 0.31243 0.0
H922 H 0.69587 0.57801 0.34625 0.0
H923 H 0.65906 0.63425 0.36395 0.0
C924 C 0.6826 0.45899 0.32022 0.0
C925 C 0.69602 0.461 0.30421 0.0
C926 C 0.66477 0.49862 0.32777 0.0
C927 C 0.65905 0.54129 0.3195 0.0
C928 C 0.67067 0.54335 0.30335 0.0
C929 C 0.68933 0.50363 0.29579 0.0
C930 C 0.57912 0.63949 0.33363 0.0
C931 C 0.59905 0.6484 0.34861 0.0
C932 C 0.60043 0.60694 0.32343 0.0
C933 C 0.64174 0.58307 0.32815 0.0
C934 C 0.66366 0.5954 0.34246 0.0
C935 C 0.64263 0.62771 0.35255 0.0
H936 H 0.85552 0.43536 0.58914 0.0
H937 H 0.76353 0.50349 0.55504 0.0
H938 H 0.78716 0.40303 0.60281 0.0
H939 H 0.69506 0.47155 0.56882 0.0
H940 H 0.65271 0.38004 0.63089 0.0
H941 H 0.71595 0.42573 0.61867 0.0
H942 H 0.66229 0.39088 0.57224 0.0
H943 H 0.59936 0.34539 0.58437 0.0
C944 C 0.82067 0.44363 0.58462 0.0
C945 C 0.81499 0.47178 0.57095 0.0
C946 C 0.78148 0.42553 0.59255 0.0
C947 C 0.73564 0.43473 0.58692 0.0
C948 C 0.72991 0.46362 0.57342 0.0
C949 C 0.76911 0.48215 0.56558 0.0
C950 C 0.65387 0.38294 0.61809 0.0
C951 C 0.62108 0.35886 0.60861 0.0
C952 C 0.69034 0.40876 0.61109 0.0
C953 C 0.69435 0.41166 0.59448 0.0
C954 C 0.66008 0.38964 0.58506 0.0
C955 C 0.62408 0.36338 0.59202 0.0
H956 H 0.75297 0.54379 0.82384 0.0
H957 H 0.89212 0.55585 0.80373 0.0
H958 H 0.77831 0.47326 0.83848 0.0
H959 H 0.91638 0.48497 0.81783 0.0
H960 H 0.87908 0.38519 0.87486 0.0
H961 H 0.83983 0.45012 0.86065 0.0
H962 H 0.89428 0.39838 0.81641 0.0
H963 H 0.93305 0.33385 0.83041 0.0
C964 C 0.78891 0.53168 0.82255 0.0
C965 C 0.8203 0.55547 0.81241 0.0
C966 C 0.80327 0.49116 0.8309 0.0
C967 C 0.84905 0.47327 0.82911 0.0
C968 C 0.8805 0.49733 0.81917 0.0
C969 C 0.86645 0.53795 0.81102 0.0
C970 C 0.88143 0.38688 0.86206 0.0
C971 C 0.90976 0.35469 0.8538 0.0
C972 C 0.8591 0.42415 0.85394 0.0
C973 C 0.86493 0.4298 0.83748 0.0
C974 C 0.89003 0.39545 0.82914 0.0
C975 C 0.91203 0.35832 0.83718 0.0
H976 H 0.3281 0.61238 0.07923 0.0
H977 H 0.23501 0.54232 0.04648 0.0
H978 H 0.26219 0.6272 0.09681 0.0
H979 H 0.16858 0.55676 0.06429 0.0
H980 H 0.06577 0.66452 0.0915 0.0
H981 H 0.12237 0.62679 0.07385 0.0
H982 H 0.20702 0.58581 0.11438 0.0
H983 H 0.15096 0.62416 0.13188 0.0
C984 C 0.2935 0.60004 0.0758 0.0
C985 C 0.28684 0.57637 0.06141 0.0
C986 C 0.25573 0.60798 0.08599 0.0
C987 C 0.21006 0.59273 0.08206 0.0
C988 C 0.20328 0.56889 0.06768 0.0
C989 C 0.24135 0.56045 0.05753 0.0
C990 C 0.09516 0.64527 0.09666 0.0
C991 C 0.10395 0.6472 0.11306 0.0
C992 C 0.12793 0.62407 0.08654 0.0
C993 C 0.16989 0.6044 0.09268 0.0
C994 C 0.17566 0.60165 0.10923 0.0
C995 C 0.14316 0.62295 0.11929 0.0
H996 H 0.18483 0.52226 0.79482 0.0
H997 H 0.19141 0.62144 0.83332 0.0
H998 H 0.1473 0.46523 0.81231 0.0
H999 H 0.15419 0.56401 0.85087 0.0
H1000 H 0.13048 0.42193 0.8794 0.0
H1001 H 0.16816 0.48452 0.86368 0.0
H1002 H 0.0699 0.45929 0.82538 0.0
H1003 H 0.03311 0.39708 0.84099 0.0
C1004 C 0.17817 0.53193 0.807 0.0
C1005 C 0.1909 0.57647 0.81264 0.0
C1006 C 0.15667 0.49929 0.81702 0.0
C1007 C 0.14739 0.51038 0.83292 0.0
C1008 C 0.16119 0.55441 0.83871 0.0
C1009 C 0.18261 0.58719 0.82865 0.0
C1010 C 0.11664 0.43075 0.86775 0.0
C1011 C 0.07907 0.40529 0.86132 0.0
C1012 C 0.1381 0.46628 0.85875 0.0
C1013 C 0.12239 0.47622 0.8432 0.0
C1014 C 0.08338 0.45181 0.83718 0.0
C1015 C 0.06204 0.41663 0.84614 0.0
H1016 H 0.28178 0.501 0.54817 0.0
H1017 H 0.19308 0.44149 0.58449 0.0
H1018 H 0.35165 0.47218 0.56243 0.0
H1019 H 0.26256 0.41224 0.59858 0.0
H1020 H 0.39532 0.39254 0.62673 0.0
H1021 H 0.33389 0.43858 0.61339 0.0
H1022 H 0.38512 0.39239 0.56798 0.0
H1023 H 0.44666 0.34666 0.58124 0.0
C1024 C 0.27727 0.48217 0.55926 0.0
C1025 C 0.23197 0.47318 0.56515 0.0
C1026 C 0.31719 0.46551 0.56738 0.0
C1027 C 0.31261 0.44005 0.58165 0.0
C1028 C 0.26733 0.43224 0.58773 0.0
C1029 C 0.2275 0.44847 0.57956 0.0
C1030 C 0.39425 0.3931 0.61389 0.0
C1031 C 0.42564 0.3655 0.60505 0.0
C1032 C 0.35879 0.41917 0.60626 0.0
C1033 C 0.35431 0.41861 0.58964 0.0
C1034 C 0.38773 0.39371 0.58078 0.0
C1035 C 0.4229 0.36732 0.5884 0.0
H1036 H 0.27257 0.51918 0.30196 0.0
H1037 H 0.35695 0.42274 0.33003 0.0
H1038 H 0.29759 0.58417 0.31894 0.0
H1039 H 0.38262 0.48734 0.34665 0.0
H1040 H 0.39426 0.59631 0.38264 0.0
H1041 H 0.3506 0.54057 0.36647 0.0
H1042 H 0.37079 0.62948 0.32533 0.0
H1043 H 0.41379 0.68597 0.34176 0.0
C1044 C 0.29631 0.51183 0.31177 0.0
C1045 C 0.31283 0.46575 0.31463 0.0
C1046 C 0.31082 0.54909 0.32143 0.0
C1047 C 0.34167 0.54092 0.33426 0.0
C1048 C 0.35811 0.49482 0.33706 0.0
C1049 C 0.34393 0.4578 0.32738 0.0
C1050 C 0.38778 0.60474 0.37026 0.0
C1051 C 0.40731 0.64532 0.36342 0.0
C1052 C 0.36333 0.57257 0.36095 0.0
C1053 C 0.35834 0.57994 0.34453 0.0
C1054 C 0.37408 0.62274 0.33794 0.0
C1055 C 0.39839 0.65528 0.34735 0.0
H1056 H 0.22531 0.48411 0.98909 0.0
H1057 H 0.31904 0.42011 0.9553 0.0
H1058 H 0.15773 0.4526 0.97465 0.0
H1059 H 0.25191 0.38715 0.9413 0.0
H1060 H 0.12064 0.37204 0.91107 0.0
H1061 H 0.18548 0.41015 0.92485 0.0
H1062 H 0.12177 0.37616 0.96987 0.0
H1063 H 0.05638 0.33886 0.95612 0.0
C1064 C 0.23145 0.4635 0.97856 0.0
C1065 C 0.27748 0.45436 0.97339 0.0
C1066 C 0.19282 0.44505 0.97039 0.0
C1067 C 0.19949 0.41726 0.95686 0.0
C1068 C 0.24552 0.40881 0.95157 0.0
C1069 C 0.28403 0.4272 0.95972 0.0
C1070 C 0.12035 0.37275 0.9239 0.0
C1071 C 0.08332 0.35229 0.93249 0.0
C1072 C 0.15763 0.39447 0.9318 0.0
C1073 C 0.15881 0.39611 0.94845 0.0
C1074 C 0.12157 0.37608 0.95703 0.0
C1075 C 0.08422 0.35444 0.94914 0.0
H1076 H 0.3718 0.58218 0.71693 0.0
H1077 H 0.22485 0.54716 0.7117 0.0
H1078 H 0.39273 0.51978 0.69861 0.0
H1079 H 0.24603 0.48361 0.69334 0.0
H1080 H 0.33926 0.33853 0.68457 0.0
H1081 H 0.29751 0.40437 0.69696 0.0
H1082 H 0.37806 0.50222 0.66879 0.0
H1083 H 0.41949 0.43658 0.65651 0.0
C1084 C 0.34401 0.56096 0.71186 0.0
C1085 C 0.2968 0.5692 0.71577 0.0
C1086 C 0.3559 0.52562 0.70125 0.0
C1087 C 0.3209 0.49728 0.69444 0.0
C1088 C 0.27356 0.5052 0.69838 0.0
C1089 C 0.26152 0.54139 0.70883 0.0
C1090 C 0.3461 0.37406 0.68049 0.0
C1091 C 0.3821 0.38283 0.66956 0.0
C1092 C 0.32249 0.41168 0.68761 0.0
C1093 C 0.33517 0.45826 0.68397 0.0
C1094 C 0.36798 0.46662 0.67189 0.0
C1095 C 0.39133 0.42917 0.66477 0.0
H1096 H 0.19151 0.67512 0.47142 0.0
H1097 H 0.25182 0.53759 0.48063 0.0
H1098 H 0.25637 0.69358 0.45419 0.0
H1099 H 0.31346 0.55392 0.4618 0.0
H1100 H 0.44605 0.6104 0.43873 0.0
H1101 H 0.38207 0.59101 0.45662 0.0
H1102 H 0.28972 0.68479 0.43016 0.0
H1103 H 0.35506 0.7066 0.41318 0.0
C1104 C 0.21837 0.64855 0.46982 0.0
C1105 C 0.21581 0.60474 0.47769 0.0
C1106 C 0.25542 0.65886 0.4595 0.0
C1107 C 0.29063 0.62528 0.45629 0.0
C1108 C 0.28782 0.58128 0.46402 0.0
C1109 C 0.25148 0.57144 0.47469 0.0
C1110 C 0.4119 0.62653 0.43672 0.0
C1111 C 0.40556 0.66001 0.42457 0.0
C1112 C 0.37488 0.61528 0.44696 0.0
C1113 C 0.33007 0.6363 0.44507 0.0
C1114 C 0.32365 0.66865 0.43246 0.0
C1115 C 0.36104 0.68084 0.42252 0.0
H1116 H 0.21984 0.4756 0.2139 0.0
H1117 H 0.12109 0.51065 0.25065 0.0
H1118 H 0.19926 0.54758 0.19965 0.0
H1119 H 0.10174 0.58404 0.23683 0.0
H1120 H 0.03765 0.67995 0.19829 0.0
H1121 H 0.06152 0.61376 0.21479 0.0
H1122 H 0.2048 0.62919 0.19854 0.0
H1123 H 0.18003 0.69396 0.18127 0.0
C1124 C 0.1942 0.49921 0.21904 0.0
C1125 C 0.17198 0.48751 0.23335 0.0
C1126 C 0.18256 0.54076 0.21093 0.0
C1127 C 0.14888 0.57212 0.21705 0.0
C1128 C 0.12722 0.56058 0.23156 0.0
C1129 C 0.13837 0.51859 0.23954 0.0
C1130 C 0.07446 0.66983 0.19844 0.0
C1131 C 0.10694 0.69225 0.18842 0.0
C1132 C 0.08826 0.63172 0.20798 0.0
C1133 C 0.13515 0.61551 0.20799 0.0
C1134 C 0.16815 0.63973 0.19859 0.0
C1135 C 0.15412 0.6773 0.1888 0.0
loop_
_geom_bond_atom_site_label_1
_geom_bond_atom_site_label_2
_geom_bond_distance
_geom_bond_site_symmetry_2
_ccdc_geom_bond_type
C0 C1 1.384 . S
C0 C2 1.384 1_565 S
C0 H28 0.931 1_565 S
C1 C0 1.384 . S
C1 C4 1.382 . S
C2 C0 1.384 1_545 S
C2 C3 1.381 1_545 S
C2 H29 0.930 . S
C3 C2 1.381 1_565 S
C3 C5 1.381 . S
C3 C6 1.490 . S
C4 C1 1.382 . S
C4 C5 1.387 . S
C4 H30 0.930 . S
C5 C3 1.381 . S
C5 C4 1.387 . S
C5 H31 0.931 . S
C6 C3 1.490 . S
C6 C13 1.393 1_565 S
C6 N44 1.346 . S
C7 C8 1.384 . S
C7 C9 1.384 . S
C7 H32 0.931 . S
C8 C7 1.384 . S
C8 C11 1.382 . S
C9 C7 1.384 . S
C9 C10 1.381 . S
C9 H33 0.930 1_545 S
C10 C9 1.381 . S
C10 C12 1.381 . S
C10 C13 1.487 . S
C11 C8 1.382 . S
C11 C12 1.387 . S
C11 H34 0.930 . S
C12 C10 1.381 . S
C12 C11 1.387 . S
C12 H35 0.931 . S
C13 C6 1.393 1_545 S
C13 C10 1.487 . S
C13 N45 1.343 . S
C14 C15 1.384 . S
C14 C16 1.384 . S
C14 H36 0.931 . S
C15 C14 1.384 . S
C15 C18 1.382 . S
C16 C14 1.384 . S
C16 C17 1.381 . S
C16 H37 0.930 1_545 S
C17 C16 1.381 . S
C17 C19 1.381 . S
C17 C20 1.487 . S
C18 C15 1.382 . S
C18 C19 1.387 . S
C18 H38 0.930 . S
C19 C17 1.381 . S
C19 C18 1.387 . S
C19 H39 0.931 . S
C20 C17 1.487 . S
C20 C27 1.393 1_545 S
C20 N45 1.343 1_655 S
C21 C22 1.384 . S
C21 C23 1.384 1_565 S
C21 H40 0.931 1_565 S
C22 C21 1.384 . S
C22 C25 1.382 . S
C23 C21 1.384 1_545 S
C23 C24 1.381 1_545 S
C23 H41 0.930 . S
C24 C23 1.381 1_565 S
C24 C26 1.381 . S
C24 C27 1.490 . S
C25 C22 1.382 . S
C25 C26 1.387 . S
C25 H42 0.930 . S
C26 C24 1.381 . S
C26 C25 1.387 . S
C26 H43 0.931 . S
C27 C20 1.393 1_565 S
C27 C24 1.490 . S
C27 N44 1.346 1_655 S
H28 C0 0.931 1_545 S
H29 C2 0.930 . S
H30 C4 0.930 . S
H31 C5 0.931 . S
H32 C7 0.931 . S
H33 C9 0.930 1_565 S
H34 C11 0.930 . S
H35 C12 0.931 . S
H36 C14 0.931 . S
H37 C16 0.930 1_565 S
H38 C18 0.930 . S
H39 C19 0.931 . S
H40 C21 0.931 1_545 S
H41 C23 0.930 . S
H42 C25 0.930 . S
H43 C26 0.931 . S
N44 C6 1.346 . S
N44 C27 1.346 1_455 S
N45 C13 1.343 . S
N45 C20 1.343 1_455 S
C46 C47 1.384 . S
C46 C48 1.384 . S
C46 H74 0.931 . S
C47 C46 1.384 . S
C47 C50 1.382 . S
C48 C46 1.384 . S
C48 C49 1.381 . S
C48 H75 0.930 . S
C49 C48 1.381 . S
C49 C51 1.381 . S
C49 C52 1.487 . S
C50 C47 1.382 . S
C50 C51 1.387 . S
C50 H76 0.930 . S
C51 C49 1.381 . S
C51 C50 1.387 . S
C51 H77 0.931 . S
C52 C49 1.487 . S
C52 C59 1.399 . S
C52 N90 1.343 . S
C53 C54 1.384 . S
C53 C55 1.384 . S
C53 H78 0.931 . S
C54 C53 1.384 . S
C54 C57 1.382 . S
C55 C53 1.384 . S
C55 C56 1.381 . S
C55 H79 0.930 . S
C56 C55 1.381 . S
C56 C58 1.381 . S
C56 C59 1.487 . S
C57 C54 1.382 . S
C57 C58 1.387 . S
C57 H80 0.930 . S
C58 C56 1.381 . S
C58 C57 1.387 . S
C58 H81 0.931 . S
C59 C52 1.399 . S
C59 C56 1.487 . S
C59 N91 1.343 . S
C60 C61 1.384 . S
C60 C62 1.384 . S
C60 H82 0.931 . S
C61 C60 1.384 . S
C61 C64 1.382 . S
C62 C60 1.384 . S
C62 C63 1.381 . S
C62 H83 0.930 . S
C63 C62 1.381 . S
C63 C65 1.381 . S
C63 C66 1.487 . S
C64 C61 1.382 . S
C64 C65 1.387 . S
C64 H84 0.930 . S
C65 C63 1.381 . S
C65 C64 1.387 . S
C65 H85 0.931 . S
C66 C63 1.487 . S
C66 C73 1.399 . S
C66 N91 1.343 . S
C67 C68 1.384 . S
C67 C69 1.384 . S
C67 H86 0.931 . S
C68 C67 1.384 . S
C68 C71 1.382 . S
C69 C67 1.384 . S
C69 C70 1.381 . S
C69 H87 0.930 . S
C70 C69 1.381 . S
C70 C72 1.381 . S
C70 C73 1.487 . S
C71 C68 1.382 . S
C71 C72 1.387 . S
C71 H88 0.930 . S
C72 C70 1.381 . S
C72 C71 1.387 . S
C72 H89 0.931 . S
C73 C66 1.399 . S
C73 C70 1.487 . S
C73 N90 1.343 . S
H74 C46 0.931 . S
H75 C48 0.930 . S
H76 C50 0.930 . S
H77 C51 0.931 . S
H78 C53 0.931 . S
H79 C55 0.930 . S
H80 C57 0.930 . S
H81 C58 0.931 . S
H82 C60 0.931 . S
H83 C62 0.930 . S
H84 C64 0.930 . S
H85 C65 0.931 . S
H86 C67 0.931 . S
H87 C69 0.930 . S
H88 C71 0.930 . S
H89 C72 0.931 . S
N90 C52 1.343 . S
N90 C73 1.343 . S
N91 C59 1.343 . S
N91 C66 1.343 . S
C92 C93 1.384 . S
C92 C94 1.384 . S
C92 H120 0.931 1_545 S
C93 C92 1.384 . S
C93 C96 1.382 . S
C94 C92 1.384 . S
C94 C95 1.381 . S
C94 H121 0.930 1_545 S
C95 C94 1.381 . S
C95 C97 1.381 . S
C95 C98 1.487 1_556 S
C96 C93 1.382 . S
C96 C97 1.387 . S
C96 H122 0.930 . S
C97 C95 1.381 . S
C97 C96 1.387 . S
C97 H123 0.931 . S
C98 C95 1.487 1_554 S
C98 C105 1.399 1_545 S
C98 N136 1.343 1_554 S
C99 C100 1.384 . S
C99 C101 1.384 . S
C99 H124 0.931 1_565 S
C100 C99 1.384 . S
C100 C103 1.382 . S
C101 C99 1.384 . S
C101 C102 1.381 . S
C101 H125 0.930 1_565 S
C102 C101 1.381 . S
C102 C104 1.381 . S
C102 C105 1.487 . S
C103 C100 1.382 . S
C103 C104 1.387 . S
C103 H126 0.930 . S
C104 C102 1.381 . S
C104 C103 1.387 . S
C104 H127 0.931 . S
C105 C98 1.399 1_565 S
C105 C102 1.487 . S
C105 N137 1.343 . S
C106 C107 1.384 . S
C106 C108 1.384 . S
C106 H128 0.931 1_565 S
C107 C106 1.384 . S
C107 C110 1.382 . S
C108 C106 1.384 . S
C108 C109 1.381 . S
C108 H129 0.930 1_565 S
C109 C108 1.381 . S
C109 C111 1.381 . S
C109 C112 1.487 . S
C110 C107 1.382 . S
C110 C111 1.387 . S
C110 H130 0.930 . S
C111 C109 1.381 . S
C111 C110 1.387 . S
C111 H131 0.931 . S
C112 C109 1.487 . S
C112 C119 1.399 1_565 S
C112 N137 1.343 . S
C113 C114 1.384 . S
C113 C115 1.384 . S
C113 H132 0.931 1_545 S
C114 C113 1.384 . S
C114 C117 1.382 . S
C115 C113 1.384 . S
C115 C116 1.381 . S
C115 H133 0.930 1_545 S
C116 C115 1.381 . S
C116 C118 1.381 . S
C116 C119 1.487 1_556 S
C117 C114 1.382 . S
C117 C118 1.387 . S
C117 H134 0.930 . S
C118 C116 1.381 . S
C118 C117 1.387 . S
C118 H135 0.931 . S
C119 C112 1.399 1_545 S
C119 C116 1.487 1_554 S
C119 N136 1.343 1_554 S
H120 C92 0.931 1_565 S
H121 C94 0.930 1_565 S
H122 C96 0.930 . S
H123 C97 0.931 . S
H124 C99 0.931 1_545 S
H125 C101 0.930 1_545 S
H126 C103 0.930 . S
H127 C104 0.931 . S
H128 C106 0.931 1_545 S
H129 C108 0.930 1_545 S
H130 C110 0.930 . S
H131 C111 0.931 . S
H132 C113 0.931 1_565 S
H133 C115 0.930 1_565 S
H134 C117 0.930 . S
H135 C118 0.931 . S
N136 C98 1.343 1_556 S
N136 C119 1.343 1_556 S
N137 C105 1.343 . S
N137 C112 1.343 . S
C138 C139 1.384 . S
C138 C140 1.384 . S
C138 H166 0.931 . S
C139 C138 1.384 . S
C139 C142 1.382 . S
C140 C138 1.384 . S
C140 C141 1.381 . S
C140 H167 0.930 . S
C141 C140 1.381 . S
C141 C143 1.381 . S
C141 C144 1.487 . S
C142 C139 1.382 . S
C142 C143 1.387 . S
C142 H168 0.930 . S
C143 C141 1.381 . S
C143 C142 1.387 . S
C143 H169 0.931 . S
C144 C141 1.487 . S
C144 C151 1.399 . S
C144 N182 1.343 . S
C145 C146 1.384 . S
C145 C147 1.384 . S
C145 H170 0.931 . S
C146 C145 1.384 . S
C146 C149 1.382 . S
C147 C145 1.384 . S
C147 C148 1.381 . S
C147 H171 0.930 . S
C148 C147 1.381 . S
C148 C150 1.381 . S
C148 C151 1.487 . S
C149 C146 1.382 . S
C149 C150 1.387 . S
C149 H172 0.930 . S
C150 C148 1.381 . S
C150 C149 1.387 . S
C150 H173 0.931 . S
C151 C144 1.399 . S
C151 C148 1.487 . S
C151 N183 1.343 . S
C152 C153 1.384 . S
C152 C154 1.384 . S
C152 H174 0.931 . S
C153 C152 1.384 . S
C153 C156 1.382 . S
C154 C152 1.384 . S
C154 C155 1.381 . S
C154 H175 0.930 . S
C155 C154 1.381 . S
C155 C157 1.381 . S
C155 C158 1.487 . S
C156 C153 1.382 . S
C156 C157 1.387 . S
C156 H176 0.930 . S
C157 C155 1.381 . S
C157 C156 1.387 . S
C157 H177 0.931 . S
C158 C155 1.487 . S
C158 C165 1.399 . S
C158 N183 1.343 . S
C159 C160 1.384 . S
C159 C161 1.384 . S
C159 H178 0.931 . S
C160 C159 1.384 . S
C160 C163 1.382 . S
C161 C159 1.384 . S
C161 C162 1.381 . S
C161 H179 0.930 . S
C162 C161 1.381 . S
C162 C164 1.381 . S
C162 C165 1.487 . S
C163 C160 1.382 . S
C163 C164 1.387 . S
C163 H180 0.930 . S
C164 C162 1.381 . S
C164 C163 1.387 . S
C164 H181 0.931 . S
C165 C158 1.399 . S
C165 C162 1.487 . S
C165 N182 1.343 . S
H166 C138 0.931 . S
H167 C140 0.930 . S
H168 C142 0.930 . S
H169 C143 0.931 . S
H170 C145 0.931 . S
H171 C147 0.930 . S
H172 C149 0.930 . S
H173 C150 0.931 . S
H174 C152 0.931 . S
H175 C154 0.930 . S
H176 C156 0.930 . S
H177 C157 0.931 . S
H178 C159 0.931 . S
H179 C161 0.930 . S
H180 C163 0.930 . S
H181 C164 0.931 . S
N182 C144 1.343 . S
N182 C165 1.343 . S
N183 C151 1.343 . S
N183 C158 1.343 . S
C184 C185 1.384 . S
C184 C186 1.384 . S
C184 H212 0.931 . S
C185 C184 1.384 . S
C185 C188 1.382 . S
C186 C184 1.384 . S
C186 C187 1.381 . S
C186 H213 0.930 . S
C187 C186 1.381 . S
C187 C189 1.381 . S
C187 C190 1.487 . S
C188 C185 1.382 . S
C188 C189 1.387 . S
C188 H214 0.930 . S
C189 C187 1.381 . S
C189 C188 1.387 . S
C189 H215 0.931 . S
C190 C187 1.487 . S
C190 C197 1.399 . S
C190 N228 1.343 . S
C191 C192 1.384 . S
C191 C193 1.384 . S
C191 H216 0.931 . S
C192 C191 1.384 . S
C192 C195 1.382 . S
C193 C191 1.384 . S
C193 C194 1.381 . S
C193 H217 0.930 . S
C194 C193 1.381 . S
C194 C196 1.381 . S
C194 C197 1.487 . S
C195 C192 1.382 . S
C195 C196 1.387 . S
C195 H218 0.930 . S
C196 C194 1.381 . S
C196 C195 1.387 . S
C196 H219 0.931 . S
C197 C190 1.399 . S
C197 C194 1.487 . S
C197 N229 1.343 . S
C198 C199 1.384 . S
C198 C200 1.384 . S
C198 H220 0.931 . S
C199 C198 1.384 . S
C199 C202 1.382 . S
C200 C198 1.384 . S
C200 C201 1.381 . S
C200 H221 0.930 . S
C201 C200 1.381 . S
C201 C203 1.381 . S
C201 C204 1.487 . S
C202 C199 1.382 . S
C202 C203 1.387 . S
C202 H222 0.930 . S
C203 C201 1.381 . S
C203 C202 1.387 . S
C203 H223 0.931 . S
C204 C201 1.487 . S
C204 C211 1.399 . S
C204 N229 1.343 . S
C205 C206 1.384 . S
C205 C207 1.384 . S
C205 H224 0.931 . S
C206 C205 1.384 . S
C206 C209 1.382 . S
C207 C205 1.384 . S
C207 C208 1.381 . S
C207 H225 0.930 . S
C208 C207 1.381 . S
C208 C210 1.381 . S
C208 C211 1.487 . S
C209 C206 1.382 . S
C209 C210 1.387 . S
C209 H226 0.930 . S
C210 C208 1.381 . S
C210 C209 1.387 . S
C210 H227 0.931 . S
C211 C204 1.399 . S
C211 C208 1.487 . S
C211 N228 1.343 . S
H212 C184 0.931 . S
H213 C186 0.930 . S
H214 C188 0.930 . S
H215 C189 0.931 . S
H216 C191 0.931 . S
H217 C193 0.930 . S
H218 C195 0.930 . S
H219 C196 0.931 . S
H220 C198 0.931 . S
H221 C200 0.930 . S
H222 C202 0.930 . S
H223 C203 0.931 . S
H224 C205 0.931 . S
H225 C207 0.930 . S
H226 C209 0.930 . S
H227 C210 0.931 . S
N228 C190 1.343 . S
N228 C211 1.343 . S
N229 C197 1.343 . S
N229 C204 1.343 . S
C230 C231 1.384 . S
C230 C232 1.384 . S
C230 H258 0.931 . S
C231 C230 1.384 . S
C231 C234 1.382 . S
C232 C230 1.384 . S
C232 C233 1.381 . S
C232 H259 0.930 . S
C233 C232 1.381 . S
C233 C235 1.381 . S
C233 C236 1.487 . S
C234 C231 1.382 . S
C234 C235 1.387 . S
C234 H260 0.930 . S
C235 C233 1.381 . S
C235 C234 1.387 . S
C235 H261 0.931 . S
C236 C233 1.487 . S
C236 C243 1.399 . S
C236 N274 1.343 . S
C237 C238 1.384 . S
C237 C239 1.384 . S
C237 H262 0.931 . S
C238 C237 1.384 . S
C238 C241 1.382 . S
C239 C237 1.384 . S
C239 C240 1.381 . S
C239 H263 0.930 . S
C240 C239 1.381 . S
C240 C242 1.381 . S
C240 C243 1.487 . S
C241 C238 1.382 . S
C241 C242 1.387 . S
C241 H264 0.930 . S
C242 C240 1.381 . S
C242 C241 1.387 . S
C242 H265 0.931 . S
C243 C236 1.399 . S
C243 C240 1.487 . S
C243 N275 1.343 . S
C244 C245 1.384 . S
C244 C246 1.384 . S
C244 H266 0.931 . S
C245 C244 1.384 . S
C245 C248 1.382 . S
C246 C244 1.384 . S
C246 C247 1.381 . S
C246 H267 0.930 . S
C247 C246 1.381 . S
C247 C249 1.381 . S
C247 C250 1.487 . S
C248 C245 1.382 . S
C248 C249 1.387 . S
C248 H268 0.930 . S
C249 C247 1.381 . S
C249 C248 1.387 . S
C249 H269 0.931 . S
C250 C247 1.487 . S
C250 C257 1.399 . S
C250 N275 1.343 . S
C251 C252 1.384 . S
C251 C253 1.384 . S
C251 H270 0.931 . S
C252 C251 1.384 . S
C252 C255 1.382 . S
C253 C251 1.384 . S
C253 C254 1.381 . S
C253 H271 0.930 . S
C254 C253 1.381 . S
C254 C256 1.381 . S
C254 C257 1.487 . S
C255 C252 1.382 . S
C255 C256 1.387 . S
C255 H272 0.930 . S
C256 C254 1.381 . S
C256 C255 1.387 . S
C256 H273 0.931 . S
C257 C250 1.399 . S
C257 C254 1.487 . S
C257 N274 1.343 . S
H258 C230 0.931 . S
H259 C232 0.930 . S
H260 C234 0.930 . S
H261 C235 0.931 . S
H262 C237 0.931 . S
H263 C239 0.930 . S
H264 C241 0.930 . S
H265 C242 0.931 . S
H266 C244 0.931 . S
H267 C246 0.930 . S
H268 C248 0.930 . S
H269 C249 0.931 . S
H270 C251 0.931 . S
H271 C253 0.930 . S
H272 C255 0.930 . S
H273 C256 0.931 . S
N274 C236 1.343 . S
N274 C257 1.343 . S
N275 C243 1.343 . S
N275 C250 1.343 . S
C276 C277 1.384 . S
C276 C278 1.384 . S
C276 H304 0.931 . S
C277 C276 1.384 . S
C277 C280 1.382 . S
C278 C276 1.384 . S
C278 C279 1.381 . S
C278 H305 0.930 . S
C279 C278 1.381 . S
C279 C281 1.381 . S
C279 C282 1.487 1_556 S
C280 C277 1.382 . S
C280 C281 1.387 . S
C280 H306 0.930 . S
C281 C279 1.381 . S
C281 C280 1.387 . S
C281 H307 0.931 . S
C282 C279 1.487 1_554 S
C282 C289 1.399 . S
C282 N320 1.343 1_554 S
C283 C284 1.384 . S
C283 C285 1.384 . S
C283 H308 0.931 . S
C284 C283 1.384 . S
C284 C287 1.382 . S
C285 C283 1.384 . S
C285 C286 1.381 . S
C285 H309 0.930 . S
C286 C285 1.381 . S
C286 C288 1.381 . S
C286 C289 1.487 . S
C287 C284 1.382 . S
C287 C288 1.387 . S
C287 H310 0.930 . S
C288 C286 1.381 . S
C288 C287 1.387 . S
C288 H311 0.931 . S
C289 C282 1.399 . S
C289 C286 1.487 . S
C289 N321 1.343 . S
C290 C291 1.384 . S
C290 C292 1.384 . S
C290 H312 0.931 . S
C291 C290 1.384 . S
C291 C294 1.382 . S
C292 C290 1.384 . S
C292 C293 1.381 . S
C292 H313 0.930 . S
C293 C292 1.381 . S
C293 C295 1.381 . S
C293 C296 1.487 . S
C294 C291 1.382 . S
C294 C295 1.387 . S
C294 H314 0.930 . S
C295 C293 1.381 . S
C295 C294 1.387 . S
C295 H315 0.931 . S
C296 C293 1.487 . S
C296 C303 1.399 . S
C296 N321 1.343 . S
C297 C298 1.384 . S
C297 C299 1.384 . S
C297 H316 0.931 . S
C298 C297 1.384 . S
C298 C301 1.382 . S
C299 C297 1.384 . S
C299 C300 1.381 . S
C299 H317 0.930 . S
C300 C299 1.381 . S
C300 C302 1.381 . S
C300 C303 1.487 1_556 S
C301 C298 1.382 . S
C301 C302 1.387 . S
C301 H318 0.930 . S
C302 C300 1.381 . S
C302 C301 1.387 . S
C302 H319 0.931 . S
C303 C296 1.399 . S
C303 C300 1.487 1_554 S
C303 N320 1.343 1_554 S
H304 C276 0.931 . S
H305 C278 0.930 . S
H306 C280 0.930 . S
H307 C281 0.931 . S
H308 C283 0.931 . S
H309 C285 0.930 . S
H310 C287 0.930 . S
H311 C288 0.931 . S
H312 C290 0.931 . S
H313 C292 0.930 . S
H314 C294 0.930 . S
H315 C295 0.931 . S
H316 C297 0.931 . S
H317 C299 0.930 . S
H318 C301 0.930 . S
H319 C302 0.931 . S
N320 C282 1.343 1_556 S
N320 C303 1.343 1_556 S
N321 C289 1.343 . S
N321 C296 1.343 . S
C322 C323 1.384 . S
C322 C324 1.384 . S
C322 H350 0.931 . S
C323 C322 1.384 . S
C323 C326 1.382 . S
C324 C322 1.384 . S
C324 C325 1.381 . S
C324 H351 0.930 . S
C325 C324 1.381 . S
C325 C327 1.381 . S
C325 C328 1.487 . S
C326 C323 1.382 . S
C326 C327 1.387 . S
C326 H352 0.930 . S
C327 C325 1.381 . S
C327 C326 1.387 . S
C327 H353 0.931 . S
C328 C325 1.487 . S
C328 C335 1.399 . S
C328 N366 1.343 1_655 S
C329 C330 1.384 . S
C329 C331 1.384 . S
C329 H354 0.931 . S
C330 C329 1.384 . S
C330 C333 1.382 . S
C331 C329 1.384 . S
C331 C332 1.381 . S
C331 H355 0.930 . S
C332 C331 1.381 . S
C332 C334 1.381 . S
C332 C335 1.487 . S
C333 C330 1.382 . S
C333 C334 1.387 . S
C333 H356 0.930 . S
C334 C332 1.381 . S
C334 C333 1.387 . S
C334 H357 0.931 . S
C335 C328 1.399 . S
C335 C332 1.487 . S
C335 N367 1.343 1_655 S
C336 C337 1.384 . S
C336 C338 1.384 . S
C336 H358 0.931 . S
C337 C336 1.384 . S
C337 C340 1.382 . S
C338 C336 1.384 . S
C338 C339 1.381 . S
C338 H359 0.930 . S
C339 C338 1.381 . S
C339 C341 1.381 . S
C339 C342 1.487 . S
C340 C337 1.382 . S
C340 C341 1.387 . S
C340 H360 0.930 . S
C341 C339 1.381 . S
C341 C340 1.387 . S
C341 H361 0.931 . S
C342 C339 1.487 . S
C342 C349 1.399 . S
C342 N367 1.343 . S
C343 C344 1.384 . S
C343 C345 1.384 . S
C343 H362 0.931 . S
C344 C343 1.384 . S
C344 C347 1.382 . S
C345 C343 1.384 . S
C345 C346 1.381 . S
C345 H363 0.930 . S
C346 C345 1.381 . S
C346 C348 1.381 . S
C346 C349 1.487 . S
C347 C344 1.382 . S
C347 C348 1.387 . S
C347 H364 0.930 . S
C348 C346 1.381 . S
C348 C347 1.387 . S
C348 H365 0.931 . S
C349 C342 1.399 . S
C349 C346 1.487 . S
C349 N366 1.343 . S
H350 C322 0.931 . S
H351 C324 0.930 . S
H352 C326 0.930 . S
H353 C327 0.931 . S
H354 C329 0.931 . S
H355 C331 0.930 . S
H356 C333 0.930 . S
H357 C334 0.931 . S
H358 C336 0.931 . S
H359 C338 0.930 . S
H360 C340 0.930 . S
H361 C341 0.931 . S
H362 C343 0.931 . S
H363 C345 0.930 . S
H364 C347 0.930 . S
H365 C348 0.931 . S
N366 C328 1.343 1_455 S
N366 C349 1.343 . S
N367 C335 1.343 1_455 S
N367 C342 1.343 . S
Fe368 O369 1.886 . S
Fe368 O372 1.715 1_455 S
Fe368 O377 2.077 . S
Fe368 O382 1.935 1_455 S
Fe368 O388 2.077 . S
Fe368 O397 1.935 1_455 S
O369 Fe368 1.886 . S
O369 Fe371 1.715 . S
Fe370 O372 1.886 . S
Fe370 O373 1.715 . S
Fe370 O380 1.935 . S
Fe370 O381 2.077 . S
Fe370 O387 1.935 . S
Fe370 O396 2.077 . S
Fe371 O369 1.715 . S
Fe371 O374 1.886 . S
Fe371 O378 1.935 . S
Fe371 O383 2.077 . S
Fe371 O389 1.935 . S
Fe371 O393 2.077 . S
O372 Fe368 1.715 1_655 S
O372 Fe370 1.886 . S
O373 Fe370 1.715 . S
O373 Fe375 1.886 . S
O374 Fe371 1.886 . S
O374 Fe375 1.715 1_455 S
Fe375 O373 1.886 . S
Fe375 O374 1.715 1_655 S
Fe375 O379 2.077 . S
Fe375 O384 1.935 1_655 S
Fe375 O386 2.077 . S
Fe375 O394 1.935 1_655 S
C376 O388 1.381 . S
C376 O389 1.421 . S
O377 Fe368 2.077 . S
O377 C390 1.381 . S
O378 Fe371 1.935 . S
O378 C390 1.421 . S
O379 Fe375 2.077 . S
O379 C395 1.381 . S
O380 Fe370 1.935 . S
O380 C395 1.421 . S
O381 Fe370 2.077 . S
O381 C385 1.381 . S
O382 Fe368 1.935 1_655 S
O382 C385 1.421 . S
O383 Fe371 2.077 . S
O383 C391 1.381 . S
O384 Fe375 1.935 1_455 S
O384 C391 1.421 . S
C385 O381 1.381 . S
C385 O382 1.421 . S
O386 Fe375 2.077 . S
O386 C398 1.381 . S
O387 Fe370 1.935 . S
O387 C398 1.421 . S
O388 Fe368 2.077 . S
O388 C376 1.381 . S
O389 Fe371 1.935 . S
O389 C376 1.421 . S
C390 O377 1.381 . S
C390 O378 1.421 . S
C391 O383 1.381 . S
C391 O384 1.421 . S
C392 O393 1.381 . S
C392 O394 1.421 . S
O393 Fe371 2.077 . S
O393 C392 1.381 . S
O394 Fe375 1.935 1_455 S
O394 C392 1.421 . S
C395 O379 1.381 . S
C395 O380 1.421 . S
O396 Fe370 2.077 . S
O396 C399 1.381 . S
O397 Fe368 1.935 1_655 S
O397 C399 1.421 . S
C398 O386 1.381 . S
C398 O387 1.421 . S
C399 O396 1.381 . S
C399 O397 1.421 . S
Fe400 O401 1.886 . S
Fe400 O404 1.715 . S
Fe400 O409 2.077 . S
Fe400 O414 1.935 . S
Fe400 O420 2.077 . S
Fe400 O429 1.935 . S
O401 Fe400 1.886 . S
O401 Fe403 1.715 . S
Fe402 O404 1.886 . S
Fe402 O405 1.715 . S
Fe402 O412 1.935 . S
Fe402 O413 2.077 . S
Fe402 O419 1.935 . S
Fe402 O428 2.077 . S
Fe403 O401 1.715 . S
Fe403 O406 1.886 . S
Fe403 O410 1.935 . S
Fe403 O415 2.077 . S
Fe403 O421 1.935 . S
Fe403 O425 2.077 . S
O404 Fe400 1.715 . S
O404 Fe402 1.886 . S
O405 Fe402 1.715 . S
O405 Fe407 1.886 . S
O406 Fe403 1.886 . S
O406 Fe407 1.715 . S
Fe407 O405 1.886 . S
Fe407 O406 1.715 . S
Fe407 O411 2.077 . S
Fe407 O416 1.935 . S
Fe407 O418 2.077 . S
Fe407 O426 1.935 . S
C408 O420 1.381 . S
C408 O421 1.421 . S
O409 Fe400 2.077 . S
O409 C422 1.381 . S
O410 Fe403 1.935 . S
O410 C422 1.421 . S
O411 Fe407 2.077 . S
O411 C427 1.381 . S
O412 Fe402 1.935 . S
O412 C427 1.421 . S
O413 Fe402 2.077 . S
O413 C417 1.381 . S
O414 Fe400 1.935 . S
O414 C417 1.421 . S
O415 Fe403 2.077 . S
O415 C423 1.381 . S
O416 Fe407 1.935 . S
O416 C423 1.421 . S
C417 O413 1.381 . S
C417 O414 1.421 . S
O418 Fe407 2.077 . S
O418 C430 1.381 . S
O419 Fe402 1.935 . S
O419 C430 1.421 . S
O420 Fe400 2.077 . S
O420 C408 1.381 . S
O421 Fe403 1.935 . S
O421 C408 1.421 . S
C422 O409 1.381 . S
C422 O410 1.421 . S
C423 O415 1.381 . S
C423 O416 1.421 . S
C424 O425 1.381 . S
C424 O426 1.421 . S
O425 Fe403 2.077 . S
O425 C424 1.381 . S
O426 Fe407 1.935 . S
O426 C424 1.421 . S
C427 O411 1.381 . S
C427 O412 1.421 . S
O428 Fe402 2.077 . S
O428 C431 1.381 . S
O429 Fe400 1.935 . S
O429 C431 1.421 . S
C430 O418 1.381 . S
C430 O419 1.421 . S
C431 O428 1.381 . S
C431 O429 1.421 . S
Fe432 O433 1.886 . S
Fe432 O436 1.715 . S
Fe432 O441 2.077 . S
Fe432 O446 1.935 . S
Fe432 O452 2.077 . S
Fe432 O461 1.935 . S
O433 Fe432 1.886 . S
O433 Fe435 1.715 . S
Fe434 O436 1.886 . S
Fe434 O437 1.715 . S
Fe434 O444 1.935 . S
Fe434 O445 2.077 . S
Fe434 O451 1.935 . S
Fe434 O460 2.077 . S
Fe435 O433 1.715 . S
Fe435 O438 1.886 . S
Fe435 O442 1.935 . S
Fe435 O447 2.077 . S
Fe435 O453 1.935 . S
Fe435 O457 2.077 . S
O436 Fe432 1.715 . S
O436 Fe434 1.886 . S
O437 Fe434 1.715 . S
O437 Fe439 1.886 . S
O438 Fe435 1.886 . S
O438 Fe439 1.715 . S
Fe439 O437 1.886 . S
Fe439 O438 1.715 . S
Fe439 O443 2.077 . S
Fe439 O448 1.935 . S
Fe439 O450 2.077 . S
Fe439 O458 1.935 . S
C440 O452 1.381 . S
C440 O453 1.421 . S
O441 Fe432 2.077 . S
O441 C454 1.381 . S
O442 Fe435 1.935 . S
O442 C454 1.421 . S
O443 Fe439 2.077 . S
O443 C459 1.381 . S
O444 Fe434 1.935 . S
O444 C459 1.421 . S
O445 Fe434 2.077 . S
O445 C449 1.381 . S
O446 Fe432 1.935 . S
O446 C449 1.421 . S
O447 Fe435 2.077 . S
O447 C455 1.381 . S
O448 Fe439 1.935 . S
O448 C455 1.421 . S
C449 O445 1.381 . S
C449 O446 1.421 . S
O450 Fe439 2.077 . S
O450 C462 1.381 . S
O451 Fe434 1.935 . S
O451 C462 1.421 . S
O452 Fe432 2.077 . S
O452 C440 1.381 . S
O453 Fe435 1.935 . S
O453 C440 1.421 . S
C454 O441 1.381 . S
C454 O442 1.421 . S
C455 O447 1.381 . S
C455 O448 1.421 . S
C456 O457 1.381 . S
C456 O458 1.421 . S
O457 Fe435 2.077 . S
O457 C456 1.381 . S
O458 Fe439 1.935 . S
O458 C456 1.421 . S
C459 O443 1.381 . S
C459 O444 1.421 . S
O460 Fe434 2.077 . S
O460 C463 1.381 . S
O461 Fe432 1.935 . S
O461 C463 1.421 . S
C462 O450 1.381 . S
C462 O451 1.421 . S
C463 O460 1.381 . S
C463 O461 1.421 . S
Fe464 O465 1.886 . S
Fe464 O468 1.715 . S
Fe464 O473 2.077 1_455 S
Fe464 O478 1.935 1_455 S
Fe464 O484 2.077 . S
Fe464 O493 1.935 . S
O465 Fe464 1.886 . S
O465 Fe467 1.715 . S
Fe466 O468 1.886 . S
Fe466 O469 1.715 . S
Fe466 O476 1.935 1_455 S
Fe466 O477 2.077 1_455 S
Fe466 O483 1.935 . S
Fe466 O492 2.077 . S
Fe467 O465 1.715 . S
Fe467 O470 1.886 . S
Fe467 O474 1.935 1_455 S
Fe467 O479 2.077 1_455 S
Fe467 O485 1.935 . S
Fe467 O489 2.077 . S
O468 Fe464 1.715 . S
O468 Fe466 1.886 . S
O469 Fe466 1.715 . S
O469 Fe471 1.886 . S
O470 Fe467 1.886 . S
O470 Fe471 1.715 . S
Fe471 O469 1.886 . S
Fe471 O470 1.715 . S
Fe471 O475 2.077 1_455 S
Fe471 O480 1.935 1_455 S
Fe471 O482 2.077 . S
Fe471 O490 1.935 . S
C472 O484 1.381 . S
C472 O485 1.421 . S
O473 Fe464 2.077 1_655 S
O473 C486 1.381 . S
O474 Fe467 1.935 1_655 S
O474 C486 1.421 . S
O475 Fe471 2.077 1_655 S
O475 C491 1.381 . S
O476 Fe466 1.935 1_655 S
O476 C491 1.421 . S
O477 Fe466 2.077 1_655 S
O477 C481 1.381 . S
O478 Fe464 1.935 1_655 S
O478 C481 1.421 . S
O479 Fe467 2.077 1_655 S
O479 C487 1.381 . S
O480 Fe471 1.935 1_655 S
O480 C487 1.421 . S
C481 O477 1.381 . S
C481 O478 1.421 . S
O482 Fe471 2.077 . S
O482 C494 1.381 . S
O483 Fe466 1.935 . S
O483 C494 1.421 . S
O484 Fe464 2.077 . S
O484 C472 1.381 . S
O485 Fe467 1.935 . S
O485 C472 1.421 . S
C486 O473 1.381 . S
C486 O474 1.421 . S
C487 O479 1.381 . S
C487 O480 1.421 . S
C488 O489 1.381 . S
C488 O490 1.421 . S
O489 Fe467 2.077 . S
O489 C488 1.381 . S
O490 Fe471 1.935 . S
O490 C488 1.421 . S
C491 O475 1.381 . S
C491 O476 1.421 . S
O492 Fe466 2.077 . S
O492 C495 1.381 . S
O493 Fe464 1.935 . S
O493 C495 1.421 . S
C494 O482 1.381 . S
C494 O483 1.421 . S
C495 O492 1.381 . S
C495 O493 1.421 . S
H496 C504 0.950 . S
H497 C509 0.950 . S
H498 C506 0.950 . S
H499 C508 0.950 . S
H500 C510 0.950 . S
H501 C512 0.950 . S
H502 C514 0.950 . S
H503 C515 0.950 . S
C504 H496 0.950 . S
C504 C505 1.386 . S
C504 C506 1.391 . S
C505 C504 1.386 . S
C505 C509 1.393 . S
C506 H498 0.950 . S
C506 C504 1.391 . S
C506 C507 1.400 . S
C507 C506 1.400 . S
C507 C508 1.398 . S
C507 C513 1.491 . S
C508 H499 0.950 . S
C508 C507 1.398 . S
C508 C509 1.391 . S
C509 H497 0.950 . S
C509 C505 1.393 . S
C509 C508 1.391 . S
C510 H500 0.950 . S
C510 C511 1.386 . S
C510 C512 1.391 . S
C511 C510 1.386 . S
C511 C515 1.393 . S
C512 H501 0.950 . S
C512 C510 1.391 . S
C512 C513 1.400 . S
C513 C507 1.491 . S
C513 C512 1.400 . S
C513 C514 1.398 . S
C514 H502 0.950 . S
C514 C513 1.398 . S
C514 C515 1.391 . S
C515 H503 0.950 . S
C515 C511 1.393 . S
C515 C514 1.391 . S
H516 C524 0.950 . S
H517 C529 0.950 . S
H518 C526 0.950 . S
H519 C528 0.950 . S
H520 C530 0.950 . S
H521 C532 0.950 . S
H522 C534 0.950 . S
H523 C535 0.950 . S
C524 H516 0.950 . S
C524 C525 1.386 . S
C524 C526 1.391 1_565 S
C525 C524 1.386 . S
C525 C529 1.393 . S
C526 H518 0.950 . S
C526 C524 1.391 1_545 S
C526 C527 1.400 . S
C527 C526 1.400 . S
C527 C528 1.398 . S
C527 C533 1.491 . S
C528 H519 0.950 . S
C528 C527 1.398 . S
C528 C529 1.391 1_545 S
C529 H517 0.950 . S
C529 C525 1.393 . S
C529 C528 1.391 1_565 S
C530 H520 0.950 . S
C530 C531 1.386 . S
C530 C532 1.391 . S
C531 C530 1.386 . S
C531 C535 1.393 . S
C532 H521 0.950 . S
C532 C530 1.391 . S
C532 C533 1.400 . S
C533 C527 1.491 . S
C533 C532 1.400 . S
C533 C534 1.398 . S
C534 H522 0.950 . S
C534 C533 1.398 . S
C534 C535 1.391 . S
C535 H523 0.950 . S
C535 C531 1.393 . S
C535 C534 1.391 . S
H536 C544 0.950 . S
H537 C549 0.950 . S
H538 C546 0.950 . S
H539 C548 0.950 . S
H540 C550 0.950 . S
H541 C552 0.950 . S
H542 C554 0.950 . S
H543 C555 0.950 . S
C544 H536 0.950 . S
C544 C545 1.386 . S
C544 C546 1.391 . S
C545 C544 1.386 . S
C545 C549 1.393 . S
C546 H538 0.950 . S
C546 C544 1.391 . S
C546 C547 1.400 . S
C547 C546 1.400 . S
C547 C548 1.398 . S
C547 C553 1.491 . S
C548 H539 0.950 . S
C548 C547 1.398 . S
C548 C549 1.391 . S
C549 H537 0.950 . S
C549 C545 1.393 . S
C549 C548 1.391 . S
C550 H540 0.950 . S
C550 C551 1.386 . S
C550 C552 1.391 . S
C551 C550 1.386 . S
C551 C555 1.393 . S
C552 H541 0.950 . S
C552 C550 1.391 . S
C552 C553 1.400 . S
C553 C547 1.491 . S
C553 C552 1.400 . S
C553 C554 1.398 . S
C554 H542 0.950 . S
C554 C553 1.398 . S
C554 C555 1.391 . S
C555 H543 0.950 . S
C555 C551 1.393 . S
C555 C554 1.391 . S
H556 C564 0.950 . S
H557 C569 0.950 . S
H558 C566 0.950 . S
H559 C568 0.950 . S
H560 C570 0.950 . S
H561 C572 0.950 . S
H562 C574 0.950 . S
H563 C575 0.950 . S
C564 H556 0.950 . S
C564 C565 1.386 . S
C564 C566 1.391 . S
C565 C564 1.386 . S
C565 C569 1.393 . S
C566 H558 0.950 . S
C566 C564 1.391 . S
C566 C567 1.400 1_545 S
C567 C566 1.400 1_565 S
C567 C568 1.398 . S
C567 C573 1.491 . S
C568 H559 0.950 . S
C568 C567 1.398 . S
C568 C569 1.391 1_565 S
C569 H557 0.950 . S
C569 C565 1.393 . S
C569 C568 1.391 1_545 S
C570 H560 0.950 . S
C570 C571 1.386 . S
C570 C572 1.391 . S
C571 C570 1.386 . S
C571 C575 1.393 . S
C572 H561 0.950 . S
C572 C570 1.391 . S
C572 C573 1.400 . S
C573 C567 1.491 . S
C573 C572 1.400 . S
C573 C574 1.398 . S
C574 H562 0.950 . S
C574 C573 1.398 . S
C574 C575 1.391 . S
C575 H563 0.950 . S
C575 C571 1.393 . S
C575 C574 1.391 . S
H576 C584 0.950 . S
H577 C589 0.950 . S
H578 C586 0.950 . S
H579 C588 0.950 . S
H580 C590 0.950 . S
H581 C592 0.950 . S
H582 C594 0.950 . S
H583 C595 0.950 . S
C584 H576 0.950 . S
C584 C585 1.386 . S
C584 C586 1.391 . S
C585 C584 1.386 . S
C585 C589 1.393 . S
C586 H578 0.950 . S
C586 C584 1.391 . S
C586 C587 1.400 . S
C587 C586 1.400 . S
C587 C588 1.398 . S
C587 C593 1.491 . S
C588 H579 0.950 . S
C588 C587 1.398 . S
C588 C589 1.391 . S
C589 H577 0.950 . S
C589 C585 1.393 . S
C589 C588 1.391 . S
C590 H580 0.950 . S
C590 C591 1.386 . S
C590 C592 1.391 . S
C591 C590 1.386 . S
C591 C595 1.393 . S
C592 H581 0.950 . S
C592 C590 1.391 . S
C592 C593 1.400 . S
C593 C587 1.491 . S
C593 C592 1.400 . S
C593 C594 1.398 . S
C594 H582 0.950 . S
C594 C593 1.398 . S
C594 C595 1.391 . S
C595 H583 0.950 . S
C595 C591 1.393 . S
C595 C594 1.391 . S
H596 C604 0.950 1_545 S
H597 C609 0.950 . S
H598 C606 0.950 . S
H599 C608 0.950 . S
H600 C610 0.950 . S
H601 C612 0.950 . S
H602 C614 0.950 . S
H603 C615 0.950 . S
C604 H596 0.950 1_565 S
C604 C605 1.386 . S
C604 C606 1.391 1_565 S
C605 C604 1.386 . S
C605 C609 1.393 . S
C606 H598 0.950 . S
C606 C604 1.391 1_545 S
C606 C607 1.400 . S
C607 C606 1.400 . S
C607 C608 1.398 1_545 S
C607 C613 1.491 . S
C608 H599 0.950 . S
C608 C607 1.398 1_565 S
C608 C609 1.391 . S
C609 H597 0.950 . S
C609 C605 1.393 . S
C609 C608 1.391 . S
C610 H600 0.950 . S
C610 C611 1.386 . S
C610 C612 1.391 . S
C611 C610 1.386 . S
C611 C615 1.393 . S
C612 H601 0.950 . S
C612 C610 1.391 . S
C612 C613 1.400 . S
C613 C607 1.491 . S
C613 C612 1.400 . S
C613 C614 1.398 . S
C614 H602 0.950 . S
C614 C613 1.398 . S
C614 C615 1.391 . S
C615 H603 0.950 . S
C615 C611 1.393 . S
C615 C614 1.391 . S
H616 C624 0.950 . S
H617 C629 0.950 . S
H618 C626 0.950 . S
H619 C628 0.950 . S
H620 C630 0.950 . S
H621 C632 0.950 . S
H622 C634 0.950 . S
H623 C635 0.950 . S
C624 H616 0.950 . S
C624 C625 1.386 . S
C624 C626 1.391 . S
C625 C624 1.386 . S
C625 C629 1.393 . S
C626 H618 0.950 . S
C626 C624 1.391 . S
C626 C627 1.400 . S
C627 C626 1.400 . S
C627 C628 1.398 . S
C627 C633 1.491 . S
C628 H619 0.950 . S
C628 C627 1.398 . S
C628 C629 1.391 . S
C629 H617 0.950 . S
C629 C625 1.393 . S
C629 C628 1.391 . S
C630 H620 0.950 . S
C630 C631 1.386 . S
C630 C632 1.391 . S
C631 C630 1.386 . S
C631 C635 1.393 . S
C632 H621 0.950 . S
C632 C630 1.391 . S
C632 C633 1.400 . S
C633 C627 1.491 . S
C633 C632 1.400 . S
C633 C634 1.398 . S
C634 H622 0.950 . S
C634 C633 1.398 . S
C634 C635 1.391 . S
C635 H623 0.950 . S
C635 C631 1.393 . S
C635 C634 1.391 . S
H636 C644 0.950 . S
H637 C649 0.950 . S
H638 C646 0.950 . S
H639 C648 0.950 . S
H640 C650 0.950 . S
H641 C652 0.950 . S
H642 C654 0.950 . S
H643 C655 0.950 . S
C644 H636 0.950 . S
C644 C645 1.386 . S
C644 C646 1.391 . S
C645 C644 1.386 . S
C645 C649 1.393 . S
C646 H638 0.950 . S
C646 C644 1.391 . S
C646 C647 1.400 1_545 S
C647 C646 1.400 1_565 S
C647 C648 1.398 . S
C647 C653 1.491 . S
C648 H639 0.950 . S
C648 C647 1.398 . S
C648 C649 1.391 1_565 S
C649 H637 0.950 . S
C649 C645 1.393 . S
C649 C648 1.391 1_545 S
C650 H640 0.950 . S
C650 C651 1.386 . S
C650 C652 1.391 . S
C651 C650 1.386 . S
C651 C655 1.393 . S
C652 H641 0.950 . S
C652 C650 1.391 . S
C652 C653 1.400 . S
C653 C647 1.491 . S
C653 C652 1.400 . S
C653 C654 1.398 . S
C654 H642 0.950 . S
C654 C653 1.398 . S
C654 C655 1.391 . S
C655 H643 0.950 . S
C655 C651 1.393 . S
C655 C654 1.391 . S
H656 C664 0.950 . S
H657 C669 0.950 . S
H658 C666 0.950 . S
H659 C668 0.950 . S
H660 C670 0.950 . S
H661 C672 0.950 . S
H662 C674 0.950 . S
H663 C675 0.950 . S
C664 H656 0.950 . S
C664 C665 1.386 . S
C664 C666 1.391 . S
C665 C664 1.386 . S
C665 C669 1.393 . S
C666 H658 0.950 . S
C666 C664 1.391 . S
C666 C667 1.400 . S
C667 C666 1.400 . S
C667 C668 1.398 . S
C667 C673 1.491 . S
C668 H659 0.950 . S
C668 C667 1.398 . S
C668 C669 1.391 . S
C669 H657 0.950 . S
C669 C665 1.393 . S
C669 C668 1.391 . S
C670 H660 0.950 . S
C670 C671 1.386 . S
C670 C672 1.391 . S
C671 C670 1.386 . S
C671 C675 1.393 . S
C672 H661 0.950 . S
C672 C670 1.391 . S
C672 C673 1.400 . S
C673 C667 1.491 . S
C673 C672 1.400 . S
C673 C674 1.398 . S
C674 H662 0.950 . S
C674 C673 1.398 . S
C674 C675 1.391 . S
C675 H663 0.950 . S
C675 C671 1.393 . S
C675 C674 1.391 . S
H676 C684 0.950 . S
H677 C689 0.950 . S
H678 C686 0.950 1_565 S
H679 C688 0.942 1_565 S
H680 C690 0.950 . S
H681 C692 0.950 . S
H682 C694 0.950 . S
H683 C695 0.950 . S
C684 H676 0.950 . S
C684 C685 1.386 . S
C684 C686 1.391 . S
C685 C684 1.386 . S
C685 C689 1.393 . S
C686 H678 0.950 1_545 S
C686 C684 1.391 . S
C686 C687 1.400 1_545 S
C687 C686 1.400 1_565 S
C687 C688 1.392 1_565 S
C687 C693 1.491 . S
C688 H679 0.942 1_545 S
C688 C687 1.392 1_545 S
C688 C689 1.405 . S
C689 H677 0.950 . S
C689 C685 1.393 . S
C689 C688 1.405 . S
C690 H680 0.950 . S
C690 C691 1.386 . S
C690 C692 1.391 . S
C691 C690 1.386 . S
C691 C695 1.393 . S
C692 H681 0.950 . S
C692 C690 1.391 . S
C692 C693 1.400 . S
C693 C687 1.491 . S
C693 C692 1.400 . S
C693 C694 1.398 . S
C694 H682 0.950 . S
C694 C693 1.398 . S
C694 C695 1.391 . S
C695 H683 0.950 . S
C695 C691 1.393 . S
C695 C694 1.391 . S
H696 C704 0.950 . S
H697 C709 0.950 . S
H698 C706 0.950 . S
H699 C708 0.950 . S
H700 C710 0.950 . S
H701 C712 0.950 . S
H702 C714 0.950 . S
H703 C715 0.950 . S
C704 H696 0.950 . S
C704 C705 1.386 . S
C704 C706 1.391 . S
C705 C704 1.386 . S
C705 C709 1.393 . S
C706 H698 0.950 . S
C706 C704 1.391 . S
C706 C707 1.400 . S
C707 C706 1.400 . S
C707 C708 1.398 . S
C707 C713 1.491 . S
C708 H699 0.950 . S
C708 C707 1.398 . S
C708 C709 1.391 . S
C709 H697 0.950 . S
C709 C705 1.393 . S
C709 C708 1.391 . S
C710 H700 0.950 . S
C710 C711 1.386 . S
C710 C712 1.391 . S
C711 C710 1.386 . S
C711 C715 1.393 . S
C712 H701 0.950 . S
C712 C710 1.391 . S
C712 C713 1.400 . S
C713 C707 1.491 . S
C713 C712 1.400 . S
C713 C714 1.398 . S
C714 H702 0.950 . S
C714 C713 1.398 . S
C714 C715 1.391 . S
C715 H703 0.950 . S
C715 C711 1.393 . S
C715 C714 1.391 . S
H716 C724 0.950 . S
H717 C729 0.950 . S
H718 C726 0.950 . S
H719 C728 0.950 . S
H720 C730 0.950 . S
H721 C732 0.950 . S
H722 C734 0.950 . S
H723 C735 0.950 . S
C724 H716 0.950 . S
C724 C725 1.386 . S
C724 C726 1.391 1_565 S
C725 C724 1.386 . S
C725 C729 1.393 . S
C726 H718 0.950 . S
C726 C724 1.391 1_545 S
C726 C727 1.400 . S
C727 C726 1.400 . S
C727 C728 1.398 . S
C727 C733 1.491 . S
C728 H719 0.950 . S
C728 C727 1.398 . S
C728 C729 1.391 1_545 S
C729 H717 0.950 . S
C729 C725 1.393 . S
C729 C728 1.391 1_565 S
C730 H720 0.950 . S
C730 C731 1.386 . S
C730 C732 1.391 . S
C731 C730 1.386 . S
C731 C735 1.393 . S
C732 H721 0.950 . S
C732 C730 1.391 . S
C732 C733 1.400 . S
C733 C727 1.491 . S
C733 C732 1.400 . S
C733 C734 1.398 . S
C734 H722 0.950 . S
C734 C733 1.398 . S
C734 C735 1.391 . S
C735 H723 0.950 . S
C735 C731 1.393 . S
C735 C734 1.391 . S
H736 C744 0.950 . S
H737 C749 0.950 . S
H738 C746 0.950 . S
H739 C748 0.950 . S
H740 C750 0.950 . S
H741 C752 0.950 . S
H742 C754 0.950 . S
H743 C755 0.950 . S
C744 H736 0.950 . S
C744 C745 1.386 . S
C744 C746 1.391 . S
C745 C744 1.386 . S
C745 C749 1.393 . S
C746 H738 0.950 . S
C746 C744 1.391 . S
C746 C747 1.400 . S
C747 C746 1.400 . S
C747 C748 1.398 . S
C747 C753 1.491 . S
C748 H739 0.950 . S
C748 C747 1.398 . S
C748 C749 1.391 . S
C749 H737 0.950 . S
C749 C745 1.393 . S
C749 C748 1.391 . S
C750 H740 0.950 . S
C750 C751 1.386 . S
C750 C752 1.391 . S
C751 C750 1.386 . S
C751 C755 1.393 . S
C752 H741 0.950 . S
C752 C750 1.391 . S
C752 C753 1.400 . S
C753 C747 1.491 . S
C753 C752 1.400 . S
C753 C754 1.398 . S
C754 H742 0.950 . S
C754 C753 1.398 . S
C754 C755 1.391 . S
C755 H743 0.950 . S
C755 C751 1.393 . S
C755 C754 1.391 . S
H756 C764 0.950 . S
H757 C769 0.950 . S
H758 C766 0.950 . S
H759 C768 0.950 . S
H760 C770 0.950 . S
H761 C772 0.950 . S
H762 C774 0.950 . S
H763 C775 0.950 . S
C764 H756 0.950 . S
C764 C765 1.386 . S
C764 C766 1.391 1_545 S
C765 C764 1.386 . S
C765 C769 1.393 . S
C766 H758 0.950 . S
C766 C764 1.391 1_565 S
C766 C767 1.400 . S
C767 C766 1.400 . S
C767 C768 1.398 1_565 S
C767 C773 1.491 . S
C768 H759 0.950 . S
C768 C767 1.398 1_545 S
C768 C769 1.391 . S
C769 H757 0.950 . S
C769 C765 1.393 . S
C769 C768 1.391 . S
C770 H760 0.950 . S
C770 C771 1.386 . S
C770 C772 1.391 . S
C771 C770 1.386 . S
C771 C775 1.393 . S
C772 H761 0.950 . S
C772 C770 1.391 . S
C772 C773 1.400 . S
C773 C767 1.491 . S
C773 C772 1.400 . S
C773 C774 1.398 . S
C774 H762 0.950 . S
C774 C773 1.398 . S
C774 C775 1.391 . S
C775 H763 0.950 . S
C775 C771 1.393 . S
C775 C774 1.391 . S
H776 C784 0.950 . S
H777 C789 0.950 . S
H778 C786 0.950 . S
H779 C788 0.950 . S
H780 C790 0.950 . S
H781 C792 0.950 . S
H782 C794 0.950 . S
H783 C795 0.950 . S
C784 H776 0.950 . S
C784 C785 1.386 . S
C784 C786 1.391 . S
C785 C784 1.386 . S
C785 C789 1.393 . S
C786 H778 0.950 . S
C786 C784 1.391 . S
C786 C787 1.400 . S
C787 C786 1.400 . S
C787 C788 1.398 . S
C787 C793 1.491 . S
C788 H779 0.950 . S
C788 C787 1.398 . S
C788 C789 1.391 . S
C789 H777 0.950 . S
C789 C785 1.393 . S
C789 C788 1.391 . S
C790 H780 0.950 . S
C790 C791 1.386 . S
C790 C792 1.391 . S
C791 C790 1.386 . S
C791 C795 1.393 . S
C792 H781 0.950 . S
C792 C790 1.391 . S
C792 C793 1.400 . S
C793 C787 1.491 . S
C793 C792 1.400 . S
C793 C794 1.398 . S
C794 H782 0.950 . S
C794 C793 1.398 . S
C794 C795 1.391 . S
C795 H783 0.950 . S
C795 C791 1.393 . S
C795 C794 1.391 . S
H796 C804 0.950 . S
H797 C809 0.950 . S
H798 C806 0.950 . S
H799 C808 0.950 . S
H800 C810 0.950 . S
H801 C812 0.950 . S
H802 C814 0.950 . S
H803 C815 0.950 . S
C804 H796 0.950 . S
C804 C805 1.386 1_545 S
C804 C806 1.391 . S
C805 C804 1.386 1_565 S
C805 C809 1.393 . S
C806 H798 0.950 . S
C806 C804 1.391 . S
C806 C807 1.400 . S
C807 C806 1.400 . S
C807 C808 1.398 1_545 S
C807 C813 1.491 . S
C808 H799 0.950 . S
C808 C807 1.398 1_565 S
C808 C809 1.391 . S
C809 H797 0.950 . S
C809 C805 1.393 . S
C809 C808 1.391 . S
C810 H800 0.950 . S
C810 C811 1.386 . S
C810 C812 1.391 . S
C811 C810 1.386 . S
C811 C815 1.393 . S
C812 H801 0.950 . S
C812 C810 1.391 . S
C812 C813 1.400 . S
C813 C807 1.491 . S
C813 C812 1.400 . S
C813 C814 1.398 . S
C814 H802 0.950 . S
C814 C813 1.398 . S
C814 C815 1.391 . S
C815 H803 0.950 . S
C815 C811 1.393 . S
C815 C814 1.391 . S
H816 C824 0.950 . S
H817 C829 0.950 . S
H818 C826 0.950 . S
H819 C828 0.950 . S
H820 C830 0.950 . S
H821 C832 0.950 . S
H822 C834 0.950 . S
H823 C835 0.950 . S
C824 H816 0.950 . S
C824 C825 1.386 . S
C824 C826 1.391 . S
C825 C824 1.386 . S
C825 C829 1.393 . S
C826 H818 0.950 . S
C826 C824 1.391 . S
C826 C827 1.400 . S
C827 C826 1.400 . S
C827 C828 1.398 . S
C827 C833 1.491 . S
C828 H819 0.950 . S
C828 C827 1.398 . S
C828 C829 1.391 . S
C829 H817 0.950 . S
C829 C825 1.393 . S
C829 C828 1.391 . S
C830 H820 0.950 . S
C830 C831 1.386 . S
C830 C832 1.391 . S
C831 C830 1.386 . S
C831 C835 1.393 . S
C832 H821 0.950 . S
C832 C830 1.391 . S
C832 C833 1.400 . S
C833 C827 1.491 . S
C833 C832 1.400 . S
C833 C834 1.398 . S
C834 H822 0.950 . S
C834 C833 1.398 . S
C834 C835 1.391 . S
C835 H823 0.950 . S
C835 C831 1.393 . S
C835 C834 1.391 . S
H836 C844 0.950 . S
H837 C849 0.950 . S
H838 C846 0.950 . S
H839 C848 0.950 . S
H840 C850 0.950 . S
H841 C852 0.950 . S
H842 C854 0.950 . S
H843 C855 0.950 . S
C844 H836 0.950 . S
C844 C845 1.386 . S
C844 C846 1.391 . S
C845 C844 1.386 . S
C845 C849 1.393 . S
C846 H838 0.950 . S
C846 C844 1.391 . S
C846 C847 1.400 . S
C847 C846 1.400 . S
C847 C848 1.398 . S
C847 C853 1.491 . S
C848 H839 0.950 . S
C848 C847 1.398 . S
C848 C849 1.391 . S
C849 H837 0.950 . S
C849 C845 1.393 . S
C849 C848 1.391 . S
C850 H840 0.950 . S
C850 C851 1.386 . S
C850 C852 1.391 . S
C851 C850 1.386 . S
C851 C855 1.393 . S
C852 H841 0.950 . S
C852 C850 1.391 . S
C852 C853 1.400 . S
C853 C847 1.491 . S
C853 C852 1.400 . S
C853 C854 1.398 . S
C854 H842 0.950 . S
C854 C853 1.398 . S
C854 C855 1.391 . S
C855 H843 0.950 . S
C855 C851 1.393 . S
C855 C854 1.391 . S
H856 C864 0.950 . S
H857 C869 0.950 . S
H858 C866 0.950 . S
H859 C868 0.950 . S
H860 C870 0.950 . S
H861 C872 0.950 . S
H862 C874 0.950 . S
H863 C875 0.950 . S
C864 H856 0.950 . S
C864 C865 1.386 . S
C864 C866 1.391 . S
C865 C864 1.386 . S
C865 C869 1.393 . S
C866 H858 0.950 . S
C866 C864 1.391 . S
C866 C867 1.400 . S
C867 C866 1.400 . S
C867 C868 1.398 . S
C867 C873 1.491 . S
C868 H859 0.950 . S
C868 C867 1.398 . S
C868 C869 1.391 . S
C869 H857 0.950 . S
C869 C865 1.393 . S
C869 C868 1.391 . S
C870 H860 0.950 . S
C870 C871 1.386 . S
C870 C872 1.391 . S
C871 C870 1.386 . S
C871 C875 1.393 . S
C872 H861 0.950 . S
C872 C870 1.391 . S
C872 C873 1.400 . S
C873 C867 1.491 . S
C873 C872 1.400 . S
C873 C874 1.398 . S
C874 H862 0.950 . S
C874 C873 1.398 . S
C874 C875 1.391 . S
C875 H863 0.950 . S
C875 C871 1.393 . S
C875 C874 1.391 . S
H876 C884 0.950 . S
H877 C889 0.950 . S
H878 C886 0.950 . S
H879 C888 0.950 . S
H880 C890 0.950 . S
H881 C892 0.950 . S
H882 C894 0.950 . S
H883 C895 0.950 . S
C884 H876 0.950 . S
C884 C885 1.386 . S
C884 C886 1.391 . S
C885 C884 1.386 . S
C885 C889 1.393 . S
C886 H878 0.950 . S
C886 C884 1.391 . S
C886 C887 1.400 . S
C887 C886 1.400 . S
C887 C888 1.398 . S
C887 C893 1.491 . S
C888 H879 0.950 . S
C888 C887 1.398 . S
C888 C889 1.391 . S
C889 H877 0.950 . S
C889 C885 1.393 . S
C889 C888 1.391 . S
C890 H880 0.950 . S
C890 C891 1.386 . S
C890 C892 1.391 . S
C891 C890 1.386 . S
C891 C895 1.393 . S
C892 H881 0.950 . S
C892 C890 1.391 . S
C892 C893 1.400 . S
C893 C887 1.491 . S
C893 C892 1.400 . S
C893 C894 1.398 . S
C894 H882 0.950 . S
C894 C893 1.398 . S
C894 C895 1.391 . S
C895 H883 0.950 . S
C895 C891 1.393 . S
C895 C894 1.391 . S
H896 C904 0.950 . S
H897 C909 0.950 . S
H898 C906 0.950 . S
H899 C908 0.950 . S
H900 C910 0.950 . S
H901 C912 0.950 . S
H902 C914 0.950 . S
H903 C915 0.950 . S
C904 H896 0.950 . S
C904 C905 1.386 . S
C904 C906 1.391 . S
C905 C904 1.386 . S
C905 C909 1.393 . S
C906 H898 0.950 . S
C906 C904 1.391 . S
C906 C907 1.400 . S
C907 C906 1.400 . S
C907 C908 1.398 . S
C907 C913 1.491 . S
C908 H899 0.950 . S
C908 C907 1.398 . S
C908 C909 1.391 . S
C909 H897 0.950 . S
C909 C905 1.393 . S
C909 C908 1.391 . S
C910 H900 0.950 . S
C910 C911 1.386 . S
C910 C912 1.391 . S
C911 C910 1.386 . S
C911 C915 1.393 . S
C912 H901 0.950 . S
C912 C910 1.391 . S
C912 C913 1.400 . S
C913 C907 1.491 . S
C913 C912 1.400 . S
C913 C914 1.398 . S
C914 H902 0.950 . S
C914 C913 1.398 . S
C914 C915 1.391 . S
C915 H903 0.950 . S
C915 C911 1.393 . S
C915 C914 1.391 . S
H916 C924 0.950 . S
H917 C929 0.950 . S
H918 C926 0.950 . S
H919 C928 0.950 . S
H920 C930 0.950 . S
H921 C932 0.950 . S
H922 C934 0.950 . S
H923 C935 0.950 . S
C924 H916 0.950 . S
C924 C925 1.386 . S
C924 C926 1.391 . S
C925 C924 1.386 . S
C925 C929 1.393 . S
C926 H918 0.950 . S
C926 C924 1.391 . S
C926 C927 1.400 . S
C927 C926 1.400 . S
C927 C928 1.398 . S
C927 C933 1.491 . S
C928 H919 0.950 . S
C928 C927 1.398 . S
C928 C929 1.391 . S
C929 H917 0.950 . S
C929 C925 1.393 . S
C929 C928 1.391 . S
C930 H920 0.950 . S
C930 C931 1.386 . S
C930 C932 1.391 . S
C931 C930 1.386 . S
C931 C935 1.393 . S
C932 H921 0.950 . S
C932 C930 1.391 . S
C932 C933 1.400 . S
C933 C927 1.491 . S
C933 C932 1.400 . S
C933 C934 1.398 . S
C934 H922 0.950 . S
C934 C933 1.398 . S
C934 C935 1.391 . S
C935 H923 0.950 . S
C935 C931 1.393 . S
C935 C934 1.391 . S
H936 C944 0.950 . S
H937 C949 0.950 . S
H938 C946 0.950 . S
H939 C948 0.950 . S
H940 C950 0.950 . S
H941 C952 0.950 . S
H942 C954 0.950 . S
H943 C955 0.950 . S
C944 H936 0.950 . S
C944 C945 1.386 . S
C944 C946 1.391 . S
C945 C944 1.386 . S
C945 C949 1.393 . S
C946 H938 0.950 . S
C946 C944 1.391 . S
C946 C947 1.400 . S
C947 C946 1.400 . S
C947 C948 1.398 . S
C947 C953 1.491 . S
C948 H939 0.950 . S
C948 C947 1.398 . S
C948 C949 1.391 . S
C949 H937 0.950 . S
C949 C945 1.393 . S
C949 C948 1.391 . S
C950 H940 0.950 . S
C950 C951 1.386 . S
C950 C952 1.391 . S
C951 C950 1.386 . S
C951 C955 1.393 . S
C952 H941 0.950 . S
C952 C950 1.391 . S
C952 C953 1.400 . S
C953 C947 1.491 . S
C953 C952 1.400 . S
C953 C954 1.398 . S
C954 H942 0.950 . S
C954 C953 1.398 . S
C954 C955 1.391 . S
C955 H943 0.950 . S
C955 C951 1.393 . S
C955 C954 1.391 . S
H956 C964 0.950 . S
H957 C969 0.950 . S
H958 C966 0.950 . S
H959 C968 0.950 . S
H960 C970 0.950 . S
H961 C972 0.950 . S
H962 C974 0.950 . S
H963 C975 0.950 . S
C964 H956 0.950 . S
C964 C965 1.386 . S
C964 C966 1.391 . S
C965 C964 1.386 . S
C965 C969 1.393 . S
C966 H958 0.950 . S
C966 C964 1.391 . S
C966 C967 1.400 . S
C967 C966 1.400 . S
C967 C968 1.398 . S
C967 C973 1.491 . S
C968 H959 0.950 . S
C968 C967 1.398 . S
C968 C969 1.391 . S
C969 H957 0.950 . S
C969 C965 1.393 . S
C969 C968 1.391 . S
C970 H960 0.950 . S
C970 C971 1.386 . S
C970 C972 1.391 . S
C971 C970 1.386 . S
C971 C975 1.393 . S
C972 H961 0.950 . S
C972 C970 1.391 . S
C972 C973 1.400 . S
C973 C967 1.491 . S
C973 C972 1.400 . S
C973 C974 1.398 . S
C974 H962 0.950 . S
C974 C973 1.398 . S
C974 C975 1.391 . S
C975 H963 0.950 . S
C975 C971 1.393 . S
C975 C974 1.391 . S
H976 C984 0.950 . S
H977 C989 0.950 . S
H978 C986 0.950 . S
H979 C988 0.950 . S
H980 C990 0.950 . S
H981 C992 0.950 . S
H982 C994 0.950 . S
H983 C995 0.950 . S
C984 H976 0.950 . S
C984 C985 1.386 . S
C984 C986 1.391 . S
C985 C984 1.386 . S
C985 C989 1.393 . S
C986 H978 0.950 . S
C986 C984 1.391 . S
C986 C987 1.400 . S
C987 C986 1.400 . S
C987 C988 1.398 . S
C987 C993 1.491 . S
C988 H979 0.950 . S
C988 C987 1.398 . S
C988 C989 1.391 . S
C989 H977 0.950 . S
C989 C985 1.393 . S
C989 C988 1.391 . S
C990 H980 0.950 . S
C990 C991 1.386 . S
C990 C992 1.391 . S
C991 C990 1.386 . S
C991 C995 1.393 . S
C992 H981 0.950 . S
C992 C990 1.391 . S
C992 C993 1.400 . S
C993 C987 1.491 . S
C993 C992 1.400 . S
C993 C994 1.398 . S
C994 H982 0.950 . S
C994 C993 1.398 . S
C994 C995 1.391 . S
C995 H983 0.950 . S
C995 C991 1.393 . S
C995 C994 1.391 . S
H996 C1004 0.950 . S
H997 C1009 0.950 . S
H998 C1006 0.950 . S
H999 C1008 0.950 . S
H1000 C1010 0.950 . S
H1001 C1012 0.950 . S
H1002 C1014 0.950 . S
H1003 C1015 0.950 . S
C1004 H996 0.950 . S
C1004 C1005 1.386 . S
C1004 C1006 1.391 . S
C1005 C1004 1.386 . S
C1005 C1009 1.393 . S
C1006 H998 0.950 . S
C1006 C1004 1.391 . S
C1006 C1007 1.400 . S
C1007 C1006 1.400 . S
C1007 C1008 1.398 . S
C1007 C1013 1.491 . S
C1008 H999 0.950 . S
C1008 C1007 1.398 . S
C1008 C1009 1.391 . S
C1009 H997 0.950 . S
C1009 C1005 1.393 . S
C1009 C1008 1.391 . S
C1010 H1000 0.950 . S
C1010 C1011 1.386 . S
C1010 C1012 1.391 . S
C1011 C1010 1.386 . S
C1011 C1015 1.393 . S
C1012 H1001 0.950 . S
C1012 C1010 1.391 . S
C1012 C1013 1.400 . S
C1013 C1007 1.491 . S
C1013 C1012 1.400 . S
C1013 C1014 1.398 . S
C1014 H1002 0.950 . S
C1014 C1013 1.398 . S
C1014 C1015 1.391 . S
C1015 H1003 0.950 . S
C1015 C1011 1.393 . S
C1015 C1014 1.391 . S
H1016 C1024 0.950 . S
H1017 C1029 0.950 . S
H1018 C1026 0.950 . S
H1019 C1028 0.950 . S
H1020 C1030 0.950 . S
H1021 C1032 0.950 . S
H1022 C1034 0.950 . S
H1023 C1035 0.950 . S
C1024 H1016 0.950 . S
C1024 C1025 1.386 . S
C1024 C1026 1.391 . S
C1025 C1024 1.386 . S
C1025 C1029 1.393 . S
C1026 H1018 0.950 . S
C1026 C1024 1.391 . S
C1026 C1027 1.400 . S
C1027 C1026 1.400 . S
C1027 C1028 1.398 . S
C1027 C1033 1.491 . S
C1028 H1019 0.950 . S
C1028 C1027 1.398 . S
C1028 C1029 1.391 . S
C1029 H1017 0.950 . S
C1029 C1025 1.393 . S
C1029 C1028 1.391 . S
C1030 H1020 0.950 . S
C1030 C1031 1.386 . S
C1030 C1032 1.391 . S
C1031 C1030 1.386 . S
C1031 C1035 1.393 . S
C1032 H1021 0.950 . S
C1032 C1030 1.391 . S
C1032 C1033 1.400 . S
C1033 C1027 1.491 . S
C1033 C1032 1.400 . S
C1033 C1034 1.398 . S
C1034 H1022 0.950 . S
C1034 C1033 1.398 . S
C1034 C1035 1.391 . S
C1035 H1023 0.950 . S
C1035 C1031 1.393 . S
C1035 C1034 1.391 . S
H1036 C1044 0.950 . S
H1037 C1049 0.950 . S
H1038 C1046 0.950 . S
H1039 C1048 0.950 . S
H1040 C1050 0.950 . S
H1041 C1052 0.950 . S
H1042 C1054 0.950 . S
H1043 C1055 0.950 . S
C1044 H1036 0.950 . S
C1044 C1045 1.386 . S
C1044 C1046 1.391 . S
C1045 C1044 1.386 . S
C1045 C1049 1.393 . S
C1046 H1038 0.950 . S
C1046 C1044 1.391 . S
C1046 C1047 1.400 . S
C1047 C1046 1.400 . S
C1047 C1048 1.398 . S
C1047 C1053 1.491 . S
C1048 H1039 0.950 . S
C1048 C1047 1.398 . S
C1048 C1049 1.391 . S
C1049 H1037 0.950 . S
C1049 C1045 1.393 . S
C1049 C1048 1.391 . S
C1050 H1040 0.950 . S
C1050 C1051 1.386 . S
C1050 C1052 1.391 . S
C1051 C1050 1.386 . S
C1051 C1055 1.393 . S
C1052 H1041 0.950 . S
C1052 C1050 1.391 . S
C1052 C1053 1.400 . S
C1053 C1047 1.491 . S
C1053 C1052 1.400 . S
C1053 C1054 1.398 . S
C1054 H1042 0.950 . S
C1054 C1053 1.398 . S
C1054 C1055 1.391 . S
C1055 H1043 0.950 . S
C1055 C1051 1.393 . S
C1055 C1054 1.391 . S
H1056 C1064 0.950 . S
H1057 C1069 0.950 . S
H1058 C1066 0.950 . S
H1059 C1068 0.950 . S
H1060 C1070 0.950 . S
H1061 C1072 0.950 . S
H1062 C1074 0.950 . S
H1063 C1075 0.950 . S
C1064 H1056 0.950 . S
C1064 C1065 1.386 . S
C1064 C1066 1.391 . S
C1065 C1064 1.386 . S
C1065 C1069 1.393 . S
C1066 H1058 0.950 . S
C1066 C1064 1.391 . S
C1066 C1067 1.400 . S
C1067 C1066 1.400 . S
C1067 C1068 1.398 . S
C1067 C1073 1.491 . S
C1068 H1059 0.950 . S
C1068 C1067 1.398 . S
C1068 C1069 1.391 . S
C1069 H1057 0.950 . S
C1069 C1065 1.393 . S
C1069 C1068 1.391 . S
C1070 H1060 0.950 . S
C1070 C1071 1.386 . S
C1070 C1072 1.391 . S
C1071 C1070 1.386 . S
C1071 C1075 1.393 . S
C1072 H1061 0.950 . S
C1072 C1070 1.391 . S
C1072 C1073 1.400 . S
C1073 C1067 1.491 . S
C1073 C1072 1.400 . S
C1073 C1074 1.398 . S
C1074 H1062 0.950 . S
C1074 C1073 1.398 . S
C1074 C1075 1.391 . S
C1075 H1063 0.950 . S
C1075 C1071 1.393 . S
C1075 C1074 1.391 . S
H1076 C1084 0.950 . S
H1077 C1089 0.950 . S
H1078 C1086 0.950 . S
H1079 C1088 0.950 . S
H1080 C1090 0.950 . S
H1081 C1092 0.950 . S
H1082 C1094 0.950 . S
H1083 C1095 0.950 . S
C1084 H1076 0.950 . S
C1084 C1085 1.386 . S
C1084 C1086 1.391 . S
C1085 C1084 1.386 . S
C1085 C1089 1.393 . S
C1086 H1078 0.950 . S
C1086 C1084 1.391 . S
C1086 C1087 1.400 . S
C1087 C1086 1.400 . S
C1087 C1088 1.398 . S
C1087 C1093 1.491 . S
C1088 H1079 0.950 . S
C1088 C1087 1.398 . S
C1088 C1089 1.391 . S
C1089 H1077 0.950 . S
C1089 C1085 1.393 . S
C1089 C1088 1.391 . S
C1090 H1080 0.950 . S
C1090 C1091 1.386 . S
C1090 C1092 1.391 . S
C1091 C1090 1.386 . S
C1091 C1095 1.393 . S
C1092 H1081 0.950 . S
C1092 C1090 1.391 . S
C1092 C1093 1.400 . S
C1093 C1087 1.491 . S
C1093 C1092 1.400 . S
C1093 C1094 1.398 . S
C1094 H1082 0.950 . S
C1094 C1093 1.398 . S
C1094 C1095 1.391 . S
C1095 H1083 0.950 . S
C1095 C1091 1.393 . S
C1095 C1094 1.391 . S
H1096 C1104 0.950 . S
H1097 C1109 0.950 . S
H1098 C1106 0.950 . S
H1099 C1108 0.950 . S
H1100 C1110 0.950 . S
H1101 C1112 0.950 . S
H1102 C1114 0.950 . S
H1103 C1115 0.950 . S
C1104 H1096 0.950 . S
C1104 C1105 1.386 . S
C1104 C1106 1.391 . S
C1105 C1104 1.386 . S
C1105 C1109 1.393 . S
C1106 H1098 0.950 . S
C1106 C1104 1.391 . S
C1106 C1107 1.400 . S
C1107 C1106 1.400 . S
C1107 C1108 1.398 . S
C1107 C1113 1.491 . S
C1108 H1099 0.950 . S
C1108 C1107 1.398 . S
C1108 C1109 1.391 . S
C1109 H1097 0.950 . S
C1109 C1105 1.393 . S
C1109 C1108 1.391 . S
C1110 H1100 0.950 . S
C1110 C1111 1.386 . S
C1110 C1112 1.391 . S
C1111 C1110 1.386 . S
C1111 C1115 1.393 . S
C1112 H1101 0.950 . S
C1112 C1110 1.391 . S
C1112 C1113 1.400 . S
C1113 C1107 1.491 . S
C1113 C1112 1.400 . S
C1113 C1114 1.398 . S
C1114 H1102 0.950 . S
C1114 C1113 1.398 . S
C1114 C1115 1.391 . S
C1115 H1103 0.950 . S
C1115 C1111 1.393 . S
C1115 C1114 1.391 . S
H1116 C1124 0.950 . S
H1117 C1129 0.950 . S
H1118 C1126 0.950 . S
H1119 C1128 0.950 . S
H1120 C1130 0.950 . S
H1121 C1132 0.950 . S
H1122 C1134 0.950 . S
H1123 C1135 0.950 . S
C1124 H1116 0.950 . S
C1124 C1125 1.386 . S
C1124 C1126 1.391 . S
C1125 C1124 1.386 . S
C1125 C1129 1.393 . S
C1126 H1118 0.950 . S
C1126 C1124 1.391 . S
C1126 C1127 1.400 . S
C1127 C1126 1.400 . S
C1127 C1128 1.398 . S
C1127 C1133 1.491 . S
C1128 H1119 0.950 . S
C1128 C1127 1.398 . S
C1128 C1129 1.391 . S
C1129 H1117 0.950 . S
C1129 C1125 1.393 . S
C1129 C1128 1.391 . S
C1130 H1120 0.950 . S
C1130 C1131 1.386 . S
C1130 C1132 1.391 . S
C1131 C1130 1.386 . S
C1131 C1135 1.393 . S
C1132 H1121 0.950 . S
C1132 C1130 1.391 . S
C1132 C1133 1.400 . S
C1133 C1127 1.491 . S
C1133 C1132 1.400 . S
C1133 C1134 1.398 . S
C1134 H1122 0.950 . S
C1134 C1133 1.398 . S
C1134 C1135 1.391 . S
C1135 H1123 0.950 . S
C1135 C1131 1.393 . S
C1135 C1134 1.391 . S
C511 C417 1.489 . S
C505 C1 1.517 . S
C525 C68 1.517 . S
C531 C449 1.502 . S
C545 C93 1.520 . S
C551 C472 1.503 . S
C571 C376 1.505 . S
C565 C139 1.518 . S
C591 C459 1.369 . S
C585 C8 1.485 . S
C611 C488 1.375 . S
C605 C61 1.485 . S
C631 C392 1.346 . S
C625 C100 1.483 . S
C651 C427 1.328 . S
C645 C146 1.485 . S
C665 C15 1.487 . S
C671 C455 1.366 . S
C685 C192 1.483 . S
C691 C430 1.364 . S
C705 C107 1.486 . S
C711 C398 1.339 . S
C731 C487 1.365 . S
C725 C238 1.483 . S
C751 C431 1.502 . S
C745 C22 1.522 . S
C765 C185 1.516 . S
C771 C399 1.501 . S
C785 C114 1.519 . S
C791 C486 1.508 . S
C811 C454 1.509 . S
C805 C231 1.515 . S
C825 C277 1.519 . S
C831 C481 1.491 . S
C845 C206 1.515 . S
C851 C385 1.489 . S
C865 C330 1.519 . S
C871 C408 1.517 . S
C885 C252 1.520 . S
C891 C440 1.511 . S
C911 C395 1.362 . S
C905 C284 1.489 . S
C925 C199 1.479 . S
C931 C424 1.339 . S
C945 C323 1.485 . S
C951 C456 1.352 . S
C971 C491 1.357 . S
C965 C245 1.486 . S
C985 C291 1.487 . S
C991 C391 1.365 . S
C1005 C54 1.478 . S
C1011 C494 1.328 . S
C1025 C344 1.485 . S
C1031 C462 1.340 . S
C1051 C423 1.339 . S
C1045 C153 1.485 . S
C1071 C495 1.490 . S
C1065 C298 1.517 . S
C1091 C463 1.504 . S
C1085 C47 1.519 . S
C1111 C422 1.510 . S
C1105 C337 1.517 . S
C1131 C390 1.504 . S
C1125 C160 1.519 . S
