# Generated by pormake.
# Topology dag, (6,3)-cn, num edge types: 1
# Building blocks:
#     Node 0, Type 0, BuildingBlock: MIDCAF_clean_sbu_0, # of connection points: 6
#     Node 1, Type 0, BuildingBlock: MIDCAF_clean_sbu_0, # of connection points: 6
#     Node 2, Type 0, BuildingBlock: MIDCAF_clean_sbu_0, # of connection points: 6
#     Node 3, Type 0, BuildingBlock: MIDCAF_clean_sbu_0, # of connection points: 6
#     Node 4, Type 1, BuildingBlock: PAMTOO_clean_linker_0, # of connection points: 3
#     Node 5, Type 1, BuildingBlock: PAMTOO_clean_linker_0, # of connection points: 3
#     Node 6, Type 1, BuildingBlock: PAMTOO_clean_linker_0, # of connection points: 3
#     Node 7, Type 1, BuildingBlock: PAMTOO_clean_linker_0, # of connection points: 3
#     Node 8, Type 1, BuildingBlock: PAMTOO_clean_linker_0, # of connection points: 3
#     Node 9, Type 1, BuildingBlock: PAMTOO_clean_linker_0, # of connection points: 3
#     Node 10, Type 1, BuildingBlock: PAMTOO_clean_linker_0, # of connection points: 3
#     Node 11, Type 1, BuildingBlock: PAMTOO_clean_linker_0, # of connection points: 3
#     Edge 12, Type (0, 1), BuildingBlock: OJICUG_clean_linker_0, # of connection points: 2
#     Edge 13, Type (0, 1), BuildingBlock: OJICUG_clean_linker_0, # of connection points: 2
#     Edge 14, Type (0, 1), BuildingBlock: OJICUG_clean_linker_0, # of connection points: 2
#     Edge 15, Type (0, 1), BuildingBlock: OJICUG_clean_linker_0, # of connection points: 2
#     Edge 16, Type (0, 1), BuildingBlock: OJICUG_clean_linker_0, # of connection points: 2
#     Edge 17, Type (0, 1), BuildingBlock: OJICUG_clean_linker_0, # of connection points: 2
#     Edge 18, Type (0, 1), BuildingBlock: OJICUG_clean_linker_0, # of connection points: 2
#     Edge 19, Type (0, 1), BuildingBlock: OJICUG_clean_linker_0, # of connection points: 2
#     Edge 20, Type (0, 1), BuildingBlock: OJICUG_clean_linker_0, # of connection points: 2
#     Edge 21, Type (0, 1), BuildingBlock: OJICUG_clean_linker_0, # of connection points: 2
#     Edge 22, Type (0, 1), BuildingBlock: OJICUG_clean_linker_0, # of connection points: 2
#     Edge 23, Type (0, 1), BuildingBlock: OJICUG_clean_linker_0, # of connection points: 2
#     Edge 24, Type (0, 1), BuildingBlock: OJICUG_clean_linker_0, # of connection points: 2
#     Edge 25, Type (0, 1), BuildingBlock: OJICUG_clean_linker_0, # of connection points: 2
#     Edge 26, Type (0, 1), BuildingBlock: OJICUG_clean_linker_0, # of connection points: 2
#     Edge 27, Type (0, 1), BuildingBlock: OJICUG_clean_linker_0, # of connection points: 2
#     Edge 28, Type (0, 1), BuildingBlock: OJICUG_clean_linker_0, # of connection points: 2
#     Edge 29, Type (0, 1), BuildingBlock: OJICUG_clean_linker_0, # of connection points: 2
#     Edge 30, Type (0, 1), BuildingBlock: OJICUG_clean_linker_0, # of connection points: 2
#     Edge 31, Type (0, 1), BuildingBlock: OJICUG_clean_linker_0, # of connection points: 2
#     Edge 32, Type (0, 1), BuildingBlock: OJICUG_clean_linker_0, # of connection points: 2
#     Edge 33, Type (0, 1), BuildingBlock: OJICUG_clean_linker_0, # of connection points: 2
#     Edge 34, Type (0, 1), BuildingBlock: OJICUG_clean_linker_0, # of connection points: 2
#     Edge 35, Type (0, 1), BuildingBlock: OJICUG_clean_linker_0, # of connection points: 2
# Relax obj value: 0.132
# Max RMSD: 0.143
# Mean RMSD: 0.116
data_MOF--net-dag--node1-MIDCAF_clean_sbu_0--node2-PAMTOO_clean_linker_0--edge1-OJICUG_clean_linker_0
_symmetry_space_group_name_H-M    P1
_symmetry_Int_Tables_number       1
_symmetry_cell_setting            triclinic
loop_
_symmetry_equiv_pos_as_xyz
'x, y, z'
_cell_length_a     29.419204
_cell_length_b     30.634999
_cell_length_c     23.376383
_cell_angle_alpha  90.625979
_cell_angle_beta   93.591838
_cell_angle_gamma 90.163209
loop_
_atom_site_label
_atom_site_type_symbol
_atom_site_fract_x
_atom_site_fract_y
_atom_site_fract_z
_atom_type_partial_charge
Zn0 Zn 0.15058 0.82754 0.1634 0.0
Zn1 Zn 0.13456 0.84981 0.82 0.0
Zn2 Zn 0.14875 0.8286 0.99057 0.0
C3 C 0.16536 0.92075 0.90566 0.0
C4 C 0.07309 0.81863 0.9187 0.0
O5 O 0.19571 0.77559 0.01299 0.0
O6 O 0.17537 0.80674 0.08968 0.0
C7 C 0.18465 0.89047 0.06667 0.0
O8 O 0.16313 0.89494 0.94954 0.0
O9 O 0.15611 0.90835 0.85355 0.0
O10 O 0.10902 0.82796 0.89417 0.0
O11 O 0.07786 0.81453 0.97286 0.0
O12 O 0.16965 0.85677 0.09027 0.0
O13 O 0.18014 0.89038 0.01222 0.0
O14 O 0.08383 0.81944 0.03926 0.0
O15 O 0.084 0.81806 0.13692 0.0
C16 C 0.06323 0.81604 0.08694 0.0
O17 O 0.19021 0.77684 0.95494 0.0
O18 O 0.15845 0.81294 0.88574 0.0
C19 C 0.19508 0.77483 0.06729 0.0
C20 C 0.18646 0.78357 0.90128 0.0
Zn21 Zn 0.62201 0.61644 0.40397 0.0
Zn22 Zn 0.63861 0.66628 0.64575 0.0
Zn23 Zn 0.63192 0.64223 0.493 0.0
C24 C 0.65317 0.57532 0.60718 0.0
C25 C 0.55089 0.68185 0.57338 0.0
O26 O 0.67242 0.68367 0.43617 0.0
O27 O 0.62468 0.67183 0.36155 0.0
C28 C 0.68029 0.55888 0.45213 0.0
O29 O 0.6494 0.58659 0.55353 0.0
O30 O 0.64918 0.60208 0.64858 0.0
O31 O 0.57387 0.68276 0.62157 0.0
O32 O 0.56762 0.66766 0.5266 0.0
O33 O 0.67595 0.57743 0.4042 0.0
O34 O 0.65993 0.57547 0.49446 0.0
O35 O 0.55824 0.64585 0.46627 0.0
O36 O 0.56106 0.58967 0.40708 0.0
C37 C 0.53779 0.61683 0.43356 0.0
O38 O 0.68505 0.69481 0.49432 0.0
O39 O 0.66089 0.67644 0.57361 0.0
C40 C 0.65793 0.69294 0.38453 0.0
C41 C 0.68852 0.69878 0.54843 0.0
Zn42 Zn 0.82693 0.17284 0.88129 0.0
Zn43 Zn 0.84641 0.11838 0.14547 0.0
Zn44 Zn 0.8426 0.14219 0.05093 0.0
C45 C 0.93477 0.12177 0.12485 0.0
C46 C 0.79772 0.05513 0.08324 0.0
O47 O 0.7964 0.19783 0.04338 0.0
O48 O 0.82359 0.182 0.96327 0.0
C49 C 0.91508 0.17628 0.97886 0.0
O50 O 0.91557 0.14454 0.08415 0.0
O51 O 0.91061 0.09961 0.15653 0.0
O52 O 0.79946 0.07225 0.1327 0.0
O53 O 0.81648 0.07511 0.04263 0.0
O54 O 0.8816 0.17496 0.94188 0.0
O55 O 0.90878 0.16425 0.03013 0.0
O56 O 0.82454 0.09397 0.97728 0.0
O57 O 0.80912 0.10949 0.88271 0.0
C58 C 0.81324 0.08261 0.92426 0.0
O59 O 0.79913 0.18661 0.10039 0.0
O60 O 0.82972 0.1719 0.18653 0.0
C61 C 0.79634 0.20461 0.98998 0.0
C62 C 0.8037 0.19503 0.15461 0.0
Zn63 Zn 0.35181 0.37948 0.70285 0.0
Zn64 Zn 0.34609 0.30169 0.39077 0.0
Zn65 Zn 0.34005 0.32727 0.54129 0.0
C66 C 0.43183 0.30753 0.46255 0.0
C67 C 0.30034 0.38564 0.43399 0.0
O68 O 0.30007 0.28456 0.59284 0.0
O69 O 0.33303 0.33253 0.64795 0.0
C70 C 0.41961 0.32378 0.62127 0.0
O71 O 0.40857 0.31444 0.50709 0.0
O72 O 0.41344 0.3031 0.41207 0.0
O73 O 0.31296 0.35951 0.39513 0.0
O74 O 0.3096 0.37914 0.48808 0.0
O75 O 0.3898 0.34468 0.6471 0.0
O76 O 0.40969 0.31396 0.56877 0.0
O77 O 0.32407 0.39835 0.55958 0.0
O78 O 0.32875 0.42788 0.65001 0.0
C79 C 0.32038 0.43068 0.59567 0.0
O80 O 0.29136 0.27134 0.53778 0.0
O81 O 0.3204 0.28531 0.45961 0.0
C82 C 0.30615 0.30052 0.64313 0.0
C83 C 0.29289 0.26268 0.48481 0.0
H84 H 0.13505 0.04943 0.11623 0.0
H85 H 0.13225 0.15218 0.24313 0.0
H86 H 0.24484 0.06309 0.24517 0.0
H87 H 0.21291 0.09587 0.36346 0.0
C88 C 0.20019 0.12806 0.34791 0.0
O89 O 0.21194 0.13357 0.29214 0.0
H90 H 0.16255 0.12913 0.35015 0.0
C91 C 0.15106 0.06746 0.15234 0.0
C92 C 0.19278 0.05289 0.17696 0.0
C93 C 0.1277 0.10195 0.17709 0.0
C94 C 0.14932 0.12521 0.22328 0.0
C95 C 0.1918 0.1115 0.24721 0.0
C96 C 0.21308 0.07474 0.22491 0.0
H97 H 0.36719 0.62755 0.52163 0.0
H98 H 0.26193 0.6187 0.64255 0.0
H99 H 0.34084 0.73454 0.63401 0.0
H100 H 0.32882 0.70783 0.74167 0.0
C101 C 0.29423 0.69286 0.73858 0.0
O102 O 0.27504 0.69639 0.6833 0.0
H103 H 0.29729 0.65772 0.74977 0.0
C104 C 0.3462 0.64167 0.5533 0.0
C105 C 0.3583 0.68317 0.57562 0.0
C106 C 0.3123 0.61644 0.57785 0.0
C107 C 0.28673 0.63669 0.61995 0.0
C108 C 0.29594 0.67964 0.63822 0.0
C109 C 0.33116 0.70302 0.61543 0.0
H110 H 0.86576 0.88315 0.06138 0.0
H111 H 0.7485 0.85478 0.1552 0.0
H112 H 0.85912 0.76481 0.15852 0.0
H113 H 0.76967 0.7226 0.18263 0.0
C114 C 0.75225 0.75307 0.19524 0.0
O115 O 0.78379 0.78603 0.20386 0.0
H116 H 0.72675 0.76163 0.15991 0.0
C117 C 0.8468 0.86029 0.08561 0.0
C118 C 0.86804 0.82163 0.10527 0.0
C119 C 0.80338 0.87252 0.10233 0.0
C120 C 0.78109 0.84547 0.13975 0.0
C121 C 0.80192 0.80743 0.16056 0.0
C122 C 0.84422 0.79468 0.14184 0.0
H123 H 0.59908 0.37321 0.63317 0.0
H124 H 0.61387 0.3013 0.78934 0.0
H125 H 0.69252 0.4171 0.77226 0.0
H126 H 0.74797 0.36499 0.85064 0.0
C127 C 0.7262 0.33609 0.83917 0.0
O128 O 0.68124 0.34915 0.83486 0.0
H129 H 0.73724 0.32367 0.7972 0.0
C130 C 0.61601 0.36939 0.67521 0.0
C131 C 0.64721 0.40107 0.69756 0.0
C132 C 0.60178 0.33515 0.70923 0.0
C133 C 0.62452 0.32768 0.76266 0.0
C134 C 0.65894 0.3563 0.78345 0.0
C135 C 0.66874 0.39374 0.75233 0.0
H136 H 0.63621 0.38574 0.50431 0.0
H137 H 0.62507 0.27532 0.3877 0.0
H138 H 0.74184 0.35798 0.39056 0.0
H139 H 0.69973 0.34107 0.28461 0.0
C140 C 0.69232 0.3055 0.28697 0.0
O141 O 0.70109 0.29072 0.34223 0.0
H142 H 0.65575 0.29986 0.27381 0.0
C143 C 0.65057 0.36423 0.47316 0.0
C144 C 0.69172 0.37635 0.44994 0.0
C145 C 0.62538 0.32782 0.45112 0.0
C146 C 0.6442 0.30194 0.40843 0.0
C147 C 0.68633 0.31249 0.38784 0.0
C148 C 0.71066 0.34872 0.40973 0.0
H149 H 0.09328 0.10149 0.95282 0.0
H150 H 0.10752 0.22095 0.86214 0.0
H151 H 0.21369 0.12572 0.8608 0.0
H152 H 0.24042 0.22338 0.86903 0.0
C153 C 0.21376 0.23455 0.83662 0.0
O154 O 0.18501 0.20033 0.82093 0.0
H155 H 0.1939 0.26136 0.85548 0.0
C156 C 0.11446 0.12266 0.92881 0.0
C157 C 0.1561 0.10753 0.90951 0.0
C158 C 0.09733 0.16369 0.91269 0.0
C159 C 0.12159 0.19012 0.87698 0.0
C160 C 0.16365 0.17636 0.85913 0.0
C161 C 0.18133 0.13577 0.87616 0.0
H162 H 0.33336 0.54868 0.42913 0.0
H163 H 0.34329 0.65121 0.30525 0.0
H164 H 0.2229 0.57247 0.30539 0.0
H165 H 0.23758 0.60026 0.19582 0.0
C166 C 0.26033 0.62896 0.20428 0.0
O167 O 0.26052 0.64083 0.2614 0.0
H168 H 0.29548 0.62025 0.19324 0.0
C169 C 0.31881 0.56829 0.39446 0.0
C170 C 0.2757 0.55674 0.36999 0.0
C171 C 0.3449 0.6012 0.37067 0.0
C172 C 0.32454 0.62579 0.32539 0.0
C173 C 0.27999 0.61648 0.30377 0.0
C174 C 0.2559 0.58153 0.3253 0.0
H175 H 0.90092 0.89513 0.88868 0.0
H176 H 0.88083 0.80716 0.74543 0.0
H177 H 0.7918 0.91672 0.75972 0.0
H178 H 0.73736 0.84783 0.70834 0.0
C179 C 0.76528 0.82343 0.70978 0.0
O180 O 0.80603 0.84467 0.70328 0.0
H181 H 0.76537 0.8076 0.75257 0.0
C182 C 0.88151 0.88596 0.84947 0.0
C183 C 0.84481 0.91175 0.82838 0.0
C184 C 0.89553 0.84938 0.81888 0.0
C185 C 0.87037 0.83562 0.76915 0.0
C186 C 0.832 0.85926 0.74936 0.0
C187 C 0.82013 0.89784 0.77776 0.0
C188 C 0.21987 0.96494 0.07398 0.0
C189 C 0.19976 0.92943 0.10042 0.0
H190 H 0.23397 0.03369 0.07869 0.0
C191 C 0.19034 0.93304 0.15845 0.0
H192 H 0.22964 0.96228 0.03021 0.0
C193 C 0.19502 0.97318 0.18701 0.0
C194 C 0.20876 0.01015 0.1577 0.0
H195 H 0.17586 0.90592 0.18049 0.0
H196 H 0.18302 0.97635 0.22975 0.0
C197 C 0.22351 0.00541 0.10208 0.0
C198 C 0.47552 0.70175 0.52339 0.0
C199 C 0.50199 0.69308 0.57397 0.0
H200 H 0.40764 0.70523 0.48325 0.0
C201 C 0.48053 0.69191 0.62596 0.0
H202 H 0.49188 0.70666 0.484 0.0
C203 C 0.43336 0.69391 0.62635 0.0
C204 C 0.4065 0.69647 0.57476 0.0
H205 H 0.49981 0.68645 0.66624 0.0
H206 H 0.4178 0.68933 0.66669 0.0
C207 C 0.42782 0.70225 0.52334 0.0
C208 C 0.76579 -0.0117 0.12628 0.0
C209 C 0.7832 0.00871 0.07852 0.0
H210 H 0.75936 0.9291 0.1722 0.0
C211 C 0.79572 0.9824 0.03294 0.0
H212 H 0.75499 0.00743 0.16221 0.0
C213 C 0.79633 0.93705 0.03736 0.0
C214 C 0.78624 0.91715 0.08895 0.0
H215 H 0.80971 -0.00339 0.99659 0.0
H216 H 0.80917 0.91801 0.00256 0.0
C217 C 0.76787 0.943 0.13185 0.0
C218 C 0.49987 0.29664 0.61886 0.0
C219 C 0.46533 0.31612 0.6491 0.0
H220 H 0.57185 0.28703 0.61462 0.0
C221 C 0.47567 0.33111 0.7054 0.0
H222 H 0.49239 0.2826 0.57685 0.0
C223 C 0.52057 0.33127 0.72837 0.0
C224 C 0.5559 0.31719 0.69504 0.0
H225 H 0.4496 0.34529 0.73048 0.0
H226 H 0.52813 0.34668 0.76984 0.0
C227 C 0.54509 0.29797 0.64112 0.0
C228 C 0.70665 0.4917 0.50554 0.0
C229 C 0.69954 0.51423 0.45395 0.0
H230 H 0.70889 0.42893 0.54593 0.0
C231 C 0.70373 0.49123 0.40222 0.0
H232 H 0.70867 0.5093 0.54546 0.0
C233 C 0.70708 0.44595 0.40197 0.0
C234 C 0.70587 0.42274 0.45337 0.0
H235 H 0.70009 0.50757 0.36134 0.0
H236 H 0.70546 0.42908 0.36091 0.0
C237 C 0.70839 0.44601 0.50556 0.0
C238 C 0.97034 0.17686 0.90222 0.0
C239 C 0.96151 0.1827 0.96022 0.0
H240 H 0.02126 0.16658 0.84176 0.0
C241 C -0.00192 0.18916 0.00081 0.0
H242 H 0.94278 0.17205 0.86978 0.0
C243 C 0.04283 0.18509 0.98499 0.0
C244 C 0.0514 0.17602 0.92783 0.0
H245 H -0.0081 0.19573 0.045 0.0
H246 H 0.07061 0.18745 0.01758 0.0
C247 C 0.01509 0.17365 0.88612 0.0
C248 C 0.25908 0.45576 0.4522 0.0
C249 C 0.27775 0.4263 0.41397 0.0
H250 H 0.2429 0.52308 0.4679 0.0
C251 C 0.2786 0.43789 0.35593 0.0
H252 H 0.25325 0.44587 0.49524 0.0
C253 C 0.26912 0.48048 0.33913 0.0
C254 C 0.2598 0.51219 0.38031 0.0
H255 H 0.29059 0.41535 0.32423 0.0
H256 H 0.27535 0.48979 0.29569 0.0
C257 C 0.2514 0.49911 0.436 0.0
C258 C -0.00964 0.79824 0.90951 0.0
C259 C 0.02811 0.81856 0.88706 0.0
H260 H 0.9174 0.79235 0.90512 0.0
C261 C 0.02206 0.84133 0.83532 0.0
H262 H -0.00549 0.77883 0.94788 0.0
C263 C 0.97849 0.84733 0.80965 0.0
C264 C 0.94039 0.83082 0.83541 0.0
H265 H 0.05056 0.85691 0.81654 0.0
H266 H 0.97426 0.86779 0.77216 0.0
C267 C 0.94654 0.80509 0.88449 0.0
C268 C 0.86224 0.01901 0.91053 0.0
C269 C 0.81853 0.03705 0.90636 0.0
H270 H 0.90527 0.96718 0.88744 0.0
C271 C 0.78275 0.01366 0.87777 0.0
H272 H 0.89059 0.0372 0.93094 0.0
C273 C 0.79063 0.97224 0.85431 0.0
C274 C 0.83484 0.95429 0.85711 0.0
H275 H 0.74892 0.02757 0.87324 0.0
H276 H 0.76212 0.9547 0.83344 0.0
C277 C 0.87042 0.97846 0.88579 0.0
C278 C 0.50904 0.27461 0.45978 0.0
C279 C 0.4816 0.31101 0.46862 0.0
H280 H 0.57651 0.25062 0.45224 0.0
C281 C 0.50183 0.35202 0.4784 0.0
H282 H 0.49385 0.24259 0.45266 0.0
C283 C 0.54879 0.35721 0.47564 0.0
C284 C 0.57675 0.32114 0.46447 0.0
H285 H 0.48096 0.38053 0.48491 0.0
H286 H 0.56234 0.39005 0.4789 0.0
C287 C 0.55629 0.27944 0.45912 0.0
C288 C 0.15571 -0.00971 0.96133 0.0
C289 C 0.17344 0.96812 0.91486 0.0
H290 H 0.13949 0.05186 0.99869 0.0
C291 C 0.19206 -0.0074 0.87154 0.0
H292 H 0.14042 0.9724 0.99494 0.0
C293 C 0.18952 0.03808 0.87203 0.0
C294 C 0.1688 0.06048 0.91639 0.0
H295 H 0.20595 0.97643 0.83509 0.0
H296 H 0.2008 0.0551 0.83514 0.0
C297 C 0.15434 0.03599 0.96274 0.0
C298 C 0.4635 0.65058 0.40069 0.0
C299 C 0.48796 0.61488 0.42338 0.0
H300 H 0.39888 0.6755 0.36977 0.0
C301 C 0.46584 0.57459 0.42695 0.0
H302 H 0.48066 0.68112 0.39329 0.0
C303 C 0.41979 0.5703 0.40982 0.0
C304 C 0.39418 0.60653 0.38965 0.0
H305 H 0.48459 0.54596 0.44149 0.0
H306 H 0.40498 0.538 0.41093 0.0
C307 C 0.41684 0.64683 0.38539 0.0
C308 C 0.34891 0.4984 0.55362 0.0
C309 C 0.31272 0.47536 0.57509 0.0
H310 H 0.37858 0.55994 0.53945 0.0
C311 C 0.27373 0.49814 0.58944 0.0
H312 H 0.37979 0.48151 0.54361 0.0
C313 C 0.27156 0.54354 0.5842 0.0
C314 C 0.30969 0.5677 0.56838 0.0
H315 H 0.24546 0.48088 0.60652 0.0
H316 H 0.24056 0.55952 0.59531 0.0
C317 C 0.34782 0.54396 0.55114 0.0
C318 C -0.00711 0.79114 0.13139 0.0
C319 C 0.01297 0.81148 0.08562 0.0
H320 H 0.93282 0.77912 0.17455 0.0
C321 C 0.98461 0.83133 0.04314 0.0
H322 H 0.01382 0.77571 0.16514 0.0
C323 C 0.93723 0.83125 0.04668 0.0
C324 C 0.91717 0.81355 0.09472 0.0
H325 H -0.00093 0.84868 0.00851 0.0
H326 H 0.91668 0.84674 0.0127 0.0
C327 C 0.94588 0.79253 0.13625 0.0
C328 C 0.6197 0.50114 0.60565 0.0
C329 C 0.65578 0.52907 0.62251 0.0
H330 H 0.58691 0.44085 0.61763 0.0
C331 C 0.69134 0.51383 0.65964 0.0
H332 H 0.59159 0.51263 0.57765 0.0
C333 C 0.69045 0.47119 0.6804 0.0
C334 C 0.65255 0.4437 0.66727 0.0
H335 H 0.71967 0.53507 0.67288 0.0
H336 H 0.71905 0.46059 0.708 0.0
C337 C 0.61758 0.45936 0.6285 0.0
C338 C 0.01225 0.15521 0.14417 0.0
C339 C 0.98453 0.11831 0.13328 0.0
H340 H 0.07998 0.17932 0.16526 0.0
C341 C 0.00395 0.07672 0.13649 0.0
H342 H -0.00255 0.18753 0.14437 0.0
C343 C 0.05038 0.07188 0.14974 0.0
C344 C 0.07872 0.1086 0.16 0.0
H345 H 0.98296 0.04776 0.12971 0.0
H346 H 0.06377 0.03907 0.15365 0.0
C347 C 0.05918 0.15044 0.15703 0.0
C348 C 0.243 0.70792 0.07999 0.0
C349 C 0.2113 0.73717 0.10119 0.0
H350 H 0.28367 0.65082 0.09655 0.0
C351 C 0.19423 0.72973 0.15496 0.0
H352 H 0.2561 0.71262 0.03819 0.0
C353 C 0.2093 0.69427 0.18762 0.0
C354 C 0.24282 0.66625 0.16793 0.0
H355 H 0.16874 0.75097 0.17162 0.0
H356 H 0.19513 0.68916 0.22869 0.0
C357 C 0.25875 0.67273 0.11324 0.0
C358 C 0.72478 0.77236 0.56607 0.0
C359 C 0.71918 0.72877 0.58192 0.0
H360 H 0.74411 0.83706 0.59519 0.0
C361 C 0.73577 0.71537 0.63661 0.0
H362 H 0.7119 0.78339 0.52429 0.0
C363 C 0.75401 0.74562 0.67665 0.0
C364 C 0.75562 0.78999 0.66292 0.0
H365 H 0.73194 0.68177 0.64967 0.0
H366 H 0.76406 0.73469 0.71951 0.0
C367 C 0.74284 0.80293 0.6066 0.0
C368 C 0.7323 0.238 0.162 0.0
C369 C 0.77749 0.22956 0.18129 0.0
H370 H 0.66934 0.26843 0.18126 0.0
C371 C 0.79593 0.25023 0.23143 0.0
H372 H 0.71751 0.22246 0.12332 0.0
C373 C 0.76879 0.27664 0.26392 0.0
C374 C 0.72245 0.28182 0.24764 0.0
H375 H 0.83096 0.24465 0.24667 0.0
H376 H 0.78343 0.29129 0.3033 0.0
C377 C 0.70478 0.26388 0.19525 0.0
C378 C 0.29258 0.30018 0.74763 0.0
C379 C 0.28155 0.28445 0.69176 0.0
H380 H 0.27948 0.29647 0.83663 0.0
C381 C 0.24734 0.25266 0.68296 0.0
H382 H 0.31898 0.32446 0.75595 0.0
C383 C 0.22484 0.2366 0.72921 0.0
C384 C 0.2365 0.25177 0.78537 0.0
H385 H 0.23801 0.24005 0.64034 0.0
H386 H 0.19865 0.21209 0.72068 0.0
C387 C 0.27018 0.28404 0.7939 0.0
C388 C 0.73123 0.71549 0.34609 0.0
C389 C 0.68386 0.72031 0.34673 0.0
H390 H 0.78989 0.72144 0.29638 0.0
C391 C 0.66022 0.7418 0.30118 0.0
H392 H 0.75008 0.69854 0.38036 0.0
C393 C 0.68278 0.75453 0.25329 0.0
C394 C 0.72928 0.74562 0.25002 0.0
H395 H 0.62361 0.74583 0.30075 0.0
H396 H 0.66335 0.76903 0.21751 0.0
C397 C 0.75379 0.7279 0.2978 0.0
C398 C 0.76517 0.27977 0.97796 0.0
C399 C 0.76666 0.23622 0.95913 0.0
H400 H 0.75096 0.34607 0.95394 0.0
C401 C 0.74715 0.22488 0.90458 0.0
H402 H 0.78008 0.28916 0.01986 0.0
C403 C 0.73062 0.25713 0.86715 0.0
C404 C 0.73386 0.30124 0.88355 0.0
H405 H 0.74719 0.19128 0.88963 0.0
H406 H 0.71827 0.24789 0.82406 0.0
C407 C 0.74889 0.3122 0.94021 0.0
C408 C 0.25247 0.1906 0.47817 0.0
C409 C 0.2641 0.23022 0.45332 0.0
H410 H 0.22363 0.12662 0.46339 0.0
C411 C 0.25144 0.23765 0.39542 0.0
H412 H 0.26178 0.18442 0.52291 0.0
C413 C 0.22927 0.20532 0.362 0.0
C414 C 0.2208 0.16423 0.38531 0.0
H415 H 0.2594 0.26835 0.37564 0.0
H416 H 0.22015 0.21213 0.31738 0.0
C417 C 0.23107 0.15764 0.44417 0.0
C418 C 0.21741 0.77693 0.8047 0.0
C419 C 0.21438 0.7607 0.86031 0.0
H420 H 0.24556 0.76878 0.72305 0.0
C421 C 0.23829 0.72269 0.87621 0.0
H422 H 0.20015 0.80669 0.79163 0.0
C423 C 0.26376 0.70062 0.83655 0.0
C424 C 0.2657 0.71618 0.78043 0.0
H425 H 0.23694 0.70977 0.91903 0.0
H426 H 0.28189 0.67129 0.84965 0.0
C427 C 0.24329 0.75519 0.76536 0.0
loop_
_geom_bond_atom_site_label_1
_geom_bond_atom_site_label_2
_geom_bond_distance
_geom_bond_site_symmetry_2
_ccdc_geom_bond_type
Zn0 O6 1.920 . S
Zn0 O12 1.898 . S
Zn0 O15 1.905 . S
Zn1 O9 1.905 . S
Zn1 O10 1.898 . S
Zn1 O18 1.920 . S
Zn2 O5 2.081 . S
Zn2 O8 2.113 1_554 S
Zn2 O11 2.119 1_554 S
Zn2 O13 2.121 . S
Zn2 O14 2.115 . S
Zn2 O17 2.079 1_554 S
C3 O8 1.166 . S
C3 O9 1.182 . S
C4 O10 1.167 . S
C4 O11 1.299 . S
O5 Zn2 2.081 . S
O5 C19 1.305 . S
O6 Zn0 1.920 . S
O6 C19 1.234 . S
C7 O12 1.167 . S
C7 O13 1.299 . S
O8 Zn2 2.113 1_556 S
O8 C3 1.166 . S
O9 Zn1 1.905 . S
O9 C3 1.182 . S
O10 Zn1 1.898 . S
O10 C4 1.167 . S
O11 Zn2 2.119 1_556 S
O11 C4 1.299 . S
O12 Zn0 1.898 . S
O12 C7 1.167 . S
O13 Zn2 2.121 . S
O13 C7 1.299 . S
O14 Zn2 2.115 . S
O14 C16 1.166 . S
O15 Zn0 1.905 . S
O15 C16 1.182 . S
C16 O14 1.166 . S
C16 O15 1.182 . S
O17 Zn2 2.079 1_556 S
O17 C20 1.305 . S
O18 Zn1 1.920 . S
O18 C20 1.234 . S
C19 O5 1.305 . S
C19 O6 1.234 . S
C20 O17 1.305 . S
C20 O18 1.234 . S
Zn21 O27 1.920 . S
Zn21 O33 1.898 . S
Zn21 O36 1.905 . S
Zn22 O30 1.905 . S
Zn22 O31 1.898 . S
Zn22 O39 1.920 . S
Zn23 O26 2.080 . S
Zn23 O29 2.114 . S
Zn23 O32 2.120 . S
Zn23 O34 2.120 . S
Zn23 O35 2.114 . S
Zn23 O38 2.080 . S
C24 O29 1.166 . S
C24 O30 1.182 . S
C25 O31 1.167 . S
C25 O32 1.299 . S
O26 Zn23 2.080 . S
O26 C40 1.305 . S
O27 Zn21 1.920 . S
O27 C40 1.234 . S
C28 O33 1.167 . S
C28 O34 1.299 . S
O29 Zn23 2.114 . S
O29 C24 1.166 . S
O30 Zn22 1.905 . S
O30 C24 1.182 . S
O31 Zn22 1.898 . S
O31 C25 1.167 . S
O32 Zn23 2.120 . S
O32 C25 1.299 . S
O33 Zn21 1.898 . S
O33 C28 1.167 . S
O34 Zn23 2.120 . S
O34 C28 1.299 . S
O35 Zn23 2.114 . S
O35 C37 1.166 . S
O36 Zn21 1.905 . S
O36 C37 1.182 . S
C37 O35 1.166 . S
C37 O36 1.182 . S
O38 Zn23 2.080 . S
O38 C41 1.305 . S
O39 Zn22 1.920 . S
O39 C41 1.234 . S
C40 O26 1.305 . S
C40 O27 1.234 . S
C41 O38 1.305 . S
C41 O39 1.234 . S
Zn42 O48 1.920 . S
Zn42 O54 1.898 . S
Zn42 O57 1.905 . S
Zn43 O51 1.905 . S
Zn43 O52 1.898 . S
Zn43 O60 1.920 . S
Zn44 O47 2.080 1_554 S
Zn44 O50 2.114 . S
Zn44 O53 2.120 . S
Zn44 O55 2.120 1_554 S
Zn44 O56 2.114 1_554 S
Zn44 O59 2.080 . S
C45 O50 1.166 . S
C45 O51 1.182 . S
C46 O52 1.167 . S
C46 O53 1.299 . S
O47 Zn44 2.080 1_556 S
O47 C61 1.305 . S
O48 Zn42 1.920 . S
O48 C61 1.234 . S
C49 O54 1.167 . S
C49 O55 1.299 . S
O50 Zn44 2.114 . S
O50 C45 1.166 . S
O51 Zn43 1.905 . S
O51 C45 1.182 . S
O52 Zn43 1.898 . S
O52 C46 1.167 . S
O53 Zn44 2.120 . S
O53 C46 1.299 . S
O54 Zn42 1.898 . S
O54 C49 1.167 . S
O55 Zn44 2.120 1_556 S
O55 C49 1.299 . S
O56 Zn44 2.114 1_556 S
O56 C58 1.166 . S
O57 Zn42 1.905 . S
O57 C58 1.182 . S
C58 O56 1.166 . S
C58 O57 1.182 . S
O59 Zn44 2.080 . S
O59 C62 1.305 . S
O60 Zn43 1.920 . S
O60 C62 1.234 . S
C61 O47 1.305 . S
C61 O48 1.234 . S
C62 O59 1.305 . S
C62 O60 1.234 . S
Zn63 O69 1.920 . S
Zn63 O75 1.898 . S
Zn63 O78 1.905 . S
Zn64 O72 1.905 . S
Zn64 O73 1.898 . S
Zn64 O81 1.920 . S
Zn65 O68 2.080 . S
Zn65 O71 2.114 . S
Zn65 O74 2.120 . S
Zn65 O76 2.120 . S
Zn65 O77 2.114 . S
Zn65 O80 2.080 . S
C66 O71 1.166 . S
C66 O72 1.182 . S
C67 O73 1.167 . S
C67 O74 1.299 . S
O68 Zn65 2.080 . S
O68 C82 1.305 . S
O69 Zn63 1.920 . S
O69 C82 1.234 . S
C70 O75 1.167 . S
C70 O76 1.299 . S
O71 Zn65 2.114 . S
O71 C66 1.166 . S
O72 Zn64 1.905 . S
O72 C66 1.182 . S
O73 Zn64 1.898 . S
O73 C67 1.167 . S
O74 Zn65 2.120 . S
O74 C67 1.299 . S
O75 Zn63 1.898 . S
O75 C70 1.167 . S
O76 Zn65 2.120 . S
O76 C70 1.299 . S
O77 Zn65 2.114 . S
O77 C79 1.166 . S
O78 Zn63 1.905 . S
O78 C79 1.182 . S
C79 O77 1.166 . S
C79 O78 1.182 . S
O80 Zn65 2.080 . S
O80 C83 1.305 . S
O81 Zn64 1.920 . S
O81 C83 1.234 . S
C82 O68 1.305 . S
C82 O69 1.234 . S
C83 O80 1.305 . S
C83 O81 1.234 . S
H84 C91 0.929 . S
H85 C94 0.930 . S
H86 C96 0.929 . S
H87 C88 0.969 . S
C88 H87 0.969 . S
C88 O89 1.550 . S
C88 H90 0.973 . S
O89 C88 1.550 . S
O89 C95 1.412 . S
H90 C88 0.973 . S
C91 H84 0.929 . S
C91 C92 1.400 . S
C91 C93 1.364 . S
C92 C91 1.400 . S
C92 C96 1.377 . S
C93 C91 1.364 . S
C93 C94 1.374 . S
C94 H85 0.930 . S
C94 C93 1.374 . S
C94 C95 1.383 . S
C95 O89 1.412 . S
C95 C94 1.383 . S
C95 C96 1.394 . S
C96 H86 0.929 . S
C96 C92 1.377 . S
C96 C95 1.394 . S
H97 C104 0.929 . S
H98 C107 0.930 . S
H99 C109 0.929 . S
H100 C101 0.969 . S
C101 H100 0.969 . S
C101 O102 1.550 . S
C101 H103 0.973 . S
O102 C101 1.550 . S
O102 C108 1.412 . S
H103 C101 0.973 . S
C104 H97 0.929 . S
C104 C105 1.400 . S
C104 C106 1.364 . S
C105 C104 1.400 . S
C105 C109 1.377 . S
C106 C104 1.364 . S
C106 C107 1.374 . S
C107 H98 0.930 . S
C107 C106 1.374 . S
C107 C108 1.383 . S
C108 O102 1.412 . S
C108 C107 1.383 . S
C108 C109 1.394 . S
C109 H99 0.929 . S
C109 C105 1.377 . S
C109 C108 1.394 . S
H110 C117 0.929 . S
H111 C120 0.930 . S
H112 C122 0.929 . S
H113 C114 0.969 . S
C114 H113 0.969 . S
C114 O115 1.550 . S
C114 H116 0.973 . S
O115 C114 1.550 . S
O115 C121 1.412 . S
H116 C114 0.973 . S
C117 H110 0.929 . S
C117 C118 1.400 . S
C117 C119 1.364 . S
C118 C117 1.400 . S
C118 C122 1.377 . S
C119 C117 1.364 . S
C119 C120 1.374 . S
C120 H111 0.930 . S
C120 C119 1.374 . S
C120 C121 1.383 . S
C121 O115 1.412 . S
C121 C120 1.383 . S
C121 C122 1.394 . S
C122 H112 0.929 . S
C122 C118 1.377 . S
C122 C121 1.394 . S
H123 C130 0.929 . S
H124 C133 0.930 . S
H125 C135 0.929 . S
H126 C127 0.969 . S
C127 H126 0.969 . S
C127 O128 1.550 . S
C127 H129 0.973 . S
O128 C127 1.550 . S
O128 C134 1.412 . S
H129 C127 0.973 . S
C130 H123 0.929 . S
C130 C131 1.400 . S
C130 C132 1.364 . S
C131 C130 1.400 . S
C131 C135 1.377 . S
C132 C130 1.364 . S
C132 C133 1.374 . S
C133 H124 0.930 . S
C133 C132 1.374 . S
C133 C134 1.383 . S
C134 O128 1.412 . S
C134 C133 1.383 . S
C134 C135 1.394 . S
C135 H125 0.929 . S
C135 C131 1.377 . S
C135 C134 1.394 . S
H136 C143 0.929 . S
H137 C146 0.930 . S
H138 C148 0.929 . S
H139 C140 0.969 . S
C140 H139 0.969 . S
C140 O141 1.550 . S
C140 H142 0.973 . S
O141 C140 1.550 . S
O141 C147 1.412 . S
H142 C140 0.973 . S
C143 H136 0.929 . S
C143 C144 1.400 . S
C143 C145 1.364 . S
C144 C143 1.400 . S
C144 C148 1.377 . S
C145 C143 1.364 . S
C145 C146 1.374 . S
C146 H137 0.930 . S
C146 C145 1.374 . S
C146 C147 1.383 . S
C147 O141 1.412 . S
C147 C146 1.383 . S
C147 C148 1.394 . S
C148 H138 0.929 . S
C148 C144 1.377 . S
C148 C147 1.394 . S
H149 C156 0.929 . S
H150 C159 0.930 . S
H151 C161 0.929 . S
H152 C153 0.969 . S
C153 H152 0.969 . S
C153 O154 1.550 . S
C153 H155 0.973 . S
O154 C153 1.550 . S
O154 C160 1.412 . S
H155 C153 0.973 . S
C156 H149 0.929 . S
C156 C157 1.400 . S
C156 C158 1.364 . S
C157 C156 1.400 . S
C157 C161 1.377 . S
C158 C156 1.364 . S
C158 C159 1.374 . S
C159 H150 0.930 . S
C159 C158 1.374 . S
C159 C160 1.383 . S
C160 O154 1.412 . S
C160 C159 1.383 . S
C160 C161 1.394 . S
C161 H151 0.929 . S
C161 C157 1.377 . S
C161 C160 1.394 . S
H162 C169 0.929 . S
H163 C172 0.930 . S
H164 C174 0.929 . S
H165 C166 0.969 . S
C166 H165 0.969 . S
C166 O167 1.550 . S
C166 H168 0.973 . S
O167 C166 1.550 . S
O167 C173 1.412 . S
H168 C166 0.973 . S
C169 H162 0.929 . S
C169 C170 1.400 . S
C169 C171 1.364 . S
C170 C169 1.400 . S
C170 C174 1.377 . S
C171 C169 1.364 . S
C171 C172 1.374 . S
C172 H163 0.930 . S
C172 C171 1.374 . S
C172 C173 1.383 . S
C173 O167 1.412 . S
C173 C172 1.383 . S
C173 C174 1.394 . S
C174 H164 0.929 . S
C174 C170 1.377 . S
C174 C173 1.394 . S
H175 C182 0.929 . S
H176 C185 0.930 . S
H177 C187 0.929 . S
H178 C179 0.969 . S
C179 H178 0.969 . S
C179 O180 1.550 . S
C179 H181 0.973 . S
O180 C179 1.550 . S
O180 C186 1.412 . S
H181 C179 0.973 . S
C182 H175 0.929 . S
C182 C183 1.400 . S
C182 C184 1.364 . S
C183 C182 1.400 . S
C183 C187 1.377 . S
C184 C182 1.364 . S
C184 C185 1.374 . S
C185 H176 0.930 . S
C185 C184 1.374 . S
C185 C186 1.383 . S
C186 O180 1.412 . S
C186 C185 1.383 . S
C186 C187 1.394 . S
C187 H177 0.929 . S
C187 C183 1.377 . S
C187 C186 1.394 . S
C188 C189 1.387 . S
C188 H192 0.950 . S
C188 C197 1.390 . S
C189 C188 1.387 . S
C189 C191 1.387 . S
H190 C197 0.950 . S
C191 C189 1.387 . S
C191 C193 1.390 1_565 S
C191 H195 0.950 . S
H192 C188 0.950 . S
C193 C191 1.390 1_545 S
C193 C194 1.387 . S
C193 H196 0.950 . S
C194 C193 1.387 . S
C194 C197 1.387 1_545 S
H195 C191 0.950 . S
H196 C193 0.950 . S
C197 C188 1.390 . S
C197 H190 0.950 . S
C197 C194 1.387 1_565 S
C198 C199 1.387 . S
C198 H202 0.950 . S
C198 C207 1.390 . S
C199 C198 1.387 . S
C199 C201 1.387 . S
H200 C207 0.950 . S
C201 C199 1.387 . S
C201 C203 1.390 . S
C201 H205 0.950 . S
H202 C198 0.950 . S
C203 C201 1.390 . S
C203 C204 1.387 . S
C203 H206 0.950 . S
C204 C203 1.387 . S
C204 C207 1.387 . S
H205 C201 0.950 . S
H206 C203 0.950 . S
C207 C198 1.390 . S
C207 H200 0.950 . S
C207 C204 1.387 . S
C208 C209 1.387 . S
C208 H212 0.950 . S
C208 C217 1.390 1_545 S
C209 C208 1.387 . S
C209 C211 1.387 1_545 S
H210 C217 0.950 . S
C211 C209 1.387 1_565 S
C211 C213 1.390 . S
C211 H215 0.950 . S
H212 C208 0.950 . S
C213 C211 1.390 . S
C213 C214 1.387 . S
C213 H216 0.950 . S
C214 C213 1.387 . S
C214 C217 1.387 . S
H215 C211 0.950 . S
H216 C213 0.950 . S
C217 C208 1.390 1_565 S
C217 H210 0.950 . S
C217 C214 1.387 . S
C218 C219 1.387 . S
C218 H222 0.950 . S
C218 C227 1.390 . S
C219 C218 1.387 . S
C219 C221 1.387 . S
H220 C227 0.950 . S
C221 C219 1.387 . S
C221 C223 1.390 . S
C221 H225 0.950 . S
H222 C218 0.950 . S
C223 C221 1.390 . S
C223 C224 1.387 . S
C223 H226 0.950 . S
C224 C223 1.387 . S
C224 C227 1.387 . S
H225 C221 0.950 . S
H226 C223 0.950 . S
C227 C218 1.390 . S
C227 H220 0.950 . S
C227 C224 1.387 . S
C228 C229 1.387 . S
C228 H232 0.950 . S
C228 C237 1.390 . S
C229 C228 1.387 . S
C229 C231 1.387 . S
H230 C237 0.950 . S
C231 C229 1.387 . S
C231 C233 1.390 . S
C231 H235 0.950 . S
H232 C228 0.950 . S
C233 C231 1.390 . S
C233 C234 1.387 . S
C233 H236 0.950 . S
C234 C233 1.387 . S
C234 C237 1.387 . S
H235 C231 0.950 . S
H236 C233 0.950 . S
C237 C228 1.390 . S
C237 H230 0.950 . S
C237 C234 1.387 . S
C238 C239 1.387 . S
C238 H242 0.950 . S
C238 C247 1.390 1_655 S
C239 C238 1.387 . S
C239 C241 1.387 1_655 S
H240 C247 0.950 . S
C241 C239 1.387 1_455 S
C241 C243 1.390 . S
C241 H245 0.950 1_556 S
H242 C238 0.950 . S
C243 C241 1.390 . S
C243 C244 1.387 . S
C243 H246 0.950 . S
C244 C243 1.387 . S
C244 C247 1.387 . S
H245 C241 0.950 1_554 S
H246 C243 0.950 . S
C247 C238 1.390 1_455 S
C247 H240 0.950 . S
C247 C244 1.387 . S
C248 C249 1.387 . S
C248 H252 0.950 . S
C248 C257 1.390 . S
C249 C248 1.387 . S
C249 C251 1.387 . S
H250 C257 0.950 . S
C251 C249 1.387 . S
C251 C253 1.390 . S
C251 H255 0.950 . S
H252 C248 0.950 . S
C253 C251 1.390 . S
C253 C254 1.387 . S
C253 H256 0.950 . S
C254 C253 1.387 . S
C254 C257 1.387 . S
H255 C251 0.950 . S
H256 C253 0.950 . S
C257 C248 1.390 . S
C257 H250 0.950 . S
C257 C254 1.387 . S
C258 C259 1.387 . S
C258 H262 0.950 . S
C258 C267 1.390 1_455 S
C259 C258 1.387 . S
C259 C261 1.387 . S
H260 C267 0.950 . S
C261 C259 1.387 . S
C261 C263 1.390 1_455 S
C261 H265 0.950 . S
H262 C258 0.950 . S
C263 C261 1.390 1_655 S
C263 C264 1.387 . S
C263 H266 0.950 . S
C264 C263 1.387 . S
C264 C267 1.387 . S
H265 C261 0.950 . S
H266 C263 0.950 . S
C267 C258 1.390 1_655 S
C267 H260 0.950 . S
C267 C264 1.387 . S
C268 C269 1.387 1_565 S
C268 H272 0.950 1_565 S
C268 C277 1.390 . S
C269 C268 1.387 1_545 S
C269 C271 1.387 1_545 S
H270 C277 0.950 . S
C271 C269 1.387 1_565 S
C271 C273 1.390 . S
C271 H275 0.950 1_565 S
H272 C268 0.950 1_545 S
C273 C271 1.390 . S
C273 C274 1.387 . S
C273 H276 0.950 . S
C274 C273 1.387 . S
C274 C277 1.387 . S
H275 C271 0.950 1_545 S
H276 C273 0.950 . S
C277 C268 1.390 . S
C277 H270 0.950 . S
C277 C274 1.387 . S
C278 C279 1.387 . S
C278 H282 0.950 . S
C278 C287 1.390 . S
C279 C278 1.387 . S
C279 C281 1.387 . S
H280 C287 0.950 . S
C281 C279 1.387 . S
C281 C283 1.390 . S
C281 H285 0.950 . S
H282 C278 0.950 . S
C283 C281 1.390 . S
C283 C284 1.387 . S
C283 H286 0.950 . S
C284 C283 1.387 . S
C284 C287 1.387 . S
H285 C281 0.950 . S
H286 C283 0.950 . S
C287 C278 1.390 . S
C287 H280 0.950 . S
C287 C284 1.387 . S
C288 C289 1.387 . S
C288 H292 0.950 . S
C288 C297 1.390 . S
C289 C288 1.387 . S
C289 C291 1.387 . S
H290 C297 0.950 . S
C291 C289 1.387 . S
C291 C293 1.390 . S
C291 H295 0.950 1_545 S
H292 C288 0.950 . S
C293 C291 1.390 . S
C293 C294 1.387 . S
C293 H296 0.950 . S
C294 C293 1.387 . S
C294 C297 1.387 . S
H295 C291 0.950 1_565 S
H296 C293 0.950 . S
C297 C288 1.390 . S
C297 H290 0.950 . S
C297 C294 1.387 . S
C298 C299 1.387 . S
C298 H302 0.950 . S
C298 C307 1.390 . S
C299 C298 1.387 . S
C299 C301 1.387 . S
H300 C307 0.950 . S
C301 C299 1.387 . S
C301 C303 1.390 . S
C301 H305 0.950 . S
H302 C298 0.950 . S
C303 C301 1.390 . S
C303 C304 1.387 . S
C303 H306 0.950 . S
C304 C303 1.387 . S
C304 C307 1.387 . S
H305 C301 0.950 . S
H306 C303 0.950 . S
C307 C298 1.390 . S
C307 H300 0.950 . S
C307 C304 1.387 . S
C308 C309 1.387 . S
C308 H312 0.950 . S
C308 C317 1.390 . S
C309 C308 1.387 . S
C309 C311 1.387 . S
H310 C317 0.950 . S
C311 C309 1.387 . S
C311 C313 1.390 . S
C311 H315 0.950 . S
H312 C308 0.950 . S
C313 C311 1.390 . S
C313 C314 1.387 . S
C313 H316 0.950 . S
C314 C313 1.387 . S
C314 C317 1.387 . S
H315 C311 0.950 . S
H316 C313 0.950 . S
C317 C308 1.390 . S
C317 H310 0.950 . S
C317 C314 1.387 . S
C318 C319 1.387 . S
C318 H322 0.950 1_655 S
C318 C327 1.390 . S
C319 C318 1.387 . S
C319 C321 1.387 . S
H320 C327 0.950 . S
C321 C319 1.387 . S
C321 C323 1.390 . S
C321 H325 0.950 . S
H322 C318 0.950 1_455 S
C323 C321 1.390 . S
C323 C324 1.387 . S
C323 H326 0.950 . S
C324 C323 1.387 . S
C324 C327 1.387 . S
H325 C321 0.950 . S
H326 C323 0.950 . S
C327 C318 1.390 . S
C327 H320 0.950 . S
C327 C324 1.387 . S
C328 C329 1.387 . S
C328 H332 0.950 . S
C328 C337 1.390 . S
C329 C328 1.387 . S
C329 C331 1.387 . S
H330 C337 0.950 . S
C331 C329 1.387 . S
C331 C333 1.390 . S
C331 H335 0.950 . S
H332 C328 0.950 . S
C333 C331 1.390 . S
C333 C334 1.387 . S
C333 H336 0.950 . S
C334 C333 1.387 . S
C334 C337 1.387 . S
H335 C331 0.950 . S
H336 C333 0.950 . S
C337 C328 1.390 . S
C337 H330 0.950 . S
C337 C334 1.387 . S
C338 C339 1.387 . S
C338 H342 0.950 . S
C338 C347 1.390 . S
C339 C338 1.387 . S
C339 C341 1.387 . S
H340 C347 0.950 . S
C341 C339 1.387 . S
C341 C343 1.390 . S
C341 H345 0.950 . S
H342 C338 0.950 . S
C343 C341 1.390 . S
C343 C344 1.387 . S
C343 H346 0.950 . S
C344 C343 1.387 . S
C344 C347 1.387 . S
H345 C341 0.950 . S
H346 C343 0.950 . S
C347 C338 1.390 . S
C347 H340 0.950 . S
C347 C344 1.387 . S
C348 C349 1.387 . S
C348 H352 0.950 . S
C348 C357 1.390 . S
C349 C348 1.387 . S
C349 C351 1.387 . S
H350 C357 0.950 . S
C351 C349 1.387 . S
C351 C353 1.390 . S
C351 H355 0.950 . S
H352 C348 0.950 . S
C353 C351 1.390 . S
C353 C354 1.387 . S
C353 H356 0.950 . S
C354 C353 1.387 . S
C354 C357 1.387 . S
H355 C351 0.950 . S
H356 C353 0.950 . S
C357 C348 1.390 . S
C357 H350 0.950 . S
C357 C354 1.387 . S
C358 C359 1.387 . S
C358 H362 0.950 . S
C358 C367 1.390 . S
C359 C358 1.387 . S
C359 C361 1.387 . S
H360 C367 0.950 . S
C361 C359 1.387 . S
C361 C363 1.390 . S
C361 H365 0.950 . S
H362 C358 0.950 . S
C363 C361 1.390 . S
C363 C364 1.387 . S
C363 H366 0.950 . S
C364 C363 1.387 . S
C364 C367 1.387 . S
H365 C361 0.950 . S
H366 C363 0.950 . S
C367 C358 1.390 . S
C367 H360 0.950 . S
C367 C364 1.387 . S
C368 C369 1.387 . S
C368 H372 0.950 . S
C368 C377 1.390 . S
C369 C368 1.387 . S
C369 C371 1.387 . S
H370 C377 0.950 . S
C371 C369 1.387 . S
C371 C373 1.390 . S
C371 H375 0.950 . S
H372 C368 0.950 . S
C373 C371 1.390 . S
C373 C374 1.387 . S
C373 H376 0.950 . S
C374 C373 1.387 . S
C374 C377 1.387 . S
H375 C371 0.950 . S
H376 C373 0.950 . S
C377 C368 1.390 . S
C377 H370 0.950 . S
C377 C374 1.387 . S
C378 C379 1.387 . S
C378 H382 0.950 . S
C378 C387 1.390 . S
C379 C378 1.387 . S
C379 C381 1.387 . S
H380 C387 0.950 . S
C381 C379 1.387 . S
C381 C383 1.390 . S
C381 H385 0.950 . S
H382 C378 0.950 . S
C383 C381 1.390 . S
C383 C384 1.387 . S
C383 H386 0.950 . S
C384 C383 1.387 . S
C384 C387 1.387 . S
H385 C381 0.950 . S
H386 C383 0.950 . S
C387 C378 1.390 . S
C387 H380 0.950 . S
C387 C384 1.387 . S
C388 C389 1.387 . S
C388 H392 0.950 . S
C388 C397 1.390 . S
C389 C388 1.387 . S
C389 C391 1.387 . S
H390 C397 0.950 . S
C391 C389 1.387 . S
C391 C393 1.390 . S
C391 H395 0.950 . S
H392 C388 0.950 . S
C393 C391 1.390 . S
C393 C394 1.387 . S
C393 H396 0.950 . S
C394 C393 1.387 . S
C394 C397 1.387 . S
H395 C391 0.950 . S
H396 C393 0.950 . S
C397 C388 1.390 . S
C397 H390 0.950 . S
C397 C394 1.387 . S
C398 C399 1.387 . S
C398 H402 0.950 1_556 S
C398 C407 1.390 . S
C399 C398 1.387 . S
C399 C401 1.387 . S
H400 C407 0.950 . S
C401 C399 1.387 . S
C401 C403 1.390 . S
C401 H405 0.950 . S
H402 C398 0.950 1_554 S
C403 C401 1.390 . S
C403 C404 1.387 . S
C403 H406 0.950 . S
C404 C403 1.387 . S
C404 C407 1.387 . S
H405 C401 0.950 . S
H406 C403 0.950 . S
C407 C398 1.390 . S
C407 H400 0.950 . S
C407 C404 1.387 . S
C408 C409 1.387 . S
C408 H412 0.950 . S
C408 C417 1.390 . S
C409 C408 1.387 . S
C409 C411 1.387 . S
H410 C417 0.950 . S
C411 C409 1.387 . S
C411 C413 1.390 . S
C411 H415 0.950 . S
H412 C408 0.950 . S
C413 C411 1.390 . S
C413 C414 1.387 . S
C413 H416 0.950 . S
C414 C413 1.387 . S
C414 C417 1.387 . S
H415 C411 0.950 . S
H416 C413 0.950 . S
C417 C408 1.390 . S
C417 H410 0.950 . S
C417 C414 1.387 . S
C418 C419 1.387 . S
C418 H422 0.950 . S
C418 C427 1.390 . S
C419 C418 1.387 . S
C419 C421 1.387 . S
H420 C427 0.950 . S
C421 C419 1.387 . S
C421 C423 1.390 . S
C421 H425 0.950 . S
H422 C418 0.950 . S
C423 C421 1.390 . S
C423 C424 1.387 . S
C423 H426 0.950 . S
C424 C423 1.387 . S
C424 C427 1.387 . S
H425 C421 0.950 . S
H426 C423 0.950 . S
C427 C418 1.390 . S
C427 H420 0.950 . S
C427 C424 1.387 . S
C189 C7 1.001 . S
C194 C92 1.057 . S
C199 C25 0.869 . S
C204 C105 0.901 . S
C209 C46 1.063 . S
C214 C119 1.060 . S
C224 C132 0.924 . S
C219 C70 0.890 . S
C234 C144 0.946 . S
C229 C28 0.938 . S
C239 C49 1.029 . S
C244 C158 1.051 . S
C249 C67 0.970 . S
C254 C170 1.022 . S
C259 C4 0.888 . S
C264 C184 0.926 . S
C269 C58 1.482 . S
C274 C183 1.571 . S
C284 C145 1.707 . S
C279 C66 1.690 . S
C294 C157 1.623 . S
C289 C3 1.547 1_545 S
C299 C37 1.599 . S
C304 C171 1.680 . S
C314 C106 1.735 . S
C309 C79 1.684 . S
C319 C16 1.525 1_655 S
C324 C118 1.575 . S
C334 C131 1.589 . S
C329 C24 1.505 . S
C344 C93 1.684 . S
C339 C45 1.605 1_455 S
C354 C166 1.381 . S
C349 C19 1.320 . S
C364 C179 1.313 . S
C359 C41 1.252 . S
C369 C62 1.268 . S
C374 C140 1.362 . S
C384 C153 1.490 . S
C379 C82 1.309 . S
C394 C114 1.419 . S
C389 C40 1.274 . S
C399 C61 1.285 . S
C404 C127 1.345 . S
C414 C88 1.409 . S
C409 C83 1.348 . S
C424 C101 1.348 . S
C419 C20 1.246 . S
