# Generated by pormake.
# Topology eea, (3,6)-cn, num edge types: 1
# Building blocks:
#     Node 0, Type 0, BuildingBlock: QEWDON_clean_linker_0, # of connection points: 3
#     Node 1, Type 0, BuildingBlock: QEWDON_clean_linker_0, # of connection points: 3
#     Node 2, Type 0, BuildingBlock: QEWDON_clean_linker_0, # of connection points: 3
#     Node 3, Type 0, BuildingBlock: QEWDON_clean_linker_0, # of connection points: 3
#     Node 4, Type 0, BuildingBlock: QEWDON_clean_linker_0, # of connection points: 3
#     Node 5, Type 0, BuildingBlock: QEWDON_clean_linker_0, # of connection points: 3
#     Node 6, Type 0, BuildingBlock: QEWDON_clean_linker_0, # of connection points: 3
#     Node 7, Type 0, BuildingBlock: QEWDON_clean_linker_0, # of connection points: 3
#     Node 8, Type 0, BuildingBlock: QEWDON_clean_linker_0, # of connection points: 3
#     Node 9, Type 0, BuildingBlock: QEWDON_clean_linker_0, # of connection points: 3
#     Node 10, Type 0, BuildingBlock: QEWDON_clean_linker_0, # of connection points: 3
#     Node 11, Type 0, BuildingBlock: QEWDON_clean_linker_0, # of connection points: 3
#     Node 12, Type 0, BuildingBlock: QEWDON_clean_linker_0, # of connection points: 3
#     Node 13, Type 0, BuildingBlock: QEWDON_clean_linker_0, # of connection points: 3
#     Node 14, Type 0, BuildingBlock: QEWDON_clean_linker_0, # of connection points: 3
#     Node 15, Type 0, BuildingBlock: QEWDON_clean_linker_0, # of connection points: 3
#     Node 16, Type 0, BuildingBlock: QEWDON_clean_linker_0, # of connection points: 3
#     Node 17, Type 0, BuildingBlock: QEWDON_clean_linker_0, # of connection points: 3
#     Node 18, Type 1, BuildingBlock: CUKXOW_clean_sbu_0, # of connection points: 6
#     Node 19, Type 1, BuildingBlock: CUKXOW_clean_sbu_0, # of connection points: 6
#     Node 20, Type 1, BuildingBlock: CUKXOW_clean_sbu_0, # of connection points: 6
#     Node 21, Type 1, BuildingBlock: CUKXOW_clean_sbu_0, # of connection points: 6
#     Node 22, Type 1, BuildingBlock: CUKXOW_clean_sbu_0, # of connection points: 6
#     Node 23, Type 1, BuildingBlock: CUKXOW_clean_sbu_0, # of connection points: 6
#     Node 24, Type 1, BuildingBlock: CUKXOW_clean_sbu_0, # of connection points: 6
#     Node 25, Type 1, BuildingBlock: CUKXOW_clean_sbu_0, # of connection points: 6
#     Node 26, Type 1, BuildingBlock: CUKXOW_clean_sbu_0, # of connection points: 6
#     Edge 27, Type (0, 1), BuildingBlock: XUDNAN_clean_linker_2, # of connection points: 2
#     Edge 28, Type (0, 1), BuildingBlock: XUDNAN_clean_linker_2, # of connection points: 2
#     Edge 29, Type (0, 1), BuildingBlock: XUDNAN_clean_linker_2, # of connection points: 2
#     Edge 30, Type (0, 1), BuildingBlock: XUDNAN_clean_linker_2, # of connection points: 2
#     Edge 31, Type (0, 1), BuildingBlock: XUDNAN_clean_linker_2, # of connection points: 2
#     Edge 32, Type (0, 1), BuildingBlock: XUDNAN_clean_linker_2, # of connection points: 2
#     Edge 33, Type (0, 1), BuildingBlock: XUDNAN_clean_linker_2, # of connection points: 2
#     Edge 34, Type (0, 1), BuildingBlock: XUDNAN_clean_linker_2, # of connection points: 2
#     Edge 35, Type (0, 1), BuildingBlock: XUDNAN_clean_linker_2, # of connection points: 2
#     Edge 36, Type (0, 1), BuildingBlock: XUDNAN_clean_linker_2, # of connection points: 2
#     Edge 37, Type (0, 1), BuildingBlock: XUDNAN_clean_linker_2, # of connection points: 2
#     Edge 38, Type (0, 1), BuildingBlock: XUDNAN_clean_linker_2, # of connection points: 2
#     Edge 39, Type (0, 1), BuildingBlock: XUDNAN_clean_linker_2, # of connection points: 2
#     Edge 40, Type (0, 1), BuildingBlock: XUDNAN_clean_linker_2, # of connection points: 2
#     Edge 41, Type (0, 1), BuildingBlock: XUDNAN_clean_linker_2, # of connection points: 2
#     Edge 42, Type (0, 1), BuildingBlock: XUDNAN_clean_linker_2, # of connection points: 2
#     Edge 43, Type (0, 1), BuildingBlock: XUDNAN_clean_linker_2, # of connection points: 2
#     Edge 44, Type (0, 1), BuildingBlock: XUDNAN_clean_linker_2, # of connection points: 2
#     Edge 45, Type (0, 1), BuildingBlock: XUDNAN_clean_linker_2, # of connection points: 2
#     Edge 46, Type (0, 1), BuildingBlock: XUDNAN_clean_linker_2, # of connection points: 2
#     Edge 47, Type (0, 1), BuildingBlock: XUDNAN_clean_linker_2, # of connection points: 2
#     Edge 48, Type (0, 1), BuildingBlock: XUDNAN_clean_linker_2, # of connection points: 2
#     Edge 49, Type (0, 1), BuildingBlock: XUDNAN_clean_linker_2, # of connection points: 2
#     Edge 50, Type (0, 1), BuildingBlock: XUDNAN_clean_linker_2, # of connection points: 2
#     Edge 51, Type (0, 1), BuildingBlock: XUDNAN_clean_linker_2, # of connection points: 2
#     Edge 52, Type (0, 1), BuildingBlock: XUDNAN_clean_linker_2, # of connection points: 2
#     Edge 53, Type (0, 1), BuildingBlock: XUDNAN_clean_linker_2, # of connection points: 2
#     Edge 54, Type (0, 1), BuildingBlock: XUDNAN_clean_linker_2, # of connection points: 2
#     Edge 55, Type (0, 1), BuildingBlock: XUDNAN_clean_linker_2, # of connection points: 2
#     Edge 56, Type (0, 1), BuildingBlock: XUDNAN_clean_linker_2, # of connection points: 2
#     Edge 57, Type (0, 1), BuildingBlock: XUDNAN_clean_linker_2, # of connection points: 2
#     Edge 58, Type (0, 1), BuildingBlock: XUDNAN_clean_linker_2, # of connection points: 2
#     Edge 59, Type (0, 1), BuildingBlock: XUDNAN_clean_linker_2, # of connection points: 2
#     Edge 60, Type (0, 1), BuildingBlock: XUDNAN_clean_linker_2, # of connection points: 2
#     Edge 61, Type (0, 1), BuildingBlock: XUDNAN_clean_linker_2, # of connection points: 2
#     Edge 62, Type (0, 1), BuildingBlock: XUDNAN_clean_linker_2, # of connection points: 2
#     Edge 63, Type (0, 1), BuildingBlock: XUDNAN_clean_linker_2, # of connection points: 2
#     Edge 64, Type (0, 1), BuildingBlock: XUDNAN_clean_linker_2, # of connection points: 2
#     Edge 65, Type (0, 1), BuildingBlock: XUDNAN_clean_linker_2, # of connection points: 2
#     Edge 66, Type (0, 1), BuildingBlock: XUDNAN_clean_linker_2, # of connection points: 2
#     Edge 67, Type (0, 1), BuildingBlock: XUDNAN_clean_linker_2, # of connection points: 2
#     Edge 68, Type (0, 1), BuildingBlock: XUDNAN_clean_linker_2, # of connection points: 2
#     Edge 69, Type (0, 1), BuildingBlock: XUDNAN_clean_linker_2, # of connection points: 2
#     Edge 70, Type (0, 1), BuildingBlock: XUDNAN_clean_linker_2, # of connection points: 2
#     Edge 71, Type (0, 1), BuildingBlock: XUDNAN_clean_linker_2, # of connection points: 2
#     Edge 72, Type (0, 1), BuildingBlock: XUDNAN_clean_linker_2, # of connection points: 2
#     Edge 73, Type (0, 1), BuildingBlock: XUDNAN_clean_linker_2, # of connection points: 2
#     Edge 74, Type (0, 1), BuildingBlock: XUDNAN_clean_linker_2, # of connection points: 2
#     Edge 75, Type (0, 1), BuildingBlock: XUDNAN_clean_linker_2, # of connection points: 2
#     Edge 76, Type (0, 1), BuildingBlock: XUDNAN_clean_linker_2, # of connection points: 2
#     Edge 77, Type (0, 1), BuildingBlock: XUDNAN_clean_linker_2, # of connection points: 2
#     Edge 78, Type (0, 1), BuildingBlock: XUDNAN_clean_linker_2, # of connection points: 2
#     Edge 79, Type (0, 1), BuildingBlock: XUDNAN_clean_linker_2, # of connection points: 2
#     Edge 80, Type (0, 1), BuildingBlock: XUDNAN_clean_linker_2, # of connection points: 2
# Relax obj value: 0.053
# Max RMSD: 0.210
# Mean RMSD: 0.124
data_MOF--net-eea--node1-CUKXOW_clean_sbu_0--node2-QEWDON_clean_linker_0--edge1-XUDNAN_clean_linker_2
_symmetry_space_group_name_H-M    P1
_symmetry_Int_Tables_number       1
_symmetry_cell_setting            triclinic
loop_
_symmetry_equiv_pos_as_xyz
'x, y, z'
_cell_length_a     63.658031
_cell_length_b     59.928004
_cell_length_c     46.960313
_cell_angle_alpha  93.335311
_cell_angle_beta   93.338861
_cell_angle_gamma 120.0194
loop_
_atom_site_label
_atom_site_type_symbol
_atom_site_fract_x
_atom_site_fract_y
_atom_site_fract_z
_atom_type_partial_charge
H0 H 0.22967 0.13915 0.44584 0.0
C1 C 0.23133 0.12339 0.43594 0.0
C2 C 0.24787 0.11694 0.44888 0.0
C3 C 0.21593 0.10882 0.41115 0.0
H4 H 0.26176 0.09063 0.4458 0.0
C5 C 0.24969 0.09635 0.43566 0.0
C6 C 0.23472 0.08181 0.41051 0.0
C7 C 0.21789 0.08818 0.39849 0.0
C8 C 0.19639 0.11371 0.39989 0.0
H9 H 0.20621 0.07699 0.3792 0.0
C10 C 0.20114 0.13906 0.39682 0.0
C11 C 0.18225 0.14343 0.38688 0.0
C12 C 0.1725 0.0928 0.39299 0.0
H13 H 0.1682 0.07315 0.39553 0.0
C14 C 0.15377 0.09703 0.38334 0.0
H15 H 0.21948 0.15532 0.40208 0.0
C16 C 0.15854 0.1221 0.38029 0.0
H17 H 0.14373 0.12473 0.3722 0.0
H18 H 0.13545 0.08076 0.37813 0.0
H19 H 0.87945 0.11273 0.44812 0.0
C20 C 0.89482 0.12958 0.44112 0.0
C21 C 0.90158 0.15443 0.45381 0.0
C22 C 0.90836 0.12616 0.42049 0.0
H23 H 0.9287 0.19493 0.45691 0.0
C24 C 0.92296 0.17595 0.44643 0.0
C25 C 0.93705 0.17309 0.42599 0.0
C26 C 0.92893 0.14814 0.41249 0.0
C27 C 0.90193 0.09962 0.40839 0.0
H28 H 0.93866 0.14569 0.39558 0.0
C29 C 0.87741 0.07933 0.40285 0.0
C30 C 0.8717 0.05419 0.3922 0.0
C31 C 0.92059 0.09428 0.40302 0.0
H32 H 0.93961 0.10906 0.40771 0.0
C33 C 0.91503 0.06964 0.39202 0.0
H34 H 0.86281 0.08301 0.407 0.0
C35 C 0.89084 0.04976 0.38659 0.0
H36 H 0.88715 0.03089 0.37777 0.0
H37 H 0.92958 0.06588 0.38784 0.0
H38 H 0.92218 0.78586 0.47144 0.0
C39 C 0.90652 0.78399 0.45867 0.0
C40 C 0.88301 0.76906 0.46729 0.0
C41 C 0.91031 0.79817 0.43498 0.0
H42 H 0.84488 0.75647 0.45781 0.0
C43 C 0.86299 0.76753 0.45098 0.0
C44 C 0.86654 0.78149 0.42681 0.0
C45 C 0.89035 0.7968 0.41906 0.0
C46 C 0.93536 0.81807 0.43054 0.0
H47 H 0.89359 0.80883 0.40158 0.0
C48 C 0.95013 0.81208 0.41437 0.0
C49 C 0.9746 0.83108 0.41255 0.0
C50 C 0.94499 0.84313 0.44432 0.0
H51 H 0.93384 0.84796 0.45696 0.0
C52 C 0.96919 0.86197 0.44239 0.0
H53 H 0.94281 0.79271 0.40382 0.0
C54 C 0.984 0.85597 0.42676 0.0
H55 H 1.00277 0.87085 0.42552 0.0
H56 H 0.97654 0.88122 0.4532 0.0
H57 H 0.13658 0.24286 0.57936 0.0
C58 C 0.11949 0.24178 0.58298 0.0
C59 C 0.1082 0.24969 0.5623 0.0
C60 C 0.10838 0.23134 0.60775 0.0
H61 H 0.07564 0.25154 0.55085 0.0
C62 C 0.08547 0.24715 0.56707 0.0
C63 C 0.07476 0.23789 0.59232 0.0
C64 C 0.08657 0.23075 0.61278 0.0
C65 C 0.11765 0.21804 0.62633 0.0
H66 H 0.07781 0.2231 0.63187 0.0
C67 C 0.14281 0.22687 0.63154 0.0
C68 C 0.15102 0.21256 0.64681 0.0
C69 C 0.1009 0.19495 0.63727 0.0
H70 H 0.08142 0.18695 0.63302 0.0
C71 C 0.1089 0.1811 0.65286 0.0
H72 H 0.15597 0.24479 0.62372 0.0
C73 C 0.13366 0.18962 0.6574 0.0
H74 H 0.13906 0.17765 0.66847 0.0
H75 H 0.09576 0.16323 0.66081 0.0
H76 H 0.79488 0.90224 0.58302 0.0
C77 C 0.79545 0.88705 0.59384 0.0
C78 C 0.77958 0.86092 0.58351 0.0
C79 C 0.81363 0.89389 0.61668 0.0
H80 H 0.76803 0.82157 0.59147 0.0
C81 C 0.78118 0.8418 0.59785 0.0
C82 C 0.80065 0.84811 0.61857 0.0
C83 C 0.81648 0.87431 0.62849 0.0
C84 C 0.83155 0.92169 0.62542 0.0
H85 H 0.8316 0.87958 0.64449 0.0
C86 C 0.82385 0.93969 0.63148 0.0
C87 C 0.84102 0.96639 0.63802 0.0
C88 C 0.8566 0.93051 0.6263 0.0
H89 H 0.863 0.91717 0.62139 0.0
C90 C 0.87363 0.95676 0.63247 0.0
H91 H 0.80453 0.93269 0.63142 0.0
C92 C 0.866 0.97457 0.63798 0.0
H93 H 0.87985 0.99486 0.6417 0.0
H94 H 0.89289 0.96342 0.63254 0.0
H95 H 0.11633 0.88344 0.57923 0.0
C96 C 0.13331 0.90075 0.58743 0.0
C97 C 0.15411 0.90835 0.57275 0.0
C98 C 0.13375 0.91653 0.6111 0.0
H99 H 0.1914 0.93797 0.57039 0.0
C100 C 0.17565 0.9316 0.58239 0.0
C101 C 0.17635 0.94789 0.60568 0.0
C102 C 0.15548 0.93994 0.6203 0.0
C103 C 0.11062 0.91071 0.62302 0.0
H104 H 0.15563 0.95277 0.63766 0.0
C105 C 0.09436 0.88591 0.63106 0.0
C106 C 0.07178 0.8805 0.64037 0.0
C107 C 0.10405 0.9299 0.62475 0.0
H108 H 0.116 0.94898 0.61832 0.0
C109 C 0.08166 0.92447 0.63389 0.0
H110 H 0.09918 0.87093 0.62995 0.0
C111 C 0.06555 0.8999 0.64152 0.0
H112 H 0.04829 0.89608 0.6487 0.0
H113 H 0.07673 0.93934 0.63492 0.0
H114 H 0.897 0.46834 0.77475 0.0
C115 C 0.89795 0.45156 0.76688 0.0
C116 C 0.91167 0.4437 0.78362 0.0
C117 C 0.88415 0.43683 0.74108 0.0
H118 H 0.92311 0.41552 0.78617 0.0
C119 C 0.91195 0.42126 0.77389 0.0
C120 C 0.89721 0.40532 0.74939 0.0
C121 C 0.88404 0.41371 0.73252 0.0
C122 C 0.86809 0.44424 0.72459 0.0
H123 H 0.87298 0.40167 0.71331 0.0
C124 C 0.87506 0.4705 0.72258 0.0
C125 C 0.85916 0.47711 0.70809 0.0
C126 C 0.84504 0.42482 0.71159 0.0
H127 H 0.83859 0.40452 0.71335 0.0
C128 C 0.82959 0.43127 0.69666 0.0
H129 H 0.89262 0.48577 0.73257 0.0
C130 C 0.83653 0.45712 0.69487 0.0
H131 H 0.82412 0.46147 0.68303 0.0
H132 H 0.81199 0.41611 0.68667 0.0
H133 H 0.56308 0.44427 0.79568 0.0
C134 C 0.57798 0.45987 0.78635 0.0
C135 C 0.58713 0.48562 0.79768 0.0
C136 C 0.5893 0.45394 0.76461 0.0
H137 H 0.61277 0.5254 0.79293 0.0
C138 C 0.60669 0.50544 0.78557 0.0
C139 C 0.6198 0.50006 0.76597 0.0
C140 C 0.61058 0.47415 0.75496 0.0
C141 C 0.58048 0.42634 0.75481 0.0
H142 H 0.62036 0.46957 0.73974 0.0
C143 C 0.55535 0.40841 0.74803 0.0
C144 C 0.54677 0.38173 0.74119 0.0
C145 C 0.59712 0.41748 0.754 0.0
H146 H 0.61646 0.43069 0.75947 0.0
C147 C 0.5889 0.39128 0.74729 0.0
H148 H 0.54267 0.41546 0.74793 0.0
C149 C 0.56403 0.37352 0.74129 0.0
H150 H 0.55846 0.35326 0.73732 0.0
H151 H 0.60186 0.38459 0.74729 0.0
H152 H 0.58244 0.1167 0.79972 0.0
C153 C 0.56598 0.11659 0.7923 0.0
C154 C 0.54468 0.10292 0.80618 0.0
C155 C 0.56634 0.13059 0.76909 0.0
H156 H 0.50778 0.09499 0.80808 0.0
C157 C 0.52374 0.10377 0.79646 0.0
C158 C 0.52322 0.11636 0.77231 0.0
C159 C 0.54464 0.12958 0.75873 0.0
C160 C 0.58954 0.14743 0.7565 0.0
H161 H 0.54446 0.13905 0.73984 0.0
C162 C 0.60707 0.13988 0.75281 0.0
C163 C 0.62905 0.15639 0.74132 0.0
C164 C 0.5945 0.17182 0.74873 0.0
H165 H 0.58181 0.17857 0.75192 0.0
C166 C 0.61615 0.18813 0.73736 0.0
H167 H 0.60346 0.12107 0.75833 0.0
C168 C 0.63331 0.18056 0.73369 0.0
H169 H 0.65019 0.19392 0.72536 0.0
H170 H 0.61977 0.20689 0.73165 0.0
H171 H 0.79214 0.56015 0.89139 0.0
C172 C 0.77717 0.55957 0.90189 0.0
C173 C 0.77082 0.57859 0.89784 0.0
C174 C 0.76427 0.53975 0.91933 0.0
H175 H 0.74678 0.59263 0.90926 0.0
C176 C 0.75174 0.57798 0.91208 0.0
C177 C 0.73849 0.55807 0.92927 0.0
C178 C 0.7446 0.5388 0.9325 0.0
C179 C 0.77141 0.52006 0.92383 0.0
H180 H 0.73459 0.5236 0.94607 0.0
C181 C 0.79555 0.52759 0.93387 0.0
C182 C 0.80226 0.50884 0.93846 0.0
C183 C 0.754 0.49361 0.91826 0.0
H184 H 0.73534 0.4874 0.9105 0.0
C185 C 0.76063 0.47498 0.9223 0.0
H186 H 0.80901 0.548 0.93836 0.0
C187 C 0.78455 0.48247 0.93232 0.0
H188 H 0.78903 0.46758 0.93592 0.0
H189 H 0.74711 0.45462 0.91787 0.0
H190 H 0.45792 0.23088 0.90694 0.0
C191 C 0.46164 0.21708 0.91666 0.0
C192 C 0.44632 0.19046 0.90841 0.0
C193 C 0.48252 0.22599 0.93598 0.0
H194 H 0.44032 0.15212 0.91259 0.0
C195 C 0.45163 0.17254 0.91995 0.0
C196 C 0.4727 0.18115 0.93892 0.0
C197 C 0.48779 0.20788 0.94714 0.0
C198 C 0.50041 0.25418 0.94159 0.0
H199 H 0.50417 0.21469 0.96164 0.0
C200 C 0.49314 0.27219 0.94958 0.0
C201 C 0.51031 0.29906 0.95362 0.0
C202 C 0.525 0.26323 0.93774 0.0
H203 H 0.53102 0.24986 0.93125 0.0
C204 C 0.54195 0.28964 0.94129 0.0
H205 H 0.47426 0.26513 0.9531 0.0
C206 C 0.53472 0.30743 0.94892 0.0
H207 H 0.54833 0.32781 0.95067 0.0
H208 H 0.56077 0.29642 0.93777 0.0
H209 H 0.78448 0.21169 0.90038 0.0
C210 C 0.79896 0.22858 0.91337 0.0
C211 C 0.82343 0.23686 0.90955 0.0
C212 C 0.79309 0.24255 0.93312 0.0
H213 H 0.86093 0.26489 0.92364 0.0
C214 C 0.84213 0.25887 0.92645 0.0
C215 C 0.83663 0.27346 0.94613 0.0
C216 C 0.8119 0.26508 0.94899 0.0
C217 C 0.76729 0.23495 0.93556 0.0
H218 H 0.80704 0.27633 0.96314 0.0
C219 C 0.75051 0.21063 0.94417 0.0
C220 C 0.7261 0.20398 0.94701 0.0
C221 C 0.7595 0.25246 0.92946 0.0
H222 H 0.77209 0.27121 0.92274 0.0
C223 C 0.73535 0.24581 0.93156 0.0
H224 H 0.7567 0.19737 0.94945 0.0
C225 C 0.71876 0.22181 0.94017 0.0
H226 H 0.70008 0.21718 0.94121 0.0
H227 H 0.72944 0.25933 0.92646 0.0
H228 H 0.54747 0.78773 0.12475 0.0
C229 C 0.54893 0.77198 0.11453 0.0
C230 C 0.56395 0.76393 0.12838 0.0
C231 C 0.53536 0.75948 0.08786 0.0
H232 H 0.57607 0.73588 0.12516 0.0
C233 C 0.56441 0.74233 0.11554 0.0
C234 C 0.5503 0.72907 0.08971 0.0
C235 C 0.53635 0.73799 0.07569 0.0
C236 C 0.52024 0.76872 0.07254 0.0
H237 H 0.52657 0.72819 0.05501 0.0
C238 C 0.5272 0.79525 0.0747 0.0
C239 C 0.51333 0.80368 0.05911 0.0
C240 C 0.49876 0.75094 0.05505 0.0
H241 H 0.49213 0.73036 0.05355 0.0
C242 C 0.48525 0.75939 0.03934 0.0
H243 H 0.54357 0.80949 0.08791 0.0
C244 C 0.49254 0.78559 0.04116 0.0
H245 H 0.48156 0.79168 0.02913 0.0
H246 H 0.46889 0.74549 0.02588 0.0
H247 H 0.20164 0.78873 0.08643 0.0
C248 C 0.22064 0.79963 0.0825 0.0
C249 C 0.23832 0.81709 0.10445 0.0
C250 C 0.22696 0.79603 0.0553 0.0
H251 H 0.27666 0.84522 0.11504 0.0
C252 C 0.26275 0.83206 0.09829 0.0
C253 C 0.26942 0.82897 0.07082 0.0
C254 C 0.25129 0.81103 0.0495 0.0
C255 C 0.20813 0.77602 0.03329 0.0
H256 H 0.25619 0.80837 0.02838 0.0
C257 C 0.19169 0.75099 0.04056 0.0
C258 C 0.17389 0.73183 0.01982 0.0
C259 C 0.20652 0.78175 0.00496 0.0
H260 H 0.21879 0.80084 0.99881 0.0
C261 C 0.1888 0.76298 0.98438 0.0
H262 H 0.19288 0.74641 0.06237 0.0
C263 C 0.17261 0.73821 0.99167 0.0
H264 H 0.15942 0.72391 0.97507 0.0
H265 H 0.18769 0.76759 0.9626 0.0
H266 H 0.25379 0.45923 0.14939 0.0
C267 C 0.23983 0.46161 0.13805 0.0
C268 C 0.21552 0.44781 0.14481 0.0
C269 C 0.24661 0.47964 0.11781 0.0
H270 H 0.17956 0.44261 0.13674 0.0
C271 C 0.1981 0.45269 0.1311 0.0
C272 C 0.20459 0.47068 0.11048 0.0
C273 C 0.22891 0.48351 0.10366 0.0
C274 C 0.27257 0.49666 0.11348 0.0
H275 H 0.23448 0.49691 0.0874 0.0
C276 C 0.28662 0.48664 0.10248 0.0
C277 C 0.31114 0.50348 0.09766 0.0
C278 C 0.28321 0.5235 0.12007 0.0
H279 H 0.27269 0.53157 0.12861 0.0
C280 C 0.30752 0.54015 0.11603 0.0
H281 H 0.27823 0.46595 0.09688 0.0
C282 C 0.32142 0.53029 0.10496 0.0
H283 H 0.34034 0.54373 0.10237 0.0
H284 H 0.31565 0.5608 0.12147 0.0
H285 H 0.45849 0.89283 0.2134 0.0
C286 C 0.4446 0.89182 0.22643 0.0
C287 C 0.43386 0.90704 0.2216 0.0
C288 C 0.43661 0.8741 0.24693 0.0
H289 H 0.40575 0.91475 0.2329 0.0
C290 C 0.41435 0.90357 0.23734 0.0
C291 C 0.40589 0.88569 0.2582 0.0
C292 C 0.41802 0.87175 0.26324 0.0
C293 C 0.44563 0.85577 0.24917 0.0
H294 H 0.41317 0.85861 0.27967 0.0
C295 C 0.46984 0.86421 0.25973 0.0
C296 C 0.47786 0.84622 0.2621 0.0
C297 C 0.42955 0.82937 0.24069 0.0
H298 H 0.41084 0.82256 0.23249 0.0
C299 C 0.43748 0.81159 0.24252 0.0
H300 H 0.48224 0.8846 0.26634 0.0
C301 C 0.46142 0.81988 0.25319 0.0
H302 H 0.46686 0.80552 0.25515 0.0
H303 H 0.42495 0.79126 0.23593 0.0
H304 H 0.12052 0.57234 0.25669 0.0
C305 C 0.12141 0.55735 0.26751 0.0
C306 C 0.1113 0.53219 0.25305 0.0
C307 C 0.13376 0.56356 0.29532 0.0
H308 H 0.10794 0.49447 0.25579 0.0
C309 C 0.1148 0.51363 0.26654 0.0
C310 C 0.12794 0.51983 0.29362 0.0
C311 C 0.13567 0.54404 0.30844 0.0
C312 C 0.14634 0.59055 0.31032 0.0
H313 H 0.14411 0.54786 0.33021 0.0
C314 C 0.13779 0.60798 0.30612 0.0
C315 C 0.14982 0.63292 0.32135 0.0
C316 C 0.16766 0.59922 0.32919 0.0
H317 H 0.17592 0.58739 0.33195 0.0
C318 C 0.17914 0.62355 0.34462 0.0
H319 H 0.12181 0.60229 0.29139 0.0
C320 C 0.17022 0.64023 0.34093 0.0
H321 H 0.17996 0.65938 0.35254 0.0
H322 H 0.19533 0.6297 0.35913 0.0
H323 H 0.4423 0.5554 0.24206 0.0
C324 C 0.45931 0.57151 0.2522 0.0
C325 C 0.48129 0.57811 0.24033 0.0
C326 C 0.45903 0.586 0.27673 0.0
H327 H 0.52008 0.60535 0.24438 0.0
C328 C 0.50313 0.59926 0.25378 0.0
C329 C 0.50331 0.61353 0.27866 0.0
C330 C 0.48122 0.60683 0.28995 0.0
C331 C 0.43559 0.58026 0.28795 0.0
H332 H 0.48139 0.61774 0.30928 0.0
C333 C 0.41656 0.55455 0.28912 0.0
C334 C 0.39453 0.5495 0.2999 0.0
C335 C 0.43209 0.60078 0.29739 0.0
H336 H 0.44607 0.62073 0.29621 0.0
C337 C 0.41034 0.59587 0.30798 0.0
H338 H 0.41907 0.53853 0.28231 0.0
C339 C 0.39169 0.57047 0.30928 0.0
H340 H 0.37484 0.56725 0.3172 0.0
H341 H 0.40785 0.61184 0.31504 0.0
Tb342 Tb 0.53727 0.02234 0.02124 0.0
C343 C 0.51607 0.96515 0.03296 0.0
Tb344 Tb 0.4807 0.98629 0.01455 0.0
O345 O 0.53861 0.02053 0.06803 0.0
O346 O 0.5077 0.01576 0.04477 0.0
O347 O 0.53472 0.98491 0.02299 0.0
C348 C 0.43495 0.95011 0.02187 0.0
O349 O 0.49494 0.96408 0.03564 0.0
C350 C 0.50064 0.99483 0.96588 0.0
C351 C 0.50224 0.04342 1.00004 0.0
O352 O 0.44959 0.94695 0.00625 0.0
O353 O 0.44587 0.97407 0.03305 0.0
O354 O 0.47778 0.987 0.9681 0.0
O355 O 0.51011 0.994 0.98998 0.0
O356 O 0.48266 0.0233 0.00863 0.0
O357 O 0.52374 0.04476 1.00009 0.0
C358 C 0.58382 0.05571 0.01309 0.0
O359 O 0.56881 0.0618 0.02381 0.0
O360 O 0.57277 0.03072 0.00757 0.0
C361 C 0.51605 0.01451 0.06915 0.0
Tb362 Tb 0.99136 0.50934 0.02288 0.0
C363 C 0.04631 0.5504 0.02914 0.0
Tb364 Tb 0.02798 0.49046 0.01733 0.0
O365 O 1.00238 0.52089 0.06915 0.0
O366 O 1.0057 0.49125 0.04854 0.0
O367 O 0.02451 0.54586 0.01882 0.0
C368 C 0.06681 0.48453 0.02516 0.0
O369 O 0.05019 0.53123 0.03482 0.0
C370 C 1.0076 0.49377 0.96909 0.0
C371 C 0.97249 0.44821 0.01381 0.0
O372 O 0.06494 0.50038 0.00899 0.0
O373 O 0.04649 0.47139 0.03642 0.0
O374 O 0.01525 0.47752 0.97201 0.0
O375 O 0.0138 0.50881 0.99173 0.0
O376 O 0.99517 0.45249 0.01593 0.0
O377 O 0.96714 0.46705 0.01573 0.0
C378 C 0.95504 0.51827 0.00896 0.0
O379 O 0.9692 0.5269 0.03287 0.0
O380 O 0.96137 0.50467 0.99298 0.0
C381 C 0.01096 0.50538 0.07177 0.0
Tb382 Tb 0.488 0.49843 0.01306 0.0
C383 C 0.50474 0.45676 0.00819 0.0
Tb384 Tb 0.54373 0.51721 0.02134 0.0
O385 O 0.48663 0.48916 0.96651 0.0
O386 O 0.51864 0.51737 0.99012 0.0
O387 O 0.48628 0.46104 0.01043 0.0
C388 C 0.58874 0.52949 0.00975 0.0
O389 O 0.528 0.47553 0.01105 0.0
C390 C 0.52328 0.51263 0.06933 0.0
C391 C 0.52722 0.55814 0.02631 0.0
O392 O 0.56863 0.51075 0.99632 0.0
O393 O 0.5835 0.54106 0.02998 0.0
O394 O 0.54672 0.52569 0.06806 0.0
O395 O 0.51342 0.49986 0.04528 0.0
O396 O 0.54375 0.55314 0.01646 0.0
O397 O 0.50505 0.5393 0.03066 0.0
C398 C 0.44214 0.48552 0.02131 0.0
O399 O 0.45717 0.50524 0.00854 0.0
O400 O 0.45286 0.47295 0.02905 0.0
C401 C 0.50996 0.50456 0.9661 0.0
Tb402 Tb 0.19939 0.36137 0.35027 0.0
C403 C 0.17851 0.30219 0.35306 0.0
Tb404 Tb 0.14379 0.32678 0.35506 0.0
O405 O 0.20797 0.35351 0.39287 0.0
O406 O 0.1753 0.3526 0.3827 0.0
O407 O 0.19603 0.32361 0.34385 0.0
C408 C 0.10067 0.29824 0.37507 0.0
O409 O 0.1579 0.30018 0.36116 0.0
C410 C 0.15632 0.33853 0.30344 0.0
C411 C 0.16495 0.38597 0.34862 0.0
O412 O 0.10848 0.2907 0.35366 0.0
O413 O 0.11708 0.32166 0.38508 0.0
O414 O 0.135 0.33271 0.31111 0.0
O415 O 0.16787 0.33473 0.32329 0.0
O416 O 0.14633 0.36454 0.3563 0.0
O417 O 0.18607 0.38801 0.34341 0.0
C418 C 0.24329 0.39398 0.33436 0.0
O419 O 0.23552 0.3961 0.35877 0.0
O420 O 0.22639 0.37331 0.31895 0.0
C421 C 0.18697 0.34773 0.40157 0.0
Tb422 Tb 0.66361 0.84356 0.35256 0.0
C423 C 0.7187 0.88652 0.35713 0.0
Tb424 Tb 0.7019 0.82658 0.34935 0.0
O425 O 0.67394 0.85535 0.39888 0.0
O426 O 0.67793 0.82597 0.37887 0.0
O427 O 0.6961 0.88072 0.34858 0.0
C428 C 0.73809 0.81651 0.35861 0.0
O429 O 0.72442 0.8684 0.36158 0.0
C430 C 0.68082 0.82773 0.30034 0.0
C431 C 0.64671 0.78305 0.34471 0.0
O432 O 0.72486 0.81786 0.37786 0.0
O433 O 0.73111 0.8211 0.33424 0.0
O434 O 0.68869 0.81183 0.30449 0.0
O435 O 0.68686 0.84339 0.32247 0.0
O436 O 0.66967 0.78878 0.35059 0.0
O437 O 0.64043 0.80116 0.34345 0.0
C438 C 0.62707 0.85205 0.33852 0.0
O439 O 0.63415 0.83941 0.32218 0.0
O440 O 0.64047 0.8598 0.36293 0.0
C441 C 0.68262 0.84001 0.40196 0.0
Tb442 Tb 0.16275 0.85172 0.32999 0.0
C443 C 0.17198 0.80428 0.33177 0.0
Tb444 Tb 0.2151 0.8625 0.34333 0.0
O445 O 0.16918 0.86088 0.28571 0.0
O446 O 0.1884 0.847 0.30762 0.0
O447 O 0.15593 0.81218 0.33372 0.0
C448 C 0.26055 0.87237 0.3386 0.0
O449 O 0.19558 0.82073 0.33074 0.0
C450 C 0.19115 0.85943 0.38849 0.0
C451 C 0.206 0.91012 0.34041 0.0
O452 O 0.24632 0.85849 0.35705 0.0
O453 O 0.2494 0.88135 0.32315 0.0
O454 O 0.20949 0.85552 0.38885 0.0
O455 O 0.18965 0.86768 0.36503 0.0
O456 O 0.22197 0.90193 0.33885 0.0
O457 O 0.18216 0.89376 0.34078 0.0
C458 C 0.11634 0.83742 0.33603 0.0
O459 O 0.12795 0.84839 0.3144 0.0
O460 O 0.13073 0.8343 0.35389 0.0
C461 C 0.18738 0.85677 0.28495 0.0
Tb462 Tb 0.8773 0.70112 0.69942 0.0
C463 C 0.86014 0.64051 0.69063 0.0
Tb464 Tb 0.82168 0.65938 0.68792 0.0
O465 O 0.8726 0.70779 0.74447 0.0
O466 O 0.85036 0.67187 0.72093 0.0
O467 O 0.87834 0.66498 0.69107 0.0
C468 C 0.77699 0.63112 0.70416 0.0
O469 O 0.83703 0.6343 0.69185 0.0
C470 C 0.84392 0.67788 0.64179 0.0
C471 C 0.83852 0.71991 0.69255 0.0
O472 O 0.78411 0.62605 0.68039 0.0
O473 O 0.79479 0.65213 0.71796 0.0
O474 O 0.82309 0.65618 0.64068 0.0
O475 O 0.84854 0.68818 0.66704 0.0
O476 O 0.82053 0.69555 0.69339 0.0
O477 O 0.86181 0.72622 0.69236 0.0
C478 C 0.92448 0.73228 0.69291 0.0
O479 O 0.91483 0.72963 0.71702 0.0
O480 O 0.90767 0.71718 0.67266 0.0
C481 C 0.85354 0.68484 0.74441 0.0
Tb482 Tb 0.32764 0.18505 0.69108 0.0
C483 C 0.38488 0.22592 0.69509 0.0
Tb484 Tb 0.36424 0.16539 0.68296 0.0
O485 O 0.32216 0.17202 0.73416 0.0
O486 O 0.35472 0.18261 0.71655 0.0
O487 O 0.36228 0.22201 0.69278 0.0
C488 C 0.39175 0.14497 0.69732 0.0
O489 O 0.38961 0.20666 0.69468 0.0
C490 C 0.34656 0.17411 0.63507 0.0
C491 C 0.30709 0.12483 0.67574 0.0
O492 O 0.39721 0.16273 0.67986 0.0
O493 O 0.37064 0.13836 0.70608 0.0
O494 O 0.36586 0.17169 0.6367 0.0
O495 O 0.33744 0.16796 0.65823 0.0
O496 O 0.32939 0.12851 0.68183 0.0
O497 O 0.30302 0.14451 0.67397 0.0
C498 C 0.29977 0.20622 0.6828 0.0
O499 O 0.29734 0.19045 0.70188 0.0
O500 O 0.31812 0.21035 0.66868 0.0
C501 C 0.3428 0.17245 0.73717 0.0
Tb502 Tb 0.82064 0.16945 0.6804 0.0
C503 C 0.83493 0.12536 0.67685 0.0
Tb504 Tb 0.87469 0.18499 0.67856 0.0
O505 O 0.81812 0.17923 0.63659 0.0
O506 O 0.8429 0.16819 0.64937 0.0
O507 O 0.81737 0.13111 0.67908 0.0
C508 C 0.91619 0.19492 0.65724 0.0
O509 O 0.85815 0.14309 0.67562 0.0
C510 C 0.85872 0.1777 0.72958 0.0
C511 C 0.86107 0.22883 0.6868 0.0
O512 O 0.91493 0.20462 0.6822 0.0
O513 O 0.89437 0.18052 0.64448 0.0
O514 O 0.8771 0.17534 0.72266 0.0
O515 O 0.8525 0.18659 0.70925 0.0
O516 O 0.87685 0.2228 0.67641 0.0
O517 O 0.83949 0.21089 0.69385 0.0
C518 C 0.77635 0.15469 0.69671 0.0
O519 O 0.79264 0.15097 0.71003 0.0
O520 O 0.78493 0.16637 0.67413 0.0
C521 C 0.83684 0.17774 0.62954 0.0
H522 H 0.3041 0.88103 0.08421 0.0
H523 H 0.29345 0.80902 0.04249 0.0
H524 H 0.33458 0.83234 0.02668 0.0
H525 H 0.33658 0.92144 0.03191 0.0
H526 H 0.35797 0.94878 0.05665 0.0
H527 H 0.32817 0.92653 0.06668 0.0
H528 H 0.34778 0.91855 0.11194 0.0
H529 H 0.37767 0.94099 0.10218 0.0
H530 H 0.36988 0.90842 0.10818 0.0
H531 H 0.37499 0.86302 0.01217 0.0
H532 H 0.41442 0.89954 1.0024 0.0
H533 H 0.40101 0.95255 0.05444 0.0
C534 C 0.31063 0.87016 0.07219 0.0
C535 C 0.29534 0.8432 0.06424 0.0
C536 C 0.30455 0.82971 0.04834 0.0
C537 C 0.32798 0.84276 0.03939 0.0
C538 C 0.34227 0.86935 0.04677 0.0
C539 C 0.33421 0.88295 0.06313 0.0
C540 C 0.35338 0.91164 0.06744 0.0
C541 C 0.34342 0.92806 0.05492 0.0
C542 C 0.36273 0.92041 0.09933 0.0
C543 C 0.37307 0.91199 0.0503 0.0
C544 C 0.36617 0.88728 0.0387 0.0
C545 C 0.38073 0.88244 0.02135 0.0
C546 C 0.40307 0.90335 0.01582 0.0
C547 C 0.41077 0.92886 0.02761 0.0
C548 C 0.39556 0.93323 0.04514 0.0
H549 H 0.15402 0.43916 0.09879 0.0
H550 H 0.21369 0.51722 0.09176 0.0
H551 H 0.18533 0.52711 0.06609 0.0
H552 H 0.11854 0.42921 0.03269 0.0
H553 H 0.08957 0.41383 0.04741 0.0
H554 H 0.11469 0.4115 0.06359 0.0
H555 H 0.11087 0.43063 0.11264 0.0
H556 H 0.08555 0.43271 0.09669 0.0
H557 H 0.11166 0.46118 0.11515 0.0
H558 H 0.15137 0.52855 0.03933 0.0
H559 H 0.11231 0.52389 0.02025 0.0
H560 H 0.07329 0.44773 0.05043 0.0
C561 C 0.16127 0.45845 0.0922 0.0
C562 C 0.18659 0.47696 0.09661 0.0
C563 C 0.19481 0.50201 0.08753 0.0
C564 C 0.17874 0.50805 0.07313 0.0
C565 C 0.15419 0.48923 0.06864 0.0
C566 C 0.1453 0.4652 0.07856 0.0
C567 C 0.11769 0.44932 0.07276 0.0
C568 C 0.10966 0.4245 0.05293 0.0
C569 C 0.10574 0.4431 0.10099 0.0
C570 C 0.11264 0.46816 0.05775 0.0
C571 C 0.13408 0.49087 0.0552 0.0
C572 C 0.13441 0.51098 0.04143 0.0
C573 C 0.11216 0.50808 0.03051 0.0
C574 C 0.08988 0.48549 0.03393 0.0
C575 C 0.09012 0.4652 0.04759 0.0
H576 H 0.51996 0.67851 0.09843 0.0
H577 H 0.58107 0.72813 0.05259 0.0
H578 H 0.58157 0.68964 0.031 0.0
H579 H 0.53982 0.63296 0.11389 0.0
H580 H 0.50948 0.6051 0.10912 0.0
H581 H 0.51405 0.63648 0.12101 0.0
H582 H 0.48388 0.63212 0.07859 0.0
H583 H 0.47927 0.60075 0.06656 0.0
H584 H 0.48907 0.62569 0.04247 0.0
H585 H 0.57577 0.64605 0.01515 0.0
H586 H 0.56384 0.60016 0.00516 0.0
H587 H 0.50567 0.57824 0.06054 0.0
C588 C 0.53339 0.6811 0.08382 0.0
C589 C 0.55052 0.70607 0.077 0.0
C590 C 0.56789 0.70904 0.05792 0.0
C591 C 0.56827 0.68734 0.04564 0.0
C592 C 0.55113 0.66288 0.05272 0.0
C593 C 0.53399 0.65961 0.07136 0.0
C594 C 0.51763 0.63118 0.07533 0.0
C595 C 0.52042 0.62614 0.1067 0.0
C596 C 0.49088 0.62189 0.06512 0.0
C597 C 0.52811 0.61898 0.05583 0.0
C598 C 0.54752 0.63766 0.04318 0.0
C599 C 0.56055 0.63126 0.02485 0.0
C600 C 0.55364 0.60511 0.01935 0.0
C601 C 0.53373 0.58557 0.03192 0.0
C602 C 0.52077 0.59269 0.05032 0.0
H603 H 0.88171 0.30939 0.92974 0.0
H604 H 0.83683 0.29352 1.00064 0.0
H605 H 0.86723 0.33573 0.02598 0.0
H606 H 0.94046 0.34154 0.97603 0.0
H607 H 0.95595 0.36423 0.95045 0.0
H608 H 0.93092 0.33227 0.93823 0.0
H609 H 0.90925 0.35259 0.91118 0.0
H610 H 0.93372 0.38464 0.92381 0.0
H611 H 0.90284 0.37498 0.93059 0.0
H612 H 0.90038 0.38152 0.04154 0.0
H613 H 0.93624 0.42594 0.04835 0.0
H614 H 0.96197 0.41046 0.97039 0.0
C615 C 0.8784 0.31432 0.95089 0.0
C616 C 0.85641 0.29795 0.96277 0.0
C617 C 0.853 0.30579 0.99043 0.0
C618 C 0.87035 0.32971 0.00524 0.0
C619 C 0.89144 0.34548 0.99259 0.0
C620 C 0.89581 0.33789 0.96633 0.0
C621 C 0.91998 0.35859 0.95746 0.0
C622 C 0.93789 0.34855 0.95543 0.0
C623 C 0.91621 0.36828 0.92908 0.0
C624 C 0.92817 0.37933 0.98246 0.0
C625 C 0.91134 0.37135 1.00244 0.0
C626 C 0.91394 0.38776 0.02638 0.0
C627 C 0.93428 0.41292 0.03006 0.0
C628 C 0.95197 0.42126 0.01024 0.0
C629 C 0.94896 0.4042 0.98623 0.0
H630 H 0.68987 0.52111 0.9234 0.0
H631 H 0.74295 0.59511 0.96933 0.0
H632 H 0.71048 0.59542 0.99567 0.0
H633 H 0.64148 0.53629 0.91507 0.0
H634 H 0.6175 0.50389 0.9191 0.0
H635 H 0.64493 0.509 0.90446 0.0
H636 H 0.65163 0.48371 0.94349 0.0
H637 H 0.6242 0.47846 0.95823 0.0
H638 H 0.65268 0.49366 0.98077 0.0
H639 H 0.67261 0.58715 0.01779 0.0
H640 H 0.6312 0.57241 0.03194 0.0
H641 H 0.60204 0.50492 0.96973 0.0
C642 C 0.69455 0.53727 0.93911 0.0
C643 C 0.71883 0.55803 0.94464 0.0
C644 C 0.72439 0.57907 0.96495 0.0
C645 C 0.70612 0.57937 0.97999 0.0
C646 C 0.68232 0.55863 0.97412 0.0
C647 C 0.6764 0.53811 0.95392 0.0
C648 C 0.64922 0.51876 0.95096 0.0
C649 C 0.6376 0.51688 0.9206 0.0
C650 C 0.64414 0.49207 0.95884 0.0
C651 C 0.64088 0.53141 0.97297 0.0
C652 C 0.6603 0.55432 0.98617 0.0
C653 C 0.65725 0.56931 0.00752 0.0
C654 C 0.6337 0.56076 0.01547 0.0
C655 C 0.61352 0.53757 1.00195 0.0
C656 C 0.61719 0.52273 0.98044 0.0
H657 H 0.4458 0.13316 0.95932 0.0
H658 H 0.51782 0.18756 0.93623 0.0
H659 H 0.53211 0.1577 0.94847 0.0
H660 H 0.4665 0.11213 0.01992 0.0
H661 H 0.44245 0.07874 0.01341 0.0
H662 H 0.43728 0.10402 1.00231 0.0
H663 H 0.4246 0.08171 0.95032 0.0
H664 H 0.42976 0.05638 0.96129 0.0
H665 H 0.44516 0.07457 0.93239 0.0
H666 H 0.53888 0.1229 0.96218 0.0
H667 H 0.53898 0.08531 0.97933 0.0
H668 H 0.46288 0.052 0.99539 0.0
C669 C 0.46455 0.13868 0.95685 0.0
C670 C 0.4808 0.16283 0.94709 0.0
C671 C 0.5052 0.16942 0.94416 0.0
C672 C 0.51344 0.1525 0.95084 0.0
C673 C 0.4971 0.12899 0.9605 0.0
C674 C 0.47322 0.12199 0.9637 0.0
C675 C 0.45983 0.09562 0.97518 0.0
C676 C 0.451 0.09777 0.00445 0.0
C677 C 0.43858 0.07591 0.95349 0.0
C678 C 0.48003 0.08911 0.97802 0.0
C679 C 0.50123 0.10867 0.96911 0.0
C680 C 0.52245 0.10749 0.96936 0.0
C681 C 0.52224 0.08589 0.97927 0.0
C682 C 0.50095 0.06556 0.98909 0.0
C683 C 0.47946 0.06718 0.98822 0.0
H684 H 0.6899 0.19464 0.98201 0.0
H685 H 0.72126 0.1559 0.93475 0.0
H686 H 0.69004 0.11399 0.94958 0.0
H687 H 0.67204 0.15441 0.0409 0.0
H688 H 0.64401 0.15475 0.04292 0.0
H689 H 0.67003 0.18184 0.03057 0.0
H690 H 0.64403 0.17712 0.98359 0.0
H691 H 0.61794 0.1501 0.99582 0.0
H692 H 0.62822 0.14642 0.96184 0.0
H693 H 0.65353 0.07574 0.96734 0.0
H694 H 0.61483 0.04471 0.98582 0.0
H695 H 0.60692 0.10862 0.01991 0.0
C696 C 0.69028 0.1774 0.97465 0.0
C697 C 0.70816 0.17873 0.95711 0.0
C698 C 0.70806 0.15559 0.9485 0.0
C699 C 0.69029 0.13163 0.9567 0.0
C700 C 0.67272 0.13107 0.97357 0.0
C701 C 0.67262 0.15339 0.98243 0.0
C702 C 0.65115 0.14754 0.99929 0.0
C703 C 0.65983 0.1604 0.03026 0.0
C704 C 0.63435 0.15578 0.98422 0.0
C705 C 0.63895 0.11835 0.99829 0.0
C706 C 0.65174 0.10919 0.98355 0.0
C707 C 0.64351 0.08276 0.9791 0.0
C708 C 0.62155 0.06528 0.98971 0.0
C709 C 0.60803 0.0743 0.00447 0.0
C710 C 0.61703 0.1012 0.00899 0.0
H711 H 0.83116 0.48928 0.92198 0.0
H712 H 0.82968 0.54527 0.98348 0.0
H713 H 0.86972 0.55549 0.00679 0.0
H714 H 0.85665 0.46434 0.97034 0.0
H715 H 0.8754 0.46042 0.94551 0.0
H716 H 0.84756 0.45894 0.93233 0.0
H717 H 0.87155 0.49547 0.90015 0.0
H718 H 0.89945 0.49697 0.9132 0.0
H719 H 0.89713 0.52576 0.91611 0.0
H720 H 0.90824 0.55684 0.02596 0.0
H721 H 0.94338 0.55082 0.03786 0.0
H722 H 0.92021 0.49472 0.9633 0.0
C723 C 0.83936 0.50385 0.94022 0.0
C724 C 0.82729 0.51652 0.95088 0.0
C725 C 0.83871 0.53557 0.97469 0.0
C726 C 0.8614 0.5414 0.98817 0.0
C727 C 0.87258 0.52823 0.97742 0.0
C728 C 0.86207 0.51004 0.95378 0.0
C729 C 0.87757 0.49814 0.94694 0.0
C730 C 0.86345 0.46872 0.94891 0.0
C731 C 0.88698 0.50447 0.91734 0.0
C732 C 0.89815 0.51204 0.9708 0.0
C733 C 0.89497 0.52935 0.98813 0.0
C734 C 0.91107 0.54358 0.01233 0.0
C735 C 0.93092 0.54 0.01897 0.0
C736 C 0.93452 0.52245 1.00142 0.0
C737 C 0.918 0.50846 0.97694 0.0
H738 H 0.53778 0.34555 0.98737 0.0
H739 H 0.46667 0.2974 0.93934 0.0
H740 H 0.45613 0.33095 0.95171 0.0
H741 H 0.51999 0.37512 0.04313 0.0
H742 H 0.54716 0.40637 0.0436 0.0
H743 H 0.54799 0.37733 0.03379 0.0
H744 H 0.56436 0.39457 0.98569 0.0
H745 H 0.56364 0.42366 0.99539 0.0
H746 H 0.54754 0.40418 0.96219 0.0
H747 H 0.45416 0.37119 0.96766 0.0
H748 H 0.46188 0.41504 0.98316 0.0
H749 H 0.53546 0.43762 0.01696 0.0
C750 C 0.51998 0.3419 0.97923 0.0
C751 C 0.50311 0.31856 0.9623 0.0
C752 C 0.47985 0.31474 0.95277 0.0
C753 C 0.47372 0.33381 0.95955 0.0
C754 C 0.49104 0.35674 0.97573 0.0
C755 C 0.51375 0.36086 0.98528 0.0
C756 C 0.5298 0.3878 1.00056 0.0
C757 C 0.53663 0.38657 0.03214 0.0
C758 C 0.55268 0.40347 0.98502 0.0
C759 C 0.51269 0.39838 0.99785 0.0
C760 C 0.49028 0.38008 0.98388 0.0
C761 C 0.47164 0.38561 0.97869 0.0
C762 C 0.47616 0.41055 0.98767 0.0
C763 C 0.49927 0.42979 1.00128 0.0
C764 C 0.51761 0.4234 0.00659 0.0
H765 H 0.12493 0.69977 1.00198 0.0
H766 H 0.18526 0.70287 0.0538 0.0
H767 H 0.15843 0.65778 0.06414 0.0
H768 H 0.077 0.6591 0.04578 0.0
H769 H 0.05504 0.64126 0.01523 0.0
H770 H 0.07853 0.67438 0.01341 0.0
H771 H 0.09233 0.66032 0.96833 0.0
H772 H 0.0689 0.62719 0.97001 0.0
H773 H 0.10029 0.63543 0.96991 0.0
H774 H 0.12596 0.61152 0.06627 0.0
H775 H 0.08995 0.56754 0.06071 0.0
H776 H 0.0504 0.5941 0.0075 0.0
C777 C 0.13251 0.69101 0.01557 0.0
C778 C 0.15726 0.70502 0.02718 0.0
C779 C 0.16632 0.6928 0.04504 0.0
C780 C 0.15124 0.66711 0.05092 0.0
C781 C 0.12705 0.65384 0.03891 0.0
C782 C 0.11769 0.66538 0.02171 0.0
C783 C 0.09124 0.64652 0.01075 0.0
C784 C 0.07446 0.65588 0.02197 0.0
C785 C 0.08801 0.64211 0.9778 0.0
C786 C 0.08733 0.62244 0.02406 0.0
C787 C 0.10822 0.62714 0.0403 0.0
C788 C 0.10944 0.60768 0.0538 0.0
C789 C 0.08887 0.58271 0.05043 0.0
C790 C 0.06727 0.57733 0.03374 0.0
C791 C 0.0665 0.59762 0.02067 0.0
H792 H 0.34457 0.52542 0.05868 0.0
H793 H 0.31226 0.45935 0.10841 0.0
H794 H 0.33973 0.44506 0.09017 0.0
H795 H 0.35591 0.49392 0.99719 0.0
H796 H 0.38464 0.52237 0.99305 0.0
H797 H 0.36058 0.52566 0.00742 0.0
H798 H 0.38973 0.55294 0.05262 0.0
H799 H 0.41384 0.54976 0.03839 0.0
H800 H 0.40497 0.53977 0.07329 0.0
H801 H 0.3734 0.44032 0.06997 0.0
H802 H 0.41049 0.44563 0.04978 0.0
H803 H 0.42122 0.51538 0.0143 0.0
C804 C 0.34314 0.50787 0.06571 0.0
C805 C 0.32621 0.49354 0.08507 0.0
C806 C 0.3248 0.4705 0.09333 0.0
C807 C 0.34042 0.46228 0.08316 0.0
C808 C 0.35725 0.47724 0.06463 0.0
C809 C 0.35863 0.49952 0.05594 0.0
C810 C 0.3793 0.51309 0.0374 0.0
C811 C 0.36951 0.51379 0.00696 0.0
C812 C 0.39806 0.5405 0.05126 0.0
C813 C 0.38972 0.49528 0.03749 0.0
C814 C 0.37661 0.47456 0.05308 0.0
C815 C 0.38358 0.45626 0.05742 0.0
C816 C 0.40465 0.45943 0.04587 0.0
C817 C 0.41852 0.48076 0.03028 0.0
C818 C 0.41072 0.49866 0.02573 0.0
H819 H 0.52454 0.837 0.01758 0.0
H820 H 0.51426 0.83112 0.10779 0.0
H821 H 0.51698 0.87391 0.11187 0.0
H822 H 0.56831 0.90882 0.02545 0.0
H823 H 0.55622 0.91272 0.99164 0.0
H824 H 0.55598 0.88301 0.9967 0.0
H825 H 0.50938 0.85707 0.98216 0.0
H826 H 0.5094 0.88664 0.97737 0.0
H827 H 0.48976 0.86478 1.0014 0.0
H828 H 0.51376 0.91321 0.10396 0.0
H829 H 0.51057 0.94968 0.08626 0.0
H830 H 0.52713 0.93271 1.00244 0.0
C831 C 0.52357 0.84516 0.03832 0.0
C832 C 0.51936 0.83102 0.06247 0.0
C833 C 0.51782 0.84193 0.08922 0.0
C834 C 0.51924 0.86612 0.09166 0.0
C835 C 0.52275 0.87933 0.06727 0.0
C836 C 0.52552 0.86955 0.04126 0.0
C837 C 0.52837 0.88727 0.01815 0.0
C838 C 0.55373 0.89863 0.00735 0.0
C839 C 0.50801 0.87308 0.99332 0.0
C840 C 0.52575 0.90798 0.03492 0.0
C841 C 0.52242 0.90296 0.0632 0.0
C842 C 0.51708 0.9178 0.08213 0.0
C843 C 0.51523 0.93836 0.07195 0.0
C844 C 0.51918 0.94418 0.04334 0.0
C845 C 0.52473 0.92899 0.02466 0.0
H846 H 0.97834 0.17359 0.40901 0.0
H847 H 0.94967 0.22473 0.42744 0.0
H848 H 0.98902 0.26204 0.41915 0.0
H849 H 0.03999 0.21585 0.43784 0.0
H850 H 0.05278 0.20663 0.40936 0.0
H851 H 0.02294 0.18388 0.41887 0.0
H852 H 1.00469 0.17828 0.36637 0.0
H853 H 0.0345 0.20087 0.35667 0.0
H854 H 0.00948 0.20646 0.34939 0.0
H855 H 0.03236 0.29427 0.41095 0.0
H856 H 0.07423 0.3182 0.39645 0.0
H857 H 0.07233 0.24567 0.37625 0.0
C858 C 0.97991 0.19245 0.41089 0.0
C859 C 0.96056 0.19584 0.41939 0.0
C860 C 0.96414 0.22129 0.42195 0.0
C861 C 0.98647 0.24274 0.41702 0.0
C862 C 1.00501 0.23855 0.40887 0.0
C863 C 1.00179 0.21398 0.40522 0.0
C864 C 0.02411 0.21458 0.39462 0.0
C865 C 0.03563 0.20465 0.41648 0.0
C866 C 0.01781 0.19914 0.365 0.0
C867 C 0.04039 0.24336 0.39282 0.0
C868 C 0.02923 0.2569 0.40179 0.0
C869 C 0.04112 0.28384 0.40347 0.0
C870 C 0.06488 0.29725 0.39529 0.0
C871 C 0.0762 0.28368 0.38488 0.0
C872 C 0.06383 0.25641 0.3837 0.0
H873 H 0.83048 0.78752 0.4493 0.0
H874 H 0.85682 0.77834 0.36878 0.0
H875 H 0.82601 0.78511 0.3426 0.0
H876 H 0.76532 0.75534 0.4219 0.0
H877 H 0.76016 0.77749 0.44387 0.0
H878 H 0.78307 0.76997 0.45605 0.0
H879 H 0.81538 0.81891 0.46218 0.0
H880 H 0.79262 0.82649 0.44972 0.0
H881 H 0.82005 0.83765 0.43205 0.0
H882 H 0.79465 0.79608 0.32545 0.0
H883 H 0.76302 0.80819 0.31818 0.0
H884 H 0.75628 0.80948 0.40958 0.0
C885 C 0.82934 0.78627 0.42611 0.0
C886 C 0.84603 0.78233 0.41105 0.0
C887 C 0.84432 0.78146 0.38074 0.0
C888 C 0.82685 0.78522 0.36569 0.0
C889 C 0.81111 0.78971 0.38121 0.0
C890 C 0.81198 0.78999 0.41072 0.0
C891 C 0.79351 0.7962 0.42226 0.0
C892 C 0.77438 0.77338 0.43688 0.0
C893 C 0.80615 0.8213 0.44276 0.0
C894 C 0.7824 0.79973 0.39467 0.0
C895 C 0.79281 0.79587 0.37126 0.0
C896 C 0.78618 0.7989 0.34357 0.0
C897 C 0.76829 0.80587 0.33966 0.0
C898 C 0.75722 0.80968 0.36328 0.0
C899 C 0.76438 0.80655 0.39112 0.0
H900 H 0.1962 0.03338 0.3921 0.0
H901 H 0.27523 0.07855 0.40065 0.0
H902 H 0.27659 0.04024 0.3805 0.0
H903 H 0.19157 0.9753 0.41287 0.0
H904 H 0.1651 0.95429 0.38818 0.0
H905 H 0.1705 0.98565 0.40162 0.0
H906 H 0.16871 0.99726 0.34955 0.0
H907 H 0.16337 0.96592 0.33595 0.0
H908 H 0.18857 0.99488 0.32524 0.0
H909 H 0.26912 0.99629 0.3607 0.0
H910 H 0.25364 0.95012 0.34533 0.0
H911 H 0.17946 0.93401 0.35005 0.0
C912 C 0.21379 0.03535 0.3893 0.0
C913 C 0.23563 0.05903 0.39772 0.0
C914 C 0.25829 0.06059 0.3944 0.0
C915 C 0.25923 0.03898 0.38282 0.0
C916 C 0.23734 0.01591 0.37476 0.0
C917 C 0.21505 0.01396 0.37797 0.0
C918 C 0.19421 0.98667 0.36904 0.0
C919 C 0.17949 0.97479 0.39444 0.0
C920 C 0.17775 0.98616 0.34342 0.0
C921 C 0.20823 0.97349 0.36049 0.0
C922 C 0.23307 0.99068 0.36371 0.0
C923 C 0.24969 0.9827 0.35796 0.0
C924 C 0.2407 0.9564 0.34918 0.0
C925 C 0.2153 0.93832 0.34637 0.0
C926 C 0.19896 0.94724 0.35172 0.0
H927 H 0.51288 0.66243 0.29714 0.0
H928 H 0.54653 0.61501 0.29037 0.0
H929 H 0.58622 0.65272 0.30971 0.0
H930 H 0.55925 0.71639 0.27393 0.0
H931 H 0.55903 0.74099 0.29779 0.0
H932 H 0.53151 0.71027 0.28832 0.0
H933 H 0.52558 0.70048 0.34047 0.0
H934 H 0.55179 0.73194 0.35164 0.0
H935 H 0.55047 0.70333 0.36383 0.0
H936 H 0.62237 0.69557 0.32734 0.0
H937 H 0.65332 0.74135 0.34053 0.0
H938 H 0.59679 0.76187 0.33461 0.0
C939 C 0.52851 0.65987 0.30038 0.0
C940 C 0.52665 0.63579 0.29235 0.0
C941 C 0.54761 0.63334 0.29624 0.0
C942 C 0.57017 0.65458 0.30738 0.0
C943 C 0.57148 0.67815 0.31461 0.0
C944 C 0.55123 0.68095 0.31142 0.0
C945 C 0.55803 0.70887 0.31901 0.0
C946 C 0.55161 0.71982 0.29325 0.0
C947 C 0.54574 0.71129 0.34531 0.0
C948 C 0.58539 0.72145 0.32611 0.0
C949 C 0.59262 0.70323 0.32397 0.0
C950 C 0.61693 0.71002 0.32926 0.0
C951 C 0.6344 0.73614 0.33679 0.0
C952 C 0.62758 0.75533 0.33873 0.0
C953 C 0.60265 0.74774 0.33345 0.0
H954 H 0.38383 0.91623 0.26531 0.0
H955 H 0.37578 0.84236 0.28576 0.0
H956 H 0.34177 0.83469 0.31253 0.0
H957 H 0.36371 0.93294 0.32826 0.0
H958 H 0.34558 0.94374 0.30918 0.0
H959 H 0.37202 0.94606 0.29441 0.0
H960 H 0.34548 0.9193 0.24752 0.0
H961 H 0.31902 0.91715 0.26203 0.0
H962 H 0.31881 0.88806 0.24939 0.0
H963 H 0.30876 0.83451 0.33817 0.0
H964 H 0.274 0.83802 0.35326 0.0
H965 H 0.29762 0.90707 0.30905 0.0
C966 C 0.37516 0.89827 0.27503 0.0
C967 C 0.38405 0.88066 0.27386 0.0
C968 C 0.37116 0.8574 0.28729 0.0
C969 C 0.35125 0.85246 0.30245 0.0
C970 C 0.34341 0.8703 0.30327 0.0
C971 C 0.35441 0.89232 0.2892 0.0
C972 C 0.34043 0.90673 0.29077 0.0
C973 C 0.3564 0.93398 0.3066 0.0
C974 C 0.33034 0.90787 0.26064 0.0
C975 C 0.32003 0.88937 0.30816 0.0
C976 C 0.32255 0.86881 0.31566 0.0
C977 C 0.30644 0.85038 0.33224 0.0
C978 C 0.28683 0.85262 0.34083 0.0
C979 C 0.28314 0.87275 0.33225 0.0
C980 C 0.30006 0.89149 0.31586 0.0
H981 H 0.10283 0.46595 0.29333 0.0
H982 H 0.17314 0.53507 0.31906 0.0
H983 H 0.18897 0.50833 0.33752 0.0
H984 H 0.10282 0.43041 0.35342 0.0
H985 H 0.0893 0.39953 0.3322 0.0
H986 H 0.08273 0.42396 0.32148 0.0
H987 H 0.09719 0.42114 0.27181 0.0
H988 H 0.10425 0.39698 0.28225 0.0
H989 H 0.12742 0.42626 0.26953 0.0
H990 H 0.1983 0.47505 0.35127 0.0
H991 H 0.20038 0.43613 0.36054 0.0
H992 H 0.12439 0.38748 0.32714 0.0
C993 C 0.12151 0.47542 0.30293 0.0
C994 C 0.13654 0.50277 0.30519 0.0
C995 C 0.16097 0.51431 0.31776 0.0
C996 C 0.17026 0.49926 0.32814 0.0
C997 C 0.15502 0.47255 0.32578 0.0
C998 C 0.13119 0.46059 0.31353 0.0
C999 C 0.11907 0.43133 0.3133 0.0
C1000 C 0.09718 0.42068 0.33117 0.0
C1001 C 0.11155 0.41815 0.28239 0.0
C1002 C 0.13983 0.4289 0.32746 0.0
C1003 C 0.1604 0.45301 0.33424 0.0
C1004 C 0.18227 0.45605 0.34634 0.0
C1005 C 0.18327 0.43384 0.35152 0.0
C1006 C 0.16248 0.40888 0.34496 0.0
C1007 C 0.14039 0.40639 0.33298 0.0
H1008 H 0.36597 0.53012 0.34378 0.0
H1009 H 0.37683 0.50818 0.25862 0.0
H1010 H 0.34054 0.46463 0.25916 0.0
H1011 H 0.3438 0.46695 0.37125 0.0
H1012 H 0.32204 0.47013 0.39144 0.0
H1013 H 0.35 0.49858 0.38511 0.0
H1014 H 0.3252 0.51784 0.36251 0.0
H1015 H 0.29721 0.48944 0.36865 0.0
H1016 H 0.30219 0.49944 0.33301 0.0
H1017 H 0.30067 0.4247 0.26754 0.0
H1018 H 0.26184 0.39143 0.28391 0.0
H1019 H 0.27768 0.43989 0.36353 0.0
C1020 C 0.36084 0.5161 0.3253 0.0
C1021 C 0.37421 0.52256 0.30113 0.0
C1022 C 0.36702 0.50357 0.2775 0.0
C1023 C 0.34637 0.47883 0.27757 0.0
C1024 C 0.33327 0.47333 0.30153 0.0
C1025 C 0.3404 0.49139 0.32507 0.0
C1026 C 0.32278 0.48115 0.34771 0.0
C1027 C 0.33541 0.47907 0.37552 0.0
C1028 C 0.31116 0.49797 0.35328 0.0
C1029 C 0.3043 0.45467 0.33304 0.0
C1030 C 0.31066 0.45041 0.30646 0.0
C1031 C 0.29571 0.42771 0.28847 0.0
C1032 C 0.2737 0.40895 0.29791 0.0
C1033 C 0.26694 0.41306 0.32504 0.0
C1034 C 0.28255 0.43613 0.34282 0.0
H1035 H 0.50903 0.83023 0.24436 0.0
H1036 H 0.50258 0.87974 0.3102 0.0
H1037 H 0.54167 0.88897 0.33543 0.0
H1038 H 0.53123 0.80128 0.29035 0.0
H1039 H 0.55194 0.79984 0.26672 0.0
H1040 H 0.52499 0.79946 0.25207 0.0
H1041 H 0.55153 0.83934 0.2252 0.0
H1042 H 0.57855 0.83967 0.23965 0.0
H1043 H 0.57611 0.86829 0.24501 0.0
H1044 H 0.57909 0.88904 0.35614 0.0
H1045 H 0.61335 0.88188 0.36926 0.0
H1046 H 0.59543 0.83252 0.28982 0.0
C1047 C 0.516 0.84328 0.26389 0.0
C1048 C 0.50276 0.85431 0.27528 0.0
C1049 C 0.51256 0.87138 0.30084 0.0
C1050 C 0.53468 0.87661 0.31541 0.0
C1051 C 0.5469 0.86484 0.304 0.0
C1052 C 0.53806 0.84876 0.27863 0.0
C1053 C 0.55407 0.83754 0.27165 0.0
C1054 C 0.53969 0.80777 0.27012 0.0
C1055 C 0.56576 0.84677 0.24372 0.0
C1056 C 0.57295 0.84929 0.29744 0.0
C1057 C 0.56857 0.86506 0.3158 0.0
C1058 C 0.58289 0.87702 0.34174 0.0
C1059 C 0.60222 0.87278 0.34907 0.0
C1060 C 0.607 0.85676 0.33049 0.0
C1061 C 0.59226 0.84503 0.30431 0.0
H1062 H 0.14035 0.66209 0.35979 0.0
H1063 H 0.14689 0.64988 0.26968 0.0
H1064 H 0.14797 0.69079 0.26149 0.0
H1065 H 0.1031 0.69583 0.34898 0.0
H1066 H 0.11844 0.71726 0.38128 0.0
H1067 H 0.1131 0.68465 0.37882 0.0
H1068 H 0.15925 0.70281 0.39176 0.0
H1069 H 0.16487 0.7354 0.39367 0.0
H1070 H 0.18085 0.72572 0.37005 0.0
H1071 H 0.15894 0.73689 0.26566 0.0
H1072 H 0.17183 0.78245 0.27999 0.0
H1073 H 0.15432 0.76449 0.36641 0.0
C1074 C 0.14089 0.66754 0.33814 0.0
C1075 C 0.14329 0.65279 0.31525 0.0
C1076 C 0.14455 0.66066 0.28731 0.0
C1077 C 0.14534 0.68395 0.28255 0.0
C1078 C 0.14424 0.69877 0.30584 0.0
C1079 C 0.14128 0.69053 0.33296 0.0
C1080 C 0.14255 0.71108 0.3547 0.0
C1081 C 0.11782 0.70164 0.36665 0.0
C1082 C 0.1631 0.71922 0.37896 0.0
C1083 C 0.14825 0.73278 0.33592 0.0
C1084 C 0.14905 0.72516 0.30779 0.0
C1085 C 0.15722 0.74271 0.28724 0.0
C1086 C 0.16446 0.76857 0.29552 0.0
C1087 C 0.16296 0.77661 0.32384 0.0
C1088 C 0.15465 0.75849 0.34432 0.0
H1089 H 0.85371 1.00363 0.40317 0.0
H1090 H 0.8314 0.05524 0.36911 0.0
H1091 H 0.78928 0.01834 0.3582 0.0
H1092 H 0.81878 0.95085 0.35021 0.0
H1093 H 0.81149 0.92643 0.37463 0.0
H1094 H 0.83928 0.95722 0.38173 0.0
H1095 H 0.82692 0.9639 0.43177 0.0
H1096 H 0.79909 0.93308 0.42484 0.0
H1097 H 0.79793 0.96197 0.43446 0.0
H1098 H 0.74974 0.97494 0.34907 0.0
H1099 H 0.7165 0.92917 0.3426 0.0
H1100 H 0.76564 0.90635 0.3812 0.0
C1101 C 0.84003 0.00726 0.39337 0.0
C1102 C 0.84596 0.03242 0.38697 0.0
C1103 C 0.82731 0.03626 0.37457 0.0
C1104 C 0.80334 0.01537 0.36814 0.0
C1105 C 0.79829 0.99077 0.37429 0.0
C1106 C 0.81614 0.98669 0.38671 0.0
C1107 C 0.80632 0.95833 0.39036 0.0
C1108 C 0.81977 0.94758 0.3732 0.0
C1109 C 0.80764 0.95408 0.42225 0.0
C1110 C 0.78021 0.94696 0.37765 0.0
C1111 C 0.77582 0.96595 0.3687 0.0
C1112 C 0.75299 0.95995 0.35608 0.0
C1113 C 0.73421 0.93387 0.35248 0.0
C1114 C 0.73843 0.91409 0.36127 0.0
C1115 C 0.76178 0.92091 0.37409 0.0
H1116 H 0.01641 0.8329 0.43278 0.0
H1117 H 0.96946 0.81788 0.35495 0.0
H1118 H 0.99976 0.81511 0.32626 0.0
H1119 H 0.07184 0.87274 0.40667 0.0
H1120 H 0.0887 0.86045 0.42569 0.0
H1121 H 0.06247 0.85894 0.43998 0.0
H1122 H 0.04294 0.80934 0.44139 0.0
H1123 H 0.06929 0.81082 0.42727 0.0
H1124 H 0.03929 0.78929 0.4092 0.0
H1125 H 0.03793 0.82033 0.30611 0.0
H1126 H 0.07878 0.82784 0.29642 0.0
H1127 H 0.09902 0.83582 0.38773 0.0
C1128 C 0.01235 0.82844 0.40974 0.0
C1129 C 0.9907 0.82547 0.39591 0.0
C1130 C 0.9859 0.8199 0.36579 0.0
C1131 C 1.00302 0.81842 0.34941 0.0
C1132 C 0.02455 0.82206 0.36363 0.0
C1133 C 0.029 0.8264 0.39319 0.0
C1134 C 0.05375 0.83031 0.40327 0.0
C1135 C 0.07015 0.85721 0.41987 0.0
C1136 C 0.05115 0.80864 0.42135 0.0
C1137 C 0.06287 0.82829 0.37475 0.0
C1138 C 0.04587 0.82367 0.35209 0.0
C1139 C 0.05115 0.82333 0.32368 0.0
C1140 C 0.07435 0.8277 0.31835 0.0
C1141 C 0.09171 0.83192 0.34132 0.0
C1142 C 0.08578 0.83199 0.36978 0.0
H1143 H 0.15466 0.1656 0.40007 0.0
H1144 H 0.2207 0.18095 0.36236 0.0
H1145 H 0.2272 0.22345 0.35064 0.0
H1146 H 0.1338 0.19278 0.34871 0.0
H1147 H 0.12219 0.20668 0.37395 0.0
H1148 H 0.12351 0.17826 0.38144 0.0
H1149 H 0.14929 0.20182 0.42983 0.0
H1150 H 0.14783 0.23023 0.42255 0.0
H1151 H 0.17699 0.23261 0.43019 0.0
H1152 H 0.22522 0.26286 0.34029 0.0
H1153 H 0.21625 0.29783 0.33415 0.0
H1154 H 0.15124 0.25714 0.3784 0.0
C1155 C 0.17057 0.17798 0.38949 0.0
C1156 C 0.18721 0.16993 0.38216 0.0
C1157 C 0.2079 0.1868 0.36855 0.0
C1158 C 0.21166 0.21092 0.36164 0.0
C1159 C 0.19467 0.21799 0.36866 0.0
C1160 C 0.17466 0.20218 0.38257 0.0
C1161 C 0.15893 0.21426 0.38718 0.0
C1162 C 0.13308 0.19696 0.3719 0.0
C1163 C 0.15823 0.22007 0.41934 0.0
C1164 C 0.17292 0.23904 0.37307 0.0
C1165 C 0.19352 0.24083 0.36268 0.0
C1166 C 0.20922 0.26175 0.34849 0.0
C1167 C 0.20389 0.28152 0.34506 0.0
C1168 C 0.18297 0.28029 0.35569 0.0
C1169 C 0.16727 0.25864 0.36982 0.0
H1170 H 0.64335 0.50846 0.71564 0.0
H1171 H 0.65319 0.53971 0.80451 0.0
H1172 H 0.69234 0.57677 0.79654 0.0
H1173 H 0.70743 0.52685 0.71406 0.0
H1174 H 0.70871 0.5344 0.67738 0.0
H1175 H 0.68034 0.51033 0.68909 0.0
H1176 H 0.65964 0.53546 0.67125 0.0
H1177 H 0.68802 0.55973 0.65973 0.0
H1178 H 0.67239 0.56905 0.68431 0.0
H1179 H 0.72904 0.6114 0.77975 0.0
H1180 H 0.76555 0.63941 0.75647 0.0
H1181 H 0.73613 0.58549 0.67932 0.0
C1182 C 0.65376 0.52305 0.73341 0.0
C1183 C 0.64441 0.52147 0.76041 0.0
C1184 C 0.65906 0.54087 0.78319 0.0
C1185 C 0.68158 0.56202 0.77902 0.0
C1186 C 0.68983 0.56343 0.75213 0.0
C1187 C 0.67681 0.54431 0.72981 0.0
C1188 C 0.69103 0.55034 0.70358 0.0
C1189 C 0.69725 0.52922 0.69556 0.0
C1190 C 0.67692 0.55385 0.67821 0.0
C1191 C 0.71383 0.57586 0.71481 0.0
C1192 C 0.71237 0.58303 0.74278 0.0
C1193 C 0.73056 0.60595 0.75792 0.0
C1194 C 0.7512 0.6218 0.74442 0.0
C1195 C 0.75373 0.6146 0.71615 0.0
C1196 C 0.73468 0.5914 0.701 0.0
H1197 H 0.51817 0.15466 0.74785 0.0
H1198 H 0.476 0.07619 0.77164 0.0
H1199 H 0.43808 0.07517 0.75524 0.0
H1200 H 0.47736 0.17633 0.76681 0.0
H1201 H 0.48167 0.19491 0.73662 0.0
H1202 H 0.5058 0.19006 0.75093 0.0
H1203 H 0.50732 0.17054 0.70095 0.0
H1204 H 0.48334 0.1755 0.68633 0.0
H1205 H 0.47984 0.14367 0.68244 0.0
H1206 H 0.40455 0.08327 0.73832 0.0
H1207 H 0.3779 0.09888 0.71849 0.0
H1208 H 0.4416 0.17005 0.70108 0.0
C1209 C 0.50104 0.13708 0.74932 0.0
C1210 C 0.50029 0.11561 0.76146 0.0
C1211 C 0.47726 0.0932 0.76319 0.0
C1212 C 0.45554 0.09231 0.75369 0.0
C1213 C 0.45701 0.11382 0.74203 0.0
C1214 C 0.47915 0.13568 0.73949 0.0
C1215 C 0.47562 0.15596 0.7256 0.0
C1216 C 0.48571 0.18078 0.74622 0.0
C1217 C 0.48722 0.16175 0.69714 0.0
C1218 C 0.44804 0.14203 0.72066 0.0
C1219 C 0.43766 0.11789 0.73069 0.0
C1220 C 0.41246 0.10197 0.73 0.0
C1221 C 0.39749 0.11096 0.71872 0.0
C1222 C 0.40774 0.13536 0.7078 0.0
C1223 C 0.43332 0.15102 0.70866 0.0
H1224 H 0.89256 0.3771 0.69744 0.0
H1225 H 0.8922 0.37246 0.78947 0.0
H1226 H 0.88622 0.32878 0.78271 0.0
H1227 H 0.84498 0.3109 0.6781 0.0
H1228 H 0.85822 0.30605 0.64713 0.0
H1229 H 0.86403 0.33797 0.65883 0.0
H1230 H 0.9105 0.35537 0.66213 0.0
H1231 H 0.90482 0.32344 0.65059 0.0
H1232 H 0.92327 0.34034 0.6838 0.0
H1233 H 0.87867 0.28558 0.76721 0.0
H1234 H 0.86836 0.24335 0.74284 0.0
H1235 H 0.87262 0.2734 0.66024 0.0
C1236 C 0.8913 0.3669 0.71613 0.0
C1237 C 0.8935 0.37869 0.7441 0.0
C1238 C 0.89146 0.36443 0.76792 0.0
C1239 C 0.88787 0.33944 0.76433 0.0
C1240 C 0.88613 0.32858 0.73672 0.0
C1241 C 0.88761 0.34162 0.71293 0.0
C1242 C 0.88406 0.32461 0.68561 0.0
C1243 C 0.86148 0.31959 0.66628 0.0
C1244 C 0.90704 0.33666 0.66959 0.0
C1245 C 0.88013 0.3 0.69792 0.0
C1246 C 0.88157 0.303 0.72752 0.0
C1247 C 0.87773 0.28303 0.74408 0.0
C1248 C 0.87193 0.25916 0.73008 0.0
C1249 C 0.87008 0.25537 0.69984 0.0
C1250 C 0.87446 0.27609 0.68344 0.0
H1251 H 0.20167 0.97485 0.65786 0.0
H1252 H 0.1978 0.98207 0.56653 0.0
H1253 H 0.23093 0.02754 0.57507 0.0
H1254 H 0.21352 0.03844 0.68147 0.0
H1255 H 0.23475 0.04363 0.71175 0.0
H1256 H 0.21099 0.01123 0.69877 0.0
H1257 H 0.2433 0.99758 0.69266 0.0
H1258 H 0.26716 0.02992 0.70574 0.0
H1259 H 0.26802 0.01554 0.67135 0.0
H1260 H 0.26232 0.07246 0.59301 0.0
H1261 H 0.29303 0.11422 0.61948 0.0
H1262 H 0.27907 0.07881 0.69937 0.0
C1263 C 0.20797 0.98603 0.63972 0.0
C1264 C 0.19733 0.97483 0.61147 0.0
C1265 C 0.20598 0.99006 0.58826 0.0
C1266 C 0.22467 0.01598 0.59291 0.0
C1267 C 0.23473 0.02645 0.6209 0.0
C1268 C 0.22696 0.012 0.64395 0.0
C1269 C 0.24116 0.02825 0.67183 0.0
C1270 C 0.22408 0.03052 0.69215 0.0
C1271 C 0.25578 0.01716 0.68624 0.0
C1272 C 0.25791 0.05408 0.66078 0.0
C1273 C 0.25364 0.05252 0.63131 0.0
C1274 C 0.266 0.07389 0.61603 0.0
C1275 C 0.28331 0.0975 0.63122 0.0
C1276 C 0.28832 0.09952 0.66127 0.0
C1277 C 0.27558 0.07757 0.67632 0.0
H1278 H 0.05818 0.2577 0.63399 0.0
H1279 H 0.03445 0.20223 0.55879 0.0
H1280 H 0.9915 0.18512 0.56817 0.0
H1281 H 0.01468 0.2179 0.67851 0.0
H1282 H 0.00931 0.24245 0.69449 0.0
H1283 H 0.03831 0.25151 0.68147 0.0
H1284 H 0.03381 0.28256 0.64884 0.0
H1285 H 1.00499 0.27397 0.66215 0.0
H1286 H 1.00679 0.27037 0.62414 0.0
H1287 H 0.9524 0.17022 0.58913 0.0
H1288 H 0.91735 0.16382 0.61454 0.0
H1289 H 0.96479 0.23193 0.6734 0.0
C1290 C 0.04381 0.24237 0.61922 0.0
C1291 C 0.04941 0.23131 0.59553 0.0
C1292 C 0.03036 0.2111 0.57676 0.0
C1293 C 1.006 0.20115 0.58207 0.0
C1294 C 1.00105 0.21198 0.60596 0.0
C1295 C 0.01927 0.23261 0.62382 0.0
C1296 C 0.00868 0.24079 0.64773 0.0
C1297 C 0.01833 0.23799 0.6773 0.0
C1298 C 0.01387 0.26857 0.64558 0.0
C1299 C 0.98172 0.22116 0.64082 0.0
C1300 C 0.97793 0.20452 0.61689 0.0
C1301 C 0.955 0.18362 0.60731 0.0
C1302 C 0.93522 0.1802 0.62183 0.0
C1303 C 0.93824 0.19803 0.64503 0.0
C1304 C 0.96191 0.21841 0.65521 0.0
H1305 H 0.81862 0.84116 0.67129 0.0
H1306 H 0.79597 0.80851 0.58223 0.0
H1307 H 0.80239 0.77285 0.59288 0.0
H1308 H 0.86713 0.82518 0.67958 0.0
H1309 H 0.86238 0.81767 0.7161 0.0
H1310 H 0.8555 0.84097 0.70225 0.0
H1311 H 0.81147 0.81462 0.7164 0.0
H1312 H 0.81818 0.79117 0.73014 0.0
H1313 H 0.79289 0.78086 0.70321 0.0
H1314 H 0.80905 0.73988 0.61198 0.0
H1315 H 0.81968 0.71222 0.63866 0.0
H1316 H 0.84188 0.76603 0.71524 0.0
C1317 C 0.81509 0.82654 0.65407 0.0
C1318 C 0.80591 0.82735 0.62608 0.0
C1319 C 0.80193 0.80795 0.60411 0.0
C1320 C 0.80577 0.78763 0.60983 0.0
C1321 C 0.81416 0.78702 0.63755 0.0
C1322 C 0.8192 0.80603 0.65933 0.0
C1323 C 0.8288 0.8006 0.687 0.0
C1324 C 0.85501 0.8224 0.69681 0.0
C1325 C 0.81182 0.79657 0.71058 0.0
C1326 C 0.82804 0.77549 0.67721 0.0
C1327 C 0.8193 0.76812 0.64858 0.0
C1328 C 0.81607 0.74546 0.63437 0.0
C1329 C 0.82205 0.72984 0.64972 0.0
C1330 C 0.83146 0.737 0.67888 0.0
C1331 C 0.83466 0.7602 0.69293 0.0
H1332 H 0.02675 0.84471 0.6145 0.0
H1333 H 0.07778 0.86013 0.68835 0.0
H1334 H 0.04623 0.82147 0.70883 0.0
H1335 H 0.9752 0.82535 0.65003 0.0
H1336 H 0.95418 0.79985 0.62317 0.0
H1337 H 0.9814 0.82691 0.613 0.0
H1338 H 0.99404 0.79566 0.58982 0.0
H1339 H 0.96667 0.76845 0.59969 0.0
H1340 H 0.99602 0.77239 0.61079 0.0
H1341 H 1.00715 0.78553 0.72442 0.0
H1342 H 0.96501 0.75154 0.73118 0.0
H1343 H 0.94051 0.7571 0.64525 0.0
C1344 C 0.03139 0.83939 0.63456 0.0
C1345 C 0.05464 0.85504 0.64982 0.0
C1346 C 0.06013 0.84801 0.67625 0.0
C1347 C 0.04231 0.82622 0.68804 0.0
C1348 C 0.01929 0.81147 0.67281 0.0
C1349 C 0.01397 0.81742 0.64631 0.0
C1350 C 0.98762 0.799 0.63477 0.0
C1351 C 0.9738 0.81366 0.62998 0.0
C1352 C 0.986 0.78292 0.60713 0.0
C1353 C 0.9787 0.78229 0.65931 0.0
C1354 C 0.99719 0.78987 0.68114 0.0
C1355 C 0.99271 0.77897 0.70717 0.0
C1356 C 0.96877 0.7598 0.71089 0.0
C1357 C 0.94979 0.75146 0.68854 0.0
C1358 C 0.95491 0.76268 0.66237 0.0
H1359 H 0.17642 0.20704 0.69274 0.0
H1360 H 0.18514 0.23458 0.60828 0.0
H1361 H 0.22687 0.24164 0.61148 0.0
H1362 H 0.24054 0.24782 0.72415 0.0
H1363 H 0.23952 0.22178 0.74257 0.0
H1364 H 0.21228 0.22365 0.73606 0.0
H1365 H 0.18981 0.17701 0.71039 0.0
H1366 H 0.21692 0.17502 0.71672 0.0
H1367 H 0.20263 0.16937 0.6807 0.0
H1368 H 0.26579 0.24071 0.62132 0.0
H1369 H 0.2978 0.23067 0.63637 0.0
H1370 H 0.26219 0.20077 0.71261 0.0
C1371 C 0.18711 0.21484 0.67498 0.0
C1372 C 0.17733 0.22029 0.65027 0.0
C1373 C 0.19223 0.23072 0.62772 0.0
C1374 C 0.21598 0.23467 0.62927 0.0
C1375 C 0.22462 0.22813 0.65348 0.0
C1376 C 0.21062 0.21847 0.67596 0.0
C1377 C 0.22294 0.21025 0.69814 0.0
C1378 C 0.22919 0.22688 0.72693 0.0
C1379 C 0.20714 0.1812 0.70167 0.0
C1380 C 0.24574 0.21602 0.68422 0.0
C1381 C 0.24664 0.22681 0.65875 0.0
C1382 C 0.26542 0.23259 0.6414 0.0
C1383 C 0.28351 0.22684 0.65011 0.0
C1384 C 0.28246 0.21509 0.67568 0.0
C1385 C 0.26353 0.20999 0.69309 0.0
H1386 H 0.8656 0.01232 0.67348 0.0
H1387 H 0.79896 0.96542 0.61663 0.0
H1388 H 0.7877 0.99888 0.62528 0.0
H1389 H 0.84305 0.0421 0.72332 0.0
H1390 H 0.87072 0.07315 0.72611 0.0
H1391 H 0.87178 0.04388 0.7189 0.0
H1392 H 0.89311 0.06097 0.6731 0.0
H1393 H 0.89225 0.09029 0.68027 0.0
H1394 H 0.87898 0.07098 0.64629 0.0
H1395 H 0.78486 0.03923 0.63825 0.0
H1396 H 0.79271 0.08375 0.65042 0.0
H1397 H 0.86307 0.10523 0.69417 0.0
C1398 C 0.84863 0.00887 0.66263 0.0
C1399 C 0.83323 0.98587 0.64436 0.0
C1400 C 0.81097 0.9824 0.63124 0.0
C1401 C 0.80443 1.00145 0.6359 0.0
C1402 C 0.82037 0.02404 0.65353 0.0
C1403 C 0.84212 0.02787 0.66645 0.0
C1404 C 0.85724 0.05474 0.68218 0.0
C1405 C 0.8609 0.05337 0.71455 0.0
C1406 C 0.88184 0.07015 0.66971 0.0
C1407 C 0.84082 0.06568 0.67569 0.0
C1408 C 0.81936 0.04755 0.6597 0.0
C1409 C 0.80157 0.05351 0.65085 0.0
C1410 C 0.80611 0.07879 0.65797 0.0
C1411 C 0.82848 0.09789 0.67322 0.0
C1412 C 0.8458 0.09102 0.68249 0.0
H1413 H 0.52486 0.33533 0.70623 0.0
H1414 H 0.50741 0.38325 0.76168 0.0
H1415 H 0.46382 0.35049 0.75212 0.0
H1416 H 0.47151 0.30703 0.65509 0.0
H1417 H 0.46865 0.27548 0.65254 0.0
H1418 H 0.49824 0.30411 0.66084 0.0
H1419 H 0.50512 0.28602 0.70709 0.0
H1420 H 0.47564 0.25732 0.69885 0.0
H1421 H 0.48298 0.27644 0.73287 0.0
H1422 H 0.42158 0.31127 0.73747 0.0
H1423 H 0.38554 0.26788 0.72283 0.0
H1424 H 0.43161 0.24423 0.6819 0.0
C1425 C 0.51211 0.33913 0.71669 0.0
C1426 C 0.52004 0.36233 0.73467 0.0
C1427 C 0.50217 0.36619 0.74722 0.0
C1428 C 0.47722 0.34751 0.74209 0.0
C1429 C 0.47027 0.3248 0.72467 0.0
C1430 C 0.48727 0.32046 0.71245 0.0
C1431 C 0.47542 0.29363 0.69649 0.0
C1432 C 0.47865 0.29517 0.66433 0.0
C1433 C 0.48538 0.2774 0.70962 0.0
C1434 C 0.44907 0.28342 0.70181 0.0
C1435 C 0.44634 0.30182 0.71764 0.0
C1436 C 0.42356 0.29674 0.7251 0.0
C1437 C 0.40317 0.27209 0.71659 0.0
C1438 C 0.4058 0.25269 0.7013 0.0
C1439 C 0.42905 0.25864 0.69366 0.0
H1440 H 0.65601 0.16341 0.69581 0.0
H1441 H 0.64544 0.13362 0.77899 0.0
H1442 H 0.68027 0.1264 0.77509 0.0
H1443 H 0.67571 0.12071 0.66265 0.0
H1444 H 0.69772 0.14603 0.64353 0.0
H1445 H 0.67034 0.1459 0.65164 0.0
H1446 H 0.69645 0.19248 0.67709 0.0
H1447 H 0.72386 0.19271 0.6692 0.0
H1448 H 0.71952 0.19905 0.70573 0.0
H1449 H 0.71915 0.12674 0.76392 0.0
H1450 H 0.75752 0.13342 0.74582 0.0
H1451 H 0.74231 0.1635 0.67048 0.0
C1452 C 0.66083 0.15511 0.71311 0.0
C1453 C 0.648 0.1491 0.73773 0.0
C1454 C 0.6548 0.13807 0.75977 0.0
C1455 C 0.67463 0.13403 0.75779 0.0
C1456 C 0.68732 0.1409 0.73354 0.0
C1457 C 0.6805 0.15099 0.71149 0.0
C1458 C 0.6978 0.15819 0.68844 0.0
C1459 C 0.6846 0.14172 0.65987 0.0
C1460 C 0.71013 0.18733 0.68493 0.0
C1461 C 0.71584 0.15117 0.70122 0.0
C1462 C 0.70945 0.14103 0.72713 0.0
C1463 C 0.7241 0.13431 0.74346 0.0
C1464 C 0.74584 0.13817 0.73305 0.0
C1465 C 0.75271 0.14878 0.7067 0.0
C1466 C 0.73736 0.1551 0.69057 0.0
H1467 H 0.8294 0.49736 0.71485 0.0
H1468 H 0.90325 0.51906 0.69836 0.0
H1469 H 0.91236 0.56387 0.69298 0.0
H1470 H 0.8203 0.53314 0.66339 0.0
H1471 H 0.80259 0.54201 0.68496 0.0
H1472 H 0.80267 0.51244 0.68954 0.0
H1473 H 0.81686 0.52716 0.74372 0.0
H1474 H 0.81647 0.5566 0.73923 0.0
H1475 H 0.84385 0.55812 0.75449 0.0
H1476 H 0.91242 0.60641 0.68738 0.0
H1477 H 0.90363 0.64208 0.68323 0.0
H1478 H 0.82934 0.59082 0.70203 0.0
C1479 C 0.84753 0.51149 0.7101 0.0
C1480 C 0.86557 0.50461 0.70687 0.0
C1481 C 0.88917 0.52389 0.70117 0.0
C1482 C 0.89447 0.54936 0.69793 0.0
C1483 C 0.87601 0.55527 0.70061 0.0
C1484 C 0.85306 0.53682 0.70678 0.0
C1485 C 0.83612 0.54764 0.70795 0.0
C1486 C 0.81413 0.53293 0.68509 0.0
C1487 C 0.82785 0.54736 0.73814 0.0
C1488 C 0.85295 0.57498 0.70103 0.0
C1489 C 0.87595 0.57922 0.69705 0.0
C1490 C 0.89445 0.60324 0.6905 0.0
C1491 C 0.88929 0.62338 0.68812 0.0
C1492 C 0.86576 0.6193 0.69206 0.0
C1493 C 0.84748 0.59467 0.69855 0.0
H1494 H 0.48066 0.93616 0.20645 0.0
H1495 H 0.40656 0.91969 0.18509 0.0
H1496 H 0.42076 0.94922 0.14725 0.0
H1497 H 0.51303 1.00332 0.19055 0.0
H1498 H 0.53661 1.00018 0.17457 0.0
H1499 H 0.52129 0.98043 0.20251 0.0
H1500 H 0.50963 0.93911 0.1693 0.0
H1501 H 0.52478 0.95855 0.14118 0.0
H1502 H 0.49312 0.93351 0.13468 0.0
H1503 H 0.44294 0.98 0.11087 0.0
H1504 H 0.47044 1.00573 0.07558 0.0
H1505 H 0.52849 0.99737 0.11662 0.0
C1506 C 0.4673 0.93866 0.19392 0.0
C1507 C 0.44245 0.92566 0.19926 0.0
C1508 C 0.4258 0.92985 0.18224 0.0
C1509 C 0.43367 0.94653 0.16048 0.0
C1510 C 0.45821 0.95873 0.15573 0.0
C1511 C 0.47472 0.95478 0.17178 0.0
C1512 C 0.49961 0.96835 0.16073 0.0
C1513 C 0.51876 0.98932 0.18345 0.0
C1514 C 0.50723 0.94871 0.15087 0.0
C1515 C 0.49445 0.98026 0.13565 0.0
C1516 C 0.47058 0.97492 0.13351 0.0
C1517 C 0.46156 0.98399 0.11214 0.0
C1518 C 0.47716 0.99829 0.092 0.0
C1519 C 0.50117 1.00265 0.09282 0.0
C1520 C 0.51011 0.99412 0.11538 0.0
H1521 H 0.08387 0.55195 0.22857 0.0
H1522 H 0.10904 0.4978 0.20925 0.0
H1523 H 0.08471 0.48411 0.16262 0.0
H1524 H 0.02406 0.51542 0.19339 0.0
H1525 H 0.02396 0.54245 0.17857 0.0
H1526 H 0.04256 0.54763 0.21144 0.0
H1527 H 0.08095 0.5811 0.18928 0.0
H1528 H 0.06242 0.57624 0.15643 0.0
H1529 H 0.08845 0.57192 0.15581 0.0
H1530 H 0.05485 0.47332 0.11973 0.0
H1531 H 0.02696 0.47163 0.0798 0.0
H1532 H 0.02677 0.53764 0.12222 0.0
C1533 C 0.08466 0.53747 0.21455 0.0
C1534 C 0.098 0.52549 0.22353 0.0
C1535 C 0.09823 0.50658 0.20399 0.0
C1536 C 0.08463 0.49879 0.1771 0.0
C1537 C 0.07135 0.51056 0.16938 0.0
C1538 C 0.07176 0.52998 0.18715 0.0
C1539 C 0.05687 0.54039 0.17282 0.0
C1540 C 0.0356 0.53621 0.19009 0.0
C1541 C 0.07314 0.56912 0.16832 0.0
C1542 C 0.04772 0.52345 0.14446 0.0
C1543 C 0.05604 0.50612 0.14319 0.0
C1544 C 0.04887 0.48735 0.12006 0.0
C1545 C 0.03328 0.48671 0.09729 0.0
C1546 C 0.0257 0.50521 0.09724 0.0
C1547 C 0.03273 0.52358 0.12139 0.0
H1548 H 0.51699 0.56761 0.2251 0.0
H1549 H 0.44658 0.55676 0.19357 0.0
H1550 H 0.44815 0.53528 0.14809 0.0
H1551 H 0.54306 0.58559 0.15951 0.0
H1552 H 0.56117 0.57033 0.16339 0.0
H1553 H 0.55323 0.58208 0.19473 0.0
H1554 H 0.53398 0.53646 0.21268 0.0
H1555 H 0.5418 0.52454 0.1813 0.0
H1556 H 0.51062 0.50884 0.18979 0.0
H1557 H 0.45842 0.51729 0.10483 0.0
H1558 H 0.47764 0.50622 0.06678 0.0
H1559 H 0.54216 0.53108 0.12493 0.0
C1560 C 0.50183 0.5608 0.20873 0.0
C1561 C 0.48154 0.56381 0.2133 0.0
C1562 C 0.46208 0.55421 0.19115 0.0
C1563 C 0.46287 0.54212 0.16505 0.0
C1564 C 0.48331 0.5399 0.16124 0.0
C1565 C 0.50251 0.54912 0.1824 0.0
C1566 C 0.52316 0.54607 0.17215 0.0
C1567 C 0.54653 0.57259 0.17246 0.0
C1568 C 0.52764 0.52789 0.19005 0.0
C1569 C 0.51264 0.53381 0.14182 0.0
C1570 C 0.48951 0.53013 0.13609 0.0
C1571 C 0.47637 0.51975 0.10927 0.0
C1572 C 0.48725 0.51316 0.08777 0.0
C1573 C 0.51099 0.5171 0.09294 0.0
C1574 C 0.5238 0.52752 0.12042 0.0
H1575 H 0.91417 0.42167 0.8321 0.0
H1576 H 0.93769 0.49645 0.80056 0.0
H1577 H 0.96119 0.51813 0.84766 0.0
H1578 H 0.91145 0.43972 0.90665 0.0
H1579 H 0.92395 0.42118 0.92099 0.0
H1580 H 0.90576 0.41025 0.88675 0.0
H1581 H 0.93989 0.40906 0.8616 0.0
H1582 H 0.95892 0.41905 0.89501 0.0
H1583 H 0.9699 0.43744 0.86482 0.0
H1584 H 0.98474 0.53131 0.89814 0.0
H1585 H 1.00822 0.53425 0.94387 0.0
H1586 H 0.97199 0.45057 0.93818 0.0
C1587 C 0.92419 0.44264 0.83492 0.0
C1588 C 0.92425 0.45733 0.81241 0.0
C1589 C 0.93721 0.48473 0.81749 0.0
C1590 C 0.95062 0.49721 0.84419 0.0
C1591 C 0.95081 0.48199 0.86553 0.0
C1592 C 0.93789 0.45526 0.86101 0.0
C1593 C 0.94277 0.44307 0.8859 0.0
C1594 C 0.91959 0.42761 0.90093 0.0
C1595 C 0.9535 0.42616 0.87625 0.0
C1596 C 0.96133 0.46704 0.90471 0.0
C1597 C 0.96521 0.4894 0.89326 0.0
C1598 C 0.98177 0.51388 0.90721 0.0
C1599 C 0.99498 0.51541 0.9331 0.0
C1600 C 0.99198 0.49261 0.94407 0.0
C1601 C 0.97472 0.46825 0.92994 0.0
H1602 H 0.54041 0.46247 0.81571 0.0
H1603 H 0.6156 0.52258 0.84161 0.0
H1604 H 0.60321 0.53467 0.88548 0.0
H1605 H 0.51134 0.49592 0.84446 0.0
H1606 H 0.48693 0.46778 0.8576 0.0
H1607 H 0.5011 0.46409 0.82696 0.0
H1608 H 0.51093 0.43272 0.85248 0.0
H1609 H 0.49666 0.4362 0.88313 0.0
H1610 H 0.52771 0.44304 0.88755 0.0
H1611 H 0.58352 0.54145 0.92584 0.0
H1612 H 0.55745 0.5399 0.96327 0.0
H1613 H 0.49533 0.47318 0.91503 0.0
C1614 C 0.55427 0.47814 0.83059 0.0
C1615 C 0.5789 0.49208 0.82446 0.0
C1616 C 0.59644 0.51226 0.8449 0.0
C1617 C 0.58967 0.51917 0.87018 0.0
C1618 C 0.56533 0.50542 0.87527 0.0
C1619 C 0.54789 0.4851 0.85639 0.0
C1620 C 0.52316 0.47294 0.86806 0.0
C1621 C 0.50453 0.47534 0.84807 0.0
C1622 C 0.51409 0.44454 0.8731 0.0
C1623 C 0.52955 0.48982 0.89622 0.0
C1624 C 0.55399 0.50853 0.89969 0.0
C1625 C 0.56438 0.52676 0.92355 0.0
C1626 C 0.54944 0.52567 0.94472 0.0
C1627 C 0.52455 0.50617 0.94224 0.0
C1628 C 0.51437 0.48819 0.91749 0.0
H1629 H 0.5054 0.05869 0.82183 0.0
H1630 H 0.58234 0.11286 0.84735 0.0
H1631 H 0.58056 0.08793 0.88795 0.0
H1632 H 0.48883 0.05569 0.89337 0.0
H1633 H 0.46484 0.02229 0.88681 0.0
H1634 H 0.47316 0.04264 0.85792 0.0
H1635 H 0.48057 0.00967 0.82838 0.0
H1636 H 0.47262 0.98943 0.85742 0.0
H1637 H 0.50166 1.00066 0.84343 0.0
H1638 H 0.56983 0.05694 0.92697 0.0
H1639 H 0.54995 0.02643 0.96313 0.0
H1640 H 0.47976 0.99701 0.91495 0.0
C1641 C 0.52197 0.06571 0.83591 0.0
C1642 C 0.54407 0.08788 0.83085 0.0
C1643 C 0.56525 0.09565 0.84995 0.0
C1644 C 0.56441 0.08168 0.87332 0.0
C1645 C 0.54222 0.06016 0.87768 0.0
C1646 C 0.52132 0.05253 0.85971 0.0
C1647 C 0.49924 0.0303 0.87037 0.0
C1648 C 0.48042 0.03821 0.87755 0.0
C1649 C 0.48786 1.00609 0.8486 0.0
C1650 C 0.51094 0.02649 0.89715 0.0
C1651 C 0.53581 0.04357 0.90084 0.0
C1652 C 0.55034 0.04362 0.92429 0.0
C1653 C 0.53898 0.02628 0.94481 0.0
C1654 C 0.51342 0.00974 0.9422 0.0
C1655 C 0.4994 0.00951 0.91765 0.0
H1656 H 0.1062 0.28627 0.53033 0.0
H1657 H 0.13568 0.23464 0.53197 0.0
H1658 H 0.15757 0.25324 0.49039 0.0
H1659 H 0.09763 0.28095 0.44998 0.0
H1660 H 0.10471 0.31406 0.4499 0.0
H1661 H 0.09028 0.29584 0.47921 0.0
H1662 H 0.12516 0.33159 0.51499 0.0
H1663 H 0.1398 0.34968 0.48576 0.0
H1664 H 0.1563 0.34066 0.51055 0.0
H1665 H 0.18011 0.28062 0.45271 0.0
H1666 H 0.19833 0.31194 0.41716 0.0
H1667 H 0.15093 0.34251 0.43508 0.0
C1668 C 0.1168 0.2784 0.52169 0.0
C1669 C 0.1196 0.25936 0.53527 0.0
C1670 C 0.13388 0.2499 0.52303 0.0
C1671 C 0.14618 0.26009 0.49903 0.0
C1672 C 0.14353 0.27924 0.4868 0.0
C1673 C 0.12873 0.28787 0.49718 0.0
C1674 C 0.12916 0.30871 0.47983 0.0
C1675 C 0.10395 0.29932 0.46378 0.0
C1676 C 0.13814 0.33416 0.49893 0.0
C1677 C 0.14749 0.3113 0.4591 0.0
C1678 C 0.15545 0.29401 0.46352 0.0
C1679 C 0.17368 0.2939 0.44864 0.0
C1680 C 0.18403 0.31189 0.42864 0.0
C1681 C 0.17583 0.32942 0.42324 0.0
C1682 C 0.15719 0.32899 0.43852 0.0
H1683 H 0.7564 0.88531 0.55855 0.0
H1684 H 0.76792 0.81999 0.54373 0.0
H1685 H 0.74226 0.80664 0.49834 0.0
H1686 H 0.6946 0.85511 0.52477 0.0
H1687 H 0.69933 0.88326 0.50777 0.0
H1688 H 0.71703 0.88705 0.54097 0.0
H1689 H 0.75694 0.91368 0.51731 0.0
H1690 H 0.73937 0.91006 0.48411 0.0
H1691 H 0.76173 0.89999 0.48483 0.0
H1692 H 0.71513 0.79929 0.45494 0.0
H1693 H 0.69146 0.80141 0.41285 0.0
H1694 H 0.70102 0.87394 0.45121 0.0
C1695 C 0.75352 0.86816 0.54589 0.0
C1696 C 0.76364 0.85326 0.55577 0.0
C1697 C 0.75953 0.83116 0.53791 0.0
C1698 C 0.74513 0.82347 0.51168 0.0
C1699 C 0.73529 0.83831 0.50291 0.0
C1700 C 0.73957 0.86044 0.51909 0.0
C1701 C 0.7281 0.87378 0.50332 0.0
C1702 C 0.70861 0.87486 0.52022 0.0
C1703 C 0.74771 0.90099 0.49702 0.0
C1704 C 0.71669 0.85554 0.47594 0.0
C1705 C 0.7209 0.83508 0.47646 0.0
C1706 C 0.71198 0.8154 0.45405 0.0
C1707 C 0.69874 0.81687 0.43014 0.0
C1708 C 0.69505 0.83817 0.42846 0.0
C1709 C 0.7038 0.85756 0.45187 0.0
H1710 H 0.18295 0.88923 0.55435 0.0
H1711 H 0.12207 0.89896 0.52681 0.0
H1712 H 0.12298 0.88404 0.47704 0.0
H1713 H 0.21568 0.91127 0.49594 0.0
H1714 H 0.22566 0.88796 0.49307 0.0
H1715 H 0.21874 0.89658 0.52716 0.0
H1716 H 0.1876 0.84837 0.53152 0.0
H1717 H 0.19462 0.83951 0.49753 0.0
H1718 H 0.16355 0.8299 0.50305 0.0
H1719 H 0.13608 0.87755 0.43017 0.0
H1720 H 0.15536 0.8715 0.38902 0.0
H1721 H 0.20368 0.85867 0.44564 0.0
C1722 C 0.16942 0.88746 0.53789 0.0
C1723 C 0.15228 0.89499 0.54435 0.0
C1724 C 0.13504 0.89285 0.52233 0.0
C1725 C 0.13552 0.88455 0.494 0.0
C1726 C 0.15302 0.87791 0.48815 0.0
C1727 C 0.16923 0.87853 0.50951 0.0
C1728 C 0.18658 0.87099 0.49706 0.0
C1729 C 0.21324 0.89302 0.50371 0.0
C1730 C 0.18286 0.84568 0.50794 0.0
C1731 C 0.17821 0.86712 0.4653 0.0
C1732 C 0.15896 0.87149 0.46076 0.0
C1733 C 0.15023 0.87269 0.43339 0.0
C1734 C 0.16111 0.86886 0.41002 0.0
C1735 C 0.17985 0.86279 0.41385 0.0
C1736 C 0.18858 0.86203 0.44196 0.0
H1737 H 0.57834 0.74448 0.17271 0.0
H1738 H 0.58579 0.81629 0.14643 0.0
H1739 H 0.61352 0.84001 0.19006 0.0
H1740 H 0.58421 0.7597 0.24988 0.0
H1741 H 0.60234 0.74485 0.25685 0.0
H1742 H 0.58009 0.73286 0.22595 0.0
H1743 H 0.61361 0.73964 0.1929 0.0
H1744 H 0.6359 0.75155 0.22364 0.0
H1745 H 0.64064 0.77113 0.19429 0.0
H1746 H 0.64266 0.85645 0.2361 0.0
H1747 H 0.67216 0.86391 0.27774 0.0
H1748 H 0.64871 0.78216 0.2696 0.0
C1749 C 0.58575 0.7652 0.17579 0.0
C1750 C 0.57956 0.77828 0.15577 0.0
C1751 C 0.58958 0.80545 0.16149 0.0
C1752 C 0.60557 0.81923 0.18622 0.0
C1753 C 0.61173 0.80573 0.20495 0.0
C1754 C 0.60221 0.77932 0.19984 0.0
C1755 C 0.61327 0.76959 0.22171 0.0
C1756 C 0.59382 0.75063 0.23965 0.0
C1757 C 0.62665 0.75726 0.20727 0.0
C1758 C 0.6309 0.79469 0.23959 0.0
C1759 C 0.62941 0.81531 0.23011 0.0
C1760 C 0.64398 0.84042 0.24361 0.0
C1761 C 0.66066 0.84451 0.26715 0.0
C1762 C 0.6628 0.82365 0.27648 0.0
C1763 C 0.64762 0.79849 0.26261 0.0
H1764 H 0.2547 0.86017 0.14444 0.0
H1765 H 0.20495 0.77691 0.1314 0.0
H1766 H 0.18685 0.77903 0.17533 0.0
H1767 H 0.26372 0.86089 0.22444 0.0
H1768 H 0.26629 0.89212 0.23107 0.0
H1769 H 0.27627 0.88431 0.19877 0.0
H1770 H 0.24786 0.89525 0.16853 0.0
H1771 H 0.23746 0.90264 0.20067 0.0
H1772 H 0.21574 0.87875 0.17295 0.0
H1773 H 0.16987 0.79034 0.21561 0.0
H1774 H 0.1606 0.80918 0.25784 0.0
H1775 H 0.2245 0.88378 0.25097 0.0
C1776 C 0.24037 0.84232 0.15114 0.0
C1777 C 0.23068 0.81851 0.13367 0.0
C1778 C 0.21202 0.7956 0.14352 0.0
C1779 C 0.2017 0.79651 0.16866 0.0
C1780 C 0.21076 0.82033 0.1845 0.0
C1781 C 0.23022 0.84272 0.17687 0.0
C1782 C 0.23659 0.86559 0.19861 0.0
C1783 C 0.26223 0.87636 0.21414 0.0
C1784 C 0.23427 0.88681 0.18432 0.0
C1785 C 0.21701 0.85258 0.21881 0.0
C1786 C 0.20223 0.82649 0.2099 0.0
C1787 C 0.18174 0.81054 0.2234 0.0
C1788 C 0.17662 0.82132 0.24728 0.0
C1789 C 0.19223 0.84751 0.2579 0.0
C1790 C 0.21254 0.86354 0.24336 0.0
H1791 H 0.18338 0.43832 0.18607 0.0
H1792 H 0.23208 0.41412 0.1532 0.0
H1793 H 0.22241 0.38401 0.19036 0.0
H1794 H 0.19637 0.43493 0.26049 0.0
H1795 H 0.16547 0.42208 0.26916 0.0
H1796 H 0.17608 0.44245 0.24037 0.0
H1797 H 0.14112 0.40696 0.20482 0.0
H1798 H 0.12988 0.38659 0.23349 0.0
H1799 H 0.1368 0.37476 0.20126 0.0
H1800 H 0.20903 0.3579 0.23223 0.0
H1801 H 0.18996 0.3348 0.27391 0.0
H1802 H 0.1473 0.37282 0.27709 0.0
C1803 C 0.19179 0.42647 0.18637 0.0
C1804 C 0.2087 0.42885 0.16669 0.0
C1805 C 0.21949 0.41314 0.1683 0.0
C1806 C 0.21401 0.39583 0.18925 0.0
C1807 C 0.19747 0.39414 0.20835 0.0
C1808 C 0.18632 0.40883 0.20699 0.0
C1809 C 0.16893 0.40296 0.22996 0.0
C1810 C 0.17721 0.42704 0.25124 0.0
C1811 C 0.14262 0.39217 0.21657 0.0
C1812 C 0.17184 0.38243 0.24409 0.0
C1813 C 0.18873 0.37799 0.23161 0.0
C1814 C 0.19552 0.36093 0.24192 0.0
C1815 C 0.18466 0.34794 0.26554 0.0
C1816 C 0.16696 0.35178 0.27818 0.0
C1817 C 0.16041 0.36915 0.26728 0.0
H1818 H 0.78115 0.57192 0.84326 0.0
H1819 H 0.7896 0.63085 0.90857 0.0
H1820 H 0.81093 0.66458 0.87598 0.0
H1821 H 0.83926 0.60936 0.81544 0.0
H1822 H 0.8273 0.59651 0.77874 0.0
H1823 H 0.81318 0.57723 0.80744 0.0
H1824 H 0.77214 0.57138 0.7876 0.0
H1825 H 0.78554 0.59184 0.75948 0.0
H1826 H 0.76889 0.59928 0.78444 0.0
H1827 H 0.83303 0.69203 0.83696 0.0
H1828 H 0.85244 0.71086 0.79344 0.0
H1829 H 0.82725 0.63367 0.75283 0.0
C1830 C 0.78768 0.59196 0.85076 0.0
C1831 C 0.78387 0.59886 0.87846 0.0
C1832 C 0.79227 0.6252 0.88736 0.0
C1833 C 0.80445 0.64446 0.86905 0.0
C1834 C 0.80786 0.63701 0.84184 0.0
C1835 C 0.79964 0.61137 0.83266 0.0
C1836 C 0.80517 0.60842 0.80219 0.0
C1837 C 0.82225 0.59722 0.8009 0.0
C1838 C 0.78154 0.59175 0.78221 0.0
C1839 C 0.81795 0.63643 0.79572 0.0
C1840 C 0.81952 0.65266 0.81894 0.0
C1841 C 0.83169 0.6795 0.81854 0.0
C1842 C 0.84267 0.69003 0.79383 0.0
C1843 C 0.84111 0.6737 0.76984 0.0
C1844 C 0.82839 0.64658 0.77076 0.0
H1845 H 0.45101 0.19923 0.85249 0.0
H1846 H 0.39731 0.16238 0.91235 0.0
H1847 H 0.36413 0.15023 0.87356 0.0
H1848 H 0.42217 0.22634 0.81465 0.0
H1849 H 0.43013 0.22052 0.77989 0.0
H1850 H 0.44926 0.22425 0.81164 0.0
H1851 H 0.44495 0.17956 0.79705 0.0
H1852 H 0.42603 0.17604 0.76508 0.0
H1853 H 0.41498 0.15135 0.78948 0.0
H1854 H 0.33741 0.14646 0.82948 0.0
H1855 H 0.31902 0.14967 0.78306 0.0
H1856 H 0.39032 0.18688 0.75153 0.0
C1857 C 0.4322 0.18831 0.8572 0.0
C1858 C 0.42646 0.18175 0.88519 0.0
C1859 C 0.40184 0.16747 0.89089 0.0
C1860 C 0.38299 0.16049 0.86903 0.0
C1861 C 0.38922 0.16753 0.84161 0.0
C1862 C 0.41325 0.1808 0.83554 0.0
C1863 C 0.41515 0.18682 0.8046 0.0
C1864 C 0.43005 0.21623 0.8026 0.0
C1865 C 0.42591 0.17258 0.78809 0.0
C1866 C 0.38851 0.17583 0.7945 0.0
C1867 C 0.3738 0.16461 0.81605 0.0
C1868 C 0.34869 0.15478 0.8123 0.0
C1869 C 0.33842 0.15674 0.78595 0.0
C1870 C 0.35325 0.16836 0.7638 0.0
C1871 C 0.37851 0.17759 0.76802 0.0
H1872 H 0.80661 0.22703 0.8528 0.0
H1873 H 0.85457 0.21787 0.91423 0.0
H1874 H 0.86615 0.19784 0.8751 0.0
H1875 H 0.78638 0.16782 0.80486 0.0
H1876 H 0.78712 0.18356 0.77306 0.0
H1877 H 0.78084 0.19455 0.80629 0.0
H1878 H 0.81669 0.24102 0.80229 0.0
H1879 H 0.82298 0.22992 0.76918 0.0
H1880 H 0.84669 0.24593 0.79846 0.0
H1881 H 0.87386 0.18065 0.82868 0.0
H1882 H 0.8791 0.17048 0.77862 0.0
H1883 H 0.82701 0.19231 0.74779 0.0
C1884 C 0.81916 0.22029 0.85804 0.0
C1885 C 0.82946 0.22359 0.88653 0.0
C1886 C 0.8464 0.21533 0.89253 0.0
C1887 C 0.85298 0.20386 0.87048 0.0
C1888 C 0.8426 0.20101 0.84254 0.0
C1889 C 0.82615 0.20916 0.83625 0.0
C1890 C 0.81917 0.20591 0.80424 0.0
C1891 C 0.79175 0.18682 0.79669 0.0
C1892 C 0.82685 0.23226 0.79289 0.0
C1893 C 0.83426 0.19471 0.79349 0.0
C1894 C 0.84749 0.19179 0.81587 0.0
C1895 C 0.86345 0.18269 0.81102 0.0
C1896 C 0.86629 0.17692 0.78255 0.0
C1897 C 0.85338 0.18047 0.75938 0.0
C1898 C 0.8369 0.18908 0.76505 0.0
H1899 H 0.29496 0.13041 0.46958 0.0
H1900 H 0.23078 0.13185 0.49393 0.0
H1901 H 0.25138 0.15113 0.54213 0.0
H1902 H 0.30741 0.11094 0.53518 0.0
H1903 H 0.34013 0.1301 0.53612 0.0
H1904 H 0.32157 0.11899 0.50224 0.0
H1905 H 0.34144 0.1663 0.48921 0.0
H1906 H 0.36001 0.17756 0.52316 0.0
H1907 H 0.3408 0.19054 0.51315 0.0
H1908 H 0.27616 0.16545 0.58857 0.0
H1909 H 0.30419 0.17437 0.6312 0.0
H1910 H 0.35381 0.16534 0.57877 0.0
C1911 C 0.28532 0.13501 0.48496 0.0
C1912 C 0.2613 0.12997 0.47756 0.0
C1913 C 0.24937 0.13617 0.49853 0.0
C1914 C 0.26088 0.14701 0.52615 0.0
C1915 C 0.28438 0.15157 0.53271 0.0
C1916 C 0.29656 0.14583 0.51284 0.0
C1917 C 0.32118 0.15123 0.52631 0.0
C1918 C 0.32264 0.12634 0.52488 0.0
C1919 C 0.34209 0.17269 0.51211 0.0
C1920 C 0.32061 0.16038 0.55698 0.0
C1921 C 0.29919 0.16051 0.55995 0.0
C1922 C 0.29331 0.16614 0.5864 0.0
C1923 C 0.30956 0.17153 0.61057 0.0
C1924 C 0.3317 0.17166 0.60834 0.0
C1925 C 0.33741 0.16625 0.58105 0.0
H1926 H 0.91758 0.18892 0.50276 0.0
H1927 H 0.85169 0.12702 0.45428 0.0
H1928 H 0.82745 0.1294 0.49213 0.0
H1929 H 0.90495 0.17144 0.56878 0.0
H1930 H 0.91645 0.20339 0.5872 0.0
H1931 H 0.92855 0.19966 0.55481 0.0
H1932 H 0.91764 0.23099 0.53167 0.0
H1933 H 0.90599 0.23531 0.56436 0.0
H1934 H 0.8869 0.22504 0.53085 0.0
H1935 H 0.81082 0.13571 0.53717 0.0
H1936 H 0.80343 0.14491 0.5865 0.0
H1937 H 0.87987 0.2029 0.60534 0.0
C1938 C 0.89799 0.17638 0.4995 0.0
C1939 C 0.8867 0.15762 0.47545 0.0
C1940 C 0.86097 0.14122 0.47269 0.0
C1941 C 0.84694 0.14265 0.49392 0.0
C1942 C 0.85875 0.161 0.51755 0.0
C1943 C 0.88364 0.17788 0.52021 0.0
C1944 C 0.89204 0.19481 0.54849 0.0
C1945 C 0.91167 0.19212 0.56587 0.0
C1946 C 0.90118 0.22322 0.54354 0.0
C1947 C 0.86838 0.18329 0.56239 0.0
C1948 C 0.84922 0.16445 0.54372 0.0
C1949 C 0.82564 0.15061 0.55183 0.0
C1950 C 0.8216 0.15593 0.57983 0.0
C1951 C 0.84112 0.17447 0.59951 0.0
C1952 C 0.86473 0.18853 0.59061 0.0
H1953 H 0.85 0.71965 0.48086 0.0
H1954 H 0.90963 0.7947 0.51756 0.0
H1955 H 0.90682 0.77829 0.56472 0.0
H1956 H 0.81511 0.7059 0.54232 0.0
H1957 H 0.80511 0.67183 0.53926 0.0
H1958 H 0.81173 0.68905 0.50776 0.0
H1959 H 0.84245 0.67416 0.49653 0.0
H1960 H 0.83603 0.65703 0.52812 0.0
H1961 H 0.86694 0.68102 0.52331 0.0
H1962 H 0.89696 0.75577 0.60759 0.0
H1963 H 0.8807 0.72756 0.64552 0.0
H1964 H 0.8284 0.66479 0.5833 0.0
C1965 C 0.86239 0.73251 0.4989 0.0
C1966 C 0.88029 0.75838 0.49547 0.0
C1967 C 0.89615 0.77472 0.51955 0.0
C1968 C 0.89463 0.76561 0.54647 0.0
C1969 C 0.87714 0.74006 0.5491 0.0
C1970 C 0.86125 0.72362 0.52618 0.0
C1971 C 0.84407 0.69705 0.53556 0.0
C1972 C 0.81743 0.69058 0.53095 0.0
C1973 C 0.84759 0.67607 0.51995 0.0
C1974 C 0.85283 0.70136 0.56733 0.0
C1975 C 0.87189 0.72642 0.57437 0.0
C1976 C 0.88243 0.73591 0.60229 0.0
C1977 C 0.87324 0.71945 0.62377 0.0
C1978 C 0.85401 0.69348 0.61747 0.0
C1979 C 0.84361 0.68428 0.58872 0.0
loop_
_geom_bond_atom_site_label_1
_geom_bond_atom_site_label_2
_geom_bond_distance
_geom_bond_site_symmetry_2
_ccdc_geom_bond_type
H0 C1 0.949 . S
C1 H0 0.949 . S
C1 C2 1.395 . S
C1 C3 1.391 . S
C2 C1 1.395 . S
C2 C5 1.390 . S
C3 C1 1.391 . S
C3 C7 1.387 . S
C3 C8 1.491 . S
H4 C5 0.950 . S
C5 C2 1.390 . S
C5 H4 0.950 . S
C5 C6 1.378 . S
C6 C5 1.378 . S
C6 C7 1.409 . S
C7 C3 1.387 . S
C7 C6 1.409 . S
C7 H9 0.951 . S
C8 C3 1.491 . S
C8 C10 1.382 . S
C8 C12 1.404 . S
H9 C7 0.951 . S
C10 C8 1.382 . S
C10 C11 1.390 . S
C10 H15 0.949 . S
C11 C10 1.390 . S
C11 C16 1.399 . S
C12 C8 1.404 . S
C12 H13 0.950 . S
C12 C14 1.375 . S
H13 C12 0.950 . S
C14 C12 1.375 . S
C14 C16 1.382 . S
C14 H18 0.950 . S
H15 C10 0.949 . S
C16 C11 1.399 . S
C16 C14 1.382 . S
C16 H17 0.952 . S
H17 C16 0.952 . S
H18 C14 0.950 . S
H19 C20 0.949 . S
C20 H19 0.949 . S
C20 C21 1.395 . S
C20 C22 1.391 . S
C21 C20 1.395 . S
C21 C24 1.390 . S
C22 C20 1.391 . S
C22 C26 1.387 . S
C22 C27 1.491 . S
H23 C24 0.950 . S
C24 C21 1.390 . S
C24 H23 0.950 . S
C24 C25 1.378 . S
C25 C24 1.378 . S
C25 C26 1.409 . S
C26 C22 1.387 . S
C26 C25 1.409 . S
C26 H28 0.951 . S
C27 C22 1.491 . S
C27 C29 1.382 . S
C27 C31 1.404 . S
H28 C26 0.951 . S
C29 C27 1.382 . S
C29 C30 1.390 . S
C29 H34 0.949 . S
C30 C29 1.390 . S
C30 C35 1.399 . S
C31 C27 1.404 . S
C31 H32 0.950 . S
C31 C33 1.375 . S
H32 C31 0.950 . S
C33 C31 1.375 . S
C33 C35 1.382 . S
C33 H37 0.950 . S
H34 C29 0.949 . S
C35 C30 1.399 . S
C35 C33 1.382 . S
C35 H36 0.952 . S
H36 C35 0.952 . S
H37 C33 0.950 . S
H38 C39 0.949 . S
C39 H38 0.949 . S
C39 C40 1.395 . S
C39 C41 1.391 . S
C40 C39 1.395 . S
C40 C43 1.390 . S
C41 C39 1.391 . S
C41 C45 1.387 . S
C41 C46 1.491 . S
H42 C43 0.950 . S
C43 C40 1.390 . S
C43 H42 0.950 . S
C43 C44 1.378 . S
C44 C43 1.378 . S
C44 C45 1.409 . S
C45 C41 1.387 . S
C45 C44 1.409 . S
C45 H47 0.951 . S
C46 C41 1.491 . S
C46 C48 1.382 . S
C46 C50 1.404 . S
H47 C45 0.951 . S
C48 C46 1.382 . S
C48 C49 1.390 . S
C48 H53 0.949 . S
C49 C48 1.390 . S
C49 C54 1.399 . S
C50 C46 1.404 . S
C50 H51 0.950 . S
C50 C52 1.375 . S
H51 C50 0.950 . S
C52 C50 1.375 . S
C52 C54 1.382 . S
C52 H56 0.950 . S
H53 C48 0.949 . S
C54 C49 1.399 . S
C54 C52 1.382 . S
C54 H55 0.952 . S
H55 C54 0.952 . S
H56 C52 0.950 . S
H57 C58 0.949 . S
C58 H57 0.949 . S
C58 C59 1.395 . S
C58 C60 1.391 . S
C59 C58 1.395 . S
C59 C62 1.390 . S
C60 C58 1.391 . S
C60 C64 1.387 . S
C60 C65 1.491 . S
H61 C62 0.950 . S
C62 C59 1.390 . S
C62 H61 0.950 . S
C62 C63 1.378 . S
C63 C62 1.378 . S
C63 C64 1.409 . S
C64 C60 1.387 . S
C64 C63 1.409 . S
C64 H66 0.951 . S
C65 C60 1.491 . S
C65 C67 1.382 . S
C65 C69 1.404 . S
H66 C64 0.951 . S
C67 C65 1.382 . S
C67 C68 1.390 . S
C67 H72 0.949 . S
C68 C67 1.390 . S
C68 C73 1.399 . S
C69 C65 1.404 . S
C69 H70 0.950 . S
C69 C71 1.375 . S
H70 C69 0.950 . S
C71 C69 1.375 . S
C71 C73 1.382 . S
C71 H75 0.950 . S
H72 C67 0.949 . S
C73 C68 1.399 . S
C73 C71 1.382 . S
C73 H74 0.952 . S
H74 C73 0.952 . S
H75 C71 0.950 . S
H76 C77 0.949 . S
C77 H76 0.949 . S
C77 C78 1.395 . S
C77 C79 1.391 . S
C78 C77 1.395 . S
C78 C81 1.390 . S
C79 C77 1.391 . S
C79 C83 1.387 . S
C79 C84 1.491 . S
H80 C81 0.950 . S
C81 C78 1.390 . S
C81 H80 0.950 . S
C81 C82 1.378 . S
C82 C81 1.378 . S
C82 C83 1.409 . S
C83 C79 1.387 . S
C83 C82 1.409 . S
C83 H85 0.951 . S
C84 C79 1.491 . S
C84 C86 1.382 . S
C84 C88 1.404 . S
H85 C83 0.951 . S
C86 C84 1.382 . S
C86 C87 1.390 . S
C86 H91 0.949 . S
C87 C86 1.390 . S
C87 C92 1.399 . S
C88 C84 1.404 . S
C88 H89 0.950 . S
C88 C90 1.375 . S
H89 C88 0.950 . S
C90 C88 1.375 . S
C90 C92 1.382 . S
C90 H94 0.950 . S
H91 C86 0.949 . S
C92 C87 1.399 . S
C92 C90 1.382 . S
C92 H93 0.952 . S
H93 C92 0.952 . S
H94 C90 0.950 . S
H95 C96 0.949 . S
C96 H95 0.949 . S
C96 C97 1.395 . S
C96 C98 1.391 . S
C97 C96 1.395 . S
C97 C100 1.390 . S
C98 C96 1.391 . S
C98 C102 1.387 . S
C98 C103 1.491 . S
H99 C100 0.950 . S
C100 C97 1.390 . S
C100 H99 0.950 . S
C100 C101 1.378 . S
C101 C100 1.378 . S
C101 C102 1.409 . S
C102 C98 1.387 . S
C102 C101 1.409 . S
C102 H104 0.951 . S
C103 C98 1.491 . S
C103 C105 1.382 . S
C103 C107 1.404 . S
H104 C102 0.951 . S
C105 C103 1.382 . S
C105 C106 1.390 . S
C105 H110 0.949 . S
C106 C105 1.390 . S
C106 C111 1.399 . S
C107 C103 1.404 . S
C107 H108 0.950 . S
C107 C109 1.375 . S
H108 C107 0.950 . S
C109 C107 1.375 . S
C109 C111 1.382 . S
C109 H113 0.950 . S
H110 C105 0.949 . S
C111 C106 1.399 . S
C111 C109 1.382 . S
C111 H112 0.952 . S
H112 C111 0.952 . S
H113 C109 0.950 . S
H114 C115 0.949 . S
C115 H114 0.949 . S
C115 C116 1.395 . S
C115 C117 1.391 . S
C116 C115 1.395 . S
C116 C119 1.390 . S
C117 C115 1.391 . S
C117 C121 1.387 . S
C117 C122 1.491 . S
H118 C119 0.950 . S
C119 C116 1.390 . S
C119 H118 0.950 . S
C119 C120 1.378 . S
C120 C119 1.378 . S
C120 C121 1.409 . S
C121 C117 1.387 . S
C121 C120 1.409 . S
C121 H123 0.951 . S
C122 C117 1.491 . S
C122 C124 1.382 . S
C122 C126 1.404 . S
H123 C121 0.951 . S
C124 C122 1.382 . S
C124 C125 1.390 . S
C124 H129 0.949 . S
C125 C124 1.390 . S
C125 C130 1.399 . S
C126 C122 1.404 . S
C126 H127 0.950 . S
C126 C128 1.375 . S
H127 C126 0.950 . S
C128 C126 1.375 . S
C128 C130 1.382 . S
C128 H132 0.950 . S
H129 C124 0.949 . S
C130 C125 1.399 . S
C130 C128 1.382 . S
C130 H131 0.952 . S
H131 C130 0.952 . S
H132 C128 0.950 . S
H133 C134 0.949 . S
C134 H133 0.949 . S
C134 C135 1.395 . S
C134 C136 1.391 . S
C135 C134 1.395 . S
C135 C138 1.390 . S
C136 C134 1.391 . S
C136 C140 1.387 . S
C136 C141 1.491 . S
H137 C138 0.950 . S
C138 C135 1.390 . S
C138 H137 0.950 . S
C138 C139 1.378 . S
C139 C138 1.378 . S
C139 C140 1.409 . S
C140 C136 1.387 . S
C140 C139 1.409 . S
C140 H142 0.951 . S
C141 C136 1.491 . S
C141 C143 1.382 . S
C141 C145 1.404 . S
H142 C140 0.951 . S
C143 C141 1.382 . S
C143 C144 1.390 . S
C143 H148 0.949 . S
C144 C143 1.390 . S
C144 C149 1.399 . S
C145 C141 1.404 . S
C145 H146 0.950 . S
C145 C147 1.375 . S
H146 C145 0.950 . S
C147 C145 1.375 . S
C147 C149 1.382 . S
C147 H151 0.950 . S
H148 C143 0.949 . S
C149 C144 1.399 . S
C149 C147 1.382 . S
C149 H150 0.952 . S
H150 C149 0.952 . S
H151 C147 0.950 . S
H152 C153 0.949 . S
C153 H152 0.949 . S
C153 C154 1.395 . S
C153 C155 1.391 . S
C154 C153 1.395 . S
C154 C157 1.390 . S
C155 C153 1.391 . S
C155 C159 1.387 . S
C155 C160 1.491 . S
H156 C157 0.950 . S
C157 C154 1.390 . S
C157 H156 0.950 . S
C157 C158 1.378 . S
C158 C157 1.378 . S
C158 C159 1.409 . S
C159 C155 1.387 . S
C159 C158 1.409 . S
C159 H161 0.951 . S
C160 C155 1.491 . S
C160 C162 1.382 . S
C160 C164 1.404 . S
H161 C159 0.951 . S
C162 C160 1.382 . S
C162 C163 1.390 . S
C162 H167 0.949 . S
C163 C162 1.390 . S
C163 C168 1.399 . S
C164 C160 1.404 . S
C164 H165 0.950 . S
C164 C166 1.375 . S
H165 C164 0.950 . S
C166 C164 1.375 . S
C166 C168 1.382 . S
C166 H170 0.950 . S
H167 C162 0.949 . S
C168 C163 1.399 . S
C168 C166 1.382 . S
C168 H169 0.952 . S
H169 C168 0.952 . S
H170 C166 0.950 . S
H171 C172 0.949 . S
C172 H171 0.949 . S
C172 C173 1.395 . S
C172 C174 1.391 . S
C173 C172 1.395 . S
C173 C176 1.390 . S
C174 C172 1.391 . S
C174 C178 1.387 . S
C174 C179 1.491 . S
H175 C176 0.950 . S
C176 C173 1.390 . S
C176 H175 0.950 . S
C176 C177 1.378 . S
C177 C176 1.378 . S
C177 C178 1.409 . S
C178 C174 1.387 . S
C178 C177 1.409 . S
C178 H180 0.951 . S
C179 C174 1.491 . S
C179 C181 1.382 . S
C179 C183 1.404 . S
H180 C178 0.951 . S
C181 C179 1.382 . S
C181 C182 1.390 . S
C181 H186 0.949 . S
C182 C181 1.390 . S
C182 C187 1.399 . S
C183 C179 1.404 . S
C183 H184 0.950 . S
C183 C185 1.375 . S
H184 C183 0.950 . S
C185 C183 1.375 . S
C185 C187 1.382 . S
C185 H189 0.950 . S
H186 C181 0.949 . S
C187 C182 1.399 . S
C187 C185 1.382 . S
C187 H188 0.952 . S
H188 C187 0.952 . S
H189 C185 0.950 . S
H190 C191 0.949 . S
C191 H190 0.949 . S
C191 C192 1.395 . S
C191 C193 1.391 . S
C192 C191 1.395 . S
C192 C195 1.390 . S
C193 C191 1.391 . S
C193 C197 1.387 . S
C193 C198 1.491 . S
H194 C195 0.950 . S
C195 C192 1.390 . S
C195 H194 0.950 . S
C195 C196 1.378 . S
C196 C195 1.378 . S
C196 C197 1.409 . S
C197 C193 1.387 . S
C197 C196 1.409 . S
C197 H199 0.951 1_556 S
C198 C193 1.491 . S
C198 C200 1.382 . S
C198 C202 1.404 1_556 S
H199 C197 0.951 1_554 S
C200 C198 1.382 . S
C200 C201 1.390 1_556 S
C200 H205 0.949 . S
C201 C200 1.390 1_554 S
C201 C206 1.399 . S
C202 C198 1.404 1_554 S
C202 H203 0.950 . S
C202 C204 1.375 . S
H203 C202 0.950 . S
C204 C202 1.375 . S
C204 C206 1.382 . S
C204 H208 0.950 . S
H205 C200 0.949 . S
C206 C201 1.399 . S
C206 C204 1.382 . S
C206 H207 0.952 . S
H207 C206 0.952 . S
H208 C204 0.950 . S
H209 C210 0.949 . S
C210 H209 0.949 . S
C210 C211 1.395 . S
C210 C212 1.391 . S
C211 C210 1.395 . S
C211 C214 1.390 . S
C212 C210 1.391 . S
C212 C216 1.387 . S
C212 C217 1.491 . S
H213 C214 0.950 . S
C214 C211 1.390 . S
C214 H213 0.950 . S
C214 C215 1.378 . S
C215 C214 1.378 . S
C215 C216 1.409 . S
C216 C212 1.387 . S
C216 C215 1.409 . S
C216 H218 0.951 . S
C217 C212 1.491 . S
C217 C219 1.382 . S
C217 C221 1.404 . S
H218 C216 0.951 . S
C219 C217 1.382 . S
C219 C220 1.390 . S
C219 H224 0.949 . S
C220 C219 1.390 . S
C220 C225 1.399 . S
C221 C217 1.404 . S
C221 H222 0.950 . S
C221 C223 1.375 . S
H222 C221 0.950 . S
C223 C221 1.375 . S
C223 C225 1.382 . S
C223 H227 0.950 . S
H224 C219 0.949 . S
C225 C220 1.399 . S
C225 C223 1.382 . S
C225 H226 0.952 . S
H226 C225 0.952 . S
H227 C223 0.950 . S
H228 C229 0.949 . S
C229 H228 0.949 . S
C229 C230 1.395 . S
C229 C231 1.391 . S
C230 C229 1.395 . S
C230 C233 1.390 . S
C231 C229 1.391 . S
C231 C235 1.387 . S
C231 C236 1.491 . S
H232 C233 0.950 . S
C233 C230 1.390 . S
C233 H232 0.950 . S
C233 C234 1.378 . S
C234 C233 1.378 . S
C234 C235 1.409 . S
C235 C231 1.387 . S
C235 C234 1.409 . S
C235 H237 0.951 . S
C236 C231 1.491 . S
C236 C238 1.382 . S
C236 C240 1.404 . S
H237 C235 0.951 . S
C238 C236 1.382 . S
C238 C239 1.390 . S
C238 H243 0.949 . S
C239 C238 1.390 . S
C239 C244 1.399 . S
C240 C236 1.404 . S
C240 H241 0.950 . S
C240 C242 1.375 . S
H241 C240 0.950 . S
C242 C240 1.375 . S
C242 C244 1.382 . S
C242 H246 0.950 . S
H243 C238 0.949 . S
C244 C239 1.399 . S
C244 C242 1.382 . S
C244 H245 0.952 . S
H245 C244 0.952 . S
H246 C242 0.950 . S
H247 C248 0.949 . S
C248 H247 0.949 . S
C248 C249 1.395 . S
C248 C250 1.391 . S
C249 C248 1.395 . S
C249 C252 1.390 . S
C250 C248 1.391 . S
C250 C254 1.387 . S
C250 C255 1.491 . S
H251 C252 0.950 . S
C252 C249 1.390 . S
C252 H251 0.950 . S
C252 C253 1.378 . S
C253 C252 1.378 . S
C253 C254 1.409 . S
C254 C250 1.387 . S
C254 C253 1.409 . S
C254 H256 0.951 . S
C255 C250 1.491 . S
C255 C257 1.382 . S
C255 C259 1.404 . S
H256 C254 0.951 . S
C257 C255 1.382 . S
C257 C258 1.390 . S
C257 H262 0.949 . S
C258 C257 1.390 . S
C258 C263 1.399 . S
C259 C255 1.404 . S
C259 H260 0.950 . S
C259 C261 1.375 . S
H260 C259 0.950 . S
C261 C259 1.375 . S
C261 C263 1.382 . S
C261 H265 0.950 . S
H262 C257 0.949 . S
C263 C258 1.399 . S
C263 C261 1.382 . S
C263 H264 0.952 . S
H264 C263 0.952 . S
H265 C261 0.950 . S
H266 C267 0.949 . S
C267 H266 0.949 . S
C267 C268 1.395 . S
C267 C269 1.391 . S
C268 C267 1.395 . S
C268 C271 1.390 . S
C269 C267 1.391 . S
C269 C273 1.387 . S
C269 C274 1.491 . S
H270 C271 0.950 . S
C271 C268 1.390 . S
C271 H270 0.950 . S
C271 C272 1.378 . S
C272 C271 1.378 . S
C272 C273 1.409 . S
C273 C269 1.387 . S
C273 C272 1.409 . S
C273 H275 0.951 . S
C274 C269 1.491 . S
C274 C276 1.382 . S
C274 C278 1.404 . S
H275 C273 0.951 . S
C276 C274 1.382 . S
C276 C277 1.390 . S
C276 H281 0.949 . S
C277 C276 1.390 . S
C277 C282 1.399 . S
C278 C274 1.404 . S
C278 H279 0.950 . S
C278 C280 1.375 . S
H279 C278 0.950 . S
C280 C278 1.375 . S
C280 C282 1.382 . S
C280 H284 0.950 . S
H281 C276 0.949 . S
C282 C277 1.399 . S
C282 C280 1.382 . S
C282 H283 0.952 . S
H283 C282 0.952 . S
H284 C280 0.950 . S
H285 C286 0.949 . S
C286 H285 0.949 . S
C286 C287 1.395 . S
C286 C288 1.391 . S
C287 C286 1.395 . S
C287 C290 1.390 . S
C288 C286 1.391 . S
C288 C292 1.387 . S
C288 C293 1.491 . S
H289 C290 0.950 . S
C290 C287 1.390 . S
C290 H289 0.950 . S
C290 C291 1.378 . S
C291 C290 1.378 . S
C291 C292 1.409 . S
C292 C288 1.387 . S
C292 C291 1.409 . S
C292 H294 0.951 . S
C293 C288 1.491 . S
C293 C295 1.382 . S
C293 C297 1.404 . S
H294 C292 0.951 . S
C295 C293 1.382 . S
C295 C296 1.390 . S
C295 H300 0.949 . S
C296 C295 1.390 . S
C296 C301 1.399 . S
C297 C293 1.404 . S
C297 H298 0.950 . S
C297 C299 1.375 . S
H298 C297 0.950 . S
C299 C297 1.375 . S
C299 C301 1.382 . S
C299 H303 0.950 . S
H300 C295 0.949 . S
C301 C296 1.399 . S
C301 C299 1.382 . S
C301 H302 0.952 . S
H302 C301 0.952 . S
H303 C299 0.950 . S
H304 C305 0.949 . S
C305 H304 0.949 . S
C305 C306 1.395 . S
C305 C307 1.391 . S
C306 C305 1.395 . S
C306 C309 1.390 . S
C307 C305 1.391 . S
C307 C311 1.387 . S
C307 C312 1.491 . S
H308 C309 0.950 . S
C309 C306 1.390 . S
C309 H308 0.950 . S
C309 C310 1.378 . S
C310 C309 1.378 . S
C310 C311 1.409 . S
C311 C307 1.387 . S
C311 C310 1.409 . S
C311 H313 0.951 . S
C312 C307 1.491 . S
C312 C314 1.382 . S
C312 C316 1.404 . S
H313 C311 0.951 . S
C314 C312 1.382 . S
C314 C315 1.390 . S
C314 H319 0.949 . S
C315 C314 1.390 . S
C315 C320 1.399 . S
C316 C312 1.404 . S
C316 H317 0.950 . S
C316 C318 1.375 . S
H317 C316 0.950 . S
C318 C316 1.375 . S
C318 C320 1.382 . S
C318 H322 0.950 . S
H319 C314 0.949 . S
C320 C315 1.399 . S
C320 C318 1.382 . S
C320 H321 0.952 . S
H321 C320 0.952 . S
H322 C318 0.950 . S
H323 C324 0.949 . S
C324 H323 0.949 . S
C324 C325 1.395 . S
C324 C326 1.391 . S
C325 C324 1.395 . S
C325 C328 1.390 . S
C326 C324 1.391 . S
C326 C330 1.387 . S
C326 C331 1.491 . S
H327 C328 0.950 . S
C328 C325 1.390 . S
C328 H327 0.950 . S
C328 C329 1.378 . S
C329 C328 1.378 . S
C329 C330 1.409 . S
C330 C326 1.387 . S
C330 C329 1.409 . S
C330 H332 0.951 . S
C331 C326 1.491 . S
C331 C333 1.382 . S
C331 C335 1.404 . S
H332 C330 0.951 . S
C333 C331 1.382 . S
C333 C334 1.390 . S
C333 H338 0.949 . S
C334 C333 1.390 . S
C334 C339 1.399 . S
C335 C331 1.404 . S
C335 H336 0.950 . S
C335 C337 1.375 . S
H336 C335 0.950 . S
C337 C335 1.375 . S
C337 C339 1.382 . S
C337 H341 0.950 . S
H338 C333 0.949 . S
C339 C334 1.399 . S
C339 C337 1.382 . S
C339 H340 0.952 . S
H340 C339 0.952 . S
H341 C337 0.950 . S
Tb342 O345 2.453 . S
Tb342 O346 2.596 1_545 S
Tb342 O347 2.374 1_545 S
Tb342 O355 2.343 1_554 S
Tb342 O357 2.353 . S
Tb342 O359 2.427 . S
Tb342 O360 2.513 . S
C343 O347 1.251 . S
C343 O349 1.263 1_554 S
Tb344 O346 2.343 1_556 S
Tb344 O349 2.353 . S
Tb344 O352 2.427 1_556 S
Tb344 O353 2.513 1_556 S
Tb344 O354 2.453 . S
Tb344 O355 2.596 1_565 S
Tb344 O356 2.374 1_566 S
O345 Tb342 2.453 . S
O345 C361 1.245 1_545 S
O346 Tb342 2.596 1_565 S
O346 Tb344 2.343 1_554 S
O346 C361 1.259 . S
O347 Tb342 2.374 1_565 S
O347 C343 1.251 . S
C348 O352 1.275 . S
C348 O353 1.246 . S
O349 C343 1.263 1_556 S
O349 Tb344 2.353 . S
C350 O354 1.245 1_545 S
C350 O355 1.259 . S
C351 O356 1.250 . S
C351 O357 1.263 . S
O352 Tb344 2.427 1_554 S
O352 C348 1.275 . S
O353 Tb344 2.513 1_554 S
O353 C348 1.246 . S
O354 Tb344 2.453 . S
O354 C350 1.245 1_565 S
O355 Tb342 2.343 1_556 S
O355 Tb344 2.596 1_545 S
O355 C350 1.259 . S
O356 Tb344 2.374 1_544 S
O356 C351 1.250 . S
O357 Tb342 2.353 . S
O357 C351 1.263 . S
C358 O359 1.275 . S
C358 O360 1.246 . S
O359 Tb342 2.427 . S
O359 C358 1.275 . S
O360 Tb342 2.513 . S
O360 C358 1.246 . S
C361 O345 1.245 1_565 S
C361 O346 1.259 . S
Tb362 O365 2.453 . S
Tb362 O366 2.596 1_655 S
Tb362 O367 2.374 1_655 S
Tb362 O375 2.343 1_554 S
Tb362 O377 2.353 . S
Tb362 O379 2.427 . S
Tb362 O380 2.513 1_554 S
C363 O367 1.251 . S
C363 O369 1.255 1_554 S
Tb364 O366 2.343 1_556 S
Tb364 O369 2.354 . S
Tb364 O372 2.427 1_556 S
Tb364 O373 2.513 1_556 S
Tb364 O374 2.453 . S
Tb364 O375 2.596 1_455 S
Tb364 O376 2.381 1_455 S
O365 Tb362 2.453 . S
O365 C381 1.245 1_655 S
O366 Tb362 2.596 1_455 S
O366 Tb364 2.343 1_554 S
O366 C381 1.259 . S
O367 Tb362 2.374 1_455 S
O367 C363 1.251 . S
C368 O372 1.275 . S
C368 O373 1.246 . S
O369 C363 1.255 1_556 S
O369 Tb364 2.354 . S
C370 O374 1.245 1_655 S
C370 O375 1.259 . S
C371 O376 1.242 1_554 S
C371 O377 1.263 . S
O372 Tb364 2.427 1_554 S
O372 C368 1.275 . S
O373 Tb364 2.513 1_554 S
O373 C368 1.246 . S
O374 Tb364 2.453 . S
O374 C370 1.245 1_455 S
O375 Tb362 2.343 1_556 S
O375 Tb364 2.596 1_655 S
O375 C370 1.259 . S
O376 Tb364 2.381 1_655 S
O376 C371 1.242 1_556 S
O377 Tb362 2.353 . S
O377 C371 1.263 . S
C378 O379 1.275 1_556 S
C378 O380 1.246 . S
O379 Tb362 2.427 . S
O379 C378 1.275 1_554 S
O380 Tb362 2.513 1_556 S
O380 C378 1.246 . S
C381 O365 1.245 1_455 S
C381 O366 1.259 . S
Tb382 O385 2.453 . S
Tb382 O386 2.596 . S
Tb382 O387 2.374 1_556 S
Tb382 O395 2.343 1_556 S
Tb382 O397 2.353 1_556 S
Tb382 O399 2.427 1_556 S
Tb382 O400 2.513 1_556 S
C383 O387 1.251 . S
C383 O389 1.263 . S
Tb384 O386 2.343 1_554 S
Tb384 O389 2.353 . S
Tb384 O392 2.427 . S
Tb384 O393 2.513 . S
Tb384 O394 2.453 . S
Tb384 O395 2.596 . S
Tb384 O396 2.374 . S
O385 Tb382 2.453 . S
O385 C401 1.245 . S
O386 Tb382 2.596 . S
O386 Tb384 2.343 1_556 S
O386 C401 1.259 . S
O387 Tb382 2.374 1_554 S
O387 C383 1.251 . S
C388 O392 1.288 . S
C388 O393 1.249 . S
O389 C383 1.263 . S
O389 Tb384 2.353 . S
C390 O394 1.245 . S
C390 O395 1.259 . S
C391 O396 1.250 . S
C391 O397 1.263 . S
O392 Tb384 2.427 . S
O392 C388 1.288 . S
O393 Tb384 2.513 . S
O393 C388 1.249 . S
O394 Tb384 2.453 . S
O394 C390 1.245 . S
O395 Tb382 2.343 1_554 S
O395 Tb384 2.596 . S
O395 C390 1.259 . S
O396 Tb384 2.374 . S
O396 C391 1.250 . S
O397 Tb382 2.353 1_554 S
O397 C391 1.263 . S
C398 O399 1.275 . S
C398 O400 1.246 . S
O399 Tb382 2.427 1_554 S
O399 C398 1.275 . S
O400 Tb382 2.513 1_554 S
O400 C398 1.246 . S
C401 O385 1.245 . S
C401 O386 1.259 . S
Tb402 O405 2.453 . S
Tb402 O406 2.596 . S
Tb402 O407 2.374 . S
Tb402 O415 2.343 . S
Tb402 O417 2.353 . S
Tb402 O419 2.427 . S
Tb402 O420 2.513 . S
C403 O407 1.251 . S
C403 O409 1.263 . S
Tb404 O406 2.343 . S
Tb404 O409 2.353 . S
Tb404 O412 2.427 . S
Tb404 O413 2.513 . S
Tb404 O414 2.453 . S
Tb404 O415 2.596 . S
Tb404 O416 2.374 . S
O405 Tb402 2.453 . S
O405 C421 1.245 . S
O406 Tb402 2.596 . S
O406 Tb404 2.343 . S
O406 C421 1.259 . S
O407 Tb402 2.374 . S
O407 C403 1.251 . S
C408 O412 1.275 . S
C408 O413 1.246 . S
O409 C403 1.263 . S
O409 Tb404 2.353 . S
C410 O414 1.245 . S
C410 O415 1.259 . S
C411 O416 1.250 . S
C411 O417 1.263 . S
O412 Tb404 2.427 . S
O412 C408 1.275 . S
O413 Tb404 2.513 . S
O413 C408 1.246 . S
O414 Tb404 2.453 . S
O414 C410 1.245 . S
O415 Tb402 2.343 . S
O415 Tb404 2.596 . S
O415 C410 1.259 . S
O416 Tb404 2.374 . S
O416 C411 1.250 . S
O417 Tb402 2.353 . S
O417 C411 1.263 . S
C418 O419 1.275 . S
C418 O420 1.246 . S
O419 Tb402 2.427 . S
O419 C418 1.275 . S
O420 Tb402 2.513 . S
O420 C418 1.246 . S
C421 O405 1.245 . S
C421 O406 1.259 . S
Tb422 O425 2.453 . S
Tb422 O426 2.596 . S
Tb422 O427 2.374 . S
Tb422 O435 2.343 . S
Tb422 O437 2.353 . S
Tb422 O439 2.427 . S
Tb422 O440 2.513 . S
C423 O427 1.251 . S
C423 O429 1.263 . S
Tb424 O426 2.343 . S
Tb424 O429 2.353 . S
Tb424 O432 2.427 . S
Tb424 O433 2.513 . S
Tb424 O434 2.453 . S
Tb424 O435 2.596 . S
Tb424 O436 2.374 . S
O425 Tb422 2.453 . S
O425 C441 1.245 . S
O426 Tb422 2.596 . S
O426 Tb424 2.343 . S
O426 C441 1.259 . S
O427 Tb422 2.374 . S
O427 C423 1.251 . S
C428 O432 1.275 . S
C428 O433 1.246 . S
O429 C423 1.263 . S
O429 Tb424 2.353 . S
C430 O434 1.245 . S
C430 O435 1.259 . S
C431 O436 1.250 . S
C431 O437 1.263 . S
O432 Tb424 2.427 . S
O432 C428 1.275 . S
O433 Tb424 2.513 . S
O433 C428 1.246 . S
O434 Tb424 2.453 . S
O434 C430 1.245 . S
O435 Tb422 2.343 . S
O435 Tb424 2.596 . S
O435 C430 1.259 . S
O436 Tb424 2.374 . S
O436 C431 1.250 . S
O437 Tb422 2.353 . S
O437 C431 1.263 . S
C438 O439 1.275 . S
C438 O440 1.246 . S
O439 Tb422 2.427 . S
O439 C438 1.275 . S
O440 Tb422 2.513 . S
O440 C438 1.246 . S
C441 O425 1.245 . S
C441 O426 1.259 . S
Tb442 O445 2.453 . S
Tb442 O446 2.596 . S
Tb442 O447 2.374 . S
Tb442 O455 2.343 . S
Tb442 O457 2.353 . S
Tb442 O459 2.427 . S
Tb442 O460 2.513 . S
C443 O447 1.251 . S
C443 O449 1.263 . S
Tb444 O446 2.343 . S
Tb444 O449 2.353 . S
Tb444 O452 2.427 . S
Tb444 O453 2.513 . S
Tb444 O454 2.453 . S
Tb444 O455 2.596 . S
Tb444 O456 2.374 . S
O445 Tb442 2.453 . S
O445 C461 1.245 . S
O446 Tb442 2.596 . S
O446 Tb444 2.343 . S
O446 C461 1.259 . S
O447 Tb442 2.374 . S
O447 C443 1.251 . S
C448 O452 1.275 . S
C448 O453 1.246 . S
O449 C443 1.263 . S
O449 Tb444 2.353 . S
C450 O454 1.245 . S
C450 O455 1.259 . S
C451 O456 1.250 . S
C451 O457 1.263 . S
O452 Tb444 2.427 . S
O452 C448 1.275 . S
O453 Tb444 2.513 . S
O453 C448 1.246 . S
O454 Tb444 2.453 . S
O454 C450 1.245 . S
O455 Tb442 2.343 . S
O455 Tb444 2.596 . S
O455 C450 1.259 . S
O456 Tb444 2.374 . S
O456 C451 1.250 . S
O457 Tb442 2.353 . S
O457 C451 1.263 . S
C458 O459 1.275 . S
C458 O460 1.246 . S
O459 Tb442 2.427 . S
O459 C458 1.275 . S
O460 Tb442 2.513 . S
O460 C458 1.246 . S
C461 O445 1.245 . S
C461 O446 1.259 . S
Tb462 O465 2.453 . S
Tb462 O466 2.596 . S
Tb462 O467 2.374 . S
Tb462 O475 2.343 . S
Tb462 O477 2.353 . S
Tb462 O479 2.427 . S
Tb462 O480 2.513 . S
C463 O467 1.251 . S
C463 O469 1.263 . S
Tb464 O466 2.343 . S
Tb464 O469 2.353 . S
Tb464 O472 2.427 . S
Tb464 O473 2.513 . S
Tb464 O474 2.453 . S
Tb464 O475 2.596 . S
Tb464 O476 2.374 . S
O465 Tb462 2.453 . S
O465 C481 1.245 . S
O466 Tb462 2.596 . S
O466 Tb464 2.343 . S
O466 C481 1.259 . S
O467 Tb462 2.374 . S
O467 C463 1.251 . S
C468 O472 1.275 . S
C468 O473 1.246 . S
O469 C463 1.263 . S
O469 Tb464 2.353 . S
C470 O474 1.245 . S
C470 O475 1.259 . S
C471 O476 1.250 . S
C471 O477 1.263 . S
O472 Tb464 2.427 . S
O472 C468 1.275 . S
O473 Tb464 2.513 . S
O473 C468 1.246 . S
O474 Tb464 2.453 . S
O474 C470 1.245 . S
O475 Tb462 2.343 . S
O475 Tb464 2.596 . S
O475 C470 1.259 . S
O476 Tb464 2.374 . S
O476 C471 1.250 . S
O477 Tb462 2.353 . S
O477 C471 1.263 . S
C478 O479 1.275 . S
C478 O480 1.246 . S
O479 Tb462 2.427 . S
O479 C478 1.275 . S
O480 Tb462 2.513 . S
O480 C478 1.246 . S
C481 O465 1.245 . S
C481 O466 1.259 . S
Tb482 O485 2.453 . S
Tb482 O486 2.596 . S
Tb482 O487 2.374 . S
Tb482 O495 2.343 . S
Tb482 O497 2.353 . S
Tb482 O499 2.427 . S
Tb482 O500 2.513 . S
C483 O487 1.251 . S
C483 O489 1.263 . S
Tb484 O486 2.343 . S
Tb484 O489 2.353 . S
Tb484 O492 2.427 . S
Tb484 O493 2.513 . S
Tb484 O494 2.453 . S
Tb484 O495 2.596 . S
Tb484 O496 2.374 . S
O485 Tb482 2.453 . S
O485 C501 1.245 . S
O486 Tb482 2.596 . S
O486 Tb484 2.343 . S
O486 C501 1.259 . S
O487 Tb482 2.374 . S
O487 C483 1.251 . S
C488 O492 1.275 . S
C488 O493 1.246 . S
O489 C483 1.263 . S
O489 Tb484 2.353 . S
C490 O494 1.245 . S
C490 O495 1.259 . S
C491 O496 1.250 . S
C491 O497 1.263 . S
O492 Tb484 2.427 . S
O492 C488 1.275 . S
O493 Tb484 2.513 . S
O493 C488 1.246 . S
O494 Tb484 2.453 . S
O494 C490 1.245 . S
O495 Tb482 2.343 . S
O495 Tb484 2.596 . S
O495 C490 1.259 . S
O496 Tb484 2.374 . S
O496 C491 1.250 . S
O497 Tb482 2.353 . S
O497 C491 1.263 . S
C498 O499 1.275 . S
C498 O500 1.246 . S
O499 Tb482 2.427 . S
O499 C498 1.275 . S
O500 Tb482 2.513 . S
O500 C498 1.246 . S
C501 O485 1.245 . S
C501 O486 1.259 . S
Tb502 O505 2.453 . S
Tb502 O506 2.596 . S
Tb502 O507 2.374 . S
Tb502 O515 2.343 . S
Tb502 O517 2.353 . S
Tb502 O519 2.427 . S
Tb502 O520 2.513 . S
C503 O507 1.251 . S
C503 O509 1.263 . S
Tb504 O506 2.343 . S
Tb504 O509 2.353 . S
Tb504 O512 2.427 . S
Tb504 O513 2.513 . S
Tb504 O514 2.453 . S
Tb504 O515 2.596 . S
Tb504 O516 2.374 . S
O505 Tb502 2.453 . S
O505 C521 1.245 . S
O506 Tb502 2.596 . S
O506 Tb504 2.343 . S
O506 C521 1.259 . S
O507 Tb502 2.374 . S
O507 C503 1.251 . S
C508 O512 1.275 . S
C508 O513 1.246 . S
O509 C503 1.263 . S
O509 Tb504 2.353 . S
C510 O514 1.245 . S
C510 O515 1.259 . S
C511 O516 1.250 . S
C511 O517 1.263 . S
O512 Tb504 2.427 . S
O512 C508 1.275 . S
O513 Tb504 2.513 . S
O513 C508 1.246 . S
O514 Tb504 2.453 . S
O514 C510 1.245 . S
O515 Tb502 2.343 . S
O515 Tb504 2.596 . S
O515 C510 1.259 . S
O516 Tb504 2.374 . S
O516 C511 1.250 . S
O517 Tb502 2.353 . S
O517 C511 1.263 . S
C518 O519 1.275 . S
C518 O520 1.246 . S
O519 Tb502 2.427 . S
O519 C518 1.275 . S
O520 Tb502 2.513 . S
O520 C518 1.246 . S
C521 O505 1.245 . S
C521 O506 1.259 . S
H522 C534 0.930 . S
H523 C536 0.930 . S
H524 C537 0.930 . S
H525 C541 0.959 . S
H526 C541 0.959 . S
H527 C541 0.961 . S
H528 C542 0.960 . S
H529 C542 0.961 . S
H530 C542 0.959 . S
H531 C545 0.929 . S
H532 C546 0.931 . S
H533 C548 0.930 . S
C534 H522 0.930 . S
C534 C535 1.399 . S
C534 C539 1.399 . S
C535 C534 1.399 . S
C535 C536 1.376 . S
C536 H523 0.930 . S
C536 C535 1.376 . S
C536 C537 1.388 . S
C537 H524 0.930 . S
C537 C536 1.388 . S
C537 C538 1.390 . S
C538 C537 1.390 . S
C538 C539 1.394 . S
C538 C544 1.465 . S
C539 C534 1.399 . S
C539 C538 1.394 . S
C539 C540 1.516 . S
C540 C539 1.516 . S
C540 C541 1.502 . S
C540 C542 1.561 . S
C540 C543 1.526 . S
C541 H525 0.959 . S
C541 H526 0.959 . S
C541 H527 0.961 . S
C541 C540 1.502 . S
C542 H528 0.960 . S
C542 H529 0.961 . S
C542 H530 0.959 . S
C542 C540 1.561 . S
C543 C540 1.526 . S
C543 C544 1.396 . S
C543 C548 1.390 . S
C544 C538 1.465 . S
C544 C543 1.396 . S
C544 C545 1.399 . S
C545 H531 0.929 . S
C545 C544 1.399 . S
C545 C546 1.385 . S
C546 H532 0.931 . S
C546 C545 1.385 . S
C546 C547 1.389 . S
C547 C546 1.389 . S
C547 C548 1.387 . S
C548 H533 0.930 . S
C548 C543 1.390 . S
C548 C547 1.387 . S
H549 C561 0.930 . S
H550 C563 0.930 . S
H551 C564 0.930 . S
H552 C568 0.959 . S
H553 C568 0.959 1_556 S
H554 C568 0.961 . S
H555 C569 0.960 . S
H556 C569 0.961 . S
H557 C569 0.959 . S
H558 C572 0.929 . S
H559 C573 0.931 . S
H560 C575 0.930 . S
C561 H549 0.930 . S
C561 C562 1.399 . S
C561 C566 1.399 . S
C562 C561 1.399 . S
C562 C563 1.376 . S
C563 H550 0.930 . S
C563 C562 1.376 . S
C563 C564 1.388 . S
C564 H551 0.930 . S
C564 C563 1.388 . S
C564 C565 1.390 . S
C565 C564 1.390 . S
C565 C566 1.394 . S
C565 C571 1.465 . S
C566 C561 1.399 . S
C566 C565 1.394 . S
C566 C567 1.516 . S
C567 C566 1.516 . S
C567 C568 1.502 . S
C567 C569 1.561 . S
C567 C570 1.526 . S
C568 H552 0.959 . S
C568 H553 0.959 1_554 S
C568 H554 0.961 . S
C568 C567 1.502 . S
C569 H555 0.960 . S
C569 H556 0.961 . S
C569 H557 0.959 . S
C569 C567 1.561 . S
C570 C567 1.526 . S
C570 C571 1.396 . S
C570 C575 1.390 . S
C571 C565 1.465 . S
C571 C570 1.396 . S
C571 C572 1.399 . S
C572 H558 0.929 . S
C572 C571 1.399 . S
C572 C573 1.385 . S
C573 H559 0.931 . S
C573 C572 1.385 . S
C573 C574 1.389 . S
C574 C573 1.389 . S
C574 C575 1.387 . S
C575 H560 0.930 . S
C575 C570 1.390 . S
C575 C574 1.387 . S
H576 C588 0.930 . S
H577 C590 0.930 . S
H578 C591 0.930 1_556 S
H579 C595 0.959 . S
H580 C595 0.959 . S
H581 C595 0.961 . S
H582 C596 0.960 . S
H583 C596 0.961 . S
H584 C596 0.959 . S
H585 C599 0.929 . S
H586 C600 0.925 1_556 S
H587 C602 0.930 . S
C588 H576 0.930 . S
C588 C589 1.399 . S
C588 C593 1.399 . S
C589 C588 1.399 . S
C589 C590 1.376 . S
C590 H577 0.930 . S
C590 C589 1.376 . S
C590 C591 1.388 . S
C591 H578 0.930 1_554 S
C591 C590 1.388 . S
C591 C592 1.390 . S
C592 C591 1.390 . S
C592 C593 1.394 . S
C592 C598 1.465 . S
C593 C588 1.399 . S
C593 C592 1.394 . S
C593 C594 1.516 . S
C594 C593 1.516 . S
C594 C595 1.502 . S
C594 C596 1.561 . S
C594 C597 1.526 . S
C595 H579 0.959 . S
C595 H580 0.959 . S
C595 H581 0.961 . S
C595 C594 1.502 . S
C596 H582 0.960 . S
C596 H583 0.961 . S
C596 H584 0.959 . S
C596 C594 1.561 . S
C597 C594 1.526 . S
C597 C598 1.396 . S
C597 C602 1.390 . S
C598 C592 1.465 . S
C598 C597 1.396 . S
C598 C599 1.399 1_554 S
C599 H585 0.929 . S
C599 C598 1.399 1_556 S
C599 C600 1.384 1_556 S
C600 H586 0.925 1_554 S
C600 C599 1.384 1_554 S
C600 C601 1.396 . S
C601 C600 1.396 . S
C601 C602 1.387 . S
C602 H587 0.930 . S
C602 C597 1.390 . S
C602 C601 1.387 . S
H603 C615 0.930 . S
H604 C617 0.951 . S
H605 C618 0.930 . S
H606 C622 0.959 . S
H607 C622 0.959 . S
H608 C622 0.961 . S
H609 C623 0.960 . S
H610 C623 0.961 . S
H611 C623 0.959 . S
H612 C626 0.929 . S
H613 C627 0.931 . S
H614 C629 0.930 . S
C615 H603 0.930 . S
C615 C616 1.399 . S
C615 C620 1.399 . S
C616 C615 1.399 . S
C616 C617 1.349 1_556 S
C617 H604 0.951 . S
C617 C616 1.349 1_554 S
C617 C618 1.396 . S
C618 H605 0.930 . S
C618 C617 1.396 . S
C618 C619 1.390 1_554 S
C619 C618 1.390 1_556 S
C619 C620 1.394 . S
C619 C625 1.465 . S
C620 C615 1.399 . S
C620 C619 1.394 . S
C620 C621 1.516 . S
C621 C620 1.516 . S
C621 C622 1.502 . S
C621 C623 1.561 . S
C621 C624 1.526 . S
C622 H606 0.959 . S
C622 H607 0.959 . S
C622 H608 0.961 . S
C622 C621 1.502 . S
C623 H609 0.960 . S
C623 H610 0.961 . S
C623 H611 0.959 . S
C623 C621 1.561 . S
C624 C621 1.526 . S
C624 C625 1.398 . S
C624 C629 1.390 . S
C625 C619 1.465 . S
C625 C624 1.398 . S
C625 C626 1.397 1_556 S
C626 H612 0.929 . S
C626 C625 1.397 1_554 S
C626 C627 1.385 . S
C627 H613 0.931 . S
C627 C626 1.385 . S
C627 C628 1.387 1_554 S
C628 C627 1.387 1_556 S
C628 C629 1.389 . S
C629 H614 0.930 . S
C629 C624 1.390 . S
C629 C628 1.389 . S
H630 C642 0.930 . S
H631 C644 0.930 . S
H632 C645 0.930 . S
H633 C649 0.959 . S
H634 C649 0.959 . S
H635 C649 0.961 . S
H636 C650 0.960 . S
H637 C650 0.961 . S
H638 C650 0.959 . S
H639 C653 0.929 . S
H640 C654 0.931 1_554 S
H641 C656 0.930 . S
C642 H630 0.930 . S
C642 C643 1.399 . S
C642 C647 1.399 . S
C643 C642 1.399 . S
C643 C644 1.376 . S
C644 H631 0.930 . S
C644 C643 1.376 . S
C644 C645 1.388 . S
C645 H632 0.930 . S
C645 C644 1.388 . S
C645 C646 1.390 . S
C646 C645 1.390 . S
C646 C647 1.394 . S
C646 C652 1.465 . S
C647 C642 1.399 . S
C647 C646 1.394 . S
C647 C648 1.516 . S
C648 C647 1.516 . S
C648 C649 1.502 . S
C648 C650 1.561 . S
C648 C651 1.526 . S
C649 H633 0.959 . S
C649 H634 0.959 . S
C649 H635 0.961 . S
C649 C648 1.502 . S
C650 H636 0.960 . S
C650 H637 0.961 . S
C650 H638 0.959 . S
C650 C648 1.561 . S
C651 C648 1.526 . S
C651 C652 1.396 . S
C651 C656 1.390 . S
C652 C646 1.465 . S
C652 C651 1.396 . S
C652 C653 1.399 . S
C653 H639 0.929 . S
C653 C652 1.399 . S
C653 C654 1.385 . S
C654 H640 0.931 1_556 S
C654 C653 1.385 . S
C654 C655 1.389 . S
C655 C654 1.389 . S
C655 C656 1.387 . S
C656 H641 0.930 . S
C656 C651 1.390 . S
C656 C655 1.387 . S
H657 C669 0.930 . S
H658 C671 0.930 . S
H659 C672 0.930 . S
H660 C676 0.959 . S
H661 C676 0.959 . S
H662 C676 0.961 . S
H663 C677 0.960 . S
H664 C677 0.961 . S
H665 C677 0.959 . S
H666 C680 0.929 . S
H667 C681 0.931 . S
H668 C683 0.930 . S
C669 H657 0.930 . S
C669 C670 1.399 1_554 S
C669 C674 1.399 . S
C670 C669 1.399 1_556 S
C670 C671 1.376 . S
C671 H658 0.930 . S
C671 C670 1.376 . S
C671 C672 1.388 . S
C672 H659 0.930 . S
C672 C671 1.388 . S
C672 C673 1.390 . S
C673 C672 1.390 . S
C673 C674 1.394 1_556 S
C673 C679 1.465 . S
C674 C669 1.399 . S
C674 C673 1.394 1_554 S
C674 C675 1.516 . S
C675 C674 1.516 . S
C675 C676 1.502 . S
C675 C677 1.561 . S
C675 C678 1.526 . S
C676 H660 0.959 . S
C676 H661 0.959 . S
C676 H662 0.961 . S
C676 C675 1.502 . S
C677 H663 0.960 . S
C677 H664 0.961 . S
C677 H665 0.959 . S
C677 C675 1.561 . S
C678 C675 1.526 . S
C678 C679 1.396 1_554 S
C678 C683 1.390 . S
C679 C673 1.465 . S
C679 C678 1.396 1_556 S
C679 C680 1.399 . S
C680 H666 0.929 . S
C680 C679 1.399 . S
C680 C681 1.385 . S
C681 H667 0.931 . S
C681 C680 1.385 . S
C681 C682 1.389 1_556 S
C682 C681 1.389 1_554 S
C682 C683 1.387 . S
C683 H668 0.930 . S
C683 C678 1.390 . S
C683 C682 1.387 . S
H684 C696 0.923 1_554 S
H685 C698 0.930 . S
H686 C699 0.930 . S
H687 C703 0.959 . S
H688 C703 0.959 . S
H689 C703 0.961 . S
H690 C704 0.960 . S
H691 C704 0.961 . S
H692 C704 0.961 1_556 S
H693 C707 0.929 . S
H694 C708 0.931 . S
H695 C710 0.930 . S
C696 H684 0.923 1_556 S
C696 C697 1.406 . S
C696 C701 1.399 . S
C697 C696 1.406 . S
C697 C698 1.376 . S
C698 H685 0.930 . S
C698 C697 1.376 . S
C698 C699 1.388 . S
C699 H686 0.930 . S
C699 C698 1.388 . S
C699 C700 1.390 . S
C700 C699 1.390 . S
C700 C701 1.394 . S
C700 C706 1.465 . S
C701 C696 1.399 . S
C701 C700 1.394 . S
C701 C702 1.516 1_556 S
C702 C701 1.516 1_554 S
C702 C703 1.502 . S
C702 C704 1.561 . S
C702 C705 1.528 . S
C703 H687 0.959 . S
C703 H688 0.959 . S
C703 H689 0.961 . S
C703 C702 1.502 . S
C704 H690 0.960 . S
C704 H691 0.961 . S
C704 H692 0.961 1_554 S
C704 C702 1.561 . S
C705 C702 1.528 . S
C705 C706 1.390 1_554 S
C705 C710 1.392 . S
C706 C700 1.465 . S
C706 C705 1.390 1_556 S
C706 C707 1.399 . S
C707 H693 0.929 . S
C707 C706 1.399 . S
C707 C708 1.385 . S
C708 H694 0.931 . S
C708 C707 1.385 . S
C708 C709 1.389 . S
C709 C708 1.389 . S
C709 C710 1.387 1_556 S
C710 H695 0.930 . S
C710 C705 1.392 . S
C710 C709 1.387 1_554 S
H711 C723 0.930 . S
H712 C725 0.930 . S
H713 C726 0.945 . S
H714 C730 0.959 . S
H715 C730 0.959 . S
H716 C730 0.961 . S
H717 C731 0.960 . S
H718 C731 0.961 . S
H719 C731 0.959 . S
H720 C734 0.929 1_554 S
H721 C735 0.931 1_554 S
H722 C737 0.930 . S
C723 H711 0.930 . S
C723 C724 1.399 . S
C723 C728 1.399 . S
C724 C723 1.399 . S
C724 C725 1.376 . S
C725 H712 0.930 . S
C725 C724 1.376 . S
C725 C726 1.388 . S
C726 H713 0.945 . S
C726 C725 1.388 . S
C726 C727 1.390 . S
C727 C726 1.390 . S
C727 C728 1.394 . S
C727 C733 1.465 . S
C728 C723 1.399 . S
C728 C727 1.394 . S
C728 C729 1.516 . S
C729 C728 1.516 . S
C729 C730 1.502 . S
C729 C731 1.561 . S
C729 C732 1.526 . S
C730 H714 0.959 . S
C730 H715 0.959 . S
C730 H716 0.961 . S
C730 C729 1.502 . S
C731 H717 0.960 . S
C731 H718 0.961 . S
C731 H719 0.959 . S
C731 C729 1.561 . S
C732 C729 1.526 . S
C732 C733 1.396 . S
C732 C737 1.390 . S
C733 C727 1.465 . S
C733 C732 1.396 . S
C733 C734 1.399 . S
C734 H720 0.929 1_556 S
C734 C733 1.399 . S
C734 C735 1.385 . S
C735 H721 0.931 1_556 S
C735 C734 1.385 . S
C735 C736 1.389 . S
C736 C735 1.389 . S
C736 C737 1.387 . S
C737 H722 0.930 . S
C737 C732 1.390 . S
C737 C736 1.387 . S
H738 C750 0.930 . S
H739 C752 0.930 . S
H740 C753 0.930 . S
H741 C757 0.959 . S
H742 C757 0.959 . S
H743 C757 0.961 . S
H744 C758 0.960 . S
H745 C758 0.961 . S
H746 C758 0.959 . S
H747 C761 0.929 . S
H748 C762 0.931 . S
H749 C764 0.930 . S
C750 H738 0.930 . S
C750 C751 1.399 . S
C750 C755 1.399 . S
C751 C750 1.399 . S
C751 C752 1.376 1_554 S
C752 H739 0.930 . S
C752 C751 1.376 1_556 S
C752 C753 1.388 . S
C753 H740 0.930 . S
C753 C752 1.388 . S
C753 C754 1.390 . S
C754 C753 1.390 . S
C754 C755 1.394 1_556 S
C754 C760 1.465 . S
C755 C750 1.399 . S
C755 C754 1.394 1_554 S
C755 C756 1.516 . S
C756 C755 1.516 . S
C756 C757 1.502 . S
C756 C758 1.561 . S
C756 C759 1.526 . S
C757 H741 0.959 . S
C757 H742 0.959 . S
C757 H743 0.961 . S
C757 C756 1.502 . S
C758 H744 0.960 . S
C758 H745 0.961 . S
C758 H746 0.959 . S
C758 C756 1.561 . S
C759 C756 1.526 . S
C759 C760 1.396 1_554 S
C759 C764 1.390 . S
C760 C754 1.465 . S
C760 C759 1.396 1_556 S
C760 C761 1.399 . S
C761 H747 0.929 . S
C761 C760 1.399 . S
C761 C762 1.385 . S
C762 H748 0.931 . S
C762 C761 1.385 . S
C762 C763 1.389 1_556 S
C763 C762 1.389 1_554 S
C763 C764 1.387 . S
C764 H749 0.930 . S
C764 C759 1.390 . S
C764 C763 1.387 . S
H765 C777 0.930 1_556 S
H766 C779 0.930 . S
H767 C780 0.930 . S
H768 C784 0.959 . S
H769 C784 0.959 . S
H770 C784 0.961 . S
H771 C785 0.960 . S
H772 C785 0.961 . S
H773 C785 0.959 . S
H774 C788 0.929 . S
H775 C789 0.931 . S
H776 C791 0.930 1_556 S
C777 H765 0.930 1_554 S
C777 C778 1.399 . S
C777 C782 1.399 . S
C778 C777 1.399 . S
C778 C779 1.376 . S
C779 H766 0.930 . S
C779 C778 1.376 . S
C779 C780 1.388 . S
C780 H767 0.930 . S
C780 C779 1.388 . S
C780 C781 1.390 . S
C781 C780 1.390 . S
C781 C782 1.394 . S
C781 C787 1.465 . S
C782 C777 1.399 . S
C782 C781 1.394 . S
C782 C783 1.516 1_554 S
C783 C782 1.516 1_556 S
C783 C784 1.502 . S
C783 C785 1.561 . S
C783 C786 1.526 1_556 S
C784 H768 0.959 . S
C784 H769 0.959 . S
C784 H770 0.961 . S
C784 C783 1.502 . S
C785 H771 0.960 . S
C785 H772 0.961 . S
C785 H773 0.959 . S
C785 C783 1.561 . S
C786 C783 1.526 1_554 S
C786 C787 1.396 . S
C786 C791 1.390 . S
C787 C781 1.465 . S
C787 C786 1.396 . S
C787 C788 1.399 . S
C788 H774 0.929 . S
C788 C787 1.399 . S
C788 C789 1.385 . S
C789 H775 0.931 . S
C789 C788 1.385 . S
C789 C790 1.389 . S
C790 C789 1.389 . S
C790 C791 1.387 . S
C791 H776 0.930 1_554 S
C791 C786 1.390 . S
C791 C790 1.387 . S
H792 C804 0.930 . S
H793 C806 0.930 . S
H794 C807 0.930 . S
H795 C811 0.978 . S
H796 C811 0.930 1_556 S
H797 C811 0.951 1_556 S
H798 C812 0.960 . S
H799 C812 0.961 1_556 S
H800 C812 0.959 . S
H801 C815 0.929 . S
H802 C816 0.931 . S
H803 C818 0.930 . S
C804 H792 0.930 . S
C804 C805 1.399 . S
C804 C809 1.399 . S
C805 C804 1.399 . S
C805 C806 1.376 . S
C806 H793 0.930 . S
C806 C805 1.376 . S
C806 C807 1.388 . S
C807 H794 0.930 . S
C807 C806 1.388 . S
C807 C808 1.390 . S
C808 C807 1.390 . S
C808 C809 1.394 . S
C808 C814 1.465 . S
C809 C804 1.399 . S
C809 C808 1.394 . S
C809 C810 1.516 . S
C810 C809 1.516 . S
C810 C811 1.526 . S
C810 C812 1.561 . S
C810 C813 1.526 . S
C811 H795 0.978 . S
C811 H796 0.930 1_554 S
C811 H797 0.951 1_554 S
C811 C810 1.526 . S
C812 H798 0.960 . S
C812 H799 0.961 1_554 S
C812 H800 0.959 . S
C812 C810 1.561 . S
C813 C810 1.526 . S
C813 C814 1.396 . S
C813 C818 1.390 . S
C814 C808 1.465 . S
C814 C813 1.396 . S
C814 C815 1.399 . S
C815 H801 0.929 . S
C815 C814 1.399 . S
C815 C816 1.385 . S
C816 H802 0.931 . S
C816 C815 1.385 . S
C816 C817 1.389 . S
C817 C816 1.389 . S
C817 C818 1.387 . S
C818 H803 0.930 . S
C818 C813 1.390 . S
C818 C817 1.387 . S
H819 C831 0.930 . S
H820 C833 0.930 . S
H821 C834 0.930 . S
H822 C838 0.959 . S
H823 C838 0.959 1_556 S
H824 C838 0.961 . S
H825 C839 0.960 . S
H826 C839 0.961 . S
H827 C839 0.959 . S
H828 C842 0.929 . S
H829 C843 0.931 . S
H830 C845 0.930 1_556 S
C831 H819 0.930 . S
C831 C832 1.399 . S
C831 C836 1.399 . S
C832 C831 1.399 . S
C832 C833 1.376 . S
C833 H820 0.930 . S
C833 C832 1.376 . S
C833 C834 1.388 . S
C834 H821 0.930 . S
C834 C833 1.388 . S
C834 C835 1.390 . S
C835 C834 1.390 . S
C835 C836 1.394 . S
C835 C841 1.465 . S
C836 C831 1.399 . S
C836 C835 1.394 . S
C836 C837 1.511 1_554 S
C837 C836 1.511 1_556 S
C837 C838 1.501 1_556 S
C837 C839 1.572 . S
C837 C840 1.522 1_556 S
C838 H822 0.959 . S
C838 H823 0.959 1_554 S
C838 H824 0.961 . S
C838 C837 1.501 1_554 S
C839 H825 0.960 . S
C839 H826 0.961 . S
C839 H827 0.959 . S
C839 C837 1.572 . S
C840 C837 1.522 1_554 S
C840 C841 1.396 . S
C840 C845 1.390 . S
C841 C835 1.465 . S
C841 C840 1.396 . S
C841 C842 1.399 . S
C842 H828 0.929 . S
C842 C841 1.399 . S
C842 C843 1.385 . S
C843 H829 0.931 . S
C843 C842 1.385 . S
C843 C844 1.389 . S
C844 C843 1.389 . S
C844 C845 1.387 . S
C845 H830 0.930 1_554 S
C845 C840 1.390 . S
C845 C844 1.387 . S
H846 C858 0.930 . S
H847 C860 0.930 . S
H848 C861 0.930 . S
H849 C865 0.945 1_455 S
H850 C865 0.935 1_455 S
H851 C865 0.974 . S
H852 C866 0.960 . S
H853 C866 0.961 . S
H854 C866 0.959 . S
H855 C869 0.929 . S
H856 C870 0.931 . S
H857 C872 0.930 . S
C858 H846 0.930 . S
C858 C859 1.399 . S
C858 C863 1.399 . S
C859 C858 1.399 . S
C859 C860 1.376 . S
C860 H847 0.930 . S
C860 C859 1.376 . S
C860 C861 1.388 . S
C861 H848 0.930 . S
C861 C860 1.388 . S
C861 C862 1.390 . S
C862 C861 1.390 . S
C862 C863 1.394 . S
C862 C868 1.465 1_655 S
C863 C858 1.399 . S
C863 C862 1.394 . S
C863 C864 1.516 . S
C864 C863 1.516 . S
C864 C865 1.529 . S
C864 C866 1.561 . S
C864 C867 1.526 1_655 S
C865 H849 0.945 1_655 S
C865 H850 0.935 1_655 S
C865 H851 0.974 . S
C865 C864 1.529 . S
C866 H852 0.960 . S
C866 H853 0.961 . S
C866 H854 0.959 . S
C866 C864 1.561 . S
C867 C864 1.526 1_455 S
C867 C868 1.396 . S
C867 C872 1.390 . S
C868 C862 1.465 1_455 S
C868 C867 1.396 . S
C868 C869 1.399 . S
C869 H855 0.929 . S
C869 C868 1.399 . S
C869 C870 1.385 . S
C870 H856 0.931 . S
C870 C869 1.385 . S
C870 C871 1.389 . S
C871 C870 1.389 . S
C871 C872 1.387 . S
C872 H857 0.930 . S
C872 C867 1.390 . S
C872 C871 1.387 . S
H873 C885 0.930 . S
H874 C887 0.930 . S
H875 C888 0.930 . S
H876 C892 0.959 . S
H877 C892 0.959 . S
H878 C892 0.961 . S
H879 C893 0.960 . S
H880 C893 0.961 . S
H881 C893 0.959 . S
H882 C896 0.929 . S
H883 C897 0.931 . S
H884 C899 0.930 . S
C885 H873 0.930 . S
C885 C886 1.399 . S
C885 C890 1.399 . S
C886 C885 1.399 . S
C886 C887 1.376 . S
C887 H874 0.930 . S
C887 C886 1.376 . S
C887 C888 1.388 . S
C888 H875 0.930 . S
C888 C887 1.388 . S
C888 C889 1.390 . S
C889 C888 1.390 . S
C889 C890 1.394 . S
C889 C895 1.465 . S
C890 C885 1.399 . S
C890 C889 1.394 . S
C890 C891 1.516 . S
C891 C890 1.516 . S
C891 C892 1.502 . S
C891 C893 1.561 . S
C891 C894 1.526 . S
C892 H876 0.959 . S
C892 H877 0.959 . S
C892 H878 0.961 . S
C892 C891 1.502 . S
C893 H879 0.960 . S
C893 H880 0.961 . S
C893 H881 0.959 . S
C893 C891 1.561 . S
C894 C891 1.526 . S
C894 C895 1.396 . S
C894 C899 1.390 . S
C895 C889 1.465 . S
C895 C894 1.396 . S
C895 C896 1.399 . S
C896 H882 0.929 . S
C896 C895 1.399 . S
C896 C897 1.385 . S
C897 H883 0.931 . S
C897 C896 1.385 . S
C897 C898 1.389 . S
C898 C897 1.389 . S
C898 C899 1.387 . S
C899 H884 0.930 . S
C899 C894 1.390 . S
C899 C898 1.387 . S
H900 C912 0.930 . S
H901 C914 0.930 . S
H902 C915 0.930 . S
H903 C919 0.959 . S
H904 C919 0.959 . S
H905 C919 0.961 . S
H906 C920 0.960 . S
H907 C920 0.961 1_565 S
H908 C920 0.959 1_565 S
H909 C923 0.929 . S
H910 C924 0.931 . S
H911 C926 0.930 . S
C912 H900 0.930 . S
C912 C913 1.399 . S
C912 C917 1.399 . S
C913 C912 1.399 . S
C913 C914 1.376 . S
C914 H901 0.930 . S
C914 C913 1.376 . S
C914 C915 1.388 . S
C915 H902 0.930 . S
C915 C914 1.388 . S
C915 C916 1.390 . S
C916 C915 1.390 . S
C916 C917 1.394 . S
C916 C922 1.465 1_545 S
C917 C912 1.399 . S
C917 C916 1.394 . S
C917 C918 1.516 . S
C918 C917 1.516 . S
C918 C919 1.502 . S
C918 C920 1.561 . S
C918 C921 1.526 1_545 S
C919 H903 0.959 . S
C919 H904 0.959 . S
C919 H905 0.961 . S
C919 C918 1.502 . S
C920 H906 0.960 . S
C920 H907 0.961 1_545 S
C920 H908 0.959 1_545 S
C920 C918 1.561 . S
C921 C918 1.526 1_565 S
C921 C922 1.396 . S
C921 C926 1.390 . S
C922 C916 1.465 1_565 S
C922 C921 1.396 . S
C922 C923 1.399 . S
C923 H909 0.929 . S
C923 C922 1.399 . S
C923 C924 1.385 . S
C924 H910 0.931 . S
C924 C923 1.385 . S
C924 C925 1.389 . S
C925 C924 1.389 . S
C925 C926 1.387 . S
C926 H911 0.930 . S
C926 C921 1.390 . S
C926 C925 1.387 . S
H927 C939 0.930 . S
H928 C941 0.930 . S
H929 C942 0.930 . S
H930 C946 0.959 . S
H931 C946 0.959 . S
H932 C946 0.961 . S
H933 C947 0.960 . S
H934 C947 0.961 . S
H935 C947 0.959 . S
H936 C950 0.929 . S
H937 C951 0.931 . S
H938 C953 0.930 . S
C939 H927 0.930 . S
C939 C940 1.399 . S
C939 C944 1.399 . S
C940 C939 1.399 . S
C940 C941 1.376 . S
C941 H928 0.930 . S
C941 C940 1.376 . S
C941 C942 1.388 . S
C942 H929 0.930 . S
C942 C941 1.388 . S
C942 C943 1.390 . S
C943 C942 1.390 . S
C943 C944 1.394 . S
C943 C949 1.465 . S
C944 C939 1.399 . S
C944 C943 1.394 . S
C944 C945 1.516 . S
C945 C944 1.516 . S
C945 C946 1.502 . S
C945 C947 1.561 . S
C945 C948 1.526 . S
C946 H930 0.959 . S
C946 H931 0.959 . S
C946 H932 0.961 . S
C946 C945 1.502 . S
C947 H933 0.960 . S
C947 H934 0.961 . S
C947 H935 0.959 . S
C947 C945 1.561 . S
C948 C945 1.526 . S
C948 C949 1.396 . S
C948 C953 1.390 . S
C949 C943 1.465 . S
C949 C948 1.396 . S
C949 C950 1.399 . S
C950 H936 0.929 . S
C950 C949 1.399 . S
C950 C951 1.385 . S
C951 H937 0.931 . S
C951 C950 1.385 . S
C951 C952 1.389 . S
C952 C951 1.389 . S
C952 C953 1.387 . S
C953 H938 0.930 . S
C953 C948 1.390 . S
C953 C952 1.387 . S
H954 C966 0.930 . S
H955 C968 0.930 . S
H956 C969 0.930 . S
H957 C973 0.959 . S
H958 C973 0.959 . S
H959 C973 0.961 . S
H960 C974 0.960 . S
H961 C974 0.961 . S
H962 C974 0.959 . S
H963 C977 0.929 . S
H964 C978 0.931 . S
H965 C980 0.930 . S
C966 H954 0.930 . S
C966 C967 1.399 . S
C966 C971 1.399 . S
C967 C966 1.399 . S
C967 C968 1.376 . S
C968 H955 0.930 . S
C968 C967 1.376 . S
C968 C969 1.388 . S
C969 H956 0.930 . S
C969 C968 1.388 . S
C969 C970 1.390 . S
C970 C969 1.390 . S
C970 C971 1.394 . S
C970 C976 1.465 . S
C971 C966 1.399 . S
C971 C970 1.394 . S
C971 C972 1.516 . S
C972 C971 1.516 . S
C972 C973 1.502 . S
C972 C974 1.561 . S
C972 C975 1.526 . S
C973 H957 0.959 . S
C973 H958 0.959 . S
C973 H959 0.961 . S
C973 C972 1.502 . S
C974 H960 0.960 . S
C974 H961 0.961 . S
C974 H962 0.959 . S
C974 C972 1.561 . S
C975 C972 1.526 . S
C975 C976 1.396 . S
C975 C980 1.390 . S
C976 C970 1.465 . S
C976 C975 1.396 . S
C976 C977 1.399 . S
C977 H963 0.929 . S
C977 C976 1.399 . S
C977 C978 1.385 . S
C978 H964 0.931 . S
C978 C977 1.385 . S
C978 C979 1.389 . S
C979 C978 1.389 . S
C979 C980 1.387 . S
C980 H965 0.930 . S
C980 C975 1.390 . S
C980 C979 1.387 . S
H981 C993 0.930 . S
H982 C995 0.930 . S
H983 C996 0.930 . S
H984 C1000 0.959 . S
H985 C1000 0.959 . S
H986 C1000 0.961 . S
H987 C1001 0.960 . S
H988 C1001 0.961 . S
H989 C1001 0.959 . S
H990 C1004 0.929 . S
H991 C1005 0.931 . S
H992 C1007 0.930 . S
C993 H981 0.930 . S
C993 C994 1.399 . S
C993 C998 1.399 . S
C994 C993 1.399 . S
C994 C995 1.376 . S
C995 H982 0.930 . S
C995 C994 1.376 . S
C995 C996 1.388 . S
C996 H983 0.930 . S
C996 C995 1.388 . S
C996 C997 1.390 . S
C997 C996 1.390 . S
C997 C998 1.394 . S
C997 C1003 1.465 . S
C998 C993 1.399 . S
C998 C997 1.394 . S
C998 C999 1.516 . S
C999 C998 1.516 . S
C999 C1000 1.502 . S
C999 C1001 1.561 . S
C999 C1002 1.526 . S
C1000 H984 0.959 . S
C1000 H985 0.959 . S
C1000 H986 0.961 . S
C1000 C999 1.502 . S
C1001 H987 0.960 . S
C1001 H988 0.961 . S
C1001 H989 0.959 . S
C1001 C999 1.561 . S
C1002 C999 1.526 . S
C1002 C1003 1.396 . S
C1002 C1007 1.390 . S
C1003 C997 1.465 . S
C1003 C1002 1.396 . S
C1003 C1004 1.399 . S
C1004 H990 0.929 . S
C1004 C1003 1.399 . S
C1004 C1005 1.385 . S
C1005 H991 0.931 . S
C1005 C1004 1.385 . S
C1005 C1006 1.389 . S
C1006 C1005 1.389 . S
C1006 C1007 1.387 . S
C1007 H992 0.930 . S
C1007 C1002 1.390 . S
C1007 C1006 1.387 . S
H1008 C1020 0.930 . S
H1009 C1022 0.930 . S
H1010 C1023 0.930 . S
H1011 C1027 0.959 . S
H1012 C1027 0.959 . S
H1013 C1027 0.961 . S
H1014 C1028 0.960 . S
H1015 C1028 0.961 . S
H1016 C1028 0.959 . S
H1017 C1031 0.929 . S
H1018 C1032 0.931 . S
H1019 C1034 0.930 . S
C1020 H1008 0.930 . S
C1020 C1021 1.399 . S
C1020 C1025 1.399 . S
C1021 C1020 1.399 . S
C1021 C1022 1.376 . S
C1022 H1009 0.930 . S
C1022 C1021 1.376 . S
C1022 C1023 1.388 . S
C1023 H1010 0.930 . S
C1023 C1022 1.388 . S
C1023 C1024 1.390 . S
C1024 C1023 1.390 . S
C1024 C1025 1.394 . S
C1024 C1030 1.465 . S
C1025 C1020 1.399 . S
C1025 C1024 1.394 . S
C1025 C1026 1.516 . S
C1026 C1025 1.516 . S
C1026 C1027 1.502 . S
C1026 C1028 1.561 . S
C1026 C1029 1.526 . S
C1027 H1011 0.959 . S
C1027 H1012 0.959 . S
C1027 H1013 0.961 . S
C1027 C1026 1.502 . S
C1028 H1014 0.960 . S
C1028 H1015 0.961 . S
C1028 H1016 0.959 . S
C1028 C1026 1.561 . S
C1029 C1026 1.526 . S
C1029 C1030 1.396 . S
C1029 C1034 1.390 . S
C1030 C1024 1.465 . S
C1030 C1029 1.396 . S
C1030 C1031 1.399 . S
C1031 H1017 0.929 . S
C1031 C1030 1.399 . S
C1031 C1032 1.385 . S
C1032 H1018 0.931 . S
C1032 C1031 1.385 . S
C1032 C1033 1.389 . S
C1033 C1032 1.389 . S
C1033 C1034 1.387 . S
C1034 H1019 0.930 . S
C1034 C1029 1.390 . S
C1034 C1033 1.387 . S
H1035 C1047 0.930 . S
H1036 C1049 0.930 . S
H1037 C1050 0.930 . S
H1038 C1054 0.959 . S
H1039 C1054 0.959 . S
H1040 C1054 0.961 . S
H1041 C1055 0.960 . S
H1042 C1055 0.961 . S
H1043 C1055 0.959 . S
H1044 C1058 0.929 . S
H1045 C1059 0.931 . S
H1046 C1061 0.930 . S
C1047 H1035 0.930 . S
C1047 C1048 1.399 . S
C1047 C1052 1.399 . S
C1048 C1047 1.399 . S
C1048 C1049 1.376 . S
C1049 H1036 0.930 . S
C1049 C1048 1.376 . S
C1049 C1050 1.388 . S
C1050 H1037 0.930 . S
C1050 C1049 1.388 . S
C1050 C1051 1.390 . S
C1051 C1050 1.390 . S
C1051 C1052 1.394 . S
C1051 C1057 1.465 . S
C1052 C1047 1.399 . S
C1052 C1051 1.394 . S
C1052 C1053 1.516 . S
C1053 C1052 1.516 . S
C1053 C1054 1.502 . S
C1053 C1055 1.561 . S
C1053 C1056 1.526 . S
C1054 H1038 0.959 . S
C1054 H1039 0.959 . S
C1054 H1040 0.961 . S
C1054 C1053 1.502 . S
C1055 H1041 0.960 . S
C1055 H1042 0.961 . S
C1055 H1043 0.959 . S
C1055 C1053 1.561 . S
C1056 C1053 1.526 . S
C1056 C1057 1.396 . S
C1056 C1061 1.390 . S
C1057 C1051 1.465 . S
C1057 C1056 1.396 . S
C1057 C1058 1.399 . S
C1058 H1044 0.929 . S
C1058 C1057 1.399 . S
C1058 C1059 1.385 . S
C1059 H1045 0.931 . S
C1059 C1058 1.385 . S
C1059 C1060 1.389 . S
C1060 C1059 1.389 . S
C1060 C1061 1.387 . S
C1061 H1046 0.930 . S
C1061 C1056 1.390 . S
C1061 C1060 1.387 . S
H1062 C1074 0.930 . S
H1063 C1076 0.930 . S
H1064 C1077 0.930 . S
H1065 C1081 0.959 . S
H1066 C1081 0.959 . S
H1067 C1081 0.961 . S
H1068 C1082 0.960 . S
H1069 C1082 0.961 . S
H1070 C1082 0.959 . S
H1071 C1085 0.929 . S
H1072 C1086 0.931 . S
H1073 C1088 0.930 . S
C1074 H1062 0.930 . S
C1074 C1075 1.399 . S
C1074 C1079 1.399 . S
C1075 C1074 1.399 . S
C1075 C1076 1.376 . S
C1076 H1063 0.930 . S
C1076 C1075 1.376 . S
C1076 C1077 1.388 . S
C1077 H1064 0.930 . S
C1077 C1076 1.388 . S
C1077 C1078 1.390 . S
C1078 C1077 1.390 . S
C1078 C1079 1.394 . S
C1078 C1084 1.465 . S
C1079 C1074 1.399 . S
C1079 C1078 1.394 . S
C1079 C1080 1.516 . S
C1080 C1079 1.516 . S
C1080 C1081 1.502 . S
C1080 C1082 1.561 . S
C1080 C1083 1.526 . S
C1081 H1065 0.959 . S
C1081 H1066 0.959 . S
C1081 H1067 0.961 . S
C1081 C1080 1.502 . S
C1082 H1068 0.960 . S
C1082 H1069 0.961 . S
C1082 H1070 0.959 . S
C1082 C1080 1.561 . S
C1083 C1080 1.526 . S
C1083 C1084 1.396 . S
C1083 C1088 1.390 . S
C1084 C1078 1.465 . S
C1084 C1083 1.396 . S
C1084 C1085 1.399 . S
C1085 H1071 0.929 . S
C1085 C1084 1.399 . S
C1085 C1086 1.385 . S
C1086 H1072 0.931 . S
C1086 C1085 1.385 . S
C1086 C1087 1.389 . S
C1087 C1086 1.389 . S
C1087 C1088 1.387 . S
C1088 H1073 0.930 . S
C1088 C1083 1.390 . S
C1088 C1087 1.387 . S
H1089 C1101 0.930 . S
H1090 C1103 0.930 . S
H1091 C1104 0.930 . S
H1092 C1108 0.959 . S
H1093 C1108 0.959 . S
H1094 C1108 0.961 . S
H1095 C1109 0.960 . S
H1096 C1109 0.961 . S
H1097 C1109 0.959 . S
H1098 C1112 0.929 . S
H1099 C1113 0.931 . S
H1100 C1115 0.930 . S
C1101 H1089 0.930 . S
C1101 C1102 1.399 1_565 S
C1101 C1106 1.399 . S
C1102 C1101 1.399 1_545 S
C1102 C1103 1.376 . S
C1103 H1090 0.930 . S
C1103 C1102 1.376 . S
C1103 C1104 1.388 1_545 S
C1104 H1091 0.930 . S
C1104 C1103 1.388 1_565 S
C1104 C1105 1.390 . S
C1105 C1104 1.390 . S
C1105 C1106 1.394 . S
C1105 C1111 1.465 . S
C1106 C1101 1.399 . S
C1106 C1105 1.394 . S
C1106 C1107 1.516 . S
C1107 C1106 1.516 . S
C1107 C1108 1.502 . S
C1107 C1109 1.561 . S
C1107 C1110 1.526 . S
C1108 H1092 0.959 . S
C1108 H1093 0.959 . S
C1108 H1094 0.961 . S
C1108 C1107 1.502 . S
C1109 H1095 0.960 . S
C1109 H1096 0.961 . S
C1109 H1097 0.959 . S
C1109 C1107 1.561 . S
C1110 C1107 1.526 . S
C1110 C1111 1.396 . S
C1110 C1115 1.390 . S
C1111 C1105 1.465 . S
C1111 C1110 1.396 . S
C1111 C1112 1.399 . S
C1112 H1098 0.929 . S
C1112 C1111 1.399 . S
C1112 C1113 1.385 . S
C1113 H1099 0.931 . S
C1113 C1112 1.385 . S
C1113 C1114 1.389 . S
C1114 C1113 1.389 . S
C1114 C1115 1.387 . S
C1115 H1100 0.930 . S
C1115 C1110 1.390 . S
C1115 C1114 1.387 . S
H1116 C1128 0.928 . S
H1117 C1130 0.930 . S
H1118 C1131 0.930 . S
H1119 C1135 0.959 . S
H1120 C1135 0.959 . S
H1121 C1135 0.961 . S
H1122 C1136 0.960 . S
H1123 C1136 0.961 . S
H1124 C1136 0.959 . S
H1125 C1139 0.929 . S
H1126 C1140 0.931 . S
H1127 C1142 0.930 . S
C1128 H1116 0.928 . S
C1128 C1129 1.399 1_455 S
C1128 C1133 1.399 . S
C1129 C1128 1.399 1_655 S
C1129 C1130 1.376 . S
C1130 H1117 0.930 . S
C1130 C1129 1.376 . S
C1130 C1131 1.388 1_655 S
C1131 H1118 0.930 . S
C1131 C1130 1.388 1_455 S
C1131 C1132 1.390 . S
C1132 C1131 1.390 . S
C1132 C1133 1.394 . S
C1132 C1138 1.465 . S
C1133 C1128 1.399 . S
C1133 C1132 1.394 . S
C1133 C1134 1.516 . S
C1134 C1133 1.516 . S
C1134 C1135 1.502 . S
C1134 C1136 1.561 . S
C1134 C1137 1.526 . S
C1135 H1119 0.959 . S
C1135 H1120 0.959 . S
C1135 H1121 0.961 . S
C1135 C1134 1.502 . S
C1136 H1122 0.960 . S
C1136 H1123 0.961 . S
C1136 H1124 0.959 . S
C1136 C1134 1.561 . S
C1137 C1134 1.526 . S
C1137 C1138 1.396 . S
C1137 C1142 1.390 . S
C1138 C1132 1.465 . S
C1138 C1137 1.396 . S
C1138 C1139 1.399 . S
C1139 H1125 0.929 . S
C1139 C1138 1.399 . S
C1139 C1140 1.385 . S
C1140 H1126 0.931 . S
C1140 C1139 1.385 . S
C1140 C1141 1.389 . S
C1141 C1140 1.389 . S
C1141 C1142 1.387 . S
C1142 H1127 0.930 . S
C1142 C1137 1.390 . S
C1142 C1141 1.387 . S
H1143 C1155 0.930 . S
H1144 C1157 0.930 . S
H1145 C1158 0.930 . S
H1146 C1162 0.959 . S
H1147 C1162 0.959 . S
H1148 C1162 0.961 . S
H1149 C1163 0.960 . S
H1150 C1163 0.961 . S
H1151 C1163 0.959 . S
H1152 C1166 0.929 . S
H1153 C1167 0.931 . S
H1154 C1169 0.930 . S
C1155 H1143 0.930 . S
C1155 C1156 1.399 . S
C1155 C1160 1.399 . S
C1156 C1155 1.399 . S
C1156 C1157 1.376 . S
C1157 H1144 0.930 . S
C1157 C1156 1.376 . S
C1157 C1158 1.388 . S
C1158 H1145 0.930 . S
C1158 C1157 1.388 . S
C1158 C1159 1.390 . S
C1159 C1158 1.390 . S
C1159 C1160 1.394 . S
C1159 C1165 1.465 . S
C1160 C1155 1.399 . S
C1160 C1159 1.394 . S
C1160 C1161 1.516 . S
C1161 C1160 1.516 . S
C1161 C1162 1.502 . S
C1161 C1163 1.561 . S
C1161 C1164 1.526 . S
C1162 H1146 0.959 . S
C1162 H1147 0.959 . S
C1162 H1148 0.961 . S
C1162 C1161 1.502 . S
C1163 H1149 0.960 . S
C1163 H1150 0.961 . S
C1163 H1151 0.959 . S
C1163 C1161 1.561 . S
C1164 C1161 1.526 . S
C1164 C1165 1.396 . S
C1164 C1169 1.390 . S
C1165 C1159 1.465 . S
C1165 C1164 1.396 . S
C1165 C1166 1.399 . S
C1166 H1152 0.929 . S
C1166 C1165 1.399 . S
C1166 C1167 1.385 . S
C1167 H1153 0.931 . S
C1167 C1166 1.385 . S
C1167 C1168 1.389 . S
C1168 C1167 1.389 . S
C1168 C1169 1.387 . S
C1169 H1154 0.930 . S
C1169 C1164 1.390 . S
C1169 C1168 1.387 . S
H1170 C1182 0.930 . S
H1171 C1184 0.930 . S
H1172 C1185 0.930 . S
H1173 C1189 0.959 . S
H1174 C1189 0.959 . S
H1175 C1189 0.961 . S
H1176 C1190 0.960 . S
H1177 C1190 0.961 . S
H1178 C1190 0.959 . S
H1179 C1193 0.929 . S
H1180 C1194 0.931 . S
H1181 C1196 0.930 . S
C1182 H1170 0.930 . S
C1182 C1183 1.399 . S
C1182 C1187 1.399 . S
C1183 C1182 1.399 . S
C1183 C1184 1.376 . S
C1184 H1171 0.930 . S
C1184 C1183 1.376 . S
C1184 C1185 1.388 . S
C1185 H1172 0.930 . S
C1185 C1184 1.388 . S
C1185 C1186 1.390 . S
C1186 C1185 1.390 . S
C1186 C1187 1.394 . S
C1186 C1192 1.465 . S
C1187 C1182 1.399 . S
C1187 C1186 1.394 . S
C1187 C1188 1.516 . S
C1188 C1187 1.516 . S
C1188 C1189 1.502 . S
C1188 C1190 1.561 . S
C1188 C1191 1.526 . S
C1189 H1173 0.959 . S
C1189 H1174 0.959 . S
C1189 H1175 0.961 . S
C1189 C1188 1.502 . S
C1190 H1176 0.960 . S
C1190 H1177 0.961 . S
C1190 H1178 0.959 . S
C1190 C1188 1.561 . S
C1191 C1188 1.526 . S
C1191 C1192 1.396 . S
C1191 C1196 1.390 . S
C1192 C1186 1.465 . S
C1192 C1191 1.396 . S
C1192 C1193 1.399 . S
C1193 H1179 0.929 . S
C1193 C1192 1.399 . S
C1193 C1194 1.385 . S
C1194 H1180 0.931 . S
C1194 C1193 1.385 . S
C1194 C1195 1.389 . S
C1195 C1194 1.389 . S
C1195 C1196 1.387 . S
C1196 H1181 0.930 . S
C1196 C1191 1.390 . S
C1196 C1195 1.387 . S
H1197 C1209 0.930 . S
H1198 C1211 0.930 . S
H1199 C1212 0.930 . S
H1200 C1216 0.959 . S
H1201 C1216 0.959 . S
H1202 C1216 0.961 . S
H1203 C1217 0.960 . S
H1204 C1217 0.961 . S
H1205 C1217 0.959 . S
H1206 C1220 0.929 . S
H1207 C1221 0.931 . S
H1208 C1223 0.930 . S
C1209 H1197 0.930 . S
C1209 C1210 1.399 . S
C1209 C1214 1.399 . S
C1210 C1209 1.399 . S
C1210 C1211 1.376 . S
C1211 H1198 0.930 . S
C1211 C1210 1.376 . S
C1211 C1212 1.388 . S
C1212 H1199 0.930 . S
C1212 C1211 1.388 . S
C1212 C1213 1.390 . S
C1213 C1212 1.390 . S
C1213 C1214 1.394 . S
C1213 C1219 1.465 . S
C1214 C1209 1.399 . S
C1214 C1213 1.394 . S
C1214 C1215 1.516 . S
C1215 C1214 1.516 . S
C1215 C1216 1.502 . S
C1215 C1217 1.561 . S
C1215 C1218 1.526 . S
C1216 H1200 0.959 . S
C1216 H1201 0.959 . S
C1216 H1202 0.961 . S
C1216 C1215 1.502 . S
C1217 H1203 0.960 . S
C1217 H1204 0.961 . S
C1217 H1205 0.959 . S
C1217 C1215 1.561 . S
C1218 C1215 1.526 . S
C1218 C1219 1.396 . S
C1218 C1223 1.390 . S
C1219 C1213 1.465 . S
C1219 C1218 1.396 . S
C1219 C1220 1.399 . S
C1220 H1206 0.929 . S
C1220 C1219 1.399 . S
C1220 C1221 1.385 . S
C1221 H1207 0.931 . S
C1221 C1220 1.385 . S
C1221 C1222 1.389 . S
C1222 C1221 1.389 . S
C1222 C1223 1.387 . S
C1223 H1208 0.930 . S
C1223 C1218 1.390 . S
C1223 C1222 1.387 . S
H1224 C1236 0.930 . S
H1225 C1238 0.930 . S
H1226 C1239 0.930 . S
H1227 C1243 0.959 . S
H1228 C1243 0.959 . S
H1229 C1243 0.961 . S
H1230 C1244 0.960 . S
H1231 C1244 0.961 . S
H1232 C1244 0.959 . S
H1233 C1247 0.929 . S
H1234 C1248 0.931 . S
H1235 C1250 0.930 . S
C1236 H1224 0.930 . S
C1236 C1237 1.399 . S
C1236 C1241 1.399 . S
C1237 C1236 1.399 . S
C1237 C1238 1.376 . S
C1238 H1225 0.930 . S
C1238 C1237 1.376 . S
C1238 C1239 1.388 . S
C1239 H1226 0.930 . S
C1239 C1238 1.388 . S
C1239 C1240 1.390 . S
C1240 C1239 1.390 . S
C1240 C1241 1.394 . S
C1240 C1246 1.465 . S
C1241 C1236 1.399 . S
C1241 C1240 1.394 . S
C1241 C1242 1.516 . S
C1242 C1241 1.516 . S
C1242 C1243 1.502 . S
C1242 C1244 1.561 . S
C1242 C1245 1.526 . S
C1243 H1227 0.959 . S
C1243 H1228 0.959 . S
C1243 H1229 0.961 . S
C1243 C1242 1.502 . S
C1244 H1230 0.960 . S
C1244 H1231 0.961 . S
C1244 H1232 0.959 . S
C1244 C1242 1.561 . S
C1245 C1242 1.526 . S
C1245 C1246 1.396 . S
C1245 C1250 1.390 . S
C1246 C1240 1.465 . S
C1246 C1245 1.396 . S
C1246 C1247 1.399 . S
C1247 H1233 0.929 . S
C1247 C1246 1.399 . S
C1247 C1248 1.385 . S
C1248 H1234 0.931 . S
C1248 C1247 1.385 . S
C1248 C1249 1.389 . S
C1249 C1248 1.389 . S
C1249 C1250 1.387 . S
C1250 H1235 0.930 . S
C1250 C1245 1.390 . S
C1250 C1249 1.387 . S
H1251 C1263 0.930 . S
H1252 C1265 0.930 . S
H1253 C1266 0.930 . S
H1254 C1270 0.959 . S
H1255 C1270 0.959 . S
H1256 C1270 0.961 . S
H1257 C1271 0.960 . S
H1258 C1271 0.961 1_545 S
H1259 C1271 0.959 . S
H1260 C1274 0.929 . S
H1261 C1275 0.931 . S
H1262 C1277 0.930 . S
C1263 H1251 0.930 . S
C1263 C1264 1.399 . S
C1263 C1268 1.399 . S
C1264 C1263 1.399 . S
C1264 C1265 1.376 . S
C1265 H1252 0.930 . S
C1265 C1264 1.376 . S
C1265 C1266 1.388 . S
C1266 H1253 0.930 . S
C1266 C1265 1.388 . S
C1266 C1267 1.390 . S
C1267 C1266 1.390 . S
C1267 C1268 1.394 . S
C1267 C1273 1.465 1_565 S
C1268 C1263 1.399 . S
C1268 C1267 1.394 . S
C1268 C1269 1.516 1_565 S
C1269 C1268 1.516 1_545 S
C1269 C1270 1.502 . S
C1269 C1271 1.561 1_545 S
C1269 C1272 1.526 . S
C1270 H1254 0.959 . S
C1270 H1255 0.959 . S
C1270 H1256 0.961 . S
C1270 C1269 1.502 . S
C1271 H1257 0.960 . S
C1271 H1258 0.961 1_565 S
C1271 H1259 0.959 . S
C1271 C1269 1.561 1_565 S
C1272 C1269 1.526 . S
C1272 C1273 1.396 . S
C1272 C1277 1.390 . S
C1273 C1267 1.465 1_545 S
C1273 C1272 1.396 . S
C1273 C1274 1.399 . S
C1274 H1260 0.929 . S
C1274 C1273 1.399 . S
C1274 C1275 1.385 . S
C1275 H1261 0.931 . S
C1275 C1274 1.385 . S
C1275 C1276 1.389 . S
C1276 C1275 1.389 . S
C1276 C1277 1.387 . S
C1277 H1262 0.930 . S
C1277 C1272 1.390 . S
C1277 C1276 1.387 . S
H1278 C1290 0.930 . S
H1279 C1292 0.930 . S
H1280 C1293 0.930 . S
H1281 C1297 0.959 . S
H1282 C1297 0.959 . S
H1283 C1297 0.961 . S
H1284 C1298 0.960 . S
H1285 C1298 0.961 . S
H1286 C1298 0.959 . S
H1287 C1301 0.929 . S
H1288 C1302 0.931 . S
H1289 C1304 0.930 . S
C1290 H1278 0.930 . S
C1290 C1291 1.399 . S
C1290 C1295 1.399 . S
C1291 C1290 1.399 . S
C1291 C1292 1.376 . S
C1292 H1279 0.930 . S
C1292 C1291 1.376 . S
C1292 C1293 1.388 . S
C1293 H1280 0.930 . S
C1293 C1292 1.388 . S
C1293 C1294 1.390 . S
C1294 C1293 1.390 . S
C1294 C1295 1.394 . S
C1294 C1300 1.465 1_455 S
C1295 C1290 1.399 . S
C1295 C1294 1.394 . S
C1295 C1296 1.516 . S
C1296 C1295 1.516 . S
C1296 C1297 1.502 . S
C1296 C1298 1.561 . S
C1296 C1299 1.526 1_455 S
C1297 H1281 0.959 . S
C1297 H1282 0.959 . S
C1297 H1283 0.961 . S
C1297 C1296 1.502 . S
C1298 H1284 0.960 . S
C1298 H1285 0.961 . S
C1298 H1286 0.959 . S
C1298 C1296 1.561 . S
C1299 C1296 1.526 1_655 S
C1299 C1300 1.396 . S
C1299 C1304 1.390 . S
C1300 C1294 1.465 1_655 S
C1300 C1299 1.396 . S
C1300 C1301 1.399 . S
C1301 H1287 0.929 . S
C1301 C1300 1.399 . S
C1301 C1302 1.385 . S
C1302 H1288 0.931 . S
C1302 C1301 1.385 . S
C1302 C1303 1.389 . S
C1303 C1302 1.389 . S
C1303 C1304 1.387 . S
C1304 H1289 0.930 . S
C1304 C1299 1.390 . S
C1304 C1303 1.387 . S
H1305 C1317 0.930 . S
H1306 C1319 0.930 . S
H1307 C1320 0.930 . S
H1308 C1324 0.959 . S
H1309 C1324 0.959 . S
H1310 C1324 0.961 . S
H1311 C1325 0.960 . S
H1312 C1325 0.961 . S
H1313 C1325 0.959 . S
H1314 C1328 0.929 . S
H1315 C1329 0.931 . S
H1316 C1331 0.930 . S
C1317 H1305 0.930 . S
C1317 C1318 1.399 . S
C1317 C1322 1.399 . S
C1318 C1317 1.399 . S
C1318 C1319 1.376 . S
C1319 H1306 0.930 . S
C1319 C1318 1.376 . S
C1319 C1320 1.388 . S
C1320 H1307 0.930 . S
C1320 C1319 1.388 . S
C1320 C1321 1.390 . S
C1321 C1320 1.390 . S
C1321 C1322 1.394 . S
C1321 C1327 1.465 . S
C1322 C1317 1.399 . S
C1322 C1321 1.394 . S
C1322 C1323 1.516 . S
C1323 C1322 1.516 . S
C1323 C1324 1.502 . S
C1323 C1325 1.561 . S
C1323 C1326 1.526 . S
C1324 H1308 0.959 . S
C1324 H1309 0.959 . S
C1324 H1310 0.961 . S
C1324 C1323 1.502 . S
C1325 H1311 0.960 . S
C1325 H1312 0.961 . S
C1325 H1313 0.959 . S
C1325 C1323 1.561 . S
C1326 C1323 1.526 . S
C1326 C1327 1.396 . S
C1326 C1331 1.390 . S
C1327 C1321 1.465 . S
C1327 C1326 1.396 . S
C1327 C1328 1.399 . S
C1328 H1314 0.929 . S
C1328 C1327 1.399 . S
C1328 C1329 1.385 . S
C1329 H1315 0.931 . S
C1329 C1328 1.385 . S
C1329 C1330 1.389 . S
C1330 C1329 1.389 . S
C1330 C1331 1.387 . S
C1331 H1316 0.930 . S
C1331 C1326 1.390 . S
C1331 C1330 1.387 . S
H1332 C1344 0.930 . S
H1333 C1346 0.930 . S
H1334 C1347 0.929 1_655 S
H1335 C1351 0.959 . S
H1336 C1351 0.959 . S
H1337 C1351 0.961 . S
H1338 C1352 0.960 . S
H1339 C1352 0.961 . S
H1340 C1352 0.959 . S
H1341 C1355 0.929 . S
H1342 C1356 0.931 . S
H1343 C1358 0.930 . S
C1344 H1332 0.930 . S
C1344 C1345 1.399 . S
C1344 C1349 1.399 1_455 S
C1345 C1344 1.399 . S
C1345 C1346 1.376 . S
C1346 H1333 0.930 . S
C1346 C1345 1.376 . S
C1346 C1347 1.386 . S
C1347 H1334 0.929 1_455 S
C1347 C1346 1.386 . S
C1347 C1348 1.393 1_455 S
C1348 C1347 1.393 1_655 S
C1348 C1349 1.394 . S
C1348 C1354 1.465 . S
C1349 C1344 1.399 1_655 S
C1349 C1348 1.394 . S
C1349 C1350 1.516 . S
C1350 C1349 1.516 . S
C1350 C1351 1.502 . S
C1350 C1352 1.561 . S
C1350 C1353 1.526 . S
C1351 H1335 0.959 . S
C1351 H1336 0.959 . S
C1351 H1337 0.961 . S
C1351 C1350 1.502 . S
C1352 H1338 0.960 . S
C1352 H1339 0.961 . S
C1352 H1340 0.959 . S
C1352 C1350 1.561 . S
C1353 C1350 1.526 . S
C1353 C1354 1.396 . S
C1353 C1358 1.390 . S
C1354 C1348 1.465 . S
C1354 C1353 1.396 . S
C1354 C1355 1.399 . S
C1355 H1341 0.929 . S
C1355 C1354 1.399 . S
C1355 C1356 1.385 . S
C1356 H1342 0.931 . S
C1356 C1355 1.385 . S
C1356 C1357 1.389 . S
C1357 C1356 1.389 . S
C1357 C1358 1.387 . S
C1358 H1343 0.930 . S
C1358 C1353 1.390 . S
C1358 C1357 1.387 . S
H1359 C1371 0.930 . S
H1360 C1373 0.930 . S
H1361 C1374 0.930 . S
H1362 C1378 0.959 . S
H1363 C1378 0.959 . S
H1364 C1378 0.961 . S
H1365 C1379 0.960 . S
H1366 C1379 0.961 . S
H1367 C1379 0.959 . S
H1368 C1382 0.929 . S
H1369 C1383 0.931 . S
H1370 C1385 0.930 . S
C1371 H1359 0.930 . S
C1371 C1372 1.399 . S
C1371 C1376 1.399 . S
C1372 C1371 1.399 . S
C1372 C1373 1.376 . S
C1373 H1360 0.930 . S
C1373 C1372 1.376 . S
C1373 C1374 1.388 . S
C1374 H1361 0.930 . S
C1374 C1373 1.388 . S
C1374 C1375 1.390 . S
C1375 C1374 1.390 . S
C1375 C1376 1.394 . S
C1375 C1381 1.465 . S
C1376 C1371 1.399 . S
C1376 C1375 1.394 . S
C1376 C1377 1.516 . S
C1377 C1376 1.516 . S
C1377 C1378 1.502 . S
C1377 C1379 1.561 . S
C1377 C1380 1.526 . S
C1378 H1362 0.959 . S
C1378 H1363 0.959 . S
C1378 H1364 0.961 . S
C1378 C1377 1.502 . S
C1379 H1365 0.960 . S
C1379 H1366 0.961 . S
C1379 H1367 0.959 . S
C1379 C1377 1.561 . S
C1380 C1377 1.526 . S
C1380 C1381 1.396 . S
C1380 C1385 1.390 . S
C1381 C1375 1.465 . S
C1381 C1380 1.396 . S
C1381 C1382 1.399 . S
C1382 H1368 0.929 . S
C1382 C1381 1.399 . S
C1382 C1383 1.385 . S
C1383 H1369 0.931 . S
C1383 C1382 1.385 . S
C1383 C1384 1.389 . S
C1384 C1383 1.389 . S
C1384 C1385 1.387 . S
C1385 H1370 0.930 . S
C1385 C1380 1.390 . S
C1385 C1384 1.387 . S
H1386 C1398 0.930 . S
H1387 C1400 0.897 1_565 S
H1388 C1401 0.930 . S
H1389 C1405 0.959 . S
H1390 C1405 0.959 . S
H1391 C1405 0.961 . S
H1392 C1406 0.960 . S
H1393 C1406 0.961 . S
H1394 C1406 0.959 . S
H1395 C1409 0.929 . S
H1396 C1410 0.931 . S
H1397 C1412 0.930 . S
C1398 H1386 0.930 . S
C1398 C1399 1.399 1_545 S
C1398 C1403 1.399 . S
C1399 C1398 1.399 1_565 S
C1399 C1400 1.370 1_565 S
C1400 H1387 0.897 1_545 S
C1400 C1399 1.370 1_545 S
C1400 C1401 1.429 . S
C1401 H1388 0.930 . S
C1401 C1400 1.429 . S
C1401 C1402 1.390 . S
C1402 C1401 1.390 . S
C1402 C1403 1.394 . S
C1402 C1408 1.465 . S
C1403 C1398 1.399 . S
C1403 C1402 1.394 . S
C1403 C1404 1.516 . S
C1404 C1403 1.516 . S
C1404 C1405 1.502 . S
C1404 C1406 1.561 . S
C1404 C1407 1.526 . S
C1405 H1389 0.959 . S
C1405 H1390 0.959 . S
C1405 H1391 0.961 . S
C1405 C1404 1.502 . S
C1406 H1392 0.960 . S
C1406 H1393 0.961 . S
C1406 H1394 0.959 . S
C1406 C1404 1.561 . S
C1407 C1404 1.526 . S
C1407 C1408 1.396 . S
C1407 C1412 1.390 . S
C1408 C1402 1.465 . S
C1408 C1407 1.396 . S
C1408 C1409 1.399 . S
C1409 H1395 0.929 . S
C1409 C1408 1.399 . S
C1409 C1410 1.385 . S
C1410 H1396 0.931 . S
C1410 C1409 1.385 . S
C1410 C1411 1.389 . S
C1411 C1410 1.389 . S
C1411 C1412 1.387 . S
C1412 H1397 0.930 . S
C1412 C1407 1.390 . S
C1412 C1411 1.387 . S
H1413 C1425 0.930 . S
H1414 C1427 0.930 . S
H1415 C1428 0.930 . S
H1416 C1432 0.959 . S
H1417 C1432 0.959 . S
H1418 C1432 0.961 . S
H1419 C1433 0.960 . S
H1420 C1433 0.961 . S
H1421 C1433 0.959 . S
H1422 C1436 0.929 . S
H1423 C1437 0.931 . S
H1424 C1439 0.930 . S
C1425 H1413 0.930 . S
C1425 C1426 1.399 . S
C1425 C1430 1.399 . S
C1426 C1425 1.399 . S
C1426 C1427 1.376 . S
C1427 H1414 0.930 . S
C1427 C1426 1.376 . S
C1427 C1428 1.388 . S
C1428 H1415 0.930 . S
C1428 C1427 1.388 . S
C1428 C1429 1.390 . S
C1429 C1428 1.390 . S
C1429 C1430 1.394 . S
C1429 C1435 1.465 . S
C1430 C1425 1.399 . S
C1430 C1429 1.394 . S
C1430 C1431 1.516 . S
C1431 C1430 1.516 . S
C1431 C1432 1.502 . S
C1431 C1433 1.561 . S
C1431 C1434 1.526 . S
C1432 H1416 0.959 . S
C1432 H1417 0.959 . S
C1432 H1418 0.961 . S
C1432 C1431 1.502 . S
C1433 H1419 0.960 . S
C1433 H1420 0.961 . S
C1433 H1421 0.959 . S
C1433 C1431 1.561 . S
C1434 C1431 1.526 . S
C1434 C1435 1.396 . S
C1434 C1439 1.390 . S
C1435 C1429 1.465 . S
C1435 C1434 1.396 . S
C1435 C1436 1.399 . S
C1436 H1422 0.929 . S
C1436 C1435 1.399 . S
C1436 C1437 1.385 . S
C1437 H1423 0.931 . S
C1437 C1436 1.385 . S
C1437 C1438 1.389 . S
C1438 C1437 1.389 . S
C1438 C1439 1.387 . S
C1439 H1424 0.930 . S
C1439 C1434 1.390 . S
C1439 C1438 1.387 . S
H1440 C1452 0.930 . S
H1441 C1454 0.930 . S
H1442 C1455 0.930 . S
H1443 C1459 0.959 . S
H1444 C1459 0.959 . S
H1445 C1459 0.961 . S
H1446 C1460 0.960 . S
H1447 C1460 0.961 . S
H1448 C1460 0.959 . S
H1449 C1463 0.929 . S
H1450 C1464 0.931 . S
H1451 C1466 0.930 . S
C1452 H1440 0.930 . S
C1452 C1453 1.399 . S
C1452 C1457 1.399 . S
C1453 C1452 1.399 . S
C1453 C1454 1.376 . S
C1454 H1441 0.930 . S
C1454 C1453 1.376 . S
C1454 C1455 1.388 . S
C1455 H1442 0.930 . S
C1455 C1454 1.388 . S
C1455 C1456 1.390 . S
C1456 C1455 1.390 . S
C1456 C1457 1.394 . S
C1456 C1462 1.465 . S
C1457 C1452 1.399 . S
C1457 C1456 1.394 . S
C1457 C1458 1.516 . S
C1458 C1457 1.516 . S
C1458 C1459 1.502 . S
C1458 C1460 1.561 . S
C1458 C1461 1.526 . S
C1459 H1443 0.959 . S
C1459 H1444 0.959 . S
C1459 H1445 0.961 . S
C1459 C1458 1.502 . S
C1460 H1446 0.960 . S
C1460 H1447 0.961 . S
C1460 H1448 0.959 . S
C1460 C1458 1.561 . S
C1461 C1458 1.526 . S
C1461 C1462 1.396 . S
C1461 C1466 1.390 . S
C1462 C1456 1.465 . S
C1462 C1461 1.396 . S
C1462 C1463 1.399 . S
C1463 H1449 0.929 . S
C1463 C1462 1.399 . S
C1463 C1464 1.385 . S
C1464 H1450 0.931 . S
C1464 C1463 1.385 . S
C1464 C1465 1.389 . S
C1465 C1464 1.389 . S
C1465 C1466 1.387 . S
C1466 H1451 0.930 . S
C1466 C1461 1.390 . S
C1466 C1465 1.387 . S
H1467 C1479 0.930 . S
H1468 C1481 0.930 . S
H1469 C1482 0.930 . S
H1470 C1486 0.959 . S
H1471 C1486 0.959 . S
H1472 C1486 0.961 . S
H1473 C1487 0.960 . S
H1474 C1487 0.961 . S
H1475 C1487 0.959 . S
H1476 C1490 0.929 . S
H1477 C1491 0.931 . S
H1478 C1493 0.930 . S
C1479 H1467 0.930 . S
C1479 C1480 1.399 . S
C1479 C1484 1.399 . S
C1480 C1479 1.399 . S
C1480 C1481 1.376 . S
C1481 H1468 0.930 . S
C1481 C1480 1.376 . S
C1481 C1482 1.388 . S
C1482 H1469 0.930 . S
C1482 C1481 1.388 . S
C1482 C1483 1.390 . S
C1483 C1482 1.390 . S
C1483 C1484 1.394 . S
C1483 C1489 1.465 . S
C1484 C1479 1.399 . S
C1484 C1483 1.394 . S
C1484 C1485 1.516 . S
C1485 C1484 1.516 . S
C1485 C1486 1.502 . S
C1485 C1487 1.561 . S
C1485 C1488 1.526 . S
C1486 H1470 0.959 . S
C1486 H1471 0.959 . S
C1486 H1472 0.961 . S
C1486 C1485 1.502 . S
C1487 H1473 0.960 . S
C1487 H1474 0.961 . S
C1487 H1475 0.959 . S
C1487 C1485 1.561 . S
C1488 C1485 1.526 . S
C1488 C1489 1.396 . S
C1488 C1493 1.390 . S
C1489 C1483 1.465 . S
C1489 C1488 1.396 . S
C1489 C1490 1.399 . S
C1490 H1476 0.929 . S
C1490 C1489 1.399 . S
C1490 C1491 1.385 . S
C1491 H1477 0.931 . S
C1491 C1490 1.385 . S
C1491 C1492 1.389 . S
C1492 C1491 1.389 . S
C1492 C1493 1.387 . S
C1493 H1478 0.930 . S
C1493 C1488 1.390 . S
C1493 C1492 1.387 . S
H1494 C1506 0.930 . S
H1495 C1508 0.930 . S
H1496 C1509 0.930 . S
H1497 C1513 0.959 . S
H1498 C1513 0.959 . S
H1499 C1513 0.961 . S
H1500 C1514 0.960 . S
H1501 C1514 0.961 . S
H1502 C1514 0.959 . S
H1503 C1517 0.929 . S
H1504 C1518 0.931 1_545 S
H1505 C1520 0.930 . S
C1506 H1494 0.930 . S
C1506 C1507 1.399 . S
C1506 C1511 1.399 . S
C1507 C1506 1.399 . S
C1507 C1508 1.376 . S
C1508 H1495 0.930 . S
C1508 C1507 1.376 . S
C1508 C1509 1.388 . S
C1509 H1496 0.930 . S
C1509 C1508 1.388 . S
C1509 C1510 1.390 . S
C1510 C1509 1.390 . S
C1510 C1511 1.394 . S
C1510 C1516 1.465 . S
C1511 C1506 1.399 . S
C1511 C1510 1.394 . S
C1511 C1512 1.516 . S
C1512 C1511 1.516 . S
C1512 C1513 1.502 . S
C1512 C1514 1.561 . S
C1512 C1515 1.526 . S
C1513 H1497 0.959 . S
C1513 H1498 0.959 . S
C1513 H1499 0.961 . S
C1513 C1512 1.502 . S
C1514 H1500 0.960 . S
C1514 H1501 0.961 . S
C1514 H1502 0.959 . S
C1514 C1512 1.561 . S
C1515 C1512 1.526 . S
C1515 C1516 1.396 . S
C1515 C1520 1.390 . S
C1516 C1510 1.465 . S
C1516 C1515 1.396 . S
C1516 C1517 1.399 . S
C1517 H1503 0.929 . S
C1517 C1516 1.399 . S
C1517 C1518 1.385 . S
C1518 H1504 0.931 1_565 S
C1518 C1517 1.385 . S
C1518 C1519 1.389 . S
C1519 C1518 1.389 . S
C1519 C1520 1.387 . S
C1520 H1505 0.930 . S
C1520 C1515 1.390 . S
C1520 C1519 1.387 . S
H1521 C1533 0.930 . S
H1522 C1535 0.930 . S
H1523 C1536 0.930 . S
H1524 C1540 0.959 . S
H1525 C1540 0.959 . S
H1526 C1540 0.961 . S
H1527 C1541 0.960 . S
H1528 C1541 0.961 . S
H1529 C1541 0.959 . S
H1530 C1544 0.929 . S
H1531 C1545 0.931 . S
H1532 C1547 0.930 . S
C1533 H1521 0.930 . S
C1533 C1534 1.399 . S
C1533 C1538 1.399 . S
C1534 C1533 1.399 . S
C1534 C1535 1.376 . S
C1535 H1522 0.930 . S
C1535 C1534 1.376 . S
C1535 C1536 1.388 . S
C1536 H1523 0.930 . S
C1536 C1535 1.388 . S
C1536 C1537 1.390 . S
C1537 C1536 1.390 . S
C1537 C1538 1.394 . S
C1537 C1543 1.465 . S
C1538 C1533 1.399 . S
C1538 C1537 1.394 . S
C1538 C1539 1.516 . S
C1539 C1538 1.516 . S
C1539 C1540 1.502 . S
C1539 C1541 1.561 . S
C1539 C1542 1.526 . S
C1540 H1524 0.959 . S
C1540 H1525 0.959 . S
C1540 H1526 0.961 . S
C1540 C1539 1.502 . S
C1541 H1527 0.960 . S
C1541 H1528 0.961 . S
C1541 H1529 0.959 . S
C1541 C1539 1.561 . S
C1542 C1539 1.526 . S
C1542 C1543 1.396 . S
C1542 C1547 1.390 . S
C1543 C1537 1.465 . S
C1543 C1542 1.396 . S
C1543 C1544 1.399 . S
C1544 H1530 0.929 . S
C1544 C1543 1.399 . S
C1544 C1545 1.385 . S
C1545 H1531 0.931 . S
C1545 C1544 1.385 . S
C1545 C1546 1.389 . S
C1546 C1545 1.389 . S
C1546 C1547 1.387 . S
C1547 H1532 0.930 . S
C1547 C1542 1.390 . S
C1547 C1546 1.387 . S
H1548 C1560 0.930 . S
H1549 C1562 0.930 . S
H1550 C1563 0.930 . S
H1551 C1567 0.959 . S
H1552 C1567 0.959 . S
H1553 C1567 0.961 . S
H1554 C1568 0.960 . S
H1555 C1568 0.961 . S
H1556 C1568 0.959 . S
H1557 C1571 0.929 . S
H1558 C1572 0.931 . S
H1559 C1574 0.930 . S
C1560 H1548 0.930 . S
C1560 C1561 1.399 . S
C1560 C1565 1.399 . S
C1561 C1560 1.399 . S
C1561 C1562 1.376 . S
C1562 H1549 0.930 . S
C1562 C1561 1.376 . S
C1562 C1563 1.388 . S
C1563 H1550 0.930 . S
C1563 C1562 1.388 . S
C1563 C1564 1.390 . S
C1564 C1563 1.390 . S
C1564 C1565 1.394 . S
C1564 C1570 1.465 . S
C1565 C1560 1.399 . S
C1565 C1564 1.394 . S
C1565 C1566 1.516 . S
C1566 C1565 1.516 . S
C1566 C1567 1.502 . S
C1566 C1568 1.561 . S
C1566 C1569 1.526 . S
C1567 H1551 0.959 . S
C1567 H1552 0.959 . S
C1567 H1553 0.961 . S
C1567 C1566 1.502 . S
C1568 H1554 0.960 . S
C1568 H1555 0.961 . S
C1568 H1556 0.959 . S
C1568 C1566 1.561 . S
C1569 C1566 1.526 . S
C1569 C1570 1.396 . S
C1569 C1574 1.390 . S
C1570 C1564 1.465 . S
C1570 C1569 1.396 . S
C1570 C1571 1.399 . S
C1571 H1557 0.929 . S
C1571 C1570 1.399 . S
C1571 C1572 1.385 . S
C1572 H1558 0.931 . S
C1572 C1571 1.385 . S
C1572 C1573 1.389 . S
C1573 C1572 1.389 . S
C1573 C1574 1.387 . S
C1574 H1559 0.930 . S
C1574 C1569 1.390 . S
C1574 C1573 1.387 . S
H1575 C1587 0.930 . S
H1576 C1589 0.930 . S
H1577 C1590 0.930 . S
H1578 C1594 0.959 . S
H1579 C1594 0.959 . S
H1580 C1594 0.961 . S
H1581 C1595 0.960 . S
H1582 C1595 0.961 . S
H1583 C1595 0.959 . S
H1584 C1598 0.929 . S
H1585 C1599 0.931 . S
H1586 C1601 0.930 . S
C1587 H1575 0.930 . S
C1587 C1588 1.399 . S
C1587 C1592 1.399 . S
C1588 C1587 1.399 . S
C1588 C1589 1.376 . S
C1589 H1576 0.930 . S
C1589 C1588 1.376 . S
C1589 C1590 1.388 . S
C1590 H1577 0.930 . S
C1590 C1589 1.388 . S
C1590 C1591 1.390 . S
C1591 C1590 1.390 . S
C1591 C1592 1.394 . S
C1591 C1597 1.465 . S
C1592 C1587 1.399 . S
C1592 C1591 1.394 . S
C1592 C1593 1.516 . S
C1593 C1592 1.516 . S
C1593 C1594 1.502 . S
C1593 C1595 1.561 . S
C1593 C1596 1.526 . S
C1594 H1578 0.959 . S
C1594 H1579 0.959 . S
C1594 H1580 0.961 . S
C1594 C1593 1.502 . S
C1595 H1581 0.960 . S
C1595 H1582 0.961 . S
C1595 H1583 0.959 . S
C1595 C1593 1.561 . S
C1596 C1593 1.526 . S
C1596 C1597 1.396 . S
C1596 C1601 1.390 . S
C1597 C1591 1.465 . S
C1597 C1596 1.396 . S
C1597 C1598 1.399 . S
C1598 H1584 0.929 . S
C1598 C1597 1.399 . S
C1598 C1599 1.385 . S
C1599 H1585 0.931 . S
C1599 C1598 1.385 . S
C1599 C1600 1.389 . S
C1600 C1599 1.389 . S
C1600 C1601 1.387 . S
C1601 H1586 0.930 . S
C1601 C1596 1.390 . S
C1601 C1600 1.387 . S
H1602 C1614 0.930 . S
H1603 C1616 0.930 . S
H1604 C1617 0.930 . S
H1605 C1621 0.959 . S
H1606 C1621 0.959 . S
H1607 C1621 0.961 . S
H1608 C1622 0.960 . S
H1609 C1622 0.961 . S
H1610 C1622 0.959 . S
H1611 C1625 0.929 . S
H1612 C1626 0.931 . S
H1613 C1628 0.930 . S
C1614 H1602 0.930 . S
C1614 C1615 1.399 . S
C1614 C1619 1.399 . S
C1615 C1614 1.399 . S
C1615 C1616 1.376 . S
C1616 H1603 0.930 . S
C1616 C1615 1.376 . S
C1616 C1617 1.388 . S
C1617 H1604 0.930 . S
C1617 C1616 1.388 . S
C1617 C1618 1.390 . S
C1618 C1617 1.390 . S
C1618 C1619 1.394 . S
C1618 C1624 1.465 . S
C1619 C1614 1.399 . S
C1619 C1618 1.394 . S
C1619 C1620 1.516 . S
C1620 C1619 1.516 . S
C1620 C1621 1.502 . S
C1620 C1622 1.561 . S
C1620 C1623 1.526 . S
C1621 H1605 0.959 . S
C1621 H1606 0.959 . S
C1621 H1607 0.961 . S
C1621 C1620 1.502 . S
C1622 H1608 0.960 . S
C1622 H1609 0.961 . S
C1622 H1610 0.959 . S
C1622 C1620 1.561 . S
C1623 C1620 1.526 . S
C1623 C1624 1.396 . S
C1623 C1628 1.390 . S
C1624 C1618 1.465 . S
C1624 C1623 1.396 . S
C1624 C1625 1.399 . S
C1625 H1611 0.929 . S
C1625 C1624 1.399 . S
C1625 C1626 1.385 . S
C1626 H1612 0.931 . S
C1626 C1625 1.385 . S
C1626 C1627 1.389 . S
C1627 C1626 1.389 . S
C1627 C1628 1.387 . S
C1628 H1613 0.930 . S
C1628 C1623 1.390 . S
C1628 C1627 1.387 . S
H1629 C1641 0.930 . S
H1630 C1643 0.930 . S
H1631 C1644 0.930 . S
H1632 C1648 0.959 . S
H1633 C1648 0.959 . S
H1634 C1648 0.961 . S
H1635 C1649 0.960 . S
H1636 C1649 0.961 1_565 S
H1637 C1649 0.959 . S
H1638 C1652 0.929 . S
H1639 C1653 0.931 . S
H1640 C1655 0.930 . S
C1641 H1629 0.930 . S
C1641 C1642 1.399 . S
C1641 C1646 1.399 . S
C1642 C1641 1.399 . S
C1642 C1643 1.376 . S
C1643 H1630 0.930 . S
C1643 C1642 1.376 . S
C1643 C1644 1.388 . S
C1644 H1631 0.930 . S
C1644 C1643 1.388 . S
C1644 C1645 1.390 . S
C1645 C1644 1.390 . S
C1645 C1646 1.394 . S
C1645 C1651 1.465 . S
C1646 C1641 1.399 . S
C1646 C1645 1.394 . S
C1646 C1647 1.516 . S
C1647 C1646 1.516 . S
C1647 C1648 1.502 . S
C1647 C1649 1.561 . S
C1647 C1650 1.526 . S
C1648 H1632 0.959 . S
C1648 H1633 0.959 . S
C1648 H1634 0.961 . S
C1648 C1647 1.502 . S
C1649 H1635 0.960 . S
C1649 H1636 0.961 1_545 S
C1649 H1637 0.959 . S
C1649 C1647 1.561 . S
C1650 C1647 1.526 . S
C1650 C1651 1.396 . S
C1650 C1655 1.390 . S
C1651 C1645 1.465 . S
C1651 C1650 1.396 . S
C1651 C1652 1.399 . S
C1652 H1638 0.929 . S
C1652 C1651 1.399 . S
C1652 C1653 1.385 . S
C1653 H1639 0.931 . S
C1653 C1652 1.385 . S
C1653 C1654 1.389 . S
C1654 C1653 1.389 . S
C1654 C1655 1.387 . S
C1655 H1640 0.930 . S
C1655 C1650 1.390 . S
C1655 C1654 1.387 . S
H1656 C1668 0.930 . S
H1657 C1670 0.930 . S
H1658 C1671 0.930 . S
H1659 C1675 0.959 . S
H1660 C1675 0.959 . S
H1661 C1675 0.961 . S
H1662 C1676 0.960 . S
H1663 C1676 0.961 . S
H1664 C1676 0.959 . S
H1665 C1679 0.929 . S
H1666 C1680 0.931 . S
H1667 C1682 0.930 . S
C1668 H1656 0.930 . S
C1668 C1669 1.399 . S
C1668 C1673 1.399 . S
C1669 C1668 1.399 . S
C1669 C1670 1.376 . S
C1670 H1657 0.930 . S
C1670 C1669 1.376 . S
C1670 C1671 1.388 . S
C1671 H1658 0.930 . S
C1671 C1670 1.388 . S
C1671 C1672 1.390 . S
C1672 C1671 1.390 . S
C1672 C1673 1.394 . S
C1672 C1678 1.465 . S
C1673 C1668 1.399 . S
C1673 C1672 1.394 . S
C1673 C1674 1.516 . S
C1674 C1673 1.516 . S
C1674 C1675 1.502 . S
C1674 C1676 1.561 . S
C1674 C1677 1.526 . S
C1675 H1659 0.959 . S
C1675 H1660 0.959 . S
C1675 H1661 0.961 . S
C1675 C1674 1.502 . S
C1676 H1662 0.960 . S
C1676 H1663 0.961 . S
C1676 H1664 0.959 . S
C1676 C1674 1.561 . S
C1677 C1674 1.526 . S
C1677 C1678 1.396 . S
C1677 C1682 1.390 . S
C1678 C1672 1.465 . S
C1678 C1677 1.396 . S
C1678 C1679 1.399 . S
C1679 H1665 0.929 . S
C1679 C1678 1.399 . S
C1679 C1680 1.385 . S
C1680 H1666 0.931 . S
C1680 C1679 1.385 . S
C1680 C1681 1.389 . S
C1681 C1680 1.389 . S
C1681 C1682 1.387 . S
C1682 H1667 0.930 . S
C1682 C1677 1.390 . S
C1682 C1681 1.387 . S
H1683 C1695 0.930 . S
H1684 C1697 0.930 . S
H1685 C1698 0.930 . S
H1686 C1702 0.959 . S
H1687 C1702 0.959 . S
H1688 C1702 0.961 . S
H1689 C1703 0.960 . S
H1690 C1703 0.961 . S
H1691 C1703 0.959 . S
H1692 C1706 0.929 . S
H1693 C1707 0.931 . S
H1694 C1709 0.930 . S
C1695 H1683 0.930 . S
C1695 C1696 1.399 . S
C1695 C1700 1.399 . S
C1696 C1695 1.399 . S
C1696 C1697 1.376 . S
C1697 H1684 0.930 . S
C1697 C1696 1.376 . S
C1697 C1698 1.388 . S
C1698 H1685 0.930 . S
C1698 C1697 1.388 . S
C1698 C1699 1.390 . S
C1699 C1698 1.390 . S
C1699 C1700 1.394 . S
C1699 C1705 1.465 . S
C1700 C1695 1.399 . S
C1700 C1699 1.394 . S
C1700 C1701 1.516 . S
C1701 C1700 1.516 . S
C1701 C1702 1.502 . S
C1701 C1703 1.561 . S
C1701 C1704 1.526 . S
C1702 H1686 0.959 . S
C1702 H1687 0.959 . S
C1702 H1688 0.961 . S
C1702 C1701 1.502 . S
C1703 H1689 0.960 . S
C1703 H1690 0.961 . S
C1703 H1691 0.959 . S
C1703 C1701 1.561 . S
C1704 C1701 1.526 . S
C1704 C1705 1.396 . S
C1704 C1709 1.390 . S
C1705 C1699 1.465 . S
C1705 C1704 1.396 . S
C1705 C1706 1.399 . S
C1706 H1692 0.929 . S
C1706 C1705 1.399 . S
C1706 C1707 1.385 . S
C1707 H1693 0.931 . S
C1707 C1706 1.385 . S
C1707 C1708 1.389 . S
C1708 C1707 1.389 . S
C1708 C1709 1.387 . S
C1709 H1694 0.930 . S
C1709 C1704 1.390 . S
C1709 C1708 1.387 . S
H1710 C1722 0.930 . S
H1711 C1724 0.930 . S
H1712 C1725 0.930 . S
H1713 C1729 0.959 . S
H1714 C1729 0.959 . S
H1715 C1729 0.961 . S
H1716 C1730 0.960 . S
H1717 C1730 0.961 . S
H1718 C1730 0.959 . S
H1719 C1733 0.929 . S
H1720 C1734 0.931 . S
H1721 C1736 0.930 . S
C1722 H1710 0.930 . S
C1722 C1723 1.399 . S
C1722 C1727 1.399 . S
C1723 C1722 1.399 . S
C1723 C1724 1.376 . S
C1724 H1711 0.930 . S
C1724 C1723 1.376 . S
C1724 C1725 1.388 . S
C1725 H1712 0.930 . S
C1725 C1724 1.388 . S
C1725 C1726 1.390 . S
C1726 C1725 1.390 . S
C1726 C1727 1.394 . S
C1726 C1732 1.465 . S
C1727 C1722 1.399 . S
C1727 C1726 1.394 . S
C1727 C1728 1.516 . S
C1728 C1727 1.516 . S
C1728 C1729 1.502 . S
C1728 C1730 1.561 . S
C1728 C1731 1.526 . S
C1729 H1713 0.959 . S
C1729 H1714 0.959 . S
C1729 H1715 0.961 . S
C1729 C1728 1.502 . S
C1730 H1716 0.960 . S
C1730 H1717 0.961 . S
C1730 H1718 0.959 . S
C1730 C1728 1.561 . S
C1731 C1728 1.526 . S
C1731 C1732 1.396 . S
C1731 C1736 1.390 . S
C1732 C1726 1.465 . S
C1732 C1731 1.396 . S
C1732 C1733 1.399 . S
C1733 H1719 0.929 . S
C1733 C1732 1.399 . S
C1733 C1734 1.385 . S
C1734 H1720 0.931 . S
C1734 C1733 1.385 . S
C1734 C1735 1.389 . S
C1735 C1734 1.389 . S
C1735 C1736 1.387 . S
C1736 H1721 0.930 . S
C1736 C1731 1.390 . S
C1736 C1735 1.387 . S
H1737 C1749 0.930 . S
H1738 C1751 0.930 . S
H1739 C1752 0.930 . S
H1740 C1756 0.959 . S
H1741 C1756 0.959 . S
H1742 C1756 0.961 . S
H1743 C1757 0.960 . S
H1744 C1757 0.961 . S
H1745 C1757 0.959 . S
H1746 C1760 0.929 . S
H1747 C1761 0.931 . S
H1748 C1763 0.930 . S
C1749 H1737 0.930 . S
C1749 C1750 1.399 . S
C1749 C1754 1.399 . S
C1750 C1749 1.399 . S
C1750 C1751 1.376 . S
C1751 H1738 0.930 . S
C1751 C1750 1.376 . S
C1751 C1752 1.388 . S
C1752 H1739 0.930 . S
C1752 C1751 1.388 . S
C1752 C1753 1.390 . S
C1753 C1752 1.390 . S
C1753 C1754 1.394 . S
C1753 C1759 1.465 . S
C1754 C1749 1.399 . S
C1754 C1753 1.394 . S
C1754 C1755 1.516 . S
C1755 C1754 1.516 . S
C1755 C1756 1.502 . S
C1755 C1757 1.561 . S
C1755 C1758 1.526 . S
C1756 H1740 0.959 . S
C1756 H1741 0.959 . S
C1756 H1742 0.961 . S
C1756 C1755 1.502 . S
C1757 H1743 0.960 . S
C1757 H1744 0.961 . S
C1757 H1745 0.959 . S
C1757 C1755 1.561 . S
C1758 C1755 1.526 . S
C1758 C1759 1.396 . S
C1758 C1763 1.390 . S
C1759 C1753 1.465 . S
C1759 C1758 1.396 . S
C1759 C1760 1.399 . S
C1760 H1746 0.929 . S
C1760 C1759 1.399 . S
C1760 C1761 1.385 . S
C1761 H1747 0.931 . S
C1761 C1760 1.385 . S
C1761 C1762 1.389 . S
C1762 C1761 1.389 . S
C1762 C1763 1.387 . S
C1763 H1748 0.930 . S
C1763 C1758 1.390 . S
C1763 C1762 1.387 . S
H1764 C1776 0.930 . S
H1765 C1778 0.930 . S
H1766 C1779 0.930 . S
H1767 C1783 0.959 . S
H1768 C1783 0.959 . S
H1769 C1783 0.961 . S
H1770 C1784 0.960 . S
H1771 C1784 0.961 . S
H1772 C1784 0.959 . S
H1773 C1787 0.929 . S
H1774 C1788 0.931 . S
H1775 C1790 0.930 . S
C1776 H1764 0.930 . S
C1776 C1777 1.399 . S
C1776 C1781 1.399 . S
C1777 C1776 1.399 . S
C1777 C1778 1.376 . S
C1778 H1765 0.930 . S
C1778 C1777 1.376 . S
C1778 C1779 1.388 . S
C1779 H1766 0.930 . S
C1779 C1778 1.388 . S
C1779 C1780 1.390 . S
C1780 C1779 1.390 . S
C1780 C1781 1.394 . S
C1780 C1786 1.465 . S
C1781 C1776 1.399 . S
C1781 C1780 1.394 . S
C1781 C1782 1.516 . S
C1782 C1781 1.516 . S
C1782 C1783 1.502 . S
C1782 C1784 1.561 . S
C1782 C1785 1.526 . S
C1783 H1767 0.959 . S
C1783 H1768 0.959 . S
C1783 H1769 0.961 . S
C1783 C1782 1.502 . S
C1784 H1770 0.960 . S
C1784 H1771 0.961 . S
C1784 H1772 0.959 . S
C1784 C1782 1.561 . S
C1785 C1782 1.526 . S
C1785 C1786 1.396 . S
C1785 C1790 1.390 . S
C1786 C1780 1.465 . S
C1786 C1785 1.396 . S
C1786 C1787 1.399 . S
C1787 H1773 0.929 . S
C1787 C1786 1.399 . S
C1787 C1788 1.385 . S
C1788 H1774 0.931 . S
C1788 C1787 1.385 . S
C1788 C1789 1.389 . S
C1789 C1788 1.389 . S
C1789 C1790 1.387 . S
C1790 H1775 0.930 . S
C1790 C1785 1.390 . S
C1790 C1789 1.387 . S
H1791 C1803 0.930 . S
H1792 C1805 0.930 . S
H1793 C1806 0.930 . S
H1794 C1810 0.959 . S
H1795 C1810 0.959 . S
H1796 C1810 0.961 . S
H1797 C1811 0.960 . S
H1798 C1811 0.961 . S
H1799 C1811 0.959 . S
H1800 C1814 0.929 . S
H1801 C1815 0.931 . S
H1802 C1817 0.930 . S
C1803 H1791 0.930 . S
C1803 C1804 1.399 . S
C1803 C1808 1.399 . S
C1804 C1803 1.399 . S
C1804 C1805 1.376 . S
C1805 H1792 0.930 . S
C1805 C1804 1.376 . S
C1805 C1806 1.388 . S
C1806 H1793 0.930 . S
C1806 C1805 1.388 . S
C1806 C1807 1.390 . S
C1807 C1806 1.390 . S
C1807 C1808 1.394 . S
C1807 C1813 1.465 . S
C1808 C1803 1.399 . S
C1808 C1807 1.394 . S
C1808 C1809 1.516 . S
C1809 C1808 1.516 . S
C1809 C1810 1.502 . S
C1809 C1811 1.561 . S
C1809 C1812 1.526 . S
C1810 H1794 0.959 . S
C1810 H1795 0.959 . S
C1810 H1796 0.961 . S
C1810 C1809 1.502 . S
C1811 H1797 0.960 . S
C1811 H1798 0.961 . S
C1811 H1799 0.959 . S
C1811 C1809 1.561 . S
C1812 C1809 1.526 . S
C1812 C1813 1.396 . S
C1812 C1817 1.390 . S
C1813 C1807 1.465 . S
C1813 C1812 1.396 . S
C1813 C1814 1.399 . S
C1814 H1800 0.929 . S
C1814 C1813 1.399 . S
C1814 C1815 1.385 . S
C1815 H1801 0.931 . S
C1815 C1814 1.385 . S
C1815 C1816 1.389 . S
C1816 C1815 1.389 . S
C1816 C1817 1.387 . S
C1817 H1802 0.930 . S
C1817 C1812 1.390 . S
C1817 C1816 1.387 . S
H1818 C1830 0.930 . S
H1819 C1832 0.930 . S
H1820 C1833 0.930 . S
H1821 C1837 0.959 . S
H1822 C1837 0.959 . S
H1823 C1837 0.961 . S
H1824 C1838 0.960 . S
H1825 C1838 0.961 . S
H1826 C1838 0.959 . S
H1827 C1841 0.929 . S
H1828 C1842 0.931 . S
H1829 C1844 0.930 . S
C1830 H1818 0.930 . S
C1830 C1831 1.399 . S
C1830 C1835 1.399 . S
C1831 C1830 1.399 . S
C1831 C1832 1.376 . S
C1832 H1819 0.930 . S
C1832 C1831 1.376 . S
C1832 C1833 1.388 . S
C1833 H1820 0.930 . S
C1833 C1832 1.388 . S
C1833 C1834 1.390 . S
C1834 C1833 1.390 . S
C1834 C1835 1.394 . S
C1834 C1840 1.465 . S
C1835 C1830 1.399 . S
C1835 C1834 1.394 . S
C1835 C1836 1.516 . S
C1836 C1835 1.516 . S
C1836 C1837 1.502 . S
C1836 C1838 1.561 . S
C1836 C1839 1.526 . S
C1837 H1821 0.959 . S
C1837 H1822 0.959 . S
C1837 H1823 0.961 . S
C1837 C1836 1.502 . S
C1838 H1824 0.960 . S
C1838 H1825 0.961 . S
C1838 H1826 0.959 . S
C1838 C1836 1.561 . S
C1839 C1836 1.526 . S
C1839 C1840 1.396 . S
C1839 C1844 1.390 . S
C1840 C1834 1.465 . S
C1840 C1839 1.396 . S
C1840 C1841 1.399 . S
C1841 H1827 0.929 . S
C1841 C1840 1.399 . S
C1841 C1842 1.385 . S
C1842 H1828 0.931 . S
C1842 C1841 1.385 . S
C1842 C1843 1.389 . S
C1843 C1842 1.389 . S
C1843 C1844 1.387 . S
C1844 H1829 0.930 . S
C1844 C1839 1.390 . S
C1844 C1843 1.387 . S
H1845 C1857 0.930 . S
H1846 C1859 0.930 . S
H1847 C1860 0.930 . S
H1848 C1864 0.959 . S
H1849 C1864 0.959 . S
H1850 C1864 0.961 . S
H1851 C1865 0.960 . S
H1852 C1865 0.961 . S
H1853 C1865 0.959 . S
H1854 C1868 0.929 . S
H1855 C1869 0.931 . S
H1856 C1871 0.930 . S
C1857 H1845 0.930 . S
C1857 C1858 1.399 . S
C1857 C1862 1.399 . S
C1858 C1857 1.399 . S
C1858 C1859 1.376 . S
C1859 H1846 0.930 . S
C1859 C1858 1.376 . S
C1859 C1860 1.388 . S
C1860 H1847 0.930 . S
C1860 C1859 1.388 . S
C1860 C1861 1.390 . S
C1861 C1860 1.390 . S
C1861 C1862 1.394 . S
C1861 C1867 1.465 . S
C1862 C1857 1.399 . S
C1862 C1861 1.394 . S
C1862 C1863 1.516 . S
C1863 C1862 1.516 . S
C1863 C1864 1.502 . S
C1863 C1865 1.561 . S
C1863 C1866 1.526 . S
C1864 H1848 0.959 . S
C1864 H1849 0.959 . S
C1864 H1850 0.961 . S
C1864 C1863 1.502 . S
C1865 H1851 0.960 . S
C1865 H1852 0.961 . S
C1865 H1853 0.959 . S
C1865 C1863 1.561 . S
C1866 C1863 1.526 . S
C1866 C1867 1.396 . S
C1866 C1871 1.390 . S
C1867 C1861 1.465 . S
C1867 C1866 1.396 . S
C1867 C1868 1.399 . S
C1868 H1854 0.929 . S
C1868 C1867 1.399 . S
C1868 C1869 1.385 . S
C1869 H1855 0.931 . S
C1869 C1868 1.385 . S
C1869 C1870 1.389 . S
C1870 C1869 1.389 . S
C1870 C1871 1.387 . S
C1871 H1856 0.930 . S
C1871 C1866 1.390 . S
C1871 C1870 1.387 . S
H1872 C1884 0.930 . S
H1873 C1886 0.930 . S
H1874 C1887 0.930 . S
H1875 C1891 0.959 . S
H1876 C1891 0.959 . S
H1877 C1891 0.961 . S
H1878 C1892 0.960 . S
H1879 C1892 0.961 . S
H1880 C1892 0.959 . S
H1881 C1895 0.929 . S
H1882 C1896 0.931 . S
H1883 C1898 0.930 . S
C1884 H1872 0.930 . S
C1884 C1885 1.399 . S
C1884 C1889 1.399 . S
C1885 C1884 1.399 . S
C1885 C1886 1.376 . S
C1886 H1873 0.930 . S
C1886 C1885 1.376 . S
C1886 C1887 1.388 . S
C1887 H1874 0.930 . S
C1887 C1886 1.388 . S
C1887 C1888 1.390 . S
C1888 C1887 1.390 . S
C1888 C1889 1.394 . S
C1888 C1894 1.465 . S
C1889 C1884 1.399 . S
C1889 C1888 1.394 . S
C1889 C1890 1.516 . S
C1890 C1889 1.516 . S
C1890 C1891 1.502 . S
C1890 C1892 1.561 . S
C1890 C1893 1.526 . S
C1891 H1875 0.959 . S
C1891 H1876 0.959 . S
C1891 H1877 0.961 . S
C1891 C1890 1.502 . S
C1892 H1878 0.960 . S
C1892 H1879 0.961 . S
C1892 H1880 0.959 . S
C1892 C1890 1.561 . S
C1893 C1890 1.526 . S
C1893 C1894 1.396 . S
C1893 C1898 1.390 . S
C1894 C1888 1.465 . S
C1894 C1893 1.396 . S
C1894 C1895 1.399 . S
C1895 H1881 0.929 . S
C1895 C1894 1.399 . S
C1895 C1896 1.385 . S
C1896 H1882 0.931 . S
C1896 C1895 1.385 . S
C1896 C1897 1.389 . S
C1897 C1896 1.389 . S
C1897 C1898 1.387 . S
C1898 H1883 0.930 . S
C1898 C1893 1.390 . S
C1898 C1897 1.387 . S
H1899 C1911 0.930 . S
H1900 C1913 0.930 . S
H1901 C1914 0.930 . S
H1902 C1918 0.959 . S
H1903 C1918 0.959 . S
H1904 C1918 0.961 . S
H1905 C1919 0.960 . S
H1906 C1919 0.961 . S
H1907 C1919 0.959 . S
H1908 C1922 0.929 . S
H1909 C1923 0.931 . S
H1910 C1925 0.930 . S
C1911 H1899 0.930 . S
C1911 C1912 1.399 . S
C1911 C1916 1.399 . S
C1912 C1911 1.399 . S
C1912 C1913 1.376 . S
C1913 H1900 0.930 . S
C1913 C1912 1.376 . S
C1913 C1914 1.388 . S
C1914 H1901 0.930 . S
C1914 C1913 1.388 . S
C1914 C1915 1.390 . S
C1915 C1914 1.390 . S
C1915 C1916 1.394 . S
C1915 C1921 1.465 . S
C1916 C1911 1.399 . S
C1916 C1915 1.394 . S
C1916 C1917 1.516 . S
C1917 C1916 1.516 . S
C1917 C1918 1.502 . S
C1917 C1919 1.561 . S
C1917 C1920 1.526 . S
C1918 H1902 0.959 . S
C1918 H1903 0.959 . S
C1918 H1904 0.961 . S
C1918 C1917 1.502 . S
C1919 H1905 0.960 . S
C1919 H1906 0.961 . S
C1919 H1907 0.959 . S
C1919 C1917 1.561 . S
C1920 C1917 1.526 . S
C1920 C1921 1.396 . S
C1920 C1925 1.390 . S
C1921 C1915 1.465 . S
C1921 C1920 1.396 . S
C1921 C1922 1.399 . S
C1922 H1908 0.929 . S
C1922 C1921 1.399 . S
C1922 C1923 1.385 . S
C1923 H1909 0.931 . S
C1923 C1922 1.385 . S
C1923 C1924 1.389 . S
C1924 C1923 1.389 . S
C1924 C1925 1.387 . S
C1925 H1910 0.930 . S
C1925 C1920 1.390 . S
C1925 C1924 1.387 . S
H1926 C1938 0.930 . S
H1927 C1940 0.930 . S
H1928 C1941 0.930 . S
H1929 C1945 0.959 . S
H1930 C1945 0.959 . S
H1931 C1945 0.961 . S
H1932 C1946 0.960 . S
H1933 C1946 0.961 . S
H1934 C1946 0.959 . S
H1935 C1949 0.929 . S
H1936 C1950 0.931 . S
H1937 C1952 0.930 . S
C1938 H1926 0.930 . S
C1938 C1939 1.399 . S
C1938 C1943 1.399 . S
C1939 C1938 1.399 . S
C1939 C1940 1.376 . S
C1940 H1927 0.930 . S
C1940 C1939 1.376 . S
C1940 C1941 1.388 . S
C1941 H1928 0.930 . S
C1941 C1940 1.388 . S
C1941 C1942 1.390 . S
C1942 C1941 1.390 . S
C1942 C1943 1.394 . S
C1942 C1948 1.465 . S
C1943 C1938 1.399 . S
C1943 C1942 1.394 . S
C1943 C1944 1.516 . S
C1944 C1943 1.516 . S
C1944 C1945 1.502 . S
C1944 C1946 1.561 . S
C1944 C1947 1.526 . S
C1945 H1929 0.959 . S
C1945 H1930 0.959 . S
C1945 H1931 0.961 . S
C1945 C1944 1.502 . S
C1946 H1932 0.960 . S
C1946 H1933 0.961 . S
C1946 H1934 0.959 . S
C1946 C1944 1.561 . S
C1947 C1944 1.526 . S
C1947 C1948 1.396 . S
C1947 C1952 1.390 . S
C1948 C1942 1.465 . S
C1948 C1947 1.396 . S
C1948 C1949 1.399 . S
C1949 H1935 0.929 . S
C1949 C1948 1.399 . S
C1949 C1950 1.385 . S
C1950 H1936 0.931 . S
C1950 C1949 1.385 . S
C1950 C1951 1.389 . S
C1951 C1950 1.389 . S
C1951 C1952 1.387 . S
C1952 H1937 0.930 . S
C1952 C1947 1.390 . S
C1952 C1951 1.387 . S
H1953 C1965 0.930 . S
H1954 C1967 0.930 . S
H1955 C1968 0.930 . S
H1956 C1972 0.959 . S
H1957 C1972 0.959 . S
H1958 C1972 0.961 . S
H1959 C1973 0.960 . S
H1960 C1973 0.961 . S
H1961 C1973 0.959 . S
H1962 C1976 0.929 . S
H1963 C1977 0.931 . S
H1964 C1979 0.930 . S
C1965 H1953 0.930 . S
C1965 C1966 1.399 . S
C1965 C1970 1.399 . S
C1966 C1965 1.399 . S
C1966 C1967 1.376 . S
C1967 H1954 0.930 . S
C1967 C1966 1.376 . S
C1967 C1968 1.388 . S
C1968 H1955 0.930 . S
C1968 C1967 1.388 . S
C1968 C1969 1.390 . S
C1969 C1968 1.390 . S
C1969 C1970 1.394 . S
C1969 C1975 1.465 . S
C1970 C1965 1.399 . S
C1970 C1969 1.394 . S
C1970 C1971 1.516 . S
C1971 C1970 1.516 . S
C1971 C1972 1.502 . S
C1971 C1973 1.561 . S
C1971 C1974 1.526 . S
C1972 H1956 0.959 . S
C1972 H1957 0.959 . S
C1972 H1958 0.961 . S
C1972 C1971 1.502 . S
C1973 H1959 0.960 . S
C1973 H1960 0.961 . S
C1973 H1961 0.959 . S
C1973 C1971 1.561 . S
C1974 C1971 1.526 . S
C1974 C1975 1.396 . S
C1974 C1979 1.390 . S
C1975 C1969 1.465 . S
C1975 C1974 1.396 . S
C1975 C1976 1.399 . S
C1976 H1962 0.929 . S
C1976 C1975 1.399 . S
C1976 C1977 1.385 . S
C1977 H1963 0.931 . S
C1977 C1976 1.385 . S
C1977 C1978 1.389 . S
C1978 C1977 1.389 . S
C1978 C1979 1.387 . S
C1979 H1964 0.930 . S
C1979 C1974 1.390 . S
C1979 C1978 1.387 . S
C535 C253 1.577 . S
C547 C348 1.561 . S
C562 C272 1.522 . S
C574 C368 1.532 . S
C589 C234 1.530 . S
C601 C391 1.518 . S
C616 C215 1.429 . S
C628 C371 1.407 1_556 S
C655 C388 1.426 1_556 S
C643 C177 1.466 . S
C670 C196 1.467 . S
C682 C351 1.493 . S
C709 C358 1.590 1_556 S
C697 C220 1.480 . S
C736 C378 1.402 . S
C724 C182 1.433 . S
C751 C201 1.505 . S
C763 C383 1.635 . S
C778 C258 1.381 . S
C790 C363 1.517 . S
C805 C277 1.326 . S
C817 C398 1.455 . S
C844 C343 1.616 . S
C832 C239 1.436 . S
C871 C408 1.579 . S
C859 C25 1.579 . S
C886 C44 1.543 . S
C898 C428 1.497 . S
C913 C6 1.531 . S
C925 C451 1.518 . S
C940 C329 1.395 . S
C952 C431 1.435 . S
C967 C291 1.461 . S
C979 C448 1.443 . S
C994 C310 1.464 . S
C1006 C411 1.494 . S
C1021 C334 1.452 . S
C1033 C418 1.599 . S
C1048 C296 1.434 . S
C1060 C438 1.408 . S
C1087 C443 1.639 . S
C1075 C315 1.487 . S
C1102 C30 1.448 . S
C1114 C423 1.468 . S
C1141 C458 1.419 . S
C1129 C49 1.300 . S
C1156 C11 1.527 . S
C1168 C403 1.570 . S
C1195 C468 1.587 . S
C1183 C139 1.572 . S
C1210 C158 1.529 . S
C1222 C488 1.528 . S
C1249 C511 1.544 . S
C1237 C120 1.497 . S
C1276 C491 1.434 . S
C1264 C101 1.398 . S
C1303 C508 1.465 . S
C1291 C63 1.456 . S
C1318 C82 1.464 . S
C1330 C471 1.494 . S
C1345 C106 1.530 . S
C1357 C478 1.539 . S
C1372 C68 1.348 . S
C1384 C498 1.467 . S
C1411 C503 1.639 . S
C1399 C87 1.485 . S
C1426 C144 1.386 . S
C1438 C483 1.516 . S
C1453 C163 1.290 . S
C1465 C518 1.454 . S
C1480 C125 1.518 . S
C1492 C463 1.573 . S
C1507 C287 1.377 . S
C1519 C361 1.329 . S
C1546 C381 1.730 . S
C1534 C306 1.774 . S
C1561 C325 1.529 . S
C1573 C390 1.551 . S
C1588 C116 1.743 . S
C1600 C370 1.666 . S
C1615 C135 1.643 . S
C1627 C401 1.618 . S
C1654 C350 1.361 . S
C1642 C154 1.364 . S
C1669 C59 1.410 . S
C1681 C421 1.332 . S
C1696 C78 1.780 . S
C1708 C441 1.744 . S
C1723 C97 1.530 . S
C1735 C450 1.552 . S
C1750 C230 1.743 . S
C1762 C430 1.668 . S
C1789 C461 1.567 . S
C1777 C249 1.680 . S
C1804 C268 1.349 . S
C1816 C410 1.299 . S
C1831 C173 1.380 . S
C1843 C481 1.321 . S
C1858 C192 1.810 . S
C1870 C501 1.683 . S
C1897 C510 1.499 . S
C1885 C211 1.563 . S
C1912 C2 1.708 . S
C1924 C490 1.713 . S
C1939 C21 1.681 . S
C1951 C521 1.551 . S
C1966 C40 1.358 . S
C1978 C470 1.365 . S
