# Generated by pormake.
# Topology zzz, (3,6)-cn, num edge types: 1
# Building blocks:
#     Node 0, Type 0, BuildingBlock: BETDAH_clean_linker_0, # of connection points: 3
#     Node 1, Type 0, BuildingBlock: BETDAH_clean_linker_0, # of connection points: 3
#     Node 2, Type 0, BuildingBlock: BETDAH_clean_linker_0, # of connection points: 3
#     Node 3, Type 0, BuildingBlock: BETDAH_clean_linker_0, # of connection points: 3
#     Node 4, Type 0, BuildingBlock: BETDAH_clean_linker_0, # of connection points: 3
#     Node 5, Type 0, BuildingBlock: BETDAH_clean_linker_0, # of connection points: 3
#     Node 6, Type 0, BuildingBlock: BETDAH_clean_linker_0, # of connection points: 3
#     Node 7, Type 0, BuildingBlock: BETDAH_clean_linker_0, # of connection points: 3
#     Node 8, Type 1, BuildingBlock: CUWYAW_clean_sbu_0, # of connection points: 6
#     Node 9, Type 1, BuildingBlock: CUWYAW_clean_sbu_0, # of connection points: 6
#     Node 10, Type 1, BuildingBlock: CUWYAW_clean_sbu_0, # of connection points: 6
#     Node 11, Type 1, BuildingBlock: CUWYAW_clean_sbu_0, # of connection points: 6
#     Edge 12, Type (0, 1), None
#     Edge 13, Type (0, 1), None
#     Edge 14, Type (0, 1), None
#     Edge 15, Type (0, 1), None
#     Edge 16, Type (0, 1), None
#     Edge 17, Type (0, 1), None
#     Edge 18, Type (0, 1), None
#     Edge 19, Type (0, 1), None
#     Edge 20, Type (0, 1), None
#     Edge 21, Type (0, 1), None
#     Edge 22, Type (0, 1), None
#     Edge 23, Type (0, 1), None
#     Edge 24, Type (0, 1), None
#     Edge 25, Type (0, 1), None
#     Edge 26, Type (0, 1), None
#     Edge 27, Type (0, 1), None
#     Edge 28, Type (0, 1), None
#     Edge 29, Type (0, 1), None
#     Edge 30, Type (0, 1), None
#     Edge 31, Type (0, 1), None
#     Edge 32, Type (0, 1), None
#     Edge 33, Type (0, 1), None
#     Edge 34, Type (0, 1), None
#     Edge 35, Type (0, 1), None
# Relax obj value: 0.656
# Max RMSD: 0.232
# Mean RMSD: 0.130
data_MOF--net-zzz--node1-CUWYAW_clean_sbu_0--node2-BETDAH_clean_linker_0--edge1-none
_symmetry_space_group_name_H-M    P1
_symmetry_Int_Tables_number       1
_symmetry_cell_setting            triclinic
loop_
_symmetry_equiv_pos_as_xyz
'x, y, z'
_cell_length_a     22.442294
_cell_length_b     22.479782
_cell_length_c     7.0756234
_cell_angle_alpha  89.744596
_cell_angle_beta   90.062819
_cell_angle_gamma 90.245215
loop_
_atom_site_label
_atom_site_type_symbol
_atom_site_fract_x
_atom_site_fract_y
_atom_site_fract_z
_atom_type_partial_charge
H0 H 0.88911 0.52158 0.48468 0.0
H1 H 0.74489 0.5098 0.2077 0.0
H2 H 0.8198 0.62105 0.64908 0.0
C3 C 0.88313 0.49543 0.40211 0.0
C4 C 0.88191 0.54797 0.5462 0.0
C5 C 0.83258 0.48554 0.29038 0.0
C6 C 0.78174 0.52142 0.29926 0.0
C7 C 0.77566 0.56961 0.42478 0.0
C8 C 0.82409 0.58446 0.55129 0.0
N9 N 0.72009 0.60228 0.42629 0.0
C10 C 0.67214 0.59518 0.29565 0.0
H11 H 0.07984 0.88758 0.48012 0.0
H12 H 0.0919 0.74343 0.20752 0.0
H13 H 0.98023 0.81763 0.64749 0.0
C14 C 0.10606 0.88179 0.39748 0.0
C15 C 0.05337 0.88014 0.54206 0.0
C16 C 0.11612 0.83127 0.28737 0.0
C17 C 0.08021 0.7802 0.29814 0.0
C18 C 1.03186 0.77388 0.42418 0.0
C19 C 1.01692 0.82214 0.54931 0.0
N20 N 0.99906 0.71825 0.42744 0.0
C21 C 1.00622 0.67057 0.29751 0.0
H22 H 0.71371 0.07414 0.48562 0.0
H23 H 0.85805 0.09007 0.21208 0.0
H24 H 0.78415 0.97426 0.64596 0.0
C25 C 0.71938 0.10109 0.40502 0.0
C26 C 0.72126 1.04722 0.54573 0.0
C27 C 0.7701 0.11303 0.29638 0.0
C28 C 0.82128 0.07743 0.30289 0.0
C29 C 0.82754 1.02787 0.4246 0.0
C30 C 0.77941 1.0115 0.54978 0.0
N31 N 0.88303 0.99529 0.42462 0.0
C32 C 0.9306 1.00272 0.29345 0.0
H33 H 0.52291 0.71232 0.48142 0.0
H34 H 0.51288 0.85419 0.19467 0.0
H35 H 0.62635 0.77987 0.63335 0.0
C36 C 0.49606 0.7182 0.40072 0.0
C37 C 0.55014 0.71908 0.5404 0.0
C38 C 0.48665 0.7682 0.28652 0.0
C39 C 0.52403 0.81821 0.29004 0.0
C40 C 0.57356 0.82415 0.41194 0.0
C41 C 0.58855 0.77597 0.5391 0.0
N42 N 0.60777 0.87904 0.40648 0.0
C43 C 0.59409 0.92914 0.29032 0.0
H44 H 0.18145 0.62133 0.32544 0.0
H45 H 0.35581 0.58816 0.54895 0.0
H46 H 0.28238 0.47305 0.11678 0.0
C47 C 0.22144 0.59443 0.3258 0.0
C48 C 0.22412 0.54529 0.20574 0.0
C49 C 0.26873 0.60966 0.44738 0.0
C50 C 0.32023 0.57527 0.45387 0.0
C51 C 0.3268 0.52595 0.33558 0.0
C52 C 0.27813 0.51091 0.20969 0.0
N53 N 0.38198 0.49273 0.34012 0.0
C54 C 0.42956 0.50054 0.47191 0.0
H55 H 1.02196 0.21422 0.28219 0.0
H56 H 1.0114 0.35724 0.56217 0.0
H57 H 0.12437 0.28263 0.12608 0.0
C58 C 0.99524 0.22025 0.36296 0.0
C59 C 1.04909 0.22129 0.22282 0.0
C60 C 0.98547 0.27045 0.47483 0.0
C61 C 1.0226 0.32078 0.46951 0.0
C62 C 0.07194 0.32662 0.34712 0.0
C63 C 0.08684 0.27851 0.22114 0.0
N64 N 0.10585 0.3816 0.34792 0.0
C65 C 0.09931 0.42929 0.47835 0.0
H66 H 0.3877 1.02724 0.26874 0.0
H67 H 0.24453 1.01126 0.54796 0.0
H68 H 0.31701 0.12774 0.11343 0.0
C69 C 0.3823 1.00013 0.34883 0.0
C70 C 0.38002 0.05435 0.20952 0.0
C71 C 0.33204 0.98814 0.4595 0.0
C72 C 0.28094 1.02393 0.45573 0.0
C73 C 0.2743 0.07373 0.3351 0.0
C74 C 0.322 0.09027 0.20856 0.0
N75 N 0.21886 0.10641 0.33765 0.0
C76 C 0.17167 0.09852 0.4699 0.0
H77 H 0.62124 0.42127 0.32221 0.0
H78 H 0.58635 0.24853 0.55357 0.0
H79 H 0.47035 0.32083 0.12033 0.0
C80 C 0.59379 0.38147 0.32436 0.0
C81 C 0.54418 0.37856 0.20504 0.0
C82 C 0.60858 0.33471 0.44808 0.0
C83 C 0.57365 0.28346 0.45613 0.0
C84 C 0.52383 0.27663 0.3386 0.0
C85 C 0.50875 0.32502 0.21204 0.0
N86 N 0.4898 0.22175 0.34753 0.0
C87 C 0.50527 0.17126 0.45961 0.0
C88 C 0.90188 0.11484 0.71899 0.0
Eu89 Eu 1.00186 0.0644 0.81388 0.0
C90 C 0.8787 0.17305 0.77564 0.0
C91 C 0.91702 0.20758 0.88695 0.0
C92 C 0.9488 0.25326 0.79672 0.0
C93 C 0.93518 0.26645 0.60747 0.0
C94 C 0.87949 0.24749 0.53678 0.0
C95 C 0.84924 0.20204 0.63069 0.0
C96 C 0.97578 1.00528 0.14069 0.0
C97 C 0.06617 0.16517 0.07861 0.0
C98 C 0.2006 0.98612 0.0423 0.0
Eu99 Eu 0.10062 1.03701 0.94991 0.0
C100 C 0.22333 0.92774 0.98519 0.0
C101 C 0.18471 0.89339 0.87429 0.0
C102 C 0.15278 0.84786 0.96486 0.0
C103 C 0.16632 0.8349 0.1543 0.0
C104 C 0.22218 0.8535 0.22459 0.0
C105 C 0.25272 0.89858 0.12984 0.0
C106 C 0.12686 0.09551 0.62361 0.0
C107 C 1.03628 0.93629 0.6859 0.0
O108 O 0.9497 0.11649 0.61349 0.0
O109 O 0.90586 0.07543 0.85187 0.0
O110 O 0.95967 0.98823 0.97449 0.0
O111 O 1.01584 1.04565 0.12405 0.0
O112 O 1.03425 0.15671 0.924 0.0
O113 O 0.09314 0.11764 0.1444 0.0
O114 O 0.1531 0.98483 0.14929 0.0
O115 O 0.19647 1.02549 0.90942 0.0
O116 O 0.14254 0.1134 0.78932 0.0
O117 O 0.08656 0.05537 0.64 0.0
O118 O 0.06783 0.94467 0.84126 0.0
O119 O 1.00974 0.98392 0.61926 0.0
H120 H 0.93291 0.19023 1.02037 0.0
H121 H 0.98953 0.26963 0.86066 0.0
H122 H 0.86553 0.25756 0.39456 0.0
H123 H 0.81371 0.17898 0.5612 0.0
H124 H 0.16886 0.91076 0.74084 0.0
H125 H 0.11203 0.83148 0.90107 0.0
H126 H 0.23622 0.84328 0.36674 0.0
H127 H 0.28849 0.92143 0.19848 0.0
C128 C 0.4878 0.90182 0.70853 0.0
Eu129 Eu 0.52967 1.00374 0.81796 0.0
C130 C 0.42857 0.87868 0.75865 0.0
C131 C 0.39384 0.91679 0.86949 0.0
C132 C 0.34859 0.94881 0.77912 0.0
C133 C 0.33665 0.93681 0.58841 0.0
C134 C 0.35616 0.88203 0.51457 0.0
C135 C 0.40009 0.85058 0.61045 0.0
C136 C 0.57039 0.97877 0.17377 0.0
C137 C 0.43461 0.07194 0.05906 0.0
C138 C 0.61349 0.19999 0.04451 0.0
Eu139 Eu 0.5711 0.09824 0.93493 0.0
C140 C 0.67341 0.22208 0.99859 0.0
C141 C 0.70803 0.18399 0.88735 0.0
C142 C 0.75352 0.15212 0.9769 0.0
C143 C 0.76598 0.16429 0.16715 0.0
C144 C 0.74657 0.21902 0.24127 0.0
C145 C 0.70165 0.24975 0.14811 0.0
C146 C 0.52963 0.12224 0.57757 0.0
C147 C 0.6662 1.02989 0.69481 0.0
O148 O 0.48766 0.94923 0.60059 0.0
O149 O 0.52481 0.90695 0.84759 0.0
O150 O 0.51543 0.9762 0.12287 0.0
O151 O 0.59952 1.00768 0.04804 0.0
O152 O 0.43877 1.04069 0.90373 0.0
O153 O 0.48594 0.09302 0.12263 0.0
O154 O 0.61216 0.15291 0.15381 0.0
O155 O 0.57762 0.19484 0.90246 0.0
O156 O 0.58452 0.12573 0.62906 0.0
O157 O 0.50103 0.09415 0.70614 0.0
O158 O 0.66197 0.06083 0.85074 0.0
O159 O 0.61482 1.00925 0.63014 0.0
H160 H 0.4107 0.93265 1.00334 0.0
H161 H 0.33176 0.98878 0.84489 0.0
H162 H 0.34749 0.86922 0.37071 0.0
H163 H 0.42262 0.81505 0.5413 0.0
H164 H 0.69098 0.16807 0.75378 0.0
H165 H 0.77014 0.11207 0.91112 0.0
H166 H 0.75568 0.23189 0.3849 0.0
H167 H 0.67846 0.28397 0.22062 0.0
C168 C 0.70039 0.48441 0.72553 0.0
Eu169 Eu 0.6 0.53447 0.81846 0.0
C170 C 0.72317 0.4247 0.76835 0.0
C171 C 0.68423 0.38814 0.87137 0.0
C172 C 0.64931 0.34767 0.7697 0.0
C173 C 0.65998 0.34165 0.57512 0.0
C174 C 0.71489 0.3619 0.50222 0.0
C175 C 0.7499 0.39938 0.61249 0.0
C176 C 0.62661 0.59299 0.14293 0.0
C177 C 0.5339 0.43299 0.07924 0.0
C178 C 0.40116 0.6137 0.04186 0.0
Eu179 Eu 0.50092 0.56211 0.95139 0.0
C180 C 0.37882 0.67254 0.98604 0.0
C181 C 0.41741 0.70697 0.87467 0.0
C182 C 0.4495 0.75228 0.96457 0.0
C183 C 0.43624 0.76484 0.1541 0.0
C184 C 0.38045 0.74634 0.22499 0.0
C185 C 0.34974 0.70152 0.13091 0.0
C186 C 0.47483 0.50298 0.62566 0.0
C187 C 0.56666 0.66296 0.68682 0.0
O188 O 0.6537 0.48619 0.61479 0.0
O189 O 0.69498 0.51965 0.86802 0.0
O190 O 0.6422 0.61076 0.9766 0.0
O191 O 0.5857 0.55334 0.12786 0.0
O192 O 0.56762 0.44194 0.92867 0.0
O193 O 0.50612 0.48011 0.14329 0.0
O194 O 0.44847 0.61401 0.15016 0.0
O195 O 0.40543 0.5752 0.90758 0.0
O196 O 0.45841 0.48614 0.7921 0.0
O197 O 0.51513 0.54318 0.64242 0.0
O198 O 0.53387 0.65432 0.83953 0.0
O199 O 0.59396 0.61556 0.62342 0.0
H200 H 0.6705 0.4011 1.01148 0.0
H201 H 0.60921 0.32975 0.83374 0.0
H202 H 0.7262 0.35753 0.35468 0.0
H203 H 0.78708 0.42205 0.55098 0.0
H204 H 0.43312 0.68981 0.7414 0.0
H205 H 0.49024 0.76862 0.90036 0.0
H206 H 0.36659 0.75631 0.36723 0.0
H207 H 0.31404 0.67889 0.20028 0.0
C208 C 0.11755 0.69971 0.72417 0.0
Eu209 Eu 0.06719 0.59933 0.82093 0.0
C210 C 0.17751 0.72257 0.76579 0.0
C211 C 0.21387 0.68386 0.86938 0.0
C212 C 0.25467 0.64948 0.76847 0.0
C213 C 0.26169 0.66073 0.57437 0.0
C214 C 0.24151 0.7155 0.50124 0.0
C215 C 0.20314 0.74965 0.60992 0.0
C216 C 1.00852 0.62532 0.14556 0.0
C217 C 0.16915 0.53448 0.08183 0.0
C218 C 0.98726 0.40057 0.0516 0.0
Eu219 Eu 1.03942 0.50021 0.95767 0.0
C220 C 0.92845 0.37795 0.99422 0.0
C221 C 0.89459 0.41633 0.88104 0.0
C222 C 0.84919 0.44847 0.9692 0.0
C223 C 0.83577 0.43527 0.15853 0.0
C224 C 0.85358 0.37954 0.23073 0.0
C225 C 0.89859 0.34881 0.13854 0.0
C226 C 0.09781 0.47457 0.63065 0.0
C227 C 0.9384 0.56474 0.69145 0.0
O228 O 0.11554 0.65298 0.61476 0.0
O229 O 0.08221 0.69432 0.86722 0.0
O230 O 0.99081 0.64084 0.97915 0.0
O231 O 1.04839 0.58502 0.13091 0.0
O232 O 0.16001 0.56762 0.92982 0.0
O233 O 0.12193 0.50651 0.14794 0.0
O234 O 0.98664 0.4481 0.15767 0.0
O235 O 1.02662 0.40455 0.91893 0.0
O236 O 0.1151 0.45831 0.79678 0.0
O237 O 0.05767 0.51447 0.64801 0.0
O238 O 0.94703 0.53242 0.84542 0.0
O239 O 0.98594 0.59225 0.62668 0.0
H240 H 0.20053 0.66989 1.00938 0.0
H241 H 0.27226 0.60938 0.83261 0.0
H242 H 0.24646 0.7273 0.35417 0.0
H243 H 0.18044 0.78648 0.54731 0.0
H244 H 0.91227 0.43181 0.74749 0.0
H245 H 0.83328 0.48906 0.90377 0.0
H246 H 0.84276 0.36566 0.37257 0.0
H247 H 0.92037 0.3126 0.2081 0.0
loop_
_geom_bond_atom_site_label_1
_geom_bond_atom_site_label_2
_geom_bond_distance
_geom_bond_site_symmetry_2
_ccdc_geom_bond_type
H0 C3 0.929 . S
H1 C6 0.929 . S
H2 C8 0.930 . S
C3 H0 0.929 . S
C3 C4 1.398 . S
C3 C5 1.396 . S
C4 C3 1.398 . S
C4 C8 1.407 . S
C5 C3 1.396 . S
C5 C6 1.394 . S
C6 H1 0.929 . S
C6 C5 1.394 . S
C6 C7 1.382 . S
C7 C6 1.382 . S
C7 C8 1.392 . S
C7 N9 1.420 . S
C8 H2 0.930 . S
C8 C4 1.407 . S
C8 C7 1.392 . S
N9 C7 1.420 . S
N9 C10 1.244 . S
C10 N9 1.244 . S
H11 C14 0.929 . S
H12 C17 0.929 . S
H13 C19 0.930 . S
C14 H11 0.929 . S
C14 C15 1.398 1_655 S
C14 C16 1.394 1_655 S
C15 C14 1.398 1_455 S
C15 C19 1.407 . S
C16 C14 1.394 1_455 S
C16 C17 1.398 . S
C17 H12 0.929 . S
C17 C16 1.398 . S
C17 C18 1.382 . S
C18 C17 1.382 . S
C18 C19 1.392 . S
C18 N20 1.420 . S
C19 H13 0.930 . S
C19 C15 1.407 . S
C19 C18 1.392 . S
N20 C18 1.420 . S
N20 C21 1.244 1_455 S
C21 N20 1.244 1_655 S
H22 C25 0.929 . S
H23 C28 0.929 . S
H24 C30 0.930 . S
C25 H22 0.929 . S
C25 C26 1.398 1_565 S
C25 C27 1.394 1_565 S
C26 C25 1.398 1_545 S
C26 C30 1.407 . S
C27 C25 1.394 1_545 S
C27 C28 1.398 . S
C28 H23 0.929 . S
C28 C27 1.398 . S
C28 C29 1.382 . S
C29 C28 1.382 . S
C29 C30 1.392 . S
C29 N31 1.420 . S
C30 H24 0.930 . S
C30 C26 1.407 . S
C30 C29 1.392 . S
N31 C29 1.420 . S
N31 C32 1.244 1_545 S
C32 N31 1.244 1_565 S
H33 C36 0.929 . S
H34 C39 0.929 . S
H35 C41 0.930 . S
C36 H33 0.929 . S
C36 C37 1.398 . S
C36 C38 1.396 . S
C37 C36 1.398 . S
C37 C41 1.407 . S
C38 C36 1.396 . S
C38 C39 1.394 . S
C39 H34 0.929 . S
C39 C38 1.394 . S
C39 C40 1.382 . S
C40 C39 1.382 . S
C40 C41 1.392 . S
C40 N42 1.420 . S
C41 H35 0.930 . S
C41 C37 1.407 . S
C41 C40 1.392 . S
N42 C40 1.420 . S
N42 C43 1.244 . S
C43 N42 1.244 . S
H44 C47 0.929 . S
H45 C50 0.929 . S
H46 C52 0.930 . S
C47 H44 0.929 . S
C47 C48 1.398 . S
C47 C49 1.396 1_556 S
C48 C47 1.398 . S
C48 C52 1.407 . S
C49 C47 1.396 1_554 S
C49 C50 1.394 . S
C50 H45 0.929 . S
C50 C49 1.394 . S
C50 C51 1.382 . S
C51 C50 1.382 . S
C51 C52 1.392 1_554 S
C51 N53 1.420 . S
C52 H46 0.930 . S
C52 C48 1.407 . S
C52 C51 1.392 1_556 S
N53 C51 1.420 . S
N53 C54 1.244 . S
C54 N53 1.244 . S
H55 C58 0.929 1_556 S
H56 C61 0.929 . S
H57 C63 0.930 . S
C58 H55 0.929 1_554 S
C58 C59 1.398 1_654 S
C58 C60 1.396 1_655 S
C59 C58 1.398 1_456 S
C59 C63 1.407 . S
C60 C58 1.396 1_455 S
C60 C61 1.394 . S
C61 H56 0.929 . S
C61 C60 1.394 . S
C61 C62 1.382 . S
C62 C61 1.382 . S
C62 C63 1.392 1_554 S
C62 N64 1.420 . S
C63 H57 0.930 . S
C63 C59 1.407 . S
C63 C62 1.392 1_556 S
N64 C62 1.420 . S
N64 C65 1.244 1_455 S
C65 N64 1.244 1_655 S
H66 C69 0.929 . S
H67 C72 0.929 . S
H68 C74 0.930 . S
C69 H66 0.929 . S
C69 C70 1.398 1_565 S
C69 C71 1.396 1_566 S
C70 C69 1.398 1_545 S
C70 C74 1.407 . S
C71 C69 1.396 1_544 S
C71 C72 1.394 . S
C72 H67 0.929 . S
C72 C71 1.394 . S
C72 C73 1.382 . S
C73 C72 1.382 . S
C73 C74 1.392 1_554 S
C73 N75 1.420 . S
C74 H68 0.930 . S
C74 C70 1.407 . S
C74 C73 1.392 1_556 S
N75 C73 1.420 . S
N75 C76 1.244 1_545 S
C76 N75 1.244 1_565 S
H77 C80 0.929 . S
H78 C83 0.929 . S
H79 C85 0.930 . S
C80 H77 0.929 . S
C80 C81 1.398 . S
C80 C82 1.396 1_556 S
C81 C80 1.398 . S
C81 C85 1.407 . S
C82 C80 1.396 1_554 S
C82 C83 1.394 . S
C83 H78 0.929 . S
C83 C82 1.394 . S
C83 C84 1.382 . S
C84 C83 1.382 . S
C84 C85 1.392 1_554 S
C84 N86 1.420 . S
C85 H79 0.930 . S
C85 C81 1.407 . S
C85 C84 1.392 1_556 S
N86 C84 1.420 . S
N86 C87 1.244 . S
C87 N86 1.244 . S
C88 Eu89 2.835 . S
C88 C90 1.500 . S
C88 O108 1.257 . S
C88 O109 1.260 . S
Eu89 C88 2.835 . S
Eu89 O108 2.473 . S
Eu89 O109 2.480 . S
Eu89 O110 2.430 . S
Eu89 O111 2.670 1_545 S
Eu89 O112 2.394 . S
Eu89 O117 2.355 1_655 S
Eu89 O119 2.374 1_545 S
C90 C88 1.500 . S
C90 C91 1.377 . S
C90 C95 1.377 . S
C91 C90 1.377 . S
C91 C92 1.395 . S
C91 H120 0.931 . S
C92 C91 1.395 . S
C92 C93 1.383 . S
C92 H121 0.931 . S
C93 C92 1.383 . S
C93 C94 1.394 . S
C94 C93 1.394 . S
C94 C95 1.378 . S
C94 H122 0.931 . S
C95 C90 1.377 . S
C95 C94 1.378 . S
C95 H123 0.913 1_655 S
C96 O110 1.259 1_554 S
C96 O111 1.270 1_544 S
C97 O112 1.251 1_455 S
C97 O113 1.251 1_556 S
C98 Eu99 2.835 . S
C98 C100 1.500 . S
C98 O114 1.257 . S
C98 O115 1.260 . S
Eu99 C98 2.835 . S
Eu99 O111 2.355 1_454 S
Eu99 O113 2.374 1_565 S
Eu99 O114 2.473 . S
Eu99 O115 2.480 . S
Eu99 O116 2.430 1_554 S
Eu99 O117 2.670 1_564 S
Eu99 O118 2.394 1_554 S
C100 C98 1.500 . S
C100 C101 1.377 . S
C100 C105 1.377 . S
C101 C100 1.377 . S
C101 C102 1.395 . S
C101 H124 0.931 . S
C102 C101 1.395 . S
C102 C103 1.383 . S
C102 H125 0.931 . S
C103 C102 1.383 . S
C103 C104 1.394 . S
C104 C103 1.394 . S
C104 C105 1.378 . S
C104 H126 0.931 . S
C105 C100 1.377 . S
C105 C104 1.378 . S
C105 H127 0.917 1_455 S
C106 O116 1.259 . S
C106 O117 1.270 1_565 S
C107 O118 1.251 1_655 S
C107 O119 1.251 . S
O108 C88 1.257 . S
O108 Eu89 2.473 . S
O109 C88 1.260 . S
O109 Eu89 2.480 . S
O110 Eu89 2.430 . S
O110 C96 1.259 1_556 S
O111 Eu89 2.670 1_565 S
O111 C96 1.270 1_566 S
O111 Eu99 2.355 1_656 S
O112 Eu89 2.394 . S
O112 C97 1.251 1_655 S
O113 C97 1.251 1_554 S
O113 Eu99 2.374 1_545 S
O114 C98 1.257 . S
O114 Eu99 2.473 . S
O115 C98 1.260 . S
O115 Eu99 2.480 . S
O116 Eu99 2.430 1_556 S
O116 C106 1.259 . S
O117 Eu89 2.355 1_455 S
O117 Eu99 2.670 1_546 S
O117 C106 1.270 1_545 S
O118 Eu99 2.394 1_556 S
O118 C107 1.251 1_455 S
O119 Eu89 2.374 1_565 S
O119 C107 1.251 . S
H120 C91 0.931 . S
H121 C92 0.931 . S
H122 C94 0.931 . S
H123 C95 0.913 1_455 S
H124 C101 0.931 . S
H125 C102 0.931 . S
H126 C104 0.931 . S
H127 C105 0.917 1_655 S
C128 Eu129 2.835 . S
C128 C130 1.500 . S
C128 O148 1.257 . S
C128 O149 1.260 . S
Eu129 C128 2.835 . S
Eu129 O148 2.473 . S
Eu129 O149 2.480 . S
Eu129 O150 2.430 . S
Eu129 O151 2.670 . S
Eu129 O152 2.394 . S
Eu129 O157 2.355 1_565 S
Eu129 O159 2.374 . S
C130 C128 1.500 . S
C130 C131 1.377 . S
C130 C135 1.377 . S
C131 C130 1.377 . S
C131 C132 1.395 . S
C131 H160 0.931 . S
C132 C131 1.395 . S
C132 C133 1.383 . S
C132 H161 0.931 . S
C133 C132 1.383 . S
C133 C134 1.394 . S
C134 C133 1.394 . S
C134 C135 1.378 . S
C134 H162 0.931 . S
C135 C130 1.377 . S
C135 C134 1.378 . S
C135 H163 0.931 1_565 S
C136 O150 1.259 1_554 S
C136 O151 1.270 1_554 S
C137 O152 1.251 1_545 S
C137 O153 1.251 1_556 S
C138 Eu139 2.835 . S
C138 C140 1.500 . S
C138 O154 1.257 . S
C138 O155 1.260 . S
Eu139 C138 2.835 . S
Eu139 O151 2.355 1_544 S
Eu139 O153 2.374 . S
Eu139 O154 2.473 . S
Eu139 O155 2.480 . S
Eu139 O156 2.430 1_554 S
Eu139 O157 2.670 1_554 S
Eu139 O158 2.394 1_554 S
C140 C138 1.500 . S
C140 C141 1.377 . S
C140 C145 1.377 . S
C141 C140 1.377 . S
C141 C142 1.395 . S
C141 H164 0.931 . S
C142 C141 1.395 . S
C142 C143 1.383 . S
C142 H165 0.931 . S
C143 C142 1.383 . S
C143 C144 1.394 . S
C144 C143 1.394 . S
C144 C145 1.378 . S
C144 H166 0.931 . S
C145 C140 1.377 . S
C145 C144 1.378 . S
C145 H167 0.931 1_545 S
C146 O156 1.259 . S
C146 O157 1.270 . S
C147 O158 1.251 1_565 S
C147 O159 1.251 . S
O148 C128 1.257 . S
O148 Eu129 2.473 . S
O149 C128 1.260 . S
O149 Eu129 2.480 . S
O150 Eu129 2.430 . S
O150 C136 1.259 1_556 S
O151 Eu129 2.670 . S
O151 C136 1.270 1_556 S
O151 Eu139 2.355 1_566 S
O152 Eu129 2.394 . S
O152 C137 1.251 1_565 S
O153 C137 1.251 1_554 S
O153 Eu139 2.374 . S
O154 C138 1.257 . S
O154 Eu139 2.473 . S
O155 C138 1.260 . S
O155 Eu139 2.480 . S
O156 Eu139 2.430 1_556 S
O156 C146 1.259 . S
O157 Eu129 2.355 1_545 S
O157 Eu139 2.670 1_556 S
O157 C146 1.270 . S
O158 Eu139 2.394 1_556 S
O158 C147 1.251 1_545 S
O159 Eu129 2.374 . S
O159 C147 1.251 . S
H160 C131 0.931 . S
H161 C132 0.931 . S
H162 C134 0.931 . S
H163 C135 0.931 1_545 S
H164 C141 0.931 . S
H165 C142 0.931 . S
H166 C144 0.931 . S
H167 C145 0.931 1_565 S
C168 Eu169 2.835 . S
C168 C170 1.500 . S
C168 O188 1.257 . S
C168 O189 1.260 . S
Eu169 C168 2.835 . S
Eu169 O188 2.473 . S
Eu169 O189 2.480 . S
Eu169 O190 2.430 . S
Eu169 O191 2.670 . S
Eu169 O192 2.394 . S
Eu169 O197 2.355 . S
Eu169 O199 2.374 . S
C170 C168 1.500 . S
C170 C171 1.377 . S
C170 C175 1.377 . S
C171 C170 1.377 . S
C171 C172 1.395 . S
C171 H200 0.931 . S
C172 C171 1.395 . S
C172 C173 1.383 . S
C172 H201 0.931 . S
C173 C172 1.383 . S
C173 C174 1.394 . S
C174 C173 1.394 . S
C174 C175 1.378 . S
C174 H202 0.931 . S
C175 C170 1.377 . S
C175 C174 1.378 . S
C175 H203 0.931 . S
C176 O190 1.259 1_554 S
C176 O191 1.270 1_554 S
C177 O192 1.251 . S
C177 O193 1.251 1_556 S
C178 Eu179 2.835 . S
C178 C180 1.500 . S
C178 O194 1.257 . S
C178 O195 1.260 . S
Eu179 C178 2.835 . S
Eu179 O191 2.355 1_554 S
Eu179 O193 2.374 . S
Eu179 O194 2.473 . S
Eu179 O195 2.480 . S
Eu179 O196 2.430 1_554 S
Eu179 O197 2.670 1_554 S
Eu179 O198 2.394 1_554 S
C180 C178 1.500 . S
C180 C181 1.377 . S
C180 C185 1.377 . S
C181 C180 1.377 . S
C181 C182 1.395 . S
C181 H204 0.931 . S
C182 C181 1.395 . S
C182 C183 1.383 . S
C182 H205 0.931 . S
C183 C182 1.383 . S
C183 C184 1.394 . S
C184 C183 1.394 . S
C184 C185 1.378 . S
C184 H206 0.931 . S
C185 C180 1.377 . S
C185 C184 1.378 . S
C185 H207 0.931 . S
C186 O196 1.259 . S
C186 O197 1.270 . S
C187 O198 1.251 . S
C187 O199 1.251 . S
O188 C168 1.257 . S
O188 Eu169 2.473 . S
O189 C168 1.260 . S
O189 Eu169 2.480 . S
O190 Eu169 2.430 . S
O190 C176 1.259 1_556 S
O191 Eu169 2.670 . S
O191 C176 1.270 1_556 S
O191 Eu179 2.355 1_556 S
O192 Eu169 2.394 . S
O192 C177 1.251 . S
O193 C177 1.251 1_554 S
O193 Eu179 2.374 . S
O194 C178 1.257 . S
O194 Eu179 2.473 . S
O195 C178 1.260 . S
O195 Eu179 2.480 . S
O196 Eu179 2.430 1_556 S
O196 C186 1.259 . S
O197 Eu169 2.355 . S
O197 Eu179 2.670 1_556 S
O197 C186 1.270 . S
O198 Eu179 2.394 1_556 S
O198 C187 1.251 . S
O199 Eu169 2.374 . S
O199 C187 1.251 . S
H200 C171 0.931 . S
H201 C172 0.931 . S
H202 C174 0.931 . S
H203 C175 0.931 . S
H204 C181 0.931 . S
H205 C182 0.931 . S
H206 C184 0.931 . S
H207 C185 0.931 . S
C208 Eu209 2.835 . S
C208 C210 1.500 . S
C208 O228 1.257 . S
C208 O229 1.260 . S
Eu209 C208 2.835 . S
Eu209 O228 2.473 . S
Eu209 O229 2.480 . S
Eu209 O230 2.430 . S
Eu209 O231 2.670 1_455 S
Eu209 O232 2.394 . S
Eu209 O237 2.355 . S
Eu209 O239 2.374 1_455 S
C210 C208 1.500 . S
C210 C211 1.377 . S
C210 C215 1.377 . S
C211 C210 1.377 . S
C211 C212 1.395 . S
C211 H240 0.931 . S
C212 C211 1.395 . S
C212 C213 1.383 . S
C212 H241 0.931 . S
C213 C212 1.383 . S
C213 C214 1.394 . S
C214 C213 1.394 . S
C214 C215 1.378 . S
C214 H242 0.931 . S
C215 C210 1.377 . S
C215 C214 1.378 . S
C215 H243 0.931 . S
C216 O230 1.260 1_554 S
C216 O231 1.270 1_454 S
C217 O232 1.251 . S
C217 O233 1.251 1_556 S
C218 Eu219 2.835 . S
C218 C220 1.500 . S
C218 O234 1.257 . S
C218 O235 1.260 . S
Eu219 C218 2.835 . S
Eu219 O231 2.355 1_554 S
Eu219 O233 2.374 1_655 S
Eu219 O234 2.473 . S
Eu219 O235 2.480 . S
Eu219 O236 2.430 1_554 S
Eu219 O237 2.670 1_654 S
Eu219 O238 2.394 1_554 S
C220 C218 1.500 . S
C220 C221 1.377 . S
C220 C225 1.377 . S
C221 C220 1.377 . S
C221 C222 1.395 . S
C221 H244 0.931 . S
C222 C221 1.395 . S
C222 C223 1.383 . S
C222 H245 0.931 . S
C223 C222 1.383 . S
C223 C224 1.394 . S
C224 C223 1.394 . S
C224 C225 1.378 . S
C224 H246 0.931 . S
C225 C220 1.377 . S
C225 C224 1.378 . S
C225 H247 0.931 . S
C226 O236 1.260 1_455 S
C226 O237 1.270 . S
C227 O238 1.251 . S
C227 O239 1.251 . S
O228 C208 1.257 . S
O228 Eu209 2.473 . S
O229 C208 1.260 . S
O229 Eu209 2.480 . S
O230 Eu209 2.430 . S
O230 C216 1.260 1_556 S
O231 Eu209 2.670 1_655 S
O231 C216 1.270 1_656 S
O231 Eu219 2.355 1_556 S
O232 Eu209 2.394 . S
O232 C217 1.251 . S
O233 C217 1.251 1_554 S
O233 Eu219 2.374 1_455 S
O234 C218 1.257 . S
O234 Eu219 2.473 . S
O235 C218 1.260 . S
O235 Eu219 2.480 . S
O236 Eu219 2.430 1_556 S
O236 C226 1.260 1_655 S
O237 Eu209 2.355 . S
O237 Eu219 2.670 1_456 S
O237 C226 1.270 . S
O238 Eu219 2.394 1_556 S
O238 C227 1.251 . S
O239 Eu209 2.374 1_655 S
O239 C227 1.251 . S
H240 C211 0.931 . S
H241 C212 0.931 . S
H242 C214 0.931 . S
H243 C215 0.931 . S
H244 C221 0.931 . S
H245 C222 0.931 . S
H246 C224 0.931 . S
H247 C225 0.931 . S
C76 C106 3.689 . S
C146 C87 3.726 . S
C186 C54 3.756 . S
C226 C65 3.708 1_455 S
C96 C32 3.691 1_545 S
C43 C136 3.719 . S
C10 C176 3.747 . S
C21 C216 3.708 1_655 S
C93 C60 2.406 1_655 S
C133 C71 2.234 1_565 S
C173 C82 2.085 . S
C49 C213 2.228 . S
C16 C103 2.380 . S
C143 C27 2.209 . S
C183 C38 2.035 . S
C5 C223 2.178 . S
C59 C97 3.971 . S
C70 C137 3.888 . S
C177 C81 3.883 . S
C217 C48 3.963 . S
C15 C107 3.985 1_455 S
C147 C26 3.898 1_565 S
C187 C37 3.905 . S
C4 C227 3.988 . S
