# Generated by pormake.
# Topology ptr, (4,4)-cn, num edge types: 1
# Building blocks:
#     Node 0, Type 0, BuildingBlock: KUFVIS_clean_sbu_0, # of connection points: 4
#     Node 1, Type 0, BuildingBlock: KUFVIS_clean_sbu_0, # of connection points: 4
#     Node 2, Type 0, BuildingBlock: KUFVIS_clean_sbu_0, # of connection points: 4
#     Node 3, Type 0, BuildingBlock: KUFVIS_clean_sbu_0, # of connection points: 4
#     Node 4, Type 0, BuildingBlock: KUFVIS_clean_sbu_0, # of connection points: 4
#     Node 5, Type 0, BuildingBlock: KUFVIS_clean_sbu_0, # of connection points: 4
#     Node 6, Type 0, BuildingBlock: KUFVIS_clean_sbu_0, # of connection points: 4
#     Node 7, Type 0, BuildingBlock: KUFVIS_clean_sbu_0, # of connection points: 4
#     Node 8, Type 0, BuildingBlock: KUFVIS_clean_sbu_0, # of connection points: 4
#     Node 9, Type 0, BuildingBlock: KUFVIS_clean_sbu_0, # of connection points: 4
#     Node 10, Type 0, BuildingBlock: KUFVIS_clean_sbu_0, # of connection points: 4
#     Node 11, Type 0, BuildingBlock: KUFVIS_clean_sbu_0, # of connection points: 4
#     Node 12, Type 0, BuildingBlock: KUFVIS_clean_sbu_0, # of connection points: 4
#     Node 13, Type 0, BuildingBlock: KUFVIS_clean_sbu_0, # of connection points: 4
#     Node 14, Type 0, BuildingBlock: KUFVIS_clean_sbu_0, # of connection points: 4
#     Node 15, Type 0, BuildingBlock: KUFVIS_clean_sbu_0, # of connection points: 4
#     Node 16, Type 0, BuildingBlock: KUFVIS_clean_sbu_0, # of connection points: 4
#     Node 17, Type 0, BuildingBlock: KUFVIS_clean_sbu_0, # of connection points: 4
#     Node 18, Type 1, BuildingBlock: KUFVIS_clean_linker_0, # of connection points: 4
#     Node 19, Type 1, BuildingBlock: KUFVIS_clean_linker_0, # of connection points: 4
#     Node 20, Type 1, BuildingBlock: KUFVIS_clean_linker_0, # of connection points: 4
#     Node 21, Type 1, BuildingBlock: KUFVIS_clean_linker_0, # of connection points: 4
#     Node 22, Type 1, BuildingBlock: KUFVIS_clean_linker_0, # of connection points: 4
#     Node 23, Type 1, BuildingBlock: KUFVIS_clean_linker_0, # of connection points: 4
#     Node 24, Type 1, BuildingBlock: KUFVIS_clean_linker_0, # of connection points: 4
#     Node 25, Type 1, BuildingBlock: KUFVIS_clean_linker_0, # of connection points: 4
#     Node 26, Type 1, BuildingBlock: KUFVIS_clean_linker_0, # of connection points: 4
#     Node 27, Type 1, BuildingBlock: KUFVIS_clean_linker_0, # of connection points: 4
#     Node 28, Type 1, BuildingBlock: KUFVIS_clean_linker_0, # of connection points: 4
#     Node 29, Type 1, BuildingBlock: KUFVIS_clean_linker_0, # of connection points: 4
#     Node 30, Type 1, BuildingBlock: KUFVIS_clean_linker_0, # of connection points: 4
#     Node 31, Type 1, BuildingBlock: KUFVIS_clean_linker_0, # of connection points: 4
#     Node 32, Type 1, BuildingBlock: KUFVIS_clean_linker_0, # of connection points: 4
#     Node 33, Type 1, BuildingBlock: KUFVIS_clean_linker_0, # of connection points: 4
#     Node 34, Type 1, BuildingBlock: KUFVIS_clean_linker_0, # of connection points: 4
#     Node 35, Type 1, BuildingBlock: KUFVIS_clean_linker_0, # of connection points: 4
#     Edge 36, Type (0, 1), BuildingBlock: OJICUG_clean_linker_0, # of connection points: 2
#     Edge 37, Type (0, 1), BuildingBlock: OJICUG_clean_linker_0, # of connection points: 2
#     Edge 38, Type (0, 1), BuildingBlock: OJICUG_clean_linker_0, # of connection points: 2
#     Edge 39, Type (0, 1), BuildingBlock: OJICUG_clean_linker_0, # of connection points: 2
#     Edge 40, Type (0, 1), BuildingBlock: OJICUG_clean_linker_0, # of connection points: 2
#     Edge 41, Type (0, 1), BuildingBlock: OJICUG_clean_linker_0, # of connection points: 2
#     Edge 42, Type (0, 1), BuildingBlock: OJICUG_clean_linker_0, # of connection points: 2
#     Edge 43, Type (0, 1), BuildingBlock: OJICUG_clean_linker_0, # of connection points: 2
#     Edge 44, Type (0, 1), BuildingBlock: OJICUG_clean_linker_0, # of connection points: 2
#     Edge 45, Type (0, 1), BuildingBlock: OJICUG_clean_linker_0, # of connection points: 2
#     Edge 46, Type (0, 1), BuildingBlock: OJICUG_clean_linker_0, # of connection points: 2
#     Edge 47, Type (0, 1), BuildingBlock: OJICUG_clean_linker_0, # of connection points: 2
#     Edge 48, Type (0, 1), BuildingBlock: OJICUG_clean_linker_0, # of connection points: 2
#     Edge 49, Type (0, 1), BuildingBlock: OJICUG_clean_linker_0, # of connection points: 2
#     Edge 50, Type (0, 1), BuildingBlock: OJICUG_clean_linker_0, # of connection points: 2
#     Edge 51, Type (0, 1), BuildingBlock: OJICUG_clean_linker_0, # of connection points: 2
#     Edge 52, Type (0, 1), BuildingBlock: OJICUG_clean_linker_0, # of connection points: 2
#     Edge 53, Type (0, 1), BuildingBlock: OJICUG_clean_linker_0, # of connection points: 2
#     Edge 54, Type (0, 1), BuildingBlock: OJICUG_clean_linker_0, # of connection points: 2
#     Edge 55, Type (0, 1), BuildingBlock: OJICUG_clean_linker_0, # of connection points: 2
#     Edge 56, Type (0, 1), BuildingBlock: OJICUG_clean_linker_0, # of connection points: 2
#     Edge 57, Type (0, 1), BuildingBlock: OJICUG_clean_linker_0, # of connection points: 2
#     Edge 58, Type (0, 1), BuildingBlock: OJICUG_clean_linker_0, # of connection points: 2
#     Edge 59, Type (0, 1), BuildingBlock: OJICUG_clean_linker_0, # of connection points: 2
#     Edge 60, Type (0, 1), BuildingBlock: OJICUG_clean_linker_0, # of connection points: 2
#     Edge 61, Type (0, 1), BuildingBlock: OJICUG_clean_linker_0, # of connection points: 2
#     Edge 62, Type (0, 1), BuildingBlock: OJICUG_clean_linker_0, # of connection points: 2
#     Edge 63, Type (0, 1), BuildingBlock: OJICUG_clean_linker_0, # of connection points: 2
#     Edge 64, Type (0, 1), BuildingBlock: OJICUG_clean_linker_0, # of connection points: 2
#     Edge 65, Type (0, 1), BuildingBlock: OJICUG_clean_linker_0, # of connection points: 2
#     Edge 66, Type (0, 1), BuildingBlock: OJICUG_clean_linker_0, # of connection points: 2
#     Edge 67, Type (0, 1), BuildingBlock: OJICUG_clean_linker_0, # of connection points: 2
#     Edge 68, Type (0, 1), BuildingBlock: OJICUG_clean_linker_0, # of connection points: 2
#     Edge 69, Type (0, 1), BuildingBlock: OJICUG_clean_linker_0, # of connection points: 2
#     Edge 70, Type (0, 1), BuildingBlock: OJICUG_clean_linker_0, # of connection points: 2
#     Edge 71, Type (0, 1), BuildingBlock: OJICUG_clean_linker_0, # of connection points: 2
#     Edge 72, Type (0, 1), BuildingBlock: OJICUG_clean_linker_0, # of connection points: 2
#     Edge 73, Type (0, 1), BuildingBlock: OJICUG_clean_linker_0, # of connection points: 2
#     Edge 74, Type (0, 1), BuildingBlock: OJICUG_clean_linker_0, # of connection points: 2
#     Edge 75, Type (0, 1), BuildingBlock: OJICUG_clean_linker_0, # of connection points: 2
#     Edge 76, Type (0, 1), BuildingBlock: OJICUG_clean_linker_0, # of connection points: 2
#     Edge 77, Type (0, 1), BuildingBlock: OJICUG_clean_linker_0, # of connection points: 2
#     Edge 78, Type (0, 1), BuildingBlock: OJICUG_clean_linker_0, # of connection points: 2
#     Edge 79, Type (0, 1), BuildingBlock: OJICUG_clean_linker_0, # of connection points: 2
#     Edge 80, Type (0, 1), BuildingBlock: OJICUG_clean_linker_0, # of connection points: 2
#     Edge 81, Type (0, 1), BuildingBlock: OJICUG_clean_linker_0, # of connection points: 2
#     Edge 82, Type (0, 1), BuildingBlock: OJICUG_clean_linker_0, # of connection points: 2
#     Edge 83, Type (0, 1), BuildingBlock: OJICUG_clean_linker_0, # of connection points: 2
#     Edge 84, Type (0, 1), BuildingBlock: OJICUG_clean_linker_0, # of connection points: 2
#     Edge 85, Type (0, 1), BuildingBlock: OJICUG_clean_linker_0, # of connection points: 2
#     Edge 86, Type (0, 1), BuildingBlock: OJICUG_clean_linker_0, # of connection points: 2
#     Edge 87, Type (0, 1), BuildingBlock: OJICUG_clean_linker_0, # of connection points: 2
#     Edge 88, Type (0, 1), BuildingBlock: OJICUG_clean_linker_0, # of connection points: 2
#     Edge 89, Type (0, 1), BuildingBlock: OJICUG_clean_linker_0, # of connection points: 2
#     Edge 90, Type (0, 1), BuildingBlock: OJICUG_clean_linker_0, # of connection points: 2
#     Edge 91, Type (0, 1), BuildingBlock: OJICUG_clean_linker_0, # of connection points: 2
#     Edge 92, Type (0, 1), BuildingBlock: OJICUG_clean_linker_0, # of connection points: 2
#     Edge 93, Type (0, 1), BuildingBlock: OJICUG_clean_linker_0, # of connection points: 2
#     Edge 94, Type (0, 1), BuildingBlock: OJICUG_clean_linker_0, # of connection points: 2
#     Edge 95, Type (0, 1), BuildingBlock: OJICUG_clean_linker_0, # of connection points: 2
#     Edge 96, Type (0, 1), BuildingBlock: OJICUG_clean_linker_0, # of connection points: 2
#     Edge 97, Type (0, 1), BuildingBlock: OJICUG_clean_linker_0, # of connection points: 2
#     Edge 98, Type (0, 1), BuildingBlock: OJICUG_clean_linker_0, # of connection points: 2
#     Edge 99, Type (0, 1), BuildingBlock: OJICUG_clean_linker_0, # of connection points: 2
#     Edge 100, Type (0, 1), BuildingBlock: OJICUG_clean_linker_0, # of connection points: 2
#     Edge 101, Type (0, 1), BuildingBlock: OJICUG_clean_linker_0, # of connection points: 2
#     Edge 102, Type (0, 1), BuildingBlock: OJICUG_clean_linker_0, # of connection points: 2
#     Edge 103, Type (0, 1), BuildingBlock: OJICUG_clean_linker_0, # of connection points: 2
#     Edge 104, Type (0, 1), BuildingBlock: OJICUG_clean_linker_0, # of connection points: 2
#     Edge 105, Type (0, 1), BuildingBlock: OJICUG_clean_linker_0, # of connection points: 2
#     Edge 106, Type (0, 1), BuildingBlock: OJICUG_clean_linker_0, # of connection points: 2
#     Edge 107, Type (0, 1), BuildingBlock: OJICUG_clean_linker_0, # of connection points: 2
# Relax obj value: 0.050
# Max RMSD: 0.135
# Mean RMSD: 0.089
data_MOF--net-ptr--node1-KUFVIS_clean_sbu_0--node2-KUFVIS_clean_linker_0--edge1-OJICUG_clean_linker_0
_symmetry_space_group_name_H-M    P1
_symmetry_Int_Tables_number       1
_symmetry_cell_setting            triclinic
loop_
_symmetry_equiv_pos_as_xyz
'x, y, z'
_cell_length_a     56.015138
_cell_length_b     55.755131
_cell_length_c     36.981423
_cell_angle_alpha  89.819116
_cell_angle_beta   90.579715
_cell_angle_gamma 119.37368
loop_
_atom_site_label
_atom_site_type_symbol
_atom_site_fract_x
_atom_site_fract_y
_atom_site_fract_z
_atom_type_partial_charge
Mn0 Mn 1.008 0.37096 0.00231 0.0
Mn1 Mn 0.06483 0.4304 0.98032 0.0
C2 C 1.00603 0.39978 0.95856 0.0
C3 C 0.97917 0.32387 -0.00658 0.0
C4 C 1.03186 0.42328 0.0482 0.0
O5 O 0.03915 0.36564 0.02309 0.0
O6 O 0.07551 0.40476 0.00352 0.0
C7 C 0.08677 0.40889 0.92415 0.0
N8 N 0.07804 0.42674 0.93433 0.0
C9 C 0.08788 0.44801 0.87557 0.0
C10 C 0.09709 0.42994 0.86454 0.0
C11 C 0.09646 0.41025 0.88891 0.0
C12 C 0.07843 0.44568 0.91103 0.0
H13 H 0.0863 0.39371 0.94277 0.0
C14 C 0.065 0.38121 0.01905 0.0
O15 O 0.97874 0.33563 0.02345 0.0
O16 O 0.99681 0.33911 0.96937 0.0
N17 N 0.05764 0.45701 0.95702 0.0
C18 C 0.04645 0.47178 0.97112 0.0
C19 C 0.04497 0.49197 0.94991 0.0
C20 C 0.05512 0.49688 0.9145 0.0
C21 C 0.06666 0.48153 0.90062 0.0
C22 C 0.0678 0.46185 0.92314 0.0
H23 H 0.03863 0.46815 -0.00169 0.0
O24 O 0.98387 0.38194 0.97457 0.0
O25 O 1.02843 0.39996 0.96833 0.0
O26 O 1.01337 0.39841 0.04244 0.0
O27 O 0.0523 0.43659 0.02739 0.0
C28 C 0.07665 0.48467 0.86511 0.0
C29 C 0.08715 0.46785 0.85255 0.0
H30 H 0.10446 0.43082 0.83733 0.0
H31 H 0.10342 0.39614 0.88052 0.0
H32 H 0.03601 0.50371 0.9608 0.0
H33 H 0.05378 0.51234 0.89817 0.0
H34 H 0.07593 0.49963 0.84703 0.0
H35 H 0.09433 0.47013 0.825 0.0
Mn36 Mn 0.67904 0.65134 0.01821 0.0
Mn37 Mn 0.67807 0.59068 0.03245 0.0
C38 C 0.64722 0.61883 0.05682 0.0
C39 C 0.6937 0.69793 0.02946 0.0
C40 C 0.65468 0.60258 0.96528 0.0
O41 O 0.71646 0.65904 0.00024 0.0
O42 O 0.71411 0.61818 0.01202 0.0
C43 C 0.71985 0.60886 0.09092 0.0
N44 N 0.69402 0.59143 0.07864 0.0
C45 C 0.68211 0.56645 0.13477 0.0
C46 C 0.70866 0.584 0.14792 0.0
C47 C 0.72758 0.60534 0.12592 0.0
C48 C 0.67564 0.57084 0.09958 0.0
H49 H 0.73442 0.62534 0.07414 0.0
C50 C 0.72687 0.64308 0.00055 0.0
O51 O 0.68368 0.68668 -0.00162 0.0
O52 O 0.69625 0.68242 0.05381 0.0
N53 N 0.6447 0.56215 0.05231 0.0
C54 C 0.61939 0.54829 0.03655 0.0
C55 C 0.59778 0.52697 0.05557 0.0
C56 C 0.60247 0.51994 0.0904 0.0
C57 C 0.62877 0.53424 0.10585 0.0
C58 C 0.64956 0.55518 0.08552 0.0
H59 H 0.61564 0.55364 0.00982 0.0
O60 O 0.64284 0.63753 0.04218 0.0
O61 O 0.67032 0.61986 0.04895 0.0
O62 O 0.66045 0.62675 0.97479 0.0
O63 O 0.66053 0.58712 0.98453 0.0
C64 C 0.63501 0.52906 0.14103 0.0
C65 C 0.66165 0.54517 0.1555 0.0
H66 H 0.71465 0.58148 0.175 0.0
H67 H 0.74806 0.61907 0.13597 0.0
H68 H 0.57752 0.51607 0.04349 0.0
H69 H 0.58566 0.50371 0.10515 0.0
H70 H 0.61934 0.51307 0.15745 0.0
H71 H 0.66606 0.5413 0.1828 0.0
Mn72 Mn 0.39593 0.03339 0.01784 0.0
Mn73 Mn 0.45608 0.09201 0.03276 0.0
C74 C 0.42772 0.03355 0.05821 0.0
C75 C 0.34959 1.00313 0.02895 0.0
C76 C 0.44527 0.05579 0.96709 0.0
O77 O 0.38854 0.06314 -0.00248 0.0
O78 O 0.42893 0.10093 0.01013 0.0
C79 C 0.43686 0.11637 0.08862 0.0
N80 N 0.45449 0.10755 0.07805 0.0
C81 C 0.47825 0.12032 0.13536 0.0
C82 C 0.46047 0.12973 0.14676 0.0
C83 C 0.43965 0.12768 0.12331 0.0
C84 C 0.47455 0.10935 0.10044 0.0
H85 H 0.42077 0.11474 0.07074 0.0
C86 C 0.40432 0.08922 -0.00229 0.0
O87 O 0.36061 1.00316 -0.00171 0.0
O88 O 0.36519 1.02143 0.05268 0.0
N89 N 0.48437 0.08696 0.05481 0.0
C90 C 0.49902 0.07581 0.0403 0.0
C91 C 0.5202 0.07559 0.06067 0.0
C92 C 0.52633 0.08711 0.09553 0.0
C93 C 0.51133 0.09892 0.10962 0.0
C94 C 0.49056 0.09871 0.08797 0.0
H95 H 0.49442 0.06692 0.01352 0.0
O96 O 0.40908 1.01068 0.0439 0.0
O97 O 0.42696 0.05576 0.04919 0.0
O98 O 0.42093 0.03802 0.97566 0.0
O99 O 0.4602 0.07722 0.98603 0.0
C100 C 0.51574 0.11032 0.14462 0.0
C101 C 0.49917 0.12096 0.15751 0.0
H102 H 0.46246 0.13834 0.17356 0.0
H103 H 0.42576 0.13475 0.13199 0.0
H104 H 0.53171 0.06646 0.04958 0.0
H105 H 0.54248 0.0866 0.11132 0.0
H106 H 0.53156 0.11064 0.16205 0.0
H107 H 0.50251 0.12932 0.18465 0.0
Mn108 Mn 0.04659 0.66837 0.97327 0.0
Mn109 Mn 0.10647 0.6678 0.96339 0.0
C110 C 0.04873 0.63635 0.93564 0.0
C111 C 1.01527 0.68342 0.95906 0.0
C112 C 0.07014 0.64427 0.02848 0.0
O113 O 0.07498 0.70585 -0.00695 0.0
O114 O 0.11372 0.70396 0.98345 0.0
C115 C 0.1304 0.70962 0.9056 0.0
N116 N 0.1223 0.68373 0.91793 0.0
C117 C 0.13688 0.67176 0.86316 0.0
C118 C 0.14556 0.69836 0.84997 0.0
C119 C 0.14225 0.71734 0.87125 0.0
C120 C 0.12538 0.6653 0.89768 0.0
H121 H 0.1278 0.72422 0.92184 0.0
C122 C 0.10107 0.71651 -0.00576 0.0
O123 O 1.0155 0.67312 -0.0096 0.0
O124 O 0.03383 0.68585 0.93619 0.0
N125 N 0.1029 0.63433 0.94417 0.0
C126 C 0.09185 0.60901 0.95987 0.0
C127 C 0.09254 0.58735 0.9415 0.0
C128 C 0.10484 0.59201 0.9074 0.0
C129 C 0.11646 0.61835 0.89204 0.0
C130 C 0.1153 0.63918 0.91171 0.0
H131 H 0.08231 0.60528 0.98605 0.0
O132 O 1.02546 0.63205 0.9484 0.0
O133 O 0.07014 0.65964 0.94449 0.0
O134 O 0.0517 0.64967 0.01751 0.0
O135 O 0.09175 0.65034 0.01065 0.0
C136 C 0.12848 0.62457 0.85755 0.0
C137 C 0.13864 0.65124 0.84311 0.0
H138 H 0.15455 0.70435 0.8234 0.0
H139 H 0.14877 0.73786 0.86117 0.0
H140 H 0.08349 0.56707 0.9535 0.0
H141 H 0.10503 0.57517 0.89312 0.0
H142 H 0.12957 0.60886 0.84165 0.0
H143 H 0.14743 0.65564 0.81633 0.0
Mn144 Mn 0.38277 0.39905 -0.00397 0.0
Mn145 Mn 0.44131 0.39882 0.01931 0.0
C146 C 0.41216 0.42921 0.03966 0.0
C147 C 0.33611 0.38341 0.00371 0.0
C148 C 0.43452 0.42459 0.95022 0.0
O149 O 0.37636 0.36192 0.9764 0.0
O150 O 0.41501 0.36301 -0.00326 0.0
C151 C 0.41951 0.3562 0.07643 0.0
N152 N 0.43764 0.38225 0.06575 0.0
C153 C 0.45951 0.39324 0.12439 0.0
C154 C 0.44115 0.36648 0.13595 0.0
C155 C 0.42101 0.34792 0.1119 0.0
C156 C 0.457 0.40033 0.08874 0.0
H157 H 0.40401 0.34187 0.05803 0.0
C158 C 0.39148 0.35078 0.98105 0.0
O159 O 0.34815 0.39481 0.97369 0.0
O160 O 0.35079 0.3802 0.02859 0.0
N161 N 0.46851 0.43207 0.04201 0.0
C162 C 0.48354 0.45761 0.02739 0.0
C163 C 0.50413 0.47881 0.04827 0.0
C164 C 0.50919 0.47351 0.08387 0.0
C165 C 0.49359 0.44704 0.09828 0.0
C166 C 0.47347 0.42667 0.0761 0.0
H167 H 0.47981 0.46182 3e-05 0.0
O168 O 0.39482 0.43452 0.02293 0.0
O169 O 0.41161 0.40648 0.03058 0.0
O170 O 0.41007 0.41954 0.95583 0.0
O171 O 0.44764 0.41706 0.97167 0.0
C172 C 0.4969 0.44017 0.13398 0.0
C173 C 0.47983 0.41331 0.14705 0.0
H174 H 0.44217 0.36004 0.16333 0.0
H175 H 0.40669 0.32727 0.12069 0.0
H176 H 0.51607 0.4992 0.03697 0.0
H177 H 0.52497 0.48996 0.09995 0.0
H178 H 0.51221 0.45551 0.15179 0.0
H179 H 0.4823 0.40839 0.1747 0.0
Mn180 Mn 0.66931 1.0107 0.97687 0.0
Mn181 Mn 0.60969 0.95218 0.9587 0.0
C182 C 0.63829 1.01136 0.93587 0.0
C183 C 0.7159 0.04164 0.96828 0.0
C184 C 0.61864 0.98674 0.02546 0.0
O185 O 0.6765 0.9806 -0.00365 0.0
O186 O 0.63644 0.94297 0.98195 0.0
C187 C 0.6307 0.92959 0.90278 0.0
N188 N 0.61256 0.93781 0.9131 0.0
C189 C 0.59009 0.92604 0.85489 0.0
C190 C 0.6084 0.91725 0.84373 0.0
C191 C 0.62884 0.9191 0.86776 0.0
C192 C 0.59288 0.93622 0.89015 0.0
H193 H 0.6465 0.93107 0.92111 0.0
C194 C 0.66081 0.95451 -0.00479 0.0
O195 O 0.70394 0.04054 -0.00147 0.0
O196 O 0.7011 0.024 0.94341 0.0
N197 N 0.58174 0.95742 0.93595 0.0
C198 C 0.56657 0.96805 0.95028 0.0
C199 C 0.54569 0.96843 0.92936 0.0
C200 C 0.54039 0.95758 0.89413 0.0
C201 C 0.55592 0.94629 0.88021 0.0
C202 C 0.57634 0.94631 0.90241 0.0
H203 H 0.57052 0.97641 0.97735 0.0
O204 O 0.65653 0.0339 0.95132 0.0
O205 O 0.63904 0.98899 0.94406 0.0
O206 O 0.64316 1.00472 0.01807 0.0
O207 O 0.60421 0.96571 0.00564 0.0
C208 C 0.55239 0.93564 0.84486 0.0
C209 C 0.56951 0.92559 0.83218 0.0
H210 H 0.60712 0.90927 0.81669 0.0
H211 H 0.64314 0.9125 0.85928 0.0
H212 H 0.53379 0.97716 0.9403 0.0
H213 H 0.5245 0.95822 0.87791 0.0
H214 H 0.53687 0.93549 0.82701 0.0
H215 H 0.56688 0.91784 0.80476 0.0
Mn216 Mn 0.67473 0.70424 0.33566 0.0
Mn217 Mn 0.73155 0.76368 0.31367 0.0
C218 C 0.67276 0.73306 0.29191 0.0
C219 C 0.64589 0.65715 0.32677 0.0
C220 C 0.69858 0.75656 0.38154 0.0
O221 O 0.70588 0.69891 0.35643 0.0
O222 O 0.74223 0.73805 0.33687 0.0
C223 C 0.7535 0.74217 0.25751 0.0
N224 N 0.74477 0.76002 0.26768 0.0
C225 C 0.7546 0.78128 0.20892 0.0
C226 C 0.76382 0.76321 0.19789 0.0
C227 C 0.76319 0.74352 0.22226 0.0
C228 C 0.74516 0.77896 0.24438 0.0
H229 H 0.75302 0.72699 0.27613 0.0
C230 C 0.73173 0.71449 0.3524 0.0
O231 O 0.64546 0.66891 0.35679 0.0
O232 O 0.66353 0.67239 0.30271 0.0
N233 N 0.72436 0.79029 0.29037 0.0
C234 C 0.71317 0.80506 0.30446 0.0
C235 C 0.7117 0.82524 0.28324 0.0
C236 C 0.72185 0.83015 0.24784 0.0
C237 C 0.73338 0.8148 0.23396 0.0
C238 C 0.73453 0.79512 0.25648 0.0
H239 H 0.70535 0.80143 0.33164 0.0
O240 O 0.65059 0.71522 0.30792 0.0
O241 O 0.69516 0.73324 0.30168 0.0
O242 O 0.6801 0.73169 0.37579 0.0
O243 O 0.71902 0.76987 0.36073 0.0
C244 C 0.74337 0.81794 0.19845 0.0
C245 C 0.75388 0.80112 0.18589 0.0
H246 H 0.77119 0.7641 0.17068 0.0
H247 H 0.77015 0.72942 0.21388 0.0
H248 H 0.70273 0.83698 0.29413 0.0
H249 H 0.7205 0.84561 0.23149 0.0
H250 H 0.74265 0.8329 0.18037 0.0
H251 H 0.76105 0.8034 0.15835 0.0
Mn252 Mn 0.34572 0.98479 0.3515 0.0
Mn253 Mn 0.34475 0.92413 0.36577 0.0
C254 C 0.3139 0.95229 0.39013 0.0
C255 C 0.36038 0.03138 0.36274 0.0
C256 C 0.32135 0.93602 0.29859 0.0
O257 O 0.38314 0.99248 0.33354 0.0
O258 O 0.38079 0.95163 0.34534 0.0
C259 C 0.38652 0.94231 0.42425 0.0
N260 N 0.36069 0.92489 0.41197 0.0
C261 C 0.34877 0.89991 0.4681 0.0
C262 C 0.37532 0.91747 0.48126 0.0
C263 C 0.39425 0.93879 0.45926 0.0
C264 C 0.3423 0.90429 0.43291 0.0
H265 H 0.40109 0.95879 0.40747 0.0
C266 C 0.39354 0.97652 0.33386 0.0
O267 O 0.35036 1.02013 0.33166 0.0
O268 O 0.36294 1.01587 0.3871 0.0
N269 N 0.31137 0.8956 0.38563 0.0
C270 C 0.28606 0.88174 0.36987 0.0
C271 C 0.26445 0.86042 0.38888 0.0
C272 C 0.26913 0.8534 0.42372 0.0
C273 C 0.29543 0.8677 0.43918 0.0
C274 C 0.31622 0.88864 0.41885 0.0
H275 H 0.28232 0.88709 0.34313 0.0
O276 O 0.30952 0.97099 0.37548 0.0
O277 O 0.337 0.95332 0.38226 0.0
O278 O 0.32713 0.96019 0.30809 0.0
O279 O 0.32721 0.92056 0.31785 0.0
C280 C 0.30167 0.86252 0.47436 0.0
C281 C 0.3283 0.87864 0.48883 0.0
H282 H 0.38131 0.91495 0.50833 0.0
H283 H 0.41472 0.95253 0.4693 0.0
H284 H 0.24419 0.84952 0.3768 0.0
H285 H 0.25232 0.83718 0.43847 0.0
H286 H 0.28599 0.84654 0.49078 0.0
H287 H 0.33271 0.87477 0.51614 0.0
Mn288 Mn 0.0625 0.36667 0.35117 0.0
Mn289 Mn 0.12265 0.42529 0.36611 0.0
C290 C 0.09429 0.36682 0.39155 0.0
C291 C 1.01617 0.3364 0.36229 0.0
C292 C 0.11184 0.38907 0.30043 0.0
O293 O 0.05511 0.39641 0.33086 0.0
O294 O 0.0955 0.4342 0.34348 0.0
C295 C 0.10343 0.44963 0.42198 0.0
N296 N 0.12106 0.44082 0.41141 0.0
C297 C 0.14481 0.45358 0.46872 0.0
C298 C 0.12703 0.46298 0.48012 0.0
C299 C 0.10622 0.46093 0.45668 0.0
C300 C 0.14111 0.44262 0.43379 0.0
H301 H 0.08734 0.448 0.4041 0.0
C302 C 0.07089 0.4225 0.33106 0.0
O303 O 1.02719 0.33644 0.33162 0.0
O304 O 1.03176 0.3547 0.38601 0.0
N305 N 0.15094 0.42023 0.38815 0.0
C306 C 0.16559 0.40909 0.37364 0.0
C307 C 0.18677 0.40886 0.39401 0.0
C308 C 0.1929 0.42037 0.42888 0.0
C309 C 0.17789 0.43218 0.44297 0.0
C310 C 0.15713 0.43198 0.42132 0.0
H311 H 0.16099 0.4002 0.34686 0.0
O312 O 0.07566 0.34395 0.37723 0.0
O313 O 0.09353 0.38903 0.38253 0.0
O314 O 0.08751 0.3713 0.30899 0.0
O315 O 0.12677 0.4105 0.31938 0.0
C316 C 0.18231 0.44358 0.47798 0.0
C317 C 0.16574 0.45421 0.49087 0.0
H318 H 0.12902 0.47159 0.50693 0.0
H319 H 0.09232 0.46801 0.46536 0.0
H320 H 0.19828 0.39973 0.38292 0.0
H321 H 0.20904 0.41986 0.44467 0.0
H322 H 0.19812 0.44389 0.4954 0.0
H323 H 0.16907 0.46256 0.51801 0.0
Mn324 Mn 0.71319 1.00163 0.30661 0.0
Mn325 Mn 0.77308 1.00106 0.29672 0.0
C326 C 0.71533 0.96961 0.26897 0.0
C327 C 0.68188 1.01668 0.29239 0.0
C328 C 0.73674 0.97752 0.36181 0.0
O329 O 0.74159 0.03911 0.32639 0.0
O330 O 0.78033 0.03721 0.31679 0.0
C331 C 0.79701 0.04287 0.23893 0.0
N332 N 0.78891 1.01699 0.25127 0.0
C333 C 0.80348 1.00502 0.1965 0.0
C334 C 0.81217 0.03162 0.1833 0.0
C335 C 0.80886 0.0506 0.20459 0.0
C336 C 0.79199 0.99856 0.23101 0.0
H337 H 0.79441 0.05748 0.25517 0.0
C338 C 0.76767 0.04977 0.32758 0.0
O339 O 0.6821 1.00637 0.32373 0.0
O340 O 0.70044 1.01912 0.26952 0.0
N341 N 0.76951 0.96759 0.2775 0.0
C342 C 0.75846 0.94227 0.29321 0.0
C343 C 0.75915 0.92061 0.27484 0.0
C344 C 0.77146 0.92527 0.24074 0.0
C345 C 0.78307 0.95161 0.22537 0.0
C346 C 0.78191 0.97244 0.24505 0.0
H347 H 0.74892 0.93854 0.31938 0.0
O348 O 0.69207 0.96531 0.28173 0.0
O349 O 0.73675 0.99289 0.27782 0.0
O350 O 0.71831 0.98292 0.35084 0.0
O351 O 0.75836 0.9836 0.34398 0.0
C352 C 0.79509 0.95783 0.19089 0.0
C353 C 0.80525 0.9845 0.17644 0.0
H354 H 0.82115 0.03761 0.15673 0.0
H355 H 0.81537 0.07111 0.1945 0.0
H356 H 0.7501 0.90033 0.28684 0.0
H357 H 0.77165 0.90843 0.22647 0.0
H358 H 0.79619 0.94212 0.17499 0.0
H359 H 0.81404 0.9889 0.14966 0.0
Mn360 Mn 0.04951 0.73243 0.32934 0.0
Mn361 Mn 0.10806 0.73222 0.35261 0.0
C362 C 0.0789 0.7626 0.37297 0.0
C363 C 1.00286 0.71678 0.33703 0.0
C364 C 0.10126 0.75797 0.28352 0.0
O365 O 0.04311 0.6953 0.30971 0.0
O366 O 0.08177 0.6964 0.33005 0.0
C367 C 0.08628 0.6896 0.40974 0.0
N368 N 0.1044 0.71566 0.39905 0.0
C369 C 0.12628 0.72665 0.45768 0.0
C370 C 0.10793 0.69989 0.46926 0.0
C371 C 0.0878 0.68133 0.44521 0.0
C372 C 0.12377 0.73374 0.42204 0.0
H373 H 0.07078 0.67527 0.39135 0.0
C374 C 0.05823 0.68416 0.31437 0.0
O375 O 1.01489 0.72818 0.307 0.0
O376 O 1.01754 0.71358 0.3619 0.0
N377 N 0.13526 0.76547 0.3753 0.0
C378 C 0.15027 0.79101 0.36067 0.0
C379 C 0.17086 0.81222 0.38155 0.0
C380 C 0.17593 0.80693 0.41714 0.0
C381 C 0.16034 0.78045 0.43156 0.0
C382 C 0.14023 0.76008 0.40939 0.0
H383 H 0.14654 0.79522 0.33331 0.0
O384 O 0.06156 0.76789 0.35624 0.0
O385 O 0.07836 0.73987 0.36388 0.0
O386 O 0.07681 0.75292 0.28913 0.0
O387 O 0.11438 0.75044 0.30496 0.0
C388 C 0.16366 0.77359 0.46726 0.0
C389 C 0.1466 0.74673 0.48034 0.0
H390 H 0.10895 0.69346 0.49664 0.0
H391 H 0.07348 0.66068 0.45401 0.0
H392 H 0.1828 0.83261 0.37024 0.0
H393 H 0.19171 0.82339 0.43323 0.0
H394 H 0.17897 0.78894 0.48507 0.0
H395 H 0.14908 0.74183 0.50799 0.0
Mn396 Mn 0.33594 0.34411 0.31018 0.0
Mn397 Mn 0.27632 0.28559 0.29201 0.0
C398 C 0.30492 0.34477 0.26919 0.0
C399 C 0.38253 0.37504 0.3016 0.0
C400 C 0.28527 0.32015 0.35878 0.0
O401 O 0.34313 0.314 0.32966 0.0
O402 O 0.30307 0.27637 0.31525 0.0
C403 C 0.29732 0.263 0.23608 0.0
N404 N 0.27918 0.27123 0.2464 0.0
C405 C 0.25672 0.25948 0.18819 0.0
C406 C 0.27503 0.25068 0.17703 0.0
C407 C 0.29546 0.25252 0.20105 0.0
C408 C 0.25951 0.26964 0.22346 0.0
H409 H 0.31312 0.26448 0.25441 0.0
C410 C 0.32744 0.28791 0.32851 0.0
O411 O 0.37057 0.37394 0.33185 0.0
O412 O 0.36773 0.3574 0.27672 0.0
N413 N 0.24837 0.29084 0.26927 0.0
C414 C 0.2332 0.30147 0.28361 0.0
C415 C 0.21233 0.30185 0.26269 0.0
C416 C 0.20703 0.29101 0.22746 0.0
C417 C 0.22255 0.27972 0.21353 0.0
C418 C 0.24297 0.27974 0.23573 0.0
H419 H 0.23715 0.30982 0.31068 0.0
O420 O 0.32316 0.36731 0.28464 0.0
O421 O 0.30567 0.3224 0.27738 0.0
O422 O 0.30979 0.33813 0.35139 0.0
O423 O 0.27084 0.29911 0.33896 0.0
C424 C 0.21902 0.26908 0.17818 0.0
C425 C 0.23614 0.25903 0.16548 0.0
H426 H 0.27375 0.24271 0.14998 0.0
H427 H 0.30976 0.24592 0.19256 0.0
H428 H 0.20043 0.31059 0.27364 0.0
H429 H 0.19113 0.29165 0.21125 0.0
H430 H 0.2035 0.26894 0.16033 0.0
H431 H 0.2335 0.25129 0.13807 0.0
Mn432 Mn 0.34144 0.03767 0.66897 0.0
Mn433 Mn 0.39827 0.09711 0.64698 0.0
C434 C 0.33948 0.06649 0.62522 0.0
C435 C 0.3126 0.99058 0.66008 0.0
C436 C 0.3653 0.08999 0.71485 0.0
O437 O 0.37259 0.03234 0.68974 0.0
O438 O 0.40895 0.07147 0.67018 0.0
C439 C 0.42022 0.0756 0.59082 0.0
N440 N 0.41149 0.09345 0.60099 0.0
C441 C 0.42133 0.11471 0.54223 0.0
C442 C 0.43055 0.09664 0.5312 0.0
C443 C 0.42991 0.07695 0.55558 0.0
C444 C 0.41188 0.11239 0.57769 0.0
H445 H 0.41975 0.06042 0.60945 0.0
C446 C 0.39844 0.04792 0.68572 0.0
O447 O 0.31217 1.00235 0.6901 0.0
O448 O 0.33025 1.00582 0.63602 0.0
N449 N 0.39109 0.12372 0.62367 0.0
C450 C 0.3799 0.13849 0.63776 0.0
C451 C 0.37842 0.15868 0.61654 0.0
C452 C 0.38857 0.16358 0.58114 0.0
C453 C 0.40011 0.14823 0.56726 0.0
C454 C 0.40125 0.12855 0.58979 0.0
H455 H 0.37208 0.13487 0.66495 0.0
O456 O 0.31731 0.04865 0.64123 0.0
O457 O 0.36188 0.06667 0.63498 0.0
O458 O 0.34681 0.06512 0.70909 0.0
O459 O 0.38574 0.10331 0.69404 0.0
C460 C 0.4101 0.15136 0.53175 0.0
C461 C 0.4206 0.13454 0.5192 0.0
H462 H 0.43792 0.09752 0.50399 0.0
H463 H 0.43687 0.06284 0.5472 0.0
H464 H 0.36945 0.17042 0.62743 0.0
H465 H 0.38723 0.17904 0.56479 0.0
H466 H 0.40937 0.16632 0.51367 0.0
H467 H 0.42778 0.13682 0.49165 0.0
Mn468 Mn 1.0123 0.31804 0.68487 0.0
Mn469 Mn 1.01134 0.25739 0.69913 0.0
C470 C 0.98049 0.28554 0.72349 0.0
C471 C 1.02696 0.36463 0.69611 0.0
C472 C 0.98795 0.26928 0.63195 0.0
O473 O 0.04972 0.32573 0.6669 0.0
O474 O 0.04738 0.28489 0.6787 0.0
C475 C 0.05312 0.27557 0.7576 0.0
N476 N 1.02729 0.25814 0.74532 0.0
C477 C 1.01537 0.23316 0.80146 0.0
C478 C 0.04192 0.25072 0.81461 0.0
C479 C 0.06084 0.27205 0.79261 0.0
C480 C 1.0089 0.23754 0.76626 0.0
H481 H 0.06768 0.29205 0.74083 0.0
C482 C 0.06013 0.30978 0.66722 0.0
O483 O 1.01694 0.35338 0.66503 0.0
O484 O 1.02952 0.34912 0.72047 0.0
N485 N 0.97797 0.22885 0.71898 0.0
C486 C 0.95266 0.21499 0.70321 0.0
C487 C 0.93105 0.19367 0.72223 0.0
C488 C 0.93573 0.18664 0.75706 0.0
C489 C 0.96203 0.20094 0.77253 0.0
C490 C 0.98282 0.22189 0.7522 0.0
H491 H 0.94892 0.22034 0.67648 0.0
O492 O 0.97611 0.30423 0.70885 0.0
O493 O 1.00359 0.28657 0.71562 0.0
O494 O 0.99371 0.29345 0.64145 0.0
O495 O 0.99381 0.25382 0.6512 0.0
C496 C 0.96826 0.19577 0.80771 0.0
C497 C 0.9949 0.21188 0.82218 0.0
H498 H 0.0479 0.24819 0.84169 0.0
H499 H 0.08131 0.28578 0.80266 0.0
H500 H 0.91079 0.18277 0.71015 0.0
H501 H 0.91892 0.17042 0.77181 0.0
H502 H 0.95259 0.17978 0.82412 0.0
H503 H 0.99931 0.20801 0.84949 0.0
Mn504 Mn 0.72924 0.69998 0.68453 0.0
Mn505 Mn 0.78938 0.7586 0.69945 0.0
C506 C 0.76102 0.70013 0.72491 0.0
C507 C 0.6829 0.66971 0.69565 0.0
C508 C 0.77857 0.72238 0.63378 0.0
O509 O 0.72185 0.72972 0.66421 0.0
O510 O 0.76223 0.76751 0.67683 0.0
C511 C 0.77016 0.78295 0.75533 0.0
N512 N 0.78779 0.77413 0.74476 0.0
C513 C 0.81155 0.7869 0.80206 0.0
C514 C 0.79377 0.7963 0.81347 0.0
C515 C 0.77295 0.79425 0.79002 0.0
C516 C 0.80785 0.77593 0.76714 0.0
H517 H 0.75407 0.78132 0.73745 0.0
C518 C 0.73762 0.75581 0.66441 0.0
O519 O 0.69392 0.66975 0.66498 0.0
O520 O 0.6985 0.68802 0.71937 0.0
N521 N 0.81768 0.75355 0.7215 0.0
C522 C 0.83232 0.7424 0.70699 0.0
C523 C 0.85351 0.74218 0.72735 0.0
C524 C 0.85964 0.75369 0.76222 0.0
C525 C 0.84463 0.7655 0.77632 0.0
C526 C 0.82387 0.7653 0.75467 0.0
H527 H 0.82772 0.73352 0.68021 0.0
O528 O 0.74239 0.67726 0.7106 0.0
O529 O 0.76026 0.72235 0.71588 0.0
O530 O 0.75424 0.7046 0.64235 0.0
O531 O 0.7935 0.74381 0.65273 0.0
C532 C 0.84904 0.7769 0.81132 0.0
C533 C 0.83247 0.78753 0.82421 0.0
H534 H 0.79576 0.80491 0.84027 0.0
H535 H 0.75906 0.80132 0.79871 0.0
H536 H 0.86501 0.73305 0.71627 0.0
H537 H 0.87578 0.75318 0.77801 0.0
H538 H 0.86486 0.77721 0.82875 0.0
H539 H 0.83581 0.79589 0.85136 0.0
Mn540 Mn 0.37983 0.33504 0.63993 0.0
Mn541 Mn 0.43972 0.33447 0.63003 0.0
C542 C 0.38197 0.30303 0.60228 0.0
C543 C 0.34852 0.35009 0.62572 0.0
C544 C 0.40338 0.31093 0.69512 0.0
O545 O 0.40823 0.37252 0.65972 0.0
O546 O 0.44697 0.37062 0.6501 0.0
C547 C 0.46364 0.37629 0.57225 0.0
N548 N 0.45554 0.35041 0.58457 0.0
C549 C 0.47011 0.33844 0.52979 0.0
C550 C 0.47879 0.36505 0.5166 0.0
C551 C 0.47548 0.38402 0.5379 0.0
C552 C 0.45862 0.33198 0.56431 0.0
H553 H 0.46104 0.3909 0.58849 0.0
C554 C 0.43431 0.38318 0.66091 0.0
O555 O 0.34874 0.33978 0.65707 0.0
O556 O 0.36708 0.35253 0.60286 0.0
N557 N 0.43615 0.30101 0.6108 0.0
C558 C 0.4251 0.27568 0.6265 0.0
C559 C 0.42579 0.25402 0.60812 0.0
C560 C 0.43809 0.25869 0.57401 0.0
C561 C 0.4497 0.28503 0.55866 0.0
C562 C 0.44855 0.30586 0.57834 0.0
H563 H 0.41557 0.27195 0.65268 0.0
O564 O 0.3587 0.29873 0.61505 0.0
O565 O 0.40339 0.32631 0.61114 0.0
O566 O 0.38495 0.31633 0.68416 0.0
O567 O 0.425 0.317 0.67729 0.0
C568 C 0.46172 0.29125 0.52417 0.0
C569 C 0.47188 0.31793 0.50973 0.0
H570 H 0.48778 0.37104 0.49003 0.0
H571 H 0.48199 0.40454 0.52782 0.0
H572 H 0.41674 0.23374 0.62012 0.0
H573 H 0.43828 0.24185 0.55974 0.0
H574 H 0.46281 0.27555 0.50826 0.0
H575 H 0.48066 0.32233 0.48295 0.0
Mn576 Mn 0.71613 0.06566 0.66269 0.0
Mn577 Mn 0.77468 0.06545 0.68596 0.0
C578 C 0.74552 0.09583 0.70632 0.0
C579 C 0.66948 0.05001 0.67038 0.0
C580 C 0.76788 0.09121 0.61687 0.0
O581 O 0.70973 0.02854 0.64306 0.0
O582 O 0.74839 0.02963 0.6634 0.0
C583 C 0.7529 0.02283 0.74309 0.0
N584 N 0.77102 0.04889 0.7324 0.0
C585 C 0.7929 0.05988 0.79104 0.0
C586 C 0.77455 0.03312 0.80261 0.0
C587 C 0.75441 1.01456 0.77856 0.0
C588 C 0.79038 0.06697 0.75539 0.0
H589 H 0.7374 1.0085 0.72469 0.0
C590 C 0.72485 1.01739 0.64772 0.0
O591 O 0.68151 0.06142 0.64035 0.0
O592 O 0.68416 0.04681 0.69525 0.0
N593 N 0.80188 0.0987 0.70866 0.0
C594 C 0.81689 0.12425 0.69403 0.0
C595 C 0.83748 0.14545 0.71492 0.0
C596 C 0.84255 0.14016 0.75051 0.0
C597 C 0.82695 0.11368 0.76492 0.0
C598 C 0.80684 0.09331 0.74274 0.0
H599 H 0.81316 0.12845 0.66668 0.0
O600 O 0.72818 0.10113 0.68959 0.0
O601 O 0.74498 0.0731 0.69723 0.0
O602 O 0.74343 0.08615 0.62248 0.0
O603 O 0.781 0.08368 0.63832 0.0
C604 C 0.83027 0.10682 0.80062 0.0
C605 C 0.81321 0.07996 0.8137 0.0
H606 H 0.77557 0.02669 0.82998 0.0
H607 H 0.74009 0.99391 0.78735 0.0
H608 H 0.84941 0.16584 0.70361 0.0
H609 H 0.85832 0.15662 0.7666 0.0
H610 H 0.84558 0.12217 0.81844 0.0
H611 H 0.81568 0.07505 0.84135 0.0
Mn612 Mn 1.00271 0.67747 0.64352 0.0
Mn613 Mn 0.9431 0.61896 0.62533 0.0
C614 C 0.97169 0.67814 0.60252 0.0
C615 C 0.04931 0.70841 0.63494 0.0
C616 C 0.95204 0.65351 0.69211 0.0
O617 O 1.0099 0.64736 0.663 0.0
O618 O 0.96985 0.60974 0.64858 0.0
C619 C 0.96411 0.59638 0.5694 0.0
N620 N 0.94597 0.6046 0.57972 0.0
C621 C 0.92351 0.59285 0.52151 0.0
C622 C 0.94183 0.58406 0.51035 0.0
C623 C 0.96225 0.5859 0.53438 0.0
C624 C 0.9263 0.60301 0.55677 0.0
H625 H 0.97991 0.59786 0.58774 0.0
C626 C 0.99421 0.62128 0.66184 0.0
O627 O 0.03735 0.70731 0.66519 0.0
O628 O 0.0345 0.69077 0.61006 0.0
N629 N 0.91514 0.6242 0.60259 0.0
C630 C 0.89998 0.63483 0.61692 0.0
C631 C 0.8791 0.63521 0.596 0.0
C632 C 0.87381 0.62437 0.56076 0.0
C633 C 0.88934 0.61309 0.54684 0.0
C634 C 0.90976 0.6131 0.56904 0.0
H635 H 0.90392 0.64318 0.644 0.0
O636 O 0.98994 0.70068 0.61798 0.0
O637 O 0.97245 0.65576 0.61071 0.0
O638 O 0.97656 0.67148 0.68472 0.0
O639 O 0.93761 0.63248 0.67228 0.0
C640 C 0.88582 0.60245 0.51148 0.0
C641 C 0.90294 0.59241 0.4988 0.0
H642 H 0.94055 0.57609 0.4833 0.0
H643 H 0.97656 0.5793 0.52589 0.0
H644 H 0.8672 0.64394 0.60695 0.0
H645 H 0.85792 0.62501 0.54455 0.0
H646 H 0.8703 0.60231 0.49363 0.0
H647 H 0.90031 0.58467 0.47138 0.0
H648 H 0.2772 0.36089 0.11278 0.0
H649 H 0.21452 0.3725 0.06268 0.0
H650 H 0.20986 0.35103 0.17639 0.0
H651 H 0.19057 0.37613 0.18249 0.0
H652 H 0.11573 0.3679 0.14092 0.0
H653 H 0.16965 0.35795 0.06867 0.0
C654 C 0.25773 0.36053 0.11493 0.0
C655 C 0.24501 0.35585 0.14837 0.0
C656 C 0.2462 0.36514 0.08388 0.0
C657 C 0.22231 0.36742 0.08666 0.0
C658 C 0.20898 0.36323 0.12048 0.0
C659 C 0.22029 0.35639 0.15075 0.0
C660 C 0.18349 0.36576 0.12502 0.0
C661 C 0.17681 0.37158 0.15964 0.0
C662 C 0.15197 0.3712 0.16556 0.0
C663 C 0.13437 0.36694 0.13646 0.0
C664 C 0.14084 0.36278 0.10153 0.0
C665 C 0.16532 0.36198 0.09571 0.0
H666 H 0.70244 0.92903 0.11614 0.0
H667 H 0.68366 0.85386 0.06261 0.0
H668 H 0.70916 0.86638 0.17523 0.0
H669 H 0.67851 0.82143 0.17742 0.0
H670 H 0.6711 0.74992 0.12445 0.0
H671 H 0.70583 0.82629 0.06714 0.0
C672 C 0.7019 0.90932 0.11683 0.0
C673 C 0.70701 0.8998 0.14937 0.0
C674 C 0.69431 0.89337 0.08542 0.0
C675 C 0.69088 0.86663 0.08661 0.0
C676 C 0.69599 0.85628 0.11908 0.0
C677 C 0.7045 0.87342 0.15023 0.0
C678 C 0.69083 0.82717 0.12107 0.0
C679 C 0.68109 0.81189 0.15349 0.0
C680 C 0.67536 0.78438 0.15548 0.0
C681 C 0.67709 0.77162 0.12402 0.0
C682 C 0.68966 0.78677 0.09319 0.0
C683 C 0.69615 0.81454 0.09121 0.0
H684 H 0.29796 0.93589 0.13471 0.0
H685 H 0.22655 0.88724 0.06894 0.0
H686 H 0.23375 0.86096 0.17711 0.0
H687 H 0.18982 0.84958 0.17737 0.0
H688 H 0.12531 0.78163 0.1212 0.0
H689 H 0.19793 0.83756 0.06356 0.0
C690 C 0.27809 0.91762 0.13112 0.0
C691 C 0.2669 0.89932 0.1598 0.0
C692 C 0.26386 0.91354 0.09843 0.0
C693 C 0.23795 0.8899 0.09382 0.0
C694 C 0.2264 0.87064 0.12242 0.0
C695 C 0.24178 0.87532 0.15484 0.0
C696 C 0.19771 0.84684 0.12052 0.0
C697 C 0.18198 0.8382 0.15238 0.0
C698 C 0.15622 0.81452 0.1529 0.0
C699 C 0.14493 0.80042 0.12063 0.0
C700 C 0.1595 0.80881 0.08817 0.0
C701 C 0.18616 0.83184 0.08823 0.0
H702 H 0.36354 0.11591 0.87482 0.0
H703 H 0.38219 0.19023 0.93175 0.0
H704 H 0.35895 0.18024 0.81834 0.0
H705 H 0.3895 0.22368 0.81664 0.0
H706 H 0.38353 0.29121 0.86001 0.0
H707 H 0.36627 0.2222 0.92848 0.0
C708 C 0.36445 0.1358 0.87523 0.0
C709 C 0.36111 0.1468 0.84296 0.0
C710 C 0.37134 0.15096 0.90746 0.0
C711 C 0.37536 0.17804 0.90723 0.0
C712 C 0.37123 0.18935 0.87496 0.0
C713 C 0.36318 0.17285 0.84335 0.0
C714 C 0.37641 0.2185 0.87274 0.0
C715 C 0.38476 0.23268 0.83944 0.0
C716 C 0.38615 0.25817 0.83446 0.0
C717 C 0.38143 0.27093 0.86367 0.0
C718 C 0.3748 0.25848 0.89768 0.0
C719 C 0.37219 0.23212 0.90236 0.0
H720 H 0.76571 0.11466 0.87396 0.0
H721 H 0.84271 0.15557 0.92974 0.0
H722 H 0.83534 0.17776 0.81943 0.0
H723 H 0.87993 0.1932 0.8204 0.0
H724 H 0.94343 0.26041 0.87973 0.0
H725 H 0.8711 0.20306 0.93501 0.0
C726 C 0.78725 0.13006 0.87381 0.0
C727 C 0.79919 0.14425 0.84201 0.0
C728 C 0.80299 0.1328 0.90449 0.0
C729 C 0.83057 0.15366 0.90585 0.0
C730 C 0.84242 0.17135 0.87574 0.0
C731 C 0.8265 0.16579 0.84354 0.0
C732 C 0.87135 0.19502 0.87736 0.0
C733 C 0.88745 0.20429 0.84562 0.0
C734 C 0.91357 0.22786 0.84619 0.0
C735 C 0.92392 0.24151 0.87905 0.0
C736 C 0.90939 0.23207 0.9112 0.0
C737 C 0.88279 0.20928 0.91029 0.0
H738 H 0.78878 0.6841 0.88062 0.0
H739 H 0.84958 0.66837 0.92917 0.0
H740 H 0.85685 0.69484 0.81759 0.0
H741 H 0.87163 0.66436 0.81162 0.0
H742 H 0.94875 0.67576 0.84898 0.0
H743 H 0.89842 0.69094 0.92206 0.0
C744 C 0.8082 0.68435 0.87864 0.0
C745 C 0.82151 0.69005 0.84548 0.0
C746 C 0.81851 0.67738 0.90906 0.0
C747 C 0.84239 0.67505 0.90602 0.0
C748 C 0.85647 0.68091 0.8727 0.0
C749 C 0.84602 0.68913 0.84299 0.0
C750 C 0.8815 0.67792 0.86774 0.0
C751 C 0.88642 0.66992 0.83349 0.0
C752 C 0.91101 0.67011 0.82657 0.0
C753 C 0.93004 0.67638 0.85441 0.0
C754 C 0.92583 0.68387 0.88877 0.0
C755 C 0.90137 0.68445 0.8957 0.0
H756 H 0.94397 0.69426 0.44611 0.0
H757 H 0.88125 0.70583 0.39603 0.0
H758 H 0.87662 0.68437 0.50974 0.0
H759 H 0.85731 0.70945 0.51585 0.0
H760 H 0.78245 0.70118 0.47428 0.0
H761 H 0.83638 0.69126 0.40203 0.0
C762 C 0.92449 0.69389 0.44827 0.0
C763 C 0.91178 0.68921 0.48172 0.0
C764 C 0.91295 0.69849 0.41723 0.0
C765 C 0.88906 0.70075 0.42 0.0
C766 C 0.87572 0.69656 0.45383 0.0
C767 C 0.88705 0.68973 0.4841 0.0
C768 C 0.85023 0.69908 0.45838 0.0
C769 C 0.84355 0.7049 0.493 0.0
C770 C 0.8187 0.7045 0.49892 0.0
C771 C 0.8011 0.70023 0.46982 0.0
C772 C 0.80757 0.69607 0.43489 0.0
C773 C 0.83205 0.69529 0.42907 0.0
H774 H 0.36906 0.26244 0.44944 0.0
H775 H 0.35031 0.18728 0.39591 0.0
H776 H 0.37582 0.19981 0.50854 0.0
H777 H 0.34519 0.15486 0.51074 0.0
H778 H 0.33781 0.08337 0.45777 0.0
H779 H 0.3725 0.15972 0.40044 0.0
C780 C 0.36854 0.24274 0.45013 0.0
C781 C 0.37365 0.23322 0.48268 0.0
C782 C 0.36095 0.22679 0.41873 0.0
C783 C 0.35752 0.20006 0.41992 0.0
C784 C 0.36265 0.1897 0.45238 0.0
C785 C 0.37115 0.20684 0.48353 0.0
C786 C 0.3575 0.16061 0.45437 0.0
C787 C 0.34778 0.14532 0.48681 0.0
C788 C 0.34206 0.11782 0.48879 0.0
C789 C 0.3438 0.10506 0.45733 0.0
C790 C 0.35635 0.12021 0.42649 0.0
C791 C 0.36282 0.14798 0.42451 0.0
H792 H 0.96455 0.26915 0.46806 0.0
H793 H 0.89315 0.22049 0.40229 0.0
H794 H 0.90036 0.19421 0.51046 0.0
H795 H 0.85643 0.18283 0.51073 0.0
H796 H 0.79192 0.11487 0.45455 0.0
H797 H 0.86453 0.17082 0.3969 0.0
C798 C 0.94469 0.25088 0.46447 0.0
C799 C 0.93351 0.23258 0.49315 0.0
C800 C 0.93046 0.2468 0.43178 0.0
C801 C 0.90455 0.22316 0.42717 0.0
C802 C 0.89301 0.2039 0.45577 0.0
C803 C 0.90838 0.20858 0.48819 0.0
C804 C 0.86432 0.18009 0.45387 0.0
C805 C 0.84859 0.17144 0.48573 0.0
C806 C 0.82284 0.14776 0.48625 0.0
C807 C 0.81154 0.13366 0.45398 0.0
C808 C 0.8261 0.14206 0.42152 0.0
C809 C 0.85277 0.16509 0.42158 0.0
H810 H 1.03009 0.44919 0.20816 0.0
H811 H 0.04882 0.52353 0.2651 0.0
H812 H 1.02558 0.51357 0.15169 0.0
H813 H 0.05617 0.557 0.15 0.0
H814 H 0.0503 0.62457 0.19337 0.0
H815 H 0.03294 0.55554 0.26184 0.0
C816 C 1.03102 0.46909 0.20858 0.0
C817 C 1.0277 0.4801 0.17631 0.0
C818 C 0.03793 0.48426 0.24081 0.0
C819 C 0.04198 0.51135 0.24058 0.0
C820 C 0.03787 0.52267 0.20831 0.0
C821 C 1.02979 0.50616 0.1767 0.0
C822 C 0.04308 0.55183 0.2061 0.0
C823 C 0.05145 0.566 0.1728 0.0
C824 C 0.05287 0.59151 0.16782 0.0
C825 C 0.04817 0.60429 0.19703 0.0
C826 C 0.04153 0.59183 0.23104 0.0
C827 C 0.03888 0.56545 0.23572 0.0
H828 H 0.43237 0.44806 0.2073 0.0
H829 H 0.50938 0.48891 0.26306 0.0
H830 H 0.50203 0.51112 0.15274 0.0
H831 H 0.54661 0.52653 0.15371 0.0
H832 H 0.61016 0.59369 0.21305 0.0
H833 H 0.5378 0.5364 0.26832 0.0
C834 C 0.45391 0.46345 0.20714 0.0
C835 C 0.46586 0.47763 0.17533 0.0
C836 C 0.46965 0.46618 0.23782 0.0
C837 C 0.49724 0.48701 0.23917 0.0
C838 C 0.5091 0.5047 0.20906 0.0
C839 C 0.49318 0.49916 0.17686 0.0
C840 C 0.53804 0.52835 0.21067 0.0
C841 C 0.55414 0.53761 0.17893 0.0
C842 C 0.58027 0.56116 0.1795 0.0
C843 C 0.59063 0.5748 0.21236 0.0
C844 C 0.5761 0.56538 0.24451 0.0
C845 C 0.54949 0.5426 0.2436 0.0
H846 H 0.45547 1.01753 0.21393 0.0
H847 H 0.51622 1.00174 0.26249 0.0
H848 H 0.52352 0.0282 0.15091 0.0
H849 H 0.53827 0.99768 0.14495 0.0
H850 H 0.61536 1.00902 0.18232 0.0
H851 H 0.56507 0.02428 0.25538 0.0
C852 C 0.47489 1.01776 0.21195 0.0
C853 C 0.4882 0.02345 0.17879 0.0
C854 C 0.48518 1.01079 0.24237 0.0
C855 C 0.50904 1.00843 0.23933 0.0
C856 C 0.52313 1.01427 0.20602 0.0
C857 C 0.51269 0.0225 0.1763 0.0
C858 C 0.54814 1.01125 0.20106 0.0
C859 C 0.55305 1.00323 0.16682 0.0
C860 C 0.57763 1.0034 0.15991 0.0
C861 C 0.59666 1.00966 0.18775 0.0
C862 C 0.59246 1.01717 0.2221 0.0
C863 C 0.568 1.01778 0.22903 0.0
H864 H 0.61056 0.02745 0.77947 0.0
H865 H 0.54792 0.03913 0.72937 0.0
H866 H 0.54324 1.01766 0.84308 0.0
H867 H 0.52397 0.04278 0.84918 0.0
H868 H 0.44916 0.03461 0.80758 0.0
H869 H 0.50305 0.02461 0.73535 0.0
C870 C 0.59109 0.02711 0.78162 0.0
C871 C 0.57838 0.02244 0.81506 0.0
C872 C 0.57958 0.03173 0.75057 0.0
C873 C 0.5557 0.03404 0.75335 0.0
C874 C 0.54236 0.02986 0.78717 0.0
C875 C 0.55366 0.02301 0.81744 0.0
C876 C 0.51689 0.03241 0.7917 0.0
C877 C 0.51022 0.03825 0.82632 0.0
C878 C 0.48539 0.03789 0.83224 0.0
C879 C 0.46779 0.03364 0.80313 0.0
C880 C 0.47426 0.02946 0.76821 0.0
C881 C 0.49873 0.02865 0.7624 0.0
H882 H 0.03583 0.59578 0.7828 0.0
H883 H 1.01701 0.52061 0.72926 0.0
H884 H 0.0425 0.5331 0.84189 0.0
H885 H 1.01182 0.48817 0.84407 0.0
H886 H 1.00438 0.41664 0.7911 0.0
H887 H 0.03916 0.49301 0.73379 0.0
C888 C 0.03528 0.57607 0.78348 0.0
C889 C 0.04038 0.56654 0.81603 0.0
C890 C 1.02769 0.56012 0.75208 0.0
C891 C 1.02423 0.53338 0.75327 0.0
C892 C 1.02934 0.52301 0.78573 0.0
C893 C 0.03785 0.54015 0.81688 0.0
C894 C 1.02415 0.4939 0.78772 0.0
C895 C 1.0144 0.47862 0.82014 0.0
C896 C 1.00865 0.45111 0.82213 0.0
C897 C 1.01038 0.43834 0.79067 0.0
C898 C 1.02296 0.45349 0.75984 0.0
C899 C 1.02946 0.48127 0.75786 0.0
H900 H 0.63127 0.60246 0.8014 0.0
H901 H 0.55984 0.55384 0.73565 0.0
H902 H 0.56704 0.52755 0.84382 0.0
H903 H 0.52312 0.51619 0.84409 0.0
H904 H 0.45857 0.44827 0.78791 0.0
H905 H 0.5312 0.50418 0.73026 0.0
C906 C 0.6114 0.5842 0.79782 0.0
C907 C 0.60021 0.5659 0.8265 0.0
C908 C 0.59716 0.58013 0.76514 0.0
C909 C 0.57125 0.5565 0.76053 0.0
C910 C 0.55969 0.53725 0.78913 0.0
C911 C 0.57507 0.54191 0.82155 0.0
C912 C 0.531 0.51345 0.78723 0.0
C913 C 0.51527 0.50482 0.81909 0.0
C914 C 0.4895 0.48114 0.81961 0.0
C915 C 0.4782 0.46705 0.78734 0.0
C916 C 0.49276 0.47544 0.75488 0.0
C917 C 0.51943 0.49846 0.75494 0.0
H918 H 0.69682 0.78248 0.54151 0.0
H919 H 0.71551 0.85681 0.59844 0.0
H920 H 0.69226 0.84683 0.48503 0.0
H921 H 0.72283 0.89027 0.48333 0.0
H922 H 0.71689 0.95781 0.5267 0.0
H923 H 0.69961 0.8888 0.59517 0.0
C924 C 0.69774 0.80237 0.54192 0.0
C925 C 0.69441 0.81338 0.50966 0.0
C926 C 0.70464 0.81754 0.57415 0.0
C927 C 0.70867 0.84462 0.57392 0.0
C928 C 0.70455 0.85594 0.54165 0.0
C929 C 0.69649 0.83943 0.51004 0.0
C930 C 0.70974 0.88509 0.53943 0.0
C931 C 0.71809 0.89926 0.50613 0.0
C932 C 0.71949 0.92476 0.50115 0.0
C933 C 0.71478 0.93753 0.53036 0.0
C934 C 0.70815 0.92508 0.56437 0.0
C935 C 0.70553 0.89871 0.56905 0.0
H936 H 0.09911 0.78143 0.54061 0.0
H937 H 0.17611 0.82233 0.59638 0.0
H938 H 0.16874 0.84452 0.48606 0.0
H939 H 0.21332 0.85997 0.48703 0.0
H940 H 0.27684 0.92715 0.54637 0.0
H941 H 0.20451 0.86981 0.60164 0.0
C942 C 0.12065 0.79683 0.54046 0.0
C943 C 0.13259 0.81101 0.50865 0.0
C944 C 0.13639 0.79956 0.57113 0.0
C945 C 0.16397 0.82042 0.57248 0.0
C946 C 0.17582 0.83811 0.54238 0.0
C947 C 0.1599 0.83256 0.51018 0.0
C948 C 0.20475 0.86178 0.54399 0.0
C949 C 0.22085 0.87105 0.51225 0.0
C950 C 0.24697 0.89461 0.51282 0.0
C951 C 0.25732 0.90825 0.54568 0.0
C952 C 0.2428 0.89882 0.57783 0.0
C953 C 0.2162 0.87603 0.57692 0.0
H954 H 0.12204 0.3508 0.54728 0.0
H955 H 0.18283 0.33506 0.59584 0.0
H956 H 0.1901 0.36151 0.48425 0.0
H957 H 0.20488 0.33102 0.47829 0.0
H958 H 0.282 0.34243 0.51566 0.0
H959 H 0.23168 0.35762 0.58873 0.0
C960 C 0.14146 0.35104 0.5453 0.0
C961 C 0.15477 0.35674 0.51214 0.0
C962 C 0.15177 0.34408 0.57572 0.0
C963 C 0.17564 0.34174 0.57268 0.0
C964 C 0.18972 0.34759 0.53936 0.0
C965 C 0.17927 0.35581 0.50965 0.0
C966 C 0.21475 0.34459 0.53441 0.0
C967 C 0.21967 0.33658 0.50016 0.0
C968 C 0.24426 0.33677 0.49324 0.0
C969 C 0.26329 0.34305 0.52108 0.0
C970 C 0.25908 0.35054 0.55543 0.0
C971 C 0.23462 0.35113 0.56237 0.0
C972 C 1.01046 0.42343 0.1076 0.0
C973 C 1.02931 0.43787 0.08012 0.0
H974 H 0.99482 0.42555 0.15949 0.0
C975 C 0.04578 0.4666 0.08331 0.0
H976 H 0.99733 0.40133 0.10592 0.0
C977 C 0.04403 0.48043 0.11367 0.0
C978 C 1.02597 0.46587 0.14175 0.0
H979 H 0.06037 0.47846 0.06257 0.0
H980 H 0.05773 0.50241 0.11589 0.0
C981 C 1.00893 0.43727 0.13821 0.0
C982 C 0.64184 0.60111 0.11943 0.0
C983 C 0.6297 0.6019 0.08657 0.0
H984 H 0.63604 0.58559 0.17314 0.0
C985 C 0.60099 0.58839 0.08364 0.0
H986 H 0.66392 0.6122 0.12274 0.0
C987 C 0.58469 0.57386 0.11316 0.0
C988 C 0.59691 0.57292 0.14621 0.0
H989 H 0.59121 0.58928 0.05864 0.0
H990 H 0.56264 0.56432 0.11051 0.0
C991 C 0.62574 0.5862 0.14851 0.0
C992 C 0.44552 0.04488 0.12112 0.0
C993 C 0.44499 0.03278 0.08781 0.0
H994 H 0.46104 0.05306 0.17526 0.0
C995 C 0.4591 1.01799 0.08409 0.0
H996 H 0.43398 0.05559 0.12486 0.0
C997 C 0.47424 1.016 0.11313 0.0
C998 C 0.47505 0.02836 0.14658 0.0
H999 H 0.45837 1.00795 0.05874 0.0
H1000 H 0.48445 1.00396 0.10976 0.0
C1001 C 0.46075 0.04311 0.15003 0.0
C1002 C 0.44038 0.02741 0.91247 0.0
C1003 C 0.45666 0.05084 0.93367 0.0
H1004 H 0.43707 1.00481 0.86439 0.0
C1005 C 0.48363 0.06904 0.92261 0.0
H1006 H 0.41966 1.0127 0.92022 0.0
C1007 C 0.49367 0.06434 0.89036 0.0
C1008 C 0.47685 0.04144 0.86869 0.0
H1009 H 0.49684 0.08714 0.93849 0.0
H1010 H 0.51414 0.07907 0.88173 0.0
C1011 C 0.45035 0.02279 0.88046 0.0
C1012 C 0.99154 0.42799 0.92046 0.0
C1013 C 1.00434 0.41185 0.92409 0.0
H1014 H 0.98274 0.4534 0.88503 0.0
C1015 C 1.01593 0.40675 0.89396 0.0
H1016 H 0.98199 0.43166 0.94352 0.0
C1017 C 1.01687 0.41929 0.86127 0.0
C1018 C 1.00521 0.43656 0.85721 0.0
H1019 H 1.02532 0.39379 0.89602 0.0
H1020 H 1.028 0.41624 0.83965 0.0
C1021 C 0.99215 0.4405 0.88716 0.0
C1022 C 0.63142 0.56521 0.91816 0.0
C1023 C 0.6403 0.59229 0.93015 0.0
H1024 H 0.61158 0.53539 0.87569 0.0
C1025 C 0.63512 0.60988 0.90821 0.0
H1026 H 0.63491 0.55107 0.93455 0.0
C1027 C 0.62185 0.60092 0.87504 0.0
C1028 C 0.61344 0.57416 0.86262 0.0
H1029 H 0.64137 0.63077 0.9165 0.0
H1030 H 0.6181 0.61507 0.85901 0.0
C1031 C 0.61797 0.55617 0.88465 0.0
C1032 C 0.06224 0.62969 0.87444 0.0
C1033 C 0.04915 0.61822 0.90707 0.0
H1034 H 0.07195 0.62251 0.82143 0.0
C1035 C 0.03445 0.58945 0.91067 0.0
H1036 H 0.07287 0.65178 0.8706 0.0
C1037 C 0.03306 0.57241 0.88195 0.0
C1038 C 0.04605 0.58393 0.84901 0.0
H1039 H 1.02372 0.58019 0.93548 0.0
H1040 H 1.02072 0.55032 0.88494 0.0
C1041 C 0.06135 0.61282 0.84614 0.0
C1042 C 0.47717 0.45149 0.91404 0.0
C1043 C 0.44868 0.44034 0.91746 0.0
H1044 H 0.51234 0.47343 0.88066 0.0
C1045 C 0.43398 0.4444 0.88928 0.0
H1046 H 0.4892 0.44895 0.93528 0.0
C1047 C 0.44733 0.45849 0.85793 0.0
C1048 C 0.47569 0.46911 0.85431 0.0
H1049 H 0.41204 0.43619 0.89106 0.0
H1050 H 0.43542 0.46078 0.83629 0.0
C1051 C 0.49052 0.46582 0.88291 0.0
C1052 C 0.60725 0.02746 0.91001 0.0
C1053 C 0.62147 1.01277 0.9061 0.0
H1054 H 0.58195 0.04163 0.88445 0.0
C1055 C 0.62138 1.00124 0.87255 0.0
H1056 H 0.60767 0.03709 0.93558 0.0
C1057 C 0.6063 1.00323 0.84365 0.0
C1058 C 0.5918 1.01779 0.84725 0.0
H1059 H 0.63302 0.99065 0.86865 0.0
H1060 H 0.60615 0.9934 0.81838 0.0
C1061 C 0.59233 0.02977 0.8809 0.0
C1062 C 0.58058 0.97113 0.07109 0.0
C1063 C 0.60643 0.99117 0.05841 0.0
H1064 H 0.55081 0.95937 0.11349 0.0
C1065 C 0.62093 1.01601 0.07765 0.0
H1066 H 0.56874 0.9519 0.05667 0.0
C1067 C 0.61058 1.02026 0.1095 0.0
C1068 C 0.58551 0.99981 0.12314 0.0
H1069 H 0.64062 0.03216 0.06851 0.0
H1070 H 0.62264 0.03935 0.12419 0.0
C1071 C 0.57018 0.97544 0.10333 0.0
C1072 C 0.04425 0.62697 0.08586 0.0
C1073 C 0.06597 0.63033 0.06381 0.0
H1074 H 1.02309 0.61186 0.13559 0.0
C1075 C 0.08326 0.62021 0.07593 0.0
H1076 H 1.03045 0.63438 0.07747 0.0
C1077 C 0.07894 0.60719 0.10957 0.0
C1078 C 0.05746 0.60435 0.13166 0.0
H1079 H 0.10008 0.62234 0.05949 0.0
H1080 H 0.09263 0.5998 0.11858 0.0
C1081 C 0.04008 0.61417 0.11932 0.0
C1082 C 0.41975 0.42655 0.10454 0.0
C1083 C 0.42472 0.44297 0.07397 0.0
H1084 H 0.42988 0.42393 0.15886 0.0
C1085 C 0.44127 0.47164 0.07701 0.0
H1086 H 0.40649 0.40445 0.10298 0.0
C1087 C 0.45432 0.48345 0.11009 0.0
C1088 C 0.4506 0.46666 0.14047 0.0
H1089 H 0.44484 0.48469 0.05365 0.0
H1090 H 0.46748 0.50552 0.11167 0.0
C1091 C 0.43286 0.43805 0.13701 0.0
C1092 C 0.67718 0.7567 0.44095 0.0
C1093 C 0.69603 0.77114 0.41346 0.0
H1094 H 0.66155 0.75882 0.49285 0.0
C1095 C 0.7125 0.79987 0.41666 0.0
H1096 H 0.66406 0.7346 0.43928 0.0
C1097 C 0.71074 0.81371 0.44702 0.0
C1098 C 0.69268 0.79914 0.4751 0.0
H1099 H 0.72708 0.81174 0.39591 0.0
H1100 H 0.72443 0.83569 0.44923 0.0
C1101 C 0.67565 0.77055 0.47156 0.0
C1102 C 0.30853 0.93459 0.45275 0.0
C1103 C 0.29638 0.93537 0.41988 0.0
H1104 H 0.30275 0.91908 0.50645 0.0
C1105 C 0.26768 0.92185 0.41695 0.0
H1106 H 0.33061 0.94568 0.45605 0.0
C1107 C 0.25138 0.90731 0.44648 0.0
C1108 C 0.26361 0.90638 0.47953 0.0
H1109 H 0.25789 0.92272 0.39195 0.0
H1110 H 0.22932 0.89777 0.44383 0.0
C1111 C 0.29244 0.91968 0.48183 0.0
C1112 C 0.11207 0.37815 0.45446 0.0
C1113 C 0.11155 0.36605 0.42116 0.0
H1114 H 0.12759 0.38632 0.50861 0.0
C1115 C 0.12568 0.35127 0.41743 0.0
H1116 H 0.10053 0.38885 0.4582 0.0
C1117 C 0.14081 0.34928 0.44648 0.0
C1118 C 0.14162 0.36164 0.47993 0.0
H1119 H 0.12495 0.34123 0.39208 0.0
H1120 H 0.15103 0.33724 0.44311 0.0
C1121 C 0.12731 0.37638 0.48338 0.0
C1122 C 0.15021 0.40234 0.25594 0.0
C1123 C 0.12323 0.38413 0.26701 0.0
H1124 H 0.18071 0.41239 0.21505 0.0
C1125 C 0.10696 0.3607 0.2458 0.0
H1126 H 0.16341 0.42044 0.27183 0.0
C1127 C 0.11694 0.35609 0.21379 0.0
C1128 C 0.14343 0.37475 0.20202 0.0
H1129 H 0.08624 0.34598 0.25355 0.0
H1130 H 0.10366 0.33811 0.19772 0.0
C1131 C 0.16025 0.39765 0.22369 0.0
C1132 C 0.68265 0.74003 0.22731 0.0
C1133 C 0.67106 0.74513 0.25744 0.0
H1134 H 0.69472 0.74953 0.173 0.0
C1135 C 0.65826 0.76127 0.25381 0.0
H1136 H 0.69205 0.72708 0.22937 0.0
C1137 C 0.65886 0.77377 0.22051 0.0
C1138 C 0.67193 0.76983 0.19057 0.0
H1139 H 0.6487 0.76493 0.27687 0.0
H1140 H 0.64945 0.78666 0.21838 0.0
C1141 C 0.68359 0.75257 0.19462 0.0
C1142 C 0.30178 0.9433 0.24152 0.0
C1143 C 0.30698 0.92572 0.26346 0.0
H1144 H 0.28475 0.94847 0.19232 0.0
C1145 C 0.29812 0.89865 0.25147 0.0
H1146 H 0.30802 0.96419 0.24981 0.0
C1147 C 0.28468 0.8896 0.21795 0.0
C1148 C 0.28013 0.90758 0.19593 0.0
H1149 H 0.30162 0.88452 0.26786 0.0
H1150 H 0.2783 0.86883 0.20899 0.0
C1151 C 0.28852 0.93434 0.20835 0.0
C1152 C 0.72885 0.96295 0.20778 0.0
C1153 C 0.71576 0.95148 0.2404 0.0
H1154 H 0.73857 0.95577 0.15476 0.0
C1155 C 0.70107 0.92271 0.244 0.0
H1156 H 0.73947 0.98504 0.20393 0.0
C1157 C 0.69968 0.90567 0.21529 0.0
C1158 C 0.71267 0.91719 0.18235 0.0
H1159 H 0.69034 0.91345 0.26881 0.0
H1160 H 0.68735 0.88358 0.21829 0.0
C1161 C 0.72796 0.94608 0.17947 0.0
C1162 C 0.1439 0.78488 0.24734 0.0
C1163 C 0.11541 0.77372 0.25076 0.0
H1164 H 0.17907 0.80683 0.21395 0.0
C1165 C 0.1007 0.77777 0.22257 0.0
H1166 H 0.15594 0.78235 0.26858 0.0
C1167 C 0.11405 0.79186 0.19122 0.0
C1168 C 0.14242 0.80249 0.1876 0.0
H1169 H 0.07877 0.76955 0.22435 0.0
H1170 H 0.10214 0.79413 0.16957 0.0
C1171 C 0.15725 0.79921 0.2162 0.0
C1172 C 0.28803 0.33466 0.20586 0.0
C1173 C 0.28811 0.34618 0.23941 0.0
H1174 H 0.2728 0.32683 0.15168 0.0
C1175 C 0.27388 0.36086 0.24332 0.0
H1176 H 0.29967 0.32407 0.20197 0.0
C1177 C 0.25897 0.36318 0.21421 0.0
C1178 C 0.25844 0.35121 0.18056 0.0
H1179 H 0.2743 0.37049 0.2689 0.0
H1180 H 0.24857 0.37503 0.21776 0.0
C1181 C 0.27294 0.33665 0.17696 0.0
C1182 C 0.24721 0.30453 0.40441 0.0
C1183 C 0.27306 0.32457 0.39173 0.0
H1184 H 0.21745 0.29276 0.44682 0.0
C1185 C 0.28757 0.3494 0.41099 0.0
H1186 H 0.23537 0.2853 0.38999 0.0
C1187 C 0.27722 0.35364 0.44284 0.0
C1188 C 0.25214 0.33319 0.45648 0.0
H1189 H 0.30725 0.36556 0.40184 0.0
H1190 H 0.28927 0.37273 0.45753 0.0
C1191 C 0.23681 0.30883 0.43666 0.0
C1192 C 0.74987 0.95348 0.40926 0.0
C1193 C 0.73258 0.96358 0.39714 0.0
H1194 H 0.75926 0.93307 0.45191 0.0
C1195 C 0.71085 0.9602 0.41919 0.0
H1196 H 0.7667 0.95561 0.39282 0.0
C1197 C 0.70668 0.9474 0.45265 0.0
C1198 C 0.72407 0.9376 0.46499 0.0
H1199 H 0.69704 0.96761 0.41079 0.0
H1200 H 0.68969 0.94508 0.46891 0.0
C1201 C 0.74556 0.94045 0.4429 0.0
C1202 C 0.0865 0.75993 0.43784 0.0
C1203 C 0.09146 0.77636 0.40728 0.0
H1204 H 0.09663 0.75731 0.49217 0.0
C1205 C 0.108 0.80502 0.41033 0.0
H1206 H 0.07324 0.73783 0.43628 0.0
C1207 C 0.12104 0.81683 0.44341 0.0
C1208 C 0.11733 0.80004 0.47379 0.0
H1209 H 0.11157 0.81808 0.38696 0.0
H1210 H 0.13419 0.83891 0.44499 0.0
C1211 C 0.0996 0.77143 0.47032 0.0
C1212 C 0.3439 0.09013 0.77426 0.0
C1213 C 0.36275 0.10458 0.74677 0.0
H1214 H 0.32826 0.09225 0.82615 0.0
C1215 C 0.37921 0.13331 0.74997 0.0
H1216 H 0.33078 0.06803 0.77258 0.0
C1217 C 0.37745 0.14714 0.78033 0.0
C1218 C 0.35939 0.13257 0.80841 0.0
H1219 H 0.3938 0.14518 0.72922 0.0
H1220 H 0.39114 0.16912 0.78254 0.0
C1221 C 0.34236 0.10397 0.80487 0.0
C1222 C 0.97513 0.26783 0.78611 0.0
C1223 C 0.96298 0.26861 0.75325 0.0
H1224 H 0.96934 0.25233 0.83982 0.0
C1225 C 0.93427 0.25509 0.75032 0.0
H1226 H 0.9972 0.27893 0.78941 0.0
C1227 C 0.91798 0.24055 0.77985 0.0
C1228 C 0.9302 0.23962 0.8129 0.0
H1229 H 0.92448 0.25596 0.72532 0.0
H1230 H 0.89592 0.231 0.7772 0.0
C1231 C 0.95903 0.25293 0.81519 0.0
C1232 C 0.79242 0.68459 0.75078 0.0
C1233 C 0.77829 0.69937 0.75451 0.0
H1234 H 0.81777 0.67056 0.77645 0.0
C1235 C 0.77881 0.71147 0.78782 0.0
H1236 H 0.79168 0.67455 0.72543 0.0
C1237 C 0.79405 0.70969 0.81673 0.0
C1238 C 0.80836 0.69496 0.81327 0.0
H1239 H 0.76727 0.72217 0.79156 0.0
H1240 H 0.79433 0.71964 0.84196 0.0
C1241 C 0.80755 0.6826 0.77982 0.0
C1242 C 0.77369 0.69399 0.57917 0.0
C1243 C 0.78996 0.71743 0.60037 0.0
H1244 H 0.77039 0.6714 0.53109 0.0
C1245 C 0.81693 0.73565 0.58929 0.0
H1246 H 0.75298 0.67928 0.58692 0.0
C1247 C 0.82697 0.73095 0.55704 0.0
C1248 C 0.81016 0.70805 0.53538 0.0
H1249 H 0.83013 0.75375 0.60517 0.0
H1250 H 0.84744 0.7457 0.5484 0.0
C1251 C 0.78367 0.68939 0.54715 0.0
C1252 C 0.34938 0.07348 0.56062 0.0
C1253 C 0.33778 0.07857 0.59075 0.0
H1254 H 0.36145 0.08298 0.50631 0.0
C1255 C 0.32497 0.0947 0.58713 0.0
H1256 H 0.35878 0.06053 0.56267 0.0
C1257 C 0.32557 0.10721 0.55383 0.0
C1258 C 0.33864 0.10328 0.52388 0.0
H1259 H 0.31542 0.09835 0.61019 0.0
H1260 H 0.31615 0.12009 0.5517 0.0
C1261 C 0.35031 0.08602 0.52793 0.0
C1262 C 0.96472 0.23191 0.58482 0.0
C1263 C 0.97357 0.25898 0.59682 0.0
H1264 H 0.94491 0.20209 0.54234 0.0
C1265 C 0.96838 0.27656 0.57487 0.0
H1266 H 0.96822 0.21777 0.60121 0.0
C1267 C 0.95512 0.2676 0.5417 0.0
C1268 C 0.94673 0.24084 0.52928 0.0
H1269 H 0.97461 0.29745 0.58317 0.0
H1270 H 0.95135 0.28174 0.52567 0.0
C1271 C 0.95128 0.22286 0.5513 0.0
C1272 C 0.39547 0.29637 0.54108 0.0
C1273 C 0.38239 0.2849 0.57371 0.0
H1274 H 0.40519 0.2892 0.48806 0.0
C1275 C 0.3677 0.25613 0.57731 0.0
H1276 H 0.4061 0.31846 0.53724 0.0
C1277 C 0.36632 0.23909 0.5486 0.0
C1278 C 0.37931 0.25062 0.51565 0.0
H1279 H 0.35698 0.24686 0.60212 0.0
H1280 H 0.35399 0.217 0.55159 0.0
C1281 C 0.39459 0.2795 0.51278 0.0
C1282 C 0.76732 0.111 0.55593 0.0
C1283 C 0.78203 0.10696 0.58411 0.0
H1284 H 0.76875 0.12736 0.50293 0.0
C1285 C 0.81052 0.11812 0.58068 0.0
H1286 H 0.74538 0.10278 0.55771 0.0
C1287 C 0.82387 0.13244 0.54955 0.0
C1288 C 0.80903 0.13573 0.52095 0.0
H1289 H 0.82256 0.11559 0.60192 0.0
H1290 H 0.84569 0.14007 0.5473 0.0
C1291 C 0.78066 0.12509 0.52457 0.0
C1292 C 0.95481 0.66803 0.53919 0.0
C1293 C 0.95489 0.67955 0.57275 0.0
H1294 H 0.93959 0.66021 0.48502 0.0
C1295 C 0.94066 0.69423 0.57666 0.0
H1296 H 0.96646 0.65745 0.5353 0.0
C1297 C 0.92574 0.69654 0.54755 0.0
C1298 C 0.92521 0.68457 0.51389 0.0
H1299 H 0.94107 0.70385 0.60224 0.0
H1300 H 0.91534 0.70839 0.5511 0.0
C1301 C 0.93973 0.67002 0.51029 0.0
C1302 C 0.91398 0.63788 0.73774 0.0
C1303 C 0.93982 0.65792 0.72506 0.0
H1304 H 0.88421 0.6261 0.78013 0.0
C1305 C 0.95433 0.68275 0.74432 0.0
H1306 H 0.90214 0.61865 0.72331 0.0
C1307 C 0.94397 0.68699 0.77617 0.0
C1308 C 0.9189 0.66653 0.7898 0.0
H1309 H 0.97402 0.69892 0.73518 0.0
H1310 H 0.95603 0.70608 0.79087 0.0
C1311 C 0.90357 0.64217 0.76998 0.0
C1312 C 0.41653 0.28689 0.74257 0.0
C1313 C 0.39922 0.29698 0.73045 0.0
H1314 H 0.42593 0.26649 0.78522 0.0
C1315 C 0.37749 0.2936 0.7525 0.0
H1316 H 0.43336 0.28903 0.72613 0.0
C1317 C 0.37333 0.2808 0.78596 0.0
C1318 C 0.39072 0.271 0.7983 0.0
H1319 H 0.36367 0.30099 0.7441 0.0
H1320 H 0.35633 0.27847 0.80222 0.0
C1321 C 0.41222 0.27387 0.77621 0.0
C1322 C 0.77461 0.13826 0.74368 0.0
C1323 C 0.75807 0.10959 0.74063 0.0
H1324 H 0.8008 0.17214 0.77835 0.0
C1325 C 0.75311 0.09317 0.77119 0.0
H1326 H 0.77818 0.15131 0.72032 0.0
C1327 C 0.76622 0.10466 0.80367 0.0
C1328 C 0.78394 0.13327 0.80714 0.0
H1329 H 0.73986 0.07106 0.76963 0.0
H1330 H 0.76324 0.09054 0.82552 0.0
C1331 C 0.78765 0.15007 0.77676 0.0
C1332 C 0.07506 0.34926 0.05645 0.0
C1333 C 0.08435 0.37254 0.03416 0.0
H1334 H 0.08611 0.32721 0.09451 0.0
C1335 C 0.11278 0.38869 0.02828 0.0
H1336 H 0.05338 0.3361 0.06121 0.0
C1337 C 0.1315 0.38334 0.04704 0.0
C1338 C 0.1222 0.36174 0.07203 0.0
H1339 H 0.12076 0.40649 0.01072 0.0
H1340 H 0.15323 0.39756 0.04442 0.0
C1341 C 0.0938 0.34394 0.07518 0.0
C1342 C 0.68175 0.73559 0.02278 0.0
C1343 C 0.69856 0.72592 0.03819 0.0
H1344 H 0.666 0.76367 0.02808 0.0
C1345 C 0.71741 0.74163 0.0653 0.0
H1346 H 0.66699 0.72384 0.00181 0.0
C1347 C 0.71773 0.76514 0.07899 0.0
C1348 C 0.69851 0.77282 0.0668 0.0
H1349 H 0.73072 0.7348 0.07748 0.0
H1350 H 0.73073 0.77538 0.10219 0.0
C1351 C 0.68144 0.75866 0.03735 0.0
C1352 C 0.30721 0.98513 0.06589 0.0
C1353 C 0.3219 0.98088 0.03856 0.0
H1354 H 0.27534 0.9664 0.10493 0.0
C1355 C 0.31194 0.95412 0.02467 0.0
H1356 H 0.31425 1.00553 0.07684 0.0
C1357 C 0.28979 0.93156 0.04113 0.0
C1358 C 0.27706 0.93564 0.07114 0.0
H1359 H 0.3229 0.95027 0.00354 0.0
H1360 H 0.28459 0.91092 0.0329 0.0
C1361 C 0.28472 0.96274 0.08164 0.0
C1362 C 0.41239 0.13511 0.97454 0.0
C1363 C 0.39427 0.10699 0.98114 0.0
H1364 H 0.41901 0.17157 0.94635 0.0
C1365 C 0.36689 0.09566 0.96949 0.0
H1366 H 0.43356 0.14467 0.98351 0.0
C1367 C 0.35853 0.11132 0.94891 0.0
C1368 C 0.37737 0.13856 0.9393 0.0
H1369 H 0.35222 0.07428 0.97464 0.0
H1370 H 0.33784 0.10146 0.93803 0.0
C1371 C 0.40402 0.15074 0.95371 0.0
C1372 C 0.93094 0.28757 0.98111 0.0
C1373 C 0.95881 0.29523 0.98451 0.0
H1374 H 0.89255 0.26045 0.95491 0.0
C1375 C 0.96781 0.27753 0.97139 0.0
H1376 H 0.92369 0.30118 -0.0093 0.0
C1377 C 0.94988 0.25389 0.9521 0.0
C1378 C 0.92292 0.24813 0.94436 0.0
H1379 H 0.98923 0.28311 0.97357 0.0
H1380 H 0.958 0.24189 0.93954 0.0
C1381 C 0.91307 0.26418 0.96086 0.0
C1382 C 0.76354 0.63451 0.97491 0.0
C1383 C 0.75444 0.65313 0.98462 0.0
H1384 H 0.79194 0.62793 0.94362 0.0
C1385 C 0.77096 0.68109 0.97606 0.0
H1386 H 0.7515 0.61285 0.98137 0.0
C1387 C 0.79446 0.68971 0.95525 0.0
C1388 C 0.80182 0.67057 0.94224 0.0
H1389 H 0.76493 0.6961 0.98361 0.0
H1390 H 0.8055 0.71097 0.94649 0.0
C1391 C 0.78697 0.64315 0.95374 0.0
C1392 C 0.96633 0.67285 0.9618 0.0
C1393 C 0.99301 0.68912 0.94835 0.0
H1394 H 0.92339 0.65866 0.95338 0.0
C1395 C 0.99737 0.70845 0.92129 0.0
H1396 H 0.96242 0.65781 0.9828 0.0
C1397 C 0.9752 0.70969 0.90561 0.0
C1398 C 0.94814 0.69092 0.91573 0.0
H1399 H 1.01772 0.72149 0.91077 0.0
H1400 H 0.97898 0.72331 0.8828 0.0
C1401 C 0.94397 0.67354 0.94534 0.0
C1402 C 0.39792 0.30946 0.9734 0.0
C1403 C 0.38253 0.32282 0.96607 0.0
H1404 H 0.40678 0.27757 0.95801 0.0
C1405 C 0.36017 0.31018 0.94199 0.0
H1406 H 0.41497 0.31822 -0.00764 0.0
C1407 C 0.35525 0.28653 0.92286 0.0
C1408 C 0.37253 0.27499 0.92744 0.0
H1409 H 0.34764 0.31958 0.936 0.0
H1410 H 0.33946 0.27867 0.90206 0.0
C1411 C 0.39296 0.2858 0.95426 0.0
C1412 C 0.75992 0.06094 0.9345 0.0
C1413 C 0.7438 0.06435 0.96053 0.0
H1414 H 0.79348 0.08085 0.89809 0.0
C1415 C 0.75275 0.09079 0.975 0.0
H1416 H 0.75361 0.04082 0.92304 0.0
C1417 C 0.77542 0.11385 0.96026 0.0
C1418 C 0.78985 0.11063 0.93162 0.0
H1419 H 0.74065 0.094 -0.00492 0.0
H1420 H 0.77981 0.13424 0.96856 0.0
C1421 C 0.78301 0.08383 0.92065 0.0
C1422 C 0.65219 0.90876 0.01968 0.0
C1423 C 0.67067 0.93654 0.01159 0.0
H1424 H 0.6455 0.87275 0.04915 0.0
C1425 C 0.69833 0.94741 0.02159 0.0
H1426 H 0.63077 0.89958 0.01204 0.0
C1427 C 0.70677 0.93176 0.04203 0.0
C1428 C 0.68773 0.90501 0.05324 0.0
H1429 H 0.71323 0.96849 0.01524 0.0
H1430 H 0.72779 0.94139 0.0517 0.0
C1431 C 0.66064 0.89316 0.04048 0.0
C1432 C 0.10486 0.75832 0.02524 0.0
C1433 C 0.11761 0.74397 0.01158 0.0
H1434 H 0.10864 0.79096 0.05942 0.0
C1435 C 0.14599 0.75495 0.01765 0.0
H1436 H 0.08321 0.75082 0.02071 0.0
C1437 C 0.1606 0.77812 0.03976 0.0
C1438 C 0.14713 0.79077 0.05613 0.0
H1439 H 0.15663 0.74469 0.00718 0.0
H1440 H 0.18181 0.7847 0.04638 0.0
C1441 C 0.11948 0.78147 0.04722 0.0
C1442 C 0.3022 0.39874 0.01704 0.0
C1443 C 0.30792 0.37713 0.01159 0.0
H1444 H 0.27667 0.41164 0.0443 0.0
C1445 C 0.28844 0.35036 0.02148 0.0
H1446 H 0.31719 0.41964 0.00994 0.0
C1447 C 0.26482 0.34565 0.03974 0.0
C1448 C 0.26091 0.36782 0.04975 0.0
H1449 H 0.29256 0.33347 0.01775 0.0
H1450 H 0.25149 0.32523 0.05028 0.0
C1451 C 0.27887 0.39415 0.03631 0.0
C1452 C 0.74178 0.68255 0.38981 0.0
C1453 C 0.75107 0.70582 0.36752 0.0
H1454 H 0.75283 0.6605 0.42788 0.0
C1455 C 0.77951 0.72197 0.36163 0.0
H1456 H 0.72011 0.66939 0.39457 0.0
C1457 C 0.79823 0.71662 0.3804 0.0
C1458 C 0.78893 0.69503 0.4054 0.0
H1459 H 0.78748 0.73977 0.34406 0.0
H1460 H 0.81995 0.73084 0.37777 0.0
C1461 C 0.76052 0.67723 0.40855 0.0
C1462 C 0.38411 0.07509 0.39856 0.0
C1463 C 0.36524 0.05937 0.37147 0.0
H1464 H 0.39744 0.10884 0.43545 0.0
C1465 C 0.34843 0.06903 0.35608 0.0
H1466 H 0.39743 0.06827 0.41072 0.0
C1467 C 0.34812 0.09211 0.37067 0.0
C1468 C 0.3652 0.10627 0.4001 0.0
H1469 H 0.33365 0.05728 0.33513 0.0
H1470 H 0.33267 0.09711 0.36142 0.0
C1471 C 0.38443 0.0986 0.41225 0.0
C1472 C 0.97852 0.28739 0.35801 0.0
C1473 C 0.98848 0.31415 0.3719 0.0
H1474 H 0.95119 0.24419 0.36623 0.0
C1475 C 0.97378 0.31838 0.39924 0.0
H1476 H 0.98948 0.28355 0.33687 0.0
C1477 C 0.95131 0.29599 0.41499 0.0
C1478 C 0.94365 0.26889 0.40449 0.0
H1479 H 0.98083 0.33879 0.4102 0.0
H1480 H 0.94193 0.29964 0.43829 0.0
C1481 C 0.95638 0.26483 0.37447 0.0
C1482 C 0.07897 0.46839 0.3079 0.0
C1483 C 0.06084 0.44026 0.31449 0.0
H1484 H 0.08559 0.50485 0.27972 0.0
C1485 C 0.03347 0.42894 0.30283 0.0
H1486 H 0.10013 0.47794 0.31688 0.0
C1487 C 1.02512 0.4446 0.28224 0.0
C1488 C 0.04395 0.47184 0.27264 0.0
H1489 H 1.01879 0.40756 0.30797 0.0
H1490 H 1.00442 0.43474 0.27136 0.0
C1491 C 0.0706 0.48402 0.28706 0.0
C1492 C 0.63453 0.61082 0.30472 0.0
C1493 C 0.62553 0.62851 0.31785 0.0
H1494 H 0.62472 0.57519 0.27284 0.0
C1495 C 0.59766 0.62086 0.31445 0.0
H1496 H 0.65594 0.6164 0.3069 0.0
C1497 C 0.57979 0.59748 0.29419 0.0
C1498 C 0.58964 0.58143 0.27767 0.0
H1499 H 0.5904 0.63447 0.32405 0.0
H1500 H 0.55927 0.59374 0.28824 0.0
C1501 C 0.6166 0.58718 0.28541 0.0
C1502 C 0.43021 0.96794 0.30824 0.0
C1503 C 0.42112 0.98657 0.31793 0.0
H1504 H 0.45861 0.96134 0.27696 0.0
C1505 C 0.43764 1.01452 0.30935 0.0
H1506 H 0.41817 0.94628 0.31471 0.0
C1507 C 0.46113 0.02313 0.28855 0.0
C1508 C 0.46849 1.00398 0.27555 0.0
H1509 H 0.43161 0.02953 0.31689 0.0
H1510 H 0.47218 0.04438 0.27977 0.0
C1511 C 0.45364 0.97657 0.28706 0.0
C1512 C 0.66399 0.04173 0.25462 0.0
C1513 C 0.65962 0.02239 0.28167 0.0
H1514 H 0.64562 0.05659 0.21613 0.0
C1515 C 0.63294 1.00613 0.29513 0.0
H1516 H 0.68435 0.05476 0.2441 0.0
C1517 C 0.61059 1.00683 0.27866 0.0
C1518 C 0.61477 0.02422 0.24906 0.0
H1519 H 0.62903 0.99109 0.31613 0.0
H1520 H 0.59 0.99195 0.28671 0.0
C1521 C 0.64184 0.04298 0.23894 0.0
C1522 C 0.06467 0.64284 0.30673 0.0
C1523 C 0.04928 0.65619 0.29939 0.0
H1524 H 0.07352 0.61094 0.29135 0.0
C1525 C 1.02691 0.64355 0.27533 0.0
H1526 H 0.08173 0.65161 0.32567 0.0
C1527 C 1.02198 0.61989 0.25621 0.0
C1528 C 0.03926 0.60836 0.26079 0.0
H1529 H 1.01438 0.65294 0.26934 0.0
H1530 H 1.00618 0.61202 0.23543 0.0
C1531 C 0.05971 0.61917 0.2876 0.0
C1532 C 0.42655 0.39433 0.26782 0.0
C1533 C 0.41044 0.39775 0.29385 0.0
H1534 H 0.46011 0.41422 0.23142 0.0
C1535 C 0.41939 0.42418 0.30831 0.0
H1536 H 0.42023 0.37421 0.25637 0.0
C1537 C 0.44207 0.44724 0.29358 0.0
C1538 C 0.4565 0.44401 0.26494 0.0
H1539 H 0.4073 0.4274 0.3284 0.0
H1540 H 0.44647 0.46763 0.30188 0.0
C1541 C 0.44965 0.41721 0.25398 0.0
C1542 C 0.36496 0.28082 0.35488 0.0
C1543 C 0.3373 0.26994 0.3449 0.0
H1544 H 0.39443 0.2748 0.38498 0.0
C1545 C 0.31882 0.24217 0.35299 0.0
H1546 H 0.37986 0.3019 0.34852 0.0
C1547 C 0.32727 0.22657 0.37379 0.0
C1548 C 0.35437 0.23843 0.38655 0.0
H1549 H 0.2974 0.23299 0.34537 0.0
H1550 H 0.31214 0.20616 0.38248 0.0
C1551 C 0.37341 0.26517 0.37532 0.0
C1552 C 0.77147 0.09157 0.35859 0.0
C1553 C 0.78421 0.07722 0.34492 0.0
H1554 H 0.77525 0.1242 0.39278 0.0
C1555 C 0.81259 0.0882 0.35098 0.0
H1556 H 0.74981 0.08407 0.35407 0.0
C1557 C 0.8272 0.11137 0.3731 0.0
C1558 C 0.81374 0.12402 0.38947 0.0
H1559 H 0.82324 0.07795 0.34051 0.0
H1560 H 0.84842 0.11796 0.37971 0.0
C1561 C 0.78609 0.11472 0.38057 0.0
C1562 C 0.96894 0.7321 0.35036 0.0
C1563 C 0.97466 0.71049 0.34491 0.0
H1564 H 0.94341 0.74499 0.37763 0.0
C1565 C 0.95519 0.68372 0.35481 0.0
H1566 H 0.98392 0.75299 0.34326 0.0
C1567 C 0.93157 0.67901 0.37308 0.0
C1568 C 0.92765 0.70117 0.38309 0.0
H1569 H 0.95931 0.66683 0.35108 0.0
H1570 H 0.91825 0.65858 0.38362 0.0
C1571 C 0.94561 0.7275 0.36964 0.0
C1572 C 0.44622 0.05539 0.69495 0.0
C1573 C 0.41778 0.03924 0.70083 0.0
H1574 H 0.48666 0.06425 0.71109 0.0
C1575 C 0.40848 1.01596 0.72312 0.0
H1576 H 0.4542 0.07318 0.67738 0.0
C1577 C 0.42722 1.01064 0.74186 0.0
C1578 C 0.45563 0.02844 0.73871 0.0
H1579 H 0.38681 1.00281 0.72788 0.0
H1580 H 0.41953 0.99391 0.76119 0.0
C1581 C 0.46493 0.05003 0.71371 0.0
C1582 C 0.05069 0.40834 0.73194 0.0
C1583 C 1.03183 0.39262 0.70485 0.0
H1584 H 0.06403 0.44208 0.76883 0.0
C1585 C 1.01503 0.4023 0.68944 0.0
H1586 H 0.064 0.4015 0.74411 0.0
C1587 C 1.01473 0.42538 0.70402 0.0
C1588 C 1.03181 0.43953 0.73346 0.0
H1589 H 1.00025 0.39055 0.66848 0.0
H1590 H 0.99929 0.43038 0.69476 0.0
C1591 C 0.05102 0.43185 0.74563 0.0
C1592 C 0.64524 0.62071 0.69136 0.0
C1593 C 0.65521 0.64747 0.70526 0.0
H1594 H 0.61789 0.57751 0.69959 0.0
C1595 C 0.64052 0.65171 0.7326 0.0
H1596 H 0.65619 0.61686 0.67022 0.0
C1597 C 0.61803 0.62932 0.74835 0.0
C1598 C 0.61037 0.60222 0.73784 0.0
H1599 H 0.64757 0.67212 0.74356 0.0
H1600 H 0.60866 0.63298 0.77165 0.0
C1601 C 0.62309 0.59815 0.70783 0.0
C1602 C 0.70019 0.76224 0.63619 0.0
C1603 C 0.72757 0.77357 0.64784 0.0
H1604 H 0.67113 0.76803 0.60473 0.0
C1605 C 0.74569 0.80169 0.64124 0.0
H1606 H 0.68552 0.74086 0.64134 0.0
C1607 C 0.73732 0.81732 0.62039 0.0
C1608 C 0.71066 0.80513 0.60599 0.0
H1609 H 0.76686 0.81125 0.6502 0.0
H1610 H 0.75231 0.83815 0.61303 0.0
C1611 C 0.69183 0.77789 0.6156 0.0
C1612 C 0.30123 0.94425 0.63803 0.0
C1613 C 0.29224 0.96194 0.65116 0.0
H1614 H 0.29142 0.90861 0.60616 0.0
C1615 C 0.26437 0.95429 0.64777 0.0
H1616 H 0.32265 0.94983 0.6402 0.0
C1617 C 0.2465 0.93091 0.62752 0.0
C1618 C 0.25634 0.91486 0.611 0.0
H1619 H 0.25712 0.9679 0.65737 0.0
H1620 H 0.22597 0.92718 0.62157 0.0
C1621 C 0.2833 0.92061 0.61873 0.0
C1622 C 0.10423 0.34779 0.64272 0.0
C1623 C 0.08771 0.31984 0.65129 0.0
H1624 H 0.13876 0.37767 0.61315 0.0
C1625 C 0.0968 0.30121 0.64158 0.0
H1626 H 0.09819 0.3628 0.65027 0.0
C1627 C 0.12023 0.30985 0.6204 0.0
C1628 C 0.13508 0.33727 0.6089 0.0
H1629 H 0.08477 0.27955 0.64804 0.0
H1630 H 0.12521 0.29463 0.61029 0.0
C1631 C 0.12772 0.35641 0.62191 0.0
C1632 C 0.33062 0.37513 0.58796 0.0
C1633 C 0.32625 0.3558 0.61502 0.0
H1634 H 0.31224 0.38999 0.54947 0.0
C1635 C 0.29958 0.33952 0.62847 0.0
H1636 H 0.35097 0.38817 0.57744 0.0
C1637 C 0.27722 0.34022 0.612 0.0
C1638 C 0.28139 0.3576 0.5824 0.0
H1639 H 0.29566 0.32448 0.64947 0.0
H1640 H 0.25663 0.32533 0.62004 0.0
C1641 C 0.30846 0.37637 0.57229 0.0
C1642 C 0.69353 0.97679 0.60868 0.0
C1643 C 0.7159 0.98943 0.63274 0.0
H1644 H 0.67279 0.94526 0.56878 0.0
C1645 C 0.7313 0.97609 0.64006 0.0
H1646 H 0.68099 0.98618 0.60271 0.0
C1647 C 0.72634 0.95242 0.62092 0.0
C1648 C 0.70588 0.9416 0.59413 0.0
H1649 H 0.74837 0.98486 0.65899 0.0
H1650 H 0.74016 0.94419 0.62466 0.0
C1651 C 0.6886 0.95312 0.58956 0.0
C1652 C 0.08615 0.75755 0.64165 0.0
C1653 C 0.07721 0.73112 0.62718 0.0
H1654 H 0.11321 0.801 0.63522 0.0
C1655 C 0.09332 0.72772 0.60114 0.0
H1656 H 0.07406 0.76077 0.66175 0.0
C1657 C 0.11641 0.75061 0.58729 0.0
C1658 C 0.12325 0.7774 0.59827 0.0
H1659 H 0.08701 0.7076 0.58968 0.0
H1660 H 0.12687 0.74762 0.56472 0.0
C1661 C 0.10882 0.78061 0.62691 0.0
C1662 C 0.98558 0.57552 0.68631 0.0
C1663 C 1.00406 0.6033 0.67824 0.0
H1664 H 0.97889 0.53951 0.71578 0.0
C1665 C 1.03172 0.61418 0.68825 0.0
H1666 H 0.96416 0.56635 0.67866 0.0
C1667 C 0.04016 0.59853 0.7087 0.0
C1668 C 1.02111 0.57177 0.7199 0.0
H1669 H 0.04663 0.63526 0.6819 0.0
H1670 H 0.06117 0.60815 0.71837 0.0
C1671 C 0.99403 0.55992 0.70711 0.0
C1672 C 0.47924 0.4216 0.6843 0.0
C1673 C 0.45086 0.41063 0.67825 0.0
H1674 H 0.51507 0.45135 0.71303 0.0
C1675 C 0.43811 0.42497 0.69195 0.0
H1676 H 0.48988 0.41135 0.67381 0.0
C1677 C 0.45274 0.44811 0.71394 0.0
C1678 C 0.48039 0.45741 0.72283 0.0
H1679 H 0.41646 0.41748 0.68744 0.0
H1680 H 0.4419 0.4576 0.72617 0.0
C1681 C 0.49385 0.44476 0.70643 0.0
C1682 C 0.62182 1.01696 0.68815 0.0
C1683 C 0.64129 0.04374 0.67826 0.0
H1684 H 0.58488 0.99182 0.71696 0.0
C1685 C 0.63556 0.06534 0.68372 0.0
H1686 H 0.62594 1.00007 0.68441 0.0
C1687 C 0.61223 0.06074 0.703 0.0
C1688 C 0.59428 0.03441 0.71644 0.0
H1689 H 0.65055 0.08624 0.67662 0.0
H1690 H 0.61003 0.07823 0.711 0.0
C1691 C 0.59819 1.01224 0.70642 0.0
loop_
_geom_bond_atom_site_label_1
_geom_bond_atom_site_label_2
_geom_bond_distance
_geom_bond_site_symmetry_2
_ccdc_geom_bond_type
Mn0 O5 2.095 1_655 S
Mn0 O15 2.162 . S
Mn0 O16 2.297 1_554 S
Mn0 O24 2.385 1_554 S
Mn0 O25 2.209 1_654 S
Mn0 O26 2.094 . S
Mn1 O6 2.121 . S
Mn1 N8 2.257 1_554 S
Mn1 N17 2.282 1_554 S
Mn1 O25 2.215 1_554 S
Mn1 O27 2.117 . S
C2 O24 1.234 1_455 S
C2 O25 1.283 . S
C3 O15 1.281 1_556 S
C3 O16 1.236 . S
C4 O26 1.231 1_455 S
C4 O27 1.288 . S
O5 Mn0 2.095 1_455 S
O5 C14 1.250 . S
O6 Mn1 2.121 . S
O6 C14 1.258 . S
C7 N8 1.326 . S
C7 C11 1.460 . S
C7 H13 0.929 . S
N8 Mn1 2.257 1_556 S
N8 C7 1.326 . S
N8 C12 1.362 . S
C9 C10 1.258 . S
C9 C12 1.431 . S
C9 C29 1.449 . S
C10 C9 1.258 . S
C10 C11 1.477 . S
C10 H30 0.931 . S
C11 C7 1.460 . S
C11 C10 1.477 . S
C11 H31 0.930 . S
C12 N8 1.362 . S
C12 C9 1.431 . S
C12 C22 1.476 . S
H13 C7 0.929 . S
C14 O5 1.250 . S
C14 O6 1.258 . S
O15 Mn0 2.162 . S
O15 C3 1.281 1_554 S
O16 Mn0 2.297 1_556 S
O16 C3 1.236 . S
N17 Mn1 2.282 1_556 S
N17 C18 1.328 1_556 S
N17 C22 1.318 . S
C18 N17 1.328 1_554 S
C18 C19 1.457 1_554 S
C18 H23 0.929 . S
C19 C18 1.457 1_556 S
C19 C20 1.291 . S
C19 H32 0.931 . S
C20 C19 1.291 . S
C20 C21 1.373 . S
C20 H33 0.929 . S
C21 C20 1.373 . S
C21 C22 1.396 . S
C21 C28 1.403 . S
C22 C12 1.476 . S
C22 N17 1.318 . S
C22 C21 1.396 . S
H23 C18 0.929 . S
O24 Mn0 2.385 1_556 S
O24 C2 1.234 1_655 S
O25 Mn0 2.209 1_456 S
O25 Mn1 2.215 1_556 S
O25 C2 1.283 . S
O26 Mn0 2.094 . S
O26 C4 1.231 1_655 S
O27 Mn1 2.117 . S
O27 C4 1.288 . S
C28 C21 1.403 . S
C28 C29 1.399 . S
C28 H34 0.929 . S
C29 C9 1.449 . S
C29 C28 1.399 . S
C29 H35 0.930 . S
H30 C10 0.931 . S
H31 C11 0.930 . S
H32 C19 0.931 . S
H33 C20 0.929 . S
H34 C28 0.929 . S
H35 C29 0.930 . S
Mn36 O41 2.095 1_554 S
Mn36 O51 2.162 . S
Mn36 O52 2.297 . S
Mn36 O60 2.385 . S
Mn36 O61 2.209 . S
Mn36 O62 2.094 1_554 S
Mn37 O42 2.121 . S
Mn37 N44 2.257 1_556 S
Mn37 N53 2.282 1_556 S
Mn37 O61 2.215 1_556 S
Mn37 O63 2.117 . S
C38 O60 1.234 . S
C38 O61 1.283 . S
C39 O51 1.281 . S
C39 O52 1.236 . S
C40 O62 1.240 . S
C40 O63 1.264 . S
O41 Mn36 2.095 1_556 S
O41 C50 1.250 . S
O42 Mn37 2.121 . S
O42 C50 1.258 . S
C43 N44 1.326 . S
C43 C47 1.460 . S
C43 H49 0.929 . S
N44 Mn37 2.257 1_554 S
N44 C43 1.326 . S
N44 C48 1.362 . S
C45 C46 1.258 . S
C45 C48 1.431 . S
C45 C65 1.449 . S
C46 C45 1.258 . S
C46 C47 1.477 . S
C46 H66 0.931 . S
C47 C43 1.460 . S
C47 C46 1.477 . S
C47 H67 0.930 . S
C48 N44 1.362 . S
C48 C45 1.431 . S
C48 C58 1.476 . S
H49 C43 0.929 . S
C50 O41 1.250 . S
C50 O42 1.258 . S
O51 Mn36 2.162 . S
O51 C39 1.281 . S
O52 Mn36 2.297 . S
O52 C39 1.236 . S
N53 Mn37 2.282 1_554 S
N53 C54 1.328 . S
N53 C58 1.318 . S
C54 N53 1.328 . S
C54 C55 1.457 . S
C54 H59 0.929 1_554 S
C55 C54 1.457 . S
C55 C56 1.291 . S
C55 H68 0.931 . S
C56 C55 1.291 . S
C56 C57 1.373 . S
C56 H69 0.929 . S
C57 C56 1.373 . S
C57 C58 1.396 . S
C57 C64 1.403 . S
C58 C48 1.476 . S
C58 N53 1.318 . S
C58 C57 1.396 . S
H59 C54 0.929 1_556 S
O60 Mn36 2.385 . S
O60 C38 1.234 . S
O61 Mn36 2.209 . S
O61 Mn37 2.215 1_554 S
O61 C38 1.283 . S
O62 Mn36 2.094 1_556 S
O62 C40 1.240 . S
O63 Mn37 2.117 . S
O63 C40 1.264 . S
C64 C57 1.403 . S
C64 C65 1.399 . S
C64 H70 0.929 . S
C65 C45 1.449 . S
C65 C64 1.399 . S
C65 H71 0.930 . S
H66 C46 0.931 . S
H67 C47 0.930 . S
H68 C55 0.931 . S
H69 C56 0.929 . S
H70 C64 0.929 . S
H71 C65 0.930 . S
Mn72 O77 2.095 1_564 S
Mn72 O87 2.162 . S
Mn72 O88 2.297 . S
Mn72 O96 2.385 . S
Mn72 O97 2.209 1_565 S
Mn72 O98 2.094 1_554 S
Mn73 O78 2.121 1_554 S
Mn73 N80 2.257 . S
Mn73 N89 2.282 . S
Mn73 O97 2.215 . S
Mn73 O99 2.117 1_554 S
C74 O96 1.202 1_545 S
C74 O97 1.316 . S
C75 O87 1.281 . S
C75 O88 1.236 . S
C76 O98 1.254 . S
C76 O99 1.234 1_565 S
O77 Mn72 2.095 1_546 S
O77 C86 1.250 . S
O78 Mn73 2.121 1_556 S
O78 C86 1.258 . S
C79 N80 1.326 . S
C79 C83 1.460 . S
C79 H85 0.929 . S
N80 Mn73 2.257 . S
N80 C79 1.326 . S
N80 C84 1.362 . S
C81 C82 1.258 . S
C81 C84 1.431 . S
C81 C101 1.449 . S
C82 C81 1.258 . S
C82 C83 1.477 . S
C82 H102 0.931 . S
C83 C79 1.460 . S
C83 C82 1.477 . S
C83 H103 0.930 . S
C84 N80 1.362 . S
C84 C81 1.431 . S
C84 C94 1.476 . S
H85 C79 0.929 . S
C86 O77 1.250 . S
C86 O78 1.258 . S
O87 Mn72 2.162 . S
O87 C75 1.281 . S
O88 Mn72 2.297 . S
O88 C75 1.236 . S
N89 Mn73 2.282 . S
N89 C90 1.328 . S
N89 C94 1.318 . S
C90 N89 1.328 . S
C90 C91 1.457 . S
C90 H95 0.928 . S
C91 C90 1.457 . S
C91 C92 1.291 . S
C91 H104 0.931 . S
C92 C91 1.291 . S
C92 C93 1.373 . S
C92 H105 0.929 . S
C93 C92 1.373 . S
C93 C94 1.396 . S
C93 C100 1.403 . S
C94 C84 1.476 . S
C94 N89 1.318 . S
C94 C93 1.396 . S
H95 C90 0.928 . S
O96 Mn72 2.385 . S
O96 C74 1.202 1_565 S
O97 Mn72 2.209 1_545 S
O97 Mn73 2.215 . S
O97 C74 1.316 . S
O98 Mn72 2.094 1_556 S
O98 C76 1.254 . S
O99 Mn73 2.117 1_556 S
O99 C76 1.234 1_545 S
C100 C93 1.403 . S
C100 C101 1.399 . S
C100 H106 0.929 . S
C101 C81 1.449 . S
C101 C100 1.399 . S
C101 H107 0.930 . S
H102 C82 0.931 . S
H103 C83 0.930 . S
H104 C91 0.931 . S
H105 C92 0.929 . S
H106 C100 0.929 . S
H107 C101 0.930 . S
Mn108 O113 2.095 1_655 S
Mn108 O123 2.162 . S
Mn108 O124 2.297 1_554 S
Mn108 O132 2.385 1_554 S
Mn108 O133 2.209 1_654 S
Mn108 O134 2.094 . S
Mn109 O114 2.121 . S
Mn109 N116 2.257 1_554 S
Mn109 N125 2.282 1_554 S
Mn109 O133 2.215 1_554 S
Mn109 O135 2.117 . S
C110 O132 1.234 1_455 S
C110 O133 1.283 . S
C111 O123 1.281 1_556 S
C111 O124 1.236 . S
C112 O134 1.233 1_455 S
C112 O135 1.270 . S
O113 Mn108 2.095 1_455 S
O113 C122 1.250 . S
O114 Mn109 2.121 . S
O114 C122 1.258 . S
C115 N116 1.326 . S
C115 C119 1.460 . S
C115 H121 0.929 . S
N116 Mn109 2.257 1_556 S
N116 C115 1.326 . S
N116 C120 1.362 . S
C117 C118 1.258 . S
C117 C120 1.431 . S
C117 C137 1.449 . S
C118 C117 1.258 . S
C118 C119 1.477 . S
C118 H138 0.931 . S
C119 C115 1.460 . S
C119 C118 1.477 . S
C119 H139 0.930 . S
C120 N116 1.362 . S
C120 C117 1.431 . S
C120 C130 1.476 . S
H121 C115 0.929 . S
C122 O113 1.250 . S
C122 O114 1.258 . S
O123 Mn108 2.162 . S
O123 C111 1.281 1_554 S
O124 Mn108 2.297 1_556 S
O124 C111 1.236 . S
N125 Mn109 2.282 1_556 S
N125 C126 1.328 1_556 S
N125 C130 1.318 . S
C126 N125 1.328 1_554 S
C126 C127 1.457 1_554 S
C126 H131 0.929 . S
C127 C126 1.457 1_556 S
C127 C128 1.291 . S
C127 H140 0.931 . S
C128 C127 1.291 . S
C128 C129 1.373 . S
C128 H141 0.929 . S
C129 C128 1.373 . S
C129 C130 1.396 . S
C129 C136 1.403 . S
C130 C120 1.476 . S
C130 N125 1.318 . S
C130 C129 1.396 . S
H131 C126 0.929 . S
O132 Mn108 2.385 1_556 S
O132 C110 1.234 1_655 S
O133 Mn108 2.209 1_456 S
O133 Mn109 2.215 1_556 S
O133 C110 1.283 . S
O134 Mn108 2.094 . S
O134 C112 1.233 1_655 S
O135 Mn109 2.117 . S
O135 C112 1.270 . S
C136 C129 1.403 . S
C136 C137 1.399 . S
C136 H142 0.929 . S
C137 C117 1.449 . S
C137 C136 1.399 . S
C137 H143 0.930 . S
H138 C118 0.931 . S
H139 C119 0.930 . S
H140 C127 0.931 . S
H141 C128 0.929 . S
H142 C136 0.929 . S
H143 C137 0.930 . S
Mn144 O149 2.095 1_554 S
Mn144 O159 2.162 . S
Mn144 O160 2.297 . S
Mn144 O168 2.385 . S
Mn144 O169 2.209 . S
Mn144 O170 2.094 1_554 S
Mn145 O150 2.121 . S
Mn145 N152 2.257 1_556 S
Mn145 N161 2.282 1_556 S
Mn145 O169 2.215 1_556 S
Mn145 O171 2.117 . S
C146 O168 1.234 . S
C146 O169 1.283 . S
C147 O159 1.281 . S
C147 O160 1.236 . S
C148 O170 1.240 . S
C148 O171 1.264 . S
O149 Mn144 2.095 1_556 S
O149 C158 1.250 . S
O150 Mn145 2.121 . S
O150 C158 1.258 . S
C151 N152 1.326 . S
C151 C155 1.460 . S
C151 H157 0.929 . S
N152 Mn145 2.257 1_554 S
N152 C151 1.326 . S
N152 C156 1.362 . S
C153 C154 1.258 . S
C153 C156 1.431 . S
C153 C173 1.449 . S
C154 C153 1.258 . S
C154 C155 1.477 . S
C154 H174 0.931 . S
C155 C151 1.460 . S
C155 C154 1.477 . S
C155 H175 0.930 . S
C156 N152 1.362 . S
C156 C153 1.431 . S
C156 C166 1.476 . S
H157 C151 0.929 . S
C158 O149 1.250 . S
C158 O150 1.258 . S
O159 Mn144 2.162 . S
O159 C147 1.281 . S
O160 Mn144 2.297 . S
O160 C147 1.236 . S
N161 Mn145 2.282 1_554 S
N161 C162 1.328 . S
N161 C166 1.318 . S
C162 N161 1.328 . S
C162 C163 1.457 . S
C162 H167 0.929 1_554 S
C163 C162 1.457 . S
C163 C164 1.291 . S
C163 H176 0.931 . S
C164 C163 1.291 . S
C164 C165 1.373 . S
C164 H177 0.929 . S
C165 C164 1.373 . S
C165 C166 1.396 . S
C165 C172 1.403 . S
C166 C156 1.476 . S
C166 N161 1.318 . S
C166 C165 1.396 . S
H167 C162 0.929 1_556 S
O168 Mn144 2.385 . S
O168 C146 1.234 . S
O169 Mn144 2.209 . S
O169 Mn145 2.215 1_554 S
O169 C146 1.283 . S
O170 Mn144 2.094 1_556 S
O170 C148 1.240 . S
O171 Mn145 2.117 . S
O171 C148 1.264 . S
C172 C165 1.403 . S
C172 C173 1.399 . S
C172 H178 0.929 . S
C173 C153 1.449 . S
C173 C172 1.399 . S
C173 H179 0.930 . S
H174 C154 0.931 . S
H175 C155 0.930 . S
H176 C163 0.931 . S
H177 C164 0.929 . S
H178 C172 0.929 . S
H179 C173 0.930 . S
Mn180 O185 2.095 1_545 S
Mn180 O195 2.162 . S
Mn180 O196 2.297 1_554 S
Mn180 O204 2.385 1_554 S
Mn180 O205 2.209 1_544 S
Mn180 O206 2.094 . S
Mn181 O186 2.121 . S
Mn181 N188 2.257 1_554 S
Mn181 N197 2.282 1_554 S
Mn181 O205 2.215 1_554 S
Mn181 O207 2.117 . S
C182 O204 1.230 1_565 S
C182 O205 1.287 . S
C183 O195 1.281 1_556 S
C183 O196 1.236 . S
C184 O206 1.240 . S
C184 O207 1.264 1_545 S
O185 Mn180 2.095 1_565 S
O185 C194 1.250 . S
O186 Mn181 2.121 . S
O186 C194 1.258 . S
C187 N188 1.326 . S
C187 C191 1.460 . S
C187 H193 0.929 . S
N188 Mn181 2.257 1_556 S
N188 C187 1.326 . S
N188 C192 1.362 . S
C189 C190 1.258 . S
C189 C192 1.431 . S
C189 C209 1.449 . S
C190 C189 1.258 . S
C190 C191 1.477 . S
C190 H210 0.931 . S
C191 C187 1.460 . S
C191 C190 1.477 . S
C191 H211 0.930 . S
C192 N188 1.362 . S
C192 C189 1.431 . S
C192 C202 1.476 . S
H193 C187 0.929 . S
C194 O185 1.250 . S
C194 O186 1.258 . S
O195 Mn180 2.162 . S
O195 C183 1.281 1_554 S
O196 Mn180 2.297 1_556 S
O196 C183 1.236 . S
N197 Mn181 2.282 1_556 S
N197 C198 1.328 1_556 S
N197 C202 1.318 . S
C198 N197 1.328 1_554 S
C198 C199 1.457 1_554 S
C198 H203 0.929 . S
C199 C198 1.457 1_556 S
C199 C200 1.291 . S
C199 H212 0.931 . S
C200 C199 1.291 . S
C200 C201 1.373 . S
C200 H213 0.929 . S
C201 C200 1.373 . S
C201 C202 1.396 . S
C201 C208 1.403 . S
C202 C192 1.476 . S
C202 N197 1.318 . S
C202 C201 1.396 . S
H203 C198 0.929 . S
O204 Mn180 2.385 1_556 S
O204 C182 1.230 1_545 S
O205 Mn180 2.209 1_566 S
O205 Mn181 2.215 1_556 S
O205 C182 1.287 . S
O206 Mn180 2.094 . S
O206 C184 1.240 . S
O207 Mn181 2.117 . S
O207 C184 1.264 1_565 S
C208 C201 1.403 . S
C208 C209 1.399 . S
C208 H214 0.929 . S
C209 C189 1.449 . S
C209 C208 1.399 . S
C209 H215 0.930 . S
H210 C190 0.931 . S
H211 C191 0.930 . S
H212 C199 0.931 . S
H213 C200 0.929 . S
H214 C208 0.929 . S
H215 C209 0.930 . S
Mn216 O221 2.095 . S
Mn216 O231 2.162 . S
Mn216 O232 2.297 . S
Mn216 O240 2.385 . S
Mn216 O241 2.209 . S
Mn216 O242 2.094 . S
Mn217 O222 2.121 . S
Mn217 N224 2.257 . S
Mn217 N233 2.282 . S
Mn217 O241 2.215 . S
Mn217 O243 2.117 . S
C218 O240 1.234 . S
C218 O241 1.283 . S
C219 O231 1.281 . S
C219 O232 1.236 . S
C220 O242 1.240 . S
C220 O243 1.264 . S
O221 Mn216 2.095 . S
O221 C230 1.250 . S
O222 Mn217 2.121 . S
O222 C230 1.258 . S
C223 N224 1.326 . S
C223 C227 1.460 . S
C223 H229 0.929 . S
N224 Mn217 2.257 . S
N224 C223 1.326 . S
N224 C228 1.362 . S
C225 C226 1.258 . S
C225 C228 1.431 . S
C225 C245 1.449 . S
C226 C225 1.258 . S
C226 C227 1.477 . S
C226 H246 0.931 . S
C227 C223 1.460 . S
C227 C226 1.477 . S
C227 H247 0.930 . S
C228 N224 1.362 . S
C228 C225 1.431 . S
C228 C238 1.476 . S
H229 C223 0.929 . S
C230 O221 1.250 . S
C230 O222 1.258 . S
O231 Mn216 2.162 . S
O231 C219 1.281 . S
O232 Mn216 2.297 . S
O232 C219 1.236 . S
N233 Mn217 2.282 . S
N233 C234 1.328 . S
N233 C238 1.318 . S
C234 N233 1.328 . S
C234 C235 1.457 . S
C234 H239 0.929 . S
C235 C234 1.457 . S
C235 C236 1.291 . S
C235 H248 0.931 . S
C236 C235 1.291 . S
C236 C237 1.373 . S
C236 H249 0.929 . S
C237 C236 1.373 . S
C237 C238 1.396 . S
C237 C244 1.403 . S
C238 C228 1.476 . S
C238 N233 1.318 . S
C238 C237 1.396 . S
H239 C234 0.929 . S
O240 Mn216 2.385 . S
O240 C218 1.234 . S
O241 Mn216 2.209 . S
O241 Mn217 2.215 . S
O241 C218 1.283 . S
O242 Mn216 2.094 . S
O242 C220 1.240 . S
O243 Mn217 2.117 . S
O243 C220 1.264 . S
C244 C237 1.403 . S
C244 C245 1.399 . S
C244 H250 0.929 . S
C245 C225 1.449 . S
C245 C244 1.399 . S
C245 H251 0.930 . S
H246 C226 0.931 . S
H247 C227 0.930 . S
H248 C235 0.931 . S
H249 C236 0.929 . S
H250 C244 0.929 . S
H251 C245 0.930 . S
Mn252 O257 2.095 . S
Mn252 O267 2.162 1_565 S
Mn252 O268 2.297 1_565 S
Mn252 O276 2.385 . S
Mn252 O277 2.209 . S
Mn252 O278 2.094 . S
Mn253 O258 2.121 . S
Mn253 N260 2.257 . S
Mn253 N269 2.282 . S
Mn253 O277 2.215 . S
Mn253 O279 2.117 . S
C254 O276 1.234 . S
C254 O277 1.283 . S
C255 O267 1.281 . S
C255 O268 1.236 . S
C256 O278 1.240 . S
C256 O279 1.264 . S
O257 Mn252 2.095 . S
O257 C266 1.250 . S
O258 Mn253 2.121 . S
O258 C266 1.258 . S
C259 N260 1.326 . S
C259 C263 1.460 . S
C259 H265 0.929 . S
N260 Mn253 2.257 . S
N260 C259 1.326 . S
N260 C264 1.362 . S
C261 C262 1.258 . S
C261 C264 1.431 . S
C261 C281 1.449 . S
C262 C261 1.258 . S
C262 C263 1.477 . S
C262 H282 0.931 . S
C263 C259 1.460 . S
C263 C262 1.477 . S
C263 H283 0.930 . S
C264 N260 1.362 . S
C264 C261 1.431 . S
C264 C274 1.476 . S
H265 C259 0.929 . S
C266 O257 1.250 . S
C266 O258 1.258 . S
O267 Mn252 2.162 1_545 S
O267 C255 1.281 . S
O268 Mn252 2.297 1_545 S
O268 C255 1.236 . S
N269 Mn253 2.282 . S
N269 C270 1.328 . S
N269 C274 1.318 . S
C270 N269 1.328 . S
C270 C271 1.457 . S
C270 H275 0.929 . S
C271 C270 1.457 . S
C271 C272 1.291 . S
C271 H284 0.931 . S
C272 C271 1.291 . S
C272 C273 1.373 . S
C272 H285 0.929 . S
C273 C272 1.373 . S
C273 C274 1.396 . S
C273 C280 1.403 . S
C274 C264 1.476 . S
C274 N269 1.318 . S
C274 C273 1.396 . S
H275 C270 0.929 . S
O276 Mn252 2.385 . S
O276 C254 1.234 . S
O277 Mn252 2.209 . S
O277 Mn253 2.215 . S
O277 C254 1.283 . S
O278 Mn252 2.094 . S
O278 C256 1.240 . S
O279 Mn253 2.117 . S
O279 C256 1.264 . S
C280 C273 1.403 . S
C280 C281 1.399 . S
C280 H286 0.929 . S
C281 C261 1.449 . S
C281 C280 1.399 . S
C281 H287 0.930 . S
H282 C262 0.931 . S
H283 C263 0.930 . S
H284 C271 0.931 . S
H285 C272 0.929 . S
H286 C280 0.929 . S
H287 C281 0.930 . S
Mn288 O293 2.095 . S
Mn288 O303 2.162 1_455 S
Mn288 O304 2.297 1_455 S
Mn288 O312 2.385 . S
Mn288 O313 2.209 . S
Mn288 O314 2.094 . S
Mn289 O294 2.121 . S
Mn289 N296 2.257 . S
Mn289 N305 2.282 . S
Mn289 O313 2.215 . S
Mn289 O315 2.117 . S
C290 O312 1.234 . S
C290 O313 1.283 . S
C291 O303 1.281 . S
C291 O304 1.236 . S
C292 O314 1.240 . S
C292 O315 1.264 . S
O293 Mn288 2.095 . S
O293 C302 1.250 . S
O294 Mn289 2.121 . S
O294 C302 1.258 . S
C295 N296 1.326 . S
C295 C299 1.460 . S
C295 H301 0.929 . S
N296 Mn289 2.257 . S
N296 C295 1.326 . S
N296 C300 1.362 . S
C297 C298 1.258 . S
C297 C300 1.431 . S
C297 C317 1.449 . S
C298 C297 1.258 . S
C298 C299 1.477 . S
C298 H318 0.931 . S
C299 C295 1.460 . S
C299 C298 1.477 . S
C299 H319 0.930 . S
C300 N296 1.362 . S
C300 C297 1.431 . S
C300 C310 1.476 . S
H301 C295 0.929 . S
C302 O293 1.250 . S
C302 O294 1.258 . S
O303 Mn288 2.162 1_655 S
O303 C291 1.281 . S
O304 Mn288 2.297 1_655 S
O304 C291 1.236 . S
N305 Mn289 2.282 . S
N305 C306 1.328 . S
N305 C310 1.318 . S
C306 N305 1.328 . S
C306 C307 1.457 . S
C306 H311 0.929 . S
C307 C306 1.457 . S
C307 C308 1.291 . S
C307 H320 0.931 . S
C308 C307 1.291 . S
C308 C309 1.373 . S
C308 H321 0.929 . S
C309 C308 1.373 . S
C309 C310 1.396 . S
C309 C316 1.403 . S
C310 C300 1.476 . S
C310 N305 1.318 . S
C310 C309 1.396 . S
H311 C306 0.929 . S
O312 Mn288 2.385 . S
O312 C290 1.234 . S
O313 Mn288 2.209 . S
O313 Mn289 2.215 . S
O313 C290 1.283 . S
O314 Mn288 2.094 . S
O314 C292 1.240 . S
O315 Mn289 2.117 . S
O315 C292 1.264 . S
C316 C309 1.403 . S
C316 C317 1.399 . S
C316 H322 0.929 . S
C317 C297 1.449 . S
C317 C316 1.399 . S
C317 H323 0.930 . S
H318 C298 0.931 . S
H319 C299 0.930 . S
H320 C307 0.931 . S
H321 C308 0.929 . S
H322 C316 0.929 . S
H323 C317 0.930 . S
Mn324 O329 2.095 1_565 S
Mn324 O339 2.162 . S
Mn324 O340 2.302 . S
Mn324 O348 2.385 . S
Mn324 O349 2.209 . S
Mn324 O350 2.094 . S
Mn325 O330 2.121 1_565 S
Mn325 N332 2.257 . S
Mn325 N341 2.282 . S
Mn325 O349 2.215 . S
Mn325 O351 2.117 . S
C326 O348 1.234 . S
C326 O349 1.283 . S
C327 O339 1.281 . S
C327 O340 1.235 . S
C328 O350 1.240 . S
C328 O351 1.264 . S
O329 Mn324 2.095 1_545 S
O329 C338 1.250 . S
O330 Mn325 2.121 1_545 S
O330 C338 1.258 . S
C331 N332 1.326 1_545 S
C331 C335 1.460 . S
C331 H337 0.929 . S
N332 Mn325 2.257 . S
N332 C331 1.326 1_565 S
N332 C336 1.362 . S
C333 C334 1.258 1_565 S
C333 C336 1.431 . S
C333 C353 1.449 . S
C334 C333 1.258 1_545 S
C334 C335 1.477 . S
C334 H354 0.931 . S
C335 C331 1.460 . S
C335 C334 1.477 . S
C335 H355 0.930 . S
C336 N332 1.362 . S
C336 C333 1.431 . S
C336 C346 1.476 . S
H337 C331 0.929 . S
C338 O329 1.250 . S
C338 O330 1.258 . S
O339 Mn324 2.162 . S
O339 C327 1.281 . S
O340 Mn324 2.302 . S
O340 C327 1.235 . S
N341 Mn325 2.282 . S
N341 C342 1.328 . S
N341 C346 1.318 . S
C342 N341 1.328 . S
C342 C343 1.457 . S
C342 H347 0.929 . S
C343 C342 1.457 . S
C343 C344 1.291 . S
C343 H356 0.931 . S
C344 C343 1.291 . S
C344 C345 1.373 . S
C344 H357 0.929 . S
C345 C344 1.373 . S
C345 C346 1.396 . S
C345 C352 1.403 . S
C346 C336 1.476 . S
C346 N341 1.318 . S
C346 C345 1.396 . S
H347 C342 0.929 . S
O348 Mn324 2.385 . S
O348 C326 1.234 . S
O349 Mn324 2.209 . S
O349 Mn325 2.215 . S
O349 C326 1.283 . S
O350 Mn324 2.094 . S
O350 C328 1.240 . S
O351 Mn325 2.117 . S
O351 C328 1.264 . S
C352 C345 1.403 . S
C352 C353 1.399 . S
C352 H358 0.929 . S
C353 C333 1.449 . S
C353 C352 1.399 . S
C353 H359 0.930 . S
H354 C334 0.931 . S
H355 C335 0.930 . S
H356 C343 0.931 . S
H357 C344 0.929 . S
H358 C352 0.929 . S
H359 C353 0.930 . S
Mn360 O365 2.095 . S
Mn360 O375 2.162 1_455 S
Mn360 O376 2.297 1_455 S
Mn360 O384 2.385 . S
Mn360 O385 2.209 . S
Mn360 O386 2.094 . S
Mn361 O366 2.121 . S
Mn361 N368 2.257 . S
Mn361 N377 2.282 . S
Mn361 O385 2.215 . S
Mn361 O387 2.117 . S
C362 O384 1.234 . S
C362 O385 1.283 . S
C363 O375 1.281 . S
C363 O376 1.236 . S
C364 O386 1.240 . S
C364 O387 1.264 . S
O365 Mn360 2.095 . S
O365 C374 1.250 . S
O366 Mn361 2.121 . S
O366 C374 1.258 . S
C367 N368 1.326 . S
C367 C371 1.460 . S
C367 H373 0.929 . S
N368 Mn361 2.257 . S
N368 C367 1.326 . S
N368 C372 1.362 . S
C369 C370 1.258 . S
C369 C372 1.431 . S
C369 C389 1.449 . S
C370 C369 1.258 . S
C370 C371 1.477 . S
C370 H390 0.931 . S
C371 C367 1.460 . S
C371 C370 1.477 . S
C371 H391 0.930 . S
C372 N368 1.362 . S
C372 C369 1.431 . S
C372 C382 1.476 . S
H373 C367 0.929 . S
C374 O365 1.250 . S
C374 O366 1.258 . S
O375 Mn360 2.162 1_655 S
O375 C363 1.281 . S
O376 Mn360 2.297 1_655 S
O376 C363 1.236 . S
N377 Mn361 2.282 . S
N377 C378 1.328 . S
N377 C382 1.318 . S
C378 N377 1.328 . S
C378 C379 1.457 . S
C378 H383 0.929 . S
C379 C378 1.457 . S
C379 C380 1.291 . S
C379 H392 0.931 . S
C380 C379 1.291 . S
C380 C381 1.373 . S
C380 H393 0.929 . S
C381 C380 1.373 . S
C381 C382 1.396 . S
C381 C388 1.403 . S
C382 C372 1.476 . S
C382 N377 1.318 . S
C382 C381 1.396 . S
H383 C378 0.929 . S
O384 Mn360 2.385 . S
O384 C362 1.234 . S
O385 Mn360 2.209 . S
O385 Mn361 2.215 . S
O385 C362 1.283 . S
O386 Mn360 2.094 . S
O386 C364 1.240 . S
O387 Mn361 2.117 . S
O387 C364 1.264 . S
C388 C381 1.403 . S
C388 C389 1.399 . S
C388 H394 0.929 . S
C389 C369 1.449 . S
C389 C388 1.399 . S
C389 H395 0.930 . S
H390 C370 0.931 . S
H391 C371 0.930 . S
H392 C379 0.931 . S
H393 C380 0.929 . S
H394 C388 0.929 . S
H395 C389 0.930 . S
Mn396 O401 2.095 . S
Mn396 O411 2.162 . S
Mn396 O412 2.297 . S
Mn396 O420 2.385 . S
Mn396 O421 2.209 . S
Mn396 O422 2.094 . S
Mn397 O402 2.121 . S
Mn397 N404 2.257 . S
Mn397 N413 2.282 . S
Mn397 O421 2.215 . S
Mn397 O423 2.117 . S
C398 O420 1.234 . S
C398 O421 1.283 . S
C399 O411 1.281 . S
C399 O412 1.236 . S
C400 O422 1.240 . S
C400 O423 1.264 . S
O401 Mn396 2.095 . S
O401 C410 1.250 . S
O402 Mn397 2.121 . S
O402 C410 1.258 . S
C403 N404 1.326 . S
C403 C407 1.460 . S
C403 H409 0.929 . S
N404 Mn397 2.257 . S
N404 C403 1.326 . S
N404 C408 1.362 . S
C405 C406 1.258 . S
C405 C408 1.431 . S
C405 C425 1.449 . S
C406 C405 1.258 . S
C406 C407 1.477 . S
C406 H426 0.931 . S
C407 C403 1.460 . S
C407 C406 1.477 . S
C407 H427 0.930 . S
C408 N404 1.362 . S
C408 C405 1.431 . S
C408 C418 1.476 . S
H409 C403 0.929 . S
C410 O401 1.250 . S
C410 O402 1.258 . S
O411 Mn396 2.162 . S
O411 C399 1.281 . S
O412 Mn396 2.297 . S
O412 C399 1.236 . S
N413 Mn397 2.282 . S
N413 C414 1.328 . S
N413 C418 1.318 . S
C414 N413 1.328 . S
C414 C415 1.457 . S
C414 H419 0.929 . S
C415 C414 1.457 . S
C415 C416 1.291 . S
C415 H428 0.931 . S
C416 C415 1.291 . S
C416 C417 1.373 . S
C416 H429 0.929 . S
C417 C416 1.373 . S
C417 C418 1.396 . S
C417 C424 1.403 . S
C418 C408 1.476 . S
C418 N413 1.318 . S
C418 C417 1.396 . S
H419 C414 0.929 . S
O420 Mn396 2.385 . S
O420 C398 1.234 . S
O421 Mn396 2.209 . S
O421 Mn397 2.215 . S
O421 C398 1.283 . S
O422 Mn396 2.094 . S
O422 C400 1.240 . S
O423 Mn397 2.117 . S
O423 C400 1.264 . S
C424 C417 1.403 . S
C424 C425 1.399 . S
C424 H430 0.929 . S
C425 C405 1.449 . S
C425 C424 1.399 . S
C425 H431 0.930 . S
H426 C406 0.931 . S
H427 C407 0.930 . S
H428 C415 0.931 . S
H429 C416 0.929 . S
H430 C424 0.929 . S
H431 C425 0.930 . S
Mn432 O437 2.095 . S
Mn432 O447 2.162 1_545 S
Mn432 O448 2.297 1_545 S
Mn432 O456 2.385 . S
Mn432 O457 2.209 . S
Mn432 O458 2.094 . S
Mn433 O438 2.121 . S
Mn433 N440 2.257 . S
Mn433 N449 2.282 . S
Mn433 O457 2.215 . S
Mn433 O459 2.117 . S
C434 O456 1.234 . S
C434 O457 1.283 . S
C435 O447 1.281 . S
C435 O448 1.236 . S
C436 O458 1.240 . S
C436 O459 1.264 . S
O437 Mn432 2.095 . S
O437 C446 1.250 . S
O438 Mn433 2.121 . S
O438 C446 1.258 . S
C439 N440 1.326 . S
C439 C443 1.460 . S
C439 H445 0.929 . S
N440 Mn433 2.257 . S
N440 C439 1.326 . S
N440 C444 1.362 . S
C441 C442 1.258 . S
C441 C444 1.431 . S
C441 C461 1.449 . S
C442 C441 1.258 . S
C442 C443 1.477 . S
C442 H462 0.931 . S
C443 C439 1.460 . S
C443 C442 1.477 . S
C443 H463 0.930 . S
C444 N440 1.362 . S
C444 C441 1.431 . S
C444 C454 1.476 . S
H445 C439 0.929 . S
C446 O437 1.250 . S
C446 O438 1.258 . S
O447 Mn432 2.162 1_565 S
O447 C435 1.281 . S
O448 Mn432 2.297 1_565 S
O448 C435 1.236 . S
N449 Mn433 2.282 . S
N449 C450 1.328 . S
N449 C454 1.318 . S
C450 N449 1.328 . S
C450 C451 1.457 . S
C450 H455 0.929 . S
C451 C450 1.457 . S
C451 C452 1.291 . S
C451 H464 0.931 . S
C452 C451 1.291 . S
C452 C453 1.373 . S
C452 H465 0.929 . S
C453 C452 1.373 . S
C453 C454 1.396 . S
C453 C460 1.403 . S
C454 C444 1.476 . S
C454 N449 1.318 . S
C454 C453 1.396 . S
H455 C450 0.929 . S
O456 Mn432 2.385 . S
O456 C434 1.234 . S
O457 Mn432 2.209 . S
O457 Mn433 2.215 . S
O457 C434 1.283 . S
O458 Mn432 2.094 . S
O458 C436 1.240 . S
O459 Mn433 2.117 . S
O459 C436 1.264 . S
C460 C453 1.403 . S
C460 C461 1.399 . S
C460 H466 0.929 . S
C461 C441 1.449 . S
C461 C460 1.399 . S
C461 H467 0.930 . S
H462 C442 0.931 . S
H463 C443 0.930 . S
H464 C451 0.931 . S
H465 C452 0.929 . S
H466 C460 0.929 . S
H467 C461 0.930 . S
Mn468 O473 2.095 1_655 S
Mn468 O483 2.162 . S
Mn468 O484 2.297 . S
Mn468 O492 2.385 . S
Mn468 O493 2.209 . S
Mn468 O494 2.094 . S
Mn469 O474 2.121 1_655 S
Mn469 N476 2.257 . S
Mn469 N485 2.282 . S
Mn469 O493 2.215 . S
Mn469 O495 2.117 . S
C470 O492 1.234 . S
C470 O493 1.283 . S
C471 O483 1.281 . S
C471 O484 1.236 . S
C472 O494 1.240 . S
C472 O495 1.264 . S
O473 Mn468 2.095 1_455 S
O473 C482 1.250 . S
O474 Mn469 2.121 1_455 S
O474 C482 1.258 . S
C475 N476 1.326 1_455 S
C475 C479 1.460 . S
C475 H481 0.929 . S
N476 Mn469 2.257 . S
N476 C475 1.326 1_655 S
N476 C480 1.362 . S
C477 C478 1.258 1_655 S
C477 C480 1.431 . S
C477 C497 1.449 . S
C478 C477 1.258 1_455 S
C478 C479 1.477 . S
C478 H498 0.931 . S
C479 C475 1.460 . S
C479 C478 1.477 . S
C479 H499 0.930 . S
C480 N476 1.362 . S
C480 C477 1.431 . S
C480 C490 1.476 . S
H481 C475 0.929 . S
C482 O473 1.250 . S
C482 O474 1.258 . S
O483 Mn468 2.162 . S
O483 C471 1.281 . S
O484 Mn468 2.297 . S
O484 C471 1.236 . S
N485 Mn469 2.282 . S
N485 C486 1.328 . S
N485 C490 1.318 . S
C486 N485 1.328 . S
C486 C487 1.457 . S
C486 H491 0.929 . S
C487 C486 1.457 . S
C487 C488 1.291 . S
C487 H500 0.931 . S
C488 C487 1.291 . S
C488 C489 1.373 . S
C488 H501 0.929 . S
C489 C488 1.373 . S
C489 C490 1.396 . S
C489 C496 1.403 . S
C490 C480 1.476 . S
C490 N485 1.318 . S
C490 C489 1.396 . S
H491 C486 0.929 . S
O492 Mn468 2.385 . S
O492 C470 1.234 . S
O493 Mn468 2.209 . S
O493 Mn469 2.215 . S
O493 C470 1.283 . S
O494 Mn468 2.094 . S
O494 C472 1.240 . S
O495 Mn469 2.117 . S
O495 C472 1.264 . S
C496 C489 1.403 . S
C496 C497 1.399 . S
C496 H502 0.929 . S
C497 C477 1.449 . S
C497 C496 1.399 . S
C497 H503 0.930 . S
H498 C478 0.931 . S
H499 C479 0.930 . S
H500 C487 0.931 . S
H501 C488 0.929 . S
H502 C496 0.929 . S
H503 C497 0.930 . S
Mn504 O509 2.095 . S
Mn504 O519 2.162 . S
Mn504 O520 2.297 . S
Mn504 O528 2.385 . S
Mn504 O529 2.209 . S
Mn504 O530 2.094 . S
Mn505 O510 2.121 . S
Mn505 N512 2.257 . S
Mn505 N521 2.282 . S
Mn505 O529 2.215 . S
Mn505 O531 2.117 . S
C506 O528 1.234 . S
C506 O529 1.283 . S
C507 O519 1.281 . S
C507 O520 1.236 . S
C508 O530 1.240 . S
C508 O531 1.264 . S
O509 Mn504 2.095 . S
O509 C518 1.250 . S
O510 Mn505 2.121 . S
O510 C518 1.258 . S
C511 N512 1.326 . S
C511 C515 1.460 . S
C511 H517 0.929 . S
N512 Mn505 2.257 . S
N512 C511 1.326 . S
N512 C516 1.362 . S
C513 C514 1.258 . S
C513 C516 1.431 . S
C513 C533 1.449 . S
C514 C513 1.258 . S
C514 C515 1.477 . S
C514 H534 0.931 . S
C515 C511 1.460 . S
C515 C514 1.477 . S
C515 H535 0.930 . S
C516 N512 1.362 . S
C516 C513 1.431 . S
C516 C526 1.476 . S
H517 C511 0.929 . S
C518 O509 1.250 . S
C518 O510 1.258 . S
O519 Mn504 2.162 . S
O519 C507 1.281 . S
O520 Mn504 2.297 . S
O520 C507 1.236 . S
N521 Mn505 2.282 . S
N521 C522 1.328 . S
N521 C526 1.318 . S
C522 N521 1.328 . S
C522 C523 1.457 . S
C522 H527 0.929 . S
C523 C522 1.457 . S
C523 C524 1.291 . S
C523 H536 0.931 . S
C524 C523 1.291 . S
C524 C525 1.373 . S
C524 H537 0.929 . S
C525 C524 1.373 . S
C525 C526 1.396 . S
C525 C532 1.403 . S
C526 C516 1.476 . S
C526 N521 1.318 . S
C526 C525 1.396 . S
H527 C522 0.929 . S
O528 Mn504 2.385 . S
O528 C506 1.234 . S
O529 Mn504 2.209 . S
O529 Mn505 2.215 . S
O529 C506 1.283 . S
O530 Mn504 2.094 . S
O530 C508 1.240 . S
O531 Mn505 2.117 . S
O531 C508 1.264 . S
C532 C525 1.403 . S
C532 C533 1.399 . S
C532 H538 0.929 . S
C533 C513 1.449 . S
C533 C532 1.399 . S
C533 H539 0.930 . S
H534 C514 0.931 . S
H535 C515 0.930 . S
H536 C523 0.931 . S
H537 C524 0.929 . S
H538 C532 0.929 . S
H539 C533 0.930 . S
Mn540 O545 2.095 . S
Mn540 O555 2.162 . S
Mn540 O556 2.297 . S
Mn540 O564 2.385 . S
Mn540 O565 2.209 . S
Mn540 O566 2.094 . S
Mn541 O546 2.121 . S
Mn541 N548 2.257 . S
Mn541 N557 2.282 . S
Mn541 O565 2.215 . S
Mn541 O567 2.117 . S
C542 O564 1.234 . S
C542 O565 1.283 . S
C543 O555 1.281 . S
C543 O556 1.236 . S
C544 O566 1.240 . S
C544 O567 1.264 . S
O545 Mn540 2.095 . S
O545 C554 1.250 . S
O546 Mn541 2.121 . S
O546 C554 1.258 . S
C547 N548 1.326 . S
C547 C551 1.460 . S
C547 H553 0.929 . S
N548 Mn541 2.257 . S
N548 C547 1.326 . S
N548 C552 1.362 . S
C549 C550 1.258 . S
C549 C552 1.431 . S
C549 C569 1.449 . S
C550 C549 1.258 . S
C550 C551 1.477 . S
C550 H570 0.931 . S
C551 C547 1.460 . S
C551 C550 1.477 . S
C551 H571 0.930 . S
C552 N548 1.362 . S
C552 C549 1.431 . S
C552 C562 1.476 . S
H553 C547 0.929 . S
C554 O545 1.250 . S
C554 O546 1.258 . S
O555 Mn540 2.162 . S
O555 C543 1.281 . S
O556 Mn540 2.297 . S
O556 C543 1.236 . S
N557 Mn541 2.282 . S
N557 C558 1.328 . S
N557 C562 1.318 . S
C558 N557 1.328 . S
C558 C559 1.457 . S
C558 H563 0.929 . S
C559 C558 1.457 . S
C559 C560 1.291 . S
C559 H572 0.931 . S
C560 C559 1.291 . S
C560 C561 1.373 . S
C560 H573 0.929 . S
C561 C560 1.373 . S
C561 C562 1.396 . S
C561 C568 1.403 . S
C562 C552 1.476 . S
C562 N557 1.318 . S
C562 C561 1.396 . S
H563 C558 0.929 . S
O564 Mn540 2.385 . S
O564 C542 1.234 . S
O565 Mn540 2.209 . S
O565 Mn541 2.215 . S
O565 C542 1.283 . S
O566 Mn540 2.094 . S
O566 C544 1.240 . S
O567 Mn541 2.117 . S
O567 C544 1.264 . S
C568 C561 1.403 . S
C568 C569 1.399 . S
C568 H574 0.929 . S
C569 C549 1.449 . S
C569 C568 1.399 . S
C569 H575 0.930 . S
H570 C550 0.931 . S
H571 C551 0.930 . S
H572 C559 0.931 . S
H573 C560 0.929 . S
H574 C568 0.929 . S
H575 C569 0.930 . S
Mn576 O581 2.095 1_545 S
Mn576 O591 2.162 . S
Mn576 O592 2.292 1_545 S
Mn576 O600 2.385 . S
Mn576 O601 2.209 . S
Mn576 O602 2.094 . S
Mn577 O582 2.121 1_545 S
Mn577 N584 2.257 . S
Mn577 N593 2.282 . S
Mn577 O601 2.215 . S
Mn577 O603 2.117 . S
C578 O600 1.234 . S
C578 O601 1.283 . S
C579 O591 1.281 . S
C579 O592 1.216 1_545 S
C580 O602 1.240 . S
C580 O603 1.264 . S
O581 Mn576 2.095 1_565 S
O581 C590 1.250 . S
O582 Mn577 2.121 1_565 S
O582 C590 1.258 . S
C583 N584 1.326 1_565 S
C583 C587 1.460 . S
C583 H589 0.929 . S
N584 Mn577 2.257 . S
N584 C583 1.326 1_545 S
N584 C588 1.362 . S
C585 C586 1.258 1_545 S
C585 C588 1.431 . S
C585 C605 1.449 . S
C586 C585 1.258 1_565 S
C586 C587 1.477 . S
C586 H606 0.931 . S
C587 C583 1.460 . S
C587 C586 1.477 . S
C587 H607 0.930 . S
C588 N584 1.362 . S
C588 C585 1.431 . S
C588 C598 1.476 . S
H589 C583 0.929 . S
C590 O581 1.250 . S
C590 O582 1.258 . S
O591 Mn576 2.162 . S
O591 C579 1.281 . S
O592 Mn576 2.292 1_565 S
O592 C579 1.216 1_565 S
N593 Mn577 2.282 . S
N593 C594 1.328 . S
N593 C598 1.318 . S
C594 N593 1.328 . S
C594 C595 1.457 . S
C594 H599 0.929 . S
C595 C594 1.457 . S
C595 C596 1.291 . S
C595 H608 0.931 . S
C596 C595 1.291 . S
C596 C597 1.373 . S
C596 H609 0.929 . S
C597 C596 1.373 . S
C597 C598 1.396 . S
C597 C604 1.403 . S
C598 C588 1.476 . S
C598 N593 1.318 . S
C598 C597 1.396 . S
H599 C594 0.929 . S
O600 Mn576 2.385 . S
O600 C578 1.234 . S
O601 Mn576 2.209 . S
O601 Mn577 2.215 . S
O601 C578 1.283 . S
O602 Mn576 2.094 . S
O602 C580 1.240 . S
O603 Mn577 2.117 . S
O603 C580 1.264 . S
C604 C597 1.403 . S
C604 C605 1.399 . S
C604 H610 0.929 . S
C605 C585 1.449 . S
C605 C604 1.399 . S
C605 H611 0.930 . S
H606 C586 0.931 . S
H607 C587 0.930 . S
H608 C595 0.931 . S
H609 C596 0.929 . S
H610 C604 0.929 . S
H611 C605 0.930 . S
Mn612 O617 2.095 . S
Mn612 O627 2.162 1_655 S
Mn612 O628 2.297 1_655 S
Mn612 O636 2.385 . S
Mn612 O637 2.209 . S
Mn612 O638 2.094 . S
Mn613 O618 2.121 . S
Mn613 N620 2.257 . S
Mn613 N629 2.282 . S
Mn613 O637 2.215 . S
Mn613 O639 2.117 . S
C614 O636 1.234 . S
C614 O637 1.283 . S
C615 O627 1.281 . S
C615 O628 1.236 . S
C616 O638 1.240 . S
C616 O639 1.264 . S
O617 Mn612 2.095 . S
O617 C626 1.250 . S
O618 Mn613 2.121 . S
O618 C626 1.258 . S
C619 N620 1.326 . S
C619 C623 1.460 . S
C619 H625 0.929 . S
N620 Mn613 2.257 . S
N620 C619 1.326 . S
N620 C624 1.362 . S
C621 C622 1.258 . S
C621 C624 1.431 . S
C621 C641 1.449 . S
C622 C621 1.258 . S
C622 C623 1.477 . S
C622 H642 0.931 . S
C623 C619 1.460 . S
C623 C622 1.477 . S
C623 H643 0.930 . S
C624 N620 1.362 . S
C624 C621 1.431 . S
C624 C634 1.476 . S
H625 C619 0.929 . S
C626 O617 1.250 . S
C626 O618 1.258 . S
O627 Mn612 2.162 1_455 S
O627 C615 1.281 . S
O628 Mn612 2.297 1_455 S
O628 C615 1.236 . S
N629 Mn613 2.282 . S
N629 C630 1.328 . S
N629 C634 1.318 . S
C630 N629 1.328 . S
C630 C631 1.457 . S
C630 H635 0.929 . S
C631 C630 1.457 . S
C631 C632 1.291 . S
C631 H644 0.931 . S
C632 C631 1.291 . S
C632 C633 1.373 . S
C632 H645 0.929 . S
C633 C632 1.373 . S
C633 C634 1.396 . S
C633 C640 1.403 . S
C634 C624 1.476 . S
C634 N629 1.318 . S
C634 C633 1.396 . S
H635 C630 0.929 . S
O636 Mn612 2.385 . S
O636 C614 1.234 . S
O637 Mn612 2.209 . S
O637 Mn613 2.215 . S
O637 C614 1.283 . S
O638 Mn612 2.094 . S
O638 C616 1.240 . S
O639 Mn613 2.117 . S
O639 C616 1.264 . S
C640 C633 1.403 . S
C640 C641 1.399 . S
C640 H646 0.929 . S
C641 C621 1.449 . S
C641 C640 1.399 . S
C641 H647 0.930 . S
H642 C622 0.931 . S
H643 C623 0.930 . S
H644 C631 0.931 . S
H645 C632 0.929 . S
H646 C640 0.929 . S
H647 C641 0.930 . S
H648 C654 0.930 . S
H649 C657 0.931 . S
H650 C659 0.931 . S
H651 C661 0.930 . S
H652 C663 0.930 . S
H653 C665 0.931 . S
C654 H648 0.930 . S
C654 C655 1.380 . S
C654 C656 1.394 . S
C655 C654 1.380 . S
C655 C659 1.382 . S
C656 C654 1.394 . S
C656 C657 1.400 . S
C657 H649 0.931 . S
C657 C656 1.400 . S
C657 C658 1.375 . S
C658 C657 1.375 . S
C658 C659 1.415 . S
C658 C660 1.501 . S
C659 H650 0.931 . S
C659 C655 1.382 . S
C659 C658 1.415 . S
C660 C658 1.501 . S
C660 C661 1.384 . S
C660 C665 1.408 . S
C661 H651 0.930 . S
C661 C660 1.384 . S
C661 C662 1.389 . S
C662 C661 1.389 . S
C662 C663 1.405 . S
C663 H652 0.930 . S
C663 C662 1.405 . S
C663 C664 1.364 . S
C664 C663 1.364 . S
C664 C665 1.400 . S
C665 H653 0.931 . S
C665 C660 1.408 . S
C665 C664 1.400 . S
H666 C672 0.930 . S
H667 C675 0.931 . S
H668 C677 0.931 . S
H669 C679 0.930 . S
H670 C681 0.930 . S
H671 C683 0.931 . S
C672 H666 0.930 . S
C672 C673 1.380 . S
C672 C674 1.394 . S
C673 C672 1.380 . S
C673 C677 1.382 . S
C674 C672 1.394 . S
C674 C675 1.400 . S
C675 H667 0.931 . S
C675 C674 1.400 . S
C675 C676 1.375 . S
C676 C675 1.375 . S
C676 C677 1.415 . S
C676 C678 1.501 . S
C677 H668 0.931 . S
C677 C673 1.382 . S
C677 C676 1.415 . S
C678 C676 1.501 . S
C678 C679 1.384 . S
C678 C683 1.408 . S
C679 H669 0.930 . S
C679 C678 1.384 . S
C679 C680 1.389 . S
C680 C679 1.389 . S
C680 C681 1.405 . S
C681 H670 0.930 . S
C681 C680 1.405 . S
C681 C682 1.364 . S
C682 C681 1.364 . S
C682 C683 1.400 . S
C683 H671 0.931 . S
C683 C678 1.408 . S
C683 C682 1.400 . S
H684 C690 0.930 . S
H685 C693 0.931 . S
H686 C695 0.931 . S
H687 C697 0.930 . S
H688 C699 0.930 . S
H689 C701 0.931 . S
C690 H684 0.930 . S
C690 C691 1.380 . S
C690 C692 1.394 . S
C691 C690 1.380 . S
C691 C695 1.382 . S
C692 C690 1.394 . S
C692 C693 1.400 . S
C693 H685 0.931 . S
C693 C692 1.400 . S
C693 C694 1.375 . S
C694 C693 1.375 . S
C694 C695 1.415 . S
C694 C696 1.501 . S
C695 H686 0.931 . S
C695 C691 1.382 . S
C695 C694 1.415 . S
C696 C694 1.501 . S
C696 C697 1.384 . S
C696 C701 1.408 . S
C697 H687 0.930 . S
C697 C696 1.384 . S
C697 C698 1.389 . S
C698 C697 1.389 . S
C698 C699 1.405 . S
C699 H688 0.930 . S
C699 C698 1.405 . S
C699 C700 1.364 . S
C700 C699 1.364 . S
C700 C701 1.400 . S
C701 H689 0.931 . S
C701 C696 1.408 . S
C701 C700 1.400 . S
H702 C708 0.930 . S
H703 C711 0.931 . S
H704 C713 0.931 . S
H705 C715 0.930 . S
H706 C717 0.930 . S
H707 C719 0.931 . S
C708 H702 0.930 . S
C708 C709 1.380 . S
C708 C710 1.394 . S
C709 C708 1.380 . S
C709 C713 1.382 . S
C710 C708 1.394 . S
C710 C711 1.400 . S
C711 H703 0.931 . S
C711 C710 1.400 . S
C711 C712 1.375 . S
C712 C711 1.375 . S
C712 C713 1.415 . S
C712 C714 1.501 . S
C713 H704 0.931 . S
C713 C709 1.382 . S
C713 C712 1.415 . S
C714 C712 1.501 . S
C714 C715 1.384 . S
C714 C719 1.408 . S
C715 H705 0.930 . S
C715 C714 1.384 . S
C715 C716 1.389 . S
C716 C715 1.389 . S
C716 C717 1.405 . S
C717 H706 0.930 . S
C717 C716 1.405 . S
C717 C718 1.364 . S
C718 C717 1.364 . S
C718 C719 1.400 . S
C719 H707 0.931 . S
C719 C714 1.408 . S
C719 C718 1.400 . S
H720 C726 0.930 . S
H721 C729 0.931 . S
H722 C731 0.931 . S
H723 C733 0.930 . S
H724 C735 0.930 . S
H725 C737 0.931 . S
C726 H720 0.930 . S
C726 C727 1.380 . S
C726 C728 1.394 . S
C727 C726 1.380 . S
C727 C731 1.382 . S
C728 C726 1.394 . S
C728 C729 1.400 . S
C729 H721 0.931 . S
C729 C728 1.400 . S
C729 C730 1.375 . S
C730 C729 1.375 . S
C730 C731 1.415 . S
C730 C732 1.501 . S
C731 H722 0.931 . S
C731 C727 1.382 . S
C731 C730 1.415 . S
C732 C730 1.501 . S
C732 C733 1.384 . S
C732 C737 1.408 . S
C733 H723 0.930 . S
C733 C732 1.384 . S
C733 C734 1.389 . S
C734 C733 1.389 . S
C734 C735 1.405 . S
C735 H724 0.930 . S
C735 C734 1.405 . S
C735 C736 1.364 . S
C736 C735 1.364 . S
C736 C737 1.400 . S
C737 H725 0.931 . S
C737 C732 1.408 . S
C737 C736 1.400 . S
H738 C744 0.930 . S
H739 C747 0.931 . S
H740 C749 0.931 . S
H741 C751 0.930 . S
H742 C753 0.930 . S
H743 C755 0.931 . S
C744 H738 0.930 . S
C744 C745 1.380 . S
C744 C746 1.394 . S
C745 C744 1.380 . S
C745 C749 1.382 . S
C746 C744 1.394 . S
C746 C747 1.400 . S
C747 H739 0.931 . S
C747 C746 1.400 . S
C747 C748 1.375 . S
C748 C747 1.375 . S
C748 C749 1.415 . S
C748 C750 1.501 . S
C749 H740 0.931 . S
C749 C745 1.382 . S
C749 C748 1.415 . S
C750 C748 1.501 . S
C750 C751 1.384 . S
C750 C755 1.408 . S
C751 H741 0.930 . S
C751 C750 1.384 . S
C751 C752 1.389 . S
C752 C751 1.389 . S
C752 C753 1.405 . S
C753 H742 0.930 . S
C753 C752 1.405 . S
C753 C754 1.364 . S
C754 C753 1.364 . S
C754 C755 1.400 . S
C755 H743 0.931 . S
C755 C750 1.408 . S
C755 C754 1.400 . S
H756 C762 0.930 . S
H757 C765 0.931 . S
H758 C767 0.931 . S
H759 C769 0.930 . S
H760 C771 0.930 . S
H761 C773 0.931 . S
C762 H756 0.930 . S
C762 C763 1.380 . S
C762 C764 1.394 . S
C763 C762 1.380 . S
C763 C767 1.382 . S
C764 C762 1.394 . S
C764 C765 1.400 . S
C765 H757 0.931 . S
C765 C764 1.400 . S
C765 C766 1.375 . S
C766 C765 1.375 . S
C766 C767 1.415 . S
C766 C768 1.501 . S
C767 H758 0.931 . S
C767 C763 1.382 . S
C767 C766 1.415 . S
C768 C766 1.501 . S
C768 C769 1.384 . S
C768 C773 1.408 . S
C769 H759 0.930 . S
C769 C768 1.384 . S
C769 C770 1.389 . S
C770 C769 1.389 . S
C770 C771 1.405 . S
C771 H760 0.930 . S
C771 C770 1.405 . S
C771 C772 1.364 . S
C772 C771 1.364 . S
C772 C773 1.400 . S
C773 H761 0.931 . S
C773 C768 1.408 . S
C773 C772 1.400 . S
H774 C780 0.930 . S
H775 C783 0.931 . S
H776 C785 0.931 . S
H777 C787 0.930 . S
H778 C789 0.930 . S
H779 C791 0.931 . S
C780 H774 0.930 . S
C780 C781 1.380 . S
C780 C782 1.394 . S
C781 C780 1.380 . S
C781 C785 1.382 . S
C782 C780 1.394 . S
C782 C783 1.400 . S
C783 H775 0.931 . S
C783 C782 1.400 . S
C783 C784 1.375 . S
C784 C783 1.375 . S
C784 C785 1.415 . S
C784 C786 1.501 . S
C785 H776 0.931 . S
C785 C781 1.382 . S
C785 C784 1.415 . S
C786 C784 1.501 . S
C786 C787 1.384 . S
C786 C791 1.408 . S
C787 H777 0.930 . S
C787 C786 1.384 . S
C787 C788 1.389 . S
C788 C787 1.389 . S
C788 C789 1.405 . S
C789 H778 0.930 . S
C789 C788 1.405 . S
C789 C790 1.364 . S
C790 C789 1.364 . S
C790 C791 1.400 . S
C791 H779 0.931 . S
C791 C786 1.408 . S
C791 C790 1.400 . S
H792 C798 0.930 . S
H793 C801 0.931 . S
H794 C803 0.931 . S
H795 C805 0.930 . S
H796 C807 0.930 . S
H797 C809 0.931 . S
C798 H792 0.930 . S
C798 C799 1.380 . S
C798 C800 1.394 . S
C799 C798 1.380 . S
C799 C803 1.382 . S
C800 C798 1.394 . S
C800 C801 1.400 . S
C801 H793 0.931 . S
C801 C800 1.400 . S
C801 C802 1.375 . S
C802 C801 1.375 . S
C802 C803 1.415 . S
C802 C804 1.501 . S
C803 H794 0.931 . S
C803 C799 1.382 . S
C803 C802 1.415 . S
C804 C802 1.501 . S
C804 C805 1.384 . S
C804 C809 1.408 . S
C805 H795 0.930 . S
C805 C804 1.384 . S
C805 C806 1.389 . S
C806 C805 1.389 . S
C806 C807 1.405 . S
C807 H796 0.930 . S
C807 C806 1.405 . S
C807 C808 1.364 . S
C808 C807 1.364 . S
C808 C809 1.400 . S
C809 H797 0.931 . S
C809 C804 1.408 . S
C809 C808 1.400 . S
H810 C816 0.915 . S
H811 C819 0.931 . S
H812 C821 0.931 . S
H813 C823 0.930 . S
H814 C825 0.930 . S
H815 C827 0.940 1_655 S
C816 H810 0.915 . S
C816 C817 1.393 . S
C816 C818 1.398 1_655 S
C817 C816 1.393 . S
C817 C821 1.382 . S
C818 C816 1.398 1_455 S
C818 C819 1.400 . S
C819 H811 0.931 . S
C819 C818 1.400 . S
C819 C820 1.375 . S
C820 C819 1.375 . S
C820 C821 1.415 1_455 S
C820 C822 1.501 . S
C821 H812 0.931 . S
C821 C817 1.382 . S
C821 C820 1.415 1_655 S
C822 C820 1.501 . S
C822 C823 1.384 . S
C822 C827 1.420 . S
C823 H813 0.930 . S
C823 C822 1.384 . S
C823 C824 1.389 . S
C824 C823 1.389 . S
C824 C825 1.405 . S
C825 H814 0.930 . S
C825 C824 1.405 . S
C825 C826 1.359 . S
C826 C825 1.359 . S
C826 C827 1.396 . S
C827 H815 0.940 1_455 S
C827 C822 1.420 . S
C827 C826 1.396 . S
H828 C834 0.930 . S
H829 C837 0.931 . S
H830 C839 0.931 . S
H831 C841 0.930 . S
H832 C843 0.930 . S
H833 C845 0.931 . S
C834 H828 0.930 . S
C834 C835 1.380 . S
C834 C836 1.394 . S
C835 C834 1.380 . S
C835 C839 1.382 . S
C836 C834 1.394 . S
C836 C837 1.400 . S
C837 H829 0.931 . S
C837 C836 1.400 . S
C837 C838 1.375 . S
C838 C837 1.375 . S
C838 C839 1.415 . S
C838 C840 1.501 . S
C839 H830 0.931 . S
C839 C835 1.382 . S
C839 C838 1.415 . S
C840 C838 1.501 . S
C840 C841 1.384 . S
C840 C845 1.408 . S
C841 H831 0.930 . S
C841 C840 1.384 . S
C841 C842 1.389 . S
C842 C841 1.389 . S
C842 C843 1.405 . S
C843 H832 0.930 . S
C843 C842 1.405 . S
C843 C844 1.364 . S
C844 C843 1.364 . S
C844 C845 1.400 . S
C845 H833 0.931 . S
C845 C840 1.408 . S
C845 C844 1.400 . S
H846 C852 0.944 . S
H847 C855 0.931 . S
H848 C857 0.931 . S
H849 C859 0.930 . S
H850 C861 0.930 . S
H851 C863 0.920 1_545 S
C852 H846 0.944 . S
C852 C853 1.377 . S
C852 C854 1.384 1_545 S
C853 C852 1.377 . S
C853 C857 1.382 . S
C854 C852 1.384 1_565 S
C854 C855 1.400 . S
C855 H847 0.931 . S
C855 C854 1.400 . S
C855 C856 1.375 . S
C856 C855 1.375 . S
C856 C857 1.415 1_565 S
C856 C858 1.501 . S
C857 H848 0.931 . S
C857 C853 1.382 . S
C857 C856 1.415 1_545 S
C858 C856 1.501 . S
C858 C859 1.384 . S
C858 C863 1.400 . S
C859 H849 0.930 . S
C859 C858 1.384 . S
C859 C860 1.389 . S
C860 C859 1.389 . S
C860 C861 1.405 . S
C861 H850 0.930 . S
C861 C860 1.405 . S
C861 C862 1.373 . S
C862 C861 1.373 . S
C862 C863 1.407 . S
C863 H851 0.920 1_565 S
C863 C858 1.400 . S
C863 C862 1.407 . S
H864 C870 0.915 . S
H865 C873 0.931 . S
H866 C875 0.927 1_545 S
H867 C877 0.930 . S
H868 C879 0.930 . S
H869 C881 0.931 . S
C870 H864 0.915 . S
C870 C871 1.383 . S
C870 C872 1.401 1_545 S
C871 C870 1.383 . S
C871 C875 1.402 1_545 S
C872 C870 1.401 1_565 S
C872 C873 1.400 . S
C873 H865 0.931 . S
C873 C872 1.400 . S
C873 C874 1.375 . S
C874 C873 1.375 . S
C874 C875 1.412 . S
C874 C876 1.501 . S
C875 H866 0.927 1_565 S
C875 C871 1.402 1_565 S
C875 C874 1.412 . S
C876 C874 1.501 . S
C876 C877 1.384 . S
C876 C881 1.408 1_565 S
C877 H867 0.930 . S
C877 C876 1.384 . S
C877 C878 1.389 . S
C878 C877 1.389 . S
C878 C879 1.405 . S
C879 H868 0.930 . S
C879 C878 1.405 . S
C879 C880 1.364 1_565 S
C880 C879 1.364 1_545 S
C880 C881 1.400 . S
C881 H869 0.931 . S
C881 C876 1.408 1_545 S
C881 C880 1.400 . S
H882 C888 0.950 . S
H883 C891 0.931 . S
H884 C893 0.935 . S
H885 C895 0.930 . S
H886 C897 0.930 . S
H887 C899 0.931 . S
C888 H882 0.950 . S
C888 C889 1.375 . S
C888 C890 1.371 1_655 S
C889 C888 1.375 . S
C889 C893 1.361 1_655 S
C890 C888 1.371 1_455 S
C890 C891 1.428 . S
C891 H883 0.931 . S
C891 C890 1.428 . S
C891 C892 1.375 . S
C892 C891 1.375 . S
C892 C893 1.424 . S
C892 C894 1.501 . S
C893 H884 0.935 . S
C893 C889 1.361 1_455 S
C893 C892 1.424 . S
C894 C892 1.501 . S
C894 C895 1.384 . S
C894 C899 1.408 1_455 S
C895 H885 0.930 . S
C895 C894 1.384 . S
C895 C896 1.389 . S
C896 C895 1.389 . S
C896 C897 1.405 . S
C897 H886 0.930 . S
C897 C896 1.405 . S
C897 C898 1.364 1_455 S
C898 C897 1.364 1_655 S
C898 C899 1.400 . S
C899 H887 0.931 . S
C899 C894 1.408 1_655 S
C899 C898 1.400 . S
H900 C906 0.930 . S
H901 C909 0.931 . S
H902 C911 0.931 . S
H903 C913 0.930 . S
H904 C915 0.930 . S
H905 C917 0.931 . S
C906 H900 0.930 . S
C906 C907 1.380 . S
C906 C908 1.394 . S
C907 C906 1.380 . S
C907 C911 1.382 . S
C908 C906 1.394 . S
C908 C909 1.400 . S
C909 H901 0.931 . S
C909 C908 1.400 . S
C909 C910 1.375 . S
C910 C909 1.375 . S
C910 C911 1.415 . S
C910 C912 1.501 . S
C911 H902 0.931 . S
C911 C907 1.382 . S
C911 C910 1.415 . S
C912 C910 1.501 . S
C912 C913 1.384 . S
C912 C917 1.408 . S
C913 H903 0.930 . S
C913 C912 1.384 . S
C913 C914 1.389 . S
C914 C913 1.389 . S
C914 C915 1.405 . S
C915 H904 0.930 . S
C915 C914 1.405 . S
C915 C916 1.364 . S
C916 C915 1.364 . S
C916 C917 1.400 . S
C917 H905 0.931 . S
C917 C912 1.408 . S
C917 C916 1.400 . S
H918 C924 0.930 . S
H919 C927 0.931 . S
H920 C929 0.931 . S
H921 C931 0.930 . S
H922 C933 0.930 . S
H923 C935 0.931 . S
C924 H918 0.930 . S
C924 C925 1.380 . S
C924 C926 1.394 . S
C925 C924 1.380 . S
C925 C929 1.382 . S
C926 C924 1.394 . S
C926 C927 1.400 . S
C927 H919 0.931 . S
C927 C926 1.400 . S
C927 C928 1.375 . S
C928 C927 1.375 . S
C928 C929 1.415 . S
C928 C930 1.501 . S
C929 H920 0.931 . S
C929 C925 1.382 . S
C929 C928 1.415 . S
C930 C928 1.501 . S
C930 C931 1.384 . S
C930 C935 1.408 . S
C931 H921 0.930 . S
C931 C930 1.384 . S
C931 C932 1.389 . S
C932 C931 1.389 . S
C932 C933 1.405 . S
C933 H922 0.930 . S
C933 C932 1.405 . S
C933 C934 1.364 . S
C934 C933 1.364 . S
C934 C935 1.400 . S
C935 H923 0.931 . S
C935 C930 1.408 . S
C935 C934 1.400 . S
H936 C942 0.930 . S
H937 C945 0.931 . S
H938 C947 0.931 . S
H939 C949 0.930 . S
H940 C951 0.930 . S
H941 C953 0.931 . S
C942 H936 0.930 . S
C942 C943 1.380 . S
C942 C944 1.394 . S
C943 C942 1.380 . S
C943 C947 1.382 . S
C944 C942 1.394 . S
C944 C945 1.400 . S
C945 H937 0.931 . S
C945 C944 1.400 . S
C945 C946 1.375 . S
C946 C945 1.375 . S
C946 C947 1.415 . S
C946 C948 1.501 . S
C947 H938 0.931 . S
C947 C943 1.382 . S
C947 C946 1.415 . S
C948 C946 1.501 . S
C948 C949 1.384 . S
C948 C953 1.408 . S
C949 H939 0.930 . S
C949 C948 1.384 . S
C949 C950 1.389 . S
C950 C949 1.389 . S
C950 C951 1.405 . S
C951 H940 0.930 . S
C951 C950 1.405 . S
C951 C952 1.364 . S
C952 C951 1.364 . S
C952 C953 1.400 . S
C953 H941 0.931 . S
C953 C948 1.408 . S
C953 C952 1.400 . S
H954 C960 0.930 . S
H955 C963 0.931 . S
H956 C965 0.931 . S
H957 C967 0.930 . S
H958 C969 0.930 . S
H959 C971 0.931 . S
C960 H954 0.930 . S
C960 C961 1.380 . S
C960 C962 1.394 . S
C961 C960 1.380 . S
C961 C965 1.382 . S
C962 C960 1.394 . S
C962 C963 1.400 . S
C963 H955 0.931 . S
C963 C962 1.400 . S
C963 C964 1.375 . S
C964 C963 1.375 . S
C964 C965 1.415 . S
C964 C966 1.501 . S
C965 H956 0.931 . S
C965 C961 1.382 . S
C965 C964 1.415 . S
C966 C964 1.501 . S
C966 C967 1.384 . S
C966 C971 1.408 . S
C967 H957 0.930 . S
C967 C966 1.384 . S
C967 C968 1.389 . S
C968 C967 1.389 . S
C968 C969 1.405 . S
C969 H958 0.930 . S
C969 C968 1.405 . S
C969 C970 1.364 . S
C970 C969 1.364 . S
C970 C971 1.400 . S
C971 H959 0.931 . S
C971 C966 1.408 . S
C971 C970 1.400 . S
C972 C973 1.387 . S
C972 H976 0.950 . S
C972 C981 1.390 . S
C973 C972 1.387 . S
C973 C975 1.390 1_655 S
H974 C981 0.950 . S
C975 C973 1.390 1_455 S
C975 C977 1.369 1_455 S
C975 H979 0.950 . S
H976 C972 0.950 . S
C977 C975 1.369 1_655 S
C977 C978 1.392 . S
C977 H980 0.966 1_655 S
C978 C977 1.392 . S
C978 C981 1.387 . S
H979 C975 0.950 . S
H980 C977 0.966 1_455 S
C981 C972 1.390 . S
C981 H974 0.950 . S
C981 C978 1.387 . S
C982 C983 1.387 . S
C982 H986 0.950 . S
C982 C991 1.390 . S
C983 C982 1.387 . S
C983 C985 1.387 . S
H984 C991 0.950 . S
C985 C983 1.387 . S
C985 C987 1.390 . S
C985 H989 0.950 . S
H986 C982 0.950 . S
C987 C985 1.390 . S
C987 C988 1.387 . S
C987 H990 0.950 . S
C988 C987 1.387 . S
C988 C991 1.387 . S
H989 C985 0.950 . S
H990 C987 0.950 . S
C991 C982 1.390 . S
C991 H984 0.950 . S
C991 C988 1.387 . S
C992 C993 1.387 . S
C992 H996 0.950 . S
C992 C1001 1.390 . S
C993 C992 1.387 . S
C993 C995 1.387 1_545 S
H994 C1001 0.950 . S
C995 C993 1.387 1_565 S
C995 C997 1.390 . S
C995 H999 0.950 . S
H996 C992 0.950 . S
C997 C995 1.390 . S
C997 C998 1.387 1_565 S
C997 H1000 0.950 . S
C998 C997 1.387 1_545 S
C998 C1001 1.387 . S
H999 C995 0.950 . S
H1000 C997 0.950 . S
C1001 C992 1.390 . S
C1001 H994 0.950 . S
C1001 C998 1.387 . S
C1002 C1003 1.387 . S
C1002 H1006 0.950 . S
C1002 C1011 1.390 . S
C1003 C1002 1.387 . S
C1003 C1005 1.387 1_565 S
H1004 C1011 0.950 . S
C1005 C1003 1.387 1_545 S
C1005 C1007 1.390 . S
C1005 H1009 0.950 . S
H1006 C1002 0.950 . S
C1007 C1005 1.390 . S
C1007 C1008 1.387 1_545 S
C1007 H1010 0.950 . S
C1008 C1007 1.387 1_565 S
C1008 C1011 1.387 . S
H1009 C1005 0.950 . S
H1010 C1007 0.950 . S
C1011 C1002 1.390 . S
C1011 H1004 0.950 . S
C1011 C1008 1.387 . S
C1012 C1013 1.387 1_655 S
C1012 H1016 0.950 . S
C1012 C1021 1.390 . S
C1013 C1012 1.387 1_455 S
C1013 C1015 1.387 . S
H1014 C1021 0.950 . S
C1015 C1013 1.387 . S
C1015 C1017 1.390 . S
C1015 H1019 0.950 . S
H1016 C1012 0.950 . S
C1017 C1015 1.390 . S
C1017 C1018 1.387 . S
C1017 H1020 0.950 . S
C1018 C1017 1.387 . S
C1018 C1021 1.387 1_455 S
H1019 C1015 0.950 . S
H1020 C1017 0.950 . S
C1021 C1012 1.390 . S
C1021 H1014 0.950 . S
C1021 C1018 1.387 1_655 S
C1022 C1023 1.387 . S
C1022 H1026 0.950 . S
C1022 C1031 1.390 . S
C1023 C1022 1.387 . S
C1023 C1025 1.387 . S
H1024 C1031 0.950 . S
C1025 C1023 1.387 . S
C1025 C1027 1.390 . S
C1025 H1029 0.950 . S
H1026 C1022 0.950 . S
C1027 C1025 1.390 . S
C1027 C1028 1.387 . S
C1027 H1030 0.950 . S
C1028 C1027 1.387 . S
C1028 C1031 1.387 . S
H1029 C1025 0.950 . S
H1030 C1027 0.950 . S
C1031 C1022 1.390 . S
C1031 H1024 0.950 . S
C1031 C1028 1.387 . S
C1032 C1033 1.387 . S
C1032 H1036 0.950 . S
C1032 C1041 1.390 . S
C1033 C1032 1.387 . S
C1033 C1035 1.387 1_455 S
H1034 C1041 0.950 . S
C1035 C1033 1.387 1_655 S
C1035 C1037 1.390 . S
C1035 H1039 0.950 . S
H1036 C1032 0.950 . S
C1037 C1035 1.390 . S
C1037 C1038 1.348 1_655 S
C1037 H1040 0.950 . S
C1038 C1037 1.348 1_455 S
C1038 C1041 1.414 . S
H1039 C1035 0.950 . S
H1040 C1037 0.950 . S
C1041 C1032 1.390 . S
C1041 H1034 0.950 . S
C1041 C1038 1.414 . S
C1042 C1043 1.387 . S
C1042 H1046 0.950 . S
C1042 C1051 1.390 . S
C1043 C1042 1.387 . S
C1043 C1045 1.387 . S
H1044 C1051 0.950 . S
C1045 C1043 1.387 . S
C1045 C1047 1.390 . S
C1045 H1049 0.950 . S
H1046 C1042 0.950 . S
C1047 C1045 1.390 . S
C1047 C1048 1.387 . S
C1047 H1050 0.950 . S
C1048 C1047 1.387 . S
C1048 C1051 1.387 . S
H1049 C1045 0.950 . S
H1050 C1047 0.950 . S
C1051 C1042 1.390 . S
C1051 H1044 0.950 . S
C1051 C1048 1.387 . S
C1052 C1053 1.387 1_545 S
C1052 H1056 0.950 . S
C1052 C1061 1.390 . S
C1053 C1052 1.387 1_565 S
C1053 C1055 1.387 . S
H1054 C1061 0.950 . S
C1055 C1053 1.387 . S
C1055 C1057 1.390 . S
C1055 H1059 0.950 . S
H1056 C1052 0.950 . S
C1057 C1055 1.390 . S
C1057 C1058 1.389 . S
C1057 H1060 0.950 . S
C1058 C1057 1.389 . S
C1058 C1061 1.386 1_565 S
H1059 C1055 0.950 . S
H1060 C1057 0.950 . S
C1061 C1052 1.390 . S
C1061 H1054 0.950 . S
C1061 C1058 1.386 1_545 S
C1062 C1063 1.387 1_565 S
C1062 H1066 0.950 . S
C1062 C1071 1.390 . S
C1063 C1062 1.387 1_545 S
C1063 C1065 1.387 . S
H1064 C1071 0.950 . S
C1065 C1063 1.387 . S
C1065 C1067 1.390 . S
C1065 H1069 0.950 . S
H1066 C1062 0.950 . S
C1067 C1065 1.390 . S
C1067 C1068 1.409 . S
C1067 H1070 0.950 . S
C1068 C1067 1.409 . S
C1068 C1071 1.355 1_545 S
H1069 C1065 0.950 . S
H1070 C1067 0.950 . S
C1071 C1062 1.390 . S
C1071 H1064 0.950 . S
C1071 C1068 1.355 1_565 S
C1072 C1073 1.387 . S
C1072 H1076 0.950 . S
C1072 C1081 1.390 . S
C1073 C1072 1.387 . S
C1073 C1075 1.387 1_655 S
H1074 C1081 0.950 . S
C1075 C1073 1.387 1_455 S
C1075 C1077 1.390 . S
C1075 H1079 0.950 . S
H1076 C1072 0.950 . S
C1077 C1075 1.390 . S
C1077 C1078 1.403 . S
C1077 H1080 0.950 . S
C1078 C1077 1.403 . S
C1078 C1081 1.360 1_455 S
H1079 C1075 0.950 . S
H1080 C1077 0.950 . S
C1081 C1072 1.390 . S
C1081 H1074 0.950 . S
C1081 C1078 1.360 1_655 S
C1082 C1083 1.387 . S
C1082 H1086 0.950 . S
C1082 C1091 1.390 . S
C1083 C1082 1.387 . S
C1083 C1085 1.387 . S
H1084 C1091 0.950 . S
C1085 C1083 1.387 . S
C1085 C1087 1.390 . S
C1085 H1089 0.950 . S
H1086 C1082 0.950 . S
C1087 C1085 1.390 . S
C1087 C1088 1.387 . S
C1087 H1090 0.950 . S
C1088 C1087 1.387 . S
C1088 C1091 1.387 . S
H1089 C1085 0.950 . S
H1090 C1087 0.950 . S
C1091 C1082 1.390 . S
C1091 H1084 0.950 . S
C1091 C1088 1.387 . S
C1092 C1093 1.387 . S
C1092 H1096 0.950 . S
C1092 C1101 1.390 . S
C1093 C1092 1.387 . S
C1093 C1095 1.387 . S
H1094 C1101 0.950 . S
C1095 C1093 1.387 . S
C1095 C1097 1.390 . S
C1095 H1099 0.950 . S
H1096 C1092 0.950 . S
C1097 C1095 1.390 . S
C1097 C1098 1.387 . S
C1097 H1100 0.950 . S
C1098 C1097 1.387 . S
C1098 C1101 1.387 . S
H1099 C1095 0.950 . S
H1100 C1097 0.950 . S
C1101 C1092 1.390 . S
C1101 H1094 0.950 . S
C1101 C1098 1.387 . S
C1102 C1103 1.387 . S
C1102 H1106 0.950 . S
C1102 C1111 1.390 . S
C1103 C1102 1.387 . S
C1103 C1105 1.387 . S
H1104 C1111 0.950 . S
C1105 C1103 1.387 . S
C1105 C1107 1.390 . S
C1105 H1109 0.950 . S
H1106 C1102 0.950 . S
C1107 C1105 1.390 . S
C1107 C1108 1.387 . S
C1107 H1110 0.950 . S
C1108 C1107 1.387 . S
C1108 C1111 1.387 . S
H1109 C1105 0.950 . S
H1110 C1107 0.950 . S
C1111 C1102 1.390 . S
C1111 H1104 0.950 . S
C1111 C1108 1.387 . S
C1112 C1113 1.387 . S
C1112 H1116 0.950 . S
C1112 C1121 1.390 . S
C1113 C1112 1.387 . S
C1113 C1115 1.387 . S
H1114 C1121 0.950 . S
C1115 C1113 1.387 . S
C1115 C1117 1.390 . S
C1115 H1119 0.950 . S
H1116 C1112 0.950 . S
C1117 C1115 1.390 . S
C1117 C1118 1.387 . S
C1117 H1120 0.950 . S
C1118 C1117 1.387 . S
C1118 C1121 1.387 . S
H1119 C1115 0.950 . S
H1120 C1117 0.950 . S
C1121 C1112 1.390 . S
C1121 H1114 0.950 . S
C1121 C1118 1.387 . S
C1122 C1123 1.387 . S
C1122 H1126 0.950 . S
C1122 C1131 1.390 . S
C1123 C1122 1.387 . S
C1123 C1125 1.387 . S
H1124 C1131 0.950 . S
C1125 C1123 1.387 . S
C1125 C1127 1.390 . S
C1125 H1129 0.950 . S
H1126 C1122 0.950 . S
C1127 C1125 1.390 . S
C1127 C1128 1.387 . S
C1127 H1130 0.950 . S
C1128 C1127 1.387 . S
C1128 C1131 1.387 . S
H1129 C1125 0.950 . S
H1130 C1127 0.950 . S
C1131 C1122 1.390 . S
C1131 H1124 0.950 . S
C1131 C1128 1.387 . S
C1132 C1133 1.387 . S
C1132 H1136 0.950 . S
C1132 C1141 1.390 . S
C1133 C1132 1.387 . S
C1133 C1135 1.387 . S
H1134 C1141 0.950 . S
C1135 C1133 1.387 . S
C1135 C1137 1.390 . S
C1135 H1139 0.950 . S
H1136 C1132 0.950 . S
C1137 C1135 1.390 . S
C1137 C1138 1.387 . S
C1137 H1140 0.950 . S
C1138 C1137 1.387 . S
C1138 C1141 1.387 . S
H1139 C1135 0.950 . S
H1140 C1137 0.950 . S
C1141 C1132 1.390 . S
C1141 H1134 0.950 . S
C1141 C1138 1.387 . S
C1142 C1143 1.387 . S
C1142 H1146 0.950 . S
C1142 C1151 1.390 . S
C1143 C1142 1.387 . S
C1143 C1145 1.387 . S
H1144 C1151 0.950 . S
C1145 C1143 1.387 . S
C1145 C1147 1.390 . S
C1145 H1149 0.950 . S
H1146 C1142 0.950 . S
C1147 C1145 1.390 . S
C1147 C1148 1.387 . S
C1147 H1150 0.950 . S
C1148 C1147 1.387 . S
C1148 C1151 1.387 . S
H1149 C1145 0.950 . S
H1150 C1147 0.950 . S
C1151 C1142 1.390 . S
C1151 H1144 0.950 . S
C1151 C1148 1.387 . S
C1152 C1153 1.387 . S
C1152 H1156 0.950 . S
C1152 C1161 1.390 . S
C1153 C1152 1.387 . S
C1153 C1155 1.387 . S
H1154 C1161 0.950 . S
C1155 C1153 1.387 . S
C1155 C1157 1.390 . S
C1155 H1159 0.950 . S
H1156 C1152 0.950 . S
C1157 C1155 1.390 . S
C1157 C1158 1.387 . S
C1157 H1160 0.950 . S
C1158 C1157 1.387 . S
C1158 C1161 1.387 . S
H1159 C1155 0.950 . S
H1160 C1157 0.950 . S
C1161 C1152 1.390 . S
C1161 H1154 0.950 . S
C1161 C1158 1.387 . S
C1162 C1163 1.387 . S
C1162 H1166 0.950 . S
C1162 C1171 1.390 . S
C1163 C1162 1.387 . S
C1163 C1165 1.387 . S
H1164 C1171 0.950 . S
C1165 C1163 1.387 . S
C1165 C1167 1.390 . S
C1165 H1169 0.950 . S
H1166 C1162 0.950 . S
C1167 C1165 1.390 . S
C1167 C1168 1.387 . S
C1167 H1170 0.950 . S
C1168 C1167 1.387 . S
C1168 C1171 1.387 . S
H1169 C1165 0.950 . S
H1170 C1167 0.950 . S
C1171 C1162 1.390 . S
C1171 H1164 0.950 . S
C1171 C1168 1.387 . S
C1172 C1173 1.387 . S
C1172 H1176 0.950 . S
C1172 C1181 1.390 . S
C1173 C1172 1.387 . S
C1173 C1175 1.387 . S
H1174 C1181 0.950 . S
C1175 C1173 1.387 . S
C1175 C1177 1.390 . S
C1175 H1179 0.950 . S
H1176 C1172 0.950 . S
C1177 C1175 1.390 . S
C1177 C1178 1.387 . S
C1177 H1180 0.950 . S
C1178 C1177 1.387 . S
C1178 C1181 1.387 . S
H1179 C1175 0.950 . S
H1180 C1177 0.950 . S
C1181 C1172 1.390 . S
C1181 H1174 0.950 . S
C1181 C1178 1.387 . S
C1182 C1183 1.387 . S
C1182 H1186 0.950 . S
C1182 C1191 1.390 . S
C1183 C1182 1.387 . S
C1183 C1185 1.387 . S
H1184 C1191 0.950 . S
C1185 C1183 1.387 . S
C1185 C1187 1.390 . S
C1185 H1189 0.950 . S
H1186 C1182 0.950 . S
C1187 C1185 1.390 . S
C1187 C1188 1.387 . S
C1187 H1190 0.950 . S
C1188 C1187 1.387 . S
C1188 C1191 1.387 . S
H1189 C1185 0.950 . S
H1190 C1187 0.950 . S
C1191 C1182 1.390 . S
C1191 H1184 0.950 . S
C1191 C1188 1.387 . S
C1192 C1193 1.387 . S
C1192 H1196 0.950 . S
C1192 C1201 1.390 . S
C1193 C1192 1.387 . S
C1193 C1195 1.387 . S
H1194 C1201 0.950 . S
C1195 C1193 1.387 . S
C1195 C1197 1.390 . S
C1195 H1199 0.950 . S
H1196 C1192 0.950 . S
C1197 C1195 1.390 . S
C1197 C1198 1.387 . S
C1197 H1200 0.950 . S
C1198 C1197 1.387 . S
C1198 C1201 1.387 . S
H1199 C1195 0.950 . S
H1200 C1197 0.950 . S
C1201 C1192 1.390 . S
C1201 H1194 0.950 . S
C1201 C1198 1.387 . S
C1202 C1203 1.387 . S
C1202 H1206 0.950 . S
C1202 C1211 1.390 . S
C1203 C1202 1.387 . S
C1203 C1205 1.387 . S
H1204 C1211 0.950 . S
C1205 C1203 1.387 . S
C1205 C1207 1.390 . S
C1205 H1209 0.950 . S
H1206 C1202 0.950 . S
C1207 C1205 1.390 . S
C1207 C1208 1.387 . S
C1207 H1210 0.950 . S
C1208 C1207 1.387 . S
C1208 C1211 1.387 . S
H1209 C1205 0.950 . S
H1210 C1207 0.950 . S
C1211 C1202 1.390 . S
C1211 H1204 0.950 . S
C1211 C1208 1.387 . S
C1212 C1213 1.387 . S
C1212 H1216 0.950 . S
C1212 C1221 1.390 . S
C1213 C1212 1.387 . S
C1213 C1215 1.387 . S
H1214 C1221 0.950 . S
C1215 C1213 1.387 . S
C1215 C1217 1.390 . S
C1215 H1219 0.950 . S
H1216 C1212 0.950 . S
C1217 C1215 1.390 . S
C1217 C1218 1.387 . S
C1217 H1220 0.950 . S
C1218 C1217 1.387 . S
C1218 C1221 1.387 . S
H1219 C1215 0.950 . S
H1220 C1217 0.950 . S
C1221 C1212 1.390 . S
C1221 H1214 0.950 . S
C1221 C1218 1.387 . S
C1222 C1223 1.387 . S
C1222 H1226 0.950 . S
C1222 C1231 1.390 . S
C1223 C1222 1.387 . S
C1223 C1225 1.387 . S
H1224 C1231 0.950 . S
C1225 C1223 1.387 . S
C1225 C1227 1.390 . S
C1225 H1229 0.950 . S
H1226 C1222 0.950 . S
C1227 C1225 1.390 . S
C1227 C1228 1.387 . S
C1227 H1230 0.950 . S
C1228 C1227 1.387 . S
C1228 C1231 1.387 . S
H1229 C1225 0.950 . S
H1230 C1227 0.950 . S
C1231 C1222 1.390 . S
C1231 H1224 0.950 . S
C1231 C1228 1.387 . S
C1232 C1233 1.387 . S
C1232 H1236 0.950 . S
C1232 C1241 1.390 . S
C1233 C1232 1.387 . S
C1233 C1235 1.387 . S
H1234 C1241 0.950 . S
C1235 C1233 1.387 . S
C1235 C1237 1.390 . S
C1235 H1239 0.950 . S
H1236 C1232 0.950 . S
C1237 C1235 1.390 . S
C1237 C1238 1.387 . S
C1237 H1240 0.950 . S
C1238 C1237 1.387 . S
C1238 C1241 1.387 . S
H1239 C1235 0.950 . S
H1240 C1237 0.950 . S
C1241 C1232 1.390 . S
C1241 H1234 0.950 . S
C1241 C1238 1.387 . S
C1242 C1243 1.387 . S
C1242 H1246 0.950 . S
C1242 C1251 1.390 . S
C1243 C1242 1.387 . S
C1243 C1245 1.387 . S
H1244 C1251 0.950 . S
C1245 C1243 1.387 . S
C1245 C1247 1.390 . S
C1245 H1249 0.950 . S
H1246 C1242 0.950 . S
C1247 C1245 1.390 . S
C1247 C1248 1.387 . S
C1247 H1250 0.950 . S
C1248 C1247 1.387 . S
C1248 C1251 1.387 . S
H1249 C1245 0.950 . S
H1250 C1247 0.950 . S
C1251 C1242 1.390 . S
C1251 H1244 0.950 . S
C1251 C1248 1.387 . S
C1252 C1253 1.387 . S
C1252 H1256 0.950 . S
C1252 C1261 1.390 . S
C1253 C1252 1.387 . S
C1253 C1255 1.387 . S
H1254 C1261 0.950 . S
C1255 C1253 1.387 . S
C1255 C1257 1.390 . S
C1255 H1259 0.950 . S
H1256 C1252 0.950 . S
C1257 C1255 1.390 . S
C1257 C1258 1.387 . S
C1257 H1260 0.950 . S
C1258 C1257 1.387 . S
C1258 C1261 1.387 . S
H1259 C1255 0.950 . S
H1260 C1257 0.950 . S
C1261 C1252 1.390 . S
C1261 H1254 0.950 . S
C1261 C1258 1.387 . S
C1262 C1263 1.387 . S
C1262 H1266 0.950 . S
C1262 C1271 1.390 . S
C1263 C1262 1.387 . S
C1263 C1265 1.387 . S
H1264 C1271 0.950 . S
C1265 C1263 1.387 . S
C1265 C1267 1.390 . S
C1265 H1269 0.950 . S
H1266 C1262 0.950 . S
C1267 C1265 1.390 . S
C1267 C1268 1.387 . S
C1267 H1270 0.950 . S
C1268 C1267 1.387 . S
C1268 C1271 1.387 . S
H1269 C1265 0.950 . S
H1270 C1267 0.950 . S
C1271 C1262 1.390 . S
C1271 H1264 0.950 . S
C1271 C1268 1.387 . S
C1272 C1273 1.387 . S
C1272 H1276 0.950 . S
C1272 C1281 1.390 . S
C1273 C1272 1.387 . S
C1273 C1275 1.387 . S
H1274 C1281 0.950 . S
C1275 C1273 1.387 . S
C1275 C1277 1.390 . S
C1275 H1279 0.950 . S
H1276 C1272 0.950 . S
C1277 C1275 1.390 . S
C1277 C1278 1.387 . S
C1277 H1280 0.950 . S
C1278 C1277 1.387 . S
C1278 C1281 1.387 . S
H1279 C1275 0.950 . S
H1280 C1277 0.950 . S
C1281 C1272 1.390 . S
C1281 H1274 0.950 . S
C1281 C1278 1.387 . S
C1282 C1283 1.387 . S
C1282 H1286 0.950 . S
C1282 C1291 1.390 . S
C1283 C1282 1.387 . S
C1283 C1285 1.387 . S
H1284 C1291 0.950 . S
C1285 C1283 1.387 . S
C1285 C1287 1.390 . S
C1285 H1289 0.950 . S
H1286 C1282 0.950 . S
C1287 C1285 1.390 . S
C1287 C1288 1.387 . S
C1287 H1290 0.950 . S
C1288 C1287 1.387 . S
C1288 C1291 1.387 . S
H1289 C1285 0.950 . S
H1290 C1287 0.950 . S
C1291 C1282 1.390 . S
C1291 H1284 0.950 . S
C1291 C1288 1.387 . S
C1292 C1293 1.387 . S
C1292 H1296 0.950 . S
C1292 C1301 1.390 . S
C1293 C1292 1.387 . S
C1293 C1295 1.387 . S
H1294 C1301 0.950 . S
C1295 C1293 1.387 . S
C1295 C1297 1.390 . S
C1295 H1299 0.950 . S
H1296 C1292 0.950 . S
C1297 C1295 1.390 . S
C1297 C1298 1.387 . S
C1297 H1300 0.950 . S
C1298 C1297 1.387 . S
C1298 C1301 1.387 . S
H1299 C1295 0.950 . S
H1300 C1297 0.950 . S
C1301 C1292 1.390 . S
C1301 H1294 0.950 . S
C1301 C1298 1.387 . S
C1302 C1303 1.387 . S
C1302 H1306 0.950 . S
C1302 C1311 1.390 . S
C1303 C1302 1.387 . S
C1303 C1305 1.387 . S
H1304 C1311 0.950 . S
C1305 C1303 1.387 . S
C1305 C1307 1.390 . S
C1305 H1309 0.950 . S
H1306 C1302 0.950 . S
C1307 C1305 1.390 . S
C1307 C1308 1.387 . S
C1307 H1310 0.950 . S
C1308 C1307 1.387 . S
C1308 C1311 1.387 . S
H1309 C1305 0.950 . S
H1310 C1307 0.950 . S
C1311 C1302 1.390 . S
C1311 H1304 0.950 . S
C1311 C1308 1.387 . S
C1312 C1313 1.387 . S
C1312 H1316 0.950 . S
C1312 C1321 1.390 . S
C1313 C1312 1.387 . S
C1313 C1315 1.387 . S
H1314 C1321 0.950 . S
C1315 C1313 1.387 . S
C1315 C1317 1.390 . S
C1315 H1319 0.950 . S
H1316 C1312 0.950 . S
C1317 C1315 1.390 . S
C1317 C1318 1.387 . S
C1317 H1320 0.950 . S
C1318 C1317 1.387 . S
C1318 C1321 1.387 . S
H1319 C1315 0.950 . S
H1320 C1317 0.950 . S
C1321 C1312 1.390 . S
C1321 H1314 0.950 . S
C1321 C1318 1.387 . S
C1322 C1323 1.387 . S
C1322 H1326 0.950 . S
C1322 C1331 1.390 . S
C1323 C1322 1.387 . S
C1323 C1325 1.387 . S
H1324 C1331 0.950 . S
C1325 C1323 1.387 . S
C1325 C1327 1.390 . S
C1325 H1329 0.950 . S
H1326 C1322 0.950 . S
C1327 C1325 1.390 . S
C1327 C1328 1.387 . S
C1327 H1330 0.950 . S
C1328 C1327 1.387 . S
C1328 C1331 1.387 . S
H1329 C1325 0.950 . S
H1330 C1327 0.950 . S
C1331 C1322 1.390 . S
C1331 H1324 0.950 . S
C1331 C1328 1.387 . S
C1332 C1333 1.387 . S
C1332 H1336 0.950 . S
C1332 C1341 1.390 . S
C1333 C1332 1.387 . S
C1333 C1335 1.387 . S
H1334 C1341 0.950 . S
C1335 C1333 1.387 . S
C1335 C1337 1.390 . S
C1335 H1339 0.950 . S
H1336 C1332 0.950 . S
C1337 C1335 1.390 . S
C1337 C1338 1.387 . S
C1337 H1340 0.950 . S
C1338 C1337 1.387 . S
C1338 C1341 1.387 . S
H1339 C1335 0.950 . S
H1340 C1337 0.950 . S
C1341 C1332 1.390 . S
C1341 H1334 0.950 . S
C1341 C1338 1.387 . S
C1342 C1343 1.387 . S
C1342 H1346 0.950 . S
C1342 C1351 1.390 . S
C1343 C1342 1.387 . S
C1343 C1345 1.387 . S
H1344 C1351 0.950 . S
C1345 C1343 1.387 . S
C1345 C1347 1.390 . S
C1345 H1349 0.950 . S
H1346 C1342 0.950 . S
C1347 C1345 1.390 . S
C1347 C1348 1.387 . S
C1347 H1350 0.950 . S
C1348 C1347 1.387 . S
C1348 C1351 1.387 . S
H1349 C1345 0.950 . S
H1350 C1347 0.950 . S
C1351 C1342 1.390 . S
C1351 H1344 0.950 . S
C1351 C1348 1.387 . S
C1352 C1353 1.387 . S
C1352 H1356 0.950 . S
C1352 C1361 1.390 . S
C1353 C1352 1.387 . S
C1353 C1355 1.387 . S
H1354 C1361 0.950 . S
C1355 C1353 1.387 . S
C1355 C1357 1.390 . S
C1355 H1359 0.950 . S
H1356 C1352 0.950 . S
C1357 C1355 1.390 . S
C1357 C1358 1.387 . S
C1357 H1360 0.950 . S
C1358 C1357 1.387 . S
C1358 C1361 1.387 . S
H1359 C1355 0.950 . S
H1360 C1357 0.950 . S
C1361 C1352 1.390 . S
C1361 H1354 0.950 . S
C1361 C1358 1.387 . S
C1362 C1363 1.387 . S
C1362 H1366 0.950 . S
C1362 C1371 1.390 . S
C1363 C1362 1.387 . S
C1363 C1365 1.387 . S
H1364 C1371 0.950 . S
C1365 C1363 1.387 . S
C1365 C1367 1.390 . S
C1365 H1369 0.950 1_556 S
H1366 C1362 0.950 . S
C1367 C1365 1.390 . S
C1367 C1368 1.387 . S
C1367 H1370 0.950 . S
C1368 C1367 1.387 . S
C1368 C1371 1.387 . S
H1369 C1365 0.950 1_554 S
H1370 C1367 0.950 . S
C1371 C1362 1.390 . S
C1371 H1364 0.950 . S
C1371 C1368 1.387 . S
C1372 C1373 1.387 . S
C1372 H1376 0.950 . S
C1372 C1381 1.390 . S
C1373 C1372 1.387 . S
C1373 C1375 1.387 . S
H1374 C1381 0.950 . S
C1375 C1373 1.387 . S
C1375 C1377 1.390 . S
C1375 H1379 0.950 1_556 S
H1376 C1372 0.950 . S
C1377 C1375 1.390 . S
C1377 C1378 1.387 . S
C1377 H1380 0.950 . S
C1378 C1377 1.387 . S
C1378 C1381 1.387 . S
H1379 C1375 0.950 1_554 S
H1380 C1377 0.950 . S
C1381 C1372 1.390 . S
C1381 H1374 0.950 . S
C1381 C1378 1.387 . S
C1382 C1383 1.387 . S
C1382 H1386 0.950 . S
C1382 C1391 1.390 . S
C1383 C1382 1.387 . S
C1383 C1385 1.387 . S
H1384 C1391 0.950 . S
C1385 C1383 1.387 . S
C1385 C1387 1.390 . S
C1385 H1389 0.950 . S
H1386 C1382 0.950 . S
C1387 C1385 1.390 . S
C1387 C1388 1.387 . S
C1387 H1390 0.950 . S
C1388 C1387 1.387 . S
C1388 C1391 1.387 . S
H1389 C1385 0.950 . S
H1390 C1387 0.950 . S
C1391 C1382 1.390 . S
C1391 H1384 0.950 . S
C1391 C1388 1.387 . S
C1392 C1393 1.387 . S
C1392 H1396 0.950 . S
C1392 C1401 1.390 . S
C1393 C1392 1.387 . S
C1393 C1395 1.387 . S
H1394 C1401 0.950 . S
C1395 C1393 1.387 . S
C1395 C1397 1.390 . S
C1395 H1399 0.950 . S
H1396 C1392 0.950 . S
C1397 C1395 1.390 . S
C1397 C1398 1.387 . S
C1397 H1400 0.950 . S
C1398 C1397 1.387 . S
C1398 C1401 1.387 . S
H1399 C1395 0.950 . S
H1400 C1397 0.950 . S
C1401 C1392 1.390 . S
C1401 H1394 0.950 . S
C1401 C1398 1.387 . S
C1402 C1403 1.387 . S
C1402 H1406 0.950 1_556 S
C1402 C1411 1.390 . S
C1403 C1402 1.387 . S
C1403 C1405 1.387 . S
H1404 C1411 0.950 . S
C1405 C1403 1.387 . S
C1405 C1407 1.390 . S
C1405 H1409 0.950 . S
H1406 C1402 0.950 1_554 S
C1407 C1405 1.390 . S
C1407 C1408 1.387 . S
C1407 H1410 0.950 . S
C1408 C1407 1.387 . S
C1408 C1411 1.387 . S
H1409 C1405 0.950 . S
H1410 C1407 0.950 . S
C1411 C1402 1.390 . S
C1411 H1404 0.950 . S
C1411 C1408 1.387 . S
C1412 C1413 1.387 . S
C1412 H1416 0.950 . S
C1412 C1421 1.390 . S
C1413 C1412 1.387 . S
C1413 C1415 1.387 . S
H1414 C1421 0.950 . S
C1415 C1413 1.387 . S
C1415 C1417 1.390 . S
C1415 H1419 0.950 1_556 S
H1416 C1412 0.950 . S
C1417 C1415 1.390 . S
C1417 C1418 1.387 . S
C1417 H1420 0.950 . S
C1418 C1417 1.387 . S
C1418 C1421 1.387 . S
H1419 C1415 0.950 1_554 S
H1420 C1417 0.950 . S
C1421 C1412 1.390 . S
C1421 H1414 0.950 . S
C1421 C1418 1.387 . S
C1422 C1423 1.387 . S
C1422 H1426 0.950 . S
C1422 C1431 1.390 . S
C1423 C1422 1.387 . S
C1423 C1425 1.387 . S
H1424 C1431 0.950 . S
C1425 C1423 1.387 . S
C1425 C1427 1.390 . S
C1425 H1429 0.950 . S
H1426 C1422 0.950 . S
C1427 C1425 1.390 . S
C1427 C1428 1.387 . S
C1427 H1430 0.950 . S
C1428 C1427 1.387 . S
C1428 C1431 1.387 . S
H1429 C1425 0.950 . S
H1430 C1427 0.950 . S
C1431 C1422 1.390 . S
C1431 H1424 0.950 . S
C1431 C1428 1.387 . S
C1432 C1433 1.387 . S
C1432 H1436 0.924 1_554 S
C1432 C1441 1.390 . S
C1433 C1432 1.387 . S
C1433 C1435 1.387 . S
H1434 C1441 0.950 . S
C1435 C1433 1.387 . S
C1435 C1437 1.390 . S
C1435 H1439 0.950 . S
H1436 C1432 0.924 1_556 S
C1437 C1435 1.390 . S
C1437 C1438 1.387 . S
C1437 H1440 0.950 . S
C1438 C1437 1.387 . S
C1438 C1441 1.387 . S
H1439 C1435 0.950 . S
H1440 C1437 0.950 . S
C1441 C1432 1.390 . S
C1441 H1434 0.950 . S
C1441 C1438 1.387 . S
C1442 C1443 1.387 . S
C1442 H1446 0.950 . S
C1442 C1451 1.390 . S
C1443 C1442 1.387 . S
C1443 C1445 1.387 . S
H1444 C1451 0.950 . S
C1445 C1443 1.387 . S
C1445 C1447 1.390 . S
C1445 H1449 0.950 . S
H1446 C1442 0.950 . S
C1447 C1445 1.390 . S
C1447 C1448 1.387 . S
C1447 H1450 0.950 . S
C1448 C1447 1.387 . S
C1448 C1451 1.387 . S
H1449 C1445 0.950 . S
H1450 C1447 0.950 . S
C1451 C1442 1.390 . S
C1451 H1444 0.950 . S
C1451 C1448 1.387 . S
C1452 C1453 1.387 . S
C1452 H1456 0.950 . S
C1452 C1461 1.390 . S
C1453 C1452 1.387 . S
C1453 C1455 1.387 . S
H1454 C1461 0.950 . S
C1455 C1453 1.387 . S
C1455 C1457 1.390 . S
C1455 H1459 0.950 . S
H1456 C1452 0.950 . S
C1457 C1455 1.390 . S
C1457 C1458 1.387 . S
C1457 H1460 0.950 . S
C1458 C1457 1.387 . S
C1458 C1461 1.387 . S
H1459 C1455 0.950 . S
H1460 C1457 0.950 . S
C1461 C1452 1.390 . S
C1461 H1454 0.950 . S
C1461 C1458 1.387 . S
C1462 C1463 1.387 . S
C1462 H1466 0.950 . S
C1462 C1471 1.390 . S
C1463 C1462 1.387 . S
C1463 C1465 1.387 . S
H1464 C1471 0.950 . S
C1465 C1463 1.387 . S
C1465 C1467 1.390 . S
C1465 H1469 0.950 . S
H1466 C1462 0.950 . S
C1467 C1465 1.390 . S
C1467 C1468 1.387 . S
C1467 H1470 0.950 . S
C1468 C1467 1.387 . S
C1468 C1471 1.387 . S
H1469 C1465 0.950 . S
H1470 C1467 0.950 . S
C1471 C1462 1.390 . S
C1471 H1464 0.950 . S
C1471 C1468 1.387 . S
C1472 C1473 1.387 . S
C1472 H1476 0.950 . S
C1472 C1481 1.390 . S
C1473 C1472 1.387 . S
C1473 C1475 1.387 . S
H1474 C1481 0.950 . S
C1475 C1473 1.387 . S
C1475 C1477 1.390 . S
C1475 H1479 0.950 . S
H1476 C1472 0.950 . S
C1477 C1475 1.390 . S
C1477 C1478 1.387 . S
C1477 H1480 0.950 . S
C1478 C1477 1.387 . S
C1478 C1481 1.387 . S
H1479 C1475 0.950 . S
H1480 C1477 0.950 . S
C1481 C1472 1.390 . S
C1481 H1474 0.950 . S
C1481 C1478 1.387 . S
C1482 C1483 1.387 . S
C1482 H1486 0.950 . S
C1482 C1491 1.390 . S
C1483 C1482 1.387 . S
C1483 C1485 1.387 . S
H1484 C1491 0.950 . S
C1485 C1483 1.387 . S
C1485 C1487 1.390 . S
C1485 H1489 0.950 . S
H1486 C1482 0.950 . S
C1487 C1485 1.390 . S
C1487 C1488 1.387 . S
C1487 H1490 0.950 . S
C1488 C1487 1.387 . S
C1488 C1491 1.387 . S
H1489 C1485 0.950 . S
H1490 C1487 0.950 . S
C1491 C1482 1.390 . S
C1491 H1484 0.950 . S
C1491 C1488 1.387 . S
C1492 C1493 1.387 . S
C1492 H1496 0.950 . S
C1492 C1501 1.390 . S
C1493 C1492 1.387 . S
C1493 C1495 1.387 . S
H1494 C1501 0.950 . S
C1495 C1493 1.387 . S
C1495 C1497 1.390 . S
C1495 H1499 0.950 . S
H1496 C1492 0.950 . S
C1497 C1495 1.390 . S
C1497 C1498 1.387 . S
C1497 H1500 0.950 . S
C1498 C1497 1.387 . S
C1498 C1501 1.387 . S
H1499 C1495 0.950 . S
H1500 C1497 0.950 . S
C1501 C1492 1.390 . S
C1501 H1494 0.950 . S
C1501 C1498 1.387 . S
C1502 C1503 1.387 . S
C1502 H1506 0.950 . S
C1502 C1511 1.390 . S
C1503 C1502 1.387 . S
C1503 C1505 1.387 1_565 S
H1504 C1511 0.950 . S
C1505 C1503 1.387 1_545 S
C1505 C1507 1.390 . S
C1505 H1509 0.950 . S
H1506 C1502 0.950 . S
C1507 C1505 1.390 . S
C1507 C1508 1.387 1_545 S
C1507 H1510 0.950 . S
C1508 C1507 1.387 1_565 S
C1508 C1511 1.387 . S
H1509 C1505 0.950 . S
H1510 C1507 0.950 . S
C1511 C1502 1.390 . S
C1511 H1504 0.950 . S
C1511 C1508 1.387 . S
C1512 C1513 1.387 1_545 S
C1512 H1516 0.950 . S
C1512 C1521 1.390 . S
C1513 C1512 1.387 1_565 S
C1513 C1515 1.387 . S
H1514 C1521 0.950 . S
C1515 C1513 1.387 . S
C1515 C1517 1.390 . S
C1515 H1519 0.950 . S
H1516 C1512 0.950 . S
C1517 C1515 1.390 . S
C1517 C1518 1.409 . S
C1517 H1520 0.950 . S
C1518 C1517 1.409 . S
C1518 C1521 1.377 1_565 S
H1519 C1515 0.950 . S
H1520 C1517 0.950 . S
C1521 C1512 1.390 . S
C1521 H1514 0.950 . S
C1521 C1518 1.377 1_545 S
C1522 C1523 1.387 . S
C1522 H1526 0.950 . S
C1522 C1531 1.390 . S
C1523 C1522 1.387 . S
C1523 C1525 1.387 . S
H1524 C1531 0.950 . S
C1525 C1523 1.387 . S
C1525 C1527 1.390 1_455 S
C1525 H1529 0.950 1_455 S
H1526 C1522 0.950 . S
C1527 C1525 1.390 1_655 S
C1527 C1528 1.387 1_655 S
C1527 H1530 0.950 . S
C1528 C1527 1.387 1_455 S
C1528 C1531 1.387 . S
H1529 C1525 0.950 1_655 S
H1530 C1527 0.950 . S
C1531 C1522 1.390 . S
C1531 H1524 0.950 . S
C1531 C1528 1.387 . S
C1532 C1533 1.387 . S
C1532 H1536 0.950 . S
C1532 C1541 1.390 . S
C1533 C1532 1.387 . S
C1533 C1535 1.387 . S
H1534 C1541 0.950 . S
C1535 C1533 1.387 . S
C1535 C1537 1.390 . S
C1535 H1539 0.950 . S
H1536 C1532 0.950 . S
C1537 C1535 1.390 . S
C1537 C1538 1.387 . S
C1537 H1540 0.950 . S
C1538 C1537 1.387 . S
C1538 C1541 1.387 . S
H1539 C1535 0.950 . S
H1540 C1537 0.950 . S
C1541 C1532 1.390 . S
C1541 H1534 0.950 . S
C1541 C1538 1.387 . S
C1542 C1543 1.387 . S
C1542 H1546 0.950 . S
C1542 C1551 1.390 . S
C1543 C1542 1.387 . S
C1543 C1545 1.387 . S
H1544 C1551 0.950 . S
C1545 C1543 1.387 . S
C1545 C1547 1.390 . S
C1545 H1549 0.950 . S
H1546 C1542 0.950 . S
C1547 C1545 1.390 . S
C1547 C1548 1.387 . S
C1547 H1550 0.950 . S
C1548 C1547 1.387 . S
C1548 C1551 1.387 . S
H1549 C1545 0.950 . S
H1550 C1547 0.950 . S
C1551 C1542 1.390 . S
C1551 H1544 0.950 . S
C1551 C1548 1.387 . S
C1552 C1553 1.387 . S
C1552 H1556 0.950 . S
C1552 C1561 1.390 . S
C1553 C1552 1.387 . S
C1553 C1555 1.387 . S
H1554 C1561 0.950 . S
C1555 C1553 1.387 . S
C1555 C1557 1.390 . S
C1555 H1559 0.950 . S
H1556 C1552 0.950 . S
C1557 C1555 1.390 . S
C1557 C1558 1.387 . S
C1557 H1560 0.950 . S
C1558 C1557 1.387 . S
C1558 C1561 1.387 . S
H1559 C1555 0.950 . S
H1560 C1557 0.950 . S
C1561 C1552 1.390 . S
C1561 H1554 0.950 . S
C1561 C1558 1.387 . S
C1562 C1563 1.387 . S
C1562 H1566 0.950 . S
C1562 C1571 1.390 . S
C1563 C1562 1.387 . S
C1563 C1565 1.387 . S
H1564 C1571 0.950 . S
C1565 C1563 1.387 . S
C1565 C1567 1.390 . S
C1565 H1569 0.950 . S
H1566 C1562 0.950 . S
C1567 C1565 1.390 . S
C1567 C1568 1.387 . S
C1567 H1570 0.950 . S
C1568 C1567 1.387 . S
C1568 C1571 1.387 . S
H1569 C1565 0.950 . S
H1570 C1567 0.950 . S
C1571 C1562 1.390 . S
C1571 H1564 0.950 . S
C1571 C1568 1.387 . S
C1572 C1573 1.387 . S
C1572 H1576 0.950 . S
C1572 C1581 1.390 . S
C1573 C1572 1.387 . S
C1573 C1575 1.387 1_545 S
H1574 C1581 0.950 . S
C1575 C1573 1.387 1_565 S
C1575 C1577 1.390 . S
C1575 H1579 0.950 . S
H1576 C1572 0.950 . S
C1577 C1575 1.390 . S
C1577 C1578 1.387 1_565 S
C1577 H1580 0.950 . S
C1578 C1577 1.387 1_545 S
C1578 C1581 1.387 . S
H1579 C1575 0.950 . S
H1580 C1577 0.950 . S
C1581 C1572 1.390 . S
C1581 H1574 0.950 . S
C1581 C1578 1.387 . S
C1582 C1583 1.387 . S
C1582 H1586 0.948 1_655 S
C1582 C1591 1.390 . S
C1583 C1582 1.387 . S
C1583 C1585 1.387 . S
H1584 C1591 0.950 1_455 S
C1585 C1583 1.387 . S
C1585 C1587 1.390 . S
C1585 H1589 0.950 . S
H1586 C1582 0.948 1_455 S
C1587 C1585 1.390 . S
C1587 C1588 1.387 . S
C1587 H1590 0.950 . S
C1588 C1587 1.387 . S
C1588 C1591 1.387 . S
H1589 C1585 0.950 . S
H1590 C1587 0.950 . S
C1591 C1582 1.390 . S
C1591 H1584 0.950 1_655 S
C1591 C1588 1.387 . S
C1592 C1593 1.387 . S
C1592 H1596 0.950 . S
C1592 C1601 1.390 . S
C1593 C1592 1.387 . S
C1593 C1595 1.387 . S
H1594 C1601 0.950 . S
C1595 C1593 1.387 . S
C1595 C1597 1.390 . S
C1595 H1599 0.950 . S
H1596 C1592 0.950 . S
C1597 C1595 1.390 . S
C1597 C1598 1.387 . S
C1597 H1600 0.950 . S
C1598 C1597 1.387 . S
C1598 C1601 1.387 . S
H1599 C1595 0.950 . S
H1600 C1597 0.950 . S
C1601 C1592 1.390 . S
C1601 H1594 0.950 . S
C1601 C1598 1.387 . S
C1602 C1603 1.387 . S
C1602 H1606 0.950 . S
C1602 C1611 1.390 . S
C1603 C1602 1.387 . S
C1603 C1605 1.387 . S
H1604 C1611 0.950 . S
C1605 C1603 1.387 . S
C1605 C1607 1.390 . S
C1605 H1609 0.950 . S
H1606 C1602 0.950 . S
C1607 C1605 1.390 . S
C1607 C1608 1.387 . S
C1607 H1610 0.950 . S
C1608 C1607 1.387 . S
C1608 C1611 1.387 . S
H1609 C1605 0.950 . S
H1610 C1607 0.950 . S
C1611 C1602 1.390 . S
C1611 H1604 0.950 . S
C1611 C1608 1.387 . S
C1612 C1613 1.387 . S
C1612 H1616 0.950 . S
C1612 C1621 1.390 . S
C1613 C1612 1.387 . S
C1613 C1615 1.387 . S
H1614 C1621 0.950 . S
C1615 C1613 1.387 . S
C1615 C1617 1.390 . S
C1615 H1619 0.950 . S
H1616 C1612 0.950 . S
C1617 C1615 1.390 . S
C1617 C1618 1.387 . S
C1617 H1620 0.950 . S
C1618 C1617 1.387 . S
C1618 C1621 1.387 . S
H1619 C1615 0.950 . S
H1620 C1617 0.950 . S
C1621 C1612 1.390 . S
C1621 H1614 0.950 . S
C1621 C1618 1.387 . S
C1622 C1623 1.387 . S
C1622 H1626 0.950 . S
C1622 C1631 1.390 . S
C1623 C1622 1.387 . S
C1623 C1625 1.387 . S
H1624 C1631 0.950 . S
C1625 C1623 1.387 . S
C1625 C1627 1.390 . S
C1625 H1629 0.950 . S
H1626 C1622 0.950 . S
C1627 C1625 1.390 . S
C1627 C1628 1.387 . S
C1627 H1630 0.950 . S
C1628 C1627 1.387 . S
C1628 C1631 1.387 . S
H1629 C1625 0.950 . S
H1630 C1627 0.950 . S
C1631 C1622 1.390 . S
C1631 H1624 0.950 . S
C1631 C1628 1.387 . S
C1632 C1633 1.387 . S
C1632 H1636 0.950 . S
C1632 C1641 1.390 . S
C1633 C1632 1.387 . S
C1633 C1635 1.387 . S
H1634 C1641 0.950 . S
C1635 C1633 1.387 . S
C1635 C1637 1.390 . S
C1635 H1639 0.950 . S
H1636 C1632 0.950 . S
C1637 C1635 1.390 . S
C1637 C1638 1.387 . S
C1637 H1640 0.950 . S
C1638 C1637 1.387 . S
C1638 C1641 1.387 . S
H1639 C1635 0.950 . S
H1640 C1637 0.950 . S
C1641 C1632 1.390 . S
C1641 H1634 0.950 . S
C1641 C1638 1.387 . S
C1642 C1643 1.387 . S
C1642 H1646 0.950 . S
C1642 C1651 1.390 . S
C1643 C1642 1.387 . S
C1643 C1645 1.387 . S
H1644 C1651 0.950 . S
C1645 C1643 1.387 . S
C1645 C1647 1.390 . S
C1645 H1649 0.950 . S
H1646 C1642 0.950 . S
C1647 C1645 1.390 . S
C1647 C1648 1.387 . S
C1647 H1650 0.950 . S
C1648 C1647 1.387 . S
C1648 C1651 1.387 . S
H1649 C1645 0.950 . S
H1650 C1647 0.950 . S
C1651 C1642 1.390 . S
C1651 H1644 0.950 . S
C1651 C1648 1.387 . S
C1652 C1653 1.387 . S
C1652 H1656 0.950 . S
C1652 C1661 1.390 . S
C1653 C1652 1.387 . S
C1653 C1655 1.387 . S
H1654 C1661 0.950 . S
C1655 C1653 1.387 . S
C1655 C1657 1.390 . S
C1655 H1659 0.950 . S
H1656 C1652 0.950 . S
C1657 C1655 1.390 . S
C1657 C1658 1.387 . S
C1657 H1660 0.950 . S
C1658 C1657 1.387 . S
C1658 C1661 1.387 . S
H1659 C1655 0.950 . S
H1660 C1657 0.950 . S
C1661 C1652 1.390 . S
C1661 H1654 0.950 . S
C1661 C1658 1.387 . S
C1662 C1663 1.387 . S
C1662 H1666 0.950 . S
C1662 C1671 1.390 . S
C1663 C1662 1.387 . S
C1663 C1665 1.387 1_655 S
H1664 C1671 0.950 . S
C1665 C1663 1.387 1_455 S
C1665 C1667 1.390 . S
C1665 H1669 0.950 . S
H1666 C1662 0.950 . S
C1667 C1665 1.390 . S
C1667 C1668 1.387 1_455 S
C1667 H1670 0.950 . S
C1668 C1667 1.387 1_655 S
C1668 C1671 1.387 . S
H1669 C1665 0.950 . S
H1670 C1667 0.950 . S
C1671 C1662 1.390 . S
C1671 H1664 0.950 . S
C1671 C1668 1.387 . S
C1672 C1673 1.387 . S
C1672 H1676 0.950 . S
C1672 C1681 1.390 . S
C1673 C1672 1.387 . S
C1673 C1675 1.387 . S
H1674 C1681 0.950 . S
C1675 C1673 1.387 . S
C1675 C1677 1.390 . S
C1675 H1679 0.950 . S
H1676 C1672 0.950 . S
C1677 C1675 1.390 . S
C1677 C1678 1.387 . S
C1677 H1680 0.950 . S
C1678 C1677 1.387 . S
C1678 C1681 1.387 . S
H1679 C1675 0.950 . S
H1680 C1677 0.950 . S
C1681 C1672 1.390 . S
C1681 H1674 0.950 . S
C1681 C1678 1.387 . S
C1682 C1683 1.387 1_565 S
C1682 H1686 0.950 . S
C1682 C1691 1.390 . S
C1683 C1682 1.387 1_545 S
C1683 C1685 1.387 . S
H1684 C1691 0.950 . S
C1685 C1683 1.387 . S
C1685 C1687 1.390 . S
C1685 H1689 0.950 . S
H1686 C1682 0.950 . S
C1687 C1685 1.390 . S
C1687 C1688 1.395 . S
C1687 H1690 0.950 . S
C1688 C1687 1.395 . S
C1688 C1691 1.373 1_545 S
H1689 C1685 0.950 . S
H1690 C1687 0.950 . S
C1691 C1682 1.390 . S
C1691 H1684 0.950 . S
C1691 C1688 1.373 1_565 S
C973 C4 1.492 1_655 S
C978 C817 1.495 . S
C983 C38 1.676 . S
C988 C842 1.653 . S
C998 C853 1.519 . S
C993 C74 1.515 . S
C1003 C76 1.514 . S
C1008 C878 1.490 . S
C1013 C2 1.601 . S
C1018 C896 1.611 . S
C1023 C40 1.533 . S
C1028 C907 1.505 . S
C1033 C110 1.566 . S
C1038 C889 1.591 1_455 S
C1048 C914 1.478 . S
C1043 C148 1.490 . S
C1058 C871 1.557 1_565 S
C1053 C182 1.550 . S
C1063 C184 1.524 . S
C1068 C860 1.542 1_545 S
C1078 C824 1.489 . S
C1073 C112 1.475 1_655 S
C1083 C146 1.587 . S
C1088 C835 1.583 . S
C1093 C220 1.582 . S
C1098 C925 1.552 . S
C1103 C254 1.713 . S
C1108 C950 1.684 . S
C1118 C961 1.576 . S
C1113 C290 1.614 . S
C1123 C292 1.549 . S
C1128 C662 1.527 . S
C1133 C218 1.663 . S
C1138 C680 1.646 . S
C1143 C256 1.544 . S
C1148 C691 1.511 . S
C1153 C326 1.612 . S
C1158 C673 1.608 . S
C1163 C364 1.516 . S
C1168 C698 1.504 . S
C1178 C655 1.602 . S
C1173 C398 1.602 . S
C1188 C968 1.564 . S
C1183 C400 1.572 . S
C1198 C932 1.477 . S
C1193 C328 1.484 . S
C1208 C943 1.613 . S
C1203 C362 1.619 . S
C1213 C436 1.557 . S
C1218 C709 1.527 . S
C1223 C470 1.699 . S
C1228 C734 1.674 . S
C1233 C506 1.611 . S
C1238 C745 1.580 . S
C1243 C508 1.572 . S
C1248 C770 1.550 . S
C1258 C788 1.645 . S
C1253 C434 1.665 . S
C1268 C799 1.525 . S
C1263 C472 1.560 . S
C1278 C781 1.638 . S
C1273 C542 1.643 . S
C1288 C806 1.508 . S
C1283 C580 1.522 . S
C1293 C614 1.597 . S
C1298 C763 1.593 . S
C1308 C752 1.534 . S
C1303 C616 1.542 . S
C1313 C544 1.489 . S
C1318 C716 1.483 . S
C1328 C727 1.596 . S
C1323 C578 1.599 . S
C1338 C664 1.466 . S
C1333 C14 1.494 . S
C1343 C39 1.487 . S
C1348 C682 1.414 . S
C1358 C692 1.386 . S
C1353 C75 1.471 . S
C1368 C710 1.351 . S
C1363 C86 1.381 . S
C1378 C736 1.439 . S
C1373 C3 1.505 . S
C1388 C746 1.427 . S
C1383 C50 1.459 . S
C1393 C111 1.533 . S
C1398 C754 1.423 . S
C1403 C158 1.471 . S
C1408 C718 1.383 . S
C1413 C183 1.601 . S
C1418 C728 1.518 . S
C1423 C194 1.534 . S
C1428 C674 1.489 . S
C1438 C700 1.393 . S
C1433 C122 1.478 . S
C1443 C147 1.471 . S
C1448 C656 1.385 . S
C1458 C772 1.444 . S
C1453 C230 1.480 . S
C1463 C255 1.536 . S
C1468 C790 1.462 . S
C1473 C291 1.490 . S
C1478 C800 1.397 . S
C1488 C818 1.329 . S
C1483 C302 1.338 . S
C1493 C219 1.503 . S
C1498 C844 1.434 . S
C1503 C266 1.407 . S
C1508 C854 1.417 . S
C1513 C327 1.435 . S
C1518 C862 1.343 . S
C1523 C374 1.412 . S
C1528 C826 1.356 . S
C1538 C836 1.503 . S
C1533 C399 1.587 . S
C1543 C410 1.526 . S
C1548 C782 1.471 . S
C1553 C338 1.506 . S
C1558 C808 1.421 . S
C1568 C764 1.428 . S
C1563 C363 1.515 . S
C1578 C880 1.402 . S
C1573 C446 1.409 . S
C1583 C471 1.466 . S
C1588 C898 1.396 . S
C1593 C507 1.459 . S
C1598 C908 1.371 . S
C1608 C926 1.345 . S
C1603 C518 1.387 . S
C1618 C952 1.467 . S
C1613 C435 1.540 . S
C1623 C482 1.491 . S
C1628 C962 1.471 . S
C1633 C543 1.508 . S
C1638 C970 1.391 . S
C1643 C590 1.504 . S
C1648 C934 1.423 . S
C1658 C944 1.527 . S
C1653 C615 1.615 . S
C1668 C890 1.403 1_655 S
C1663 C626 1.427 . S
C1678 C916 1.403 . S
C1673 C554 1.487 . S
C1683 C579 1.432 . S
C1688 C872 1.365 1_545 S
