# Generated by pormake.
# Topology tbo, (3,4)-cn, num edge types: 1
# Building blocks:
#     Node 0, Type 0, BuildingBlock: OLANEW_clean_sbu_2, # of connection points: 3
#     Node 1, Type 0, BuildingBlock: OLANEW_clean_sbu_2, # of connection points: 3
#     Node 2, Type 0, BuildingBlock: OLANEW_clean_sbu_2, # of connection points: 3
#     Node 3, Type 0, BuildingBlock: OLANEW_clean_sbu_2, # of connection points: 3
#     Node 4, Type 0, BuildingBlock: OLANEW_clean_sbu_2, # of connection points: 3
#     Node 5, Type 0, BuildingBlock: OLANEW_clean_sbu_2, # of connection points: 3
#     Node 6, Type 0, BuildingBlock: OLANEW_clean_sbu_2, # of connection points: 3
#     Node 7, Type 0, BuildingBlock: OLANEW_clean_sbu_2, # of connection points: 3
#     Node 8, Type 0, BuildingBlock: OLANEW_clean_sbu_2, # of connection points: 3
#     Node 9, Type 0, BuildingBlock: OLANEW_clean_sbu_2, # of connection points: 3
#     Node 10, Type 0, BuildingBlock: OLANEW_clean_sbu_2, # of connection points: 3
#     Node 11, Type 0, BuildingBlock: OLANEW_clean_sbu_2, # of connection points: 3
#     Node 12, Type 0, BuildingBlock: OLANEW_clean_sbu_2, # of connection points: 3
#     Node 13, Type 0, BuildingBlock: OLANEW_clean_sbu_2, # of connection points: 3
#     Node 14, Type 0, BuildingBlock: OLANEW_clean_sbu_2, # of connection points: 3
#     Node 15, Type 0, BuildingBlock: OLANEW_clean_sbu_2, # of connection points: 3
#     Node 16, Type 0, BuildingBlock: OLANEW_clean_sbu_2, # of connection points: 3
#     Node 17, Type 0, BuildingBlock: OLANEW_clean_sbu_2, # of connection points: 3
#     Node 18, Type 0, BuildingBlock: OLANEW_clean_sbu_2, # of connection points: 3
#     Node 19, Type 0, BuildingBlock: OLANEW_clean_sbu_2, # of connection points: 3
#     Node 20, Type 0, BuildingBlock: OLANEW_clean_sbu_2, # of connection points: 3
#     Node 21, Type 0, BuildingBlock: OLANEW_clean_sbu_2, # of connection points: 3
#     Node 22, Type 0, BuildingBlock: OLANEW_clean_sbu_2, # of connection points: 3
#     Node 23, Type 0, BuildingBlock: OLANEW_clean_sbu_2, # of connection points: 3
#     Node 24, Type 0, BuildingBlock: OLANEW_clean_sbu_2, # of connection points: 3
#     Node 25, Type 0, BuildingBlock: OLANEW_clean_sbu_2, # of connection points: 3
#     Node 26, Type 0, BuildingBlock: OLANEW_clean_sbu_2, # of connection points: 3
#     Node 27, Type 0, BuildingBlock: OLANEW_clean_sbu_2, # of connection points: 3
#     Node 28, Type 0, BuildingBlock: OLANEW_clean_sbu_2, # of connection points: 3
#     Node 29, Type 0, BuildingBlock: OLANEW_clean_sbu_2, # of connection points: 3
#     Node 30, Type 0, BuildingBlock: OLANEW_clean_sbu_2, # of connection points: 3
#     Node 31, Type 0, BuildingBlock: OLANEW_clean_sbu_2, # of connection points: 3
#     Node 32, Type 1, BuildingBlock: NAHDIM_clean_linker_0, # of connection points: 4
#     Node 33, Type 1, BuildingBlock: NAHDIM_clean_linker_0, # of connection points: 4
#     Node 34, Type 1, BuildingBlock: NAHDIM_clean_linker_0, # of connection points: 4
#     Node 35, Type 1, BuildingBlock: NAHDIM_clean_linker_0, # of connection points: 4
#     Node 36, Type 1, BuildingBlock: NAHDIM_clean_linker_0, # of connection points: 4
#     Node 37, Type 1, BuildingBlock: NAHDIM_clean_linker_0, # of connection points: 4
#     Node 38, Type 1, BuildingBlock: NAHDIM_clean_linker_0, # of connection points: 4
#     Node 39, Type 1, BuildingBlock: NAHDIM_clean_linker_0, # of connection points: 4
#     Node 40, Type 1, BuildingBlock: NAHDIM_clean_linker_0, # of connection points: 4
#     Node 41, Type 1, BuildingBlock: NAHDIM_clean_linker_0, # of connection points: 4
#     Node 42, Type 1, BuildingBlock: NAHDIM_clean_linker_0, # of connection points: 4
#     Node 43, Type 1, BuildingBlock: NAHDIM_clean_linker_0, # of connection points: 4
#     Node 44, Type 1, BuildingBlock: NAHDIM_clean_linker_0, # of connection points: 4
#     Node 45, Type 1, BuildingBlock: NAHDIM_clean_linker_0, # of connection points: 4
#     Node 46, Type 1, BuildingBlock: NAHDIM_clean_linker_0, # of connection points: 4
#     Node 47, Type 1, BuildingBlock: NAHDIM_clean_linker_0, # of connection points: 4
#     Node 48, Type 1, BuildingBlock: NAHDIM_clean_linker_0, # of connection points: 4
#     Node 49, Type 1, BuildingBlock: NAHDIM_clean_linker_0, # of connection points: 4
#     Node 50, Type 1, BuildingBlock: NAHDIM_clean_linker_0, # of connection points: 4
#     Node 51, Type 1, BuildingBlock: NAHDIM_clean_linker_0, # of connection points: 4
#     Node 52, Type 1, BuildingBlock: NAHDIM_clean_linker_0, # of connection points: 4
#     Node 53, Type 1, BuildingBlock: NAHDIM_clean_linker_0, # of connection points: 4
#     Node 54, Type 1, BuildingBlock: NAHDIM_clean_linker_0, # of connection points: 4
#     Node 55, Type 1, BuildingBlock: NAHDIM_clean_linker_0, # of connection points: 4
#     Edge 56, Type (0, 1), None
#     Edge 57, Type (0, 1), None
#     Edge 58, Type (0, 1), None
#     Edge 59, Type (0, 1), None
#     Edge 60, Type (0, 1), None
#     Edge 61, Type (0, 1), None
#     Edge 62, Type (0, 1), None
#     Edge 63, Type (0, 1), None
#     Edge 64, Type (0, 1), None
#     Edge 65, Type (0, 1), None
#     Edge 66, Type (0, 1), None
#     Edge 67, Type (0, 1), None
#     Edge 68, Type (0, 1), None
#     Edge 69, Type (0, 1), None
#     Edge 70, Type (0, 1), None
#     Edge 71, Type (0, 1), None
#     Edge 72, Type (0, 1), None
#     Edge 73, Type (0, 1), None
#     Edge 74, Type (0, 1), None
#     Edge 75, Type (0, 1), None
#     Edge 76, Type (0, 1), None
#     Edge 77, Type (0, 1), None
#     Edge 78, Type (0, 1), None
#     Edge 79, Type (0, 1), None
#     Edge 80, Type (0, 1), None
#     Edge 81, Type (0, 1), None
#     Edge 82, Type (0, 1), None
#     Edge 83, Type (0, 1), None
#     Edge 84, Type (0, 1), None
#     Edge 85, Type (0, 1), None
#     Edge 86, Type (0, 1), None
#     Edge 87, Type (0, 1), None
#     Edge 88, Type (0, 1), None
#     Edge 89, Type (0, 1), None
#     Edge 90, Type (0, 1), None
#     Edge 91, Type (0, 1), None
#     Edge 92, Type (0, 1), None
#     Edge 93, Type (0, 1), None
#     Edge 94, Type (0, 1), None
#     Edge 95, Type (0, 1), None
#     Edge 96, Type (0, 1), None
#     Edge 97, Type (0, 1), None
#     Edge 98, Type (0, 1), None
#     Edge 99, Type (0, 1), None
#     Edge 100, Type (0, 1), None
#     Edge 101, Type (0, 1), None
#     Edge 102, Type (0, 1), None
#     Edge 103, Type (0, 1), None
#     Edge 104, Type (0, 1), None
#     Edge 105, Type (0, 1), None
#     Edge 106, Type (0, 1), None
#     Edge 107, Type (0, 1), None
#     Edge 108, Type (0, 1), None
#     Edge 109, Type (0, 1), None
#     Edge 110, Type (0, 1), None
#     Edge 111, Type (0, 1), None
#     Edge 112, Type (0, 1), None
#     Edge 113, Type (0, 1), None
#     Edge 114, Type (0, 1), None
#     Edge 115, Type (0, 1), None
#     Edge 116, Type (0, 1), None
#     Edge 117, Type (0, 1), None
#     Edge 118, Type (0, 1), None
#     Edge 119, Type (0, 1), None
#     Edge 120, Type (0, 1), None
#     Edge 121, Type (0, 1), None
#     Edge 122, Type (0, 1), None
#     Edge 123, Type (0, 1), None
#     Edge 124, Type (0, 1), None
#     Edge 125, Type (0, 1), None
#     Edge 126, Type (0, 1), None
#     Edge 127, Type (0, 1), None
#     Edge 128, Type (0, 1), None
#     Edge 129, Type (0, 1), None
#     Edge 130, Type (0, 1), None
#     Edge 131, Type (0, 1), None
#     Edge 132, Type (0, 1), None
#     Edge 133, Type (0, 1), None
#     Edge 134, Type (0, 1), None
#     Edge 135, Type (0, 1), None
#     Edge 136, Type (0, 1), None
#     Edge 137, Type (0, 1), None
#     Edge 138, Type (0, 1), None
#     Edge 139, Type (0, 1), None
#     Edge 140, Type (0, 1), None
#     Edge 141, Type (0, 1), None
#     Edge 142, Type (0, 1), None
#     Edge 143, Type (0, 1), None
#     Edge 144, Type (0, 1), None
#     Edge 145, Type (0, 1), None
#     Edge 146, Type (0, 1), None
#     Edge 147, Type (0, 1), None
#     Edge 148, Type (0, 1), None
#     Edge 149, Type (0, 1), None
#     Edge 150, Type (0, 1), None
#     Edge 151, Type (0, 1), None
# Relax obj value: 0.033
# Max RMSD: 0.137
# Mean RMSD: 0.088
data_MOF--net-tbo--node1-OLANEW_clean_sbu_2--node2-NAHDIM_clean_linker_0--edge1-none
_symmetry_space_group_name_H-M    P1
_symmetry_Int_Tables_number       1
_symmetry_cell_setting            triclinic
loop_
_symmetry_equiv_pos_as_xyz
'x, y, z'
_cell_length_a     62.504396
_cell_length_b     63.944412
_cell_length_c     61.903479
_cell_angle_alpha  97.029662
_cell_angle_beta   87.213744
_cell_angle_gamma 99.076218
loop_
_atom_site_label
_atom_site_type_symbol
_atom_site_fract_x
_atom_site_fract_y
_atom_site_fract_z
_atom_type_partial_charge
O0 O 0.22667 0.14798 0.13773 0.0
Cd1 Cd 0.22091 0.11716 0.15829 0.0
O2 O 0.19458 0.15645 0.14744 0.0
Cd3 Cd 0.16892 0.17607 0.14691 0.0
O4 O 0.1393 0.18997 0.14516 0.0
C5 C 0.13804 0.2095 0.15109 0.0
O6 O 0.15519 0.22245 0.15862 0.0
C7 C 0.21245 0.16002 0.13682 0.0
C8 C 0.22926 0.12824 0.20231 0.0
O9 O 0.24451 0.12422 0.18859 0.0
O10 O 0.21005 0.12679 0.1953 0.0
O11 O 0.9327 0.17746 0.16474 0.0
Cd12 Cd 0.93336 0.16465 0.1259 0.0
O13 O 0.9017 0.15662 0.16771 0.0
Cd14 Cd 0.87146 0.14085 0.18188 0.0
O15 O 0.84008 0.12696 0.19501 0.0
C16 C 0.83413 0.13257 0.2145 0.0
O17 O 0.84691 0.14699 0.22681 0.0
C18 C 0.91669 0.17038 0.17661 0.0
C19 C 0.89705 0.17266 0.10575 0.0
O20 O 0.89698 0.1549 0.11337 0.0
O21 O 0.91423 0.18658 0.10761 0.0
O22 O 0.90824 0.86163 0.18269 0.0
Cd23 Cd 0.92554 0.8912 0.20801 0.0
O24 O 0.87517 0.86848 0.19114 0.0
Cd25 Cd 0.88561 0.89472 0.2162 0.0
O26 O 0.89044 0.91768 0.24533 0.0
C27 C 0.87608 0.91583 0.26051 0.0
O28 O 0.85934 0.90061 0.25798 0.0
C29 C 0.88792 0.85753 0.17982 0.0
C30 C 0.94548 0.87778 0.24214 0.0
O31 O 0.95587 0.88095 0.22417 0.0
O32 O 0.9258 0.88129 0.2441 0.0
O33 O 0.21469 0.91339 0.15535 0.0
Cd34 Cd 0.21233 0.92568 0.11978 0.0
O35 O 0.23241 0.90965 0.18394 0.0
Cd36 Cd 0.2004 0.89695 0.19659 0.0
O37 O 0.16566 0.89805 0.20095 0.0
C38 C 0.15732 0.9062 0.2185 0.0
O39 O 0.13666 0.9081 0.21921 0.0
C40 C 0.23236 0.9162 0.16537 0.0
C41 C 0.2074 0.89204 0.08626 0.0
O42 O 0.2262 0.90234 0.09098 0.0
O43 O 0.19096 0.89754 0.09743 0.0
O44 O 0.23074 0.89469 0.88078 0.0
Cd45 Cd 0.19837 0.87401 0.86379 0.0
O46 O 0.213 0.91282 0.90634 0.0
Cd47 Cd 0.1819 0.89487 0.89561 0.0
O48 O 0.154 0.87223 0.88334 0.0
C49 C 0.14706 0.87265 0.86447 0.0
O50 O 0.15695 0.88674 0.8521 0.0
C51 C 0.23077 0.90902 0.89697 0.0
C52 C 0.19932 0.83041 0.86019 0.0
O53 O 0.19024 0.83982 0.87683 0.0
O54 O 0.20786 0.84157 0.84526 0.0
O55 O 0.19303 0.13354 0.88082 0.0
Cd56 Cd 0.15993 0.11731 0.86191 0.0
O57 O 0.18033 0.16368 0.88224 0.0
Cd58 Cd 0.18109 0.19809 0.88926 0.0
O59 O 0.17252 0.22958 0.88708 0.0
C60 C 0.17404 0.23607 0.8684 0.0
O61 O 0.18151 0.22423 0.85175 0.0
C62 C 0.19511 0.15348 0.88673 0.0
C63 C 0.15319 0.07293 0.85768 0.0
O64 O 0.16307 0.08299 0.84251 0.0
O65 O 0.14681 0.08381 0.87489 0.0
O66 O 0.86241 0.2225 0.84662 0.0
Cd67 Cd 0.88821 0.23563 0.81858 0.0
O68 O 0.87842 0.19426 0.84657 0.0
Cd69 Cd 0.88182 0.16351 0.85756 0.0
O70 O 0.8882 0.13299 0.86682 0.0
C71 C 0.87318 0.11885 0.87286 0.0
O72 O 0.87823 0.10141 0.87919 0.0
C73 C 0.86358 0.20499 0.8539 0.0
C74 C 0.9291 0.25216 0.83444 0.0
O75 O 0.91446 0.26411 0.83443 0.0
O76 O 0.92436 0.23236 0.8273 0.0
O77 O 0.89726 0.85994 0.83852 0.0
Cd78 Cd 0.86628 0.8579 0.81528 0.0
O79 O 0.87585 0.86381 0.86727 0.0
Cd80 Cd 0.86487 0.86928 0.9015 0.0
O81 O 0.85596 0.87928 0.9354 0.0
C82 C 0.86745 0.87637 0.95083 0.0
O83 O 0.88455 0.86686 0.9464 0.0
C84 C 0.89483 0.86266 0.85911 0.0
C85 C 0.84622 0.89411 0.82393 0.0
O86 O 0.8398 0.87759 0.83371 0.0
O87 O 0.86207 0.89355 0.81004 0.0
O88 O 0.20409 0.66016 0.61679 0.0
Cd89 Cd 0.18629 0.62502 0.62539 0.0
O90 O 0.17792 0.67271 0.63635 0.0
Cd91 Cd 0.15908 0.69649 0.65249 0.0
O92 O 0.1347 0.70618 0.67656 0.0
C93 C 0.11741 0.71209 0.67123 0.0
O94 O 0.11424 0.71338 0.65064 0.0
C95 C 0.195 0.67602 0.62448 0.0
C96 C 0.20827 0.60631 0.65416 0.0
O97 O 0.21204 0.60335 0.63356 0.0
O98 O 0.19454 0.61862 0.66134 0.0
O99 O 0.8743 0.72271 0.69536 0.0
Cd100 Cd 0.86645 0.71869 0.65672 0.0
O101 O 0.88332 0.69064 0.69178 0.0
Cd102 Cd 0.89414 0.66341 0.70401 0.0
O103 O 0.90842 0.63557 0.71003 0.0
C104 C 0.90544 0.62696 0.7276 0.0
O105 O 0.91564 0.61097 0.73004 0.0
C106 C 0.88085 0.70779 0.70373 0.0
C107 C 0.82212 0.71543 0.65118 0.0
O108 O 0.83418 0.73366 0.65364 0.0
O109 O 0.83096 0.69866 0.6512 0.0
O110 O 0.92957 0.33575 0.65207 0.0
Cd111 Cd 0.93697 0.37093 0.67327 0.0
O112 O 0.89598 0.33956 0.64617 0.0
Cd113 Cd 0.89628 0.37108 0.66421 0.0
O114 O 0.88093 0.39829 0.67794 0.0
C115 C 0.87301 0.40872 0.66491 0.0
O116 O 0.87464 0.40299 0.64386 0.0
C117 C 0.91124 0.3284 0.64389 0.0
C118 C 0.98033 0.38266 0.68446 0.0
O119 O 0.97375 0.38639 0.66622 0.0
O120 O 0.96651 0.37303 0.69732 0.0
O121 O 0.15519 0.36384 0.67003 0.0
Cd122 Cd 0.18439 0.34445 0.65566 0.0
O123 O 0.17815 0.39057 0.68525 0.0
Cd124 Cd 0.20744 0.37571 0.68161 0.0
O125 O 0.23603 0.3734 0.6998 0.0
C126 C 0.23514 0.37913 0.72023 0.0
O127 O 0.252 0.37894 0.73202 0.0
C128 C 0.15886 0.38233 0.68056 0.0
C129 C 0.20186 0.36234 0.61868 0.0
O130 O 0.18545 0.34751 0.61744 0.0
O131 O 0.21051 0.36824 0.63721 0.0
O132 O 0.23852 0.37065 0.32258 0.0
Cd133 Cd 0.25198 0.35816 0.35435 0.0
O134 O 0.20753 0.3749 0.33955 0.0
Cd135 Cd 0.17456 0.38298 0.34217 0.0
O136 O 0.14229 0.39144 0.35095 0.0
C137 C 0.12857 0.39285 0.33689 0.0
O138 O 0.11 0.39902 0.34344 0.0
C139 C 0.21977 0.37598 0.32256 0.0
C140 C 0.21996 0.35184 0.38664 0.0
O141 O 0.22276 0.33675 0.37164 0.0
O142 O 0.23204 0.36995 0.38624 0.0
O143 O 0.22455 0.68665 0.40113 0.0
Cd144 Cd 0.20008 0.6529 0.40169 0.0
O145 O 0.19732 0.70478 0.402 0.0
Cd146 Cd 0.18653 0.73559 0.40124 0.0
O147 O 0.18882 0.76915 0.3965 0.0
C148 C 0.18179 0.78263 0.41076 0.0
O149 O 0.17268 0.7764 0.42894 0.0
C150 C 0.21762 0.70431 0.40131 0.0
C151 C 0.20954 0.62413 0.36633 0.0
O152 O 0.21925 0.62551 0.38433 0.0
O153 O 0.19519 0.63616 0.36507 0.0
O154 O 0.8914 0.68664 0.41181 0.0
Cd155 Cd 0.91567 0.69341 0.38056 0.0
O156 O 0.86676 0.6699 0.38914 0.0
Cd157 Cd 0.83438 0.65211 0.38397 0.0
O158 O 0.80152 0.63478 0.38359 0.0
C159 C 0.79469 0.62341 0.39868 0.0
O160 O 0.80754 0.62217 0.4145 0.0
C161 C 0.87238 0.6767 0.40849 0.0
C162 C 0.94959 0.72595 0.39195 0.0
O163 O 0.93178 0.73013 0.38536 0.0
O164 O 0.95146 0.70642 0.39298 0.0
O165 O 0.90096 0.34638 0.30524 0.0
Cd166 Cd 0.89728 0.38198 0.29664 0.0
O167 O 0.90727 0.35807 0.33952 0.0
Cd168 Cd 0.91328 0.35378 0.37312 0.0
O169 O 0.91503 0.35294 0.4082 0.0
C170 C 0.89968 0.35866 0.42062 0.0
O171 O 0.88352 0.3654 0.41214 0.0
C172 C 0.90526 0.34281 0.32417 0.0
C173 C 0.86273 0.3992 0.31828 0.0
O174 O 0.88163 0.40275 0.32638 0.0
O175 O 0.86006 0.38739 0.30005 0.0
O176 O 0.72387 0.1539 0.62817 0.0
Cd177 Cd 0.71577 0.12235 0.64772 0.0
O178 O 0.69135 0.16226 0.63548 0.0
Cd179 Cd 0.66609 0.18238 0.63492 0.0
O180 O 0.63668 0.1972 0.63595 0.0
C181 C 0.63738 0.21727 0.63688 0.0
O182 O 0.65623 0.22972 0.63731 0.0
C183 C 0.70998 0.16607 0.62633 0.0
C184 C 0.72749 0.13096 0.69116 0.0
O185 O 0.74126 0.12589 0.67619 0.0
O186 O 0.70818 0.13189 0.68568 0.0
O187 O 0.36792 0.18559 0.65886 0.0
Cd188 Cd 0.33975 0.16059 0.63921 0.0
O189 O 0.36599 0.16735 0.68713 0.0
Cd190 Cd 0.33959 0.14259 0.67547 0.0
O191 O 0.31094 0.11808 0.67499 0.0
C192 C 0.29815 0.11871 0.69159 0.0
O193 O 0.30242 0.13399 0.70769 0.0
C194 C 0.37443 0.18321 0.67743 0.0
C195 C 0.31344 0.18153 0.61679 0.0
O196 O 0.30853 0.17742 0.63634 0.0
O197 O 0.3307 0.17556 0.60772 0.0
O198 O 0.40053 0.86237 0.67808 0.0
Cd199 Cd 0.41807 0.89093 0.70439 0.0
O200 O 0.37651 0.88115 0.66873 0.0
Cd201 Cd 0.38828 0.90855 0.69197 0.0
O202 O 0.39727 0.93243 0.71963 0.0
C203 C 0.39016 0.92775 0.73828 0.0
O204 O 0.37809 0.90923 0.73997 0.0
C205 C 0.38444 0.86385 0.66683 0.0
C206 C 0.43327 0.87515 0.73981 0.0
O207 O 0.4452 0.87765 0.7226 0.0
O208 O 0.41424 0.88034 0.74038 0.0
O209 O 0.70652 0.88807 0.69468 0.0
Cd210 Cd 0.72028 0.88838 0.65694 0.0
O211 O 0.68678 0.89783 0.72327 0.0
Cd212 Cd 0.66398 0.9171 0.74053 0.0
O213 O 0.6427 0.93869 0.75648 0.0
C214 C 0.64013 0.94162 0.77705 0.0
O215 O 0.62726 0.95498 0.78571 0.0
C216 C 0.69298 0.89961 0.70362 0.0
C217 C 0.71146 0.84747 0.63482 0.0
O218 O 0.698 0.86065 0.63478 0.0
O219 O 0.72907 0.85362 0.64509 0.0
O220 O 0.71329 0.88083 0.39595 0.0
Cd221 Cd 0.69078 0.84578 0.39303 0.0
O222 O 0.68818 0.89917 0.4107 0.0
Cd223 Cd 0.66342 0.87098 0.40583 0.0
O224 O 0.63961 0.84427 0.39264 0.0
C225 C 0.63845 0.84039 0.37206 0.0
O226 O 0.65199 0.85189 0.35965 0.0
C227 C 0.70769 0.89842 0.40425 0.0
C228 C 0.71829 0.81524 0.39059 0.0
O229 O 0.71196 0.8213 0.37329 0.0
O230 O 0.71082 0.82291 0.409 0.0
O231 O 0.76025 0.19334 0.37899 0.0
Cd232 Cd 0.75904 0.15538 0.36707 0.0
O233 O 0.72474 0.19045 0.38003 0.0
Cd234 Cd 0.69476 0.20427 0.3837 0.0
O235 O 0.66898 0.22183 0.37714 0.0
C236 C 0.6607 0.23409 0.3918 0.0
O237 O 0.66797 0.23675 0.41166 0.0
C238 C 0.74322 0.20191 0.38258 0.0
C239 C 0.71877 0.13122 0.37386 0.0
O240 O 0.73271 0.13543 0.3889 0.0
O241 O 0.72363 0.13874 0.35568 0.0
O242 O 0.34469 0.22645 0.36716 0.0
Cd243 Cd 0.38145 0.24525 0.36238 0.0
O244 O 0.35847 0.20011 0.37794 0.0
Cd245 Cd 0.35726 0.16896 0.3896 0.0
O246 O 0.36274 0.13967 0.40204 0.0
C247 C 0.34743 0.12439 0.40425 0.0
O248 O 0.35135 0.10763 0.41284 0.0
C249 C 0.34198 0.20819 0.37388 0.0
C250 C 0.41152 0.22048 0.37239 0.0
O251 O 0.40436 0.23381 0.38704 0.0
O252 O 0.40465 0.21897 0.353 0.0
O253 O 0.40721 0.85455 0.32281 0.0
Cd254 Cd 0.37979 0.8637 0.30025 0.0
O255 O 0.38829 0.86502 0.35162 0.0
Cd256 Cd 0.37868 0.87338 0.3858 0.0
O257 O 0.37081 0.88538 0.41939 0.0
C258 C 0.38265 0.88323 0.43484 0.0
O259 O 0.39978 0.87373 0.43056 0.0
C260 C 0.40504 0.85757 0.34341 0.0
C261 C 0.3597 0.89721 0.32048 0.0
O262 O 0.37738 0.90083 0.30923 0.0
O263 O 0.35167 0.8778 0.32248 0.0
O264 O 0.73171 0.6507 0.15131 0.0
Cd265 Cd 0.73075 0.6161 0.16486 0.0
O266 O 0.69868 0.65259 0.16411 0.0
Cd267 Cd 0.66961 0.66753 0.17162 0.0
O268 O 0.63764 0.67231 0.18554 0.0
C269 C 0.62513 0.68303 0.17754 0.0
O270 O 0.63109 0.69167 0.15957 0.0
C271 C 0.7155 0.66062 0.15387 0.0
C272 C 0.71935 0.61685 0.209 0.0
O273 O 0.73914 0.62176 0.2027 0.0
O274 O 0.70489 0.61163 0.19452 0.0
O275 O 0.3879 0.71428 0.15629 0.0
Cd276 Cd 0.39054 0.70708 0.11651 0.0
O277 O 0.39096 0.68106 0.15957 0.0
Cd278 Cd 0.39304 0.65435 0.1782 0.0
O279 O 0.40268 0.62624 0.18999 0.0
C280 C 0.39642 0.61787 0.2073 0.0
O281 O 0.40472 0.6012 0.21148 0.0
C282 C 0.38895 0.69975 0.16832 0.0
C283 C 0.35571 0.71712 0.09537 0.0
O284 O 0.35522 0.69855 0.10133 0.0
O285 O 0.3724 0.73117 0.09983 0.0
O286 O 0.38806 0.32105 0.15828 0.0
Cd287 Cd 0.39207 0.34815 0.18995 0.0
O288 O 0.40547 0.34166 0.135 0.0
Cd289 Cd 0.40929 0.369 0.1601 0.0
O290 O 0.40203 0.39341 0.1861 0.0
C291 C 0.38257 0.39702 0.18793 0.0
O292 O 0.36811 0.38588 0.17464 0.0
C293 C 0.39546 0.3236 0.13909 0.0
C294 C 0.42143 0.34181 0.22016 0.0
O295 O 0.42759 0.35328 0.20476 0.0
O296 O 0.40156 0.33294 0.22097 0.0
O297 O 0.71717 0.38063 0.17311 0.0
Cd298 Cd 0.7132 0.34312 0.17904 0.0
O299 O 0.68225 0.38278 0.17635 0.0
Cd300 Cd 0.67314 0.34949 0.18221 0.0
O301 O 0.66595 0.31478 0.18098 0.0
C302 C 0.66279 0.30426 0.19729 0.0
O303 O 0.65933 0.28334 0.19395 0.0
C304 C 0.70171 0.39137 0.17295 0.0
C305 C 0.71928 0.31914 0.13916 0.0
O306 O 0.70031 0.32241 0.14612 0.0
O307 O 0.73533 0.3266 0.1514 0.0
O308 O 0.74432 0.38685 0.85309 0.0
Cd309 Cd 0.73913 0.39031 0.89257 0.0
O310 O 0.70976 0.38805 0.84976 0.0
Cd311 Cd 0.68167 0.38628 0.82966 0.0
O312 O 0.65491 0.37721 0.80745 0.0
C313 C 0.64826 0.3905 0.79669 0.0
O314 O 0.65808 0.41033 0.79833 0.0
C315 C 0.72833 0.3863 0.84105 0.0
C316 C 0.74294 0.35213 0.90818 0.0
O317 O 0.7596 0.36628 0.9059 0.0
O318 O 0.7244 0.35603 0.90322 0.0
O319 O 0.72031 0.67575 0.92668 0.0
Cd320 Cd 0.70438 0.63852 0.92787 0.0
O321 O 0.68822 0.68569 0.93223 0.0
Cd322 Cd 0.66737 0.71044 0.93512 0.0
O323 O 0.64763 0.73534 0.93254 0.0
C324 C 0.65584 0.752 0.92401 0.0
O325 O 0.67615 0.75412 0.91701 0.0
C326 C 0.70854 0.69039 0.92882 0.0
C327 C 0.71369 0.61467 0.88886 0.0
O328 O 0.72666 0.61752 0.90474 0.0
O329 O 0.69619 0.62288 0.89144 0.0
O330 O 0.36781 0.73901 0.85298 0.0
Cd331 Cd 0.4068 0.75074 0.85409 0.0
O332 O 0.37112 0.70568 0.85558 0.0
Cd333 Cd 0.35645 0.67237 0.85615 0.0
O334 O 0.33448 0.64257 0.8483 0.0
C335 C 0.32173 0.63451 0.86275 0.0
O336 O 0.32178 0.6443 0.88268 0.0
C337 C 0.35919 0.71977 0.85397 0.0
C338 C 0.43021 0.71725 0.85386 0.0
O339 O 0.42351 0.7266 0.87183 0.0
O340 O 0.42569 0.72355 0.83597 0.0
O341 O 0.39097 0.38354 0.79804 0.0
Cd342 Cd 0.37034 0.41331 0.80555 0.0
O343 O 0.38471 0.3756 0.83147 0.0
Cd344 Cd 0.38697 0.35619 0.85777 0.0
O345 O 0.38656 0.33933 0.8865 0.0
C346 C 0.38278 0.31909 0.88492 0.0
O347 O 0.37931 0.3081 0.86573 0.0
C348 C 0.39357 0.37199 0.81275 0.0
C349 C 0.32566 0.40039 0.80461 0.0
O350 O 0.33668 0.40428 0.78718 0.0
O351 O 0.33568 0.40254 0.82252 0.0
C352 C 0.39029 0.28409 0.12853 0.0
C353 C 0.39037 0.30601 0.12077 0.0
C354 C 0.36186 0.30074 0.09351 0.0
C355 C 0.3423 0.30701 0.08898 0.0
C356 C 0.33239 0.30028 0.06895 0.0
C357 C 0.34193 0.28618 0.05333 0.0
C358 C 0.36192 0.27996 0.05765 0.0
C359 C 0.37186 0.28756 0.07757 0.0
C360 C 0.31157 0.30804 0.06468 0.0
C361 C 0.3726 0.26498 0.04137 0.0
C362 C 0.40538 0.31207 0.91436 0.0
C363 C 0.3827 0.3078 0.90483 0.0
C364 C 0.35811 0.3055 0.93716 0.0
C365 C 0.36265 0.28584 0.94229 0.0
C366 C 0.35286 0.2769 0.96064 0.0
C367 C 0.33802 0.28766 0.97398 0.0
C368 C 0.33316 0.30725 0.96869 0.0
C369 C 0.34333 0.31592 0.95036 0.0
C370 C 0.35855 0.25605 0.96594 0.0
C371 C 0.31732 0.31906 0.98247 0.0
C372 C 0.22137 0.18754 0.93269 0.0
C373 C 0.24124 0.18138 0.93699 0.0
C374 C 0.25221 0.18974 0.95617 0.0
C375 C 0.24346 0.20501 0.97109 0.0
C376 C 0.22368 0.21151 0.96664 0.0
C377 C 0.21285 0.20258 0.94756 0.0
C378 C 0.27311 0.18217 0.96053 0.0
C379 C 0.21396 0.22787 0.98209 0.0
C380 C 0.22502 0.19883 0.1381 0.0
C381 C 0.21689 0.17835 0.12335 0.0
C382 C 0.2372 0.18296 0.08852 0.0
C383 C 0.2536 0.17568 0.07488 0.0
C384 C 0.26006 0.1845 0.0555 0.0
C385 C 0.24998 0.20127 0.04977 0.0
C386 C 0.23302 0.20844 0.06323 0.0
C387 C 0.22669 0.19914 0.08244 0.0
C388 C 0.27796 0.17619 0.04138 0.0
C389 C 0.22191 0.22625 0.05751 0.0
C390 C 0.33064 0.27747 0.03281 0.0
C391 C 0.33827 0.28597 0.01362 0.0
C392 C 0.32817 0.2787 0.99385 0.0
C393 C 0.30958 0.26285 0.99317 0.0
C394 C 0.29855 0.25572 0.97374 0.0
C395 C 0.28046 0.23988 0.97319 0.0
C396 C 0.27283 0.2304 0.99201 0.0
C397 C 0.25483 0.21386 0.99152 0.0
C398 C 0.24763 0.20491 0.0106 0.0
C399 C 0.25797 0.21195 0.03027 0.0
C400 C 0.27604 0.22838 0.03105 0.0
C401 C 0.28693 0.23569 0.05054 0.0
C402 C 0.30488 0.25162 0.05111 0.0
C403 C 0.31253 0.26108 0.0323 0.0
C404 C 0.30185 0.2539 0.01245 0.0
C405 C 0.28352 0.23759 0.01185 0.0
C406 C 0.23065 0.17608 0.88124 0.0
C407 C 0.21532 0.1648 0.8977 0.0
O408 O 0.37009 0.30747 0.11354 0.0
O409 O 0.23247 0.17409 0.1074 0.0
O410 O 0.20984 0.1795 0.9146 0.0
O411 O 0.36769 0.31514 0.91994 0.0
H412 H 0.40283 0.30861 0.10751 0.0
H413 H 0.3874 0.27123 0.11479 0.0
H414 H 0.37731 0.28097 0.14116 0.0
H415 H 0.40621 0.28332 0.13539 0.0
H416 H 0.33479 0.31733 0.10128 0.0
H417 H 0.38715 0.28278 0.08066 0.0
H418 H 0.31199 0.31282 0.04799 0.0
H419 H 0.30848 0.32179 0.07658 0.0
H420 H 0.29778 0.29494 0.06588 0.0
H421 H 0.38692 0.25996 0.04805 0.0
H422 H 0.37795 0.27298 0.02667 0.0
H423 H 0.36083 0.25054 0.03617 0.0
H424 H 0.37807 0.29042 0.89982 0.0
H425 H 0.41745 0.30662 0.90202 0.0
H426 H 0.40575 0.3033 0.9287 0.0
H427 H 0.41021 0.32936 0.91961 0.0
H428 H 0.37395 0.27743 0.93226 0.0
H429 H 0.33986 0.33103 0.9463 0.0
H430 H 0.34379 0.24383 0.96537 0.0
H431 H 0.36467 0.25804 0.98273 0.0
H432 H 0.37102 0.25007 0.95445 0.0
H433 H 0.31422 0.33341 0.9754 0.0
H434 H 0.32377 0.3241 0.99901 0.0
H435 H 0.30169 0.30833 0.9843 0.0
H436 H 0.2232 0.15245 0.90401 0.0
H437 H 0.24837 0.17003 0.92561 0.0
H438 H 0.19759 0.20734 0.94411 0.0
H439 H 0.28677 0.19549 0.9599 0.0
H440 H 0.27661 0.16868 0.94848 0.0
H441 H 0.27241 0.17705 0.97709 0.0
H442 H 0.19955 0.23267 0.97534 0.0
H443 H 0.22622 0.24228 0.98587 0.0
H444 H 0.209 0.22121 0.99763 0.0
H445 H 0.20146 0.18005 0.11599 0.0
H446 H 0.2126 0.20217 0.15098 0.0
H447 H 0.2283 0.21265 0.12856 0.0
H448 H 0.24026 0.19731 0.14592 0.0
H449 H 0.26153 0.16311 0.07962 0.0
H450 H 0.21381 0.20483 0.09268 0.0
H451 H 0.29237 0.1888 0.0414 0.0
H452 H 0.27271 0.17209 0.02429 0.0
H453 H 0.28282 0.16187 0.0471 0.0
H454 H 0.20911 0.23017 0.06974 0.0
H455 H 0.21446 0.22166 0.04136 0.0
H456 H 0.23404 0.24078 0.05627 0.0
H457 H 0.35235 0.29833 0.01406 0.0
H458 H 0.30378 0.26233 0.95872 0.0
H459 H 0.2726 0.23505 0.95778 0.0
H460 H 0.23395 0.19211 0.01008 0.0
H461 H 0.28175 0.22914 0.06559 0.0
H462 H 0.31271 0.2564 0.06654 0.0
H463 H 0.23495 0.16436 0.86758 0.0
H464 H 0.24584 0.184 0.88918 0.0
H465 H 0.22295 0.18838 0.87462 0.0
C466 C 0.74598 0.31425 0.89656 0.0
C467 C 0.74507 0.33131 0.9161 0.0
C468 C 0.76844 0.32207 0.94332 0.0
C469 C 0.78806 0.32844 0.95384 0.0
C470 C 0.79402 0.31719 0.97009 0.0
C471 C 0.78 0.29896 0.9758 0.0
C472 C 0.76013 0.29232 0.96519 0.0
C473 C 0.7545 0.30395 0.94905 0.0
C474 C 0.81528 0.32481 0.98119 0.0
C475 C 0.7449 0.27287 0.97088 0.0
C476 C 0.70683 0.31199 0.10083 0.0
C477 C 0.72271 0.30711 0.1171 0.0
C478 C 0.7544 0.30392 0.09226 0.0
C479 C 0.74595 0.28439 0.08046 0.0
C480 C 0.75624 0.27684 0.06105 0.0
C481 C 0.77555 0.28884 0.05353 0.0
C482 C 0.78476 0.30783 0.06605 0.0
C483 C 0.77403 0.3151 0.08529 0.0
C484 C 0.74606 0.25644 0.04814 0.0
C485 C 0.80552 0.32082 0.05871 0.0
C486 C 0.87261 0.19976 0.06672 0.0
C487 C 0.85308 0.188 0.05868 0.0
C488 C 0.84271 0.1946 0.0416 0.0
C489 C 0.85203 0.21326 0.03243 0.0
C490 C 0.87177 0.22498 0.04036 0.0
C491 C 0.88174 0.21806 0.05742 0.0
C492 C 0.82166 0.18181 0.03348 0.0
C493 C 0.88225 0.24491 0.0309 0.0
C494 C 0.83265 0.17687 0.86063 0.0
C495 C 0.84721 0.19688 0.87065 0.0
C496 C 0.85338 0.19891 0.9093 0.0
C497 C 0.83251 0.19375 0.91829 0.0
C498 C 0.8278 0.20029 0.94024 0.0
C499 C 0.84412 0.21313 0.95318 0.0
C500 C 0.86534 0.21805 0.94416 0.0
C501 C 0.86979 0.21042 0.92241 0.0
C502 C 0.80527 0.1936 0.94943 0.0
C503 C 0.88322 0.23168 0.95729 0.0
C504 C 0.78613 0.28702 0.99303 0.0
C505 C 0.77879 0.29243 0.01433 0.0
C506 C 0.78485 0.28266 0.03159 0.0
C507 C 0.79898 0.2673 0.02764 0.0
C508 C 0.80636 0.25798 0.04474 0.0
C509 C 0.82034 0.24291 0.0406 0.0
C510 C 0.82704 0.23624 0.01917 0.0
C511 C 0.84116 0.22089 0.01476 0.0
C512 C 0.84632 0.21357 0.99319 0.0
C513 C 0.8387 0.22205 0.97577 0.0
C514 C 0.82591 0.23859 0.97997 0.0
C515 C 0.81939 0.2487 0.96299 0.0
C516 C 0.80644 0.26462 0.96722 0.0
C517 C 0.79943 0.27098 0.98858 0.0
C518 C 0.80597 0.26117 0.00598 0.0
C519 C 0.81959 0.24527 0.0017 0.0
C520 C 0.86009 0.18189 0.11266 0.0
C521 C 0.87737 0.17708 0.09513 0.0
O522 O 0.76386 0.33382 0.92774 0.0
O523 O 0.85816 0.19259 0.88814 0.0
O524 O 0.88317 0.19435 0.08342 0.0
O525 O 0.74398 0.31286 0.11001 0.0
H526 H 0.73047 0.32671 0.92648 0.0
H527 H 0.73096 0.31219 0.88714 0.0
H528 H 0.7474 0.29868 0.90212 0.0
H529 H 0.7602 0.31879 0.88568 0.0
H530 H 0.79872 0.3424 0.9493 0.0
H531 H 0.7393 0.29867 0.94101 0.0
H532 H 0.81237 0.32773 0.99907 0.0
H533 H 0.82403 0.33968 0.97537 0.0
H534 H 0.82583 0.31225 0.97815 0.0
H535 H 0.73038 0.26931 0.96062 0.0
H536 H 0.73949 0.27536 0.98823 0.0
H537 H 0.75351 0.25881 0.96886 0.0
H538 H 0.71954 0.28985 0.11911 0.0
H539 H 0.68981 0.30689 0.10627 0.0
H540 H 0.70922 0.30333 0.08447 0.0
H541 H 0.70926 0.32935 0.0993 0.0
H542 H 0.73109 0.27523 0.08596 0.0
H543 H 0.78061 0.32998 0.09465 0.0
H544 H 0.74205 0.25975 0.03172 0.0
H545 H 0.73104 0.2489 0.05622 0.0
H546 H 0.75776 0.24492 0.04584 0.0
H547 H 0.81196 0.33371 0.0715 0.0
H548 H 0.80253 0.32818 0.04402 0.0
H549 H 0.81802 0.31037 0.05417 0.0
H550 H 0.87101 0.16246 0.0843 0.0
H551 H 0.84571 0.1738 0.06567 0.0
H552 H 0.8968 0.22702 0.06369 0.0
H553 H 0.80873 0.19202 0.03546 0.0
H554 H 0.81646 0.16763 0.04228 0.0
H555 H 0.82345 0.1764 0.01584 0.0
H556 H 0.89793 0.25187 0.03846 0.0
H557 H 0.87119 0.25704 0.03335 0.0
H558 H 0.8851 0.24127 0.01309 0.0
H559 H 0.83684 0.20937 0.87596 0.0
H560 H 0.82339 0.18085 0.84722 0.0
H561 H 0.82083 0.17026 0.8729 0.0
H562 H 0.8424 0.16441 0.8539 0.0
H563 H 0.81993 0.18437 0.90831 0.0
H564 H 0.88595 0.21404 0.91531 0.0
H565 H 0.79588 0.20701 0.95003 0.0
H566 H 0.80589 0.18942 0.96626 0.0
H567 H 0.79642 0.17971 0.93923 0.0
H568 H 0.89783 0.23651 0.94704 0.0
H569 H 0.88796 0.22262 0.97001 0.0
H570 H 0.8775 0.24626 0.96564 0.0
H571 H 0.76826 0.3045 0.01753 0.0
H572 H 0.80155 0.26239 0.06151 0.0
H573 H 0.82561 0.23635 0.0544 0.0
H574 H 0.85664 0.20133 0.98995 0.0
H575 H 0.82429 0.2445 0.94621 0.0
H576 H 0.80187 0.27177 0.9535 0.0
H577 H 0.85538 0.16809 0.1221 0.0
H578 H 0.84534 0.185 0.10509 0.0
H579 H 0.8663 0.19618 0.124 0.0
C580 C 0.87659 0.81831 0.1741 0.0
C581 C 0.8789 0.83911 0.1637 0.0
C582 C 0.8489 0.83473 0.13825 0.0
C583 C 0.82946 0.84173 0.13456 0.0
C584 C 0.81836 0.83485 0.1152 0.0
C585 C 0.82691 0.82046 0.09915 0.0
C586 C 0.84642 0.81303 0.10284 0.0
C587 C 0.85723 0.82021 0.12236 0.0
C588 C 0.79757 0.84305 0.11179 0.0
C589 C 0.85588 0.79758 0.08606 0.0
C590 C 0.86637 0.90969 0.9758 0.0
C591 C 0.86265 0.88533 0.97381 0.0
C592 C 0.83414 0.86362 0.99335 0.0
C593 C 0.84556 0.8469 0.99597 0.0
C594 C 0.83822 0.83242 0.01103 0.0
C595 C 0.81908 0.83473 0.0237 0.0
C596 C 0.80719 0.85116 0.02058 0.0
C597 C 0.81476 0.86523 0.00521 0.0
C598 C 0.85102 0.8148 0.0136 0.0
C599 C 0.78674 0.85412 0.03381 0.0
C600 C 0.72003 0.73013 0.96482 0.0
C601 C 0.73655 0.71972 0.97112 0.0
C602 C 0.74536 0.72495 0.99187 0.0
C603 C 0.73726 0.74062 0.00678 0.0
C604 C 0.71999 0.75044 0.00086 0.0
C605 C 0.7117 0.74514 0.97988 0.0
C606 C 0.76364 0.71401 0.99772 0.0
C607 C 0.71061 0.76685 0.01652 0.0
C608 C 0.72096 0.69967 0.16497 0.0
C609 C 0.71675 0.68209 0.14584 0.0
C610 C 0.73675 0.69774 0.11466 0.0
C611 C 0.75474 0.69645 0.10056 0.0
C612 C 0.75958 0.70996 0.08419 0.0
C613 C 0.74616 0.72541 0.08205 0.0
C614 C 0.72775 0.72672 0.09611 0.0
C615 C 0.72313 0.71279 0.11223 0.0
C616 C 0.77915 0.70782 0.06928 0.0
C617 C 0.71313 0.74302 0.09424 0.0
C618 C 0.81578 0.81368 0.07823 0.0
C619 C 0.8217 0.82599 0.06113 0.0
C620 C 0.81206 0.8206 0.0409 0.0
C621 C 0.79605 0.80234 0.03751 0.0
C622 C 0.78628 0.79624 0.01727 0.0
C623 C 0.77046 0.77832 0.01413 0.0
C624 C 0.76376 0.7658 0.03113 0.0
C625 C 0.74768 0.74754 0.02808 0.0
C626 C 0.74187 0.73509 0.04513 0.0
C627 C 0.75171 0.74036 0.0653 0.0
C628 C 0.76747 0.75884 0.06881 0.0
C629 C 0.77741 0.76485 0.089 0.0
C630 C 0.79321 0.78281 0.09216 0.0
C631 C 0.79965 0.79548 0.07525 0.0
C632 C 0.78974 0.78981 0.0548 0.0
C633 C 0.77358 0.77152 0.05161 0.0
C634 C 0.71217 0.72009 0.90588 0.0
C635 C 0.71866 0.71307 0.92705 0.0
O636 O 0.85885 0.84237 0.1573 0.0
O637 O 0.73349 0.68432 0.13035 0.0
O638 O 0.71177 0.72633 0.94452 0.0
O639 O 0.84123 0.87844 0.97961 0.0
H640 H 0.89054 0.83855 0.14954 0.0
H641 H 0.87007 0.80459 0.16227 0.0
H642 H 0.86534 0.81889 0.18856 0.0
H643 H 0.89264 0.81559 0.17921 0.0
H644 H 0.82309 0.85283 0.14693 0.0
H645 H 0.87209 0.81436 0.125 0.0
H646 H 0.79942 0.8517 0.09715 0.0
H647 H 0.79289 0.85396 0.12599 0.0
H648 H 0.78423 0.82945 0.10881 0.0
H649 H 0.87092 0.7929 0.09155 0.0
H650 H 0.85964 0.80492 0.07069 0.0
H651 H 0.84381 0.783 0.08237 0.0
H652 H 0.874 0.88068 0.98504 0.0
H653 H 0.88341 0.91574 0.97116 0.0
H654 H 0.86324 0.91623 0.99293 0.0
H655 H 0.8553 0.91554 0.96519 0.0
H656 H 0.86016 0.84507 0.98624 0.0
H657 H 0.80591 0.87801 0.00286 0.0
H658 H 0.84016 0.7992 0.01234 0.0
H659 H 0.85806 0.81749 0.03002 0.0
H660 H 0.86439 0.81394 0.00119 0.0
H661 H 0.7798 0.86814 0.02997 0.0
H662 H 0.79015 0.85616 0.05145 0.0
H663 H 0.77441 0.83966 0.03062 0.0
H664 H 0.73666 0.71457 0.92629 0.0
H665 H 0.74284 0.70764 0.95994 0.0
H666 H 0.69879 0.75291 0.97502 0.0
H667 H 0.77779 0.72609 0.00292 0.0
H668 H 0.76887 0.70295 0.98392 0.0
H669 H 0.75838 0.70481 0.01163 0.0
H670 H 0.69565 0.77116 0.0104 0.0
H671 H 0.72276 0.78151 0.01916 0.0
H672 H 0.7068 0.76078 0.03255 0.0
H673 H 0.701 0.68267 0.1385 0.0
H674 H 0.70759 0.69789 0.17743 0.0
H675 H 0.72186 0.71563 0.15937 0.0
H676 H 0.73651 0.69895 0.17261 0.0
H677 H 0.7651 0.68476 0.10249 0.0
H678 H 0.70906 0.71394 0.12292 0.0
H679 H 0.79132 0.72244 0.07215 0.0
H680 H 0.77446 0.7062 0.05202 0.0
H681 H 0.78687 0.69386 0.0719 0.0
H682 H 0.69984 0.74253 0.10684 0.0
H683 H 0.7059 0.74017 0.07791 0.0
H684 H 0.72277 0.75926 0.09581 0.0
H685 H 0.83399 0.84001 0.06361 0.0
H686 H 0.79078 0.80526 0.0036 0.0
H687 H 0.76358 0.77442 0.99817 0.0
H688 H 0.72987 0.72086 0.04252 0.0
H689 H 0.7731 0.75572 0.10261 0.0
H690 H 0.80034 0.78663 0.10802 0.0
H691 H 0.71844 0.71024 0.89165 0.0
H692 H 0.71923 0.73703 0.9049 0.0
H693 H 0.69429 0.71847 0.90493 0.0
C694 C 0.18551 0.79549 0.83943 0.0
C695 C 0.19985 0.8068 0.85797 0.0
C696 C 0.20401 0.79857 0.89516 0.0
C697 C 0.22445 0.8111 0.89853 0.0
C698 C 0.23573 0.81078 0.91754 0.0
C699 C 0.22651 0.79749 0.93332 0.0
C700 C 0.20586 0.78508 0.93007 0.0
C701 C 0.19483 0.78591 0.91108 0.0
C702 C 0.25755 0.82453 0.92073 0.0
C703 C 0.19553 0.77079 0.9466 0.0
C704 C 0.18829 0.87788 0.05196 0.0
C705 C 0.20459 0.8739 0.06819 0.0
C706 C 0.22947 0.85567 0.04311 0.0
C707 C 0.21582 0.83594 0.03941 0.0
C708 C 0.22113 0.82008 0.02318 0.0
C709 C 0.24036 0.82404 0.01033 0.0
C710 C 0.25445 0.8436 0.0145 0.0
C711 C 0.24888 0.85906 0.031 0.0
C712 C 0.2059 0.79927 0.01936 0.0
C713 C 0.27502 0.84846 0.00104 0.0
C714 C 0.33382 0.73931 0.05102 0.0
C715 C 0.31295 0.7287 0.04561 0.0
C716 C 0.30317 0.73221 0.02669 0.0
C717 C 0.3143 0.74683 0.01303 0.0
C718 C 0.33515 0.75773 0.01857 0.0
C719 C 0.34464 0.75377 0.03747 0.0
C720 C 0.28096 0.72021 0.02119 0.0
C721 C 0.34741 0.77355 0.00449 0.0
C722 C 0.32805 0.70007 0.83238 0.0
C723 C 0.33491 0.71401 0.85351 0.0
C724 C 0.32233 0.71227 0.89141 0.0
C725 C 0.30881 0.69988 0.9052 0.0
C726 C 0.3021 0.70876 0.92585 0.0
C727 C 0.30953 0.73046 0.93297 0.0
C728 C 0.3242 0.74275 0.91958 0.0
C729 C 0.33025 0.73361 0.89888 0.0
C730 C 0.28654 0.69519 0.93975 0.0
C731 C 0.33309 0.76575 0.92689 0.0
C732 C 0.23859 0.79622 0.95307 0.0
C733 C 0.23452 0.80945 0.97199 0.0
C734 C 0.24482 0.80858 0.99135 0.0
C735 C 0.25937 0.79383 0.99205 0.0
C736 C 0.26938 0.7919 0.01141 0.0
C737 C 0.28392 0.77751 0.01178 0.0
C738 C 0.28921 0.76471 0.99272 0.0
C739 C 0.30427 0.75033 0.99275 0.0
C740 C 0.31015 0.7389 0.97319 0.0
C741 C 0.30087 0.74092 0.9536 0.0
C742 C 0.28473 0.75411 0.95354 0.0
C743 C 0.27407 0.75543 0.93436 0.0
C744 C 0.25871 0.76894 0.93425 0.0
C745 C 0.25371 0.78196 0.9532 0.0
C746 C 0.26406 0.78071 0.97279 0.0
C747 C 0.27927 0.76643 0.97305 0.0
C748 C 0.3218 0.73293 0.10132 0.0
C749 C 0.3367 0.72249 0.08437 0.0
O750 O 0.1925 0.79834 0.87702 0.0
O751 O 0.32721 0.70318 0.87108 0.0
O752 O 0.34413 0.73622 0.06901 0.0
O753 O 0.22447 0.87197 0.05778 0.0
H754 H 0.21668 0.80373 0.85375 0.0
H755 H 0.16838 0.79784 0.84282 0.0
H756 H 0.18626 0.77812 0.83765 0.0
H757 H 0.19118 0.80166 0.82378 0.0
H758 H 0.23163 0.82126 0.88652 0.0
H759 H 0.17901 0.77643 0.90841 0.0
H760 H 0.25753 0.83474 0.9366 0.0
H761 H 0.26196 0.8349 0.90756 0.0
H762 H 0.27021 0.81423 0.92119 0.0
H763 H 0.1796 0.76173 0.9414 0.0
H764 H 0.19316 0.78053 0.9624 0.0
H765 H 0.20645 0.7593 0.94935 0.0
H766 H 0.19804 0.85926 0.07581 0.0
H767 H 0.17229 0.87921 0.06022 0.0
H768 H 0.18582 0.86448 0.03869 0.0
H769 H 0.19426 0.89279 0.04458 0.0
H770 H 0.2009 0.83286 0.04886 0.0
H771 H 0.25939 0.87423 0.03408 0.0
H772 H 0.21508 0.78564 0.01829 0.0
H773 H 0.19788 0.79847 0.00361 0.0
H774 H 0.19317 0.7975 0.03245 0.0
H775 H 0.28396 0.86465 0.00601 0.0
H776 H 0.27114 0.84723 0.98356 0.0
H777 H 0.28581 0.83656 0.00267 0.0
H778 H 0.32785 0.70726 0.07641 0.0
H779 H 0.30414 0.71763 0.05596 0.0
H780 H 0.36066 0.76197 0.04176 0.0
H781 H 0.26931 0.73166 0.02132 0.0
H782 H 0.27488 0.70857 0.03284 0.0
H783 H 0.28138 0.71154 0.00453 0.0
H784 H 0.36279 0.78184 0.01183 0.0
H785 H 0.33718 0.78565 0.00178 0.0
H786 H 0.35124 0.76516 0.98832 0.0
H787 H 0.32735 0.72871 0.85383 0.0
H788 H 0.33371 0.70868 0.81812 0.0
H789 H 0.31008 0.69627 0.83217 0.0
H790 H 0.33474 0.68486 0.83075 0.0
H791 H 0.30294 0.68338 0.89944 0.0
H792 H 0.3411 0.74332 0.88865 0.0
H793 H 0.27162 0.70254 0.94343 0.0
H794 H 0.29402 0.69447 0.95549 0.0
H795 H 0.28195 0.67868 0.93171 0.0
H796 H 0.34688 0.772 0.91628 0.0
H797 H 0.33858 0.76754 0.94391 0.0
H798 H 0.3201 0.77569 0.92649 0.0
H799 H 0.22321 0.82065 0.97163 0.0
H800 H 0.26604 0.80147 0.0265 0.0
H801 H 0.29118 0.77672 0.02713 0.0
H802 H 0.32232 0.72853 0.97317 0.0
H803 H 0.27741 0.74595 0.91921 0.0
H804 H 0.25104 0.76925 0.91901 0.0
H805 H 0.3159 0.72199 0.1137 0.0
H806 H 0.3075 0.73659 0.0934 0.0
H807 H 0.33055 0.74804 0.10961 0.0
C808 C 0.15101 0.40705 0.30626 0.0
C809 C 0.13416 0.3888 0.31297 0.0
C810 C 0.09947 0.37096 0.29743 0.0
C811 C 0.09747 0.35277 0.30849 0.0
C812 C 0.07973 0.33637 0.30503 0.0
C813 C 0.06387 0.33809 0.29005 0.0
C814 C 0.06593 0.35633 0.27884 0.0
C815 C 0.08366 0.37256 0.28279 0.0
C816 C 0.07786 0.31721 0.3174 0.0
C817 C 0.0494 0.35867 0.26267 0.0
C818 C 0.88907 0.31143 0.343 0.0
C819 C 0.90758 0.32054 0.32817 0.0
C820 C 0.94644 0.31829 0.32678 0.0
C821 C 0.95059 0.32292 0.30521 0.0
C822 C 0.97049 0.32033 0.29452 0.0
C823 C 0.98641 0.3124 0.30539 0.0
C824 C 0.98244 0.30812 0.32725 0.0
C825 C 0.96259 0.3114 0.33773 0.0
C826 C 0.97442 0.32593 0.27151 0.0
C827 C 0.99902 0.29975 0.3394 0.0
C828 C 0.95287 0.19172 0.21374 0.0
C829 C 0.95685 0.21055 0.20361 0.0
C830 C 0.97538 0.22567 0.2083 0.0
C831 C 0.99027 0.22187 0.22332 0.0
C832 C 0.98657 0.20276 0.23318 0.0
C833 C 0.96794 0.1879 0.22817 0.0
C834 C 0.97905 0.24577 0.19726 0.0
C835 C 0.00221 0.19816 0.24915 0.0
C836 C 0.11487 0.22045 0.12438 0.0
C837 C 0.11722 0.21769 0.14829 0.0
C838 C 0.10097 0.24096 0.17592 0.0
C839 C 0.08974 0.25794 0.17453 0.0
C840 C 0.07234 0.26154 0.18899 0.0
C841 C 0.06684 0.24842 0.20593 0.0
C842 C 0.07891 0.23179 0.20796 0.0
C843 C 0.0957 0.22809 0.19274 0.0
C844 C 0.0595 0.27896 0.18568 0.0
C845 C 0.07385 0.21768 0.22595 0.0
C846 C 0.04509 0.32086 0.28601 0.0
C847 C 0.02559 0.32322 0.29748 0.0
C848 C 0.00694 0.30818 0.29369 0.0
C849 C 0.00776 0.2901 0.27817 0.0
C850 C 0.98945 0.27443 0.27422 0.0
C851 C 0.99009 0.25724 0.25823 0.0
C852 C 0.00908 0.25498 0.2456 0.0
C853 C 0.00965 0.23796 0.22881 0.0
C854 C 0.02872 0.23627 0.21645 0.0
C855 C 0.04753 0.25103 0.22047 0.0
C856 C 0.04735 0.26807 0.23738 0.0
C857 C 0.06599 0.28307 0.24217 0.0
C858 C 0.06534 0.30031 0.25815 0.0
C859 C 0.0461 0.30306 0.27019 0.0
C860 C 0.02731 0.28772 0.26616 0.0
C861 C 0.02795 0.27019 0.24977 0.0
C862 C 0.89688 0.1681 0.21338 0.0
C863 C 0.91598 0.17897 0.20047 0.0
O864 O 0.11603 0.38749 0.30057 0.0
O865 O 0.11671 0.23715 0.16078 0.0
O866 O 0.93502 0.17673 0.20996 0.0
O867 O 0.92723 0.32037 0.33757 0.0
H868 H 0.14132 0.37382 0.30963 0.0
H869 H 0.14408 0.42216 0.3079 0.0
H870 H 0.15632 0.40331 0.28902 0.0
H871 H 0.16539 0.40941 0.31659 0.0
H872 H 0.10953 0.35134 0.31996 0.0
H873 H 0.08531 0.38666 0.27438 0.0
H874 H 0.06199 0.31511 0.32638 0.0
H875 H 0.09102 0.31864 0.32917 0.0
H876 H 0.07845 0.30264 0.30576 0.0
H877 H 0.05389 0.37336 0.25453 0.0
H878 H 0.03338 0.35918 0.27113 0.0
H879 H 0.04759 0.34464 0.25005 0.0
H880 H 0.90644 0.30987 0.31249 0.0
H881 H 0.8732 0.31121 0.33555 0.0
H882 H 0.88925 0.32098 0.35924 0.0
H883 H 0.89071 0.2948 0.34528 0.0
H884 H 0.93845 0.32871 0.29666 0.0
H885 H 0.95937 0.30808 0.35444 0.0
H886 H 0.97379 0.31108 0.26008 0.0
H887 H 0.99075 0.33542 0.26968 0.0
H888 H 0.9621 0.33513 0.26671 0.0
H889 H 0.99283 0.29571 0.35575 0.0
H890 H 0.01375 0.31194 0.34145 0.0
H891 H 0.0039 0.28529 0.32987 0.0
H892 H 0.91403 0.19606 0.20175 0.0
H893 H 0.94575 0.21353 0.19188 0.0
H894 H 0.96489 0.17325 0.23573 0.0
H895 H 0.97945 0.25988 0.20971 0.0
H896 H 0.96623 0.24616 0.18556 0.0
H897 H 0.995 0.24717 0.1884 0.0
H898 H 0.99693 0.18261 0.25555 0.0
H899 H 0.00385 0.211 0.26305 0.0
H900 H 0.01848 0.19803 0.24114 0.0
H901 H 0.10344 0.20547 0.15268 0.0
H902 H 0.11476 0.20498 0.11399 0.0
H903 H 0.12843 0.23221 0.11882 0.0
H904 H 0.09935 0.22629 0.12233 0.0
H905 H 0.09409 0.26782 0.16148 0.0
H906 H 0.10477 0.21519 0.19393 0.0
H907 H 0.06305 0.29238 0.19877 0.0
H908 H 0.04183 0.27301 0.18656 0.0
H909 H 0.06354 0.28521 0.16977 0.0
H910 H 0.08702 0.20823 0.22767 0.0
H911 H 0.0587 0.20643 0.22231 0.0
H912 H 0.07122 0.22738 0.24173 0.0
H913 H 0.02482 0.33717 0.3092 0.0
H914 H 0.97435 0.27536 0.28335 0.0
H915 H 0.97542 0.24582 0.25577 0.0
H916 H 0.02886 0.22335 0.20335 0.0
H917 H 0.08124 0.28176 0.23343 0.0
H918 H 0.08011 0.31153 0.26087 0.0
H919 H 0.88142 0.17148 0.20751 0.0
H920 H 0.89798 0.1746 0.23085 0.0
H921 H 0.89699 0.15064 0.2121 0.0
C922 C 0.67888 0.13026 0.3779 0.0
C923 C 0.69745 0.11725 0.37735 0.0
C924 C 0.70558 0.08386 0.35675 0.0
C925 C 0.72271 0.08145 0.3697 0.0
C926 C 0.73496 0.06489 0.36413 0.0
C927 C 0.72962 0.05003 0.34559 0.0
C928 C 0.71175 0.05177 0.33311 0.0
C929 C 0.70012 0.06883 0.33874 0.0
C930 C 0.75382 0.06345 0.37794 0.0
C931 C 0.70515 0.03581 0.31366 0.0
C932 C 0.74397 0.916 0.41714 0.0
C933 C 0.72389 0.91849 0.40498 0.0
C934 C 0.73503 0.94089 0.37557 0.0
C935 C 0.73342 0.94104 0.3532 0.0
C936 C 0.73859 0.95997 0.34354 0.0
C937 C 0.74668 0.97916 0.35653 0.0
C938 C 0.74859 0.9791 0.37924 0.0
C939 C 0.7424 0.96002 0.38859 0.0
C940 C 0.73525 0.95932 0.31944 0.0
C941 C 0.75726 0.99911 0.39367 0.0
C942 C 0.86908 0.96494 0.2785 0.0
C943 C 0.84821 0.95848 0.27037 0.0
C944 C 0.83333 0.97291 0.27139 0.0
C945 C 0.83918 0.994 0.28159 0.0
C946 C 0.86044 0.00066 0.28929 0.0
C947 C 0.87524 0.9861 0.28723 0.0
C948 C 0.81128 0.96548 0.26182 0.0
C949 C 0.86742 0.02301 0.30009 0.0
C950 C 0.79501 0.1347 0.21222 0.0
C951 C 0.81176 0.12443 0.2227 0.0
C952 C 0.80964 0.08755 0.23081 0.0
C953 C 0.79822 0.06705 0.2259 0.0
C954 C 0.79879 0.05116 0.2395 0.0
C955 C 0.81136 0.05591 0.25838 0.0
C956 C 0.82388 0.0763 0.26287 0.0
C957 C 0.82293 0.09195 0.24901 0.0
C958 C 0.78544 0.0295 0.23408 0.0
C959 C 0.83777 0.08169 0.28264 0.0
C960 C 0.74317 0.03305 0.33917 0.0
C961 C 0.73929 0.01474 0.34988 0.0
C962 C 0.75289 0.99917 0.34627 0.0
C963 C 0.77123 0.00221 0.33203 0.0
C964 C 0.78648 0.98806 0.32963 0.0
C965 C 0.80384 0.99059 0.31474 0.0
C966 C 0.80624 0.007 0.30119 0.0
C967 C 0.82296 0.0089 0.28492 0.0
C968 C 0.82443 0.02514 0.27143 0.0
C969 C 0.81004 0.04 0.27415 0.0
C970 C 0.79385 0.03889 0.29092 0.0
C971 C 0.77979 0.05419 0.2948 0.0
C972 C 0.7636 0.05269 0.31102 0.0
C973 C 0.76024 0.03534 0.32337 0.0
C974 C 0.77436 0.01987 0.31985 0.0
C975 C 0.79155 0.02196 0.30403 0.0
C976 C 0.89694 0.92434 0.29436 0.0
C977 C 0.87867 0.93002 0.2817 0.0
O978 O 0.69421 0.1005 0.36078 0.0
O979 O 0.80728 0.10251 0.21765 0.0
O980 O 0.88366 0.95122 0.27811 0.0
O981 O 0.7297 0.9219 0.38369 0.0
H982 H 0.69707 0.11083 0.39331 0.0
H983 H 0.66323 0.11998 0.38094 0.0
H984 H 0.67813 0.13675 0.36214 0.0
H985 H 0.68107 0.1437 0.39121 0.0
H986 H 0.72685 0.09255 0.38403 0.0
H987 H 0.68674 0.07062 0.32896 0.0
H988 H 0.75063 0.0484 0.38559 0.0
H989 H 0.75673 0.07703 0.39101 0.0
H990 H 0.76879 0.06306 0.36758 0.0
H991 H 0.68946 0.03795 0.30721 0.0
H992 H 0.7038 0.01933 0.31808 0.0
H993 H 0.71779 0.03759 0.3005 0.0
H994 H 0.71622 0.93193 0.41348 0.0
H995 H 0.7393 0.91254 0.43404 0.0
H996 H 0.75586 0.93089 0.41804 0.0
H997 H 0.75204 0.90285 0.4087 0.0
H998 H 0.72767 0.9262 0.34331 0.0
H999 H 0.74375 0.96013 0.40595 0.0
H1000 H 0.72842 0.97351 0.31591 0.0
H1001 H 0.72423 0.94475 0.313 0.0
H1002 H 0.75107 0.95932 0.31051 0.0
H1003 H 0.76176 0.9956 0.40985 0.0
H1004 H 0.74463 0.00964 0.39626 0.0
H1005 H 0.7717 0.00799 0.38586 0.0
H1006 H 0.86352 0.92737 0.29192 0.0
H1007 H 0.84357 0.94223 0.26303 0.0
H1008 H 0.89151 0.99098 0.29317 0.0
H1009 H 0.79915 0.96204 0.2751 0.0
H1010 H 0.81108 0.95071 0.25027 0.0
H1011 H 0.8062 0.97803 0.25318 0.0
H1012 H 0.88369 0.02498 0.30721 0.0
H1013 H 0.85551 0.02721 0.31318 0.0
H1014 H 0.86794 0.03447 0.28791 0.0
H1015 H 0.81027 0.12898 0.24059 0.0
H1016 H 0.79821 0.15233 0.21611 0.0
H1017 H 0.77852 0.12887 0.21863 0.0
H1018 H 0.7954 0.1306 0.19424 0.0
H1019 H 0.78829 0.06371 0.21164 0.0
H1020 H 0.83248 0.10755 0.25255 0.0
H1021 H 0.7728 0.02657 0.24706 0.0
H1022 H 0.7959 0.01691 0.23348 0.0
H1023 H 0.77739 0.02801 0.21823 0.0
H1024 H 0.84749 0.09786 0.28324 0.0
H1025 H 0.84892 0.06979 0.28269 0.0
H1026 H 0.82729 0.08089 0.29761 0.0
H1027 H 0.72553 0.01261 0.3612 0.0
H1028 H 0.78517 0.97487 0.33929 0.0
H1029 H 0.81508 0.97923 0.3137 0.0
H1030 H 0.83684 0.02616 0.25856 0.0
H1031 H 0.78122 0.0676 0.28544 0.0
H1032 H 0.7534 0.06503 0.31337 0.0
H1033 H 0.89334 0.90742 0.29763 0.0
H1034 H 0.89854 0.93458 0.31022 0.0
H1035 H 0.91264 0.92687 0.28508 0.0
C1036 C 0.2044 0.81733 0.42234 0.0
C1037 C 0.18607 0.80591 0.40776 0.0
C1038 C 0.1506 0.81486 0.4001 0.0
C1039 C 0.14774 0.80166 0.38021 0.0
C1040 C 0.12962 0.80155 0.3676 0.0
C1041 C 0.11415 0.81496 0.37495 0.0
C1042 C 0.11708 0.82835 0.39487 0.0
C1043 C 0.13523 0.82802 0.40722 0.0
C1044 C 0.1268 0.78688 0.34657 0.0
C1045 C 0.10088 0.84284 0.40321 0.0
C1046 C 0.97387 0.74357 0.42167 0.0
C1047 C 0.96798 0.74348 0.39791 0.0
C1048 C 0.00214 0.75498 0.37817 0.0
C1049 C 0.00499 0.77643 0.3874 0.0
C1050 C 0.02258 0.79103 0.38086 0.0
C1051 C 0.03749 0.78411 0.36467 0.0
C1052 C 0.03465 0.76259 0.35531 0.0
C1053 C 0.01704 0.74829 0.36228 0.0
C1054 C 0.02533 0.81386 0.39131 0.0
C1055 C 0.05025 0.7547 0.33798 0.0
C1056 C 0.99151 0.8588 0.26335 0.0
C1057 C 0.99682 0.86927 0.28418 0.0
C1058 C 0.01629 0.86739 0.29366 0.0
C1059 C 0.03056 0.85443 0.28235 0.0
C1060 C 0.02513 0.84363 0.26155 0.0
C1061 C 0.00572 0.84605 0.25231 0.0
C1062 C 0.02168 0.87939 0.31577 0.0
C1063 C 0.03986 0.82954 0.24909 0.0
C1064 C 0.18668 0.93427 0.23381 0.0
C1065 C 0.17114 0.91411 0.23805 0.0
C1066 C 0.14348 0.90523 0.26665 0.0
C1067 C 0.13037 0.91393 0.28317 0.0
C1068 C 0.11334 0.90108 0.29308 0.0
C1069 C 0.10933 0.87895 0.28617 0.0
C1070 C 0.12302 0.86987 0.26999 0.0
C1071 C 0.14012 0.88307 0.26055 0.0
C1072 C 0.09931 0.91123 0.31056 0.0
C1073 C 0.11919 0.84631 0.26224 0.0
C1074 C 0.0943 0.8142 0.36246 0.0
C1075 C 0.07582 0.80043 0.36821 0.0
C1076 C 0.0563 0.79928 0.35775 0.0
C1077 C 0.05497 0.81232 0.34116 0.0
C1078 C 0.03545 0.81182 0.33058 0.0
C1079 C 0.03421 0.82499 0.31452 0.0
C1080 C 0.05251 0.83896 0.30824 0.0
C1081 C 0.05135 0.8526 0.29213 0.0
C1082 C 0.07012 0.86543 0.28546 0.0
C1083 C 0.09004 0.8655 0.29484 0.0
C1084 C 0.09129 0.85283 0.31179 0.0
C1085 C 0.1108 0.85339 0.32242 0.0
C1086 C 0.11182 0.84086 0.33911 0.0
C1087 C 0.09345 0.82709 0.3456 0.0
C1088 C 0.07365 0.82622 0.33502 0.0
C1089 C 0.07249 0.83933 0.31832 0.0
C1090 C 0.94097 0.85944 0.27606 0.0
C1091 C 0.95685 0.87222 0.26108 0.0
O1092 O 0.16766 0.8152 0.41306 0.0
O1093 O 0.15849 0.91887 0.25651 0.0
O1094 O 0.97302 0.86043 0.2533 0.0
O1095 O 0.98555 0.74015 0.38415 0.0
H1096 H 0.19148 0.80798 0.39064 0.0
H1097 H 0.19988 0.81613 0.43979 0.0
H1098 H 0.20779 0.83446 0.41983 0.0
H1099 H 0.21944 0.81025 0.41825 0.0
H1100 H 0.15936 0.79119 0.37455 0.0
H1101 H 0.13751 0.8381 0.42259 0.0
H1102 H 0.11132 0.77573 0.34737 0.0
H1103 H 0.14029 0.77743 0.34303 0.0
H1104 H 0.12587 0.79636 0.33286 0.0
H1105 H 0.10617 0.85324 0.41832 0.0
H1106 H 0.08503 0.83308 0.40664 0.0
H1107 H 0.09834 0.85305 0.39057 0.0
H1108 H 0.9626 0.75887 0.3958 0.0
H1109 H 0.98712 0.75684 0.42632 0.0
H1110 H 0.97939 0.72835 0.42411 0.0
H1111 H 0.9596 0.74577 0.43266 0.0
H1112 H 0.99375 0.78191 0.39984 0.0
H1113 H 0.01476 0.73174 0.35528 0.0
H1114 H 0.02465 0.82465 0.37869 0.0
H1115 H 0.04149 0.8182 0.39873 0.0
H1116 H 0.01265 0.81664 0.40408 0.0
H1117 H 0.04527 0.73768 0.33168 0.0
H1118 H 0.06666 0.75657 0.34476 0.0
H1119 H 0.05144 0.76446 0.32419 0.0
H1120 H 0.96389 0.88765 0.27015 0.0
H1121 H 0.98597 0.87898 0.2932 0.0
H1122 H 0.00151 0.83794 0.23631 0.0
H1123 H 0.02176 0.86788 0.32779 0.0
H1124 H 0.00986 0.89026 0.3216 0.0
H1125 H 0.03813 0.8889 0.31518 0.0
H1126 H 0.03246 0.82079 0.23398 0.0
H1127 H 0.04388 0.81782 0.2595 0.0
H1128 H 0.0553 0.83944 0.2446 0.0
H1129 H 0.18103 0.90177 0.241 0.0
H1130 H 0.19757 0.93108 0.21949 0.0
H1131 H 0.19691 0.93994 0.24817 0.0
H1132 H 0.1775 0.94714 0.23086 0.0
H1133 H 0.13319 0.93101 0.28791 0.0
H1134 H 0.15042 0.87603 0.24809 0.0
H1135 H 0.09772 0.90229 0.325 0.0
H1136 H 0.0828 0.91048 0.30435 0.0
H1137 H 0.10593 0.92817 0.31573 0.0
H1138 H 0.13086 0.84181 0.24902 0.0
H1139 H 0.10248 0.84156 0.2562 0.0
H1140 H 0.12067 0.83712 0.27605 0.0
H1141 H 0.07663 0.79051 0.38109 0.0
H1142 H 0.02086 0.80135 0.33471 0.0
H1143 H 0.01874 0.82402 0.30702 0.0
H1144 H 0.0692 0.87559 0.27282 0.0
H1145 H 0.12545 0.86364 0.31803 0.0
H1146 H 0.12722 0.842 0.3468 0.0
H1147 H 0.92846 0.86904 0.28317 0.0
H1148 H 0.94971 0.85518 0.28969 0.0
H1149 H 0.9329 0.84449 0.26686 0.0
C1150 C 0.35397 0.91875 0.35589 0.0
C1151 C 0.34892 0.9152 0.33164 0.0
C1152 C 0.34587 0.9505 0.32082 0.0
C1153 C 0.32547 0.95236 0.3309 0.0
C1154 C 0.31515 0.96995 0.32863 0.0
C1155 C 0.32552 0.98609 0.31629 0.0
C1156 C 0.34626 0.9845 0.3066 0.0
C1157 C 0.35609 0.96668 0.30895 0.0
C1158 C 0.29308 0.97122 0.33926 0.0
C1159 C 0.35797 0.00156 0.29361 0.0
C1160 C 0.31489 0.14072 0.41666 0.0
C1161 C 0.32472 0.1263 0.39867 0.0
C1162 C 0.31125 0.09102 0.37941 0.0
C1163 C 0.32642 0.09198 0.36187 0.0
C1164 C 0.32544 0.07532 0.34472 0.0
C1165 C 0.30877 0.05757 0.34494 0.0
C1166 C 0.29349 0.05661 0.36255 0.0
C1167 C 0.29506 0.0733 0.37962 0.0
C1168 C 0.34218 0.07668 0.32634 0.0
C1169 C 0.27545 0.03798 0.36329 0.0
C1170 C 0.23582 0.09864 0.23878 0.0
C1171 C 0.25666 0.09658 0.22991 0.0
C1172 C 0.26647 0.07887 0.23292 0.0
C1173 C 0.25512 0.06275 0.2447 0.0
C1174 C 0.23395 0.06449 0.25312 0.0
C1175 C 0.22468 0.08252 0.25019 0.0
C1176 C 0.28906 0.07746 0.22368 0.0
C1177 C 0.22114 0.04736 0.26532 0.0
C1178 C 0.26257 0.91363 0.13819 0.0
C1179 C 0.25244 0.92831 0.15573 0.0
C1180 C 0.26811 0.95466 0.18507 0.0
C1181 C 0.2882 0.96671 0.19029 0.0
C1182 C 0.28981 0.98512 0.20534 0.0
C1183 C 0.27088 0.99069 0.21672 0.0
C1184 C 0.2504 0.97871 0.21122 0.0
C1185 C 0.24921 0.96115 0.19506 0.0
C1186 C 0.31187 0.99823 0.20922 0.0
C1187 C 0.22976 0.98399 0.22282 0.0
C1188 C 0.31456 0.00444 0.31308 0.0
C1189 C 0.31627 0.02188 0.32923 0.0
C1190 C 0.30713 0.04002 0.32673 0.0
C1191 C 0.29641 0.0411 0.30737 0.0
C1192 C 0.28746 0.05927 0.30409 0.0
C1193 C 0.27736 0.06033 0.2848 0.0
C1194 C 0.27555 0.04316 0.26813 0.0
C1195 C 0.26541 0.04412 0.24842 0.0
C1196 C 0.26448 0.02701 0.23194 0.0
C1197 C 0.27258 0.00839 0.23488 0.0
C1198 C 0.28215 0.00689 0.25482 0.0
C1199 C 0.28973 0.98817 0.25881 0.0
C1200 C 0.30031 0.9873 0.27786 0.0
C1201 C 0.30325 0.00494 0.29394 0.0
C1202 C 0.29458 0.02352 0.29088 0.0
C1203 C 0.2841 0.02453 0.27125 0.0
C1204 C 0.22255 0.15212 0.23617 0.0
C1205 C 0.23361 0.13334 0.2262 0.0
O1206 O 0.35637 0.9336 0.32208 0.0
O1207 O 0.26775 0.93638 0.17126 0.0
O1208 O 0.2258 0.11572 0.23683 0.0
O1209 O 0.31176 0.10653 0.39658 0.0
H1210 H 0.33119 0.91042 0.32958 0.0
H1211 H 0.34585 0.93188 0.36424 0.0
H1212 H 0.37172 0.92305 0.35813 0.0
H1213 H 0.34798 0.90409 0.36369 0.0
H1214 H 0.31746 0.94024 0.34053 0.0
H1215 H 0.37187 0.96522 0.30137 0.0
H1216 H 0.2941 0.98541 0.35166 0.0
H1217 H 0.28662 0.95682 0.3473 0.0
H1218 H 0.28148 0.97321 0.32692 0.0
H1219 H 0.37477 0.99891 0.28877 0.0
H1220 H 0.35859 0.01747 0.30323 0.0
H1221 H 0.34896 0.00179 0.27864 0.0
H1222 H 0.32498 0.13372 0.38329 0.0
H1223 H 0.32481 0.15681 0.41875 0.0
H1224 H 0.3139 0.13382 0.43237 0.0
H1225 H 0.29827 0.14237 0.41228 0.0
H1226 H 0.33915 0.10554 0.36154 0.0
H1227 H 0.28349 0.07266 0.39324 0.0
H1228 H 0.34987 0.06201 0.324 0.0
H1229 H 0.35503 0.09075 0.32934 0.0
H1230 H 0.33419 0.07772 0.31097 0.0
H1231 H 0.26412 0.04023 0.37748 0.0
H1232 H 0.28245 0.02322 0.36421 0.0
H1233 H 0.26613 0.03562 0.34813 0.0
H1234 H 0.25126 0.13836 0.22869 0.0
H1235 H 0.26546 0.10866 0.22071 0.0
H1236 H 0.20857 0.08412 0.25684 0.0
H1237 H 0.29977 0.07534 0.23679 0.0
H1238 H 0.29623 0.09186 0.21596 0.0
H1239 H 0.28863 0.0633 0.2113 0.0
H1240 H 0.20422 0.0502 0.26917 0.0
H1241 H 0.22915 0.04676 0.2808 0.0
H1242 H 0.22077 0.03153 0.25556 0.0
H1243 H 0.24789 0.94152 0.1476 0.0
H1244 H 0.27699 0.92271 0.13056 0.0
H1245 H 0.25082 0.90706 0.1253 0.0
H1246 H 0.26775 0.9002 0.14539 0.0
H1247 H 0.3027 0.96175 0.18231 0.0
H1248 H 0.23352 0.95214 0.19104 0.0
H1249 H 0.31939 0.99268 0.22292 0.0
H1250 H 0.31077 0.01543 0.21341 0.0
H1251 H 0.32282 0.99638 0.19467 0.0
H1252 H 0.21568 0.97142 0.21878 0.0
H1253 H 0.22605 0.99915 0.218 0.0
H1254 H 0.23168 0.98617 0.24073 0.0
H1255 H 0.32481 0.02133 0.34394 0.0
H1256 H 0.28835 0.07299 0.31633 0.0
H1257 H 0.27104 0.07485 0.28309 0.0
H1258 H 0.25713 0.02812 0.21668 0.0
H1259 H 0.28777 0.97399 0.24716 0.0
H1260 H 0.30612 0.97259 0.27982 0.0
H1261 H 0.22829 0.1664 0.22768 0.0
H1262 H 0.22656 0.1561 0.25363 0.0
H1263 H 0.20464 0.14811 0.23505 0.0
C1264 C 0.91017 0.87055 0.89712 0.0
C1265 C 0.91462 0.86486 0.87282 0.0
C1266 C 0.94021 0.84112 0.85681 0.0
C1267 C 0.94823 0.8526 0.83938 0.0
C1268 C 0.96591 0.84697 0.82629 0.0
C1269 C 0.97574 0.82954 0.83068 0.0
C1270 C 0.96761 0.81786 0.84808 0.0
C1271 C 0.94983 0.82372 0.86079 0.0
C1272 C 0.97403 0.85956 0.80766 0.0
C1273 C 0.97772 0.79919 0.85324 0.0
C1274 C 0.14079 0.83738 0.84244 0.0
C1275 C 0.12993 0.85514 0.85525 0.0
C1276 C 0.09679 0.85452 0.83508 0.0
C1277 C 0.08582 0.83519 0.84149 0.0
C1278 C 0.06519 0.82652 0.83377 0.0
C1279 C 0.05523 0.83738 0.81941 0.0
C1280 C 0.06605 0.85693 0.81312 0.0
C1281 C 0.08672 0.86522 0.82103 0.0
C1282 C 0.05405 0.80564 0.84085 0.0
C1283 C 0.05582 0.8689 0.79787 0.0
C1284 C 0.07504 0.74045 0.69896 0.0
C1285 C 0.06991 0.73448 0.71996 0.0
C1286 C 0.05348 0.74274 0.73297 0.0
C1287 C 0.04224 0.75765 0.72505 0.0
C1288 C 0.04799 0.76442 0.70435 0.0
C1289 C 0.06433 0.7557 0.69157 0.0
C1290 C 0.04782 0.73515 0.75499 0.0
C1291 C 0.03655 0.78052 0.69556 0.0
C1292 C 0.86676 0.69601 0.73922 0.0
C1293 C 0.8846 0.71023 0.72774 0.0
C1294 C 0.92358 0.71799 0.73412 0.0
C1295 C 0.93956 0.71171 0.74576 0.0
C1296 C 0.95945 0.7249 0.74956 0.0
C1297 C 0.96367 0.74469 0.74092 0.0
C1298 C 0.94786 0.75085 0.72841 0.0
C1299 C 0.92785 0.73751 0.72529 0.0
C1300 C 0.97593 0.71766 0.76286 0.0
C1301 C 0.95211 0.77153 0.71841 0.0
C1302 C 0.99444 0.82343 0.81696 0.0
C1303 C 0.01526 0.83327 0.82286 0.0
C1304 C 0.03359 0.82802 0.81087 0.0
C1305 C 0.03118 0.81296 0.79208 0.0
C1306 C 0.04924 0.8078 0.77925 0.0
C1307 C 0.04675 0.79246 0.76118 0.0
C1308 C 0.02616 0.78141 0.75549 0.0
C1309 C 0.02355 0.76503 0.73784 0.0
C1310 C 0.00287 0.75409 0.73292 0.0
C1311 C 0.98459 0.75886 0.74528 0.0
C1312 C 0.98681 0.77543 0.76277 0.0
C1313 C 0.96874 0.78077 0.77546 0.0
C1314 C 0.97114 0.79679 0.79291 0.0
C1315 C 0.99175 0.80771 0.79871 0.0
C1316 C 0.0102 0.80256 0.78616 0.0
C1317 C 0.0077 0.78661 0.76799 0.0
C1318 C 0.0827 0.69363 0.68502 0.0
C1319 C 0.09938 0.71408 0.68792 0.0
O1320 O 0.92314 0.84593 0.86995 0.0
O1321 O 0.90445 0.70465 0.73158 0.0
O1322 O 0.08974 0.73165 0.68518 0.0
O1323 O 0.11701 0.8633 0.8418 0.0
H1324 H 0.92672 0.87813 0.86762 0.0
H1325 H 0.92562 0.873 0.9059 0.0
H1326 H 0.89913 0.85734 0.90378 0.0
H1327 H 0.90316 0.8856 0.90009 0.0
H1328 H 0.94067 0.86576 0.83566 0.0
H1329 H 0.94345 0.81485 0.87414 0.0
H1330 H 0.99123 0.86676 0.81009 0.0
H1331 H 0.96441 0.87247 0.80609 0.0
H1332 H 0.97338 0.84873 0.79216 0.0
H1333 H 0.96986 0.79212 0.86771 0.0
H1334 H 0.99523 0.80437 0.85629 0.0
H1335 H 0.97643 0.78667 0.83907 0.0
H1336 H 0.1201 0.8489 0.86919 0.0
H1337 H 0.15086 0.83073 0.85338 0.0
H1338 H 0.15123 0.84358 0.82887 0.0
H1339 H 0.12846 0.82418 0.83546 0.0
H1340 H 0.09322 0.82663 0.85237 0.0
H1341 H 0.09522 0.88012 0.81618 0.0
H1342 H 0.05094 0.79362 0.82638 0.0
H1343 H 0.03813 0.80779 0.84883 0.0
H1344 H 0.06381 0.7993 0.85236 0.0
H1345 H 0.06629 0.88398 0.7946 0.0
H1346 H 0.04002 0.87268 0.80496 0.0
H1347 H 0.05255 0.8587 0.78218 0.0
H1348 H 0.10642 0.71591 0.70433 0.0
H1349 H 0.07832 0.72308 0.72623 0.0
H1350 H 0.0685 0.76042 0.67548 0.0
H1351 H 0.05109 0.74877 0.76793 0.0
H1352 H 0.05724 0.72258 0.75826 0.0
H1353 H 0.03029 0.72874 0.75612 0.0
H1354 H 0.0443 0.78569 0.68016 0.0
H1355 H 0.03642 0.79474 0.70779 0.0
H1356 H 0.01943 0.77344 0.69244 0.0
H1357 H 0.88385 0.72698 0.73485 0.0
H1358 H 0.85064 0.70041 0.73664 0.0
H1359 H 0.86952 0.6981 0.757 0.0
H1360 H 0.86667 0.67894 0.73301 0.0
H1361 H 0.93625 0.69657 0.75234 0.0
H1362 H 0.91574 0.74227 0.71578 0.0
H1363 H 0.98189 0.73046 0.77592 0.0
H1364 H 0.99004 0.71423 0.75219 0.0
H1365 H 0.96921 0.70303 0.77044 0.0
H1366 H 0.93901 0.77312 0.7075 0.0
H1367 H 0.96774 0.77265 0.70896 0.0
H1368 H 0.9535 0.78513 0.73151 0.0
H1369 H 0.01724 0.84485 0.83725 0.0
H1370 H 0.06552 0.81556 0.78305 0.0
H1371 H 0.06121 0.78913 0.7519 0.0
H1372 H 0.00106 0.74113 0.71975 0.0
H1373 H 0.95251 0.77265 0.77203 0.0
H1374 H 0.95663 0.80026 0.80201 0.0
H1375 H 0.09058 0.67948 0.68648 0.0
H1376 H 0.07527 0.69172 0.6688 0.0
H1377 H 0.06956 0.69402 0.69769 0.0
C1378 C 0.12487 0.04082 0.85734 0.0
C1379 C 0.14917 0.04895 0.85558 0.0
C1380 C 0.1772 0.03437 0.83207 0.0
C1381 C 0.19504 0.04363 0.84474 0.0
C1382 C 0.21529 0.03682 0.84063 0.0
C1383 C 0.21762 0.02018 0.82378 0.0
C1384 C 0.19972 0.01103 0.81082 0.0
C1385 C 0.17983 0.01857 0.81491 0.0
C1386 C 0.23411 0.04721 0.85452 0.0
C1387 C 0.20142 0.99297 0.79299 0.0
C1388 C 0.26161 0.90824 0.92058 0.0
C1389 C 0.25195 0.92108 0.90532 0.0
C1390 C 0.26563 0.94015 0.87497 0.0
C1391 C 0.26202 0.9343 0.85284 0.0
C1392 C 0.26032 0.9497 0.83897 0.0
C1393 C 0.26334 0.97157 0.84738 0.0
C1394 C 0.26771 0.97757 0.86973 0.0
C1395 C 0.26858 0.96172 0.88334 0.0
C1396 C 0.25495 0.94247 0.81544 0.0
C1397 C 0.27132 0.00067 0.87926 0.0
C1398 C 0.37766 0.97405 0.75602 0.0
C1399 C 0.35674 0.96316 0.75161 0.0
C1400 C 0.33881 0.97406 0.75348 0.0
C1401 C 0.34172 0.99616 0.76092 0.0
C1402 C 0.36286 0.00724 0.765 0.0
C1403 C 0.38061 0.99606 0.76206 0.0
C1404 C 0.31676 0.96178 0.7477 0.0
C1405 C 0.36669 0.03076 0.77292 0.0
C1406 C 0.26219 0.10572 0.67531 0.0
C1407 C 0.27781 0.10278 0.69255 0.0
C1408 C 0.2873 0.07037 0.70454 0.0
C1409 C 0.28396 0.0482 0.69983 0.0
C1410 C 0.28782 0.03503 0.71532 0.0
C1411 C 0.29587 0.04438 0.73584 0.0
C1412 C 0.30012 0.06686 0.7404 0.0
C1413 C 0.29552 0.07963 0.72482 0.0
C1414 C 0.28306 0.01114 0.70983 0.0
C1415 C 0.30946 0.07741 0.76178 0.0
C1416 C 0.23837 0.01148 0.82068 0.0
C1417 C 0.24214 0.99695 0.83466 0.0
C1418 C 0.26126 0.98803 0.83294 0.0
C1419 C 0.27727 0.99392 0.81696 0.0
C1420 C 0.2971 0.98602 0.81539 0.0
C1421 C 0.31219 0.99084 0.79878 0.0
C1422 C 0.30799 0.00366 0.78303 0.0
C1423 C 0.32254 0.00737 0.76519 0.0
C1424 C 0.31826 0.02089 0.75033 0.0
C1425 C 0.2996 0.03061 0.75256 0.0
C1426 C 0.28451 0.0265 0.76992 0.0
C1427 C 0.26524 0.03547 0.77236 0.0
C1428 C 0.25033 0.03098 0.78925 0.0
C1429 C 0.25385 0.01696 0.80406 0.0
C1430 C 0.27331 0.00801 0.80212 0.0
C1431 C 0.28869 0.01285 0.7851 0.0
C1432 C 0.41788 0.94113 0.76596 0.0
C1433 C 0.39545 0.94306 0.75839 0.0
O1434 O 0.15727 0.04026 0.83584 0.0
O1435 O 0.28258 0.08218 0.68905 0.0
O1436 O 0.39533 0.96391 0.75442 0.0
O1437 O 0.26634 0.92474 0.88798 0.0
H1438 H 0.15664 0.0435 0.86946 0.0
H1439 H 0.12207 0.02311 0.85574 0.0
H1440 H 0.11621 0.0461 0.84421 0.0
H1441 H 0.11802 0.04677 0.8734 0.0
H1442 H 0.19328 0.05623 0.85776 0.0
H1443 H 0.16599 0.01166 0.80513 0.0
H1444 H 0.23805 0.03573 0.86522 0.0
H1445 H 0.23049 0.06174 0.86493 0.0
H1446 H 0.2487 0.05159 0.84408 0.0
H1447 H 0.18553 0.98641 0.78566 0.0
H1448 H 0.20797 0.97991 0.7995 0.0
H1449 H 0.21285 0.99869 0.77993 0.0
H1450 H 0.24916 0.93643 0.91477 0.0
H1451 H 0.26477 0.89271 0.91188 0.0
H1452 H 0.25036 0.90524 0.93471 0.0
H1453 H 0.27716 0.91732 0.92681 0.0
H1454 H 0.25988 0.91753 0.8466 0.0
H1455 H 0.2718 0.96612 0.90047 0.0
H1456 H 0.26963 0.9462 0.80496 0.0
H1457 H 0.24225 0.951 0.81028 0.0
H1458 H 0.24922 0.92504 0.81256 0.0
H1459 H 0.27811 0.00284 0.89579 0.0
H1460 H 0.25563 0.00683 0.88047 0.0
H1461 H 0.28249 0.01039 0.86854 0.0
H1462 H 0.38362 0.93886 0.77181 0.0
H1463 H 0.35429 0.9462 0.74646 0.0
H1464 H 0.39686 0.00437 0.76517 0.0
H1465 H 0.30755 0.95787 0.76283 0.0
H1466 H 0.31802 0.94659 0.73724 0.0
H1467 H 0.30735 0.97141 0.73909 0.0
H1468 H 0.38373 0.03648 0.77762 0.0
H1469 H 0.35578 0.03427 0.78716 0.0
H1470 H 0.36287 0.03988 0.75983 0.0
H1471 H 0.26936 0.10546 0.70869 0.0
H1472 H 0.25801 0.12212 0.67789 0.0
H1473 H 0.247 0.09421 0.67649 0.0
H1474 H 0.26951 0.10289 0.65868 0.0
H1475 H 0.27781 0.0412 0.68408 0.0
H1476 H 0.29862 0.0968 0.72849 0.0
H1477 H 0.27259 0.00393 0.72284 0.0
H1478 H 0.29844 0.00441 0.70891 0.0
H1479 H 0.27491 0.00642 0.69403 0.0
H1480 H 0.31446 0.09486 0.76171 0.0
H1481 H 0.32372 0.07022 0.76547 0.0
H1482 H 0.29715 0.07475 0.77509 0.0
H1483 H 0.22988 0.99232 0.84692 0.0
H1484 H 0.30108 0.97583 0.82686 0.0
H1485 H 0.3271 0.98415 0.79831 0.0
H1486 H 0.32943 0.0236 0.73662 0.0
H1487 H 0.26141 0.046 0.76117 0.0
H1488 H 0.23581 0.03837 0.79034 0.0
H1489 H 0.41836 0.92462 0.7696 0.0
H1490 H 0.42168 0.95219 0.78103 0.0
H1491 H 0.43051 0.94525 0.75325 0.0
C1492 C 0.01194 0.41208 0.68608 0.0
C1493 C 0.00374 0.38907 0.69036 0.0
C1494 C 0.02249 0.37961 0.72094 0.0
C1495 C 0.03205 0.36251 0.71037 0.0
C1496 C 0.04858 0.35481 0.72018 0.0
C1497 C 0.05559 0.3643 0.74103 0.0
C1498 C 0.04587 0.38142 0.75175 0.0
C1499 C 0.02925 0.38866 0.74165 0.0
C1500 C 0.0585 0.33645 0.70829 0.0
C1501 C 0.05299 0.39198 0.77393 0.0
C1502 C 0.21441 0.40948 0.72491 0.0
C1503 C 0.21512 0.38691 0.73054 0.0
C1504 C 0.17685 0.36947 0.73095 0.0
C1505 C 0.16935 0.38218 0.749 0.0
C1506 C 0.14771 0.37801 0.75665 0.0
C1507 C 0.13355 0.36058 0.7463 0.0
C1508 C 0.14116 0.3478 0.72817 0.0
C1509 C 0.16267 0.35252 0.72072 0.0
C1510 C 0.14007 0.39189 0.77604 0.0
C1511 C 0.12671 0.32883 0.71695 0.0
C1512 C 0.14124 0.26356 0.83815 0.0
C1513 C 0.13314 0.28056 0.85081 0.0
C1514 C 0.11664 0.29004 0.84308 0.0
C1515 C 0.10811 0.28238 0.82235 0.0
C1516 C 0.11617 0.26522 0.80966 0.0
C1517 C 0.13272 0.25614 0.8177 0.0
C1518 C 0.10848 0.30843 0.85691 0.0
C1519 C 0.10739 0.25655 0.78751 0.0
C1520 C 0.95401 0.25332 0.86477 0.0
C1521 C 0.95121 0.26109 0.84279 0.0
C1522 C 0.98712 0.26431 0.82406 0.0
C1523 C 0.9969 0.28242 0.83733 0.0
C1524 C 0.01824 0.29193 0.83285 0.0
C1525 C 0.02999 0.28321 0.81476 0.0
C1526 C 0.02023 0.26498 0.80145 0.0
C1527 C 0.99894 0.25575 0.80635 0.0
C1528 C 0.02828 0.31128 0.84743 0.0
C1529 C 0.03231 0.25521 0.78207 0.0
C1530 C 0.07265 0.3559 0.75183 0.0
C1531 C 0.09435 0.36283 0.74623 0.0
C1532 C 0.11113 0.35478 0.75503 0.0
C1533 C 0.10628 0.33984 0.7703 0.0
C1534 C 0.1228 0.33167 0.77967 0.0
C1535 C 0.11789 0.31645 0.79412 0.0
C1536 C 0.09625 0.30864 0.79961 0.0
C1537 C 0.09111 0.29257 0.81363 0.0
C1538 C 0.06943 0.28503 0.81863 0.0
C1539 C 0.05259 0.29298 0.80982 0.0
C1540 C 0.05742 0.30907 0.79576 0.0
C1541 C 0.0409 0.3173 0.78646 0.0
C1542 C 0.04582 0.33274 0.77221 0.0
C1543 C 0.06747 0.34057 0.7667 0.0
C1544 C 0.08437 0.33259 0.77601 0.0
C1545 C 0.07934 0.31688 0.7906 0.0
C1546 C 0.18536 0.27476 0.86645 0.0
C1547 C 0.16628 0.25647 0.86506 0.0
O1548 O 0.00617 0.38724 0.71218 0.0
O1549 O 0.96657 0.25443 0.82772 0.0
O1550 O 0.15737 0.254 0.84468 0.0
O1551 O 0.19737 0.37291 0.72248 0.0
H1552 H 0.01332 0.37874 0.6794 0.0
H1553 H 0.02916 0.41653 0.69067 0.0
H1554 H 0.00224 0.42321 0.69587 0.0
H1555 H 0.01095 0.41386 0.66854 0.0
H1556 H 0.02633 0.3547 0.69477 0.0
H1557 H 0.02158 0.40165 0.74981 0.0
H1558 H 0.07562 0.34217 0.70374 0.0
H1559 H 0.04981 0.32943 0.69324 0.0
H1560 H 0.05843 0.32376 0.71905 0.0
H1561 H 0.04495 0.4061 0.7794 0.0
H1562 H 0.07083 0.39706 0.77366 0.0
H1563 H 0.04913 0.38037 0.78602 0.0
H1564 H 0.21563 0.38705 0.74851 0.0
H1565 H 0.19929 0.41517 0.73152 0.0
H1566 H 0.21506 0.40995 0.70702 0.0
H1567 H 0.22841 0.42064 0.73205 0.0
H1568 H 0.18019 0.39529 0.7572 0.0
H1569 H 0.16865 0.34283 0.70682 0.0
H1570 H 0.1251 0.39779 0.77211 0.0
H1571 H 0.15252 0.40578 0.78125 0.0
H1572 H 0.13598 0.38228 0.78986 0.0
H1573 H 0.13475 0.32128 0.70229 0.0
H1574 H 0.11159 0.33372 0.71202 0.0
H1575 H 0.12205 0.31674 0.72846 0.0
H1576 H 0.15407 0.25981 0.8782 0.0
H1577 H 0.13974 0.28671 0.86656 0.0
H1578 H 0.13911 0.24308 0.80803 0.0
H1579 H 0.11078 0.32261 0.84785 0.0
H1580 H 0.11692 0.31272 0.87259 0.0
H1581 H 0.09083 0.30425 0.86041 0.0
H1582 H 0.11464 0.24245 0.78015 0.0
H1583 H 0.11077 0.26913 0.7764 0.0
H1584 H 0.08953 0.25196 0.78882 0.0
H1585 H 0.95262 0.27878 0.84483 0.0
H1586 H 0.94152 0.25845 0.87679 0.0
H1587 H 0.97021 0.26015 0.87119 0.0
H1588 H 0.95252 0.23565 0.86306 0.0
H1589 H 0.98813 0.28916 0.85128 0.0
H1590 H 0.99134 0.24176 0.79626 0.0
H1591 H 0.03306 0.32485 0.8377 0.0
H1592 H 0.04324 0.30792 0.85444 0.0
H1593 H 0.01709 0.31611 0.86095 0.0
H1594 H 0.02222 0.24136 0.77299 0.0
H1595 H 0.04698 0.24987 0.78759 0.0
H1596 H 0.0378 0.26735 0.77079 0.0
H1597 H 0.09819 0.37418 0.73442 0.0
H1598 H 0.13975 0.33692 0.77592 0.0
H1599 H 0.13129 0.31074 0.80078 0.0
H1600 H 0.0656 0.27247 0.82914 0.0
H1601 H 0.02395 0.31181 0.79001 0.0
H1602 H 0.03242 0.33835 0.76545 0.0
H1603 H 0.19272 0.27673 0.8827 0.0
H1604 H 0.17974 0.28993 0.86412 0.0
H1605 H 0.19793 0.27161 0.85366 0.0
C1606 C 0.84362 0.92548 0.85106 0.0
C1607 C 0.83568 0.91377 0.82912 0.0
C1608 C 0.83132 0.94376 0.809 0.0
C1609 C 0.81236 0.9489 0.82019 0.0
C1610 C 0.80357 0.96694 0.81625 0.0
C1611 C 0.81397 0.98015 0.8009 0.0
C1612 C 0.83276 0.97477 0.78929 0.0
C1613 C 0.84111 0.95657 0.79344 0.0
C1614 C 0.78335 0.97209 0.82873 0.0
C1615 C 0.84422 0.98846 0.77275 0.0
C1616 C 0.84671 0.13826 0.89479 0.0
C1617 C 0.85008 0.12292 0.87442 0.0
C1618 C 0.82871 0.0892 0.859 0.0
C1619 C 0.83897 0.08808 0.83825 0.0
C1620 C 0.83172 0.07156 0.82189 0.0
C1621 C 0.81358 0.05622 0.82622 0.0
C1622 C 0.80294 0.05768 0.84694 0.0
C1623 C 0.81085 0.07399 0.86312 0.0
C1624 C 0.8437 0.07024 0.80012 0.0
C1625 C 0.78344 0.04176 0.85217 0.0
C1626 C 0.72965 0.10153 0.72989 0.0
C1627 C 0.74753 0.09394 0.71869 0.0
C1628 C 0.75387 0.07478 0.723 0.0
C1629 C 0.74202 0.06286 0.73865 0.0
C1630 C 0.72379 0.07024 0.74966 0.0
C1631 C 0.71787 0.0895 0.74512 0.0
C1632 C 0.77324 0.06719 0.71079 0.0
C1633 C 0.71062 0.05778 0.76623 0.0
C1634 C 0.67253 0.90409 0.67124 0.0
C1635 C 0.68468 0.9154 0.69127 0.0
C1636 C 0.71199 0.94765 0.69705 0.0
C1637 C 0.72958 0.96001 0.68758 0.0
C1638 C 0.74079 0.97839 0.69924 0.0
C1639 C 0.73399 0.98468 0.72086 0.0
C1640 C 0.71603 0.97242 0.73048 0.0
C1641 C 0.70547 0.95387 0.71865 0.0
C1642 C 0.75991 0.99105 0.68851 0.0
C1643 C 0.70793 0.97886 0.75334 0.0
C1644 C 0.8058 0.00012 0.79772 0.0
C1645 C 0.8132 0.0185 0.81159 0.0
C1646 C 0.80632 0.03794 0.80965 0.0
C1647 C 0.79204 0.03931 0.79301 0.0
C1648 C 0.78521 0.0587 0.79017 0.0
C1649 C 0.77123 0.05987 0.77366 0.0
C1650 C 0.76303 0.04157 0.75977 0.0
C1651 C 0.7485 0.04249 0.74319 0.0
C1652 C 0.73978 0.02379 0.73046 0.0
C1653 C 0.74548 0.0041 0.7335 0.0
C1654 C 0.76082 0.00301 0.74923 0.0
C1655 C 0.76768 0.98362 0.75202 0.0
C1656 C 0.78257 0.98266 0.76774 0.0
C1657 C 0.79095 0.00099 0.78146 0.0
C1658 C 0.78421 0.02072 0.77898 0.0
C1659 C 0.7694 0.02178 0.7626 0.0
C1660 C 0.72802 0.15732 0.72436 0.0
C1661 C 0.73392 0.13576 0.71456 0.0
O1662 O 0.8409 0.9269 0.81279 0.0
O1663 O 0.70187 0.93003 0.6848 0.0
O1664 O 0.72308 0.12015 0.7265 0.0
O1665 O 0.83576 0.1042 0.87568 0.0
H1666 H 0.8179 0.90849 0.83039 0.0
H1667 H 0.83569 0.93982 0.85553 0.0
H1668 H 0.86145 0.93063 0.85025 0.0
H1669 H 0.83963 0.91493 0.86415 0.0
H1670 H 0.80438 0.93909 0.83214 0.0
H1671 H 0.85564 0.95246 0.78478 0.0
H1672 H 0.78732 0.9872 0.83962 0.0
H1673 H 0.77617 0.95934 0.83877 0.0
H1674 H 0.77104 0.97448 0.81729 0.0
H1675 H 0.85858 0.98202 0.76496 0.0
H1676 H 0.84955 0.00485 0.78075 0.0
H1677 H 0.83284 0.98966 0.75989 0.0
H1678 H 0.84659 0.13042 0.85997 0.0
H1679 H 0.8583 0.15328 0.8946 0.0
H1680 H 0.84916 0.13096 0.9097 0.0
H1681 H 0.82996 0.14213 0.89545 0.0
H1682 H 0.85289 0.0997 0.83486 0.0
H1683 H 0.80307 0.07497 0.87916 0.0
H1684 H 0.83269 0.07195 0.78713 0.0
H1685 H 0.84897 0.05436 0.79638 0.0
H1686 H 0.85815 0.08278 0.79965 0.0
H1687 H 0.77527 0.04678 0.86787 0.0
H1688 H 0.78864 0.02613 0.85325 0.0
H1689 H 0.77154 0.0395 0.83902 0.0
H1690 H 0.75178 0.13686 0.71576 0.0
H1691 H 0.75656 0.10273 0.70648 0.0
H1692 H 0.704 0.09535 0.75356 0.0
H1693 H 0.78541 0.0651 0.72252 0.0
H1694 H 0.78106 0.07848 0.69942 0.0
H1695 H 0.76815 0.05142 0.70135 0.0
H1696 H 0.69677 0.06558 0.77326 0.0
H1697 H 0.72112 0.056 0.77964 0.0
H1698 H 0.70427 0.04151 0.75853 0.0
H1699 H 0.67268 0.92366 0.70143 0.0
H1700 H 0.66589 0.91592 0.6628 0.0
H1701 H 0.65879 0.89217 0.67614 0.0
H1702 H 0.6834 0.8959 0.65958 0.0
H1703 H 0.73459 0.95513 0.67096 0.0
H1704 H 0.69213 0.94449 0.72647 0.0
H1705 H 0.77428 0.99314 0.69888 0.0
H1706 H 0.7562 0.00718 0.68682 0.0
H1707 H 0.76407 0.98328 0.67213 0.0
H1708 H 0.69157 0.9701 0.75683 0.0
H1709 H 0.70715 0.99622 0.75596 0.0
H1710 H 0.71934 0.97543 0.76516 0.0
H1711 H 0.82427 0.0176 0.8243 0.0
H1712 H 0.79076 0.07324 0.80056 0.0
H1713 H 0.7667 0.07526 0.7721 0.0
H1714 H 0.72816 0.02453 0.71821 0.0
H1715 H 0.76169 0.96897 0.74199 0.0
H1716 H 0.78729 0.96731 0.76913 0.0
H1717 H 0.73625 0.17019 0.71495 0.0
H1718 H 0.73339 0.16094 0.74144 0.0
H1719 H 0.71021 0.15717 0.72436 0.0
C1720 C 0.37068 0.82478 0.66136 0.0
C1721 C 0.37547 0.84543 0.65059 0.0
C1722 C 0.34811 0.8423 0.6225 0.0
C1723 C 0.32987 0.85031 0.61682 0.0
C1724 C 0.32042 0.84381 0.59652 0.0
C1725 C 0.32945 0.82882 0.58154 0.0
C1726 C 0.3477 0.82034 0.58725 0.0
C1727 C 0.35683 0.82712 0.60769 0.0
C1728 C 0.30093 0.85311 0.59096 0.0
C1729 C 0.35763 0.80425 0.57165 0.0
C1730 C 0.38451 0.91789 0.4582 0.0
C1731 C 0.37863 0.89369 0.45742 0.0
C1732 C 0.34836 0.87374 0.47665 0.0
C1733 C 0.35859 0.8563 0.47971 0.0
C1734 C 0.34954 0.84169 0.4941 0.0
C1735 C 0.32986 0.84454 0.50555 0.0
C1736 C 0.3192 0.8617 0.50195 0.0
C1737 C 0.32853 0.87596 0.48737 0.0
C1738 C 0.36107 0.82331 0.49725 0.0
C1739 C 0.29816 0.86518 0.51382 0.0
C1740 C 0.23364 0.7436 0.43701 0.0
C1741 C 0.24642 0.73088 0.44611 0.0
C1742 C 0.25298 0.73582 0.46775 0.0
C1743 C 0.24603 0.75341 0.48082 0.0
C1744 C 0.23206 0.76544 0.47208 0.0
C1745 C 0.22636 0.76056 0.45018 0.0
C1746 C 0.26759 0.72236 0.47651 0.0
C1747 C 0.22352 0.78376 0.48567 0.0
C1748 C 0.21256 0.71216 0.63981 0.0
C1749 C 0.20404 0.69815 0.61924 0.0
C1750 C 0.22794 0.71088 0.58895 0.0
C1751 C 0.24506 0.7061 0.57482 0.0
C1752 C 0.25359 0.71953 0.55918 0.0
C1753 C 0.24459 0.7382 0.55749 0.0
C1754 C 0.22723 0.74321 0.57172 0.0
C1755 C 0.21916 0.72959 0.58744 0.0
C1756 C 0.27231 0.71381 0.54452 0.0
C1757 C 0.21731 0.76303 0.57038 0.0
C1758 C 0.32031 0.82261 0.55959 0.0
C1759 C 0.32855 0.83495 0.54306 0.0
C1760 C 0.32085 0.83013 0.52194 0.0
C1761 C 0.30455 0.81238 0.51702 0.0
C1762 C 0.29689 0.80672 0.49581 0.0
C1763 C 0.28067 0.78939 0.49118 0.0
C1764 C 0.27121 0.77723 0.50764 0.0
C1765 C 0.25435 0.75986 0.50315 0.0
C1766 C 0.2457 0.74783 0.51984 0.0
C1767 C 0.25356 0.75252 0.54095 0.0
C1768 C 0.27024 0.76998 0.54577 0.0
C1769 C 0.2785 0.77521 0.56681 0.0
C1770 C 0.2949 0.79242 0.5714 0.0
C1771 C 0.30372 0.80503 0.5551 0.0
C1772 C 0.29577 0.79995 0.53373 0.0
C1773 C 0.279 0.78242 0.52906 0.0
C1774 C 0.23304 0.73199 0.37748 0.0
C1775 C 0.23342 0.72448 0.39996 0.0
O1776 O 0.35657 0.84966 0.64233 0.0
O1777 O 0.22069 0.69703 0.6037 0.0
O1778 O 0.22808 0.74029 0.41573 0.0
O1779 O 0.35699 0.88872 0.46357 0.0
H1780 H 0.38811 0.84397 0.63746 0.0
H1781 H 0.36373 0.81132 0.64944 0.0
H1782 H 0.35886 0.82646 0.67523 0.0
H1783 H 0.38582 0.82076 0.66738 0.0
H1784 H 0.32316 0.86189 0.62836 0.0
H1785 H 0.37072 0.82044 0.61188 0.0
H1786 H 0.3049 0.86192 0.57654 0.0
H1787 H 0.29545 0.86415 0.60464 0.0
H1788 H 0.28733 0.84008 0.58659 0.0
H1789 H 0.37157 0.79885 0.57865 0.0
H1790 H 0.36327 0.81134 0.55647 0.0
H1791 H 0.34522 0.79015 0.5671 0.0
H1792 H 0.38931 0.8886 0.46902 0.0
H1793 H 0.40184 0.92231 0.45337 0.0
H1794 H 0.38189 0.92549 0.47504 0.0
H1795 H 0.37425 0.92419 0.44712 0.0
H1796 H 0.37356 0.85397 0.47088 0.0
H1797 H 0.32062 0.88929 0.48468 0.0
H1798 H 0.34975 0.80805 0.49454 0.0
H1799 H 0.36648 0.82504 0.51428 0.0
H1800 H 0.37542 0.82243 0.48606 0.0
H1801 H 0.29215 0.87956 0.50956 0.0
H1802 H 0.30038 0.86694 0.53168 0.0
H1803 H 0.28561 0.85108 0.5098 0.0
H1804 H 0.25026 0.72156 0.40187 0.0
H1805 H 0.25163 0.71723 0.43646 0.0
H1806 H 0.21624 0.77011 0.44316 0.0
H1807 H 0.2815 0.73262 0.48483 0.0
H1808 H 0.27395 0.71119 0.4635 0.0
H1809 H 0.25831 0.71285 0.48867 0.0
H1810 H 0.20972 0.78868 0.47793 0.0
H1811 H 0.23663 0.79767 0.48775 0.0
H1812 H 0.21817 0.77939 0.50212 0.0
H1813 H 0.19044 0.70485 0.61311 0.0
H1814 H 0.19936 0.71337 0.65235 0.0
H1815 H 0.21905 0.72851 0.63593 0.0
H1816 H 0.22578 0.70545 0.64662 0.0
H1817 H 0.25181 0.69172 0.57615 0.0
H1818 H 0.20611 0.73376 0.59841 0.0
H1819 H 0.28598 0.72725 0.54578 0.0
H1820 H 0.26724 0.71105 0.52735 0.0
H1821 H 0.27815 0.69927 0.54859 0.0
H1822 H 0.20331 0.76427 0.58197 0.0
H1823 H 0.21184 0.76311 0.55359 0.0
H1824 H 0.22973 0.77735 0.57397 0.0
H1825 H 0.34107 0.84858 0.54672 0.0
H1826 H 0.3034 0.8156 0.48254 0.0
H1827 H 0.27558 0.78575 0.4745 0.0
H1828 H 0.23296 0.73439 0.51625 0.0
H1829 H 0.27234 0.76608 0.58001 0.0
H1830 H 0.30057 0.79574 0.5879 0.0
H1831 H 0.23766 0.71963 0.36465 0.0
H1832 H 0.24486 0.74681 0.37664 0.0
H1833 H 0.21672 0.73537 0.37409 0.0
C1834 C 0.86033 0.65143 0.43567 0.0
C1835 C 0.85694 0.67217 0.42729 0.0
C1836 C 0.84573 0.69605 0.45861 0.0
C1837 C 0.82472 0.68485 0.46151 0.0
C1838 C 0.81013 0.69288 0.47715 0.0
C1839 C 0.81668 0.71241 0.49015 0.0
C1840 C 0.83784 0.7236 0.48739 0.0
C1841 C 0.85208 0.71522 0.47166 0.0
C1842 C 0.7877 0.68052 0.47984 0.0
C1843 C 0.84541 0.74443 0.50107 0.0
C1844 C 0.7859 0.70487 0.6684 0.0
C1845 C 0.79811 0.71386 0.64875 0.0
C1846 C 0.79192 0.70645 0.60956 0.0
C1847 C 0.80407 0.72549 0.60373 0.0
C1848 C 0.80376 0.73097 0.5825 0.0
C1849 C 0.79067 0.71739 0.5669 0.0
C1850 C 0.77875 0.69804 0.57259 0.0
C1851 C 0.77972 0.69274 0.59382 0.0
C1852 C 0.81727 0.75141 0.57682 0.0
C1853 C 0.76471 0.68315 0.55634 0.0
C1854 C 0.70801 0.81701 0.58535 0.0
C1855 C 0.73038 0.82263 0.58172 0.0
C1856 C 0.74074 0.814 0.56285 0.0
C1857 C 0.7285 0.79906 0.54759 0.0
C1858 C 0.70575 0.79423 0.55074 0.0
C1859 C 0.69574 0.80358 0.56948 0.0
C1860 C 0.76487 0.82037 0.55961 0.0
C1861 C 0.69212 0.77862 0.53473 0.0
C1862 C 0.74595 0.79742 0.36741 0.0
C1863 C 0.73386 0.79934 0.38951 0.0
C1864 C 0.74828 0.80067 0.42626 0.0
C1865 C 0.76598 0.809 0.43927 0.0
C1866 C 0.7667 0.80409 0.46067 0.0
C1867 C 0.74943 0.79 0.46909 0.0
C1868 C 0.7312 0.78186 0.45622 0.0
C1869 C 0.73065 0.7875 0.43505 0.0
C1870 C 0.78607 0.81371 0.47414 0.0
C1871 C 0.71237 0.76698 0.46477 0.0
C1872 C 0.80159 0.72107 0.50691 0.0
C1873 C 0.80177 0.71513 0.52788 0.0
C1874 C 0.78904 0.72374 0.54483 0.0
C1875 C 0.77581 0.7388 0.54087 0.0
C1876 C 0.76284 0.74781 0.55756 0.0
C1877 C 0.75079 0.76344 0.5538 0.0
C1878 C 0.75111 0.77059 0.53315 0.0
C1879 C 0.73976 0.78724 0.52946 0.0
C1880 C 0.7396 0.79327 0.5085 0.0
C1881 C 0.7507 0.78322 0.49105 0.0
C1882 C 0.76283 0.76709 0.49464 0.0
C1883 C 0.7747 0.75705 0.47763 0.0
C1884 C 0.78737 0.74193 0.48156 0.0
C1885 C 0.78826 0.73591 0.50256 0.0
C1886 C 0.77564 0.74509 0.51972 0.0
C1887 C 0.76312 0.76089 0.51581 0.0
C1888 C 0.68894 0.81247 0.63887 0.0
C1889 C 0.70597 0.82481 0.62472 0.0
O1890 O 0.86046 0.68901 0.44369 0.0
O1891 O 0.74906 0.80585 0.40552 0.0
O1892 O 0.69794 0.82408 0.60411 0.0
O1893 O 0.79158 0.70069 0.63002 0.0
H1894 H 0.84022 0.6705 0.42126 0.0
H1895 H 0.84879 0.6479 0.44943 0.0
H1896 H 0.8771 0.65272 0.44144 0.0
H1897 H 0.85744 0.63791 0.42253 0.0
H1898 H 0.81959 0.66979 0.45183 0.0
H1899 H 0.86833 0.72369 0.4694 0.0
H1900 H 0.78528 0.67608 0.49668 0.0
H1901 H 0.78489 0.66577 0.46818 0.0
H1902 H 0.77537 0.69069 0.47741 0.0
H1903 H 0.86242 0.75111 0.49699 0.0
H1904 H 0.84415 0.74204 0.51858 0.0
H1905 H 0.83478 0.75627 0.49864 0.0
H1906 H 0.79375 0.73002 0.64823 0.0
H1907 H 0.7908 0.71526 0.68364 0.0
H1908 H 0.7892 0.68849 0.66966 0.0
H1909 H 0.76818 0.7042 0.66669 0.0
H1910 H 0.8139 0.7361 0.6156 0.0
H1911 H 0.77057 0.678 0.59839 0.0
H1912 H 0.80647 0.76309 0.57446 0.0
H1913 H 0.8266 0.74843 0.56131 0.0
H1914 H 0.82878 0.75865 0.58976 0.0
H1915 H 0.75548 0.6693 0.56366 0.0
H1916 H 0.775 0.67713 0.54258 0.0
H1917 H 0.75307 0.6919 0.54955 0.0
H1918 H 0.72073 0.81696 0.62409 0.0
H1919 H 0.73975 0.83364 0.59371 0.0
H1920 H 0.6784 0.79968 0.57231 0.0
H1921 H 0.77333 0.80733 0.56348 0.0
H1922 H 0.77112 0.83509 0.57032 0.0
H1923 H 0.76899 0.823 0.5424 0.0
H1924 H 0.67488 0.77542 0.54033 0.0
H1925 H 0.69865 0.7633 0.53204 0.0
H1926 H 0.69283 0.78509 0.51883 0.0
H1927 H 0.72473 0.78328 0.39135 0.0
H1928 H 0.73439 0.79145 0.35415 0.0
H1929 H 0.75756 0.78592 0.36734 0.0
H1930 H 0.75516 0.81311 0.36413 0.0
H1931 H 0.77936 0.81939 0.43251 0.0
H1932 H 0.71645 0.78143 0.4256 0.0
H1933 H 0.79597 0.80115 0.47616 0.0
H1934 H 0.78072 0.8202 0.49064 0.0
H1935 H 0.79651 0.82666 0.46645 0.0
H1936 H 0.70018 0.76069 0.45218 0.0
H1937 H 0.70428 0.77559 0.4787 0.0
H1938 H 0.71828 0.75334 0.47082 0.0
H1939 H 0.81224 0.70394 0.53115 0.0
H1940 H 0.76206 0.74307 0.57381 0.0
H1941 H 0.7413 0.76991 0.56735 0.0
H1942 H 0.7308 0.80598 0.50575 0.0
H1943 H 0.77463 0.76099 0.46112 0.0
H1944 H 0.79648 0.73503 0.46793 0.0
H1945 H 0.67369 0.81949 0.64014 0.0
H1946 H 0.69506 0.8127 0.65547 0.0
H1947 H 0.68529 0.7956 0.63152 0.0
C1948 C 0.91648 0.29007 0.64134 0.0
C1949 C 0.90771 0.30698 0.63032 0.0
C1950 C 0.87565 0.29786 0.60809 0.0
C1951 C 0.8564 0.3061 0.60691 0.0
C1952 C 0.84553 0.30379 0.58726 0.0
C1953 C 0.85366 0.29205 0.56861 0.0
C1954 C 0.87289 0.28318 0.56991 0.0
C1955 C 0.8838 0.28633 0.58963 0.0
C1956 C 0.82547 0.31405 0.58643 0.0
C1957 C 0.8819 0.27034 0.55047 0.0
C1958 C 0.91481 0.38231 0.45281 0.0
C1959 C 0.90165 0.36074 0.4449 0.0
C1960 C 0.87156 0.34462 0.46773 0.0
C1961 C 0.87687 0.32392 0.46628 0.0
C1962 C 0.86688 0.30941 0.4804 0.0
C1963 C 0.85103 0.3156 0.49595 0.0
C1964 C 0.84508 0.33614 0.49685 0.0
C1965 C 0.85538 0.35033 0.48264 0.0
C1966 C 0.87332 0.28749 0.4788 0.0
C1967 C 0.82801 0.34315 0.513 0.0
C1968 C 0.74099 0.23072 0.42914 0.0
C1969 C 0.75903 0.22147 0.43358 0.0
C1970 C 0.76677 0.22363 0.45476 0.0
C1971 C 0.75655 0.23564 0.47182 0.0
C1972 C 0.73797 0.24439 0.46756 0.0
C1973 C 0.73029 0.24159 0.44628 0.0
C1974 C 0.78616 0.21338 0.4588 0.0
C1975 C 0.72658 0.25715 0.48537 0.0
C1976 C 0.72633 0.2041 0.63108 0.0
C1977 C 0.71623 0.1856 0.61477 0.0
C1978 C 0.73789 0.19257 0.58115 0.0
C1979 C 0.75422 0.18564 0.56715 0.0
C1980 C 0.76303 0.19713 0.55005 0.0
C1981 C 0.75543 0.21624 0.54706 0.0
C1982 C 0.73838 0.22302 0.5607 0.0
C1983 C 0.72964 0.21103 0.5775 0.0
C1984 C 0.78082 0.18914 0.53552 0.0
C1985 C 0.72975 0.24321 0.55778 0.0
C1986 C 0.84232 0.28938 0.54767 0.0
C1987 C 0.85088 0.3024 0.5318 0.0
C1988 C 0.84111 0.30088 0.51172 0.0
C1989 C 0.82222 0.28589 0.50719 0.0
C1990 C 0.81202 0.28387 0.48714 0.0
C1991 C 0.79358 0.26891 0.48275 0.0
C1992 C 0.78454 0.25545 0.49828 0.0
C1993 C 0.76605 0.23987 0.49378 0.0
C1994 C 0.75694 0.22739 0.50994 0.0
C1995 C 0.76607 0.22972 0.53046 0.0
C1996 C 0.7851 0.24458 0.53491 0.0
C1997 C 0.79526 0.24671 0.55502 0.0
C1998 C 0.81417 0.2611 0.55911 0.0
C1999 C 0.82333 0.27439 0.5435 0.0
C2000 C 0.81328 0.27264 0.52317 0.0
C2001 C 0.79427 0.25756 0.5188 0.0
C2002 C 0.73736 0.23693 0.3717 0.0
C2003 C 0.74525 0.22553 0.38941 0.0
O2004 O 0.88566 0.30078 0.62741 0.0
O2005 O 0.73096 0.18113 0.598 0.0
O2006 O 0.73354 0.22959 0.40865 0.0
O2007 O 0.88121 0.35944 0.4549 0.0
H2008 H 0.91666 0.30873 0.61449 0.0
H2009 H 0.91327 0.27441 0.63116 0.0
H2010 H 0.90849 0.2885 0.65762 0.0
H2011 H 0.93428 0.29432 0.64324 0.0
H2012 H 0.85021 0.31484 0.62136 0.0
H2013 H 0.89843 0.27949 0.59077 0.0
H2014 H 0.82646 0.32307 0.57209 0.0
H2015 H 0.82307 0.32507 0.60137 0.0
H2016 H 0.81101 0.30151 0.5847 0.0
H2017 H 0.89549 0.26248 0.55478 0.0
H2018 H 0.88789 0.28099 0.53788 0.0
H2019 H 0.86895 0.25793 0.54317 0.0
H2020 H 0.91069 0.34828 0.4492 0.0
H2021 H 0.93137 0.3838 0.44517 0.0
H2022 H 0.91635 0.38377 0.47076 0.0
H2023 H 0.90673 0.39557 0.44877 0.0
H2024 H 0.88856 0.31887 0.45409 0.0
H2025 H 0.8511 0.36619 0.48337 0.0
H2026 H 0.87957 0.28499 0.49462 0.0
H2027 H 0.88594 0.28508 0.46586 0.0
H2028 H 0.85888 0.27519 0.47532 0.0
H2029 H 0.82461 0.35935 0.51107 0.0
H2030 H 0.83343 0.34317 0.52982 0.0
H2031 H 0.81273 0.33169 0.51102 0.0
H2032 H 0.76266 0.23234 0.3916 0.0
H2033 H 0.76718 0.21255 0.42063 0.0
H2034 H 0.71623 0.24844 0.44278 0.0
H2035 H 0.80046 0.22593 0.46184 0.0
H2036 H 0.79015 0.20196 0.44473 0.0
H2037 H 0.78315 0.20482 0.47349 0.0
H2038 H 0.71299 0.26381 0.47919 0.0
H2039 H 0.73828 0.27047 0.49322 0.0
H2040 H 0.72006 0.24683 0.49809 0.0
H2041 H 0.70135 0.18955 0.60807 0.0
H2042 H 0.71459 0.20731 0.64468 0.0
H2043 H 0.73077 0.21891 0.62319 0.0
H2044 H 0.74122 0.20026 0.63783 0.0
H2045 H 0.76033 0.17126 0.56991 0.0
H2046 H 0.71664 0.21637 0.58784 0.0
H2047 H 0.79619 0.2003 0.5383 0.0
H2048 H 0.77685 0.18863 0.51815 0.0
H2049 H 0.78345 0.17299 0.53862 0.0
H2050 H 0.71657 0.24646 0.56983 0.0
H2051 H 0.72344 0.242 0.54115 0.0
H2052 H 0.74308 0.25696 0.55945 0.0
H2053 H 0.86534 0.31399 0.53517 0.0
H2054 H 0.81826 0.29377 0.47456 0.0
H2055 H 0.78647 0.26807 0.467 0.0
H2056 H 0.74269 0.21558 0.50644 0.0
H2057 H 0.78884 0.23712 0.56779 0.0
H2058 H 0.82142 0.26178 0.57476 0.0
H2059 H 0.7468 0.23397 0.35625 0.0
H2060 H 0.7397 0.25439 0.37682 0.0
H2061 H 0.71991 0.23149 0.36869 0.0
C2062 C 0.18076 0.35218 0.39454 0.0
C2063 C 0.20211 0.34885 0.40361 0.0
C2064 C 0.21073 0.32213 0.42573 0.0
C2065 C 0.23044 0.33359 0.43356 0.0
C2066 C 0.24091 0.32675 0.45039 0.0
C2067 C 0.23133 0.30828 0.4598 0.0
C2068 C 0.21165 0.29654 0.45168 0.0
C2069 C 0.20183 0.30346 0.43449 0.0
C2070 C 0.26206 0.33947 0.45835 0.0
C2071 C 0.20065 0.27703 0.46157 0.0
C2072 C 0.21352 0.3972 0.60416 0.0
C2073 C 0.21033 0.37292 0.59896 0.0
C2074 C 0.23345 0.35178 0.57532 0.0
C2075 C 0.21722 0.33483 0.56822 0.0
C2076 C 0.22098 0.32022 0.55013 0.0
C2077 C 0.24131 0.32266 0.53891 0.0
C2078 C 0.25791 0.3393 0.54648 0.0
C2079 C 0.2538 0.35348 0.5648 0.0
C2080 C 0.20312 0.30236 0.54278 0.0
C2081 C 0.27977 0.34245 0.53485 0.0
C2082 C 0.30578 0.21306 0.57303 0.0
C2083 C 0.28513 0.20691 0.56409 0.0
C2084 C 0.27987 0.21492 0.54522 0.0
C2085 C 0.29543 0.22952 0.53517 0.0
C2086 C 0.31618 0.23576 0.54409 0.0
C2087 C 0.32108 0.22739 0.56288 0.0
C2088 C 0.25763 0.20778 0.53599 0.0
C2089 C 0.33311 0.25137 0.53383 0.0
C2090 C 0.31499 0.17754 0.35941 0.0
C2091 C 0.31939 0.19656 0.37696 0.0
C2092 C 0.30998 0.20049 0.41558 0.0
C2093 C 0.29266 0.19111 0.42799 0.0
C2094 C 0.2855 0.202 0.44739 0.0
C2095 C 0.29639 0.22257 0.45478 0.0
C2096 C 0.31426 0.23196 0.44247 0.0
C2097 C 0.32068 0.22091 0.42283 0.0
C2098 C 0.26631 0.1915 0.45996 0.0
C2099 C 0.32678 0.25354 0.45018 0.0
C2100 C 0.24091 0.30223 0.47922 0.0
C2101 C 0.23722 0.31385 0.49931 0.0
C2102 C 0.24485 0.30869 0.51851 0.0
C2103 C 0.25599 0.29103 0.5179 0.0
C2104 C 0.26283 0.28467 0.53705 0.0
C2105 C 0.27384 0.26728 0.53626 0.0
C2106 C 0.2787 0.2558 0.51624 0.0
C2107 C 0.28992 0.23813 0.51525 0.0
C2108 C 0.29545 0.22775 0.49504 0.0
C2109 C 0.28944 0.23405 0.47563 0.0
C2110 C 0.27721 0.25097 0.47633 0.0
C2111 C 0.2699 0.25703 0.45721 0.0
C2112 C 0.25802 0.27382 0.45808 0.0
C2113 C 0.25303 0.2852 0.4781 0.0
C2114 C 0.26037 0.27944 0.49757 0.0
C2115 C 0.27213 0.26208 0.49671 0.0
C2116 C 0.28396 0.20449 0.61957 0.0
C2117 C 0.29894 0.19215 0.6043 0.0
O2118 O 0.19979 0.3285 0.40985 0.0
O2119 O 0.31658 0.18917 0.39716 0.0
O2120 O 0.31163 0.20578 0.59133 0.0
O2121 O 0.23009 0.36682 0.59211 0.0
H2122 H 0.20564 0.361 0.418 0.0
H2123 H 0.18213 0.36851 0.38965 0.0
H2124 H 0.16762 0.35026 0.40721 0.0
H2125 H 0.17627 0.34034 0.38016 0.0
H2126 H 0.23775 0.34786 0.42661 0.0
H2127 H 0.18671 0.29464 0.42823 0.0
H2128 H 0.25933 0.34804 0.47472 0.0
H2129 H 0.26903 0.35139 0.44728 0.0
H2130 H 0.27405 0.32869 0.45994 0.0
H2131 H 0.18453 0.27077 0.45461 0.0
H2132 H 0.19855 0.28082 0.47946 0.0
H2133 H 0.21095 0.26427 0.45865 0.0
H2134 H 0.19836 0.36864 0.58578 0.0
H2135 H 0.19798 0.40258 0.61008 0.0
H2136 H 0.21908 0.40473 0.58922 0.0
H2137 H 0.22589 0.40268 0.61677 0.0
H2138 H 0.20162 0.33294 0.57672 0.0
H2139 H 0.26629 0.36644 0.57058 0.0
H2140 H 0.20941 0.2869 0.54053 0.0
H2141 H 0.19734 0.30502 0.52681 0.0
H2142 H 0.18912 0.30123 0.55457 0.0
H2143 H 0.29059 0.35674 0.54224 0.0
H2144 H 0.27771 0.34416 0.51747 0.0
H2145 H 0.28779 0.32823 0.53535 0.0
H2146 H 0.28905 0.17906 0.594 0.0
H2147 H 0.27298 0.19594 0.57168 0.0
H2148 H 0.33694 0.23208 0.56985 0.0
H2149 H 0.24893 0.22169 0.5366 0.0
H2150 H 0.24771 0.19551 0.54505 0.0
H2151 H 0.25913 0.20114 0.51864 0.0
H2152 H 0.3482 0.25527 0.54323 0.0
H2153 H 0.32656 0.26633 0.53261 0.0
H2154 H 0.33718 0.24458 0.51704 0.0
H2155 H 0.30738 0.20736 0.37514 0.0
H2156 H 0.31668 0.18301 0.34296 0.0
H2157 H 0.29819 0.16915 0.36157 0.0
H2158 H 0.32642 0.16607 0.36046 0.0
H2159 H 0.28447 0.17535 0.42222 0.0
H2160 H 0.33442 0.22802 0.41352 0.0
H2161 H 0.25449 0.20272 0.46429 0.0
H2162 H 0.27189 0.18722 0.47536 0.0
H2163 H 0.25794 0.17677 0.45063 0.0
H2164 H 0.34189 0.25734 0.44027 0.0
H2165 H 0.33108 0.25422 0.46748 0.0
H2166 H 0.31654 0.26604 0.44916 0.0
H2167 H 0.22828 0.32717 0.50001 0.0
H2168 H 0.2596 0.29299 0.5529 0.0
H2169 H 0.27865 0.26307 0.55152 0.0
H2170 H 0.30442 0.21447 0.49441 0.0
H2171 H 0.27321 0.24881 0.44135 0.0
H2172 H 0.25286 0.27783 0.44286 0.0
H2173 H 0.29367 0.21697 0.63074 0.0
H2174 H 0.27312 0.19348 0.62934 0.0
H2175 H 0.27361 0.21236 0.61006 0.0
C2176 C 0.90308 0.65729 0.75628 0.0
C2177 C 0.89155 0.63586 0.74596 0.0
C2178 C 0.87466 0.60291 0.76073 0.0
C2179 C 0.86087 0.59506 0.74331 0.0
C2180 C 0.84803 0.5749 0.74274 0.0
C2181 C 0.84929 0.56221 0.7597 0.0
C2182 C 0.86331 0.57001 0.77713 0.0
C2183 C 0.87558 0.59039 0.77752 0.0
C2184 C 0.83319 0.5671 0.72397 0.0
C2185 C 0.86555 0.55676 0.79524 0.0
C2186 C 0.83512 0.41266 0.67552 0.0
C2187 C 0.85835 0.42451 0.67339 0.0
C2188 C 0.8584 0.45198 0.70493 0.0
C2189 C 0.86472 0.45739 0.72648 0.0
C2190 C 0.85718 0.47429 0.73972 0.0
C2191 C 0.8429 0.48604 0.7311 0.0
C2192 C 0.83699 0.48115 0.70909 0.0
C2193 C 0.84489 0.46426 0.69617 0.0
C2194 C 0.86409 0.47933 0.76303 0.0
C2195 C 0.82198 0.49356 0.69937 0.0
C2196 C 0.73166 0.41954 0.80665 0.0
C2197 C 0.75059 0.42893 0.81767 0.0
C2198 C 0.75955 0.45024 0.81609 0.0
C2199 C 0.74961 0.46236 0.80296 0.0
C2200 C 0.73041 0.45309 0.79209 0.0
C2201 C 0.72161 0.43181 0.79421 0.0
C2202 C 0.77976 0.45977 0.82836 0.0
C2203 C 0.71938 0.46559 0.77803 0.0
C2204 C 0.72972 0.61877 0.85208 0.0
C2205 C 0.71925 0.60273 0.86744 0.0
C2206 C 0.73908 0.57246 0.85682 0.0
C2207 C 0.75543 0.56201 0.86296 0.0
C2208 C 0.7627 0.54537 0.84909 0.0
C2209 C 0.75335 0.53908 0.82851 0.0
C2210 C 0.73643 0.5492 0.82234 0.0
C2211 C 0.72939 0.56576 0.83658 0.0
C2212 C 0.78061 0.53473 0.8563 0.0
C2213 C 0.72605 0.54272 0.80054 0.0
C2214 C 0.83637 0.54058 0.75901 0.0
C2215 C 0.84423 0.52392 0.74586 0.0
C2216 C 0.83357 0.50296 0.7453 0.0
C2217 C 0.81462 0.49831 0.75837 0.0
C2218 C 0.80367 0.47733 0.75843 0.0
C2219 C 0.78551 0.47282 0.77194 0.0
C2220 C 0.77754 0.48912 0.78586 0.0
C2221 C 0.75965 0.48458 0.80033 0.0
C2222 C 0.75193 0.50119 0.8137 0.0
C2223 C 0.76176 0.52234 0.8132 0.0
C2224 C 0.77986 0.52717 0.79906 0.0
C2225 C 0.79028 0.54826 0.79832 0.0
C2226 C 0.8086 0.55274 0.78499 0.0
C2227 C 0.81722 0.53632 0.77191 0.0
C2228 C 0.80651 0.51505 0.77182 0.0
C2229 C 0.78787 0.51046 0.78548 0.0
C2230 C 0.72069 0.36147 0.80717 0.0
C2231 C 0.73152 0.38358 0.81668 0.0
O2232 O 0.88761 0.62218 0.76191 0.0
O2233 O 0.73348 0.58897 0.87082 0.0
O2234 O 0.72259 0.39887 0.80762 0.0
O2235 O 0.86541 0.43468 0.69343 0.0
H2236 H 0.87602 0.63864 0.73962 0.0
H2237 H 0.91858 0.65543 0.76336 0.0
H2238 H 0.89259 0.66416 0.7694 0.0
H2239 H 0.90654 0.66855 0.74388 0.0
H2240 H 0.86001 0.60452 0.73013 0.0
H2241 H 0.88631 0.59655 0.79083 0.0
H2242 H 0.83917 0.55346 0.71395 0.0
H2243 H 0.83228 0.57972 0.71335 0.0
H2244 H 0.8166 0.56131 0.73016 0.0
H2245 H 0.87898 0.5641 0.80615 0.0
H2246 H 0.8685 0.54055 0.78837 0.0
H2247 H 0.85025 0.55494 0.80516 0.0
H2248 H 0.85912 0.43628 0.66144 0.0
H2249 H 0.83422 0.40094 0.68752 0.0
H2250 H 0.82973 0.4041 0.65952 0.0
H2251 H 0.82365 0.42394 0.68101 0.0
H2252 H 0.87532 0.44801 0.73305 0.0
H2253 H 0.84019 0.46063 0.67939 0.0
H2254 H 0.84973 0.47631 0.77414 0.0
H2255 H 0.87097 0.49647 0.76635 0.0
H2256 H 0.87633 0.46959 0.76687 0.0
H2257 H 0.81882 0.48774 0.68199 0.0
H2258 H 0.82913 0.51068 0.70064 0.0
H2259 H 0.80628 0.49235 0.70869 0.0
H2260 H 0.74909 0.38467 0.81213 0.0
H2261 H 0.75848 0.41981 0.82758 0.0
H2262 H 0.70695 0.42451 0.78589 0.0
H2263 H 0.79352 0.46301 0.81661 0.0
H2264 H 0.78416 0.44903 0.83967 0.0
H2265 H 0.77747 0.4752 0.83784 0.0
H2266 H 0.70504 0.45582 0.76995 0.0
H2267 H 0.73101 0.47182 0.76534 0.0
H2268 H 0.71406 0.47952 0.78816 0.0
H2269 H 0.70392 0.59381 0.86046 0.0
H2270 H 0.73363 0.61047 0.83591 0.0
H2271 H 0.74497 0.62801 0.8589 0.0
H2272 H 0.71844 0.63003 0.84961 0.0
H2273 H 0.76271 0.56717 0.87863 0.0
H2274 H 0.71651 0.57345 0.83164 0.0
H2275 H 0.79503 0.53757 0.84524 0.0
H2276 H 0.77533 0.51723 0.85523 0.0
H2277 H 0.78543 0.54076 0.87324 0.0
H2278 H 0.71303 0.55212 0.79813 0.0
H2279 H 0.71906 0.52555 0.79909 0.0
H2280 H 0.73856 0.5449 0.7873 0.0
H2281 H 0.85899 0.52727 0.73609 0.0
H2282 H 0.80915 0.46411 0.7482 0.0
H2283 H 0.77786 0.45636 0.77143 0.0
H2284 H 0.73837 0.49757 0.82495 0.0
H2285 H 0.78451 0.56153 0.80819 0.0
H2286 H 0.81603 0.56925 0.7852 0.0
H2287 H 0.72778 0.34891 0.81401 0.0
H2288 H 0.72341 0.35949 0.78921 0.0
H2289 H 0.70295 0.35921 0.81076 0.0
C2290 C 0.11845 0.38139 0.68539 0.0
C2291 C 0.14074 0.39536 0.6863 0.0
C2292 C 0.15615 0.4248 0.71343 0.0
C2293 C 0.17172 0.43498 0.69943 0.0
C2294 C 0.18598 0.45331 0.70716 0.0
C2295 C 0.18375 0.46253 0.72901 0.0
C2296 C 0.16732 0.4529 0.74284 0.0
C2297 C 0.15415 0.43389 0.73497 0.0
C2298 C 0.20359 0.46255 0.69192 0.0
C2299 C 0.16355 0.4625 0.76596 0.0
C2300 C 0.23919 0.61225 0.67907 0.0
C2301 C 0.22031 0.59617 0.66944 0.0
C2302 C 0.20778 0.57281 0.69791 0.0
C2303 C 0.19147 0.56799 0.71361 0.0
C2304 C 0.19182 0.55131 0.72635 0.0
C2305 C 0.20881 0.53894 0.72306 0.0
C2306 C 0.2254 0.5437 0.70719 0.0
C2307 C 0.22491 0.56077 0.69506 0.0
C2308 C 0.17403 0.54688 0.74327 0.0
C2309 C 0.24361 0.53062 0.7028 0.0
C2310 C 0.30229 0.58312 0.83098 0.0
C2311 C 0.28379 0.57204 0.84072 0.0
C2312 C 0.27377 0.5522 0.83089 0.0
C2313 C 0.28253 0.54309 0.81109 0.0
C2314 C 0.30163 0.55376 0.80171 0.0
C2315 C 0.31122 0.57368 0.81179 0.0
C2316 C 0.25356 0.54109 0.84145 0.0
C2317 C 0.31159 0.54432 0.78081 0.0
C2318 C 0.29553 0.37146 0.81189 0.0
C2319 C 0.30154 0.39343 0.80401 0.0
C2320 C 0.28523 0.42623 0.81178 0.0
C2321 C 0.27146 0.43681 0.82616 0.0
C2322 C 0.26466 0.45563 0.82147 0.0
C2323 C 0.27208 0.4642 0.80197 0.0
C2324 C 0.28635 0.4538 0.78749 0.0
C2325 C 0.29272 0.4349 0.79249 0.0
C2326 C 0.24943 0.46628 0.83725 0.0
C2327 C 0.29487 0.46268 0.7667 0.0
C2328 C 0.19827 0.48244 0.73718 0.0
C2329 C 0.19594 0.50135 0.72889 0.0
C2330 C 0.20915 0.52059 0.73562 0.0
C2331 C 0.22405 0.52141 0.75227 0.0
C2332 C 0.236 0.54084 0.76103 0.0
C2333 C 0.25108 0.54141 0.77699 0.0
C2334 C 0.25535 0.52249 0.78422 0.0
C2335 C 0.27118 0.5228 0.79989 0.0
C2336 C 0.27605 0.5036 0.80556 0.0
C2337 C 0.26494 0.48399 0.79657 0.0
C2338 C 0.248 0.48344 0.78207 0.0
C2339 C 0.23553 0.4641 0.77384 0.0
C2340 C 0.21903 0.46376 0.75942 0.0
C2341 C 0.21467 0.48266 0.75226 0.0
C2342 C 0.22728 0.50229 0.76013 0.0
C2343 C 0.24351 0.50275 0.77554 0.0
C2344 C 0.28452 0.62524 0.84919 0.0
C2345 C 0.30414 0.61628 0.85623 0.0
O2346 O 0.14311 0.40609 0.70713 0.0
O2347 O 0.29094 0.40791 0.81722 0.0
O2348 O 0.31183 0.60293 0.83925 0.0
O2349 O 0.20625 0.58905 0.68596 0.0
H2350 H 0.14093 0.4069 0.6742 0.0
H2351 H 0.1056 0.39138 0.69017 0.0
H2352 H 0.1174 0.36908 0.69676 0.0
H2353 H 0.11535 0.37342 0.66862 0.0
H2354 H 0.17326 0.42852 0.68256 0.0
H2355 H 0.14196 0.42611 0.74562 0.0
H2356 H 0.19897 0.47695 0.68618 0.0
H2357 H 0.20618 0.45105 0.67742 0.0
H2358 H 0.21916 0.46738 0.7004 0.0
H2359 H 0.14713 0.45643 0.77238 0.0
H2360 H 0.16548 0.48016 0.76714 0.0
H2361 H 0.17559 0.45819 0.77656 0.0
H2362 H 0.22667 0.58259 0.65964 0.0
H2363 H 0.25044 0.61803 0.66587 0.0
H2364 H 0.24842 0.60462 0.68997 0.0
H2365 H 0.23313 0.62609 0.68867 0.0
H2366 H 0.17838 0.5774 0.71585 0.0
H2367 H 0.23795 0.5644 0.68336 0.0
H2368 H 0.18112 0.54575 0.75912 0.0
H2369 H 0.16392 0.53132 0.73823 0.0
H2370 H 0.1634 0.55941 0.74557 0.0
H2371 H 0.2534 0.53441 0.68792 0.0
H2372 H 0.23707 0.51333 0.7009 0.0
H2373 H 0.25453 0.53381 0.71683 0.0
H2374 H 0.29966 0.60753 0.87065 0.0
H2375 H 0.27689 0.57884 0.85581 0.0
H2376 H 0.3256 0.58219 0.80449 0.0
H2377 H 0.23994 0.53872 0.83009 0.0
H2378 H 0.24877 0.55022 0.85689 0.0
H2379 H 0.25622 0.52509 0.84494 0.0
H2380 H 0.32716 0.554 0.77628 0.0
H2381 H 0.30016 0.54318 0.76739 0.0
H2382 H 0.3145 0.5279 0.78244 0.0
H2383 H 0.29601 0.39184 0.78698 0.0
H2384 H 0.30387 0.35955 0.80153 0.0
H2385 H 0.27776 0.36623 0.81085 0.0
H2386 H 0.30013 0.37193 0.82909 0.0
H2387 H 0.26585 0.43011 0.84106 0.0
H2388 H 0.30366 0.42714 0.78131 0.0
H2389 H 0.23493 0.46856 0.82866 0.0
H2390 H 0.25763 0.4823 0.84388 0.0
H2391 H 0.24408 0.45691 0.85105 0.0
H2392 H 0.30723 0.45373 0.75807 0.0
H2393 H 0.30216 0.47969 0.77028 0.0
H2394 H 0.28125 0.46197 0.75564 0.0
H2395 H 0.18413 0.50097 0.71651 0.0
H2396 H 0.23362 0.55583 0.75576 0.0
H2397 H 0.25968 0.55684 0.78325 0.0
H2398 H 0.28868 0.50394 0.81707 0.0
H2399 H 0.23824 0.44902 0.77861 0.0
H2400 H 0.20984 0.44847 0.75383 0.0
H2401 H 0.27873 0.63631 0.86268 0.0
H2402 H 0.27089 0.61226 0.8449 0.0
H2403 H 0.28888 0.63398 0.83475 0.0
C2404 C 0.3877 0.64993 0.23125 0.0
C2405 C 0.3798 0.62666 0.22289 0.0
C2406 C 0.36445 0.59556 0.24183 0.0
C2407 C 0.35112 0.58471 0.22508 0.0
C2408 C 0.33918 0.56447 0.22723 0.0
C2409 C 0.34099 0.55472 0.24627 0.0
C2410 C 0.35486 0.56541 0.26288 0.0
C2411 C 0.36609 0.58583 0.26056 0.0
C2412 C 0.32454 0.55354 0.20921 0.0
C2413 C 0.3579 0.55528 0.28309 0.0
C2414 C 0.36599 0.39861 0.22504 0.0
C2415 C 0.37551 0.41175 0.20674 0.0
C2416 C 0.35298 0.44045 0.20961 0.0
C2417 C 0.36104 0.45121 0.22945 0.0
C2418 C 0.35241 0.46905 0.23959 0.0
C2419 C 0.33569 0.47652 0.22953 0.0
C2420 C 0.32809 0.4662 0.20921 0.0
C2421 C 0.33675 0.4482 0.19961 0.0
C2422 C 0.36096 0.47977 0.26123 0.0
C2423 C 0.31061 0.47403 0.1978 0.0
C2424 C 0.21579 0.42149 0.30469 0.0
C2425 C 0.23596 0.42819 0.31425 0.0
C2426 C 0.24745 0.44862 0.31216 0.0
C2427 C 0.23894 0.46222 0.29946 0.0
C2428 C 0.21851 0.45541 0.28988 0.0
C2429 C 0.20702 0.43526 0.293 0.0
C2430 C 0.26861 0.45562 0.32362 0.0
C2431 C 0.20878 0.46933 0.27625 0.0
C2432 C 0.22814 0.62249 0.33009 0.0
C2433 C 0.21528 0.60934 0.34689 0.0
C2434 C 0.23266 0.57695 0.34175 0.0
C2435 C 0.2479 0.56667 0.35029 0.0
C2436 C 0.2548 0.5485 0.33879 0.0
C2437 C 0.24613 0.54039 0.31823 0.0
C2438 C 0.2302 0.5503 0.30974 0.0
C2439 C 0.22358 0.56847 0.32159 0.0
C2440 C 0.27172 0.53823 0.34839 0.0
C2441 C 0.22051 0.5419 0.28793 0.0
C2442 C 0.32845 0.53335 0.24886 0.0
C2443 C 0.33633 0.51542 0.23816 0.0
C2444 C 0.32584 0.49482 0.24056 0.0
C2445 C 0.30685 0.49187 0.25394 0.0
C2446 C 0.29573 0.47138 0.25651 0.0
C2447 C 0.27723 0.46863 0.26994 0.0
C2448 C 0.26948 0.48623 0.28184 0.0
C2449 C 0.25121 0.48358 0.29628 0.0
C2450 C 0.24406 0.50151 0.30788 0.0
C2451 C 0.25441 0.5221 0.30523 0.0
C2452 C 0.27252 0.52506 0.29071 0.0
C2453 C 0.2831 0.54558 0.28743 0.0
C2454 C 0.30114 0.54835 0.27343 0.0
C2455 C 0.30955 0.53071 0.26241 0.0
C2456 C 0.29884 0.50988 0.2651 0.0
C2457 C 0.28024 0.50705 0.27921 0.0
C2458 C 0.19444 0.36613 0.29197 0.0
C2459 C 0.21229 0.38299 0.30227 0.0
O2460 O 0.37615 0.61525 0.24072 0.0
O2461 O 0.22752 0.59505 0.35339 0.0
O2462 O 0.20425 0.40204 0.30696 0.0
O2463 O 0.36007 0.42251 0.19965 0.0
H2464 H 0.36454 0.62642 0.2143 0.0
H2465 H 0.40304 0.65135 0.24004 0.0
H2466 H 0.37533 0.65621 0.24267 0.0
H2467 H 0.39036 0.65985 0.21764 0.0
H2468 H 0.3498 0.59191 0.21038 0.0
H2469 H 0.37653 0.59425 0.27332 0.0
H2470 H 0.3309 0.53905 0.20153 0.0
H2471 H 0.32333 0.56402 0.19641 0.0
H2472 H 0.30804 0.54836 0.21597 0.0
H2473 H 0.37165 0.56421 0.29276 0.0
H2474 H 0.36082 0.53858 0.27868 0.0
H2475 H 0.34294 0.55488 0.29354 0.0
H2476 H 0.38996 0.42321 0.21247 0.0
H2477 H 0.37829 0.38964 0.23033 0.0
H2478 H 0.35155 0.38711 0.21943 0.0
H2479 H 0.361 0.40908 0.2394 0.0
H2480 H 0.37384 0.4457 0.23728 0.0
H2481 H 0.33074 0.43994 0.18424 0.0
H2482 H 0.34742 0.48019 0.2735 0.0
H2483 H 0.36825 0.49651 0.25959 0.0
H2484 H 0.3734 0.47152 0.26737 0.0
H2485 H 0.30769 0.4653 0.1813 0.0
H2486 H 0.31515 0.49131 0.19632 0.0
H2487 H 0.29525 0.47198 0.20763 0.0
H2488 H 0.22603 0.38468 0.2901 0.0
H2489 H 0.2425 0.41766 0.32373 0.0
H2490 H 0.19135 0.42995 0.28582 0.0
H2491 H 0.28228 0.455 0.31157 0.0
H2492 H 0.27068 0.44518 0.33622 0.0
H2493 H 0.26961 0.4723 0.33147 0.0
H2494 H 0.1945 0.46049 0.26731 0.0
H2495 H 0.22103 0.47599 0.2643 0.0
H2496 H 0.20352 0.48291 0.28698 0.0
H2497 H 0.19986 0.60088 0.33974 0.0
H2498 H 0.23222 0.61202 0.31532 0.0
H2499 H 0.24348 0.63135 0.33704 0.0
H2500 H 0.21841 0.63407 0.32498 0.0
H2501 H 0.2547 0.5732 0.3659 0.0
H2502 H 0.21152 0.57601 0.31485 0.0
H2503 H 0.28647 0.53914 0.3376 0.0
H2504 H 0.26556 0.5211 0.34937 0.0
H2505 H 0.27629 0.54601 0.36491 0.0
H2506 H 0.20789 0.55107 0.28378 0.0
H2507 H 0.21317 0.52492 0.28796 0.0
H2508 H 0.23348 0.54263 0.27501 0.0
H2509 H 0.35103 0.51753 0.22807 0.0
H2510 H 0.30116 0.45719 0.24813 0.0
H2511 H 0.26926 0.45249 0.27109 0.0
H2512 H 0.2302 0.4994 0.31908 0.0
H2513 H 0.27756 0.55977 0.29568 0.0
H2514 H 0.30856 0.56452 0.27153 0.0
H2515 H 0.20055 0.3507 0.28764 0.0
H2516 H 0.18916 0.37131 0.27685 0.0
H2517 H 0.18015 0.36372 0.30329 0.0
C2518 C 0.84265 0.40694 0.35347 0.0
C2519 C 0.84447 0.40967 0.32916 0.0
C2520 C 0.83437 0.4446 0.32465 0.0
C2521 C 0.81215 0.43976 0.33006 0.0
C2522 C 0.79801 0.45447 0.32823 0.0
C2523 C 0.80615 0.4742 0.32046 0.0
C2524 C 0.82847 0.47904 0.31497 0.0
C2525 C 0.84229 0.46425 0.31735 0.0
C2526 C 0.77439 0.44904 0.33472 0.0
C2527 C 0.83778 0.4999 0.30662 0.0
C2528 C 0.75785 0.62098 0.41581 0.0
C2529 C 0.77218 0.61106 0.39799 0.0
C2530 C 0.77538 0.57401 0.38536 0.0
C2531 C 0.78904 0.57737 0.36701 0.0
C2532 C 0.7914 0.56057 0.35068 0.0
C2533 C 0.77905 0.54022 0.35225 0.0
C2534 C 0.76578 0.53664 0.37104 0.0
C2535 C 0.76447 0.55355 0.38756 0.0
C2536 C 0.80674 0.56476 0.33155 0.0
C2537 C 0.75254 0.51513 0.37342 0.0
C2538 C 0.71084 0.58057 0.24145 0.0
C2539 C 0.73305 0.57925 0.23836 0.0
C2540 C 0.74133 0.56116 0.24298 0.0
C2541 C 0.72717 0.54406 0.25091 0.0
C2542 C 0.7048 0.54526 0.25388 0.0
C2543 C 0.69693 0.56348 0.249 0.0
C2544 C 0.76524 0.56026 0.23928 0.0
C2545 C 0.68927 0.52732 0.2623 0.0
C2546 C 0.70511 0.41335 0.14236 0.0
C2547 C 0.70619 0.41376 0.16702 0.0
C2548 C 0.7312 0.43828 0.19095 0.0
C2549 C 0.75023 0.45298 0.19028 0.0
C2550 C 0.75506 0.46951 0.20725 0.0
C2551 C 0.74063 0.47101 0.22549 0.0
C2552 C 0.72191 0.4555 0.22679 0.0
C2553 C 0.7174 0.43925 0.20951 0.0
C2554 C 0.77525 0.48567 0.20548 0.0
C2555 C 0.70642 0.45641 0.24624 0.0
C2556 C 0.79156 0.49004 0.31839 0.0
C2557 C 0.79098 0.50663 0.33529 0.0
C2558 C 0.77901 0.52308 0.33372 0.0
C2559 C 0.76754 0.52328 0.31461 0.0
C2560 C 0.75584 0.5399 0.31218 0.0
C2561 C 0.74563 0.54058 0.29287 0.0
C2562 C 0.74591 0.52419 0.27559 0.0
C2563 C 0.73585 0.52487 0.25579 0.0
C2564 C 0.73475 0.50742 0.23971 0.0
C2565 C 0.74416 0.48954 0.24252 0.0
C2566 C 0.75591 0.48936 0.26143 0.0
C2567 C 0.7671 0.47244 0.264 0.0
C2568 C 0.77903 0.47273 0.2825 0.0
C2569 C 0.77951 0.48955 0.2995 0.0
C2570 C 0.7678 0.50644 0.29748 0.0
C2571 C 0.7565 0.50664 0.27817 0.0
C2572 C 0.69871 0.63436 0.23941 0.0
C2573 C 0.71328 0.61743 0.23285 0.0
O2574 O 0.84882 0.43113 0.32652 0.0
O2575 O 0.72667 0.42354 0.1734 0.0
O2576 O 0.70214 0.59781 0.23722 0.0
O2577 O 0.77244 0.59005 0.40123 0.0
H2578 H 0.82918 0.40206 0.3211 0.0
H2579 H 0.8288 0.41419 0.3613 0.0
H2580 H 0.85765 0.41481 0.36185 0.0
H2581 H 0.8399 0.38973 0.3557 0.0
H2582 H 0.80578 0.42472 0.336 0.0
H2583 H 0.85944 0.4679 0.31333 0.0
H2584 H 0.7696 0.46179 0.34698 0.0
H2585 H 0.77078 0.43357 0.3416 0.0
H2586 H 0.76428 0.44821 0.32029 0.0
H2587 H 0.85515 0.5006 0.30159 0.0
H2588 H 0.83619 0.51327 0.31955 0.0
H2589 H 0.82854 0.50233 0.29249 0.0
H2590 H 0.7649 0.6118 0.38206 0.0
H2591 H 0.75715 0.63782 0.41351 0.0
H2592 H 0.76417 0.62046 0.43219 0.0
H2593 H 0.74111 0.61202 0.41506 0.0
H2594 H 0.79803 0.593 0.36538 0.0
H2595 H 0.75423 0.55105 0.40194 0.0
H2596 H 0.81575 0.55117 0.32686 0.0
H2597 H 0.81861 0.57952 0.33516 0.0
H2598 H 0.79735 0.56669 0.31736 0.0
H2599 H 0.74184 0.51539 0.38829 0.0
H2600 H 0.76354 0.50324 0.37426 0.0
H2601 H 0.74237 0.50973 0.35897 0.0
H2602 H 0.72801 0.62192 0.24284 0.0
H2603 H 0.74401 0.59214 0.23218 0.0
H2604 H 0.67982 0.56455 0.25123 0.0
H2605 H 0.77269 0.55961 0.25505 0.0
H2606 H 0.77389 0.57429 0.23182 0.0
H2607 H 0.76763 0.54555 0.22851 0.0
H2608 H 0.67257 0.53122 0.26496 0.0
H2609 H 0.69501 0.5236 0.27788 0.0
H2610 H 0.68877 0.51275 0.25045 0.0
H2611 H 0.69335 0.42292 0.17434 0.0
H2612 H 0.70822 0.4299 0.13792 0.0
H2613 H 0.68877 0.40581 0.13669 0.0
H2614 H 0.71748 0.40432 0.13383 0.0
H2615 H 0.76096 0.45188 0.17602 0.0
H2616 H 0.70306 0.42741 0.21053 0.0
H2617 H 0.7852 0.48651 0.22002 0.0
H2618 H 0.77066 0.5017 0.20508 0.0
H2619 H 0.78527 0.4818 0.19064 0.0
H2620 H 0.69318 0.44255 0.24531 0.0
H2621 H 0.69911 0.47126 0.24738 0.0
H2622 H 0.71534 0.45687 0.26142 0.0
H2623 H 0.80023 0.50691 0.34973 0.0
H2624 H 0.75475 0.55283 0.32501 0.0
H2625 H 0.73728 0.554 0.29174 0.0
H2626 H 0.72644 0.50777 0.22479 0.0
H2627 H 0.7671 0.459 0.25153 0.0
H2628 H 0.78769 0.45949 0.28342 0.0
H2629 H 0.68338 0.63059 0.23035 0.0
H2630 H 0.70718 0.65032 0.23605 0.0
H2631 H 0.69461 0.63503 0.25712 0.0
C2632 C 0.60486 0.21825 0.61581 0.0
C2633 C 0.61677 0.22665 0.63697 0.0
C2634 C 0.58681 0.22975 0.6641 0.0
C2635 C 0.57958 0.24722 0.6565 0.0
C2636 C 0.56135 0.25537 0.66619 0.0
C2637 C 0.55035 0.24619 0.68409 0.0
C2638 C 0.55786 0.22893 0.69206 0.0
C2639 C 0.57593 0.2209 0.68187 0.0
C2640 C 0.55366 0.27368 0.65713 0.0
C2641 C 0.54668 0.21886 0.71124 0.0
C2642 C 0.38205 0.21965 0.69711 0.0
C2643 C 0.39161 0.1995 0.68851 0.0
C2644 C 0.42891 0.21433 0.67905 0.0
C2645 C 0.4391 0.21081 0.69774 0.0
C2646 C 0.45973 0.22186 0.70307 0.0
C2647 C 0.47032 0.23685 0.68955 0.0
C2648 C 0.46049 0.23985 0.67029 0.0
C2649 C 0.43997 0.22834 0.66517 0.0
C2650 C 0.4701 0.21771 0.72335 0.0
C2651 C 0.47143 0.25562 0.65546 0.0
C2652 C 0.43759 0.34855 0.78278 0.0
C2653 C 0.44605 0.33416 0.79425 0.0
C2654 C 0.46489 0.32583 0.78657 0.0
C2655 C 0.47549 0.33204 0.76712 0.0
C2656 C 0.46714 0.34668 0.7557 0.0
C2657 C 0.44826 0.35466 0.76367 0.0
C2658 C 0.47338 0.31021 0.79908 0.0
C2659 C 0.4781 0.35378 0.735 0.0
C2660 C 0.64148 0.37485 0.75864 0.0
C2661 C 0.63096 0.38289 0.78033 0.0
C2662 C 0.5964 0.35818 0.78107 0.0
C2663 C 0.58543 0.34069 0.79063 0.0
C2664 C 0.565 0.33052 0.7836 0.0
C2665 C 0.55539 0.338 0.76641 0.0
C2666 C 0.5661 0.35604 0.75699 0.0
C2667 C 0.58646 0.36605 0.7645 0.0
C2668 C 0.55386 0.31154 0.79425 0.0
C2669 C 0.55618 0.36446 0.73872 0.0
C2670 C 0.53067 0.25426 0.6941 0.0
C2671 C 0.51044 0.2433 0.68751 0.0
C2672 C 0.49124 0.24999 0.69616 0.0
C2673 C 0.49208 0.26836 0.71153 0.0
C2674 C 0.47306 0.27586 0.72009 0.0
C2675 C 0.47403 0.29377 0.73543 0.0
C2676 C 0.49404 0.30487 0.74286 0.0
C2677 C 0.49518 0.32309 0.75849 0.0
C2678 C 0.51535 0.33352 0.7658 0.0
C2679 C 0.53455 0.32641 0.75772 0.0
C2680 C 0.53376 0.30846 0.74178 0.0
C2681 C 0.55279 0.3011 0.73304 0.0
C2682 C 0.55184 0.28337 0.71744 0.0
C2683 C 0.53183 0.27232 0.70994 0.0
C2684 C 0.51245 0.27945 0.71858 0.0
C2685 C 0.51342 0.29761 0.73442 0.0
C2686 C 0.39063 0.3327 0.80406 0.0
C2687 C 0.40625 0.35374 0.80775 0.0
O2688 O 0.60388 0.22074 0.65475 0.0
O2689 O 0.61652 0.36661 0.78821 0.0
O2690 O 0.41922 0.35683 0.78924 0.0
O2691 O 0.40858 0.20454 0.67384 0.0
H2692 H 0.62109 0.24429 0.63815 0.0
H2693 H 0.58995 0.22551 0.61518 0.0
H2694 H 0.60012 0.20065 0.61458 0.0
H2695 H 0.61542 0.22234 0.6015 0.0
H2696 H 0.58786 0.25446 0.6429 0.0
H2697 H 0.58161 0.2075 0.68771 0.0
H2698 H 0.53631 0.26933 0.653 0.0
H2699 H 0.56317 0.27824 0.64235 0.0
H2700 H 0.55502 0.28776 0.66967 0.0
H2701 H 0.55561 0.20681 0.71665 0.0
H2702 H 0.53012 0.21096 0.70673 0.0
H2703 H 0.54497 0.23132 0.7251 0.0
H2704 H 0.397 0.19263 0.70255 0.0
H2705 H 0.3681 0.21578 0.70853 0.0
H2706 H 0.37653 0.22708 0.68348 0.0
H2707 H 0.3945 0.23141 0.70607 0.0
H2708 H 0.43126 0.19934 0.70817 0.0
H2709 H 0.43214 0.23072 0.65062 0.0
H2710 H 0.47114 0.23212 0.73546 0.0
H2711 H 0.48688 0.21445 0.71944 0.0
H2712 H 0.46082 0.20404 0.73091 0.0
H2713 H 0.46146 0.25639 0.64128 0.0
H2714 H 0.48728 0.25111 0.64938 0.0
H2715 H 0.4747 0.27174 0.6647 0.0
H2716 H 0.4164 0.35365 0.822 0.0
H2717 H 0.43802 0.32921 0.80907 0.0
H2718 H 0.44166 0.36576 0.75493 0.0
H2719 H 0.47411 0.29504 0.7884 0.0
H2720 H 0.46316 0.30672 0.81378 0.0
H2721 H 0.49014 0.31672 0.80419 0.0
H2722 H 0.47003 0.36588 0.72849 0.0
H2723 H 0.47798 0.33981 0.72242 0.0
H2724 H 0.4953 0.36062 0.73801 0.0
H2725 H 0.62254 0.39656 0.77825 0.0
H2726 H 0.65338 0.38784 0.75262 0.0
H2727 H 0.62911 0.36951 0.74608 0.0
H2728 H 0.64995 0.3612 0.76063 0.0
H2729 H 0.59313 0.33484 0.80352 0.0
H2730 H 0.59454 0.37978 0.75715 0.0
H2731 H 0.5526 0.29705 0.78223 0.0
H2732 H 0.53713 0.31393 0.79967 0.0
H2733 H 0.56272 0.30871 0.80849 0.0
H2734 H 0.56669 0.37847 0.73288 0.0
H2735 H 0.54028 0.36915 0.7443 0.0
H2736 H 0.5532 0.35172 0.72483 0.0
H2737 H 0.50963 0.22923 0.67566 0.0
H2738 H 0.45718 0.26798 0.71501 0.0
H2739 H 0.45885 0.29876 0.74146 0.0
H2740 H 0.51612 0.34742 0.77787 0.0
H2741 H 0.56866 0.30896 0.73815 0.0
H2742 H 0.567 0.2784 0.71136 0.0
H2743 H 0.38024 0.33015 0.81887 0.0
H2744 H 0.39978 0.31909 0.80048 0.0
H2745 H 0.38013 0.33282 0.79011 0.0
C2746 C 0.65232 0.79051 0.93053 0.0
C2747 C 0.64198 0.76836 0.92046 0.0
C2748 C 0.62315 0.7725 0.88757 0.0
C2749 C 0.62274 0.76708 0.86502 0.0
C2750 C 0.6054 0.77047 0.85297 0.0
C2751 C 0.58822 0.7799 0.86378 0.0
C2752 C 0.58875 0.7859 0.88654 0.0
C2753 C 0.60615 0.78208 0.89824 0.0
C2754 C 0.60531 0.76379 0.82873 0.0
C2755 C 0.57081 0.79625 0.89852 0.0
C2756 C 0.42989 0.67819 0.84764 0.0
C2757 C 0.44376 0.6998 0.85385 0.0
C2758 C 0.47826 0.71834 0.84008 0.0
C2759 C 0.4814 0.73431 0.85791 0.0
C2760 C 0.49903 0.7509 0.85803 0.0
C2761 C 0.51399 0.7514 0.84014 0.0
C2762 C 0.51117 0.73511 0.82241 0.0
C2763 C 0.49325 0.71885 0.8226 0.0
C2764 C 0.50162 0.76798 0.87724 0.0
C2765 C 0.52701 0.73499 0.80323 0.0
C2766 C 0.47558 0.85316 0.76414 0.0
C2767 C 0.47733 0.86014 0.78653 0.0
C2768 C 0.49509 0.85676 0.79801 0.0
C2769 C 0.51135 0.84613 0.78693 0.0
C2770 C 0.50954 0.83895 0.76447 0.0
C2771 C 0.49165 0.84255 0.7534 0.0
C2772 C 0.49653 0.86453 0.82199 0.0
C2773 C 0.52657 0.82752 0.75217 0.0
C2774 C 0.67173 0.94472 0.80058 0.0
C2775 C 0.65172 0.93004 0.79147 0.0
C2776 C 0.62141 0.90756 0.80826 0.0
C2777 C 0.60811 0.90581 0.82695 0.0
C2778 C 0.59032 0.88947 0.8276 0.0
C2779 C 0.58615 0.87409 0.80923 0.0
C2780 C 0.59963 0.87565 0.79026 0.0
C2781 C 0.61696 0.89251 0.78986 0.0
C2782 C 0.57592 0.88877 0.84787 0.0
C2783 C 0.59567 0.85955 0.77035 0.0
C2784 C 0.56937 0.78291 0.85143 0.0
C2785 C 0.55124 0.76698 0.85076 0.0
C2786 C 0.53263 0.76894 0.84002 0.0
C2787 C 0.53192 0.78735 0.82969 0.0
C2788 C 0.51332 0.79001 0.81906 0.0
C2789 C 0.51279 0.80817 0.8089 0.0
C2790 C 0.53084 0.82439 0.80902 0.0
C2791 C 0.53048 0.84288 0.79872 0.0
C2792 C 0.54866 0.85874 0.79924 0.0
C2793 C 0.56743 0.85663 0.80964 0.0
C2794 C 0.56816 0.8382 0.81996 0.0
C2795 C 0.58681 0.83545 0.83046 0.0
C2796 C 0.58721 0.81744 0.84091 0.0
C2797 C 0.56913 0.80128 0.84089 0.0
C2798 C 0.55028 0.80354 0.83007 0.0
C2799 C 0.54975 0.82206 0.81969 0.0
C2800 C 0.4238 0.85242 0.77018 0.0
C2801 C 0.44171 0.86704 0.75908 0.0
O2802 O 0.64025 0.76831 0.89823 0.0
O2803 O 0.63816 0.92402 0.80874 0.0
O2804 O 0.45878 0.85614 0.75223 0.0
O2805 O 0.46094 0.70243 0.83891 0.0
H2806 H 0.62579 0.7639 0.92836 0.0
H2807 H 0.65431 0.79054 0.94828 0.0
H2808 H 0.64185 0.80253 0.92832 0.0
H2809 H 0.66844 0.79533 0.9227 0.0
H2810 H 0.63597 0.75983 0.8569 0.0
H2811 H 0.60637 0.78674 0.91563 0.0
H2812 H 0.59039 0.75238 0.8245 0.0
H2813 H 0.61965 0.7562 0.82283 0.0
H2814 H 0.60512 0.77792 0.82 0.0
H2815 H 0.57432 0.80136 0.91596 0.0
H2816 H 0.55546 0.78482 0.89752 0.0
H2817 H 0.56825 0.81036 0.89072 0.0
H2818 H 0.44989 0.69965 0.8704 0.0
H2819 H 0.4398 0.66525 0.84789 0.0
H2820 H 0.42353 0.67725 0.83103 0.0
H2821 H 0.41603 0.67557 0.85945 0.0
H2822 H 0.47015 0.73404 0.87174 0.0
H2823 H 0.49078 0.70645 0.80897 0.0
H2824 H 0.50305 0.78398 0.87156 0.0
H2825 H 0.51678 0.76734 0.88559 0.0
H2826 H 0.48782 0.76613 0.88921 0.0
H2827 H 0.5232 0.72055 0.79131 0.0
H2828 H 0.54371 0.73576 0.80895 0.0
H2829 H 0.52674 0.74931 0.79481 0.0
H2830 H 0.4473 0.88136 0.77064 0.0
H2831 H 0.46496 0.86817 0.79523 0.0
H2832 H 0.49015 0.83715 0.73617 0.0
H2833 H 0.49737 0.85092 0.8313 0.0
H2834 H 0.48247 0.87236 0.82834 0.0
H2835 H 0.51163 0.87608 0.82496 0.0
H2836 H 0.52264 0.82266 0.73479 0.0
H2837 H 0.52823 0.81309 0.75988 0.0
H2838 H 0.5425 0.83805 0.753 0.0
H2839 H 0.65762 0.91599 0.78209 0.0
H2840 H 0.68332 0.94923 0.78716 0.0
H2841 H 0.68004 0.93633 0.81159 0.0
H2842 H 0.66716 0.95941 0.80996 0.0
H2843 H 0.61157 0.91755 0.84101 0.0
H2844 H 0.6269 0.89369 0.77514 0.0
H2845 H 0.57792 0.87469 0.856 0.0
H2846 H 0.55864 0.88705 0.84356 0.0
H2847 H 0.5798 0.9033 0.85966 0.0
H2848 H 0.60914 0.86138 0.75801 0.0
H2849 H 0.5805 0.86156 0.76278 0.0
H2850 H 0.59355 0.8431 0.77499 0.0
H2851 H 0.55158 0.75289 0.85881 0.0
H2852 H 0.49893 0.77809 0.81849 0.0
H2853 H 0.49804 0.80935 0.80097 0.0
H2854 H 0.54823 0.8729 0.79133 0.0
H2855 H 0.60128 0.84727 0.83085 0.0
H2856 H 0.60193 0.8163 0.84892 0.0
H2857 H 0.41051 0.86134 0.7766 0.0
H2858 H 0.43033 0.84622 0.78407 0.0
H2859 H 0.41709 0.83864 0.75846 0.0
C2860 C 0.41841 0.8572 0.38155 0.0
C2861 C 0.4227 0.8528 0.35706 0.0
C2862 C 0.44171 0.82376 0.3401 0.0
C2863 C 0.45378 0.83473 0.32406 0.0
C2864 C 0.47084 0.82623 0.3123 0.0
C2865 C 0.47593 0.80639 0.31665 0.0
C2866 C 0.4635 0.7951 0.33244 0.0
C2867 C 0.44638 0.80385 0.34377 0.0
C2868 C 0.48353 0.83848 0.29529 0.0
C2869 C 0.46851 0.77393 0.33754 0.0
C2870 C 0.63448 0.80287 0.35507 0.0
C2871 C 0.62273 0.82201 0.36198 0.0
C2872 C 0.59459 0.82018 0.33492 0.0
C2873 C 0.58093 0.80231 0.34161 0.0
C2874 C 0.56108 0.79464 0.33157 0.0
C2875 C 0.55472 0.80507 0.31461 0.0
C2876 C 0.56839 0.82304 0.30785 0.0
C2877 C 0.58821 0.83027 0.31804 0.0
C2878 C 0.54689 0.77536 0.33907 0.0
C2879 C 0.56204 0.8346 0.2899 0.0
C2880 C 0.57901 0.71038 0.1964 0.0
C2881 C 0.56669 0.70023 0.21288 0.0
C2882 C 0.54926 0.70894 0.22363 0.0
C2883 C 0.54384 0.72808 0.2177 0.0
C2884 C 0.55621 0.73841 0.20123 0.0
C2885 C 0.57371 0.72946 0.19089 0.0
C2886 C 0.5365 0.69755 0.24121 0.0
C2887 C 0.55086 0.75884 0.19452 0.0
C2888 C 0.36515 0.69487 0.20112 0.0
C2889 C 0.3874 0.70468 0.19265 0.0
C2890 C 0.42313 0.70631 0.20824 0.0
C2891 C 0.43394 0.6974 0.22316 0.0
C2892 C 0.45436 0.70711 0.23057 0.0
C2893 C 0.46446 0.72609 0.22244 0.0
C2894 C 0.45391 0.73495 0.20683 0.0
C2895 C 0.43328 0.725 0.1999 0.0
C2896 C 0.46509 0.69713 0.24718 0.0
C2897 C 0.46442 0.75497 0.1976 0.0
C2898 C 0.4947 0.79779 0.30519 0.0
C2899 C 0.51519 0.8048 0.31382 0.0
C2900 C 0.53361 0.7973 0.30411 0.0
C2901 C 0.53169 0.78248 0.28511 0.0
C2902 C 0.54989 0.77468 0.27487 0.0
C2903 C 0.54781 0.75998 0.25627 0.0
C2904 C 0.52741 0.7524 0.24728 0.0
C2905 C 0.52507 0.73714 0.22863 0.0
C2906 C 0.50446 0.72945 0.22052 0.0
C2907 C 0.48597 0.7366 0.23052 0.0
C2908 C 0.48804 0.75225 0.24886 0.0
C2909 C 0.46984 0.76006 0.25911 0.0
C2910 C 0.47199 0.77519 0.27738 0.0
C2911 C 0.49239 0.78281 0.28632 0.0
C2912 C 0.51098 0.77518 0.27623 0.0
C2913 C 0.50883 0.76004 0.25736 0.0
C2914 C 0.58718 0.6648 0.17438 0.0
C2915 C 0.60247 0.68289 0.18683 0.0
O2916 O 0.42532 0.83158 0.35215 0.0
O2917 O 0.40312 0.69623 0.20227 0.0
O2918 O 0.59588 0.70236 0.18532 0.0
O2919 O 0.614 0.82818 0.34404 0.0
H2920 H 0.43792 0.86346 0.35329 0.0
H2921 H 0.432 0.85324 0.39042 0.0
H2922 H 0.40324 0.84721 0.3866 0.0
H2923 H 0.41747 0.87438 0.38618 0.0
H2924 H 0.44988 0.84981 0.3205 0.0
H2925 H 0.43682 0.79538 0.35596 0.0
H2926 H 0.50059 0.84332 0.30029 0.0
H2927 H 0.47671 0.853 0.29281 0.0
H2928 H 0.48374 0.82813 0.27953 0.0
H2929 H 0.45774 0.76748 0.35076 0.0
H2930 H 0.4856 0.7757 0.34248 0.0
H2931 H 0.46664 0.76219 0.32273 0.0
H2932 H 0.60981 0.81789 0.37443 0.0
H2933 H 0.64166 0.79804 0.36942 0.0
H2934 H 0.64759 0.80685 0.34279 0.0
H2935 H 0.62299 0.78906 0.34782 0.0
H2936 H 0.58561 0.79417 0.35452 0.0
H2937 H 0.59884 0.844 0.31294 0.0
H2938 H 0.53115 0.77982 0.34558 0.0
H2939 H 0.55447 0.76854 0.35192 0.0
H2940 H 0.5434 0.76286 0.32505 0.0
H2941 H 0.57424 0.84865 0.28689 0.0
H2942 H 0.54617 0.84002 0.29415 0.0
H2943 H 0.56008 0.82354 0.2746 0.0
H2944 H 0.6028 0.68009 0.20418 0.0
H2945 H 0.57043 0.68547 0.21747 0.0
H2946 H 0.58325 0.73724 0.17822 0.0
H2947 H 0.53522 0.7088 0.25621 0.0
H2948 H 0.54392 0.6839 0.2453 0.0
H2949 H 0.51981 0.69147 0.23567 0.0
H2950 H 0.56173 0.76465 0.18107 0.0
H2951 H 0.55227 0.77137 0.20869 0.0
H2952 H 0.53384 0.75634 0.18922 0.0
H2953 H 0.38891 0.72222 0.19736 0.0
H2954 H 0.35213 0.70155 0.1939 0.0
H2955 H 0.36398 0.6986 0.2191 0.0
H2956 H 0.36252 0.67725 0.19704 0.0
H2957 H 0.42614 0.68289 0.22933 0.0
H2958 H 0.42532 0.73175 0.18787 0.0
H2959 H 0.46941 0.709 0.26155 0.0
H2960 H 0.48033 0.69207 0.24 0.0
H2961 H 0.45455 0.68301 0.25276 0.0
H2962 H 0.45449 0.75947 0.185 0.0
H2963 H 0.4806 0.75272 0.19031 0.0
H2964 H 0.46695 0.76835 0.21091 0.0
H2965 H 0.51682 0.81616 0.3284 0.0
H2966 H 0.56598 0.77984 0.28114 0.0
H2967 H 0.56239 0.75452 0.24911 0.0
H2968 H 0.50273 0.71735 0.20655 0.0
H2969 H 0.4537 0.75461 0.25309 0.0
H2970 H 0.45742 0.78068 0.28453 0.0
H2971 H 0.59259 0.64922 0.17542 0.0
H2972 H 0.58682 0.66735 0.15697 0.0
H2973 H 0.57045 0.66403 0.18143 0.0
C2974 C 0.6576 0.26882 0.37945 0.0
C2975 C 0.64498 0.24774 0.38571 0.0
C2976 C 0.61448 0.24131 0.36063 0.0
C2977 C 0.60625 0.22899 0.34179 0.0
C2978 C 0.58747 0.2329 0.33246 0.0
C2979 C 0.57675 0.24974 0.34219 0.0
C2980 C 0.58473 0.26207 0.36149 0.0
C2981 C 0.60345 0.25767 0.37061 0.0
C2982 C 0.57921 0.21918 0.31208 0.0
C2983 C 0.57358 0.28007 0.37232 0.0
C2984 C 0.4142 0.18572 0.38483 0.0
C2985 C 0.42701 0.20641 0.37804 0.0
C2986 C 0.45852 0.21368 0.35321 0.0
C2987 C 0.46584 0.2345 0.36291 0.0
C2988 C 0.48509 0.24627 0.35539 0.0
C2989 C 0.49709 0.23714 0.33772 0.0
C2990 C 0.4895 0.21638 0.32767 0.0
C2991 C 0.47032 0.20495 0.33558 0.0
C2992 C 0.49274 0.2684 0.36638 0.0
C2993 C 0.50182 0.20619 0.30871 0.0
C2994 C 0.46682 0.3182 0.23704 0.0
C2995 C 0.47886 0.33172 0.25331 0.0
C2996 C 0.49769 0.3262 0.2611 0.0
C2997 C 0.50481 0.3069 0.25237 0.0
C2998 C 0.49312 0.29354 0.2356 0.0
C2999 C 0.47424 0.29937 0.2282 0.0
C3000 C 0.50987 0.34088 0.27892 0.0
C3001 C 0.50041 0.27297 0.22577 0.0
C3002 C 0.68512 0.32874 0.22518 0.0
C3003 C 0.66309 0.31522 0.22024 0.0
C3004 C 0.62649 0.32186 0.23147 0.0
C3005 C 0.6155 0.33728 0.24309 0.0
C3006 C 0.59483 0.33164 0.25259 0.0
C3007 C 0.58466 0.31012 0.24973 0.0
C3008 C 0.5952 0.29467 0.23685 0.0
C3009 C 0.61611 0.30063 0.22817 0.0
C3010 C 0.58411 0.3486 0.2661 0.0
C3011 C 0.58455 0.27172 0.23248 0.0
C3012 C 0.55733 0.25459 0.33203 0.0
C3013 C 0.53693 0.2454 0.33939 0.0
C3014 C 0.51799 0.24886 0.33019 0.0
C3015 C 0.51931 0.26217 0.31336 0.0
C3016 C 0.50059 0.26648 0.30414 0.0
C3017 C 0.50211 0.27934 0.28735 0.0
C3018 C 0.52241 0.28793 0.27876 0.0
C3019 C 0.52416 0.30052 0.26129 0.0
C3020 C 0.54459 0.30774 0.25234 0.0
C3021 C 0.56352 0.30344 0.26093 0.0
C3022 C 0.5621 0.29204 0.27929 0.0
C3023 C 0.58081 0.2886 0.28925 0.0
C3024 C 0.5793 0.27665 0.30674 0.0
C3025 C 0.55902 0.26749 0.31484 0.0
C3026 C 0.53993 0.27123 0.30544 0.0
C3027 C 0.54148 0.28379 0.28786 0.0
C3028 C 0.42523 0.33547 0.25888 0.0
C3029 C 0.4371 0.33938 0.23708 0.0
O3030 O 0.6331 0.23689 0.36833 0.0
O3031 O 0.64699 0.328 0.22372 0.0
O3032 O 0.44798 0.32249 0.22958 0.0
O3033 O 0.4403 0.20144 0.36022 0.0
H3034 H 0.63408 0.2508 0.40011 0.0
H3035 H 0.66737 0.27732 0.3933 0.0
H3036 H 0.64639 0.27943 0.37526 0.0
H3037 H 0.66862 0.26584 0.36514 0.0
H3038 H 0.61475 0.21632 0.33428 0.0
H3039 H 0.60938 0.26719 0.38538 0.0
H3040 H 0.5619 0.21243 0.31456 0.0
H3041 H 0.58859 0.20588 0.30731 0.0
H3042 H 0.58022 0.2291 0.29844 0.0
H3043 H 0.58215 0.28861 0.38691 0.0
H3044 H 0.55675 0.27368 0.37731 0.0
H3045 H 0.57258 0.29166 0.36058 0.0
H3046 H 0.43672 0.21418 0.39225 0.0
H3047 H 0.42555 0.17527 0.38917 0.0
H3048 H 0.40408 0.17701 0.37131 0.0
H3049 H 0.4035 0.18915 0.39928 0.0
H3050 H 0.45672 0.24167 0.37634 0.0
H3051 H 0.46448 0.18896 0.32811 0.0
H3052 H 0.50897 0.26899 0.37317 0.0
H3053 H 0.48145 0.2734 0.37974 0.0
H3054 H 0.49444 0.28001 0.35423 0.0
H3055 H 0.49333 0.19024 0.30217 0.0
H3056 H 0.51812 0.20442 0.31392 0.0
H3057 H 0.50418 0.21661 0.29543 0.0
H3058 H 0.44879 0.35446 0.23909 0.0
H3059 H 0.47363 0.34649 0.26023 0.0
H3060 H 0.46501 0.28908 0.21559 0.0
H3061 H 0.51056 0.33224 0.29331 0.0
H3062 H 0.50226 0.35534 0.28404 0.0
H3063 H 0.52681 0.34593 0.27322 0.0
H3064 H 0.49013 0.26483 0.21215 0.0
H3065 H 0.49983 0.26204 0.23848 0.0
H3066 H 0.51747 0.27615 0.21966 0.0
H3067 H 0.66066 0.30294 0.23182 0.0
H3068 H 0.69828 0.31883 0.22194 0.0
H3069 H 0.6854 0.33539 0.24262 0.0
H3070 H 0.68833 0.34223 0.21521 0.0
H3071 H 0.6235 0.35367 0.24532 0.0
H3072 H 0.6242 0.28864 0.21874 0.0
H3073 H 0.57892 0.34348 0.2823 0.0
H3074 H 0.56937 0.35089 0.25792 0.0
H3075 H 0.595 0.36415 0.26847 0.0
H3076 H 0.59271 0.2629 0.21873 0.0
H3077 H 0.5672 0.27078 0.22873 0.0
H3078 H 0.58532 0.26361 0.24721 0.0
H3079 H 0.53579 0.23511 0.35224 0.0
H3080 H 0.48455 0.26003 0.30987 0.0
H3081 H 0.48714 0.28216 0.28094 0.0
H3082 H 0.54575 0.31678 0.23849 0.0
H3083 H 0.59687 0.29511 0.28362 0.0
H3084 H 0.59426 0.27448 0.31366 0.0
H3085 H 0.41578 0.34857 0.26445 0.0
H3086 H 0.43693 0.33494 0.27163 0.0
H3087 H 0.41405 0.32005 0.25724 0.0
loop_
_geom_bond_atom_site_label_1
_geom_bond_atom_site_label_2
_geom_bond_distance
_geom_bond_site_symmetry_2
_ccdc_geom_bond_type
O0 Cd1 2.300 . S
O0 C7 1.275 . S
Cd1 O0 2.300 . S
Cd1 O9 2.381 . S
Cd1 O10 2.378 . S
O2 Cd3 2.385 . S
O2 C7 1.255 . S
Cd3 O2 2.385 . S
Cd3 O4 2.317 . S
O4 Cd3 2.317 . S
O4 C5 1.232 . S
C5 O4 1.232 . S
C5 O6 1.218 . S
O6 C5 1.218 . S
C7 O0 1.275 . S
C7 O2 1.255 . S
C8 O9 1.258 . S
C8 O10 1.256 . S
O9 Cd1 2.381 . S
O9 C8 1.258 . S
O10 Cd1 2.378 . S
O10 C8 1.256 . S
O11 Cd12 2.300 . S
O11 C18 1.275 . S
Cd12 O11 2.300 . S
Cd12 O20 2.381 . S
Cd12 O21 2.378 . S
O13 Cd14 2.385 . S
O13 C18 1.255 . S
Cd14 O13 2.385 . S
Cd14 O15 2.317 . S
O15 Cd14 2.317 . S
O15 C16 1.232 . S
C16 O15 1.232 . S
C16 O17 1.218 . S
O17 C16 1.218 . S
C18 O11 1.275 . S
C18 O13 1.255 . S
C19 O20 1.258 . S
C19 O21 1.256 . S
O20 Cd12 2.381 . S
O20 C19 1.258 . S
O21 Cd12 2.378 . S
O21 C19 1.256 . S
O22 Cd23 2.300 . S
O22 C29 1.275 . S
Cd23 O22 2.300 . S
Cd23 O31 2.381 . S
Cd23 O32 2.378 . S
O24 Cd25 2.385 . S
O24 C29 1.255 . S
Cd25 O24 2.385 . S
Cd25 O26 2.317 . S
O26 Cd25 2.317 . S
O26 C27 1.232 . S
C27 O26 1.232 . S
C27 O28 1.218 . S
O28 C27 1.218 . S
C29 O22 1.275 . S
C29 O24 1.255 . S
C30 O31 1.258 . S
C30 O32 1.256 . S
O31 Cd23 2.381 . S
O31 C30 1.258 . S
O32 Cd23 2.378 . S
O32 C30 1.256 . S
O33 Cd34 2.300 . S
O33 C40 1.275 . S
Cd34 O33 2.300 . S
Cd34 O42 2.381 . S
Cd34 O43 2.378 . S
O35 Cd36 2.385 . S
O35 C40 1.255 . S
Cd36 O35 2.385 . S
Cd36 O37 2.317 . S
O37 Cd36 2.317 . S
O37 C38 1.232 . S
C38 O37 1.232 . S
C38 O39 1.218 . S
O39 C38 1.218 . S
C40 O33 1.275 . S
C40 O35 1.255 . S
C41 O42 1.258 . S
C41 O43 1.256 . S
O42 Cd34 2.381 . S
O42 C41 1.258 . S
O43 Cd34 2.378 . S
O43 C41 1.256 . S
O44 Cd45 2.300 . S
O44 C51 1.275 . S
Cd45 O44 2.300 . S
Cd45 O53 2.381 . S
Cd45 O54 2.378 . S
O46 Cd47 2.385 . S
O46 C51 1.255 . S
Cd47 O46 2.385 . S
Cd47 O48 2.317 . S
O48 Cd47 2.317 . S
O48 C49 1.232 . S
C49 O48 1.232 . S
C49 O50 1.218 . S
O50 C49 1.218 . S
C51 O44 1.275 . S
C51 O46 1.255 . S
C52 O53 1.258 . S
C52 O54 1.256 . S
O53 Cd45 2.381 . S
O53 C52 1.258 . S
O54 Cd45 2.378 . S
O54 C52 1.256 . S
O55 Cd56 2.300 . S
O55 C62 1.275 . S
Cd56 O55 2.300 . S
Cd56 O64 2.381 . S
Cd56 O65 2.378 . S
O57 Cd58 2.385 . S
O57 C62 1.255 . S
Cd58 O57 2.385 . S
Cd58 O59 2.317 . S
O59 Cd58 2.317 . S
O59 C60 1.232 . S
C60 O59 1.232 . S
C60 O61 1.218 . S
O61 C60 1.218 . S
C62 O55 1.275 . S
C62 O57 1.255 . S
C63 O64 1.258 . S
C63 O65 1.256 . S
O64 Cd56 2.381 . S
O64 C63 1.258 . S
O65 Cd56 2.378 . S
O65 C63 1.256 . S
O66 Cd67 2.300 . S
O66 C73 1.275 . S
Cd67 O66 2.300 . S
Cd67 O75 2.381 . S
Cd67 O76 2.378 . S
O68 Cd69 2.385 . S
O68 C73 1.255 . S
Cd69 O68 2.385 . S
Cd69 O70 2.317 . S
O70 Cd69 2.317 . S
O70 C71 1.232 . S
C71 O70 1.232 . S
C71 O72 1.218 . S
O72 C71 1.218 . S
C73 O66 1.275 . S
C73 O68 1.255 . S
C74 O75 1.258 . S
C74 O76 1.256 . S
O75 Cd67 2.381 . S
O75 C74 1.258 . S
O76 Cd67 2.378 . S
O76 C74 1.256 . S
O77 Cd78 2.300 . S
O77 C84 1.275 . S
Cd78 O77 2.300 . S
Cd78 O86 2.381 . S
Cd78 O87 2.378 . S
O79 Cd80 2.385 . S
O79 C84 1.255 . S
Cd80 O79 2.385 . S
Cd80 O81 2.317 . S
O81 Cd80 2.317 . S
O81 C82 1.232 . S
C82 O81 1.232 . S
C82 O83 1.218 . S
O83 C82 1.218 . S
C84 O77 1.275 . S
C84 O79 1.255 . S
C85 O86 1.258 . S
C85 O87 1.256 . S
O86 Cd78 2.381 . S
O86 C85 1.258 . S
O87 Cd78 2.378 . S
O87 C85 1.256 . S
O88 Cd89 2.300 . S
O88 C95 1.275 . S
Cd89 O88 2.300 . S
Cd89 O97 2.381 . S
Cd89 O98 2.378 . S
O90 Cd91 2.385 . S
O90 C95 1.255 . S
Cd91 O90 2.385 . S
Cd91 O92 2.317 . S
O92 Cd91 2.317 . S
O92 C93 1.232 . S
C93 O92 1.232 . S
C93 O94 1.218 . S
O94 C93 1.218 . S
C95 O88 1.275 . S
C95 O90 1.255 . S
C96 O97 1.258 . S
C96 O98 1.256 . S
O97 Cd89 2.381 . S
O97 C96 1.258 . S
O98 Cd89 2.378 . S
O98 C96 1.256 . S
O99 Cd100 2.300 . S
O99 C106 1.275 . S
Cd100 O99 2.300 . S
Cd100 O108 2.381 . S
Cd100 O109 2.378 . S
O101 Cd102 2.385 . S
O101 C106 1.255 . S
Cd102 O101 2.385 . S
Cd102 O103 2.317 . S
O103 Cd102 2.317 . S
O103 C104 1.232 . S
C104 O103 1.232 . S
C104 O105 1.218 . S
O105 C104 1.218 . S
C106 O99 1.275 . S
C106 O101 1.255 . S
C107 O108 1.258 . S
C107 O109 1.256 . S
O108 Cd100 2.381 . S
O108 C107 1.258 . S
O109 Cd100 2.378 . S
O109 C107 1.256 . S
O110 Cd111 2.300 . S
O110 C117 1.275 . S
Cd111 O110 2.300 . S
Cd111 O119 2.381 . S
Cd111 O120 2.378 . S
O112 Cd113 2.385 . S
O112 C117 1.255 . S
Cd113 O112 2.385 . S
Cd113 O114 2.317 . S
O114 Cd113 2.317 . S
O114 C115 1.232 . S
C115 O114 1.232 . S
C115 O116 1.218 . S
O116 C115 1.218 . S
C117 O110 1.275 . S
C117 O112 1.255 . S
C118 O119 1.258 . S
C118 O120 1.256 . S
O119 Cd111 2.381 . S
O119 C118 1.258 . S
O120 Cd111 2.378 . S
O120 C118 1.256 . S
O121 Cd122 2.300 . S
O121 C128 1.275 . S
Cd122 O121 2.300 . S
Cd122 O130 2.381 . S
Cd122 O131 2.378 . S
O123 Cd124 2.385 . S
O123 C128 1.255 . S
Cd124 O123 2.385 . S
Cd124 O125 2.317 . S
O125 Cd124 2.317 . S
O125 C126 1.232 . S
C126 O125 1.232 . S
C126 O127 1.218 . S
O127 C126 1.218 . S
C128 O121 1.275 . S
C128 O123 1.255 . S
C129 O130 1.258 . S
C129 O131 1.256 . S
O130 Cd122 2.381 . S
O130 C129 1.258 . S
O131 Cd122 2.378 . S
O131 C129 1.256 . S
O132 Cd133 2.300 . S
O132 C139 1.275 . S
Cd133 O132 2.300 . S
Cd133 O141 2.381 . S
Cd133 O142 2.378 . S
O134 Cd135 2.385 . S
O134 C139 1.255 . S
Cd135 O134 2.385 . S
Cd135 O136 2.317 . S
O136 Cd135 2.317 . S
O136 C137 1.232 . S
C137 O136 1.232 . S
C137 O138 1.218 . S
O138 C137 1.218 . S
C139 O132 1.275 . S
C139 O134 1.255 . S
C140 O141 1.258 . S
C140 O142 1.256 . S
O141 Cd133 2.381 . S
O141 C140 1.258 . S
O142 Cd133 2.378 . S
O142 C140 1.256 . S
O143 Cd144 2.300 . S
O143 C150 1.275 . S
Cd144 O143 2.300 . S
Cd144 O152 2.381 . S
Cd144 O153 2.378 . S
O145 Cd146 2.385 . S
O145 C150 1.255 . S
Cd146 O145 2.385 . S
Cd146 O147 2.317 . S
O147 Cd146 2.317 . S
O147 C148 1.232 . S
C148 O147 1.232 . S
C148 O149 1.218 . S
O149 C148 1.218 . S
C150 O143 1.275 . S
C150 O145 1.255 . S
C151 O152 1.258 . S
C151 O153 1.256 . S
O152 Cd144 2.381 . S
O152 C151 1.258 . S
O153 Cd144 2.378 . S
O153 C151 1.256 . S
O154 Cd155 2.300 . S
O154 C161 1.275 . S
Cd155 O154 2.300 . S
Cd155 O163 2.381 . S
Cd155 O164 2.378 . S
O156 Cd157 2.385 . S
O156 C161 1.255 . S
Cd157 O156 2.385 . S
Cd157 O158 2.317 . S
O158 Cd157 2.317 . S
O158 C159 1.232 . S
C159 O158 1.232 . S
C159 O160 1.218 . S
O160 C159 1.218 . S
C161 O154 1.275 . S
C161 O156 1.255 . S
C162 O163 1.258 . S
C162 O164 1.256 . S
O163 Cd155 2.381 . S
O163 C162 1.258 . S
O164 Cd155 2.378 . S
O164 C162 1.256 . S
O165 Cd166 2.300 . S
O165 C172 1.275 . S
Cd166 O165 2.300 . S
Cd166 O174 2.381 . S
Cd166 O175 2.378 . S
O167 Cd168 2.385 . S
O167 C172 1.255 . S
Cd168 O167 2.385 . S
Cd168 O169 2.317 . S
O169 Cd168 2.317 . S
O169 C170 1.232 . S
C170 O169 1.232 . S
C170 O171 1.218 . S
O171 C170 1.218 . S
C172 O165 1.275 . S
C172 O167 1.255 . S
C173 O174 1.258 . S
C173 O175 1.256 . S
O174 Cd166 2.381 . S
O174 C173 1.258 . S
O175 Cd166 2.378 . S
O175 C173 1.256 . S
O176 Cd177 2.300 . S
O176 C183 1.275 . S
Cd177 O176 2.300 . S
Cd177 O185 2.381 . S
Cd177 O186 2.378 . S
O178 Cd179 2.385 . S
O178 C183 1.255 . S
Cd179 O178 2.385 . S
Cd179 O180 2.317 . S
O180 Cd179 2.317 . S
O180 C181 1.232 . S
C181 O180 1.232 . S
C181 O182 1.218 . S
O182 C181 1.218 . S
C183 O176 1.275 . S
C183 O178 1.255 . S
C184 O185 1.258 . S
C184 O186 1.256 . S
O185 Cd177 2.381 . S
O185 C184 1.258 . S
O186 Cd177 2.378 . S
O186 C184 1.256 . S
O187 Cd188 2.300 . S
O187 C194 1.275 . S
Cd188 O187 2.300 . S
Cd188 O196 2.381 . S
Cd188 O197 2.378 . S
O189 Cd190 2.385 . S
O189 C194 1.255 . S
Cd190 O189 2.385 . S
Cd190 O191 2.317 . S
O191 Cd190 2.317 . S
O191 C192 1.232 . S
C192 O191 1.232 . S
C192 O193 1.218 . S
O193 C192 1.218 . S
C194 O187 1.275 . S
C194 O189 1.255 . S
C195 O196 1.258 . S
C195 O197 1.256 . S
O196 Cd188 2.381 . S
O196 C195 1.258 . S
O197 Cd188 2.378 . S
O197 C195 1.256 . S
O198 Cd199 2.300 . S
O198 C205 1.275 . S
Cd199 O198 2.300 . S
Cd199 O207 2.381 . S
Cd199 O208 2.378 . S
O200 Cd201 2.385 . S
O200 C205 1.255 . S
Cd201 O200 2.385 . S
Cd201 O202 2.317 . S
O202 Cd201 2.317 . S
O202 C203 1.232 . S
C203 O202 1.232 . S
C203 O204 1.218 . S
O204 C203 1.218 . S
C205 O198 1.275 . S
C205 O200 1.255 . S
C206 O207 1.258 . S
C206 O208 1.256 . S
O207 Cd199 2.381 . S
O207 C206 1.258 . S
O208 Cd199 2.378 . S
O208 C206 1.256 . S
O209 Cd210 2.300 . S
O209 C216 1.275 . S
Cd210 O209 2.300 . S
Cd210 O218 2.381 . S
Cd210 O219 2.378 . S
O211 Cd212 2.385 . S
O211 C216 1.255 . S
Cd212 O211 2.385 . S
Cd212 O213 2.317 . S
O213 Cd212 2.317 . S
O213 C214 1.232 . S
C214 O213 1.232 . S
C214 O215 1.218 . S
O215 C214 1.218 . S
C216 O209 1.275 . S
C216 O211 1.255 . S
C217 O218 1.258 . S
C217 O219 1.256 . S
O218 Cd210 2.381 . S
O218 C217 1.258 . S
O219 Cd210 2.378 . S
O219 C217 1.256 . S
O220 Cd221 2.300 . S
O220 C227 1.275 . S
Cd221 O220 2.300 . S
Cd221 O229 2.381 . S
Cd221 O230 2.378 . S
O222 Cd223 2.385 . S
O222 C227 1.255 . S
Cd223 O222 2.385 . S
Cd223 O224 2.317 . S
O224 Cd223 2.317 . S
O224 C225 1.232 . S
C225 O224 1.232 . S
C225 O226 1.218 . S
O226 C225 1.218 . S
C227 O220 1.275 . S
C227 O222 1.255 . S
C228 O229 1.258 . S
C228 O230 1.256 . S
O229 Cd221 2.381 . S
O229 C228 1.258 . S
O230 Cd221 2.378 . S
O230 C228 1.256 . S
O231 Cd232 2.300 . S
O231 C238 1.275 . S
Cd232 O231 2.300 . S
Cd232 O240 2.381 . S
Cd232 O241 2.378 . S
O233 Cd234 2.385 . S
O233 C238 1.255 . S
Cd234 O233 2.385 . S
Cd234 O235 2.317 . S
O235 Cd234 2.317 . S
O235 C236 1.232 . S
C236 O235 1.232 . S
C236 O237 1.218 . S
O237 C236 1.218 . S
C238 O231 1.275 . S
C238 O233 1.255 . S
C239 O240 1.258 . S
C239 O241 1.256 . S
O240 Cd232 2.381 . S
O240 C239 1.258 . S
O241 Cd232 2.378 . S
O241 C239 1.256 . S
O242 Cd243 2.300 . S
O242 C249 1.275 . S
Cd243 O242 2.300 . S
Cd243 O251 2.381 . S
Cd243 O252 2.378 . S
O244 Cd245 2.385 . S
O244 C249 1.255 . S
Cd245 O244 2.385 . S
Cd245 O246 2.317 . S
O246 Cd245 2.317 . S
O246 C247 1.232 . S
C247 O246 1.232 . S
C247 O248 1.218 . S
O248 C247 1.218 . S
C249 O242 1.275 . S
C249 O244 1.255 . S
C250 O251 1.258 . S
C250 O252 1.256 . S
O251 Cd243 2.381 . S
O251 C250 1.258 . S
O252 Cd243 2.378 . S
O252 C250 1.256 . S
O253 Cd254 2.300 . S
O253 C260 1.275 . S
Cd254 O253 2.300 . S
Cd254 O262 2.381 . S
Cd254 O263 2.378 . S
O255 Cd256 2.385 . S
O255 C260 1.255 . S
Cd256 O255 2.385 . S
Cd256 O257 2.317 . S
O257 Cd256 2.317 . S
O257 C258 1.232 . S
C258 O257 1.232 . S
C258 O259 1.218 . S
O259 C258 1.218 . S
C260 O253 1.275 . S
C260 O255 1.255 . S
C261 O262 1.258 . S
C261 O263 1.256 . S
O262 Cd254 2.381 . S
O262 C261 1.258 . S
O263 Cd254 2.378 . S
O263 C261 1.256 . S
O264 Cd265 2.300 . S
O264 C271 1.275 . S
Cd265 O264 2.300 . S
Cd265 O273 2.381 . S
Cd265 O274 2.378 . S
O266 Cd267 2.385 . S
O266 C271 1.255 . S
Cd267 O266 2.385 . S
Cd267 O268 2.317 . S
O268 Cd267 2.317 . S
O268 C269 1.232 . S
C269 O268 1.232 . S
C269 O270 1.218 . S
O270 C269 1.218 . S
C271 O264 1.275 . S
C271 O266 1.255 . S
C272 O273 1.258 . S
C272 O274 1.256 . S
O273 Cd265 2.381 . S
O273 C272 1.258 . S
O274 Cd265 2.378 . S
O274 C272 1.256 . S
O275 Cd276 2.300 . S
O275 C282 1.275 . S
Cd276 O275 2.300 . S
Cd276 O284 2.381 . S
Cd276 O285 2.378 . S
O277 Cd278 2.385 . S
O277 C282 1.255 . S
Cd278 O277 2.385 . S
Cd278 O279 2.317 . S
O279 Cd278 2.317 . S
O279 C280 1.232 . S
C280 O279 1.232 . S
C280 O281 1.218 . S
O281 C280 1.218 . S
C282 O275 1.275 . S
C282 O277 1.255 . S
C283 O284 1.258 . S
C283 O285 1.256 . S
O284 Cd276 2.381 . S
O284 C283 1.258 . S
O285 Cd276 2.378 . S
O285 C283 1.256 . S
O286 Cd287 2.300 . S
O286 C293 1.275 . S
Cd287 O286 2.300 . S
Cd287 O295 2.381 . S
Cd287 O296 2.378 . S
O288 Cd289 2.385 . S
O288 C293 1.255 . S
Cd289 O288 2.385 . S
Cd289 O290 2.317 . S
O290 Cd289 2.317 . S
O290 C291 1.232 . S
C291 O290 1.232 . S
C291 O292 1.218 . S
O292 C291 1.218 . S
C293 O286 1.275 . S
C293 O288 1.255 . S
C294 O295 1.258 . S
C294 O296 1.256 . S
O295 Cd287 2.381 . S
O295 C294 1.258 . S
O296 Cd287 2.378 . S
O296 C294 1.256 . S
O297 Cd298 2.300 . S
O297 C304 1.275 . S
Cd298 O297 2.300 . S
Cd298 O306 2.381 . S
Cd298 O307 2.378 . S
O299 Cd300 2.385 . S
O299 C304 1.255 . S
Cd300 O299 2.385 . S
Cd300 O301 2.317 . S
O301 Cd300 2.317 . S
O301 C302 1.232 . S
C302 O301 1.232 . S
C302 O303 1.218 . S
O303 C302 1.218 . S
C304 O297 1.275 . S
C304 O299 1.255 . S
C305 O306 1.258 . S
C305 O307 1.256 . S
O306 Cd298 2.381 . S
O306 C305 1.258 . S
O307 Cd298 2.378 . S
O307 C305 1.256 . S
O308 Cd309 2.300 . S
O308 C315 1.275 . S
Cd309 O308 2.300 . S
Cd309 O317 2.381 . S
Cd309 O318 2.378 . S
O310 Cd311 2.385 . S
O310 C315 1.255 . S
Cd311 O310 2.385 . S
Cd311 O312 2.317 . S
O312 Cd311 2.317 . S
O312 C313 1.232 . S
C313 O312 1.232 . S
C313 O314 1.218 . S
O314 C313 1.218 . S
C315 O308 1.275 . S
C315 O310 1.255 . S
C316 O317 1.258 . S
C316 O318 1.256 . S
O317 Cd309 2.381 . S
O317 C316 1.258 . S
O318 Cd309 2.378 . S
O318 C316 1.256 . S
O319 Cd320 2.300 . S
O319 C326 1.275 . S
Cd320 O319 2.300 . S
Cd320 O328 2.381 . S
Cd320 O329 2.378 . S
O321 Cd322 2.385 . S
O321 C326 1.255 . S
Cd322 O321 2.385 . S
Cd322 O323 2.317 . S
O323 Cd322 2.317 . S
O323 C324 1.232 . S
C324 O323 1.232 . S
C324 O325 1.218 . S
O325 C324 1.218 . S
C326 O319 1.275 . S
C326 O321 1.255 . S
C327 O328 1.258 . S
C327 O329 1.256 . S
O328 Cd320 2.381 . S
O328 C327 1.258 . S
O329 Cd320 2.378 . S
O329 C327 1.256 . S
O330 Cd331 2.300 . S
O330 C337 1.275 . S
Cd331 O330 2.300 . S
Cd331 O339 2.381 . S
Cd331 O340 2.378 . S
O332 Cd333 2.385 . S
O332 C337 1.255 . S
Cd333 O332 2.385 . S
Cd333 O334 2.317 . S
O334 Cd333 2.317 . S
O334 C335 1.232 . S
C335 O334 1.232 . S
C335 O336 1.218 . S
O336 C335 1.218 . S
C337 O330 1.275 . S
C337 O332 1.255 . S
C338 O339 1.258 . S
C338 O340 1.256 . S
O339 Cd331 2.381 . S
O339 C338 1.258 . S
O340 Cd331 2.378 . S
O340 C338 1.256 . S
O341 Cd342 2.300 . S
O341 C348 1.275 . S
Cd342 O341 2.300 . S
Cd342 O350 2.381 . S
Cd342 O351 2.378 . S
O343 Cd344 2.385 . S
O343 C348 1.255 . S
Cd344 O343 2.385 . S
Cd344 O345 2.317 . S
O345 Cd344 2.317 . S
O345 C346 1.232 . S
C346 O345 1.232 . S
C346 O347 1.218 . S
O347 C346 1.218 . S
C348 O341 1.275 . S
C348 O343 1.255 . S
C349 O350 1.258 . S
C349 O351 1.256 . S
O350 Cd342 2.381 . S
O350 C349 1.258 . S
O351 Cd342 2.378 . S
O351 C349 1.256 . S
C352 C353 1.560 . S
C352 H413 0.959 . S
C352 H414 0.959 . S
C352 H415 0.960 . S
C353 C352 1.560 . S
C353 O408 1.426 . S
C353 H412 0.980 . S
C354 C355 1.407 . S
C354 C359 1.418 . S
C354 O408 1.334 . S
C355 C354 1.407 . S
C355 C356 1.360 . S
C355 H416 0.929 . S
C356 C355 1.360 . S
C356 C357 1.401 . S
C356 C360 1.527 . S
C357 C356 1.401 . S
C357 C358 1.405 . S
C357 C390 1.587 . S
C358 C357 1.405 . S
C358 C359 1.332 . S
C358 C361 1.496 . S
C359 C354 1.418 . S
C359 C358 1.332 . S
C359 H417 0.929 . S
C360 C356 1.527 . S
C360 H418 0.959 . S
C360 H419 0.961 . S
C360 H420 0.961 . S
C361 C358 1.496 . S
C361 H421 0.960 . S
C361 H422 0.960 . S
C361 H423 0.961 . S
C362 C363 1.517 . S
C362 H425 0.961 . S
C362 H426 0.960 . S
C362 H427 0.959 . S
C363 C362 1.517 . S
C363 O411 1.468 . S
C363 H424 0.980 . S
C364 C365 1.349 . S
C364 C369 1.367 . S
C364 O411 1.408 . S
C365 C364 1.349 . S
C365 C366 1.407 . S
C365 H428 0.930 . S
C366 C365 1.407 . S
C366 C367 1.449 1_556 S
C366 C370 1.535 1_556 S
C367 C366 1.449 1_554 S
C367 C368 1.384 . S
C367 C392 1.553 . S
C368 C367 1.384 . S
C368 C369 1.364 1_554 S
C368 C371 1.450 . S
C369 C364 1.367 . S
C369 C368 1.364 1_556 S
C369 H429 0.931 . S
C370 C366 1.535 1_554 S
C370 H430 0.959 . S
C370 H431 0.961 . S
C370 H432 0.959 1_554 S
C371 C368 1.450 . S
C371 H433 0.960 . S
C371 H434 0.960 . S
C371 H435 0.960 . S
C372 C373 1.309 . S
C372 C377 1.304 . S
C372 O410 1.435 . S
C373 C372 1.309 . S
C373 C374 1.476 . S
C373 H437 0.930 . S
C374 C373 1.476 . S
C374 C375 1.393 1_556 S
C374 C378 1.567 . S
C375 C374 1.393 1_554 S
C375 C376 1.370 1_554 S
C375 C397 1.442 . S
C376 C375 1.370 1_556 S
C376 C377 1.339 . S
C376 C379 1.530 1_556 S
C377 C372 1.304 . S
C377 C376 1.339 . S
C377 H438 0.930 . S
C378 C374 1.567 . S
C378 H439 0.961 . S
C378 H440 0.960 . S
C378 H441 0.958 . S
C379 C376 1.530 1_554 S
C379 H442 0.961 . S
C379 H443 0.960 . S
C379 H444 0.960 . S
C380 C381 1.530 . S
C380 H446 0.961 . S
C380 H447 0.961 . S
C380 H448 0.959 . S
C381 C380 1.530 . S
C381 O409 1.412 . S
C381 H445 0.980 . S
C382 C383 1.288 . S
C382 C387 1.377 . S
C382 O409 1.393 . S
C383 C382 1.288 . S
C383 C384 1.369 . S
C383 H449 0.932 . S
C384 C383 1.369 . S
C384 C385 1.398 . S
C384 C388 1.527 . S
C385 C384 1.398 . S
C385 C386 1.380 . S
C385 C399 1.497 . S
C386 C385 1.380 . S
C386 C387 1.383 . S
C386 C389 1.603 . S
C387 C382 1.377 . S
C387 C386 1.383 . S
C387 H450 0.929 . S
C388 C384 1.527 . S
C388 H451 0.961 . S
C388 H452 0.959 . S
C388 H453 0.959 . S
C389 C386 1.603 . S
C389 H454 0.960 . S
C389 H455 0.962 . S
C389 H456 0.961 . S
C390 C357 1.587 . S
C390 C391 1.360 . S
C390 C403 1.412 . S
C391 C390 1.360 . S
C391 C392 1.365 . S
C391 H457 0.929 . S
C392 C367 1.553 . S
C392 C391 1.365 . S
C392 C393 1.404 . S
C393 C392 1.404 . S
C393 C394 1.395 . S
C393 C404 1.451 . S
C394 C393 1.395 . S
C394 C395 1.322 . S
C394 H458 0.930 1_554 S
C395 C394 1.322 . S
C395 C396 1.459 . S
C395 H459 0.929 1_554 S
C396 C395 1.459 . S
C396 C397 1.445 . S
C396 C405 1.395 . S
C397 C375 1.442 . S
C397 C396 1.445 . S
C397 C398 1.370 . S
C398 C397 1.370 . S
C398 C399 1.438 . S
C398 H460 0.930 . S
C399 C385 1.497 . S
C399 C398 1.438 . S
C399 C400 1.360 . S
C400 C399 1.360 . S
C400 C401 1.401 . S
C400 C405 1.446 . S
C401 C400 1.401 . S
C401 C402 1.347 . S
C401 H461 0.929 . S
C402 C401 1.347 . S
C402 C403 1.455 . S
C402 H462 0.930 . S
C403 C390 1.412 . S
C403 C402 1.455 . S
C403 C404 1.331 . S
C404 C393 1.451 . S
C404 C403 1.331 . S
C404 C405 1.497 . S
C405 C396 1.395 . S
C405 C400 1.446 . S
C405 C404 1.497 . S
C406 C407 1.582 . S
C406 H463 0.962 . S
C406 H464 0.959 . S
C406 H465 0.958 . S
C407 C406 1.582 . S
C407 O410 1.458 . S
C407 H436 0.980 . S
O408 C353 1.426 . S
O408 C354 1.334 . S
O409 C381 1.412 . S
O409 C382 1.393 . S
O410 C372 1.435 . S
O410 C407 1.458 . S
O411 C363 1.468 . S
O411 C364 1.408 . S
H412 C353 0.980 . S
H413 C352 0.959 . S
H414 C352 0.959 . S
H415 C352 0.960 . S
H416 C355 0.929 . S
H417 C359 0.929 . S
H418 C360 0.959 . S
H419 C360 0.961 . S
H420 C360 0.961 . S
H421 C361 0.960 . S
H422 C361 0.960 . S
H423 C361 0.961 . S
H424 C363 0.980 . S
H425 C362 0.961 . S
H426 C362 0.960 . S
H427 C362 0.959 . S
H428 C365 0.930 . S
H429 C369 0.931 . S
H430 C370 0.959 . S
H431 C370 0.961 . S
H432 C370 0.959 1_556 S
H433 C371 0.960 . S
H434 C371 0.960 . S
H435 C371 0.960 . S
H436 C407 0.980 . S
H437 C373 0.930 . S
H438 C377 0.930 . S
H439 C378 0.961 . S
H440 C378 0.960 . S
H441 C378 0.958 . S
H442 C379 0.961 . S
H443 C379 0.960 . S
H444 C379 0.960 . S
H445 C381 0.980 . S
H446 C380 0.961 . S
H447 C380 0.961 . S
H448 C380 0.959 . S
H449 C383 0.932 . S
H450 C387 0.929 . S
H451 C388 0.961 . S
H452 C388 0.959 . S
H453 C388 0.959 . S
H454 C389 0.960 . S
H455 C389 0.962 . S
H456 C389 0.961 . S
H457 C391 0.929 . S
H458 C394 0.930 1_556 S
H459 C395 0.929 1_556 S
H460 C398 0.930 . S
H461 C401 0.929 . S
H462 C402 0.930 . S
H463 C406 0.962 . S
H464 C406 0.959 . S
H465 C406 0.958 . S
C466 C467 1.560 . S
C466 H527 0.959 . S
C466 H528 0.959 . S
C466 H529 0.960 . S
C467 C466 1.560 . S
C467 O522 1.426 . S
C467 H526 0.980 . S
C468 C469 1.407 . S
C468 C473 1.418 . S
C468 O522 1.334 . S
C469 C468 1.407 . S
C469 C470 1.360 . S
C469 H530 0.929 . S
C470 C469 1.360 . S
C470 C471 1.401 . S
C470 C474 1.527 . S
C471 C470 1.401 . S
C471 C472 1.405 . S
C471 C504 1.587 . S
C472 C471 1.405 . S
C472 C473 1.332 . S
C472 C475 1.496 . S
C473 C468 1.418 . S
C473 C472 1.332 . S
C473 H531 0.929 . S
C474 C470 1.527 . S
C474 H532 0.959 . S
C474 H533 0.961 . S
C474 H534 0.961 . S
C475 C472 1.496 . S
C475 H535 0.960 . S
C475 H536 0.960 . S
C475 H537 0.961 . S
C476 C477 1.517 . S
C476 H539 0.961 . S
C476 H540 0.960 . S
C476 H541 0.959 . S
C477 C476 1.517 . S
C477 O525 1.468 . S
C477 H538 0.980 . S
C478 C479 1.349 . S
C478 C483 1.367 . S
C478 O525 1.408 . S
C479 C478 1.349 . S
C479 C480 1.407 . S
C479 H542 0.930 . S
C480 C479 1.407 . S
C480 C481 1.449 . S
C480 C484 1.535 . S
C481 C480 1.449 . S
C481 C482 1.384 . S
C481 C506 1.553 . S
C482 C481 1.384 . S
C482 C483 1.364 . S
C482 C485 1.450 . S
C483 C478 1.367 . S
C483 C482 1.364 . S
C483 H543 0.931 . S
C484 C480 1.535 . S
C484 H544 0.959 . S
C484 H545 0.961 . S
C484 H546 0.959 . S
C485 C482 1.450 . S
C485 H547 0.960 . S
C485 H548 0.960 . S
C485 H549 0.960 . S
C486 C487 1.309 . S
C486 C491 1.304 . S
C486 O524 1.435 . S
C487 C486 1.309 . S
C487 C488 1.476 . S
C487 H551 0.930 . S
C488 C487 1.476 . S
C488 C489 1.400 . S
C488 C492 1.567 . S
C489 C488 1.400 . S
C489 C490 1.373 . S
C489 C511 1.432 . S
C490 C489 1.373 . S
C490 C491 1.339 . S
C490 C493 1.530 . S
C491 C486 1.304 . S
C491 C490 1.339 . S
C491 H552 0.930 . S
C492 C488 1.567 . S
C492 H553 0.961 . S
C492 H554 0.960 . S
C492 H555 0.958 . S
C493 C490 1.530 . S
C493 H556 0.961 . S
C493 H557 0.960 . S
C493 H558 0.960 . S
C494 C495 1.530 . S
C494 H560 0.961 . S
C494 H561 0.961 . S
C494 H562 0.959 . S
C495 C494 1.530 . S
C495 O523 1.412 . S
C495 H559 0.980 . S
C496 C497 1.288 . S
C496 C501 1.377 . S
C496 O523 1.393 . S
C497 C496 1.288 . S
C497 C498 1.369 . S
C497 H563 0.932 . S
C498 C497 1.369 . S
C498 C499 1.398 . S
C498 C502 1.527 . S
C499 C498 1.398 . S
C499 C500 1.380 . S
C499 C513 1.497 . S
C500 C499 1.380 . S
C500 C501 1.383 . S
C500 C503 1.603 . S
C501 C496 1.377 . S
C501 C500 1.383 . S
C501 H564 0.929 . S
C502 C498 1.527 . S
C502 H565 0.961 . S
C502 H566 0.959 . S
C502 H567 0.959 . S
C503 C500 1.603 . S
C503 H568 0.960 . S
C503 H569 0.962 . S
C503 H570 0.961 . S
C504 C471 1.587 . S
C504 C505 1.360 1_556 S
C504 C517 1.412 . S
C505 C504 1.360 1_554 S
C505 C506 1.365 . S
C505 H571 0.929 . S
C506 C481 1.553 . S
C506 C505 1.365 . S
C506 C507 1.404 . S
C507 C506 1.404 . S
C507 C508 1.395 . S
C507 C518 1.451 . S
C508 C507 1.395 . S
C508 C509 1.322 . S
C508 H572 0.930 . S
C509 C508 1.322 . S
C509 C510 1.459 . S
C509 H573 0.929 . S
C510 C509 1.459 . S
C510 C511 1.445 . S
C510 C519 1.395 . S
C511 C489 1.432 . S
C511 C510 1.445 . S
C511 C512 1.370 . S
C512 C511 1.370 . S
C512 C513 1.438 1_554 S
C512 H574 0.930 1_554 S
C513 C499 1.497 . S
C513 C512 1.438 1_556 S
C513 C514 1.360 . S
C514 C513 1.360 . S
C514 C515 1.401 . S
C514 C519 1.446 1_556 S
C515 C514 1.401 . S
C515 C516 1.347 . S
C515 H575 0.929 . S
C516 C515 1.347 . S
C516 C517 1.455 . S
C516 H576 0.930 . S
C517 C504 1.412 . S
C517 C516 1.455 . S
C517 C518 1.331 1_556 S
C518 C507 1.451 . S
C518 C517 1.331 1_554 S
C518 C519 1.497 . S
C519 C510 1.395 . S
C519 C514 1.446 1_554 S
C519 C518 1.497 . S
C520 C521 1.582 . S
C520 H577 0.962 . S
C520 H578 0.959 . S
C520 H579 0.958 . S
C521 C520 1.582 . S
C521 O524 1.458 . S
C521 H550 0.980 . S
O522 C467 1.426 . S
O522 C468 1.334 . S
O523 C495 1.412 . S
O523 C496 1.393 . S
O524 C486 1.435 . S
O524 C521 1.458 . S
O525 C477 1.468 . S
O525 C478 1.408 . S
H526 C467 0.980 . S
H527 C466 0.959 . S
H528 C466 0.959 . S
H529 C466 0.960 . S
H530 C469 0.929 . S
H531 C473 0.929 . S
H532 C474 0.959 . S
H533 C474 0.961 . S
H534 C474 0.961 . S
H535 C475 0.960 . S
H536 C475 0.960 . S
H537 C475 0.961 . S
H538 C477 0.980 . S
H539 C476 0.961 . S
H540 C476 0.960 . S
H541 C476 0.959 . S
H542 C479 0.930 . S
H543 C483 0.931 . S
H544 C484 0.959 . S
H545 C484 0.961 . S
H546 C484 0.959 . S
H547 C485 0.960 . S
H548 C485 0.960 . S
H549 C485 0.960 . S
H550 C521 0.980 . S
H551 C487 0.930 . S
H552 C491 0.930 . S
H553 C492 0.961 . S
H554 C492 0.960 . S
H555 C492 0.958 . S
H556 C493 0.961 . S
H557 C493 0.960 . S
H558 C493 0.960 . S
H559 C495 0.980 . S
H560 C494 0.961 . S
H561 C494 0.961 . S
H562 C494 0.959 . S
H563 C497 0.932 . S
H564 C501 0.929 . S
H565 C502 0.961 . S
H566 C502 0.959 . S
H567 C502 0.959 . S
H568 C503 0.960 . S
H569 C503 0.962 . S
H570 C503 0.961 . S
H571 C505 0.929 . S
H572 C508 0.930 . S
H573 C509 0.929 . S
H574 C512 0.930 1_556 S
H575 C515 0.929 . S
H576 C516 0.930 . S
H577 C520 0.962 . S
H578 C520 0.959 . S
H579 C520 0.958 . S
C580 C581 1.560 . S
C580 H641 0.959 . S
C580 H642 0.959 . S
C580 H643 0.960 . S
C581 C580 1.560 . S
C581 O636 1.426 . S
C581 H640 0.980 . S
C582 C583 1.407 . S
C582 C587 1.418 . S
C582 O636 1.334 . S
C583 C582 1.407 . S
C583 C584 1.360 . S
C583 H644 0.929 . S
C584 C583 1.360 . S
C584 C585 1.401 . S
C584 C588 1.527 . S
C585 C584 1.401 . S
C585 C586 1.405 . S
C585 C618 1.587 . S
C586 C585 1.405 . S
C586 C587 1.332 . S
C586 C589 1.496 . S
C587 C582 1.418 . S
C587 C586 1.332 . S
C587 H645 0.929 . S
C588 C584 1.527 . S
C588 H646 0.959 . S
C588 H647 0.961 . S
C588 H648 0.961 . S
C589 C586 1.496 . S
C589 H649 0.960 . S
C589 H650 0.960 . S
C589 H651 0.961 . S
C590 C591 1.517 . S
C590 H653 0.961 . S
C590 H654 0.960 . S
C590 H655 0.959 . S
C591 C590 1.517 . S
C591 O639 1.468 . S
C591 H652 0.980 . S
C592 C593 1.349 . S
C592 C597 1.367 . S
C592 O639 1.408 . S
C593 C592 1.349 . S
C593 C594 1.407 . S
C593 H656 0.930 . S
C594 C593 1.407 . S
C594 C595 1.449 1_556 S
C594 C598 1.535 1_556 S
C595 C594 1.449 1_554 S
C595 C596 1.384 . S
C595 C620 1.553 . S
C596 C595 1.384 . S
C596 C597 1.364 1_554 S
C596 C599 1.450 . S
C597 C592 1.367 . S
C597 C596 1.364 1_556 S
C597 H657 0.931 . S
C598 C594 1.535 1_554 S
C598 H658 0.959 . S
C598 H659 0.961 . S
C598 H660 0.959 1_554 S
C599 C596 1.450 . S
C599 H661 0.960 . S
C599 H662 0.960 . S
C599 H663 0.960 . S
C600 C601 1.309 . S
C600 C605 1.304 . S
C600 O638 1.435 . S
C601 C600 1.309 . S
C601 C602 1.476 . S
C601 H665 0.930 . S
C602 C601 1.476 . S
C602 C603 1.392 1_556 S
C602 C606 1.567 . S
C603 C602 1.392 1_554 S
C603 C604 1.369 1_554 S
C603 C625 1.444 . S
C604 C603 1.369 1_556 S
C604 C605 1.339 . S
C604 C607 1.530 1_556 S
C605 C600 1.304 . S
C605 C604 1.339 . S
C605 H666 0.930 . S
C606 C602 1.567 . S
C606 H667 0.961 . S
C606 H668 0.960 . S
C606 H669 0.958 . S
C607 C604 1.530 1_554 S
C607 H670 0.961 . S
C607 H671 0.960 . S
C607 H672 0.960 . S
C608 C609 1.530 . S
C608 H674 0.961 . S
C608 H675 0.961 . S
C608 H676 0.959 . S
C609 C608 1.530 . S
C609 O637 1.412 . S
C609 H673 0.980 . S
C610 C611 1.288 . S
C610 C615 1.377 . S
C610 O637 1.393 . S
C611 C610 1.288 . S
C611 C612 1.369 . S
C611 H677 0.932 . S
C612 C611 1.369 . S
C612 C613 1.398 . S
C612 C616 1.527 . S
C613 C612 1.398 . S
C613 C614 1.380 . S
C613 C627 1.497 . S
C614 C613 1.380 . S
C614 C615 1.383 . S
C614 C617 1.603 . S
C615 C610 1.377 . S
C615 C614 1.383 . S
C615 H678 0.929 . S
C616 C612 1.527 . S
C616 H679 0.961 . S
C616 H680 0.959 . S
C616 H681 0.959 . S
C617 C614 1.603 . S
C617 H682 0.960 . S
C617 H683 0.962 . S
C617 H684 0.961 . S
C618 C585 1.587 . S
C618 C619 1.360 . S
C618 C631 1.412 . S
C619 C618 1.360 . S
C619 C620 1.365 . S
C619 H685 0.929 . S
C620 C595 1.553 . S
C620 C619 1.365 . S
C620 C621 1.404 . S
C621 C620 1.404 . S
C621 C622 1.395 . S
C621 C632 1.451 . S
C622 C621 1.395 . S
C622 C623 1.322 . S
C622 H686 0.930 1_554 S
C623 C622 1.322 . S
C623 C624 1.459 . S
C623 H687 0.929 1_554 S
C624 C623 1.459 . S
C624 C625 1.445 . S
C624 C633 1.395 . S
C625 C603 1.444 . S
C625 C624 1.445 . S
C625 C626 1.370 . S
C626 C625 1.370 . S
C626 C627 1.438 . S
C626 H688 0.930 . S
C627 C613 1.497 . S
C627 C626 1.438 . S
C627 C628 1.360 . S
C628 C627 1.360 . S
C628 C629 1.401 . S
C628 C633 1.446 . S
C629 C628 1.401 . S
C629 C630 1.347 . S
C629 H689 0.929 . S
C630 C629 1.347 . S
C630 C631 1.455 . S
C630 H690 0.930 . S
C631 C618 1.412 . S
C631 C630 1.455 . S
C631 C632 1.331 . S
C632 C621 1.451 . S
C632 C631 1.331 . S
C632 C633 1.497 . S
C633 C624 1.395 . S
C633 C628 1.446 . S
C633 C632 1.497 . S
C634 C635 1.582 . S
C634 H691 0.962 . S
C634 H692 0.959 . S
C634 H693 0.958 . S
C635 C634 1.582 . S
C635 O638 1.458 . S
C635 H664 0.980 . S
O636 C581 1.426 . S
O636 C582 1.334 . S
O637 C609 1.412 . S
O637 C610 1.393 . S
O638 C600 1.435 . S
O638 C635 1.458 . S
O639 C591 1.468 . S
O639 C592 1.408 . S
H640 C581 0.980 . S
H641 C580 0.959 . S
H642 C580 0.959 . S
H643 C580 0.960 . S
H644 C583 0.929 . S
H645 C587 0.929 . S
H646 C588 0.959 . S
H647 C588 0.961 . S
H648 C588 0.961 . S
H649 C589 0.960 . S
H650 C589 0.960 . S
H651 C589 0.961 . S
H652 C591 0.980 . S
H653 C590 0.961 . S
H654 C590 0.960 . S
H655 C590 0.959 . S
H656 C593 0.930 . S
H657 C597 0.931 . S
H658 C598 0.959 . S
H659 C598 0.961 . S
H660 C598 0.959 1_556 S
H661 C599 0.960 . S
H662 C599 0.960 . S
H663 C599 0.960 . S
H664 C635 0.980 . S
H665 C601 0.930 . S
H666 C605 0.930 . S
H667 C606 0.961 . S
H668 C606 0.960 . S
H669 C606 0.958 . S
H670 C607 0.961 . S
H671 C607 0.960 . S
H672 C607 0.960 . S
H673 C609 0.980 . S
H674 C608 0.961 . S
H675 C608 0.961 . S
H676 C608 0.959 . S
H677 C611 0.932 . S
H678 C615 0.929 . S
H679 C616 0.961 . S
H680 C616 0.959 . S
H681 C616 0.959 . S
H682 C617 0.960 . S
H683 C617 0.962 . S
H684 C617 0.961 . S
H685 C619 0.929 . S
H686 C622 0.930 1_556 S
H687 C623 0.929 1_556 S
H688 C626 0.930 . S
H689 C629 0.929 . S
H690 C630 0.930 . S
H691 C634 0.962 . S
H692 C634 0.959 . S
H693 C634 0.958 . S
C694 C695 1.560 . S
C694 H755 0.959 . S
C694 H756 0.959 . S
C694 H757 0.960 . S
C695 C694 1.560 . S
C695 O750 1.426 . S
C695 H754 0.980 . S
C696 C697 1.407 . S
C696 C701 1.418 . S
C696 O750 1.334 . S
C697 C696 1.407 . S
C697 C698 1.360 . S
C697 H758 0.929 . S
C698 C697 1.360 . S
C698 C699 1.401 . S
C698 C702 1.527 . S
C699 C698 1.401 . S
C699 C700 1.405 . S
C699 C732 1.587 . S
C700 C699 1.405 . S
C700 C701 1.332 . S
C700 C703 1.496 . S
C701 C696 1.418 . S
C701 C700 1.332 . S
C701 H759 0.929 . S
C702 C698 1.527 . S
C702 H760 0.959 . S
C702 H761 0.961 . S
C702 H762 0.961 . S
C703 C700 1.496 . S
C703 H763 0.960 . S
C703 H764 0.960 . S
C703 H765 0.961 . S
C704 C705 1.517 . S
C704 H767 0.961 . S
C704 H768 0.960 . S
C704 H769 0.959 . S
C705 C704 1.517 . S
C705 O753 1.468 . S
C705 H766 0.980 . S
C706 C707 1.349 . S
C706 C711 1.367 . S
C706 O753 1.408 . S
C707 C706 1.349 . S
C707 C708 1.407 . S
C707 H770 0.930 . S
C708 C707 1.407 . S
C708 C709 1.449 . S
C708 C712 1.535 . S
C709 C708 1.449 . S
C709 C710 1.384 . S
C709 C734 1.553 . S
C710 C709 1.384 . S
C710 C711 1.364 . S
C710 C713 1.450 . S
C711 C706 1.367 . S
C711 C710 1.364 . S
C711 H771 0.931 . S
C712 C708 1.535 . S
C712 H772 0.959 . S
C712 H773 0.961 . S
C712 H774 0.959 . S
C713 C710 1.450 . S
C713 H775 0.960 . S
C713 H776 0.960 . S
C713 H777 0.960 . S
C714 C715 1.309 . S
C714 C719 1.304 . S
C714 O752 1.435 . S
C715 C714 1.309 . S
C715 C716 1.476 . S
C715 H779 0.930 . S
C716 C715 1.476 . S
C716 C717 1.400 . S
C716 C720 1.567 . S
C717 C716 1.400 . S
C717 C718 1.373 . S
C717 C739 1.432 . S
C718 C717 1.373 . S
C718 C719 1.339 . S
C718 C721 1.530 . S
C719 C714 1.304 . S
C719 C718 1.339 . S
C719 H780 0.930 . S
C720 C716 1.567 . S
C720 H781 0.961 . S
C720 H782 0.960 . S
C720 H783 0.958 . S
C721 C718 1.530 . S
C721 H784 0.961 . S
C721 H785 0.960 . S
C721 H786 0.960 . S
C722 C723 1.530 . S
C722 H788 0.961 . S
C722 H789 0.961 . S
C722 H790 0.959 . S
C723 C722 1.530 . S
C723 O751 1.412 . S
C723 H787 0.980 . S
C724 C725 1.288 . S
C724 C729 1.377 . S
C724 O751 1.393 . S
C725 C724 1.288 . S
C725 C726 1.369 . S
C725 H791 0.932 . S
C726 C725 1.369 . S
C726 C727 1.398 . S
C726 C730 1.527 . S
C727 C726 1.398 . S
C727 C728 1.380 . S
C727 C741 1.497 . S
C728 C727 1.380 . S
C728 C729 1.383 . S
C728 C731 1.603 . S
C729 C724 1.377 . S
C729 C728 1.383 . S
C729 H792 0.929 . S
C730 C726 1.527 . S
C730 H793 0.961 . S
C730 H794 0.959 . S
C730 H795 0.959 . S
C731 C728 1.603 . S
C731 H796 0.960 . S
C731 H797 0.962 . S
C731 H798 0.961 . S
C732 C699 1.587 . S
C732 C733 1.360 1_556 S
C732 C745 1.412 . S
C733 C732 1.360 1_554 S
C733 C734 1.365 . S
C733 H799 0.929 . S
C734 C709 1.553 . S
C734 C733 1.365 . S
C734 C735 1.404 . S
C735 C734 1.404 . S
C735 C736 1.395 . S
C735 C746 1.480 . S
C736 C735 1.395 . S
C736 C737 1.322 . S
C736 H800 0.930 . S
C737 C736 1.322 . S
C737 C738 1.459 . S
C737 H801 0.929 . S
C738 C737 1.459 . S
C738 C739 1.445 . S
C738 C747 1.377 1_554 S
C739 C717 1.432 . S
C739 C738 1.445 . S
C739 C740 1.370 1_554 S
C740 C739 1.370 1_556 S
C740 C741 1.438 . S
C740 H802 0.930 . S
C741 C727 1.497 . S
C741 C740 1.438 . S
C741 C742 1.360 . S
C742 C741 1.360 . S
C742 C743 1.401 . S
C742 C747 1.463 . S
C743 C742 1.401 . S
C743 C744 1.347 . S
C743 H803 0.929 . S
C744 C743 1.347 . S
C744 C745 1.455 . S
C744 H804 0.930 . S
C745 C732 1.412 . S
C745 C744 1.455 . S
C745 C746 1.302 1_556 S
C746 C735 1.480 . S
C746 C745 1.302 1_554 S
C746 C747 1.501 1_554 S
C747 C738 1.377 1_556 S
C747 C742 1.463 . S
C747 C746 1.501 1_556 S
C748 C749 1.582 . S
C748 H805 0.962 . S
C748 H806 0.959 . S
C748 H807 0.958 . S
C749 C748 1.582 . S
C749 O752 1.458 . S
C749 H778 0.980 . S
O750 C695 1.426 . S
O750 C696 1.334 . S
O751 C723 1.412 . S
O751 C724 1.393 . S
O752 C714 1.435 . S
O752 C749 1.458 . S
O753 C705 1.468 . S
O753 C706 1.408 . S
H754 C695 0.980 . S
H755 C694 0.959 . S
H756 C694 0.959 . S
H757 C694 0.960 . S
H758 C697 0.929 . S
H759 C701 0.929 . S
H760 C702 0.959 . S
H761 C702 0.961 . S
H762 C702 0.961 . S
H763 C703 0.960 . S
H764 C703 0.960 . S
H765 C703 0.961 . S
H766 C705 0.980 . S
H767 C704 0.961 . S
H768 C704 0.960 . S
H769 C704 0.959 . S
H770 C707 0.930 . S
H771 C711 0.931 . S
H772 C712 0.959 . S
H773 C712 0.961 . S
H774 C712 0.959 . S
H775 C713 0.960 . S
H776 C713 0.960 . S
H777 C713 0.960 . S
H778 C749 0.980 . S
H779 C715 0.930 . S
H780 C719 0.930 . S
H781 C720 0.961 . S
H782 C720 0.960 . S
H783 C720 0.958 . S
H784 C721 0.961 . S
H785 C721 0.960 . S
H786 C721 0.960 . S
H787 C723 0.980 . S
H788 C722 0.961 . S
H789 C722 0.961 . S
H790 C722 0.959 . S
H791 C725 0.932 . S
H792 C729 0.929 . S
H793 C730 0.961 . S
H794 C730 0.959 . S
H795 C730 0.959 . S
H796 C731 0.960 . S
H797 C731 0.962 . S
H798 C731 0.961 . S
H799 C733 0.929 . S
H800 C736 0.930 . S
H801 C737 0.929 . S
H802 C740 0.930 . S
H803 C743 0.929 . S
H804 C744 0.930 . S
H805 C748 0.962 . S
H806 C748 0.959 . S
H807 C748 0.958 . S
C808 C809 1.560 . S
C808 H869 0.959 . S
C808 H870 0.959 . S
C808 H871 0.960 . S
C809 C808 1.560 . S
C809 O864 1.426 . S
C809 H868 0.980 . S
C810 C811 1.407 . S
C810 C815 1.418 . S
C810 O864 1.334 . S
C811 C810 1.407 . S
C811 C812 1.360 . S
C811 H872 0.929 . S
C812 C811 1.360 . S
C812 C813 1.401 . S
C812 C816 1.527 . S
C813 C812 1.401 . S
C813 C814 1.405 . S
C813 C846 1.587 . S
C814 C813 1.405 . S
C814 C815 1.332 . S
C814 C817 1.496 . S
C815 C810 1.418 . S
C815 C814 1.332 . S
C815 H873 0.929 . S
C816 C812 1.527 . S
C816 H874 0.959 . S
C816 H875 0.961 . S
C816 H876 0.961 . S
C817 C814 1.496 . S
C817 H877 0.960 . S
C817 H878 0.960 . S
C817 H879 0.961 . S
C818 C819 1.517 . S
C818 H881 0.961 . S
C818 H882 0.960 . S
C818 H883 0.959 . S
C819 C818 1.517 . S
C819 O867 1.468 . S
C819 H880 0.980 . S
C820 C821 1.349 . S
C820 C825 1.367 . S
C820 O867 1.408 . S
C821 C820 1.349 . S
C821 C822 1.407 . S
C821 H884 0.930 . S
C822 C821 1.407 . S
C822 C823 1.449 . S
C822 C826 1.535 . S
C823 C822 1.449 . S
C823 C824 1.384 . S
C823 C848 1.553 . S
C824 C823 1.384 . S
C824 C825 1.364 . S
C824 C827 1.450 . S
C825 C820 1.367 . S
C825 C824 1.364 . S
C825 H885 0.931 . S
C826 C822 1.535 . S
C826 H886 0.959 . S
C826 H887 0.961 . S
C826 H888 0.959 . S
C827 C824 1.450 . S
C827 H889 0.960 . S
C827 H890 0.960 . S
C827 H891 0.960 . S
C828 C829 1.309 . S
C828 C833 1.304 . S
C828 O866 1.435 . S
C829 C828 1.309 . S
C829 C830 1.476 . S
C829 H893 0.930 . S
C830 C829 1.476 . S
C830 C831 1.400 . S
C830 C834 1.567 . S
C831 C830 1.400 . S
C831 C832 1.373 . S
C831 C853 1.432 . S
C832 C831 1.373 . S
C832 C833 1.339 . S
C832 C835 1.530 . S
C833 C828 1.304 . S
C833 C832 1.339 . S
C833 H894 0.930 . S
C834 C830 1.567 . S
C834 H895 0.961 . S
C834 H896 0.960 . S
C834 H897 0.958 . S
C835 C832 1.530 . S
C835 H898 0.961 . S
C835 H899 0.960 . S
C835 H900 0.960 . S
C836 C837 1.530 . S
C836 H902 0.961 . S
C836 H903 0.961 . S
C836 H904 0.959 . S
C837 C836 1.530 . S
C837 O865 1.412 . S
C837 H901 0.980 . S
C838 C839 1.288 . S
C838 C843 1.377 . S
C838 O865 1.393 . S
C839 C838 1.288 . S
C839 C840 1.369 . S
C839 H905 0.932 . S
C840 C839 1.369 . S
C840 C841 1.398 . S
C840 C844 1.527 . S
C841 C840 1.398 . S
C841 C842 1.380 . S
C841 C855 1.497 . S
C842 C841 1.380 . S
C842 C843 1.383 . S
C842 C845 1.603 . S
C843 C838 1.377 . S
C843 C842 1.383 . S
C843 H906 0.929 . S
C844 C840 1.527 . S
C844 H907 0.961 . S
C844 H908 0.959 . S
C844 H909 0.959 . S
C845 C842 1.603 . S
C845 H910 0.960 . S
C845 H911 0.962 . S
C845 H912 0.961 . S
C846 C813 1.587 . S
C846 C847 1.360 . S
C846 C859 1.412 . S
C847 C846 1.360 . S
C847 C848 1.365 1_455 S
C847 H913 0.929 . S
C848 C823 1.553 . S
C848 C847 1.365 1_655 S
C848 C849 1.404 . S
C849 C848 1.404 . S
C849 C850 1.395 . S
C849 C860 1.451 1_655 S
C850 C849 1.395 . S
C850 C851 1.322 . S
C850 H914 0.930 . S
C851 C850 1.322 . S
C851 C852 1.459 . S
C851 H915 0.929 . S
C852 C851 1.459 . S
C852 C853 1.445 . S
C852 C861 1.395 1_655 S
C853 C831 1.432 . S
C853 C852 1.445 . S
C853 C854 1.370 1_655 S
C854 C853 1.370 1_455 S
C854 C855 1.438 . S
C854 H916 0.930 . S
C855 C841 1.497 . S
C855 C854 1.438 . S
C855 C856 1.360 . S
C856 C855 1.360 . S
C856 C857 1.401 . S
C856 C861 1.446 . S
C857 C856 1.401 . S
C857 C858 1.347 . S
C857 H917 0.929 . S
C858 C857 1.347 . S
C858 C859 1.455 . S
C858 H918 0.930 . S
C859 C846 1.412 . S
C859 C858 1.455 . S
C859 C860 1.331 . S
C860 C849 1.451 1_455 S
C860 C859 1.331 . S
C860 C861 1.497 . S
C861 C852 1.395 1_455 S
C861 C856 1.446 . S
C861 C860 1.497 . S
C862 C863 1.582 . S
C862 H919 0.962 . S
C862 H920 0.959 . S
C862 H921 0.958 . S
C863 C862 1.582 . S
C863 O866 1.458 . S
C863 H892 0.980 . S
O864 C809 1.426 . S
O864 C810 1.334 . S
O865 C837 1.412 . S
O865 C838 1.393 . S
O866 C828 1.435 . S
O866 C863 1.458 . S
O867 C819 1.468 . S
O867 C820 1.408 . S
H868 C809 0.980 . S
H869 C808 0.959 . S
H870 C808 0.959 . S
H871 C808 0.960 . S
H872 C811 0.929 . S
H873 C815 0.929 . S
H874 C816 0.959 . S
H875 C816 0.961 . S
H876 C816 0.961 . S
H877 C817 0.960 . S
H878 C817 0.960 . S
H879 C817 0.961 . S
H880 C819 0.980 . S
H881 C818 0.961 . S
H882 C818 0.960 . S
H883 C818 0.959 . S
H884 C821 0.930 . S
H885 C825 0.931 . S
H886 C826 0.959 . S
H887 C826 0.961 . S
H888 C826 0.959 . S
H889 C827 0.960 . S
H890 C827 0.960 . S
H891 C827 0.960 . S
H892 C863 0.980 . S
H893 C829 0.930 . S
H894 C833 0.930 . S
H895 C834 0.961 . S
H896 C834 0.960 . S
H897 C834 0.958 . S
H898 C835 0.961 . S
H899 C835 0.960 . S
H900 C835 0.960 . S
H901 C837 0.980 . S
H902 C836 0.961 . S
H903 C836 0.961 . S
H904 C836 0.959 . S
H905 C839 0.932 . S
H906 C843 0.929 . S
H907 C844 0.961 . S
H908 C844 0.959 . S
H909 C844 0.959 . S
H910 C845 0.960 . S
H911 C845 0.962 . S
H912 C845 0.961 . S
H913 C847 0.929 . S
H914 C850 0.930 . S
H915 C851 0.929 . S
H916 C854 0.930 . S
H917 C857 0.929 . S
H918 C858 0.930 . S
H919 C862 0.962 . S
H920 C862 0.959 . S
H921 C862 0.958 . S
C922 C923 1.560 . S
C922 H983 0.959 . S
C922 H984 0.959 . S
C922 H985 0.960 . S
C923 C922 1.560 . S
C923 O978 1.426 . S
C923 H982 0.980 . S
C924 C925 1.407 . S
C924 C929 1.418 . S
C924 O978 1.334 . S
C925 C924 1.407 . S
C925 C926 1.360 . S
C925 H986 0.929 . S
C926 C925 1.360 . S
C926 C927 1.401 . S
C926 C930 1.527 . S
C927 C926 1.401 . S
C927 C928 1.405 . S
C927 C960 1.587 . S
C928 C927 1.405 . S
C928 C929 1.332 . S
C928 C931 1.496 . S
C929 C924 1.418 . S
C929 C928 1.332 . S
C929 H987 0.929 . S
C930 C926 1.527 . S
C930 H988 0.959 . S
C930 H989 0.961 . S
C930 H990 0.961 . S
C931 C928 1.496 . S
C931 H991 0.960 . S
C931 H992 0.960 . S
C931 H993 0.961 . S
C932 C933 1.517 . S
C932 H995 0.961 . S
C932 H996 0.960 . S
C932 H997 0.959 . S
C933 C932 1.517 . S
C933 O981 1.468 . S
C933 H994 0.980 . S
C934 C935 1.349 . S
C934 C939 1.367 . S
C934 O981 1.408 . S
C935 C934 1.349 . S
C935 C936 1.407 . S
C935 H998 0.930 . S
C936 C935 1.407 . S
C936 C937 1.449 . S
C936 C940 1.535 . S
C937 C936 1.449 . S
C937 C938 1.384 . S
C937 C962 1.553 . S
C938 C937 1.384 . S
C938 C939 1.364 . S
C938 C941 1.450 . S
C939 C934 1.367 . S
C939 C938 1.364 . S
C939 H999 0.931 . S
C940 C936 1.535 . S
C940 H1000 0.959 . S
C940 H1001 0.961 . S
C940 H1002 0.959 . S
C941 C938 1.450 . S
C941 H1003 0.960 . S
C941 H1004 0.960 1_565 S
C941 H1005 0.960 . S
C942 C943 1.309 . S
C942 C947 1.304 . S
C942 O980 1.435 . S
C943 C942 1.309 . S
C943 C944 1.476 . S
C943 H1007 0.930 . S
C944 C943 1.476 . S
C944 C945 1.400 . S
C944 C948 1.567 . S
C945 C944 1.400 . S
C945 C946 1.373 . S
C945 C967 1.432 . S
C946 C945 1.373 . S
C946 C947 1.339 . S
C946 C949 1.530 . S
C947 C942 1.304 . S
C947 C946 1.339 . S
C947 H1008 0.930 . S
C948 C944 1.567 . S
C948 H1009 0.961 . S
C948 H1010 0.960 . S
C948 H1011 0.958 . S
C949 C946 1.530 . S
C949 H1012 0.961 . S
C949 H1013 0.960 . S
C949 H1014 0.960 1_565 S
C950 C951 1.530 . S
C950 H1016 0.961 . S
C950 H1017 0.961 . S
C950 H1018 0.959 . S
C951 C950 1.530 . S
C951 O979 1.412 . S
C951 H1015 0.980 . S
C952 C953 1.288 . S
C952 C957 1.377 . S
C952 O979 1.393 . S
C953 C952 1.288 . S
C953 C954 1.369 . S
C953 H1019 0.932 . S
C954 C953 1.369 . S
C954 C955 1.398 . S
C954 C958 1.527 . S
C955 C954 1.398 . S
C955 C956 1.380 . S
C955 C969 1.497 . S
C956 C955 1.380 . S
C956 C957 1.383 . S
C956 C959 1.603 . S
C957 C952 1.377 . S
C957 C956 1.383 . S
C957 H1020 0.929 . S
C958 C954 1.527 . S
C958 H1021 0.961 . S
C958 H1022 0.959 . S
C958 H1023 0.959 . S
C959 C956 1.603 . S
C959 H1024 0.960 . S
C959 H1025 0.962 . S
C959 H1026 0.961 . S
C960 C927 1.587 . S
C960 C961 1.360 . S
C960 C973 1.412 . S
C961 C960 1.360 . S
C961 C962 1.365 1_545 S
C961 H1027 0.929 . S
C962 C937 1.553 . S
C962 C961 1.365 1_565 S
C962 C963 1.404 . S
C963 C962 1.404 . S
C963 C964 1.395 . S
C963 C974 1.451 1_565 S
C964 C963 1.395 . S
C964 C965 1.322 . S
C964 H1028 0.930 . S
C965 C964 1.322 . S
C965 C966 1.459 . S
C965 H1029 0.929 . S
C966 C965 1.459 . S
C966 C967 1.445 . S
C966 C975 1.395 1_565 S
C967 C945 1.432 . S
C967 C966 1.445 . S
C967 C968 1.370 1_565 S
C968 C967 1.370 1_545 S
C968 C969 1.438 . S
C968 H1030 0.930 . S
C969 C955 1.497 . S
C969 C968 1.438 . S
C969 C970 1.360 . S
C970 C969 1.360 . S
C970 C971 1.401 . S
C970 C975 1.446 . S
C971 C970 1.401 . S
C971 C972 1.347 . S
C971 H1031 0.929 . S
C972 C971 1.347 . S
C972 C973 1.455 . S
C972 H1032 0.930 . S
C973 C960 1.412 . S
C973 C972 1.455 . S
C973 C974 1.331 . S
C974 C963 1.451 1_545 S
C974 C973 1.331 . S
C974 C975 1.497 . S
C975 C966 1.395 1_545 S
C975 C970 1.446 . S
C975 C974 1.497 . S
C976 C977 1.582 . S
C976 H1033 0.962 . S
C976 H1034 0.959 . S
C976 H1035 0.958 . S
C977 C976 1.582 . S
C977 O980 1.458 . S
C977 H1006 0.980 . S
O978 C923 1.426 . S
O978 C924 1.334 . S
O979 C951 1.412 . S
O979 C952 1.393 . S
O980 C942 1.435 . S
O980 C977 1.458 . S
O981 C933 1.468 . S
O981 C934 1.408 . S
H982 C923 0.980 . S
H983 C922 0.959 . S
H984 C922 0.959 . S
H985 C922 0.960 . S
H986 C925 0.929 . S
H987 C929 0.929 . S
H988 C930 0.959 . S
H989 C930 0.961 . S
H990 C930 0.961 . S
H991 C931 0.960 . S
H992 C931 0.960 . S
H993 C931 0.961 . S
H994 C933 0.980 . S
H995 C932 0.961 . S
H996 C932 0.960 . S
H997 C932 0.959 . S
H998 C935 0.930 . S
H999 C939 0.931 . S
H1000 C940 0.959 . S
H1001 C940 0.961 . S
H1002 C940 0.959 . S
H1003 C941 0.960 . S
H1004 C941 0.960 1_545 S
H1005 C941 0.960 . S
H1006 C977 0.980 . S
H1007 C943 0.930 . S
H1008 C947 0.930 . S
H1009 C948 0.961 . S
H1010 C948 0.960 . S
H1011 C948 0.958 . S
H1012 C949 0.961 . S
H1013 C949 0.960 . S
H1014 C949 0.960 1_545 S
H1015 C951 0.980 . S
H1016 C950 0.961 . S
H1017 C950 0.961 . S
H1018 C950 0.959 . S
H1019 C953 0.932 . S
H1020 C957 0.929 . S
H1021 C958 0.961 . S
H1022 C958 0.959 . S
H1023 C958 0.959 . S
H1024 C959 0.960 . S
H1025 C959 0.962 . S
H1026 C959 0.961 . S
H1027 C961 0.929 . S
H1028 C964 0.930 . S
H1029 C965 0.929 . S
H1030 C968 0.930 . S
H1031 C971 0.929 . S
H1032 C972 0.930 . S
H1033 C976 0.962 . S
H1034 C976 0.959 . S
H1035 C976 0.958 . S
C1036 C1037 1.560 . S
C1036 H1097 0.959 . S
C1036 H1098 0.959 . S
C1036 H1099 0.960 . S
C1037 C1036 1.560 . S
C1037 O1092 1.426 . S
C1037 H1096 0.980 . S
C1038 C1039 1.407 . S
C1038 C1043 1.418 . S
C1038 O1092 1.334 . S
C1039 C1038 1.407 . S
C1039 C1040 1.360 . S
C1039 H1100 0.929 . S
C1040 C1039 1.360 . S
C1040 C1041 1.401 . S
C1040 C1044 1.527 . S
C1041 C1040 1.401 . S
C1041 C1042 1.405 . S
C1041 C1074 1.587 . S
C1042 C1041 1.405 . S
C1042 C1043 1.332 . S
C1042 C1045 1.496 . S
C1043 C1038 1.418 . S
C1043 C1042 1.332 . S
C1043 H1101 0.929 . S
C1044 C1040 1.527 . S
C1044 H1102 0.959 . S
C1044 H1103 0.961 . S
C1044 H1104 0.961 . S
C1045 C1042 1.496 . S
C1045 H1105 0.960 . S
C1045 H1106 0.960 . S
C1045 H1107 0.961 . S
C1046 C1047 1.517 . S
C1046 H1109 0.961 . S
C1046 H1110 0.960 . S
C1046 H1111 0.959 . S
C1047 C1046 1.517 . S
C1047 O1095 1.468 . S
C1047 H1108 0.980 . S
C1048 C1049 1.349 . S
C1048 C1053 1.367 . S
C1048 O1095 1.408 . S
C1049 C1048 1.349 . S
C1049 C1050 1.407 1_655 S
C1049 H1112 0.930 . S
C1050 C1049 1.407 1_455 S
C1050 C1051 1.449 . S
C1050 C1054 1.535 . S
C1051 C1050 1.449 . S
C1051 C1052 1.384 . S
C1051 C1076 1.553 . S
C1052 C1051 1.384 . S
C1052 C1053 1.364 1_455 S
C1052 C1055 1.450 . S
C1053 C1048 1.367 . S
C1053 C1052 1.364 1_655 S
C1053 H1113 0.931 . S
C1054 C1050 1.535 . S
C1054 H1114 0.959 . S
C1054 H1115 0.961 . S
C1054 H1116 0.959 . S
C1055 C1052 1.450 . S
C1055 H1117 0.960 . S
C1055 H1118 0.960 . S
C1055 H1119 0.960 . S
C1056 C1057 1.313 . S
C1056 C1061 1.304 1_655 S
C1056 O1094 1.435 . S
C1057 C1056 1.313 . S
C1057 C1058 1.456 1_655 S
C1057 H1121 0.944 . S
C1058 C1057 1.456 1_455 S
C1058 C1059 1.400 . S
C1058 C1062 1.567 . S
C1059 C1058 1.400 . S
C1059 C1060 1.373 . S
C1059 C1081 1.432 . S
C1060 C1059 1.373 . S
C1060 C1061 1.339 . S
C1060 C1063 1.530 . S
C1061 C1056 1.304 1_455 S
C1061 C1060 1.339 . S
C1061 H1122 0.946 . S
C1062 C1058 1.567 . S
C1062 H1123 0.961 . S
C1062 H1124 0.960 . S
C1062 H1125 0.958 . S
C1063 C1060 1.530 . S
C1063 H1126 0.961 . S
C1063 H1127 0.960 . S
C1063 H1128 0.960 . S
C1064 C1065 1.530 . S
C1064 H1130 0.961 . S
C1064 H1131 0.961 . S
C1064 H1132 0.959 . S
C1065 C1064 1.530 . S
C1065 O1093 1.412 . S
C1065 H1129 0.980 . S
C1066 C1067 1.288 . S
C1066 C1071 1.377 . S
C1066 O1093 1.393 . S
C1067 C1066 1.288 . S
C1067 C1068 1.369 . S
C1067 H1133 0.932 . S
C1068 C1067 1.369 . S
C1068 C1069 1.398 . S
C1068 C1072 1.527 . S
C1069 C1068 1.398 . S
C1069 C1070 1.380 . S
C1069 C1083 1.497 . S
C1070 C1069 1.380 . S
C1070 C1071 1.383 . S
C1070 C1073 1.603 . S
C1071 C1066 1.377 . S
C1071 C1070 1.383 . S
C1071 H1134 0.929 . S
C1072 C1068 1.527 . S
C1072 H1135 0.961 . S
C1072 H1136 0.959 . S
C1072 H1137 0.959 . S
C1073 C1070 1.603 . S
C1073 H1138 0.960 . S
C1073 H1139 0.962 . S
C1073 H1140 0.961 . S
C1074 C1041 1.587 . S
C1074 C1075 1.360 . S
C1074 C1087 1.412 . S
C1075 C1074 1.360 . S
C1075 C1076 1.365 . S
C1075 H1141 0.929 . S
C1076 C1051 1.553 . S
C1076 C1075 1.365 . S
C1076 C1077 1.404 . S
C1077 C1076 1.404 . S
C1077 C1078 1.395 . S
C1077 C1088 1.451 . S
C1078 C1077 1.395 . S
C1078 C1079 1.322 . S
C1078 H1142 0.930 . S
C1079 C1078 1.322 . S
C1079 C1080 1.459 . S
C1079 H1143 0.929 . S
C1080 C1079 1.459 . S
C1080 C1081 1.445 . S
C1080 C1089 1.395 . S
C1081 C1059 1.432 . S
C1081 C1080 1.445 . S
C1081 C1082 1.370 . S
C1082 C1081 1.370 . S
C1082 C1083 1.438 . S
C1082 H1144 0.930 . S
C1083 C1069 1.497 . S
C1083 C1082 1.438 . S
C1083 C1084 1.360 . S
C1084 C1083 1.360 . S
C1084 C1085 1.401 . S
C1084 C1089 1.446 . S
C1085 C1084 1.401 . S
C1085 C1086 1.347 . S
C1085 H1145 0.929 . S
C1086 C1085 1.347 . S
C1086 C1087 1.455 . S
C1086 H1146 0.930 . S
C1087 C1074 1.412 . S
C1087 C1086 1.455 . S
C1087 C1088 1.331 . S
C1088 C1077 1.451 . S
C1088 C1087 1.331 . S
C1088 C1089 1.497 . S
C1089 C1080 1.395 . S
C1089 C1084 1.446 . S
C1089 C1088 1.497 . S
C1090 C1091 1.582 . S
C1090 H1147 0.962 . S
C1090 H1148 0.959 . S
C1090 H1149 0.958 . S
C1091 C1090 1.582 . S
C1091 O1094 1.458 . S
C1091 H1120 0.980 . S
O1092 C1037 1.426 . S
O1092 C1038 1.334 . S
O1093 C1065 1.412 . S
O1093 C1066 1.393 . S
O1094 C1056 1.435 . S
O1094 C1091 1.458 . S
O1095 C1047 1.468 . S
O1095 C1048 1.408 . S
H1096 C1037 0.980 . S
H1097 C1036 0.959 . S
H1098 C1036 0.959 . S
H1099 C1036 0.960 . S
H1100 C1039 0.929 . S
H1101 C1043 0.929 . S
H1102 C1044 0.959 . S
H1103 C1044 0.961 . S
H1104 C1044 0.961 . S
H1105 C1045 0.960 . S
H1106 C1045 0.960 . S
H1107 C1045 0.961 . S
H1108 C1047 0.980 . S
H1109 C1046 0.961 . S
H1110 C1046 0.960 . S
H1111 C1046 0.959 . S
H1112 C1049 0.930 . S
H1113 C1053 0.931 . S
H1114 C1054 0.959 . S
H1115 C1054 0.961 . S
H1116 C1054 0.959 . S
H1117 C1055 0.960 . S
H1118 C1055 0.960 . S
H1119 C1055 0.960 . S
H1120 C1091 0.980 . S
H1121 C1057 0.944 . S
H1122 C1061 0.946 . S
H1123 C1062 0.961 . S
H1124 C1062 0.960 . S
H1125 C1062 0.958 . S
H1126 C1063 0.961 . S
H1127 C1063 0.960 . S
H1128 C1063 0.960 . S
H1129 C1065 0.980 . S
H1130 C1064 0.961 . S
H1131 C1064 0.961 . S
H1132 C1064 0.959 . S
H1133 C1067 0.932 . S
H1134 C1071 0.929 . S
H1135 C1072 0.961 . S
H1136 C1072 0.959 . S
H1137 C1072 0.959 . S
H1138 C1073 0.960 . S
H1139 C1073 0.962 . S
H1140 C1073 0.961 . S
H1141 C1075 0.929 . S
H1142 C1078 0.930 . S
H1143 C1079 0.929 . S
H1144 C1082 0.930 . S
H1145 C1085 0.929 . S
H1146 C1086 0.930 . S
H1147 C1090 0.962 . S
H1148 C1090 0.959 . S
H1149 C1090 0.958 . S
C1150 C1151 1.560 . S
C1150 H1211 0.959 . S
C1150 H1212 0.959 . S
C1150 H1213 0.960 . S
C1151 C1150 1.560 . S
C1151 O1206 1.426 . S
C1151 H1210 0.980 . S
C1152 C1153 1.407 . S
C1152 C1157 1.418 . S
C1152 O1206 1.334 . S
C1153 C1152 1.407 . S
C1153 C1154 1.360 . S
C1153 H1214 0.929 . S
C1154 C1153 1.360 . S
C1154 C1155 1.401 . S
C1154 C1158 1.527 . S
C1155 C1154 1.401 . S
C1155 C1156 1.405 . S
C1155 C1188 1.587 1_565 S
C1156 C1155 1.405 . S
C1156 C1157 1.332 . S
C1156 C1159 1.496 1_565 S
C1157 C1152 1.418 . S
C1157 C1156 1.332 . S
C1157 H1215 0.929 . S
C1158 C1154 1.527 . S
C1158 H1216 0.959 . S
C1158 H1217 0.961 . S
C1158 H1218 0.961 . S
C1159 C1156 1.496 1_545 S
C1159 H1219 0.960 . S
C1159 H1220 0.960 . S
C1159 H1221 0.961 . S
C1160 C1161 1.517 . S
C1160 H1223 0.961 . S
C1160 H1224 0.960 . S
C1160 H1225 0.959 . S
C1161 C1160 1.517 . S
C1161 O1209 1.468 . S
C1161 H1222 0.980 . S
C1162 C1163 1.349 . S
C1162 C1167 1.367 . S
C1162 O1209 1.408 . S
C1163 C1162 1.349 . S
C1163 C1164 1.407 . S
C1163 H1226 0.930 . S
C1164 C1163 1.407 . S
C1164 C1165 1.449 . S
C1164 C1168 1.535 . S
C1165 C1164 1.449 . S
C1165 C1166 1.384 . S
C1165 C1190 1.553 . S
C1166 C1165 1.384 . S
C1166 C1167 1.364 . S
C1166 C1169 1.450 . S
C1167 C1162 1.367 . S
C1167 C1166 1.364 . S
C1167 H1227 0.931 . S
C1168 C1164 1.535 . S
C1168 H1228 0.959 . S
C1168 H1229 0.961 . S
C1168 H1230 0.959 . S
C1169 C1166 1.450 . S
C1169 H1231 0.960 . S
C1169 H1232 0.960 . S
C1169 H1233 0.960 . S
C1170 C1171 1.309 . S
C1170 C1175 1.304 . S
C1170 O1208 1.435 . S
C1171 C1170 1.309 . S
C1171 C1172 1.476 . S
C1171 H1235 0.930 . S
C1172 C1171 1.476 . S
C1172 C1173 1.400 . S
C1172 C1176 1.567 . S
C1173 C1172 1.400 . S
C1173 C1174 1.373 . S
C1173 C1195 1.432 . S
C1174 C1173 1.373 . S
C1174 C1175 1.339 . S
C1174 C1177 1.530 . S
C1175 C1170 1.304 . S
C1175 C1174 1.339 . S
C1175 H1236 0.930 . S
C1176 C1172 1.567 . S
C1176 H1237 0.961 . S
C1176 H1238 0.960 . S
C1176 H1239 0.958 . S
C1177 C1174 1.530 . S
C1177 H1240 0.961 . S
C1177 H1241 0.960 . S
C1177 H1242 0.960 . S
C1178 C1179 1.530 . S
C1178 H1244 0.961 . S
C1178 H1245 0.961 . S
C1178 H1246 0.959 . S
C1179 C1178 1.530 . S
C1179 O1207 1.412 . S
C1179 H1243 0.980 . S
C1180 C1181 1.288 . S
C1180 C1185 1.377 . S
C1180 O1207 1.393 . S
C1181 C1180 1.288 . S
C1181 C1182 1.369 . S
C1181 H1247 0.932 . S
C1182 C1181 1.369 . S
C1182 C1183 1.398 . S
C1182 C1186 1.527 . S
C1183 C1182 1.398 . S
C1183 C1184 1.380 . S
C1183 C1197 1.497 . S
C1184 C1183 1.380 . S
C1184 C1185 1.383 . S
C1184 C1187 1.603 . S
C1185 C1180 1.377 . S
C1185 C1184 1.383 . S
C1185 H1248 0.929 . S
C1186 C1182 1.527 . S
C1186 H1249 0.961 . S
C1186 H1250 0.957 . S
C1186 H1251 0.959 . S
C1187 C1184 1.603 . S
C1187 H1252 0.960 . S
C1187 H1253 0.962 . S
C1187 H1254 0.961 . S
C1188 C1155 1.587 1_545 S
C1188 C1189 1.360 . S
C1188 C1201 1.412 . S
C1189 C1188 1.360 . S
C1189 C1190 1.365 . S
C1189 H1255 0.929 . S
C1190 C1165 1.553 . S
C1190 C1189 1.365 . S
C1190 C1191 1.404 . S
C1191 C1190 1.404 . S
C1191 C1192 1.395 . S
C1191 C1202 1.451 . S
C1192 C1191 1.395 . S
C1192 C1193 1.322 . S
C1192 H1256 0.930 . S
C1193 C1192 1.322 . S
C1193 C1194 1.459 . S
C1193 H1257 0.929 . S
C1194 C1193 1.459 . S
C1194 C1195 1.445 . S
C1194 C1203 1.395 . S
C1195 C1173 1.432 . S
C1195 C1194 1.445 . S
C1195 C1196 1.370 . S
C1196 C1195 1.370 . S
C1196 C1197 1.438 1_545 S
C1196 H1258 0.930 . S
C1197 C1183 1.497 . S
C1197 C1196 1.438 1_565 S
C1197 C1198 1.358 . S
C1198 C1197 1.358 . S
C1198 C1199 1.443 . S
C1198 C1203 1.405 1_565 S
C1199 C1198 1.443 . S
C1199 C1200 1.347 . S
C1199 H1259 0.929 . S
C1200 C1199 1.347 . S
C1200 C1201 1.455 1_565 S
C1200 H1260 0.930 . S
C1201 C1188 1.412 . S
C1201 C1200 1.455 1_545 S
C1201 C1202 1.331 . S
C1202 C1191 1.451 . S
C1202 C1201 1.331 . S
C1202 C1203 1.497 . S
C1203 C1194 1.395 . S
C1203 C1198 1.405 1_545 S
C1203 C1202 1.497 . S
C1204 C1205 1.582 . S
C1204 H1261 0.962 . S
C1204 H1262 0.959 . S
C1204 H1263 0.958 . S
C1205 C1204 1.582 . S
C1205 O1208 1.458 . S
C1205 H1234 0.980 . S
O1206 C1151 1.426 . S
O1206 C1152 1.334 . S
O1207 C1179 1.412 . S
O1207 C1180 1.393 . S
O1208 C1170 1.435 . S
O1208 C1205 1.458 . S
O1209 C1161 1.468 . S
O1209 C1162 1.408 . S
H1210 C1151 0.980 . S
H1211 C1150 0.959 . S
H1212 C1150 0.959 . S
H1213 C1150 0.960 . S
H1214 C1153 0.929 . S
H1215 C1157 0.929 . S
H1216 C1158 0.959 . S
H1217 C1158 0.961 . S
H1218 C1158 0.961 . S
H1219 C1159 0.960 . S
H1220 C1159 0.960 . S
H1221 C1159 0.961 . S
H1222 C1161 0.980 . S
H1223 C1160 0.961 . S
H1224 C1160 0.960 . S
H1225 C1160 0.959 . S
H1226 C1163 0.930 . S
H1227 C1167 0.931 . S
H1228 C1168 0.959 . S
H1229 C1168 0.961 . S
H1230 C1168 0.959 . S
H1231 C1169 0.960 . S
H1232 C1169 0.960 . S
H1233 C1169 0.960 . S
H1234 C1205 0.980 . S
H1235 C1171 0.930 . S
H1236 C1175 0.930 . S
H1237 C1176 0.961 . S
H1238 C1176 0.960 . S
H1239 C1176 0.958 . S
H1240 C1177 0.961 . S
H1241 C1177 0.960 . S
H1242 C1177 0.960 . S
H1243 C1179 0.980 . S
H1244 C1178 0.961 . S
H1245 C1178 0.961 . S
H1246 C1178 0.959 . S
H1247 C1181 0.932 . S
H1248 C1185 0.929 . S
H1249 C1186 0.961 . S
H1250 C1186 0.957 . S
H1251 C1186 0.959 . S
H1252 C1187 0.960 . S
H1253 C1187 0.962 . S
H1254 C1187 0.961 . S
H1255 C1189 0.929 . S
H1256 C1192 0.930 . S
H1257 C1193 0.929 . S
H1258 C1196 0.930 . S
H1259 C1199 0.929 . S
H1260 C1200 0.930 . S
H1261 C1204 0.962 . S
H1262 C1204 0.959 . S
H1263 C1204 0.958 . S
C1264 C1265 1.560 . S
C1264 H1325 0.959 . S
C1264 H1326 0.959 . S
C1264 H1327 0.960 . S
C1265 C1264 1.560 . S
C1265 O1320 1.426 . S
C1265 H1324 0.980 . S
C1266 C1267 1.407 . S
C1266 C1271 1.418 . S
C1266 O1320 1.334 . S
C1267 C1266 1.407 . S
C1267 C1268 1.360 . S
C1267 H1328 0.929 . S
C1268 C1267 1.360 . S
C1268 C1269 1.401 . S
C1268 C1272 1.527 . S
C1269 C1268 1.401 . S
C1269 C1270 1.405 . S
C1269 C1302 1.587 . S
C1270 C1269 1.405 . S
C1270 C1271 1.332 . S
C1270 C1273 1.496 . S
C1271 C1266 1.418 . S
C1271 C1270 1.332 . S
C1271 H1329 0.929 . S
C1272 C1268 1.527 . S
C1272 H1330 0.959 . S
C1272 H1331 0.961 . S
C1272 H1332 0.961 . S
C1273 C1270 1.496 . S
C1273 H1333 0.960 . S
C1273 H1334 0.960 . S
C1273 H1335 0.961 . S
C1274 C1275 1.517 . S
C1274 H1337 0.961 . S
C1274 H1338 0.960 . S
C1274 H1339 0.959 . S
C1275 C1274 1.517 . S
C1275 O1323 1.468 . S
C1275 H1336 0.980 . S
C1276 C1277 1.349 . S
C1276 C1281 1.367 . S
C1276 O1323 1.408 . S
C1277 C1276 1.349 . S
C1277 C1278 1.407 . S
C1277 H1340 0.930 . S
C1278 C1277 1.407 . S
C1278 C1279 1.449 . S
C1278 C1282 1.535 . S
C1279 C1278 1.449 . S
C1279 C1280 1.384 . S
C1279 C1304 1.553 . S
C1280 C1279 1.384 . S
C1280 C1281 1.364 . S
C1280 C1283 1.450 . S
C1281 C1276 1.367 . S
C1281 C1280 1.364 . S
C1281 H1341 0.931 . S
C1282 C1278 1.535 . S
C1282 H1342 0.959 . S
C1282 H1343 0.961 . S
C1282 H1344 0.959 . S
C1283 C1280 1.450 . S
C1283 H1345 0.960 . S
C1283 H1346 0.960 . S
C1283 H1347 0.960 . S
C1284 C1285 1.309 . S
C1284 C1289 1.304 . S
C1284 O1322 1.435 . S
C1285 C1284 1.309 . S
C1285 C1286 1.476 . S
C1285 H1349 0.930 . S
C1286 C1285 1.476 . S
C1286 C1287 1.400 . S
C1286 C1290 1.567 . S
C1287 C1286 1.400 . S
C1287 C1288 1.373 . S
C1287 C1309 1.432 . S
C1288 C1287 1.373 . S
C1288 C1289 1.339 . S
C1288 C1291 1.530 . S
C1289 C1284 1.304 . S
C1289 C1288 1.339 . S
C1289 H1350 0.930 . S
C1290 C1286 1.567 . S
C1290 H1351 0.961 . S
C1290 H1352 0.960 . S
C1290 H1353 0.958 . S
C1291 C1288 1.530 . S
C1291 H1354 0.961 . S
C1291 H1355 0.960 . S
C1291 H1356 0.960 . S
C1292 C1293 1.530 . S
C1292 H1358 0.961 . S
C1292 H1359 0.961 . S
C1292 H1360 0.959 . S
C1293 C1292 1.530 . S
C1293 O1321 1.412 . S
C1293 H1357 0.980 . S
C1294 C1295 1.288 . S
C1294 C1299 1.377 . S
C1294 O1321 1.393 . S
C1295 C1294 1.288 . S
C1295 C1296 1.369 . S
C1295 H1361 0.932 . S
C1296 C1295 1.369 . S
C1296 C1297 1.398 . S
C1296 C1300 1.527 . S
C1297 C1296 1.398 . S
C1297 C1298 1.380 . S
C1297 C1311 1.497 . S
C1298 C1297 1.380 . S
C1298 C1299 1.383 . S
C1298 C1301 1.603 . S
C1299 C1294 1.377 . S
C1299 C1298 1.383 . S
C1299 H1362 0.929 . S
C1300 C1296 1.527 . S
C1300 H1363 0.961 . S
C1300 H1364 0.959 . S
C1300 H1365 0.959 . S
C1301 C1298 1.603 . S
C1301 H1366 0.960 . S
C1301 H1367 0.962 . S
C1301 H1368 0.961 . S
C1302 C1269 1.587 . S
C1302 C1303 1.360 1_655 S
C1302 C1315 1.412 . S
C1303 C1302 1.360 1_455 S
C1303 C1304 1.365 . S
C1303 H1369 0.929 . S
C1304 C1279 1.553 . S
C1304 C1303 1.365 . S
C1304 C1305 1.404 . S
C1305 C1304 1.404 . S
C1305 C1306 1.395 . S
C1305 C1316 1.451 . S
C1306 C1305 1.395 . S
C1306 C1307 1.322 . S
C1306 H1370 0.930 . S
C1307 C1306 1.322 . S
C1307 C1308 1.459 . S
C1307 H1371 0.929 . S
C1308 C1307 1.459 . S
C1308 C1309 1.445 . S
C1308 C1317 1.395 . S
C1309 C1287 1.432 . S
C1309 C1308 1.445 . S
C1309 C1310 1.370 . S
C1310 C1309 1.370 . S
C1310 C1311 1.438 1_455 S
C1310 H1372 0.930 . S
C1311 C1297 1.497 . S
C1311 C1310 1.438 1_655 S
C1311 C1312 1.360 . S
C1312 C1311 1.360 . S
C1312 C1313 1.401 . S
C1312 C1317 1.446 1_655 S
C1313 C1312 1.401 . S
C1313 C1314 1.347 . S
C1313 H1373 0.929 . S
C1314 C1313 1.347 . S
C1314 C1315 1.455 . S
C1314 H1374 0.930 . S
C1315 C1302 1.412 . S
C1315 C1314 1.455 . S
C1315 C1316 1.331 1_655 S
C1316 C1305 1.451 . S
C1316 C1315 1.331 1_455 S
C1316 C1317 1.497 . S
C1317 C1308 1.395 . S
C1317 C1312 1.446 1_455 S
C1317 C1316 1.497 . S
C1318 C1319 1.582 . S
C1318 H1375 0.962 . S
C1318 H1376 0.959 . S
C1318 H1377 0.958 . S
C1319 C1318 1.582 . S
C1319 O1322 1.458 . S
C1319 H1348 0.980 . S
O1320 C1265 1.426 . S
O1320 C1266 1.334 . S
O1321 C1293 1.412 . S
O1321 C1294 1.393 . S
O1322 C1284 1.435 . S
O1322 C1319 1.458 . S
O1323 C1275 1.468 . S
O1323 C1276 1.408 . S
H1324 C1265 0.980 . S
H1325 C1264 0.959 . S
H1326 C1264 0.959 . S
H1327 C1264 0.960 . S
H1328 C1267 0.929 . S
H1329 C1271 0.929 . S
H1330 C1272 0.959 . S
H1331 C1272 0.961 . S
H1332 C1272 0.961 . S
H1333 C1273 0.960 . S
H1334 C1273 0.960 . S
H1335 C1273 0.961 . S
H1336 C1275 0.980 . S
H1337 C1274 0.961 . S
H1338 C1274 0.960 . S
H1339 C1274 0.959 . S
H1340 C1277 0.930 . S
H1341 C1281 0.931 . S
H1342 C1282 0.959 . S
H1343 C1282 0.961 . S
H1344 C1282 0.959 . S
H1345 C1283 0.960 . S
H1346 C1283 0.960 . S
H1347 C1283 0.960 . S
H1348 C1319 0.980 . S
H1349 C1285 0.930 . S
H1350 C1289 0.930 . S
H1351 C1290 0.961 . S
H1352 C1290 0.960 . S
H1353 C1290 0.958 . S
H1354 C1291 0.961 . S
H1355 C1291 0.960 . S
H1356 C1291 0.960 . S
H1357 C1293 0.980 . S
H1358 C1292 0.961 . S
H1359 C1292 0.961 . S
H1360 C1292 0.959 . S
H1361 C1295 0.932 . S
H1362 C1299 0.929 . S
H1363 C1300 0.961 . S
H1364 C1300 0.959 . S
H1365 C1300 0.959 . S
H1366 C1301 0.960 . S
H1367 C1301 0.962 . S
H1368 C1301 0.961 . S
H1369 C1303 0.929 . S
H1370 C1306 0.930 . S
H1371 C1307 0.929 . S
H1372 C1310 0.930 . S
H1373 C1313 0.929 . S
H1374 C1314 0.930 . S
H1375 C1318 0.962 . S
H1376 C1318 0.959 . S
H1377 C1318 0.958 . S
C1378 C1379 1.560 . S
C1378 H1439 0.959 . S
C1378 H1440 0.959 . S
C1378 H1441 0.960 . S
C1379 C1378 1.560 . S
C1379 O1434 1.426 . S
C1379 H1438 0.980 . S
C1380 C1381 1.407 . S
C1380 C1385 1.418 . S
C1380 O1434 1.334 . S
C1381 C1380 1.407 . S
C1381 C1382 1.360 . S
C1381 H1442 0.929 . S
C1382 C1381 1.360 . S
C1382 C1383 1.401 . S
C1382 C1386 1.527 . S
C1383 C1382 1.401 . S
C1383 C1384 1.405 . S
C1383 C1416 1.587 . S
C1384 C1383 1.405 . S
C1384 C1385 1.332 . S
C1384 C1387 1.496 . S
C1385 C1380 1.418 . S
C1385 C1384 1.332 . S
C1385 H1443 0.929 . S
C1386 C1382 1.527 . S
C1386 H1444 0.959 . S
C1386 H1445 0.961 . S
C1386 H1446 0.961 . S
C1387 C1384 1.496 . S
C1387 H1447 0.960 . S
C1387 H1448 0.960 . S
C1387 H1449 0.961 . S
C1388 C1389 1.517 . S
C1388 H1451 0.961 . S
C1388 H1452 0.960 . S
C1388 H1453 0.959 . S
C1389 C1388 1.517 . S
C1389 O1437 1.468 . S
C1389 H1450 0.980 . S
C1390 C1391 1.349 . S
C1390 C1395 1.367 . S
C1390 O1437 1.408 . S
C1391 C1390 1.349 . S
C1391 C1392 1.407 . S
C1391 H1454 0.930 . S
C1392 C1391 1.407 . S
C1392 C1393 1.449 . S
C1392 C1396 1.535 . S
C1393 C1392 1.449 . S
C1393 C1394 1.384 . S
C1393 C1418 1.553 . S
C1394 C1393 1.384 . S
C1394 C1395 1.364 . S
C1394 C1397 1.450 . S
C1395 C1390 1.367 . S
C1395 C1394 1.364 . S
C1395 H1455 0.931 . S
C1396 C1392 1.535 . S
C1396 H1456 0.959 . S
C1396 H1457 0.961 . S
C1396 H1458 0.959 . S
C1397 C1394 1.450 . S
C1397 H1459 0.960 . S
C1397 H1460 0.960 1_565 S
C1397 H1461 0.960 . S
C1398 C1399 1.309 . S
C1398 C1403 1.304 . S
C1398 O1436 1.435 . S
C1399 C1398 1.309 . S
C1399 C1400 1.476 . S
C1399 H1463 0.930 . S
C1400 C1399 1.476 . S
C1400 C1401 1.400 . S
C1400 C1404 1.567 . S
C1401 C1400 1.400 . S
C1401 C1402 1.373 . S
C1401 C1423 1.432 . S
C1402 C1401 1.373 . S
C1402 C1403 1.339 . S
C1402 C1405 1.530 . S
C1403 C1398 1.304 . S
C1403 C1402 1.339 . S
C1403 H1464 0.930 . S
C1404 C1400 1.567 . S
C1404 H1465 0.961 . S
C1404 H1466 0.960 . S
C1404 H1467 0.958 . S
C1405 C1402 1.530 . S
C1405 H1468 0.961 . S
C1405 H1469 0.960 . S
C1405 H1470 0.960 1_565 S
C1406 C1407 1.530 . S
C1406 H1472 0.961 . S
C1406 H1473 0.961 . S
C1406 H1474 0.959 . S
C1407 C1406 1.530 . S
C1407 O1435 1.412 . S
C1407 H1471 0.980 . S
C1408 C1409 1.288 . S
C1408 C1413 1.377 . S
C1408 O1435 1.393 . S
C1409 C1408 1.288 . S
C1409 C1410 1.369 . S
C1409 H1475 0.932 . S
C1410 C1409 1.369 . S
C1410 C1411 1.398 . S
C1410 C1414 1.527 . S
C1411 C1410 1.398 . S
C1411 C1412 1.380 . S
C1411 C1425 1.497 . S
C1412 C1411 1.380 . S
C1412 C1413 1.383 . S
C1412 C1415 1.603 . S
C1413 C1408 1.377 . S
C1413 C1412 1.383 . S
C1413 H1476 0.929 . S
C1414 C1410 1.527 . S
C1414 H1477 0.961 . S
C1414 H1478 0.959 . S
C1414 H1479 0.959 . S
C1415 C1412 1.603 . S
C1415 H1480 0.960 . S
C1415 H1481 0.962 . S
C1415 H1482 0.961 . S
C1416 C1383 1.587 . S
C1416 C1417 1.360 . S
C1416 C1429 1.412 . S
C1417 C1416 1.360 . S
C1417 C1418 1.365 1_545 S
C1417 H1483 0.929 . S
C1418 C1393 1.553 . S
C1418 C1417 1.365 1_565 S
C1418 C1419 1.404 . S
C1419 C1418 1.404 . S
C1419 C1420 1.395 . S
C1419 C1430 1.451 1_565 S
C1420 C1419 1.395 . S
C1420 C1421 1.322 . S
C1420 H1484 0.930 . S
C1421 C1420 1.322 . S
C1421 C1422 1.459 . S
C1421 H1485 0.929 . S
C1422 C1421 1.459 . S
C1422 C1423 1.445 . S
C1422 C1431 1.395 1_565 S
C1423 C1401 1.432 . S
C1423 C1422 1.445 . S
C1423 C1424 1.370 1_565 S
C1424 C1423 1.370 1_545 S
C1424 C1425 1.438 . S
C1424 H1486 0.930 . S
C1425 C1411 1.497 . S
C1425 C1424 1.438 . S
C1425 C1426 1.360 . S
C1426 C1425 1.360 . S
C1426 C1427 1.401 . S
C1426 C1431 1.446 . S
C1427 C1426 1.401 . S
C1427 C1428 1.347 . S
C1427 H1487 0.929 . S
C1428 C1427 1.347 . S
C1428 C1429 1.455 . S
C1428 H1488 0.930 . S
C1429 C1416 1.412 . S
C1429 C1428 1.455 . S
C1429 C1430 1.331 . S
C1430 C1419 1.451 1_545 S
C1430 C1429 1.331 . S
C1430 C1431 1.497 . S
C1431 C1422 1.395 1_545 S
C1431 C1426 1.446 . S
C1431 C1430 1.497 . S
C1432 C1433 1.582 . S
C1432 H1489 0.962 . S
C1432 H1490 0.959 . S
C1432 H1491 0.958 . S
C1433 C1432 1.582 . S
C1433 O1436 1.458 . S
C1433 H1462 0.980 . S
O1434 C1379 1.426 . S
O1434 C1380 1.334 . S
O1435 C1407 1.412 . S
O1435 C1408 1.393 . S
O1436 C1398 1.435 . S
O1436 C1433 1.458 . S
O1437 C1389 1.468 . S
O1437 C1390 1.408 . S
H1438 C1379 0.980 . S
H1439 C1378 0.959 . S
H1440 C1378 0.959 . S
H1441 C1378 0.960 . S
H1442 C1381 0.929 . S
H1443 C1385 0.929 . S
H1444 C1386 0.959 . S
H1445 C1386 0.961 . S
H1446 C1386 0.961 . S
H1447 C1387 0.960 . S
H1448 C1387 0.960 . S
H1449 C1387 0.961 . S
H1450 C1389 0.980 . S
H1451 C1388 0.961 . S
H1452 C1388 0.960 . S
H1453 C1388 0.959 . S
H1454 C1391 0.930 . S
H1455 C1395 0.931 . S
H1456 C1396 0.959 . S
H1457 C1396 0.961 . S
H1458 C1396 0.959 . S
H1459 C1397 0.960 . S
H1460 C1397 0.960 1_545 S
H1461 C1397 0.960 . S
H1462 C1433 0.980 . S
H1463 C1399 0.930 . S
H1464 C1403 0.930 . S
H1465 C1404 0.961 . S
H1466 C1404 0.960 . S
H1467 C1404 0.958 . S
H1468 C1405 0.961 . S
H1469 C1405 0.960 . S
H1470 C1405 0.960 1_545 S
H1471 C1407 0.980 . S
H1472 C1406 0.961 . S
H1473 C1406 0.961 . S
H1474 C1406 0.959 . S
H1475 C1409 0.932 . S
H1476 C1413 0.929 . S
H1477 C1414 0.961 . S
H1478 C1414 0.959 . S
H1479 C1414 0.959 . S
H1480 C1415 0.960 . S
H1481 C1415 0.962 . S
H1482 C1415 0.961 . S
H1483 C1417 0.929 . S
H1484 C1420 0.930 . S
H1485 C1421 0.929 . S
H1486 C1424 0.930 . S
H1487 C1427 0.929 . S
H1488 C1428 0.930 . S
H1489 C1432 0.962 . S
H1490 C1432 0.959 . S
H1491 C1432 0.958 . S
C1492 C1493 1.560 . S
C1492 H1553 0.959 . S
C1492 H1554 0.959 . S
C1492 H1555 0.960 . S
C1493 C1492 1.560 . S
C1493 O1548 1.426 . S
C1493 H1552 0.980 . S
C1494 C1495 1.407 . S
C1494 C1499 1.418 1_655 S
C1494 O1548 1.334 . S
C1495 C1494 1.407 . S
C1495 C1496 1.360 1_655 S
C1495 H1556 0.929 . S
C1496 C1495 1.360 1_455 S
C1496 C1497 1.401 . S
C1496 C1500 1.527 . S
C1497 C1496 1.401 . S
C1497 C1498 1.405 . S
C1497 C1530 1.587 . S
C1498 C1497 1.405 . S
C1498 C1499 1.332 . S
C1498 C1501 1.496 . S
C1499 C1494 1.418 1_455 S
C1499 C1498 1.332 . S
C1499 H1557 0.929 . S
C1500 C1496 1.527 . S
C1500 H1558 0.959 . S
C1500 H1559 0.961 . S
C1500 H1560 0.961 . S
C1501 C1498 1.496 . S
C1501 H1561 0.960 . S
C1501 H1562 0.960 . S
C1501 H1563 0.961 . S
C1502 C1503 1.517 . S
C1502 H1565 0.961 . S
C1502 H1566 0.960 . S
C1502 H1567 0.959 . S
C1503 C1502 1.517 . S
C1503 O1551 1.468 . S
C1503 H1564 0.980 . S
C1504 C1505 1.349 . S
C1504 C1509 1.367 . S
C1504 O1551 1.408 . S
C1505 C1504 1.349 . S
C1505 C1506 1.407 . S
C1505 H1568 0.930 . S
C1506 C1505 1.407 . S
C1506 C1507 1.449 . S
C1506 C1510 1.535 . S
C1507 C1506 1.449 . S
C1507 C1508 1.384 . S
C1507 C1532 1.553 . S
C1508 C1507 1.384 . S
C1508 C1509 1.364 . S
C1508 C1511 1.450 . S
C1509 C1504 1.367 . S
C1509 C1508 1.364 . S
C1509 H1569 0.931 . S
C1510 C1506 1.535 . S
C1510 H1570 0.959 . S
C1510 H1571 0.961 . S
C1510 H1572 0.959 . S
C1511 C1508 1.450 . S
C1511 H1573 0.960 . S
C1511 H1574 0.960 . S
C1511 H1575 0.960 . S
C1512 C1513 1.309 . S
C1512 C1517 1.304 . S
C1512 O1550 1.435 . S
C1513 C1512 1.309 . S
C1513 C1514 1.476 . S
C1513 H1577 0.930 . S
C1514 C1513 1.476 . S
C1514 C1515 1.400 . S
C1514 C1518 1.567 . S
C1515 C1514 1.400 . S
C1515 C1516 1.373 . S
C1515 C1537 1.432 . S
C1516 C1515 1.373 . S
C1516 C1517 1.339 . S
C1516 C1519 1.530 . S
C1517 C1512 1.304 . S
C1517 C1516 1.339 . S
C1517 H1578 0.930 . S
C1518 C1514 1.567 . S
C1518 H1579 0.961 . S
C1518 H1580 0.960 . S
C1518 H1581 0.958 . S
C1519 C1516 1.530 . S
C1519 H1582 0.961 . S
C1519 H1583 0.960 . S
C1519 H1584 0.960 . S
C1520 C1521 1.530 . S
C1520 H1586 0.961 . S
C1520 H1587 0.961 . S
C1520 H1588 0.959 . S
C1521 C1520 1.530 . S
C1521 O1549 1.412 . S
C1521 H1585 0.980 . S
C1522 C1523 1.288 . S
C1522 C1527 1.377 . S
C1522 O1549 1.393 . S
C1523 C1522 1.288 . S
C1523 C1524 1.369 1_655 S
C1523 H1589 0.932 . S
C1524 C1523 1.369 1_455 S
C1524 C1525 1.398 . S
C1524 C1528 1.527 . S
C1525 C1524 1.398 . S
C1525 C1526 1.349 1_455 S
C1525 C1539 1.497 . S
C1526 C1525 1.349 1_655 S
C1526 C1527 1.419 . S
C1526 C1529 1.598 1_655 S
C1527 C1522 1.377 . S
C1527 C1526 1.419 . S
C1527 H1590 0.929 . S
C1528 C1524 1.527 . S
C1528 H1591 0.961 . S
C1528 H1592 0.959 . S
C1528 H1593 0.959 . S
C1529 C1526 1.598 1_455 S
C1529 H1594 0.960 1_455 S
C1529 H1595 0.962 . S
C1529 H1596 0.961 1_455 S
C1530 C1497 1.587 . S
C1530 C1531 1.360 . S
C1530 C1543 1.412 . S
C1531 C1530 1.360 . S
C1531 C1532 1.365 . S
C1531 H1597 0.929 . S
C1532 C1507 1.553 . S
C1532 C1531 1.365 . S
C1532 C1533 1.404 . S
C1533 C1532 1.404 . S
C1533 C1534 1.395 . S
C1533 C1544 1.451 . S
C1534 C1533 1.395 . S
C1534 C1535 1.322 . S
C1534 H1598 0.930 . S
C1535 C1534 1.322 . S
C1535 C1536 1.459 . S
C1535 H1599 0.929 . S
C1536 C1535 1.459 . S
C1536 C1537 1.445 . S
C1536 C1545 1.395 . S
C1537 C1515 1.432 . S
C1537 C1536 1.445 . S
C1537 C1538 1.370 . S
C1538 C1537 1.370 . S
C1538 C1539 1.438 . S
C1538 H1600 0.930 . S
C1539 C1525 1.497 . S
C1539 C1538 1.438 . S
C1539 C1540 1.360 . S
C1540 C1539 1.360 . S
C1540 C1541 1.401 . S
C1540 C1545 1.446 . S
C1541 C1540 1.401 . S
C1541 C1542 1.347 . S
C1541 H1601 0.929 . S
C1542 C1541 1.347 . S
C1542 C1543 1.455 . S
C1542 H1602 0.930 . S
C1543 C1530 1.412 . S
C1543 C1542 1.455 . S
C1543 C1544 1.331 . S
C1544 C1533 1.451 . S
C1544 C1543 1.331 . S
C1544 C1545 1.497 . S
C1545 C1536 1.395 . S
C1545 C1540 1.446 . S
C1545 C1544 1.497 . S
C1546 C1547 1.582 . S
C1546 H1603 0.962 . S
C1546 H1604 0.959 . S
C1546 H1605 0.958 . S
C1547 C1546 1.582 . S
C1547 O1550 1.458 . S
C1547 H1576 0.980 . S
O1548 C1493 1.426 . S
O1548 C1494 1.334 . S
O1549 C1521 1.412 . S
O1549 C1522 1.393 . S
O1550 C1512 1.435 . S
O1550 C1547 1.458 . S
O1551 C1503 1.468 . S
O1551 C1504 1.408 . S
H1552 C1493 0.980 . S
H1553 C1492 0.959 . S
H1554 C1492 0.959 . S
H1555 C1492 0.960 . S
H1556 C1495 0.929 . S
H1557 C1499 0.929 . S
H1558 C1500 0.959 . S
H1559 C1500 0.961 . S
H1560 C1500 0.961 . S
H1561 C1501 0.960 . S
H1562 C1501 0.960 . S
H1563 C1501 0.961 . S
H1564 C1503 0.980 . S
H1565 C1502 0.961 . S
H1566 C1502 0.960 . S
H1567 C1502 0.959 . S
H1568 C1505 0.930 . S
H1569 C1509 0.931 . S
H1570 C1510 0.959 . S
H1571 C1510 0.961 . S
H1572 C1510 0.959 . S
H1573 C1511 0.960 . S
H1574 C1511 0.960 . S
H1575 C1511 0.960 . S
H1576 C1547 0.980 . S
H1577 C1513 0.930 . S
H1578 C1517 0.930 . S
H1579 C1518 0.961 . S
H1580 C1518 0.960 . S
H1581 C1518 0.958 . S
H1582 C1519 0.961 . S
H1583 C1519 0.960 . S
H1584 C1519 0.960 . S
H1585 C1521 0.980 . S
H1586 C1520 0.961 . S
H1587 C1520 0.961 . S
H1588 C1520 0.959 . S
H1589 C1523 0.932 . S
H1590 C1527 0.929 . S
H1591 C1528 0.961 . S
H1592 C1528 0.959 . S
H1593 C1528 0.959 . S
H1594 C1529 0.960 1_655 S
H1595 C1529 0.962 . S
H1596 C1529 0.961 1_655 S
H1597 C1531 0.929 . S
H1598 C1534 0.930 . S
H1599 C1535 0.929 . S
H1600 C1538 0.930 . S
H1601 C1541 0.929 . S
H1602 C1542 0.930 . S
H1603 C1546 0.962 . S
H1604 C1546 0.959 . S
H1605 C1546 0.958 . S
C1606 C1607 1.560 . S
C1606 H1667 0.959 . S
C1606 H1668 0.959 . S
C1606 H1669 0.960 . S
C1607 C1606 1.560 . S
C1607 O1662 1.426 . S
C1607 H1666 0.980 . S
C1608 C1609 1.407 . S
C1608 C1613 1.418 . S
C1608 O1662 1.334 . S
C1609 C1608 1.407 . S
C1609 C1610 1.360 . S
C1609 H1670 0.929 . S
C1610 C1609 1.360 . S
C1610 C1611 1.401 . S
C1610 C1614 1.527 . S
C1611 C1610 1.401 . S
C1611 C1612 1.405 . S
C1611 C1644 1.587 1_565 S
C1612 C1611 1.405 . S
C1612 C1613 1.332 . S
C1612 C1615 1.496 1_565 S
C1613 C1608 1.418 . S
C1613 C1612 1.332 . S
C1613 H1671 0.929 . S
C1614 C1610 1.527 . S
C1614 H1672 0.959 . S
C1614 H1673 0.961 . S
C1614 H1674 0.961 . S
C1615 C1612 1.496 1_545 S
C1615 H1675 0.960 1_545 S
C1615 H1676 0.960 . S
C1615 H1677 0.961 . S
C1616 C1617 1.517 . S
C1616 H1679 0.961 . S
C1616 H1680 0.960 . S
C1616 H1681 0.959 . S
C1617 C1616 1.517 . S
C1617 O1665 1.468 . S
C1617 H1678 0.980 . S
C1618 C1619 1.349 . S
C1618 C1623 1.367 . S
C1618 O1665 1.408 . S
C1619 C1618 1.349 . S
C1619 C1620 1.407 . S
C1619 H1682 0.930 . S
C1620 C1619 1.407 . S
C1620 C1621 1.449 . S
C1620 C1624 1.535 . S
C1621 C1620 1.449 . S
C1621 C1622 1.384 . S
C1621 C1646 1.553 . S
C1622 C1621 1.384 . S
C1622 C1623 1.364 . S
C1622 C1625 1.450 . S
C1623 C1618 1.367 . S
C1623 C1622 1.364 . S
C1623 H1683 0.931 . S
C1624 C1620 1.535 . S
C1624 H1684 0.959 . S
C1624 H1685 0.961 . S
C1624 H1686 0.959 . S
C1625 C1622 1.450 . S
C1625 H1687 0.960 . S
C1625 H1688 0.960 . S
C1625 H1689 0.960 . S
C1626 C1627 1.309 . S
C1626 C1631 1.304 . S
C1626 O1664 1.435 . S
C1627 C1626 1.309 . S
C1627 C1628 1.476 . S
C1627 H1691 0.930 . S
C1628 C1627 1.476 . S
C1628 C1629 1.400 . S
C1628 C1632 1.567 . S
C1629 C1628 1.400 . S
C1629 C1630 1.373 . S
C1629 C1651 1.432 . S
C1630 C1629 1.373 . S
C1630 C1631 1.339 . S
C1630 C1633 1.530 . S
C1631 C1626 1.304 . S
C1631 C1630 1.339 . S
C1631 H1692 0.930 . S
C1632 C1628 1.567 . S
C1632 H1693 0.961 . S
C1632 H1694 0.960 . S
C1632 H1695 0.958 . S
C1633 C1630 1.530 . S
C1633 H1696 0.961 . S
C1633 H1697 0.960 . S
C1633 H1698 0.960 . S
C1634 C1635 1.530 . S
C1634 H1700 0.961 . S
C1634 H1701 0.961 . S
C1634 H1702 0.959 . S
C1635 C1634 1.530 . S
C1635 O1663 1.412 . S
C1635 H1699 0.980 . S
C1636 C1637 1.288 . S
C1636 C1641 1.377 . S
C1636 O1663 1.393 . S
C1637 C1636 1.288 . S
C1637 C1638 1.369 . S
C1637 H1703 0.932 . S
C1638 C1637 1.369 . S
C1638 C1639 1.398 . S
C1638 C1642 1.527 . S
C1639 C1638 1.398 . S
C1639 C1640 1.380 . S
C1639 C1653 1.497 . S
C1640 C1639 1.380 . S
C1640 C1641 1.383 . S
C1640 C1643 1.603 . S
C1641 C1636 1.377 . S
C1641 C1640 1.383 . S
C1641 H1704 0.929 . S
C1642 C1638 1.527 . S
C1642 H1705 0.961 . S
C1642 H1706 1.008 . S
C1642 H1707 0.959 . S
C1643 C1640 1.603 . S
C1643 H1708 0.960 . S
C1643 H1709 0.962 . S
C1643 H1710 0.961 . S
C1644 C1611 1.587 1_545 S
C1644 C1645 1.360 . S
C1644 C1657 1.412 . S
C1645 C1644 1.360 . S
C1645 C1646 1.365 . S
C1645 H1711 0.929 . S
C1646 C1621 1.553 . S
C1646 C1645 1.365 . S
C1646 C1647 1.404 . S
C1647 C1646 1.404 . S
C1647 C1648 1.395 . S
C1647 C1658 1.451 . S
C1648 C1647 1.395 . S
C1648 C1649 1.322 . S
C1648 H1712 0.930 . S
C1649 C1648 1.322 . S
C1649 C1650 1.459 . S
C1649 H1713 0.929 . S
C1650 C1649 1.459 . S
C1650 C1651 1.445 . S
C1650 C1659 1.395 . S
C1651 C1629 1.432 . S
C1651 C1650 1.445 . S
C1651 C1652 1.370 . S
C1652 C1651 1.370 . S
C1652 C1653 1.438 1_545 S
C1652 H1714 0.930 . S
C1653 C1639 1.497 . S
C1653 C1652 1.438 1_565 S
C1653 C1654 1.360 . S
C1654 C1653 1.360 . S
C1654 C1655 1.401 . S
C1654 C1659 1.446 1_565 S
C1655 C1654 1.401 . S
C1655 C1656 1.347 . S
C1655 H1715 0.929 . S
C1656 C1655 1.347 . S
C1656 C1657 1.455 1_565 S
C1656 H1716 0.930 . S
C1657 C1644 1.412 . S
C1657 C1656 1.455 1_545 S
C1657 C1658 1.331 . S
C1658 C1647 1.451 . S
C1658 C1657 1.331 . S
C1658 C1659 1.497 . S
C1659 C1650 1.395 . S
C1659 C1654 1.446 1_545 S
C1659 C1658 1.497 . S
C1660 C1661 1.582 . S
C1660 H1717 0.962 . S
C1660 H1718 0.959 . S
C1660 H1719 0.958 . S
C1661 C1660 1.582 . S
C1661 O1664 1.458 . S
C1661 H1690 0.980 . S
O1662 C1607 1.426 . S
O1662 C1608 1.334 . S
O1663 C1635 1.412 . S
O1663 C1636 1.393 . S
O1664 C1626 1.435 . S
O1664 C1661 1.458 . S
O1665 C1617 1.468 . S
O1665 C1618 1.408 . S
H1666 C1607 0.980 . S
H1667 C1606 0.959 . S
H1668 C1606 0.959 . S
H1669 C1606 0.960 . S
H1670 C1609 0.929 . S
H1671 C1613 0.929 . S
H1672 C1614 0.959 . S
H1673 C1614 0.961 . S
H1674 C1614 0.961 . S
H1675 C1615 0.960 1_565 S
H1676 C1615 0.960 . S
H1677 C1615 0.961 . S
H1678 C1617 0.980 . S
H1679 C1616 0.961 . S
H1680 C1616 0.960 . S
H1681 C1616 0.959 . S
H1682 C1619 0.930 . S
H1683 C1623 0.931 . S
H1684 C1624 0.959 . S
H1685 C1624 0.961 . S
H1686 C1624 0.959 . S
H1687 C1625 0.960 . S
H1688 C1625 0.960 . S
H1689 C1625 0.960 . S
H1690 C1661 0.980 . S
H1691 C1627 0.930 . S
H1692 C1631 0.930 . S
H1693 C1632 0.961 . S
H1694 C1632 0.960 . S
H1695 C1632 0.958 . S
H1696 C1633 0.961 . S
H1697 C1633 0.960 . S
H1698 C1633 0.960 . S
H1699 C1635 0.980 . S
H1700 C1634 0.961 . S
H1701 C1634 0.961 . S
H1702 C1634 0.959 . S
H1703 C1637 0.932 . S
H1704 C1641 0.929 . S
H1705 C1642 0.961 . S
H1706 C1642 1.008 . S
H1707 C1642 0.959 . S
H1708 C1643 0.960 . S
H1709 C1643 0.962 . S
H1710 C1643 0.961 . S
H1711 C1645 0.929 . S
H1712 C1648 0.930 . S
H1713 C1649 0.929 . S
H1714 C1652 0.930 . S
H1715 C1655 0.929 . S
H1716 C1656 0.930 . S
H1717 C1660 0.962 . S
H1718 C1660 0.959 . S
H1719 C1660 0.958 . S
C1720 C1721 1.560 . S
C1720 H1781 0.959 . S
C1720 H1782 0.959 . S
C1720 H1783 0.960 . S
C1721 C1720 1.560 . S
C1721 O1776 1.426 . S
C1721 H1780 0.980 . S
C1722 C1723 1.407 . S
C1722 C1727 1.418 . S
C1722 O1776 1.334 . S
C1723 C1722 1.407 . S
C1723 C1724 1.360 . S
C1723 H1784 0.929 . S
C1724 C1723 1.360 . S
C1724 C1725 1.401 . S
C1724 C1728 1.527 . S
C1725 C1724 1.401 . S
C1725 C1726 1.405 . S
C1725 C1758 1.587 . S
C1726 C1725 1.405 . S
C1726 C1727 1.332 . S
C1726 C1729 1.496 . S
C1727 C1722 1.418 . S
C1727 C1726 1.332 . S
C1727 H1785 0.929 . S
C1728 C1724 1.527 . S
C1728 H1786 0.959 . S
C1728 H1787 0.961 . S
C1728 H1788 0.961 . S
C1729 C1726 1.496 . S
C1729 H1789 0.960 . S
C1729 H1790 0.960 . S
C1729 H1791 0.961 . S
C1730 C1731 1.517 . S
C1730 H1793 0.961 . S
C1730 H1794 0.960 . S
C1730 H1795 0.959 . S
C1731 C1730 1.517 . S
C1731 O1779 1.468 . S
C1731 H1792 0.980 . S
C1732 C1733 1.349 . S
C1732 C1737 1.367 . S
C1732 O1779 1.408 . S
C1733 C1732 1.349 . S
C1733 C1734 1.407 . S
C1733 H1796 0.930 . S
C1734 C1733 1.407 . S
C1734 C1735 1.449 . S
C1734 C1738 1.535 . S
C1735 C1734 1.449 . S
C1735 C1736 1.384 . S
C1735 C1760 1.553 . S
C1736 C1735 1.384 . S
C1736 C1737 1.364 . S
C1736 C1739 1.450 . S
C1737 C1732 1.367 . S
C1737 C1736 1.364 . S
C1737 H1797 0.931 . S
C1738 C1734 1.535 . S
C1738 H1798 0.959 . S
C1738 H1799 0.961 . S
C1738 H1800 0.959 . S
C1739 C1736 1.450 . S
C1739 H1801 0.960 . S
C1739 H1802 0.960 . S
C1739 H1803 0.960 . S
C1740 C1741 1.309 . S
C1740 C1745 1.304 . S
C1740 O1778 1.435 . S
C1741 C1740 1.309 . S
C1741 C1742 1.476 . S
C1741 H1805 0.930 . S
C1742 C1741 1.476 . S
C1742 C1743 1.400 . S
C1742 C1746 1.567 . S
C1743 C1742 1.400 . S
C1743 C1744 1.373 . S
C1743 C1765 1.432 . S
C1744 C1743 1.373 . S
C1744 C1745 1.339 . S
C1744 C1747 1.530 . S
C1745 C1740 1.304 . S
C1745 C1744 1.339 . S
C1745 H1806 0.930 . S
C1746 C1742 1.567 . S
C1746 H1807 0.961 . S
C1746 H1808 0.960 . S
C1746 H1809 0.958 . S
C1747 C1744 1.530 . S
C1747 H1810 0.961 . S
C1747 H1811 0.960 . S
C1747 H1812 0.960 . S
C1748 C1749 1.530 . S
C1748 H1814 0.961 . S
C1748 H1815 0.961 . S
C1748 H1816 0.959 . S
C1749 C1748 1.530 . S
C1749 O1777 1.412 . S
C1749 H1813 0.980 . S
C1750 C1751 1.288 . S
C1750 C1755 1.377 . S
C1750 O1777 1.393 . S
C1751 C1750 1.288 . S
C1751 C1752 1.369 . S
C1751 H1817 0.932 . S
C1752 C1751 1.369 . S
C1752 C1753 1.398 . S
C1752 C1756 1.527 . S
C1753 C1752 1.398 . S
C1753 C1754 1.380 . S
C1753 C1767 1.497 . S
C1754 C1753 1.380 . S
C1754 C1755 1.383 . S
C1754 C1757 1.603 . S
C1755 C1750 1.377 . S
C1755 C1754 1.383 . S
C1755 H1818 0.929 . S
C1756 C1752 1.527 . S
C1756 H1819 0.961 . S
C1756 H1820 0.959 . S
C1756 H1821 0.959 . S
C1757 C1754 1.603 . S
C1757 H1822 0.960 . S
C1757 H1823 0.962 . S
C1757 H1824 0.961 . S
C1758 C1725 1.587 . S
C1758 C1759 1.360 . S
C1758 C1771 1.412 . S
C1759 C1758 1.360 . S
C1759 C1760 1.365 . S
C1759 H1825 0.929 . S
C1760 C1735 1.553 . S
C1760 C1759 1.365 . S
C1760 C1761 1.404 . S
C1761 C1760 1.404 . S
C1761 C1762 1.395 . S
C1761 C1772 1.451 . S
C1762 C1761 1.395 . S
C1762 C1763 1.322 . S
C1762 H1826 0.930 . S
C1763 C1762 1.322 . S
C1763 C1764 1.459 . S
C1763 H1827 0.929 . S
C1764 C1763 1.459 . S
C1764 C1765 1.445 . S
C1764 C1773 1.395 . S
C1765 C1743 1.432 . S
C1765 C1764 1.445 . S
C1765 C1766 1.370 . S
C1766 C1765 1.370 . S
C1766 C1767 1.438 . S
C1766 H1828 0.930 . S
C1767 C1753 1.497 . S
C1767 C1766 1.438 . S
C1767 C1768 1.360 . S
C1768 C1767 1.360 . S
C1768 C1769 1.401 . S
C1768 C1773 1.446 . S
C1769 C1768 1.401 . S
C1769 C1770 1.347 . S
C1769 H1829 0.929 . S
C1770 C1769 1.347 . S
C1770 C1771 1.455 . S
C1770 H1830 0.930 . S
C1771 C1758 1.412 . S
C1771 C1770 1.455 . S
C1771 C1772 1.331 . S
C1772 C1761 1.451 . S
C1772 C1771 1.331 . S
C1772 C1773 1.497 . S
C1773 C1764 1.395 . S
C1773 C1768 1.446 . S
C1773 C1772 1.497 . S
C1774 C1775 1.582 . S
C1774 H1831 0.962 . S
C1774 H1832 0.959 . S
C1774 H1833 0.958 . S
C1775 C1774 1.582 . S
C1775 O1778 1.458 . S
C1775 H1804 0.980 . S
O1776 C1721 1.426 . S
O1776 C1722 1.334 . S
O1777 C1749 1.412 . S
O1777 C1750 1.393 . S
O1778 C1740 1.435 . S
O1778 C1775 1.458 . S
O1779 C1731 1.468 . S
O1779 C1732 1.408 . S
H1780 C1721 0.980 . S
H1781 C1720 0.959 . S
H1782 C1720 0.959 . S
H1783 C1720 0.960 . S
H1784 C1723 0.929 . S
H1785 C1727 0.929 . S
H1786 C1728 0.959 . S
H1787 C1728 0.961 . S
H1788 C1728 0.961 . S
H1789 C1729 0.960 . S
H1790 C1729 0.960 . S
H1791 C1729 0.961 . S
H1792 C1731 0.980 . S
H1793 C1730 0.961 . S
H1794 C1730 0.960 . S
H1795 C1730 0.959 . S
H1796 C1733 0.930 . S
H1797 C1737 0.931 . S
H1798 C1738 0.959 . S
H1799 C1738 0.961 . S
H1800 C1738 0.959 . S
H1801 C1739 0.960 . S
H1802 C1739 0.960 . S
H1803 C1739 0.960 . S
H1804 C1775 0.980 . S
H1805 C1741 0.930 . S
H1806 C1745 0.930 . S
H1807 C1746 0.961 . S
H1808 C1746 0.960 . S
H1809 C1746 0.958 . S
H1810 C1747 0.961 . S
H1811 C1747 0.960 . S
H1812 C1747 0.960 . S
H1813 C1749 0.980 . S
H1814 C1748 0.961 . S
H1815 C1748 0.961 . S
H1816 C1748 0.959 . S
H1817 C1751 0.932 . S
H1818 C1755 0.929 . S
H1819 C1756 0.961 . S
H1820 C1756 0.959 . S
H1821 C1756 0.959 . S
H1822 C1757 0.960 . S
H1823 C1757 0.962 . S
H1824 C1757 0.961 . S
H1825 C1759 0.929 . S
H1826 C1762 0.930 . S
H1827 C1763 0.929 . S
H1828 C1766 0.930 . S
H1829 C1769 0.929 . S
H1830 C1770 0.930 . S
H1831 C1774 0.962 . S
H1832 C1774 0.959 . S
H1833 C1774 0.958 . S
C1834 C1835 1.560 . S
C1834 H1895 0.959 . S
C1834 H1896 0.959 . S
C1834 H1897 0.960 . S
C1835 C1834 1.560 . S
C1835 O1890 1.426 . S
C1835 H1894 0.980 . S
C1836 C1837 1.407 . S
C1836 C1841 1.418 . S
C1836 O1890 1.334 . S
C1837 C1836 1.407 . S
C1837 C1838 1.360 . S
C1837 H1898 0.929 . S
C1838 C1837 1.360 . S
C1838 C1839 1.401 . S
C1838 C1842 1.527 . S
C1839 C1838 1.401 . S
C1839 C1840 1.405 . S
C1839 C1872 1.587 . S
C1840 C1839 1.405 . S
C1840 C1841 1.332 . S
C1840 C1843 1.496 . S
C1841 C1836 1.418 . S
C1841 C1840 1.332 . S
C1841 H1899 0.929 . S
C1842 C1838 1.527 . S
C1842 H1900 0.959 . S
C1842 H1901 0.961 . S
C1842 H1902 0.961 . S
C1843 C1840 1.496 . S
C1843 H1903 0.960 . S
C1843 H1904 0.960 . S
C1843 H1905 0.961 . S
C1844 C1845 1.517 . S
C1844 H1907 0.961 . S
C1844 H1908 0.960 . S
C1844 H1909 0.959 . S
C1845 C1844 1.517 . S
C1845 O1893 1.468 . S
C1845 H1906 0.980 . S
C1846 C1847 1.349 . S
C1846 C1851 1.367 . S
C1846 O1893 1.408 . S
C1847 C1846 1.349 . S
C1847 C1848 1.407 . S
C1847 H1910 0.930 . S
C1848 C1847 1.407 . S
C1848 C1849 1.449 . S
C1848 C1852 1.535 . S
C1849 C1848 1.449 . S
C1849 C1850 1.384 . S
C1849 C1874 1.553 . S
C1850 C1849 1.384 . S
C1850 C1851 1.364 . S
C1850 C1853 1.450 . S
C1851 C1846 1.367 . S
C1851 C1850 1.364 . S
C1851 H1911 0.931 . S
C1852 C1848 1.535 . S
C1852 H1912 0.959 . S
C1852 H1913 0.961 . S
C1852 H1914 0.959 . S
C1853 C1850 1.450 . S
C1853 H1915 0.960 . S
C1853 H1916 0.960 . S
C1853 H1917 0.960 . S
C1854 C1855 1.309 . S
C1854 C1859 1.304 . S
C1854 O1892 1.435 . S
C1855 C1854 1.309 . S
C1855 C1856 1.476 . S
C1855 H1919 0.930 . S
C1856 C1855 1.476 . S
C1856 C1857 1.400 . S
C1856 C1860 1.567 . S
C1857 C1856 1.400 . S
C1857 C1858 1.373 . S
C1857 C1879 1.432 . S
C1858 C1857 1.373 . S
C1858 C1859 1.339 . S
C1858 C1861 1.530 . S
C1859 C1854 1.304 . S
C1859 C1858 1.339 . S
C1859 H1920 0.930 . S
C1860 C1856 1.567 . S
C1860 H1921 0.961 . S
C1860 H1922 0.960 . S
C1860 H1923 0.958 . S
C1861 C1858 1.530 . S
C1861 H1924 0.961 . S
C1861 H1925 0.960 . S
C1861 H1926 0.960 . S
C1862 C1863 1.530 . S
C1862 H1928 0.961 . S
C1862 H1929 0.961 . S
C1862 H1930 0.959 . S
C1863 C1862 1.530 . S
C1863 O1891 1.412 . S
C1863 H1927 0.980 . S
C1864 C1865 1.288 . S
C1864 C1869 1.377 . S
C1864 O1891 1.393 . S
C1865 C1864 1.288 . S
C1865 C1866 1.369 . S
C1865 H1931 0.932 . S
C1866 C1865 1.369 . S
C1866 C1867 1.398 . S
C1866 C1870 1.527 . S
C1867 C1866 1.398 . S
C1867 C1868 1.380 . S
C1867 C1881 1.497 . S
C1868 C1867 1.380 . S
C1868 C1869 1.383 . S
C1868 C1871 1.603 . S
C1869 C1864 1.377 . S
C1869 C1868 1.383 . S
C1869 H1932 0.929 . S
C1870 C1866 1.527 . S
C1870 H1933 0.961 . S
C1870 H1934 0.959 . S
C1870 H1935 0.959 . S
C1871 C1868 1.603 . S
C1871 H1936 0.960 . S
C1871 H1937 0.962 . S
C1871 H1938 0.961 . S
C1872 C1839 1.587 . S
C1872 C1873 1.360 . S
C1872 C1885 1.412 . S
C1873 C1872 1.360 . S
C1873 C1874 1.365 . S
C1873 H1939 0.929 . S
C1874 C1849 1.553 . S
C1874 C1873 1.365 . S
C1874 C1875 1.404 . S
C1875 C1874 1.404 . S
C1875 C1876 1.395 . S
C1875 C1886 1.451 . S
C1876 C1875 1.395 . S
C1876 C1877 1.322 . S
C1876 H1940 0.930 . S
C1877 C1876 1.322 . S
C1877 C1878 1.459 . S
C1877 H1941 0.929 . S
C1878 C1877 1.459 . S
C1878 C1879 1.445 . S
C1878 C1887 1.395 . S
C1879 C1857 1.432 . S
C1879 C1878 1.445 . S
C1879 C1880 1.370 . S
C1880 C1879 1.370 . S
C1880 C1881 1.438 . S
C1880 H1942 0.930 . S
C1881 C1867 1.497 . S
C1881 C1880 1.438 . S
C1881 C1882 1.360 . S
C1882 C1881 1.360 . S
C1882 C1883 1.401 . S
C1882 C1887 1.446 . S
C1883 C1882 1.401 . S
C1883 C1884 1.347 . S
C1883 H1943 0.929 . S
C1884 C1883 1.347 . S
C1884 C1885 1.455 . S
C1884 H1944 0.930 . S
C1885 C1872 1.412 . S
C1885 C1884 1.455 . S
C1885 C1886 1.331 . S
C1886 C1875 1.451 . S
C1886 C1885 1.331 . S
C1886 C1887 1.497 . S
C1887 C1878 1.395 . S
C1887 C1882 1.446 . S
C1887 C1886 1.497 . S
C1888 C1889 1.582 . S
C1888 H1945 0.962 . S
C1888 H1946 0.959 . S
C1888 H1947 0.958 . S
C1889 C1888 1.582 . S
C1889 O1892 1.458 . S
C1889 H1918 0.980 . S
O1890 C1835 1.426 . S
O1890 C1836 1.334 . S
O1891 C1863 1.412 . S
O1891 C1864 1.393 . S
O1892 C1854 1.435 . S
O1892 C1889 1.458 . S
O1893 C1845 1.468 . S
O1893 C1846 1.408 . S
H1894 C1835 0.980 . S
H1895 C1834 0.959 . S
H1896 C1834 0.959 . S
H1897 C1834 0.960 . S
H1898 C1837 0.929 . S
H1899 C1841 0.929 . S
H1900 C1842 0.959 . S
H1901 C1842 0.961 . S
H1902 C1842 0.961 . S
H1903 C1843 0.960 . S
H1904 C1843 0.960 . S
H1905 C1843 0.961 . S
H1906 C1845 0.980 . S
H1907 C1844 0.961 . S
H1908 C1844 0.960 . S
H1909 C1844 0.959 . S
H1910 C1847 0.930 . S
H1911 C1851 0.931 . S
H1912 C1852 0.959 . S
H1913 C1852 0.961 . S
H1914 C1852 0.959 . S
H1915 C1853 0.960 . S
H1916 C1853 0.960 . S
H1917 C1853 0.960 . S
H1918 C1889 0.980 . S
H1919 C1855 0.930 . S
H1920 C1859 0.930 . S
H1921 C1860 0.961 . S
H1922 C1860 0.960 . S
H1923 C1860 0.958 . S
H1924 C1861 0.961 . S
H1925 C1861 0.960 . S
H1926 C1861 0.960 . S
H1927 C1863 0.980 . S
H1928 C1862 0.961 . S
H1929 C1862 0.961 . S
H1930 C1862 0.959 . S
H1931 C1865 0.932 . S
H1932 C1869 0.929 . S
H1933 C1870 0.961 . S
H1934 C1870 0.959 . S
H1935 C1870 0.959 . S
H1936 C1871 0.960 . S
H1937 C1871 0.962 . S
H1938 C1871 0.961 . S
H1939 C1873 0.929 . S
H1940 C1876 0.930 . S
H1941 C1877 0.929 . S
H1942 C1880 0.930 . S
H1943 C1883 0.929 . S
H1944 C1884 0.930 . S
H1945 C1888 0.962 . S
H1946 C1888 0.959 . S
H1947 C1888 0.958 . S
C1948 C1949 1.560 . S
C1948 H2009 0.959 . S
C1948 H2010 0.959 . S
C1948 H2011 0.960 . S
C1949 C1948 1.560 . S
C1949 O2004 1.426 . S
C1949 H2008 0.980 . S
C1950 C1951 1.407 . S
C1950 C1955 1.418 . S
C1950 O2004 1.334 . S
C1951 C1950 1.407 . S
C1951 C1952 1.360 . S
C1951 H2012 0.929 . S
C1952 C1951 1.360 . S
C1952 C1953 1.401 . S
C1952 C1956 1.527 . S
C1953 C1952 1.401 . S
C1953 C1954 1.405 . S
C1953 C1986 1.587 . S
C1954 C1953 1.405 . S
C1954 C1955 1.332 . S
C1954 C1957 1.496 . S
C1955 C1950 1.418 . S
C1955 C1954 1.332 . S
C1955 H2013 0.929 . S
C1956 C1952 1.527 . S
C1956 H2014 0.959 . S
C1956 H2015 0.961 . S
C1956 H2016 0.961 . S
C1957 C1954 1.496 . S
C1957 H2017 0.960 . S
C1957 H2018 0.960 . S
C1957 H2019 0.961 . S
C1958 C1959 1.517 . S
C1958 H2021 0.961 . S
C1958 H2022 0.960 . S
C1958 H2023 0.959 . S
C1959 C1958 1.517 . S
C1959 O2007 1.468 . S
C1959 H2020 0.980 . S
C1960 C1961 1.349 . S
C1960 C1965 1.367 . S
C1960 O2007 1.408 . S
C1961 C1960 1.349 . S
C1961 C1962 1.407 . S
C1961 H2024 0.930 . S
C1962 C1961 1.407 . S
C1962 C1963 1.449 . S
C1962 C1966 1.535 . S
C1963 C1962 1.449 . S
C1963 C1964 1.384 . S
C1963 C1988 1.553 . S
C1964 C1963 1.384 . S
C1964 C1965 1.364 . S
C1964 C1967 1.450 . S
C1965 C1960 1.367 . S
C1965 C1964 1.364 . S
C1965 H2025 0.931 . S
C1966 C1962 1.535 . S
C1966 H2026 0.959 . S
C1966 H2027 0.961 . S
C1966 H2028 0.959 . S
C1967 C1964 1.450 . S
C1967 H2029 0.960 . S
C1967 H2030 0.960 . S
C1967 H2031 0.960 . S
C1968 C1969 1.309 . S
C1968 C1973 1.304 . S
C1968 O2006 1.435 . S
C1969 C1968 1.309 . S
C1969 C1970 1.476 . S
C1969 H2033 0.930 . S
C1970 C1969 1.476 . S
C1970 C1971 1.400 . S
C1970 C1974 1.567 . S
C1971 C1970 1.400 . S
C1971 C1972 1.373 . S
C1971 C1993 1.432 . S
C1972 C1971 1.373 . S
C1972 C1973 1.339 . S
C1972 C1975 1.530 . S
C1973 C1968 1.304 . S
C1973 C1972 1.339 . S
C1973 H2034 0.930 . S
C1974 C1970 1.567 . S
C1974 H2035 0.961 . S
C1974 H2036 0.960 . S
C1974 H2037 0.958 . S
C1975 C1972 1.530 . S
C1975 H2038 0.961 . S
C1975 H2039 0.960 . S
C1975 H2040 0.960 . S
C1976 C1977 1.530 . S
C1976 H2042 0.961 . S
C1976 H2043 0.961 . S
C1976 H2044 0.959 . S
C1977 C1976 1.530 . S
C1977 O2005 1.412 . S
C1977 H2041 0.980 . S
C1978 C1979 1.288 . S
C1978 C1983 1.377 . S
C1978 O2005 1.393 . S
C1979 C1978 1.288 . S
C1979 C1980 1.369 . S
C1979 H2045 0.932 . S
C1980 C1979 1.369 . S
C1980 C1981 1.398 . S
C1980 C1984 1.527 . S
C1981 C1980 1.398 . S
C1981 C1982 1.380 . S
C1981 C1995 1.497 . S
C1982 C1981 1.380 . S
C1982 C1983 1.383 . S
C1982 C1985 1.603 . S
C1983 C1978 1.377 . S
C1983 C1982 1.383 . S
C1983 H2046 0.929 . S
C1984 C1980 1.527 . S
C1984 H2047 0.961 . S
C1984 H2048 0.959 . S
C1984 H2049 0.959 . S
C1985 C1982 1.603 . S
C1985 H2050 0.960 . S
C1985 H2051 0.962 . S
C1985 H2052 0.961 . S
C1986 C1953 1.587 . S
C1986 C1987 1.360 . S
C1986 C1999 1.412 . S
C1987 C1986 1.360 . S
C1987 C1988 1.365 . S
C1987 H2053 0.929 . S
C1988 C1963 1.553 . S
C1988 C1987 1.365 . S
C1988 C1989 1.404 . S
C1989 C1988 1.404 . S
C1989 C1990 1.395 . S
C1989 C2000 1.451 . S
C1990 C1989 1.395 . S
C1990 C1991 1.322 . S
C1990 H2054 0.930 . S
C1991 C1990 1.322 . S
C1991 C1992 1.459 . S
C1991 H2055 0.929 . S
C1992 C1991 1.459 . S
C1992 C1993 1.445 . S
C1992 C2001 1.395 . S
C1993 C1971 1.432 . S
C1993 C1992 1.445 . S
C1993 C1994 1.370 . S
C1994 C1993 1.370 . S
C1994 C1995 1.438 . S
C1994 H2056 0.930 . S
C1995 C1981 1.497 . S
C1995 C1994 1.438 . S
C1995 C1996 1.360 . S
C1996 C1995 1.360 . S
C1996 C1997 1.401 . S
C1996 C2001 1.446 . S
C1997 C1996 1.401 . S
C1997 C1998 1.347 . S
C1997 H2057 0.929 . S
C1998 C1997 1.347 . S
C1998 C1999 1.455 . S
C1998 H2058 0.930 . S
C1999 C1986 1.412 . S
C1999 C1998 1.455 . S
C1999 C2000 1.331 . S
C2000 C1989 1.451 . S
C2000 C1999 1.331 . S
C2000 C2001 1.497 . S
C2001 C1992 1.395 . S
C2001 C1996 1.446 . S
C2001 C2000 1.497 . S
C2002 C2003 1.582 . S
C2002 H2059 0.962 . S
C2002 H2060 0.959 . S
C2002 H2061 0.958 . S
C2003 C2002 1.582 . S
C2003 O2006 1.458 . S
C2003 H2032 0.980 . S
O2004 C1949 1.426 . S
O2004 C1950 1.334 . S
O2005 C1977 1.412 . S
O2005 C1978 1.393 . S
O2006 C1968 1.435 . S
O2006 C2003 1.458 . S
O2007 C1959 1.468 . S
O2007 C1960 1.408 . S
H2008 C1949 0.980 . S
H2009 C1948 0.959 . S
H2010 C1948 0.959 . S
H2011 C1948 0.960 . S
H2012 C1951 0.929 . S
H2013 C1955 0.929 . S
H2014 C1956 0.959 . S
H2015 C1956 0.961 . S
H2016 C1956 0.961 . S
H2017 C1957 0.960 . S
H2018 C1957 0.960 . S
H2019 C1957 0.961 . S
H2020 C1959 0.980 . S
H2021 C1958 0.961 . S
H2022 C1958 0.960 . S
H2023 C1958 0.959 . S
H2024 C1961 0.930 . S
H2025 C1965 0.931 . S
H2026 C1966 0.959 . S
H2027 C1966 0.961 . S
H2028 C1966 0.959 . S
H2029 C1967 0.960 . S
H2030 C1967 0.960 . S
H2031 C1967 0.960 . S
H2032 C2003 0.980 . S
H2033 C1969 0.930 . S
H2034 C1973 0.930 . S
H2035 C1974 0.961 . S
H2036 C1974 0.960 . S
H2037 C1974 0.958 . S
H2038 C1975 0.961 . S
H2039 C1975 0.960 . S
H2040 C1975 0.960 . S
H2041 C1977 0.980 . S
H2042 C1976 0.961 . S
H2043 C1976 0.961 . S
H2044 C1976 0.959 . S
H2045 C1979 0.932 . S
H2046 C1983 0.929 . S
H2047 C1984 0.961 . S
H2048 C1984 0.959 . S
H2049 C1984 0.959 . S
H2050 C1985 0.960 . S
H2051 C1985 0.962 . S
H2052 C1985 0.961 . S
H2053 C1987 0.929 . S
H2054 C1990 0.930 . S
H2055 C1991 0.929 . S
H2056 C1994 0.930 . S
H2057 C1997 0.929 . S
H2058 C1998 0.930 . S
H2059 C2002 0.962 . S
H2060 C2002 0.959 . S
H2061 C2002 0.958 . S
C2062 C2063 1.560 . S
C2062 H2123 0.959 . S
C2062 H2124 0.959 . S
C2062 H2125 0.960 . S
C2063 C2062 1.560 . S
C2063 O2118 1.426 . S
C2063 H2122 0.980 . S
C2064 C2065 1.407 . S
C2064 C2069 1.418 . S
C2064 O2118 1.334 . S
C2065 C2064 1.407 . S
C2065 C2066 1.360 . S
C2065 H2126 0.929 . S
C2066 C2065 1.360 . S
C2066 C2067 1.401 . S
C2066 C2070 1.527 . S
C2067 C2066 1.401 . S
C2067 C2068 1.405 . S
C2067 C2100 1.587 . S
C2068 C2067 1.405 . S
C2068 C2069 1.332 . S
C2068 C2071 1.496 . S
C2069 C2064 1.418 . S
C2069 C2068 1.332 . S
C2069 H2127 0.929 . S
C2070 C2066 1.527 . S
C2070 H2128 0.959 . S
C2070 H2129 0.961 . S
C2070 H2130 0.961 . S
C2071 C2068 1.496 . S
C2071 H2131 0.960 . S
C2071 H2132 0.960 . S
C2071 H2133 0.961 . S
C2072 C2073 1.517 . S
C2072 H2135 0.961 . S
C2072 H2136 0.960 . S
C2072 H2137 0.959 . S
C2073 C2072 1.517 . S
C2073 O2121 1.468 . S
C2073 H2134 0.980 . S
C2074 C2075 1.349 . S
C2074 C2079 1.367 . S
C2074 O2121 1.408 . S
C2075 C2074 1.349 . S
C2075 C2076 1.407 . S
C2075 H2138 0.930 . S
C2076 C2075 1.407 . S
C2076 C2077 1.449 . S
C2076 C2080 1.535 . S
C2077 C2076 1.449 . S
C2077 C2078 1.384 . S
C2077 C2102 1.553 . S
C2078 C2077 1.384 . S
C2078 C2079 1.364 . S
C2078 C2081 1.450 . S
C2079 C2074 1.367 . S
C2079 C2078 1.364 . S
C2079 H2139 0.931 . S
C2080 C2076 1.535 . S
C2080 H2140 0.959 . S
C2080 H2141 0.961 . S
C2080 H2142 0.959 . S
C2081 C2078 1.450 . S
C2081 H2143 0.960 . S
C2081 H2144 0.960 . S
C2081 H2145 0.960 . S
C2082 C2083 1.309 . S
C2082 C2087 1.304 . S
C2082 O2120 1.435 . S
C2083 C2082 1.309 . S
C2083 C2084 1.476 . S
C2083 H2147 0.930 . S
C2084 C2083 1.476 . S
C2084 C2085 1.400 . S
C2084 C2088 1.567 . S
C2085 C2084 1.400 . S
C2085 C2086 1.373 . S
C2085 C2107 1.432 . S
C2086 C2085 1.373 . S
C2086 C2087 1.339 . S
C2086 C2089 1.530 . S
C2087 C2082 1.304 . S
C2087 C2086 1.339 . S
C2087 H2148 0.930 . S
C2088 C2084 1.567 . S
C2088 H2149 0.961 . S
C2088 H2150 0.960 . S
C2088 H2151 0.958 . S
C2089 C2086 1.530 . S
C2089 H2152 0.961 . S
C2089 H2153 0.960 . S
C2089 H2154 0.960 . S
C2090 C2091 1.530 . S
C2090 H2156 0.961 . S
C2090 H2157 0.961 . S
C2090 H2158 0.959 . S
C2091 C2090 1.530 . S
C2091 O2119 1.412 . S
C2091 H2155 0.980 . S
C2092 C2093 1.288 . S
C2092 C2097 1.377 . S
C2092 O2119 1.393 . S
C2093 C2092 1.288 . S
C2093 C2094 1.369 . S
C2093 H2159 0.932 . S
C2094 C2093 1.369 . S
C2094 C2095 1.398 . S
C2094 C2098 1.527 . S
C2095 C2094 1.398 . S
C2095 C2096 1.380 . S
C2095 C2109 1.497 . S
C2096 C2095 1.380 . S
C2096 C2097 1.383 . S
C2096 C2099 1.603 . S
C2097 C2092 1.377 . S
C2097 C2096 1.383 . S
C2097 H2160 0.929 . S
C2098 C2094 1.527 . S
C2098 H2161 0.961 . S
C2098 H2162 0.959 . S
C2098 H2163 0.959 . S
C2099 C2096 1.603 . S
C2099 H2164 0.960 . S
C2099 H2165 0.962 . S
C2099 H2166 0.961 . S
C2100 C2067 1.587 . S
C2100 C2101 1.360 . S
C2100 C2113 1.412 . S
C2101 C2100 1.360 . S
C2101 C2102 1.365 . S
C2101 H2167 0.929 . S
C2102 C2077 1.553 . S
C2102 C2101 1.365 . S
C2102 C2103 1.404 . S
C2103 C2102 1.404 . S
C2103 C2104 1.395 . S
C2103 C2114 1.451 . S
C2104 C2103 1.395 . S
C2104 C2105 1.322 . S
C2104 H2168 0.930 . S
C2105 C2104 1.322 . S
C2105 C2106 1.459 . S
C2105 H2169 0.929 . S
C2106 C2105 1.459 . S
C2106 C2107 1.445 . S
C2106 C2115 1.395 . S
C2107 C2085 1.432 . S
C2107 C2106 1.445 . S
C2107 C2108 1.370 . S
C2108 C2107 1.370 . S
C2108 C2109 1.438 . S
C2108 H2170 0.930 . S
C2109 C2095 1.497 . S
C2109 C2108 1.438 . S
C2109 C2110 1.360 . S
C2110 C2109 1.360 . S
C2110 C2111 1.401 . S
C2110 C2115 1.446 . S
C2111 C2110 1.401 . S
C2111 C2112 1.347 . S
C2111 H2171 0.929 . S
C2112 C2111 1.347 . S
C2112 C2113 1.455 . S
C2112 H2172 0.930 . S
C2113 C2100 1.412 . S
C2113 C2112 1.455 . S
C2113 C2114 1.331 . S
C2114 C2103 1.451 . S
C2114 C2113 1.331 . S
C2114 C2115 1.497 . S
C2115 C2106 1.395 . S
C2115 C2110 1.446 . S
C2115 C2114 1.497 . S
C2116 C2117 1.582 . S
C2116 H2173 0.962 . S
C2116 H2174 0.959 . S
C2116 H2175 0.958 . S
C2117 C2116 1.582 . S
C2117 O2120 1.458 . S
C2117 H2146 0.980 . S
O2118 C2063 1.426 . S
O2118 C2064 1.334 . S
O2119 C2091 1.412 . S
O2119 C2092 1.393 . S
O2120 C2082 1.435 . S
O2120 C2117 1.458 . S
O2121 C2073 1.468 . S
O2121 C2074 1.408 . S
H2122 C2063 0.980 . S
H2123 C2062 0.959 . S
H2124 C2062 0.959 . S
H2125 C2062 0.960 . S
H2126 C2065 0.929 . S
H2127 C2069 0.929 . S
H2128 C2070 0.959 . S
H2129 C2070 0.961 . S
H2130 C2070 0.961 . S
H2131 C2071 0.960 . S
H2132 C2071 0.960 . S
H2133 C2071 0.961 . S
H2134 C2073 0.980 . S
H2135 C2072 0.961 . S
H2136 C2072 0.960 . S
H2137 C2072 0.959 . S
H2138 C2075 0.930 . S
H2139 C2079 0.931 . S
H2140 C2080 0.959 . S
H2141 C2080 0.961 . S
H2142 C2080 0.959 . S
H2143 C2081 0.960 . S
H2144 C2081 0.960 . S
H2145 C2081 0.960 . S
H2146 C2117 0.980 . S
H2147 C2083 0.930 . S
H2148 C2087 0.930 . S
H2149 C2088 0.961 . S
H2150 C2088 0.960 . S
H2151 C2088 0.958 . S
H2152 C2089 0.961 . S
H2153 C2089 0.960 . S
H2154 C2089 0.960 . S
H2155 C2091 0.980 . S
H2156 C2090 0.961 . S
H2157 C2090 0.961 . S
H2158 C2090 0.959 . S
H2159 C2093 0.932 . S
H2160 C2097 0.929 . S
H2161 C2098 0.961 . S
H2162 C2098 0.959 . S
H2163 C2098 0.959 . S
H2164 C2099 0.960 . S
H2165 C2099 0.962 . S
H2166 C2099 0.961 . S
H2167 C2101 0.929 . S
H2168 C2104 0.930 . S
H2169 C2105 0.929 . S
H2170 C2108 0.930 . S
H2171 C2111 0.929 . S
H2172 C2112 0.930 . S
H2173 C2116 0.962 . S
H2174 C2116 0.959 . S
H2175 C2116 0.958 . S
C2176 C2177 1.560 . S
C2176 H2237 0.959 . S
C2176 H2238 0.959 . S
C2176 H2239 0.960 . S
C2177 C2176 1.560 . S
C2177 O2232 1.426 . S
C2177 H2236 0.980 . S
C2178 C2179 1.407 . S
C2178 C2183 1.418 . S
C2178 O2232 1.334 . S
C2179 C2178 1.407 . S
C2179 C2180 1.360 . S
C2179 H2240 0.929 . S
C2180 C2179 1.360 . S
C2180 C2181 1.401 . S
C2180 C2184 1.527 . S
C2181 C2180 1.401 . S
C2181 C2182 1.405 . S
C2181 C2214 1.587 . S
C2182 C2181 1.405 . S
C2182 C2183 1.332 . S
C2182 C2185 1.496 . S
C2183 C2178 1.418 . S
C2183 C2182 1.332 . S
C2183 H2241 0.929 . S
C2184 C2180 1.527 . S
C2184 H2242 0.959 . S
C2184 H2243 0.961 . S
C2184 H2244 0.961 . S
C2185 C2182 1.496 . S
C2185 H2245 0.960 . S
C2185 H2246 0.960 . S
C2185 H2247 0.961 . S
C2186 C2187 1.517 . S
C2186 H2249 0.961 . S
C2186 H2250 0.960 . S
C2186 H2251 0.959 . S
C2187 C2186 1.517 . S
C2187 O2235 1.468 . S
C2187 H2248 0.980 . S
C2188 C2189 1.349 . S
C2188 C2193 1.367 . S
C2188 O2235 1.408 . S
C2189 C2188 1.349 . S
C2189 C2190 1.407 . S
C2189 H2252 0.930 . S
C2190 C2189 1.407 . S
C2190 C2191 1.449 . S
C2190 C2194 1.535 . S
C2191 C2190 1.449 . S
C2191 C2192 1.384 . S
C2191 C2216 1.553 . S
C2192 C2191 1.384 . S
C2192 C2193 1.364 . S
C2192 C2195 1.450 . S
C2193 C2188 1.367 . S
C2193 C2192 1.364 . S
C2193 H2253 0.931 . S
C2194 C2190 1.535 . S
C2194 H2254 0.959 . S
C2194 H2255 0.961 . S
C2194 H2256 0.959 . S
C2195 C2192 1.450 . S
C2195 H2257 0.960 . S
C2195 H2258 0.960 . S
C2195 H2259 0.960 . S
C2196 C2197 1.309 . S
C2196 C2201 1.304 . S
C2196 O2234 1.435 . S
C2197 C2196 1.309 . S
C2197 C2198 1.476 . S
C2197 H2261 0.930 . S
C2198 C2197 1.476 . S
C2198 C2199 1.400 . S
C2198 C2202 1.567 . S
C2199 C2198 1.400 . S
C2199 C2200 1.373 . S
C2199 C2221 1.432 . S
C2200 C2199 1.373 . S
C2200 C2201 1.339 . S
C2200 C2203 1.530 . S
C2201 C2196 1.304 . S
C2201 C2200 1.339 . S
C2201 H2262 0.930 . S
C2202 C2198 1.567 . S
C2202 H2263 0.961 . S
C2202 H2264 0.960 . S
C2202 H2265 0.958 . S
C2203 C2200 1.530 . S
C2203 H2266 0.961 . S
C2203 H2267 0.960 . S
C2203 H2268 0.960 . S
C2204 C2205 1.530 . S
C2204 H2270 0.961 . S
C2204 H2271 0.961 . S
C2204 H2272 0.959 . S
C2205 C2204 1.530 . S
C2205 O2233 1.412 . S
C2205 H2269 0.980 . S
C2206 C2207 1.288 . S
C2206 C2211 1.377 . S
C2206 O2233 1.393 . S
C2207 C2206 1.288 . S
C2207 C2208 1.369 . S
C2207 H2273 0.932 . S
C2208 C2207 1.369 . S
C2208 C2209 1.398 . S
C2208 C2212 1.527 . S
C2209 C2208 1.398 . S
C2209 C2210 1.380 . S
C2209 C2223 1.497 . S
C2210 C2209 1.380 . S
C2210 C2211 1.383 . S
C2210 C2213 1.603 . S
C2211 C2206 1.377 . S
C2211 C2210 1.383 . S
C2211 H2274 0.929 . S
C2212 C2208 1.527 . S
C2212 H2275 0.961 . S
C2212 H2276 0.959 . S
C2212 H2277 0.959 . S
C2213 C2210 1.603 . S
C2213 H2278 0.960 . S
C2213 H2279 0.962 . S
C2213 H2280 0.961 . S
C2214 C2181 1.587 . S
C2214 C2215 1.360 . S
C2214 C2227 1.412 . S
C2215 C2214 1.360 . S
C2215 C2216 1.365 . S
C2215 H2281 0.929 . S
C2216 C2191 1.553 . S
C2216 C2215 1.365 . S
C2216 C2217 1.404 . S
C2217 C2216 1.404 . S
C2217 C2218 1.395 . S
C2217 C2228 1.451 . S
C2218 C2217 1.395 . S
C2218 C2219 1.322 . S
C2218 H2282 0.930 . S
C2219 C2218 1.322 . S
C2219 C2220 1.459 . S
C2219 H2283 0.929 . S
C2220 C2219 1.459 . S
C2220 C2221 1.445 . S
C2220 C2229 1.395 . S
C2221 C2199 1.432 . S
C2221 C2220 1.445 . S
C2221 C2222 1.370 . S
C2222 C2221 1.370 . S
C2222 C2223 1.438 . S
C2222 H2284 0.930 . S
C2223 C2209 1.497 . S
C2223 C2222 1.438 . S
C2223 C2224 1.360 . S
C2224 C2223 1.360 . S
C2224 C2225 1.401 . S
C2224 C2229 1.446 . S
C2225 C2224 1.401 . S
C2225 C2226 1.347 . S
C2225 H2285 0.929 . S
C2226 C2225 1.347 . S
C2226 C2227 1.455 . S
C2226 H2286 0.930 . S
C2227 C2214 1.412 . S
C2227 C2226 1.455 . S
C2227 C2228 1.331 . S
C2228 C2217 1.451 . S
C2228 C2227 1.331 . S
C2228 C2229 1.497 . S
C2229 C2220 1.395 . S
C2229 C2224 1.446 . S
C2229 C2228 1.497 . S
C2230 C2231 1.582 . S
C2230 H2287 0.962 . S
C2230 H2288 0.959 . S
C2230 H2289 0.958 . S
C2231 C2230 1.582 . S
C2231 O2234 1.458 . S
C2231 H2260 0.980 . S
O2232 C2177 1.426 . S
O2232 C2178 1.334 . S
O2233 C2205 1.412 . S
O2233 C2206 1.393 . S
O2234 C2196 1.435 . S
O2234 C2231 1.458 . S
O2235 C2187 1.468 . S
O2235 C2188 1.408 . S
H2236 C2177 0.980 . S
H2237 C2176 0.959 . S
H2238 C2176 0.959 . S
H2239 C2176 0.960 . S
H2240 C2179 0.929 . S
H2241 C2183 0.929 . S
H2242 C2184 0.959 . S
H2243 C2184 0.961 . S
H2244 C2184 0.961 . S
H2245 C2185 0.960 . S
H2246 C2185 0.960 . S
H2247 C2185 0.961 . S
H2248 C2187 0.980 . S
H2249 C2186 0.961 . S
H2250 C2186 0.960 . S
H2251 C2186 0.959 . S
H2252 C2189 0.930 . S
H2253 C2193 0.931 . S
H2254 C2194 0.959 . S
H2255 C2194 0.961 . S
H2256 C2194 0.959 . S
H2257 C2195 0.960 . S
H2258 C2195 0.960 . S
H2259 C2195 0.960 . S
H2260 C2231 0.980 . S
H2261 C2197 0.930 . S
H2262 C2201 0.930 . S
H2263 C2202 0.961 . S
H2264 C2202 0.960 . S
H2265 C2202 0.958 . S
H2266 C2203 0.961 . S
H2267 C2203 0.960 . S
H2268 C2203 0.960 . S
H2269 C2205 0.980 . S
H2270 C2204 0.961 . S
H2271 C2204 0.961 . S
H2272 C2204 0.959 . S
H2273 C2207 0.932 . S
H2274 C2211 0.929 . S
H2275 C2212 0.961 . S
H2276 C2212 0.959 . S
H2277 C2212 0.959 . S
H2278 C2213 0.960 . S
H2279 C2213 0.962 . S
H2280 C2213 0.961 . S
H2281 C2215 0.929 . S
H2282 C2218 0.930 . S
H2283 C2219 0.929 . S
H2284 C2222 0.930 . S
H2285 C2225 0.929 . S
H2286 C2226 0.930 . S
H2287 C2230 0.962 . S
H2288 C2230 0.959 . S
H2289 C2230 0.958 . S
C2290 C2291 1.560 . S
C2290 H2351 0.959 . S
C2290 H2352 0.959 . S
C2290 H2353 0.960 . S
C2291 C2290 1.560 . S
C2291 O2346 1.426 . S
C2291 H2350 0.980 . S
C2292 C2293 1.407 . S
C2292 C2297 1.418 . S
C2292 O2346 1.334 . S
C2293 C2292 1.407 . S
C2293 C2294 1.360 . S
C2293 H2354 0.929 . S
C2294 C2293 1.360 . S
C2294 C2295 1.401 . S
C2294 C2298 1.527 . S
C2295 C2294 1.401 . S
C2295 C2296 1.405 . S
C2295 C2328 1.587 . S
C2296 C2295 1.405 . S
C2296 C2297 1.332 . S
C2296 C2299 1.496 . S
C2297 C2292 1.418 . S
C2297 C2296 1.332 . S
C2297 H2355 0.929 . S
C2298 C2294 1.527 . S
C2298 H2356 0.959 . S
C2298 H2357 0.961 . S
C2298 H2358 0.961 . S
C2299 C2296 1.496 . S
C2299 H2359 0.960 . S
C2299 H2360 0.960 . S
C2299 H2361 0.961 . S
C2300 C2301 1.517 . S
C2300 H2363 0.961 . S
C2300 H2364 0.960 . S
C2300 H2365 0.959 . S
C2301 C2300 1.517 . S
C2301 O2349 1.468 . S
C2301 H2362 0.980 . S
C2302 C2303 1.349 . S
C2302 C2307 1.367 . S
C2302 O2349 1.408 . S
C2303 C2302 1.349 . S
C2303 C2304 1.407 . S
C2303 H2366 0.930 . S
C2304 C2303 1.407 . S
C2304 C2305 1.449 . S
C2304 C2308 1.535 . S
C2305 C2304 1.449 . S
C2305 C2306 1.384 . S
C2305 C2330 1.553 . S
C2306 C2305 1.384 . S
C2306 C2307 1.364 . S
C2306 C2309 1.450 . S
C2307 C2302 1.367 . S
C2307 C2306 1.364 . S
C2307 H2367 0.931 . S
C2308 C2304 1.535 . S
C2308 H2368 0.959 . S
C2308 H2369 0.961 . S
C2308 H2370 0.959 . S
C2309 C2306 1.450 . S
C2309 H2371 0.960 . S
C2309 H2372 0.960 . S
C2309 H2373 0.960 . S
C2310 C2311 1.309 . S
C2310 C2315 1.304 . S
C2310 O2348 1.435 . S
C2311 C2310 1.309 . S
C2311 C2312 1.476 . S
C2311 H2375 0.930 . S
C2312 C2311 1.476 . S
C2312 C2313 1.400 . S
C2312 C2316 1.567 . S
C2313 C2312 1.400 . S
C2313 C2314 1.373 . S
C2313 C2335 1.432 . S
C2314 C2313 1.373 . S
C2314 C2315 1.339 . S
C2314 C2317 1.530 . S
C2315 C2310 1.304 . S
C2315 C2314 1.339 . S
C2315 H2376 0.930 . S
C2316 C2312 1.567 . S
C2316 H2377 0.961 . S
C2316 H2378 0.960 . S
C2316 H2379 0.958 . S
C2317 C2314 1.530 . S
C2317 H2380 0.961 . S
C2317 H2381 0.960 . S
C2317 H2382 0.960 . S
C2318 C2319 1.530 . S
C2318 H2384 0.961 . S
C2318 H2385 0.961 . S
C2318 H2386 0.959 . S
C2319 C2318 1.530 . S
C2319 O2347 1.412 . S
C2319 H2383 0.980 . S
C2320 C2321 1.288 . S
C2320 C2325 1.377 . S
C2320 O2347 1.393 . S
C2321 C2320 1.288 . S
C2321 C2322 1.369 . S
C2321 H2387 0.932 . S
C2322 C2321 1.369 . S
C2322 C2323 1.398 . S
C2322 C2326 1.527 . S
C2323 C2322 1.398 . S
C2323 C2324 1.380 . S
C2323 C2337 1.497 . S
C2324 C2323 1.380 . S
C2324 C2325 1.383 . S
C2324 C2327 1.603 . S
C2325 C2320 1.377 . S
C2325 C2324 1.383 . S
C2325 H2388 0.929 . S
C2326 C2322 1.527 . S
C2326 H2389 0.961 . S
C2326 H2390 0.959 . S
C2326 H2391 0.959 . S
C2327 C2324 1.603 . S
C2327 H2392 0.960 . S
C2327 H2393 0.962 . S
C2327 H2394 0.961 . S
C2328 C2295 1.587 . S
C2328 C2329 1.360 . S
C2328 C2341 1.412 . S
C2329 C2328 1.360 . S
C2329 C2330 1.365 . S
C2329 H2395 0.929 . S
C2330 C2305 1.553 . S
C2330 C2329 1.365 . S
C2330 C2331 1.404 . S
C2331 C2330 1.404 . S
C2331 C2332 1.395 . S
C2331 C2342 1.451 . S
C2332 C2331 1.395 . S
C2332 C2333 1.322 . S
C2332 H2396 0.930 . S
C2333 C2332 1.322 . S
C2333 C2334 1.459 . S
C2333 H2397 0.929 . S
C2334 C2333 1.459 . S
C2334 C2335 1.445 . S
C2334 C2343 1.395 . S
C2335 C2313 1.432 . S
C2335 C2334 1.445 . S
C2335 C2336 1.370 . S
C2336 C2335 1.370 . S
C2336 C2337 1.438 . S
C2336 H2398 0.930 . S
C2337 C2323 1.497 . S
C2337 C2336 1.438 . S
C2337 C2338 1.360 . S
C2338 C2337 1.360 . S
C2338 C2339 1.401 . S
C2338 C2343 1.446 . S
C2339 C2338 1.401 . S
C2339 C2340 1.347 . S
C2339 H2399 0.929 . S
C2340 C2339 1.347 . S
C2340 C2341 1.455 . S
C2340 H2400 0.930 . S
C2341 C2328 1.412 . S
C2341 C2340 1.455 . S
C2341 C2342 1.331 . S
C2342 C2331 1.451 . S
C2342 C2341 1.331 . S
C2342 C2343 1.497 . S
C2343 C2334 1.395 . S
C2343 C2338 1.446 . S
C2343 C2342 1.497 . S
C2344 C2345 1.582 . S
C2344 H2401 0.962 . S
C2344 H2402 0.959 . S
C2344 H2403 0.958 . S
C2345 C2344 1.582 . S
C2345 O2348 1.458 . S
C2345 H2374 0.980 . S
O2346 C2291 1.426 . S
O2346 C2292 1.334 . S
O2347 C2319 1.412 . S
O2347 C2320 1.393 . S
O2348 C2310 1.435 . S
O2348 C2345 1.458 . S
O2349 C2301 1.468 . S
O2349 C2302 1.408 . S
H2350 C2291 0.980 . S
H2351 C2290 0.959 . S
H2352 C2290 0.959 . S
H2353 C2290 0.960 . S
H2354 C2293 0.929 . S
H2355 C2297 0.929 . S
H2356 C2298 0.959 . S
H2357 C2298 0.961 . S
H2358 C2298 0.961 . S
H2359 C2299 0.960 . S
H2360 C2299 0.960 . S
H2361 C2299 0.961 . S
H2362 C2301 0.980 . S
H2363 C2300 0.961 . S
H2364 C2300 0.960 . S
H2365 C2300 0.959 . S
H2366 C2303 0.930 . S
H2367 C2307 0.931 . S
H2368 C2308 0.959 . S
H2369 C2308 0.961 . S
H2370 C2308 0.959 . S
H2371 C2309 0.960 . S
H2372 C2309 0.960 . S
H2373 C2309 0.960 . S
H2374 C2345 0.980 . S
H2375 C2311 0.930 . S
H2376 C2315 0.930 . S
H2377 C2316 0.961 . S
H2378 C2316 0.960 . S
H2379 C2316 0.958 . S
H2380 C2317 0.961 . S
H2381 C2317 0.960 . S
H2382 C2317 0.960 . S
H2383 C2319 0.980 . S
H2384 C2318 0.961 . S
H2385 C2318 0.961 . S
H2386 C2318 0.959 . S
H2387 C2321 0.932 . S
H2388 C2325 0.929 . S
H2389 C2326 0.961 . S
H2390 C2326 0.959 . S
H2391 C2326 0.959 . S
H2392 C2327 0.960 . S
H2393 C2327 0.962 . S
H2394 C2327 0.961 . S
H2395 C2329 0.929 . S
H2396 C2332 0.930 . S
H2397 C2333 0.929 . S
H2398 C2336 0.930 . S
H2399 C2339 0.929 . S
H2400 C2340 0.930 . S
H2401 C2344 0.962 . S
H2402 C2344 0.959 . S
H2403 C2344 0.958 . S
C2404 C2405 1.560 . S
C2404 H2465 0.959 . S
C2404 H2466 0.959 . S
C2404 H2467 0.960 . S
C2405 C2404 1.560 . S
C2405 O2460 1.426 . S
C2405 H2464 0.980 . S
C2406 C2407 1.407 . S
C2406 C2411 1.418 . S
C2406 O2460 1.334 . S
C2407 C2406 1.407 . S
C2407 C2408 1.360 . S
C2407 H2468 0.929 . S
C2408 C2407 1.360 . S
C2408 C2409 1.401 . S
C2408 C2412 1.527 . S
C2409 C2408 1.401 . S
C2409 C2410 1.405 . S
C2409 C2442 1.587 . S
C2410 C2409 1.405 . S
C2410 C2411 1.332 . S
C2410 C2413 1.496 . S
C2411 C2406 1.418 . S
C2411 C2410 1.332 . S
C2411 H2469 0.929 . S
C2412 C2408 1.527 . S
C2412 H2470 0.959 . S
C2412 H2471 0.961 . S
C2412 H2472 0.961 . S
C2413 C2410 1.496 . S
C2413 H2473 0.960 . S
C2413 H2474 0.960 . S
C2413 H2475 0.961 . S
C2414 C2415 1.517 . S
C2414 H2477 0.961 . S
C2414 H2478 0.960 . S
C2414 H2479 0.959 . S
C2415 C2414 1.517 . S
C2415 O2463 1.468 . S
C2415 H2476 0.980 . S
C2416 C2417 1.349 . S
C2416 C2421 1.367 . S
C2416 O2463 1.408 . S
C2417 C2416 1.349 . S
C2417 C2418 1.407 . S
C2417 H2480 0.930 . S
C2418 C2417 1.407 . S
C2418 C2419 1.449 . S
C2418 C2422 1.535 . S
C2419 C2418 1.449 . S
C2419 C2420 1.384 . S
C2419 C2444 1.553 . S
C2420 C2419 1.384 . S
C2420 C2421 1.364 . S
C2420 C2423 1.450 . S
C2421 C2416 1.367 . S
C2421 C2420 1.364 . S
C2421 H2481 0.931 . S
C2422 C2418 1.535 . S
C2422 H2482 0.959 . S
C2422 H2483 0.961 . S
C2422 H2484 0.959 . S
C2423 C2420 1.450 . S
C2423 H2485 0.960 . S
C2423 H2486 0.960 . S
C2423 H2487 0.960 . S
C2424 C2425 1.309 . S
C2424 C2429 1.304 . S
C2424 O2462 1.435 . S
C2425 C2424 1.309 . S
C2425 C2426 1.476 . S
C2425 H2489 0.930 . S
C2426 C2425 1.476 . S
C2426 C2427 1.400 . S
C2426 C2430 1.567 . S
C2427 C2426 1.400 . S
C2427 C2428 1.373 . S
C2427 C2449 1.432 . S
C2428 C2427 1.373 . S
C2428 C2429 1.339 . S
C2428 C2431 1.530 . S
C2429 C2424 1.304 . S
C2429 C2428 1.339 . S
C2429 H2490 0.930 . S
C2430 C2426 1.567 . S
C2430 H2491 0.961 . S
C2430 H2492 0.960 . S
C2430 H2493 0.958 . S
C2431 C2428 1.530 . S
C2431 H2494 0.961 . S
C2431 H2495 0.960 . S
C2431 H2496 0.960 . S
C2432 C2433 1.530 . S
C2432 H2498 0.961 . S
C2432 H2499 0.961 . S
C2432 H2500 0.959 . S
C2433 C2432 1.530 . S
C2433 O2461 1.412 . S
C2433 H2497 0.980 . S
C2434 C2435 1.288 . S
C2434 C2439 1.377 . S
C2434 O2461 1.393 . S
C2435 C2434 1.288 . S
C2435 C2436 1.369 . S
C2435 H2501 0.932 . S
C2436 C2435 1.369 . S
C2436 C2437 1.398 . S
C2436 C2440 1.527 . S
C2437 C2436 1.398 . S
C2437 C2438 1.380 . S
C2437 C2451 1.497 . S
C2438 C2437 1.380 . S
C2438 C2439 1.383 . S
C2438 C2441 1.603 . S
C2439 C2434 1.377 . S
C2439 C2438 1.383 . S
C2439 H2502 0.929 . S
C2440 C2436 1.527 . S
C2440 H2503 0.961 . S
C2440 H2504 0.959 . S
C2440 H2505 0.959 . S
C2441 C2438 1.603 . S
C2441 H2506 0.960 . S
C2441 H2507 0.962 . S
C2441 H2508 0.961 . S
C2442 C2409 1.587 . S
C2442 C2443 1.360 . S
C2442 C2455 1.412 . S
C2443 C2442 1.360 . S
C2443 C2444 1.365 . S
C2443 H2509 0.929 . S
C2444 C2419 1.553 . S
C2444 C2443 1.365 . S
C2444 C2445 1.404 . S
C2445 C2444 1.404 . S
C2445 C2446 1.395 . S
C2445 C2456 1.451 . S
C2446 C2445 1.395 . S
C2446 C2447 1.322 . S
C2446 H2510 0.930 . S
C2447 C2446 1.322 . S
C2447 C2448 1.459 . S
C2447 H2511 0.929 . S
C2448 C2447 1.459 . S
C2448 C2449 1.445 . S
C2448 C2457 1.395 . S
C2449 C2427 1.432 . S
C2449 C2448 1.445 . S
C2449 C2450 1.370 . S
C2450 C2449 1.370 . S
C2450 C2451 1.438 . S
C2450 H2512 0.930 . S
C2451 C2437 1.497 . S
C2451 C2450 1.438 . S
C2451 C2452 1.360 . S
C2452 C2451 1.360 . S
C2452 C2453 1.401 . S
C2452 C2457 1.446 . S
C2453 C2452 1.401 . S
C2453 C2454 1.347 . S
C2453 H2513 0.929 . S
C2454 C2453 1.347 . S
C2454 C2455 1.455 . S
C2454 H2514 0.930 . S
C2455 C2442 1.412 . S
C2455 C2454 1.455 . S
C2455 C2456 1.331 . S
C2456 C2445 1.451 . S
C2456 C2455 1.331 . S
C2456 C2457 1.497 . S
C2457 C2448 1.395 . S
C2457 C2452 1.446 . S
C2457 C2456 1.497 . S
C2458 C2459 1.582 . S
C2458 H2515 0.962 . S
C2458 H2516 0.959 . S
C2458 H2517 0.958 . S
C2459 C2458 1.582 . S
C2459 O2462 1.458 . S
C2459 H2488 0.980 . S
O2460 C2405 1.426 . S
O2460 C2406 1.334 . S
O2461 C2433 1.412 . S
O2461 C2434 1.393 . S
O2462 C2424 1.435 . S
O2462 C2459 1.458 . S
O2463 C2415 1.468 . S
O2463 C2416 1.408 . S
H2464 C2405 0.980 . S
H2465 C2404 0.959 . S
H2466 C2404 0.959 . S
H2467 C2404 0.960 . S
H2468 C2407 0.929 . S
H2469 C2411 0.929 . S
H2470 C2412 0.959 . S
H2471 C2412 0.961 . S
H2472 C2412 0.961 . S
H2473 C2413 0.960 . S
H2474 C2413 0.960 . S
H2475 C2413 0.961 . S
H2476 C2415 0.980 . S
H2477 C2414 0.961 . S
H2478 C2414 0.960 . S
H2479 C2414 0.959 . S
H2480 C2417 0.930 . S
H2481 C2421 0.931 . S
H2482 C2422 0.959 . S
H2483 C2422 0.961 . S
H2484 C2422 0.959 . S
H2485 C2423 0.960 . S
H2486 C2423 0.960 . S
H2487 C2423 0.960 . S
H2488 C2459 0.980 . S
H2489 C2425 0.930 . S
H2490 C2429 0.930 . S
H2491 C2430 0.961 . S
H2492 C2430 0.960 . S
H2493 C2430 0.958 . S
H2494 C2431 0.961 . S
H2495 C2431 0.960 . S
H2496 C2431 0.960 . S
H2497 C2433 0.980 . S
H2498 C2432 0.961 . S
H2499 C2432 0.961 . S
H2500 C2432 0.959 . S
H2501 C2435 0.932 . S
H2502 C2439 0.929 . S
H2503 C2440 0.961 . S
H2504 C2440 0.959 . S
H2505 C2440 0.959 . S
H2506 C2441 0.960 . S
H2507 C2441 0.962 . S
H2508 C2441 0.961 . S
H2509 C2443 0.929 . S
H2510 C2446 0.930 . S
H2511 C2447 0.929 . S
H2512 C2450 0.930 . S
H2513 C2453 0.929 . S
H2514 C2454 0.930 . S
H2515 C2458 0.962 . S
H2516 C2458 0.959 . S
H2517 C2458 0.958 . S
C2518 C2519 1.560 . S
C2518 H2579 0.959 . S
C2518 H2580 0.959 . S
C2518 H2581 0.960 . S
C2519 C2518 1.560 . S
C2519 O2574 1.426 . S
C2519 H2578 0.980 . S
C2520 C2521 1.407 . S
C2520 C2525 1.418 . S
C2520 O2574 1.334 . S
C2521 C2520 1.407 . S
C2521 C2522 1.360 . S
C2521 H2582 0.929 . S
C2522 C2521 1.360 . S
C2522 C2523 1.401 . S
C2522 C2526 1.527 . S
C2523 C2522 1.401 . S
C2523 C2524 1.405 . S
C2523 C2556 1.587 . S
C2524 C2523 1.405 . S
C2524 C2525 1.332 . S
C2524 C2527 1.496 . S
C2525 C2520 1.418 . S
C2525 C2524 1.332 . S
C2525 H2583 0.929 . S
C2526 C2522 1.527 . S
C2526 H2584 0.959 . S
C2526 H2585 0.961 . S
C2526 H2586 0.961 . S
C2527 C2524 1.496 . S
C2527 H2587 0.960 . S
C2527 H2588 0.960 . S
C2527 H2589 0.961 . S
C2528 C2529 1.517 . S
C2528 H2591 0.961 . S
C2528 H2592 0.960 . S
C2528 H2593 0.959 . S
C2529 C2528 1.517 . S
C2529 O2577 1.468 . S
C2529 H2590 0.980 . S
C2530 C2531 1.349 . S
C2530 C2535 1.367 . S
C2530 O2577 1.408 . S
C2531 C2530 1.349 . S
C2531 C2532 1.407 . S
C2531 H2594 0.930 . S
C2532 C2531 1.407 . S
C2532 C2533 1.449 . S
C2532 C2536 1.535 . S
C2533 C2532 1.449 . S
C2533 C2534 1.384 . S
C2533 C2558 1.553 . S
C2534 C2533 1.384 . S
C2534 C2535 1.364 . S
C2534 C2537 1.450 . S
C2535 C2530 1.367 . S
C2535 C2534 1.364 . S
C2535 H2595 0.931 . S
C2536 C2532 1.535 . S
C2536 H2596 0.959 . S
C2536 H2597 0.961 . S
C2536 H2598 0.959 . S
C2537 C2534 1.450 . S
C2537 H2599 0.960 . S
C2537 H2600 0.960 . S
C2537 H2601 0.960 . S
C2538 C2539 1.309 . S
C2538 C2543 1.304 . S
C2538 O2576 1.435 . S
C2539 C2538 1.309 . S
C2539 C2540 1.476 . S
C2539 H2603 0.930 . S
C2540 C2539 1.476 . S
C2540 C2541 1.400 . S
C2540 C2544 1.567 . S
C2541 C2540 1.400 . S
C2541 C2542 1.373 . S
C2541 C2563 1.432 . S
C2542 C2541 1.373 . S
C2542 C2543 1.339 . S
C2542 C2545 1.530 . S
C2543 C2538 1.304 . S
C2543 C2542 1.339 . S
C2543 H2604 0.930 . S
C2544 C2540 1.567 . S
C2544 H2605 0.961 . S
C2544 H2606 0.960 . S
C2544 H2607 0.958 . S
C2545 C2542 1.530 . S
C2545 H2608 0.961 . S
C2545 H2609 0.960 . S
C2545 H2610 0.960 . S
C2546 C2547 1.530 . S
C2546 H2612 0.961 . S
C2546 H2613 0.961 . S
C2546 H2614 0.959 . S
C2547 C2546 1.530 . S
C2547 O2575 1.412 . S
C2547 H2611 0.980 . S
C2548 C2549 1.288 . S
C2548 C2553 1.377 . S
C2548 O2575 1.393 . S
C2549 C2548 1.288 . S
C2549 C2550 1.369 . S
C2549 H2615 0.932 . S
C2550 C2549 1.369 . S
C2550 C2551 1.398 . S
C2550 C2554 1.527 . S
C2551 C2550 1.398 . S
C2551 C2552 1.380 . S
C2551 C2565 1.497 . S
C2552 C2551 1.380 . S
C2552 C2553 1.383 . S
C2552 C2555 1.603 . S
C2553 C2548 1.377 . S
C2553 C2552 1.383 . S
C2553 H2616 0.929 . S
C2554 C2550 1.527 . S
C2554 H2617 0.961 . S
C2554 H2618 0.959 . S
C2554 H2619 0.959 . S
C2555 C2552 1.603 . S
C2555 H2620 0.960 . S
C2555 H2621 0.962 . S
C2555 H2622 0.961 . S
C2556 C2523 1.587 . S
C2556 C2557 1.360 . S
C2556 C2569 1.412 . S
C2557 C2556 1.360 . S
C2557 C2558 1.365 . S
C2557 H2623 0.929 . S
C2558 C2533 1.553 . S
C2558 C2557 1.365 . S
C2558 C2559 1.404 . S
C2559 C2558 1.404 . S
C2559 C2560 1.395 . S
C2559 C2570 1.451 . S
C2560 C2559 1.395 . S
C2560 C2561 1.322 . S
C2560 H2624 0.930 . S
C2561 C2560 1.322 . S
C2561 C2562 1.459 . S
C2561 H2625 0.929 . S
C2562 C2561 1.459 . S
C2562 C2563 1.445 . S
C2562 C2571 1.395 . S
C2563 C2541 1.432 . S
C2563 C2562 1.445 . S
C2563 C2564 1.370 . S
C2564 C2563 1.370 . S
C2564 C2565 1.438 . S
C2564 H2626 0.930 . S
C2565 C2551 1.497 . S
C2565 C2564 1.438 . S
C2565 C2566 1.360 . S
C2566 C2565 1.360 . S
C2566 C2567 1.401 . S
C2566 C2571 1.446 . S
C2567 C2566 1.401 . S
C2567 C2568 1.347 . S
C2567 H2627 0.929 . S
C2568 C2567 1.347 . S
C2568 C2569 1.455 . S
C2568 H2628 0.930 . S
C2569 C2556 1.412 . S
C2569 C2568 1.455 . S
C2569 C2570 1.331 . S
C2570 C2559 1.451 . S
C2570 C2569 1.331 . S
C2570 C2571 1.497 . S
C2571 C2562 1.395 . S
C2571 C2566 1.446 . S
C2571 C2570 1.497 . S
C2572 C2573 1.582 . S
C2572 H2629 0.962 . S
C2572 H2630 0.959 . S
C2572 H2631 0.958 . S
C2573 C2572 1.582 . S
C2573 O2576 1.458 . S
C2573 H2602 0.980 . S
O2574 C2519 1.426 . S
O2574 C2520 1.334 . S
O2575 C2547 1.412 . S
O2575 C2548 1.393 . S
O2576 C2538 1.435 . S
O2576 C2573 1.458 . S
O2577 C2529 1.468 . S
O2577 C2530 1.408 . S
H2578 C2519 0.980 . S
H2579 C2518 0.959 . S
H2580 C2518 0.959 . S
H2581 C2518 0.960 . S
H2582 C2521 0.929 . S
H2583 C2525 0.929 . S
H2584 C2526 0.959 . S
H2585 C2526 0.961 . S
H2586 C2526 0.961 . S
H2587 C2527 0.960 . S
H2588 C2527 0.960 . S
H2589 C2527 0.961 . S
H2590 C2529 0.980 . S
H2591 C2528 0.961 . S
H2592 C2528 0.960 . S
H2593 C2528 0.959 . S
H2594 C2531 0.930 . S
H2595 C2535 0.931 . S
H2596 C2536 0.959 . S
H2597 C2536 0.961 . S
H2598 C2536 0.959 . S
H2599 C2537 0.960 . S
H2600 C2537 0.960 . S
H2601 C2537 0.960 . S
H2602 C2573 0.980 . S
H2603 C2539 0.930 . S
H2604 C2543 0.930 . S
H2605 C2544 0.961 . S
H2606 C2544 0.960 . S
H2607 C2544 0.958 . S
H2608 C2545 0.961 . S
H2609 C2545 0.960 . S
H2610 C2545 0.960 . S
H2611 C2547 0.980 . S
H2612 C2546 0.961 . S
H2613 C2546 0.961 . S
H2614 C2546 0.959 . S
H2615 C2549 0.932 . S
H2616 C2553 0.929 . S
H2617 C2554 0.961 . S
H2618 C2554 0.959 . S
H2619 C2554 0.959 . S
H2620 C2555 0.960 . S
H2621 C2555 0.962 . S
H2622 C2555 0.961 . S
H2623 C2557 0.929 . S
H2624 C2560 0.930 . S
H2625 C2561 0.929 . S
H2626 C2564 0.930 . S
H2627 C2567 0.929 . S
H2628 C2568 0.930 . S
H2629 C2572 0.962 . S
H2630 C2572 0.959 . S
H2631 C2572 0.958 . S
C2632 C2633 1.560 . S
C2632 H2693 0.959 . S
C2632 H2694 0.959 . S
C2632 H2695 0.960 . S
C2633 C2632 1.560 . S
C2633 O2688 1.426 . S
C2633 H2692 0.980 . S
C2634 C2635 1.407 . S
C2634 C2639 1.418 . S
C2634 O2688 1.334 . S
C2635 C2634 1.407 . S
C2635 C2636 1.360 . S
C2635 H2696 0.929 . S
C2636 C2635 1.360 . S
C2636 C2637 1.401 . S
C2636 C2640 1.527 . S
C2637 C2636 1.401 . S
C2637 C2638 1.405 . S
C2637 C2670 1.587 . S
C2638 C2637 1.405 . S
C2638 C2639 1.332 . S
C2638 C2641 1.496 . S
C2639 C2634 1.418 . S
C2639 C2638 1.332 . S
C2639 H2697 0.929 . S
C2640 C2636 1.527 . S
C2640 H2698 0.959 . S
C2640 H2699 0.961 . S
C2640 H2700 0.961 . S
C2641 C2638 1.496 . S
C2641 H2701 0.960 . S
C2641 H2702 0.960 . S
C2641 H2703 0.961 . S
C2642 C2643 1.517 . S
C2642 H2705 0.961 . S
C2642 H2706 0.960 . S
C2642 H2707 0.959 . S
C2643 C2642 1.517 . S
C2643 O2691 1.468 . S
C2643 H2704 0.980 . S
C2644 C2645 1.349 . S
C2644 C2649 1.367 . S
C2644 O2691 1.408 . S
C2645 C2644 1.349 . S
C2645 C2646 1.407 . S
C2645 H2708 0.930 . S
C2646 C2645 1.407 . S
C2646 C2647 1.449 . S
C2646 C2650 1.535 . S
C2647 C2646 1.449 . S
C2647 C2648 1.384 . S
C2647 C2672 1.553 . S
C2648 C2647 1.384 . S
C2648 C2649 1.364 . S
C2648 C2651 1.450 . S
C2649 C2644 1.367 . S
C2649 C2648 1.364 . S
C2649 H2709 0.931 . S
C2650 C2646 1.535 . S
C2650 H2710 0.959 . S
C2650 H2711 0.961 . S
C2650 H2712 0.959 . S
C2651 C2648 1.450 . S
C2651 H2713 0.960 . S
C2651 H2714 0.960 . S
C2651 H2715 0.960 . S
C2652 C2653 1.309 . S
C2652 C2657 1.304 . S
C2652 O2690 1.435 . S
C2653 C2652 1.309 . S
C2653 C2654 1.476 . S
C2653 H2717 0.930 . S
C2654 C2653 1.476 . S
C2654 C2655 1.400 . S
C2654 C2658 1.567 . S
C2655 C2654 1.400 . S
C2655 C2656 1.373 . S
C2655 C2677 1.432 . S
C2656 C2655 1.373 . S
C2656 C2657 1.339 . S
C2656 C2659 1.530 . S
C2657 C2652 1.304 . S
C2657 C2656 1.339 . S
C2657 H2718 0.930 . S
C2658 C2654 1.567 . S
C2658 H2719 0.961 . S
C2658 H2720 0.960 . S
C2658 H2721 0.958 . S
C2659 C2656 1.530 . S
C2659 H2722 0.961 . S
C2659 H2723 0.960 . S
C2659 H2724 0.960 . S
C2660 C2661 1.530 . S
C2660 H2726 0.961 . S
C2660 H2727 0.961 . S
C2660 H2728 0.959 . S
C2661 C2660 1.530 . S
C2661 O2689 1.412 . S
C2661 H2725 0.980 . S
C2662 C2663 1.288 . S
C2662 C2667 1.377 . S
C2662 O2689 1.393 . S
C2663 C2662 1.288 . S
C2663 C2664 1.369 . S
C2663 H2729 0.932 . S
C2664 C2663 1.369 . S
C2664 C2665 1.398 . S
C2664 C2668 1.527 . S
C2665 C2664 1.398 . S
C2665 C2666 1.380 . S
C2665 C2679 1.497 . S
C2666 C2665 1.380 . S
C2666 C2667 1.383 . S
C2666 C2669 1.603 . S
C2667 C2662 1.377 . S
C2667 C2666 1.383 . S
C2667 H2730 0.929 . S
C2668 C2664 1.527 . S
C2668 H2731 0.961 . S
C2668 H2732 0.959 . S
C2668 H2733 0.959 . S
C2669 C2666 1.603 . S
C2669 H2734 0.960 . S
C2669 H2735 0.962 . S
C2669 H2736 0.961 . S
C2670 C2637 1.587 . S
C2670 C2671 1.360 . S
C2670 C2683 1.412 . S
C2671 C2670 1.360 . S
C2671 C2672 1.365 . S
C2671 H2737 0.929 . S
C2672 C2647 1.553 . S
C2672 C2671 1.365 . S
C2672 C2673 1.404 . S
C2673 C2672 1.404 . S
C2673 C2674 1.395 . S
C2673 C2684 1.451 . S
C2674 C2673 1.395 . S
C2674 C2675 1.322 . S
C2674 H2738 0.930 . S
C2675 C2674 1.322 . S
C2675 C2676 1.459 . S
C2675 H2739 0.929 . S
C2676 C2675 1.459 . S
C2676 C2677 1.445 . S
C2676 C2685 1.395 . S
C2677 C2655 1.432 . S
C2677 C2676 1.445 . S
C2677 C2678 1.370 . S
C2678 C2677 1.370 . S
C2678 C2679 1.438 . S
C2678 H2740 0.930 . S
C2679 C2665 1.497 . S
C2679 C2678 1.438 . S
C2679 C2680 1.360 . S
C2680 C2679 1.360 . S
C2680 C2681 1.401 . S
C2680 C2685 1.446 . S
C2681 C2680 1.401 . S
C2681 C2682 1.347 . S
C2681 H2741 0.929 . S
C2682 C2681 1.347 . S
C2682 C2683 1.455 . S
C2682 H2742 0.930 . S
C2683 C2670 1.412 . S
C2683 C2682 1.455 . S
C2683 C2684 1.331 . S
C2684 C2673 1.451 . S
C2684 C2683 1.331 . S
C2684 C2685 1.497 . S
C2685 C2676 1.395 . S
C2685 C2680 1.446 . S
C2685 C2684 1.497 . S
C2686 C2687 1.582 . S
C2686 H2743 0.962 . S
C2686 H2744 0.959 . S
C2686 H2745 0.958 . S
C2687 C2686 1.582 . S
C2687 O2690 1.458 . S
C2687 H2716 0.980 . S
O2688 C2633 1.426 . S
O2688 C2634 1.334 . S
O2689 C2661 1.412 . S
O2689 C2662 1.393 . S
O2690 C2652 1.435 . S
O2690 C2687 1.458 . S
O2691 C2643 1.468 . S
O2691 C2644 1.408 . S
H2692 C2633 0.980 . S
H2693 C2632 0.959 . S
H2694 C2632 0.959 . S
H2695 C2632 0.960 . S
H2696 C2635 0.929 . S
H2697 C2639 0.929 . S
H2698 C2640 0.959 . S
H2699 C2640 0.961 . S
H2700 C2640 0.961 . S
H2701 C2641 0.960 . S
H2702 C2641 0.960 . S
H2703 C2641 0.961 . S
H2704 C2643 0.980 . S
H2705 C2642 0.961 . S
H2706 C2642 0.960 . S
H2707 C2642 0.959 . S
H2708 C2645 0.930 . S
H2709 C2649 0.931 . S
H2710 C2650 0.959 . S
H2711 C2650 0.961 . S
H2712 C2650 0.959 . S
H2713 C2651 0.960 . S
H2714 C2651 0.960 . S
H2715 C2651 0.960 . S
H2716 C2687 0.980 . S
H2717 C2653 0.930 . S
H2718 C2657 0.930 . S
H2719 C2658 0.961 . S
H2720 C2658 0.960 . S
H2721 C2658 0.958 . S
H2722 C2659 0.961 . S
H2723 C2659 0.960 . S
H2724 C2659 0.960 . S
H2725 C2661 0.980 . S
H2726 C2660 0.961 . S
H2727 C2660 0.961 . S
H2728 C2660 0.959 . S
H2729 C2663 0.932 . S
H2730 C2667 0.929 . S
H2731 C2668 0.961 . S
H2732 C2668 0.959 . S
H2733 C2668 0.959 . S
H2734 C2669 0.960 . S
H2735 C2669 0.962 . S
H2736 C2669 0.961 . S
H2737 C2671 0.929 . S
H2738 C2674 0.930 . S
H2739 C2675 0.929 . S
H2740 C2678 0.930 . S
H2741 C2681 0.929 . S
H2742 C2682 0.930 . S
H2743 C2686 0.962 . S
H2744 C2686 0.959 . S
H2745 C2686 0.958 . S
C2746 C2747 1.560 . S
C2746 H2807 0.959 . S
C2746 H2808 0.959 . S
C2746 H2809 0.960 . S
C2747 C2746 1.560 . S
C2747 O2802 1.426 . S
C2747 H2806 0.980 . S
C2748 C2749 1.407 . S
C2748 C2753 1.418 . S
C2748 O2802 1.334 . S
C2749 C2748 1.407 . S
C2749 C2750 1.360 . S
C2749 H2810 0.929 . S
C2750 C2749 1.360 . S
C2750 C2751 1.401 . S
C2750 C2754 1.527 . S
C2751 C2750 1.401 . S
C2751 C2752 1.405 . S
C2751 C2784 1.587 . S
C2752 C2751 1.405 . S
C2752 C2753 1.332 . S
C2752 C2755 1.496 . S
C2753 C2748 1.418 . S
C2753 C2752 1.332 . S
C2753 H2811 0.929 . S
C2754 C2750 1.527 . S
C2754 H2812 0.959 . S
C2754 H2813 0.961 . S
C2754 H2814 0.961 . S
C2755 C2752 1.496 . S
C2755 H2815 0.960 . S
C2755 H2816 0.960 . S
C2755 H2817 0.961 . S
C2756 C2757 1.517 . S
C2756 H2819 0.961 . S
C2756 H2820 0.960 . S
C2756 H2821 0.959 . S
C2757 C2756 1.517 . S
C2757 O2805 1.468 . S
C2757 H2818 0.980 . S
C2758 C2759 1.349 . S
C2758 C2763 1.367 . S
C2758 O2805 1.408 . S
C2759 C2758 1.349 . S
C2759 C2760 1.407 . S
C2759 H2822 0.930 . S
C2760 C2759 1.407 . S
C2760 C2761 1.449 . S
C2760 C2764 1.535 . S
C2761 C2760 1.449 . S
C2761 C2762 1.384 . S
C2761 C2786 1.553 . S
C2762 C2761 1.384 . S
C2762 C2763 1.364 . S
C2762 C2765 1.450 . S
C2763 C2758 1.367 . S
C2763 C2762 1.364 . S
C2763 H2823 0.931 . S
C2764 C2760 1.535 . S
C2764 H2824 0.959 . S
C2764 H2825 0.961 . S
C2764 H2826 0.959 . S
C2765 C2762 1.450 . S
C2765 H2827 0.960 . S
C2765 H2828 0.960 . S
C2765 H2829 0.960 . S
C2766 C2767 1.309 . S
C2766 C2771 1.304 . S
C2766 O2804 1.435 . S
C2767 C2766 1.309 . S
C2767 C2768 1.476 . S
C2767 H2831 0.930 . S
C2768 C2767 1.476 . S
C2768 C2769 1.400 . S
C2768 C2772 1.567 . S
C2769 C2768 1.400 . S
C2769 C2770 1.373 . S
C2769 C2791 1.432 . S
C2770 C2769 1.373 . S
C2770 C2771 1.339 . S
C2770 C2773 1.530 . S
C2771 C2766 1.304 . S
C2771 C2770 1.339 . S
C2771 H2832 0.930 . S
C2772 C2768 1.567 . S
C2772 H2833 0.961 . S
C2772 H2834 0.960 . S
C2772 H2835 0.958 . S
C2773 C2770 1.530 . S
C2773 H2836 0.961 . S
C2773 H2837 0.960 . S
C2773 H2838 0.960 . S
C2774 C2775 1.530 . S
C2774 H2840 0.961 . S
C2774 H2841 0.961 . S
C2774 H2842 0.959 . S
C2775 C2774 1.530 . S
C2775 O2803 1.412 . S
C2775 H2839 0.980 . S
C2776 C2777 1.288 . S
C2776 C2781 1.377 . S
C2776 O2803 1.393 . S
C2777 C2776 1.288 . S
C2777 C2778 1.369 . S
C2777 H2843 0.932 . S
C2778 C2777 1.369 . S
C2778 C2779 1.398 . S
C2778 C2782 1.527 . S
C2779 C2778 1.398 . S
C2779 C2780 1.380 . S
C2779 C2793 1.497 . S
C2780 C2779 1.380 . S
C2780 C2781 1.383 . S
C2780 C2783 1.603 . S
C2781 C2776 1.377 . S
C2781 C2780 1.383 . S
C2781 H2844 0.929 . S
C2782 C2778 1.527 . S
C2782 H2845 0.961 . S
C2782 H2846 0.959 . S
C2782 H2847 0.959 . S
C2783 C2780 1.603 . S
C2783 H2848 0.960 . S
C2783 H2849 0.962 . S
C2783 H2850 0.961 . S
C2784 C2751 1.587 . S
C2784 C2785 1.360 . S
C2784 C2797 1.412 . S
C2785 C2784 1.360 . S
C2785 C2786 1.365 . S
C2785 H2851 0.929 . S
C2786 C2761 1.553 . S
C2786 C2785 1.365 . S
C2786 C2787 1.404 . S
C2787 C2786 1.404 . S
C2787 C2788 1.395 . S
C2787 C2798 1.451 . S
C2788 C2787 1.395 . S
C2788 C2789 1.322 . S
C2788 H2852 0.930 . S
C2789 C2788 1.322 . S
C2789 C2790 1.459 . S
C2789 H2853 0.929 . S
C2790 C2789 1.459 . S
C2790 C2791 1.445 . S
C2790 C2799 1.395 . S
C2791 C2769 1.432 . S
C2791 C2790 1.445 . S
C2791 C2792 1.370 . S
C2792 C2791 1.370 . S
C2792 C2793 1.438 . S
C2792 H2854 0.930 . S
C2793 C2779 1.497 . S
C2793 C2792 1.438 . S
C2793 C2794 1.360 . S
C2794 C2793 1.360 . S
C2794 C2795 1.401 . S
C2794 C2799 1.446 . S
C2795 C2794 1.401 . S
C2795 C2796 1.347 . S
C2795 H2855 0.929 . S
C2796 C2795 1.347 . S
C2796 C2797 1.455 . S
C2796 H2856 0.930 . S
C2797 C2784 1.412 . S
C2797 C2796 1.455 . S
C2797 C2798 1.331 . S
C2798 C2787 1.451 . S
C2798 C2797 1.331 . S
C2798 C2799 1.497 . S
C2799 C2790 1.395 . S
C2799 C2794 1.446 . S
C2799 C2798 1.497 . S
C2800 C2801 1.582 . S
C2800 H2857 0.962 . S
C2800 H2858 0.959 . S
C2800 H2859 0.958 . S
C2801 C2800 1.582 . S
C2801 O2804 1.458 . S
C2801 H2830 0.980 . S
O2802 C2747 1.426 . S
O2802 C2748 1.334 . S
O2803 C2775 1.412 . S
O2803 C2776 1.393 . S
O2804 C2766 1.435 . S
O2804 C2801 1.458 . S
O2805 C2757 1.468 . S
O2805 C2758 1.408 . S
H2806 C2747 0.980 . S
H2807 C2746 0.959 . S
H2808 C2746 0.959 . S
H2809 C2746 0.960 . S
H2810 C2749 0.929 . S
H2811 C2753 0.929 . S
H2812 C2754 0.959 . S
H2813 C2754 0.961 . S
H2814 C2754 0.961 . S
H2815 C2755 0.960 . S
H2816 C2755 0.960 . S
H2817 C2755 0.961 . S
H2818 C2757 0.980 . S
H2819 C2756 0.961 . S
H2820 C2756 0.960 . S
H2821 C2756 0.959 . S
H2822 C2759 0.930 . S
H2823 C2763 0.931 . S
H2824 C2764 0.959 . S
H2825 C2764 0.961 . S
H2826 C2764 0.959 . S
H2827 C2765 0.960 . S
H2828 C2765 0.960 . S
H2829 C2765 0.960 . S
H2830 C2801 0.980 . S
H2831 C2767 0.930 . S
H2832 C2771 0.930 . S
H2833 C2772 0.961 . S
H2834 C2772 0.960 . S
H2835 C2772 0.958 . S
H2836 C2773 0.961 . S
H2837 C2773 0.960 . S
H2838 C2773 0.960 . S
H2839 C2775 0.980 . S
H2840 C2774 0.961 . S
H2841 C2774 0.961 . S
H2842 C2774 0.959 . S
H2843 C2777 0.932 . S
H2844 C2781 0.929 . S
H2845 C2782 0.961 . S
H2846 C2782 0.959 . S
H2847 C2782 0.959 . S
H2848 C2783 0.960 . S
H2849 C2783 0.962 . S
H2850 C2783 0.961 . S
H2851 C2785 0.929 . S
H2852 C2788 0.930 . S
H2853 C2789 0.929 . S
H2854 C2792 0.930 . S
H2855 C2795 0.929 . S
H2856 C2796 0.930 . S
H2857 C2800 0.962 . S
H2858 C2800 0.959 . S
H2859 C2800 0.958 . S
C2860 C2861 1.560 . S
C2860 H2921 0.959 . S
C2860 H2922 0.959 . S
C2860 H2923 0.960 . S
C2861 C2860 1.560 . S
C2861 O2916 1.426 . S
C2861 H2920 0.980 . S
C2862 C2863 1.407 . S
C2862 C2867 1.418 . S
C2862 O2916 1.334 . S
C2863 C2862 1.407 . S
C2863 C2864 1.360 . S
C2863 H2924 0.929 . S
C2864 C2863 1.360 . S
C2864 C2865 1.401 . S
C2864 C2868 1.527 . S
C2865 C2864 1.401 . S
C2865 C2866 1.405 . S
C2865 C2898 1.587 . S
C2866 C2865 1.405 . S
C2866 C2867 1.332 . S
C2866 C2869 1.496 . S
C2867 C2862 1.418 . S
C2867 C2866 1.332 . S
C2867 H2925 0.929 . S
C2868 C2864 1.527 . S
C2868 H2926 0.959 . S
C2868 H2927 0.961 . S
C2868 H2928 0.961 . S
C2869 C2866 1.496 . S
C2869 H2929 0.960 . S
C2869 H2930 0.960 . S
C2869 H2931 0.961 . S
C2870 C2871 1.517 . S
C2870 H2933 0.961 . S
C2870 H2934 0.960 . S
C2870 H2935 0.959 . S
C2871 C2870 1.517 . S
C2871 O2919 1.468 . S
C2871 H2932 0.980 . S
C2872 C2873 1.349 . S
C2872 C2877 1.367 . S
C2872 O2919 1.408 . S
C2873 C2872 1.349 . S
C2873 C2874 1.407 . S
C2873 H2936 0.930 . S
C2874 C2873 1.407 . S
C2874 C2875 1.449 . S
C2874 C2878 1.535 . S
C2875 C2874 1.449 . S
C2875 C2876 1.384 . S
C2875 C2900 1.553 . S
C2876 C2875 1.384 . S
C2876 C2877 1.364 . S
C2876 C2879 1.450 . S
C2877 C2872 1.367 . S
C2877 C2876 1.364 . S
C2877 H2937 0.931 . S
C2878 C2874 1.535 . S
C2878 H2938 0.959 . S
C2878 H2939 0.961 . S
C2878 H2940 0.959 . S
C2879 C2876 1.450 . S
C2879 H2941 0.960 . S
C2879 H2942 0.960 . S
C2879 H2943 0.960 . S
C2880 C2881 1.309 . S
C2880 C2885 1.304 . S
C2880 O2918 1.435 . S
C2881 C2880 1.309 . S
C2881 C2882 1.476 . S
C2881 H2945 0.930 . S
C2882 C2881 1.476 . S
C2882 C2883 1.400 . S
C2882 C2886 1.567 . S
C2883 C2882 1.400 . S
C2883 C2884 1.373 . S
C2883 C2905 1.432 . S
C2884 C2883 1.373 . S
C2884 C2885 1.339 . S
C2884 C2887 1.530 . S
C2885 C2880 1.304 . S
C2885 C2884 1.339 . S
C2885 H2946 0.930 . S
C2886 C2882 1.567 . S
C2886 H2947 0.961 . S
C2886 H2948 0.960 . S
C2886 H2949 0.958 . S
C2887 C2884 1.530 . S
C2887 H2950 0.961 . S
C2887 H2951 0.960 . S
C2887 H2952 0.960 . S
C2888 C2889 1.530 . S
C2888 H2954 0.961 . S
C2888 H2955 0.961 . S
C2888 H2956 0.959 . S
C2889 C2888 1.530 . S
C2889 O2917 1.412 . S
C2889 H2953 0.980 . S
C2890 C2891 1.288 . S
C2890 C2895 1.377 . S
C2890 O2917 1.393 . S
C2891 C2890 1.288 . S
C2891 C2892 1.369 . S
C2891 H2957 0.932 . S
C2892 C2891 1.369 . S
C2892 C2893 1.398 . S
C2892 C2896 1.527 . S
C2893 C2892 1.398 . S
C2893 C2894 1.380 . S
C2893 C2907 1.497 . S
C2894 C2893 1.380 . S
C2894 C2895 1.383 . S
C2894 C2897 1.603 . S
C2895 C2890 1.377 . S
C2895 C2894 1.383 . S
C2895 H2958 0.929 . S
C2896 C2892 1.527 . S
C2896 H2959 0.961 . S
C2896 H2960 0.959 . S
C2896 H2961 0.959 . S
C2897 C2894 1.603 . S
C2897 H2962 0.960 . S
C2897 H2963 0.962 . S
C2897 H2964 0.961 . S
C2898 C2865 1.587 . S
C2898 C2899 1.360 . S
C2898 C2911 1.412 . S
C2899 C2898 1.360 . S
C2899 C2900 1.365 . S
C2899 H2965 0.929 . S
C2900 C2875 1.553 . S
C2900 C2899 1.365 . S
C2900 C2901 1.404 . S
C2901 C2900 1.404 . S
C2901 C2902 1.395 . S
C2901 C2912 1.451 . S
C2902 C2901 1.395 . S
C2902 C2903 1.322 . S
C2902 H2966 0.930 . S
C2903 C2902 1.322 . S
C2903 C2904 1.459 . S
C2903 H2967 0.929 . S
C2904 C2903 1.459 . S
C2904 C2905 1.445 . S
C2904 C2913 1.395 . S
C2905 C2883 1.432 . S
C2905 C2904 1.445 . S
C2905 C2906 1.370 . S
C2906 C2905 1.370 . S
C2906 C2907 1.438 . S
C2906 H2968 0.930 . S
C2907 C2893 1.497 . S
C2907 C2906 1.438 . S
C2907 C2908 1.360 . S
C2908 C2907 1.360 . S
C2908 C2909 1.401 . S
C2908 C2913 1.446 . S
C2909 C2908 1.401 . S
C2909 C2910 1.347 . S
C2909 H2969 0.929 . S
C2910 C2909 1.347 . S
C2910 C2911 1.455 . S
C2910 H2970 0.930 . S
C2911 C2898 1.412 . S
C2911 C2910 1.455 . S
C2911 C2912 1.331 . S
C2912 C2901 1.451 . S
C2912 C2911 1.331 . S
C2912 C2913 1.497 . S
C2913 C2904 1.395 . S
C2913 C2908 1.446 . S
C2913 C2912 1.497 . S
C2914 C2915 1.582 . S
C2914 H2971 0.962 . S
C2914 H2972 0.959 . S
C2914 H2973 0.958 . S
C2915 C2914 1.582 . S
C2915 O2918 1.458 . S
C2915 H2944 0.980 . S
O2916 C2861 1.426 . S
O2916 C2862 1.334 . S
O2917 C2889 1.412 . S
O2917 C2890 1.393 . S
O2918 C2880 1.435 . S
O2918 C2915 1.458 . S
O2919 C2871 1.468 . S
O2919 C2872 1.408 . S
H2920 C2861 0.980 . S
H2921 C2860 0.959 . S
H2922 C2860 0.959 . S
H2923 C2860 0.960 . S
H2924 C2863 0.929 . S
H2925 C2867 0.929 . S
H2926 C2868 0.959 . S
H2927 C2868 0.961 . S
H2928 C2868 0.961 . S
H2929 C2869 0.960 . S
H2930 C2869 0.960 . S
H2931 C2869 0.961 . S
H2932 C2871 0.980 . S
H2933 C2870 0.961 . S
H2934 C2870 0.960 . S
H2935 C2870 0.959 . S
H2936 C2873 0.930 . S
H2937 C2877 0.931 . S
H2938 C2878 0.959 . S
H2939 C2878 0.961 . S
H2940 C2878 0.959 . S
H2941 C2879 0.960 . S
H2942 C2879 0.960 . S
H2943 C2879 0.960 . S
H2944 C2915 0.980 . S
H2945 C2881 0.930 . S
H2946 C2885 0.930 . S
H2947 C2886 0.961 . S
H2948 C2886 0.960 . S
H2949 C2886 0.958 . S
H2950 C2887 0.961 . S
H2951 C2887 0.960 . S
H2952 C2887 0.960 . S
H2953 C2889 0.980 . S
H2954 C2888 0.961 . S
H2955 C2888 0.961 . S
H2956 C2888 0.959 . S
H2957 C2891 0.932 . S
H2958 C2895 0.929 . S
H2959 C2896 0.961 . S
H2960 C2896 0.959 . S
H2961 C2896 0.959 . S
H2962 C2897 0.960 . S
H2963 C2897 0.962 . S
H2964 C2897 0.961 . S
H2965 C2899 0.929 . S
H2966 C2902 0.930 . S
H2967 C2903 0.929 . S
H2968 C2906 0.930 . S
H2969 C2909 0.929 . S
H2970 C2910 0.930 . S
H2971 C2914 0.962 . S
H2972 C2914 0.959 . S
H2973 C2914 0.958 . S
C2974 C2975 1.560 . S
C2974 H3035 0.959 . S
C2974 H3036 0.959 . S
C2974 H3037 0.960 . S
C2975 C2974 1.560 . S
C2975 O3030 1.426 . S
C2975 H3034 0.980 . S
C2976 C2977 1.407 . S
C2976 C2981 1.418 . S
C2976 O3030 1.334 . S
C2977 C2976 1.407 . S
C2977 C2978 1.360 . S
C2977 H3038 0.929 . S
C2978 C2977 1.360 . S
C2978 C2979 1.401 . S
C2978 C2982 1.527 . S
C2979 C2978 1.401 . S
C2979 C2980 1.405 . S
C2979 C3012 1.587 . S
C2980 C2979 1.405 . S
C2980 C2981 1.332 . S
C2980 C2983 1.496 . S
C2981 C2976 1.418 . S
C2981 C2980 1.332 . S
C2981 H3039 0.929 . S
C2982 C2978 1.527 . S
C2982 H3040 0.959 . S
C2982 H3041 0.961 . S
C2982 H3042 0.961 . S
C2983 C2980 1.496 . S
C2983 H3043 0.960 . S
C2983 H3044 0.960 . S
C2983 H3045 0.961 . S
C2984 C2985 1.517 . S
C2984 H3047 0.961 . S
C2984 H3048 0.960 . S
C2984 H3049 0.959 . S
C2985 C2984 1.517 . S
C2985 O3033 1.468 . S
C2985 H3046 0.980 . S
C2986 C2987 1.349 . S
C2986 C2991 1.367 . S
C2986 O3033 1.408 . S
C2987 C2986 1.349 . S
C2987 C2988 1.407 . S
C2987 H3050 0.930 . S
C2988 C2987 1.407 . S
C2988 C2989 1.449 . S
C2988 C2992 1.535 . S
C2989 C2988 1.449 . S
C2989 C2990 1.384 . S
C2989 C3014 1.553 . S
C2990 C2989 1.384 . S
C2990 C2991 1.364 . S
C2990 C2993 1.450 . S
C2991 C2986 1.367 . S
C2991 C2990 1.364 . S
C2991 H3051 0.931 . S
C2992 C2988 1.535 . S
C2992 H3052 0.959 . S
C2992 H3053 0.961 . S
C2992 H3054 0.959 . S
C2993 C2990 1.450 . S
C2993 H3055 0.960 . S
C2993 H3056 0.960 . S
C2993 H3057 0.960 . S
C2994 C2995 1.309 . S
C2994 C2999 1.304 . S
C2994 O3032 1.435 . S
C2995 C2994 1.309 . S
C2995 C2996 1.476 . S
C2995 H3059 0.930 . S
C2996 C2995 1.476 . S
C2996 C2997 1.400 . S
C2996 C3000 1.567 . S
C2997 C2996 1.400 . S
C2997 C2998 1.373 . S
C2997 C3019 1.432 . S
C2998 C2997 1.373 . S
C2998 C2999 1.339 . S
C2998 C3001 1.530 . S
C2999 C2994 1.304 . S
C2999 C2998 1.339 . S
C2999 H3060 0.930 . S
C3000 C2996 1.567 . S
C3000 H3061 0.961 . S
C3000 H3062 0.960 . S
C3000 H3063 0.958 . S
C3001 C2998 1.530 . S
C3001 H3064 0.961 . S
C3001 H3065 0.960 . S
C3001 H3066 0.960 . S
C3002 C3003 1.530 . S
C3002 H3068 0.961 . S
C3002 H3069 0.961 . S
C3002 H3070 0.959 . S
C3003 C3002 1.530 . S
C3003 O3031 1.412 . S
C3003 H3067 0.980 . S
C3004 C3005 1.288 . S
C3004 C3009 1.377 . S
C3004 O3031 1.393 . S
C3005 C3004 1.288 . S
C3005 C3006 1.369 . S
C3005 H3071 0.932 . S
C3006 C3005 1.369 . S
C3006 C3007 1.398 . S
C3006 C3010 1.527 . S
C3007 C3006 1.398 . S
C3007 C3008 1.380 . S
C3007 C3021 1.497 . S
C3008 C3007 1.380 . S
C3008 C3009 1.383 . S
C3008 C3011 1.603 . S
C3009 C3004 1.377 . S
C3009 C3008 1.383 . S
C3009 H3072 0.929 . S
C3010 C3006 1.527 . S
C3010 H3073 0.961 . S
C3010 H3074 0.959 . S
C3010 H3075 0.959 . S
C3011 C3008 1.603 . S
C3011 H3076 0.960 . S
C3011 H3077 0.962 . S
C3011 H3078 0.961 . S
C3012 C2979 1.587 . S
C3012 C3013 1.360 . S
C3012 C3025 1.412 . S
C3013 C3012 1.360 . S
C3013 C3014 1.365 . S
C3013 H3079 0.929 . S
C3014 C2989 1.553 . S
C3014 C3013 1.365 . S
C3014 C3015 1.404 . S
C3015 C3014 1.404 . S
C3015 C3016 1.395 . S
C3015 C3026 1.451 . S
C3016 C3015 1.395 . S
C3016 C3017 1.322 . S
C3016 H3080 0.930 . S
C3017 C3016 1.322 . S
C3017 C3018 1.459 . S
C3017 H3081 0.929 . S
C3018 C3017 1.459 . S
C3018 C3019 1.445 . S
C3018 C3027 1.395 . S
C3019 C2997 1.432 . S
C3019 C3018 1.445 . S
C3019 C3020 1.370 . S
C3020 C3019 1.370 . S
C3020 C3021 1.438 . S
C3020 H3082 0.930 . S
C3021 C3007 1.497 . S
C3021 C3020 1.438 . S
C3021 C3022 1.360 . S
C3022 C3021 1.360 . S
C3022 C3023 1.401 . S
C3022 C3027 1.446 . S
C3023 C3022 1.401 . S
C3023 C3024 1.347 . S
C3023 H3083 0.929 . S
C3024 C3023 1.347 . S
C3024 C3025 1.455 . S
C3024 H3084 0.930 . S
C3025 C3012 1.412 . S
C3025 C3024 1.455 . S
C3025 C3026 1.331 . S
C3026 C3015 1.451 . S
C3026 C3025 1.331 . S
C3026 C3027 1.497 . S
C3027 C3018 1.395 . S
C3027 C3022 1.446 . S
C3027 C3026 1.497 . S
C3028 C3029 1.582 . S
C3028 H3085 0.962 . S
C3028 H3086 0.959 . S
C3028 H3087 0.958 . S
C3029 C3028 1.582 . S
C3029 O3032 1.458 . S
C3029 H3058 0.980 . S
O3030 C2975 1.426 . S
O3030 C2976 1.334 . S
O3031 C3003 1.412 . S
O3031 C3004 1.393 . S
O3032 C2994 1.435 . S
O3032 C3029 1.458 . S
O3033 C2985 1.468 . S
O3033 C2986 1.408 . S
H3034 C2975 0.980 . S
H3035 C2974 0.959 . S
H3036 C2974 0.959 . S
H3037 C2974 0.960 . S
H3038 C2977 0.929 . S
H3039 C2981 0.929 . S
H3040 C2982 0.959 . S
H3041 C2982 0.961 . S
H3042 C2982 0.961 . S
H3043 C2983 0.960 . S
H3044 C2983 0.960 . S
H3045 C2983 0.961 . S
H3046 C2985 0.980 . S
H3047 C2984 0.961 . S
H3048 C2984 0.960 . S
H3049 C2984 0.959 . S
H3050 C2987 0.930 . S
H3051 C2991 0.931 . S
H3052 C2992 0.959 . S
H3053 C2992 0.961 . S
H3054 C2992 0.959 . S
H3055 C2993 0.960 . S
H3056 C2993 0.960 . S
H3057 C2993 0.960 . S
H3058 C3029 0.980 . S
H3059 C2995 0.930 . S
H3060 C2999 0.930 . S
H3061 C3000 0.961 . S
H3062 C3000 0.960 . S
H3063 C3000 0.958 . S
H3064 C3001 0.961 . S
H3065 C3001 0.960 . S
H3066 C3001 0.960 . S
H3067 C3003 0.980 . S
H3068 C3002 0.961 . S
H3069 C3002 0.961 . S
H3070 C3002 0.959 . S
H3071 C3005 0.932 . S
H3072 C3009 0.929 . S
H3073 C3010 0.961 . S
H3074 C3010 0.959 . S
H3075 C3010 0.959 . S
H3076 C3011 0.960 . S
H3077 C3011 0.962 . S
H3078 C3011 0.961 . S
H3079 C3013 0.929 . S
H3080 C3016 0.930 . S
H3081 C3017 0.929 . S
H3082 C3020 0.930 . S
H3083 C3023 0.929 . S
H3084 C3024 0.930 . S
H3085 C3028 0.962 . S
H3086 C3028 0.959 . S
H3087 C3028 0.958 . S
C381 C7 2.020 . S
C521 C19 1.399 . S
C29 C581 1.338 . S
C705 C41 0.194 . S
C52 C695 0.819 . S
C62 C407 1.389 . S
C73 C495 1.517 . S
C591 C82 1.590 . S
C837 C5 1.372 . S
C16 C951 1.511 . S
C30 C1091 2.146 . S
C1179 C40 1.374 . S
C49 C1275 0.326 . S
C1379 C63 2.489 . S
C74 C1521 2.569 . S
C1607 C85 1.273 . S
C8 C1205 1.597 . S
C51 C1389 0.995 . S
C1547 C60 2.669 . S
C71 C1617 1.126 . S
C1265 C84 1.477 . S
C977 C27 1.983 . S
C38 C1065 2.365 . S
C863 C18 1.958 . S
C1749 C95 2.016 . S
C107 C1845 0.501 . S
C117 C1949 1.331 . S
C2073 C129 0.482 . S
C140 C2063 1.141 . S
C150 C1775 1.346 . S
C161 C1835 0.294 . S
C170 C1959 1.882 . S
C1319 C93 1.243 . S
C104 C2177 0.797 . S
C1493 C118 3.184 . S
C128 C2291 2.639 . S
C137 C809 0.685 . S
C2433 C151 1.743 . S
C162 C1047 1.898 . S
C2519 C173 1.489 . S
C96 C2301 1.127 . S
C2459 C139 1.725 . S
C148 C1037 2.218 . S
C2529 C159 1.201 . S
C172 C819 1.372 . S
C115 C2187 2.170 . S
C126 C1503 1.594 . S
C106 C1293 1.751 . S
C183 C1977 1.915 . S
C2117 C195 1.222 . S
C205 C1721 1.316 . S
C217 C1889 1.393 . S
C228 C1863 1.645 . S
C238 C2003 1.333 . S
C2091 C249 1.082 . S
C258 C1731 1.541 . S
C2633 C181 2.007 . S
C192 C1407 1.614 . S
C2801 C206 2.246 . S
C216 C1635 1.164 . S
C225 C2871 0.381 . S
C239 C923 2.366 . S
C2985 C250 1.817 . S
C261 C1151 1.389 . S
C1661 C184 1.509 . S
C933 C227 1.057 . S
C236 C2975 2.416 . S
C247 C1161 1.209 . S
C2861 C260 1.534 . S
C1433 C203 1.930 . S
C2775 C214 2.390 . S
C2643 C194 1.621 . S
C271 C609 2.007 . S
C283 C749 1.637 . S
C353 C293 1.329 . S
C477 C305 0.162 . S
C467 C316 1.245 . S
C635 C326 1.335 . S
C723 C337 1.209 . S
C346 C363 1.792 . S
C269 C2915 1.148 . S
C2405 C280 0.831 . S
C3029 C294 2.279 . S
C2547 C304 1.250 . S
C313 C2661 1.118 . S
C2205 C327 1.802 . S
C2757 C338 1.753 . S
C349 C2319 1.338 . S
C2573 C272 1.399 . S
C2231 C315 1.657 . S
C2747 C324 2.368 . S
C335 C2345 1.380 . S
C348 C2687 2.576 . S
C291 C2415 1.974 . S
C302 C3003 2.378 . S
C2889 C282 1.855 . S
