# Generated by pormake.
# Topology tsx, (6,3)-cn, num edge types: 1
# Building blocks:
#     Node 0, Type 0, BuildingBlock: VOLQOD_clean_sbu_1, # of connection points: 6
#     Node 1, Type 0, BuildingBlock: VOLQOD_clean_sbu_1, # of connection points: 6
#     Node 2, Type 1, BuildingBlock: PAMTOO_clean_linker_0, # of connection points: 3
#     Node 3, Type 1, BuildingBlock: PAMTOO_clean_linker_0, # of connection points: 3
#     Node 4, Type 1, BuildingBlock: PAMTOO_clean_linker_0, # of connection points: 3
#     Node 5, Type 1, BuildingBlock: PAMTOO_clean_linker_0, # of connection points: 3
#     Edge 6, Type (0, 1), BuildingBlock: KIFKEQ_clean_linker_1, # of connection points: 2
#     Edge 7, Type (0, 1), BuildingBlock: KIFKEQ_clean_linker_1, # of connection points: 2
#     Edge 8, Type (0, 1), BuildingBlock: KIFKEQ_clean_linker_1, # of connection points: 2
#     Edge 9, Type (0, 1), BuildingBlock: KIFKEQ_clean_linker_1, # of connection points: 2
#     Edge 10, Type (0, 1), BuildingBlock: KIFKEQ_clean_linker_1, # of connection points: 2
#     Edge 11, Type (0, 1), BuildingBlock: KIFKEQ_clean_linker_1, # of connection points: 2
#     Edge 12, Type (0, 1), BuildingBlock: KIFKEQ_clean_linker_1, # of connection points: 2
#     Edge 13, Type (0, 1), BuildingBlock: KIFKEQ_clean_linker_1, # of connection points: 2
#     Edge 14, Type (0, 1), BuildingBlock: KIFKEQ_clean_linker_1, # of connection points: 2
#     Edge 15, Type (0, 1), BuildingBlock: KIFKEQ_clean_linker_1, # of connection points: 2
#     Edge 16, Type (0, 1), BuildingBlock: KIFKEQ_clean_linker_1, # of connection points: 2
#     Edge 17, Type (0, 1), BuildingBlock: KIFKEQ_clean_linker_1, # of connection points: 2
# Relax obj value: 0.055
# Max RMSD: 0.113
# Mean RMSD: 0.101
data_MOF--net-tsx--node1-VOLQOD_clean_sbu_1--node2-PAMTOO_clean_linker_0--edge1-KIFKEQ_clean_linker_1
_symmetry_space_group_name_H-M    P1
_symmetry_Int_Tables_number       1
_symmetry_cell_setting            triclinic
loop_
_symmetry_equiv_pos_as_xyz
'x, y, z'
_cell_length_a     21.549592
_cell_length_b     22.168356
_cell_length_c     38.057268
_cell_angle_alpha  82.553855
_cell_angle_beta   89.757097
_cell_angle_gamma 89.913957
loop_
_atom_site_label
_atom_site_type_symbol
_atom_site_fract_x
_atom_site_fract_y
_atom_site_fract_z
_atom_type_partial_charge
O0 O 0.07659 0.99087 0.09003 0.0
Zn1 Zn 0.09922 0.99756 0.03814 0.0
O2 O 0.02423 0.00854 0.00885 0.0
Zn3 Zn 0.01576 0.94097 0.9813 0.0
Zn4 Zn 0.95031 0.01159 0.03882 0.0
Zn5 Zn 0.03155 0.08385 0.9762 0.0
O6 O 0.00937 0.97001 0.92919 0.0
O7 O 0.03142 0.06843 0.92504 0.0
O8 O 0.14926 0.9238 0.02777 0.0
O9 O 0.09063 0.88734 0.98756 0.0
O10 O 0.94049 0.89002 0.99573 0.0
O11 O 0.89231 0.94178 0.03395 0.0
O12 O 0.90239 0.08957 0.02561 0.0
O13 O 0.15412 0.07176 0.02956 0.0
O14 O 0.95977 0.1389 0.98256 0.0
O15 O 0.10761 0.13091 0.98601 0.0
C16 C 0.02596 0.99717 0.10663 0.0
C17 C 0.0191 0.02113 0.9106 0.0
C18 C 0.895 0.89676 0.01632 0.0
C19 C 0.13948 0.88506 0.00637 0.0
C20 C 0.91245 0.13591 0.00282 0.0
C21 C 0.15146 0.12105 0.00832 0.0
O22 O 0.97456 0.00624 0.09034 0.0
O23 O 0.5715 0.47746 0.59099 0.0
Zn24 Zn 0.59692 0.48513 0.53935 0.0
O25 O 0.52436 0.49941 0.50854 0.0
Zn26 Zn 0.51098 0.42989 0.48296 0.0
Zn27 Zn 0.45131 0.51223 0.53729 0.0
Zn28 Zn 0.53833 0.57094 0.47395 0.0
O29 O 0.51012 0.45487 0.43019 0.0
O30 O 0.54551 0.54964 0.42418 0.0
O31 O 0.64407 0.40964 0.5295 0.0
O32 O 0.58172 0.37067 0.49191 0.0
O33 O 0.43023 0.38739 0.49707 0.0
O34 O 0.38913 0.44491 0.53483 0.0
O35 O 0.40882 0.59201 0.52029 0.0
O36 O 0.65461 0.5577 0.532 0.0
O37 O 0.46664 0.62882 0.47402 0.0
O38 O 0.61406 0.61661 0.4862 0.0
C39 C 0.52245 0.49336 0.60628 0.0
C40 C 0.52858 0.5026 0.41075 0.0
C41 C 0.38662 0.39897 0.5179 0.0
C42 C 0.63145 0.36859 0.51004 0.0
C43 C 0.41981 0.63259 0.49413 0.0
C44 C 0.65529 0.60637 0.51012 0.0
O45 O 0.47422 0.51118 0.58863 0.0
H46 H 0.12808 0.94279 0.36887 0.0
H47 H 0.98316 0.0736 0.37824 0.0
H48 H 0.08643 0.99973 0.47034 0.0
H49 H 0.96391 0.02177 0.49158 0.0
C50 C 0.94637 0.0464 0.46632 0.0
O51 O 0.99577 0.07284 0.44689 0.0
H52 H 0.92316 0.01281 0.45134 0.0
C53 C 0.10142 0.97056 0.38495 0.0
C54 C 0.11337 0.96718 0.42134 0.0
C55 C 0.05467 0.00879 0.36922 0.0
C56 C 0.01979 0.04427 0.39007 0.0
C57 C 0.03122 0.04078 0.42653 0.0
C58 C 0.07811 0.00246 0.44211 0.0
H59 H 0.06987 0.12696 0.63669 0.0
H60 H 0.95735 0.96547 0.64091 0.0
H61 H 0.02229 0.05495 0.54079 0.0
H62 H 0.88834 0.01031 0.54024 0.0
C63 C 0.89224 0.97422 0.56324 0.0
O64 O 0.95374 0.96576 0.57251 0.0
H65 H 0.86529 0.9897 0.58547 0.0
C66 C 0.04632 0.09295 0.62359 0.0
C67 C 0.05024 0.09628 0.58659 0.0
C68 C 0.01366 0.04563 0.64378 0.0
C69 C 0.98275 0.00262 0.6261 0.0
C70 C 0.98491 0.00668 0.58906 0.0
C71 C 0.01957 0.0528 0.56935 0.0
H72 H 0.61816 0.42986 0.87353 0.0
H73 H 0.48327 0.57312 0.8767 0.0
H74 H 0.58522 0.5056 0.97022 0.0
H75 H 0.46804 0.53545 0.99105 0.0
C76 C 0.44965 0.55746 0.96533 0.0
O77 O 0.49848 0.58066 0.94418 0.0
H78 H 0.42494 0.52217 0.95236 0.0
C79 C 0.5933 0.46166 0.8878 0.0
C80 C 0.60602 0.46238 0.92385 0.0
C81 C 0.54973 0.50185 0.87008 0.0
C82 C 0.51865 0.54304 0.88926 0.0
C83 C 0.53183 0.54446 0.92522 0.0
C84 C 0.57642 0.5051 0.94223 0.0
H85 H 0.60771 0.59329 0.14033 0.0
H86 H 0.46605 0.45653 0.13826 0.0
H87 H 0.5358 0.55251 0.04099 0.0
H88 H 0.39475 0.52226 0.04065 0.0
C89 C 0.39725 0.48398 0.06253 0.0
O90 O 0.45837 0.46853 0.06945 0.0
H91 H 0.37477 0.49933 0.08626 0.0
C92 C 0.57699 0.56673 0.12588 0.0
C93 C 0.57722 0.57702 0.08873 0.0
C94 C 0.53663 0.52393 0.14434 0.0
C95 C 0.49663 0.49092 0.12485 0.0
C96 C 0.49596 0.50168 0.08774 0.0
C97 C 0.53584 0.54505 0.06969 0.0
H98 H 0.15601 0.23453 0.97036 0.0
H99 H 0.24728 0.12027 0.05552 0.0
H100 H 0.21902 0.32036 0.98232 0.0
H101 H 0.31134 0.2061 0.06692 0.0
H102 H 0.34711 0.39046 0.10724 0.0
H103 H 0.29382 0.3001 0.09198 0.0
H104 H 0.3229 0.36248 0.98074 0.0
H105 H 0.37477 0.45318 0.99634 0.0
C106 C 0.19029 0.22735 0.99122 0.0
C107 C 0.19613 0.17052 0.01217 0.0
C108 C 0.22663 0.27663 0.99799 0.0
C109 C 0.26978 0.27026 0.02582 0.0
C110 C 0.27767 0.21277 0.04572 0.0
C111 C 0.24128 0.16344 0.03897 0.0
C112 C 0.34154 0.38477 0.07958 0.0
C113 C 0.36357 0.42923 0.05288 0.0
C114 C 0.31177 0.33284 0.0708 0.0
C115 C 0.304 0.32411 0.03511 0.0
C116 C 0.32728 0.36824 0.00845 0.0
C117 C 0.357 0.42014 0.0173 0.0
H118 H 0.24559 0.85604 0.04516 0.0
H119 H 0.13933 0.80601 0.95728 0.0
H120 H 0.32144 0.77669 0.03694 0.0
H121 H 0.21531 0.72881 0.94854 0.0
H122 H 0.32326 0.55429 0.96332 0.0
H123 H 0.24967 0.63204 0.97597 0.0
H124 H 0.40173 0.74922 0.99677 0.0
H125 H 0.4755 0.6697 0.98525 0.0
C126 C 0.23845 0.82833 0.02409 0.0
C127 C 0.18608 0.83719 0.00207 0.0
C128 C 0.2821 0.78312 0.01924 0.0
C129 C 0.27429 0.74603 0.99222 0.0
C130 C 0.22221 0.75551 0.9701 0.0
C131 C 0.17866 0.8002 0.97504 0.0
C132 C 0.34091 0.59685 0.97033 0.0
C133 C 0.40499 0.60692 0.97216 0.0
C134 C 0.2988 0.64151 0.97753 0.0
C135 C 0.31972 0.69742 0.98678 0.0
C136 C 0.384 0.70672 0.98973 0.0
C137 C 0.42625 0.66166 0.98272 0.0
H138 H 0.89859 0.78136 0.99837 0.0
H139 H 0.77871 0.90744 0.04394 0.0
H140 H 0.81914 0.70259 0.00944 0.0
H141 H 0.6992 0.82862 0.05459 0.0
H142 H 0.55276 0.68087 0.04411 0.0
H143 H 0.62786 0.75958 0.02065 0.0
H144 H 0.77713 0.64893 0.06938 0.0
H145 H 0.70223 0.57135 0.09317 0.0
C146 C 0.85504 0.79253 0.01031 0.0
C147 C 0.84516 0.85049 0.02058 0.0
C148 C 0.80968 0.74742 0.01665 0.0
C149 C 0.75317 0.75967 0.03281 0.0
C150 C 0.74219 0.81824 0.04178 0.0
C151 C 0.78792 0.86311 0.03596 0.0
C152 C 0.60177 0.67329 0.04917 0.0
C153 C 0.62209 0.62055 0.07043 0.0
C154 C 0.64452 0.71819 0.03599 0.0
C155 C 0.70815 0.71019 0.04329 0.0
C156 C 0.72844 0.65597 0.06312 0.0
C157 C 0.68574 0.6118 0.07681 0.0
H158 H 0.93223 0.2521 0.97174 0.0
H159 H 0.79105 0.13442 0.02432 0.0
H160 H 0.85582 0.33324 0.95942 0.0
H161 H 0.71445 0.21587 0.01167 0.0
H162 H 0.59789 0.34024 0.92536 0.0
H163 H 0.67093 0.26301 0.95147 0.0
H164 H 0.78183 0.40272 0.9898 0.0
H165 H 0.70794 0.4803 0.96375 0.0
C166 C 0.88503 0.24378 0.981 0.0
C167 C 0.86747 0.18667 0.99868 0.0
C168 C 0.84148 0.29043 0.97421 0.0
C169 C 0.77934 0.28066 0.98455 0.0
C170 C 0.76212 0.22435 0.00331 0.0
C171 C 0.80593 0.17789 0.01059 0.0
C172 C 0.63758 0.35426 0.93969 0.0
C173 C 0.64787 0.41602 0.94234 0.0
C174 C 0.67899 0.31014 0.95488 0.0
C175 C 0.73191 0.32702 0.97262 0.0
C176 C 0.74137 0.38869 0.97614 0.0
C177 C 0.69925 0.43288 0.96139 0.0
H178 H 0.66985 0.7162 0.46904 0.0
H179 H 0.74364 0.60673 0.5618 0.0
H180 H 0.73424 0.801 0.48104 0.0
H181 H 0.80918 0.69153 0.57334 0.0
H182 H 0.83986 0.88243 0.60845 0.0
H183 H 0.79108 0.78933 0.59392 0.0
H184 H 0.83893 0.83984 0.48361 0.0
H185 H 0.88635 0.93339 0.49836 0.0
C186 C 0.70061 0.70977 0.49166 0.0
C187 C 0.70104 0.6547 0.51463 0.0
C188 C 0.73786 0.75843 0.49843 0.0
C189 C 0.77654 0.75326 0.52833 0.0
C190 C 0.77912 0.69731 0.55041 0.0
C191 C 0.74186 0.64855 0.54363 0.0
C192 C 0.83988 0.87331 0.58116 0.0
C193 C 0.86536 0.91555 0.55435 0.0
C194 C 0.81255 0.81983 0.57283 0.0
C195 C 0.8107 0.80729 0.53753 0.0
C196 C 0.83858 0.84861 0.51096 0.0
C197 C 0.86585 0.90209 0.51934 0.0
H198 H 0.73899 0.34164 0.54761 0.0
H199 H 0.62688 0.28369 0.46425 0.0
H200 H 0.81474 0.26234 0.53969 0.0
H201 H 0.70302 0.20645 0.45557 0.0
H202 H 0.82019 0.03769 0.46728 0.0
H203 H 0.74412 0.11232 0.48146 0.0
H204 H 0.89255 0.2357 0.49931 0.0
H205 H 0.96863 0.15938 0.48654 0.0
C206 C 0.73044 0.31204 0.52764 0.0
C207 C 0.67667 0.31903 0.50666 0.0
C208 C 0.7741 0.26683 0.52292 0.0
C209 C 0.76512 0.2278 0.497 0.0
C210 C 0.7111 0.23474 0.47626 0.0
C211 C 0.66742 0.27946 0.48112 0.0
C212 C 0.83641 0.08099 0.47398 0.0
C213 C 0.90013 0.09377 0.47447 0.0
C214 C 0.79288 0.12386 0.48207 0.0
C215 C 0.81199 0.18067 0.49089 0.0
C216 C 0.87603 0.19251 0.49267 0.0
C217 C 0.91965 0.14922 0.48487 0.0
H218 H 0.35142 0.31129 0.4774 0.0
H219 H 0.29889 0.39345 0.57009 0.0
H220 H 0.26305 0.24237 0.4869 0.0
H221 H 0.21258 0.32328 0.58049 0.0
H222 H 0.03868 0.21872 0.58413 0.0
H223 H 0.1146 0.29586 0.56158 0.0
H224 H 0.22949 0.15609 0.5251 0.0
H225 H 0.15157 0.07989 0.54615 0.0
C226 C 0.32112 0.31454 0.49986 0.0
C227 C 0.3323 0.35782 0.52303 0.0
C228 C 0.27053 0.27485 0.50539 0.0
C229 C 0.23033 0.27712 0.53443 0.0
C230 C 0.24145 0.3209 0.55736 0.0
C231 C 0.29146 0.36094 0.55159 0.0
C232 C 0.07953 0.20508 0.57044 0.0
C233 C 0.08968 0.14366 0.56692 0.0
C234 C 0.12341 0.24899 0.55788 0.0
C235 C 0.17906 0.23219 0.54221 0.0
C236 C 0.18718 0.17098 0.53679 0.0
C237 C 0.14265 0.12719 0.54885 0.0
H238 H 0.33467 0.67574 0.5385 0.0
H239 H 0.40789 0.70714 0.43187 0.0
H240 H 0.26429 0.76193 0.52493 0.0
H241 H 0.33597 0.79077 0.41772 0.0
H242 H 0.23579 0.96679 0.40471 0.0
H243 H 0.313 0.89033 0.42599 0.0
H244 H 0.17388 0.79296 0.49331 0.0
H245 H 0.09803 0.87186 0.47328 0.0
C246 C 0.33546 0.70084 0.51212 0.0
C247 C 0.37694 0.68474 0.4863 0.0
C248 C 0.29492 0.75011 0.50425 0.0
C249 C 0.2944 0.78377 0.47023 0.0
C250 C 0.33591 0.7672 0.44448 0.0
C251 C 0.37695 0.71873 0.4525 0.0
C252 C 0.22237 0.92945 0.42452 0.0
C253 C 0.16131 0.92481 0.43738 0.0
C254 C 0.26626 0.88527 0.43649 0.0
C255 C 0.24961 0.83461 0.46095 0.0
C256 C 0.18877 0.83145 0.47477 0.0
C257 C 0.14516 0.87643 0.46326 0.0
H258 H 0.12457 0.02294 0.14679 0.0
H259 H 0.93065 0.97331 0.15416 0.0
H260 H 0.12618 0.02879 0.21047 0.0
H261 H 0.93293 0.97799 0.21814 0.0
H262 H 0.00592 0.91855 0.33628 0.0
H263 H 0.99509 0.91645 0.27227 0.0
H264 H 0.06855 0.09882 0.25253 0.0
H265 H 0.07789 0.10126 0.31668 0.0
C266 C 0.08245 0.01276 0.16204 0.0
C267 C 0.02749 0.99753 0.14548 0.0
C268 C 0.08331 0.01663 0.19839 0.0
C269 C 0.02959 0.00419 0.21903 0.0
C270 C 0.97491 0.98781 0.20271 0.0
C271 C 0.97366 0.98519 0.16618 0.0
C272 C 0.01864 0.95842 0.31814 0.0
C273 C 0.04234 0.01019 0.33105 0.0
C274 C 0.01246 0.95727 0.28169 0.0
C275 C 0.03123 0.00738 0.25762 0.0
C276 C 0.05405 0.05955 0.27063 0.0
C277 C 0.05904 0.06113 0.30714 0.0
H278 H 0.05909 0.11445 0.86161 0.0
H279 H 0.97253 0.93722 0.87104 0.0
H280 H 0.05614 0.12006 0.79713 0.0
H281 H 0.9696 0.94316 0.80658 0.0
H282 H 0.91715 0.01231 0.68965 0.0
H283 H 0.91707 0.00619 0.75425 0.0
H284 H 0.10862 0.06329 0.75148 0.0
H285 H 0.1096 0.06766 0.68726 0.0
C286 C 0.03927 0.07681 0.84997 0.0
C287 C 0.01624 0.02531 0.87149 0.0
C288 C 0.03785 0.07994 0.81307 0.0
C289 C 0.01273 0.03199 0.79691 0.0
C290 C 0.9888 0.98095 0.81835 0.0
C291 C 0.99087 0.97747 0.85525 0.0
C292 C 0.95947 0.02284 0.70282 0.0
C293 C 0.01324 0.0409 0.68315 0.0
C294 C 0.95931 0.01954 0.73979 0.0
C295 C 0.0127 0.03474 0.75779 0.0
C296 C 0.06648 0.05237 0.73823 0.0
C297 C 0.06689 0.05504 0.7014 0.0
H298 H 0.60288 0.43467 0.6546 0.0
H299 H 0.44133 0.5514 0.64612 0.0
H300 H 0.60374 0.43626 0.71863 0.0
H301 H 0.44277 0.55325 0.7102 0.0
H302 H 0.52864 0.59783 0.81817 0.0
H303 H 0.51716 0.59465 0.75454 0.0
H304 H 0.5331 0.399 0.77146 0.0
H305 H 0.54234 0.40161 0.835 0.0
C306 C 0.56751 0.46056 0.66637 0.0
C307 C 0.52202 0.49284 0.64525 0.0
C308 C 0.56785 0.46121 0.70304 0.0
C309 C 0.52328 0.49486 0.71932 0.0
C310 C 0.47783 0.52722 0.69827 0.0
C311 C 0.47688 0.52583 0.66164 0.0
C312 C 0.52845 0.55404 0.80845 0.0
C313 C 0.53729 0.50007 0.83175 0.0
C314 C 0.5221 0.55229 0.772 0.0
C315 C 0.52502 0.49662 0.75811 0.0
C316 C 0.53183 0.4426 0.78142 0.0
C317 C 0.53737 0.44424 0.81781 0.0
H318 H 0.47248 0.42321 0.37159 0.0
H319 H 0.58808 0.58379 0.36176 0.0
H320 H 0.47465 0.42494 0.30727 0.0
H321 H 0.59036 0.58507 0.29753 0.0
H322 H 0.63566 0.52341 0.18941 0.0
H323 H 0.63363 0.51711 0.25381 0.0
H324 H 0.43462 0.49578 0.25339 0.0
H325 H 0.43601 0.50414 0.18879 0.0
C326 C 0.49848 0.45875 0.35575 0.0
C327 C 0.53014 0.50338 0.3718 0.0
C328 C 0.49942 0.45984 0.31895 0.0
C329 C 0.53277 0.50502 0.29751 0.0
C330 C 0.56476 0.54938 0.31351 0.0
C331 C 0.56314 0.54882 0.35025 0.0
C332 C 0.59132 0.51791 0.20293 0.0
C333 C 0.53591 0.51492 0.18379 0.0
C334 C 0.59028 0.5141 0.23983 0.0
C335 C 0.53396 0.50635 0.2585 0.0
C336 C 0.47875 0.50133 0.23962 0.0
C337 C 0.47965 0.50587 0.20263 0.0
loop_
_geom_bond_atom_site_label_1
_geom_bond_atom_site_label_2
_geom_bond_distance
_geom_bond_site_symmetry_2
_ccdc_geom_bond_type
O0 Zn1 1.953 . S
O0 C16 1.222 1_565 S
Zn1 O0 1.953 . S
Zn1 O2 1.949 1_565 S
Zn1 O8 1.919 . S
Zn1 O13 1.924 1_565 S
O2 Zn1 1.949 1_545 S
O2 Zn3 1.923 1_544 S
O2 Zn4 1.950 1_455 S
O2 Zn5 1.945 1_554 S
Zn3 O2 1.923 1_566 S
Zn3 O6 1.933 . S
Zn3 O9 1.941 . S
Zn3 O10 1.965 1_455 S
Zn4 O2 1.950 1_655 S
Zn4 O11 1.938 1_545 S
Zn4 O12 1.906 . S
Zn4 O22 1.953 . S
Zn5 O2 1.945 1_556 S
Zn5 O7 1.932 . S
Zn5 O14 1.977 1_455 S
Zn5 O15 1.910 . S
O6 Zn3 1.933 . S
O6 C17 1.226 1_565 S
O7 Zn5 1.932 . S
O7 C17 1.307 . S
O8 Zn1 1.919 . S
O8 C19 1.253 . S
O9 Zn3 1.941 . S
O9 C19 1.283 1_556 S
O10 Zn3 1.965 1_655 S
O10 C18 1.303 1_556 S
O11 Zn4 1.938 1_565 S
O11 C18 1.247 . S
O12 Zn4 1.906 . S
O12 C20 1.304 1_554 S
O13 Zn1 1.924 1_545 S
O13 C21 1.311 . S
O14 Zn5 1.977 1_655 S
O14 C20 1.272 . S
O15 Zn5 1.910 . S
O15 C21 1.231 1_556 S
C16 O0 1.222 1_545 S
C16 O22 1.301 1_455 S
C17 O6 1.226 1_545 S
C17 O7 1.307 . S
C18 O10 1.303 1_554 S
C18 O11 1.247 . S
C19 O8 1.253 . S
C19 O9 1.283 1_554 S
C20 O12 1.304 1_556 S
C20 O14 1.272 . S
C21 O13 1.311 . S
C21 O15 1.231 1_554 S
O22 Zn4 1.953 . S
O22 C16 1.301 1_655 S
O23 Zn24 1.953 . S
O23 C39 1.225 . S
Zn24 O23 1.953 . S
Zn24 O25 1.949 . S
Zn24 O31 1.919 . S
Zn24 O36 1.924 . S
O25 Zn24 1.949 . S
O25 Zn26 1.923 . S
O25 Zn27 1.950 . S
O25 Zn28 1.945 . S
Zn26 O25 1.923 . S
Zn26 O29 1.933 . S
Zn26 O32 1.941 . S
Zn26 O33 1.965 . S
Zn27 O25 1.950 . S
Zn27 O34 1.938 . S
Zn27 O35 1.906 . S
Zn27 O45 1.953 . S
Zn28 O25 1.945 . S
Zn28 O30 1.932 . S
Zn28 O37 1.977 . S
Zn28 O38 1.910 . S
O29 Zn26 1.933 . S
O29 C40 1.226 . S
O30 Zn28 1.932 . S
O30 C40 1.307 . S
O31 Zn24 1.919 . S
O31 C42 1.253 . S
O32 Zn26 1.941 . S
O32 C42 1.283 . S
O33 Zn26 1.965 . S
O33 C41 1.303 . S
O34 Zn27 1.938 . S
O34 C41 1.247 . S
O35 Zn27 1.906 . S
O35 C43 1.304 . S
O36 Zn24 1.924 . S
O36 C44 1.311 . S
O37 Zn28 1.977 . S
O37 C43 1.272 . S
O38 Zn28 1.910 . S
O38 C44 1.231 . S
C39 O23 1.225 . S
C39 O45 1.298 . S
C40 O29 1.226 . S
C40 O30 1.307 . S
C41 O33 1.303 . S
C41 O34 1.247 . S
C42 O31 1.253 . S
C42 O32 1.283 . S
C43 O35 1.304 . S
C43 O37 1.272 . S
C44 O36 1.311 . S
C44 O38 1.231 . S
O45 Zn27 1.953 . S
O45 C39 1.298 . S
H46 C53 0.929 . S
H47 C56 0.930 . S
H48 C58 0.929 . S
H49 C50 0.969 . S
C50 H49 0.969 . S
C50 O51 1.550 . S
C50 H52 0.973 . S
O51 C50 1.550 . S
O51 C57 1.412 . S
H52 C50 0.973 . S
C53 H46 0.929 . S
C53 C54 1.400 . S
C53 C55 1.364 . S
C54 C53 1.400 . S
C54 C58 1.377 . S
C55 C53 1.364 . S
C55 C56 1.374 1_465 S
C56 H47 0.930 . S
C56 C55 1.374 1_645 S
C56 C57 1.383 . S
C57 O51 1.412 . S
C57 C56 1.383 . S
C57 C58 1.394 1_645 S
C58 H48 0.929 . S
C58 C54 1.377 . S
C58 C57 1.394 1_465 S
H59 C66 0.929 . S
H60 C69 0.930 1_655 S
H61 C71 0.929 . S
H62 C63 0.969 . S
C63 H62 0.969 . S
C63 O64 1.550 . S
C63 H65 0.973 . S
O64 C63 1.550 . S
O64 C70 1.412 1_665 S
H65 C63 0.973 . S
C66 H59 0.929 . S
C66 C67 1.400 . S
C66 C68 1.364 . S
C67 C66 1.400 . S
C67 C71 1.377 . S
C68 C66 1.364 . S
C68 C69 1.374 1_545 S
C69 H60 0.930 1_455 S
C69 C68 1.374 1_565 S
C69 C70 1.383 1_565 S
C70 O64 1.412 1_445 S
C70 C69 1.383 1_545 S
C70 C71 1.394 . S
C71 H61 0.929 . S
C71 C67 1.377 . S
C71 C70 1.394 . S
H72 C79 0.929 . S
H73 C82 0.930 . S
H74 C84 0.929 . S
H75 C76 0.969 . S
C76 H75 0.969 . S
C76 O77 1.550 . S
C76 H78 0.973 . S
O77 C76 1.550 . S
O77 C83 1.412 . S
H78 C76 0.973 . S
C79 H72 0.929 . S
C79 C80 1.400 . S
C79 C81 1.364 . S
C80 C79 1.400 . S
C80 C84 1.377 . S
C81 C79 1.364 . S
C81 C82 1.374 . S
C82 H73 0.930 . S
C82 C81 1.374 . S
C82 C83 1.383 . S
C83 O77 1.412 . S
C83 C82 1.383 . S
C83 C84 1.394 . S
C84 H74 0.929 . S
C84 C80 1.377 . S
C84 C83 1.394 . S
H85 C92 0.929 . S
H86 C95 0.930 . S
H87 C97 0.929 . S
H88 C89 0.969 . S
C89 H88 0.969 . S
C89 O90 1.550 . S
C89 H91 0.973 . S
O90 C89 1.550 . S
O90 C96 1.412 . S
H91 C89 0.973 . S
C92 H85 0.929 . S
C92 C93 1.400 . S
C92 C94 1.364 . S
C93 C92 1.400 . S
C93 C97 1.377 . S
C94 C92 1.364 . S
C94 C95 1.374 . S
C95 H86 0.930 . S
C95 C94 1.374 . S
C95 C96 1.383 . S
C96 O90 1.412 . S
C96 C95 1.383 . S
C96 C97 1.394 . S
C97 H87 0.929 . S
C97 C93 1.377 . S
C97 C96 1.394 . S
H98 C106 0.950 . S
H99 C111 0.950 . S
H100 C108 0.950 . S
H101 C110 0.950 . S
H102 C112 0.950 . S
H103 C114 0.950 . S
H104 C116 0.950 . S
H105 C117 0.950 . S
C106 H98 0.950 . S
C106 C107 1.386 . S
C106 C108 1.391 . S
C107 C106 1.386 . S
C107 C111 1.393 . S
C108 H100 0.950 . S
C108 C106 1.391 . S
C108 C109 1.400 . S
C109 C108 1.400 . S
C109 C110 1.398 . S
C109 C115 1.491 . S
C110 H101 0.950 . S
C110 C109 1.398 . S
C110 C111 1.391 . S
C111 H99 0.950 . S
C111 C107 1.393 . S
C111 C110 1.391 . S
C112 H102 0.950 . S
C112 C113 1.386 . S
C112 C114 1.391 . S
C113 C112 1.386 . S
C113 C117 1.393 . S
C114 H103 0.950 . S
C114 C112 1.391 . S
C114 C115 1.400 . S
C115 C109 1.491 . S
C115 C114 1.400 . S
C115 C116 1.398 . S
C116 H104 0.950 . S
C116 C115 1.398 . S
C116 C117 1.391 . S
C117 H105 0.950 . S
C117 C113 1.393 . S
C117 C116 1.391 . S
H118 C126 0.950 . S
H119 C131 0.950 . S
H120 C128 0.950 1_554 S
H121 C130 0.950 . S
H122 C132 0.950 . S
H123 C134 0.950 . S
H124 C136 0.950 . S
H125 C137 0.950 . S
C126 H118 0.950 . S
C126 C127 1.386 1_554 S
C126 C128 1.391 1_554 S
C127 C126 1.386 1_556 S
C127 C131 1.393 . S
C128 H120 0.950 1_556 S
C128 C126 1.391 1_556 S
C128 C129 1.400 . S
C129 C128 1.400 . S
C129 C130 1.398 . S
C129 C135 1.491 . S
C130 H121 0.950 . S
C130 C129 1.398 . S
C130 C131 1.391 . S
C131 H119 0.950 . S
C131 C127 1.393 . S
C131 C130 1.391 . S
C132 H122 0.950 . S
C132 C133 1.386 . S
C132 C134 1.391 . S
C133 C132 1.386 . S
C133 C137 1.393 . S
C134 H123 0.950 . S
C134 C132 1.391 . S
C134 C135 1.400 . S
C135 C129 1.491 . S
C135 C134 1.400 . S
C135 C136 1.398 . S
C136 H124 0.950 . S
C136 C135 1.398 . S
C136 C137 1.391 . S
C137 H125 0.950 . S
C137 C133 1.393 . S
C137 C136 1.391 . S
H138 C146 0.950 . S
H139 C151 0.950 . S
H140 C148 0.950 . S
H141 C150 0.950 . S
H142 C152 0.950 . S
H143 C154 0.950 . S
H144 C156 0.950 . S
H145 C157 0.950 . S
C146 H138 0.950 . S
C146 C147 1.386 . S
C146 C148 1.391 . S
C147 C146 1.386 . S
C147 C151 1.393 . S
C148 H140 0.950 . S
C148 C146 1.391 . S
C148 C149 1.400 . S
C149 C148 1.400 . S
C149 C150 1.398 . S
C149 C155 1.491 . S
C150 H141 0.950 . S
C150 C149 1.398 . S
C150 C151 1.391 . S
C151 H139 0.950 . S
C151 C147 1.393 . S
C151 C150 1.391 . S
C152 H142 0.950 . S
C152 C153 1.386 . S
C152 C154 1.391 . S
C153 C152 1.386 . S
C153 C157 1.393 . S
C154 H143 0.950 . S
C154 C152 1.391 . S
C154 C155 1.400 . S
C155 C149 1.491 . S
C155 C154 1.400 . S
C155 C156 1.398 . S
C156 H144 0.950 . S
C156 C155 1.398 . S
C156 C157 1.391 . S
C157 H145 0.950 . S
C157 C153 1.393 . S
C157 C156 1.391 . S
H158 C166 0.950 . S
H159 C171 0.950 1_554 S
H160 C168 0.950 . S
H161 C170 0.950 . S
H162 C172 0.950 . S
H163 C174 0.950 . S
H164 C176 0.950 . S
H165 C177 0.950 . S
C166 H158 0.950 . S
C166 C167 1.386 . S
C166 C168 1.391 . S
C167 C166 1.386 . S
C167 C171 1.393 . S
C168 H160 0.950 . S
C168 C166 1.391 . S
C168 C169 1.400 . S
C169 C168 1.400 . S
C169 C170 1.398 . S
C169 C175 1.491 . S
C170 H161 0.950 . S
C170 C169 1.398 . S
C170 C171 1.391 . S
C171 H159 0.950 1_556 S
C171 C167 1.393 . S
C171 C170 1.391 . S
C172 H162 0.950 . S
C172 C173 1.386 . S
C172 C174 1.391 . S
C173 C172 1.386 . S
C173 C177 1.393 . S
C174 H163 0.950 . S
C174 C172 1.391 . S
C174 C175 1.400 . S
C175 C169 1.491 . S
C175 C174 1.400 . S
C175 C176 1.398 . S
C176 H164 0.950 . S
C176 C175 1.398 . S
C176 C177 1.391 . S
C177 H165 0.950 . S
C177 C173 1.393 . S
C177 C176 1.391 . S
H178 C186 0.950 . S
H179 C191 0.950 . S
H180 C188 0.950 . S
H181 C190 0.950 . S
H182 C192 0.950 . S
H183 C194 0.950 . S
H184 C196 0.950 . S
H185 C197 0.950 . S
C186 H178 0.950 . S
C186 C187 1.386 . S
C186 C188 1.391 . S
C187 C186 1.386 . S
C187 C191 1.393 . S
C188 H180 0.950 . S
C188 C186 1.391 . S
C188 C189 1.400 . S
C189 C188 1.400 . S
C189 C190 1.398 . S
C189 C195 1.491 . S
C190 H181 0.950 . S
C190 C189 1.398 . S
C190 C191 1.391 . S
C191 H179 0.950 . S
C191 C187 1.393 . S
C191 C190 1.391 . S
C192 H182 0.950 . S
C192 C193 1.386 . S
C192 C194 1.391 . S
C193 C192 1.386 . S
C193 C197 1.393 . S
C194 H183 0.950 . S
C194 C192 1.391 . S
C194 C195 1.400 . S
C195 C189 1.491 . S
C195 C194 1.400 . S
C195 C196 1.398 . S
C196 H184 0.950 . S
C196 C195 1.398 . S
C196 C197 1.391 . S
C197 H185 0.950 . S
C197 C193 1.393 . S
C197 C196 1.391 . S
H198 C206 0.950 . S
H199 C211 0.950 . S
H200 C208 0.950 . S
H201 C210 0.950 . S
H202 C212 0.950 . S
H203 C214 0.950 . S
H204 C216 0.950 . S
H205 C217 0.950 . S
C206 H198 0.950 . S
C206 C207 1.386 . S
C206 C208 1.391 . S
C207 C206 1.386 . S
C207 C211 1.393 . S
C208 H200 0.950 . S
C208 C206 1.391 . S
C208 C209 1.400 . S
C209 C208 1.400 . S
C209 C210 1.398 . S
C209 C215 1.491 . S
C210 H201 0.950 . S
C210 C209 1.398 . S
C210 C211 1.391 . S
C211 H199 0.950 . S
C211 C207 1.393 . S
C211 C210 1.391 . S
C212 H202 0.950 . S
C212 C213 1.386 . S
C212 C214 1.391 . S
C213 C212 1.386 . S
C213 C217 1.393 . S
C214 H203 0.950 . S
C214 C212 1.391 . S
C214 C215 1.400 . S
C215 C209 1.491 . S
C215 C214 1.400 . S
C215 C216 1.398 . S
C216 H204 0.950 . S
C216 C215 1.398 . S
C216 C217 1.391 . S
C217 H205 0.950 . S
C217 C213 1.393 . S
C217 C216 1.391 . S
H218 C226 0.950 . S
H219 C231 0.950 . S
H220 C228 0.950 . S
H221 C230 0.950 . S
H222 C232 0.950 . S
H223 C234 0.950 . S
H224 C236 0.950 . S
H225 C237 0.950 . S
C226 H218 0.950 . S
C226 C227 1.386 . S
C226 C228 1.391 . S
C227 C226 1.386 . S
C227 C231 1.393 . S
C228 H220 0.950 . S
C228 C226 1.391 . S
C228 C229 1.400 . S
C229 C228 1.400 . S
C229 C230 1.398 . S
C229 C235 1.491 . S
C230 H221 0.950 . S
C230 C229 1.398 . S
C230 C231 1.391 . S
C231 H219 0.950 . S
C231 C227 1.393 . S
C231 C230 1.391 . S
C232 H222 0.950 . S
C232 C233 1.386 . S
C232 C234 1.391 . S
C233 C232 1.386 . S
C233 C237 1.393 . S
C234 H223 0.950 . S
C234 C232 1.391 . S
C234 C235 1.400 . S
C235 C229 1.491 . S
C235 C234 1.400 . S
C235 C236 1.398 . S
C236 H224 0.950 . S
C236 C235 1.398 . S
C236 C237 1.391 . S
C237 H225 0.950 . S
C237 C233 1.393 . S
C237 C236 1.391 . S
H238 C246 0.950 . S
H239 C251 0.950 . S
H240 C248 0.950 . S
H241 C250 0.950 . S
H242 C252 0.950 . S
H243 C254 0.950 . S
H244 C256 0.950 . S
H245 C257 0.950 . S
C246 H238 0.950 . S
C246 C247 1.386 . S
C246 C248 1.391 . S
C247 C246 1.386 . S
C247 C251 1.393 . S
C248 H240 0.950 . S
C248 C246 1.391 . S
C248 C249 1.400 . S
C249 C248 1.400 . S
C249 C250 1.398 . S
C249 C255 1.491 . S
C250 H241 0.950 . S
C250 C249 1.398 . S
C250 C251 1.391 . S
C251 H239 0.950 . S
C251 C247 1.393 . S
C251 C250 1.391 . S
C252 H242 0.950 . S
C252 C253 1.386 . S
C252 C254 1.391 . S
C253 C252 1.386 . S
C253 C257 1.393 . S
C254 H243 0.950 . S
C254 C252 1.391 . S
C254 C255 1.400 . S
C255 C249 1.491 . S
C255 C254 1.400 . S
C255 C256 1.398 . S
C256 H244 0.950 . S
C256 C255 1.398 . S
C256 C257 1.391 . S
C257 H245 0.950 . S
C257 C253 1.393 . S
C257 C256 1.391 . S
H258 C266 0.950 . S
H259 C271 0.950 . S
H260 C268 0.950 . S
H261 C270 0.950 . S
H262 C272 0.950 . S
H263 C274 0.950 . S
H264 C276 0.950 . S
H265 C277 0.950 . S
C266 H258 0.950 . S
C266 C267 1.378 1_545 S
C266 C268 1.391 . S
C267 C266 1.378 1_565 S
C267 C271 1.399 1_455 S
C268 H260 0.950 . S
C268 C266 1.391 . S
C268 C269 1.400 1_545 S
C269 C268 1.400 1_565 S
C269 C270 1.398 1_455 S
C269 C275 1.491 . S
C270 H261 0.950 . S
C270 C269 1.398 1_655 S
C270 C271 1.391 . S
C271 H259 0.950 . S
C271 C267 1.399 1_655 S
C271 C270 1.391 . S
C272 H262 0.950 . S
C272 C273 1.386 1_655 S
C272 C274 1.391 . S
C273 C272 1.386 1_455 S
C273 C277 1.393 1_565 S
C274 H263 0.950 . S
C274 C272 1.391 . S
C274 C275 1.400 1_655 S
C275 C269 1.491 . S
C275 C274 1.400 1_455 S
C275 C276 1.398 1_565 S
C276 H264 0.950 . S
C276 C275 1.398 1_545 S
C276 C277 1.391 . S
C277 H265 0.950 . S
C277 C273 1.393 1_545 S
C277 C276 1.391 . S
H278 C286 0.950 . S
H279 C291 0.950 . S
H280 C288 0.950 . S
H281 C290 0.950 . S
H282 C292 0.950 . S
H283 C294 0.950 . S
H284 C296 0.950 . S
H285 C297 0.950 . S
C286 H278 0.950 . S
C286 C287 1.386 . S
C286 C288 1.391 . S
C287 C286 1.386 . S
C287 C291 1.393 1_445 S
C288 H280 0.950 . S
C288 C286 1.391 . S
C288 C289 1.400 . S
C289 C288 1.400 . S
C289 C290 1.398 1_445 S
C289 C295 1.491 . S
C290 H281 0.950 . S
C290 C289 1.398 1_665 S
C290 C291 1.391 . S
C291 H279 0.950 . S
C291 C287 1.393 1_665 S
C291 C290 1.391 . S
C292 H282 0.950 . S
C292 C293 1.386 1_665 S
C292 C294 1.391 . S
C293 C292 1.386 1_445 S
C293 C297 1.393 . S
C294 H283 0.950 . S
C294 C292 1.391 . S
C294 C295 1.400 1_665 S
C295 C289 1.491 . S
C295 C294 1.400 1_445 S
C295 C296 1.398 . S
C296 H284 0.950 . S
C296 C295 1.398 . S
C296 C297 1.391 . S
C297 H285 0.950 . S
C297 C293 1.393 . S
C297 C296 1.391 . S
H298 C306 0.950 . S
H299 C311 0.950 . S
H300 C308 0.950 . S
H301 C310 0.950 . S
H302 C312 0.950 . S
H303 C314 0.950 . S
H304 C316 0.950 . S
H305 C317 0.950 . S
C306 H298 0.950 . S
C306 C307 1.386 . S
C306 C308 1.391 . S
C307 C306 1.386 . S
C307 C311 1.393 . S
C308 H300 0.950 . S
C308 C306 1.391 . S
C308 C309 1.400 . S
C309 C308 1.400 . S
C309 C310 1.398 . S
C309 C315 1.491 . S
C310 H301 0.950 . S
C310 C309 1.398 . S
C310 C311 1.391 . S
C311 H299 0.950 . S
C311 C307 1.393 . S
C311 C310 1.391 . S
C312 H302 0.950 . S
C312 C313 1.386 . S
C312 C314 1.391 . S
C313 C312 1.386 . S
C313 C317 1.393 . S
C314 H303 0.950 . S
C314 C312 1.391 . S
C314 C315 1.400 . S
C315 C309 1.491 . S
C315 C314 1.400 . S
C315 C316 1.398 . S
C316 H304 0.950 . S
C316 C315 1.398 . S
C316 C317 1.391 . S
C317 H305 0.950 . S
C317 C313 1.393 . S
C317 C316 1.391 . S
H318 C326 0.950 . S
H319 C331 0.950 . S
H320 C328 0.950 . S
H321 C330 0.950 . S
H322 C332 0.950 . S
H323 C334 0.950 . S
H324 C336 0.950 . S
H325 C337 0.950 . S
C326 H318 0.950 . S
C326 C327 1.386 . S
C326 C328 1.391 . S
C327 C326 1.386 . S
C327 C331 1.393 . S
C328 H320 0.950 . S
C328 C326 1.391 . S
C328 C329 1.400 . S
C329 C328 1.400 . S
C329 C330 1.398 . S
C329 C335 1.491 . S
C330 H321 0.950 . S
C330 C329 1.398 . S
C330 C331 1.391 . S
C331 H319 0.950 . S
C331 C327 1.393 . S
C331 C330 1.391 . S
C332 H322 0.950 . S
C332 C333 1.386 . S
C332 C334 1.391 . S
C333 C332 1.386 . S
C333 C337 1.393 . S
C334 H323 0.950 . S
C334 C332 1.391 . S
C334 C335 1.400 . S
C335 C329 1.491 . S
C335 C334 1.400 . S
C335 C336 1.398 . S
C336 H324 0.950 . S
C336 C335 1.398 . S
C336 C337 1.391 . S
C337 H325 0.950 . S
C337 C333 1.393 . S
C337 C336 1.391 . S
C113 C89 1.336 . S
C107 C21 1.415 . S
C127 C19 1.400 1_556 S
C133 C76 1.322 . S
C147 C18 1.484 . S
C153 C93 1.506 . S
C167 C20 1.517 . S
C173 C80 1.515 . S
C187 C44 1.413 . S
C193 C63 1.322 . S
C207 C42 1.400 . S
C213 C50 1.331 . S
C233 C67 1.506 . S
C227 C41 1.488 . S
C253 C54 1.508 . S
C247 C43 1.506 . S
C267 C16 1.530 1_565 S
C273 C55 1.519 . S
C287 C17 1.493 . S
C293 C68 1.490 . S
C313 C81 1.524 . S
C307 C39 1.527 . S
C327 C40 1.495 . S
C333 C94 1.494 . S
