# Generated by pormake.
# Topology anh, (6,3)-cn, num edge types: 1
# Building blocks:
#     Node 0, Type 0, BuildingBlock: VOLQOD_clean_sbu_1, # of connection points: 6
#     Node 1, Type 0, BuildingBlock: VOLQOD_clean_sbu_1, # of connection points: 6
#     Node 2, Type 0, BuildingBlock: VOLQOD_clean_sbu_1, # of connection points: 6
#     Node 3, Type 1, BuildingBlock: KAKCAD_clean_linker_0, # of connection points: 3
#     Node 4, Type 1, BuildingBlock: KAKCAD_clean_linker_0, # of connection points: 3
#     Node 5, Type 1, BuildingBlock: KAKCAD_clean_linker_0, # of connection points: 3
#     Node 6, Type 1, BuildingBlock: KAKCAD_clean_linker_0, # of connection points: 3
#     Node 7, Type 1, BuildingBlock: KAKCAD_clean_linker_0, # of connection points: 3
#     Node 8, Type 1, BuildingBlock: KAKCAD_clean_linker_0, # of connection points: 3
#     Edge 9, Type (0, 1), BuildingBlock: MIFKUJ_clean_linker_0, # of connection points: 2
#     Edge 10, Type (0, 1), BuildingBlock: MIFKUJ_clean_linker_0, # of connection points: 2
#     Edge 11, Type (0, 1), BuildingBlock: MIFKUJ_clean_linker_0, # of connection points: 2
#     Edge 12, Type (0, 1), BuildingBlock: MIFKUJ_clean_linker_0, # of connection points: 2
#     Edge 13, Type (0, 1), BuildingBlock: MIFKUJ_clean_linker_0, # of connection points: 2
#     Edge 14, Type (0, 1), BuildingBlock: MIFKUJ_clean_linker_0, # of connection points: 2
#     Edge 15, Type (0, 1), BuildingBlock: MIFKUJ_clean_linker_0, # of connection points: 2
#     Edge 16, Type (0, 1), BuildingBlock: MIFKUJ_clean_linker_0, # of connection points: 2
#     Edge 17, Type (0, 1), BuildingBlock: MIFKUJ_clean_linker_0, # of connection points: 2
#     Edge 18, Type (0, 1), BuildingBlock: MIFKUJ_clean_linker_0, # of connection points: 2
#     Edge 19, Type (0, 1), BuildingBlock: MIFKUJ_clean_linker_0, # of connection points: 2
#     Edge 20, Type (0, 1), BuildingBlock: MIFKUJ_clean_linker_0, # of connection points: 2
#     Edge 21, Type (0, 1), BuildingBlock: MIFKUJ_clean_linker_0, # of connection points: 2
#     Edge 22, Type (0, 1), BuildingBlock: MIFKUJ_clean_linker_0, # of connection points: 2
#     Edge 23, Type (0, 1), BuildingBlock: MIFKUJ_clean_linker_0, # of connection points: 2
#     Edge 24, Type (0, 1), BuildingBlock: MIFKUJ_clean_linker_0, # of connection points: 2
#     Edge 25, Type (0, 1), BuildingBlock: MIFKUJ_clean_linker_0, # of connection points: 2
#     Edge 26, Type (0, 1), BuildingBlock: MIFKUJ_clean_linker_0, # of connection points: 2
# Relax obj value: 0.167
# Max RMSD: 0.230
# Mean RMSD: 0.114
data_MOF--net-anh--node1-VOLQOD_clean_sbu_1--node2-KAKCAD_clean_linker_0--edge1-MIFKUJ_clean_linker_0
_symmetry_space_group_name_H-M    P1
_symmetry_Int_Tables_number       1
_symmetry_cell_setting            triclinic
loop_
_symmetry_equiv_pos_as_xyz
'x, y, z'
_cell_length_a     42.865867
_cell_length_b     42.798465
_cell_length_c     92.445233
_cell_angle_alpha  90.180719
_cell_angle_beta   89.843467
_cell_angle_gamma 120.08606
loop_
_atom_site_label
_atom_site_type_symbol
_atom_site_fract_x
_atom_site_fract_y
_atom_site_fract_z
_atom_type_partial_charge
O0 O 0.00267 0.55164 0.18925 0.0
Zn1 Zn 0.00943 0.56476 0.1681 0.0
O2 O 0.01673 0.53005 0.15681 0.0
Zn3 Zn 0.97777 0.50488 0.14283 0.0
Zn4 Zn 0.01766 0.49484 0.16985 0.0
Zn5 Zn 0.06244 0.55536 0.14654 0.0
O6 O -0.00354 0.51234 0.12232 0.0
O7 O 0.05499 0.55077 0.12505 0.0
O8 O 0.96539 0.56609 0.16135 0.0
O9 O 0.94442 0.52478 0.14389 0.0
O10 O 0.9476 0.45141 0.1472 0.0
O11 O 0.97482 0.44583 0.16657 0.0
O12 O 0.0619 0.49073 0.16705 0.0
O13 O 0.05285 0.61483 0.1667 0.0
O14 O 0.09367 0.53417 0.15122 0.0
O15 O 0.08958 0.60808 0.15168 0.0
C16 C 0.0071 0.52907 0.19661 0.0
C17 C 0.02777 0.53221 0.11698 0.0
C18 C 0.94958 0.43222 0.15728 0.0
C19 C 0.94229 0.54842 0.15155 0.0
C20 C 0.08997 0.50854 0.15933 0.0
C21 C 0.08253 0.62784 0.1598 0.0
O22 O 0.01482 0.50705 0.19055 0.0
O23 O 0.47502 0.01312 0.46698 0.0
Zn24 Zn 0.45875 0.01001 0.48761 0.0
O25 O 0.48895 0.0007 0.50068 0.0
Zn26 Zn 0.50688 0.0368 0.51595 0.0
Zn27 Zn 0.5293 0.00285 0.48993 0.0
Zn28 Zn 0.46091 0.95338 0.50947 0.0
O29 O 0.49627 0.01473 0.53578 0.0
O30 O 0.46242 0.95614 0.53123 0.0
O31 O 0.45925 0.05613 0.49281 0.0
O32 O 0.48454 0.06786 0.5146 0.0
O33 O 0.56019 0.0705 0.51371 0.0
O34 O 0.57592 0.04598 0.49598 0.0
O35 O 0.53254 0.95796 0.49284 0.0
O36 O 0.40738 0.96933 0.48843 0.0
O37 O 0.48075 0.9215 0.50391 0.0
O38 O 0.40932 0.92964 0.50326 0.0
C39 C 0.50112 0.01171 0.46104 0.0
C40 C 0.47779 0.98225 0.54014 0.0
C41 C 0.58396 0.07063 0.50539 0.0
C42 C 0.46848 0.07435 0.50451 0.0
C43 C 0.50997 0.92719 0.49798 0.0
C44 C 0.39185 0.93915 0.495 0.0
O45 O 0.52387 0.00784 0.46851 0.0
O46 O 0.48398 0.47227 0.80299 0.0
Zn47 Zn 0.46855 0.45761 0.82369 0.0
O48 O 0.50657 0.48877 0.83721 0.0
Zn49 Zn 0.48646 0.50541 0.85221 0.0
Zn50 Zn 0.54379 0.5301 0.82672 0.0
Zn51 Zn 0.52733 0.46246 0.84632 0.0
O52 O 0.49422 0.49247 0.87223 0.0
O53 O 0.52119 0.46067 0.86794 0.0
O54 O 0.42326 0.46002 0.8272 0.0
O55 O 0.43365 0.48507 0.84904 0.0
O56 O 0.50674 0.55889 0.85096 0.0
O57 O 0.54293 0.57542 0.83185 0.0
O58 O 0.59265 0.5372 0.83109 0.0
O59 O 0.45747 0.40617 0.82578 0.0
O60 O 0.58083 0.48681 0.84251 0.0
O61 O 0.50207 0.41091 0.83958 0.0
C62 C 0.51189 0.49869 0.79738 0.0
C63 C 0.50803 0.47401 0.87672 0.0
C64 C 0.52753 0.58287 0.842 0.0
C65 C 0.41291 0.47016 0.83828 0.0
C66 C 0.60317 0.51714 0.8369 0.0
C67 C 0.47386 0.39202 0.83204 0.0
O68 O 0.53678 0.52265 0.80524 0.0
C69 C 0.54357 0.05448 0.29831 0.0
C70 C 0.52045 0.02231 0.30564 0.0
C71 C 0.54358 0.05568 0.2832 0.0
C72 C 0.52076 0.0246 0.27509 0.0
C73 C 0.49814 0.99226 0.28249 0.0
C74 C 0.49782 0.9912 0.29759 0.0
C75 C 0.52011 0.02593 0.25899 0.0
C76 C 0.55199 0.04691 0.25109 0.0
C77 C 0.55143 0.04858 0.23591 0.0
C78 C 0.51852 0.02806 0.2286 0.0
C79 C 0.48638 0.00658 0.23628 0.0
C80 C 0.48744 0.00622 0.25146 0.0
C81 C 0.4518 0.98396 0.22848 0.0
C82 C 0.44344 -0.00348 0.21583 0.0
C83 C 0.4271 0.94916 0.23353 0.0
C84 C 0.39494 0.92747 0.22615 0.0
C85 C 0.38685 0.93986 0.21345 0.0
C86 C 0.58505 0.07235 0.22771 0.0
C87 C 0.60994 0.1068 0.23306 0.0
C88 C 0.59209 0.06135 0.21431 0.0
C89 C 0.62293 0.08451 0.20636 0.0
C90 C 0.64756 0.11899 0.2117 0.0
C91 C 0.64088 0.12977 0.22517 0.0
C92 C 0.41139 0.97457 0.20834 0.0
H93 H 0.56103 0.07894 0.30428 0.0
H94 H 0.56095 0.08119 0.2779 0.0
H95 H 0.48077 0.9676 0.27663 0.0
H96 H 0.48008 0.96593 0.30299 0.0
H97 H 0.57746 0.06151 0.25675 0.0
H98 H 0.46254 0.99099 0.25747 0.0
H99 H 0.51791 0.02885 0.21691 0.0
H100 H 0.46153 0.02337 0.21175 0.0
H101 H 0.43291 0.93825 0.24304 0.0
H102 H 0.37679 0.90054 0.23017 0.0
H103 H 0.6051 0.11645 0.24319 0.0
H104 H 0.57384 0.03479 0.20998 0.0
H105 H 0.40565 0.98482 0.19861 0.0
H106 H 0.6591 0.15643 0.22945 0.0
H107 H 0.62761 0.07539 0.19607 0.0
C108 C 0.53774 0.54785 0.63432 0.0
C109 C 0.55729 0.53726 0.64322 0.0
C110 C 0.5433 0.55059 0.61938 0.0
C111 C 0.56808 0.54223 0.61307 0.0
C112 C 0.58751 0.53148 0.62195 0.0
C113 C 0.58241 0.52934 0.63693 0.0
C114 C 0.57303 0.54408 0.5972 0.0
C115 C 0.57897 0.57492 0.58962 0.0
C116 C 0.58175 0.57615 0.57449 0.0
C117 C 0.57877 0.54629 0.56696 0.0
C118 C 0.57162 0.51472 0.57433 0.0
C119 C 0.56948 0.51413 0.58953 0.0
C120 C 0.56315 0.48149 0.56611 0.0
C121 C 0.54251 0.47267 0.55336 0.0
C122 C 0.57403 0.45752 0.57122 0.0
C123 C 0.56385 0.42518 0.56392 0.0
C124 C 0.54298 0.4164 0.55128 0.0
C125 C 0.58361 0.60675 0.56637 0.0
C126 C 0.55946 0.61884 0.56972 0.0
C127 C 0.60708 0.6219 0.55452 0.0
C128 C 0.60569 0.64802 0.54593 0.0
C129 C 0.58043 0.65887 0.54897 0.0
C130 C 0.55782 0.64457 0.56108 0.0
C131 C 0.53279 0.44061 0.54597 0.0
H132 H 0.51835 0.55423 0.63895 0.0
H133 H 0.52778 0.55865 0.61273 0.0
H134 H 0.60679 0.52496 0.6173 0.0
H135 H 0.59762 0.5209 0.64358 0.0
H136 H 0.58111 0.59788 0.5955 0.0
H137 H 0.56301 0.4897 0.59538 0.0
H138 H 0.5804 0.54711 0.55526 0.0
H139 H 0.53286 0.48997 0.54927 0.0
H140 H 0.5903 0.46367 0.58089 0.0
H141 H 0.57231 0.40701 0.56815 0.0
H142 H 0.54081 0.60736 0.57869 0.0
H143 H 0.62604 0.61308 0.55176 0.0
H144 H 0.51628 0.4342 0.53635 0.0
H145 H 0.53846 0.65294 0.56375 0.0
H146 H 0.62342 0.65878 0.53665 0.0
C147 C 0.10745 0.61853 0.9575 0.0
C148 C 0.07456 0.59342 0.96393 0.0
C149 C 0.10926 0.62567 0.94267 0.0
C150 C 0.07811 0.60821 0.93408 0.0
C151 C 0.04529 0.5831 0.94054 0.0
C152 C 0.04356 0.57568 0.95529 0.0
C153 C 0.07956 0.61563 0.91838 0.0
C154 C 0.10573 0.61465 0.90957 0.0
C155 C 0.105 0.61815 0.89447 0.0
C156 C 0.07801 0.62332 0.88827 0.0
C157 C 0.05165 0.62439 0.89697 0.0
C158 C 0.05302 0.62107 0.91203 0.0
C159 C 0.02096 0.62595 0.89035 0.0
C160 C 0.02604 0.64848 0.87846 0.0
C161 C 0.98591 0.60382 0.89573 0.0
C162 C 0.95667 0.60431 0.88948 0.0
C163 C 0.96164 0.62679 0.87763 0.0
C164 C 0.1303 0.61283 0.88519 0.0
C165 C 0.16646 0.62709 0.88932 0.0
C166 C 0.11772 0.59093 0.87276 0.0
C167 C 0.14028 0.582 0.86508 0.0
C168 C 0.17579 0.59462 0.86972 0.0
C169 C 0.18895 0.61802 0.88168 0.0
C170 C -0.00342 0.64882 0.87213 0.0
H171 H 0.1318 0.63241 0.96391 0.0
H172 H 0.13488 0.64516 0.93794 0.0
H173 H 0.02094 0.56891 0.93413 0.0
H174 H 0.0178 0.55645 0.95999 0.0
H175 H 0.12538 0.60903 0.91443 0.0
H176 H 0.03303 0.62223 0.91886 0.0
H177 H 0.0768 0.62525 0.87662 0.0
H178 H 0.05275 0.66599 0.87413 0.0
H179 H 0.98088 0.58543 0.90461 0.0
H180 H 0.92994 0.58637 0.89373 0.0
H181 H 0.17711 0.64453 0.8987 0.0
H182 H 0.08988 0.57911 0.86938 0.0
H183 H 0.00114 0.66646 0.86301 0.0
H184 H 0.2164 0.62854 0.88537 0.0
H185 H 0.1293 0.5636 0.85599 0.0
C186 C 0.93412 0.48963 0.35864 0.0
C187 C 0.9658 0.50026 0.35066 0.0
C188 C 0.93501 0.49027 0.37376 0.0
C189 C 0.9677 0.50208 0.3811 0.0
C190 C -0.00069 0.51253 0.3731 0.0
C191 C -0.00166 0.51148 0.35802 0.0
C192 C 0.9692 0.50422 0.39706 0.0
C193 C 0.94463 0.47493 0.4055 0.0
C194 C 0.94705 0.4766 0.42065 0.0
C195 C 0.97392 0.50813 0.42734 0.0
C196 C -0.0017 0.53784 0.41904 0.0
C197 C -0.0042 0.5356 0.4039 0.0
C198 C 0.02651 0.57116 0.42613 0.0
C199 C 0.01844 0.58514 0.43845 0.0
C200 C 0.06174 0.58932 0.42055 0.0
C201 C 0.08832 0.62082 0.42711 0.0
C202 C 0.08033 0.6348 0.43945 0.0
C203 C 0.92175 0.44535 0.42953 0.0
C204 C 0.8846 0.42757 0.4267 0.0
C205 C 0.93458 0.43332 0.44096 0.0
C206 C 0.91064 0.40404 0.44944 0.0
C207 C 0.87344 0.38652 0.4467 0.0
C208 C 0.86065 0.39851 0.43525 0.0
C209 C 0.04509 0.61666 0.44505 0.0
H210 H 0.90867 0.48071 0.35319 0.0
H211 H 0.91032 0.48224 0.3797 0.0
H212 H 0.0248 0.52148 0.37852 0.0
H213 H 0.0232 0.52012 0.35212 0.0
H214 H 0.92436 0.45042 0.40025 0.0
H215 H 0.01417 0.5586 0.39739 0.0
H216 H 0.97585 0.50947 0.43904 0.0
H217 H 0.99143 0.57193 0.44291 0.0
H218 H 0.06889 0.57902 0.41116 0.0
H219 H 0.1151 0.63442 0.42243 0.0
H220 H 0.87402 0.43646 0.418 0.0
H221 H 0.96316 0.44639 0.44328 0.0
H222 H 0.0382 0.6266 0.45462 0.0
H223 H 0.83211 0.3852 0.43281 0.0
H224 H 0.92116 0.3954 0.45824 0.0
C225 C 0.40342 0.90047 0.70082 0.0
C226 C 0.42734 0.9328 0.69366 0.0
C227 C 0.40032 0.89961 0.71592 0.0
C228 C 0.42075 0.93115 0.72409 0.0
C229 C 0.44486 0.96327 0.71696 0.0
C230 C 0.44827 0.96405 0.70196 0.0
C231 C 0.41762 0.93104 0.74004 0.0
C232 C 0.42086 0.90552 0.74842 0.0
C233 C 0.42283 0.90869 0.76355 0.0
C234 C 0.42045 0.93676 0.77032 0.0
C235 C 0.41628 0.96191 0.7621 0.0
C236 C 0.4147 0.95872 0.74697 0.0
C237 C 0.41633 0.99301 0.76923 0.0
C238 C 0.39704 0.98844 0.78213 0.0
C239 C 0.43675 0.02781 0.76338 0.0
C240 C 0.43816 0.05744 0.77032 0.0
C241 C 0.4193 0.05302 0.78331 0.0
C242 C 0.43134 0.88518 0.77224 0.0
C243 C 0.40693 0.84799 0.77322 0.0
C244 C 0.46434 0.90021 0.77959 0.0
C245 C 0.4731 0.87827 0.7877 0.0
C246 C 0.44865 0.84112 0.78881 0.0
C247 C 0.41537 0.8261 0.78162 0.0
C248 C 0.39844 0.01817 0.78909 0.0
H249 H 0.38666 0.87597 0.69476 0.0
H250 H 0.38152 0.87452 0.72118 0.0
H251 H 0.46152 0.9878 0.72304 0.0
H252 H 0.46769 0.98918 0.6969 0.0
H253 H 0.42413 0.88463 0.74319 0.0
H254 H 0.4117 0.97814 0.7405 0.0
H255 H 0.42313 0.93967 0.78198 0.0
H256 H 0.38089 0.96189 0.78684 0.0
H257 H 0.45229 0.03231 0.75356 0.0
H258 H 0.45406 0.08389 0.76549 0.0
H259 H 0.38134 0.83603 0.76761 0.0
H260 H 0.48353 0.92887 0.7789 0.0
H261 H 0.38377 0.01398 0.79912 0.0
H262 H 0.39629 0.79742 0.7823 0.0
H263 H 0.49888 0.8903 0.79319 0.0
C264 C 0.49177 0.39171 0.03763 0.0
C265 C 0.47333 0.40498 0.02942 0.0
C266 C 0.4869 0.38766 0.05262 0.0
C267 C 0.46367 0.39699 0.05974 0.0
C268 C 0.44454 0.40931 0.05144 0.0
C269 C 0.4491 0.41298 0.03649 0.0
C270 C 0.46114 0.3965 0.07581 0.0
C271 C 0.49223 0.40844 0.08431 0.0
C272 C 0.49113 0.41298 0.09932 0.0
C273 C 0.45854 0.40542 0.10587 0.0
C274 C 0.4272 0.39352 0.09758 0.0
C275 C 0.42851 0.38804 0.08265 0.0
C276 C 0.39483 0.39201 0.10413 0.0
C277 C 0.38371 0.37906 0.11827 0.0
C278 C 0.3771 0.40722 0.0967 0.0
C279 C 0.35019 0.41106 0.10348 0.0
C280 C 0.34049 0.40002 0.11787 0.0
C281 C 0.52477 0.42866 0.10791 0.0
C282 C 0.54924 0.41627 0.10598 0.0
C283 C 0.53331 0.45714 0.11765 0.0
C284 C 0.56602 0.47335 0.12512 0.0
C285 C 0.59069 0.46125 0.12304 0.0
C286 C 0.58183 0.43235 0.11349 0.0
C287 C 0.35666 0.38296 0.12509 0.0
H288 H 0.51078 0.38545 0.03255 0.0
H289 H 0.50177 0.37771 0.05864 0.0
H290 H 0.42684 0.41735 0.05651 0.0
H291 H 0.43388 0.42256 0.03049 0.0
H292 H 0.51789 0.41645 0.07916 0.0
H293 H 0.40423 0.37839 0.07625 0.0
H294 H 0.45803 0.41037 0.11734 0.0
H295 H 0.39664 0.36689 0.12421 0.0
H296 H 0.38521 0.4179 0.08587 0.0
H297 H 0.33767 0.42371 0.09757 0.0
H298 H 0.54326 0.3943 0.09858 0.0
H299 H 0.51513 0.46754 0.11921 0.0
H300 H 0.34956 0.37413 0.13618 0.0
H301 H 0.60055 0.42278 0.11151 0.0
H302 H 0.57211 0.49548 0.13244 0.0
H303 H 0.08677 0.44849 0.17135 0.0
H304 H 0.12918 0.42671 0.16763 0.0
H305 H 0.19788 0.52182 0.14257 0.0
H306 H 0.15562 0.54355 0.14604 0.0
H307 H 0.1811 0.46076 0.12816 0.0
H308 H 0.22224 0.50904 0.1761 0.0
H309 H 0.21521 0.51522 0.20225 0.0
H310 H 0.17813 0.40249 0.20828 0.0
H311 H 0.18448 0.39553 0.1821 0.0
H312 H 0.34185 0.46398 0.11777 0.0
H313 H 0.29776 0.47763 0.12818 0.0
H314 H 0.23852 0.37002 0.14578 0.0
H315 H 0.28286 0.35594 0.13521 0.0
H316 H 0.24435 0.42796 0.16472 0.0
H317 H 0.20691 0.38084 0.11691 0.0
H318 H 0.21535 0.37545 0.09082 0.0
H319 H 0.24531 0.48645 0.08466 0.0
H320 H 0.23762 0.49268 0.11077 0.0
C321 C 0.1112 0.46506 0.16524 0.0
C322 C 0.11763 0.49758 0.15885 0.0
C323 C 0.13544 0.4526 0.16317 0.0
C324 C 0.16657 0.47263 0.15479 0.0
C325 C 0.17386 0.50588 0.149 0.0
C326 C 0.14967 0.51826 0.15101 0.0
C327 C 0.19012 0.45783 0.15092 0.0
C328 C 0.19514 0.45389 0.13618 0.0
C329 C 0.20724 0.44749 0.16139 0.0
C330 C 0.20343 0.45167 0.17712 0.0
C331 C 0.21227 0.48549 0.18298 0.0
C332 C 0.20847 0.48915 0.19781 0.0
C333 C 0.19612 0.45924 0.20691 0.0
C334 C 0.18763 0.42562 0.20121 0.0
C335 C 0.19135 0.42181 0.18638 0.0
C336 C 0.31947 0.44318 0.12387 0.0
C337 C 0.31527 0.40864 0.12543 0.0
C338 C 0.29449 0.45111 0.12989 0.0
C339 C 0.26474 0.42465 0.13755 0.0
C340 C 0.26137 0.3907 0.13986 0.0
C341 C 0.28657 0.38271 0.13381 0.0
C342 C 0.23609 0.43218 0.14201 0.0
C343 C 0.22992 0.43449 0.15678 0.0
C344 C 0.21772 0.44102 0.13158 0.0
C345 C 0.22192 0.43727 0.11582 0.0
C346 C 0.21554 0.40417 0.11001 0.0
C347 C 0.22017 0.40096 0.09521 0.0
C348 C 0.23092 0.43061 0.08609 0.0
C349 C 0.23699 0.46351 0.09174 0.0
C350 C 0.23247 0.46688 0.10654 0.0
H351 H 0.2345 0.42807 0.07464 0.0
H352 H 0.19321 0.46213 0.2184 0.0
H353 H 0.60346 0.13906 0.51366 0.0
H354 H 0.65945 0.19402 0.50737 0.0
H355 H 0.70262 0.13 0.48991 0.0
H356 H 0.64625 0.07469 0.49583 0.0
H357 H 0.75347 0.20405 0.50677 0.0
H358 H 0.66995 0.14514 0.46695 0.0
H359 H 0.60951 0.11568 0.45592 0.0
H360 H 0.60358 0.21192 0.46247 0.0
H361 H 0.66367 0.24165 0.47391 0.0
H362 H 0.87888 0.32829 0.45509 0.0
H363 H 0.8346 0.27556 0.46872 0.0
H364 H 0.76652 0.32284 0.47233 0.0
H365 H 0.81044 0.37529 0.45856 0.0
H366 H 0.72923 0.25598 0.46318 0.0
H367 H 0.81356 0.31677 0.50158 0.0
H368 H 0.87306 0.34658 0.51344 0.0
H369 H 0.87815 0.24922 0.50963 0.0
H370 H 0.81887 0.21895 0.49755 0.0
C371 C 0.62526 0.1366 0.50891 0.0
C372 C 0.62038 0.10265 0.50505 0.0
C373 C 0.65715 0.16801 0.50531 0.0
C374 C 0.68474 0.16582 0.49807 0.0
C375 C 0.68147 0.13202 0.49553 0.0
C376 C 0.64926 0.10054 0.49884 0.0
C377 C 0.71391 0.19824 0.49109 0.0
C378 C 0.74849 0.21535 0.49715 0.0
C379 C 0.70687 0.21297 0.47871 0.0
C380 C 0.67094 0.1953 0.47163 0.0
C381 C 0.65551 0.15981 0.46629 0.0
C382 C 0.62136 0.1431 0.45991 0.0
C383 C 0.60259 0.16183 0.4586 0.0
C384 C 0.61806 0.19738 0.46357 0.0
C385 C 0.65216 0.21416 0.47001 0.0
C386 C 0.85467 0.32758 0.45898 0.0
C387 C 0.84792 0.3557 0.45572 0.0
C388 C 0.82947 0.29753 0.46679 0.0
C389 C 0.79738 0.2954 0.47162 0.0
C390 C 0.79106 0.3239 0.46866 0.0
C391 C 0.81607 0.35376 0.46076 0.0
C392 C 0.76918 0.26248 0.47888 0.0
C393 C 0.73453 0.245 0.47282 0.0
C394 C 0.7763 0.24759 0.49125 0.0
C395 C 0.81192 0.26571 0.49853 0.0
C396 C 0.82749 0.3018 0.50316 0.0
C397 C 0.86116 0.31876 0.50994 0.0
C398 C 0.87942 0.29983 0.51225 0.0
C399 C 0.864 0.26386 0.50781 0.0
C400 C 0.83035 0.24678 0.50101 0.0
H401 H 0.90547 0.31301 0.51751 0.0
H402 H 0.57616 0.14886 0.45365 0.0
H403 H 0.56674 0.64043 0.82407 0.0
H404 H 0.55871 0.69244 0.8207 0.0
H405 H 0.48403 0.65753 0.85649 0.0
H406 H 0.49167 0.6053 0.85992 0.0
H407 H 0.45438 0.66328 0.83203 0.0
H408 H 0.56136 0.73801 0.85823 0.0
H409 H 0.62511 0.76429 0.86524 0.0
H410 H 0.65838 0.80921 0.82274 0.0
H411 H 0.59482 0.78275 0.81539 0.0
H412 H 0.41342 0.79882 0.81199 0.0
H413 H 0.43073 0.76141 0.82608 0.0
H414 H 0.5224 0.79334 0.79792 0.0
H415 H 0.50615 0.83217 0.78443 0.0
H416 H 0.5426 0.79246 0.8236 0.0
H417 H 0.43827 0.70923 0.79574 0.0
H418 H 0.37522 0.67872 0.78732 0.0
H419 H 0.33802 0.64501 0.83075 0.0
H420 H 0.40084 0.67579 0.83946 0.0
C421 C 0.5494 0.64431 0.8315 0.0
C422 C 0.52943 0.61837 0.84212 0.0
C423 C 0.545 0.67423 0.82962 0.0
C424 C 0.52074 0.67881 0.83835 0.0
C425 C 0.5029 0.65447 0.84965 0.0
C426 C 0.50734 0.62461 0.85158 0.0
C427 C 0.50972 0.70521 0.83414 0.0
C428 C 0.4735 0.69166 0.83042 0.0
C429 C 0.53491 0.74209 0.83186 0.0
C430 C 0.57324 0.75818 0.83624 0.0
C431 C 0.58224 0.75325 0.85034 0.0
C432 C 0.61836 0.76823 0.85438 0.0
C433 C 0.64577 0.78836 0.84444 0.0
C434 C 0.63712 0.79361 0.83044 0.0
C435 C 0.60104 0.77867 0.82633 0.0
C436 C 0.43724 0.79771 0.80889 0.0
C437 C 0.45845 0.81804 0.79716 0.0
C438 C 0.44707 0.77632 0.81688 0.0
C439 C 0.47761 0.77407 0.81294 0.0
C440 C 0.49883 0.79466 0.80122 0.0
C441 C 0.48948 0.81667 0.79347 0.0
C442 C 0.48742 0.74999 0.82078 0.0
C443 C 0.52335 0.76407 0.82529 0.0
C444 C 0.46208 0.7132 0.82349 0.0
C445 C 0.42426 0.69545 0.81829 0.0
C446 C 0.41663 0.69575 0.80352 0.0
C447 C 0.38093 0.67834 0.7987 0.0
C448 C 0.35262 0.66017 0.80851 0.0
C449 C 0.35996 0.6593 0.82317 0.0
C450 C 0.3956 0.67675 0.82806 0.0
H451 H 0.32501 0.64654 0.80474 0.0
H452 H 0.67372 0.79993 0.84759 0.0
H453 H 0.92057 0.58688 0.16856 0.0
H454 H 0.86444 0.58858 0.16638 0.0
H455 H 0.83715 0.52274 0.1279 0.0
H456 H 0.89295 0.52138 0.12982 0.0
H457 H 0.81793 0.57287 0.1251 0.0
H458 H 0.80737 0.48509 0.16153 0.0
H459 H 0.82446 0.46788 0.18436 0.0
H460 H 0.80099 0.54033 0.20792 0.0
H461 H 0.78413 0.55822 0.18518 0.0
H462 H 0.62523 0.43015 0.13618 0.0
H463 H 0.68756 0.46016 0.14459 0.0
H464 H 0.69901 0.56391 0.13477 0.0
H465 H 0.63681 0.53391 0.12594 0.0
H466 H 0.72946 0.51044 0.16453 0.0
H467 H 0.78263 0.61396 0.11881 0.0
H468 H 0.76434 0.62411 0.09477 0.0
H469 H 0.70047 0.50957 0.08806 0.0
H470 H 0.71877 0.49882 0.11196 0.0
C471 C 0.90289 0.57332 0.1595 0.0
C472 C 0.91099 0.55359 0.14947 0.0
C473 C 0.87083 0.57428 0.15829 0.0
C474 C 0.84651 0.55548 0.14707 0.0
C475 C 0.85557 0.53751 0.13664 0.0
C476 C 0.88742 0.53653 0.13782 0.0
C477 C 0.81008 0.55125 0.14667 0.0
C478 C 0.79876 0.55995 0.13384 0.0
C479 C 0.78503 0.5342 0.15804 0.0
C480 C 0.79495 0.5233 0.17168 0.0
C481 C 0.80609 0.49749 0.17158 0.0
C482 C 0.81569 0.4876 0.18449 0.0
C483 C 0.81393 0.50309 0.19758 0.0
C484 C 0.80243 0.52842 0.19778 0.0
C485 C 0.79285 0.53844 0.18489 0.0
C486 C 0.64092 0.45937 0.13595 0.0
C487 C 0.62638 0.47966 0.1302 0.0
C488 C 0.67637 0.47651 0.14091 0.0
C489 C 0.69796 0.51422 0.14017 0.0
C490 C 0.68282 0.53475 0.13533 0.0
C491 C 0.64727 0.51758 0.13035 0.0
C492 C 0.73715 0.53106 0.14279 0.0
C493 C 0.74895 0.52476 0.15603 0.0
C494 C 0.76252 0.54955 0.13167 0.0
C495 C 0.75166 0.55565 0.11722 0.0
C496 C 0.76473 0.59098 0.11217 0.0
C497 C 0.75438 0.59683 0.09858 0.0
C498 C 0.73114 0.5675 0.08992 0.0
C499 C 0.71835 0.53226 0.0948 0.0
C500 C 0.72868 0.52628 0.10837 0.0
H501 H 0.72312 0.57209 0.0794 0.0
H502 H 0.82138 0.4954 0.20756 0.0
H503 H 0.34945 0.87323 0.50749 0.0
H504 H 0.28989 0.82637 0.49959 0.0
H505 H 0.28747 0.89915 0.46804 0.0
H506 H 0.34735 0.94625 0.47574 0.0
H507 H 0.22118 0.81642 0.49601 0.0
H508 H 0.25915 0.85143 0.43653 0.0
H509 H 0.31367 0.88564 0.4215 0.0
H510 H 0.37518 0.8622 0.45165 0.0
H511 H 0.32093 0.82747 0.46674 0.0
H512 H 0.07484 0.69153 0.45032 0.0
H513 H 0.1228 0.7472 0.46122 0.0
H514 H 0.19792 0.70909 0.45502 0.0
H515 H 0.15021 0.65331 0.44438 0.0
H516 H 0.22474 0.77827 0.44555 0.0
H517 H 0.16435 0.70661 0.48778 0.0
H518 H 0.1121 0.67114 0.50373 0.0
H519 H 0.09819 0.7631 0.50921 0.0
H520 H 0.1501 0.79898 0.49313 0.0
C521 C 0.33604 0.87958 0.49905 0.0
C522 C 0.35347 0.91324 0.49203 0.0
C523 C 0.30186 0.85282 0.49463 0.0
C524 C 0.28462 0.85923 0.48312 0.0
C525 C 0.30061 0.89368 0.47687 0.0
C526 C 0.33484 0.9205 0.48127 0.0
C527 C 0.25261 0.82854 0.47647 0.0
C528 C 0.22168 0.80827 0.48493 0.0
C529 C 0.25365 0.81772 0.46209 0.0
C530 C 0.28611 0.83728 0.45283 0.0
C531 C 0.28428 0.85344 0.4399 0.0
C532 C 0.31512 0.87293 0.43138 0.0
C533 C 0.34789 0.87625 0.43567 0.0
C534 C 0.34981 0.85974 0.44839 0.0
C535 C 0.31903 0.84016 0.45692 0.0
C536 C 0.10148 0.69486 0.45145 0.0
C537 C 0.10882 0.66812 0.44643 0.0
C538 C 0.12882 0.72668 0.45762 0.0
C539 C 0.16381 0.73216 0.45888 0.0
C540 C 0.1711 0.70543 0.45401 0.0
C541 C 0.14386 0.67365 0.4479 0.0
C542 C 0.19325 0.7659 0.46511 0.0
C543 C 0.2238 0.78677 0.45654 0.0
C544 C 0.19198 0.77687 0.47944 0.0
C545 C 0.16082 0.75533 0.48912 0.0
C546 C 0.14995 0.71916 0.49228 0.0
C547 C 0.12044 0.69901 0.50137 0.0
C548 C 0.10176 0.71482 0.50744 0.0
C549 C 0.11263 0.75086 0.50448 0.0
C550 C 0.1421 0.77112 0.49538 0.0
H551 H 0.07893 0.69918 0.51448 0.0
H552 H 0.37179 0.89165 0.42915 0.0
H553 H 0.49756 0.3511 0.84565 0.0
H554 H 0.48071 0.28864 0.84029 0.0
H555 H 0.4036 0.28215 0.80883 0.0
H556 H 0.42023 0.3446 0.81405 0.0
H557 H 0.41477 0.21892 0.83901 0.0
H558 H 0.4218 0.25149 0.77894 0.0
H559 H 0.44838 0.30552 0.76332 0.0
H560 H 0.53707 0.3602 0.79279 0.0
H561 H 0.51114 0.30642 0.80848 0.0
H562 H 0.36497 0.05967 0.79596 0.0
H563 H 0.3694 0.11392 0.80699 0.0
H564 H 0.48378 0.17238 0.79845 0.0
H565 H 0.47964 0.11841 0.78759 0.0
H566 H 0.45178 0.20872 0.78908 0.0
H567 H 0.45278 0.14705 0.83231 0.0
H568 H 0.42963 0.09614 0.84942 0.0
H569 H 0.33304 0.10149 0.85538 0.0
H570 H 0.35542 0.15215 0.83813 0.0
C571 C 0.47662 0.33626 0.83774 0.0
C572 C 0.46069 0.35305 0.83008 0.0
C573 C 0.46678 0.30045 0.83482 0.0
C574 C 0.44109 0.281 0.82415 0.0
C575 C 0.42355 0.29687 0.81711 0.0
C576 C 0.43324 0.33261 0.82006 0.0
C577 C 0.43663 0.2464 0.81886 0.0
C578 C 0.42253 0.21643 0.82808 0.0
C579 C 0.44757 0.24362 0.80472 0.0
C580 C 0.46442 0.27512 0.79489 0.0
C581 C 0.44713 0.27495 0.78199 0.0
C582 C 0.46204 0.30555 0.77316 0.0
C583 C 0.49433 0.3363 0.7771 0.0
C584 C 0.51201 0.33641 0.78978 0.0
C585 C 0.49723 0.3059 0.79864 0.0
C586 C 0.39112 0.08396 0.79664 0.0
C587 C 0.42191 0.08492 0.79079 0.0
C588 C 0.39359 0.11489 0.80292 0.0
C589 C 0.42691 0.14711 0.80351 0.0
C590 C 0.45777 0.14783 0.798 0.0
C591 C 0.45533 0.11703 0.79174 0.0
C592 C 0.42964 0.18073 0.80918 0.0
C593 C 0.44352 0.21077 0.79998 0.0
C594 C 0.41908 0.18354 0.82344 0.0
C595 C 0.40561 0.15313 0.83381 0.0
C596 C 0.42646 0.13716 0.83717 0.0
C597 C 0.41351 0.10839 0.84691 0.0
C598 C 0.37984 0.09552 0.85345 0.0
C599 C 0.35909 0.11145 0.85028 0.0
C600 C 0.37191 0.14021 0.84054 0.0
H601 H 0.36986 0.07325 0.86099 0.0
H602 H 0.50567 0.36009 0.77037 0.0
H603 H 0.57645 0.9332 0.49573 0.0
H604 H 0.59113 0.88564 0.50004 0.0
H605 H 0.47788 0.80773 0.5046 0.0
H606 H 0.46315 0.85518 0.50073 0.0
H607 H 0.51386 0.80722 0.52732 0.0
H608 H 0.5295 0.80596 0.47587 0.0
H609 H 0.55442 0.83233 0.45199 0.0
H610 H 0.66141 0.86658 0.46718 0.0
H611 H 0.63719 0.84084 0.49122 0.0
H612 H 0.51861 0.64988 0.53725 0.0
H613 H 0.51018 0.69449 0.52409 0.0
H614 H 0.6246 0.76958 0.52601 0.0
H615 H 0.63326 0.72458 0.5391 0.0
H616 H 0.59157 0.77296 0.49963 0.0
H617 H 0.5758 0.7759 0.5511 0.0
H618 H 0.55088 0.749 0.57491 0.0
H619 H 0.44362 0.71217 0.55939 0.0
H620 H 0.46789 0.73835 0.5354 0.0
C621 C 0.55467 0.90578 0.49736 0.0
C622 C 0.51869 0.89794 0.4981 0.0
C623 C 0.56309 0.8786 0.49975 0.0
C624 C 0.53558 0.84316 0.50267 0.0
C625 C 0.49953 0.83496 0.50247 0.0
C626 C 0.49115 0.8621 0.50027 0.0
C627 C 0.54425 0.81556 0.50767 0.0
C628 C 0.53036 0.79937 0.52111 0.0
C629 C 0.56693 0.80633 0.49984 0.0
C630 C 0.58155 0.82178 0.48539 0.0
C631 C 0.55838 0.81939 0.47416 0.0
C632 C 0.57237 0.83416 0.46059 0.0
C633 C 0.60948 0.8512 0.45808 0.0
C634 C 0.63267 0.85341 0.46914 0.0
C635 C 0.61882 0.8387 0.48273 0.0
C636 C 0.54201 0.67575 0.5347 0.0
C637 C 0.57648 0.68419 0.53939 0.0
C638 C 0.5372 0.70107 0.52713 0.0
C639 C 0.56671 0.73543 0.52431 0.0
C640 C 0.60154 0.74316 0.52812 0.0
C641 C 0.60643 0.71759 0.53561 0.0
C642 C 0.56031 0.76424 0.51901 0.0
C643 C 0.57492 0.78086 0.5057 0.0
C644 C 0.53827 0.77407 0.52693 0.0
C645 C 0.52365 0.75881 0.54142 0.0
C646 C 0.54689 0.76186 0.55274 0.0
C647 C 0.53288 0.74676 0.56626 0.0
C648 C 0.49568 0.72882 0.56865 0.0
C649 C 0.47242 0.72604 0.55752 0.0
C650 C 0.48629 0.74102 0.54396 0.0
H651 H 0.48489 0.71714 0.57913 0.0
H652 H 0.62026 0.86262 0.44757 0.0
H653 H 0.63645 0.48503 0.85048 0.0
H654 H 0.70108 0.50949 0.85371 0.0
H655 H 0.72312 0.60285 0.82836 0.0
H656 H 0.65849 0.57893 0.82525 0.0
H657 H 0.75752 0.52837 0.83608 0.0
H658 H 0.79514 0.67664 0.84388 0.0
H659 H 0.76674 0.71216 0.8512 0.0
H660 H 0.68973 0.62351 0.87701 0.0
H661 H 0.71795 0.5877 0.86998 0.0
H662 H 0.94576 0.62328 0.8488 0.0
H663 H 0.88896 0.61262 0.83809 0.0
H664 H 0.84891 0.61609 0.8806 0.0
H665 H 0.90578 0.62779 0.89125 0.0
H666 H 0.8263 0.6464 0.86121 0.0
H667 H 0.83188 0.53635 0.86553 0.0
H668 H 0.85809 0.49746 0.86088 0.0
H669 H 0.84466 0.5038 0.81516 0.0
H670 H 0.81878 0.54315 0.81956 0.0
C671 C 0.655 0.51063 0.84547 0.0
C672 C 0.64227 0.53021 0.83774 0.0
C673 C 0.69194 0.52448 0.84728 0.0
C674 C 0.71683 0.55815 0.84142 0.0
C675 C 0.70431 0.57704 0.83315 0.0
C676 C 0.66735 0.56328 0.83137 0.0
C677 C 0.75565 0.57421 0.84472 0.0
C678 C 0.77269 0.55437 0.84142 0.0
C679 C 0.77532 0.60798 0.85181 0.0
C680 C 0.75838 0.62939 0.85625 0.0
C681 C 0.7722 0.6648 0.85114 0.0
C682 C 0.75613 0.68497 0.85524 0.0
C683 C 0.72636 0.67005 0.86452 0.0
C684 C 0.71269 0.63498 0.86977 0.0
C685 C 0.72868 0.61473 0.86572 0.0
C686 C 0.92516 0.62271 0.85579 0.0
C687 C 0.92991 0.62584 0.87087 0.0
C688 C 0.89269 0.61639 0.84968 0.0
C689 C 0.86456 0.61299 0.85858 0.0
C690 C 0.87022 0.61851 0.87353 0.0
C691 C 0.90258 0.62486 0.87962 0.0
C692 C 0.82806 0.60039 0.85271 0.0
C693 C 0.81142 0.62085 0.85553 0.0
C694 C 0.80848 0.56678 0.8455 0.0
C695 C 0.82382 0.543 0.84286 0.0
C696 C 0.83476 0.52964 0.85448 0.0
C697 C 0.84952 0.5075 0.8519 0.0
C698 C 0.85314 0.49826 0.83773 0.0
C699 C 0.84191 0.51105 0.82613 0.0
C700 C 0.82719 0.53326 0.82866 0.0
H701 H 0.86457 0.48111 0.83574 0.0
H702 H 0.71394 0.68569 0.86767 0.0
H703 H 0.08651 0.67311 0.18154 0.0
H704 H 0.13648 0.73337 0.18686 0.0
H705 H 0.1915 0.72978 0.14826 0.0
H706 H 0.14211 0.66885 0.14316 0.0
H707 H 0.23523 0.7492 0.16952 0.0
H708 H 0.15678 0.78878 0.1522 0.0
H709 H 0.10042 0.79054 0.14978 0.0
H710 H 0.10615 0.81985 0.19456 0.0
H711 H 0.16228 0.81777 0.19732 0.0
H712 H 0.38004 0.92503 0.18452 0.0
H713 H 0.32621 0.87945 0.17173 0.0
H714 H 0.26497 0.85461 0.21134 0.0
H715 H 0.31863 0.90014 0.22416 0.0
H716 H 0.22618 0.85476 0.1861 0.0
H717 H 0.30025 0.80574 0.20325 0.0
H718 H 0.35707 0.80463 0.20508 0.0
H719 H 0.35934 0.79423 0.15892 0.0
H720 H 0.30276 0.79583 0.15681 0.0
C721 C 0.10896 0.68537 0.17405 0.0
C722 C 0.11046 0.66609 0.16198 0.0
C723 C 0.13746 0.72 0.17705 0.0
C724 C 0.16771 0.73636 0.1679 0.0
C725 C 0.16851 0.71772 0.1555 0.0
C726 C 0.14025 0.68289 0.1526 0.0
C727 C 0.19988 0.77115 0.17206 0.0
C728 C 0.23327 0.77253 0.17279 0.0
C729 C 0.19742 0.80152 0.17658 0.0
C730 C 0.16365 0.80287 0.17499 0.0
C731 C 0.14589 0.79534 0.16157 0.0
C732 C 0.114 0.79644 0.16013 0.0
C733 C 0.09968 0.80524 0.17202 0.0
C734 C 0.11727 0.81303 0.18536 0.0
C735 C 0.14916 0.81194 0.18686 0.0
C736 C 0.35489 0.91038 0.19041 0.0
C737 C 0.35349 0.91581 0.20534 0.0
C738 C 0.32425 0.88435 0.18311 0.0
C739 C 0.29177 0.86358 0.19064 0.0
C740 C 0.2898 0.87043 0.20536 0.0
C741 C 0.32048 0.89618 0.21268 0.0
C742 C 0.26091 0.83227 0.18364 0.0
C743 C 0.22794 0.83155 0.18248 0.0
C744 C 0.26371 0.80258 0.17857 0.0
C745 C 0.29755 0.80136 0.17986 0.0
C746 C 0.31304 0.80353 0.19348 0.0
C747 C 0.34516 0.80276 0.19457 0.0
C748 C 0.36187 0.79947 0.18212 0.0
C749 C 0.34641 0.79685 0.16856 0.0
C750 C 0.31432 0.79768 0.16741 0.0
H751 H 0.38673 0.79886 0.18299 0.0
H752 H 0.07499 0.80608 0.17088 0.0
H753 H 0.47467 0.12217 0.48373 0.0
H754 H 0.47858 0.18079 0.48776 0.0
H755 H 0.45524 0.1556 0.53304 0.0
H756 H 0.45235 0.09765 0.52916 0.0
H757 H 0.42211 0.19401 0.52004 0.0
H758 H 0.53583 0.19767 0.52611 0.0
H759 H 0.58589 0.18845 0.51867 0.0
H760 H 0.60746 0.25856 0.48229 0.0
H761 H 0.55694 0.26764 0.48938 0.0
H762 H 0.51078 0.34977 0.56354 0.0
H763 H 0.48952 0.29164 0.55142 0.0
H764 H 0.52587 0.34601 0.5104 0.0
H765 H 0.5471 0.40441 0.5225 0.0
H766 H 0.54837 0.29523 0.51656 0.0
H767 H 0.44028 0.30107 0.51518 0.0
H768 H 0.39212 0.31057 0.52498 0.0
H769 H 0.36126 0.2228 0.55462 0.0
H770 H 0.40961 0.21311 0.54516 0.0
C771 C 0.46941 0.12882 0.49444 0.0
C772 C 0.46346 0.1057 0.50617 0.0
C773 C 0.47171 0.16221 0.49672 0.0
C774 C 0.46731 0.17236 0.51069 0.0
C775 C 0.45854 0.14806 0.52218 0.0
C776 C 0.45708 0.11514 0.51997 0.0
C777 C 0.47646 0.2098 0.51384 0.0
C778 C 0.44962 0.21626 0.51923 0.0
C779 C 0.51233 0.23868 0.5126 0.0
C780 C 0.54226 0.23283 0.50813 0.0
C781 C 0.55089 0.21069 0.5164 0.0
C782 C 0.57939 0.20555 0.51227 0.0
C783 C 0.59971 0.22276 0.49998 0.0
C784 C 0.59156 0.24512 0.49177 0.0
C785 C 0.56298 0.25024 0.49583 0.0
C786 C 0.5143 0.34929 0.55194 0.0
C787 C 0.53065 0.38145 0.54393 0.0
C788 C 0.50187 0.31614 0.54503 0.0
C789 C 0.50581 0.31465 0.53001 0.0
C790 C 0.5224 0.34672 0.52198 0.0
C791 C 0.53443 0.37991 0.52888 0.0
C792 C 0.4941 0.27951 0.52295 0.0
C793 C 0.52059 0.27337 0.51692 0.0
C794 C 0.45799 0.2509 0.52379 0.0
C795 C 0.42876 0.25652 0.52951 0.0
C796 C 0.42342 0.28397 0.52387 0.0
C797 C 0.39605 0.28936 0.52935 0.0
C798 C 0.37368 0.26734 0.54043 0.0
C799 C 0.37861 0.23984 0.54604 0.0
C800 C 0.40597 0.23436 0.5406 0.0
H801 H 0.3525 0.27155 0.54466 0.0
H802 H 0.62191 0.21894 0.49689 0.0
H803 H 0.37553 0.47241 0.81474 0.0
H804 H 0.32573 0.48515 0.81499 0.0
H805 H 0.32304 0.48006 0.86161 0.0
H806 H 0.37267 0.46762 0.86145 0.0
H807 H 0.2548 0.45052 0.84944 0.0
H808 H 0.37396 0.55754 0.84521 0.0
H809 H 0.43218 0.59519 0.83295 0.0
H810 H 0.37709 0.60209 0.79544 0.0
H811 H 0.31842 0.56358 0.80736 0.0
H812 H 0.21423 0.56936 0.88369 0.0
H813 H 0.24642 0.54126 0.87317 0.0
H814 H 0.21833 0.55834 0.83032 0.0
H815 H 0.18591 0.58688 0.84085 0.0
H816 H 0.29286 0.57572 0.83411 0.0
H817 H 0.17353 0.47823 0.84113 0.0
H818 H 0.11643 0.44169 0.8543 0.0
H819 H 0.17237 0.41843 0.88719 0.0
H820 H 0.22993 0.45533 0.87434 0.0
C821 C 0.36355 0.47293 0.82501 0.0
C822 C 0.37812 0.46937 0.83809 0.0
C823 C 0.33529 0.4804 0.82513 0.0
C824 C 0.32111 0.48398 0.83833 0.0
C825 C 0.33367 0.47745 0.85131 0.0
C826 C 0.36209 0.47045 0.85121 0.0
C827 C 0.29614 0.49834 0.83898 0.0
C828 C 0.26294 0.47777 0.846 0.0
C829 C 0.30653 0.53364 0.83416 0.0
C830 C 0.34179 0.55714 0.82707 0.0
C831 C 0.37423 0.56672 0.83429 0.0
C832 C 0.40731 0.58822 0.8274 0.0
C833 C 0.40833 0.60091 0.8134 0.0
C834 C 0.37625 0.59208 0.80626 0.0
C835 C 0.34307 0.57034 0.81306 0.0
C836 C 0.21536 0.56771 0.87202 0.0
C837 C 0.19766 0.5804 0.86308 0.0
C838 C 0.23347 0.55136 0.86604 0.0
C839 C 0.23429 0.54738 0.851 0.0
C840 C 0.21773 0.56104 0.84196 0.0
C841 C 0.19921 0.57718 0.84797 0.0
C842 C 0.25218 0.5283 0.84503 0.0
C843 C 0.28408 0.54802 0.83708 0.0
C844 C 0.24071 0.49227 0.84905 0.0
C845 C 0.2061 0.46971 0.85678 0.0
C846 C 0.17371 0.46553 0.85122 0.0
C847 C 0.14125 0.44472 0.85862 0.0
C848 C 0.14078 0.42777 0.87158 0.0
C849 C 0.17277 0.43156 0.87714 0.0
C850 C 0.20532 0.45238 0.86979 0.0
H851 H 0.11562 0.41168 0.8773 0.0
H852 H 0.43399 0.61778 0.80813 0.0
H853 H 0.94212 0.38611 0.17906 0.0
H854 H 0.89142 0.32623 0.18369 0.0
H855 H 0.84054 0.33128 0.14425 0.0
H856 H 0.89106 0.39216 0.1397 0.0
H857 H 0.79444 0.31054 0.16543 0.0
H858 H 0.87377 0.2718 0.14821 0.0
H859 H 0.93051 0.27071 0.14587 0.0
H860 H 0.92429 0.24148 0.19061 0.0
H861 H 0.86777 0.2429 0.19329 0.0
H862 H 0.65053 0.13472 0.18292 0.0
H863 H 0.70242 0.18076 0.16935 0.0
H864 H 0.7684 0.20671 0.20758 0.0
H865 H 0.7168 0.16054 0.22115 0.0
H866 H 0.80431 0.20587 0.18229 0.0
H867 H 0.73084 0.25552 0.1997 0.0
H868 H 0.67416 0.25685 0.20192 0.0
H869 H 0.66984 0.26498 0.15576 0.0
H870 H 0.72628 0.26319 0.15326 0.0
C871 C 0.92048 0.37441 0.17121 0.0
C872 C 0.92066 0.39409 0.15902 0.0
C873 C 0.89153 0.33991 0.17384 0.0
C874 C 0.86231 0.32393 0.16423 0.0
C875 C 0.86285 0.34301 0.15179 0.0
C876 C 0.89178 0.37778 0.1492 0.0
C877 C 0.82997 0.2889 0.16798 0.0
C878 C 0.7965 0.28734 0.16873 0.0
C879 C 0.83262 0.25871 0.17253 0.0
C880 C 0.86657 0.25764 0.17097 0.0
C881 C 0.88461 0.26537 0.15758 0.0
C882 C 0.91673 0.26465 0.15619 0.0
C883 C 0.93102 0.25607 0.16808 0.0
C884 C 0.91318 0.24811 0.1814 0.0
C885 C 0.88106 0.2488 0.18286 0.0
C886 C 0.67628 0.1498 0.18834 0.0
C887 C 0.67961 0.14429 0.20312 0.0
C888 C 0.70581 0.17615 0.1806 0.0
C889 C 0.73911 0.19728 0.18751 0.0
C890 C 0.74291 0.19066 0.20207 0.0
C891 C 0.71338 0.16453 0.20983 0.0
C892 C 0.76937 0.22813 0.17999 0.0
C893 C 0.80231 0.22885 0.1786 0.0
C894 C 0.76627 0.25748 0.17477 0.0
C895 C 0.73249 0.25876 0.17628 0.0
C896 C 0.71763 0.25729 0.19002 0.0
C897 C 0.68559 0.25818 0.19133 0.0
C898 C 0.66834 0.26088 0.17898 0.0
C899 C 0.68318 0.26281 0.16531 0.0
C900 C 0.71519 0.26186 0.16394 0.0
H901 H 0.64354 0.26157 0.18002 0.0
H902 H 0.9559 0.25555 0.16698 0.0
H903 H 0.09118 0.56278 0.10193 0.0
H904 H 0.09955 0.57067 0.07578 0.0
H905 H 0.98429 0.51576 0.06986 0.0
H906 H 0.97555 0.50767 0.09605 0.0
H907 H 0.0763 0.52203 0.05277 0.0
H908 H 0.96879 0.56243 0.04302 0.0
H909 H 0.93763 0.5889 0.05637 0.0
H910 H 0.02923 0.64528 0.08434 0.0
H911 H 0.06109 0.61954 0.07103 0.0
H912 H 0.04117 0.52785 0.97739 0.0
H913 H 0.03465 0.51595 0.00345 0.0
H914 H 0.09583 0.63041 0.01199 0.0
H915 H 0.10228 0.6425 0.98593 0.0
H916 H 0.03216 0.59502 0.02786 0.0
H917 H 0.13502 0.58223 0.01682 0.0
H918 H 0.16818 0.55767 0.00368 0.0
H919 H 0.09078 0.4506 0.01763 0.0
H920 H 0.05686 0.47448 0.03068 0.0
C921 C 0.06755 0.55216 0.09508 0.0
C922 C 0.03268 0.53482 0.10109 0.0
C923 C 0.07242 0.55655 0.08014 0.0
C924 C 0.04256 0.54405 0.07094 0.0
C925 C 0.00768 0.52584 0.07683 0.0
C926 C 0.00275 0.52119 0.09178 0.0
C927 C 0.04812 0.55158 0.05525 0.0
C928 C 0.06654 0.53784 0.04729 0.0
C929 C 0.03574 0.57259 0.04818 0.0
C930 C 0.01712 0.58874 0.05612 0.0
C931 C 0.98231 0.58058 0.05198 0.0
C932 C 0.96452 0.59544 0.05955 0.0
C933 C 0.98139 0.61866 0.07123 0.0
C934 C 0.01614 0.62718 0.07533 0.0
C935 C 0.03405 0.61243 0.06779 0.0
C936 C 0.05325 0.55044 0.98484 0.0
C937 C 0.07223 0.5861 0.97966 0.0
C938 C 0.04967 0.54361 -0.00031 0.0
C939 C 0.06485 0.57231 0.0096 0.0
C940 C 0.08394 0.60792 0.00448 0.0
C941 C 0.08783 0.61477 0.98963 0.0
C942 C 0.06012 0.56525 0.02534 0.0
C943 C 0.04177 0.57902 0.0333 0.0
C944 C 0.07279 0.54449 0.03241 0.0
C945 C 0.09321 0.53011 0.02461 0.0
C946 C 0.1249 0.55341 0.01698 0.0
C947 C 0.14387 0.53962 0.00957 0.0
C948 C 0.13155 0.50259 0.00979 0.0
C949 C 0.10027 0.47928 0.01745 0.0
C950 C 0.08118 0.49293 0.02487 0.0
H951 H 0.14627 0.49196 0.00405 0.0
H952 H 0.96756 0.6301 0.07708 0.0
H953 H 0.44894 -0.00066 0.44128 0.0
H954 H 0.45405 0.00113 0.4149 0.0
H955 H 0.56589 0.03084 0.41832 0.0
H956 H 0.56098 0.02875 0.44476 0.0
H957 H 0.55123 0.07309 0.3982 0.0
H958 H 0.5105 0.94883 0.40985 0.0
H959 H 0.4704 0.89012 0.42137 0.0
H960 H 0.3802 0.88131 0.39776 0.0
H961 H 0.4197 0.94026 0.38624 0.0
H962 H 0.57745 0.04781 0.32425 0.0
H963 H 0.57563 0.04597 0.35072 0.0
H964 H 0.45947 0.99354 0.34955 0.0
H965 H 0.46122 0.99435 0.3231 0.0
H966 H 0.47788 0.96261 0.36893 0.0
H967 H 0.51513 0.08568 0.35786 0.0
H968 H 0.55258 0.14539 0.34662 0.0
H969 H 0.64559 0.15815 0.36928 0.0
H970 H 0.60878 0.09827 0.38051 0.0
C971 C 0.47468 0.00639 0.43643 0.0
C972 C 0.50454 0.01381 0.4451 0.0
C973 C 0.47749 0.00726 0.42137 0.0
C974 C 0.51027 0.01589 0.41471 0.0
C975 C 0.54036 0.02405 0.4233 0.0
C976 C 0.53745 0.0227 0.43838 0.0
C977 C 0.51296 0.01612 0.39875 0.0
C978 C 0.53564 0.04889 0.39176 0.0
C979 C 0.49178 0.98468 0.39043 0.0
C980 C 0.46802 0.94912 0.39728 0.0
C981 C 0.48207 0.93451 0.4072 0.0
C982 C 0.45946 0.90115 0.4137 0.0
C983 C 0.42279 0.882 0.4103 0.0
C984 C 0.40864 0.89615 0.40036 0.0
C985 C 0.43112 0.92953 0.39384 0.0
C986 C 0.55158 0.03601 0.32968 0.0
C987 C 0.51948 0.0213 0.32166 0.0
C988 C 0.55054 0.03506 0.34479 0.0
C989 C 0.51742 0.0201 0.35216 0.0
C990 C 0.48534 0.00517 0.34413 0.0
C991 C 0.48635 0.00565 0.32903 0.0
C992 C 0.51609 0.01975 0.36823 0.0
C993 C 0.49361 0.98691 0.37529 0.0
C994 C 0.53708 0.05128 0.37661 0.0
C995 C 0.55927 0.08733 0.3699 0.0
C996 C 0.54363 0.1011 0.36036 0.0
C997 C 0.56473 0.13499 0.354 0.0
C998 C 0.60146 0.15551 0.3572 0.0
C999 C 0.61715 0.14221 0.36679 0.0
C1000 C 0.59617 0.1083 0.37316 0.0
H1001 H 0.61775 0.18174 0.35227 0.0
H1002 H 0.40531 0.8562 0.41536 0.0
H1003 H 0.46147 0.45787 0.77691 0.0
H1004 H 0.46759 0.46394 0.75063 0.0
H1005 H 0.57694 0.55167 0.75545 0.0
H1006 H 0.57076 0.5464 0.78169 0.0
H1007 H 0.54469 0.56913 0.73619 0.0
H1008 H 0.55781 0.4656 0.7436 0.0
H1009 H 0.54339 0.40489 0.75155 0.0
H1010 H 0.4438 0.35788 0.72795 0.0
H1011 H 0.45776 0.41842 0.7198 0.0
H1012 H 0.60767 0.56673 0.66456 0.0
H1013 H 0.59739 0.56066 0.69079 0.0
H1014 H 0.483 0.49399 0.68361 0.0
H1015 H 0.4931 0.50042 0.65737 0.0
H1016 H 0.51524 0.46571 0.70358 0.0
H1017 H 0.5082 0.57256 0.6945 0.0
H1018 H 0.52967 0.63367 0.68487 0.0
H1019 H 0.62442 0.67535 0.71135 0.0
H1020 H 0.60377 0.61434 0.72099 0.0
C1021 C 0.48687 0.4784 0.77238 0.0
C1022 C 0.51561 0.50168 0.78142 0.0
C1023 C 0.4904 0.4817 0.75734 0.0
C1024 C 0.52287 0.50803 0.75104 0.0
C1025 C 0.5516 0.5312 0.76005 0.0
C1026 C 0.54803 0.5281 0.77507 0.0
C1027 C 0.52665 0.51221 0.73508 0.0
C1028 C 0.53862 0.54654 0.7291 0.0
C1029 C 0.51807 0.48269 0.72574 0.0
C1030 C 0.50863 0.44652 0.73124 0.0
C1031 C 0.53262 0.44235 0.74027 0.0
C1032 C 0.52461 0.40795 0.74475 0.0
C1033 C 0.49263 0.37754 0.7403 0.0
C1034 C 0.46854 0.38147 0.7314 0.0
C1035 C 0.47653 0.4158 0.72682 0.0
C1036 C 0.58037 0.55085 0.66861 0.0
C1037 C 0.55115 0.53405 0.65902 0.0
C1038 C 0.57452 0.54756 0.68354 0.0
C1039 C 0.53944 0.52704 0.68906 0.0
C1040 C 0.51023 0.51003 0.6795 0.0
C1041 C 0.51601 0.51382 0.66458 0.0
C1042 C 0.53343 0.52248 0.70484 0.0
C1043 C 0.52103 0.48813 0.71073 0.0
C1044 C 0.54218 0.55206 0.71409 0.0
C1045 C 0.5546 0.5888 0.70836 0.0
C1046 C 0.53378 0.59468 0.69817 0.0
C1047 C 0.54576 0.62932 0.69273 0.0
C1048 C 0.57843 0.65836 0.69747 0.0
C1049 C 0.59914 0.65282 0.70768 0.0
C1050 C 0.58729 0.61822 0.71315 0.0
H1051 H 0.58766 0.68516 0.69325 0.0
H1052 H 0.48661 0.3509 0.74366 0.0
H1053 H 0.49039 0.02993 0.56207 0.0
H1054 H 0.4822 0.01753 0.58794 0.0
H1055 H 0.44855 0.90568 0.57973 0.0
H1056 H 0.45538 0.91766 0.55371 0.0
H1057 H 0.40655 0.90882 0.59906 0.0
H1058 H 0.53388 0.96672 0.59374 0.0
H1059 H 0.59458 0.01342 0.58587 0.0
H1060 H 0.58593 0.09273 0.6114 0.0
H1061 H 0.52495 0.04661 0.61927 0.0
H1062 H 0.42574 0.88154 0.67514 0.0
H1063 H 0.43376 0.88582 0.64882 0.0
H1064 H 0.44583 0.99205 0.64967 0.0
H1065 H 0.43644 0.98757 0.67577 0.0
H1066 H 0.50113 0.98696 0.63426 0.0
H1067 H 0.37072 0.92662 0.63804 0.0
H1068 H 0.31119 0.8778 0.64605 0.0
H1069 H 0.32851 0.79985 0.62355 0.0
H1070 H 0.38841 0.8482 0.61557 0.0
C1071 C 0.48141 0.00271 0.56576 0.0
C1072 C 0.47368 0.97481 0.55585 0.0
C1073 C 0.4769 0.99568 0.58058 0.0
C1074 C 0.4654 0.96079 0.58583 0.0
C1075 C 0.45755 0.93283 0.57594 0.0
C1076 C 0.46153 0.93973 0.56108 0.0
C1077 C 0.46074 0.9535 0.60161 0.0
C1078 C 0.42752 0.92552 0.60672 0.0
C1079 C 0.48795 0.97539 0.61167 0.0
C1080 C 0.5247 0.00324 0.60701 0.0
C1081 C 0.54481 0.99417 0.5976 0.0
C1082 C 0.57929 0.02054 0.59315 0.0
C1083 C 0.59407 0.05604 0.59811 0.0
C1084 C 0.57444 0.06523 0.60756 0.0
C1085 C 0.53993 0.03897 0.61204 0.0
C1086 C 0.42949 0.90557 0.66971 0.0
C1087 C 0.4307 0.93433 0.67762 0.0
C1088 C 0.43429 0.90803 0.65469 0.0
C1089 C 0.44055 0.93932 0.64737 0.0
C1090 C 0.44137 0.96783 0.65517 0.0
C1091 C 0.43618 0.96525 0.67011 0.0
C1092 C 0.44687 0.9429 0.63158 0.0
C1093 C 0.48042 0.97011 0.62652 0.0
C1094 C 0.42024 0.91997 0.62159 0.0
C1095 C 0.3842 0.89096 0.62635 0.0
C1096 C 0.36198 0.89903 0.63491 0.0
C1097 C 0.32814 0.87146 0.63943 0.0
C1098 C 0.31612 0.83573 0.63536 0.0
C1099 C 0.33788 0.82753 0.62672 0.0
C1100 C 0.37176 0.855 0.62219 0.0
H1101 H 0.28991 0.81442 0.63886 0.0
H1102 H 0.62077 0.07641 0.59465 0.0
H1103 H 0.49443 0.50768 0.89901 0.0
H1104 H 0.49327 0.49549 0.92488 0.0
H1105 H 0.52029 0.41295 0.91585 0.0
H1106 H 0.52173 0.42503 0.88993 0.0
H1107 H 0.46175 0.39114 0.93503 0.0
H1108 H 0.58315 0.48876 0.92922 0.0
H1109 H 0.6304 0.54923 0.92135 0.0
H1110 H 0.58523 0.59812 0.94852 0.0
H1111 H 0.53737 0.53789 0.9564 0.0
H1112 H 0.48432 0.36411 0.00922 0.0
H1113 H 0.49516 0.3757 0.98329 0.0
H1114 H 0.48695 0.47169 0.98792 0.0
H1115 H 0.4783 0.46154 0.01387 0.0
H1116 H 0.53986 0.48506 0.97053 0.0
H1117 H 0.41627 0.39 0.97478 0.0
H1118 H 0.36651 0.33049 0.98235 0.0
H1119 H 0.4126 0.27797 0.95796 0.0
H1120 H 0.46291 0.33723 0.95038 0.0
C1121 C 0.50025 0.48701 0.90251 0.0
C1122 C 0.50819 0.46734 0.8924 0.0
C1123 C 0.49971 0.48019 0.91729 0.0
C1124 C 0.50691 0.45349 0.92223 0.0
C1125 C 0.51473 0.43372 0.91221 0.0
C1126 C 0.51566 0.44077 0.89743 0.0
C1127 C 0.50534 0.44567 0.93788 0.0
C1128 C 0.47922 0.41142 0.9428 0.0
C1129 C 0.5276 0.47249 0.94796 0.0
C1130 C 0.55649 0.50878 0.94331 0.0
C1131 C 0.58311 0.51239 0.93343 0.0
C1132 C 0.61004 0.54663 0.92898 0.0
C1133 C 0.61077 0.5775 0.9344 0.0
C1134 C 0.58462 0.57419 0.94432 0.0
C1135 C 0.5576 0.54 0.94879 0.0
C1136 C 0.48528 0.38793 0.00475 0.0
C1137 C 0.48005 0.41168 0.01364 0.0
C1138 C 0.4911 0.39432 0.98989 0.0
C1139 C 0.49129 0.42426 0.98361 0.0
C1140 C 0.48676 0.44832 0.99249 0.0
C1141 C 0.48133 0.44219 0.00733 0.0
C1142 C 0.49584 0.43059 0.96778 0.0
C1143 C 0.52255 0.46459 0.96278 0.0
C1144 C 0.47378 0.40367 0.95763 0.0
C1145 C 0.44355 0.36804 0.96215 0.0
C1146 C 0.41593 0.36576 0.97112 0.0
C1147 C 0.38761 0.33208 0.9754 0.0
C1148 C 0.38646 0.30047 0.97068 0.0
C1149 C 0.41357 0.30248 0.96163 0.0
C1150 C 0.44198 0.3361 0.95734 0.0
H1151 H 0.3645 0.27442 0.974 0.0
H1152 H 0.63164 0.60398 0.93095 0.0
H1153 H 0.02425 0.49232 0.21611 0.0
H1154 H 0.01346 0.48726 0.24212 0.0
H1155 H 0.9668 0.55593 0.23905 0.0
H1156 H 0.97835 0.56192 0.21299 0.0
H1157 H 0.00932 0.57361 0.26195 0.0
H1158 H 0.91333 0.46411 0.24264 0.0
H1159 H 0.88543 0.40844 0.22797 0.0
H1160 H 0.94207 0.36736 0.25244 0.0
H1161 H 0.97073 0.42304 0.26714 0.0
H1162 H 0.93493 0.52838 0.33313 0.0
H1163 H 0.93789 0.53244 0.30666 0.0
H1164 H -0.00106 0.47731 0.30577 0.0
H1165 H -0.00404 0.47306 0.3322 0.0
H1166 H 0.94402 0.45252 0.28478 0.0
H1167 H 0.0426 0.56492 0.30292 0.0
H1168 H 0.06944 0.62076 0.3175 0.0
H1169 H 0.00501 0.65595 0.29501 0.0
H1170 H 0.97739 0.60003 0.28044 0.0
C1171 C 0.01176 0.50644 0.22095 0.0
C1172 C 0.00195 0.52736 0.21246 0.0
C1173 C 0.00544 0.50336 0.23581 0.0
C1174 C 0.98866 0.52062 0.24247 0.0
C1175 C 0.97961 0.54223 0.23411 0.0
C1176 C 0.98622 0.54561 0.21922 0.0
C1177 C 0.98081 0.51616 0.25818 0.0
C1178 C -0.00552 0.54713 0.2669 0.0
C1179 C 0.96181 0.48158 0.26466 0.0
C1180 C 0.9444 0.4479 0.25592 0.0
C1181 C 0.92003 0.44332 0.24484 0.0
C1182 C 0.90405 0.41174 0.23652 0.0
C1183 C 0.91204 0.38441 0.23925 0.0
C1184 C 0.93594 0.38857 0.25033 0.0
C1185 C 0.95203 0.42011 0.25867 0.0
C1186 C 0.94856 0.51673 0.32725 0.0
C1187 C 0.96536 0.50054 0.33467 0.0
C1188 C 0.9504 0.51925 0.31218 0.0
C1189 C 0.96887 0.50542 0.30433 0.0
C1190 C 0.98462 0.48818 0.31168 0.0
C1191 C 0.98309 0.48597 0.32674 0.0
C1192 C 0.97293 0.50991 0.28848 0.0
C1193 C 0.95852 0.47894 0.27976 0.0
C1194 C 0.99095 0.54445 0.282 0.0
C1195 C 0.00763 0.57811 0.29071 0.0
C1196 C 0.03392 0.58442 0.30118 0.0
C1197 C 0.04932 0.61611 0.30942 0.0
C1198 C 0.03885 0.64184 0.30721 0.0
C1199 C 0.01304 0.63597 0.29673 0.0
C1200 C -0.00249 0.60429 0.28847 0.0
H1201 H 0.05082 0.66636 0.3136 0.0
H1202 H 0.89965 0.35999 0.2328 0.0
loop_
_geom_bond_atom_site_label_1
_geom_bond_atom_site_label_2
_geom_bond_distance
_geom_bond_site_symmetry_2
_ccdc_geom_bond_type
O0 Zn1 1.953 1_655 S
O0 C16 1.227 1_655 S
Zn1 O0 1.953 1_455 S
Zn1 O2 1.949 . S
Zn1 O8 1.919 1_455 S
Zn1 O13 1.924 . S
O2 Zn1 1.949 . S
O2 Zn3 1.923 1_455 S
O2 Zn4 1.950 . S
O2 Zn5 1.945 . S
Zn3 O2 1.923 1_655 S
Zn3 O6 1.933 . S
Zn3 O9 1.941 . S
Zn3 O10 1.965 . S
Zn4 O2 1.950 . S
Zn4 O11 1.938 1_455 S
Zn4 O12 1.906 . S
Zn4 O22 1.953 . S
Zn5 O2 1.945 . S
Zn5 O7 1.932 . S
Zn5 O14 1.977 . S
Zn5 O15 1.910 . S
O6 Zn3 1.933 . S
O6 C17 1.226 1_655 S
O7 Zn5 1.932 . S
O7 C17 1.307 . S
O8 Zn1 1.919 1_655 S
O8 C19 1.253 . S
O9 Zn3 1.941 . S
O9 C19 1.283 . S
O10 Zn3 1.965 . S
O10 C18 1.303 . S
O11 Zn4 1.938 1_655 S
O11 C18 1.247 . S
O12 Zn4 1.906 . S
O12 C20 1.304 . S
O13 Zn1 1.924 . S
O13 C21 1.311 . S
O14 Zn5 1.977 . S
O14 C20 1.272 . S
O15 Zn5 1.910 . S
O15 C21 1.231 . S
C16 O0 1.227 1_455 S
C16 O22 1.298 . S
C17 O6 1.226 1_455 S
C17 O7 1.307 . S
C18 O10 1.303 . S
C18 O11 1.247 . S
C19 O8 1.253 . S
C19 O9 1.283 . S
C20 O12 1.304 . S
C20 O14 1.272 . S
C21 O13 1.311 . S
C21 O15 1.231 . S
O22 Zn4 1.953 . S
O22 C16 1.298 . S
O23 Zn24 1.953 . S
O23 C39 1.225 . S
Zn24 O23 1.953 . S
Zn24 O25 1.949 . S
Zn24 O31 1.919 . S
Zn24 O36 1.924 1_545 S
O25 Zn24 1.949 . S
O25 Zn26 1.923 . S
O25 Zn27 1.951 . S
O25 Zn28 1.945 1_545 S
Zn26 O25 1.923 . S
Zn26 O29 1.933 . S
Zn26 O32 1.941 . S
Zn26 O33 1.965 . S
Zn27 O25 1.951 . S
Zn27 O34 1.939 . S
Zn27 O35 1.904 1_545 S
Zn27 O45 1.954 1_545 S
Zn28 O25 1.945 1_565 S
Zn28 O30 1.932 . S
Zn28 O37 1.977 . S
Zn28 O38 1.910 . S
O29 Zn26 1.933 . S
O29 C40 1.226 . S
O30 Zn28 1.932 . S
O30 C40 1.307 1_565 S
O31 Zn24 1.919 . S
O31 C42 1.253 . S
O32 Zn26 1.941 . S
O32 C42 1.283 . S
O33 Zn26 1.965 . S
O33 C41 1.303 . S
O34 Zn27 1.939 . S
O34 C41 1.247 . S
O35 Zn27 1.904 1_565 S
O35 C43 1.304 . S
O36 Zn24 1.924 1_565 S
O36 C44 1.311 . S
O37 Zn28 1.977 . S
O37 C43 1.272 . S
O38 Zn28 1.910 . S
O38 C44 1.231 . S
C39 O23 1.225 . S
C39 O45 1.298 1_545 S
C40 O29 1.226 . S
C40 O30 1.307 1_545 S
C41 O33 1.303 . S
C41 O34 1.247 . S
C42 O31 1.253 . S
C42 O32 1.283 . S
C43 O35 1.304 . S
C43 O37 1.272 . S
C44 O36 1.311 . S
C44 O38 1.231 . S
O45 Zn27 1.954 1_565 S
O45 C39 1.298 1_565 S
O46 Zn47 1.953 . S
O46 C62 1.225 . S
Zn47 O46 1.953 . S
Zn47 O48 1.949 . S
Zn47 O54 1.919 . S
Zn47 O59 1.924 . S
O48 Zn47 1.949 . S
O48 Zn49 1.923 . S
O48 Zn50 1.950 . S
O48 Zn51 1.945 . S
Zn49 O48 1.923 . S
Zn49 O52 1.933 . S
Zn49 O55 1.941 . S
Zn49 O56 1.965 . S
Zn50 O48 1.950 . S
Zn50 O57 1.938 . S
Zn50 O58 1.906 . S
Zn50 O68 1.953 . S
Zn51 O48 1.945 . S
Zn51 O53 1.932 . S
Zn51 O60 1.977 . S
Zn51 O61 1.910 . S
O52 Zn49 1.933 . S
O52 C63 1.226 . S
O53 Zn51 1.932 . S
O53 C63 1.307 . S
O54 Zn47 1.919 . S
O54 C65 1.253 . S
O55 Zn49 1.941 . S
O55 C65 1.283 . S
O56 Zn49 1.965 . S
O56 C64 1.303 . S
O57 Zn50 1.938 . S
O57 C64 1.247 . S
O58 Zn50 1.906 . S
O58 C66 1.304 . S
O59 Zn47 1.924 . S
O59 C67 1.311 . S
O60 Zn51 1.977 . S
O60 C66 1.272 . S
O61 Zn51 1.910 . S
O61 C67 1.231 . S
C62 O46 1.225 . S
C62 O68 1.298 . S
C63 O52 1.226 . S
C63 O53 1.307 . S
C64 O56 1.303 . S
C64 O57 1.247 . S
C65 O54 1.253 . S
C65 O55 1.283 . S
C66 O58 1.304 . S
C66 O60 1.272 . S
C67 O59 1.311 . S
C67 O61 1.231 . S
O68 Zn50 1.953 . S
O68 C62 1.298 . S
C69 C70 1.386 . S
C69 C71 1.397 . S
C69 H93 0.931 . S
C70 C69 1.386 . S
C70 C74 1.397 1_545 S
C71 C69 1.397 . S
C71 C72 1.384 . S
C71 H94 0.930 . S
C72 C71 1.384 . S
C72 C73 1.377 1_545 S
C72 C75 1.481 . S
C73 C72 1.377 1_565 S
C73 C74 1.389 . S
C73 H95 0.929 . S
C74 C70 1.397 1_565 S
C74 C73 1.389 . S
C74 H96 0.931 . S
C75 C72 1.481 . S
C75 C76 1.387 . S
C75 C80 1.390 1_545 S
C76 C75 1.387 . S
C76 C77 1.401 . S
C76 H97 0.930 . S
C77 C76 1.401 . S
C77 C78 1.376 . S
C77 C86 1.511 . S
C78 C77 1.376 . S
C78 C79 1.392 1_545 S
C78 H99 0.931 . S
C79 C78 1.392 1_565 S
C79 C80 1.361 . S
C79 C81 1.500 . S
C80 C75 1.390 1_565 S
C80 C79 1.361 . S
C80 H98 0.931 . S
C81 C79 1.500 . S
C81 C82 1.371 . S
C81 C83 1.365 . S
C82 C81 1.371 . S
C82 C92 1.386 . S
C82 H100 0.931 . S
C83 C81 1.365 . S
C83 C84 1.409 . S
C83 H101 0.929 . S
C84 C83 1.409 . S
C84 C85 1.380 . S
C84 H102 0.930 . S
C85 C84 1.380 . S
C85 C92 1.357 . S
C86 C77 1.511 . S
C86 C87 1.341 . S
C86 C88 1.371 . S
C87 C86 1.341 . S
C87 C91 1.394 . S
C87 H103 0.930 . S
C88 C86 1.371 . S
C88 C89 1.392 . S
C88 H104 0.931 . S
C89 C88 1.392 . S
C89 C90 1.331 . S
C89 H107 0.932 . S
C90 C89 1.331 . S
C90 C91 1.336 . S
C91 C87 1.394 . S
C91 C90 1.336 . S
C91 H106 0.929 . S
C92 C82 1.386 . S
C92 C85 1.357 . S
C92 H105 0.928 . S
H93 C69 0.931 . S
H94 C71 0.930 . S
H95 C73 0.929 . S
H96 C74 0.931 . S
H97 C76 0.930 . S
H98 C80 0.931 . S
H99 C78 0.931 . S
H100 C82 0.931 . S
H101 C83 0.929 . S
H102 C84 0.930 . S
H103 C87 0.930 . S
H104 C88 0.931 . S
H105 C92 0.928 . S
H106 C91 0.929 . S
H107 C89 0.932 . S
C108 C109 1.386 . S
C108 C110 1.397 . S
C108 H132 0.931 . S
C109 C108 1.386 . S
C109 C113 1.397 . S
C110 C108 1.397 . S
C110 C111 1.384 . S
C110 H133 0.930 . S
C111 C110 1.384 . S
C111 C112 1.377 . S
C111 C114 1.481 . S
C112 C111 1.377 . S
C112 C113 1.389 . S
C112 H134 0.929 . S
C113 C109 1.397 . S
C113 C112 1.389 . S
C113 H135 0.931 . S
C114 C111 1.481 . S
C114 C115 1.387 . S
C114 C119 1.390 . S
C115 C114 1.387 . S
C115 C116 1.401 . S
C115 H136 0.930 . S
C116 C115 1.401 . S
C116 C117 1.376 . S
C116 C125 1.511 . S
C117 C116 1.376 . S
C117 C118 1.392 . S
C117 H138 0.931 . S
C118 C117 1.392 . S
C118 C119 1.361 . S
C118 C120 1.500 . S
C119 C114 1.390 . S
C119 C118 1.361 . S
C119 H137 0.931 . S
C120 C118 1.500 . S
C120 C121 1.371 . S
C120 C122 1.365 . S
C121 C120 1.371 . S
C121 C131 1.386 . S
C121 H139 0.931 . S
C122 C120 1.365 . S
C122 C123 1.409 . S
C122 H140 0.929 . S
C123 C122 1.409 . S
C123 C124 1.380 . S
C123 H141 0.930 . S
C124 C123 1.380 . S
C124 C131 1.357 . S
C125 C116 1.511 . S
C125 C126 1.341 . S
C125 C127 1.371 . S
C126 C125 1.341 . S
C126 C130 1.394 . S
C126 H142 0.930 . S
C127 C125 1.371 . S
C127 C128 1.392 . S
C127 H143 0.931 . S
C128 C127 1.392 . S
C128 C129 1.331 . S
C128 H146 0.932 . S
C129 C128 1.331 . S
C129 C130 1.336 . S
C130 C126 1.394 . S
C130 C129 1.336 . S
C130 H145 0.929 . S
C131 C121 1.386 . S
C131 C124 1.357 . S
C131 H144 0.928 . S
H132 C108 0.931 . S
H133 C110 0.930 . S
H134 C112 0.929 . S
H135 C113 0.931 . S
H136 C115 0.930 . S
H137 C119 0.931 . S
H138 C117 0.931 . S
H139 C121 0.931 . S
H140 C122 0.929 . S
H141 C123 0.930 . S
H142 C126 0.930 . S
H143 C127 0.931 . S
H144 C131 0.928 . S
H145 C130 0.929 . S
H146 C128 0.932 . S
C147 C148 1.386 . S
C147 C149 1.397 . S
C147 H171 0.931 . S
C148 C147 1.386 . S
C148 C152 1.397 1_455 S
C149 C147 1.397 . S
C149 C150 1.384 . S
C149 H172 0.930 . S
C150 C149 1.384 . S
C150 C151 1.377 1_455 S
C150 C153 1.481 . S
C151 C150 1.377 1_655 S
C151 C152 1.389 . S
C151 H173 0.929 . S
C152 C148 1.397 1_655 S
C152 C151 1.389 . S
C152 H174 0.931 . S
C153 C150 1.481 . S
C153 C154 1.387 . S
C153 C158 1.390 1_455 S
C154 C153 1.387 . S
C154 C155 1.401 . S
C154 H175 0.930 . S
C155 C154 1.401 . S
C155 C156 1.376 . S
C155 C164 1.511 . S
C156 C155 1.376 . S
C156 C157 1.392 1_455 S
C156 H177 0.931 . S
C157 C156 1.392 1_655 S
C157 C158 1.361 . S
C157 C159 1.500 . S
C158 C153 1.390 1_655 S
C158 C157 1.361 . S
C158 H176 0.931 . S
C159 C157 1.500 . S
C159 C160 1.371 . S
C159 C161 1.365 . S
C160 C159 1.371 . S
C160 C170 1.386 . S
C160 H178 0.931 . S
C161 C159 1.365 . S
C161 C162 1.409 . S
C161 H179 0.929 . S
C162 C161 1.409 . S
C162 C163 1.380 . S
C162 H180 0.930 . S
C163 C162 1.380 . S
C163 C170 1.357 . S
C164 C155 1.511 . S
C164 C165 1.341 . S
C164 C166 1.371 . S
C165 C164 1.341 . S
C165 C169 1.394 . S
C165 H181 0.930 . S
C166 C164 1.371 . S
C166 C167 1.392 . S
C166 H182 0.931 . S
C167 C166 1.392 . S
C167 C168 1.331 . S
C167 H185 0.932 . S
C168 C167 1.331 . S
C168 C169 1.336 . S
C169 C165 1.394 . S
C169 C168 1.336 . S
C169 H184 0.929 . S
C170 C160 1.386 . S
C170 C163 1.357 . S
C170 H183 0.928 . S
H171 C147 0.931 . S
H172 C149 0.930 . S
H173 C151 0.929 . S
H174 C152 0.931 . S
H175 C154 0.930 . S
H176 C158 0.931 . S
H177 C156 0.931 . S
H178 C160 0.931 . S
H179 C161 0.929 . S
H180 C162 0.930 . S
H181 C165 0.930 . S
H182 C166 0.931 . S
H183 C170 0.928 . S
H184 C169 0.929 . S
H185 C167 0.932 . S
C186 C187 1.386 1_655 S
C186 C188 1.397 . S
C186 H210 0.931 . S
C187 C186 1.386 1_455 S
C187 C191 1.397 . S
C188 C186 1.397 . S
C188 C189 1.384 1_655 S
C188 H211 0.930 . S
C189 C188 1.384 1_455 S
C189 C190 1.377 . S
C189 C192 1.481 . S
C190 C189 1.377 . S
C190 C191 1.389 . S
C190 H212 0.929 . S
C191 C187 1.397 . S
C191 C190 1.389 . S
C191 H213 0.931 . S
C192 C189 1.481 . S
C192 C193 1.387 1_455 S
C192 C197 1.390 . S
C193 C192 1.387 1_655 S
C193 C194 1.401 . S
C193 H214 0.930 . S
C194 C193 1.401 . S
C194 C195 1.376 1_655 S
C194 C203 1.511 . S
C195 C194 1.376 1_455 S
C195 C196 1.392 . S
C195 H216 0.931 . S
C196 C195 1.392 . S
C196 C197 1.361 . S
C196 C198 1.500 . S
C197 C192 1.390 . S
C197 C196 1.361 . S
C197 H215 0.931 . S
C198 C196 1.500 . S
C198 C199 1.371 . S
C198 C200 1.365 . S
C199 C198 1.371 . S
C199 C209 1.386 . S
C199 H217 0.931 . S
C200 C198 1.365 . S
C200 C201 1.409 . S
C200 H218 0.929 . S
C201 C200 1.409 . S
C201 C202 1.380 . S
C201 H219 0.930 . S
C202 C201 1.380 . S
C202 C209 1.357 . S
C203 C194 1.511 . S
C203 C204 1.341 . S
C203 C205 1.371 . S
C204 C203 1.341 . S
C204 C208 1.394 . S
C204 H220 0.930 . S
C205 C203 1.371 . S
C205 C206 1.392 . S
C205 H221 0.931 . S
C206 C205 1.392 . S
C206 C207 1.331 . S
C206 H224 0.932 . S
C207 C206 1.331 . S
C207 C208 1.336 . S
C208 C204 1.394 . S
C208 C207 1.336 . S
C208 H223 0.929 . S
C209 C199 1.386 . S
C209 C202 1.357 . S
C209 H222 0.928 . S
H210 C186 0.931 . S
H211 C188 0.930 . S
H212 C190 0.929 . S
H213 C191 0.931 . S
H214 C193 0.930 . S
H215 C197 0.931 . S
H216 C195 0.931 . S
H217 C199 0.931 . S
H218 C200 0.929 . S
H219 C201 0.930 . S
H220 C204 0.930 . S
H221 C205 0.931 . S
H222 C209 0.928 . S
H223 C208 0.929 . S
H224 C206 0.932 . S
C225 C226 1.386 1_565 S
C225 C227 1.397 . S
C225 H249 0.931 . S
C226 C225 1.386 1_545 S
C226 C230 1.397 . S
C227 C225 1.397 . S
C227 C228 1.384 1_565 S
C227 H250 0.930 . S
C228 C227 1.384 1_545 S
C228 C229 1.377 . S
C228 C231 1.481 . S
C229 C228 1.377 . S
C229 C230 1.389 . S
C229 H251 0.929 . S
C230 C226 1.397 . S
C230 C229 1.389 . S
C230 H252 0.931 . S
C231 C228 1.481 . S
C231 C232 1.387 1_545 S
C231 C236 1.390 . S
C232 C231 1.387 1_565 S
C232 C233 1.401 . S
C232 H253 0.930 . S
C233 C232 1.401 . S
C233 C234 1.376 1_565 S
C233 C242 1.511 . S
C234 C233 1.376 1_545 S
C234 C235 1.392 . S
C234 H255 0.931 . S
C235 C234 1.392 . S
C235 C236 1.361 . S
C235 C237 1.500 . S
C236 C231 1.390 . S
C236 C235 1.361 . S
C236 H254 0.931 . S
C237 C235 1.500 . S
C237 C238 1.371 . S
C237 C239 1.365 . S
C238 C237 1.371 . S
C238 C248 1.386 . S
C238 H256 0.931 . S
C239 C237 1.365 . S
C239 C240 1.409 . S
C239 H257 0.929 . S
C240 C239 1.409 . S
C240 C241 1.380 . S
C240 H258 0.930 . S
C241 C240 1.380 . S
C241 C248 1.357 . S
C242 C233 1.511 . S
C242 C243 1.341 . S
C242 C244 1.371 . S
C243 C242 1.341 . S
C243 C247 1.394 . S
C243 H259 0.930 . S
C244 C242 1.371 . S
C244 C245 1.392 . S
C244 H260 0.931 . S
C245 C244 1.392 . S
C245 C246 1.331 . S
C245 H263 0.932 . S
C246 C245 1.331 . S
C246 C247 1.336 . S
C247 C243 1.394 . S
C247 C246 1.336 . S
C247 H262 0.929 . S
C248 C238 1.386 . S
C248 C241 1.357 . S
C248 H261 0.928 . S
H249 C225 0.931 . S
H250 C227 0.930 . S
H251 C229 0.929 . S
H252 C230 0.931 . S
H253 C232 0.930 . S
H254 C236 0.931 . S
H255 C234 0.931 . S
H256 C238 0.931 . S
H257 C239 0.929 . S
H258 C240 0.930 . S
H259 C243 0.930 . S
H260 C244 0.931 . S
H261 C248 0.928 . S
H262 C247 0.929 . S
H263 C245 0.932 . S
C264 C265 1.386 . S
C264 C266 1.397 . S
C264 H288 0.931 . S
C265 C264 1.386 . S
C265 C269 1.397 . S
C266 C264 1.397 . S
C266 C267 1.384 . S
C266 H289 0.930 . S
C267 C266 1.384 . S
C267 C268 1.377 . S
C267 C270 1.481 . S
C268 C267 1.377 . S
C268 C269 1.389 . S
C268 H290 0.929 . S
C269 C265 1.397 . S
C269 C268 1.389 . S
C269 H291 0.931 . S
C270 C267 1.481 . S
C270 C271 1.387 . S
C270 C275 1.390 . S
C271 C270 1.387 . S
C271 C272 1.401 . S
C271 H292 0.930 . S
C272 C271 1.401 . S
C272 C273 1.376 . S
C272 C281 1.511 . S
C273 C272 1.376 . S
C273 C274 1.392 . S
C273 H294 0.931 . S
C274 C273 1.392 . S
C274 C275 1.361 . S
C274 C276 1.500 . S
C275 C270 1.390 . S
C275 C274 1.361 . S
C275 H293 0.931 . S
C276 C274 1.500 . S
C276 C277 1.371 . S
C276 C278 1.365 . S
C277 C276 1.371 . S
C277 C287 1.386 . S
C277 H295 0.931 . S
C278 C276 1.365 . S
C278 C279 1.409 . S
C278 H296 0.929 . S
C279 C278 1.409 . S
C279 C280 1.380 . S
C279 H297 0.930 . S
C280 C279 1.380 . S
C280 C287 1.357 . S
C281 C272 1.511 . S
C281 C282 1.341 . S
C281 C283 1.371 . S
C282 C281 1.341 . S
C282 C286 1.394 . S
C282 H298 0.930 . S
C283 C281 1.371 . S
C283 C284 1.392 . S
C283 H299 0.931 . S
C284 C283 1.392 . S
C284 C285 1.331 . S
C284 H302 0.932 . S
C285 C284 1.331 . S
C285 C286 1.336 . S
C286 C282 1.394 . S
C286 C285 1.336 . S
C286 H301 0.929 . S
C287 C277 1.386 . S
C287 C280 1.357 . S
C287 H300 0.928 . S
H288 C264 0.931 . S
H289 C266 0.930 . S
H290 C268 0.929 . S
H291 C269 0.931 . S
H292 C271 0.930 . S
H293 C275 0.931 . S
H294 C273 0.931 . S
H295 C277 0.931 . S
H296 C278 0.929 . S
H297 C279 0.930 . S
H298 C282 0.930 . S
H299 C283 0.931 . S
H300 C287 0.928 . S
H301 C286 0.929 . S
H302 C284 0.932 . S
H303 C321 0.951 . S
H304 C323 0.951 . S
H305 C325 0.950 . S
H306 C326 0.950 . S
H307 C328 0.950 . S
H308 C331 0.950 . S
H309 C332 0.950 . S
H310 C334 0.950 . S
H311 C335 0.950 . S
H312 C336 0.951 . S
H313 C338 0.951 . S
H314 C340 0.950 . S
H315 C341 0.950 . S
H316 C343 0.950 . S
H317 C346 0.950 . S
H318 C347 0.950 . S
H319 C349 0.950 . S
H320 C350 0.950 . S
C321 H303 0.951 . S
C321 C322 1.366 . S
C321 C323 1.388 . S
C322 C321 1.366 . S
C322 C326 1.385 . S
C323 H304 0.951 . S
C323 C321 1.388 . S
C323 C324 1.366 . S
C324 C323 1.366 . S
C324 C325 1.414 . S
C324 C327 1.499 . S
C325 H305 0.950 . S
C325 C324 1.414 . S
C325 C326 1.374 . S
C326 H306 0.950 . S
C326 C322 1.385 . S
C326 C325 1.374 . S
C327 C324 1.499 . S
C327 C328 1.373 . S
C327 C329 1.389 . S
C328 H307 0.950 . S
C328 C327 1.373 . S
C328 C344 1.377 . S
C329 C327 1.389 . S
C329 C330 1.524 . S
C329 C343 1.377 . S
C330 C329 1.524 . S
C330 C331 1.397 . S
C330 C335 1.363 . S
C331 H308 0.950 . S
C331 C330 1.397 . S
C331 C332 1.334 . S
C332 H309 0.950 . S
C332 C331 1.334 . S
C332 C333 1.287 . S
C333 C332 1.287 . S
C333 C334 1.524 . S
C333 H352 0.913 . S
C334 H310 0.950 . S
C334 C333 1.524 . S
C334 C335 1.415 . S
C335 H311 0.950 . S
C335 C330 1.363 . S
C335 C334 1.415 . S
C336 H312 0.951 . S
C336 C337 1.366 . S
C336 C338 1.388 . S
C337 C336 1.366 . S
C337 C341 1.385 . S
C338 H313 0.951 . S
C338 C336 1.388 . S
C338 C339 1.366 . S
C339 C338 1.366 . S
C339 C340 1.414 . S
C339 C342 1.499 . S
C340 H314 0.950 . S
C340 C339 1.414 . S
C340 C341 1.374 . S
C341 H315 0.950 . S
C341 C337 1.385 . S
C341 C340 1.374 . S
C342 C339 1.499 . S
C342 C343 1.373 . S
C342 C344 1.389 . S
C343 H316 0.950 . S
C343 C329 1.377 . S
C343 C342 1.373 . S
C344 C328 1.377 . S
C344 C342 1.389 . S
C344 C345 1.524 . S
C345 C344 1.524 . S
C345 C346 1.397 . S
C345 C350 1.363 . S
C346 H317 0.950 . S
C346 C345 1.397 . S
C346 C347 1.334 . S
C347 H318 0.950 . S
C347 C346 1.334 . S
C347 C348 1.287 . S
C348 C347 1.287 . S
C348 C349 1.524 . S
C348 H351 0.999 . S
C349 H319 0.950 . S
C349 C348 1.524 . S
C349 C350 1.415 . S
C350 H320 0.950 . S
C350 C345 1.363 . S
C350 C349 1.415 . S
H351 C348 0.999 . S
H352 C333 0.913 . S
H353 C371 0.951 . S
H354 C373 0.951 . S
H355 C375 0.950 . S
H356 C376 0.950 . S
H357 C378 0.950 . S
H358 C381 0.950 . S
H359 C382 0.950 . S
H360 C384 0.950 . S
H361 C385 0.950 . S
H362 C386 0.951 . S
H363 C388 0.951 . S
H364 C390 0.950 . S
H365 C391 0.950 . S
H366 C393 0.950 . S
H367 C396 0.950 . S
H368 C397 0.950 . S
H369 C399 0.950 . S
H370 C400 0.950 . S
C371 H353 0.951 . S
C371 C372 1.366 . S
C371 C373 1.388 . S
C372 C371 1.366 . S
C372 C376 1.385 . S
C373 H354 0.951 . S
C373 C371 1.388 . S
C373 C374 1.366 . S
C374 C373 1.366 . S
C374 C375 1.414 . S
C374 C377 1.499 . S
C375 H355 0.950 . S
C375 C374 1.414 . S
C375 C376 1.374 . S
C376 H356 0.950 . S
C376 C372 1.385 . S
C376 C375 1.374 . S
C377 C374 1.499 . S
C377 C378 1.373 . S
C377 C379 1.389 . S
C378 H357 0.950 . S
C378 C377 1.373 . S
C378 C394 1.377 . S
C379 C377 1.389 . S
C379 C380 1.524 . S
C379 C393 1.377 . S
C380 C379 1.524 . S
C380 C381 1.397 . S
C380 C385 1.363 . S
C381 H358 0.950 . S
C381 C380 1.397 . S
C381 C382 1.334 . S
C382 H359 0.950 . S
C382 C381 1.334 . S
C382 C383 1.287 . S
C383 C382 1.287 . S
C383 C384 1.524 . S
C383 H402 0.913 . S
C384 H360 0.950 . S
C384 C383 1.524 . S
C384 C385 1.415 . S
C385 H361 0.950 . S
C385 C380 1.363 . S
C385 C384 1.415 . S
C386 H362 0.951 . S
C386 C387 1.366 . S
C386 C388 1.388 . S
C387 C386 1.366 . S
C387 C391 1.385 . S
C388 H363 0.951 . S
C388 C386 1.388 . S
C388 C389 1.366 . S
C389 C388 1.366 . S
C389 C390 1.414 . S
C389 C392 1.499 . S
C390 H364 0.950 . S
C390 C389 1.414 . S
C390 C391 1.374 . S
C391 H365 0.950 . S
C391 C387 1.385 . S
C391 C390 1.374 . S
C392 C389 1.499 . S
C392 C393 1.373 . S
C392 C394 1.389 . S
C393 H366 0.950 . S
C393 C379 1.377 . S
C393 C392 1.373 . S
C394 C378 1.377 . S
C394 C392 1.389 . S
C394 C395 1.524 . S
C395 C394 1.524 . S
C395 C396 1.397 . S
C395 C400 1.363 . S
C396 H367 0.950 . S
C396 C395 1.397 . S
C396 C397 1.334 . S
C397 H368 0.950 . S
C397 C396 1.334 . S
C397 C398 1.287 . S
C398 C397 1.287 . S
C398 C399 1.524 . S
C398 H401 0.999 . S
C399 H369 0.950 . S
C399 C398 1.524 . S
C399 C400 1.415 . S
C400 H370 0.950 . S
C400 C395 1.363 . S
C400 C399 1.415 . S
H401 C398 0.999 . S
H402 C383 0.913 . S
H403 C421 0.951 . S
H404 C423 0.951 . S
H405 C425 0.950 . S
H406 C426 0.950 . S
H407 C428 0.950 . S
H408 C431 0.950 . S
H409 C432 0.950 . S
H410 C434 0.950 . S
H411 C435 0.950 . S
H412 C436 0.951 . S
H413 C438 0.951 . S
H414 C440 0.950 . S
H415 C441 0.950 . S
H416 C443 0.950 . S
H417 C446 0.950 . S
H418 C447 0.950 . S
H419 C449 0.950 . S
H420 C450 0.950 . S
C421 H403 0.951 . S
C421 C422 1.366 . S
C421 C423 1.388 . S
C422 C421 1.366 . S
C422 C426 1.385 . S
C423 H404 0.951 . S
C423 C421 1.388 . S
C423 C424 1.366 . S
C424 C423 1.366 . S
C424 C425 1.414 . S
C424 C427 1.499 . S
C425 H405 0.950 . S
C425 C424 1.414 . S
C425 C426 1.374 . S
C426 H406 0.950 . S
C426 C422 1.385 . S
C426 C425 1.374 . S
C427 C424 1.499 . S
C427 C428 1.373 . S
C427 C429 1.389 . S
C428 H407 0.950 . S
C428 C427 1.373 . S
C428 C444 1.377 . S
C429 C427 1.389 . S
C429 C430 1.524 . S
C429 C443 1.377 . S
C430 C429 1.524 . S
C430 C431 1.397 . S
C430 C435 1.363 . S
C431 H408 0.950 . S
C431 C430 1.397 . S
C431 C432 1.334 . S
C432 H409 0.950 . S
C432 C431 1.334 . S
C432 C433 1.287 . S
C433 C432 1.287 . S
C433 C434 1.524 . S
C433 H452 0.913 . S
C434 H410 0.950 . S
C434 C433 1.524 . S
C434 C435 1.415 . S
C435 H411 0.950 . S
C435 C430 1.363 . S
C435 C434 1.415 . S
C436 H412 0.951 . S
C436 C437 1.366 . S
C436 C438 1.388 . S
C437 C436 1.366 . S
C437 C441 1.385 . S
C438 H413 0.951 . S
C438 C436 1.388 . S
C438 C439 1.366 . S
C439 C438 1.366 . S
C439 C440 1.414 . S
C439 C442 1.499 . S
C440 H414 0.950 . S
C440 C439 1.414 . S
C440 C441 1.374 . S
C441 H415 0.950 . S
C441 C437 1.385 . S
C441 C440 1.374 . S
C442 C439 1.499 . S
C442 C443 1.373 . S
C442 C444 1.389 . S
C443 H416 0.950 . S
C443 C429 1.377 . S
C443 C442 1.373 . S
C444 C428 1.377 . S
C444 C442 1.389 . S
C444 C445 1.524 . S
C445 C444 1.524 . S
C445 C446 1.397 . S
C445 C450 1.363 . S
C446 H417 0.950 . S
C446 C445 1.397 . S
C446 C447 1.334 . S
C447 H418 0.950 . S
C447 C446 1.334 . S
C447 C448 1.287 . S
C448 C447 1.287 . S
C448 C449 1.524 . S
C448 H451 0.999 . S
C449 H419 0.950 . S
C449 C448 1.524 . S
C449 C450 1.415 . S
C450 H420 0.950 . S
C450 C445 1.363 . S
C450 C449 1.415 . S
H451 C448 0.999 . S
H452 C433 0.913 . S
H453 C471 0.951 . S
H454 C473 0.951 . S
H455 C475 0.950 . S
H456 C476 0.950 . S
H457 C478 0.950 . S
H458 C481 0.950 . S
H459 C482 0.950 . S
H460 C484 0.950 . S
H461 C485 0.950 . S
H462 C486 0.951 . S
H463 C488 0.951 . S
H464 C490 0.950 . S
H465 C491 0.950 . S
H466 C493 0.950 . S
H467 C496 0.950 . S
H468 C497 0.950 . S
H469 C499 0.950 . S
H470 C500 0.950 . S
C471 H453 0.951 . S
C471 C472 1.366 . S
C471 C473 1.388 . S
C472 C471 1.366 . S
C472 C476 1.385 . S
C473 H454 0.951 . S
C473 C471 1.388 . S
C473 C474 1.366 . S
C474 C473 1.366 . S
C474 C475 1.414 . S
C474 C477 1.499 . S
C475 H455 0.950 . S
C475 C474 1.414 . S
C475 C476 1.374 . S
C476 H456 0.950 . S
C476 C472 1.385 . S
C476 C475 1.374 . S
C477 C474 1.499 . S
C477 C478 1.373 . S
C477 C479 1.389 . S
C478 H457 0.950 . S
C478 C477 1.373 . S
C478 C494 1.377 . S
C479 C477 1.389 . S
C479 C480 1.524 . S
C479 C493 1.377 . S
C480 C479 1.524 . S
C480 C481 1.397 . S
C480 C485 1.363 . S
C481 H458 0.950 . S
C481 C480 1.397 . S
C481 C482 1.334 . S
C482 H459 0.950 . S
C482 C481 1.334 . S
C482 C483 1.287 . S
C483 C482 1.287 . S
C483 C484 1.524 . S
C483 H502 0.913 . S
C484 H460 0.950 . S
C484 C483 1.524 . S
C484 C485 1.415 . S
C485 H461 0.950 . S
C485 C480 1.363 . S
C485 C484 1.415 . S
C486 H462 0.951 . S
C486 C487 1.366 . S
C486 C488 1.388 . S
C487 C486 1.366 . S
C487 C491 1.385 . S
C488 H463 0.951 . S
C488 C486 1.388 . S
C488 C489 1.366 . S
C489 C488 1.366 . S
C489 C490 1.414 . S
C489 C492 1.499 . S
C490 H464 0.950 . S
C490 C489 1.414 . S
C490 C491 1.374 . S
C491 H465 0.950 . S
C491 C487 1.385 . S
C491 C490 1.374 . S
C492 C489 1.499 . S
C492 C493 1.373 . S
C492 C494 1.389 . S
C493 H466 0.950 . S
C493 C479 1.377 . S
C493 C492 1.373 . S
C494 C478 1.377 . S
C494 C492 1.389 . S
C494 C495 1.524 . S
C495 C494 1.524 . S
C495 C496 1.397 . S
C495 C500 1.363 . S
C496 H467 0.950 . S
C496 C495 1.397 . S
C496 C497 1.334 . S
C497 H468 0.950 . S
C497 C496 1.334 . S
C497 C498 1.287 . S
C498 C497 1.287 . S
C498 C499 1.524 . S
C498 H501 0.999 . S
C499 H469 0.950 . S
C499 C498 1.524 . S
C499 C500 1.415 . S
C500 H470 0.950 . S
C500 C495 1.363 . S
C500 C499 1.415 . S
H501 C498 0.999 . S
H502 C483 0.913 . S
H503 C521 0.951 . S
H504 C523 0.951 . S
H505 C525 0.950 . S
H506 C526 0.950 . S
H507 C528 0.950 . S
H508 C531 0.950 . S
H509 C532 0.950 . S
H510 C534 0.950 . S
H511 C535 0.950 . S
H512 C536 0.951 . S
H513 C538 0.951 . S
H514 C540 0.950 . S
H515 C541 0.950 . S
H516 C543 0.950 . S
H517 C546 0.950 . S
H518 C547 0.950 . S
H519 C549 0.950 . S
H520 C550 0.950 . S
C521 H503 0.951 . S
C521 C522 1.366 . S
C521 C523 1.388 . S
C522 C521 1.366 . S
C522 C526 1.385 . S
C523 H504 0.951 . S
C523 C521 1.388 . S
C523 C524 1.366 . S
C524 C523 1.366 . S
C524 C525 1.414 . S
C524 C527 1.499 . S
C525 H505 0.950 . S
C525 C524 1.414 . S
C525 C526 1.374 . S
C526 H506 0.950 . S
C526 C522 1.385 . S
C526 C525 1.374 . S
C527 C524 1.499 . S
C527 C528 1.373 . S
C527 C529 1.389 . S
C528 H507 0.950 . S
C528 C527 1.373 . S
C528 C544 1.377 . S
C529 C527 1.389 . S
C529 C530 1.524 . S
C529 C543 1.377 . S
C530 C529 1.524 . S
C530 C531 1.397 . S
C530 C535 1.363 . S
C531 H508 0.950 . S
C531 C530 1.397 . S
C531 C532 1.334 . S
C532 H509 0.950 . S
C532 C531 1.334 . S
C532 C533 1.287 . S
C533 C532 1.287 . S
C533 C534 1.524 . S
C533 H552 0.913 . S
C534 H510 0.950 . S
C534 C533 1.524 . S
C534 C535 1.415 . S
C535 H511 0.950 . S
C535 C530 1.363 . S
C535 C534 1.415 . S
C536 H512 0.951 . S
C536 C537 1.366 . S
C536 C538 1.388 . S
C537 C536 1.366 . S
C537 C541 1.385 . S
C538 H513 0.951 . S
C538 C536 1.388 . S
C538 C539 1.366 . S
C539 C538 1.366 . S
C539 C540 1.414 . S
C539 C542 1.499 . S
C540 H514 0.950 . S
C540 C539 1.414 . S
C540 C541 1.374 . S
C541 H515 0.950 . S
C541 C537 1.385 . S
C541 C540 1.374 . S
C542 C539 1.499 . S
C542 C543 1.373 . S
C542 C544 1.389 . S
C543 H516 0.950 . S
C543 C529 1.377 . S
C543 C542 1.373 . S
C544 C528 1.377 . S
C544 C542 1.389 . S
C544 C545 1.524 . S
C545 C544 1.524 . S
C545 C546 1.397 . S
C545 C550 1.363 . S
C546 H517 0.950 . S
C546 C545 1.397 . S
C546 C547 1.334 . S
C547 H518 0.950 . S
C547 C546 1.334 . S
C547 C548 1.287 . S
C548 C547 1.287 . S
C548 C549 1.524 . S
C548 H551 0.999 . S
C549 H519 0.950 . S
C549 C548 1.524 . S
C549 C550 1.415 . S
C550 H520 0.950 . S
C550 C545 1.363 . S
C550 C549 1.415 . S
H551 C548 0.999 . S
H552 C533 0.913 . S
H553 C571 0.951 . S
H554 C573 0.951 . S
H555 C575 0.950 . S
H556 C576 0.950 . S
H557 C578 0.950 . S
H558 C581 0.950 . S
H559 C582 0.950 . S
H560 C584 0.950 . S
H561 C585 0.950 . S
H562 C586 0.951 . S
H563 C588 0.951 . S
H564 C590 0.950 . S
H565 C591 0.950 . S
H566 C593 0.950 . S
H567 C596 0.950 . S
H568 C597 0.950 . S
H569 C599 0.950 . S
H570 C600 0.950 . S
C571 H553 0.951 . S
C571 C572 1.366 . S
C571 C573 1.388 . S
C572 C571 1.366 . S
C572 C576 1.385 . S
C573 H554 0.951 . S
C573 C571 1.388 . S
C573 C574 1.366 . S
C574 C573 1.366 . S
C574 C575 1.414 . S
C574 C577 1.499 . S
C575 H555 0.950 . S
C575 C574 1.414 . S
C575 C576 1.374 . S
C576 H556 0.950 . S
C576 C572 1.385 . S
C576 C575 1.374 . S
C577 C574 1.499 . S
C577 C578 1.373 . S
C577 C579 1.389 . S
C578 H557 0.950 . S
C578 C577 1.373 . S
C578 C594 1.377 . S
C579 C577 1.389 . S
C579 C580 1.524 . S
C579 C593 1.377 . S
C580 C579 1.524 . S
C580 C581 1.397 . S
C580 C585 1.363 . S
C581 H558 0.950 . S
C581 C580 1.397 . S
C581 C582 1.334 . S
C582 H559 0.950 . S
C582 C581 1.334 . S
C582 C583 1.287 . S
C583 C582 1.287 . S
C583 C584 1.524 . S
C583 H602 0.913 . S
C584 H560 0.950 . S
C584 C583 1.524 . S
C584 C585 1.415 . S
C585 H561 0.950 . S
C585 C580 1.363 . S
C585 C584 1.415 . S
C586 H562 0.951 . S
C586 C587 1.366 . S
C586 C588 1.388 . S
C587 C586 1.366 . S
C587 C591 1.385 . S
C588 H563 0.951 . S
C588 C586 1.388 . S
C588 C589 1.366 . S
C589 C588 1.366 . S
C589 C590 1.414 . S
C589 C592 1.499 . S
C590 H564 0.950 . S
C590 C589 1.414 . S
C590 C591 1.374 . S
C591 H565 0.950 . S
C591 C587 1.385 . S
C591 C590 1.374 . S
C592 C589 1.499 . S
C592 C593 1.373 . S
C592 C594 1.389 . S
C593 H566 0.950 . S
C593 C579 1.377 . S
C593 C592 1.373 . S
C594 C578 1.377 . S
C594 C592 1.389 . S
C594 C595 1.524 . S
C595 C594 1.524 . S
C595 C596 1.397 . S
C595 C600 1.363 . S
C596 H567 0.950 . S
C596 C595 1.397 . S
C596 C597 1.334 . S
C597 H568 0.950 . S
C597 C596 1.334 . S
C597 C598 1.287 . S
C598 C597 1.287 . S
C598 C599 1.524 . S
C598 H601 0.999 . S
C599 H569 0.950 . S
C599 C598 1.524 . S
C599 C600 1.415 . S
C600 H570 0.950 . S
C600 C595 1.363 . S
C600 C599 1.415 . S
H601 C598 0.999 . S
H602 C583 0.913 . S
H603 C621 0.951 . S
H604 C623 0.951 . S
H605 C625 0.950 . S
H606 C626 0.950 . S
H607 C628 0.950 . S
H608 C631 0.950 . S
H609 C632 0.950 . S
H610 C634 0.950 . S
H611 C635 0.950 . S
H612 C636 0.951 . S
H613 C638 0.951 . S
H614 C640 0.950 . S
H615 C641 0.950 . S
H616 C643 0.950 . S
H617 C646 0.950 . S
H618 C647 0.950 . S
H619 C649 0.950 . S
H620 C650 0.950 . S
C621 H603 0.951 . S
C621 C622 1.366 . S
C621 C623 1.388 . S
C622 C621 1.366 . S
C622 C626 1.385 . S
C623 H604 0.951 . S
C623 C621 1.388 . S
C623 C624 1.366 . S
C624 C623 1.366 . S
C624 C625 1.414 . S
C624 C627 1.499 . S
C625 H605 0.950 . S
C625 C624 1.414 . S
C625 C626 1.374 . S
C626 H606 0.950 . S
C626 C622 1.385 . S
C626 C625 1.374 . S
C627 C624 1.499 . S
C627 C628 1.373 . S
C627 C629 1.389 . S
C628 H607 0.950 . S
C628 C627 1.373 . S
C628 C644 1.377 . S
C629 C627 1.389 . S
C629 C630 1.524 . S
C629 C643 1.377 . S
C630 C629 1.524 . S
C630 C631 1.397 . S
C630 C635 1.363 . S
C631 H608 0.950 . S
C631 C630 1.397 . S
C631 C632 1.334 . S
C632 H609 0.950 . S
C632 C631 1.334 . S
C632 C633 1.287 . S
C633 C632 1.287 . S
C633 C634 1.524 . S
C633 H652 0.913 . S
C634 H610 0.950 . S
C634 C633 1.524 . S
C634 C635 1.415 . S
C635 H611 0.950 . S
C635 C630 1.363 . S
C635 C634 1.415 . S
C636 H612 0.951 . S
C636 C637 1.366 . S
C636 C638 1.388 . S
C637 C636 1.366 . S
C637 C641 1.385 . S
C638 H613 0.951 . S
C638 C636 1.388 . S
C638 C639 1.366 . S
C639 C638 1.366 . S
C639 C640 1.414 . S
C639 C642 1.499 . S
C640 H614 0.950 . S
C640 C639 1.414 . S
C640 C641 1.374 . S
C641 H615 0.950 . S
C641 C637 1.385 . S
C641 C640 1.374 . S
C642 C639 1.499 . S
C642 C643 1.373 . S
C642 C644 1.389 . S
C643 H616 0.950 . S
C643 C629 1.377 . S
C643 C642 1.373 . S
C644 C628 1.377 . S
C644 C642 1.389 . S
C644 C645 1.524 . S
C645 C644 1.524 . S
C645 C646 1.397 . S
C645 C650 1.363 . S
C646 H617 0.950 . S
C646 C645 1.397 . S
C646 C647 1.334 . S
C647 H618 0.950 . S
C647 C646 1.334 . S
C647 C648 1.287 . S
C648 C647 1.287 . S
C648 C649 1.524 . S
C648 H651 0.999 . S
C649 H619 0.950 . S
C649 C648 1.524 . S
C649 C650 1.415 . S
C650 H620 0.950 . S
C650 C645 1.363 . S
C650 C649 1.415 . S
H651 C648 0.999 . S
H652 C633 0.913 . S
H653 C671 0.951 . S
H654 C673 0.951 . S
H655 C675 0.950 . S
H656 C676 0.950 . S
H657 C678 0.950 . S
H658 C681 0.950 . S
H659 C682 0.950 . S
H660 C684 0.950 . S
H661 C685 0.950 . S
H662 C686 0.951 . S
H663 C688 0.951 . S
H664 C690 0.950 . S
H665 C691 0.950 . S
H666 C693 0.950 . S
H667 C696 0.950 . S
H668 C697 0.950 . S
H669 C699 0.950 . S
H670 C700 0.950 . S
C671 H653 0.951 . S
C671 C672 1.366 . S
C671 C673 1.388 . S
C672 C671 1.366 . S
C672 C676 1.385 . S
C673 H654 0.951 . S
C673 C671 1.388 . S
C673 C674 1.366 . S
C674 C673 1.366 . S
C674 C675 1.414 . S
C674 C677 1.499 . S
C675 H655 0.950 . S
C675 C674 1.414 . S
C675 C676 1.374 . S
C676 H656 0.950 . S
C676 C672 1.385 . S
C676 C675 1.374 . S
C677 C674 1.499 . S
C677 C678 1.373 . S
C677 C679 1.389 . S
C678 H657 0.950 . S
C678 C677 1.373 . S
C678 C694 1.377 . S
C679 C677 1.389 . S
C679 C680 1.524 . S
C679 C693 1.377 . S
C680 C679 1.524 . S
C680 C681 1.397 . S
C680 C685 1.363 . S
C681 H658 0.950 . S
C681 C680 1.397 . S
C681 C682 1.334 . S
C682 H659 0.950 . S
C682 C681 1.334 . S
C682 C683 1.287 . S
C683 C682 1.287 . S
C683 C684 1.524 . S
C683 H702 0.913 . S
C684 H660 0.950 . S
C684 C683 1.524 . S
C684 C685 1.415 . S
C685 H661 0.950 . S
C685 C680 1.363 . S
C685 C684 1.415 . S
C686 H662 0.951 . S
C686 C687 1.366 . S
C686 C688 1.388 . S
C687 C686 1.366 . S
C687 C691 1.385 . S
C688 H663 0.951 . S
C688 C686 1.388 . S
C688 C689 1.366 . S
C689 C688 1.366 . S
C689 C690 1.414 . S
C689 C692 1.499 . S
C690 H664 0.950 . S
C690 C689 1.414 . S
C690 C691 1.374 . S
C691 H665 0.950 . S
C691 C687 1.385 . S
C691 C690 1.374 . S
C692 C689 1.499 . S
C692 C693 1.373 . S
C692 C694 1.389 . S
C693 H666 0.950 . S
C693 C679 1.377 . S
C693 C692 1.373 . S
C694 C678 1.377 . S
C694 C692 1.389 . S
C694 C695 1.524 . S
C695 C694 1.524 . S
C695 C696 1.397 . S
C695 C700 1.363 . S
C696 H667 0.950 . S
C696 C695 1.397 . S
C696 C697 1.334 . S
C697 H668 0.950 . S
C697 C696 1.334 . S
C697 C698 1.287 . S
C698 C697 1.287 . S
C698 C699 1.524 . S
C698 H701 0.999 . S
C699 H669 0.950 . S
C699 C698 1.524 . S
C699 C700 1.415 . S
C700 H670 0.950 . S
C700 C695 1.363 . S
C700 C699 1.415 . S
H701 C698 0.999 . S
H702 C683 0.913 . S
H703 C721 0.951 . S
H704 C723 0.951 . S
H705 C725 0.950 . S
H706 C726 0.950 . S
H707 C728 0.950 . S
H708 C731 0.950 . S
H709 C732 0.950 . S
H710 C734 0.950 . S
H711 C735 0.950 . S
H712 C736 0.951 . S
H713 C738 0.951 . S
H714 C740 0.950 . S
H715 C741 0.950 . S
H716 C743 0.950 . S
H717 C746 0.950 . S
H718 C747 0.950 . S
H719 C749 0.950 . S
H720 C750 0.950 . S
C721 H703 0.951 . S
C721 C722 1.366 . S
C721 C723 1.388 . S
C722 C721 1.366 . S
C722 C726 1.385 . S
C723 H704 0.951 . S
C723 C721 1.388 . S
C723 C724 1.366 . S
C724 C723 1.366 . S
C724 C725 1.414 . S
C724 C727 1.499 . S
C725 H705 0.950 . S
C725 C724 1.414 . S
C725 C726 1.374 . S
C726 H706 0.950 . S
C726 C722 1.385 . S
C726 C725 1.374 . S
C727 C724 1.499 . S
C727 C728 1.373 . S
C727 C729 1.389 . S
C728 H707 0.950 . S
C728 C727 1.373 . S
C728 C744 1.377 . S
C729 C727 1.389 . S
C729 C730 1.524 . S
C729 C743 1.377 . S
C730 C729 1.524 . S
C730 C731 1.397 . S
C730 C735 1.363 . S
C731 H708 0.950 . S
C731 C730 1.397 . S
C731 C732 1.334 . S
C732 H709 0.950 . S
C732 C731 1.334 . S
C732 C733 1.287 . S
C733 C732 1.287 . S
C733 C734 1.524 . S
C733 H752 0.913 . S
C734 H710 0.950 . S
C734 C733 1.524 . S
C734 C735 1.415 . S
C735 H711 0.950 . S
C735 C730 1.363 . S
C735 C734 1.415 . S
C736 H712 0.951 . S
C736 C737 1.366 . S
C736 C738 1.388 . S
C737 C736 1.366 . S
C737 C741 1.385 . S
C738 H713 0.951 . S
C738 C736 1.388 . S
C738 C739 1.366 . S
C739 C738 1.366 . S
C739 C740 1.414 . S
C739 C742 1.499 . S
C740 H714 0.950 . S
C740 C739 1.414 . S
C740 C741 1.374 . S
C741 H715 0.950 . S
C741 C737 1.385 . S
C741 C740 1.374 . S
C742 C739 1.499 . S
C742 C743 1.373 . S
C742 C744 1.389 . S
C743 H716 0.950 . S
C743 C729 1.377 . S
C743 C742 1.373 . S
C744 C728 1.377 . S
C744 C742 1.389 . S
C744 C745 1.524 . S
C745 C744 1.524 . S
C745 C746 1.397 . S
C745 C750 1.363 . S
C746 H717 0.950 . S
C746 C745 1.397 . S
C746 C747 1.334 . S
C747 H718 0.950 . S
C747 C746 1.334 . S
C747 C748 1.287 . S
C748 C747 1.287 . S
C748 C749 1.524 . S
C748 H751 0.999 . S
C749 H719 0.950 . S
C749 C748 1.524 . S
C749 C750 1.415 . S
C750 H720 0.950 . S
C750 C745 1.363 . S
C750 C749 1.415 . S
H751 C748 0.999 . S
H752 C733 0.913 . S
H753 C771 0.951 . S
H754 C773 0.951 . S
H755 C775 0.950 . S
H756 C776 0.950 . S
H757 C778 0.950 . S
H758 C781 0.950 . S
H759 C782 0.950 . S
H760 C784 0.950 . S
H761 C785 0.950 . S
H762 C786 0.951 . S
H763 C788 0.951 . S
H764 C790 0.950 . S
H765 C791 0.950 . S
H766 C793 0.950 . S
H767 C796 0.950 . S
H768 C797 0.950 . S
H769 C799 0.950 . S
H770 C800 0.950 . S
C771 H753 0.951 . S
C771 C772 1.366 . S
C771 C773 1.388 . S
C772 C771 1.366 . S
C772 C776 1.385 . S
C773 H754 0.951 . S
C773 C771 1.388 . S
C773 C774 1.366 . S
C774 C773 1.366 . S
C774 C775 1.414 . S
C774 C777 1.499 . S
C775 H755 0.950 . S
C775 C774 1.414 . S
C775 C776 1.374 . S
C776 H756 0.950 . S
C776 C772 1.385 . S
C776 C775 1.374 . S
C777 C774 1.499 . S
C777 C778 1.373 . S
C777 C779 1.389 . S
C778 H757 0.950 . S
C778 C777 1.373 . S
C778 C794 1.377 . S
C779 C777 1.389 . S
C779 C780 1.524 . S
C779 C793 1.377 . S
C780 C779 1.524 . S
C780 C781 1.397 . S
C780 C785 1.363 . S
C781 H758 0.950 . S
C781 C780 1.397 . S
C781 C782 1.334 . S
C782 H759 0.950 . S
C782 C781 1.334 . S
C782 C783 1.287 . S
C783 C782 1.287 . S
C783 C784 1.524 . S
C783 H802 0.913 . S
C784 H760 0.950 . S
C784 C783 1.524 . S
C784 C785 1.415 . S
C785 H761 0.950 . S
C785 C780 1.363 . S
C785 C784 1.415 . S
C786 H762 0.951 . S
C786 C787 1.366 . S
C786 C788 1.388 . S
C787 C786 1.366 . S
C787 C791 1.385 . S
C788 H763 0.951 . S
C788 C786 1.388 . S
C788 C789 1.366 . S
C789 C788 1.366 . S
C789 C790 1.414 . S
C789 C792 1.499 . S
C790 H764 0.950 . S
C790 C789 1.414 . S
C790 C791 1.374 . S
C791 H765 0.950 . S
C791 C787 1.385 . S
C791 C790 1.374 . S
C792 C789 1.499 . S
C792 C793 1.373 . S
C792 C794 1.389 . S
C793 H766 0.950 . S
C793 C779 1.377 . S
C793 C792 1.373 . S
C794 C778 1.377 . S
C794 C792 1.389 . S
C794 C795 1.524 . S
C795 C794 1.524 . S
C795 C796 1.397 . S
C795 C800 1.363 . S
C796 H767 0.950 . S
C796 C795 1.397 . S
C796 C797 1.334 . S
C797 H768 0.950 . S
C797 C796 1.334 . S
C797 C798 1.287 . S
C798 C797 1.287 . S
C798 C799 1.524 . S
C798 H801 0.999 . S
C799 H769 0.950 . S
C799 C798 1.524 . S
C799 C800 1.415 . S
C800 H770 0.950 . S
C800 C795 1.363 . S
C800 C799 1.415 . S
H801 C798 0.999 . S
H802 C783 0.913 . S
H803 C821 0.951 . S
H804 C823 0.951 . S
H805 C825 0.950 . S
H806 C826 0.950 . S
H807 C828 0.950 . S
H808 C831 0.950 . S
H809 C832 0.950 . S
H810 C834 0.950 . S
H811 C835 0.950 . S
H812 C836 0.951 . S
H813 C838 0.951 . S
H814 C840 0.950 . S
H815 C841 0.950 . S
H816 C843 0.950 . S
H817 C846 0.950 . S
H818 C847 0.950 . S
H819 C849 0.950 . S
H820 C850 0.950 . S
C821 H803 0.951 . S
C821 C822 1.366 . S
C821 C823 1.388 . S
C822 C821 1.366 . S
C822 C826 1.385 . S
C823 H804 0.951 . S
C823 C821 1.388 . S
C823 C824 1.366 . S
C824 C823 1.366 . S
C824 C825 1.414 . S
C824 C827 1.499 . S
C825 H805 0.950 . S
C825 C824 1.414 . S
C825 C826 1.374 . S
C826 H806 0.950 . S
C826 C822 1.385 . S
C826 C825 1.374 . S
C827 C824 1.499 . S
C827 C828 1.373 . S
C827 C829 1.389 . S
C828 H807 0.950 . S
C828 C827 1.373 . S
C828 C844 1.377 . S
C829 C827 1.389 . S
C829 C830 1.524 . S
C829 C843 1.377 . S
C830 C829 1.524 . S
C830 C831 1.397 . S
C830 C835 1.363 . S
C831 H808 0.950 . S
C831 C830 1.397 . S
C831 C832 1.334 . S
C832 H809 0.950 . S
C832 C831 1.334 . S
C832 C833 1.287 . S
C833 C832 1.287 . S
C833 C834 1.524 . S
C833 H852 0.913 . S
C834 H810 0.950 . S
C834 C833 1.524 . S
C834 C835 1.415 . S
C835 H811 0.950 . S
C835 C830 1.363 . S
C835 C834 1.415 . S
C836 H812 0.951 . S
C836 C837 1.366 . S
C836 C838 1.388 . S
C837 C836 1.366 . S
C837 C841 1.385 . S
C838 H813 0.951 . S
C838 C836 1.388 . S
C838 C839 1.366 . S
C839 C838 1.366 . S
C839 C840 1.414 . S
C839 C842 1.499 . S
C840 H814 0.950 . S
C840 C839 1.414 . S
C840 C841 1.374 . S
C841 H815 0.950 . S
C841 C837 1.385 . S
C841 C840 1.374 . S
C842 C839 1.499 . S
C842 C843 1.373 . S
C842 C844 1.389 . S
C843 H816 0.950 . S
C843 C829 1.377 . S
C843 C842 1.373 . S
C844 C828 1.377 . S
C844 C842 1.389 . S
C844 C845 1.524 . S
C845 C844 1.524 . S
C845 C846 1.397 . S
C845 C850 1.363 . S
C846 H817 0.950 . S
C846 C845 1.397 . S
C846 C847 1.334 . S
C847 H818 0.950 . S
C847 C846 1.334 . S
C847 C848 1.287 . S
C848 C847 1.287 . S
C848 C849 1.524 . S
C848 H851 0.999 . S
C849 H819 0.950 . S
C849 C848 1.524 . S
C849 C850 1.415 . S
C850 H820 0.950 . S
C850 C845 1.363 . S
C850 C849 1.415 . S
H851 C848 0.999 . S
H852 C833 0.913 . S
H853 C871 0.951 . S
H854 C873 0.951 . S
H855 C875 0.950 . S
H856 C876 0.950 . S
H857 C878 0.950 . S
H858 C881 0.950 . S
H859 C882 0.950 . S
H860 C884 0.950 . S
H861 C885 0.950 . S
H862 C886 0.951 . S
H863 C888 0.951 . S
H864 C890 0.950 . S
H865 C891 0.950 . S
H866 C893 0.950 . S
H867 C896 0.950 . S
H868 C897 0.950 . S
H869 C899 0.950 . S
H870 C900 0.950 . S
C871 H853 0.951 . S
C871 C872 1.366 . S
C871 C873 1.388 . S
C872 C871 1.366 . S
C872 C876 1.385 . S
C873 H854 0.951 . S
C873 C871 1.388 . S
C873 C874 1.366 . S
C874 C873 1.366 . S
C874 C875 1.414 . S
C874 C877 1.499 . S
C875 H855 0.950 . S
C875 C874 1.414 . S
C875 C876 1.374 . S
C876 H856 0.950 . S
C876 C872 1.385 . S
C876 C875 1.374 . S
C877 C874 1.499 . S
C877 C878 1.373 . S
C877 C879 1.389 . S
C878 H857 0.950 . S
C878 C877 1.373 . S
C878 C894 1.377 . S
C879 C877 1.389 . S
C879 C880 1.524 . S
C879 C893 1.377 . S
C880 C879 1.524 . S
C880 C881 1.397 . S
C880 C885 1.363 . S
C881 H858 0.950 . S
C881 C880 1.397 . S
C881 C882 1.334 . S
C882 H859 0.950 . S
C882 C881 1.334 . S
C882 C883 1.287 . S
C883 C882 1.287 . S
C883 C884 1.524 . S
C883 H902 0.913 . S
C884 H860 0.950 . S
C884 C883 1.524 . S
C884 C885 1.415 . S
C885 H861 0.950 . S
C885 C880 1.363 . S
C885 C884 1.415 . S
C886 H862 0.951 . S
C886 C887 1.366 . S
C886 C888 1.388 . S
C887 C886 1.366 . S
C887 C891 1.385 . S
C888 H863 0.951 . S
C888 C886 1.388 . S
C888 C889 1.366 . S
C889 C888 1.366 . S
C889 C890 1.414 . S
C889 C892 1.499 . S
C890 H864 0.950 . S
C890 C889 1.414 . S
C890 C891 1.374 . S
C891 H865 0.950 . S
C891 C887 1.385 . S
C891 C890 1.374 . S
C892 C889 1.499 . S
C892 C893 1.373 . S
C892 C894 1.389 . S
C893 H866 0.950 . S
C893 C879 1.377 . S
C893 C892 1.373 . S
C894 C878 1.377 . S
C894 C892 1.389 . S
C894 C895 1.524 . S
C895 C894 1.524 . S
C895 C896 1.397 . S
C895 C900 1.363 . S
C896 H867 0.950 . S
C896 C895 1.397 . S
C896 C897 1.334 . S
C897 H868 0.950 . S
C897 C896 1.334 . S
C897 C898 1.287 . S
C898 C897 1.287 . S
C898 C899 1.524 . S
C898 H901 0.999 . S
C899 H869 0.950 . S
C899 C898 1.524 . S
C899 C900 1.415 . S
C900 H870 0.950 . S
C900 C895 1.363 . S
C900 C899 1.415 . S
H901 C898 0.999 . S
H902 C883 0.913 . S
H903 C921 0.951 . S
H904 C923 0.951 . S
H905 C925 0.950 . S
H906 C926 0.950 . S
H907 C928 0.950 . S
H908 C931 0.950 . S
H909 C932 0.950 . S
H910 C934 0.950 . S
H911 C935 0.950 . S
H912 C936 0.951 . S
H913 C938 0.951 . S
H914 C940 0.950 . S
H915 C941 0.950 . S
H916 C943 0.950 . S
H917 C946 0.950 . S
H918 C947 0.950 . S
H919 C949 0.950 . S
H920 C950 0.950 . S
C921 H903 0.951 . S
C921 C922 1.366 . S
C921 C923 1.388 . S
C922 C921 1.366 . S
C922 C926 1.385 . S
C923 H904 0.951 . S
C923 C921 1.388 . S
C923 C924 1.366 . S
C924 C923 1.366 . S
C924 C925 1.414 . S
C924 C927 1.499 . S
C925 H905 0.950 . S
C925 C924 1.414 . S
C925 C926 1.374 . S
C926 H906 0.950 . S
C926 C922 1.385 . S
C926 C925 1.374 . S
C927 C924 1.499 . S
C927 C928 1.373 . S
C927 C929 1.389 1_455 S
C928 H907 0.950 . S
C928 C927 1.373 . S
C928 C944 1.377 . S
C929 C927 1.389 1_655 S
C929 C930 1.524 . S
C929 C943 1.377 . S
C930 C929 1.524 . S
C930 C931 1.397 . S
C930 C935 1.363 . S
C931 H908 0.950 . S
C931 C930 1.397 . S
C931 C932 1.334 . S
C932 H909 0.950 . S
C932 C931 1.334 . S
C932 C933 1.287 . S
C933 C932 1.287 . S
C933 C934 1.524 . S
C933 H952 0.913 . S
C934 H910 0.950 . S
C934 C933 1.524 . S
C934 C935 1.415 . S
C935 H911 0.950 . S
C935 C930 1.363 . S
C935 C934 1.415 . S
C936 H912 0.951 . S
C936 C937 1.366 . S
C936 C938 1.388 1_556 S
C937 C936 1.366 . S
C937 C941 1.385 . S
C938 H913 0.951 . S
C938 C936 1.388 1_554 S
C938 C939 1.366 . S
C939 C938 1.366 . S
C939 C940 1.414 . S
C939 C942 1.499 . S
C940 H914 0.950 . S
C940 C939 1.414 . S
C940 C941 1.374 1_554 S
C941 H915 0.950 . S
C941 C937 1.385 . S
C941 C940 1.374 1_556 S
C942 C939 1.499 . S
C942 C943 1.373 1_455 S
C942 C944 1.389 . S
C943 H916 0.950 . S
C943 C929 1.377 . S
C943 C942 1.373 1_655 S
C944 C928 1.377 . S
C944 C942 1.389 . S
C944 C945 1.524 . S
C945 C944 1.524 . S
C945 C946 1.397 . S
C945 C950 1.363 . S
C946 H917 0.950 . S
C946 C945 1.397 . S
C946 C947 1.334 . S
C947 H918 0.950 . S
C947 C946 1.334 . S
C947 C948 1.287 . S
C948 C947 1.287 . S
C948 C949 1.524 . S
C948 H951 0.999 . S
C949 H919 0.950 . S
C949 C948 1.524 . S
C949 C950 1.415 . S
C950 H920 0.950 . S
C950 C945 1.363 . S
C950 C949 1.415 . S
H951 C948 0.999 . S
H952 C933 0.913 . S
H953 C971 0.951 . S
H954 C973 0.951 . S
H955 C975 0.950 . S
H956 C976 0.950 . S
H957 C978 0.950 . S
H958 C981 0.950 . S
H959 C982 0.950 . S
H960 C984 0.950 . S
H961 C985 0.950 . S
H962 C986 0.951 . S
H963 C988 0.951 . S
H964 C990 0.950 . S
H965 C991 0.950 . S
H966 C993 0.950 . S
H967 C996 0.950 . S
H968 C997 0.950 . S
H969 C999 0.950 . S
H970 C1000 0.950 . S
C971 H953 0.951 . S
C971 C972 1.366 1_565 S
C971 C973 1.388 . S
C972 C971 1.366 1_545 S
C972 C976 1.385 . S
C973 H954 0.951 . S
C973 C971 1.388 . S
C973 C974 1.366 1_565 S
C974 C973 1.366 1_545 S
C974 C975 1.414 . S
C974 C977 1.499 . S
C975 H955 0.950 . S
C975 C974 1.414 . S
C975 C976 1.374 . S
C976 H956 0.950 . S
C976 C972 1.385 . S
C976 C975 1.374 . S
C977 C974 1.499 . S
C977 C978 1.373 . S
C977 C979 1.389 1_545 S
C978 H957 0.950 . S
C978 C977 1.373 . S
C978 C994 1.377 . S
C979 C977 1.389 1_565 S
C979 C980 1.524 . S
C979 C993 1.377 . S
C980 C979 1.524 . S
C980 C981 1.397 . S
C980 C985 1.363 . S
C981 H958 0.950 . S
C981 C980 1.397 . S
C981 C982 1.334 . S
C982 H959 0.950 . S
C982 C981 1.334 . S
C982 C983 1.287 . S
C983 C982 1.287 . S
C983 C984 1.524 . S
C983 H1002 0.913 . S
C984 H960 0.950 . S
C984 C983 1.524 . S
C984 C985 1.415 . S
C985 H961 0.950 . S
C985 C980 1.363 . S
C985 C984 1.415 . S
C986 H962 0.951 . S
C986 C987 1.366 . S
C986 C988 1.388 . S
C987 C986 1.366 . S
C987 C991 1.385 1_545 S
C988 H963 0.951 . S
C988 C986 1.388 . S
C988 C989 1.366 . S
C989 C988 1.366 . S
C989 C990 1.414 1_545 S
C989 C992 1.499 . S
C990 H964 0.950 . S
C990 C989 1.414 1_565 S
C990 C991 1.374 . S
C991 H965 0.950 . S
C991 C987 1.385 1_565 S
C991 C990 1.374 . S
C992 C989 1.499 . S
C992 C993 1.373 1_545 S
C992 C994 1.389 . S
C993 H966 0.950 . S
C993 C979 1.377 . S
C993 C992 1.373 1_565 S
C994 C978 1.377 . S
C994 C992 1.389 . S
C994 C995 1.524 . S
C995 C994 1.524 . S
C995 C996 1.397 . S
C995 C1000 1.363 . S
C996 H967 0.950 . S
C996 C995 1.397 . S
C996 C997 1.334 . S
C997 H968 0.950 . S
C997 C996 1.334 . S
C997 C998 1.287 . S
C998 C997 1.287 . S
C998 C999 1.524 . S
C998 H1001 0.999 . S
C999 H969 0.950 . S
C999 C998 1.524 . S
C999 C1000 1.415 . S
C1000 H970 0.950 . S
C1000 C995 1.363 . S
C1000 C999 1.415 . S
H1001 C998 0.999 . S
H1002 C983 0.913 . S
H1003 C1021 0.951 . S
H1004 C1023 0.951 . S
H1005 C1025 0.950 . S
H1006 C1026 0.950 . S
H1007 C1028 0.950 . S
H1008 C1031 0.950 . S
H1009 C1032 0.950 . S
H1010 C1034 0.950 . S
H1011 C1035 0.950 . S
H1012 C1036 0.951 . S
H1013 C1038 0.951 . S
H1014 C1040 0.950 . S
H1015 C1041 0.950 . S
H1016 C1043 0.950 . S
H1017 C1046 0.950 . S
H1018 C1047 0.950 . S
H1019 C1049 0.950 . S
H1020 C1050 0.950 . S
C1021 H1003 0.951 . S
C1021 C1022 1.366 . S
C1021 C1023 1.388 . S
C1022 C1021 1.366 . S
C1022 C1026 1.385 . S
C1023 H1004 0.951 . S
C1023 C1021 1.388 . S
C1023 C1024 1.366 . S
C1024 C1023 1.366 . S
C1024 C1025 1.414 . S
C1024 C1027 1.499 . S
C1025 H1005 0.950 . S
C1025 C1024 1.414 . S
C1025 C1026 1.374 . S
C1026 H1006 0.950 . S
C1026 C1022 1.385 . S
C1026 C1025 1.374 . S
C1027 C1024 1.499 . S
C1027 C1028 1.373 . S
C1027 C1029 1.389 . S
C1028 H1007 0.950 . S
C1028 C1027 1.373 . S
C1028 C1044 1.377 . S
C1029 C1027 1.389 . S
C1029 C1030 1.524 . S
C1029 C1043 1.377 . S
C1030 C1029 1.524 . S
C1030 C1031 1.397 . S
C1030 C1035 1.363 . S
C1031 H1008 0.950 . S
C1031 C1030 1.397 . S
C1031 C1032 1.334 . S
C1032 H1009 0.950 . S
C1032 C1031 1.334 . S
C1032 C1033 1.287 . S
C1033 C1032 1.287 . S
C1033 C1034 1.524 . S
C1033 H1052 0.913 . S
C1034 H1010 0.950 . S
C1034 C1033 1.524 . S
C1034 C1035 1.415 . S
C1035 H1011 0.950 . S
C1035 C1030 1.363 . S
C1035 C1034 1.415 . S
C1036 H1012 0.951 . S
C1036 C1037 1.366 . S
C1036 C1038 1.388 . S
C1037 C1036 1.366 . S
C1037 C1041 1.385 . S
C1038 H1013 0.951 . S
C1038 C1036 1.388 . S
C1038 C1039 1.366 . S
C1039 C1038 1.366 . S
C1039 C1040 1.414 . S
C1039 C1042 1.499 . S
C1040 H1014 0.950 . S
C1040 C1039 1.414 . S
C1040 C1041 1.374 . S
C1041 H1015 0.950 . S
C1041 C1037 1.385 . S
C1041 C1040 1.374 . S
C1042 C1039 1.499 . S
C1042 C1043 1.373 . S
C1042 C1044 1.389 . S
C1043 H1016 0.950 . S
C1043 C1029 1.377 . S
C1043 C1042 1.373 . S
C1044 C1028 1.377 . S
C1044 C1042 1.389 . S
C1044 C1045 1.524 . S
C1045 C1044 1.524 . S
C1045 C1046 1.397 . S
C1045 C1050 1.363 . S
C1046 H1017 0.950 . S
C1046 C1045 1.397 . S
C1046 C1047 1.334 . S
C1047 H1018 0.950 . S
C1047 C1046 1.334 . S
C1047 C1048 1.287 . S
C1048 C1047 1.287 . S
C1048 C1049 1.524 . S
C1048 H1051 0.999 . S
C1049 H1019 0.950 . S
C1049 C1048 1.524 . S
C1049 C1050 1.415 . S
C1050 H1020 0.950 . S
C1050 C1045 1.363 . S
C1050 C1049 1.415 . S
H1051 C1048 0.999 . S
H1052 C1033 0.913 . S
H1053 C1071 0.951 . S
H1054 C1073 0.951 . S
H1055 C1075 0.950 . S
H1056 C1076 0.950 . S
H1057 C1078 0.950 . S
H1058 C1081 0.950 . S
H1059 C1082 0.950 . S
H1060 C1084 0.950 . S
H1061 C1085 0.950 . S
H1062 C1086 0.951 . S
H1063 C1088 0.951 . S
H1064 C1090 0.950 . S
H1065 C1091 0.950 . S
H1066 C1093 0.950 . S
H1067 C1096 0.950 . S
H1068 C1097 0.950 . S
H1069 C1099 0.950 . S
H1070 C1100 0.950 . S
C1071 H1053 0.951 . S
C1071 C1072 1.366 . S
C1071 C1073 1.388 . S
C1072 C1071 1.366 . S
C1072 C1076 1.385 1_545 S
C1073 H1054 0.951 . S
C1073 C1071 1.388 . S
C1073 C1074 1.366 . S
C1074 C1073 1.366 . S
C1074 C1075 1.414 1_545 S
C1074 C1077 1.499 . S
C1075 H1055 0.950 . S
C1075 C1074 1.414 1_565 S
C1075 C1076 1.374 . S
C1076 H1056 0.950 . S
C1076 C1072 1.385 1_565 S
C1076 C1075 1.374 . S
C1077 C1074 1.499 . S
C1077 C1078 1.373 1_545 S
C1077 C1079 1.389 . S
C1078 H1057 0.950 . S
C1078 C1077 1.373 1_565 S
C1078 C1094 1.377 . S
C1079 C1077 1.389 . S
C1079 C1080 1.524 . S
C1079 C1093 1.377 . S
C1080 C1079 1.524 . S
C1080 C1081 1.397 . S
C1080 C1085 1.363 . S
C1081 H1058 0.950 . S
C1081 C1080 1.397 . S
C1081 C1082 1.334 . S
C1082 H1059 0.950 . S
C1082 C1081 1.334 . S
C1082 C1083 1.287 . S
C1083 C1082 1.287 . S
C1083 C1084 1.524 . S
C1083 H1102 0.913 . S
C1084 H1060 0.950 . S
C1084 C1083 1.524 . S
C1084 C1085 1.415 . S
C1085 H1061 0.950 . S
C1085 C1080 1.363 . S
C1085 C1084 1.415 . S
C1086 H1062 0.951 . S
C1086 C1087 1.366 1_565 S
C1086 C1088 1.388 . S
C1087 C1086 1.366 1_545 S
C1087 C1091 1.385 . S
C1088 H1063 0.951 . S
C1088 C1086 1.388 . S
C1088 C1089 1.366 1_565 S
C1089 C1088 1.366 1_545 S
C1089 C1090 1.414 . S
C1089 C1092 1.499 . S
C1090 H1064 0.950 . S
C1090 C1089 1.414 . S
C1090 C1091 1.374 . S
C1091 H1065 0.950 . S
C1091 C1087 1.385 . S
C1091 C1090 1.374 . S
C1092 C1089 1.499 . S
C1092 C1093 1.373 . S
C1092 C1094 1.389 1_545 S
C1093 H1066 0.950 . S
C1093 C1079 1.377 . S
C1093 C1092 1.373 . S
C1094 C1078 1.377 . S
C1094 C1092 1.389 1_565 S
C1094 C1095 1.524 . S
C1095 C1094 1.524 . S
C1095 C1096 1.397 . S
C1095 C1100 1.363 . S
C1096 H1067 0.950 . S
C1096 C1095 1.397 . S
C1096 C1097 1.334 . S
C1097 H1068 0.950 . S
C1097 C1096 1.334 . S
C1097 C1098 1.287 . S
C1098 C1097 1.287 . S
C1098 C1099 1.524 . S
C1098 H1101 0.999 . S
C1099 H1069 0.950 . S
C1099 C1098 1.524 . S
C1099 C1100 1.415 . S
C1100 H1070 0.950 . S
C1100 C1095 1.363 . S
C1100 C1099 1.415 . S
H1101 C1098 0.999 . S
H1102 C1083 0.913 . S
H1103 C1121 0.951 . S
H1104 C1123 0.951 . S
H1105 C1125 0.950 . S
H1106 C1126 0.950 . S
H1107 C1128 0.950 . S
H1108 C1131 0.950 . S
H1109 C1132 0.950 . S
H1110 C1134 0.950 . S
H1111 C1135 0.950 . S
H1112 C1136 0.951 . S
H1113 C1138 0.951 . S
H1114 C1140 0.950 . S
H1115 C1141 0.950 . S
H1116 C1143 0.950 . S
H1117 C1146 0.950 . S
H1118 C1147 0.950 . S
H1119 C1149 0.950 . S
H1120 C1150 0.950 . S
C1121 H1103 0.951 . S
C1121 C1122 1.366 . S
C1121 C1123 1.388 . S
C1122 C1121 1.366 . S
C1122 C1126 1.385 . S
C1123 H1104 0.951 . S
C1123 C1121 1.388 . S
C1123 C1124 1.366 . S
C1124 C1123 1.366 . S
C1124 C1125 1.414 . S
C1124 C1127 1.499 . S
C1125 H1105 0.950 . S
C1125 C1124 1.414 . S
C1125 C1126 1.374 . S
C1126 H1106 0.950 . S
C1126 C1122 1.385 . S
C1126 C1125 1.374 . S
C1127 C1124 1.499 . S
C1127 C1128 1.373 . S
C1127 C1129 1.389 . S
C1128 H1107 0.950 . S
C1128 C1127 1.373 . S
C1128 C1144 1.377 . S
C1129 C1127 1.389 . S
C1129 C1130 1.524 . S
C1129 C1143 1.377 . S
C1130 C1129 1.524 . S
C1130 C1131 1.397 . S
C1130 C1135 1.363 . S
C1131 H1108 0.950 . S
C1131 C1130 1.397 . S
C1131 C1132 1.334 . S
C1132 H1109 0.950 . S
C1132 C1131 1.334 . S
C1132 C1133 1.287 . S
C1133 C1132 1.287 . S
C1133 C1134 1.524 . S
C1133 H1152 0.913 . S
C1134 H1110 0.950 . S
C1134 C1133 1.524 . S
C1134 C1135 1.415 . S
C1135 H1111 0.950 . S
C1135 C1130 1.363 . S
C1135 C1134 1.415 . S
C1136 H1112 0.951 . S
C1136 C1137 1.366 . S
C1136 C1138 1.388 1_554 S
C1137 C1136 1.366 . S
C1137 C1141 1.385 . S
C1138 H1113 0.951 . S
C1138 C1136 1.388 1_556 S
C1138 C1139 1.366 . S
C1139 C1138 1.366 . S
C1139 C1140 1.414 . S
C1139 C1142 1.499 . S
C1140 H1114 0.950 . S
C1140 C1139 1.414 . S
C1140 C1141 1.374 1_556 S
C1141 H1115 0.950 . S
C1141 C1137 1.385 . S
C1141 C1140 1.374 1_554 S
C1142 C1139 1.499 . S
C1142 C1143 1.373 . S
C1142 C1144 1.389 . S
C1143 H1116 0.950 . S
C1143 C1129 1.377 . S
C1143 C1142 1.373 . S
C1144 C1128 1.377 . S
C1144 C1142 1.389 . S
C1144 C1145 1.524 . S
C1145 C1144 1.524 . S
C1145 C1146 1.397 . S
C1145 C1150 1.363 . S
C1146 H1117 0.950 . S
C1146 C1145 1.397 . S
C1146 C1147 1.334 . S
C1147 H1118 0.950 . S
C1147 C1146 1.334 . S
C1147 C1148 1.287 . S
C1148 C1147 1.287 . S
C1148 C1149 1.524 . S
C1148 H1151 0.999 . S
C1149 H1119 0.950 . S
C1149 C1148 1.524 . S
C1149 C1150 1.415 . S
C1150 H1120 0.950 . S
C1150 C1145 1.363 . S
C1150 C1149 1.415 . S
H1151 C1148 0.999 . S
H1152 C1133 0.913 . S
H1153 C1171 0.951 . S
H1154 C1173 0.951 . S
H1155 C1175 0.950 . S
H1156 C1176 0.950 . S
H1157 C1178 0.950 . S
H1158 C1181 0.950 . S
H1159 C1182 0.950 . S
H1160 C1184 0.950 . S
H1161 C1185 0.950 1_455 S
H1162 C1186 0.951 . S
H1163 C1188 0.951 . S
H1164 C1190 0.950 . S
H1165 C1191 0.950 . S
H1166 C1193 0.950 . S
H1167 C1196 0.950 . S
H1168 C1197 0.950 . S
H1169 C1199 0.950 . S
H1170 C1200 0.950 . S
C1171 H1153 0.951 . S
C1171 C1172 1.366 . S
C1171 C1173 1.388 . S
C1172 C1171 1.366 . S
C1172 C1176 1.385 1_455 S
C1173 H1154 0.951 . S
C1173 C1171 1.388 . S
C1173 C1174 1.366 . S
C1174 C1173 1.366 . S
C1174 C1175 1.414 1_455 S
C1174 C1177 1.499 . S
C1175 H1155 0.950 . S
C1175 C1174 1.414 1_655 S
C1175 C1176 1.374 . S
C1176 H1156 0.950 . S
C1176 C1172 1.385 1_655 S
C1176 C1175 1.374 . S
C1177 C1174 1.499 . S
C1177 C1178 1.373 . S
C1177 C1179 1.389 1_455 S
C1178 H1157 0.950 . S
C1178 C1177 1.373 . S
C1178 C1194 1.377 . S
C1179 C1177 1.389 1_655 S
C1179 C1180 1.524 . S
C1179 C1193 1.377 . S
C1180 C1179 1.524 . S
C1180 C1181 1.397 . S
C1180 C1185 1.363 . S
C1181 H1158 0.950 . S
C1181 C1180 1.397 . S
C1181 C1182 1.334 . S
C1182 H1159 0.950 . S
C1182 C1181 1.334 . S
C1182 C1183 1.287 . S
C1183 C1182 1.287 . S
C1183 C1184 1.524 . S
C1183 H1202 0.913 . S
C1184 H1160 0.950 . S
C1184 C1183 1.524 . S
C1184 C1185 1.415 . S
C1185 H1161 0.950 1_655 S
C1185 C1180 1.363 . S
C1185 C1184 1.415 . S
C1186 H1162 0.951 . S
C1186 C1187 1.366 1_655 S
C1186 C1188 1.388 . S
C1187 C1186 1.366 1_455 S
C1187 C1191 1.385 . S
C1188 H1163 0.951 . S
C1188 C1186 1.388 . S
C1188 C1189 1.366 1_655 S
C1189 C1188 1.366 1_455 S
C1189 C1190 1.414 . S
C1189 C1192 1.499 . S
C1190 H1164 0.950 . S
C1190 C1189 1.414 . S
C1190 C1191 1.374 . S
C1191 H1165 0.950 . S
C1191 C1187 1.385 . S
C1191 C1190 1.374 . S
C1192 C1189 1.499 . S
C1192 C1193 1.373 1_455 S
C1192 C1194 1.389 . S
C1193 H1166 0.950 . S
C1193 C1179 1.377 . S
C1193 C1192 1.373 1_655 S
C1194 C1178 1.377 . S
C1194 C1192 1.389 . S
C1194 C1195 1.524 . S
C1195 C1194 1.524 . S
C1195 C1196 1.397 . S
C1195 C1200 1.363 . S
C1196 H1167 0.950 . S
C1196 C1195 1.397 . S
C1196 C1197 1.334 . S
C1197 H1168 0.950 . S
C1197 C1196 1.334 . S
C1197 C1198 1.287 . S
C1198 C1197 1.287 . S
C1198 C1199 1.524 . S
C1198 H1201 0.999 . S
C1199 H1169 0.950 . S
C1199 C1198 1.524 . S
C1199 C1200 1.415 . S
C1200 H1170 0.950 . S
C1200 C1195 1.363 . S
C1200 C1199 1.415 . S
H1201 C1198 0.999 . S
H1202 C1183 0.913 . S
C322 C20 1.076 . S
C337 C280 1.097 . S
C372 C41 1.123 . S
C387 C207 1.118 . S
C422 C64 1.145 . S
C437 C246 1.139 . S
C472 C19 1.099 . S
C487 C285 1.130 . S
C537 C202 1.107 . S
C522 C44 1.108 . S
C587 C241 1.098 . S
C572 C67 1.099 . S
C622 C43 1.062 . S
C637 C129 1.086 . S
C672 C66 1.074 . S
C687 C163 1.096 . S
C722 C21 1.108 . S
C737 C85 1.107 . S
C787 C124 1.127 . S
C772 C42 1.100 . S
C837 C168 1.130 . S
C822 C65 1.100 . S
C872 C18 1.125 . S
C887 C90 1.120 . S
C937 C148 1.452 . S
C922 C17 1.452 . S
C972 C39 1.447 . S
C987 C70 1.447 . S
C1022 C62 1.468 . S
C1037 C109 1.467 . S
C1087 C226 1.431 . S
C1072 C40 1.430 . S
C1137 C265 1.452 . S
C1122 C63 1.452 . S
C1172 C16 1.447 . S
C1187 C187 1.447 . S
