# Generated by pormake.
# Topology llk, (3,12)-cn, num edge types: 1
# Building blocks:
#     Node 0, Type 0, BuildingBlock: VETTIZ_charged_linker_0, # of connection points: 3
#     Node 1, Type 0, BuildingBlock: VETTIZ_charged_linker_0, # of connection points: 3
#     Node 2, Type 0, BuildingBlock: VETTIZ_charged_linker_0, # of connection points: 3
#     Node 3, Type 0, BuildingBlock: VETTIZ_charged_linker_0, # of connection points: 3
#     Node 4, Type 0, BuildingBlock: VETTIZ_charged_linker_0, # of connection points: 3
#     Node 5, Type 0, BuildingBlock: VETTIZ_charged_linker_0, # of connection points: 3
#     Node 6, Type 0, BuildingBlock: VETTIZ_charged_linker_0, # of connection points: 3
#     Node 7, Type 0, BuildingBlock: VETTIZ_charged_linker_0, # of connection points: 3
#     Node 8, Type 0, BuildingBlock: VETTIZ_charged_linker_0, # of connection points: 3
#     Node 9, Type 0, BuildingBlock: VETTIZ_charged_linker_0, # of connection points: 3
#     Node 10, Type 0, BuildingBlock: VETTIZ_charged_linker_0, # of connection points: 3
#     Node 11, Type 0, BuildingBlock: VETTIZ_charged_linker_0, # of connection points: 3
#     Node 12, Type 0, BuildingBlock: VETTIZ_charged_linker_0, # of connection points: 3
#     Node 13, Type 0, BuildingBlock: VETTIZ_charged_linker_0, # of connection points: 3
#     Node 14, Type 0, BuildingBlock: VETTIZ_charged_linker_0, # of connection points: 3
#     Node 15, Type 0, BuildingBlock: VETTIZ_charged_linker_0, # of connection points: 3
#     Node 16, Type 0, BuildingBlock: VETTIZ_charged_linker_0, # of connection points: 3
#     Node 17, Type 0, BuildingBlock: VETTIZ_charged_linker_0, # of connection points: 3
#     Node 18, Type 0, BuildingBlock: VETTIZ_charged_linker_0, # of connection points: 3
#     Node 19, Type 0, BuildingBlock: VETTIZ_charged_linker_0, # of connection points: 3
#     Node 20, Type 0, BuildingBlock: VETTIZ_charged_linker_0, # of connection points: 3
#     Node 21, Type 0, BuildingBlock: VETTIZ_charged_linker_0, # of connection points: 3
#     Node 22, Type 0, BuildingBlock: VETTIZ_charged_linker_0, # of connection points: 3
#     Node 23, Type 0, BuildingBlock: VETTIZ_charged_linker_0, # of connection points: 3
#     Node 24, Type 1, BuildingBlock: EZIPEK_clean_sbu_0, # of connection points: 12
#     Node 25, Type 1, BuildingBlock: EZIPEK_clean_sbu_0, # of connection points: 12
#     Node 26, Type 1, BuildingBlock: EZIPEK_clean_sbu_0, # of connection points: 12
#     Node 27, Type 1, BuildingBlock: EZIPEK_clean_sbu_0, # of connection points: 12
#     Node 28, Type 1, BuildingBlock: EZIPEK_clean_sbu_0, # of connection points: 12
#     Node 29, Type 1, BuildingBlock: EZIPEK_clean_sbu_0, # of connection points: 12
#     Edge 30, Type (0, 1), None
#     Edge 31, Type (0, 1), None
#     Edge 32, Type (0, 1), None
#     Edge 33, Type (0, 1), None
#     Edge 34, Type (0, 1), None
#     Edge 35, Type (0, 1), None
#     Edge 36, Type (0, 1), None
#     Edge 37, Type (0, 1), None
#     Edge 38, Type (0, 1), None
#     Edge 39, Type (0, 1), None
#     Edge 40, Type (0, 1), None
#     Edge 41, Type (0, 1), None
#     Edge 42, Type (0, 1), None
#     Edge 43, Type (0, 1), None
#     Edge 44, Type (0, 1), None
#     Edge 45, Type (0, 1), None
#     Edge 46, Type (0, 1), None
#     Edge 47, Type (0, 1), None
#     Edge 48, Type (0, 1), None
#     Edge 49, Type (0, 1), None
#     Edge 50, Type (0, 1), None
#     Edge 51, Type (0, 1), None
#     Edge 52, Type (0, 1), None
#     Edge 53, Type (0, 1), None
#     Edge 54, Type (0, 1), None
#     Edge 55, Type (0, 1), None
#     Edge 56, Type (0, 1), None
#     Edge 57, Type (0, 1), None
#     Edge 58, Type (0, 1), None
#     Edge 59, Type (0, 1), None
#     Edge 60, Type (0, 1), None
#     Edge 61, Type (0, 1), None
#     Edge 62, Type (0, 1), None
#     Edge 63, Type (0, 1), None
#     Edge 64, Type (0, 1), None
#     Edge 65, Type (0, 1), None
#     Edge 66, Type (0, 1), None
#     Edge 67, Type (0, 1), None
#     Edge 68, Type (0, 1), None
#     Edge 69, Type (0, 1), None
#     Edge 70, Type (0, 1), None
#     Edge 71, Type (0, 1), None
#     Edge 72, Type (0, 1), None
#     Edge 73, Type (0, 1), None
#     Edge 74, Type (0, 1), None
#     Edge 75, Type (0, 1), None
#     Edge 76, Type (0, 1), None
#     Edge 77, Type (0, 1), None
#     Edge 78, Type (0, 1), None
#     Edge 79, Type (0, 1), None
#     Edge 80, Type (0, 1), None
#     Edge 81, Type (0, 1), None
#     Edge 82, Type (0, 1), None
#     Edge 83, Type (0, 1), None
#     Edge 84, Type (0, 1), None
#     Edge 85, Type (0, 1), None
#     Edge 86, Type (0, 1), None
#     Edge 87, Type (0, 1), None
#     Edge 88, Type (0, 1), None
#     Edge 89, Type (0, 1), None
#     Edge 90, Type (0, 1), None
#     Edge 91, Type (0, 1), None
#     Edge 92, Type (0, 1), None
#     Edge 93, Type (0, 1), None
#     Edge 94, Type (0, 1), None
#     Edge 95, Type (0, 1), None
#     Edge 96, Type (0, 1), None
#     Edge 97, Type (0, 1), None
#     Edge 98, Type (0, 1), None
#     Edge 99, Type (0, 1), None
#     Edge 100, Type (0, 1), None
#     Edge 101, Type (0, 1), None
# Relax obj value: 0.110
# Max RMSD: 0.165
# Mean RMSD: 0.138
data_MOF--net-llk--node1-EZIPEK_clean_sbu_0--node2-VETTIZ_charged_linker_0--edge1-none
_symmetry_space_group_name_H-M    P1
_symmetry_Int_Tables_number       1
_symmetry_cell_setting            triclinic
loop_
_symmetry_equiv_pos_as_xyz
'x, y, z'
_cell_length_a     31.588065
_cell_length_b     31.669641
_cell_length_c     31.65809
_cell_angle_alpha  90.012255
_cell_angle_beta   89.734706
_cell_angle_gamma 90.146747
loop_
_atom_site_label
_atom_site_type_symbol
_atom_site_fract_x
_atom_site_fract_y
_atom_site_fract_z
_atom_type_partial_charge
C0 C 1.00389 0.3421 0.17456 0.0
C1 C 1.00549 0.38788 0.1743 0.0
C2 C 1.00872 0.40815 0.21394 0.0
C3 C 0.0302 0.34364 0.24543 0.0
C4 C 1.0141 0.32025 0.21314 0.0
C5 C 1.01016 0.27378 0.22921 0.0
H6 H 0.07658 0.1408 0.39505 0.0
C7 C 0.0474 0.31675 0.27723 0.0
C8 C 0.03046 0.27606 0.27404 0.0
H9 H 0.94564 0.14174 0.36012 0.0
H10 H 0.96031 0.19847 0.30743 0.0
H11 H 0.14016 0.2037 0.33282 0.0
H12 H 0.03608 0.21349 0.42125 0.0
H13 H 0.05344 0.26447 0.41657 0.0
H14 H 0.08859 0.22392 0.4375 0.0
H15 H 0.13722 0.1838 0.38574 0.0
H16 H 0.15068 0.23774 0.37654 0.0
C17 C 0.03529 0.24392 0.20035 0.0
C18 C 0.96338 0.26076 0.23152 0.0
C19 C 0.11097 0.3936 0.37476 0.0
C20 C 0.09025 0.3842 0.41305 0.0
C21 C 0.09585 0.34441 0.43106 0.0
C22 C 0.11565 0.31327 0.40764 0.0
C23 C 0.12022 0.31898 0.36444 0.0
C24 C 0.12444 0.3601 0.34879 0.0
C25 C 0.11616 0.35975 0.30196 0.0
C26 C 0.08267 0.3251 0.30254 0.0
C27 C 0.09254 0.29705 0.33429 0.0
C28 C 0.15586 0.34305 0.2784 0.0
C29 C 0.10553 0.40362 0.28361 0.0
C30 C 0.05159 0.15086 0.37395 0.0
C31 C 1.01067 0.13673 0.38162 0.0
C32 C 0.97785 0.15258 0.35539 0.0
C33 C 0.98639 0.18465 0.32443 0.0
C34 C 0.02754 0.20209 0.32081 0.0
C35 C 0.05767 0.18716 0.3494 0.0
C36 C 0.08271 0.22271 0.36727 0.0
C37 C 0.07199 0.25765 0.33698 0.0
C38 C 0.04074 0.24599 0.30742 0.0
C39 C 0.13033 0.21151 0.36568 0.0
C40 C 0.06499 0.23172 0.41286 0.0
H41 H 1.01838 0.40076 0.28027 0.0
H42 H 0.99581 0.32462 0.14635 0.0
H43 H 0.94612 0.28039 0.25503 0.0
H44 H 0.96029 0.22708 0.24063 0.0
H45 H 0.94808 0.26488 0.20025 0.0
H46 H 0.06895 0.25407 0.19829 0.0
H47 H 1.02182 0.24383 0.16798 0.0
H48 H 0.03428 0.21118 0.21297 0.0
H49 H 0.11057 0.42559 0.36289 0.0
H50 H 0.08407 0.33694 0.46233 0.0
H51 H 0.12287 0.28387 0.4222 0.0
H52 H 0.165 0.31076 0.28865 0.0
H53 H 0.18342 0.36395 0.28455 0.0
H54 H 0.15006 0.34175 0.24381 0.0
H55 H 0.13289 0.42522 0.28803 0.0
H56 H 0.07883 0.41886 0.30017 0.0
H57 H 0.09991 0.40188 0.24909 0.0
H58 H 1.00441 0.44185 0.21765 0.0
C59 C 1.01896 0.38557 0.24981 0.0
C60 C 0.87447 0.0349 0.35282 0.0
C61 C 0.87829 0.05203 0.39499 0.0
C62 C 0.85182 0.08623 0.40567 0.0
C63 C 0.8106 0.07462 0.34275 0.0
C64 C 0.84064 0.04884 0.32595 0.0
C65 C 0.82341 0.03302 0.28291 0.0
H66 H 0.61028 1.0207 0.20364 0.0
C67 C 0.77042 0.06279 0.32352 0.0
C68 C 0.77711 0.0509 0.2808 0.0
H69 H 0.69845 0.08727 0.12398 0.0
H70 H 0.7548 0.07925 0.17891 0.0
H71 H 0.64374 0.95406 0.22093 0.0
H72 H 0.64562 0.05713 0.30229 0.0
H73 H 0.62832 1.00754 0.32292 0.0
H74 H 0.6045 0.02703 0.27691 0.0
H75 H 0.63092 0.94468 0.27429 0.0
H76 H 0.68414 0.93509 0.25477 0.0
C77 C 0.8243 0.98436 0.28131 0.0
C78 C 0.84998 0.05159 0.24667 0.0
C79 C 0.67407 0.99168 0.42677 0.0
C80 C 0.63552 0.97582 0.41216 0.0
C81 C 0.63623 0.94516 0.38003 0.0
C82 C 0.67102 0.9452 0.35257 0.0
C83 C 0.70059 0.97772 0.35793 0.0
C84 C 0.70407 0.99847 0.39586 0.0
C85 C 0.73367 0.03537 0.39421 0.0
C86 C 0.74405 0.03514 0.34714 0.0
C87 C 0.72276 1.00225 0.32684 0.0
C88 C 0.7708 0.02541 0.4243 0.0
C89 C 0.71012 0.07641 0.40656 0.0
C90 C 0.64108 0.03484 0.198 0.0
C91 C 0.64878 0.05584 0.16018 0.0
C92 C 0.69074 0.07175 0.15351 0.0
C93 C 0.7233 0.06705 0.1848 0.0
C94 C 0.71453 0.04451 0.22226 0.0
C95 C 0.67394 0.02821 0.22706 0.0
C96 C 0.66927 1.00251 0.26576 0.0
C97 C 0.71396 1.00598 0.28392 0.0
C98 C 0.74183 0.03037 0.25906 0.0
C99 C 0.65654 0.95673 0.25345 0.0
C100 C 0.63526 0.02468 0.29358 0.0
H101 H 0.79518 0.1204 0.39102 0.0
H102 H 0.89534 1.00993 0.34236 0.0
H103 H 0.84972 0.08668 0.24791 0.0
H104 H 0.837 0.04153 0.21567 0.0
H105 H 0.88337 0.04082 0.24882 0.0
H106 H 0.80643 0.97065 0.30836 0.0
H107 H 0.85736 0.97258 0.28283 0.0
H108 H 0.81 0.97265 0.25151 0.0
H109 H 0.67539 1.01108 0.45492 0.0
H110 H 0.60787 0.928 0.37132 0.0
H111 H 0.67223 0.92395 0.32617 0.0
H112 H 0.79668 1.0085 0.40758 0.0
H113 H 0.76055 1.00513 0.45116 0.0
H114 H 0.78283 0.05424 0.4399 0.0
H115 H 0.6791 0.07841 0.39017 0.0
H116 H 0.72827 0.10486 0.39751 0.0
H117 H 0.70438 0.07792 0.44117 0.0
H118 H 0.85517 0.1021 0.43579 0.0
C119 C 0.81761 0.09726 0.37992 0.0
C120 C 0.99709 0.86576 0.36003 0.0
C121 C 1.00212 0.86599 0.40543 0.0
C122 C 1.01093 0.82693 0.42497 0.0
C123 C 0.02995 0.7974 0.35818 0.0
C124 C 1.00897 0.82848 0.3369 0.0
C125 C 1.00267 0.81337 0.29059 0.0
H126 H 0.063 0.66425 0.14117 0.0
C127 C 0.04721 0.76724 0.32873 0.0
C128 C 0.02598 0.77027 0.29024 0.0
H129 H 0.93186 0.67037 0.17659 0.0
H130 H 0.94917 0.72543 0.23037 0.0
H131 H 0.12788 0.73031 0.19423 0.0
H132 H 0.04718 0.62508 0.21326 0.0
H133 H 0.06003 0.63495 0.26503 0.0
H134 H 0.10019 0.61994 0.22603 0.0
H135 H 0.12999 0.6768 0.17515 0.0
H136 H 0.15093 0.68989 0.22601 0.0
C137 C 0.0239 0.84453 0.25989 0.0
C138 C 0.95554 0.808 0.28029 0.0
C139 C 0.1206 0.66919 0.38684 0.0
C140 C 0.10047 0.63265 0.37131 0.0
C141 C 0.10978 0.61984 0.33025 0.0
C142 C 0.13162 0.64776 0.30401 0.0
C143 C 0.13125 0.69019 0.31487 0.0
C144 C 0.13422 0.70037 0.35785 0.0
C145 C 0.12124 0.74582 0.36393 0.0
C146 C 0.08601 0.74567 0.33135 0.0
C147 C 0.09758 0.71825 0.29899 0.0
C148 C 0.15719 0.77567 0.34871 0.0
C149 C 0.11109 0.75712 0.41032 0.0
C150 C 0.03741 0.67958 0.15819 0.0
C151 C 0.99651 0.66345 0.15395 0.0
C152 C 0.9641 0.68167 0.17933 0.0
C153 C 0.97389 0.71391 0.20966 0.0
C154 C 1.01655 0.72578 0.21672 0.0
C155 C 0.04718 0.70325 0.19424 0.0
C156 C 0.08101 0.68794 0.22345 0.0
C157 C 0.07279 0.71516 0.26202 0.0
C158 C 0.0362 0.73991 0.25748 0.0
C159 C 0.12497 0.6966 0.20368 0.0
C160 C 0.07226 0.6399 0.23259 0.0
H161 H 0.02556 0.76187 0.41614 0.0
H162 H 0.98501 0.89314 0.34365 0.0
H163 H 0.94171 0.78145 0.29862 0.0
H164 H 0.95126 0.80098 0.24621 0.0
H165 H 0.93782 0.83732 0.28788 0.0
H166 H 0.05791 0.84871 0.26782 0.0
H167 H 1.00821 0.87587 0.26156 0.0
H168 H 1.02181 0.83265 0.22693 0.0
H169 H 0.11833 0.67626 0.42011 0.0
H170 H 0.09814 0.59021 0.31804 0.0
H171 H 0.14301 0.6382 0.27365 0.0
H172 H 0.16631 0.77003 0.31522 0.0
H173 H 0.18601 0.77111 0.36814 0.0
H174 H 0.14708 0.80917 0.35137 0.0
H175 H 0.13935 0.75116 0.43014 0.0
H176 H 0.08574 0.73717 0.42372 0.0
H177 H 0.10365 0.79116 0.41384 0.0
H178 H 1.00985 0.82306 0.45893 0.0
C179 C 1.0228 0.79218 0.40113 0.0
C180 C 0.33681 0.02999 0.17227 0.0
C181 C 0.36622 0.05857 0.15188 0.0
C182 C 0.36086 0.10224 0.15836 0.0
C183 C 0.30915 0.08819 0.21247 0.0
C184 C 0.30688 0.04634 0.20242 0.0
C185 C 0.27396 0.02533 0.23256 0.0
H186 H 0.1825 0.0466 0.43354 0.0
C187 C 0.29105 0.09479 0.25395 0.0
C188 C 0.2634 0.06143 0.26436 0.0
H189 H 0.11304 0.98519 0.33421 0.0
H190 H 0.16878 1.00678 0.28243 0.0
H191 H 0.26324 0.02786 0.42374 0.0
H192 H 0.18831 0.12361 0.38933 0.0
H193 H 0.2371 0.15014 0.38842 0.0
H194 H 0.22236 0.11956 0.43437 0.0
H195 H 0.28168 0.07771 0.43932 0.0
H196 H 0.30513 0.05065 0.39437 0.0
C197 C 0.2936 0.98729 0.25529 0.0
C198 C 0.23486 1.01199 0.20721 0.0
C199 C 0.39863 0.10416 0.36044 0.0
C200 C 0.39094 0.09597 0.40326 0.0
C201 C 0.35784 0.11761 0.42378 0.0
C202 C 0.32606 0.13604 0.39973 0.0
C203 C 0.32799 0.13081 0.35597 0.0
C204 C 0.36622 0.12257 0.33665 0.0
C205 C 0.36151 0.12079 0.28948 0.0
C206 C 0.31295 0.11556 0.28657 0.0
C207 C 0.29483 0.11702 0.32685 0.0
C208 C 0.38748 0.08318 0.27145 0.0
C209 C 0.37741 0.16324 0.27127 0.0
C210 C 0.17939 0.03575 0.40121 0.0
C211 C 0.1438 1.01255 0.38917 0.0
C212 C 0.1407 1.00198 0.34539 0.0
C213 C 0.17311 1.01389 0.31543 0.0
C214 C 0.20879 0.03727 0.32897 0.0
C215 C 0.20956 0.04892 0.3712 0.0
C216 C 0.24301 0.08046 0.38068 0.0
C217 C 0.26084 0.08913 0.33686 0.0
C218 C 0.2439 0.06135 0.3062 0.0
C219 C 0.27505 0.05842 0.41089 0.0
C220 C 0.22185 0.12056 0.3994 0.0
H221 H 0.32948 0.15068 0.19447 0.0
H222 H 0.33854 0.99638 0.16635 0.0
H223 H 0.21882 0.04004 0.19361 0.0
H224 H 0.21203 0.99466 0.22743 0.0
H225 H 0.2442 0.99069 0.18086 0.0
H226 H 0.32234 0.99703 0.27293 0.0
H227 H 0.30271 0.96241 0.23223 0.0
H228 H 0.27064 0.97348 0.27815 0.0
H229 H 0.42689 0.09208 0.34559 0.0
H230 H 0.35387 0.11645 0.45784 0.0
H231 H 0.29893 0.1488 0.41574 0.0
H232 H 0.37667 0.05281 0.28542 0.0
H233 H 0.42178 0.08737 0.27755 0.0
H234 H 0.3862 0.08062 0.23698 0.0
H235 H 0.4078 0.17267 0.28627 0.0
H236 H 0.35407 0.18886 0.27693 0.0
H237 H 0.38428 0.16121 0.23707 0.0
H238 H 0.38063 0.12478 0.1417 0.0
C239 C 0.33191 0.11721 0.18824 0.0
C240 C 1.00168 0.69075 0.89077 0.0
C241 C 1.01537 0.64784 0.8863 0.0
C242 C 0.03155 0.63516 0.84672 0.0
C243 C 1.02327 0.7059 0.81876 0.0
C244 C 1.00573 0.71927 0.85609 0.0
C245 C 0.98845 0.76401 0.8503 0.0
H246 H 0.93343 0.86748 0.65814 0.0
C247 C 1.01958 0.739 0.78662 0.0
C248 C 0.99819 0.77391 0.80335 0.0
H249 H 0.04854 0.91021 0.71668 0.0
H250 H 0.03749 0.85934 0.77564 0.0
H251 H 0.88052 0.81602 0.66499 0.0
H252 H 0.89058 0.82526 0.78103 0.0
H253 H 0.86042 0.78569 0.75379 0.0
H254 H 0.86153 0.8394 0.73481 0.0
H255 H 0.88133 0.76229 0.67943 0.0
H256 H 0.927 0.78752 0.65285 0.0
C257 C 1.0121 0.79516 0.87898 0.0
C258 C 0.94055 0.76469 0.85996 0.0
C259 C 0.03438 0.70463 0.63576 0.0
C260 C 1.00393 0.68763 0.6091 0.0
C261 C 0.96063 0.69237 0.61767 0.0
C262 C 0.94775 0.70963 0.65599 0.0
C263 C 0.97816 0.72754 0.68236 0.0
C264 C 1.02094 0.72304 0.67317 0.0
C265 C 0.04731 0.72815 0.71179 0.0
C266 C 1.01243 0.72854 0.74475 0.0
C267 C 0.97313 0.7385 0.72658 0.0
C268 C 0.0708 0.77087 0.70971 0.0
C269 C 0.07924 0.69191 0.71772 0.0
C270 C 0.95552 0.8669 0.68415 0.0
C271 C 0.99193 0.89223 0.68223 0.0
C272 C 1.02024 0.89083 0.71705 0.0
C273 C 1.01366 0.86247 0.7514 0.0
C274 C 0.97765 0.83635 0.75187 0.0
C275 C 0.94883 0.83965 0.71885 0.0
C276 C 0.91927 0.80285 0.7206 0.0
C277 C 0.94834 0.77207 0.74431 0.0
C278 C 0.96978 0.79574 0.77562 0.0
C279 C 0.90166 0.7907 0.67692 0.0
C280 C 0.88088 0.81395 0.74925 0.0
H281 H 0.04531 0.65181 0.78305 0.0
H282 H 0.98742 0.70145 0.92001 0.0
H283 H 0.92345 0.74203 0.83926 0.0
H284 H 0.92739 0.79675 0.85464 0.0
H285 H 0.93426 0.75586 0.89338 0.0
H286 H 0.04671 0.79417 0.87252 0.0
H287 H 1.00677 0.78722 0.91279 0.0
H288 H 1.00086 0.8279 0.87335 0.0
H289 H 0.06765 0.69813 0.6304 0.0
H290 H 0.93731 0.67779 0.59734 0.0
H291 H 0.91535 0.7057 0.66599 0.0
H292 H 0.04848 0.7971 0.70336 0.0
H293 H 0.09476 0.77068 0.68386 0.0
H294 H 0.08734 0.77741 0.73992 0.0
H295 H 0.10478 0.69344 0.69352 0.0
H296 H 0.06337 0.66072 0.71466 0.0
H297 H 0.09481 0.69442 0.749 0.0
H298 H 0.04131 0.60284 0.84132 0.0
C299 C 0.03495 0.66363 0.81313 0.0
C300 C 0.34064 0.99604 0.88073 0.0
C301 C 0.37594 0.97286 0.89771 0.0
C302 C 0.38127 0.9305 0.88535 0.0
C303 C 0.32814 0.93886 0.83251 0.0
C304 C 0.31585 0.9772 0.84785 0.0
C305 C 0.27848 0.99305 0.82041 0.0
H306 H 0.18968 0.9655 0.61815 0.0
C307 C 0.31224 0.93346 0.79038 0.0
C308 C 0.27826 0.96098 0.78313 0.0
H309 H 0.12361 0.02918 0.71895 0.0
H310 H 0.18248 1.01238 0.76776 0.0
H311 H 0.26404 0.99764 0.62105 0.0
H312 H 0.21756 0.88676 0.66652 0.0
H313 H 0.27012 0.8756 0.65125 0.0
H314 H 0.23572 0.90229 0.61474 0.0
H315 H 0.293 0.95323 0.60561 0.0
H316 H 0.311 0.9867 0.64885 0.0
C317 C 0.28658 0.03824 0.80469 0.0
C318 C 0.23767 0.99028 0.84686 0.0
C319 C 0.41862 0.95741 0.68306 0.0
C320 C 0.40988 0.96497 0.64042 0.0
C321 C 0.38104 0.93825 0.61936 0.0
C322 C 0.35408 0.91226 0.64254 0.0
C323 C 0.35509 0.91575 0.68629 0.0
C324 C 0.39059 0.93152 0.70591 0.0
C325 C 0.38619 0.92841 0.75298 0.0
C326 C 0.33791 0.92102 0.75633 0.0
C327 C 0.31993 0.91826 0.71629 0.0
C328 C 0.40193 0.96989 0.77394 0.0
C329 C 0.41243 0.89006 0.76778 0.0
C330 C 0.18727 0.97652 0.65048 0.0
C331 C 0.15182 0.99922 0.66379 0.0
C332 C 0.15066 1.01187 0.70706 0.0
C333 C 0.18464 1.0022 0.73543 0.0
C334 C 0.22009 0.97931 0.72074 0.0
C335 C 0.22002 0.96696 0.67869 0.0
C336 C 0.25852 0.9431 0.6663 0.0
C337 C 0.28035 0.93831 0.70875 0.0
C338 C 0.25926 0.96096 0.74131 0.0
C339 C 0.28318 0.97126 0.634 0.0
C340 C 0.24498 0.89965 0.64845 0.0
H341 H 0.36267 0.88122 0.84247 0.0
H342 H 0.33427 0.02799 0.89104 0.0
H343 H 0.23099 0.95703 0.85604 0.0
H344 H 0.21016 1.00246 0.82938 0.0
H345 H 0.24084 1.00935 0.87617 0.0
H346 H 0.31681 0.03989 0.78666 0.0
H347 H 0.28849 0.06057 0.8317 0.0
H348 H 0.26055 0.04857 0.78363 0.0
H349 H 0.44384 0.97452 0.69847 0.0
H350 H 0.37667 0.93992 0.58557 0.0
H351 H 0.33016 0.8945 0.62623 0.0
H352 H 0.38339 0.99741 0.76262 0.0
H353 H 0.43599 0.97541 0.76722 0.0
H354 H 0.40032 0.96902 0.80862 0.0
H355 H 0.44354 0.88915 0.75124 0.0
H356 H 0.39571 0.85985 0.76118 0.0
H357 H 0.41997 0.89172 0.80183 0.0
H358 H 0.40592 0.91147 0.89921 0.0
C359 C 0.35697 0.91314 0.85317 0.0
C360 C 1.0164 0.15712 0.70238 0.0
C361 C 0.02956 0.15871 0.65896 0.0
C362 C 0.04758 0.19669 0.64411 0.0
C363 C 0.04032 0.22927 0.71318 0.0
C364 C 1.02195 0.19325 0.72895 0.0
C365 C 1.00531 0.20222 0.77357 0.0
H366 H 0.9498 0.39679 0.87204 0.0
C367 C 0.03669 0.26404 0.7438 0.0
C368 C 1.01537 0.24969 0.78018 0.0
H369 H 0.05807 0.33231 0.92239 0.0
H370 H 0.04979 0.27547 0.86856 0.0
H371 H 0.90819 0.3983 0.81539 0.0
H372 H 0.90278 0.28054 0.82731 0.0
H373 H 0.87703 0.30966 0.78608 0.0
H374 H 0.87799 0.33007 0.83929 0.0
H375 H 0.90498 0.38113 0.76321 0.0
H376 H 0.95524 0.40146 0.78418 0.0
C377 C 0.0293 0.17556 0.80608 0.0
C378 C 0.95739 0.19293 0.77595 0.0
C379 C 0.04029 0.40844 0.68571 0.0
C380 C 1.0072 0.42934 0.66566 0.0
C381 C 0.96487 0.41751 0.67256 0.0
C382 C 0.95561 0.3828 0.69787 0.0
C383 C 0.98866 0.363 0.71907 0.0
C384 C 0.03044 0.37439 0.71157 0.0
C385 C 0.05981 0.33951 0.72385 0.0
C386 C 0.02749 0.30444 0.72942 0.0
C387 C 0.98754 0.3216 0.73808 0.0
C388 C 0.08095 0.35033 0.76638 0.0
C389 C 0.09384 0.33059 0.69001 0.0
C390 C 0.97108 0.37011 0.87203 0.0
C391 C 1.00466 0.36952 0.90085 0.0
C392 C 0.03191 0.33382 0.90045 0.0
C393 C 0.02694 0.30083 0.87022 0.0
C394 C 0.99346 0.30261 0.8412 0.0
C395 C 0.96598 0.33685 0.84278 0.0
C396 C 0.9382 0.3367 0.80459 0.0
C397 C 0.96571 0.30899 0.77554 0.0
C398 C 0.98696 0.27881 0.8006 0.0
C399 C 0.92669 0.3819 0.79043 0.0
C400 C 0.89667 0.31282 0.81496 0.0
H401 H 0.06426 0.26034 0.65696 0.0
H402 H 1.0011 0.12912 0.71482 0.0
H403 H 0.94002 0.21208 0.75227 0.0
H404 H 0.94472 0.20057 0.80785 0.0
H405 H 0.95086 0.15902 0.76963 0.0
H406 H 0.06391 0.18173 0.80398 0.0
H407 H 0.02376 0.14133 0.8005 0.0
H408 H 1.01852 0.18342 0.83862 0.0
H409 H 0.07291 0.41566 0.67771 0.0
H410 H 0.93958 0.43287 0.65558 0.0
H411 H 0.92386 0.36999 0.6983 0.0
H412 H 0.05691 0.35728 0.79119 0.0
H413 H 0.1017 0.37856 0.76303 0.0
H414 H 0.1006 0.32348 0.7774 0.0
H415 H 0.11777 0.35637 0.68916 0.0
H416 H 0.07955 0.32861 0.65808 0.0
H417 H 0.11096 0.30092 0.69735 0.0
H418 H 0.05754 0.19982 0.61147 0.0
C419 C 0.05242 0.23167 0.67061 0.0
C420 C 0.88228 1.01189 0.71612 0.0
C421 C 0.8872 0.99059 0.67637 0.0
C422 C 0.86594 0.95176 0.67097 0.0
C423 C 0.82422 0.96575 0.73325 0.0
C424 C 0.85111 0.99712 0.74556 0.0
C425 C 0.83262 1.017 0.78592 0.0
H426 H 0.62246 0.03859 0.86506 0.0
C427 C 0.78264 0.97599 0.75071 0.0
C428 C 0.78811 0.99584 0.79036 0.0
H429 H 0.69983 0.95165 0.93472 0.0
H430 H 0.75884 0.96207 0.88272 0.0
H431 H 0.65557 0.10804 0.83274 0.0
H432 H 0.6464 1.01204 0.75855 0.0
H433 H 0.63496 0.06787 0.75308 0.0
H434 H 0.61458 0.04023 0.79579 0.0
H435 H 0.68713 0.12149 0.78765 0.0
H436 H 0.71249 0.10623 0.83558 0.0
C437 C 0.83015 0.06548 0.78136 0.0
C438 C 0.85998 1.0052 0.82409 0.0
C439 C 0.68834 0.02521 0.63328 0.0
C440 C 0.66121 0.05955 0.63101 0.0
C441 C 0.66145 0.09147 0.66183 0.0
C442 C 0.68746 0.08692 0.69697 0.0
C443 C 0.70853 0.04857 0.70187 0.0
C444 C 0.71146 1.01999 0.66948 0.0
C445 C 0.74214 0.98541 0.67771 0.0
C446 C 0.75353 0.99602 0.72332 0.0
C447 C 0.73142 0.03192 0.737 0.0
C448 C 0.77801 0.99037 0.64443 0.0
C449 C 0.71999 0.94207 0.67489 0.0
C450 C 0.65135 1.02061 0.8685 0.0
C451 C 0.65551 0.99298 0.90262 0.0
C452 C 0.69518 0.97239 0.90796 0.0
C453 C 0.72912 0.97845 0.87856 0.0
C454 C 0.72362 1.0061 0.84428 0.0
C455 C 0.68495 0.02628 0.83979 0.0
C456 C 0.6838 0.05315 0.80108 0.0
C457 C 0.72556 0.03974 0.7802 0.0
C458 C 0.75205 1.01776 0.80796 0.0
C459 C 0.68482 0.09985 0.81489 0.0
C460 C 0.64316 0.0426 0.77552 0.0
H461 H 0.81401 0.91263 0.69178 0.0
H462 H 0.89994 0.04049 0.72254 0.0
H463 H 0.86222 0.97032 0.82737 0.0
H464 H 0.84594 1.01812 0.85363 0.0
H465 H 0.89254 1.01812 0.8204 0.0
H466 H 0.81178 0.07432 0.75287 0.0
H467 H 0.86233 0.07944 0.77833 0.0
H468 H 0.81473 0.0798 0.80952 0.0
H469 H 0.68881 1.00095 0.60907 0.0
H470 H 0.64065 0.11851 0.65941 0.0
H471 H 0.68862 0.11135 0.7205 0.0
H472 H 0.803 1.01217 0.6559 0.0
H473 H 0.7668 1.00381 0.61406 0.0
H474 H 0.79098 0.95941 0.63478 0.0
H475 H 0.69127 0.94125 0.69535 0.0
H476 H 0.74142 0.91656 0.68548 0.0
H477 H 0.71034 0.93504 0.64192 0.0
H478 H 0.87113 0.9331 0.64273 0.0
C479 C 0.83397 0.93932 0.69933 0.0
C480 C 0.34314 0.16886 1.01065 0.0
C481 C 0.3753 0.15052 0.98385 0.0
C482 C 0.37496 0.16032 0.94049 0.0
C483 C 0.32175 0.21289 0.9528 0.0
C484 C 0.31541 0.20027 0.99355 0.0
C485 C 0.28052 0.22875 1.01327 0.0
H486 H 0.18901 0.4297 0.99342 0.0
C487 C 0.30375 0.25422 0.94682 0.0
C488 C 0.27365 0.26285 0.97852 0.0
H489 H 0.12148 0.3276 0.05334 0.0
H490 H 0.17863 0.27804 0.03219 0.0
H491 H 0.26883 0.42384 1.01318 0.0
H492 H 0.19962 0.38388 0.91473 0.0
H493 H 0.2497 0.38888 0.89108 0.0
H494 H 0.22887 0.43207 0.92209 0.0
H495 H 0.28955 0.43879 0.96394 0.0
H496 H 0.31243 0.39509 0.99311 0.0
C497 C 0.29616 0.24887 0.05455 0.0
C498 C 0.24054 0.2021 1.02089 0.0
C499 C 0.41023 0.36441 0.94494 0.0
C500 C 0.40189 0.4074 0.95062 0.0
C501 C 0.36906 0.42627 0.92723 0.0
C502 C 0.33826 0.40091 0.9088 0.0
C503 C 0.34078 0.35751 0.91551 0.0
C504 C 0.37884 0.33941 0.9262 0.0
C505 C 0.37514 0.29223 0.92781 0.0
C506 C 0.32639 0.28779 0.92846 0.0
C507 C 0.30737 0.32741 0.92634 0.0
C508 C 0.3973 0.27524 0.96809 0.0
C509 C 0.39593 0.27439 0.88727 0.0
C510 C 0.18665 0.39719 1.00393 0.0
C511 C 0.15106 0.38368 0.02655 0.0
C512 C 0.14903 0.33983 0.03692 0.0
C513 C 0.18222 0.3111 0.02515 0.0
C514 C 0.21772 0.32592 1.00219 0.0
C515 C 0.21791 0.36833 0.99112 0.0
C516 C 0.25216 0.37917 0.96066 0.0
C517 C 0.27156 0.336 0.95241 0.0
C518 C 0.25387 0.30438 0.97886 0.0
C519 C 0.28247 0.41064 0.98355 0.0
C520 C 0.2318 0.39722 0.92 0.0
H521 H 0.34845 0.19916 0.89158 0.0
H522 H 0.34114 0.16042 0.04372 0.0
H523 H 0.227 0.19113 0.99043 0.0
H524 H 0.21621 0.22028 0.03819 0.0
H525 H 0.24817 0.1739 0.04031 0.0
H526 H 0.32573 0.26713 0.04891 0.0
H527 H 0.30269 0.22421 0.0786 0.0
H528 H 0.27188 0.27072 0.06752 0.0
H529 H 0.43807 0.35049 0.95882 0.0
H530 H 0.36465 0.46018 0.92675 0.0
H531 H 0.31131 0.4158 0.89464 0.0
H532 H 0.38312 0.2893 0.99702 0.0
H533 H 0.43172 0.28225 0.96743 0.0
H534 H 0.39595 0.24067 0.97088 0.0
H535 H 0.42567 0.29174 0.87958 0.0
H536 H 0.37439 0.27716 0.85974 0.0
H537 H 0.40554 0.24104 0.891 0.0
H538 H 0.397 0.14528 0.91897 0.0
C539 C 0.34757 0.19087 0.9247 0.0
C540 C 0.33307 0.8782 0.04261 0.0
C541 C 0.36583 0.89653 0.06862 0.0
C542 C 0.36557 0.88716 0.11212 0.0
C543 C 0.31274 0.83391 0.10091 0.0
C544 C 0.30517 0.84697 0.06057 0.0
C545 C 0.27018 0.81779 0.04191 0.0
H546 H 0.18598 0.61354 0.06121 0.0
C547 C 0.29672 0.79158 0.10637 0.0
C548 C 0.26503 0.78306 0.07643 0.0
H549 H 0.10695 0.71475 1.01688 0.0
H550 H 0.16417 0.76636 0.03396 0.0
H551 H 0.26268 0.62646 0.03074 0.0
H552 H 0.20257 0.65343 0.13954 0.0
H553 H 0.25482 0.65163 0.15758 0.0
H554 H 0.23456 0.60852 0.12593 0.0
H555 H 0.28861 0.60804 0.07597 0.0
H556 H 0.30698 0.65529 0.0489 0.0
C557 C 0.28473 0.79859 0.99969 0.0
C558 C 0.22924 0.84314 0.03637 0.0
C559 C 0.40659 0.68787 0.08946 0.0
C560 C 0.39889 0.6454 0.07991 0.0
C561 C 0.36966 0.62266 0.10491 0.0
C562 C 0.34048 0.64446 0.12956 0.0
C563 C 0.34076 0.68841 0.12727 0.0
C564 C 0.37691 0.70932 0.11462 0.0
C565 C 0.37112 0.75625 0.11792 0.0
C566 C 0.32223 0.75815 0.12061 0.0
C567 C 0.30535 0.71743 0.12138 0.0
C568 C 0.39089 0.77811 0.07857 0.0
C569 C 0.3929 0.77115 0.15893 0.0
C570 C 0.18055 0.64637 0.05329 0.0
C571 C 0.14182 0.6589 0.03639 0.0
C572 C 0.13672 0.70317 0.02901 0.0
C573 C 0.16993 0.7331 0.03827 0.0
C574 C 0.20873 0.71897 0.05535 0.0
C575 C 0.21188 0.67612 0.06363 0.0
C576 C 0.24976 0.66527 0.08883 0.0
C577 C 0.26792 0.70868 0.09806 0.0
C578 C 0.24659 0.74083 0.07562 0.0
C579 C 0.27869 0.63751 0.05999 0.0
C580 C 0.23497 0.64331 0.13007 0.0
H581 H 0.34083 0.84715 0.16138 0.0
H582 H 0.33105 0.88609 1.00943 0.0
H583 H 0.21714 0.85434 0.06743 0.0
H584 H 0.20447 0.82369 1.02115 0.0
H585 H 0.2351 0.87113 1.01596 0.0
H586 H 0.31475 0.78089 1.00377 0.0
H587 H 0.29003 0.82373 0.97575 0.0
H588 H 0.2604 0.77639 0.98745 0.0
H589 H 0.43237 0.70431 0.07408 0.0
H590 H 0.36645 0.5887 0.10238 0.0
H591 H 0.31599 0.62681 0.14526 0.0
H592 H 0.37583 0.76666 0.04905 0.0
H593 H 0.4255 0.77246 0.07679 0.0
H594 H 0.38879 0.81257 0.07956 0.0
H595 H 0.4249 0.75683 0.16179 0.0
H596 H 0.37414 0.762 0.18729 0.0
H597 H 0.39808 0.80568 0.15934 0.0
H598 H 0.38818 0.90194 0.13301 0.0
C599 C 0.33878 0.85611 0.12849 0.0
C600 C 0.88337 0.33089 1.01794 0.0
C601 C 0.88849 0.36933 0.99435 0.0
C602 C 0.86975 0.37141 0.95408 0.0
C603 C 0.82992 0.30801 0.96921 0.0
C604 C 0.85459 0.29923 1.00327 0.0
C605 C 0.83614 0.25975 0.02489 0.0
H606 H 0.62695 0.17956 0.04856 0.0
C607 C 0.78827 0.28959 0.97785 0.0
C608 C 0.79332 0.25197 1.00148 0.0
H609 H 0.70083 0.10977 0.95836 0.0
H610 H 0.76125 0.1602 0.96787 0.0
H611 H 0.66082 0.2171 0.11591 0.0
H612 H 0.64912 0.28581 1.01633 0.0
H613 H 0.63521 0.28941 0.07228 0.0
H614 H 0.61825 0.24728 0.0428 0.0
H615 H 0.69208 0.26357 0.12488 0.0
H616 H 0.71773 0.21466 0.11297 0.0
C617 C 0.83036 0.26762 0.07274 0.0
C618 C 0.86563 0.22194 1.01753 0.0
C619 C 0.68283 0.40379 1.00751 0.0
C620 C 0.65459 0.40848 0.04086 0.0
C621 C 0.65559 0.38237 0.07662 0.0
C622 C 0.6849 0.34973 0.07785 0.0
C623 C 0.70856 0.34213 0.04144 0.0
C624 C 0.7097 0.37 1.00839 0.0
C625 C 0.74319 0.36033 0.97675 0.0
C626 C 0.75717 0.31757 0.99377 0.0
C627 C 0.73437 0.30708 0.03048 0.0
C628 C 0.77595 0.3968 0.97954 0.0
C629 C 0.72418 0.35603 0.9322 0.0
C630 C 0.65532 0.17595 0.02956 0.0
C631 C 0.65798 0.14259 1.00109 0.0
C632 C 0.69721 0.1364 0.97952 0.0
C633 C 0.732 0.16481 0.98517 0.0
C634 C 0.72766 0.19907 1.01313 0.0
C635 C 0.68925 0.20428 0.03403 0.0
C636 C 0.68764 0.24462 0.0581 0.0
C637 C 0.72911 0.26486 0.04251 0.0
C638 C 0.75626 0.23572 0.02314 0.0
C639 C 0.68968 0.2345 0.10567 0.0
C640 C 0.64594 0.26835 0.0466 0.0
H641 H 0.82227 0.34536 0.91279 0.0
H642 H 0.89913 0.32705 0.04796 0.0
H643 H 0.87033 0.21625 0.98317 0.0
H644 H 0.85184 0.1929 0.03179 0.0
H645 H 0.89711 0.22782 0.03197 0.0
H646 H 0.81075 0.29615 0.07851 0.0
H647 H 0.86146 0.27254 0.08825 0.0
H648 H 0.81479 0.24012 0.08817 0.0
H649 H 0.68262 0.42482 0.98045 0.0
H650 H 0.63399 0.3872 0.10286 0.0
H651 H 0.6872 0.32995 0.10541 0.0
H652 H 0.79976 0.39044 1.00442 0.0
H653 H 0.76122 0.42758 0.98779 0.0
H654 H 0.79094 0.40333 0.94856 0.0
H655 H 0.69736 0.3332 0.93228 0.0
H656 H 0.74833 0.34444 0.9095 0.0
H657 H 0.71242 0.38694 0.92059 0.0
H658 H 0.87523 0.39854 0.93392 0.0
C659 C 0.84027 0.34066 0.94135 0.0
C660 C 0.87172 0.69368 0.04523 0.0
C661 C 0.87255 0.64971 0.0576 0.0
C662 C 0.84155 0.63614 0.08685 0.0
C663 C 0.80253 0.70054 0.07604 0.0
C664 C 0.83636 0.71958 0.05742 0.0
C665 C 0.82199 0.76476 0.04526 0.0
H666 H 0.62194 0.86195 1.00498 0.0
C667 C 0.76482 0.72216 0.06075 0.0
C668 C 0.77348 0.76566 0.05653 0.0
H669 H 0.68401 0.90627 0.11724 0.0
H670 H 0.74147 0.85264 0.10662 0.0
H671 H 0.71264 0.84683 0.95021 0.0
H672 H 0.64039 0.7419 1.00464 0.0
H673 H 0.62348 0.77 0.95762 0.0
H674 H 0.61212 0.7892 1.00811 0.0
H675 H 0.65943 0.83536 0.93378 0.0
H676 H 0.70255 0.79992 0.92187 0.0
C677 C 0.83028 0.77279 0.99789 0.0
C678 C 0.84561 0.79748 0.07214 0.0
C679 C 0.68512 0.62891 0.96297 0.0
C680 C 0.64524 0.64267 0.9506 0.0
C681 C 0.64212 0.68099 0.92857 0.0
C682 C 0.67564 0.70981 0.93218 0.0
C683 C 0.70612 0.70118 0.96318 0.0
C684 C 0.71151 0.66037 0.97719 0.0
C685 C 0.73562 0.6571 1.01749 0.0
C686 C 0.74307 0.70363 0.02626 0.0
C687 C 0.72486 0.72877 0.9947 0.0
C688 C 0.77544 0.63025 1.00829 0.0
C689 C 0.70726 0.63754 0.05256 0.0
C690 C 0.64703 0.85983 0.02816 0.0
C691 C 0.6469 0.88692 0.06283 0.0
C692 C 0.68214 0.88463 0.09083 0.0
C693 C 0.71535 0.85425 0.08469 0.0
C694 C 0.71389 0.82675 0.04965 0.0
C695 C 0.67958 0.83013 0.02263 0.0
C696 C 0.6805 0.79795 0.98848 0.0
C697 C 0.71886 0.77203 1.002 0.0
C698 C 0.74211 0.79108 0.03469 0.0
C699 C 0.68898 0.82106 0.94617 0.0
C700 C 0.63736 0.77335 0.98954 0.0
H701 H 0.78064 0.64836 0.11454 0.0
H702 H 0.89619 0.70643 0.02486 0.0
H703 H 0.84 0.79159 0.10633 0.0
H704 H 0.83445 0.82986 0.06462 0.0
H705 H 0.88025 0.79588 0.06601 0.0
H706 H 0.81434 0.74844 0.97827 0.0
H707 H 0.86474 0.77175 0.99078 0.0
H708 H 0.81825 0.80434 0.98847 0.0
H709 H 0.68937 0.59751 0.97583 0.0
H710 H 0.61254 0.69096 0.91461 0.0
H711 H 0.6729 0.73993 0.91712 0.0
H712 H 0.80238 0.65012 0.99742 0.0
H713 H 0.76946 0.60622 0.98352 0.0
H714 H 0.78418 0.61074 0.03574 0.0
H715 H 0.67534 0.65228 0.05265 0.0
H716 H 0.72028 0.64272 0.08435 0.0
H717 H 0.70355 0.60292 0.04815 0.0
H718 H 0.84251 0.60451 0.09983 0.0
C719 C 0.80602 0.66117 0.09557 0.0
C720 C 0.51865 0.8576 0.65651 0.0
C721 C 0.52872 0.90164 0.66021 0.0
C722 C 0.53828 0.91719 0.70097 0.0
C723 C 0.53059 0.84743 0.73162 0.0
C724 C 0.51969 0.83104 0.693 0.0
C725 C 0.50558 0.78502 0.69879 0.0
H726 H 0.44167 0.67404 0.88422 0.0
C727 C 0.52553 0.81509 0.76451 0.0
C728 C 0.51007 0.77773 0.7469 0.0
H729 H 0.56397 0.64275 0.83279 0.0
H730 H 0.55378 0.69495 0.77494 0.0
H731 H 0.38527 0.72194 0.87508 0.0
H732 H 0.40548 0.71811 0.76013 0.0
H733 H 0.37045 0.75405 0.78666 0.0
H734 H 0.37408 0.69979 0.80359 0.0
H735 H 0.38435 0.77636 0.86303 0.0
H736 H 0.42892 0.75233 0.8919 0.0
C737 C 0.53513 0.75518 0.67442 0.0
C738 C 0.45945 0.7796 0.68399 0.0
C739 C 0.53159 0.83845 0.91903 0.0
C740 C 0.49929 0.8518 0.94616 0.0
C741 C 0.45666 0.84533 0.93526 0.0
C742 C 0.44646 0.83036 0.89513 0.0
C743 C 0.4789 0.81723 0.86808 0.0
C744 C 0.52068 0.82446 0.87891 0.0
C745 C 0.54825 0.82736 0.8405 0.0
C746 C 0.51492 0.82453 0.80616 0.0
C747 C 0.47631 0.80921 0.82283 0.0
C748 C 0.57873 0.78936 0.83969 0.0
C749 C 0.57341 0.86908 0.83866 0.0
C750 C 0.46559 0.67731 0.85984 0.0
C751 C 0.50354 0.65478 0.86347 0.0
C752 C 0.53438 0.65981 0.83094 0.0
C753 C 0.52839 0.68894 0.79722 0.0
C754 C 0.49059 0.71212 0.79498 0.0
C755 C 0.45963 0.70538 0.82575 0.0
C756 C 0.42771 0.73997 0.82324 0.0
C757 C 0.45611 0.77388 0.80275 0.0
C758 C 0.48166 0.75304 0.77238 0.0
C759 C 0.40586 0.74898 0.86588 0.0
C760 C 0.39255 0.72725 0.79155 0.0
H761 H 0.54372 0.90442 0.76702 0.0
H762 H 0.50943 0.84448 0.62634 0.0
H763 H 0.4381 0.80119 0.70176 0.0
H764 H 0.44847 0.74663 0.68915 0.0
H765 H 0.45659 0.78682 0.64977 0.0
H766 H 0.56848 0.75962 0.68464 0.0
H767 H 0.5334 0.76138 0.63991 0.0
H768 H 0.52604 0.72176 0.68027 0.0
H769 H 0.5642 0.84663 0.92585 0.0
H770 H 0.4316 0.85851 0.95469 0.0
H771 H 0.41428 0.83309 0.88435 0.0
H772 H 0.56099 0.75912 0.84196 0.0
H773 H 0.60099 0.7909 0.86676 0.0
H774 H 0.59767 0.7891 0.81002 0.0
H775 H 0.5964 0.87126 0.86501 0.0
H776 H 0.55179 0.89666 0.84073 0.0
H777 H 0.59214 0.87085 0.80895 0.0
H778 H 0.54488 0.95038 0.70592 0.0
C779 C 0.53855 0.89064 0.7364 0.0
C780 C 0.38871 0.53599 0.83237 0.0
C781 C 0.39278 0.5566 0.87246 0.0
C782 C 0.36911 0.59361 0.87956 0.0
C783 C 0.32846 0.57943 0.81707 0.0
C784 C 0.35657 0.54949 0.80391 0.0
C785 C 0.33914 0.52931 0.76349 0.0
H786 H 0.13228 0.50309 0.68066 0.0
C787 C 0.28751 0.56869 0.79889 0.0
C788 C 0.29419 0.5489 0.75947 0.0
H789 H 0.20865 0.59679 0.6178 0.0
H790 H 0.2667 0.58515 0.66984 0.0
H791 H 0.16456 0.43384 0.71553 0.0
H792 H 0.15172 0.52871 0.79048 0.0
H793 H 0.13718 0.47294 0.78924 0.0
H794 H 0.12173 0.50607 0.74913 0.0
H795 H 0.19556 0.42202 0.76133 0.0
H796 H 0.22149 0.43715 0.71335 0.0
C797 C 0.33792 0.48074 0.76778 0.0
C798 C 0.36642 0.54229 0.72535 0.0
C799 C 0.18053 0.52816 0.90876 0.0
C800 C 0.15057 0.49586 0.90882 0.0
C801 C 0.15356 0.46151 0.88092 0.0
C802 C 0.18526 0.46172 0.85015 0.0
C803 C 0.20983 0.49814 0.84622 0.0
C804 C 0.20991 0.52884 0.87672 0.0
C805 C 0.24281 0.56188 0.86966 0.0
C806 C 0.2575 0.54885 0.82568 0.0
C807 C 0.23607 0.51243 0.81213 0.0
C808 C 0.27594 0.5568 0.90532 0.0
C809 C 0.22253 0.60617 0.86917 0.0
C810 C 0.16065 0.5223 0.67887 0.0
C811 C 0.16482 0.5522 0.64685 0.0
C812 C 0.20397 0.57437 0.64324 0.0
C813 C 0.23741 0.56752 0.67248 0.0
C814 C 0.23177 0.53776 0.70491 0.0
C815 C 0.19346 0.51646 0.70797 0.0
C816 C 0.19089 0.48991 0.74675 0.0
C817 C 0.23171 0.50418 0.76883 0.0
C818 C 0.25904 0.52623 0.74153 0.0
C819 C 0.19324 0.44307 0.7336 0.0
C820 C 0.14868 0.50006 0.77048 0.0
H821 H 0.31632 0.63125 0.85971 0.0
H822 H 0.40792 0.50873 0.82489 0.0
H823 H 0.36771 0.57725 0.72234 0.0
H824 H 0.35294 0.52914 0.69575 0.0
H825 H 0.3993 0.53041 0.72888 0.0
H826 H 0.31929 0.47119 0.79609 0.0
H827 H 0.3704 0.46779 0.77093 0.0
H828 H 0.32332 0.4661 0.73944 0.0
H829 H 0.17929 0.55383 0.93142 0.0
H830 H 0.13123 0.43552 0.88247 0.0
H831 H 0.18818 0.43567 0.8285 0.0
H832 H 0.30132 0.53438 0.89597 0.0
H833 H 0.26168 0.54429 0.93499 0.0
H834 H 0.2895 0.58756 0.91497 0.0
H835 H 0.19481 0.60685 0.84764 0.0
H836 H 0.24531 0.63032 0.85791 0.0
H837 H 0.21176 0.61548 0.9013 0.0
H838 H 0.37343 0.61183 0.9082 0.0
C839 C 0.33693 0.6053 0.85166 0.0
C840 C 0.52145 0.38566 0.84081 0.0
C841 C 0.53089 0.38355 0.88505 0.0
C842 C 0.54285 0.34389 0.90159 0.0
C843 C 0.53788 0.3111 0.83262 0.0
C844 C 0.52502 0.3486 0.81515 0.0
C845 C 0.51178 0.34072 0.76929 0.0
H846 H 0.45442 0.15155 0.66264 0.0
C847 C 0.53452 0.27681 0.80155 0.0
C848 C 0.51811 0.29258 0.76373 0.0
H849 H 0.57083 0.21147 0.62457 0.0
H850 H 0.5597 0.26772 0.67854 0.0
H851 H 0.40412 0.15308 0.71401 0.0
H852 H 0.41024 0.27054 0.70774 0.0
H853 H 0.37887 0.24165 0.74544 0.0
H854 H 0.38279 0.22374 0.69149 0.0
H855 H 0.39965 0.16746 0.76728 0.0
H856 H 0.44871 0.14359 0.74672 0.0
C857 C 0.54093 0.36497 0.73881 0.0
C858 C 0.46526 0.3538 0.76298 0.0
C859 C 0.53686 0.12573 0.8423 0.0
C860 C 0.50343 0.10147 0.85833 0.0
C861 C 0.46122 0.11354 0.85115 0.0
C862 C 0.45254 0.15151 0.8307 0.0
C863 C 0.4861 0.17492 0.81385 0.0
C864 C 0.52752 0.16358 0.8222 0.0
C865 C 0.55645 0.20097 0.81852 0.0
C866 C 0.52389 0.2358 0.81347 0.0
C867 C 0.48514 0.21864 0.80006 0.0
C868 C 0.58411 0.19634 0.77849 0.0
C869 C 0.58454 0.20679 0.85775 0.0
C870 C 0.47679 0.17735 0.66504 0.0
C871 C 0.51343 0.17671 0.6399 0.0
C872 C 0.54228 0.21103 0.64363 0.0
C873 C 0.53571 0.24373 0.67385 0.0
C874 C 0.49915 0.24312 0.69933 0.0
C875 C 0.47015 0.21039 0.6942 0.0
C876 C 0.43914 0.21072 0.73007 0.0
C877 C 0.46607 0.23481 0.76251 0.0
C878 C 0.49032 0.26538 0.74038 0.0
C879 C 0.42257 0.16612 0.74084 0.0
C880 C 0.40064 0.23829 0.71796 0.0
H881 H 0.55276 0.27819 0.89055 0.0
H882 H 0.51067 0.41491 0.82692 0.0
H883 H 0.4442 0.33621 0.78509 0.0
H884 H 0.45497 0.34702 0.73014 0.0
H885 H 0.46114 0.38815 0.76884 0.0
H886 H 0.57455 0.35599 0.7438 0.0
H887 H 0.53795 0.39958 0.74382 0.0
H888 H 0.53254 0.35769 0.70554 0.0
H889 H 0.56914 0.11873 0.85134 0.0
H890 H 0.43545 0.09686 0.86662 0.0
H891 H 0.42078 0.16405 0.83176 0.0
H892 H 0.56422 0.19192 0.74993 0.0
H893 H 0.60534 0.16853 0.78127 0.0
H894 H 0.60408 0.2249 0.77374 0.0
H895 H 0.60805 0.1809 0.86025 0.0
H896 H 0.56507 0.20675 0.88708 0.0
H897 H 0.6027 0.23678 0.8555 0.0
H898 H 0.54949 0.34013 0.9349 0.0
C899 C 0.54568 0.30798 0.87595 0.0
C900 C 0.85084 0.53284 0.65075 0.0
C901 C 0.88478 0.55798 0.63284 0.0
C902 C 0.88776 0.60062 0.64477 0.0
C903 C 0.83493 0.59026 0.69785 0.0
C904 C 0.8246 0.551 0.68338 0.0
C905 C 0.78781 0.53399 0.71177 0.0
H906 H 0.7022 0.55961 0.91565 0.0
C907 C 0.81761 0.59666 0.73928 0.0
C908 C 0.78438 0.56815 0.74717 0.0
H909 H 0.62454 0.50917 0.81644 0.0
H910 H 0.68248 0.52377 0.76448 0.0
H911 H 0.77712 0.53033 0.90391 0.0
H912 H 0.71595 0.63588 0.87909 0.0
H913 H 0.76521 0.65795 0.86529 0.0
H914 H 0.75927 0.63335 0.91548 0.0
H915 H 0.80094 0.57652 0.9228 0.0
H916 H 0.82217 0.54915 0.87705 0.0
C917 C 0.79916 0.49071 0.73038 0.0
C918 C 0.74706 0.53146 0.68569 0.0
C919 C 0.91604 0.58189 0.85316 0.0
C920 C 0.90454 0.57898 0.8961 0.0
C921 C 0.8771 0.60963 0.9132 0.0
C922 C 0.85193 0.63329 0.88604 0.0
C923 C 0.85536 0.62525 0.84284 0.0
C924 C 0.89153 0.60745 0.82661 0.0
C925 C 0.88963 0.60681 0.77907 0.0
C926 C 0.8415 0.61258 0.77302 0.0
C927 C 0.82196 0.61728 0.81202 0.0
C928 C 0.90723 0.56464 0.76147 0.0
C929 C 0.91571 0.64475 0.76252 0.0
C930 C 0.69654 0.55126 0.88315 0.0
C931 C 0.65831 0.53297 0.8714 0.0
C932 C 0.65388 0.52287 0.82752 0.0
C933 C 0.6874 0.53101 0.79737 0.0
C934 C 0.7254 0.55055 0.81075 0.0
C935 C 0.7274 0.56174 0.85302 0.0
C936 C 0.76495 0.58753 0.86338 0.0
C937 C 0.78428 0.59401 0.82022 0.0
C938 C 0.76403 0.5696 0.78862 0.0
C939 C 0.79288 0.55994 0.89319 0.0
C940 C 0.7506 0.63068 0.88196 0.0
H941 H 0.86671 0.64936 0.68701 0.0
H942 H 0.84651 0.50028 0.64131 0.0
H943 H 0.73776 0.56331 0.67434 0.0
H944 H 0.72072 0.51821 0.7047 0.0
H945 H 0.7518 0.5107 0.65776 0.0
H946 H 0.82914 0.49267 0.7485 0.0
H947 H 0.80323 0.46695 0.70485 0.0
H948 H 0.7737 0.47962 0.75207 0.0
H949 H 0.94047 0.56169 0.84039 0.0
H950 H 0.87152 0.61192 0.94691 0.0
H951 H 0.82789 0.65354 0.89903 0.0
H952 H 0.88888 0.53738 0.77401 0.0
H953 H 0.94105 0.56072 0.76995 0.0
H954 H 0.90684 0.56343 0.72666 0.0
H955 H 0.94645 0.64702 0.77937 0.0
H956 H 0.89851 0.67498 0.76733 0.0
H957 H 0.92388 0.64141 0.72867 0.0
H958 H 0.91167 0.62067 0.63091 0.0
C959 C 0.86264 0.61704 0.6768 0.0
C960 C 0.51758 0.20567 0.37428 0.0
C961 C 0.52622 0.16133 0.36939 0.0
C962 C 0.53924 0.1474 0.32906 0.0
C963 C 0.53672 0.21892 0.30103 0.0
C964 C 0.52282 0.2339 0.33921 0.0
C965 C 0.51072 0.28054 0.33408 0.0
H966 H 0.45079 0.38705 0.14351 0.0
C967 C 0.53462 0.25234 0.26868 0.0
C968 C 0.5187 0.28979 0.28645 0.0
H969 H 0.57366 0.42142 0.19081 0.0
H970 H 0.56425 0.37184 0.25134 0.0
H971 H 0.39501 0.33961 0.15553 0.0
H972 H 0.41538 0.35444 0.26984 0.0
H973 H 0.3785 0.31765 0.24725 0.0
H974 H 0.38476 0.36973 0.22496 0.0
H975 H 0.39154 0.28683 0.17321 0.0
H976 H 0.43725 0.30538 0.14215 0.0
C977 C 0.53964 0.30849 0.3612 0.0
C978 C 0.46397 0.28697 0.34671 0.0
C979 C 0.52559 0.21204 0.11912 0.0
C980 C 0.49101 0.19156 0.1013 0.0
C981 C 0.44978 0.19787 0.11688 0.0
C982 C 0.44362 0.22192 0.15313 0.0
C983 C 0.47862 0.24137 0.17167 0.0
C984 C 0.51919 0.23391 0.15643 0.0
C985 C 0.55121 0.23798 0.19087 0.0
C986 C 0.52143 0.24215 0.22824 0.0
C987 C 0.48114 0.25517 0.21505 0.0
C988 C 0.57765 0.27839 0.18383 0.0
C989 C 0.58051 0.19926 0.19416 0.0
C990 C 0.47528 0.38472 0.16718 0.0
C991 C 0.51308 0.40752 0.16164 0.0
C992 C 0.54429 0.40395 0.19381 0.0
C993 C 0.53876 0.37628 0.22907 0.0
C994 C 0.50096 0.35305 0.23341 0.0
C995 C 0.46973 0.35835 0.20288 0.0
C996 C 0.43631 0.32552 0.20918 0.0
C997 C 0.46323 0.29273 0.23271 0.0
C998 C 0.49073 0.31465 0.26037 0.0
C999 C 0.41427 0.31291 0.16761 0.0
C1000 C 0.40188 0.34283 0.23959 0.0
H1001 H 0.55228 0.16295 0.26483 0.0
H1002 H 0.50622 0.21777 0.40421 0.0
H1003 H 0.44299 0.26661 0.32722 0.0
H1004 H 0.45448 0.32042 0.34208 0.0
H1005 H 0.45878 0.27882 0.38048 0.0
H1006 H 0.57342 0.30341 0.35263 0.0
H1007 H 0.53549 0.30103 0.39528 0.0
H1008 H 0.53209 0.34239 0.35622 0.0
H1009 H 0.55746 0.20405 0.1091 0.0
H1010 H 0.42351 0.17969 0.10448 0.0
H1011 H 0.41315 0.2212 0.16881 0.0
H1012 H 0.55691 0.30612 0.17864 0.0
H1013 H 0.59822 0.27502 0.15543 0.0
H1014 H 0.59818 0.28478 0.21152 0.0
H1015 H 0.60264 0.19774 0.16686 0.0
H1016 H 0.56181 0.16949 0.19449 0.0
H1017 H 0.60018 0.2013 0.22309 0.0
H1018 H 0.54561 0.1143 0.32334 0.0
C1019 C 0.544 0.17561 0.29521 0.0
C1020 C 0.87277 0.53273 0.34503 0.0
C1021 C 0.89802 0.50507 0.37101 0.0
C1022 C 0.88471 0.46271 0.3749 0.0
C1023 C 0.83411 0.4723 0.31928 0.0
C1024 C 0.83935 0.5151 0.31968 0.0
C1025 C 0.80736 0.53431 0.28788 0.0
H1026 H 0.69014 0.48769 0.10684 0.0
C1027 C 0.81025 0.45981 0.28224 0.0
C1028 C 0.78721 0.49457 0.26684 0.0
H1029 H 0.64014 0.57589 0.19742 0.0
H1030 H 0.69821 0.55701 0.2474 0.0
H1031 H 0.77103 0.5007 0.10445 0.0
H1032 H 0.69509 0.4183 0.1621 0.0
H1033 H 0.74209 0.38865 0.16077 0.0
H1034 H 0.72443 0.41458 0.11343 0.0
H1035 H 0.7872 0.44868 0.09775 0.0
H1036 H 0.81403 0.48364 0.13522 0.0
C1037 C 0.83089 0.56133 0.25492 0.0
C1038 C 0.77424 0.56057 0.31172 0.0
C1039 C 0.89938 0.42933 0.18092 0.0
C1040 C 0.88977 0.4385 0.13868 0.0
C1041 C 0.85917 0.41347 0.11846 0.0
C1042 C 0.82867 0.39335 0.1433 0.0
C1043 C 0.83137 0.39806 0.1871 0.0
C1044 C 0.87092 0.40411 0.2047 0.0
C1045 C 0.8664 0.40572 0.25207 0.0
C1046 C 0.82314 0.42764 0.2541 0.0
C1047 C 0.80336 0.42363 0.21468 0.0
C1048 C 0.90524 0.42772 0.27242 0.0
C1049 C 0.86261 0.36017 0.26928 0.0
C1050 C 0.69177 0.50449 0.13665 0.0
C1051 C 0.66119 0.53442 0.14673 0.0
C1052 C 0.66403 0.55346 0.18759 0.0
C1053 C 0.69784 0.54312 0.21629 0.0
C1054 C 0.72877 0.51302 0.20443 0.0
C1055 C 0.72321 0.49341 0.16572 0.0
C1056 C 0.75294 0.4581 0.15857 0.0
C1057 C 0.77395 0.45487 0.20151 0.0
C1058 C 0.76372 0.4896 0.22767 0.0
C1059 C 0.78313 0.47309 0.12244 0.0
C1060 C 0.72744 0.41766 0.14805 0.0
H1061 H 0.84416 0.41331 0.35163 0.0
H1062 H 0.87914 0.56631 0.3443 0.0
H1063 H 0.75513 0.5402 0.33316 0.0
H1064 H 0.75271 0.57656 0.28935 0.0
H1065 H 0.78996 0.58535 0.331 0.0
H1066 H 0.85528 0.5422 0.23827 0.0
H1067 H 0.84683 0.58859 0.27026 0.0
H1068 H 0.80841 0.57364 0.23101 0.0
H1069 H 0.92508 0.44613 0.19573 0.0
H1070 H 0.85467 0.41472 0.08458 0.0
H1071 H 0.80167 0.37911 0.12822 0.0
H1072 H 0.9042 0.46258 0.26876 0.0
H1073 H 0.9348 0.4159 0.25789 0.0
H1074 H 0.90988 0.41854 0.30565 0.0
H1075 H 0.89217 0.34231 0.26265 0.0
H1076 H 0.83581 0.34272 0.25467 0.0
H1077 H 0.85731 0.36025 0.30391 0.0
H1078 H 0.9004 0.44165 0.39679 0.0
C1079 C 0.85221 0.44644 0.3498 0.0
C1080 C 0.51596 0.66911 0.18744 0.0
C1081 C 0.52422 0.67567 0.14317 0.0
C1082 C 0.53358 0.71718 0.12994 0.0
C1083 C 0.52928 0.74306 0.20216 0.0
C1084 C 0.51852 0.7037 0.21643 0.0
C1085 C 0.50642 0.70675 0.2634 0.0
H1086 H 0.43904 0.89323 0.37418 0.0
C1087 C 0.52562 0.7739 0.23664 0.0
C1088 C 0.5117 0.7544 0.27396 0.0
H1089 H 0.56598 0.85347 0.40265 0.0
H1090 H 0.5579 0.79158 0.35477 0.0
H1091 H 0.37821 0.87289 0.33091 0.0
H1092 H 0.41202 0.76249 0.34306 0.0
H1093 H 0.37189 0.78212 0.30828 0.0
H1094 H 0.3779 0.80392 0.36058 0.0
H1095 H 0.37788 0.85777 0.27692 0.0
H1096 H 0.41877 0.89314 0.29849 0.0
C1097 C 0.53695 0.68043 0.29022 0.0
C1098 C 0.46045 0.6915 0.2699 0.0
C1099 C 0.51748 0.92738 0.21664 0.0
C1100 C 0.48377 0.94824 0.19802 0.0
C1101 C 0.44211 0.93315 0.20226 0.0
C1102 C 0.43508 0.89342 0.21967 0.0
C1103 C 0.46952 0.87129 0.23598 0.0
C1104 C 0.51029 0.88672 0.2307 0.0
C1105 C 0.54148 0.85165 0.22653 0.0
C1106 C 0.51146 0.81437 0.22862 0.0
C1107 C 0.47123 0.82637 0.24379 0.0
C1108 C 0.57258 0.85315 0.26387 0.0
C1109 C 0.56612 0.85327 0.18434 0.0
C1110 C 0.46479 0.87095 0.37097 0.0
C1111 C 0.50335 0.87924 0.39133 0.0
C1112 C 0.53604 0.84855 0.38684 0.0
C1113 C 0.53131 0.81239 0.36023 0.0
C1114 C 0.49299 0.80569 0.3388 0.0
C1115 C 0.46008 0.83426 0.34573 0.0
C1116 C 0.426 0.82546 0.31449 0.0
C1117 C 0.4538 0.80521 0.28001 0.0
C1118 C 0.4831 0.77836 0.30044 0.0
C1119 C 0.39914 0.86463 0.30382 0.0
C1120 C 0.39535 0.79152 0.33263 0.0
H1121 H 0.54072 0.78197 0.14692 0.0
H1122 H 0.50707 0.63817 0.199 0.0
H1123 H 0.43834 0.71048 0.25039 0.0
H1124 H 0.45089 0.69457 0.30359 0.0
H1125 H 0.45708 0.6578 0.26069 0.0
H1126 H 0.57018 0.69094 0.28501 0.0
H1127 H 0.53465 0.64643 0.2818 0.0
H1128 H 0.52932 0.68402 0.32434 0.0
H1129 H 0.54967 0.9378 0.21045 0.0
H1130 H 0.41639 0.94872 0.18598 0.0
H1131 H 0.40437 0.87876 0.21628 0.0
H1132 H 0.55544 0.85725 0.29413 0.0
H1133 H 0.59455 0.88034 0.26047 0.0
H1134 H 0.59184 0.82389 0.26536 0.0
H1135 H 0.5869 0.88156 0.18262 0.0
H1136 H 0.54403 0.85442 0.15713 0.0
H1137 H 0.58713 0.82537 0.18136 0.0
H1138 H 0.53898 0.72414 0.09686 0.0
C1139 C 0.53549 0.75063 0.1589 0.0
C1140 C 0.3957 0.50637 0.19385 0.0
C1141 C 0.39494 0.49381 0.15038 0.0
C1142 C 0.36734 0.46085 0.13884 0.0
C1143 C 0.33564 0.46112 0.2085 0.0
C1144 C 0.36566 0.48874 0.22279 0.0
C1145 C 0.35457 0.50101 0.26812 0.0
H1146 H 0.17049 0.56496 0.36952 0.0
C1147 C 0.29766 0.46414 0.23517 0.0
C1148 C 0.30889 0.48346 0.27425 0.0
H1149 H 0.20922 0.44235 0.41225 0.0
H1150 H 0.27003 0.44387 0.36106 0.0
H1151 H 0.20821 0.61858 0.32294 0.0
H1152 H 0.16826 0.51396 0.26598 0.0
H1153 H 0.15748 0.57009 0.25922 0.0
H1154 H 0.14731 0.54418 0.30593 0.0
H1155 H 0.21941 0.61996 0.26714 0.0
H1156 H 0.26075 0.60905 0.3042 0.0
C1157 C 0.35769 0.54939 0.27394 0.0
C1158 C 0.38461 0.47861 0.29883 0.0
C1159 C 0.15608 0.4919 0.16993 0.0
C1160 C 0.13499 0.53017 0.1634 0.0
C1161 C 0.1547 0.56905 0.17211 0.0
C1162 C 0.19448 0.5695 0.19083 0.0
C1163 C 0.21345 0.53091 0.19925 0.0
C1164 C 0.19651 0.49325 0.18626 0.0
C1165 C 0.22608 0.45725 0.19392 0.0
C1166 C 0.26237 0.48135 0.21442 0.0
C1167 C 0.24895 0.52208 0.22538 0.0
C1168 C 0.23663 0.43566 0.15161 0.0
C1169 C 0.20648 0.42555 0.22513 0.0
C1170 C 0.19222 0.53855 0.36861 0.0
C1171 C 0.18407 0.50338 0.39358 0.0
C1172 C 0.21383 0.46969 0.3922 0.0
C1173 C 0.24898 0.47067 0.36339 0.0
C1174 C 0.25346 0.50501 0.33532 0.0
C1175 C 0.22305 0.53643 0.33668 0.0
C1176 C 0.21704 0.5561 0.29429 0.0
C1177 C 0.25113 0.53339 0.26845 0.0
C1178 C 0.27695 0.50888 0.29428 0.0
C1179 C 0.22671 0.60365 0.29713 0.0
C1180 C 0.17066 0.54586 0.28015 0.0
H1181 H 0.31796 0.41902 0.15794 0.0
H1182 H 0.41754 0.53055 0.20426 0.0
H1183 H 0.3831 0.44377 0.29452 0.0
H1184 H 0.37574 0.48596 0.33204 0.0
H1185 H 0.41785 0.48896 0.2934 0.0
H1186 H 0.33726 0.56597 0.25078 0.0
H1187 H 0.39077 0.56054 0.26934 0.0
H1188 H 0.34764 0.55865 0.30633 0.0
H1189 H 0.14248 0.46211 0.1598 0.0
H1190 H 0.13984 0.59856 0.16342 0.0
H1191 H 0.20909 0.59883 0.20018 0.0
H1192 H 0.25691 0.45627 0.13153 0.0
H1193 H 0.20733 0.42858 0.13363 0.0
H1194 H 0.25193 0.40467 0.15692 0.0
H1195 H 0.19867 0.44122 0.25559 0.0
H1196 H 0.22922 0.3997 0.23172 0.0
H1197 H 0.17715 0.41143 0.21194 0.0
H1198 H 0.36766 0.44822 0.10703 0.0
C1199 C 0.3383 0.44425 0.16779 0.0
C1200 C 0.85538 0.6737 0.50156 0.0
C1201 C 0.88782 0.65593 0.47437 0.0
C1202 C 0.88486 0.66316 0.43059 0.0
C1203 C 0.83003 0.71415 0.44289 0.0
C1204 C 0.825 0.70262 0.48409 0.0
C1205 C 0.78917 0.73082 0.50326 0.0
H1206 H 0.70029 0.93244 0.47901 0.0
C1207 C 0.81183 0.75534 0.43668 0.0
C1208 C 0.78094 0.76384 0.46767 0.0
H1209 H 0.62227 0.83332 0.53033 0.0
H1210 H 0.67963 0.78109 0.51441 0.0
H1211 H 0.77422 0.91923 0.51005 0.0
H1212 H 0.71464 0.89633 0.40329 0.0
H1213 H 0.76456 0.88694 0.38124 0.0
H1214 H 0.75591 0.93523 0.40924 0.0
H1215 H 0.79945 0.93883 0.46516 0.0
H1216 H 0.81846 0.89131 0.49192 0.0
C1217 C 0.80403 0.75244 0.54407 0.0
C1218 C 0.74957 0.70386 0.51151 0.0
C1219 C 0.90791 0.86381 0.45776 0.0
C1220 C 0.8963 0.90594 0.46485 0.0
C1221 C 0.87301 0.92699 0.43347 0.0
C1222 C 0.84929 0.90298 0.40525 0.0
C1223 C 0.85168 0.8591 0.40861 0.0
C1224 C 0.8872 0.841 0.42577 0.0
C1225 C 0.88413 0.7937 0.42216 0.0
C1226 C 0.83566 0.78911 0.42033 0.0
C1227 C 0.81745 0.82891 0.4179 0.0
C1228 C 0.90645 0.77207 0.45994 0.0
C1229 C 0.90482 0.78043 0.38007 0.0
C1230 C 0.6943 0.89994 0.4874 0.0
C1231 C 0.65621 0.88838 0.50627 0.0
C1232 C 0.65154 0.84438 0.51622 0.0
C1233 C 0.68472 0.81408 0.50739 0.0
C1234 C 0.72276 0.82747 0.48757 0.0
C1235 C 0.72486 0.86976 0.47664 0.0
C1236 C 0.76265 0.88048 0.45136 0.0
C1237 C 0.78112 0.83733 0.44318 0.0
C1238 C 0.76114 0.80552 0.46764 0.0
C1239 C 0.79044 0.9088 0.48055 0.0
C1240 C 0.74887 0.90112 0.40925 0.0
H1241 H 0.85595 0.69995 0.38143 0.0
H1242 H 0.85511 0.66681 0.53504 0.0
H1243 H 0.73801 0.68949 0.48165 0.0
H1244 H 0.72382 0.72332 0.52522 0.0
H1245 H 0.75683 0.67801 0.53407 0.0
H1246 H 0.83262 0.77201 0.53803 0.0
H1247 H 0.81181 0.72857 0.56853 0.0
H1248 H 0.77881 0.77338 0.55674 0.0
H1249 H 0.92883 0.84847 0.47977 0.0
H1250 H 0.86714 0.96053 0.43512 0.0
H1251 H 0.82674 0.91846 0.38514 0.0
H1252 H 0.88997 0.77912 0.49014 0.0
H1253 H 0.9399 0.78247 0.46215 0.0
H1254 H 0.90933 0.73787 0.4562 0.0
H1255 H 0.93629 0.7955 0.37677 0.0
H1256 H 0.88525 0.79022 0.35267 0.0
H1257 H 0.91022 0.74601 0.37826 0.0
H1258 H 0.90682 0.64822 0.40887 0.0
C1259 C 0.85586 0.69219 0.4147 0.0
C1260 C 0.86261 0.37517 0.50368 0.0
C1261 C 0.89227 0.39771 0.53009 0.0
C1262 C 0.88723 0.39478 0.57417 0.0
C1263 C 0.83518 0.34033 0.56563 0.0
C1264 C 0.83277 0.34662 0.52307 0.0
C1265 C 0.7984 0.31603 0.50557 0.0
H1266 H 0.69572 0.12376 0.5519 0.0
C1267 C 0.81522 0.30086 0.57668 0.0
C1268 C 0.78732 0.28803 0.54469 0.0
H1269 H 0.63834 0.21554 0.47012 0.0
H1270 H 0.69582 0.26665 0.48716 0.0
H1271 H 0.77609 0.12392 0.5358 0.0
H1272 H 0.70377 0.18143 0.62336 0.0
H1273 H 0.75243 0.17859 0.64992 0.0
H1274 H 0.73108 0.13181 0.62535 0.0
H1275 H 0.79312 0.11608 0.58773 0.0
H1276 H 0.81982 0.15385 0.55331 0.0
C1277 C 0.81651 0.28919 0.46936 0.0
C1278 C 0.76022 0.34192 0.49078 0.0
C1279 C 0.9152 0.18992 0.59913 0.0
C1280 C 0.90432 0.1471 0.59725 0.0
C1281 C 0.87085 0.13216 0.62281 0.0
C1282 C 0.8411 0.16074 0.63821 0.0
C1283 C 0.84573 0.20299 0.62659 0.0
C1284 C 0.88505 0.21826 0.61514 0.0
C1285 C 0.88323 0.26496 0.60715 0.0
C1286 C 0.83496 0.27018 0.60179 0.0
C1287 C 0.81433 0.2318 0.60877 0.0
C1288 C 0.90988 0.27658 0.5674 0.0
C1289 C 0.90044 0.28756 0.64676 0.0
C1290 C 0.69568 0.15416 0.53613 0.0
C1291 C 0.66305 0.16433 0.50844 0.0
C1292 C 0.66372 0.20581 0.49079 0.0
C1293 C 0.69712 0.2353 0.5002 0.0
C1294 C 0.72989 0.22371 0.52816 0.0
C1295 C 0.72702 0.18394 0.54638 0.0
C1296 C 0.75891 0.17695 0.57992 0.0
C1297 C 0.78001 0.22015 0.58208 0.0
C1298 C 0.76567 0.24756 0.54972 0.0
C1299 C 0.7887 0.14111 0.56372 0.0
C1300 C 0.73554 0.16639 0.62188 0.0
H1301 H 0.85595 0.36364 0.62604 0.0
H1302 H 0.86361 0.37874 0.4697 0.0
H1303 H 0.74482 0.3581 0.51794 0.0
H1304 H 0.73658 0.32164 0.47499 0.0
H1305 H 0.77046 0.36632 0.46762 0.0
H1306 H 0.84474 0.27137 0.48011 0.0
H1307 H 0.82602 0.30952 0.44231 0.0
H1308 H 0.79247 0.26612 0.45819 0.0
H1309 H 0.94362 0.20091 0.58353 0.0
H1310 H 0.8646 0.09868 0.62629 0.0
H1311 H 0.81304 0.1487 0.65334 0.0
H1312 H 0.89792 0.25973 0.53904 0.0
H1313 H 0.94376 0.26873 0.57204 0.0
H1314 H 0.91053 0.31062 0.56072 0.0
H1315 H 0.92967 0.27184 0.65829 0.0
H1316 H 0.87679 0.28736 0.67288 0.0
H1317 H 0.90978 0.3205 0.63985 0.0
H1318 H 0.9068 0.41357 0.59485 0.0
C1319 C 0.8584 0.3666 0.59209 0.0
C1320 C 0.39106 0.85171 0.51599 0.0
C1321 C 0.3876 0.89338 0.499 0.0
C1322 C 0.35499 0.90142 0.46988 0.0
C1323 C 0.32538 0.83212 0.48263 0.0
C1324 C 0.35945 0.8212 0.50666 0.0
C1325 C 0.35265 0.77686 0.52399 0.0
H1326 H 0.15679 0.67383 0.56754 0.0
C1327 C 0.2907 0.80239 0.49063 0.0
C1328 C 0.30723 0.76584 0.50925 0.0
H1329 H 0.20046 0.65234 0.44036 0.0
H1330 H 0.26439 0.69665 0.4541 0.0
H1331 H 0.23846 0.67826 0.63352 0.0
H1332 H 0.16135 0.75422 0.58996 0.0
H1333 H 0.19356 0.76368 0.63758 0.0
H1334 H 0.17157 0.7138 0.62696 0.0
H1335 H 0.2655 0.72721 0.64475 0.0
H1336 H 0.28459 0.69276 0.60385 0.0
C1337 C 0.35716 0.77696 0.57256 0.0
C1338 C 0.38451 0.74618 0.50395 0.0
C1339 C 0.14501 0.85565 0.51241 0.0
C1340 C 0.12465 0.8677 0.54943 0.0
C1341 C 0.14093 0.85723 0.58927 0.0
C1342 C 0.17831 0.8341 0.59167 0.0
C1343 C 0.1974 0.82065 0.55414 0.0
C1344 C 0.18355 0.83576 0.51579 0.0
C1345 C 0.21915 0.84137 0.48518 0.0
C1346 C 0.25335 0.81807 0.50885 0.0
C1347 C 0.23883 0.80261 0.54841 0.0
C1348 C 0.22854 0.88939 0.47983 0.0
C1349 C 0.20892 0.81996 0.44279 0.0
C1350 C 0.18013 0.67832 0.54279 0.0
C1351 C 0.17285 0.66105 0.50273 0.0
C1352 C 0.20462 0.6665 0.47121 0.0
C1353 C 0.24179 0.6907 0.47921 0.0
C1354 C 0.24828 0.70769 0.51968 0.0
C1355 C 0.21763 0.70109 0.55063 0.0
C1356 C 0.22667 0.7291 0.58739 0.0
C1357 C 0.25318 0.76265 0.56377 0.0
C1358 C 0.27887 0.7411 0.53442 0.0
C1359 C 0.2555 0.70548 0.61907 0.0
C1360 C 0.18603 0.74184 0.61138 0.0
H1361 H 0.30095 0.87646 0.43738 0.0
H1362 H 0.41664 0.84377 0.53716 0.0
H1363 H 0.38186 0.74648 0.46893 0.0
H1364 H 0.37844 0.71346 0.51519 0.0
H1365 H 0.41745 0.75512 0.51245 0.0
H1366 H 0.33491 0.79993 0.58715 0.0
H1367 H 0.38985 0.78582 0.58195 0.0
H1368 H 0.35039 0.74512 0.58573 0.0
H1369 H 0.13507 0.86815 0.48211 0.0
H1370 H 0.12686 0.86984 0.61789 0.0
H1371 H 0.19335 0.82959 0.62182 0.0
H1372 H 0.25323 0.90032 0.50224 0.0
H1373 H 0.20044 0.90955 0.4857 0.0
H1374 H 0.23788 0.89731 0.44702 0.0
H1375 H 0.2028 0.78571 0.4475 0.0
H1376 H 0.236 0.82327 0.42051 0.0
H1377 H 0.18068 0.83453 0.428 0.0
H1378 H 0.35305 0.93162 0.45397 0.0
C1379 C 0.32453 0.87049 0.46095 0.0
C1380 C 0.39347 0.21195 0.53722 0.0
C1381 C 0.39903 0.17115 0.5559 0.0
C1382 C 0.37801 0.16272 0.5944 0.0
C1383 C 0.33626 0.22545 0.58573 0.0
C1384 C 0.36225 0.23979 0.55424 0.0
C1385 C 0.34352 0.28088 0.53698 0.0
H1386 H 0.14294 0.36398 0.49809 0.0
C1387 C 0.29441 0.24347 0.57882 0.0
C1388 C 0.29933 0.28338 0.55878 0.0
H1389 H 0.21499 0.43611 0.58704 0.0
H1390 H 0.27164 0.38071 0.58611 0.0
H1391 H 0.1902 0.32928 0.43746 0.0
H1392 H 0.15487 0.2583 0.53856 0.0
H1393 H 0.14393 0.25246 0.48288 0.0
H1394 H 0.12844 0.29756 0.5092 0.0
H1395 H 0.19833 0.27363 0.43034 0.0
H1396 H 0.24148 0.30765 0.44358 0.0
C1397 C 0.34055 0.27907 0.48831 0.0
C1398 C 0.37079 0.31863 0.55069 0.0
C1399 C 0.184 0.13191 0.54625 0.0
C1400 C 0.15515 0.12979 0.51298 0.0
C1401 C 0.15821 0.15725 0.47839 0.0
C1402 C 0.18884 0.18887 0.47837 0.0
C1403 C 0.21203 0.19495 0.51515 0.0
C1404 C 0.21257 0.1652 0.5466 0.0
C1405 C 0.24763 0.17273 0.57742 0.0
C1406 C 0.26252 0.21638 0.56244 0.0
C1407 C 0.23933 0.2291 0.52718 0.0
C1408 C 0.27985 0.13633 0.57119 0.0
C1409 C 0.23012 0.17453 0.62286 0.0
C1410 C 0.17004 0.36747 0.51825 0.0
C1411 C 0.17302 0.40307 0.54379 0.0
C1412 C 0.21097 0.4083 0.56756 0.0
C1413 C 0.24368 0.37693 0.56685 0.0
C1414 C 0.2386 0.34064 0.54157 0.0
C1415 C 0.20169 0.33648 0.5185 0.0
C1416 C 0.19857 0.29457 0.49714 0.0
C1417 C 0.23586 0.27208 0.51727 0.0
C1418 C 0.26316 0.30027 0.53726 0.0
C1419 C 0.20731 0.3013 0.44954 0.0
C1420 C 0.15456 0.27452 0.50745 0.0
H1421 H 0.32816 0.18144 0.63703 0.0
H1422 H 0.41065 0.22041 0.5088 0.0
H1423 H 0.37341 0.31988 0.58569 0.0
H1424 H 0.35643 0.34869 0.53973 0.0
H1425 H 0.40322 0.31614 0.53716 0.0
H1426 H 0.32168 0.25121 0.47815 0.0
H1427 H 0.37254 0.27678 0.47377 0.0
H1428 H 0.3253 0.30804 0.47578 0.0
H1429 H 0.183 0.10945 0.57208 0.0
H1430 H 0.13682 0.15418 0.45199 0.0
H1431 H 0.19254 0.20898 0.45126 0.0
H1432 H 0.30334 0.1442 0.54614 0.0
H1433 H 0.26431 0.10635 0.56148 0.0
H1434 H 0.29583 0.12785 0.60103 0.0
H1435 H 0.20384 0.19773 0.62526 0.0
H1436 H 0.25517 0.18433 0.64527 0.0
H1437 H 0.218 0.14312 0.63294 0.0
H1438 H 0.38357 0.13345 0.61118 0.0
C1439 C 0.34676 0.19015 0.60966 0.0
C1440 C 0.9993 0.92059 0.6446 0.0
C1441 C 0.99979 0.90409 0.43431 0.0
C1442 C 0.02427 0.1225 0.6281 0.0
C1443 C 1.00486 0.10736 0.41849 0.0
C1444 C 0.92487 0.11877 0.56696 0.0
C1445 C 0.90575 0.92666 0.50523 0.0
C1446 C 0.12018 0.10126 0.51619 0.0
C1447 C 0.09604 0.90198 0.54552 0.0
C1448 C 0.10973 1.00494 0.42264 0.0
C1449 C 0.90841 0.03569 0.42864 0.0
C1450 C 0.11674 1.00687 0.63204 0.0
C1451 C 0.91457 1.00668 0.64069 0.0
Eu1452 Eu 1.00054 0.93442 0.53787 0.0
O1453 O 0.96944 0.97946 0.49859 0.0
O1454 O 0.04421 0.97503 0.57056 0.0
Eu1455 Eu 0.92971 1.02105 0.53418 0.0
Eu1456 Eu 0.08846 1.0045 0.52831 0.0
O1457 O 0.97004 0.98295 0.57363 0.0
O1458 O 0.04141 0.9688 0.49423 0.0
Eu1459 Eu 1.01397 1.01889 0.61255 0.0
Eu1460 Eu 1.00683 1.00776 0.44949 0.0
O1461 O 0.97961 0.05388 0.56588 0.0
O1462 O 0.97411 0.05175 0.49177 0.0
O1463 O 0.04851 0.04362 0.48969 0.0
O1464 O 0.05254 0.04967 0.56478 0.0
Eu1465 Eu 1.01695 0.09263 0.52511 0.0
O1466 O 0.99068 0.90607 0.60537 0.0
O1467 O 1.00165 0.89599 0.47611 0.0
O1468 O 0.02818 0.13111 0.58643 0.0
O1469 O 1.00758 0.1232 0.45823 0.0
O1470 O 0.90552 0.08195 0.56041 0.0
O1471 O 0.89186 0.96594 0.51032 0.0
O1472 O 0.12962 0.06142 0.52478 0.0
O1473 O 0.1137 0.93871 0.53471 0.0
O1474 O 0.06904 1.00628 0.41091 0.0
O1475 O 0.94405 1.01732 0.41525 0.0
O1476 O 0.07773 1.01453 0.64664 0.0
O1477 O 0.95338 1.01912 0.65137 0.0
O1478 O 0.08196 0.11853 0.51325 0.0
O1479 O 0.96162 0.13102 0.54974 0.0
O1480 O 0.0554 0.89283 0.54883 0.0
O1481 O 0.93466 0.90906 0.52986 0.0
O1482 O 0.9996 0.9429 0.41761 0.0
O1483 O 1.00679 0.06653 0.40883 0.0
O1484 O 1.01194 0.95981 0.65322 0.0
O1485 O 1.01687 0.08402 0.64391 0.0
O1486 O 0.90059 1.00296 0.60027 0.0
O1487 O 0.89852 0.04191 0.4701 0.0
O1488 O 0.12646 1.00257 0.59071 0.0
O1489 O 0.12255 1.00262 0.46322 0.0
C1490 C 0.49407 0.96701 0.15837 0.0
C1491 C 0.49986 0.15162 0.08232 0.0
C1492 C 0.50792 0.89018 0.96897 0.0
C1493 C 0.5114 0.07939 0.89722 0.0
C1494 C 0.61992 0.99103 0.93432 0.0
C1495 C 0.61485 0.05337 0.12651 0.0
C1496 C 0.40857 0.98995 0.92765 0.0
C1497 C 0.402 0.04581 0.1229 0.0
C1498 C 0.40871 0.12004 0.99814 0.0
C1499 C 0.62176 0.11186 1.00009 0.0
C1500 C 0.40134 0.92473 0.05343 0.0
C1501 C 0.61317 0.92065 0.06374 0.0
Eu1502 Eu 0.50871 0.04903 0.10225 0.0
O1503 O 0.54983 0.06825 0.05143 0.0
O1504 O 0.47165 0.99964 0.07318 0.0
Eu1505 Eu 0.59166 1.01779 0.03126 0.0
Eu1506 Eu 0.42946 1.02147 0.02473 0.0
O1507 O 0.54636 0.99687 0.07834 0.0
O1508 O 0.4735 0.06845 0.0478 0.0
Eu1509 Eu 0.50788 0.94502 0.05582 0.0
Eu1510 Eu 0.51425 0.09506 0.9999 0.0
O1511 O 0.54831 0.97097 1.00699 0.0
O1512 O 0.55155 0.04147 0.98138 0.0
O1513 O 0.47539 0.04324 0.97847 0.0
O1514 O 0.47329 0.9733 1.00438 0.0
Eu1515 Eu 0.51351 0.99305 0.95275 0.0
O1516 O 0.49934 1.00828 0.1578 0.0
O1517 O 0.50138 0.1193 0.10925 0.0
O1518 O 0.51506 0.92306 0.94363 0.0
O1519 O 0.50807 0.0376 0.89781 0.0
O1520 O 0.63073 0.9977 0.97436 0.0
O1521 O 0.62796 0.0402 0.08876 0.0
O1522 O 0.39478 1.00801 0.96314 0.0
O1523 O 0.39097 0.03137 0.08497 0.0
O1524 O 0.44956 0.12868 0.98822 0.0
O1525 O 0.58159 0.12641 0.99661 0.0
O1526 O 0.44127 0.91408 0.06442 0.0
O1527 O 0.5719 0.90902 0.06572 0.0
O1528 O 0.4494 0.98005 0.9196 0.0
O1529 O 0.57967 0.98938 0.92012 0.0
O1530 O 0.44195 0.05676 0.13377 0.0
O1531 O 0.57352 0.05772 0.13765 0.0
O1532 O 0.50642 0.15093 0.04113 0.0
O1533 O 0.51662 0.10501 0.93008 0.0
O1534 O 0.49798 0.93972 0.1263 0.0
O1535 O 0.50233 0.89066 1.01058 0.0
O1536 O 0.62661 0.95915 0.05324 0.0
O1537 O 0.63203 0.07257 1.01018 0.0
O1538 O 0.39054 0.96173 0.03659 0.0
O1539 O 0.39495 0.08333 1.01352 0.0
C1540 C 1.00462 0.41695 0.13617 0.0
C1541 C 1.00999 0.40578 0.93131 0.0
C1542 C 0.99166 0.62674 0.12412 0.0
C1543 C 1.01275 0.61564 0.92147 0.0
C1544 C 0.90421 0.61722 0.04148 0.0
C1545 C 0.91447 0.40632 1.00967 0.0
C1546 C 0.10773 0.62502 0.03058 0.0
C1547 C 0.1154 0.41517 0.03361 0.0
C1548 C 0.11561 0.50059 0.93676 0.0
C1549 C 0.92131 0.5454 0.92309 0.0
C1550 C 0.10227 0.52916 0.13296 0.0
C1551 C 0.90952 0.47439 0.11655 0.0
Eu1552 Eu 1.01185 0.43454 0.03238 0.0
O1553 O 0.9745 0.47433 0.98998 0.0
O1554 O 0.0445 0.48128 0.07083 0.0
Eu1555 Eu 0.92824 0.51299 0.02241 0.0
Eu1556 Eu 0.08671 0.51909 0.03274 0.0
O1557 O 0.97332 0.48197 0.06145 0.0
O1558 O 0.04885 0.47771 0.99518 0.0
Eu1559 Eu 1.00224 0.52073 0.1081 0.0
Eu1560 Eu 1.01362 0.51151 0.94835 0.0
O1561 O 0.96607 0.55443 0.06171 0.0
O1562 O 0.97439 0.54902 0.98873 0.0
O1563 O 0.04687 0.5541 0.99043 0.0
O1564 O 0.04145 0.55738 0.06603 0.0
Eu1565 Eu 1.0056 0.59738 0.02457 0.0
O1566 O 1.00567 0.40103 0.09696 0.0
O1567 O 1.01643 0.39566 0.97172 0.0
O1568 O 1.00078 0.63638 0.08417 0.0
O1569 O 1.00401 0.62988 0.96028 0.0
O1570 O 0.89355 0.57551 0.04284 0.0
O1571 O 0.90124 0.44654 1.00225 0.0
O1572 O 0.12039 0.58433 0.03192 0.0
O1573 O 0.12539 0.45667 0.03406 0.0
O1574 O 0.07722 0.49844 0.91998 0.0
O1575 O 0.95652 0.52664 0.90986 0.0
O1576 O 0.06207 0.52907 0.14566 0.0
O1577 O 0.94137 0.49449 0.13572 0.0
O1578 O 0.06714 0.63676 0.02742 0.0
O1579 O 0.9421 0.63158 0.02917 0.0
O1580 O 0.07574 0.40039 0.03425 0.0
O1581 O 0.95141 0.39631 0.02701 0.0
O1582 O 1.00511 0.44562 0.91689 0.0
O1583 O 1.02032 0.57474 0.91181 0.0
O1584 O 1.00566 0.45857 0.14505 0.0
O1585 O 0.98914 0.5868 0.1394 0.0
O1586 O 0.89564 0.48236 0.07765 0.0
O1587 O 0.90338 0.54036 0.96116 0.0
O1588 O 0.11735 0.52431 0.09435 0.0
O1589 O 0.12575 0.5123 0.9755 0.0
C1590 C 0.51834 0.43656 0.12386 0.0
C1591 C 0.52263 0.64051 0.11044 0.0
C1592 C 0.52754 0.42075 0.91525 0.0
C1593 C 0.51016 0.62587 0.90066 0.0
C1594 C 0.62386 0.52885 0.90527 0.0
C1595 C 0.62603 0.54071 0.1147 0.0
C1596 C 0.42179 0.54159 0.90674 0.0
C1597 C 0.42341 0.51227 0.11685 0.0
C1598 C 0.42122 0.62417 0.04541 0.0
C1599 C 0.61085 0.62721 0.97725 0.0
C1600 C 0.42593 0.43266 0.98084 0.0
C1601 C 0.62214 0.4381 0.03494 0.0
Eu1602 Eu 0.52229 0.53685 0.09295 0.0
O1603 O 0.55763 0.57435 0.04707 0.0
O1604 O 0.48432 0.4957 0.05257 0.0
Eu1605 Eu 0.59972 0.53459 1.01095 0.0
Eu1606 Eu 0.44133 0.52932 1.01196 0.0
O1607 O 0.55822 0.49856 0.05047 0.0
O1608 O 0.4846 0.56816 0.04596 0.0
Eu1609 Eu 0.52178 0.45168 1.01747 0.0
Eu1610 Eu 0.51701 0.61236 1.00646 0.0
O1611 O 0.55947 0.49188 0.97601 0.0
O1612 O 0.55405 0.56567 0.97304 0.0
O1613 O 0.48196 0.56573 0.97113 0.0
O1614 O 0.48598 0.49231 0.97758 0.0
Eu1615 Eu 0.52124 0.52555 0.93019 0.0
O1616 O 0.52748 0.47681 0.13268 0.0
O1617 O 0.51703 0.60125 0.12502 0.0
O1618 O 0.52095 0.45946 0.89934 0.0
O1619 O 0.52221 0.58647 0.89147 0.0
O1620 O 0.63557 0.53204 0.9463 0.0
O1621 O 0.63719 0.5391 0.07353 0.0
O1622 O 0.40994 0.54688 0.94762 0.0
O1623 O 0.41131 0.50877 0.076 0.0
O1624 O 0.45646 0.64216 0.03032 0.0
O1625 O 0.57299 0.6448 0.9765 0.0
O1626 O 0.46281 0.4176 0.99483 0.0
O1627 O 0.58326 0.4223 0.03381 0.0
O1628 O 0.45946 0.52745 0.89425 0.0
O1629 O 0.58364 0.52572 0.89267 0.0
O1630 O 0.46065 0.52767 0.12951 0.0
O1631 O 0.58585 0.54079 0.1285 0.0
O1632 O 0.52745 0.65041 0.06894 0.0
O1633 O 0.50169 0.64026 0.9401 0.0
O1634 O 0.51084 0.42173 0.08441 0.0
O1635 O 0.53182 0.41244 0.95682 0.0
O1636 O 0.6352 0.4763 0.02382 0.0
O1637 O 0.62145 0.60111 1.00798 0.0
O1638 O 0.4102 0.47068 0.98896 0.0
O1639 O 0.40699 0.58583 0.03584 0.0
C1640 C 1.01698 0.4545 0.62931 0.0
C1641 C 0.06389 0.41577 0.43398 0.0
C1642 C 1.01607 0.65183 0.58443 0.0
C1643 C 0.06986 0.60978 0.39775 0.0
C1644 C 0.92378 0.62795 0.4883 0.0
C1645 C 0.92699 0.42722 0.51569 0.0
C1646 C 0.13657 0.63098 0.49767 0.0
C1647 C 0.13755 0.43491 0.54129 0.0
C1648 C 0.14544 0.50485 0.42138 0.0
C1649 C 0.9327 0.51844 0.40101 0.0
C1650 C 0.13093 0.55415 0.61412 0.0
C1651 C 0.91988 0.54339 0.60386 0.0
Eu1652 Eu 0.03177 0.4525 0.52555 0.0
O1653 O 0.99657 0.48484 0.47632 0.0
O1654 O 0.0669 0.50159 0.55764 0.0
Eu1655 Eu 0.9512 0.52894 0.50373 0.0
Eu1656 Eu 0.1112 0.53239 0.51574 0.0
O1657 O 0.99254 0.50195 0.55028 0.0
O1658 O 0.0695 0.48999 0.48381 0.0
Eu1659 Eu 0.02654 0.54744 0.58789 0.0
Eu1660 Eu 0.03749 0.51582 0.43006 0.0
O1661 O 0.99211 0.57319 0.53557 0.0
O1662 O 0.99563 0.56076 0.46092 0.0
O1663 O 0.06997 0.55997 0.46967 0.0
O1664 O 0.0667 0.57741 0.54185 0.0
Eu1665 Eu 0.0309 0.60983 0.49335 0.0
O1666 O 1.02162 0.43313 0.59328 0.0
O1667 O 0.05475 0.40911 0.47454 0.0
O1668 O 1.0183 0.65726 0.54313 0.0
O1669 O 0.05372 0.63147 0.43 0.0
O1670 O 0.9126 0.58916 0.5 0.0
O1671 O 0.91476 0.46669 0.50762 0.0
O1672 O 0.14798 0.59073 0.49797 0.0
O1673 O 0.14906 0.4749 0.53546 0.0
O1674 O 0.10653 0.50699 0.40351 0.0
O1675 O 0.97408 0.51195 0.39081 0.0
O1676 O 0.08974 0.55162 0.62573 0.0
O1677 O 0.95954 0.55117 0.61752 0.0
O1678 O 0.0961 0.64474 0.49996 0.0
O1679 O 0.96426 0.64 0.47984 0.0
O1680 O 0.09713 0.42072 0.53895 0.0
O1681 O 0.96749 0.41579 0.5234 0.0
O1682 O 0.05309 0.44935 0.4111 0.0
O1683 O 0.06253 0.56915 0.38918 0.0
O1684 O 1.01862 0.4959 0.63504 0.0
O1685 O 1.02022 0.61594 0.60615 0.0
O1686 O 0.91002 0.53385 0.56386 0.0
O1687 O 0.91866 0.52562 0.4401 0.0
O1688 O 0.14491 0.55155 0.57479 0.0
O1689 O 0.15339 0.51206 0.46184 0.0
C1690 C 0.52786 0.93251 0.62342 0.0
C1691 C 0.50827 0.9177 0.41963 0.0
C1692 C 0.52036 0.1404 0.60994 0.0
C1693 C 0.52209 0.12906 0.40495 0.0
C1694 C 0.42606 0.13695 0.53691 0.0
C1695 C 0.41895 0.92756 0.50896 0.0
C1696 C 0.62781 0.13207 0.50299 0.0
C1697 C 0.62242 0.92274 0.51147 0.0
C1698 C 0.60282 1.00814 0.41119 0.0
C1699 C 0.41634 0.06495 0.42612 0.0
C1700 C 0.62724 0.05512 0.60226 0.0
C1701 C 0.43091 0.99895 0.61701 0.0
Eu1702 Eu 0.52054 0.9491 0.51901 0.0
O1703 O 0.47905 0.99 0.48128 0.0
O1704 O 0.56124 0.99412 0.55132 0.0
Eu1705 Eu 0.44145 0.03191 0.5201 0.0
Eu1706 Eu 0.59994 0.02908 0.50686 0.0
O1707 O 0.48787 0.99693 0.55379 0.0
O1708 O 0.55273 0.99081 0.47679 0.0
Eu1709 Eu 0.526 0.03506 0.59366 0.0
Eu1710 Eu 0.51212 0.02483 0.43282 0.0
O1711 O 0.48691 0.07126 0.55203 0.0
O1712 O 0.48296 0.06551 0.47856 0.0
O1713 O 0.5547 0.06448 0.47035 0.0
O1714 O 0.5604 0.06826 0.54529 0.0
Eu1715 Eu 0.5232 0.11143 0.509 0.0
O1716 O 0.52 0.91748 0.58462 0.0
O1717 O 0.52079 0.9094 0.45896 0.0
O1718 O 0.52853 0.15033 0.56967 0.0
O1719 O 0.51889 0.14399 0.44443 0.0
O1720 O 0.41378 0.09631 0.54241 0.0
O1721 O 0.40712 0.96847 0.50526 0.0
O1722 O 0.63891 0.09092 0.50295 0.0
O1723 O 0.63454 0.96365 0.50674 0.0
O1724 O 0.56589 1.00062 0.39412 0.0
O1725 O 0.45 0.04842 0.40652 0.0
O1726 O 0.58917 0.0519 0.62006 0.0
O1727 O 0.4688 1.01187 0.63044 0.0
O1728 O 0.58769 0.14584 0.5044 0.0
O1729 O 0.46244 0.14887 0.51888 0.0
O1730 O 0.58222 0.91071 0.51738 0.0
O1731 O 0.4577 0.91459 0.51906 0.0
O1732 O 0.49853 0.95692 0.40524 0.0
O1733 O 0.52334 0.08737 0.39496 0.0
O1734 O 0.53467 0.9737 0.63215 0.0
O1735 O 0.5145 0.10068 0.62442 0.0
O1736 O 0.41288 1.0093 0.58058 0.0
O1737 O 0.40492 0.05779 0.46594 0.0
O1738 O 0.63834 0.045 0.56308 0.0
O1739 O 0.60627 0.04001 0.43745 0.0
loop_
_geom_bond_atom_site_label_1
_geom_bond_atom_site_label_2
_geom_bond_distance
_geom_bond_site_symmetry_2
_ccdc_geom_bond_type
C0 C1 1.391 . S
C0 C4 1.391 . S
C0 H42 0.948 . S
C1 C0 1.391 . S
C1 C2 1.391 . S
C2 C1 1.391 . S
C2 H58 0.947 . S
C2 C59 1.392 . S
C3 C4 1.391 . S
C3 C7 1.396 1_655 S
C3 C59 1.419 . S
C4 C0 1.391 . S
C4 C3 1.391 . S
C4 C5 1.399 . S
C5 C4 1.399 . S
C5 C8 1.396 1_655 S
C5 C17 1.453 1_655 S
C5 C18 1.684 . S
H6 C30 0.948 . S
C7 C3 1.396 1_455 S
C7 C8 1.395 . S
C7 C26 1.723 . S
C8 C5 1.396 1_455 S
C8 C7 1.395 . S
C8 C38 1.723 . S
H9 C32 0.947 . S
H10 C33 0.948 . S
H11 C39 0.982 . S
H12 C40 0.979 . S
H13 C40 0.980 . S
H14 C40 0.983 . S
H15 C39 0.979 . S
H16 C39 0.977 . S
C17 C5 1.453 1_455 S
C17 H46 0.982 . S
C17 H47 0.979 . S
C17 H48 0.977 . S
C18 C5 1.684 . S
C18 H43 0.979 . S
C18 H44 0.980 . S
C18 H45 0.983 . S
C19 C20 1.391 . S
C19 C24 1.391 . S
C19 H49 0.948 . S
C20 C19 1.391 . S
C20 C21 1.391 . S
C21 C20 1.391 . S
C21 C22 1.392 . S
C21 H50 0.947 . S
C22 C21 1.392 . S
C22 C23 1.419 . S
C22 H51 0.948 . S
C23 C22 1.419 . S
C23 C24 1.391 . S
C23 C27 1.396 1_655 S
C24 C19 1.391 . S
C24 C23 1.391 . S
C24 C25 1.399 . S
C25 C24 1.399 . S
C25 C26 1.396 1_655 S
C25 C28 1.453 1_655 S
C25 C29 1.684 . S
C26 C7 1.723 . S
C26 C25 1.396 1_455 S
C26 C27 1.395 . S
C27 C23 1.396 1_455 S
C27 C26 1.395 . S
C27 C37 1.723 . S
C28 C25 1.453 1_455 S
C28 H52 0.982 . S
C28 H53 0.979 . S
C28 H54 0.977 . S
C29 C25 1.684 . S
C29 H55 0.979 . S
C29 H56 0.980 . S
C29 H57 0.983 . S
C30 H6 0.948 . S
C30 C31 1.391 . S
C30 C35 1.391 . S
C31 C30 1.391 . S
C31 C32 1.391 . S
C32 H9 0.947 . S
C32 C31 1.391 . S
C32 C33 1.392 . S
C33 H10 0.948 . S
C33 C32 1.392 . S
C33 C34 1.419 . S
C34 C33 1.419 . S
C34 C35 1.391 . S
C34 C38 1.396 1_655 S
C35 C30 1.391 . S
C35 C34 1.391 . S
C35 C36 1.399 . S
C36 C35 1.399 . S
C36 C37 1.396 1_655 S
C36 C39 1.453 1_655 S
C36 C40 1.684 . S
C37 C27 1.723 . S
C37 C36 1.396 1_455 S
C37 C38 1.395 . S
C38 C8 1.723 . S
C38 C34 1.396 1_455 S
C38 C37 1.395 . S
C39 H11 0.982 . S
C39 H15 0.979 . S
C39 H16 0.977 . S
C39 C36 1.453 1_455 S
C40 H12 0.979 . S
C40 H13 0.980 . S
C40 H14 0.983 . S
C40 C36 1.684 . S
H41 C59 0.948 . S
H42 C0 0.948 . S
H43 C18 0.979 . S
H44 C18 0.980 . S
H45 C18 0.983 . S
H46 C17 0.982 . S
H47 C17 0.979 . S
H48 C17 0.977 . S
H49 C19 0.948 . S
H50 C21 0.947 . S
H51 C22 0.948 . S
H52 C28 0.982 . S
H53 C28 0.979 . S
H54 C28 0.977 . S
H55 C29 0.979 . S
H56 C29 0.980 . S
H57 C29 0.983 . S
H58 C2 0.947 . S
C59 C2 1.392 . S
C59 C3 1.419 . S
C59 H41 0.948 . S
C60 C61 1.391 . S
C60 C64 1.391 . S
C60 H102 0.948 . S
C61 C60 1.391 . S
C61 C62 1.391 . S
C62 C61 1.391 . S
C62 H118 0.947 . S
C62 C119 1.392 . S
C63 C64 1.391 . S
C63 C67 1.397 1_545 S
C63 C119 1.419 . S
C64 C60 1.391 . S
C64 C63 1.391 . S
C64 C65 1.399 . S
C65 C64 1.399 . S
C65 C68 1.396 1_545 S
C65 C77 1.453 1_545 S
C65 C78 1.684 . S
H66 C90 0.948 . S
C67 C63 1.397 1_565 S
C67 C68 1.394 . S
C67 C86 1.723 . S
C68 C65 1.396 1_565 S
C68 C67 1.394 . S
C68 C98 1.723 . S
H69 C92 0.947 . S
H70 C93 0.948 . S
H71 C99 0.982 . S
H72 C100 0.979 . S
H73 C100 0.980 . S
H74 C100 0.983 . S
H75 C99 0.979 . S
H76 C99 0.977 . S
C77 C65 1.453 1_565 S
C77 H106 0.982 . S
C77 H107 0.979 . S
C77 H108 0.977 . S
C78 C65 1.684 . S
C78 H103 0.979 . S
C78 H104 0.980 . S
C78 H105 0.983 . S
C79 C80 1.391 . S
C79 C84 1.391 . S
C79 H109 0.948 . S
C80 C79 1.391 . S
C80 C81 1.391 . S
C81 C80 1.391 . S
C81 C82 1.392 . S
C81 H110 0.947 . S
C82 C81 1.392 . S
C82 C83 1.419 . S
C82 H111 0.948 . S
C83 C82 1.419 . S
C83 C84 1.391 . S
C83 C87 1.397 1_545 S
C84 C79 1.391 . S
C84 C83 1.391 . S
C84 C85 1.399 . S
C85 C84 1.399 . S
C85 C86 1.396 1_545 S
C85 C88 1.453 1_545 S
C85 C89 1.684 . S
C86 C67 1.723 . S
C86 C85 1.396 1_565 S
C86 C87 1.394 . S
C87 C83 1.397 1_565 S
C87 C86 1.394 . S
C87 C97 1.723 . S
C88 C85 1.453 1_565 S
C88 H112 0.982 . S
C88 H113 0.979 . S
C88 H114 0.977 . S
C89 C85 1.684 . S
C89 H115 0.979 . S
C89 H116 0.980 . S
C89 H117 0.983 . S
C90 H66 0.948 . S
C90 C91 1.391 . S
C90 C95 1.391 . S
C91 C90 1.391 . S
C91 C92 1.391 . S
C92 H69 0.947 . S
C92 C91 1.391 . S
C92 C93 1.392 . S
C93 H70 0.948 . S
C93 C92 1.392 . S
C93 C94 1.419 . S
C94 C93 1.419 . S
C94 C95 1.391 . S
C94 C98 1.397 1_545 S
C95 C90 1.391 . S
C95 C94 1.391 . S
C95 C96 1.399 . S
C96 C95 1.399 . S
C96 C97 1.396 1_545 S
C96 C99 1.453 1_545 S
C96 C100 1.684 . S
C97 C87 1.723 . S
C97 C96 1.396 1_565 S
C97 C98 1.394 . S
C98 C68 1.723 . S
C98 C94 1.397 1_565 S
C98 C97 1.394 . S
C99 H71 0.982 . S
C99 H75 0.979 . S
C99 H76 0.977 . S
C99 C96 1.453 1_565 S
C100 H72 0.979 . S
C100 H73 0.980 . S
C100 H74 0.983 . S
C100 C96 1.684 . S
H101 C119 0.948 . S
H102 C60 0.948 . S
H103 C78 0.979 . S
H104 C78 0.980 . S
H105 C78 0.983 . S
H106 C77 0.982 . S
H107 C77 0.979 . S
H108 C77 0.977 . S
H109 C79 0.948 . S
H110 C81 0.947 . S
H111 C82 0.948 . S
H112 C88 0.982 . S
H113 C88 0.979 . S
H114 C88 0.977 . S
H115 C89 0.979 . S
H116 C89 0.980 . S
H117 C89 0.983 . S
H118 C62 0.947 . S
C119 C62 1.392 . S
C119 C63 1.419 . S
C119 H101 0.948 . S
C120 C121 1.391 . S
C120 C124 1.391 . S
C120 H162 0.948 . S
C121 C120 1.391 . S
C121 C122 1.391 . S
C122 C121 1.391 . S
C122 H178 0.947 . S
C122 C179 1.392 . S
C123 C124 1.391 . S
C123 C127 1.396 1_655 S
C123 C179 1.419 . S
C124 C120 1.391 . S
C124 C123 1.391 . S
C124 C125 1.399 . S
C125 C124 1.399 . S
C125 C128 1.396 1_655 S
C125 C137 1.453 1_655 S
C125 C138 1.684 . S
H126 C150 0.948 . S
C127 C123 1.396 1_455 S
C127 C128 1.395 . S
C127 C146 1.723 . S
C128 C125 1.396 1_455 S
C128 C127 1.395 . S
C128 C158 1.723 . S
H129 C152 0.947 . S
H130 C153 0.948 . S
H131 C159 0.982 . S
H132 C160 0.979 . S
H133 C160 0.980 . S
H134 C160 0.983 . S
H135 C159 0.979 . S
H136 C159 0.977 . S
C137 C125 1.453 1_455 S
C137 H166 0.982 . S
C137 H167 0.979 . S
C137 H168 0.977 . S
C138 C125 1.684 . S
C138 H163 0.979 . S
C138 H164 0.980 . S
C138 H165 0.983 . S
C139 C140 1.391 . S
C139 C144 1.391 . S
C139 H169 0.948 . S
C140 C139 1.391 . S
C140 C141 1.391 . S
C141 C140 1.391 . S
C141 C142 1.392 . S
C141 H170 0.947 . S
C142 C141 1.392 . S
C142 C143 1.419 . S
C142 H171 0.948 . S
C143 C142 1.419 . S
C143 C144 1.391 . S
C143 C147 1.396 1_655 S
C144 C139 1.391 . S
C144 C143 1.391 . S
C144 C145 1.399 . S
C145 C144 1.399 . S
C145 C146 1.396 1_655 S
C145 C148 1.453 1_655 S
C145 C149 1.684 . S
C146 C127 1.723 . S
C146 C145 1.396 1_455 S
C146 C147 1.395 . S
C147 C143 1.396 1_455 S
C147 C146 1.395 . S
C147 C157 1.723 . S
C148 C145 1.453 1_455 S
C148 H172 0.982 . S
C148 H173 0.979 . S
C148 H174 0.977 . S
C149 C145 1.684 . S
C149 H175 0.979 . S
C149 H176 0.980 . S
C149 H177 0.983 . S
C150 H126 0.948 . S
C150 C151 1.391 . S
C150 C155 1.391 . S
C151 C150 1.391 . S
C151 C152 1.391 . S
C152 H129 0.947 . S
C152 C151 1.391 . S
C152 C153 1.392 . S
C153 H130 0.948 . S
C153 C152 1.392 . S
C153 C154 1.419 . S
C154 C153 1.419 . S
C154 C155 1.391 . S
C154 C158 1.396 1_655 S
C155 C150 1.391 . S
C155 C154 1.391 . S
C155 C156 1.399 . S
C156 C155 1.399 . S
C156 C157 1.396 1_655 S
C156 C159 1.453 1_655 S
C156 C160 1.684 . S
C157 C147 1.723 . S
C157 C156 1.396 1_455 S
C157 C158 1.395 . S
C158 C128 1.723 . S
C158 C154 1.396 1_455 S
C158 C157 1.395 . S
C159 H131 0.982 . S
C159 H135 0.979 . S
C159 H136 0.977 . S
C159 C156 1.453 1_455 S
C160 H132 0.979 . S
C160 H133 0.980 . S
C160 H134 0.983 . S
C160 C156 1.684 . S
H161 C179 0.948 . S
H162 C120 0.948 . S
H163 C138 0.979 . S
H164 C138 0.980 . S
H165 C138 0.983 . S
H166 C137 0.982 . S
H167 C137 0.979 . S
H168 C137 0.977 . S
H169 C139 0.948 . S
H170 C141 0.947 . S
H171 C142 0.948 . S
H172 C148 0.982 . S
H173 C148 0.979 . S
H174 C148 0.977 . S
H175 C149 0.979 . S
H176 C149 0.980 . S
H177 C149 0.983 . S
H178 C122 0.947 . S
C179 C122 1.392 . S
C179 C123 1.419 . S
C179 H161 0.948 . S
C180 C181 1.391 . S
C180 C184 1.391 . S
C180 H222 0.948 . S
C181 C180 1.391 . S
C181 C182 1.391 . S
C182 C181 1.391 . S
C182 H238 0.947 . S
C182 C239 1.392 . S
C183 C184 1.391 . S
C183 C187 1.397 1_545 S
C183 C239 1.419 . S
C184 C180 1.391 . S
C184 C183 1.391 . S
C184 C185 1.399 . S
C185 C184 1.399 . S
C185 C188 1.396 1_545 S
C185 C197 1.453 1_545 S
C185 C198 1.684 . S
H186 C210 0.948 . S
C187 C183 1.397 1_565 S
C187 C188 1.394 . S
C187 C206 1.723 . S
C188 C185 1.396 1_565 S
C188 C187 1.394 . S
C188 C218 1.723 . S
H189 C212 0.947 . S
H190 C213 0.948 . S
H191 C219 0.982 . S
H192 C220 0.979 . S
H193 C220 0.980 . S
H194 C220 0.983 . S
H195 C219 0.979 . S
H196 C219 0.977 . S
C197 C185 1.453 1_565 S
C197 H226 0.982 . S
C197 H227 0.979 . S
C197 H228 0.977 . S
C198 C185 1.684 . S
C198 H223 0.979 . S
C198 H224 0.980 . S
C198 H225 0.983 . S
C199 C200 1.391 . S
C199 C204 1.391 . S
C199 H229 0.948 . S
C200 C199 1.391 . S
C200 C201 1.391 . S
C201 C200 1.391 . S
C201 C202 1.392 . S
C201 H230 0.947 . S
C202 C201 1.392 . S
C202 C203 1.419 . S
C202 H231 0.948 . S
C203 C202 1.419 . S
C203 C204 1.391 . S
C203 C207 1.397 1_545 S
C204 C199 1.391 . S
C204 C203 1.391 . S
C204 C205 1.399 . S
C205 C204 1.399 . S
C205 C206 1.396 1_545 S
C205 C208 1.453 1_545 S
C205 C209 1.684 . S
C206 C187 1.723 . S
C206 C205 1.396 1_565 S
C206 C207 1.394 . S
C207 C203 1.397 1_565 S
C207 C206 1.394 . S
C207 C217 1.723 . S
C208 C205 1.453 1_565 S
C208 H232 0.982 . S
C208 H233 0.979 . S
C208 H234 0.977 . S
C209 C205 1.684 . S
C209 H235 0.979 . S
C209 H236 0.980 . S
C209 H237 0.983 . S
C210 H186 0.948 . S
C210 C211 1.391 . S
C210 C215 1.391 . S
C211 C210 1.391 . S
C211 C212 1.391 . S
C212 H189 0.947 . S
C212 C211 1.391 . S
C212 C213 1.392 . S
C213 H190 0.948 . S
C213 C212 1.392 . S
C213 C214 1.419 . S
C214 C213 1.419 . S
C214 C215 1.391 . S
C214 C218 1.397 1_545 S
C215 C210 1.391 . S
C215 C214 1.391 . S
C215 C216 1.399 . S
C216 C215 1.399 . S
C216 C217 1.396 1_545 S
C216 C219 1.453 1_545 S
C216 C220 1.684 . S
C217 C207 1.723 . S
C217 C216 1.396 1_565 S
C217 C218 1.394 . S
C218 C188 1.723 . S
C218 C214 1.397 1_565 S
C218 C217 1.394 . S
C219 H191 0.982 . S
C219 H195 0.979 . S
C219 H196 0.977 . S
C219 C216 1.453 1_565 S
C220 H192 0.979 . S
C220 H193 0.980 . S
C220 H194 0.983 . S
C220 C216 1.684 . S
H221 C239 0.948 . S
H222 C180 0.948 . S
H223 C198 0.979 . S
H224 C198 0.980 . S
H225 C198 0.983 . S
H226 C197 0.982 . S
H227 C197 0.979 . S
H228 C197 0.977 . S
H229 C199 0.948 . S
H230 C201 0.947 . S
H231 C202 0.948 . S
H232 C208 0.982 . S
H233 C208 0.979 . S
H234 C208 0.977 . S
H235 C209 0.979 . S
H236 C209 0.980 . S
H237 C209 0.983 . S
H238 C182 0.947 . S
C239 C182 1.392 . S
C239 C183 1.419 . S
C239 H221 0.948 . S
C240 C241 1.391 . S
C240 C244 1.391 . S
C240 H282 0.948 . S
C241 C240 1.391 . S
C241 C242 1.391 . S
C242 C241 1.391 . S
C242 H298 0.947 . S
C242 C299 1.392 . S
C243 C244 1.391 . S
C243 C247 1.396 1_655 S
C243 C299 1.419 . S
C244 C240 1.391 . S
C244 C243 1.391 . S
C244 C245 1.399 . S
C245 C244 1.399 . S
C245 C248 1.396 1_655 S
C245 C257 1.453 1_655 S
C245 C258 1.684 . S
H246 C270 0.948 . S
C247 C243 1.396 1_455 S
C247 C248 1.395 . S
C247 C266 1.723 . S
C248 C245 1.396 1_455 S
C248 C247 1.395 . S
C248 C278 1.723 . S
H249 C272 0.947 . S
H250 C273 0.948 . S
H251 C279 0.982 . S
H252 C280 0.979 . S
H253 C280 0.980 . S
H254 C280 0.983 . S
H255 C279 0.979 . S
H256 C279 0.977 . S
C257 C245 1.453 1_455 S
C257 H286 0.982 . S
C257 H287 0.979 . S
C257 H288 0.977 . S
C258 C245 1.684 . S
C258 H283 0.979 . S
C258 H284 0.980 . S
C258 H285 0.983 . S
C259 C260 1.391 . S
C259 C264 1.391 . S
C259 H289 0.948 . S
C260 C259 1.391 . S
C260 C261 1.391 . S
C261 C260 1.391 . S
C261 C262 1.392 . S
C261 H290 0.947 . S
C262 C261 1.392 . S
C262 C263 1.419 . S
C262 H291 0.948 . S
C263 C262 1.419 . S
C263 C264 1.391 . S
C263 C267 1.396 1_655 S
C264 C259 1.391 . S
C264 C263 1.391 . S
C264 C265 1.399 . S
C265 C264 1.399 . S
C265 C266 1.396 1_655 S
C265 C268 1.453 1_655 S
C265 C269 1.684 . S
C266 C247 1.723 . S
C266 C265 1.396 1_455 S
C266 C267 1.395 . S
C267 C263 1.396 1_455 S
C267 C266 1.395 . S
C267 C277 1.723 . S
C268 C265 1.453 1_455 S
C268 H292 0.982 . S
C268 H293 0.979 . S
C268 H294 0.977 . S
C269 C265 1.684 . S
C269 H295 0.979 . S
C269 H296 0.980 . S
C269 H297 0.983 . S
C270 H246 0.948 . S
C270 C271 1.391 . S
C270 C275 1.391 . S
C271 C270 1.391 . S
C271 C272 1.391 . S
C272 H249 0.947 . S
C272 C271 1.391 . S
C272 C273 1.392 . S
C273 H250 0.948 . S
C273 C272 1.392 . S
C273 C274 1.419 . S
C274 C273 1.419 . S
C274 C275 1.391 . S
C274 C278 1.396 1_655 S
C275 C270 1.391 . S
C275 C274 1.391 . S
C275 C276 1.399 . S
C276 C275 1.399 . S
C276 C277 1.396 1_655 S
C276 C279 1.453 1_655 S
C276 C280 1.684 . S
C277 C267 1.723 . S
C277 C276 1.396 1_455 S
C277 C278 1.395 . S
C278 C248 1.723 . S
C278 C274 1.396 1_455 S
C278 C277 1.395 . S
C279 H251 0.982 . S
C279 H255 0.979 . S
C279 H256 0.977 . S
C279 C276 1.453 1_455 S
C280 H252 0.979 . S
C280 H253 0.980 . S
C280 H254 0.983 . S
C280 C276 1.684 . S
H281 C299 0.948 . S
H282 C240 0.948 . S
H283 C258 0.979 . S
H284 C258 0.980 . S
H285 C258 0.983 . S
H286 C257 0.982 . S
H287 C257 0.979 . S
H288 C257 0.977 . S
H289 C259 0.948 . S
H290 C261 0.947 . S
H291 C262 0.948 . S
H292 C268 0.982 . S
H293 C268 0.979 . S
H294 C268 0.977 . S
H295 C269 0.979 . S
H296 C269 0.980 . S
H297 C269 0.983 . S
H298 C242 0.947 . S
C299 C242 1.392 . S
C299 C243 1.419 . S
C299 H281 0.948 . S
C300 C301 1.391 . S
C300 C304 1.391 . S
C300 H342 0.948 . S
C301 C300 1.391 . S
C301 C302 1.391 . S
C302 C301 1.391 . S
C302 H358 0.947 . S
C302 C359 1.392 . S
C303 C304 1.391 . S
C303 C307 1.396 1_565 S
C303 C359 1.419 . S
C304 C300 1.391 . S
C304 C303 1.391 . S
C304 C305 1.399 . S
C305 C304 1.399 . S
C305 C308 1.396 1_565 S
C305 C317 1.453 1_565 S
C305 C318 1.684 . S
H306 C330 0.948 . S
C307 C303 1.396 1_545 S
C307 C308 1.395 . S
C307 C326 1.723 . S
C308 C305 1.396 1_545 S
C308 C307 1.395 . S
C308 C338 1.723 . S
H309 C332 0.947 . S
H310 C333 0.948 . S
H311 C339 0.982 . S
H312 C340 0.979 . S
H313 C340 0.980 . S
H314 C340 0.983 . S
H315 C339 0.979 . S
H316 C339 0.977 . S
C317 C305 1.453 1_545 S
C317 H346 0.982 . S
C317 H347 0.979 . S
C317 H348 0.977 . S
C318 C305 1.684 . S
C318 H343 0.979 . S
C318 H344 0.980 . S
C318 H345 0.983 . S
C319 C320 1.391 . S
C319 C324 1.391 . S
C319 H349 0.948 . S
C320 C319 1.391 . S
C320 C321 1.391 . S
C321 C320 1.391 . S
C321 C322 1.392 . S
C321 H350 0.947 . S
C322 C321 1.392 . S
C322 C323 1.419 . S
C322 H351 0.948 . S
C323 C322 1.419 . S
C323 C324 1.391 . S
C323 C327 1.396 1_565 S
C324 C319 1.391 . S
C324 C323 1.391 . S
C324 C325 1.399 . S
C325 C324 1.399 . S
C325 C326 1.396 1_565 S
C325 C328 1.453 1_565 S
C325 C329 1.684 . S
C326 C307 1.723 . S
C326 C325 1.396 1_545 S
C326 C327 1.395 . S
C327 C323 1.396 1_545 S
C327 C326 1.395 . S
C327 C337 1.723 . S
C328 C325 1.453 1_545 S
C328 H352 0.982 . S
C328 H353 0.979 . S
C328 H354 0.977 . S
C329 C325 1.684 . S
C329 H355 0.979 . S
C329 H356 0.980 . S
C329 H357 0.983 . S
C330 H306 0.948 . S
C330 C331 1.391 . S
C330 C335 1.391 . S
C331 C330 1.391 . S
C331 C332 1.391 . S
C332 H309 0.947 . S
C332 C331 1.391 . S
C332 C333 1.392 . S
C333 H310 0.948 . S
C333 C332 1.392 . S
C333 C334 1.419 . S
C334 C333 1.419 . S
C334 C335 1.391 . S
C334 C338 1.396 1_565 S
C335 C330 1.391 . S
C335 C334 1.391 . S
C335 C336 1.399 . S
C336 C335 1.399 . S
C336 C337 1.396 1_565 S
C336 C339 1.453 1_565 S
C336 C340 1.684 . S
C337 C327 1.723 . S
C337 C336 1.396 1_545 S
C337 C338 1.395 . S
C338 C308 1.723 . S
C338 C334 1.396 1_545 S
C338 C337 1.395 . S
C339 H311 0.982 . S
C339 H315 0.979 . S
C339 H316 0.977 . S
C339 C336 1.453 1_545 S
C340 H312 0.979 . S
C340 H313 0.980 . S
C340 H314 0.983 . S
C340 C336 1.684 . S
H341 C359 0.948 . S
H342 C300 0.948 . S
H343 C318 0.979 . S
H344 C318 0.980 . S
H345 C318 0.983 . S
H346 C317 0.982 . S
H347 C317 0.979 . S
H348 C317 0.977 . S
H349 C319 0.948 . S
H350 C321 0.947 . S
H351 C322 0.948 . S
H352 C328 0.982 . S
H353 C328 0.979 . S
H354 C328 0.977 . S
H355 C329 0.979 . S
H356 C329 0.980 . S
H357 C329 0.983 . S
H358 C302 0.947 . S
C359 C302 1.392 . S
C359 C303 1.419 . S
C359 H341 0.948 . S
C360 C361 1.391 . S
C360 C364 1.391 . S
C360 H402 0.948 . S
C361 C360 1.391 . S
C361 C362 1.391 . S
C362 C361 1.391 . S
C362 H418 0.947 . S
C362 C419 1.392 . S
C363 C364 1.391 . S
C363 C367 1.396 1_655 S
C363 C419 1.419 . S
C364 C360 1.391 . S
C364 C363 1.391 . S
C364 C365 1.399 . S
C365 C364 1.399 . S
C365 C368 1.396 1_655 S
C365 C377 1.453 1_655 S
C365 C378 1.684 . S
H366 C390 0.948 . S
C367 C363 1.396 1_455 S
C367 C368 1.395 . S
C367 C386 1.723 . S
C368 C365 1.396 1_455 S
C368 C367 1.395 . S
C368 C398 1.723 . S
H369 C392 0.947 . S
H370 C393 0.948 . S
H371 C399 0.982 . S
H372 C400 0.979 . S
H373 C400 0.980 . S
H374 C400 0.983 . S
H375 C399 0.979 . S
H376 C399 0.977 . S
C377 C365 1.453 1_455 S
C377 H406 0.982 . S
C377 H407 0.979 . S
C377 H408 0.977 . S
C378 C365 1.684 . S
C378 H403 0.979 . S
C378 H404 0.980 . S
C378 H405 0.983 . S
C379 C380 1.391 . S
C379 C384 1.391 . S
C379 H409 0.948 . S
C380 C379 1.391 . S
C380 C381 1.391 . S
C381 C380 1.391 . S
C381 C382 1.392 . S
C381 H410 0.947 . S
C382 C381 1.392 . S
C382 C383 1.419 . S
C382 H411 0.948 . S
C383 C382 1.419 . S
C383 C384 1.391 . S
C383 C387 1.396 1_655 S
C384 C379 1.391 . S
C384 C383 1.391 . S
C384 C385 1.399 . S
C385 C384 1.399 . S
C385 C386 1.396 1_655 S
C385 C388 1.453 1_655 S
C385 C389 1.684 . S
C386 C367 1.723 . S
C386 C385 1.396 1_455 S
C386 C387 1.395 . S
C387 C383 1.396 1_455 S
C387 C386 1.395 . S
C387 C397 1.723 . S
C388 C385 1.453 1_455 S
C388 H412 0.982 . S
C388 H413 0.979 . S
C388 H414 0.977 . S
C389 C385 1.684 . S
C389 H415 0.979 . S
C389 H416 0.980 . S
C389 H417 0.983 . S
C390 H366 0.948 . S
C390 C391 1.391 . S
C390 C395 1.391 . S
C391 C390 1.391 . S
C391 C392 1.391 . S
C392 H369 0.947 . S
C392 C391 1.391 . S
C392 C393 1.392 . S
C393 H370 0.948 . S
C393 C392 1.392 . S
C393 C394 1.419 . S
C394 C393 1.419 . S
C394 C395 1.391 . S
C394 C398 1.396 1_655 S
C395 C390 1.391 . S
C395 C394 1.391 . S
C395 C396 1.399 . S
C396 C395 1.399 . S
C396 C397 1.396 1_655 S
C396 C399 1.453 1_655 S
C396 C400 1.684 . S
C397 C387 1.723 . S
C397 C396 1.396 1_455 S
C397 C398 1.395 . S
C398 C368 1.723 . S
C398 C394 1.396 1_455 S
C398 C397 1.395 . S
C399 H371 0.982 . S
C399 H375 0.979 . S
C399 H376 0.977 . S
C399 C396 1.453 1_455 S
C400 H372 0.979 . S
C400 H373 0.980 . S
C400 H374 0.983 . S
C400 C396 1.684 . S
H401 C419 0.948 . S
H402 C360 0.948 . S
H403 C378 0.979 . S
H404 C378 0.980 . S
H405 C378 0.983 . S
H406 C377 0.982 . S
H407 C377 0.979 . S
H408 C377 0.977 . S
H409 C379 0.948 . S
H410 C381 0.947 . S
H411 C382 0.948 . S
H412 C388 0.982 . S
H413 C388 0.979 . S
H414 C388 0.977 . S
H415 C389 0.979 . S
H416 C389 0.980 . S
H417 C389 0.983 . S
H418 C362 0.947 . S
C419 C362 1.392 . S
C419 C363 1.419 . S
C419 H401 0.948 . S
C420 C421 1.391 . S
C420 C424 1.391 . S
C420 H462 0.948 . S
C421 C420 1.391 . S
C421 C422 1.391 . S
C422 C421 1.391 . S
C422 H478 0.947 . S
C422 C479 1.392 . S
C423 C424 1.391 . S
C423 C427 1.396 1_565 S
C423 C479 1.419 . S
C424 C420 1.391 . S
C424 C423 1.391 . S
C424 C425 1.399 . S
C425 C424 1.399 . S
C425 C428 1.396 1_565 S
C425 C437 1.453 1_565 S
C425 C438 1.684 . S
H426 C450 0.948 . S
C427 C423 1.396 1_545 S
C427 C428 1.395 . S
C427 C446 1.723 . S
C428 C425 1.396 1_545 S
C428 C427 1.395 . S
C428 C458 1.723 . S
H429 C452 0.947 . S
H430 C453 0.948 . S
H431 C459 0.982 . S
H432 C460 0.979 . S
H433 C460 0.980 . S
H434 C460 0.983 . S
H435 C459 0.979 . S
H436 C459 0.977 . S
C437 C425 1.453 1_545 S
C437 H466 0.982 . S
C437 H467 0.979 . S
C437 H468 0.977 . S
C438 C425 1.684 . S
C438 H463 0.979 . S
C438 H464 0.980 . S
C438 H465 0.983 . S
C439 C440 1.391 . S
C439 C444 1.391 . S
C439 H469 0.948 . S
C440 C439 1.391 . S
C440 C441 1.391 . S
C441 C440 1.391 . S
C441 C442 1.392 . S
C441 H470 0.947 . S
C442 C441 1.392 . S
C442 C443 1.419 . S
C442 H471 0.948 . S
C443 C442 1.419 . S
C443 C444 1.391 . S
C443 C447 1.396 1_565 S
C444 C439 1.391 . S
C444 C443 1.391 . S
C444 C445 1.399 . S
C445 C444 1.399 . S
C445 C446 1.396 1_565 S
C445 C448 1.453 1_565 S
C445 C449 1.684 . S
C446 C427 1.723 . S
C446 C445 1.396 1_545 S
C446 C447 1.395 . S
C447 C443 1.396 1_545 S
C447 C446 1.395 . S
C447 C457 1.723 . S
C448 C445 1.453 1_545 S
C448 H472 0.982 . S
C448 H473 0.979 . S
C448 H474 0.977 . S
C449 C445 1.684 . S
C449 H475 0.979 . S
C449 H476 0.980 . S
C449 H477 0.983 . S
C450 H426 0.948 . S
C450 C451 1.391 . S
C450 C455 1.391 . S
C451 C450 1.391 . S
C451 C452 1.391 . S
C452 H429 0.947 . S
C452 C451 1.391 . S
C452 C453 1.392 . S
C453 H430 0.948 . S
C453 C452 1.392 . S
C453 C454 1.419 . S
C454 C453 1.419 . S
C454 C455 1.391 . S
C454 C458 1.396 1_565 S
C455 C450 1.391 . S
C455 C454 1.391 . S
C455 C456 1.399 . S
C456 C455 1.399 . S
C456 C457 1.396 1_565 S
C456 C459 1.453 1_565 S
C456 C460 1.684 . S
C457 C447 1.723 . S
C457 C456 1.396 1_545 S
C457 C458 1.395 . S
C458 C428 1.723 . S
C458 C454 1.396 1_545 S
C458 C457 1.395 . S
C459 H431 0.982 . S
C459 H435 0.979 . S
C459 H436 0.977 . S
C459 C456 1.453 1_545 S
C460 H432 0.979 . S
C460 H433 0.980 . S
C460 H434 0.983 . S
C460 C456 1.684 . S
H461 C479 0.948 . S
H462 C420 0.948 . S
H463 C438 0.979 . S
H464 C438 0.980 . S
H465 C438 0.983 . S
H466 C437 0.982 . S
H467 C437 0.979 . S
H468 C437 0.977 . S
H469 C439 0.948 . S
H470 C441 0.947 . S
H471 C442 0.948 . S
H472 C448 0.982 . S
H473 C448 0.979 . S
H474 C448 0.977 . S
H475 C449 0.979 . S
H476 C449 0.980 . S
H477 C449 0.983 . S
H478 C422 0.947 . S
C479 C422 1.392 . S
C479 C423 1.419 . S
C479 H461 0.948 . S
C480 C481 1.391 . S
C480 C484 1.391 . S
C480 H522 0.948 . S
C481 C480 1.391 . S
C481 C482 1.391 . S
C482 C481 1.391 . S
C482 H538 0.947 . S
C482 C539 1.392 . S
C483 C484 1.391 . S
C483 C487 1.396 1_556 S
C483 C539 1.419 . S
C484 C480 1.391 . S
C484 C483 1.391 . S
C484 C485 1.399 . S
C485 C484 1.399 . S
C485 C488 1.396 1_556 S
C485 C497 1.453 1_556 S
C485 C498 1.684 . S
H486 C510 0.948 . S
C487 C483 1.396 1_554 S
C487 C488 1.395 . S
C487 C506 1.723 . S
C488 C485 1.396 1_554 S
C488 C487 1.395 . S
C488 C518 1.723 . S
H489 C512 0.947 . S
H490 C513 0.948 . S
H491 C519 0.982 . S
H492 C520 0.979 . S
H493 C520 0.980 . S
H494 C520 0.983 . S
H495 C519 0.979 . S
H496 C519 0.977 . S
C497 C485 1.453 1_554 S
C497 H526 0.982 . S
C497 H527 0.979 . S
C497 H528 0.977 . S
C498 C485 1.684 . S
C498 H523 0.979 . S
C498 H524 0.980 . S
C498 H525 0.983 . S
C499 C500 1.391 . S
C499 C504 1.391 . S
C499 H529 0.948 . S
C500 C499 1.391 . S
C500 C501 1.391 . S
C501 C500 1.391 . S
C501 C502 1.392 . S
C501 H530 0.947 . S
C502 C501 1.392 . S
C502 C503 1.419 . S
C502 H531 0.948 . S
C503 C502 1.419 . S
C503 C504 1.391 . S
C503 C507 1.396 1_556 S
C504 C499 1.391 . S
C504 C503 1.391 . S
C504 C505 1.399 . S
C505 C504 1.399 . S
C505 C506 1.396 1_556 S
C505 C508 1.453 1_556 S
C505 C509 1.684 . S
C506 C487 1.723 . S
C506 C505 1.396 1_554 S
C506 C507 1.395 . S
C507 C503 1.396 1_554 S
C507 C506 1.395 . S
C507 C517 1.723 . S
C508 C505 1.453 1_554 S
C508 H532 0.982 . S
C508 H533 0.979 . S
C508 H534 0.977 . S
C509 C505 1.684 . S
C509 H535 0.979 . S
C509 H536 0.980 . S
C509 H537 0.983 . S
C510 H486 0.948 . S
C510 C511 1.391 . S
C510 C515 1.391 . S
C511 C510 1.391 . S
C511 C512 1.391 . S
C512 H489 0.947 . S
C512 C511 1.391 . S
C512 C513 1.392 . S
C513 H490 0.948 . S
C513 C512 1.392 . S
C513 C514 1.419 . S
C514 C513 1.419 . S
C514 C515 1.391 . S
C514 C518 1.396 1_556 S
C515 C510 1.391 . S
C515 C514 1.391 . S
C515 C516 1.399 . S
C516 C515 1.399 . S
C516 C517 1.396 1_556 S
C516 C519 1.453 1_556 S
C516 C520 1.684 . S
C517 C507 1.723 . S
C517 C516 1.396 1_554 S
C517 C518 1.395 . S
C518 C488 1.723 . S
C518 C514 1.396 1_554 S
C518 C517 1.395 . S
C519 H491 0.982 . S
C519 H495 0.979 . S
C519 H496 0.977 . S
C519 C516 1.453 1_554 S
C520 H492 0.979 . S
C520 H493 0.980 . S
C520 H494 0.983 . S
C520 C516 1.684 . S
H521 C539 0.948 . S
H522 C480 0.948 . S
H523 C498 0.979 . S
H524 C498 0.980 . S
H525 C498 0.983 . S
H526 C497 0.982 . S
H527 C497 0.979 . S
H528 C497 0.977 . S
H529 C499 0.948 . S
H530 C501 0.947 . S
H531 C502 0.948 . S
H532 C508 0.982 . S
H533 C508 0.979 . S
H534 C508 0.977 . S
H535 C509 0.979 . S
H536 C509 0.980 . S
H537 C509 0.983 . S
H538 C482 0.947 . S
C539 C482 1.392 . S
C539 C483 1.419 . S
C539 H521 0.948 . S
C540 C541 1.391 . S
C540 C544 1.391 . S
C540 H582 0.948 . S
C541 C540 1.391 . S
C541 C542 1.391 . S
C542 C541 1.391 . S
C542 H598 0.947 . S
C542 C599 1.392 . S
C543 C544 1.391 . S
C543 C547 1.397 1_554 S
C543 C599 1.419 . S
C544 C540 1.391 . S
C544 C543 1.391 . S
C544 C545 1.399 . S
C545 C544 1.399 . S
C545 C548 1.396 1_554 S
C545 C557 1.453 1_554 S
C545 C558 1.684 . S
H546 C570 0.948 . S
C547 C543 1.397 1_556 S
C547 C548 1.394 . S
C547 C566 1.723 . S
C548 C545 1.396 1_556 S
C548 C547 1.394 . S
C548 C578 1.723 . S
H549 C572 0.947 . S
H550 C573 0.948 . S
H551 C579 0.982 . S
H552 C580 0.979 . S
H553 C580 0.980 . S
H554 C580 0.983 . S
H555 C579 0.979 . S
H556 C579 0.977 . S
C557 C545 1.453 1_556 S
C557 H586 0.982 . S
C557 H587 0.979 . S
C557 H588 0.977 . S
C558 C545 1.684 . S
C558 H583 0.979 . S
C558 H584 0.980 . S
C558 H585 0.983 . S
C559 C560 1.391 . S
C559 C564 1.391 . S
C559 H589 0.948 . S
C560 C559 1.391 . S
C560 C561 1.391 . S
C561 C560 1.391 . S
C561 C562 1.392 . S
C561 H590 0.947 . S
C562 C561 1.392 . S
C562 C563 1.419 . S
C562 H591 0.948 . S
C563 C562 1.419 . S
C563 C564 1.391 . S
C563 C567 1.397 1_554 S
C564 C559 1.391 . S
C564 C563 1.391 . S
C564 C565 1.399 . S
C565 C564 1.399 . S
C565 C566 1.396 1_554 S
C565 C568 1.453 1_554 S
C565 C569 1.684 . S
C566 C547 1.723 . S
C566 C565 1.396 1_556 S
C566 C567 1.394 . S
C567 C563 1.397 1_556 S
C567 C566 1.394 . S
C567 C577 1.723 . S
C568 C565 1.453 1_556 S
C568 H592 0.982 . S
C568 H593 0.979 . S
C568 H594 0.977 . S
C569 C565 1.684 . S
C569 H595 0.979 . S
C569 H596 0.980 . S
C569 H597 0.983 . S
C570 H546 0.948 . S
C570 C571 1.391 . S
C570 C575 1.391 . S
C571 C570 1.391 . S
C571 C572 1.391 . S
C572 H549 0.947 . S
C572 C571 1.391 . S
C572 C573 1.392 . S
C573 H550 0.948 . S
C573 C572 1.392 . S
C573 C574 1.419 . S
C574 C573 1.419 . S
C574 C575 1.391 . S
C574 C578 1.397 1_554 S
C575 C570 1.391 . S
C575 C574 1.391 . S
C575 C576 1.399 . S
C576 C575 1.399 . S
C576 C577 1.396 1_554 S
C576 C579 1.453 1_554 S
C576 C580 1.684 . S
C577 C567 1.723 . S
C577 C576 1.396 1_556 S
C577 C578 1.394 . S
C578 C548 1.723 . S
C578 C574 1.397 1_556 S
C578 C577 1.394 . S
C579 H551 0.982 . S
C579 H555 0.979 . S
C579 H556 0.977 . S
C579 C576 1.453 1_556 S
C580 H552 0.979 . S
C580 H553 0.980 . S
C580 H554 0.983 . S
C580 C576 1.684 . S
H581 C599 0.948 . S
H582 C540 0.948 . S
H583 C558 0.979 . S
H584 C558 0.980 . S
H585 C558 0.983 . S
H586 C557 0.982 . S
H587 C557 0.979 . S
H588 C557 0.977 . S
H589 C559 0.948 . S
H590 C561 0.947 . S
H591 C562 0.948 . S
H592 C568 0.982 . S
H593 C568 0.979 . S
H594 C568 0.977 . S
H595 C569 0.979 . S
H596 C569 0.980 . S
H597 C569 0.983 . S
H598 C542 0.947 . S
C599 C542 1.392 . S
C599 C543 1.419 . S
C599 H581 0.948 . S
C600 C601 1.391 . S
C600 C604 1.391 . S
C600 H642 0.948 . S
C601 C600 1.391 . S
C601 C602 1.391 . S
C602 C601 1.391 . S
C602 H658 0.947 . S
C602 C659 1.392 . S
C603 C604 1.391 . S
C603 C607 1.396 1_556 S
C603 C659 1.419 . S
C604 C600 1.391 . S
C604 C603 1.391 . S
C604 C605 1.399 . S
C605 C604 1.399 . S
C605 C608 1.396 1_556 S
C605 C617 1.453 1_556 S
C605 C618 1.684 . S
H606 C630 0.948 . S
C607 C603 1.396 1_554 S
C607 C608 1.395 . S
C607 C626 1.723 . S
C608 C605 1.396 1_554 S
C608 C607 1.395 . S
C608 C638 1.723 . S
H609 C632 0.947 . S
H610 C633 0.948 . S
H611 C639 0.982 . S
H612 C640 0.979 . S
H613 C640 0.980 . S
H614 C640 0.983 . S
H615 C639 0.979 . S
H616 C639 0.977 . S
C617 C605 1.453 1_554 S
C617 H646 0.982 . S
C617 H647 0.979 . S
C617 H648 0.977 . S
C618 C605 1.684 . S
C618 H643 0.979 . S
C618 H644 0.980 . S
C618 H645 0.983 . S
C619 C620 1.391 . S
C619 C624 1.391 . S
C619 H649 0.948 . S
C620 C619 1.391 . S
C620 C621 1.391 . S
C621 C620 1.391 . S
C621 C622 1.392 . S
C621 H650 0.947 . S
C622 C621 1.392 . S
C622 C623 1.419 . S
C622 H651 0.948 . S
C623 C622 1.419 . S
C623 C624 1.391 . S
C623 C627 1.396 1_556 S
C624 C619 1.391 . S
C624 C623 1.391 . S
C624 C625 1.399 . S
C625 C624 1.399 . S
C625 C626 1.396 1_556 S
C625 C628 1.453 1_556 S
C625 C629 1.684 . S
C626 C607 1.723 . S
C626 C625 1.396 1_554 S
C626 C627 1.395 . S
C627 C623 1.396 1_554 S
C627 C626 1.395 . S
C627 C637 1.723 . S
C628 C625 1.453 1_554 S
C628 H652 0.982 . S
C628 H653 0.979 . S
C628 H654 0.977 . S
C629 C625 1.684 . S
C629 H655 0.979 . S
C629 H656 0.980 . S
C629 H657 0.983 . S
C630 H606 0.948 . S
C630 C631 1.391 . S
C630 C635 1.391 . S
C631 C630 1.391 . S
C631 C632 1.391 . S
C632 H609 0.947 . S
C632 C631 1.391 . S
C632 C633 1.392 . S
C633 H610 0.948 . S
C633 C632 1.392 . S
C633 C634 1.419 . S
C634 C633 1.419 . S
C634 C635 1.391 . S
C634 C638 1.396 1_556 S
C635 C630 1.391 . S
C635 C634 1.391 . S
C635 C636 1.399 . S
C636 C635 1.399 . S
C636 C637 1.396 1_556 S
C636 C639 1.453 1_556 S
C636 C640 1.684 . S
C637 C627 1.723 . S
C637 C636 1.396 1_554 S
C637 C638 1.395 . S
C638 C608 1.723 . S
C638 C634 1.396 1_554 S
C638 C637 1.395 . S
C639 H611 0.982 . S
C639 H615 0.979 . S
C639 H616 0.977 . S
C639 C636 1.453 1_554 S
C640 H612 0.979 . S
C640 H613 0.980 . S
C640 H614 0.983 . S
C640 C636 1.684 . S
H641 C659 0.948 . S
H642 C600 0.948 . S
H643 C618 0.979 . S
H644 C618 0.980 . S
H645 C618 0.983 . S
H646 C617 0.982 . S
H647 C617 0.979 . S
H648 C617 0.977 . S
H649 C619 0.948 . S
H650 C621 0.947 . S
H651 C622 0.948 . S
H652 C628 0.982 . S
H653 C628 0.979 . S
H654 C628 0.977 . S
H655 C629 0.979 . S
H656 C629 0.980 . S
H657 C629 0.983 . S
H658 C602 0.947 . S
C659 C602 1.392 . S
C659 C603 1.419 . S
C659 H641 0.948 . S
C660 C661 1.391 . S
C660 C664 1.391 . S
C660 H702 0.948 . S
C661 C660 1.391 . S
C661 C662 1.391 . S
C662 C661 1.391 . S
C662 H718 0.947 . S
C662 C719 1.392 . S
C663 C664 1.391 . S
C663 C667 1.397 1_554 S
C663 C719 1.419 . S
C664 C660 1.391 . S
C664 C663 1.391 . S
C664 C665 1.399 . S
C665 C664 1.399 . S
C665 C668 1.396 1_554 S
C665 C677 1.453 1_554 S
C665 C678 1.684 . S
H666 C690 0.948 . S
C667 C663 1.397 1_556 S
C667 C668 1.394 . S
C667 C686 1.723 . S
C668 C665 1.396 1_556 S
C668 C667 1.394 . S
C668 C698 1.723 . S
H669 C692 0.947 . S
H670 C693 0.948 . S
H671 C699 0.982 . S
H672 C700 0.979 . S
H673 C700 0.980 . S
H674 C700 0.983 . S
H675 C699 0.979 . S
H676 C699 0.977 . S
C677 C665 1.453 1_556 S
C677 H706 0.982 . S
C677 H707 0.979 . S
C677 H708 0.977 . S
C678 C665 1.684 . S
C678 H703 0.979 . S
C678 H704 0.980 . S
C678 H705 0.983 . S
C679 C680 1.391 . S
C679 C684 1.391 . S
C679 H709 0.948 . S
C680 C679 1.391 . S
C680 C681 1.391 . S
C681 C680 1.391 . S
C681 C682 1.392 . S
C681 H710 0.947 . S
C682 C681 1.392 . S
C682 C683 1.419 . S
C682 H711 0.948 . S
C683 C682 1.419 . S
C683 C684 1.391 . S
C683 C687 1.397 1_554 S
C684 C679 1.391 . S
C684 C683 1.391 . S
C684 C685 1.399 . S
C685 C684 1.399 . S
C685 C686 1.396 1_554 S
C685 C688 1.453 1_554 S
C685 C689 1.684 . S
C686 C667 1.723 . S
C686 C685 1.396 1_556 S
C686 C687 1.394 . S
C687 C683 1.397 1_556 S
C687 C686 1.394 . S
C687 C697 1.723 . S
C688 C685 1.453 1_556 S
C688 H712 0.982 . S
C688 H713 0.979 . S
C688 H714 0.977 . S
C689 C685 1.684 . S
C689 H715 0.979 . S
C689 H716 0.980 . S
C689 H717 0.983 . S
C690 H666 0.948 . S
C690 C691 1.391 . S
C690 C695 1.391 . S
C691 C690 1.391 . S
C691 C692 1.391 . S
C692 H669 0.947 . S
C692 C691 1.391 . S
C692 C693 1.392 . S
C693 H670 0.948 . S
C693 C692 1.392 . S
C693 C694 1.419 . S
C694 C693 1.419 . S
C694 C695 1.391 . S
C694 C698 1.397 1_554 S
C695 C690 1.391 . S
C695 C694 1.391 . S
C695 C696 1.399 . S
C696 C695 1.399 . S
C696 C697 1.396 1_554 S
C696 C699 1.453 1_554 S
C696 C700 1.684 . S
C697 C687 1.723 . S
C697 C696 1.396 1_556 S
C697 C698 1.394 . S
C698 C668 1.723 . S
C698 C694 1.397 1_556 S
C698 C697 1.394 . S
C699 H671 0.982 . S
C699 H675 0.979 . S
C699 H676 0.977 . S
C699 C696 1.453 1_556 S
C700 H672 0.979 . S
C700 H673 0.980 . S
C700 H674 0.983 . S
C700 C696 1.684 . S
H701 C719 0.948 . S
H702 C660 0.948 . S
H703 C678 0.979 . S
H704 C678 0.980 . S
H705 C678 0.983 . S
H706 C677 0.982 . S
H707 C677 0.979 . S
H708 C677 0.977 . S
H709 C679 0.948 . S
H710 C681 0.947 . S
H711 C682 0.948 . S
H712 C688 0.982 . S
H713 C688 0.979 . S
H714 C688 0.977 . S
H715 C689 0.979 . S
H716 C689 0.980 . S
H717 C689 0.983 . S
H718 C662 0.947 . S
C719 C662 1.392 . S
C719 C663 1.419 . S
C719 H701 0.948 . S
C720 C721 1.391 . S
C720 C724 1.391 . S
C720 H762 0.948 . S
C721 C720 1.391 . S
C721 C722 1.391 . S
C722 C721 1.391 . S
C722 H778 0.947 . S
C722 C779 1.392 . S
C723 C724 1.391 . S
C723 C727 1.397 . S
C723 C779 1.419 . S
C724 C720 1.391 . S
C724 C723 1.391 . S
C724 C725 1.399 . S
C725 C724 1.399 . S
C725 C728 1.396 . S
C725 C737 1.453 . S
C725 C738 1.684 . S
H726 C750 0.948 . S
C727 C723 1.397 . S
C727 C728 1.394 . S
C727 C746 1.723 . S
C728 C725 1.396 . S
C728 C727 1.394 . S
C728 C758 1.723 . S
H729 C752 0.947 . S
H730 C753 0.948 . S
H731 C759 0.982 . S
H732 C760 0.979 . S
H733 C760 0.980 . S
H734 C760 0.983 . S
H735 C759 0.979 . S
H736 C759 0.977 . S
C737 C725 1.453 . S
C737 H766 0.982 . S
C737 H767 0.979 . S
C737 H768 0.977 . S
C738 C725 1.684 . S
C738 H763 0.979 . S
C738 H764 0.980 . S
C738 H765 0.983 . S
C739 C740 1.391 . S
C739 C744 1.391 . S
C739 H769 0.948 . S
C740 C739 1.391 . S
C740 C741 1.391 . S
C741 C740 1.391 . S
C741 C742 1.392 . S
C741 H770 0.947 . S
C742 C741 1.392 . S
C742 C743 1.419 . S
C742 H771 0.948 . S
C743 C742 1.419 . S
C743 C744 1.391 . S
C743 C747 1.397 . S
C744 C739 1.391 . S
C744 C743 1.391 . S
C744 C745 1.399 . S
C745 C744 1.399 . S
C745 C746 1.396 . S
C745 C748 1.453 . S
C745 C749 1.684 . S
C746 C727 1.723 . S
C746 C745 1.396 . S
C746 C747 1.394 . S
C747 C743 1.397 . S
C747 C746 1.394 . S
C747 C757 1.723 . S
C748 C745 1.453 . S
C748 H772 0.982 . S
C748 H773 0.979 . S
C748 H774 0.977 . S
C749 C745 1.684 . S
C749 H775 0.979 . S
C749 H776 0.980 . S
C749 H777 0.983 . S
C750 H726 0.948 . S
C750 C751 1.391 . S
C750 C755 1.391 . S
C751 C750 1.391 . S
C751 C752 1.391 . S
C752 H729 0.947 . S
C752 C751 1.391 . S
C752 C753 1.392 . S
C753 H730 0.948 . S
C753 C752 1.392 . S
C753 C754 1.419 . S
C754 C753 1.419 . S
C754 C755 1.391 . S
C754 C758 1.397 . S
C755 C750 1.391 . S
C755 C754 1.391 . S
C755 C756 1.399 . S
C756 C755 1.399 . S
C756 C757 1.396 . S
C756 C759 1.453 . S
C756 C760 1.684 . S
C757 C747 1.723 . S
C757 C756 1.396 . S
C757 C758 1.394 . S
C758 C728 1.723 . S
C758 C754 1.397 . S
C758 C757 1.394 . S
C759 H731 0.982 . S
C759 H735 0.979 . S
C759 H736 0.977 . S
C759 C756 1.453 . S
C760 H732 0.979 . S
C760 H733 0.980 . S
C760 H734 0.983 . S
C760 C756 1.684 . S
H761 C779 0.948 . S
H762 C720 0.948 . S
H763 C738 0.979 . S
H764 C738 0.980 . S
H765 C738 0.983 . S
H766 C737 0.982 . S
H767 C737 0.979 . S
H768 C737 0.977 . S
H769 C739 0.948 . S
H770 C741 0.947 . S
H771 C742 0.948 . S
H772 C748 0.982 . S
H773 C748 0.979 . S
H774 C748 0.977 . S
H775 C749 0.979 . S
H776 C749 0.980 . S
H777 C749 0.983 . S
H778 C722 0.947 . S
C779 C722 1.392 . S
C779 C723 1.419 . S
C779 H761 0.948 . S
C780 C781 1.391 . S
C780 C784 1.391 . S
C780 H822 0.948 . S
C781 C780 1.391 . S
C781 C782 1.391 . S
C782 C781 1.391 . S
C782 H838 0.947 . S
C782 C839 1.392 . S
C783 C784 1.391 . S
C783 C787 1.397 . S
C783 C839 1.419 . S
C784 C780 1.391 . S
C784 C783 1.391 . S
C784 C785 1.399 . S
C785 C784 1.399 . S
C785 C788 1.396 . S
C785 C797 1.453 . S
C785 C798 1.684 . S
H786 C810 0.948 . S
C787 C783 1.397 . S
C787 C788 1.394 . S
C787 C806 1.723 . S
C788 C785 1.396 . S
C788 C787 1.394 . S
C788 C818 1.723 . S
H789 C812 0.947 . S
H790 C813 0.948 . S
H791 C819 0.982 . S
H792 C820 0.979 . S
H793 C820 0.980 . S
H794 C820 0.983 . S
H795 C819 0.979 . S
H796 C819 0.977 . S
C797 C785 1.453 . S
C797 H826 0.982 . S
C797 H827 0.979 . S
C797 H828 0.977 . S
C798 C785 1.684 . S
C798 H823 0.979 . S
C798 H824 0.980 . S
C798 H825 0.983 . S
C799 C800 1.391 . S
C799 C804 1.391 . S
C799 H829 0.948 . S
C800 C799 1.391 . S
C800 C801 1.391 . S
C801 C800 1.391 . S
C801 C802 1.392 . S
C801 H830 0.947 . S
C802 C801 1.392 . S
C802 C803 1.419 . S
C802 H831 0.948 . S
C803 C802 1.419 . S
C803 C804 1.391 . S
C803 C807 1.397 . S
C804 C799 1.391 . S
C804 C803 1.391 . S
C804 C805 1.399 . S
C805 C804 1.399 . S
C805 C806 1.396 . S
C805 C808 1.453 . S
C805 C809 1.684 . S
C806 C787 1.723 . S
C806 C805 1.396 . S
C806 C807 1.394 . S
C807 C803 1.397 . S
C807 C806 1.394 . S
C807 C817 1.723 . S
C808 C805 1.453 . S
C808 H832 0.982 . S
C808 H833 0.979 . S
C808 H834 0.977 . S
C809 C805 1.684 . S
C809 H835 0.979 . S
C809 H836 0.980 . S
C809 H837 0.983 . S
C810 H786 0.948 . S
C810 C811 1.391 . S
C810 C815 1.391 . S
C811 C810 1.391 . S
C811 C812 1.391 . S
C812 H789 0.947 . S
C812 C811 1.391 . S
C812 C813 1.392 . S
C813 H790 0.948 . S
C813 C812 1.392 . S
C813 C814 1.419 . S
C814 C813 1.419 . S
C814 C815 1.391 . S
C814 C818 1.397 . S
C815 C810 1.391 . S
C815 C814 1.391 . S
C815 C816 1.399 . S
C816 C815 1.399 . S
C816 C817 1.396 . S
C816 C819 1.453 . S
C816 C820 1.684 . S
C817 C807 1.723 . S
C817 C816 1.396 . S
C817 C818 1.394 . S
C818 C788 1.723 . S
C818 C814 1.397 . S
C818 C817 1.394 . S
C819 H791 0.982 . S
C819 H795 0.979 . S
C819 H796 0.977 . S
C819 C816 1.453 . S
C820 H792 0.979 . S
C820 H793 0.980 . S
C820 H794 0.983 . S
C820 C816 1.684 . S
H821 C839 0.948 . S
H822 C780 0.948 . S
H823 C798 0.979 . S
H824 C798 0.980 . S
H825 C798 0.983 . S
H826 C797 0.982 . S
H827 C797 0.979 . S
H828 C797 0.977 . S
H829 C799 0.948 . S
H830 C801 0.947 . S
H831 C802 0.948 . S
H832 C808 0.982 . S
H833 C808 0.979 . S
H834 C808 0.977 . S
H835 C809 0.979 . S
H836 C809 0.980 . S
H837 C809 0.983 . S
H838 C782 0.947 . S
C839 C782 1.392 . S
C839 C783 1.419 . S
C839 H821 0.948 . S
C840 C841 1.391 . S
C840 C844 1.391 . S
C840 H882 0.948 . S
C841 C840 1.391 . S
C841 C842 1.391 . S
C842 C841 1.391 . S
C842 H898 0.947 . S
C842 C899 1.392 . S
C843 C844 1.391 . S
C843 C847 1.397 . S
C843 C899 1.419 . S
C844 C840 1.391 . S
C844 C843 1.391 . S
C844 C845 1.399 . S
C845 C844 1.399 . S
C845 C848 1.396 . S
C845 C857 1.453 . S
C845 C858 1.684 . S
H846 C870 0.948 . S
C847 C843 1.397 . S
C847 C848 1.394 . S
C847 C866 1.723 . S
C848 C845 1.396 . S
C848 C847 1.394 . S
C848 C878 1.723 . S
H849 C872 0.947 . S
H850 C873 0.948 . S
H851 C879 0.982 . S
H852 C880 0.979 . S
H853 C880 0.980 . S
H854 C880 0.983 . S
H855 C879 0.979 . S
H856 C879 0.977 . S
C857 C845 1.453 . S
C857 H886 0.982 . S
C857 H887 0.979 . S
C857 H888 0.977 . S
C858 C845 1.684 . S
C858 H883 0.979 . S
C858 H884 0.980 . S
C858 H885 0.983 . S
C859 C860 1.391 . S
C859 C864 1.391 . S
C859 H889 0.948 . S
C860 C859 1.391 . S
C860 C861 1.391 . S
C861 C860 1.391 . S
C861 C862 1.392 . S
C861 H890 0.947 . S
C862 C861 1.392 . S
C862 C863 1.419 . S
C862 H891 0.948 . S
C863 C862 1.419 . S
C863 C864 1.391 . S
C863 C867 1.397 . S
C864 C859 1.391 . S
C864 C863 1.391 . S
C864 C865 1.399 . S
C865 C864 1.399 . S
C865 C866 1.396 . S
C865 C868 1.453 . S
C865 C869 1.684 . S
C866 C847 1.723 . S
C866 C865 1.396 . S
C866 C867 1.394 . S
C867 C863 1.397 . S
C867 C866 1.394 . S
C867 C877 1.723 . S
C868 C865 1.453 . S
C868 H892 0.982 . S
C868 H893 0.979 . S
C868 H894 0.977 . S
C869 C865 1.684 . S
C869 H895 0.979 . S
C869 H896 0.980 . S
C869 H897 0.983 . S
C870 H846 0.948 . S
C870 C871 1.391 . S
C870 C875 1.391 . S
C871 C870 1.391 . S
C871 C872 1.391 . S
C872 H849 0.947 . S
C872 C871 1.391 . S
C872 C873 1.392 . S
C873 H850 0.948 . S
C873 C872 1.392 . S
C873 C874 1.419 . S
C874 C873 1.419 . S
C874 C875 1.391 . S
C874 C878 1.397 . S
C875 C870 1.391 . S
C875 C874 1.391 . S
C875 C876 1.399 . S
C876 C875 1.399 . S
C876 C877 1.396 . S
C876 C879 1.453 . S
C876 C880 1.684 . S
C877 C867 1.723 . S
C877 C876 1.396 . S
C877 C878 1.394 . S
C878 C848 1.723 . S
C878 C874 1.397 . S
C878 C877 1.394 . S
C879 H851 0.982 . S
C879 H855 0.979 . S
C879 H856 0.977 . S
C879 C876 1.453 . S
C880 H852 0.979 . S
C880 H853 0.980 . S
C880 H854 0.983 . S
C880 C876 1.684 . S
H881 C899 0.948 . S
H882 C840 0.948 . S
H883 C858 0.979 . S
H884 C858 0.980 . S
H885 C858 0.983 . S
H886 C857 0.982 . S
H887 C857 0.979 . S
H888 C857 0.977 . S
H889 C859 0.948 . S
H890 C861 0.947 . S
H891 C862 0.948 . S
H892 C868 0.982 . S
H893 C868 0.979 . S
H894 C868 0.977 . S
H895 C869 0.979 . S
H896 C869 0.980 . S
H897 C869 0.983 . S
H898 C842 0.947 . S
C899 C842 1.392 . S
C899 C843 1.419 . S
C899 H881 0.948 . S
C900 C901 1.391 . S
C900 C904 1.391 . S
C900 H942 0.948 . S
C901 C900 1.391 . S
C901 C902 1.391 . S
C902 C901 1.391 . S
C902 H958 0.947 . S
C902 C959 1.392 . S
C903 C904 1.391 . S
C903 C907 1.397 . S
C903 C959 1.419 . S
C904 C900 1.391 . S
C904 C903 1.391 . S
C904 C905 1.399 . S
C905 C904 1.399 . S
C905 C908 1.396 . S
C905 C917 1.453 . S
C905 C918 1.684 . S
H906 C930 0.948 . S
C907 C903 1.397 . S
C907 C908 1.394 . S
C907 C926 1.723 . S
C908 C905 1.396 . S
C908 C907 1.394 . S
C908 C938 1.723 . S
H909 C932 0.947 . S
H910 C933 0.948 . S
H911 C939 0.982 . S
H912 C940 0.979 . S
H913 C940 0.980 . S
H914 C940 0.983 . S
H915 C939 0.979 . S
H916 C939 0.977 . S
C917 C905 1.453 . S
C917 H946 0.982 . S
C917 H947 0.979 . S
C917 H948 0.977 . S
C918 C905 1.684 . S
C918 H943 0.979 . S
C918 H944 0.980 . S
C918 H945 0.983 . S
C919 C920 1.391 . S
C919 C924 1.391 . S
C919 H949 0.948 . S
C920 C919 1.391 . S
C920 C921 1.391 . S
C921 C920 1.391 . S
C921 C922 1.392 . S
C921 H950 0.947 . S
C922 C921 1.392 . S
C922 C923 1.419 . S
C922 H951 0.948 . S
C923 C922 1.419 . S
C923 C924 1.391 . S
C923 C927 1.397 . S
C924 C919 1.391 . S
C924 C923 1.391 . S
C924 C925 1.399 . S
C925 C924 1.399 . S
C925 C926 1.396 . S
C925 C928 1.453 . S
C925 C929 1.684 . S
C926 C907 1.723 . S
C926 C925 1.396 . S
C926 C927 1.394 . S
C927 C923 1.397 . S
C927 C926 1.394 . S
C927 C937 1.723 . S
C928 C925 1.453 . S
C928 H952 0.982 . S
C928 H953 0.979 . S
C928 H954 0.977 . S
C929 C925 1.684 . S
C929 H955 0.979 . S
C929 H956 0.980 . S
C929 H957 0.983 . S
C930 H906 0.948 . S
C930 C931 1.391 . S
C930 C935 1.391 . S
C931 C930 1.391 . S
C931 C932 1.391 . S
C932 H909 0.947 . S
C932 C931 1.391 . S
C932 C933 1.392 . S
C933 H910 0.948 . S
C933 C932 1.392 . S
C933 C934 1.419 . S
C934 C933 1.419 . S
C934 C935 1.391 . S
C934 C938 1.397 . S
C935 C930 1.391 . S
C935 C934 1.391 . S
C935 C936 1.399 . S
C936 C935 1.399 . S
C936 C937 1.396 . S
C936 C939 1.453 . S
C936 C940 1.684 . S
C937 C927 1.723 . S
C937 C936 1.396 . S
C937 C938 1.394 . S
C938 C908 1.723 . S
C938 C934 1.397 . S
C938 C937 1.394 . S
C939 H911 0.982 . S
C939 H915 0.979 . S
C939 H916 0.977 . S
C939 C936 1.453 . S
C940 H912 0.979 . S
C940 H913 0.980 . S
C940 H914 0.983 . S
C940 C936 1.684 . S
H941 C959 0.948 . S
H942 C900 0.948 . S
H943 C918 0.979 . S
H944 C918 0.980 . S
H945 C918 0.983 . S
H946 C917 0.982 . S
H947 C917 0.979 . S
H948 C917 0.977 . S
H949 C919 0.948 . S
H950 C921 0.947 . S
H951 C922 0.948 . S
H952 C928 0.982 . S
H953 C928 0.979 . S
H954 C928 0.977 . S
H955 C929 0.979 . S
H956 C929 0.980 . S
H957 C929 0.983 . S
H958 C902 0.947 . S
C959 C902 1.392 . S
C959 C903 1.419 . S
C959 H941 0.948 . S
C960 C961 1.391 . S
C960 C964 1.391 . S
C960 H1002 0.948 . S
C961 C960 1.391 . S
C961 C962 1.391 . S
C962 C961 1.391 . S
C962 H1018 0.947 . S
C962 C1019 1.392 . S
C963 C964 1.391 . S
C963 C967 1.397 . S
C963 C1019 1.419 . S
C964 C960 1.391 . S
C964 C963 1.391 . S
C964 C965 1.399 . S
C965 C964 1.399 . S
C965 C968 1.396 . S
C965 C977 1.453 . S
C965 C978 1.684 . S
H966 C990 0.948 . S
C967 C963 1.397 . S
C967 C968 1.394 . S
C967 C986 1.723 . S
C968 C965 1.396 . S
C968 C967 1.394 . S
C968 C998 1.723 . S
H969 C992 0.947 . S
H970 C993 0.948 . S
H971 C999 0.982 . S
H972 C1000 0.979 . S
H973 C1000 0.980 . S
H974 C1000 0.983 . S
H975 C999 0.979 . S
H976 C999 0.977 . S
C977 C965 1.453 . S
C977 H1006 0.982 . S
C977 H1007 0.979 . S
C977 H1008 0.977 . S
C978 C965 1.684 . S
C978 H1003 0.979 . S
C978 H1004 0.980 . S
C978 H1005 0.983 . S
C979 C980 1.391 . S
C979 C984 1.391 . S
C979 H1009 0.948 . S
C980 C979 1.391 . S
C980 C981 1.391 . S
C981 C980 1.391 . S
C981 C982 1.392 . S
C981 H1010 0.947 . S
C982 C981 1.392 . S
C982 C983 1.419 . S
C982 H1011 0.948 . S
C983 C982 1.419 . S
C983 C984 1.391 . S
C983 C987 1.397 . S
C984 C979 1.391 . S
C984 C983 1.391 . S
C984 C985 1.399 . S
C985 C984 1.399 . S
C985 C986 1.396 . S
C985 C988 1.453 . S
C985 C989 1.684 . S
C986 C967 1.723 . S
C986 C985 1.396 . S
C986 C987 1.394 . S
C987 C983 1.397 . S
C987 C986 1.394 . S
C987 C997 1.723 . S
C988 C985 1.453 . S
C988 H1012 0.982 . S
C988 H1013 0.979 . S
C988 H1014 0.977 . S
C989 C985 1.684 . S
C989 H1015 0.979 . S
C989 H1016 0.980 . S
C989 H1017 0.983 . S
C990 H966 0.948 . S
C990 C991 1.391 . S
C990 C995 1.391 . S
C991 C990 1.391 . S
C991 C992 1.391 . S
C992 H969 0.947 . S
C992 C991 1.391 . S
C992 C993 1.392 . S
C993 H970 0.948 . S
C993 C992 1.392 . S
C993 C994 1.419 . S
C994 C993 1.419 . S
C994 C995 1.391 . S
C994 C998 1.397 . S
C995 C990 1.391 . S
C995 C994 1.391 . S
C995 C996 1.399 . S
C996 C995 1.399 . S
C996 C997 1.396 . S
C996 C999 1.453 . S
C996 C1000 1.684 . S
C997 C987 1.723 . S
C997 C996 1.396 . S
C997 C998 1.394 . S
C998 C968 1.723 . S
C998 C994 1.397 . S
C998 C997 1.394 . S
C999 H971 0.982 . S
C999 H975 0.979 . S
C999 H976 0.977 . S
C999 C996 1.453 . S
C1000 H972 0.979 . S
C1000 H973 0.980 . S
C1000 H974 0.983 . S
C1000 C996 1.684 . S
H1001 C1019 0.948 . S
H1002 C960 0.948 . S
H1003 C978 0.979 . S
H1004 C978 0.980 . S
H1005 C978 0.983 . S
H1006 C977 0.982 . S
H1007 C977 0.979 . S
H1008 C977 0.977 . S
H1009 C979 0.948 . S
H1010 C981 0.947 . S
H1011 C982 0.948 . S
H1012 C988 0.982 . S
H1013 C988 0.979 . S
H1014 C988 0.977 . S
H1015 C989 0.979 . S
H1016 C989 0.980 . S
H1017 C989 0.983 . S
H1018 C962 0.947 . S
C1019 C962 1.392 . S
C1019 C963 1.419 . S
C1019 H1001 0.948 . S
C1020 C1021 1.391 . S
C1020 C1024 1.391 . S
C1020 H1062 0.948 . S
C1021 C1020 1.391 . S
C1021 C1022 1.391 . S
C1022 C1021 1.391 . S
C1022 H1078 0.947 . S
C1022 C1079 1.392 . S
C1023 C1024 1.391 . S
C1023 C1027 1.397 . S
C1023 C1079 1.419 . S
C1024 C1020 1.391 . S
C1024 C1023 1.391 . S
C1024 C1025 1.399 . S
C1025 C1024 1.399 . S
C1025 C1028 1.396 . S
C1025 C1037 1.453 . S
C1025 C1038 1.684 . S
H1026 C1050 0.948 . S
C1027 C1023 1.397 . S
C1027 C1028 1.394 . S
C1027 C1046 1.723 . S
C1028 C1025 1.396 . S
C1028 C1027 1.394 . S
C1028 C1058 1.723 . S
H1029 C1052 0.947 . S
H1030 C1053 0.948 . S
H1031 C1059 0.982 . S
H1032 C1060 0.979 . S
H1033 C1060 0.980 . S
H1034 C1060 0.983 . S
H1035 C1059 0.979 . S
H1036 C1059 0.977 . S
C1037 C1025 1.453 . S
C1037 H1066 0.982 . S
C1037 H1067 0.979 . S
C1037 H1068 0.977 . S
C1038 C1025 1.684 . S
C1038 H1063 0.979 . S
C1038 H1064 0.980 . S
C1038 H1065 0.983 . S
C1039 C1040 1.391 . S
C1039 C1044 1.391 . S
C1039 H1069 0.948 . S
C1040 C1039 1.391 . S
C1040 C1041 1.391 . S
C1041 C1040 1.391 . S
C1041 C1042 1.392 . S
C1041 H1070 0.947 . S
C1042 C1041 1.392 . S
C1042 C1043 1.419 . S
C1042 H1071 0.948 . S
C1043 C1042 1.419 . S
C1043 C1044 1.391 . S
C1043 C1047 1.397 . S
C1044 C1039 1.391 . S
C1044 C1043 1.391 . S
C1044 C1045 1.399 . S
C1045 C1044 1.399 . S
C1045 C1046 1.396 . S
C1045 C1048 1.453 . S
C1045 C1049 1.684 . S
C1046 C1027 1.723 . S
C1046 C1045 1.396 . S
C1046 C1047 1.394 . S
C1047 C1043 1.397 . S
C1047 C1046 1.394 . S
C1047 C1057 1.723 . S
C1048 C1045 1.453 . S
C1048 H1072 0.982 . S
C1048 H1073 0.979 . S
C1048 H1074 0.977 . S
C1049 C1045 1.684 . S
C1049 H1075 0.979 . S
C1049 H1076 0.980 . S
C1049 H1077 0.983 . S
C1050 H1026 0.948 . S
C1050 C1051 1.391 . S
C1050 C1055 1.391 . S
C1051 C1050 1.391 . S
C1051 C1052 1.391 . S
C1052 H1029 0.947 . S
C1052 C1051 1.391 . S
C1052 C1053 1.392 . S
C1053 H1030 0.948 . S
C1053 C1052 1.392 . S
C1053 C1054 1.419 . S
C1054 C1053 1.419 . S
C1054 C1055 1.391 . S
C1054 C1058 1.397 . S
C1055 C1050 1.391 . S
C1055 C1054 1.391 . S
C1055 C1056 1.399 . S
C1056 C1055 1.399 . S
C1056 C1057 1.396 . S
C1056 C1059 1.453 . S
C1056 C1060 1.684 . S
C1057 C1047 1.723 . S
C1057 C1056 1.396 . S
C1057 C1058 1.394 . S
C1058 C1028 1.723 . S
C1058 C1054 1.397 . S
C1058 C1057 1.394 . S
C1059 H1031 0.982 . S
C1059 H1035 0.979 . S
C1059 H1036 0.977 . S
C1059 C1056 1.453 . S
C1060 H1032 0.979 . S
C1060 H1033 0.980 . S
C1060 H1034 0.983 . S
C1060 C1056 1.684 . S
H1061 C1079 0.948 . S
H1062 C1020 0.948 . S
H1063 C1038 0.979 . S
H1064 C1038 0.980 . S
H1065 C1038 0.983 . S
H1066 C1037 0.982 . S
H1067 C1037 0.979 . S
H1068 C1037 0.977 . S
H1069 C1039 0.948 . S
H1070 C1041 0.947 . S
H1071 C1042 0.948 . S
H1072 C1048 0.982 . S
H1073 C1048 0.979 . S
H1074 C1048 0.977 . S
H1075 C1049 0.979 . S
H1076 C1049 0.980 . S
H1077 C1049 0.983 . S
H1078 C1022 0.947 . S
C1079 C1022 1.392 . S
C1079 C1023 1.419 . S
C1079 H1061 0.948 . S
C1080 C1081 1.391 . S
C1080 C1084 1.391 . S
C1080 H1122 0.948 . S
C1081 C1080 1.391 . S
C1081 C1082 1.391 . S
C1082 C1081 1.391 . S
C1082 H1138 0.947 . S
C1082 C1139 1.392 . S
C1083 C1084 1.391 . S
C1083 C1087 1.397 . S
C1083 C1139 1.419 . S
C1084 C1080 1.391 . S
C1084 C1083 1.391 . S
C1084 C1085 1.399 . S
C1085 C1084 1.399 . S
C1085 C1088 1.396 . S
C1085 C1097 1.453 . S
C1085 C1098 1.684 . S
H1086 C1110 0.948 . S
C1087 C1083 1.397 . S
C1087 C1088 1.394 . S
C1087 C1106 1.723 . S
C1088 C1085 1.396 . S
C1088 C1087 1.394 . S
C1088 C1118 1.723 . S
H1089 C1112 0.947 . S
H1090 C1113 0.948 . S
H1091 C1119 0.982 . S
H1092 C1120 0.979 . S
H1093 C1120 0.980 . S
H1094 C1120 0.983 . S
H1095 C1119 0.979 . S
H1096 C1119 0.977 . S
C1097 C1085 1.453 . S
C1097 H1126 0.982 . S
C1097 H1127 0.979 . S
C1097 H1128 0.977 . S
C1098 C1085 1.684 . S
C1098 H1123 0.979 . S
C1098 H1124 0.980 . S
C1098 H1125 0.983 . S
C1099 C1100 1.391 . S
C1099 C1104 1.391 . S
C1099 H1129 0.948 . S
C1100 C1099 1.391 . S
C1100 C1101 1.391 . S
C1101 C1100 1.391 . S
C1101 C1102 1.392 . S
C1101 H1130 0.947 . S
C1102 C1101 1.392 . S
C1102 C1103 1.419 . S
C1102 H1131 0.948 . S
C1103 C1102 1.419 . S
C1103 C1104 1.391 . S
C1103 C1107 1.397 . S
C1104 C1099 1.391 . S
C1104 C1103 1.391 . S
C1104 C1105 1.399 . S
C1105 C1104 1.399 . S
C1105 C1106 1.396 . S
C1105 C1108 1.453 . S
C1105 C1109 1.684 . S
C1106 C1087 1.723 . S
C1106 C1105 1.396 . S
C1106 C1107 1.394 . S
C1107 C1103 1.397 . S
C1107 C1106 1.394 . S
C1107 C1117 1.723 . S
C1108 C1105 1.453 . S
C1108 H1132 0.982 . S
C1108 H1133 0.979 . S
C1108 H1134 0.977 . S
C1109 C1105 1.684 . S
C1109 H1135 0.979 . S
C1109 H1136 0.980 . S
C1109 H1137 0.983 . S
C1110 H1086 0.948 . S
C1110 C1111 1.391 . S
C1110 C1115 1.391 . S
C1111 C1110 1.391 . S
C1111 C1112 1.391 . S
C1112 H1089 0.947 . S
C1112 C1111 1.391 . S
C1112 C1113 1.392 . S
C1113 H1090 0.948 . S
C1113 C1112 1.392 . S
C1113 C1114 1.419 . S
C1114 C1113 1.419 . S
C1114 C1115 1.391 . S
C1114 C1118 1.397 . S
C1115 C1110 1.391 . S
C1115 C1114 1.391 . S
C1115 C1116 1.399 . S
C1116 C1115 1.399 . S
C1116 C1117 1.396 . S
C1116 C1119 1.453 . S
C1116 C1120 1.684 . S
C1117 C1107 1.723 . S
C1117 C1116 1.396 . S
C1117 C1118 1.394 . S
C1118 C1088 1.723 . S
C1118 C1114 1.397 . S
C1118 C1117 1.394 . S
C1119 H1091 0.982 . S
C1119 H1095 0.979 . S
C1119 H1096 0.977 . S
C1119 C1116 1.453 . S
C1120 H1092 0.979 . S
C1120 H1093 0.980 . S
C1120 H1094 0.983 . S
C1120 C1116 1.684 . S
H1121 C1139 0.948 . S
H1122 C1080 0.948 . S
H1123 C1098 0.979 . S
H1124 C1098 0.980 . S
H1125 C1098 0.983 . S
H1126 C1097 0.982 . S
H1127 C1097 0.979 . S
H1128 C1097 0.977 . S
H1129 C1099 0.948 . S
H1130 C1101 0.947 . S
H1131 C1102 0.948 . S
H1132 C1108 0.982 . S
H1133 C1108 0.979 . S
H1134 C1108 0.977 . S
H1135 C1109 0.979 . S
H1136 C1109 0.980 . S
H1137 C1109 0.983 . S
H1138 C1082 0.947 . S
C1139 C1082 1.392 . S
C1139 C1083 1.419 . S
C1139 H1121 0.948 . S
C1140 C1141 1.391 . S
C1140 C1144 1.391 . S
C1140 H1182 0.948 . S
C1141 C1140 1.391 . S
C1141 C1142 1.391 . S
C1142 C1141 1.391 . S
C1142 H1198 0.947 . S
C1142 C1199 1.392 . S
C1143 C1144 1.391 . S
C1143 C1147 1.397 . S
C1143 C1199 1.419 . S
C1144 C1140 1.391 . S
C1144 C1143 1.391 . S
C1144 C1145 1.399 . S
C1145 C1144 1.399 . S
C1145 C1148 1.396 . S
C1145 C1157 1.453 . S
C1145 C1158 1.684 . S
H1146 C1170 0.948 . S
C1147 C1143 1.397 . S
C1147 C1148 1.394 . S
C1147 C1166 1.723 . S
C1148 C1145 1.396 . S
C1148 C1147 1.394 . S
C1148 C1178 1.723 . S
H1149 C1172 0.947 . S
H1150 C1173 0.948 . S
H1151 C1179 0.982 . S
H1152 C1180 0.979 . S
H1153 C1180 0.980 . S
H1154 C1180 0.983 . S
H1155 C1179 0.979 . S
H1156 C1179 0.977 . S
C1157 C1145 1.453 . S
C1157 H1186 0.982 . S
C1157 H1187 0.979 . S
C1157 H1188 0.977 . S
C1158 C1145 1.684 . S
C1158 H1183 0.979 . S
C1158 H1184 0.980 . S
C1158 H1185 0.983 . S
C1159 C1160 1.391 . S
C1159 C1164 1.391 . S
C1159 H1189 0.948 . S
C1160 C1159 1.391 . S
C1160 C1161 1.391 . S
C1161 C1160 1.391 . S
C1161 C1162 1.392 . S
C1161 H1190 0.947 . S
C1162 C1161 1.392 . S
C1162 C1163 1.419 . S
C1162 H1191 0.948 . S
C1163 C1162 1.419 . S
C1163 C1164 1.391 . S
C1163 C1167 1.397 . S
C1164 C1159 1.391 . S
C1164 C1163 1.391 . S
C1164 C1165 1.399 . S
C1165 C1164 1.399 . S
C1165 C1166 1.396 . S
C1165 C1168 1.453 . S
C1165 C1169 1.684 . S
C1166 C1147 1.723 . S
C1166 C1165 1.396 . S
C1166 C1167 1.394 . S
C1167 C1163 1.397 . S
C1167 C1166 1.394 . S
C1167 C1177 1.723 . S
C1168 C1165 1.453 . S
C1168 H1192 0.982 . S
C1168 H1193 0.979 . S
C1168 H1194 0.977 . S
C1169 C1165 1.684 . S
C1169 H1195 0.979 . S
C1169 H1196 0.980 . S
C1169 H1197 0.983 . S
C1170 H1146 0.948 . S
C1170 C1171 1.391 . S
C1170 C1175 1.391 . S
C1171 C1170 1.391 . S
C1171 C1172 1.391 . S
C1172 H1149 0.947 . S
C1172 C1171 1.391 . S
C1172 C1173 1.392 . S
C1173 H1150 0.948 . S
C1173 C1172 1.392 . S
C1173 C1174 1.419 . S
C1174 C1173 1.419 . S
C1174 C1175 1.391 . S
C1174 C1178 1.397 . S
C1175 C1170 1.391 . S
C1175 C1174 1.391 . S
C1175 C1176 1.399 . S
C1176 C1175 1.399 . S
C1176 C1177 1.396 . S
C1176 C1179 1.453 . S
C1176 C1180 1.684 . S
C1177 C1167 1.723 . S
C1177 C1176 1.396 . S
C1177 C1178 1.394 . S
C1178 C1148 1.723 . S
C1178 C1174 1.397 . S
C1178 C1177 1.394 . S
C1179 H1151 0.982 . S
C1179 H1155 0.979 . S
C1179 H1156 0.977 . S
C1179 C1176 1.453 . S
C1180 H1152 0.979 . S
C1180 H1153 0.980 . S
C1180 H1154 0.983 . S
C1180 C1176 1.684 . S
H1181 C1199 0.948 . S
H1182 C1140 0.948 . S
H1183 C1158 0.979 . S
H1184 C1158 0.980 . S
H1185 C1158 0.983 . S
H1186 C1157 0.982 . S
H1187 C1157 0.979 . S
H1188 C1157 0.977 . S
H1189 C1159 0.948 . S
H1190 C1161 0.947 . S
H1191 C1162 0.948 . S
H1192 C1168 0.982 . S
H1193 C1168 0.979 . S
H1194 C1168 0.977 . S
H1195 C1169 0.979 . S
H1196 C1169 0.980 . S
H1197 C1169 0.983 . S
H1198 C1142 0.947 . S
C1199 C1142 1.392 . S
C1199 C1143 1.419 . S
C1199 H1181 0.948 . S
C1200 C1201 1.391 . S
C1200 C1204 1.391 . S
C1200 H1242 0.948 . S
C1201 C1200 1.391 . S
C1201 C1202 1.391 . S
C1202 C1201 1.391 . S
C1202 H1258 0.947 . S
C1202 C1259 1.392 . S
C1203 C1204 1.391 . S
C1203 C1207 1.397 . S
C1203 C1259 1.419 . S
C1204 C1200 1.391 . S
C1204 C1203 1.391 . S
C1204 C1205 1.399 . S
C1205 C1204 1.399 . S
C1205 C1208 1.396 . S
C1205 C1217 1.453 . S
C1205 C1218 1.684 . S
H1206 C1230 0.948 . S
C1207 C1203 1.397 . S
C1207 C1208 1.394 . S
C1207 C1226 1.723 . S
C1208 C1205 1.396 . S
C1208 C1207 1.394 . S
C1208 C1238 1.723 . S
H1209 C1232 0.947 . S
H1210 C1233 0.948 . S
H1211 C1239 0.982 . S
H1212 C1240 0.979 . S
H1213 C1240 0.980 . S
H1214 C1240 0.983 . S
H1215 C1239 0.979 . S
H1216 C1239 0.977 . S
C1217 C1205 1.453 . S
C1217 H1246 0.982 . S
C1217 H1247 0.979 . S
C1217 H1248 0.977 . S
C1218 C1205 1.684 . S
C1218 H1243 0.979 . S
C1218 H1244 0.980 . S
C1218 H1245 0.983 . S
C1219 C1220 1.391 . S
C1219 C1224 1.391 . S
C1219 H1249 0.948 . S
C1220 C1219 1.391 . S
C1220 C1221 1.391 . S
C1221 C1220 1.391 . S
C1221 C1222 1.392 . S
C1221 H1250 0.947 . S
C1222 C1221 1.392 . S
C1222 C1223 1.419 . S
C1222 H1251 0.948 . S
C1223 C1222 1.419 . S
C1223 C1224 1.391 . S
C1223 C1227 1.397 . S
C1224 C1219 1.391 . S
C1224 C1223 1.391 . S
C1224 C1225 1.399 . S
C1225 C1224 1.399 . S
C1225 C1226 1.396 . S
C1225 C1228 1.453 . S
C1225 C1229 1.684 . S
C1226 C1207 1.723 . S
C1226 C1225 1.396 . S
C1226 C1227 1.394 . S
C1227 C1223 1.397 . S
C1227 C1226 1.394 . S
C1227 C1237 1.723 . S
C1228 C1225 1.453 . S
C1228 H1252 0.982 . S
C1228 H1253 0.979 . S
C1228 H1254 0.977 . S
C1229 C1225 1.684 . S
C1229 H1255 0.979 . S
C1229 H1256 0.980 . S
C1229 H1257 0.983 . S
C1230 H1206 0.948 . S
C1230 C1231 1.391 . S
C1230 C1235 1.391 . S
C1231 C1230 1.391 . S
C1231 C1232 1.391 . S
C1232 H1209 0.947 . S
C1232 C1231 1.391 . S
C1232 C1233 1.392 . S
C1233 H1210 0.948 . S
C1233 C1232 1.392 . S
C1233 C1234 1.419 . S
C1234 C1233 1.419 . S
C1234 C1235 1.391 . S
C1234 C1238 1.397 . S
C1235 C1230 1.391 . S
C1235 C1234 1.391 . S
C1235 C1236 1.399 . S
C1236 C1235 1.399 . S
C1236 C1237 1.396 . S
C1236 C1239 1.453 . S
C1236 C1240 1.684 . S
C1237 C1227 1.723 . S
C1237 C1236 1.396 . S
C1237 C1238 1.394 . S
C1238 C1208 1.723 . S
C1238 C1234 1.397 . S
C1238 C1237 1.394 . S
C1239 H1211 0.982 . S
C1239 H1215 0.979 . S
C1239 H1216 0.977 . S
C1239 C1236 1.453 . S
C1240 H1212 0.979 . S
C1240 H1213 0.980 . S
C1240 H1214 0.983 . S
C1240 C1236 1.684 . S
H1241 C1259 0.948 . S
H1242 C1200 0.948 . S
H1243 C1218 0.979 . S
H1244 C1218 0.980 . S
H1245 C1218 0.983 . S
H1246 C1217 0.982 . S
H1247 C1217 0.979 . S
H1248 C1217 0.977 . S
H1249 C1219 0.948 . S
H1250 C1221 0.947 . S
H1251 C1222 0.948 . S
H1252 C1228 0.982 . S
H1253 C1228 0.979 . S
H1254 C1228 0.977 . S
H1255 C1229 0.979 . S
H1256 C1229 0.980 . S
H1257 C1229 0.983 . S
H1258 C1202 0.947 . S
C1259 C1202 1.392 . S
C1259 C1203 1.419 . S
C1259 H1241 0.948 . S
C1260 C1261 1.391 . S
C1260 C1264 1.391 . S
C1260 H1302 0.948 . S
C1261 C1260 1.391 . S
C1261 C1262 1.391 . S
C1262 C1261 1.391 . S
C1262 H1318 0.947 . S
C1262 C1319 1.392 . S
C1263 C1264 1.391 . S
C1263 C1267 1.397 . S
C1263 C1319 1.419 . S
C1264 C1260 1.391 . S
C1264 C1263 1.391 . S
C1264 C1265 1.399 . S
C1265 C1264 1.399 . S
C1265 C1268 1.396 . S
C1265 C1277 1.453 . S
C1265 C1278 1.684 . S
H1266 C1290 0.948 . S
C1267 C1263 1.397 . S
C1267 C1268 1.394 . S
C1267 C1286 1.723 . S
C1268 C1265 1.396 . S
C1268 C1267 1.394 . S
C1268 C1298 1.723 . S
H1269 C1292 0.947 . S
H1270 C1293 0.948 . S
H1271 C1299 0.982 . S
H1272 C1300 0.979 . S
H1273 C1300 0.980 . S
H1274 C1300 0.983 . S
H1275 C1299 0.979 . S
H1276 C1299 0.977 . S
C1277 C1265 1.453 . S
C1277 H1306 0.982 . S
C1277 H1307 0.979 . S
C1277 H1308 0.977 . S
C1278 C1265 1.684 . S
C1278 H1303 0.979 . S
C1278 H1304 0.980 . S
C1278 H1305 0.983 . S
C1279 C1280 1.391 . S
C1279 C1284 1.391 . S
C1279 H1309 0.948 . S
C1280 C1279 1.391 . S
C1280 C1281 1.391 . S
C1281 C1280 1.391 . S
C1281 C1282 1.392 . S
C1281 H1310 0.947 . S
C1282 C1281 1.392 . S
C1282 C1283 1.419 . S
C1282 H1311 0.948 . S
C1283 C1282 1.419 . S
C1283 C1284 1.391 . S
C1283 C1287 1.397 . S
C1284 C1279 1.391 . S
C1284 C1283 1.391 . S
C1284 C1285 1.399 . S
C1285 C1284 1.399 . S
C1285 C1286 1.396 . S
C1285 C1288 1.453 . S
C1285 C1289 1.684 . S
C1286 C1267 1.723 . S
C1286 C1285 1.396 . S
C1286 C1287 1.394 . S
C1287 C1283 1.397 . S
C1287 C1286 1.394 . S
C1287 C1297 1.723 . S
C1288 C1285 1.453 . S
C1288 H1312 0.982 . S
C1288 H1313 0.979 . S
C1288 H1314 0.977 . S
C1289 C1285 1.684 . S
C1289 H1315 0.979 . S
C1289 H1316 0.980 . S
C1289 H1317 0.983 . S
C1290 H1266 0.948 . S
C1290 C1291 1.391 . S
C1290 C1295 1.391 . S
C1291 C1290 1.391 . S
C1291 C1292 1.391 . S
C1292 H1269 0.947 . S
C1292 C1291 1.391 . S
C1292 C1293 1.392 . S
C1293 H1270 0.948 . S
C1293 C1292 1.392 . S
C1293 C1294 1.419 . S
C1294 C1293 1.419 . S
C1294 C1295 1.391 . S
C1294 C1298 1.397 . S
C1295 C1290 1.391 . S
C1295 C1294 1.391 . S
C1295 C1296 1.399 . S
C1296 C1295 1.399 . S
C1296 C1297 1.396 . S
C1296 C1299 1.453 . S
C1296 C1300 1.684 . S
C1297 C1287 1.723 . S
C1297 C1296 1.396 . S
C1297 C1298 1.394 . S
C1298 C1268 1.723 . S
C1298 C1294 1.397 . S
C1298 C1297 1.394 . S
C1299 H1271 0.982 . S
C1299 H1275 0.979 . S
C1299 H1276 0.977 . S
C1299 C1296 1.453 . S
C1300 H1272 0.979 . S
C1300 H1273 0.980 . S
C1300 H1274 0.983 . S
C1300 C1296 1.684 . S
H1301 C1319 0.948 . S
H1302 C1260 0.948 . S
H1303 C1278 0.979 . S
H1304 C1278 0.980 . S
H1305 C1278 0.983 . S
H1306 C1277 0.982 . S
H1307 C1277 0.979 . S
H1308 C1277 0.977 . S
H1309 C1279 0.948 . S
H1310 C1281 0.947 . S
H1311 C1282 0.948 . S
H1312 C1288 0.982 . S
H1313 C1288 0.979 . S
H1314 C1288 0.977 . S
H1315 C1289 0.979 . S
H1316 C1289 0.980 . S
H1317 C1289 0.983 . S
H1318 C1262 0.947 . S
C1319 C1262 1.392 . S
C1319 C1263 1.419 . S
C1319 H1301 0.948 . S
C1320 C1321 1.391 . S
C1320 C1324 1.391 . S
C1320 H1362 0.948 . S
C1321 C1320 1.391 . S
C1321 C1322 1.391 . S
C1322 C1321 1.391 . S
C1322 H1378 0.947 . S
C1322 C1379 1.392 . S
C1323 C1324 1.391 . S
C1323 C1327 1.397 . S
C1323 C1379 1.419 . S
C1324 C1320 1.391 . S
C1324 C1323 1.391 . S
C1324 C1325 1.399 . S
C1325 C1324 1.399 . S
C1325 C1328 1.396 . S
C1325 C1337 1.453 . S
C1325 C1338 1.684 . S
H1326 C1350 0.948 . S
C1327 C1323 1.397 . S
C1327 C1328 1.394 . S
C1327 C1346 1.723 . S
C1328 C1325 1.396 . S
C1328 C1327 1.394 . S
C1328 C1358 1.723 . S
H1329 C1352 0.947 . S
H1330 C1353 0.948 . S
H1331 C1359 0.982 . S
H1332 C1360 0.979 . S
H1333 C1360 0.980 . S
H1334 C1360 0.983 . S
H1335 C1359 0.979 . S
H1336 C1359 0.977 . S
C1337 C1325 1.453 . S
C1337 H1366 0.982 . S
C1337 H1367 0.979 . S
C1337 H1368 0.977 . S
C1338 C1325 1.684 . S
C1338 H1363 0.979 . S
C1338 H1364 0.980 . S
C1338 H1365 0.983 . S
C1339 C1340 1.391 . S
C1339 C1344 1.391 . S
C1339 H1369 0.948 . S
C1340 C1339 1.391 . S
C1340 C1341 1.391 . S
C1341 C1340 1.391 . S
C1341 C1342 1.392 . S
C1341 H1370 0.947 . S
C1342 C1341 1.392 . S
C1342 C1343 1.419 . S
C1342 H1371 0.948 . S
C1343 C1342 1.419 . S
C1343 C1344 1.391 . S
C1343 C1347 1.397 . S
C1344 C1339 1.391 . S
C1344 C1343 1.391 . S
C1344 C1345 1.399 . S
C1345 C1344 1.399 . S
C1345 C1346 1.396 . S
C1345 C1348 1.453 . S
C1345 C1349 1.684 . S
C1346 C1327 1.723 . S
C1346 C1345 1.396 . S
C1346 C1347 1.394 . S
C1347 C1343 1.397 . S
C1347 C1346 1.394 . S
C1347 C1357 1.723 . S
C1348 C1345 1.453 . S
C1348 H1372 0.982 . S
C1348 H1373 0.979 . S
C1348 H1374 0.977 . S
C1349 C1345 1.684 . S
C1349 H1375 0.979 . S
C1349 H1376 0.980 . S
C1349 H1377 0.983 . S
C1350 H1326 0.948 . S
C1350 C1351 1.391 . S
C1350 C1355 1.391 . S
C1351 C1350 1.391 . S
C1351 C1352 1.391 . S
C1352 H1329 0.947 . S
C1352 C1351 1.391 . S
C1352 C1353 1.392 . S
C1353 H1330 0.948 . S
C1353 C1352 1.392 . S
C1353 C1354 1.419 . S
C1354 C1353 1.419 . S
C1354 C1355 1.391 . S
C1354 C1358 1.397 . S
C1355 C1350 1.391 . S
C1355 C1354 1.391 . S
C1355 C1356 1.399 . S
C1356 C1355 1.399 . S
C1356 C1357 1.396 . S
C1356 C1359 1.453 . S
C1356 C1360 1.684 . S
C1357 C1347 1.723 . S
C1357 C1356 1.396 . S
C1357 C1358 1.394 . S
C1358 C1328 1.723 . S
C1358 C1354 1.397 . S
C1358 C1357 1.394 . S
C1359 H1331 0.982 . S
C1359 H1335 0.979 . S
C1359 H1336 0.977 . S
C1359 C1356 1.453 . S
C1360 H1332 0.979 . S
C1360 H1333 0.980 . S
C1360 H1334 0.983 . S
C1360 C1356 1.684 . S
H1361 C1379 0.948 . S
H1362 C1320 0.948 . S
H1363 C1338 0.979 . S
H1364 C1338 0.980 . S
H1365 C1338 0.983 . S
H1366 C1337 0.982 . S
H1367 C1337 0.979 . S
H1368 C1337 0.977 . S
H1369 C1339 0.948 . S
H1370 C1341 0.947 . S
H1371 C1342 0.948 . S
H1372 C1348 0.982 . S
H1373 C1348 0.979 . S
H1374 C1348 0.977 . S
H1375 C1349 0.979 . S
H1376 C1349 0.980 . S
H1377 C1349 0.983 . S
H1378 C1322 0.947 . S
C1379 C1322 1.392 . S
C1379 C1323 1.419 . S
C1379 H1361 0.948 . S
C1380 C1381 1.391 . S
C1380 C1384 1.391 . S
C1380 H1422 0.948 . S
C1381 C1380 1.391 . S
C1381 C1382 1.391 . S
C1382 C1381 1.391 . S
C1382 H1438 0.947 . S
C1382 C1439 1.392 . S
C1383 C1384 1.391 . S
C1383 C1387 1.397 . S
C1383 C1439 1.419 . S
C1384 C1380 1.391 . S
C1384 C1383 1.391 . S
C1384 C1385 1.399 . S
C1385 C1384 1.399 . S
C1385 C1388 1.396 . S
C1385 C1397 1.453 . S
C1385 C1398 1.684 . S
H1386 C1410 0.948 . S
C1387 C1383 1.397 . S
C1387 C1388 1.394 . S
C1387 C1406 1.723 . S
C1388 C1385 1.396 . S
C1388 C1387 1.394 . S
C1388 C1418 1.723 . S
H1389 C1412 0.947 . S
H1390 C1413 0.948 . S
H1391 C1419 0.982 . S
H1392 C1420 0.979 . S
H1393 C1420 0.980 . S
H1394 C1420 0.983 . S
H1395 C1419 0.979 . S
H1396 C1419 0.977 . S
C1397 C1385 1.453 . S
C1397 H1426 0.982 . S
C1397 H1427 0.979 . S
C1397 H1428 0.977 . S
C1398 C1385 1.684 . S
C1398 H1423 0.979 . S
C1398 H1424 0.980 . S
C1398 H1425 0.983 . S
C1399 C1400 1.391 . S
C1399 C1404 1.391 . S
C1399 H1429 0.948 . S
C1400 C1399 1.391 . S
C1400 C1401 1.391 . S
C1401 C1400 1.391 . S
C1401 C1402 1.392 . S
C1401 H1430 0.947 . S
C1402 C1401 1.392 . S
C1402 C1403 1.419 . S
C1402 H1431 0.948 . S
C1403 C1402 1.419 . S
C1403 C1404 1.391 . S
C1403 C1407 1.397 . S
C1404 C1399 1.391 . S
C1404 C1403 1.391 . S
C1404 C1405 1.399 . S
C1405 C1404 1.399 . S
C1405 C1406 1.396 . S
C1405 C1408 1.453 . S
C1405 C1409 1.684 . S
C1406 C1387 1.723 . S
C1406 C1405 1.396 . S
C1406 C1407 1.394 . S
C1407 C1403 1.397 . S
C1407 C1406 1.394 . S
C1407 C1417 1.723 . S
C1408 C1405 1.453 . S
C1408 H1432 0.982 . S
C1408 H1433 0.979 . S
C1408 H1434 0.977 . S
C1409 C1405 1.684 . S
C1409 H1435 0.979 . S
C1409 H1436 0.980 . S
C1409 H1437 0.983 . S
C1410 H1386 0.948 . S
C1410 C1411 1.391 . S
C1410 C1415 1.391 . S
C1411 C1410 1.391 . S
C1411 C1412 1.391 . S
C1412 H1389 0.947 . S
C1412 C1411 1.391 . S
C1412 C1413 1.392 . S
C1413 H1390 0.948 . S
C1413 C1412 1.392 . S
C1413 C1414 1.419 . S
C1414 C1413 1.419 . S
C1414 C1415 1.391 . S
C1414 C1418 1.397 . S
C1415 C1410 1.391 . S
C1415 C1414 1.391 . S
C1415 C1416 1.399 . S
C1416 C1415 1.399 . S
C1416 C1417 1.396 . S
C1416 C1419 1.453 . S
C1416 C1420 1.684 . S
C1417 C1407 1.723 . S
C1417 C1416 1.396 . S
C1417 C1418 1.394 . S
C1418 C1388 1.723 . S
C1418 C1414 1.397 . S
C1418 C1417 1.394 . S
C1419 H1391 0.982 . S
C1419 H1395 0.979 . S
C1419 H1396 0.977 . S
C1419 C1416 1.453 . S
C1420 H1392 0.979 . S
C1420 H1393 0.980 . S
C1420 H1394 0.983 . S
C1420 C1416 1.684 . S
H1421 C1439 0.948 . S
H1422 C1380 0.948 . S
H1423 C1398 0.979 . S
H1424 C1398 0.980 . S
H1425 C1398 0.983 . S
H1426 C1397 0.982 . S
H1427 C1397 0.979 . S
H1428 C1397 0.977 . S
H1429 C1399 0.948 . S
H1430 C1401 0.947 . S
H1431 C1402 0.948 . S
H1432 C1408 0.982 . S
H1433 C1408 0.979 . S
H1434 C1408 0.977 . S
H1435 C1409 0.979 . S
H1436 C1409 0.980 . S
H1437 C1409 0.983 . S
H1438 C1382 0.947 . S
C1439 C1382 1.392 . S
C1439 C1383 1.419 . S
C1439 H1421 0.948 . S
C1440 O1466 1.283 . S
C1440 O1484 1.283 . S
C1441 O1467 1.283 . S
C1441 O1482 1.283 . S
C1442 O1468 1.283 . S
C1442 O1485 1.283 . S
C1443 O1469 1.283 . S
C1443 O1483 1.283 . S
C1444 O1470 1.283 . S
C1444 O1479 1.283 . S
C1445 O1471 1.283 . S
C1445 O1481 1.283 . S
C1446 O1472 1.283 . S
C1446 O1478 1.283 . S
C1447 O1473 1.283 . S
C1447 O1480 1.283 . S
C1448 O1474 1.283 . S
C1448 O1489 1.283 . S
C1449 O1475 1.283 . S
C1449 O1487 1.283 . S
C1450 O1476 1.283 . S
C1450 O1488 1.283 . S
C1451 O1477 1.283 . S
C1451 O1486 1.283 . S
Eu1452 O1453 2.370 1_455 S
Eu1452 O1454 2.370 . S
Eu1452 O1457 2.370 1_455 S
Eu1452 O1458 2.370 . S
Eu1452 O1466 2.363 . S
Eu1452 O1467 2.363 . S
Eu1452 O1480 2.363 . S
Eu1452 O1481 2.363 1_455 S
O1453 Eu1452 2.370 1_655 S
O1453 Eu1455 2.370 1_565 S
O1453 Eu1460 2.370 1_665 S
O1454 Eu1452 2.370 . S
O1454 Eu1456 2.370 1_565 S
O1454 Eu1459 2.370 1_565 S
Eu1455 O1453 2.370 1_545 S
Eu1455 O1457 2.370 1_545 S
Eu1455 O1461 2.370 . S
Eu1455 O1462 2.370 . S
Eu1455 O1470 2.363 . S
Eu1455 O1471 2.363 1_545 S
Eu1455 O1486 2.363 . S
Eu1455 O1487 2.363 . S
Eu1456 O1454 2.370 1_545 S
Eu1456 O1458 2.370 1_545 S
Eu1456 O1463 2.370 . S
Eu1456 O1464 2.370 . S
Eu1456 O1472 2.363 . S
Eu1456 O1473 2.363 1_545 S
Eu1456 O1488 2.363 . S
Eu1456 O1489 2.363 . S
O1457 Eu1452 2.370 1_655 S
O1457 Eu1455 2.370 1_565 S
O1457 Eu1459 2.370 1_665 S
O1458 Eu1452 2.370 . S
O1458 Eu1456 2.370 1_565 S
O1458 Eu1460 2.370 1_565 S
Eu1459 O1454 2.370 1_545 S
Eu1459 O1457 2.370 1_445 S
Eu1459 O1461 2.370 1_455 S
Eu1459 O1464 2.370 . S
Eu1459 O1476 2.363 . S
Eu1459 O1477 2.363 1_455 S
Eu1459 O1484 2.363 1_545 S
Eu1459 O1485 2.363 . S
Eu1460 O1453 2.370 1_445 S
Eu1460 O1458 2.370 1_545 S
Eu1460 O1462 2.370 1_455 S
Eu1460 O1463 2.370 . S
Eu1460 O1474 2.363 . S
Eu1460 O1475 2.363 1_455 S
Eu1460 O1482 2.363 1_545 S
Eu1460 O1483 2.363 . S
O1461 Eu1455 2.370 . S
O1461 Eu1459 2.370 1_655 S
O1461 Eu1465 2.370 1_655 S
O1462 Eu1455 2.370 . S
O1462 Eu1460 2.370 1_655 S
O1462 Eu1465 2.370 1_655 S
O1463 Eu1456 2.370 . S
O1463 Eu1460 2.370 . S
O1463 Eu1465 2.370 . S
O1464 Eu1456 2.370 . S
O1464 Eu1459 2.370 . S
O1464 Eu1465 2.370 . S
Eu1465 O1461 2.370 1_455 S
Eu1465 O1462 2.370 1_455 S
Eu1465 O1463 2.370 . S
Eu1465 O1464 2.370 . S
Eu1465 O1468 2.363 . S
Eu1465 O1469 2.363 . S
Eu1465 O1478 2.363 . S
Eu1465 O1479 2.363 1_455 S
O1466 C1440 1.283 . S
O1466 Eu1452 2.363 . S
O1467 C1441 1.283 . S
O1467 Eu1452 2.363 . S
O1468 C1442 1.283 . S
O1468 Eu1465 2.363 . S
O1469 C1443 1.283 . S
O1469 Eu1465 2.363 . S
O1470 C1444 1.283 . S
O1470 Eu1455 2.363 . S
O1471 C1445 1.283 . S
O1471 Eu1455 2.363 1_565 S
O1472 C1446 1.283 . S
O1472 Eu1456 2.363 . S
O1473 C1447 1.283 . S
O1473 Eu1456 2.363 1_565 S
O1474 C1448 1.283 . S
O1474 Eu1460 2.363 . S
O1475 C1449 1.283 . S
O1475 Eu1460 2.363 1_655 S
O1476 C1450 1.283 . S
O1476 Eu1459 2.363 . S
O1477 C1451 1.283 . S
O1477 Eu1459 2.363 1_655 S
O1478 C1446 1.283 . S
O1478 Eu1465 2.363 . S
O1479 C1444 1.283 . S
O1479 Eu1465 2.363 1_655 S
O1480 C1447 1.283 . S
O1480 Eu1452 2.363 . S
O1481 C1445 1.283 . S
O1481 Eu1452 2.363 1_655 S
O1482 C1441 1.283 . S
O1482 Eu1460 2.363 1_565 S
O1483 C1443 1.283 . S
O1483 Eu1460 2.363 . S
O1484 C1440 1.283 . S
O1484 Eu1459 2.363 1_565 S
O1485 C1442 1.283 . S
O1485 Eu1459 2.363 . S
O1486 C1451 1.283 . S
O1486 Eu1455 2.363 . S
O1487 C1449 1.283 . S
O1487 Eu1455 2.363 . S
O1488 C1450 1.283 . S
O1488 Eu1456 2.363 . S
O1489 C1448 1.283 . S
O1489 Eu1456 2.363 . S
C1490 O1516 1.283 . S
C1490 O1534 1.283 . S
C1491 O1517 1.283 . S
C1491 O1532 1.283 . S
C1492 O1518 1.283 . S
C1492 O1535 1.283 . S
C1493 O1519 1.283 . S
C1493 O1533 1.283 . S
C1494 O1520 1.283 . S
C1494 O1529 1.283 . S
C1495 O1521 1.283 . S
C1495 O1531 1.283 . S
C1496 O1522 1.283 . S
C1496 O1528 1.283 . S
C1497 O1523 1.283 . S
C1497 O1530 1.283 . S
C1498 O1524 1.283 . S
C1498 O1539 1.283 . S
C1499 O1525 1.283 . S
C1499 O1537 1.283 . S
C1500 O1526 1.283 . S
C1500 O1538 1.283 . S
C1501 O1527 1.283 . S
C1501 O1536 1.283 . S
Eu1502 O1503 2.370 . S
Eu1502 O1504 2.370 1_545 S
Eu1502 O1507 2.370 1_545 S
Eu1502 O1508 2.370 . S
Eu1502 O1516 2.363 1_545 S
Eu1502 O1517 2.363 . S
Eu1502 O1530 2.363 . S
Eu1502 O1531 2.363 . S
O1503 Eu1502 2.370 . S
O1503 Eu1505 2.370 . S
O1503 Eu1510 2.370 . S
O1504 Eu1502 2.370 1_565 S
O1504 Eu1506 2.370 1_565 S
O1504 Eu1509 2.370 . S
Eu1505 O1503 2.370 . S
Eu1505 O1507 2.370 1_545 S
Eu1505 O1511 2.370 1_544 S
Eu1505 O1512 2.370 1_554 S
Eu1505 O1520 2.363 1_554 S
Eu1505 O1521 2.363 . S
Eu1505 O1536 2.363 1_545 S
Eu1505 O1537 2.363 . S
Eu1506 O1504 2.370 1_545 S
Eu1506 O1508 2.370 . S
Eu1506 O1513 2.370 1_554 S
Eu1506 O1514 2.370 1_544 S
Eu1506 O1522 2.363 1_554 S
Eu1506 O1523 2.363 . S
Eu1506 O1538 2.363 1_545 S
Eu1506 O1539 2.363 . S
O1507 Eu1502 2.370 1_565 S
O1507 Eu1505 2.370 1_565 S
O1507 Eu1509 2.370 . S
O1508 Eu1502 2.370 . S
O1508 Eu1506 2.370 . S
O1508 Eu1510 2.370 . S
Eu1509 O1504 2.370 . S
Eu1509 O1507 2.370 . S
Eu1509 O1511 2.370 1_554 S
Eu1509 O1514 2.370 1_554 S
Eu1509 O1526 2.363 . S
Eu1509 O1527 2.363 . S
Eu1509 O1534 2.363 . S
Eu1509 O1535 2.363 1_554 S
Eu1510 O1503 2.370 . S
Eu1510 O1508 2.370 . S
Eu1510 O1512 2.370 1_554 S
Eu1510 O1513 2.370 1_554 S
Eu1510 O1524 2.363 . S
Eu1510 O1525 2.363 . S
Eu1510 O1532 2.363 . S
Eu1510 O1533 2.363 1_554 S
O1511 Eu1505 2.370 1_566 S
O1511 Eu1509 2.370 1_556 S
O1511 Eu1515 2.370 1_565 S
O1512 Eu1505 2.370 1_556 S
O1512 Eu1510 2.370 1_556 S
O1512 Eu1515 2.370 . S
O1513 Eu1506 2.370 1_556 S
O1513 Eu1510 2.370 1_556 S
O1513 Eu1515 2.370 . S
O1514 Eu1506 2.370 1_566 S
O1514 Eu1509 2.370 1_556 S
O1514 Eu1515 2.370 1_565 S
Eu1515 O1511 2.370 1_545 S
Eu1515 O1512 2.370 . S
Eu1515 O1513 2.370 . S
Eu1515 O1514 2.370 1_545 S
Eu1515 O1518 2.363 1_545 S
Eu1515 O1519 2.363 . S
Eu1515 O1528 2.363 . S
Eu1515 O1529 2.363 . S
O1516 C1490 1.283 . S
O1516 Eu1502 2.363 1_565 S
O1517 C1491 1.283 . S
O1517 Eu1502 2.363 . S
O1518 C1492 1.283 . S
O1518 Eu1515 2.363 1_565 S
O1519 C1493 1.283 . S
O1519 Eu1515 2.363 . S
O1520 C1494 1.283 . S
O1520 Eu1505 2.363 1_556 S
O1521 C1495 1.283 . S
O1521 Eu1505 2.363 . S
O1522 C1496 1.283 . S
O1522 Eu1506 2.363 1_556 S
O1523 C1497 1.283 . S
O1523 Eu1506 2.363 . S
O1524 C1498 1.283 . S
O1524 Eu1510 2.363 . S
O1525 C1499 1.283 . S
O1525 Eu1510 2.363 . S
O1526 C1500 1.283 . S
O1526 Eu1509 2.363 . S
O1527 C1501 1.283 . S
O1527 Eu1509 2.363 . S
O1528 C1496 1.283 . S
O1528 Eu1515 2.363 . S
O1529 C1494 1.283 . S
O1529 Eu1515 2.363 . S
O1530 C1497 1.283 . S
O1530 Eu1502 2.363 . S
O1531 C1495 1.283 . S
O1531 Eu1502 2.363 . S
O1532 C1491 1.283 . S
O1532 Eu1510 2.363 . S
O1533 C1493 1.283 . S
O1533 Eu1510 2.363 1_556 S
O1534 C1490 1.283 . S
O1534 Eu1509 2.363 . S
O1535 C1492 1.283 . S
O1535 Eu1509 2.363 1_556 S
O1536 C1501 1.283 . S
O1536 Eu1505 2.363 1_565 S
O1537 C1499 1.283 . S
O1537 Eu1505 2.363 . S
O1538 C1500 1.283 . S
O1538 Eu1506 2.363 1_565 S
O1539 C1498 1.283 . S
O1539 Eu1506 2.363 . S
C1540 O1566 1.283 . S
C1540 O1584 1.283 . S
C1541 O1567 1.283 . S
C1541 O1582 1.283 . S
C1542 O1568 1.283 . S
C1542 O1585 1.283 . S
C1543 O1569 1.283 . S
C1543 O1583 1.283 . S
C1544 O1570 1.283 . S
C1544 O1579 1.283 . S
C1545 O1571 1.283 . S
C1545 O1581 1.283 . S
C1546 O1572 1.283 . S
C1546 O1578 1.283 . S
C1547 O1573 1.283 . S
C1547 O1580 1.283 . S
C1548 O1574 1.283 . S
C1548 O1589 1.283 . S
C1549 O1575 1.283 . S
C1549 O1587 1.283 . S
C1550 O1576 1.283 . S
C1550 O1588 1.283 . S
C1551 O1577 1.283 . S
C1551 O1586 1.283 . S
Eu1552 O1553 2.370 1_454 S
Eu1552 O1554 2.370 . S
Eu1552 O1557 2.370 1_455 S
Eu1552 O1558 2.370 1_554 S
Eu1552 O1566 2.363 . S
Eu1552 O1567 2.363 1_554 S
Eu1552 O1580 2.363 . S
Eu1552 O1581 2.363 1_455 S
O1553 Eu1552 2.370 1_656 S
O1553 Eu1555 2.370 1_556 S
O1553 Eu1560 2.370 1_655 S
O1554 Eu1552 2.370 . S
O1554 Eu1556 2.370 . S
O1554 Eu1559 2.370 . S
Eu1555 O1553 2.370 1_554 S
Eu1555 O1557 2.370 . S
Eu1555 O1561 2.370 . S
Eu1555 O1562 2.370 1_554 S
Eu1555 O1570 2.363 . S
Eu1555 O1571 2.363 . S
Eu1555 O1586 2.363 . S
Eu1555 O1587 2.363 1_554 S
Eu1556 O1554 2.370 . S
Eu1556 O1558 2.370 1_554 S
Eu1556 O1563 2.370 1_554 S
Eu1556 O1564 2.370 . S
Eu1556 O1572 2.363 . S
Eu1556 O1573 2.363 . S
Eu1556 O1588 2.363 . S
Eu1556 O1589 2.363 1_554 S
O1557 Eu1552 2.370 1_655 S
O1557 Eu1555 2.370 . S
O1557 Eu1559 2.370 1_655 S
O1558 Eu1552 2.370 1_556 S
O1558 Eu1556 2.370 1_556 S
O1558 Eu1560 2.370 . S
Eu1559 O1554 2.370 . S
Eu1559 O1557 2.370 1_455 S
Eu1559 O1561 2.370 1_455 S
Eu1559 O1564 2.370 . S
Eu1559 O1576 2.363 . S
Eu1559 O1577 2.363 1_455 S
Eu1559 O1584 2.363 . S
Eu1559 O1585 2.363 . S
Eu1560 O1553 2.370 1_455 S
Eu1560 O1558 2.370 . S
Eu1560 O1562 2.370 1_455 S
Eu1560 O1563 2.370 . S
Eu1560 O1574 2.363 . S
Eu1560 O1575 2.363 1_455 S
Eu1560 O1582 2.363 . S
Eu1560 O1583 2.363 . S
O1561 Eu1555 2.370 . S
O1561 Eu1559 2.370 1_655 S
O1561 Eu1565 2.370 1_655 S
O1562 Eu1555 2.370 1_556 S
O1562 Eu1560 2.370 1_655 S
O1562 Eu1565 2.370 1_656 S
O1563 Eu1556 2.370 1_556 S
O1563 Eu1560 2.370 . S
O1563 Eu1565 2.370 1_556 S
O1564 Eu1556 2.370 . S
O1564 Eu1559 2.370 . S
O1564 Eu1565 2.370 . S
Eu1565 O1561 2.370 1_455 S
Eu1565 O1562 2.370 1_454 S
Eu1565 O1563 2.370 1_554 S
Eu1565 O1564 2.370 . S
Eu1565 O1568 2.363 . S
Eu1565 O1569 2.363 1_554 S
Eu1565 O1578 2.363 . S
Eu1565 O1579 2.363 1_455 S
O1566 C1540 1.283 . S
O1566 Eu1552 2.363 . S
O1567 C1541 1.283 . S
O1567 Eu1552 2.363 1_556 S
O1568 C1542 1.283 . S
O1568 Eu1565 2.363 . S
O1569 C1543 1.283 . S
O1569 Eu1565 2.363 1_556 S
O1570 C1544 1.283 . S
O1570 Eu1555 2.363 . S
O1571 C1545 1.283 . S
O1571 Eu1555 2.363 . S
O1572 C1546 1.283 . S
O1572 Eu1556 2.363 . S
O1573 C1547 1.283 . S
O1573 Eu1556 2.363 . S
O1574 C1548 1.283 . S
O1574 Eu1560 2.363 . S
O1575 C1549 1.283 . S
O1575 Eu1560 2.363 1_655 S
O1576 C1550 1.283 . S
O1576 Eu1559 2.363 . S
O1577 C1551 1.283 . S
O1577 Eu1559 2.363 1_655 S
O1578 C1546 1.283 . S
O1578 Eu1565 2.363 . S
O1579 C1544 1.283 . S
O1579 Eu1565 2.363 1_655 S
O1580 C1547 1.283 . S
O1580 Eu1552 2.363 . S
O1581 C1545 1.283 . S
O1581 Eu1552 2.363 1_655 S
O1582 C1541 1.283 . S
O1582 Eu1560 2.363 . S
O1583 C1543 1.283 . S
O1583 Eu1560 2.363 . S
O1584 C1540 1.283 . S
O1584 Eu1559 2.363 . S
O1585 C1542 1.283 . S
O1585 Eu1559 2.363 . S
O1586 C1551 1.283 . S
O1586 Eu1555 2.363 . S
O1587 C1549 1.283 . S
O1587 Eu1555 2.363 1_556 S
O1588 C1550 1.283 . S
O1588 Eu1556 2.363 . S
O1589 C1548 1.283 . S
O1589 Eu1556 2.363 1_556 S
C1590 O1616 1.283 . S
C1590 O1634 1.283 . S
C1591 O1617 1.283 . S
C1591 O1632 1.283 . S
C1592 O1618 1.283 . S
C1592 O1635 1.283 . S
C1593 O1619 1.283 . S
C1593 O1633 1.283 . S
C1594 O1620 1.283 . S
C1594 O1629 1.283 . S
C1595 O1621 1.283 . S
C1595 O1631 1.283 . S
C1596 O1622 1.283 . S
C1596 O1628 1.283 . S
C1597 O1623 1.283 . S
C1597 O1630 1.283 . S
C1598 O1624 1.283 . S
C1598 O1639 1.283 . S
C1599 O1625 1.283 . S
C1599 O1637 1.283 . S
C1600 O1626 1.283 . S
C1600 O1638 1.283 . S
C1601 O1627 1.283 . S
C1601 O1636 1.283 . S
Eu1602 O1603 2.370 . S
Eu1602 O1604 2.370 . S
Eu1602 O1607 2.370 . S
Eu1602 O1608 2.370 . S
Eu1602 O1616 2.363 . S
Eu1602 O1617 2.363 . S
Eu1602 O1630 2.363 . S
Eu1602 O1631 2.363 . S
O1603 Eu1602 2.370 . S
O1603 Eu1605 2.370 . S
O1603 Eu1610 2.370 . S
O1604 Eu1602 2.370 . S
O1604 Eu1606 2.370 . S
O1604 Eu1609 2.370 . S
Eu1605 O1603 2.370 . S
Eu1605 O1607 2.370 . S
Eu1605 O1611 2.370 1_554 S
Eu1605 O1612 2.370 1_554 S
Eu1605 O1620 2.363 1_554 S
Eu1605 O1621 2.363 . S
Eu1605 O1636 2.363 . S
Eu1605 O1637 2.363 . S
Eu1606 O1604 2.370 . S
Eu1606 O1608 2.370 . S
Eu1606 O1613 2.370 1_554 S
Eu1606 O1614 2.370 1_554 S
Eu1606 O1622 2.363 1_554 S
Eu1606 O1623 2.363 . S
Eu1606 O1638 2.363 . S
Eu1606 O1639 2.363 . S
O1607 Eu1602 2.370 . S
O1607 Eu1605 2.370 . S
O1607 Eu1609 2.370 . S
O1608 Eu1602 2.370 . S
O1608 Eu1606 2.370 . S
O1608 Eu1610 2.370 . S
Eu1609 O1604 2.370 . S
Eu1609 O1607 2.370 . S
Eu1609 O1611 2.370 1_554 S
Eu1609 O1614 2.370 1_554 S
Eu1609 O1626 2.363 . S
Eu1609 O1627 2.363 . S
Eu1609 O1634 2.363 . S
Eu1609 O1635 2.363 1_554 S
Eu1610 O1603 2.370 . S
Eu1610 O1608 2.370 . S
Eu1610 O1612 2.370 1_554 S
Eu1610 O1613 2.370 1_554 S
Eu1610 O1624 2.363 . S
Eu1610 O1625 2.363 . S
Eu1610 O1632 2.363 . S
Eu1610 O1633 2.363 1_554 S
O1611 Eu1605 2.370 1_556 S
O1611 Eu1609 2.370 1_556 S
O1611 Eu1615 2.370 . S
O1612 Eu1605 2.370 1_556 S
O1612 Eu1610 2.370 1_556 S
O1612 Eu1615 2.370 . S
O1613 Eu1606 2.370 1_556 S
O1613 Eu1610 2.370 1_556 S
O1613 Eu1615 2.370 . S
O1614 Eu1606 2.370 1_556 S
O1614 Eu1609 2.370 1_556 S
O1614 Eu1615 2.370 . S
Eu1615 O1611 2.370 . S
Eu1615 O1612 2.370 . S
Eu1615 O1613 2.370 . S
Eu1615 O1614 2.370 . S
Eu1615 O1618 2.363 . S
Eu1615 O1619 2.363 . S
Eu1615 O1628 2.363 . S
Eu1615 O1629 2.363 . S
O1616 C1590 1.283 . S
O1616 Eu1602 2.363 . S
O1617 C1591 1.283 . S
O1617 Eu1602 2.363 . S
O1618 C1592 1.283 . S
O1618 Eu1615 2.363 . S
O1619 C1593 1.283 . S
O1619 Eu1615 2.363 . S
O1620 C1594 1.283 . S
O1620 Eu1605 2.363 1_556 S
O1621 C1595 1.283 . S
O1621 Eu1605 2.363 . S
O1622 C1596 1.283 . S
O1622 Eu1606 2.363 1_556 S
O1623 C1597 1.283 . S
O1623 Eu1606 2.363 . S
O1624 C1598 1.283 . S
O1624 Eu1610 2.363 . S
O1625 C1599 1.283 . S
O1625 Eu1610 2.363 . S
O1626 C1600 1.283 . S
O1626 Eu1609 2.363 . S
O1627 C1601 1.283 . S
O1627 Eu1609 2.363 . S
O1628 C1596 1.283 . S
O1628 Eu1615 2.363 . S
O1629 C1594 1.283 . S
O1629 Eu1615 2.363 . S
O1630 C1597 1.283 . S
O1630 Eu1602 2.363 . S
O1631 C1595 1.283 . S
O1631 Eu1602 2.363 . S
O1632 C1591 1.283 . S
O1632 Eu1610 2.363 . S
O1633 C1593 1.283 . S
O1633 Eu1610 2.363 1_556 S
O1634 C1590 1.283 . S
O1634 Eu1609 2.363 . S
O1635 C1592 1.283 . S
O1635 Eu1609 2.363 1_556 S
O1636 C1601 1.283 . S
O1636 Eu1605 2.363 . S
O1637 C1599 1.283 . S
O1637 Eu1605 2.363 . S
O1638 C1600 1.283 . S
O1638 Eu1606 2.363 . S
O1639 C1598 1.283 . S
O1639 Eu1606 2.363 . S
C1640 O1666 1.283 . S
C1640 O1684 1.283 . S
C1641 O1667 1.283 . S
C1641 O1682 1.283 . S
C1642 O1668 1.283 . S
C1642 O1685 1.283 . S
C1643 O1669 1.283 . S
C1643 O1683 1.283 . S
C1644 O1670 1.283 . S
C1644 O1679 1.283 . S
C1645 O1671 1.283 . S
C1645 O1681 1.283 . S
C1646 O1672 1.283 . S
C1646 O1678 1.283 . S
C1647 O1673 1.283 . S
C1647 O1680 1.283 . S
C1648 O1674 1.283 . S
C1648 O1689 1.283 . S
C1649 O1675 1.283 . S
C1649 O1687 1.283 . S
C1650 O1676 1.283 . S
C1650 O1688 1.283 . S
C1651 O1677 1.283 . S
C1651 O1686 1.283 . S
Eu1652 O1653 2.370 1_455 S
Eu1652 O1654 2.370 . S
Eu1652 O1657 2.370 1_455 S
Eu1652 O1658 2.370 . S
Eu1652 O1666 2.363 . S
Eu1652 O1667 2.363 . S
Eu1652 O1680 2.363 . S
Eu1652 O1681 2.363 1_455 S
O1653 Eu1652 2.370 1_655 S
O1653 Eu1655 2.370 . S
O1653 Eu1660 2.370 1_655 S
O1654 Eu1652 2.370 . S
O1654 Eu1656 2.370 . S
O1654 Eu1659 2.370 . S
Eu1655 O1653 2.370 . S
Eu1655 O1657 2.370 . S
Eu1655 O1661 2.370 . S
Eu1655 O1662 2.370 . S
Eu1655 O1670 2.363 . S
Eu1655 O1671 2.363 . S
Eu1655 O1686 2.363 . S
Eu1655 O1687 2.363 . S
Eu1656 O1654 2.370 . S
Eu1656 O1658 2.370 . S
Eu1656 O1663 2.370 . S
Eu1656 O1664 2.370 . S
Eu1656 O1672 2.363 . S
Eu1656 O1673 2.363 . S
Eu1656 O1688 2.363 . S
Eu1656 O1689 2.363 . S
O1657 Eu1652 2.370 1_655 S
O1657 Eu1655 2.370 . S
O1657 Eu1659 2.370 1_655 S
O1658 Eu1652 2.370 . S
O1658 Eu1656 2.370 . S
O1658 Eu1660 2.370 . S
Eu1659 O1654 2.370 . S
Eu1659 O1657 2.370 1_455 S
Eu1659 O1661 2.370 1_455 S
Eu1659 O1664 2.370 . S
Eu1659 O1676 2.363 . S
Eu1659 O1677 2.363 1_455 S
Eu1659 O1684 2.363 . S
Eu1659 O1685 2.363 . S
Eu1660 O1653 2.370 1_455 S
Eu1660 O1658 2.370 . S
Eu1660 O1662 2.370 1_455 S
Eu1660 O1663 2.370 . S
Eu1660 O1674 2.363 . S
Eu1660 O1675 2.363 1_455 S
Eu1660 O1682 2.363 . S
Eu1660 O1683 2.363 . S
O1661 Eu1655 2.370 . S
O1661 Eu1659 2.370 1_655 S
O1661 Eu1665 2.370 1_655 S
O1662 Eu1655 2.370 . S
O1662 Eu1660 2.370 1_655 S
O1662 Eu1665 2.370 1_655 S
O1663 Eu1656 2.370 . S
O1663 Eu1660 2.370 . S
O1663 Eu1665 2.370 . S
O1664 Eu1656 2.370 . S
O1664 Eu1659 2.370 . S
O1664 Eu1665 2.370 . S
Eu1665 O1661 2.370 1_455 S
Eu1665 O1662 2.370 1_455 S
Eu1665 O1663 2.370 . S
Eu1665 O1664 2.370 . S
Eu1665 O1668 2.363 . S
Eu1665 O1669 2.363 . S
Eu1665 O1678 2.363 . S
Eu1665 O1679 2.363 1_455 S
O1666 C1640 1.283 . S
O1666 Eu1652 2.363 . S
O1667 C1641 1.283 . S
O1667 Eu1652 2.363 . S
O1668 C1642 1.283 . S
O1668 Eu1665 2.363 . S
O1669 C1643 1.283 . S
O1669 Eu1665 2.363 . S
O1670 C1644 1.283 . S
O1670 Eu1655 2.363 . S
O1671 C1645 1.283 . S
O1671 Eu1655 2.363 . S
O1672 C1646 1.283 . S
O1672 Eu1656 2.363 . S
O1673 C1647 1.283 . S
O1673 Eu1656 2.363 . S
O1674 C1648 1.283 . S
O1674 Eu1660 2.363 . S
O1675 C1649 1.283 . S
O1675 Eu1660 2.363 1_655 S
O1676 C1650 1.283 . S
O1676 Eu1659 2.363 . S
O1677 C1651 1.283 . S
O1677 Eu1659 2.363 1_655 S
O1678 C1646 1.283 . S
O1678 Eu1665 2.363 . S
O1679 C1644 1.283 . S
O1679 Eu1665 2.363 1_655 S
O1680 C1647 1.283 . S
O1680 Eu1652 2.363 . S
O1681 C1645 1.283 . S
O1681 Eu1652 2.363 1_655 S
O1682 C1641 1.283 . S
O1682 Eu1660 2.363 . S
O1683 C1643 1.283 . S
O1683 Eu1660 2.363 . S
O1684 C1640 1.283 . S
O1684 Eu1659 2.363 . S
O1685 C1642 1.283 . S
O1685 Eu1659 2.363 . S
O1686 C1651 1.283 . S
O1686 Eu1655 2.363 . S
O1687 C1649 1.283 . S
O1687 Eu1655 2.363 . S
O1688 C1650 1.283 . S
O1688 Eu1656 2.363 . S
O1689 C1648 1.283 . S
O1689 Eu1656 2.363 . S
C1690 O1716 1.283 . S
C1690 O1734 1.283 . S
C1691 O1717 1.283 . S
C1691 O1732 1.283 . S
C1692 O1718 1.283 . S
C1692 O1735 1.283 . S
C1693 O1719 1.283 . S
C1693 O1733 1.283 . S
C1694 O1720 1.283 . S
C1694 O1729 1.283 . S
C1695 O1721 1.283 . S
C1695 O1731 1.283 . S
C1696 O1722 1.283 . S
C1696 O1728 1.283 . S
C1697 O1723 1.283 . S
C1697 O1730 1.283 . S
C1698 O1724 1.283 . S
C1698 O1739 1.283 . S
C1699 O1725 1.283 . S
C1699 O1737 1.283 . S
C1700 O1726 1.283 . S
C1700 O1738 1.283 . S
C1701 O1727 1.283 . S
C1701 O1736 1.283 . S
Eu1702 O1703 2.370 . S
Eu1702 O1704 2.370 . S
Eu1702 O1707 2.370 . S
Eu1702 O1708 2.370 . S
Eu1702 O1716 2.363 . S
Eu1702 O1717 2.363 . S
Eu1702 O1730 2.363 . S
Eu1702 O1731 2.363 . S
O1703 Eu1702 2.370 . S
O1703 Eu1705 2.370 1_565 S
O1703 Eu1710 2.370 1_565 S
O1704 Eu1702 2.370 . S
O1704 Eu1706 2.370 1_565 S
O1704 Eu1709 2.370 1_565 S
Eu1705 O1703 2.370 1_545 S
Eu1705 O1707 2.370 1_545 S
Eu1705 O1711 2.370 . S
Eu1705 O1712 2.370 . S
Eu1705 O1720 2.363 . S
Eu1705 O1721 2.363 1_545 S
Eu1705 O1736 2.363 . S
Eu1705 O1737 2.363 . S
Eu1706 O1704 2.370 1_545 S
Eu1706 O1708 2.370 1_545 S
Eu1706 O1713 2.370 . S
Eu1706 O1714 2.370 . S
Eu1706 O1722 2.363 . S
Eu1706 O1723 2.363 1_545 S
Eu1706 O1738 2.363 . S
Eu1706 O1739 2.363 . S
O1707 Eu1702 2.370 . S
O1707 Eu1705 2.370 1_565 S
O1707 Eu1709 2.370 1_565 S
O1708 Eu1702 2.370 . S
O1708 Eu1706 2.370 1_565 S
O1708 Eu1710 2.370 1_565 S
Eu1709 O1704 2.370 1_545 S
Eu1709 O1707 2.370 1_545 S
Eu1709 O1711 2.370 . S
Eu1709 O1714 2.370 . S
Eu1709 O1726 2.363 . S
Eu1709 O1727 2.363 . S
Eu1709 O1734 2.363 1_545 S
Eu1709 O1735 2.363 . S
Eu1710 O1703 2.370 1_545 S
Eu1710 O1708 2.370 1_545 S
Eu1710 O1712 2.370 . S
Eu1710 O1713 2.370 . S
Eu1710 O1724 2.363 . S
Eu1710 O1725 2.363 . S
Eu1710 O1732 2.363 1_545 S
Eu1710 O1733 2.363 . S
O1711 Eu1705 2.370 . S
O1711 Eu1709 2.370 . S
O1711 Eu1715 2.370 . S
O1712 Eu1705 2.370 . S
O1712 Eu1710 2.370 . S
O1712 Eu1715 2.370 . S
O1713 Eu1706 2.370 . S
O1713 Eu1710 2.370 . S
O1713 Eu1715 2.370 . S
O1714 Eu1706 2.370 . S
O1714 Eu1709 2.370 . S
O1714 Eu1715 2.370 . S
Eu1715 O1711 2.370 . S
Eu1715 O1712 2.370 . S
Eu1715 O1713 2.370 . S
Eu1715 O1714 2.370 . S
Eu1715 O1718 2.363 . S
Eu1715 O1719 2.363 . S
Eu1715 O1728 2.363 . S
Eu1715 O1729 2.363 . S
O1716 C1690 1.283 . S
O1716 Eu1702 2.363 . S
O1717 C1691 1.283 . S
O1717 Eu1702 2.363 . S
O1718 C1692 1.283 . S
O1718 Eu1715 2.363 . S
O1719 C1693 1.283 . S
O1719 Eu1715 2.363 . S
O1720 C1694 1.283 . S
O1720 Eu1705 2.363 . S
O1721 C1695 1.283 . S
O1721 Eu1705 2.363 1_565 S
O1722 C1696 1.283 . S
O1722 Eu1706 2.363 . S
O1723 C1697 1.283 . S
O1723 Eu1706 2.363 1_565 S
O1724 C1698 1.283 . S
O1724 Eu1710 2.363 . S
O1725 C1699 1.283 . S
O1725 Eu1710 2.363 . S
O1726 C1700 1.283 . S
O1726 Eu1709 2.363 . S
O1727 C1701 1.283 . S
O1727 Eu1709 2.363 . S
O1728 C1696 1.283 . S
O1728 Eu1715 2.363 . S
O1729 C1694 1.283 . S
O1729 Eu1715 2.363 . S
O1730 C1697 1.283 . S
O1730 Eu1702 2.363 . S
O1731 C1695 1.283 . S
O1731 Eu1702 2.363 . S
O1732 C1691 1.283 . S
O1732 Eu1710 2.363 1_565 S
O1733 C1693 1.283 . S
O1733 Eu1710 2.363 . S
O1734 C1690 1.283 . S
O1734 Eu1709 2.363 1_565 S
O1735 C1692 1.283 . S
O1735 Eu1709 2.363 . S
O1736 C1701 1.283 . S
O1736 Eu1705 2.363 . S
O1737 C1699 1.283 . S
O1737 Eu1705 2.363 . S
O1738 C1700 1.283 . S
O1738 Eu1706 2.363 . S
O1739 C1698 1.283 . S
O1739 Eu1706 2.363 . S
C1446 C1400 0.929 . S
C1280 C1444 0.935 . S
C1445 C1220 0.938 . S
C1340 C1447 0.935 . S
C1491 C980 0.929 . S
C1551 C1040 0.935 . S
C1100 C1490 0.932 . S
C1550 C1160 0.929 . S
C740 C1492 0.938 . S
C1548 C800 0.935 . S
C860 C1493 0.935 . S
C920 C1549 0.938 . S
C1599 C680 0.933 . S
C560 C1598 0.933 . S
C500 C1600 0.933 1_556 S
C1601 C620 0.933 1_554 S
C260 C1642 0.933 1_655 S
C320 C1701 0.933 1_565 S
C380 C1640 0.933 1_655 S
C440 C1700 0.933 1_565 S
C1641 C20 0.933 1_455 S
C1698 C80 0.933 . S
C140 C1643 0.933 1_655 S
C1699 C200 0.933 . S
C1443 C31 3.379 1_455 S
C61 C1449 2.938 . S
C121 C1441 2.938 1_655 S
C211 C1448 3.379 . S
C271 C1440 3.379 1_655 S
C1450 C331 3.379 1_545 S
C361 C1442 2.938 1_655 S
C1451 C421 2.938 1_545 S
C1497 C181 2.938 . S
C1 C1540 2.938 1_655 S
C1495 C91 3.379 . S
C1542 C151 3.379 1_455 S
C301 C1496 2.938 1_565 S
C1541 C391 3.379 1_455 S
C1494 C451 3.379 1_545 S
C1543 C241 2.938 1_455 S
C1547 C511 3.379 1_554 S
C571 C1546 3.379 . S
C1498 C481 2.938 1_554 S
C1545 C601 2.938 1_554 S
C691 C1501 3.379 . S
C661 C1544 2.938 . S
C1500 C541 2.938 . S
C1499 C631 3.379 1_554 S
C1593 C751 3.382 . S
C1596 C781 2.941 . S
C841 C1592 2.941 . S
C1594 C931 3.382 . S
C1590 C991 3.376 . S
C1051 C1595 3.376 . S
C1081 C1591 2.935 . S
C1597 C1141 2.935 . S
C1651 C901 2.941 . S
C721 C1690 2.941 . S
C1650 C811 3.376 . S
C1692 C871 3.376 . S
C1649 C1021 2.941 . S
C1111 C1691 3.382 . S
C1648 C1171 3.376 . S
C1693 C961 2.935 . S
C1697 C1231 3.382 . S
C1291 C1696 3.376 . S
C1644 C1201 2.941 . S
C1321 C1695 2.941 . S
C1647 C1411 3.376 . S
C1694 C1381 2.935 . S
C1645 C1261 2.941 . S
C1351 C1646 3.376 . S
