# Generated by pormake.
# Topology ctn, (3,4)-cn, num edge types: 1
# Building blocks:
#     Node 0, Type 0, BuildingBlock: MIDCAF_clean_linker_0, # of connection points: 3
#     Node 1, Type 0, BuildingBlock: MIDCAF_clean_linker_0, # of connection points: 3
#     Node 2, Type 0, BuildingBlock: MIDCAF_clean_linker_0, # of connection points: 3
#     Node 3, Type 0, BuildingBlock: MIDCAF_clean_linker_0, # of connection points: 3
#     Node 4, Type 0, BuildingBlock: MIDCAF_clean_linker_0, # of connection points: 3
#     Node 5, Type 0, BuildingBlock: MIDCAF_clean_linker_0, # of connection points: 3
#     Node 6, Type 0, BuildingBlock: MIDCAF_clean_linker_0, # of connection points: 3
#     Node 7, Type 0, BuildingBlock: MIDCAF_clean_linker_0, # of connection points: 3
#     Node 8, Type 0, BuildingBlock: MIDCAF_clean_linker_0, # of connection points: 3
#     Node 9, Type 0, BuildingBlock: MIDCAF_clean_linker_0, # of connection points: 3
#     Node 10, Type 0, BuildingBlock: MIDCAF_clean_linker_0, # of connection points: 3
#     Node 11, Type 0, BuildingBlock: MIDCAF_clean_linker_0, # of connection points: 3
#     Node 12, Type 0, BuildingBlock: MIDCAF_clean_linker_0, # of connection points: 3
#     Node 13, Type 0, BuildingBlock: MIDCAF_clean_linker_0, # of connection points: 3
#     Node 14, Type 0, BuildingBlock: MIDCAF_clean_linker_0, # of connection points: 3
#     Node 15, Type 0, BuildingBlock: MIDCAF_clean_linker_0, # of connection points: 3
#     Node 16, Type 1, BuildingBlock: NAHDIM_clean_sbu_0, # of connection points: 4
#     Node 17, Type 1, BuildingBlock: NAHDIM_clean_sbu_0, # of connection points: 4
#     Node 18, Type 1, BuildingBlock: NAHDIM_clean_sbu_0, # of connection points: 4
#     Node 19, Type 1, BuildingBlock: NAHDIM_clean_sbu_0, # of connection points: 4
#     Node 20, Type 1, BuildingBlock: NAHDIM_clean_sbu_0, # of connection points: 4
#     Node 21, Type 1, BuildingBlock: NAHDIM_clean_sbu_0, # of connection points: 4
#     Node 22, Type 1, BuildingBlock: NAHDIM_clean_sbu_0, # of connection points: 4
#     Node 23, Type 1, BuildingBlock: NAHDIM_clean_sbu_0, # of connection points: 4
#     Node 24, Type 1, BuildingBlock: NAHDIM_clean_sbu_0, # of connection points: 4
#     Node 25, Type 1, BuildingBlock: NAHDIM_clean_sbu_0, # of connection points: 4
#     Node 26, Type 1, BuildingBlock: NAHDIM_clean_sbu_0, # of connection points: 4
#     Node 27, Type 1, BuildingBlock: NAHDIM_clean_sbu_0, # of connection points: 4
#     Edge 28, Type (0, 1), BuildingBlock: MIFKUJ_clean_linker_0, # of connection points: 2
#     Edge 29, Type (0, 1), BuildingBlock: MIFKUJ_clean_linker_0, # of connection points: 2
#     Edge 30, Type (0, 1), BuildingBlock: MIFKUJ_clean_linker_0, # of connection points: 2
#     Edge 31, Type (0, 1), BuildingBlock: MIFKUJ_clean_linker_0, # of connection points: 2
#     Edge 32, Type (0, 1), BuildingBlock: MIFKUJ_clean_linker_0, # of connection points: 2
#     Edge 33, Type (0, 1), BuildingBlock: MIFKUJ_clean_linker_0, # of connection points: 2
#     Edge 34, Type (0, 1), BuildingBlock: MIFKUJ_clean_linker_0, # of connection points: 2
#     Edge 35, Type (0, 1), BuildingBlock: MIFKUJ_clean_linker_0, # of connection points: 2
#     Edge 36, Type (0, 1), BuildingBlock: MIFKUJ_clean_linker_0, # of connection points: 2
#     Edge 37, Type (0, 1), BuildingBlock: MIFKUJ_clean_linker_0, # of connection points: 2
#     Edge 38, Type (0, 1), BuildingBlock: MIFKUJ_clean_linker_0, # of connection points: 2
#     Edge 39, Type (0, 1), BuildingBlock: MIFKUJ_clean_linker_0, # of connection points: 2
#     Edge 40, Type (0, 1), BuildingBlock: MIFKUJ_clean_linker_0, # of connection points: 2
#     Edge 41, Type (0, 1), BuildingBlock: MIFKUJ_clean_linker_0, # of connection points: 2
#     Edge 42, Type (0, 1), BuildingBlock: MIFKUJ_clean_linker_0, # of connection points: 2
#     Edge 43, Type (0, 1), BuildingBlock: MIFKUJ_clean_linker_0, # of connection points: 2
#     Edge 44, Type (0, 1), BuildingBlock: MIFKUJ_clean_linker_0, # of connection points: 2
#     Edge 45, Type (0, 1), BuildingBlock: MIFKUJ_clean_linker_0, # of connection points: 2
#     Edge 46, Type (0, 1), BuildingBlock: MIFKUJ_clean_linker_0, # of connection points: 2
#     Edge 47, Type (0, 1), BuildingBlock: MIFKUJ_clean_linker_0, # of connection points: 2
#     Edge 48, Type (0, 1), BuildingBlock: MIFKUJ_clean_linker_0, # of connection points: 2
#     Edge 49, Type (0, 1), BuildingBlock: MIFKUJ_clean_linker_0, # of connection points: 2
#     Edge 50, Type (0, 1), BuildingBlock: MIFKUJ_clean_linker_0, # of connection points: 2
#     Edge 51, Type (0, 1), BuildingBlock: MIFKUJ_clean_linker_0, # of connection points: 2
#     Edge 52, Type (0, 1), BuildingBlock: MIFKUJ_clean_linker_0, # of connection points: 2
#     Edge 53, Type (0, 1), BuildingBlock: MIFKUJ_clean_linker_0, # of connection points: 2
#     Edge 54, Type (0, 1), BuildingBlock: MIFKUJ_clean_linker_0, # of connection points: 2
#     Edge 55, Type (0, 1), BuildingBlock: MIFKUJ_clean_linker_0, # of connection points: 2
#     Edge 56, Type (0, 1), BuildingBlock: MIFKUJ_clean_linker_0, # of connection points: 2
#     Edge 57, Type (0, 1), BuildingBlock: MIFKUJ_clean_linker_0, # of connection points: 2
#     Edge 58, Type (0, 1), BuildingBlock: MIFKUJ_clean_linker_0, # of connection points: 2
#     Edge 59, Type (0, 1), BuildingBlock: MIFKUJ_clean_linker_0, # of connection points: 2
#     Edge 60, Type (0, 1), BuildingBlock: MIFKUJ_clean_linker_0, # of connection points: 2
#     Edge 61, Type (0, 1), BuildingBlock: MIFKUJ_clean_linker_0, # of connection points: 2
#     Edge 62, Type (0, 1), BuildingBlock: MIFKUJ_clean_linker_0, # of connection points: 2
#     Edge 63, Type (0, 1), BuildingBlock: MIFKUJ_clean_linker_0, # of connection points: 2
#     Edge 64, Type (0, 1), BuildingBlock: MIFKUJ_clean_linker_0, # of connection points: 2
#     Edge 65, Type (0, 1), BuildingBlock: MIFKUJ_clean_linker_0, # of connection points: 2
#     Edge 66, Type (0, 1), BuildingBlock: MIFKUJ_clean_linker_0, # of connection points: 2
#     Edge 67, Type (0, 1), BuildingBlock: MIFKUJ_clean_linker_0, # of connection points: 2
#     Edge 68, Type (0, 1), BuildingBlock: MIFKUJ_clean_linker_0, # of connection points: 2
#     Edge 69, Type (0, 1), BuildingBlock: MIFKUJ_clean_linker_0, # of connection points: 2
#     Edge 70, Type (0, 1), BuildingBlock: MIFKUJ_clean_linker_0, # of connection points: 2
#     Edge 71, Type (0, 1), BuildingBlock: MIFKUJ_clean_linker_0, # of connection points: 2
#     Edge 72, Type (0, 1), BuildingBlock: MIFKUJ_clean_linker_0, # of connection points: 2
#     Edge 73, Type (0, 1), BuildingBlock: MIFKUJ_clean_linker_0, # of connection points: 2
#     Edge 74, Type (0, 1), BuildingBlock: MIFKUJ_clean_linker_0, # of connection points: 2
#     Edge 75, Type (0, 1), BuildingBlock: MIFKUJ_clean_linker_0, # of connection points: 2
# Relax obj value: 0.001
# Max RMSD: 0.034
# Mean RMSD: 0.016
data_MOF--net-ctn--node1-NAHDIM_clean_sbu_0--node2-MIDCAF_clean_linker_0--edge1-MIFKUJ_clean_linker_0
_symmetry_space_group_name_H-M    P1
_symmetry_Int_Tables_number       1
_symmetry_cell_setting            triclinic
loop_
_symmetry_equiv_pos_as_xyz
'x, y, z'
_cell_length_a     83.967879
_cell_length_b     84.372206
_cell_length_c     83.635014
_cell_angle_alpha  91.066745
_cell_angle_beta   90.03309
_cell_angle_gamma 92.039727
loop_
_atom_site_label
_atom_site_type_symbol
_atom_site_fract_x
_atom_site_fract_y
_atom_site_fract_z
_atom_type_partial_charge
C0 C 0.99115 0.04726 0.08054 0.0
C1 C 0.99243 0.03415 0.09053 0.0
C2 C 0.00375 0.02277 0.08682 0.0
C3 C 0.0137 0.02456 0.07356 0.0
H4 H 0.04876 0.00261 0.0482 0.0
H5 H 0.07039 0.98445 0.04439 0.0
H6 H 0.09281 0.0166 0.01095 0.0
H7 H 0.07121 0.03489 0.01477 0.0
H8 H 0.04898 0.06168 0.00031 0.0
H9 H 0.04554 0.08386 0.98256 0.0
H10 H 0.00781 0.10077 0.01279 0.0
H11 H 0.01095 0.07848 0.03035 0.0
H12 H -0.00014 0.05939 0.05994 0.0
H13 H 0.98268 0.05633 0.08317 0.0
H14 H 0.00487 0.01241 0.09414 0.0
H15 H 0.02231 0.01557 0.07112 0.0
N16 N 0.03512 0.0295 0.047 0.0
N17 N 0.04372 0.0441 0.02483 0.0
N18 N 0.02196 0.05238 0.04 0.0
C19 C 0.04533 0.03152 0.03455 0.0
C20 C 0.03202 0.05456 0.02745 0.0
C21 C 0.02342 0.03988 0.04982 0.0
C22 C 0.05824 0.02026 0.03182 0.0
C23 C 0.05826 0.00584 0.04 0.0
C24 C 0.0706 0.99537 0.03775 0.0
C25 C 0.08327 -0.00088 0.02738 0.0
C26 C 0.08324 0.01347 0.01912 0.0
C27 C 0.07082 0.0239 0.02125 0.0
C28 C 0.03021 0.06822 0.01677 0.0
C29 C 0.03995 0.07012 0.00321 0.0
C30 C 0.03804 0.08289 0.99305 0.0
C31 C 0.02637 0.09406 0.99623 0.0
C32 C 0.01673 0.09224 0.00985 0.0
C33 C 0.01861 0.07947 0.01998 0.0
C34 C 0.01255 0.03777 0.06365 0.0
C35 C 0.00108 0.04905 0.06726 0.0
C36 C 0.25809 0.66476 0.2304 0.0
C37 C 0.24727 0.66026 0.21819 0.0
C38 C 0.24699 0.66923 0.20422 0.0
C39 C 0.25739 0.68239 0.20245 0.0
H40 H 0.26413 0.72387 0.17698 0.0
H41 H 0.2612 0.74202 0.15494 0.0
H42 H 0.30736 0.76375 0.16583 0.0
H43 H 0.31043 0.74557 0.18783 0.0
H44 H 0.32941 0.73446 0.21828 0.0
H45 H 0.35104 0.73875 0.23754 0.0
H46 H 0.32715 0.70666 0.27005 0.0
H47 H 0.30548 0.70234 0.25089 0.0
H48 H 0.27682 0.68085 0.23823 0.0
H49 H 0.25869 0.65797 0.24124 0.0
H50 H 0.23867 0.66612 0.19467 0.0
H51 H 0.2569 0.68899 0.19149 0.0
N52 N 0.27852 0.71015 0.19992 0.0
N53 N 0.30119 0.72492 0.2086 0.0
N54 N 0.29183 0.70308 0.22322 0.0
C55 C 0.28915 0.72247 0.19788 0.0
C56 C 0.30259 0.7153 0.22133 0.0
C57 C 0.2798 0.70038 0.21256 0.0
C58 C 0.28751 0.73326 0.18423 0.0
C59 C 0.2737 0.73246 0.17468 0.0
C60 C 0.27196 0.74292 0.1621 0.0
C61 C 0.28403 0.75432 0.1587 0.0
C62 C 0.29792 0.755 0.16809 0.0
C63 C 0.29962 0.74462 0.18076 0.0
C64 C 0.3157 0.71804 0.23302 0.0
C65 C 0.32872 0.72833 0.22954 0.0
C66 C 0.34117 0.73073 0.24052 0.0
C67 C 0.34076 0.72303 0.25526 0.0
C68 C 0.3277 0.71285 0.25882 0.0
C69 C 0.31534 0.71032 0.24779 0.0
C70 C 0.26838 0.68677 0.21459 0.0
C71 C 0.26855 0.67783 0.22861 0.0
C72 C 0.98664 0.41766 0.00519 0.0
C73 C 0.97634 0.41486 0.99211 0.0
C74 C 0.96356 0.42494 0.98998 0.0
C75 C 0.96116 0.43755 0.00068 0.0
H76 H 0.93345 0.47584 0.00805 0.0
H77 H 0.91191 0.49382 0.00366 0.0
H78 H 0.92472 0.51961 0.04715 0.0
H79 H 0.94613 0.50152 0.05175 0.0
H80 H 0.97593 0.4921 0.07125 0.0
H81 H 0.99351 0.49613 0.09423 0.0
H82 H 0.01896 0.45447 0.08034 0.0
H83 H 0.00127 0.45022 0.05749 0.0
H84 H 0.99247 0.43207 0.02578 0.0
H85 H 0.99672 0.41025 0.00704 0.0
H86 H 0.95529 0.42298 0.98015 0.0
H87 H 0.95116 0.44503 -0.00133 0.0
N88 N 0.95699 0.46387 0.0227 0.0
N89 N 0.96444 0.47835 0.04586 0.0
N90 N 0.97864 0.4561 0.03801 0.0
C91 C 0.95464 0.4762 0.03302 0.0
C92 C 0.97647 0.46835 0.04845 0.0
C93 C 0.96896 0.45376 0.02511 0.0
C94 C 0.94156 0.48719 0.03027 0.0
C95 C 0.93171 0.48532 0.01671 0.0
C96 C 0.9194 0.49569 0.01412 0.0
C97 C 0.91663 0.50814 0.02505 0.0
C98 C 0.92644 0.51002 0.03861 0.0
C99 C 0.93878 0.49968 0.04119 0.0
C100 C 0.98715 0.47083 0.06247 0.0
C101 C 0.98525 0.48376 0.07307 0.0
C102 C 0.99538 0.48614 0.08621 0.0
C103 C 0.00763 0.47564 0.08909 0.0
C104 C 0.00951 0.46268 0.07855 0.0
C105 C -0.00059 0.4603 0.06539 0.0
C106 C 0.97147 0.44037 0.01377 0.0
C107 C 0.98423 0.43025 0.01589 0.0
C108 C 0.72517 0.77756 0.14851 0.0
C109 C 0.71379 0.76558 0.14431 0.0
C110 C 0.69953 0.76441 0.15308 0.0
C111 C 0.69682 0.77484 0.16591 0.0
H112 H 0.66576 0.7834 0.20289 0.0
H113 H 0.64368 0.77814 0.22112 0.0
H114 H 0.66314 0.81367 0.25419 0.0
H115 H 0.68536 0.81888 0.2361 0.0
H116 H 0.7164 0.83858 0.22713 0.0
H117 H 0.73612 0.85973 0.23304 0.0
H118 H 0.75904 0.85065 0.18771 0.0
H119 H 0.73962 0.82927 0.18193 0.0
H120 H 0.7316 0.79694 0.16425 0.0
H121 H 0.73639 0.77865 0.14219 0.0
H122 H 0.69042 0.75546 0.15002 0.0
H123 H 0.68574 0.77353 0.17246 0.0
N124 N 0.69311 0.79498 0.19403 0.0
N125 N 0.70188 0.8165 0.2103 0.0
N126 N 0.71644 0.80949 0.18751 0.0
C127 C 0.69107 0.80448 0.20712 0.0
C128 C 0.71458 0.81912 0.20052 0.0
C129 C 0.70579 0.7974 0.18417 0.0
C130 C 0.6774 0.80154 0.21801 0.0
C131 C 0.66536 0.79012 0.21403 0.0
C132 C 0.65264 0.78716 0.22443 0.0
C133 C 0.6517 0.79547 0.23909 0.0
C134 C 0.66365 0.80695 0.24305 0.0
C135 C 0.67633 0.80999 0.23261 0.0
C136 C 0.7264 0.83217 0.20406 0.0
C137 C 0.72563 0.84108 0.2184 0.0
C138 C 0.7369 0.85327 0.22177 0.0
C139 C 0.74917 0.85688 0.21085 0.0
C140 C 0.7499 0.84802 0.19649 0.0
C141 C 0.73868 0.8358 0.19315 0.0
C142 C 0.7083 0.7867 0.17022 0.0
C143 C 0.72245 0.78801 0.16127 0.0
C144 C 0.04057 0.9271 0.49952 0.0
C145 C 0.02946 0.91494 0.49521 0.0
C146 C 0.01975 0.91682 0.48174 0.0
C147 C 0.02104 0.93065 0.47283 0.0
H148 H 0.99701 0.95618 0.43975 0.0
H149 H 0.97729 0.96154 0.41939 0.0
H150 H 0.00277 0.00533 0.40831 0.0
H151 H 0.02267 -7e-05 0.42847 0.0
H152 H 0.05196 0.01157 0.45013 0.0
H153 H 0.07478 0.02984 0.45459 0.0
H154 H 0.09664 0.99542 0.48436 0.0
H155 H 0.07398 0.97709 0.47988 0.0
H156 H 0.05067 0.95 0.49424 0.0
H157 H 0.04831 0.9259 0.50976 0.0
H158 H 0.01099 0.90767 0.47823 0.0
H159 H 0.01333 0.93175 0.46256 0.0
N160 N 0.02247 0.96072 0.45655 0.0
N161 N 0.03616 0.98462 0.45071 0.0
N162 N 0.04599 0.96803 0.4703 0.0
C163 C 0.02365 0.97424 0.44799 0.0
C164 C 0.04739 0.98158 0.46183 0.0
C165 C 0.03357 0.95754 0.46775 0.0
C166 C 0.01149 0.9776 0.43577 0.0
C167 C 0.99844 0.96697 0.43301 0.0
C168 C 0.98707 0.97008 0.42139 0.0
C169 C 0.98848 0.98385 0.41224 0.0
C170 C 0.00146 0.99451 0.41503 0.0
C171 C 0.01283 0.99144 0.42666 0.0
C172 C 0.06112 0.99282 0.46462 0.0
C173 C 0.06162 0.00787 0.45762 0.0
C174 C 0.07465 0.01838 0.46023 0.0
C175 C 0.08748 0.01403 0.46978 0.0
C176 C 0.08699 -0.00098 0.47679 0.0
C177 C 0.07394 0.98856 0.47429 0.0
C178 C 0.03218 0.94284 0.47713 0.0
C179 C 0.04197 0.94087 0.49055 0.0
C180 C 0.21332 0.73957 0.85555 0.0
C181 C 0.20446 0.75324 0.85778 0.0
C182 C 0.1916 0.75578 0.84749 0.0
C183 C 0.1879 0.74503 0.83501 0.0
H184 H 0.16177 0.74023 0.79378 0.0
H185 H 0.14094 0.74593 0.77482 0.0
H186 H 0.14516 0.69937 0.75314 0.0
H187 H 0.16646 0.69383 0.7718 0.0
H188 H 0.20384 0.68043 0.77568 0.0
H189 H 0.22362 0.66062 0.77 0.0
H190 H 0.24187 0.66645 0.81815 0.0
H191 H 0.22247 0.68649 0.8237 0.0
H192 H 0.21683 0.71849 0.84168 0.0
H193 H 0.22313 0.73715 0.86345 0.0
H194 H 0.18464 0.76628 0.84884 0.0
H195 H 0.17808 0.7475 0.82714 0.0
N196 N 0.18158 0.72311 0.80853 0.0
N197 N 0.18848 0.70093 0.79302 0.0
N198 N 0.20309 0.70802 0.8161 0.0
C199 C 0.17886 0.71335 0.79563 0.0
C200 C 0.20062 0.69819 0.80325 0.0
C201 C 0.19365 0.7205 0.81885 0.0
C202 C 0.16584 0.71657 0.78432 0.0
C203 C 0.15825 0.73116 0.78501 0.0
C204 C 0.1462 0.73441 0.77418 0.0
C205 C 0.14131 0.7231 0.76245 0.0
C206 C 0.14879 0.70844 0.76185 0.0
C207 C 0.16095 0.70524 0.77262 0.0
C208 C 0.21165 0.68517 0.8001 0.0
C209 C 0.21199 0.6774 0.78509 0.0
C210 C 0.2233 0.666 0.78185 0.0
C211 C 0.23444 0.66206 0.79357 0.0
C212 C 0.23371 0.66946 0.80873 0.0
C213 C 0.2225 0.6809 0.81194 0.0
C214 C 0.19698 0.7315 0.83256 0.0
C215 C 0.20962 0.72882 0.8431 0.0
C216 C 0.98555 0.58806 0.49291 0.0
C217 C 0.97772 0.5893 0.5077 0.0
C218 C 0.9668 0.57717 0.51214 0.0
C219 C 0.96362 0.56417 0.50192 0.0
H220 H 0.93303 0.52607 0.49588 0.0
H221 H 0.91055 0.50811 0.5016 0.0
H222 H 0.91655 0.48457 0.45582 0.0
H223 H 0.93898 0.50265 0.44991 0.0
H224 H 0.96597 0.5162 0.42607 0.0
H225 H 0.98257 0.5118 0.40256 0.0
H226 H 0.01961 0.54262 0.42309 0.0
H227 H 0.00308 0.54712 0.44659 0.0
H228 H 0.98867 0.57445 0.4714 0.0
H229 H 0.99413 0.59717 0.48926 0.0
H230 H 0.96048 0.57789 0.52341 0.0
H231 H 0.95504 0.55511 0.50569 0.0
N232 N 0.95522 0.53917 0.47909 0.0
N233 N 0.96059 0.52463 0.45568 0.0
N234 N 0.97671 0.54692 0.46282 0.0
C235 C 0.95155 0.52682 0.46895 0.0
C236 C 0.97323 0.53461 0.45257 0.0
C237 C 0.96774 0.54931 0.47609 0.0
C238 C 0.93786 0.51584 0.47242 0.0
C239 C 0.9296 0.5171 0.48698 0.0
C240 C 0.91675 0.50674 0.49033 0.0
C241 C 0.91182 0.49491 0.47918 0.0
C242 C 0.92 0.49366 0.46459 0.0
C243 C 0.93292 0.50398 0.46126 0.0
C244 C 0.98319 0.53201 0.43823 0.0
C245 C 0.97765 0.52205 0.42559 0.0
C246 C 0.9871 0.51959 0.41209 0.0
C247 C 0.00236 0.52686 0.41105 0.0
C248 C 0.00794 0.53677 0.42366 0.0
C249 C 0.99842 0.53941 0.43707 0.0
C250 C 0.97139 0.56294 0.48708 0.0
C251 C 0.98247 0.57499 0.48274 0.0
C252 C 0.84908 0.77623 0.76692 0.0
C253 C 0.84987 0.78374 0.75206 0.0
C254 C 0.83757 0.79376 0.74783 0.0
C255 C 0.82477 0.79614 0.75817 0.0
H256 H 0.78313 0.8214 0.76394 0.0
H257 H 0.76489 0.84293 0.75993 0.0
H258 H 0.74793 0.83808 0.80836 0.0
H259 H 0.76602 0.81656 0.81244 0.0
H260 H 0.76775 0.77793 0.82349 0.0
H261 H 0.76284 0.75912 0.84487 0.0
H262 H 0.81106 0.74346 0.84057 0.0
H263 H 0.81606 0.76223 0.81913 0.0
H264 H 0.83604 0.77251 0.78854 0.0
H265 H 0.85847 0.76867 0.77071 0.0
H266 H 0.83767 0.79955 0.73638 0.0
H267 H 0.81545 0.80382 0.75445 0.0
N268 N 0.79976 0.80232 0.78118 0.0
N269 N 0.78489 0.79439 0.80356 0.0
N270 N 0.80777 0.78087 0.79633 0.0
C271 C 0.78715 0.80432 0.79111 0.0
C272 C 0.79512 0.78262 0.80623 0.0
C273 C 0.81016 0.79064 0.78376 0.0
C274 C 0.77604 0.81726 0.78851 0.0
C275 C 0.77552 0.82492 0.77374 0.0
C276 C 0.76503 0.83718 0.7714 0.0
C277 C 0.75506 0.84216 0.78385 0.0
C278 C 0.7556 0.83454 0.79861 0.0
C279 C 0.7659 0.82216 0.80089 0.0
C280 C 0.7923 0.77157 0.81956 0.0
C281 C 0.77735 0.77054 0.82712 0.0
C282 C 0.77448 0.75971 0.8393 0.0
C283 C 0.78656 0.74983 0.84431 0.0
C284 C 0.80158 0.75102 0.83698 0.0
C285 C 0.8044 0.76171 0.82465 0.0
C286 C 0.8239 0.78846 0.77293 0.0
C287 C 0.83623 0.77851 0.7772 0.0
C288 C 0.34451 0.27898 0.26124 0.0
C289 C 0.34365 0.286 0.24618 0.0
C290 C 0.33067 0.2954 0.2427 0.0
C291 C 0.31879 0.29779 0.25408 0.0
H292 H 0.28118 0.32613 0.26435 0.0
H293 H 0.26179 0.34653 0.26074 0.0
H294 H 0.24225 0.33683 0.30748 0.0
H295 H 0.26134 0.31618 0.31098 0.0
H296 H 0.27137 0.28611 0.32867 0.0
H297 H 0.26762 0.2677 0.35046 0.0
H298 H 0.30813 0.24177 0.33409 0.0
H299 H 0.31212 0.26034 0.31235 0.0
H300 H 0.33353 0.2756 0.28405 0.0
H301 H 0.35433 0.27158 0.26418 0.0
H302 H 0.3298 0.30104 0.23122 0.0
H303 H 0.30895 0.30512 0.25101 0.0
N304 N 0.29621 0.30464 0.27921 0.0
N305 N 0.28332 0.29719 0.30289 0.0
N306 N 0.30555 0.28352 0.29401 0.0
C307 C 0.28445 0.30683 0.29009 0.0
C308 C 0.29379 0.2855 0.30494 0.0
C309 C 0.30684 0.29305 0.28112 0.0
C310 C 0.27283 0.31945 0.28795 0.0
C311 C 0.27277 0.32833 0.27388 0.0
C312 C 0.26169 0.3401 0.27184 0.0
C313 C 0.25046 0.34331 0.28382 0.0
C314 C 0.25058 0.33449 0.29791 0.0
C315 C 0.26161 0.32269 0.29994 0.0
C316 C 0.292 0.27469 0.31865 0.0
C317 C 0.27955 0.27654 0.3297 0.0
C318 C 0.27733 0.26593 0.34217 0.0
C319 C 0.2875 0.25321 0.34392 0.0
C320 C 0.30017 0.25153 0.33312 0.0
C321 C 0.30239 0.26214 0.32061 0.0
C322 C 0.31955 0.29069 0.26913 0.0
C323 C 0.33254 0.28123 0.27257 0.0
C324 C 0.48857 0.91961 0.49958 0.0
C325 C 0.47817 0.9169 0.48658 0.0
C326 C 0.46593 0.92753 0.4841 0.0
C327 C 0.46406 0.94051 0.49447 0.0
H328 H 0.43348 0.97637 0.50544 0.0
H329 H 0.41209 0.99474 0.50148 0.0
H330 H 0.43214 0.02577 0.53848 0.0
H331 H 0.45358 0.00755 0.54243 0.0
H332 H 0.47439 0.98836 0.5694 0.0
H333 H 0.49113 0.99131 0.59303 0.0
H334 H 0.52643 0.96238 0.57033 0.0
H335 H 0.50932 0.95886 0.54694 0.0
H336 H 0.49498 0.93425 0.51984 0.0
H337 H 0.49826 0.91177 0.50168 0.0
H338 H 0.45761 0.92567 0.47429 0.0
H339 H 0.45442 0.94837 0.49226 0.0
N340 N 0.46037 0.96697 0.51647 0.0
N341 N 0.46808 0.9813 0.53964 0.0
N342 N 0.48208 0.95898 0.53161 0.0
C343 C 0.45823 0.97931 0.52683 0.0
C344 C 0.48003 0.9712 0.54211 0.0
C345 C 0.47228 0.95675 0.51877 0.0
C346 C 0.44527 0.99046 0.52427 0.0
C347 C 0.43338 0.98712 0.51272 0.0
C348 C 0.42107 0.99759 0.51049 0.0
C349 C 0.42047 0.01167 0.51967 0.0
C350 C 0.4324 0.01508 0.53112 0.0
C351 C 0.44462 0.00456 0.53344 0.0
C352 C 0.4905 0.97335 0.55628 0.0
C353 C 0.48574 0.98265 0.56942 0.0
C354 C 0.49541 0.98443 0.58296 0.0
C355 C 0.51019 0.97713 0.58362 0.0
C356 C 0.51502 0.96795 0.57038 0.0
C357 C 0.50524 0.966 0.55691 0.0
C358 C 0.47441 0.94316 0.50756 0.0
C359 C 0.48673 0.93258 0.50995 0.0
C360 C 0.22671 0.27564 0.64695 0.0
C361 C 0.21689 0.26201 0.64431 0.0
C362 C 0.20368 0.25932 0.65433 0.0
C363 C 0.20035 0.27006 0.66671 0.0
H364 H 0.17499 0.2747 0.70952 0.0
H365 H 0.15285 0.26956 0.72783 0.0
H366 H 0.15427 0.31891 0.74251 0.0
H367 H 0.17649 0.32413 0.7243 0.0
H368 H 0.2127 0.34106 0.72115 0.0
H369 H 0.2312 0.36355 0.72583 0.0
H370 H 0.25638 0.35165 0.68245 0.0
H371 H 0.23818 0.32898 0.67791 0.0
H372 H 0.23128 0.2967 0.66097 0.0
H373 H 0.23712 0.27793 0.6396 0.0
H374 H 0.19579 0.24902 0.65249 0.0
H375 H 0.19004 0.26764 0.67417 0.0
N376 N 0.19423 0.29245 0.69249 0.0
N377 N 0.20064 0.31615 0.70654 0.0
N378 N 0.21616 0.3084 0.68468 0.0
C379 C 0.19109 0.30292 0.70452 0.0
C380 C 0.21323 0.31896 0.69668 0.0
C381 C 0.20673 0.29514 0.68247 0.0
C382 C 0.17752 0.29983 0.71545 0.0
C383 C 0.17058 0.28448 0.71661 0.0
C384 C 0.15797 0.2815 0.72715 0.0
C385 C 0.1519 0.29384 0.73656 0.0
C386 C 0.15869 0.30921 0.7353 0.0
C387 C 0.17146 0.31216 0.72494 0.0
C388 C 0.22397 0.33312 0.69919 0.0
C389 C 0.22214 0.34325 0.71256 0.0
C390 C 0.23271 0.3562 0.71522 0.0
C391 C 0.24532 0.35935 0.70456 0.0
C392 C 0.24697 0.34939 0.69105 0.0
C393 C 0.23644 0.33643 0.68841 0.0
C394 C 0.21017 0.28372 0.66935 0.0
C395 C 0.22339 0.28636 0.6593 0.0
C396 C 0.76302 0.15497 0.73017 0.0
C397 C 0.7493 0.15301 0.72061 0.0
C398 C 0.74648 0.16416 0.70876 0.0
C399 C 0.75704 0.17711 0.70664 0.0
H400 H 0.76866 0.21281 0.67543 0.0
H401 H 0.76448 0.23112 0.65377 0.0
H402 H 0.79886 0.26443 0.6751 0.0
H403 H 0.80302 0.24623 0.69688 0.0
H404 H 0.82028 0.23736 0.72906 0.0
H405 H 0.84177 0.24265 0.74826 0.0
H406 H 0.8375 0.19425 0.764 0.0
H407 H 0.81598 0.18885 0.74482 0.0
H408 H 0.7839 0.16919 0.73582 0.0
H409 H 0.76543 0.14665 0.7395 0.0
H410 H 0.7361 0.16285 0.70108 0.0
H411 H 0.75441 0.18551 0.69746 0.0
N412 N 0.77918 0.20368 0.70259 0.0
N413 N 0.80077 0.21971 0.71178 0.0
N414 N 0.79363 0.1963 0.72508 0.0
C415 C 0.78878 0.21687 0.70109 0.0
C416 C 0.8033 0.20946 0.72378 0.0
C417 C 0.7815 0.19335 0.71456 0.0
C418 C 0.78618 0.22802 0.68793 0.0
C419 C 0.77533 0.22404 0.67556 0.0
C420 C 0.77299 0.23448 0.66308 0.0
C421 C 0.78136 0.24918 0.66275 0.0
C422 C 0.79214 0.25323 0.67513 0.0
C423 C 0.79457 0.24275 0.68756 0.0
C424 C 0.81639 0.21267 0.73539 0.0
C425 C 0.82391 0.22781 0.73658 0.0
C426 C 0.83615 0.23089 0.74764 0.0
C427 C 0.84126 0.21886 0.75761 0.0
C428 C 0.83385 0.2037 0.75637 0.0
C429 C 0.82147 0.20066 0.74544 0.0
C430 C 0.77064 0.17925 0.71638 0.0
C431 C 0.77355 0.16796 0.72811 0.0
C432 C 0.49122 0.54481 0.58217 0.0
C433 C 0.49623 0.53595 0.59522 0.0
C434 C 0.51103 0.5287 0.59432 0.0
C435 C 0.52056 0.53022 0.58072 0.0
H436 H 0.55921 0.51129 0.55886 0.0
H437 H 0.58256 0.49528 0.55574 0.0
H438 H 0.59191 0.51601 0.50969 0.0
H439 H 0.56876 0.5323 0.5129 0.0
H440 H 0.54673 0.55855 0.5003 0.0
H441 H 0.54193 0.57931 0.48127 0.0
H442 H 0.50526 0.59751 0.51206 0.0
H443 H 0.50974 0.57654 0.53092 0.0
H444 H 0.49654 0.55331 0.55877 0.0
H445 H 0.47978 0.55034 0.58232 0.0
H446 H 0.5154 0.52202 0.60424 0.0
H447 H 0.53192 0.52453 0.58051 0.0
N448 N 0.53857 0.53163 0.55128 0.0
N449 N 0.54465 0.54417 0.52717 0.0
N450 N 0.52256 0.55181 0.54219 0.0
C451 C 0.54804 0.53317 0.53821 0.0
C452 C 0.53195 0.55355 0.52907 0.0
C453 C 0.52578 0.54087 0.55335 0.0
C454 C 0.56208 0.52315 0.53615 0.0
C455 C 0.5662 0.51245 0.54804 0.0
C456 C 0.57956 0.50318 0.54622 0.0
C457 C 0.5891 0.50436 0.53247 0.0
C458 C 0.58494 0.51497 0.52053 0.0
C459 C 0.57159 0.52426 0.52235 0.0
C460 C 0.52866 0.56586 0.5172 0.0
C461 C 0.53759 0.56692 0.50302 0.0
C462 C 0.5349 0.57889 0.49212 0.0
C463 C 0.52325 0.59012 0.49516 0.0
C464 C 0.51418 0.58893 0.50923 0.0
C465 C 0.51682 0.57694 0.52011 0.0
C466 C 0.51558 0.53914 0.56771 0.0
C467 C 0.50081 0.54644 0.56861 0.0
C468 C 0.54008 0.42821 -0.00092 0.0
C469 C 0.52675 0.41781 0.99712 0.0
C470 C 0.51593 0.42046 0.9847 0.0
C471 C 0.51831 0.43331 0.97457 0.0
H472 H 0.49881 0.45469 0.93653 0.0
H473 H 0.47968 0.45905 0.91538 0.0
H474 H 0.5058 0.50193 0.90246 0.0
H475 H 0.52488 0.49779 0.92382 0.0
H476 H 0.55469 0.50952 0.94489 0.0
H477 H 0.57762 0.52767 0.94924 0.0
H478 H 0.59708 0.49526 0.98283 0.0
H479 H 0.57433 0.47702 0.97845 0.0
H480 H 0.5528 0.4489 0.99094 0.0
H481 H 0.54853 0.42659 0.00865 0.0
H482 H 0.50565 0.41254 0.98274 0.0
H483 H 0.50969 0.43499 0.96517 0.0
N484 N 0.52323 0.46037 0.95434 0.0
N485 N 0.53792 0.48328 0.94709 0.0
N486 N 0.5466 0.46788 0.96823 0.0
C487 C 0.52515 0.47313 0.94477 0.0
C488 C 0.54871 0.48071 0.9588 0.0
C489 C 0.53389 0.45766 0.96611 0.0
C490 C 0.51344 0.47587 0.93191 0.0
C491 C 0.50051 0.46508 0.92923 0.0
C492 C 0.48957 0.46752 0.91703 0.0
C493 C 0.49125 0.4808 0.90721 0.0
C494 C 0.50409 0.49166 0.90993 0.0
C495 C 0.51508 0.48922 0.92213 0.0
C496 C 0.56263 0.49178 0.96131 0.0
C497 C 0.56386 0.50622 0.95318 0.0
C498 C 0.57695 0.51668 0.95573 0.0
C499 C 0.58913 0.51287 0.96636 0.0
C500 C 0.58795 0.49843 0.97443 0.0
C501 C 0.57484 0.48803 0.97198 0.0
C502 C 0.53156 0.44382 0.97663 0.0
C503 C 0.54246 0.44106 0.98897 0.0
C504 C 0.71838 0.24735 0.35124 0.0
C505 C 0.7104 0.2617 0.3516 0.0
C506 C 0.69953 0.26473 0.33936 0.0
C507 C 0.69661 0.2536 0.32706 0.0
H508 H 0.66727 0.24428 0.2894 0.0
H509 H 0.64577 0.24845 0.27071 0.0
H510 H 0.65296 0.20239 0.24899 0.0
H511 H 0.67481 0.19831 0.26748 0.0
H512 H 0.70339 0.17815 0.27945 0.0
H513 H 0.7208 0.15591 0.27562 0.0
H514 H 0.75239 0.17538 0.3123 0.0
H515 H 0.73514 0.19773 0.3161 0.0
H516 H 0.72192 0.2253 0.33896 0.0
H517 H 0.72694 0.24477 0.36045 0.0
H518 H 0.69308 0.27563 0.33943 0.0
H519 H 0.68809 0.25632 0.31787 0.0
N520 N 0.68922 0.22932 0.30324 0.0
N521 N 0.69532 0.20572 0.28976 0.0
N522 N 0.71051 0.2145 0.31196 0.0
C523 C 0.68608 0.21856 0.29128 0.0
C524 C 0.70758 0.20362 0.30003 0.0
C525 C 0.70137 0.22738 0.31365 0.0
C526 C 0.67282 0.22095 0.27998 0.0
C527 C 0.6643 0.23499 0.28068 0.0
C528 C 0.65188 0.23736 0.27 0.0
C529 C 0.6476 0.22573 0.25839 0.0
C530 C 0.65608 0.21167 0.25768 0.0
C531 C 0.66857 0.2093 0.26834 0.0
C532 C 0.71786 0.1898 0.29805 0.0
C533 C 0.71402 0.17771 0.28674 0.0
C534 C 0.72394 0.1649 0.2846 0.0
C535 C 0.73796 0.16393 0.29364 0.0
C536 C 0.74175 0.17591 0.30504 0.0
C537 C 0.73179 0.18868 0.30726 0.0
C538 C 0.70458 0.23921 0.32667 0.0
C539 C 0.71556 0.23624 0.33887 0.0
C540 C 0.48893 0.09172 0.99098 0.0
C541 C 0.47813 0.09596 0.00301 0.0
C542 C 0.46438 0.08632 0.00537 0.0
C543 C 0.46154 0.07265 0.99597 0.0
H544 H 0.43151 0.03405 0.99146 0.0
H545 H 0.40894 0.01639 0.99751 0.0
H546 H 0.42323 0.98401 0.96 0.0
H547 H 0.44572 0.00184 0.95366 0.0
H548 H 0.47568 0.01099 0.93226 0.0
H549 H 0.4938 0.00516 0.91033 0.0
H550 H 0.52051 0.04888 0.92055 0.0
H551 H 0.50269 0.05461 0.94261 0.0
H552 H 0.49466 0.07519 0.97238 0.0
H553 H 0.49954 0.09902 0.98877 0.0
H554 H 0.45593 0.08921 0.01466 0.0
H555 H 0.45086 0.06546 -0.00181 0.0
N556 N 0.4569 0.04373 0.97725 0.0
N557 N 0.46421 0.02693 0.95605 0.0
N558 N 0.47932 0.05025 0.96176 0.0
C559 C 0.4542 0.03028 0.96833 0.0
C560 C 0.4768 0.03689 0.95268 0.0
C561 C 0.46944 0.05377 0.97406 0.0
C562 C 0.44048 0.01941 0.97204 0.0
C563 C 0.4299 0.02318 0.98447 0.0
C564 C 0.41698 0.01299 0.98803 0.0
C565 C 0.41432 -0.00124 0.97928 0.0
C566 C 0.42487 0.99497 0.96685 0.0
C567 C 0.43781 0.00517 0.96327 0.0
C568 C 0.48771 0.03327 0.93926 0.0
C569 C 0.48542 0.01937 0.92987 0.0
C570 C 0.49576 0.01605 0.91723 0.0
C571 C 0.50861 0.02654 0.91373 0.0
C572 C 0.51087 0.04043 0.92309 0.0
C573 C 0.50056 0.04375 0.9357 0.0
C574 C 0.47236 0.06835 0.98395 0.0
C575 C 0.48607 0.07809 0.98153 0.0
C576 C 0.21357 0.89344 0.0149 0.0
O577 O 0.21095 0.87819 0.01214 0.0
O578 O 0.23999 0.87031 0.99217 0.0
Zn579 Zn 0.24585 0.8845 0.01096 0.0
O580 O 0.26564 0.89751 0.00594 0.0
C581 C 0.2623 0.86329 0.03095 0.0
O582 O 0.27303 0.86478 0.01961 0.0
O583 O 0.22784 0.89899 0.01526 0.0
C584 C 0.27379 0.90448 0.01696 0.0
O585 O 0.26906 0.90324 0.03187 0.0
C586 C 0.25041 0.865 0.98266 0.0
O587 O 0.26549 0.86903 0.98499 0.0
O588 O 0.24954 0.87087 0.02998 0.0
C589 C 0.13786 0.46584 0.26256 0.0
O590 O 0.12287 0.46404 0.26688 0.0
O591 O 0.11407 0.49923 0.27293 0.0
Zn592 Zn 0.12807 0.49686 0.25351 0.0
O593 O 0.14156 0.51676 0.25087 0.0
C594 C 0.11044 0.50374 0.22494 0.0
O595 O 0.1147 0.51843 0.22889 0.0
O596 O 0.14268 0.47886 0.25655 0.0
C597 C 0.15087 0.51794 0.23895 0.0
O598 O 0.15143 0.50609 0.22858 0.0
C599 C 0.10005 0.50433 0.27188 0.0
O600 O 0.09454 0.50811 0.25781 0.0
O601 O 0.11473 0.49252 0.23374 0.0
C602 C 0.78557 0.60862 0.99496 0.0
O603 O 0.78189 0.61197 0.98016 0.0
O604 O 0.76222 0.63996 0.98224 0.0
Zn605 Zn 0.75789 0.62659 0.00162 0.0
O606 O 0.73878 0.61199 0.99785 0.0
C607 C 0.75888 0.65523 0.02083 0.0
O608 O 0.76805 0.66031 0.00914 0.0
O609 O 0.77695 0.61368 0.00631 0.0
C610 C 0.72488 0.61746 -0.00168 0.0
O611 O 0.72327 0.63267 0.00128 0.0
C612 C 0.75485 0.63815 0.96902 0.0
O613 O 0.74383 0.62679 0.9674 0.0
O614 O 0.75339 0.641 0.02038 0.0
C615 C 0.84117 0.03475 0.26174 0.0
O616 O 0.83558 0.02011 0.26319 0.0
O617 O 0.88361 0.01565 0.27197 0.0
Zn618 Zn 0.86963 0.01875 0.25291 0.0
O619 O 0.85598 -0.00093 0.24886 0.0
C620 C 0.89754 0.01891 0.23289 0.0
O621 O 0.90374 0.01222 0.2454 0.0
O622 O 0.85555 0.03717 0.25739 0.0
C623 C 0.86142 0.98616 0.24351 0.0
O624 O 0.87672 0.98536 0.24048 0.0
C625 C 0.87796 0.01063 0.2851 0.0
O626 O 0.86258 0.00747 0.28626 0.0
O627 O 0.8831 0.02295 0.2334 0.0
C628 C 0.29118 0.11743 0.50292 0.0
O629 O 0.29368 0.13273 0.50096 0.0
O630 O 0.26359 0.13827 0.47849 0.0
Zn631 Zn 0.25871 0.12562 0.49821 0.0
O632 O 0.2389 0.11184 0.49479 0.0
C633 C 0.25881 0.1551 0.51654 0.0
O634 O 0.26501 0.16098 0.50342 0.0
O635 O 0.277 0.11167 0.50241 0.0
C636 C 0.22524 0.11655 0.49883 0.0
O637 O 0.22401 0.13077 0.50531 0.0
C638 C 0.25268 0.1437 0.46983 0.0
O639 O 0.2377 0.14068 0.47354 0.0
O640 O 0.25549 0.1403 0.51713 0.0
C641 C 0.35635 0.54986 0.76325 0.0
O642 O 0.37043 0.55141 0.77009 0.0
O643 O 0.37934 0.51579 0.77259 0.0
Zn644 Zn 0.36742 0.51928 0.75205 0.0
O645 O 0.35334 0.5002 0.74611 0.0
C646 C 0.39622 0.51719 0.73353 0.0
O647 O 0.39966 0.50685 0.74444 0.0
O648 O 0.35287 0.53741 0.75503 0.0
C649 C 0.35746 0.48866 0.73724 0.0
O650 O 0.37199 0.48856 0.73146 0.0
C651 C 0.38209 0.502 0.77754 0.0
O652 O 0.37673 0.48954 0.76926 0.0
O653 O 0.38305 0.52414 0.73436 0.0
C654 C 0.72699 0.40916 0.51492 0.0
O655 O 0.73948 0.41451 0.50696 0.0
O656 O 0.7386 0.36655 0.49635 0.0
Zn657 Zn 0.74463 0.38044 0.51525 0.0
O658 O 0.76465 0.39302 0.50998 0.0
C659 C 0.7543 0.35313 0.53193 0.0
O660 O 0.75767 0.34841 0.5173 0.0
O661 O 0.72667 0.395 0.51987 0.0
C662 C 0.77531 0.39657 0.52035 0.0
O663 O 0.77333 0.39186 0.53512 0.0
C664 C 0.73851 0.37199 0.48229 0.0
O665 O 0.7422 0.38707 0.48017 0.0
O666 O 0.74846 0.36668 0.53416 0.0
C667 C 0.65135 0.97233 0.7645 0.0
O668 O 0.65482 0.98573 0.77218 0.0
O669 O 0.61194 0.99428 0.77017 0.0
Zn670 Zn 0.6266 0.99081 0.75145 0.0
O671 O 0.64162 0.00969 0.74856 0.0
C672 C 0.60145 0.99545 0.7288 0.0
O673 O 0.59729 0.00616 0.73945 0.0
O674 O 0.63955 0.97159 0.75496 0.0
C675 C 0.63709 0.0239 0.74918 0.0
O676 O 0.62204 0.0266 0.75202 0.0
C677 C 0.61658 0.00147 0.78292 0.0
O678 O 0.63141 0.00687 0.78405 0.0
O679 O 0.61357 0.98728 0.73143 0.0
C680 C -2e-05 0.22638 0.89477 0.0
O681 O 0.98548 0.23163 0.89375 0.0
O682 O 0.9862 0.24698 0.86091 0.0
Zn683 Zn 0.00636 0.25194 0.87346 0.0
O684 O 0.00401 0.27113 0.8879 0.0
C685 C 0.02211 0.26218 0.84466 0.0
O686 O 0.00762 0.26607 0.84077 0.0
O687 O 0.01115 0.23327 0.88701 0.0
C688 C 0.00142 0.28479 0.88249 0.0
O689 O 0.00019 0.28657 0.86698 0.0
C690 C 0.97284 0.25286 0.86419 0.0
O691 O 0.97169 0.26264 0.87651 0.0
O692 O 0.02448 0.25586 0.8581 0.0
C693 C 0.49813 0.72359 0.39488 0.0
O694 O 0.48381 0.72932 0.39429 0.0
O695 O 0.48505 0.74497 0.36064 0.0
Zn696 Zn 0.50488 0.74938 0.37382 0.0
O697 O 0.5019 0.76828 0.38833 0.0
C698 C 0.52117 0.75785 0.34467 0.0
O699 O 0.50653 0.75849 0.33925 0.0
O700 O 0.50934 0.73031 0.38701 0.0
C701 C 0.49904 0.78165 0.38241 0.0
O702 O 0.49805 0.78284 0.3668 0.0
C703 C 0.47124 0.74905 0.36491 0.0
O704 O 0.46939 0.75629 0.3788 0.0
O705 O 0.52344 0.75411 0.35913 0.0
C706 C 0.0112 0.77612 0.59141 0.0
O707 O 0.01248 0.76174 0.58536 0.0
O708 O 0.98321 0.76327 0.63334 0.0
Zn709 Zn 0.00265 0.75917 0.62004 0.0
O710 O -0.00118 0.7394 0.60651 0.0
C711 C 0.02233 0.76386 0.64794 0.0
O712 O 0.01151 0.77418 0.65164 0.0
O713 O 0.00726 0.77787 0.60599 0.0
C714 C 0.0029 0.72586 0.61112 0.0
O715 O 0.00968 0.72459 0.62517 0.0
C716 C 0.97845 0.75316 0.64351 0.0
O717 O 0.98613 0.73996 0.64486 0.0
O718 O 0.0212 0.75621 0.63473 0.0
C719 C 0.49562 0.28825 0.10322 0.0
O720 O 0.48078 0.28404 0.10644 0.0
O721 O 0.48286 0.2647 0.1363 0.0
Zn722 Zn 0.502 0.2612 0.12237 0.0
O723 O 0.49789 0.2422 0.10796 0.0
C724 C 0.52156 0.26313 0.15065 0.0
O725 O 0.51014 0.27215 0.15582 0.0
O726 O 0.5068 0.28027 0.10889 0.0
C727 C 0.50933 0.2339 0.10312 0.0
O728 O 0.52394 0.23792 0.10763 0.0
C729 C 0.46879 0.25991 0.13262 0.0
O730 O 0.46623 0.25243 0.11889 0.0
O731 O 0.52075 0.25728 0.13655 0.0
H732 H 0.23431 0.76426 0.86618 0.0
H733 H 0.24172 0.7834 0.88739 0.0
H734 H 0.19214 0.78807 0.89944 0.0
H735 H 0.18462 0.76885 0.87821 0.0
H736 H 0.20771 0.81663 0.89856 0.0
H737 H 0.21593 0.76644 0.92254 0.0
H738 H 0.22652 0.73965 0.92441 0.0
H739 H 0.27435 0.75937 0.92334 0.0
H740 H 0.26405 0.78628 0.92123 0.0
H741 H 0.22021 0.85495 0.97419 0.0
H742 H 0.21231 0.83637 0.95264 0.0
H743 H 0.26162 0.83173 0.9395 0.0
H744 H 0.26967 0.85021 0.96114 0.0
H745 H 0.24589 0.80312 0.94109 0.0
H746 H 0.23748 0.85338 0.91705 0.0
H747 H 0.22674 0.88012 0.91528 0.0
H748 H 0.17901 0.86015 0.91672 0.0
H749 H 0.18947 0.8333 0.91872 0.0
C750 C 0.22499 0.76924 0.87344 0.0
C751 C 0.20888 0.76496 0.87061 0.0
C752 C 0.22924 0.78019 0.88553 0.0
C753 C 0.21749 0.78699 0.89511 0.0
C754 C 0.20138 0.78294 0.89217 0.0
C755 C 0.19711 0.772 0.88004 0.0
C756 C 0.22205 0.79838 0.90815 0.0
C757 C 0.21587 0.81361 0.90799 0.0
C758 C 0.23298 0.79453 0.92024 0.0
C759 C 0.23922 0.77836 0.92157 0.0
C760 C 0.22871 0.76506 0.92258 0.0
C761 C 0.23466 0.74985 0.9237 0.0
C762 C 0.25109 0.74781 0.92396 0.0
C763 C 0.26162 0.76097 0.92312 0.0
C764 C 0.25573 0.7762 0.92198 0.0
C765 C 0.22939 0.85003 0.96669 0.0
C766 C 0.24558 0.85407 0.96936 0.0
C767 C 0.22484 0.83946 0.95434 0.0
C768 C 0.23638 0.83279 0.9444 0.0
C769 C 0.25254 0.83677 0.94705 0.0
C770 C 0.25711 0.84737 0.95938 0.0
C771 C 0.23159 0.82138 0.93146 0.0
C772 C 0.23772 0.80614 0.93165 0.0
C773 C 0.22059 0.82521 0.91944 0.0
C774 C 0.21427 0.84135 0.91819 0.0
C775 C 0.22469 0.8547 0.91712 0.0
C776 C 0.21865 0.86988 0.91605 0.0
C777 C 0.2022 0.87184 0.91594 0.0
C778 C 0.19175 0.85862 0.91684 0.0
C779 C 0.19773 0.84342 0.91792 0.0
H780 H 0.19755 0.88359 0.91511 0.0
H781 H 0.25567 0.73602 0.92483 0.0
H782 H 0.99391 0.52854 0.37965 0.0
H783 H 0.01069 0.52423 0.35619 0.0
H784 H 0.05026 0.51432 0.38698 0.0
H785 H 0.0336 0.51908 0.41047 0.0
H786 H 0.06016 0.53254 0.36404 0.0
H787 H 0.02827 0.48442 0.36622 0.0
H788 H 0.00342 0.46803 0.36763 0.0
H789 H 0.98782 0.48679 0.32312 0.0
H790 H 0.01249 0.50346 0.32155 0.0
H791 H 0.1082 0.49893 0.30296 0.0
H792 H 0.0917 0.50228 0.32678 0.0
H793 H 0.05298 0.51721 0.29738 0.0
H794 H 0.06932 0.51379 0.27348 0.0
H795 H 0.04304 0.49583 0.31978 0.0
H796 H 0.07529 0.54423 0.31822 0.0
H797 H 0.1005 0.56007 0.31705 0.0
H798 H 0.1159 0.53973 0.36088 0.0
H799 H 0.09086 0.5236 0.36219 0.0
C800 C 0.00616 0.52535 0.38138 0.0
C801 C 0.01246 0.52409 0.39684 0.0
C802 C 0.01574 0.52285 0.36798 0.0
C803 C 0.03168 0.51869 0.36981 0.0
C804 C 0.038 0.51751 0.38527 0.0
C805 C 0.02849 0.52023 0.39867 0.0
C806 C 0.04186 0.51586 0.35561 0.0
C807 C 0.05651 0.52432 0.35449 0.0
C808 C 0.03699 0.50537 0.34297 0.0
C809 C 0.02217 0.49529 0.34384 0.0
C810 C 0.01949 0.48513 0.35679 0.0
C811 C 0.00544 0.47578 0.35761 0.0
C812 C 0.99403 0.4764 0.34549 0.0
C813 C 0.99666 0.48634 0.3325 0.0
C814 C 0.01068 0.49573 0.33164 0.0
C815 C 0.09617 0.50291 0.30155 0.0
C816 C 0.09009 0.50615 0.28633 0.0
C817 C 0.08678 0.50487 0.31518 0.0
C818 C 0.07118 0.51013 0.31384 0.0
C819 C 0.065 0.51315 0.29866 0.0
C820 C 0.07438 0.51124 0.28503 0.0
C821 C 0.06125 0.51252 0.32826 0.0
C822 C 0.04667 0.50399 0.32939 0.0
C823 C 0.06624 0.52284 0.34096 0.0
C824 C 0.08127 0.53259 0.34022 0.0
C825 C 0.08411 0.54304 0.32754 0.0
C826 C 0.09836 0.55209 0.32687 0.0
C827 C 0.10982 0.55088 0.33886 0.0
C828 C 0.10703 0.54064 0.35159 0.0
C829 C 0.0928 0.53156 0.35231 0.0
H830 H 0.12084 0.55789 0.33832 0.0
H831 H 0.98316 0.46915 0.34615 0.0
H832 H 0.76123 0.72891 0.84667 0.0
H833 H 0.75602 0.70954 0.86759 0.0
H834 H 0.79943 0.72525 0.89165 0.0
H835 H 0.80487 0.74436 0.87048 0.0
H836 H 0.79693 0.69437 0.89178 0.0
H837 H 0.76181 0.73618 0.90484 0.0
H838 H 0.74089 0.75531 0.89997 0.0
H839 H 0.70729 0.71698 0.88945 0.0
H840 H 0.72807 0.69762 0.89405 0.0
H841 H 0.77886 0.66078 0.96739 0.0
H842 H 0.78437 0.67918 0.9457 0.0
H843 H 0.7445 0.65871 0.91904 0.0
H844 H 0.73886 0.64022 0.94069 0.0
H845 H 0.7451 0.69169 0.92025 0.0
H846 H 0.78101 0.64996 0.90803 0.0
H847 H 0.80224 0.63146 0.91392 0.0
H848 H 0.83478 0.67075 0.92421 0.0
H849 H 0.81367 0.68949 0.9186 0.0
C850 C 0.7696 0.72827 0.85648 0.0
C851 C 0.7834 0.73817 0.85703 0.0
C852 C 0.76661 0.71723 0.86844 0.0
C853 C 0.7772 0.71611 0.88134 0.0
C854 C 0.79108 0.72591 0.88182 0.0
C855 C 0.79418 0.73681 0.86974 0.0
C856 C 0.77389 0.70463 0.89425 0.0
C857 C 0.78567 0.69394 0.89814 0.0
C858 C 0.75908 0.70384 0.90236 0.0
C859 C 0.74654 0.71546 0.89964 0.0
C860 C 0.74999 0.73184 0.90137 0.0
C861 C 0.73815 0.74272 0.89868 0.0
C862 C 0.72278 0.73736 0.89437 0.0
C863 C 0.7192 0.72111 0.89277 0.0
C864 C 0.73101 0.71018 0.89543 0.0
C865 C 0.77129 0.66014 0.95689 0.0
C866 C 0.75843 0.64902 0.95574 0.0
C867 C 0.77449 0.67063 0.94449 0.0
C868 C 0.7649 0.67021 0.93074 0.0
C869 C 0.75204 0.65918 0.92957 0.0
C870 C 0.74888 0.6486 0.94192 0.0
C871 C 0.76813 0.68151 0.91772 0.0
C872 C 0.75634 0.69215 0.91384 0.0
C873 C 0.78298 0.68237 0.90975 0.0
C874 C 0.79571 0.67112 0.91304 0.0
C875 C 0.79266 0.65465 0.91167 0.0
C876 C 0.80468 0.64412 0.91494 0.0
C877 C 0.81984 0.64993 0.91947 0.0
C878 C 0.82302 0.66627 0.92071 0.0
C879 C 0.81104 0.67685 0.91747 0.0
H880 H 0.82913 0.64176 0.922 0.0
H881 H 0.71363 0.74581 0.89229 0.0
H882 H 0.95602 0.97996 0.41402 0.0
H883 H 0.93645 0.98487 0.39317 0.0
H884 H 0.97432 -0.00018 0.36141 0.0
H885 H 0.99395 0.99491 0.38216 0.0
H886 H 0.95001 0.01969 0.36056 0.0
H887 H 0.95621 0.96321 0.3574 0.0
H888 H 0.95646 0.9361 0.36788 0.0
H889 H 0.90725 0.93892 0.3812 0.0
H890 H 0.90677 0.96615 0.37098 0.0
H891 H 0.9103 0.01523 0.28614 0.0
H892 H 0.92805 0.01119 0.30869 0.0
H893 H 0.88779 0.99682 0.3377 0.0
H894 H 0.86991 0.00062 0.31507 0.0
H895 H 0.91214 0.97714 0.34105 0.0
H896 H 0.90561 0.03326 0.34304 0.0
H897 H 0.90541 0.0603 0.33239 0.0
H898 H 0.9552 0.05819 0.3212 0.0
H899 H 0.95565 0.03104 0.33158 0.0
C900 C 0.96018 0.98419 0.40255 0.0
C901 C 0.97654 0.98701 0.39971 0.0
C902 C 0.94899 0.987 0.39067 0.0
C903 C 0.95395 0.99256 0.37569 0.0
C904 C 0.97024 0.99557 0.37289 0.0
C905 C 0.98144 0.9928 0.38478 0.0
C906 C 0.94219 0.99526 0.3629 0.0
C907 C 0.94184 0.01035 0.35616 0.0
C908 C 0.93125 0.98317 0.35748 0.0
C909 C 0.93151 0.96678 0.36358 0.0
C910 C 0.94548 0.9581 0.36268 0.0
C911 C 0.94566 0.9427 0.36855 0.0
C912 C 0.93189 0.93581 0.37524 0.0
C913 C 0.91791 0.94429 0.37604 0.0
C914 C 0.91768 0.9597 0.3702 0.0
C915 C 0.90519 0.01124 0.29732 0.0
C916 C 0.88867 0.00829 0.29883 0.0
C917 C 0.91535 0.00901 0.31022 0.0
C918 C 0.90921 0.0039 0.32493 0.0
C919 C 0.89276 0.00081 0.32646 0.0
C920 C 0.88256 0.00302 0.31353 0.0
C921 C 0.92006 0.00154 0.3386 0.0
C922 C 0.92023 0.98652 0.3455 0.0
C923 C 0.93084 0.01369 0.34417 0.0
C924 C 0.93063 0.03006 0.33797 0.0
C925 C 0.91649 0.03851 0.3382 0.0
C926 C 0.91634 0.05387 0.33223 0.0
C927 C 0.93027 0.06095 0.32609 0.0
C928 C 0.94441 0.05269 0.32594 0.0
C929 C 0.94462 0.03732 0.33189 0.0
H930 H 0.93013 0.07284 0.32147 0.0
H931 H 0.93205 0.92389 0.37978 0.0
H932 H 0.2154 0.22955 0.645 0.0
H933 H 0.22198 0.2109 0.62347 0.0
H934 H 0.23367 0.25004 0.59263 0.0
H935 H 0.22657 0.26874 0.61389 0.0
H936 H 0.21664 0.2273 0.57692 0.0
H937 H 0.26278 0.22991 0.61097 0.0
H938 H 0.27739 0.22839 0.63645 0.0
H939 H 0.26208 0.17954 0.64071 0.0
H940 H 0.24719 0.18085 0.61535 0.0
H941 H 0.26129 0.18746 0.51789 0.0
H942 H 0.25376 0.205 0.53997 0.0
H943 H 0.23994 0.1644 0.56801 0.0
H944 H 0.24749 0.14671 0.54599 0.0
H945 H 0.25745 0.18715 0.58537 0.0
H946 H 0.21187 0.18455 0.55072 0.0
H947 H 0.19764 0.18627 0.52505 0.0
H948 H 0.21232 0.23537 0.52176 0.0
H949 H 0.22685 0.23389 0.54731 0.0
C950 C 0.21919 0.23418 0.63357 0.0
C951 C 0.22054 0.25063 0.63118 0.0
C952 C 0.22309 0.22351 0.62134 0.0
C953 C 0.22852 0.2291 0.60653 0.0
C954 C 0.22957 0.24549 0.60399 0.0
C955 C 0.22565 0.25615 0.6162 0.0
C956 C 0.23319 0.21788 0.59366 0.0
C957 C 0.2257 0.21864 0.57871 0.0
C958 C 0.24476 0.20636 0.59612 0.0
C959 C 0.25374 0.20553 0.61135 0.0
C960 C 0.26243 0.21888 0.6174 0.0
C961 C 0.27077 0.21805 0.63181 0.0
C962 C 0.27063 0.20389 0.64022 0.0
C963 C 0.26216 0.19051 0.6342 0.0
C964 C 0.25378 0.19129 0.61981 0.0
C965 C 0.25672 0.18224 0.52877 0.0
C966 C 0.25493 0.16569 0.53016 0.0
C967 C 0.25236 0.19229 0.54135 0.0
C968 C 0.24613 0.18598 0.55553 0.0
C969 C 0.24469 0.16948 0.55713 0.0
C970 C 0.24898 0.1594 0.54452 0.0
C971 C 0.24098 0.19666 0.56863 0.0
C972 C 0.24837 0.19578 0.58361 0.0
C973 C 0.22936 0.20811 0.56619 0.0
C974 C 0.22057 0.20906 0.55085 0.0
C975 C 0.21217 0.19568 0.54446 0.0
C976 C 0.20403 0.19662 0.52994 0.0
C977 C 0.20411 0.21091 0.52175 0.0
C978 C 0.21229 0.22431 0.5281 0.0
C979 C 0.22047 0.22343 0.5426 0.0
H980 H 0.19779 0.21162 0.51052 0.0
H981 H 0.2771 0.20327 0.65137 0.0
H982 H 0.47804 0.55848 0.60966 0.0
H983 H 0.4612 0.5556 0.63325 0.0
H984 H 0.47517 0.50715 0.6377 0.0
H985 H 0.49133 0.50965 0.61358 0.0
H986 H 0.44467 0.50865 0.64257 0.0
H987 H 0.49068 0.53766 0.66227 0.0
H988 H 0.51135 0.55916 0.66321 0.0
H989 H 0.47543 0.59348 0.67076 0.0
H990 H 0.45451 0.5722 0.66964 0.0
H991 H 0.42031 0.49864 0.72343 0.0
H992 H 0.43746 0.50247 0.70008 0.0
H993 H 0.41403 0.54573 0.68958 0.0
H994 H 0.39659 0.54187 0.71279 0.0
H995 H 0.44917 0.54704 0.68817 0.0
H996 H 0.40325 0.5166 0.66838 0.0
H997 H 0.38359 0.49418 0.6686 0.0
H998 H 0.42115 0.46137 0.66251 0.0
H999 H 0.44107 0.4836 0.66251 0.0
C1000 C 0.4774 0.54714 0.61552 0.0
C1001 C 0.48609 0.5343 0.60971 0.0
C1002 C 0.46791 0.54558 0.62915 0.0
C1003 C 0.46711 0.53123 0.63741 0.0
C1004 C 0.47566 0.51836 0.63158 0.0
C1005 C 0.48503 0.51987 0.61787 0.0
C1006 C 0.45716 0.52956 0.65199 0.0
C1007 C 0.44583 0.51694 0.6526 0.0
C1008 C 0.45847 0.54051 0.66502 0.0
C1009 C 0.47101 0.55335 0.6657 0.0
C1010 C 0.48717 0.54981 0.664 0.0
C1011 C 0.49894 0.56195 0.66459 0.0
C1012 C 0.4947 0.57768 0.667 0.0
C1013 C 0.47869 0.58129 0.66887 0.0
C1014 C 0.46687 0.56919 0.66827 0.0
C1015 C 0.41885 0.50902 0.71622 0.0
C1016 C 0.40707 0.51993 0.7199 0.0
C1017 C 0.42863 0.51116 0.70288 0.0
C1018 C 0.42692 0.52433 0.69313 0.0
C1019 C 0.41549 0.53549 0.697 0.0
C1020 C 0.40552 0.53323 0.7102 0.0
C1021 C 0.4368 0.52619 0.67863 0.0
C1022 C 0.44808 0.53881 0.67807 0.0
C1023 C 0.43562 0.51513 0.66575 0.0
C1024 C 0.42366 0.50176 0.66562 0.0
C1025 C 0.40733 0.5046 0.66723 0.0
C1026 C 0.39614 0.49193 0.66729 0.0
C1027 C 0.40112 0.47636 0.66561 0.0
C1028 C 0.41731 0.47344 0.66383 0.0
C1029 C 0.42855 0.48607 0.66379 0.0
H1030 H 0.39244 0.46657 0.66566 0.0
H1031 H 0.50383 0.58706 0.66746 0.0
H1032 H 0.77982 0.24216 0.63077 0.0
H1033 H 0.77555 0.2604 0.60889 0.0
H1034 H 0.77317 0.29937 0.64283 0.0
H1035 H 0.77722 0.28114 0.66481 0.0
H1036 H 0.74898 0.29909 0.62021 0.0
H1037 H 0.80597 0.29551 0.62143 0.0
H1038 H 0.83134 0.28167 0.62137 0.0
H1039 H 0.81999 0.26084 0.57534 0.0
H1040 H 0.79443 0.27439 0.57523 0.0
H1041 H 0.75332 0.36084 0.56382 0.0
H1042 H 0.75828 0.3436 0.58631 0.0
H1043 H 0.76648 0.30469 0.55346 0.0
H1044 H 0.762 0.32198 0.53092 0.0
H1045 H 0.78803 0.30535 0.57608 0.0
H1046 H 0.73105 0.30777 0.57474 0.0
H1047 H 0.70521 0.32077 0.5745 0.0
H1048 H 0.71582 0.3427 0.6202 0.0
H1049 H 0.74183 0.32999 0.62061 0.0
C1050 C 0.7783 0.2546 0.63356 0.0
C1051 C 0.77887 0.26024 0.64948 0.0
C1052 C 0.77598 0.26501 0.62106 0.0
C1053 C 0.77418 0.28124 0.62425 0.0
C1054 C 0.77458 0.28689 0.64013 0.0
C1055 C 0.77701 0.2765 0.65264 0.0
C1056 C 0.77172 0.29228 0.611 0.0
C1057 C 0.75761 0.30066 0.61067 0.0
C1058 C 0.78282 0.29396 0.59838 0.0
C1059 C 0.79822 0.28585 0.59839 0.0
C1060 C 0.80882 0.28788 0.61135 0.0
C1061 C 0.82325 0.28011 0.61134 0.0
C1062 C 0.82726 0.27035 0.59838 0.0
C1063 C 0.81686 0.26839 0.58538 0.0
C1064 C 0.80241 0.27612 0.58534 0.0
C1065 C 0.75616 0.3486 0.56139 0.0
C1066 C 0.75721 0.34275 0.54559 0.0
C1067 C 0.75893 0.33874 0.57426 0.0
C1068 C 0.76253 0.32278 0.57159 0.0
C1069 C 0.76371 0.31696 0.55582 0.0
C1070 C 0.76111 0.32685 0.54294 0.0
C1071 C 0.76521 0.31216 0.58519 0.0
C1072 C 0.77939 0.30384 0.58562 0.0
C1073 C 0.7541 0.31043 0.59783 0.0
C1074 C 0.73845 0.31806 0.59763 0.0
C1075 C 0.72793 0.31546 0.58468 0.0
C1076 C 0.71324 0.32276 0.58452 0.0
C1077 C 0.70889 0.33259 0.5973 0.0
C1078 C 0.71921 0.3351 0.61029 0.0
C1079 C 0.73392 0.32784 0.6105 0.0
H1080 H 0.69752 0.33823 0.59716 0.0
H1081 H 0.83844 0.26435 0.59839 0.0
H1082 H 0.52884 0.95489 0.5972 0.0
H1083 H 0.54526 0.95786 0.62118 0.0
H1084 H 0.53037 0.00599 0.62757 0.0
H1085 H 0.51481 0.00351 0.60299 0.0
H1086 H 0.56039 0.00504 0.63394 0.0
H1087 H 0.5142 0.97416 0.64963 0.0
H1088 H 0.49434 0.95193 0.64815 0.0
H1089 H 0.53123 0.91882 0.65539 0.0
H1090 H 0.55134 0.94085 0.65671 0.0
H1091 H 0.57921 0.01475 0.71663 0.0
H1092 H 0.5645 0.01123 0.69149 0.0
H1093 H 0.58817 0.96754 0.68193 0.0
H1094 H 0.60308 0.97101 0.70701 0.0
H1095 H 0.55443 0.96581 0.67719 0.0
H1096 H 0.60039 0.99807 0.66243 0.0
H1097 H 0.61921 0.02109 0.66494 0.0
H1098 H 0.58107 0.05264 0.65716 0.0
H1099 H 0.56196 0.02981 0.65483 0.0
C1100 C 0.52924 0.96621 0.60353 0.0
C1101 C 0.52039 0.97894 0.59815 0.0
C1102 C 0.53848 0.96781 0.61739 0.0
C1103 C 0.53881 0.98205 0.62638 0.0
C1104 C 0.53023 0.99485 0.62091 0.0
C1105 C 0.52117 0.99334 0.60692 0.0
C1106 C 0.54805 0.98362 0.6415 0.0
C1107 C 0.55892 0.99655 0.64345 0.0
C1108 C 0.54637 0.97241 0.65385 0.0
C1109 C 0.5343 0.95914 0.6531 0.0
C1110 C 0.51809 0.96213 0.65079 0.0
C1111 C 0.50679 0.94957 0.65 0.0
C1112 C 0.51152 0.93397 0.65163 0.0
C1113 C 0.52758 0.93091 0.65411 0.0
C1114 C 0.53893 0.94343 0.65489 0.0
C1115 C 0.58127 0.00437 0.70921 0.0
C1116 C 0.59233 0.99317 0.71378 0.0
C1117 C 0.5729 0.00242 0.69483 0.0
C1118 C 0.57535 0.98918 0.68486 0.0
C1119 C 0.58616 0.97784 0.68949 0.0
C1120 C 0.59469 0.97987 0.70378 0.0
C1121 C 0.56661 0.98722 0.66956 0.0
C1122 C 0.55587 0.97424 0.66761 0.0
C1123 C 0.56823 -0.00151 0.65733 0.0
C1124 C 0.57972 0.01223 0.65861 0.0
C1125 C 0.59599 0.00992 0.66139 0.0
C1126 C 0.60672 0.02294 0.66275 0.0
C1127 C 0.60134 0.03832 0.66125 0.0
C1128 C 0.58522 0.04072 0.65834 0.0
C1129 C 0.57444 0.02775 0.65698 0.0
H1130 H 0.60966 0.04838 0.66231 0.0
H1131 H 0.50275 0.92426 0.65102 0.0
H1132 H 0.86727 0.20117 0.76281 0.0
H1133 H 0.88905 0.20677 0.78173 0.0
H1134 H 0.86634 0.24934 0.79773 0.0
H1135 H 0.84474 0.24396 0.77851 0.0
H1136 H 0.89663 0.25541 0.79403 0.0
H1137 H 0.86595 0.21482 0.82029 0.0
H1138 H 0.85179 0.1889 0.82299 0.0
H1139 H 0.89543 0.16509 0.81453 0.0
H1140 H 0.90981 0.19087 0.81155 0.0
H1141 H 0.94426 0.26737 0.86411 0.0
H1142 H 0.92135 0.26132 0.84665 0.0
H1143 H 0.94668 0.22344 0.82397 0.0
H1144 H 0.96968 0.22946 0.84129 0.0
H1145 H 0.9147 0.21518 0.83192 0.0
H1146 H 0.9449 0.25657 0.80519 0.0
H1147 H 0.95857 0.28282 0.80335 0.0
H1148 H 0.91475 0.3055 0.81402 0.0
H1149 H 0.90086 0.27935 0.81616 0.0
C1150 C 0.86689 0.21166 0.77045 0.0
C1151 C 0.85432 0.22212 0.76925 0.0
C1152 C 0.87931 0.21483 0.78129 0.0
C1153 C 0.87922 0.22836 0.79134 0.0
C1154 C 0.86667 0.23883 0.79011 0.0
C1155 C 0.85435 0.23576 0.77913 0.0
C1156 C 0.89241 0.23178 0.80287 0.0
C1157 C 0.90039 0.24668 0.80248 0.0
C1158 C 0.89753 0.22031 0.81372 0.0
C1159 C 0.88893 0.20478 0.81555 0.0
C1160 C 0.8725 0.20405 0.81889 0.0
C1161 C 0.86444 0.18939 0.82048 0.0
C1162 C 0.87269 0.17536 0.81889 0.0
C1163 C 0.88904 0.17597 0.81574 0.0
C1164 C 0.89716 0.1906 0.81411 0.0
C1165 C 0.94493 0.25772 0.85546 0.0
C1166 C 0.9588 0.24893 0.85403 0.0
C1167 C 0.93186 0.25431 0.84548 0.0
C1168 C 0.9324 0.24201 0.83399 0.0
C1169 C 0.94607 0.23299 0.83278 0.0
C1170 C 0.9592 0.23649 0.84263 0.0
C1171 C 0.91882 0.23873 0.82301 0.0
C1172 C 0.91082 0.22388 0.8235 0.0
C1173 C 0.91356 0.25028 0.81237 0.0
C1174 C 0.92188 0.26601 0.811 0.0
C1175 C 0.93821 0.26715 0.80728 0.0
C1176 C 0.94599 0.28201 0.80616 0.0
C1177 C 0.93754 0.29582 0.80861 0.0
C1178 C 0.92128 0.29479 0.81215 0.0
C1179 C 0.91344 0.27996 0.8133 0.0
H1180 H 0.94359 0.30732 0.80773 0.0
H1181 H 0.86643 0.16401 0.82013 0.0
H1182 H 0.47591 0.91578 0.45392 0.0
H1183 H 0.47908 0.89281 0.43609 0.0
H1184 H 0.48792 0.86367 0.47677 0.0
H1185 H 0.48468 0.88656 0.49468 0.0
H1186 H 0.50911 0.85862 0.45335 0.0
H1187 H 0.45226 0.86122 0.45751 0.0
H1188 H 0.4263 0.87391 0.45619 0.0
H1189 H 0.43346 0.88263 0.40624 0.0
H1190 H 0.45958 0.87019 0.40732 0.0
H1191 H 0.50051 0.7832 0.41506 0.0
H1192 H 0.49684 0.80638 0.43244 0.0
H1193 H 0.48882 0.83491 0.39113 0.0
H1194 H 0.49231 0.81174 0.37364 0.0
H1195 H 0.46729 0.84046 0.41455 0.0
H1196 H 0.52412 0.83768 0.41043 0.0
H1197 H 0.55002 0.82489 0.41182 0.0
H1198 H 0.54283 0.81642 0.46181 0.0
H1199 H 0.51677 0.82898 0.46067 0.0
C1200 C 0.47837 0.90444 0.45908 0.0
C1201 C 0.48003 0.90298 0.47571 0.0
C1202 C 0.4802 0.89134 0.44887 0.0
C1203 C 0.4836 0.8765 0.45512 0.0
C1204 C 0.48533 0.87502 0.47171 0.0
C1205 C 0.48353 0.88812 0.48191 0.0
C1206 C 0.48556 0.86255 0.44437 0.0
C1207 C 0.49989 0.85452 0.44501 0.0
C1208 C 0.47366 0.85745 0.43323 0.0
C1209 C 0.45795 0.86491 0.43254 0.0
C1210 C 0.44836 0.86596 0.44628 0.0
C1211 C 0.43361 0.87309 0.44556 0.0
C1212 C 0.42825 0.87911 0.43115 0.0
C1213 C 0.43763 0.87798 0.4174 0.0
C1214 C 0.4524 0.87088 0.41806 0.0
C1215 C 0.49798 0.7944 0.40965 0.0
C1216 C 0.49677 0.79565 0.39296 0.0
C1217 C 0.49593 0.80765 0.4196 0.0
C1218 C 0.49273 0.8224 0.41305 0.0
C1219 C 0.49131 0.82364 0.39641 0.0
C1220 C 0.49336 0.81039 0.38644 0.0
C1221 C 0.49082 0.83652 0.42358 0.0
C1222 C 0.47652 0.84458 0.42288 0.0
C1223 C 0.50273 0.84164 0.43469 0.0
C1224 C 0.51842 0.83413 0.43542 0.0
C1225 C 0.528 0.83298 0.42169 0.0
C1226 C 0.54272 0.82579 0.42244 0.0
C1227 C 0.54805 0.81981 0.43688 0.0
C1228 C 0.53868 0.82104 0.45062 0.0
C1229 C 0.52394 0.82821 0.44993 0.0
H1230 H 0.55945 0.81425 0.43744 0.0
H1231 H 0.41683 0.88462 0.43062 0.0
H1232 H 0.14926 0.27042 0.75849 0.0
H1233 H 0.12725 0.26511 0.77698 0.0
H1234 H 0.10231 0.30451 0.75801 0.0
H1235 H 0.12459 0.31015 0.73987 0.0
H1236 H 0.09947 0.30485 0.78876 0.0
H1237 H 0.09209 0.2648 0.74803 0.0
H1238 H 0.09965 0.24278 0.73012 0.0
H1239 H 0.10908 0.21416 0.77074 0.0
H1240 H 0.10179 0.2361 0.78891 0.0
H1241 H 0.02271 0.28152 0.81887 0.0
H1242 H 0.04502 0.28695 0.80073 0.0
H1243 H 0.07398 0.25528 0.8271 0.0
H1244 H 0.05179 0.24992 0.84547 0.0
H1245 H 0.0744 0.25092 0.79272 0.0
H1246 H 0.08104 0.29217 0.83319 0.0
H1247 H 0.07212 0.3144 0.85008 0.0
H1248 H 0.06226 0.34101 0.80817 0.0
H1249 H 0.0709 0.31882 0.791 0.0
C1250 C 0.13904 0.27789 0.75825 0.0
C1251 C 0.13856 0.29064 0.74773 0.0
C1252 C 0.12645 0.27483 0.76877 0.0
C1253 C 0.11297 0.28423 0.76871 0.0
C1254 C 0.11256 0.29708 0.75828 0.0
C1255 C 0.12527 0.30029 0.74792 0.0
C1256 C 0.09939 0.28078 0.77961 0.0
C1257 C 0.09387 0.2931 0.78944 0.0
C1258 C 0.09219 0.26539 0.78072 0.0
C1259 C 0.09654 0.25215 0.76983 0.0
C1260 C 0.09589 0.25385 0.75314 0.0
C1261 C 0.10011 0.24138 0.74294 0.0
C1262 C 0.10488 0.22709 0.74928 0.0
C1263 C 0.1054 0.22524 0.76584 0.0
C1264 C 0.10122 0.23768 0.7761 0.0
C1265 C 0.03382 0.27569 0.82081 0.0
C1266 C 0.03552 0.26532 0.83361 0.0
C1267 C 0.04654 0.27885 0.81047 0.0
C1268 C 0.06112 0.27155 0.81266 0.0
C1269 C 0.0628 0.26101 0.82526 0.0
C1270 C 0.05015 0.25802 0.83575 0.0
C1271 C 0.07461 0.27496 0.80177 0.0
C1272 C 0.08006 0.26264 0.79197 0.0
C1273 C 0.08157 0.29038 0.80051 0.0
C1274 C 0.07646 0.30377 0.81081 0.0
C1275 C 0.07684 0.3027 0.82757 0.0
C1276 C 0.07186 0.31531 0.8372 0.0
C1277 C 0.06659 0.32909 0.8302 0.0
C1278 C 0.06633 0.33032 0.81357 0.0
C1279 C 0.07128 0.31774 0.80388 0.0
H1280 H 0.06274 0.33884 0.83768 0.0
H1281 H 0.10814 0.21745 0.74137 0.0
H1282 H 0.54601 0.60758 0.47912 0.0
H1283 H 0.54207 0.62955 0.46112 0.0
H1284 H 0.49124 0.62483 0.4682 0.0
H1285 H 0.49503 0.60238 0.4857 0.0
H1286 H 0.49797 0.62967 0.43748 0.0
H1287 H 0.51368 0.65384 0.48771 0.0
H1288 H 0.53079 0.6585 0.51143 0.0
H1289 H 0.56976 0.67325 0.48131 0.0
H1290 H 0.55294 0.66847 0.45738 0.0
H1291 H 0.47631 0.70536 0.41113 0.0
H1292 H 0.48116 0.68215 0.4272 0.0
H1293 H 0.53138 0.68664 0.41665 0.0
H1294 H 0.52666 0.70997 0.40057 0.0
H1295 H 0.52556 0.68173 0.4485 0.0
H1296 H 0.50906 0.65829 0.3982 0.0
H1297 H 0.49142 0.65401 0.37482 0.0
H1298 H 0.45329 0.63828 0.40552 0.0
H1299 H 0.47064 0.64268 0.42912 0.0
C1300 C 0.53397 0.61105 0.47668 0.0
C1301 C 0.52083 0.60325 0.4839 0.0
C1302 C 0.53175 0.62373 0.46652 0.0
C1303 C 0.51638 0.62898 0.46351 0.0
C1304 C 0.50322 0.62102 0.47042 0.0
C1305 C 0.50542 0.60829 0.48054 0.0
C1306 C 0.51402 0.64288 0.45328 0.0
C1307 C 0.50386 0.6411 0.43999 0.0
C1308 C 0.52197 0.65771 0.45638 0.0
C1309 C 0.5321 0.66064 0.47075 0.0
C1310 C 0.52594 0.65796 0.48614 0.0
C1311 C 0.53558 0.66064 0.49962 0.0
C1312 C 0.55137 0.66613 0.49787 0.0
C1313 C 0.55754 0.66898 0.48264 0.0
C1314 C 0.54795 0.6663 0.46912 0.0
C1315 C 0.4884 0.70142 0.41219 0.0
C1316 C 0.5011 0.7095 0.40455 0.0
C1317 C 0.49113 0.68811 0.42133 0.0
C1318 C 0.5066 0.6826 0.42298 0.0
C1319 C 0.51934 0.6907 0.41549 0.0
C1320 C 0.51661 0.70399 0.40628 0.0
C1321 C 0.50949 0.66852 0.43275 0.0
C1322 C 0.51974 0.67027 0.44595 0.0
C1323 C 0.50155 0.65371 0.42963 0.0
C1324 C 0.49111 0.65096 0.41545 0.0
C1325 C 0.49687 0.65404 0.39998 0.0
C1326 C 0.48693 0.65157 0.38669 0.0
C1327 C 0.47123 0.64591 0.38869 0.0
C1328 C 0.46545 0.64268 0.40399 0.0
C1329 C 0.47534 0.64514 0.41733 0.0
H1330 H 0.46356 0.64401 0.37838 0.0
H1331 H 0.55881 0.6682 0.50833 0.0
H1332 H 0.86557 0.80529 0.73298 0.0
H1333 H 0.88741 0.80047 0.71439 0.0
H1334 H 0.88687 0.75133 0.72771 0.0
H1335 H 0.86476 0.75589 0.74599 0.0
H1336 H 0.91748 0.76539 0.72684 0.0
H1337 H 0.87056 0.76061 0.69357 0.0
H1338 H 0.84543 0.76962 0.68216 0.0
H1339 H 0.87028 0.81 0.66228 0.0
H1340 H 0.89554 0.80135 0.67378 0.0
H1341 H 0.96412 0.73327 0.66495 0.0
H1342 H 0.94241 0.73908 0.6833 0.0
H1343 H 0.94079 0.7865 0.66505 0.0
H1344 H 0.96229 0.78066 0.64638 0.0
H1345 H 0.91155 0.77424 0.66868 0.0
H1346 H 0.95843 0.77935 0.70099 0.0
H1347 H 0.98382 0.77117 0.71253 0.0
H1348 H 0.95971 0.73152 0.73454 0.0
H1349 H 0.93419 0.73932 0.72293 0.0
C1350 C 0.86996 0.79341 0.73184 0.0
C1351 C 0.86336 0.78097 0.74097 0.0
C1352 C 0.8825 0.79071 0.72127 0.0
C1353 C 0.88867 0.77553 0.71964 0.0
C1354 C 0.8823 0.76314 0.72886 0.0
C1355 C 0.8697 0.7658 0.73936 0.0
C1356 C 0.90171 0.77251 0.7082 0.0
C1357 C 0.91616 0.76714 0.7141 0.0
C1358 C 0.90007 0.77524 0.69166 0.0
C1359 C 0.88491 0.78042 0.68468 0.0
C1360 C 0.87064 0.77148 0.68688 0.0
C1361 C 0.85638 0.77651 0.68038 0.0
C1362 C 0.85625 0.7904 0.67154 0.0
C1363 C 0.8704 0.79926 0.66915 0.0
C1364 C 0.88469 0.79429 0.67565 0.0
C1365 C 0.95913 0.74493 0.6648 0.0
C1366 C 0.96497 0.75653 0.65425 0.0
C1367 C 0.94676 0.74826 0.67536 0.0
C1368 C 0.94015 0.76331 0.67572 0.0
C1369 C 0.94575 0.77482 0.665 0.0
C1370 C 0.95806 0.77147 0.65435 0.0
C1371 C 0.92736 0.76701 0.68728 0.0
C1372 C 0.91295 0.77252 0.68142 0.0
C1373 C 0.9291 0.76455 0.70389 0.0
C1374 C 0.94441 0.75985 0.71096 0.0
C1375 C 0.95856 0.76881 0.70819 0.0
C1376 C 0.97297 0.76426 0.71476 0.0
C1377 C 0.97338 0.75082 0.72424 0.0
C1378 C 0.95937 0.74192 0.72718 0.0
C1379 C 0.94493 0.74641 0.72062 0.0
H1380 H 0.98455 0.74734 0.72934 0.0
H1381 H 0.8452 0.79427 0.66651 0.0
H1382 H 0.0276 0.88418 0.4844 0.0
H1383 H 0.02518 0.8602 0.50036 0.0
H1384 H 0.0253 0.88895 0.54359 0.0
H1385 H 0.02799 0.91293 0.52769 0.0
H1386 H 0.04375 0.86476 0.54718 0.0
H1387 H 0.9906 0.87138 0.52785 0.0
H1388 H 0.96982 0.87489 0.50749 0.0
H1389 H 0.98116 0.83046 0.48517 0.0
H1390 H 0.00216 0.82679 0.50528 0.0
H1391 H 0.01208 0.80737 0.60071 0.0
H1392 H 0.0161 0.83049 0.58382 0.0
H1393 H 0.02051 0.79978 0.54237 0.0
H1394 H 0.01646 0.77655 0.55917 0.0
H1395 H 0.00033 0.82432 0.53737 0.0
H1396 H 0.05304 0.81759 0.55782 0.0
H1397 H 0.07328 0.81432 0.57877 0.0
H1398 H 0.06197 0.85938 0.59973 0.0
H1399 H 0.0415 0.86282 0.57903 0.0
C1400 C 0.02701 0.88536 0.49731 0.0
C1401 C 0.02794 0.9004 0.50482 0.0
C1402 C 0.02562 0.87167 0.50641 0.0
C1403 C 0.02485 0.87279 0.52317 0.0
C1404 C 0.02589 0.8878 0.53068 0.0
C1405 C 0.02744 0.90148 0.5216 0.0
C1406 C 0.02305 0.85832 0.53291 0.0
C1407 C 0.03414 0.85602 0.54515 0.0
C1408 C 0.01072 0.84673 0.53005 0.0
C1409 C 0.99806 0.84889 0.51797 0.0
C1410 C 0.98874 0.86242 0.51853 0.0
C1411 C 0.97691 0.86442 0.50705 0.0
C1412 C 0.9742 0.85293 0.49502 0.0
C1413 C 0.98329 0.83937 0.49448 0.0
C1414 C 0.99515 0.83731 0.50592 0.0
C1415 C 0.01395 0.80552 0.58801 0.0
C1416 C 0.01397 0.79012 0.58128 0.0
C1417 C 0.0163 0.81874 0.57839 0.0
C1418 C 0.01872 0.81682 0.56188 0.0
C1419 C 0.01869 0.80149 0.5551 0.0
C1420 C 0.01642 0.78824 0.56473 0.0
C1421 C 0.02096 0.83085 0.55165 0.0
C1422 C 0.00996 0.83305 0.53933 0.0
C1423 C 0.03329 0.8424 0.55452 0.0
C1424 C 0.04564 0.84039 0.56695 0.0
C1425 C 0.05478 0.82674 0.56697 0.0
C1426 C 0.06631 0.82487 0.57879 0.0
C1427 C 0.06888 0.83662 0.5906 0.0
C1428 C 0.05995 0.85028 0.59059 0.0
C1429 C 0.0484 0.85221 0.57881 0.0
H1430 H 0.07781 0.83515 0.59974 0.0
H1431 H 0.96504 0.8545 0.48614 0.0
H1432 H 0.13984 0.71508 0.73053 0.0
H1433 H 0.11944 0.72175 0.71125 0.0
H1434 H 0.09422 0.74679 0.74827 0.0
H1435 H 0.11407 0.73938 0.76784 0.0
H1436 H 0.0738 0.73064 0.73014 0.0
H1437 H 0.11817 0.76646 0.72054 0.0
H1438 H 0.14618 0.7742 0.71496 0.0
H1439 H 0.14389 0.74796 0.67049 0.0
H1440 H 0.11591 0.73988 0.6759 0.0
H1441 H 0.02577 0.77498 0.67869 0.0
H1442 H 0.04613 0.76818 0.69806 0.0
H1443 H 0.068 0.73819 0.66265 0.0
H1444 H 0.04771 0.74494 0.64316 0.0
H1445 H 0.08996 0.75717 0.67992 0.0
H1446 H 0.04514 0.7215 0.69016 0.0
H1447 H 0.01686 0.71497 0.69579 0.0
H1448 H 0.01988 0.74254 0.73942 0.0
H1449 H 0.04815 0.7494 0.73395 0.0
C1450 C 0.12983 0.72178 0.73466 0.0
C1451 C 0.12867 0.72677 0.75075 0.0
C1452 C 0.11827 0.72577 0.72356 0.0
C1453 C 0.10546 0.73504 0.72824 0.0
C1454 C 0.10406 0.73972 0.74435 0.0
C1455 C 0.11552 0.73561 0.7555 0.0
C1456 C 0.09357 0.73996 0.71634 0.0
C1457 C 0.07734 0.73662 0.71927 0.0
C1458 C 0.09818 0.74756 0.70201 0.0
C1459 C 0.11499 0.75244 0.6987 0.0
C1460 C 0.12367 0.76224 0.70962 0.0
C1461 C 0.13954 0.7667 0.70648 0.0
C1462 C 0.14682 0.76154 0.6924 0.0
C1463 C 0.13824 0.75193 0.6814 0.0
C1464 C 0.12237 0.74742 0.68449 0.0
C1465 C 0.03497 0.76702 0.67498 0.0
C1466 C 0.0351 0.76045 0.65941 0.0
C1467 C 0.04654 0.7631 0.68608 0.0
C1468 C 0.05845 0.75257 0.68181 0.0
C1469 C 0.05888 0.74633 0.66616 0.0
C1470 C 0.04726 0.75016 0.65507 0.0
C1471 C 0.07029 0.74781 0.69375 0.0
C1472 C 0.08648 0.75119 0.69082 0.0
C1473 C 0.06564 0.7404 0.70812 0.0
C1474 C 0.04872 0.73607 0.71158 0.0
C1475 C 0.03975 0.72624 0.70091 0.0
C1476 C 0.02372 0.72247 0.70407 0.0
C1477 C 0.01657 0.72836 0.71793 0.0
C1478 C 0.02544 0.738 0.72868 0.0
C1479 C 0.04147 0.74181 0.72557 0.0
H1480 H 0.00416 0.72542 0.72036 0.0
H1481 H 0.15911 0.76501 0.68999 0.0
H1482 H 0.98298 0.58968 0.53993 0.0
H1483 H 0.98739 0.61284 0.5576 0.0
H1484 H 0.98344 0.64364 0.51726 0.0
H1485 H 0.97926 0.62048 0.49952 0.0
H1486 H 0.00734 0.65354 0.53563 0.0
H1487 H 0.95266 0.63815 0.54419 0.0
H1488 H 0.92999 0.61995 0.55048 0.0
H1489 H 0.94966 0.61235 0.597 0.0
H1490 H 0.97257 0.63035 0.59091 0.0
H1491 H 0.99441 0.72497 0.57957 0.0
H1492 H 0.99044 0.70153 0.56218 0.0
H1493 H 0.00129 0.67139 0.60152 0.0
H1494 H 0.00537 0.69477 0.61901 0.0
H1495 H 0.97397 0.66126 0.58391 0.0
H1496 H 0.02871 0.67743 0.57469 0.0
H1497 H 0.05061 0.69638 0.56797 0.0
H1498 H 0.02959 0.70342 0.52194 0.0
H1499 H 0.00743 0.68467 0.52849 0.0
C1500 C 0.98299 0.6014 0.53486 0.0
C1501 C 0.98072 0.6033 0.51837 0.0
C1502 C 0.98549 0.61462 0.54496 0.0
C1503 C 0.98551 0.62999 0.53879 0.0
C1504 C 0.98347 0.63189 0.52228 0.0
C1505 C 0.98111 0.61867 0.51216 0.0
C1506 C 0.98772 0.64408 0.54953 0.0
C1507 C -0.0001 0.65532 0.54606 0.0
C1508 C 0.97819 0.64628 0.56331 0.0
C1509 C 0.96441 0.63547 0.56703 0.0
C1510 C 0.95221 0.6325 0.55572 0.0
C1511 C 0.93931 0.62224 0.55925 0.0
C1512 C 0.93841 0.61497 0.57412 0.0
C1513 C 0.95039 0.61798 0.58549 0.0
C1514 C 0.96333 0.62822 0.582 0.0
C1515 C 0.99592 0.71336 0.58454 0.0
C1516 C 0.00024 0.71171 0.60065 0.0
C1517 C 0.9937 0.7 0.57458 0.0
C1518 C 0.99568 0.68478 0.58057 0.0
C1519 C -0.00027 0.68306 0.5967 0.0
C1520 C 0.00211 0.69642 0.60664 0.0
C1521 C 0.99355 0.67064 0.56997 0.0
C1522 C 0.98139 0.65943 0.57347 0.0
C1523 C 0.00297 0.66855 0.55614 0.0
C1524 C 0.01633 0.67976 0.55214 0.0
C1525 C 0.02869 0.68312 0.56319 0.0
C1526 C 0.04116 0.6938 0.5594 0.0
C1527 C 0.04147 0.70113 0.54455 0.0
C1528 C 0.02933 0.69775 0.53344 0.0
C1529 C 0.01681 0.68708 0.53718 0.0
H1530 H 0.05114 0.7094 0.54164 0.0
H1531 H 0.92841 0.60703 0.57683 0.0
H1532 H 0.7813 0.85716 0.20513 0.0
H1533 H 0.80083 0.87876 0.21042 0.0
H1534 H 0.76385 0.90732 0.23033 0.0
H1535 H 0.74412 0.88602 0.22447 0.0
H1536 H 0.78246 0.92424 0.21076 0.0
H1537 H 0.79065 0.88895 0.25431 0.0
H1538 H 0.79599 0.86333 0.2666 0.0
H1539 H 0.84104 0.86209 0.24242 0.0
H1540 H 0.83587 0.88761 0.22981 0.0
H1541 H 0.8296 0.98365 0.25005 0.0
H1542 H 0.81129 0.96118 0.24432 0.0
H1543 H 0.84985 0.93501 0.22405 0.0
H1544 H 0.8684 0.95741 0.22999 0.0
H1545 H 0.83115 0.91658 0.24296 0.0
H1546 H 0.82324 0.95215 0.1999 0.0
H1547 H 0.81796 0.97781 0.18766 0.0
H1548 H 0.77239 0.97851 0.21089 0.0
H1549 H 0.77749 0.95295 0.22344 0.0
C1550 C 0.77729 0.86808 0.21051 0.0
C1551 C 0.76114 0.86986 0.21439 0.0
C1552 C 0.7885 0.88036 0.21368 0.0
C1553 C 0.78383 0.89458 0.22095 0.0
C1554 C 0.76772 0.89642 0.22477 0.0
C1555 C 0.75649 0.88418 0.22155 0.0
C1556 C 0.79566 0.90767 0.22433 0.0
C1557 C 0.793 0.92262 0.21797 0.0
C1558 C 0.80964 0.90542 0.23336 0.0
C1559 C 0.8128 0.89011 0.24099 0.0
C1560 C 0.80164 0.88315 0.25152 0.0
C1561 C 0.80465 0.86866 0.25856 0.0
C1562 C 0.81883 0.86107 0.25526 0.0
C1563 C 0.83005 0.86797 0.24495 0.0
C1564 C 0.8271 0.88246 0.23786 0.0
C1565 C 0.83423 0.97312 0.24439 0.0
C1566 C 0.85045 0.97235 0.24038 0.0
C1567 C 0.82372 0.96031 0.24107 0.0
C1568 C 0.82917 0.94653 0.23354 0.0
C1569 C 0.84541 0.94557 0.22982 0.0
C1570 C 0.85597 0.95838 0.23319 0.0
C1571 C 0.81785 0.93317 0.22953 0.0
C1572 C 0.82062 0.91818 0.23572 0.0
C1573 C 0.80396 0.93537 0.22034 0.0
C1574 C 0.80081 0.9507 0.21272 0.0
C1575 C 0.81214 0.95783 0.20249 0.0
C1576 C 0.80917 0.97235 0.19548 0.0
C1577 C 0.79486 0.9798 0.19853 0.0
C1578 C 0.78348 0.97273 0.20855 0.0
C1579 C 0.78639 0.95822 0.2156 0.0
H1580 H 0.79259 0.99104 0.1931 0.0
H1581 H 0.82113 0.84985 0.26072 0.0
H1582 H 0.7704 0.16543 0.29109 0.0
H1583 H 0.78817 0.14351 0.28618 0.0
H1584 H 0.74773 0.11051 0.28502 0.0
H1585 H 0.72988 0.13237 0.29018 0.0
H1586 H 0.7729 0.0999 0.30287 0.0
H1587 H 0.76427 0.12162 0.25089 0.0
H1588 H 0.76376 0.1429 0.2311 0.0
H1589 H 0.81398 0.15216 0.23765 0.0
H1590 H 0.81475 0.13108 0.25767 0.0
H1591 H 0.80922 0.03357 0.26771 0.0
H1592 H 0.7921 0.05571 0.27356 0.0
H1593 H 0.83255 0.08844 0.26987 0.0
H1594 H 0.84971 0.06635 0.2636 0.0
H1595 H 0.80771 0.09956 0.25493 0.0
H1596 H 0.81681 0.0779 0.30649 0.0
H1597 H 0.81767 0.05697 0.32664 0.0
H1598 H 0.76725 0.04802 0.32152 0.0
H1599 H 0.76612 0.06875 0.30117 0.0
C1600 C 0.76531 0.15349 0.28994 0.0
C1601 C 0.74875 0.15061 0.29098 0.0
C1602 C 0.77546 0.141 0.28702 0.0
C1603 C 0.76923 0.12543 0.2851 0.0
C1604 C 0.75274 0.12247 0.28643 0.0
C1605 C 0.74257 0.13496 0.28926 0.0
C1606 C 0.77992 0.11224 0.28156 0.0
C1607 C 0.78038 0.0997 0.2923 0.0
C1608 C 0.78996 0.11225 0.26798 0.0
C1609 C 0.78953 0.12488 0.2559 0.0
C1610 C 0.77518 0.12828 0.24821 0.0
C1611 C 0.77485 0.14029 0.23693 0.0
C1612 C 0.78882 0.1489 0.23315 0.0
C1613 C 0.80316 0.14549 0.24061 0.0
C1614 C 0.80355 0.13351 0.25191 0.0
C1615 C 0.8145 0.04547 0.26816 0.0
C1616 C 0.83084 0.0482 0.26525 0.0
C1617 C 0.8047 0.05812 0.27159 0.0
C1618 C 0.81109 0.07371 0.27241 0.0
C1619 C 0.82737 0.0765 0.26934 0.0
C1620 C 0.83717 0.06386 0.26579 0.0
C1621 C 0.80071 0.08713 0.27623 0.0
C1622 C 0.80029 0.09974 0.26555 0.0
C1623 C 0.79078 0.08722 0.28992 0.0
C1624 C 0.79141 0.07478 0.3022 0.0
C1625 C 0.80592 0.07139 0.30957 0.0
C1626 C 0.80646 0.05957 0.32104 0.0
C1627 C 0.79253 0.05114 0.32533 0.0
C1628 C 0.77803 0.05454 0.31818 0.0
C1629 C 0.77743 0.06634 0.30669 0.0
H1630 H 0.79297 0.042 0.33421 0.0
H1631 H 0.78854 0.15819 0.22442 0.0
H1632 H 0.39423 0.98275 0.95829 0.0
H1633 H 0.37093 0.96582 0.96457 0.0
H1634 H 0.37945 0.97402 0.01498 0.0
H1635 H 0.40309 0.99052 0.0088 0.0
H1636 H 0.37143 0.94339 0.00878 0.0
H1637 H 0.35114 0.99401 0.99555 0.0
H1638 H 0.34762 0.01741 0.97885 0.0
H1639 H 0.32727 0.98762 0.94141 0.0
H1640 H 0.33087 0.964 0.95781 0.0
H1641 H 0.29473 0.91969 0.03763 0.0
H1642 H 0.31907 0.93492 0.03097 0.0
H1643 H 0.31057 0.92529 0.98079 0.0
H1644 H 0.28616 0.91016 0.98731 0.0
H1645 H 0.31869 0.95628 0.98663 0.0
H1646 H 0.33851 0.90563 0.00039 0.0
H1647 H 0.34175 0.88244 0.01745 0.0
H1648 H 0.36274 0.91252 0.05432 0.0
H1649 H 0.35942 0.93594 0.03755 0.0
C1650 C 0.39127 0.98078 0.97071 0.0
C1651 C 0.40046 0.98806 0.98305 0.0
C1652 C 0.37787 0.97123 0.97428 0.0
C1653 C 0.37333 0.96885 0.99024 0.0
C1654 C 0.3827 0.97576 0.00258 0.0
C1655 C 0.39612 0.9853 -0.00098 0.0
C1656 C 0.35867 0.95939 0.99408 0.0
C1657 C 0.35986 0.94631 0.00409 0.0
C1658 C 0.34364 0.96303 0.98771 0.0
C1659 C 0.34143 0.97722 0.97784 0.0
C1660 C 0.34603 0.99243 0.9837 0.0
C1661 C 0.344 0.00574 0.9743 0.0
C1662 C 0.33727 0.004 0.95906 0.0
C1663 C 0.33251 0.98895 0.9532 0.0
C1664 C 0.33453 0.9756 0.96255 0.0
C1665 C 0.29804 0.9208 0.02518 0.0
C1666 C 0.28852 0.9137 0.013 0.0
C1667 C 0.31199 0.92945 0.0214 0.0
C1668 C 0.31669 0.9311 0.00539 0.0
C1669 C 0.30715 0.92413 0.99322 0.0
C1670 C 0.29323 0.91547 0.99698 0.0
C1671 C 0.33145 0.94029 0.00132 0.0
C1672 C 0.33026 0.95333 0.99128 0.0
C1673 C 0.34646 0.93664 0.00771 0.0
C1674 C 0.34857 0.92256 0.01777 0.0
C1675 C 0.3437 0.90732 0.01218 0.0
C1676 C 0.34557 0.89413 0.02179 0.0
C1677 C 0.3524 0.89601 0.03698 0.0
C1678 C 0.35743 0.91109 0.04256 0.0
C1679 C 0.35557 0.92432 0.033 0.0
H1680 H 0.35384 0.88579 0.0444 0.0
H1681 H 0.3357 0.01432 0.9518 0.0
H1682 H 0.21888 0.3423 0.29207 0.0
H1683 H 0.19958 0.36297 0.2888 0.0
H1684 H 0.23574 0.39295 0.26687 0.0
H1685 H 0.2553 0.37259 0.27071 0.0
H1686 H 0.2189 0.40941 0.28801 0.0
H1687 H 0.20693 0.37301 0.24443 0.0
H1688 H 0.20028 0.34692 0.2319 0.0
H1689 H 0.15703 0.34356 0.25919 0.0
H1690 H 0.16353 0.36955 0.27205 0.0
H1691 H 0.1692 0.46554 0.25387 0.0
H1692 H 0.18787 0.44444 0.25777 0.0
H1693 H 0.15088 0.41599 0.28032 0.0
H1694 H 0.13199 0.43698 0.27623 0.0
H1695 H 0.16776 0.39858 0.25942 0.0
H1696 H 0.17962 0.43527 0.30267 0.0
H1697 H 0.18629 0.46142 0.31504 0.0
H1698 H 0.22985 0.46429 0.28821 0.0
H1699 H 0.22333 0.43824 0.27551 0.0
C1700 C 0.22278 0.35335 0.28669 0.0
C1701 C 0.23864 0.35578 0.28163 0.0
C1702 C 0.21168 0.36509 0.28467 0.0
C1703 C 0.21617 0.37943 0.2774 0.0
C1704 C 0.23201 0.38195 0.27245 0.0
C1705 C 0.24313 0.37024 0.27452 0.0
C1706 C 0.20441 0.39189 0.27512 0.0
C1707 C 0.20781 0.4071 0.28157 0.0
C1708 C 0.18976 0.38875 0.26708 0.0
C1709 C 0.18579 0.37315 0.25931 0.0
C1710 C 0.19606 0.36665 0.24785 0.0
C1711 C 0.19231 0.35189 0.24067 0.0
C1712 C 0.17827 0.34357 0.24478 0.0
C1713 C 0.16792 0.35001 0.25604 0.0
C1714 C 0.17162 0.36476 0.26326 0.0
C1715 C 0.16501 0.4548 0.25966 0.0
C1716 C 0.14912 0.45296 0.2648 0.0
C1717 C 0.17573 0.44278 0.26194 0.0
C1718 C 0.17082 0.42874 0.26953 0.0
C1719 C 0.15491 0.42676 0.27447 0.0
C1720 C 0.14415 0.43878 0.27216 0.0
C1721 C 0.1823 0.41612 0.27223 0.0
C1722 C 0.17884 0.40088 0.26587 0.0
C1723 C 0.19691 0.41923 0.28034 0.0
C1724 C 0.20091 0.43486 0.28803 0.0
C1725 C 0.19056 0.44153 0.29932 0.0
C1726 C 0.19433 0.45633 0.30641 0.0
C1727 C 0.20847 0.46453 0.30239 0.0
C1728 C 0.21889 0.45793 0.2913 0.0
C1729 C 0.21517 0.44314 0.28417 0.0
H1730 H 0.21136 0.47599 0.30789 0.0
H1731 H 0.17538 0.33214 0.23921 0.0
H1732 H 0.11895 0.0072 0.46822 0.0
H1733 H 0.14195 0.02515 0.47329 0.0
H1734 H 0.1105 0.06363 0.48252 0.0
H1735 H 0.08742 0.04572 0.47724 0.0
H1736 H 0.13501 0.07341 0.46483 0.0
H1737 H 0.1286 0.0446 0.51323 0.0
H1738 H 0.12547 0.02087 0.52985 0.0
H1739 H 0.17099 0.00511 0.51401 0.0
H1740 H 0.1743 0.02865 0.4971 0.0
H1741 H 0.19409 0.12424 0.50262 0.0
H1742 H 0.17035 0.10721 0.49765 0.0
H1743 H 0.20006 0.06868 0.48365 0.0
H1744 H 0.22387 0.08559 0.4886 0.0
H1745 H 0.176 0.05954 0.50447 0.0
H1746 H 0.18183 0.08866 0.45568 0.0
H1747 H 0.1847 0.11279 0.43961 0.0
H1748 H 0.13979 0.12853 0.45718 0.0
H1749 H 0.13675 0.10458 0.47355 0.0
C1750 C 0.11695 0.01947 0.4714 0.0
C1751 C 0.10141 0.02504 0.47245 0.0
C1752 C 0.13009 0.02971 0.47431 0.0
C1753 C 0.12793 0.04567 0.47855 0.0
C1754 C 0.11243 0.05135 0.4793 0.0
C1755 C 0.09927 0.04113 0.47626 0.0
C1756 C 0.14188 0.0564 0.48221 0.0
C1757 C 0.14385 0.07049 0.47367 0.0
C1758 C 0.15355 0.05246 0.49357 0.0
C1759 C 0.15163 0.03832 0.50379 0.0
C1760 C 0.13789 0.03602 0.5132 0.0
C1761 C 0.13609 0.02261 0.52268 0.0
C1762 C 0.148 0.01147 0.52296 0.0
C1763 C 0.16176 0.01374 0.51377 0.0
C1764 C 0.16362 0.02712 0.50425 0.0
C1765 C 0.19558 0.11214 0.49849 0.0
C1766 C 0.21086 0.10627 0.49597 0.0
C1767 C 0.18201 0.10246 0.49561 0.0
C1768 C 0.18348 0.08674 0.49018 0.0
C1769 C 0.1987 0.08079 0.48783 0.0
C1770 C 0.21228 0.09049 0.49061 0.0
C1771 C 0.16915 0.07645 0.48701 0.0
C1772 C 0.16712 0.06246 0.49567 0.0
C1773 C 0.15738 0.08054 0.47586 0.0
C1774 C 0.15915 0.09491 0.46597 0.0
C1775 C 0.17263 0.09733 0.45622 0.0
C1776 C 0.17428 0.11096 0.44704 0.0
C1777 C 0.16246 0.12221 0.4474 0.0
C1778 C 0.14894 0.11982 0.45692 0.0
C1779 C 0.14725 0.10621 0.46615 0.0
H1780 H 0.16375 0.13276 0.44028 0.0
H1781 H 0.14659 0.00109 0.53031 0.0
H1782 H 0.71683 0.15373 0.72159 0.0
H1783 H 0.69786 0.13165 0.72632 0.0
H1784 H 0.73675 0.09993 0.73055 0.0
H1785 H 0.7558 0.12193 0.72552 0.0
H1786 H 0.71214 0.0873 0.71191 0.0
H1787 H 0.71875 0.11292 0.76346 0.0
H1788 H 0.71914 0.13557 0.78253 0.0
H1789 H 0.66977 0.14299 0.77277 0.0
H1790 H 0.66915 0.12051 0.75346 0.0
H1791 H 0.66942 0.02264 0.74613 0.0
H1792 H 0.68842 0.0446 0.74127 0.0
H1793 H 0.64994 0.07715 0.74093 0.0
H1794 H 0.63088 0.05529 0.74617 0.0
H1795 H 0.67441 0.08947 0.75749 0.0
H1796 H 0.66742 0.06433 0.70601 0.0
H1797 H 0.66665 0.04205 0.68649 0.0
H1798 H 0.71608 0.03415 0.69539 0.0
H1799 H 0.71709 0.05626 0.71514 0.0
C1800 C 0.72133 0.14203 0.72337 0.0
C1801 C 0.7378 0.13956 0.72321 0.0
C1802 C 0.71049 0.12946 0.7262 0.0
C1803 C 0.71592 0.11421 0.72894 0.0
C1804 C 0.73233 0.11164 0.72851 0.0
C1805 C 0.74319 0.12422 0.72575 0.0
C1806 C 0.70446 0.10095 0.73231 0.0
C1807 C 0.70402 0.08765 0.72199 0.0
C1808 C 0.69363 0.10165 0.74523 0.0
C1809 C 0.69395 0.11512 0.7569 0.0
C1810 C 0.70801 0.11946 0.76528 0.0
C1811 C 0.70827 0.13225 0.77616 0.0
C1812 C 0.6945 0.14074 0.77883 0.0
C1813 C 0.68043 0.13642 0.77067 0.0
C1814 C 0.68012 0.12364 0.75977 0.0
C1815 C 0.66499 0.03447 0.74503 0.0
C1816 C 0.64863 0.03722 0.74647 0.0
C1817 C 0.67586 0.047 0.74218 0.0
C1818 C 0.67057 0.06248 0.74049 0.0
C1819 C 0.65428 0.0653 0.74216 0.0
C1820 C 0.6434 0.05278 0.74512 0.0
C1821 C 0.68205 0.07576 0.73708 0.0
C1822 C 0.68251 0.08908 0.74739 0.0
C1823 C 0.69283 0.07512 0.72408 0.0
C1824 C 0.69228 0.06186 0.71217 0.0
C1825 C 0.67809 0.05777 0.70389 0.0
C1826 C 0.67762 0.04518 0.69277 0.0
C1827 C 0.69129 0.03666 0.68973 0.0
C1828 C 0.70549 0.04074 0.69778 0.0
C1829 C 0.70602 0.05331 0.70892 0.0
H1830 H 0.6909 0.02692 0.68112 0.0
H1831 H 0.69472 0.15064 0.78725 0.0
H1832 H 0.42276 0.04392 0.51737 0.0
H1833 H 0.40106 0.06221 0.51436 0.0
H1834 H 0.36694 0.02273 0.51416 0.0
H1835 H 0.38864 0.00437 0.51694 0.0
H1836 H 0.35976 0.04301 0.49178 0.0
H1837 H 0.37315 0.04693 0.54761 0.0
H1838 H 0.39098 0.05122 0.57084 0.0
H1839 H 0.40261 0.09852 0.55552 0.0
H1840 H 0.385 0.09444 0.53206 0.0
H1841 H 0.28998 0.08531 0.50666 0.0
H1842 H 0.31232 0.06782 0.50937 0.0
H1843 H 0.3453 0.10806 0.5066 0.0
H1844 H 0.32298 0.12572 0.50406 0.0
H1845 H 0.35336 0.08791 0.53015 0.0
H1846 H 0.33937 0.08391 0.4745 0.0
H1847 H 0.32123 0.07946 0.45153 0.0
H1848 H 0.31038 0.03202 0.46692 0.0
H1849 H 0.3283 0.03627 0.49011 0.0
C1850 C 0.41062 0.03916 0.51675 0.0
C1851 C 0.40737 0.02274 0.51746 0.0
C1852 C 0.39824 0.04962 0.51505 0.0
C1853 C 0.38235 0.04386 0.51428 0.0
C1854 C 0.3791 0.02743 0.51473 0.0
C1855 C 0.3915 0.01696 0.51629 0.0
C1856 C 0.36911 0.05493 0.51296 0.0
C1857 C 0.35825 0.0527 0.50029 0.0
C1858 C 0.36735 0.06781 0.52386 0.0
C1859 C 0.37788 0.07032 0.538 0.0
C1860 C 0.3796 0.0582 0.54913 0.0
C1861 C 0.38965 0.06061 0.56235 0.0
C1862 C 0.39795 0.07512 0.56463 0.0
C1863 C 0.39618 0.08728 0.55372 0.0
C1864 C 0.38616 0.08493 0.54047 0.0
C1865 C 0.30197 0.09047 0.50667 0.0
C1866 C 0.3047 0.1069 0.50507 0.0
C1867 C 0.31473 0.08044 0.50815 0.0
C1868 C 0.33046 0.08662 0.50797 0.0
C1869 C 0.33324 0.10305 0.50672 0.0
C1870 C 0.32047 0.11311 0.50523 0.0
C1871 C 0.344 0.07591 0.50903 0.0
C1872 C 0.35491 0.07822 0.52164 0.0
C1873 C 0.34578 0.06307 0.49812 0.0
C1874 C 0.33507 0.06046 0.48412 0.0
C1875 C 0.33303 0.07257 0.47305 0.0
C1876 C 0.3228 0.07008 0.45998 0.0
C1877 C 0.31463 0.05548 0.45778 0.0
C1878 C 0.31671 0.04333 0.46864 0.0
C1879 C 0.32691 0.04577 0.48174 0.0
H1880 H 0.30672 0.05357 0.44766 0.0
H1881 H 0.40573 0.07696 0.57488 0.0
H1882 H 0.5922 0.47317 0.53992 0.0
H1883 H 0.61595 0.45738 0.53737 0.0
H1884 H 0.64205 0.49767 0.5182 0.0
H1885 H 0.6184 0.5136 0.52087 0.0
H1886 H 0.64712 0.4706 0.50106 0.0
H1887 H 0.64785 0.48717 0.55633 0.0
H1888 H 0.63671 0.49053 0.5834 0.0
H1889 H 0.63046 0.44002 0.58727 0.0
H1890 H 0.64136 0.43636 0.56011 0.0
H1891 H 0.72436 0.44028 0.50713 0.0
H1892 H 0.70116 0.45668 0.51053 0.0
H1893 H 0.67509 0.41735 0.53159 0.0
H1894 H 0.69833 0.40094 0.52853 0.0
H1895 H 0.67012 0.44421 0.54786 0.0
H1896 H 0.66884 0.42745 0.49271 0.0
H1897 H 0.6796 0.42376 0.46552 0.0
H1898 H 0.68643 0.47419 0.46126 0.0
H1899 H 0.67592 0.47816 0.48853 0.0
C1900 C 0.60303 0.47871 0.5353 0.0
C1901 C 0.60343 0.49466 0.53066 0.0
C1902 C 0.61658 0.46967 0.53382 0.0
C1903 C 0.6308 0.47641 0.52775 0.0
C1904 C 0.63118 0.49225 0.5229 0.0
C1905 C 0.61764 0.50131 0.52438 0.0
C1906 C 0.64526 0.46693 0.52641 0.0
C1907 C 0.65229 0.46501 0.51133 0.0
C1908 C 0.65175 0.45933 0.53975 0.0
C1909 C 0.64528 0.4615 0.55613 0.0
C1910 C 0.64398 0.47678 0.5629 0.0
C1911 C 0.63774 0.47874 0.57827 0.0
C1912 C 0.63285 0.4655 0.58704 0.0
C1913 C 0.63424 0.45027 0.58046 0.0
C1914 C 0.64046 0.44824 0.56509 0.0
C1915 C 0.71371 0.43512 0.51253 0.0
C1916 C 0.71316 0.41928 0.51748 0.0
C1917 C 0.70044 0.4445 0.5144 0.0
C1918 C 0.68632 0.43816 0.52109 0.0
C1919 C 0.68585 0.42246 0.52636 0.0
C1920 C 0.69914 0.4131 0.52457 0.0
C1921 C 0.67199 0.44786 0.5225 0.0
C1922 C 0.66497 0.44982 0.53759 0.0
C1923 C 0.66547 0.45544 0.50915 0.0
C1924 C 0.67174 0.45309 0.49272 0.0
C1925 C 0.67275 0.43774 0.48602 0.0
C1926 C 0.67879 0.4356 0.47059 0.0
C1927 C 0.68374 0.44873 0.46168 0.0
C1928 C 0.68262 0.46403 0.46818 0.0
C1929 C 0.67661 0.46623 0.48362 0.0
H1930 H 0.6884 0.44705 0.44973 0.0
H1931 H 0.62801 0.46704 0.59894 0.0
H1932 H 0.71511 0.29379 0.34934 0.0
H1933 H 0.71937 0.31319 0.3712 0.0
H1934 H 0.71652 0.27553 0.40538 0.0
H1935 H 0.71201 0.25609 0.3836 0.0
H1936 H 0.69864 0.30112 0.41417 0.0
H1937 H 0.75187 0.2915 0.39603 0.0
H1938 H 0.77338 0.28969 0.3761 0.0
H1939 H 0.76915 0.33896 0.36551 0.0
H1940 H 0.74744 0.34102 0.38523 0.0
H1941 H 0.73118 0.34021 0.48272 0.0
H1942 H 0.72567 0.32241 0.45992 0.0
H1943 H 0.73171 0.36162 0.42785 0.0
H1944 H 0.73747 0.37955 0.45063 0.0
H1945 H 0.7473 0.33619 0.41723 0.0
H1946 H 0.69481 0.34629 0.43586 0.0
H1947 H 0.67316 0.34832 0.45561 0.0
H1948 H 0.6756 0.2986 0.46498 0.0
H1949 H 0.69743 0.29631 0.44543 0.0
C1950 C 0.71532 0.28967 0.36153 0.0
C1951 C 0.71326 0.27344 0.36478 0.0
C1952 C 0.71786 0.30074 0.37397 0.0
C1953 C 0.71836 0.29576 0.38987 0.0
C1954 C 0.71619 0.27959 0.39317 0.0
C1955 C 0.71375 0.2685 0.38073 0.0
C1956 C 0.72106 0.30743 0.4031 0.0
C1957 C 0.70935 0.30867 0.41496 0.0
C1958 C 0.73484 0.31757 0.40382 0.0
C1959 C 0.74791 0.31637 0.39198 0.0
C1960 C 0.75543 0.30192 0.38935 0.0
C1961 C 0.76768 0.30085 0.37811 0.0
C1962 C 0.7726 0.31419 0.36951 0.0
C1963 C 0.7653 0.32863 0.37216 0.0
C1964 C 0.75304 0.32976 0.38338 0.0
C1965 C 0.73127 0.34509 0.47083 0.0
C1966 C 0.73473 0.36131 0.46849 0.0
C1967 C 0.72806 0.3349 0.45781 0.0
C1968 C 0.72811 0.34073 0.44221 0.0
C1969 C 0.73158 0.3569 0.43981 0.0
C1970 C 0.73483 0.36712 0.45284 0.0
C1971 C 0.72492 0.32981 0.42841 0.0
C1972 C 0.73654 0.32871 0.41642 0.0
C1973 C 0.71102 0.31984 0.42753 0.0
C1974 C 0.69786 0.32116 0.43928 0.0
C1975 C 0.69082 0.33581 0.44222 0.0
C1976 C 0.6785 0.337 0.45337 0.0
C1977 C 0.67303 0.32361 0.46157 0.0
C1978 C 0.67986 0.30897 0.45862 0.0
C1979 C 0.6922 0.30771 0.4475 0.0
H1980 H 0.66349 0.32455 0.47019 0.0
H1981 H 0.78209 0.31334 0.36081 0.0
H1982 H 0.54107 0.03049 0.91332 0.0
H1983 H 0.55908 0.02589 0.89091 0.0
H1984 H 0.5192 0.01009 0.86147 0.0
H1985 H 0.50105 0.01479 0.88381 0.0
H1986 H 0.54451 0.99089 0.85799 0.0
H1987 H 0.5354 0.04673 0.85714 0.0
H1988 H 0.5343 0.07383 0.86856 0.0
H1989 H 0.58437 0.07377 0.87902 0.0
H1990 H 0.58572 0.04657 0.86787 0.0
H1991 H 0.5845 0.99464 0.78334 0.0
H1992 H 0.56603 -0.00149 0.80551 0.0
H1993 H 0.60479 0.01704 0.83504 0.0
H1994 H 0.62328 0.01354 0.81281 0.0
H1995 H 0.57964 0.03484 0.8383 0.0
H1996 H 0.58889 0.97905 0.83951 0.0
H1997 H 0.59014 0.95184 0.82841 0.0
H1998 H 0.54014 0.95164 0.81757 0.0
H1999 H 0.53864 0.97894 0.82842 0.0
C2000 C 0.53611 0.02614 0.90204 0.0
C2001 C 0.51961 0.02312 0.9003 0.0
C2002 C 0.54642 0.02348 0.88927 0.0
C2003 C 0.54044 0.01784 0.87448 0.0
C2004 C 0.52404 0.01445 0.87279 0.0
C2005 C 0.5137 0.0171 0.88558 0.0
C2006 C 0.55132 0.01563 0.86074 0.0
C2007 C 0.55204 0.00054 0.85353 0.0
C2008 C 0.56139 0.02816 0.85518 0.0
C2009 C 0.56063 0.04456 0.8618 0.0
C2010 C 0.54615 0.05245 0.86199 0.0
C2011 C 0.54549 0.06783 0.86839 0.0
C2012 C 0.55925 0.0755 0.87455 0.0
C2013 C 0.57371 0.06781 0.87427 0.0
C2014 C 0.57444 0.05241 0.86789 0.0
C2015 C 0.58911 -0.00049 0.79456 0.0
C2016 C 0.60537 0.00373 0.79634 0.0
C2017 C 0.57854 0.00166 0.80725 0.0
C2018 C 0.58406 0.00787 0.82201 0.0
C2019 C 0.60027 0.01221 0.82376 0.0
C2020 C 0.61083 0.01016 0.81105 0.0
C2021 C 0.57292 0.01006 0.83556 0.0
C2022 C 0.57212 0.02518 0.84274 0.0
C2023 C 0.56283 0.99753 0.84111 0.0
C2024 C 0.56369 0.98109 0.83463 0.0
C2025 C 0.57819 0.97325 0.83465 0.0
C2026 C 0.57894 0.9578 0.82842 0.0
C2027 C 0.56524 0.95003 0.82225 0.0
C2028 C 0.55075 0.95768 0.82233 0.0
C2029 C 0.54994 0.97313 0.82853 0.0
H2030 H 0.56584 0.93807 0.81743 0.0
H2031 H 0.55871 0.08741 0.8795 0.0
H2032 H 0.259 0.23987 0.35323 0.0
H2033 H 0.25406 0.22101 0.3746 0.0
H2034 H 0.30442 0.22112 0.38489 0.0
H2035 H 0.30947 0.24007 0.36347 0.0
H2036 H 0.2912 0.19132 0.38477 0.0
H2037 H 0.27981 0.24155 0.40886 0.0
H2038 H 0.26725 0.26747 0.41102 0.0
H2039 H 0.22092 0.24424 0.41144 0.0
H2040 H 0.2332 0.21817 0.40905 0.0
H2041 H 0.28235 0.15422 0.4604 0.0
H2042 H 0.28898 0.17232 0.43874 0.0
H2043 H 0.23912 0.17458 0.42683 0.0
H2044 H 0.23236 0.15669 0.44863 0.0
H2045 H 0.25313 0.20354 0.42825 0.0
H2046 H 0.26467 0.15325 0.40363 0.0
H2047 H 0.27739 0.1274 0.40153 0.0
H2048 H 0.32363 0.15083 0.40235 0.0
H2049 H 0.31119 0.17683 0.40468 0.0
C2050 C 0.26902 0.236 0.36013 0.0
C2051 C 0.28461 0.24157 0.35676 0.0
C2052 C 0.26618 0.2252 0.37232 0.0
C2053 C 0.27885 0.21984 0.38147 0.0
C2054 C 0.29447 0.22513 0.37797 0.0
C2055 C 0.29734 0.23592 0.36572 0.0
C2056 C 0.2757 0.20875 0.39472 0.0
C2057 C 0.28306 0.19407 0.39442 0.0
C2058 C 0.26485 0.21224 0.40712 0.0
C2059 C 0.25743 0.22791 0.40863 0.0
C2060 C 0.26694 0.24197 0.40929 0.0
C2061 C 0.25987 0.25669 0.41057 0.0
C2062 C 0.2433 0.2575 0.41132 0.0
C2063 C 0.23376 0.24359 0.41084 0.0
C2064 C 0.24077 0.22884 0.40953 0.0
C2065 C 0.2728 0.15848 0.45311 0.0
C2066 C 0.25682 0.15401 0.45623 0.0
C2067 C 0.27662 0.16878 0.44069 0.0
C2068 C 0.26456 0.17469 0.43109 0.0
C2069 C 0.24861 0.17016 0.43411 0.0
C2070 C 0.24477 0.1599 0.44654 0.0
C2071 C 0.26847 0.18602 0.41822 0.0
C2072 C 0.26128 0.20078 0.41862 0.0
C2073 C 0.2795 0.1826 0.40594 0.0
C2074 C 0.287 0.16698 0.40449 0.0
C2075 C 0.27755 0.15289 0.40349 0.0
C2076 C 0.28471 0.13821 0.40224 0.0
C2077 C 0.3013 0.13747 0.40185 0.0
C2078 C 0.31078 0.15142 0.40268 0.0
C2079 C 0.30368 0.16613 0.40395 0.0
H2080 H 0.30682 0.1261 0.40088 0.0
H2081 H 0.23785 0.26891 0.41232 0.0
H2082 H 0.4778 0.50849 0.89862 0.0
H2083 H 0.4588 0.51236 0.87697 0.0
H2084 H 0.45935 0.46246 0.86482 0.0
H2085 H 0.47867 0.45859 0.88614 0.0
H2086 H 0.4615 0.48033 0.83855 0.0
H2087 H 0.4283 0.47754 0.88514 0.0
H2088 H 0.41956 0.48488 0.91234 0.0
H2089 H 0.4123 0.5325 0.89739 0.0
H2090 H 0.42121 0.52549 0.87014 0.0
H2091 H 0.39332 0.47443 0.789 0.0
H2092 H 0.41135 0.4713 0.81157 0.0
H2093 H 0.41189 0.52178 0.82085 0.0
H2094 H 0.39379 0.52504 0.79828 0.0
H2095 H 0.40916 0.50417 0.84855 0.0
H2096 H 0.44225 0.50674 0.80186 0.0
H2097 H 0.45074 0.49917 0.77464 0.0
H2098 H 0.45807 0.45166 0.78989 0.0
H2099 H 0.44938 0.45889 0.81717 0.0
C2100 C 0.47396 0.49837 0.89126 0.0
C2101 C 0.4797 0.48322 0.89412 0.0
C2102 C 0.463 0.50057 0.87899 0.0
C2103 C 0.45753 0.48766 0.86941 0.0
C2104 C 0.46337 0.47257 0.87212 0.0
C2105 C 0.47431 0.47036 0.88439 0.0
C2106 C 0.44586 0.48989 0.85641 0.0
C2107 C 0.44998 0.48535 0.84077 0.0
C2108 C 0.43098 0.49679 0.85927 0.0
C2109 C 0.42559 0.50103 0.87564 0.0
C2110 C 0.42497 0.48961 0.88769 0.0
C2111 C 0.41996 0.49371 0.90311 0.0
C2112 C 0.41542 0.50916 0.90661 0.0
C2113 C 0.41584 0.52054 0.89467 0.0
C2114 C 0.42086 0.51651 0.87923 0.0
C2115 C 0.39717 0.48487 0.79589 0.0
C2116 C 0.3922 0.5 0.79179 0.0
C2117 C 0.40752 0.48306 0.80875 0.0
C2118 C 0.41308 0.49633 0.81774 0.0
C2119 C 0.40775 0.51139 0.81402 0.0
C2120 C 0.39746 0.51323 0.80109 0.0
C2121 C 0.42479 0.49451 0.83075 0.0
C2122 C 0.4207 0.49916 0.84636 0.0
C2123 C 0.43969 0.48768 0.82788 0.0
C2124 C 0.44501 0.48332 0.81152 0.0
C2125 C 0.44554 0.49464 0.79938 0.0
C2126 C 0.45041 0.49042 0.78394 0.0
C2127 C 0.4549 0.47493 0.78053 0.0
C2128 C 0.45457 0.46365 0.79255 0.0
C2129 C 0.44968 0.4678 0.808 0.0
H2130 H 0.45867 0.47169 0.76857 0.0
H2131 H 0.41154 0.51231 0.91855 0.0
H2132 H 0.707 0.73358 0.14329 0.0
H2133 H 0.71354 0.71459 0.12212 0.0
H2134 H 0.73517 0.75243 0.0947 0.0
H2135 H 0.728 0.77161 0.11548 0.0
H2136 H 0.71842 0.73258 0.07574 0.0
H2137 H 0.75777 0.72767 0.11688 0.0
H2138 H 0.76739 0.72358 0.1443 0.0
H2139 H 0.74444 0.67727 0.14432 0.0
H2140 H 0.73449 0.68119 0.11696 0.0
H2141 H 0.76594 0.68702 0.02364 0.0
H2142 H 0.75742 0.70533 0.04467 0.0
H2143 H 0.73296 0.66671 0.06856 0.0
H2144 H 0.74146 0.64825 0.04759 0.0
H2145 H 0.75046 0.68637 0.08932 0.0
H2146 H 0.71191 0.69137 0.04743 0.0
H2147 H 0.70299 0.69574 0.01982 0.0
H2148 H 0.72537 0.74231 0.02105 0.0
H2149 H 0.73463 0.73812 0.0486 0.0
C2150 C 0.7129 0.73792 0.13264 0.0
C2151 C 0.71706 0.75412 0.13113 0.0
C2152 C 0.7168 0.72701 0.12063 0.0
C2153 C 0.7251 0.73205 0.10696 0.0
C2154 C 0.72885 0.74826 0.10519 0.0
C2155 C 0.72488 0.75919 0.11715 0.0
C2156 C 0.73013 0.72043 0.09462 0.0
C2157 C 0.72558 0.72258 0.07869 0.0
C2158 C 0.73922 0.7072 0.09852 0.0
C2159 C 0.74525 0.70479 0.11494 0.0
C2160 C 0.75467 0.71667 0.12278 0.0
C2161 C 0.7602 0.71437 0.1383 0.0
C2162 C 0.75649 0.70019 0.14607 0.0
C2163 C 0.74728 0.68826 0.1383 0.0
C2164 C 0.74171 0.69051 0.12278 0.0
C2165 C 0.7588 0.68239 0.03339 0.0
C2166 C 0.75432 0.66619 0.03391 0.0
C2167 C 0.75389 0.69288 0.04536 0.0
C2168 C 0.74442 0.68738 0.05805 0.0
C2169 C 0.74023 0.67117 0.05883 0.0
C2170 C 0.74507 0.66067 0.04682 0.0
C2171 C 0.7388 0.69859 0.07047 0.0
C2172 C 0.74326 0.69635 0.08641 0.0
C2173 C 0.72972 0.71179 0.06656 0.0
C2174 C 0.72409 0.71437 0.05003 0.0
C2175 C 0.71504 0.70249 0.04177 0.0
C2176 C 0.7099 0.70495 0.02613 0.0
C2177 C 0.71364 0.71928 0.01867 0.0
C2178 C 0.7225 0.73121 0.02684 0.0
C2179 C 0.72768 0.72881 0.04247 0.0
H2180 H 0.70966 0.72116 0.00656 0.0
H2181 H 0.76079 0.69844 0.15809 0.0
H2182 H 0.00107 0.0247 0.1203 0.0
H2183 H 0.98426 0.02204 0.14398 0.0
H2184 H 0.94391 0.03741 0.11715 0.0
H2185 H 0.96064 0.03997 0.09331 0.0
H2186 H 0.94624 0.05221 0.14626 0.0
H2187 H 0.94692 -0.00116 0.12572 0.0
H2188 H 0.95926 0.97449 0.11573 0.0
H2189 H 0.98352 0.97 0.16055 0.0
H2190 H 0.97149 0.99446 0.17073 0.0
H2191 H 0.88774 0.02997 0.20407 0.0
H2192 H 0.90344 0.03276 0.17961 0.0
H2193 H 0.94461 0.01586 0.20404 0.0
H2194 H 0.92895 0.01275 0.22845 0.0
H2195 H 0.94111 0.00167 0.17551 0.0
H2196 H 0.94107 0.05533 0.19585 0.0
H2197 H 0.92898 0.0798 0.20586 0.0
H2198 H 0.90374 0.08385 0.16154 0.0
H2199 H 0.91552 0.05927 0.15134 0.0
C2200 C 0.98858 0.02734 0.11937 0.0
C2201 C 0.98217 0.03247 0.1049 0.0
C2202 C 0.979 0.02585 0.13293 0.0
C2203 C 0.96281 0.02938 0.13227 0.0
C2204 C 0.95639 0.03464 0.1179 0.0
C2205 C 0.96597 0.03614 0.10432 0.0
C2206 C 0.95264 0.02773 0.14666 0.0
C2207 C 0.94491 0.04111 0.15254 0.0
C2208 C 0.95122 0.01332 0.15501 0.0
C2209 C 0.95842 -0.00143 0.14894 0.0
C2210 C 0.95499 0.99273 0.13341 0.0
C2211 C 0.96191 0.9789 0.12772 0.0
C2212 C 0.9722 0.97073 0.13749 0.0
C2213 C 0.97556 0.97635 0.15299 0.0
C2214 C 0.96868 0.99019 0.15873 0.0
C2215 C 0.90016 0.02691 0.20426 0.0
C2216 C 0.9071 0.02115 0.21821 0.0
C2217 C 0.90912 0.02856 0.19028 0.0
C2218 C 0.92524 0.02465 0.19005 0.0
C2219 C 0.9322 0.01893 0.20396 0.0
C2220 C 0.92323 0.01721 0.21791 0.0
C2221 C 0.93479 0.02619 0.17522 0.0
C2222 C 0.9424 0.01278 0.16923 0.0
C2223 C 0.93612 0.04057 0.16679 0.0
C2224 C 0.92905 0.05537 0.17289 0.0
C2225 C 0.93284 0.06136 0.18829 0.0
C2226 C 0.92607 0.07527 0.19399 0.0
C2227 C 0.91557 0.08335 0.18436 0.0
C2228 C 0.91186 0.07757 0.16899 0.0
C2229 C 0.91859 0.06366 0.16324 0.0
H2230 H 0.91034 0.09412 0.1888 0.0
H2231 H 0.97754 0.96002 0.13306 0.0
H2232 H 0.2578 0.77114 0.15185 0.0
H2233 H 0.25448 0.78977 0.13018 0.0
H2234 H 0.30237 0.78157 0.11411 0.0
H2235 H 0.30582 0.76306 0.13595 0.0
H2236 H 0.29682 0.81221 0.11373 0.0
H2237 H 0.26961 0.76482 0.09447 0.0
H2238 H 0.25051 0.74197 0.09548 0.0
H2239 H 0.21168 0.77357 0.09956 0.0
H2240 H 0.23058 0.79662 0.09879 0.0
H2241 H 0.28856 0.8461 0.03694 0.0
H2242 H 0.2925 0.82787 0.05884 0.0
H2243 H 0.24596 0.83802 0.07738 0.0
H2244 H 0.24183 0.85617 0.05543 0.0
H2245 H 0.25109 0.80629 0.07623 0.0
H2246 H 0.27899 0.85376 0.09534 0.0
H2247 H 0.29848 0.87623 0.09365 0.0
H2248 H 0.33656 0.84382 0.08896 0.0
H2249 H 0.31726 0.82115 0.0904 0.0
C2250 C 0.26757 0.77322 0.14362 0.0
C2251 C 0.28203 0.76559 0.14553 0.0
C2252 C 0.26567 0.78387 0.13124 0.0
C2253 C 0.2781 0.7869 0.12038 0.0
C2254 C 0.29262 0.77941 0.12235 0.0
C2255 C 0.29458 0.76886 0.13482 0.0
C2256 C 0.27598 0.79797 0.10703 0.0
C2257 C 0.28694 0.81078 0.10539 0.0
C2258 C 0.26293 0.79628 0.09632 0.0
C2259 C 0.25152 0.78244 0.09672 0.0
C2260 C 0.25701 0.76689 0.0957 0.0
C2261 C 0.24622 0.75391 0.09621 0.0
C2262 C 0.22989 0.75632 0.09762 0.0
C2263 C 0.22433 0.77172 0.09849 0.0
C2264 C 0.23507 0.78475 0.098 0.0
C2265 C 0.27917 0.84451 0.0457 0.0
C2266 C 0.26488 0.8526 0.04446 0.0
C2267 C 0.28147 0.83412 0.05824 0.0
C2268 C 0.26957 0.8317 0.0698 0.0
C2269 C 0.25529 0.83974 0.06858 0.0
C2270 C 0.25298 0.85015 0.05606 0.0
C2271 C 0.27188 0.82054 0.083 0.0
C2272 C 0.26096 0.80769 0.08458 0.0
C2273 C 0.28503 0.82214 0.09356 0.0
C2274 C 0.29666 0.83576 0.09283 0.0
C2275 C 0.29151 0.85143 0.09383 0.0
C2276 C 0.30253 0.8642 0.09294 0.0
C2277 C 0.31875 0.86146 0.09116 0.0
C2278 C 0.32399 0.84593 0.09032 0.0
C2279 C 0.31302 0.83312 0.09119 0.0
H2280 H 0.32726 0.87136 0.09046 0.0
H2281 H 0.22156 0.74625 0.09802 0.0
H2282 H 0.01833 0.45347 0.10961 0.0
H2283 H 0.03627 0.45779 0.13244 0.0
H2284 H 0.03903 0.50792 0.12307 0.0
H2285 H 0.02145 0.50363 0.09995 0.0
H2286 H 0.0681 0.49659 0.12929 0.0
H2287 H 0.01604 0.49378 0.15307 0.0
H2288 H 0.98941 0.48187 0.15855 0.0
H2289 H 0.01077 0.4412 0.17855 0.0
H2290 H 0.03755 0.45278 0.17298 0.0
H2291 H 0.09987 0.5249 0.20338 0.0
H2292 H 0.08292 0.5194 0.18006 0.0
H2293 H 0.08135 0.46955 0.19078 0.0
H2294 H 0.09819 0.47496 0.21427 0.0
H2295 H 0.05205 0.48001 0.18375 0.0
H2296 H 0.10417 0.48316 0.16055 0.0
H2297 H 0.13078 0.4952 0.15519 0.0
H2298 H 0.10931 0.5353 0.13417 0.0
H2299 H 0.08256 0.52361 0.13961 0.0
C2300 C 0.02286 0.46539 0.11233 0.0
C2301 C 0.01845 0.47822 0.103 0.0
C2302 C 0.033 0.46786 0.12546 0.0
C2303 C 0.03884 0.4832 0.12954 0.0
C2304 C 0.0346 0.496 0.12015 0.0
C2305 C 0.02446 0.49355 0.10704 0.0
C2306 C 0.04943 0.48591 0.14357 0.0
C2307 C 0.06453 0.49315 0.14124 0.0
C2308 C 0.04489 0.48104 0.15907 0.0
C2309 C 0.0288 0.47407 0.16245 0.0
C2310 C 0.01506 0.48224 0.15851 0.0
C2311 C -6e-05 0.47556 0.16166 0.0
C2312 C 0.99839 0.46077 0.16886 0.0
C2313 C 0.01198 0.45265 0.17296 0.0
C2314 C 0.02713 0.45926 0.16982 0.0
C2315 C 0.09596 0.51275 0.20078 0.0
C2316 C 0.1004 0.50036 0.21067 0.0
C2317 C 0.08633 0.50963 0.1874 0.0
C2318 C 0.08102 0.49405 0.18361 0.0
C2319 C 0.08535 0.48166 0.19349 0.0
C2320 C 0.09501 0.48477 0.20688 0.0
C2321 C 0.0707 0.49076 0.16948 0.0
C2322 C 0.05565 0.48341 0.17179 0.0
C2323 C 0.07528 0.49553 0.15396 0.0
C2324 C 0.09136 0.50257 0.15063 0.0
C2325 C 0.10512 0.49461 0.1549 0.0
C2326 C 0.12023 0.50136 0.15182 0.0
C2327 C 0.12173 0.51602 0.14438 0.0
C2328 C 0.10813 0.52395 0.13995 0.0
C2329 C 0.09299 0.51726 0.14302 0.0
H2330 H 0.13344 0.52123 0.14201 0.0
H2331 H 0.98668 0.45562 0.17129 0.0
H2332 H 0.33855 0.72917 0.28734 0.0
H2333 H 0.36042 0.73319 0.30656 0.0
H2334 H 0.39452 0.72656 0.26868 0.0
H2335 H 0.3727 0.72245 0.24941 0.0
H2336 H 0.40092 0.70948 0.2964 0.0
H2337 H 0.38861 0.76264 0.28155 0.0
H2338 H 0.37095 0.78499 0.27772 0.0
H2339 H 0.35934 0.78516 0.32772 0.0
H2340 H 0.37678 0.76265 0.33181 0.0
H2341 H 0.47164 0.73847 0.33388 0.0
H2342 H 0.44895 0.73359 0.31603 0.0
H2343 H 0.41693 0.74716 0.35383 0.0
H2344 H 0.43967 0.75249 0.37168 0.0
H2345 H 0.40864 0.76018 0.32692 0.0
H2346 H 0.42103 0.70788 0.34246 0.0
H2347 H 0.43809 0.68517 0.3469 0.0
H2348 H 0.44866 0.6826 0.29671 0.0
H2349 H 0.43184 0.70545 0.292 0.0
C2350 C 0.35071 0.7285 0.28314 0.0
C2351 C 0.35395 0.72554 0.26689 0.0
C2352 C 0.36317 0.73088 0.29409 0.0
C2353 C 0.37905 0.73025 0.28899 0.0
C2354 C 0.38232 0.72711 0.27282 0.0
C2355 C 0.36988 0.72488 0.26183 0.0
C2356 C 0.39228 0.73292 0.30051 0.0
C2357 C 0.40276 0.72061 0.30295 0.0
C2358 C 0.3943 0.74728 0.30938 0.0
C2359 C 0.38387 0.76085 0.30695 0.0
C2360 C 0.38219 0.76736 0.29171 0.0
C2361 C 0.37224 0.78007 0.28949 0.0
C2362 C 0.36399 0.78647 0.30246 0.0
C2363 C 0.36572 0.78018 0.31768 0.0
C2364 C 0.37564 0.76745 0.31995 0.0
C2365 C 0.45977 0.74036 0.33844 0.0
C2366 C 0.45744 0.74582 0.35422 0.0
C2367 C 0.44679 0.7375 0.32823 0.0
C2368 C 0.43121 0.73978 0.33366 0.0
C2369 C 0.42885 0.74529 0.3494 0.0
C2370 C 0.44185 0.7483 0.35959 0.0
C2371 C 0.41744 0.73676 0.32279 0.0
C2372 C 0.40682 0.74899 0.32045 0.0
C2373 C 0.4152 0.72226 0.31413 0.0
C2374 C 0.42528 0.70847 0.3169 0.0
C2375 C 0.42709 0.70255 0.33239 0.0
C2376 C 0.4367 0.68964 0.33495 0.0
C2377 C 0.44448 0.68247 0.3221 0.0
C2378 C 0.44264 0.68818 0.30666 0.0
C2379 C 0.43305 0.7011 0.30403 0.0
H2380 H 0.45191 0.67248 0.32411 0.0
H2381 H 0.3563 0.79631 0.30072 0.0
H2382 H 0.97387 0.41482 0.95948 0.0
H2383 H 0.97812 0.39277 0.94078 0.0
H2384 H 0.98912 0.36274 0.98018 0.0
H2385 H 0.98475 0.38469 -0.00102 0.0
H2386 H 0.0103 0.35978 0.95603 0.0
H2387 H 0.95343 0.35891 0.96172 0.0
H2388 H 0.92671 0.37012 0.96159 0.0
H2389 H 0.93199 0.38115 0.91192 0.0
H2390 H 0.95886 0.37021 0.91181 0.0
H2391 H 0.00416 0.28537 0.91508 0.0
H2392 H 0.0002 0.30779 0.93339 0.0
H2393 H 0.9899 0.33737 0.89343 0.0
H2394 H 0.99372 0.31498 0.87502 0.0
H2395 H 0.9685 0.34076 0.9176 0.0
H2396 H 0.02532 0.34135 0.91189 0.0
H2397 H 0.052 0.33006 0.91207 0.0
H2398 H 0.04676 0.31945 0.96185 0.0
H2399 H 0.01994 0.33048 0.96191 0.0
C2400 C 0.97703 0.40348 0.96418 0.0
C2401 C 0.97893 0.40149 0.98073 0.0
C2402 C 0.97949 0.3909 0.95348 0.0
C2403 C 0.98379 0.37608 0.95911 0.0
C2404 C 0.98583 0.37409 0.97559 0.0
C2405 C 0.98338 0.38666 0.98631 0.0
C2406 C 0.98629 0.36267 0.9478 0.0
C2407 C 0.0011 0.35547 0.94777 0.0
C2408 C 0.97439 0.35733 0.93678 0.0
C2409 C 0.95822 0.36389 0.9368 0.0
C2410 C 0.94895 0.36385 0.9508 0.0
C2411 C 0.93377 0.37013 0.95076 0.0
C2412 C 0.92767 0.37638 0.93677 0.0
C2413 C 0.93674 0.37633 0.92276 0.0
C2414 C 0.95194 0.37007 0.92273 0.0
C2415 C 0.00109 0.29665 0.91017 0.0
C2416 C -0.00071 0.2984 0.89358 0.0
C2417 C -0.00111 0.30946 0.92065 0.0
C2418 C 0.9949 0.32427 0.91474 0.0
C2419 C 0.993 0.32604 0.89821 0.0
C2420 C 0.99524 0.31324 0.88772 0.0
C2421 C 0.9925 0.33785 0.92585 0.0
C2422 C 0.97771 0.34508 0.92585 0.0
C2423 C 0.00441 0.34321 0.93685 0.0
C2424 C 0.02055 0.3366 0.93686 0.0
C2425 C 0.0298 0.33649 0.92285 0.0
C2426 C 0.04496 0.33016 0.92291 0.0
C2427 C 0.05106 0.324 0.93695 0.0
C2428 C 0.04202 0.3242 0.95097 0.0
C2429 C 0.02684 0.3305 0.95097 0.0
H2430 H 0.0628 0.31911 0.93698 0.0
H2431 H 0.91591 0.38123 0.93676 0.0
H2432 H 0.62001 0.79138 0.23201 0.0
H2433 H 0.59813 0.78532 0.25048 0.0
H2434 H 0.63135 0.78597 0.28987 0.0
H2435 H 0.65333 0.79175 0.27142 0.0
H2436 H 0.61043 0.76024 0.2904 0.0
H2437 H 0.60796 0.81663 0.28506 0.0
H2438 H 0.60652 0.84166 0.27046 0.0
H2439 H 0.56184 0.82577 0.24968 0.0
H2440 H 0.56313 0.80053 0.26399 0.0
H2441 H 0.55281 0.76048 0.3526 0.0
H2442 H 0.57521 0.76715 0.33501 0.0
H2443 H 0.54285 0.77026 0.29519 0.0
H2444 H 0.52038 0.76395 0.31275 0.0
H2445 H 0.56378 0.79446 0.29533 0.0
H2446 H 0.56632 0.73797 0.29983 0.0
H2447 H 0.56764 0.71264 0.31393 0.0
H2448 H 0.61193 0.72828 0.33568 0.0
H2449 H 0.61077 0.75381 0.32187 0.0
C2450 C 0.62265 0.79016 0.2446 0.0
C2451 C 0.63838 0.79207 0.25028 0.0
C2452 C 0.61014 0.78682 0.25514 0.0
C2453 C 0.61312 0.78534 0.27155 0.0
C2454 C 0.62881 0.78712 0.27725 0.0
C2455 C 0.64132 0.79053 0.26673 0.0
C2456 C 0.59987 0.78171 0.28273 0.0
C2457 C 0.60033 0.76783 0.29167 0.0
C2458 C 0.58655 0.79144 0.28406 0.0
C2459 C 0.58572 0.80662 0.27548 0.0
C2460 C 0.59789 0.81841 0.27727 0.0
C2461 C 0.59709 0.83265 0.26907 0.0
C2462 C 0.58412 0.83529 0.25912 0.0
C2463 C 0.5719 0.8237 0.25738 0.0
C2464 C 0.57265 0.80944 0.26554 0.0
C2465 C 0.55047 0.76255 0.34009 0.0
C2466 C 0.53482 0.76164 0.33406 0.0
C2467 C 0.56329 0.7663 0.33004 0.0
C2468 C 0.56072 0.76903 0.31374 0.0
C2469 C 0.54511 0.76821 0.30772 0.0
C2470 C 0.53228 0.76455 0.31778 0.0
C2471 C 0.57427 0.77292 0.30296 0.0
C2472 C 0.57388 0.78687 0.2941 0.0
C2473 C 0.58763 0.7632 0.30164 0.0
C2474 C 0.58837 0.74786 0.30994 0.0
C2475 C 0.57627 0.73606 0.30772 0.0
C2476 C 0.577 0.72166 0.31564 0.0
C2477 C 0.58983 0.71887 0.32573 0.0
C2478 C 0.60198 0.73047 0.32788 0.0
C2479 C 0.6013 0.7449 0.32 0.0
H2480 H 0.59038 0.70771 0.33185 0.0
H2481 H 0.58352 0.84632 0.25278 0.0
H2482 H 0.04939 0.11253 0.98164 0.0
H2483 H 0.04558 0.1347 0.96377 0.0
H2484 H 0.99461 0.12851 0.96874 0.0
H2485 H 0.9983 0.10598 0.98612 0.0
H2486 H 0.00253 0.13318 0.93829 0.0
H2487 H 0.01541 0.15816 0.98896 0.0
H2488 H 0.03147 0.16364 0.01326 0.0
H2489 H 0.07092 0.17981 0.98447 0.0
H2490 H 0.05515 0.17421 0.95998 0.0
H2491 H 0.97843 0.20749 0.91066 0.0
H2492 H 0.98379 0.18475 0.92724 0.0
H2493 H 0.03415 0.19132 0.91825 0.0
H2494 H 0.02891 0.21416 0.90167 0.0
H2495 H 0.0275 0.18632 0.95004 0.0
H2496 H 0.01392 0.16207 0.89932 0.0
H2497 H 0.99742 0.15688 0.87527 0.0
H2498 H 0.95878 0.13959 0.9045 0.0
H2499 H 0.97498 0.14489 0.92877 0.0
C2500 C 0.03737 0.11579 0.9788 0.0
C2501 C 0.02415 0.10753 0.98536 0.0
C2502 C 0.03522 0.12856 0.96871 0.0
C2503 C 0.01982 0.13338 0.96509 0.0
C2504 C 0.0066 0.12502 0.97143 0.0
C2505 C 0.00874 0.11224 0.98148 0.0
C2506 C 0.01742 0.14709 0.95463 0.0
C2507 C 0.00784 0.14484 0.94096 0.0
C2508 C 0.02465 0.16222 0.95792 0.0
C2509 C 0.03416 0.1656 0.97263 0.0
C2510 C 0.02755 0.16276 0.98781 0.0
C2511 C 0.0366 0.16591 0.00161 0.0
C2512 C 0.05223 0.17202 0.00041 0.0
C2513 C 0.05883 0.17504 0.98539 0.0
C2514 C 0.04984 0.17189 0.97154 0.0
C2515 C 0.99065 0.20411 0.91219 0.0
C2516 C 0.00324 0.21261 0.90481 0.0
C2517 C 0.99368 0.19107 0.92162 0.0
C2518 C 0.00935 0.18628 0.92384 0.0
C2519 C 0.02197 0.19483 0.91665 0.0
C2520 C 0.01894 0.20784 0.90714 0.0
C2521 C 0.01253 0.1724 0.93379 0.0
C2522 C 0.02225 0.17463 0.94735 0.0
C2523 C 0.00538 0.15727 0.93044 0.0
C2524 C 0.99562 0.15402 0.91587 0.0
C2525 C 0.00186 0.15728 0.90063 0.0
C2526 C 0.99257 0.1543 0.88696 0.0
C2527 C 0.97705 0.14794 0.88836 0.0
C2528 C 0.9708 0.14453 0.90344 0.0
C2529 C 0.98004 0.14751 0.91715 0.0
H2530 H 0.96988 0.14564 0.87776 0.0
H2531 H 0.05921 0.17446 0.01111 0.0
H2532 H 0.33986 0.278 0.2146 0.0
H2533 H 0.36076 0.27376 0.1947 0.0
H2534 H 0.39671 0.2841 0.23063 0.0
H2535 H 0.37586 0.28839 0.25058 0.0
H2536 H 0.40222 0.29979 0.20157 0.0
H2537 H 0.38948 0.24717 0.22032 0.0
H2538 H 0.37158 0.22428 0.22639 0.0
H2539 H 0.3577 0.22032 0.17701 0.0
H2540 H 0.37536 0.24335 0.17069 0.0
H2541 H 0.47065 0.27186 0.16313 0.0
H2542 H 0.4488 0.27653 0.18161 0.0
H2543 H 0.41498 0.25952 0.14583 0.0
H2544 H 0.43687 0.25442 0.12735 0.0
H2545 H 0.40749 0.24765 0.17398 0.0
H2546 H 0.42036 0.2994 0.15462 0.0
H2547 H 0.43773 0.32254 0.14804 0.0
H2548 H 0.45054 0.32871 0.19753 0.0
H2549 H 0.43341 0.30547 0.20439 0.0
C2550 C 0.35222 0.27944 0.21822 0.0
C2551 C 0.35626 0.28349 0.23412 0.0
C2552 C 0.36412 0.27694 0.20688 0.0
C2553 C 0.38024 0.27854 0.21125 0.0
C2554 C 0.38432 0.28279 0.22706 0.0
C2555 C 0.37242 0.28513 0.23844 0.0
C2556 C 0.39289 0.27576 0.19932 0.0
C2557 C 0.40352 0.28835 0.19565 0.0
C2558 C 0.39421 0.26096 0.1913 0.0
C2559 C 0.38361 0.24709 0.19507 0.0
C2560 C 0.3825 0.24151 0.21078 0.0
C2561 C 0.37242 0.22849 0.21426 0.0
C2562 C 0.36347 0.22088 0.2021 0.0
C2563 C 0.36462 0.22624 0.18643 0.0
C2564 C 0.37467 0.23927 0.18289 0.0
C2565 C 0.45857 0.26914 0.15916 0.0
C2566 C 0.45549 0.26283 0.14374 0.0
C2567 C 0.44607 0.27189 0.16972 0.0
C2568 C 0.43023 0.26861 0.16502 0.0
C2569 C 0.42711 0.26218 0.14969 0.0
C2570 C 0.43963 0.25931 0.13913 0.0
C2571 C 0.41697 0.27167 0.17625 0.0
C2572 C 0.40619 0.25913 0.1798 0.0
C2573 C 0.41543 0.28657 0.18406 0.0
C2574 C 0.4257 0.3006 0.18 0.0
C2575 C 0.42697 0.30562 0.16409 0.0
C2576 C 0.43676 0.31876 0.16031 0.0
C2577 C 0.44526 0.32706 0.17235 0.0
C2578 C 0.44396 0.32226 0.18821 0.0
C2579 C 0.4342 0.30911 0.19206 0.0
H2580 H 0.45284 0.33724 0.1694 0.0
H2581 H 0.35567 0.21079 0.20482 0.0
H2582 H 0.49859 0.40773 0.01055 0.0
H2583 H 0.49405 0.38576 0.02879 0.0
H2584 H 0.54409 0.37588 0.02724 0.0
H2585 H 0.54865 0.39757 0.00857 0.0
H2586 H 0.52573 0.34896 0.02475 0.0
H2587 H 0.5288 0.39484 0.05929 0.0
H2588 H 0.52208 0.42159 0.06887 0.0
H2589 H 0.47347 0.40574 0.07592 0.0
H2590 H 0.47985 0.37893 0.06616 0.0
H2591 H 0.52474 0.2984 0.09192 0.0
H2592 H 0.53053 0.32055 0.07415 0.0
H2593 H 0.48063 0.33099 0.07312 0.0
H2594 H 0.47472 0.30892 0.09094 0.0
H2595 H 0.49978 0.35775 0.07732 0.0
H2596 H 0.49675 0.31201 0.04214 0.0
H2597 H 0.50361 0.28526 0.03265 0.0
H2598 H 0.55245 0.30095 0.027 0.0
H2599 H 0.54592 0.32775 0.03668 0.0
C2600 C 0.50861 0.40079 0.01396 0.0
C2601 C 0.52399 0.4044 0.00813 0.0
C2602 C 0.50602 0.38834 0.02451 0.0
C2603 C 0.51877 0.37932 0.02952 0.0
C2604 C 0.5341 0.38274 0.02357 0.0
C2605 C 0.53671 0.39521 0.01301 0.0
C2606 C 0.51605 0.36628 0.04094 0.0
C2607 C 0.52028 0.35092 0.03635 0.0
C2608 C 0.50865 0.36881 0.05593 0.0
C2609 C 0.50478 0.38491 0.06185 0.0
C2610 C 0.51665 0.39708 0.06276 0.0
C2611 C 0.5129 0.41225 0.06824 0.0
C2612 C 0.49735 0.41537 0.07296 0.0
C2613 C 0.48551 0.40331 0.07224 0.0
C2614 C 0.48919 0.38812 0.06675 0.0
C2615 C 0.51499 0.30542 0.08795 0.0
C2616 C 0.49925 0.30186 0.09279 0.0
C2617 C 0.51832 0.31804 0.07775 0.0
C2618 C 0.50598 0.3273 0.07221 0.0
C2619 C 0.49031 0.32396 0.07725 0.0
C2620 C 0.48696 0.31132 0.08739 0.0
C2621 C 0.50938 0.34044 0.06109 0.0
C2622 C 0.50528 0.35582 0.06574 0.0
C2623 C 0.51693 0.33793 0.04618 0.0
C2624 C 0.52087 0.32184 0.0403 0.0
C2625 C 0.50898 0.30972 0.039 0.0
C2626 C 0.5128 0.29456 0.03356 0.0
C2627 C 0.52847 0.2914 0.02927 0.0
C2628 C 0.54033 0.30341 0.03036 0.0
C2629 C 0.53657 0.31859 0.03581 0.0
H2630 H 0.5314 0.27965 0.02506 0.0
H2631 H 0.49447 0.42712 0.0772 0.0
H2632 H 0.619 0.23906 0.26472 0.0
H2633 H 0.59783 0.24455 0.24584 0.0
H2634 H 0.62481 0.22344 0.20759 0.0
H2635 H 0.64638 0.21852 0.22632 0.0
H2636 H 0.61302 0.2506 0.19846 0.0
H2637 H 0.59217 0.20396 0.22362 0.0
H2638 H 0.58432 0.18685 0.24608 0.0
H2639 H 0.55058 0.22088 0.2618 0.0
H2640 H 0.55839 0.2383 0.23956 0.0
H2641 H 0.54814 0.24673 0.14309 0.0
H2642 H 0.56974 0.23981 0.16101 0.0
H2643 H 0.5467 0.26379 0.20017 0.0
H2644 H 0.52503 0.27075 0.18237 0.0
H2645 H 0.55659 0.23409 0.20809 0.0
H2646 H 0.57838 0.28099 0.18302 0.0
H2647 H 0.58628 0.29767 0.16026 0.0
H2648 H 0.61829 0.26227 0.1439 0.0
H2649 H 0.61041 0.24528 0.16646 0.0
C2650 C 0.62049 0.23567 0.25228 0.0
C2651 C 0.6344 0.22838 0.24703 0.0
C2652 C 0.60829 0.23865 0.24152 0.0
C2653 C 0.60966 0.23423 0.22534 0.0
C2654 C 0.62349 0.22689 0.22005 0.0
C2655 C 0.63574 0.22396 0.23079 0.0
C2656 C 0.59682 0.23771 0.21388 0.0
C2657 C 0.60072 0.24676 0.20043 0.0
C2658 C 0.58073 0.23296 0.21661 0.0
C2659 C 0.57598 0.2225 0.23 0.0
C2660 C 0.58317 0.20785 0.23194 0.0
C2661 C 0.57871 0.19809 0.24462 0.0
C2662 C 0.56699 0.20279 0.25538 0.0
C2663 C 0.55967 0.21726 0.25347 0.0
C2664 C 0.5641 0.22707 0.24081 0.0
C2665 C 0.54769 0.25059 0.15551 0.0
C2666 C 0.53488 0.25931 0.16132 0.0
C2667 C 0.56006 0.24666 0.16571 0.0
C2668 C 0.55984 0.25137 0.18188 0.0
C2669 C 0.54707 0.26005 0.18772 0.0
C2670 C 0.53474 0.26406 0.17752 0.0
C2671 C 0.5728 0.24706 0.19279 0.0
C2672 C 0.56891 0.23785 0.20611 0.0
C2673 C 0.58891 0.25158 0.18989 0.0
C2674 C 0.59367 0.26179 0.17633 0.0
C2675 C 0.587 0.2767 0.17449 0.0
C2676 C 0.5915 0.28623 0.16164 0.0
C2677 C 0.60275 0.28102 0.15061 0.0
C2678 C 0.60956 0.26628 0.15244 0.0
C2679 C 0.60509 0.25671 0.16526 0.0
H2680 H 0.60622 0.28841 0.14067 0.0
H2681 H 0.56355 0.19522 0.26519 0.0
H2682 H 0.50633 0.10599 0.01678 0.0
H2683 H 0.5115 0.12962 0.03361 0.0
H2684 H 0.46225 0.14185 0.02929 0.0
H2685 H 0.45707 0.1184 0.01214 0.0
H2686 H 0.48254 0.1675 0.02539 0.0
H2687 H 0.47492 0.1257 0.06293 0.0
H2688 H 0.47953 0.09973 0.07479 0.0
H2689 H 0.52851 0.11362 0.08349 0.0
H2690 H 0.52424 0.13962 0.07146 0.0
H2691 H 0.48103 0.22395 0.08947 0.0
H2692 H 0.47593 0.20065 0.07217 0.0
H2693 H 0.52533 0.18877 0.07571 0.0
H2694 H 0.53056 0.21202 0.09307 0.0
H2695 H 0.5049 0.163 0.08 0.0
H2696 H 0.5124 0.20489 0.04246 0.0
H2697 H 0.50762 0.23091 0.03077 0.0
H2698 H 0.45866 0.21685 0.02223 0.0
H2699 H 0.46309 0.19081 0.03409 0.0
C2700 C 0.49663 0.11378 0.0193 0.0
C2701 C 0.48128 0.11033 0.01316 0.0
C2702 C 0.49957 0.1272 0.02902 0.0
C2703 C 0.48721 0.13738 0.03282 0.0
C2704 C 0.47193 0.1341 0.02654 0.0
C2705 C 0.46896 0.12065 0.01685 0.0
C2706 C 0.49026 0.15147 0.04334 0.0
C2707 C 0.48723 0.16651 0.03741 0.0
C2708 C 0.49669 0.15016 0.05888 0.0
C2709 C 0.4993 0.13455 0.06614 0.0
C2710 C 0.48671 0.12317 0.06725 0.0
C2711 C 0.48925 0.10845 0.07402 0.0
C2712 C 0.50432 0.10501 0.07985 0.0
C2713 C 0.51686 0.1163 0.07895 0.0
C2714 C 0.51438 0.13103 0.07216 0.0
C2715 C 0.49083 0.2164 0.08656 0.0
C2716 C 0.50622 0.21985 0.09261 0.0
C2717 C 0.48789 0.20313 0.07663 0.0
C2718 C 0.50028 0.19308 0.07257 0.0
C2719 C 0.51562 0.1964 0.0787 0.0
C2720 C 0.51859 0.20972 0.08857 0.0
C2721 C 0.4972 0.17902 0.06204 0.0
C2722 C 0.50022 0.16398 0.06797 0.0
C2723 C 0.49073 0.18033 0.04651 0.0
C2724 C 0.48804 0.19596 0.03932 0.0
C2725 C 0.50058 0.20739 0.03821 0.0
C2726 C 0.49794 0.22214 0.03153 0.0
C2727 C 0.48283 0.22555 0.0258 0.0
C2728 C 0.47035 0.2142 0.0267 0.0
C2729 C 0.47292 0.19944 0.03339 0.0
H2730 H 0.48081 0.23697 0.02063 0.0
H2731 H 0.50626 0.09361 0.0851 0.0
H2732 H 0.23917 0.38933 0.71551 0.0
H2733 H 0.25836 0.41125 0.72085 0.0
H2734 H 0.29669 0.38187 0.70546 0.0
H2735 H 0.27766 0.35971 0.70069 0.0
H2736 H 0.30463 0.3978 0.73214 0.0
H2737 H 0.28259 0.41053 0.68138 0.0
H2738 H 0.26131 0.41542 0.66195 0.0
H2739 H 0.24568 0.45434 0.69104 0.0
H2740 H 0.26675 0.44954 0.71077 0.0
H2741 H 0.36343 0.46003 0.72303 0.0
H2742 H 0.34433 0.43806 0.71732 0.0
H2743 H 0.30649 0.46535 0.73741 0.0
H2744 H 0.32548 0.48735 0.74323 0.0
H2745 H 0.29855 0.45057 0.70808 0.0
H2746 H 0.32092 0.43735 0.75889 0.0
H2747 H 0.34268 0.43243 0.77777 0.0
H2748 H 0.35824 0.39423 0.74766 0.0
H2749 H 0.3367 0.39908 0.72847 0.0
C2750 C 0.2517 0.38749 0.71338 0.0
C2751 C 0.25688 0.37279 0.70762 0.0
C2752 C 0.26263 0.40008 0.71629 0.0
C2753 C 0.27893 0.39825 0.71336 0.0
C2754 C 0.28416 0.38356 0.70774 0.0
C2755 C 0.27325 0.37096 0.70487 0.0
C2756 C 0.29058 0.4116 0.71634 0.0
C2757 C 0.30342 0.40927 0.7267 0.0
C2758 C 0.28883 0.42665 0.70947 0.0
C2759 C 0.27615 0.42957 0.69763 0.0
C2760 C 0.27454 0.42005 0.6837 0.0
C2761 C 0.26253 0.42282 0.67262 0.0
C2762 C 0.25212 0.43515 0.67528 0.0
C2763 C 0.25374 0.44477 0.68901 0.0
C2764 C 0.26572 0.44204 0.70014 0.0
C2765 C 0.35105 0.46137 0.72622 0.0
C2766 C 0.34597 0.4754 0.73363 0.0
C2767 C 0.34017 0.4488 0.72299 0.0
C2768 C 0.32405 0.45008 0.72704 0.0
C2769 C 0.3189 0.46415 0.73421 0.0
C2770 C 0.32978 0.47667 0.73758 0.0
C2771 C 0.31253 0.43673 0.72386 0.0
C2772 C 0.29974 0.43907 0.71348 0.0
C2773 C 0.31437 0.42167 0.73061 0.0
C2774 C 0.3273 0.41869 0.74216 0.0
C2775 C 0.32907 0.42799 0.75622 0.0
C2776 C 0.34134 0.4252 0.767 0.0
C2777 C 0.35186 0.41306 0.7639 0.0
C2778 C 0.3501 0.40365 0.75004 0.0
C2779 C 0.33785 0.40641 0.73921 0.0
H2780 H 0.36136 0.41091 0.77226 0.0
H2781 H 0.24284 0.43728 0.66668 0.0
H2782 H 0.26572 0.66409 0.80276 0.0
H2783 H 0.28643 0.64525 0.79717 0.0
H2784 H 0.25285 0.61572 0.76997 0.0
H2785 H 0.23181 0.63421 0.77613 0.0
H2786 H 0.27016 0.59824 0.78901 0.0
H2787 H 0.28128 0.63942 0.7515 0.0
H2788 H 0.28649 0.66689 0.74282 0.0
H2789 H 0.32843 0.67046 0.77226 0.0
H2790 H 0.32335 0.64307 0.78129 0.0
H2791 H 0.32615 0.54966 0.75116 0.0
H2792 H 0.30583 0.56915 0.75591 0.0
H2793 H 0.33871 0.59707 0.78548 0.0
H2794 H 0.35926 0.57765 0.78067 0.0
H2795 H 0.32189 0.61539 0.7651 0.0
H2796 H 0.31047 0.57414 0.80266 0.0
H2797 H 0.30522 0.54659 0.81108 0.0
H2798 H 0.26366 0.54313 0.7811 0.0
H2799 H 0.2688 0.5706 0.77232 0.0
C2800 C 0.26266 0.65351 0.79574 0.0
C2801 C 0.24707 0.65064 0.78993 0.0
C2802 C 0.27459 0.64284 0.79238 0.0
C2803 C 0.27125 0.62919 0.78296 0.0
C2804 C 0.2557 0.62623 0.7772 0.0
C2805 C 0.24372 0.63687 0.78062 0.0
C2806 C 0.28393 0.61786 0.7794 0.0
C2807 C 0.28137 0.60194 0.78356 0.0
C2808 C 0.29872 0.62279 0.77264 0.0
C2809 C 0.30185 0.63924 0.76718 0.0
C2810 C 0.29155 0.6461 0.75621 0.0
C2811 C 0.29449 0.66165 0.75122 0.0
C2812 C 0.30776 0.67043 0.75702 0.0
C2813 C 0.31814 0.66365 0.76779 0.0
C2814 C 0.31525 0.64811 0.77284 0.0
C2815 C 0.32912 0.55997 0.75864 0.0
C2816 C 0.34431 0.56206 0.76562 0.0
C2817 C 0.31745 0.57106 0.76138 0.0
C2818 C 0.3207 0.58442 0.77122 0.0
C2819 C 0.33597 0.58679 0.77789 0.0
C2820 C 0.34767 0.57567 0.77516 0.0
C2821 C 0.30807 0.5958 0.77468 0.0
C2822 C 0.31065 0.61171 0.77052 0.0
C2823 C 0.29328 0.59087 0.78139 0.0
C2824 C 0.29011 0.57438 0.78672 0.0
C2825 C 0.30028 0.56746 0.79777 0.0
C2826 C 0.29731 0.55187 0.80262 0.0
C2827 C 0.28414 0.5431 0.7966 0.0
C2828 C 0.27388 0.54993 0.78574 0.0
C2829 C 0.2768 0.56551 0.78083 0.0
H2830 H 0.28186 0.53103 0.80037 0.0
H2831 H 0.31002 0.68246 0.75314 0.0
H2832 H 0.90551 0.47974 0.50716 0.0
H2833 H 0.88254 0.46233 0.51339 0.0
H2834 H 0.86438 0.46775 0.46562 0.0
H2835 H 0.88719 0.48547 0.4594 0.0
H2836 H 0.84137 0.47133 0.48823 0.0
H2837 H 0.88112 0.4339 0.47547 0.0
H2838 H 0.90735 0.4218 0.47718 0.0
H2839 H 0.89943 0.41237 0.52687 0.0
H2840 H 0.87324 0.42463 0.52552 0.0
H2841 H 0.78201 0.40962 0.49135 0.0
H2842 H 0.80552 0.42571 0.48397 0.0
H2843 H 0.82453 0.42131 0.53154 0.0
H2844 H 0.80109 0.40506 0.53903 0.0
H2845 H 0.84714 0.41689 0.50842 0.0
H2846 H 0.80763 0.45489 0.52124 0.0
H2847 H 0.78137 0.46692 0.51946 0.0
H2848 H 0.78887 0.47525 0.46949 0.0
H2849 H 0.8151 0.46305 0.47092 0.0
C2850 C 0.89659 0.47727 0.498 0.0
C2851 C 0.89814 0.48397 0.48279 0.0
C2852 C 0.88356 0.46722 0.50154 0.0
C2853 C 0.87184 0.46365 0.48992 0.0
C2854 C 0.87333 0.47033 0.47473 0.0
C2855 C 0.88641 0.48034 0.47116 0.0
C2856 C 0.85786 0.45324 0.49378 0.0
C2857 C 0.84261 0.45934 0.49241 0.0
C2858 C 0.85954 0.43773 0.49958 0.0
C2859 C 0.87528 0.43033 0.50043 0.0
C2860 C 0.88503 0.42937 0.4868 0.0
C2861 C 0.89988 0.42246 0.4877 0.0
C2862 C 0.90507 0.41636 0.50214 0.0
C2863 C 0.8954 0.41712 0.5157 0.0
C2864 C 0.88055 0.42404 0.51488 0.0
C2865 C 0.7912 0.41203 0.50026 0.0
C2866 C 0.78965 0.40611 0.51581 0.0
C2867 C 0.8046 0.42128 0.49602 0.0
C2868 C 0.81667 0.42482 0.50726 0.0
C2869 C 0.81532 0.41871 0.52271 0.0
C2870 C 0.80189 0.40949 0.52698 0.0
C2871 C 0.83067 0.43501 0.50292 0.0
C2872 C 0.84591 0.42887 0.5042 0.0
C2873 C 0.82899 0.45048 0.49703 0.0
C2874 C 0.81326 0.45791 0.49616 0.0
C2875 C 0.80363 0.45917 0.50984 0.0
C2876 C 0.78876 0.46604 0.5089 0.0
C2877 C 0.78344 0.4718 0.49436 0.0
C2878 C 0.793 0.47075 0.48074 0.0
C2879 C 0.80787 0.46387 0.48161 0.0
H2880 H 0.77192 0.47712 0.49365 0.0
H2881 H 0.91657 0.411 0.5028 0.0
H2882 H 0.75123 0.86794 0.80334 0.0
H2883 H 0.73304 0.88958 0.79976 0.0
H2884 H 0.71586 0.8675 0.75577 0.0
H2885 H 0.73444 0.84606 0.7591 0.0
H2886 H 0.71963 0.89784 0.75181 0.0
H2887 H 0.69408 0.86585 0.79149 0.0
H2888 H 0.69186 0.85108 0.8166 0.0
H2889 H 0.70177 0.89404 0.84368 0.0
H2890 H 0.70427 0.90904 0.81871 0.0
H2891 H 0.65063 0.94457 0.74703 0.0
H2892 H 0.66777 0.92197 0.75015 0.0
H2893 H 0.69168 0.94602 0.78981 0.0
H2894 H 0.67465 0.96869 0.78677 0.0
H2895 H 0.68345 0.9141 0.79557 0.0
H2896 H 0.70946 0.94564 0.75494 0.0
H2897 H 0.7108 0.95986 0.72946 0.0
H2898 H 0.69857 0.91662 0.70371 0.0
H2899 H 0.69694 0.90217 0.72908 0.0
C2900 C 0.74352 0.8677 0.79295 0.0
C2901 C 0.74415 0.85532 0.78154 0.0
C2902 C 0.73309 0.88003 0.79093 0.0
C2903 C 0.72284 0.88002 0.77765 0.0
C2904 C 0.72362 0.86774 0.76613 0.0
C2905 C 0.73422 0.85552 0.76803 0.0
C2906 C 0.71147 0.89292 0.77571 0.0
C2907 C 0.71155 0.90121 0.7613 0.0
C2908 C 0.70107 0.89751 0.78816 0.0
C2909 C 0.6995 0.88854 0.80322 0.0
C2910 C 0.6959 0.87213 0.80279 0.0
C2911 C 0.69457 0.86372 0.817 0.0
C2912 C 0.69671 0.87161 0.83173 0.0
C2913 C 0.70013 0.88794 0.83227 0.0
C2914 C 0.70149 0.89641 0.81809 0.0
C2915 C 0.6595 0.94504 0.75645 0.0
C2916 C 0.66133 0.95844 0.76662 0.0
C2917 C 0.6693 0.93214 0.75818 0.0
C2918 C 0.68104 0.93241 0.77013 0.0
C2919 C 0.68268 0.94562 0.7805 0.0
C2920 C 0.67298 0.95857 0.77871 0.0
C2921 C 0.69174 0.91897 0.77176 0.0
C2922 C 0.6915 0.91062 0.78609 0.0
C2923 C 0.70186 0.91421 0.75918 0.0
C2924 C 0.70291 0.92286 0.74392 0.0
C2925 C 0.70693 0.93919 0.74386 0.0
C2926 C 0.70777 0.94728 0.72943 0.0
C2927 C 0.70473 0.93916 0.71498 0.0
C2928 C 0.7009 0.9229 0.71492 0.0
C2929 C 0.70002 0.91475 0.72932 0.0
H2930 H 0.70539 0.94545 0.70382 0.0
H2931 H 0.69567 0.86508 0.84272 0.0
H2932 H 0.58905 0.54499 0.97128 0.0
H2933 H 0.61195 0.56308 0.97654 0.0
H2934 H 0.64341 0.52383 0.97291 0.0
H2935 H 0.62055 0.50568 0.96781 0.0
H2936 H 0.65088 0.54192 0.99815 0.0
H2937 H 0.64029 0.55091 0.94267 0.0
H2938 H 0.62388 0.55734 0.91938 0.0
H2939 H 0.61487 0.60302 0.94027 0.0
H2940 H 0.63106 0.59677 0.96381 0.0
H2941 H 0.72415 0.58559 0.99168 0.0
H2942 H 0.70079 0.56824 0.98631 0.0
H2943 H 0.67028 0.60796 0.99251 0.0
H2944 H 0.69362 0.62547 0.99773 0.0
H2945 H 0.66207 0.59006 0.96628 0.0
H2946 H 0.67308 0.58103 0.02163 0.0
H2947 H 0.68974 0.57451 0.04472 0.0
H2948 H 0.6982 0.52874 0.02375 0.0
H2949 H 0.68176 0.53507 0.00041 0.0
C2950 C 0.60087 0.54026 0.97145 0.0
C2951 C 0.60302 0.52393 0.96912 0.0
C2952 C 0.61394 0.55059 0.97445 0.0
C2953 C 0.62942 0.54483 0.97496 0.0
C2954 C 0.63158 0.52853 0.97261 0.0
C2955 C 0.61851 0.51818 0.96972 0.0
C2956 C 0.64335 0.55571 0.97826 0.0
C2957 C 0.65344 0.55233 0.99104 0.0
C2958 C 0.64646 0.56951 0.96924 0.0
C2959 C 0.63676 0.57331 0.95507 0.0
C2960 C 0.63471 0.56228 0.94236 0.0
C2961 C 0.62546 0.5659 0.9291 0.0
C2962 C 0.6183 0.58056 0.92836 0.0
C2963 C 0.62041 0.59166 0.94087 0.0
C2964 C 0.62963 0.58809 0.95416 0.0
C2965 C 0.71248 0.59065 0.99194 0.0
C2966 C 0.71074 0.60691 0.99519 0.0
C2967 C 0.69913 0.5807 0.98891 0.0
C2968 C 0.68379 0.58679 0.98918 0.0
C2969 C 0.68202 0.60303 0.99227 0.0
C2970 C 0.69537 0.613 0.9953 0.0
C2971 C 0.66962 0.57621 0.9861 0.0
C2972 C 0.65948 0.57965 0.97338 0.0
C2973 C 0.66648 0.56245 0.99515 0.0
C2974 C 0.67631 0.55858 0.0092 0.0
C2975 C 0.67859 0.56962 0.02188 0.0
C2976 C 0.68798 0.56595 0.03503 0.0
C2977 C 0.69506 0.55124 0.03568 0.0
C2978 C 0.69273 0.54014 0.02322 0.0
C2979 C 0.68336 0.54376 0.01004 0.0
H2980 H 0.70232 0.54842 0.04587 0.0
H2981 H 0.61115 0.58335 0.91809 0.0
H2982 H 0.24071 0.63673 0.19605 0.0
H2983 H 0.22382 0.61281 0.19932 0.0
H2984 H 0.21278 0.62778 0.24754 0.0
H2985 H 0.22979 0.65166 0.24438 0.0
H2986 H 0.2199 0.59754 0.24676 0.0
H2987 H 0.18556 0.63013 0.21683 0.0
H2988 H 0.17792 0.64708 0.19458 0.0
H2989 H 0.18458 0.60861 0.16119 0.0
H2990 H 0.19248 0.59149 0.18323 0.0
H2991 H 0.15475 0.5433 0.25957 0.0
H2992 H 0.17098 0.56753 0.25568 0.0
H2993 H 0.18539 0.55009 0.20928 0.0
H2994 H 0.16915 0.52579 0.21305 0.0
H2995 H 0.17644 0.58142 0.209 0.0
H2996 H 0.21076 0.54893 0.23936 0.0
H2997 H 0.21797 0.53215 0.26188 0.0
H2998 H 0.21072 0.57084 0.29484 0.0
H2999 H 0.20324 0.58781 0.27252 0.0
C3000 C 0.23453 0.635 0.20727 0.0
C3001 C 0.23654 0.64607 0.21995 0.0
C3002 C 0.22488 0.62134 0.20913 0.0
C3003 C 0.2169 0.61858 0.22362 0.0
C3004 C 0.21884 0.62965 0.23627 0.0
C3005 C 0.22857 0.64327 0.23446 0.0
C3006 C 0.20689 0.60394 0.22576 0.0
C3007 C 0.21025 0.59415 0.23863 0.0
C3008 C 0.19453 0.59932 0.21494 0.0
C3009 C 0.18976 0.60958 0.20167 0.0
C3010 C 0.18552 0.62532 0.20473 0.0
C3011 C 0.18112 0.63495 0.19216 0.0
C3012 C 0.18081 0.62894 0.17648 0.0
C3013 C 0.18485 0.61326 0.17334 0.0
C3014 C 0.18928 0.60358 0.18587 0.0
C3015 C 0.16137 0.5446 0.24854 0.0
C3016 C 0.16071 0.5326 0.23664 0.0
C3017 C 0.17067 0.55843 0.24636 0.0
C3018 C 0.17946 0.56052 0.23225 0.0
C3019 C 0.17869 0.54867 0.22026 0.0
C3020 C 0.16946 0.53478 0.22247 0.0
C3021 C 0.18945 0.57512 0.23 0.0
C3022 C 0.18609 0.58487 0.21711 0.0
C3023 C 0.20175 0.57975 0.24085 0.0
C3024 C 0.20629 0.56959 0.25428 0.0
C3025 C 0.21057 0.55382 0.25143 0.0
C3026 C 0.21473 0.54428 0.26415 0.0
C3027 C 0.21476 0.55041 0.27979 0.0
C3028 C 0.21067 0.56611 0.28273 0.0
C3029 C 0.20649 0.57569 0.27004 0.0
H3030 H 0.21799 0.54301 0.28963 0.0
H3031 H 0.1774 0.63641 0.16676 0.0
H3032 H 0.90805 0.52155 0.99694 0.0
H3033 H 0.8861 0.53921 0.99239 0.0
H3034 H 0.87381 0.53745 0.04242 0.0
H3035 H 0.89547 0.51942 0.04698 0.0
H3036 H 0.84777 0.53365 0.02366 0.0
H3037 H 0.89281 0.56993 0.02758 0.0
H3038 H 0.91969 0.58066 0.02116 0.0
H3039 H 0.90553 0.58692 0.97241 0.0
H3040 H 0.8786 0.57601 0.97848 0.0
H3041 H 0.7951 0.59764 0.02388 0.0
H3042 H 0.81774 0.58111 0.02929 0.0
H3043 H 0.83002 0.58099 0.97922 0.0
H3044 H 0.80746 0.5976 0.97369 0.0
H3045 H 0.85618 0.5861 -0.00148 0.0
H3046 H 0.81133 0.54925 0.99459 0.0
H3047 H 0.78444 0.53857 0.0011 0.0
H3048 H 0.79837 0.53352 0.0501 0.0
H3049 H 0.8253 0.54439 0.04392 0.0
C3050 C 0.90061 0.52485 0.00695 0.0
C3051 C 0.9035 0.5191 0.02232 0.0
C3052 C 0.88817 0.53505 0.00437 0.0
C3053 C 0.87844 0.53977 0.0171 0.0
C3054 C 0.88123 0.534 0.03244 0.0
C3055 C 0.89368 0.5238 0.03504 0.0
C3056 C 0.86513 0.55048 0.01435 0.0
C3057 C 0.84964 0.54523 0.01839 0.0
C3058 C 0.86755 0.56542 0.00715 0.0
C3059 C 0.88373 0.572 0.00345 0.0
C3060 C 0.89546 0.57347 0.01545 0.0
C3061 C 0.9107 0.57961 0.01189 0.0
C3062 C 0.91433 0.58443 0.99638 0.0
C3063 C 0.90271 0.58316 0.98441 0.0
C3064 C 0.88745 0.57701 0.98791 0.0
C3065 C 0.80262 0.59413 0.01401 0.0
C3066 C 0.79943 0.59887 -0.00167 0.0
C3067 C 0.81552 0.58464 0.01712 0.0
C3068 C 0.82544 0.57971 0.00462 0.0
C3069 C 0.82248 0.58466 0.98902 0.0
C3070 C 0.80955 0.5941 0.98588 0.0
C3071 C 0.83884 0.56926 0.0078 0.0
C3072 C 0.85434 0.57455 0.00383 0.0
C3073 C 0.83644 0.55436 0.01509 0.0
C3074 C 0.82027 0.54779 0.01883 0.0
C3075 C 0.80862 0.54599 0.00678 0.0
C3076 C 0.79338 0.53988 0.01041 0.0
C3077 C 0.78969 0.53541 0.02602 0.0
C3078 C 0.80124 0.53701 0.03802 0.0
C3079 C 0.8165 0.54313 0.03446 0.0
H3080 H 0.77788 0.53068 0.0288 0.0
H3081 H 0.92614 0.58918 0.99364 0.0
H3082 H 0.0815 0.96698 0.02277 0.0
H3083 H 0.10357 0.94892 0.02051 0.0
H3084 H 0.1372 0.98858 0.02569 0.0
H3085 H 0.11515 0.0067 0.02769 0.0
H3086 H 0.14667 0.9689 0.00302 0.0
H3087 H 0.12817 0.96351 0.05706 0.0
H3088 H 0.10827 0.95858 0.07823 0.0
H3089 H 0.09846 0.91168 0.05906 0.0
H3090 H 0.11816 0.91641 0.03764 0.0
H3091 H 0.21492 0.92547 0.0207 0.0
H3092 H 0.19264 0.94323 0.02282 0.0
H3093 H 0.15951 0.90353 0.01531 0.0
H3094 H 0.18172 0.88562 0.01339 0.0
H3095 H 0.14975 0.92304 0.03906 0.0
H3096 H 0.16854 0.92857 0.98508 0.0
H3097 H 0.18864 0.93362 0.96413 0.0
H3098 H 0.19817 0.98047 0.98354 0.0
H3099 H 0.17826 0.97562 0.00475 0.0
C3100 C 0.09361 0.97182 0.02346 0.0
C3101 C 0.09662 0.98822 0.02548 0.0
C3102 C 0.1062 0.9615 0.0222 0.0
C3103 C 0.12204 0.96737 0.0232 0.0
C3104 C 0.12507 0.98378 0.02491 0.0
C3105 C 0.11248 0.99412 0.02602 0.0
C3106 C 0.13547 0.95641 0.02249 0.0
C3107 C 0.14745 0.959 0.01104 0.0
C3108 C 0.13631 0.94328 0.03273 0.0
C3109 C 0.12453 0.94038 0.04566 0.0
C3110 C 0.12169 0.95219 0.05729 0.0
C3111 C 0.11046 0.94942 0.06935 0.0
C3112 C 0.10208 0.93484 0.06997 0.0
C3113 C 0.10495 0.92298 0.05856 0.0
C3114 C 0.11615 0.92569 0.04647 0.0
C3115 C 0.2029 0.9205 0.01955 0.0
C3116 C 0.2001 0.90414 0.0168 0.0
C3117 C 0.19018 0.93068 0.0207 0.0
C3118 C 0.17444 0.92472 0.019 0.0
C3119 C 0.17158 0.90836 0.01661 0.0
C3120 C 0.18429 0.89816 0.01549 0.0
C3121 C 0.16094 0.93557 0.01962 0.0
C3122 C 0.14896 0.93295 0.03104 0.0
C3123 C 0.16012 0.9487 0.0094 0.0
C3124 C 0.17202 0.95168 0.99659 0.0
C3125 C 0.175 0.93991 0.98495 0.0
C3126 C 0.18634 0.94274 0.97302 0.0
C3127 C 0.1947 0.95735 0.97253 0.0
C3128 C 0.1917 0.96916 0.98395 0.0
C3129 C 0.18038 0.96638 0.99592 0.0
H3130 H 0.20348 0.95952 0.96328 0.0
H3131 H 0.09338 0.93272 0.0793 0.0
loop_
_geom_bond_atom_site_label_1
_geom_bond_atom_site_label_2
_geom_bond_distance
_geom_bond_site_symmetry_2
_ccdc_geom_bond_type
C0 C1 1.384 . S
C0 H13 0.947 . S
C0 C35 1.382 1_655 S
C1 C0 1.384 . S
C1 C2 1.378 1_655 S
C2 C1 1.378 1_455 S
C2 C3 1.378 . S
C2 H14 0.952 . S
C3 C2 1.378 . S
C3 H15 0.950 . S
C3 C34 1.383 . S
H4 C23 0.947 . S
H5 C24 0.946 1_565 S
H6 C26 0.953 . S
H7 C27 0.945 . S
H8 C29 0.952 . S
H9 C30 0.949 . S
H10 C32 0.950 . S
H11 C33 0.948 . S
H12 C35 0.951 . S
H13 C0 0.947 . S
H14 C2 0.952 . S
H15 C3 0.950 . S
N16 C19 1.382 . S
N16 C21 1.363 . S
N17 C19 1.371 . S
N17 C20 1.372 . S
N18 C20 1.361 . S
N18 C21 1.377 . S
C19 N16 1.382 . S
C19 N17 1.371 . S
C19 C22 1.480 . S
C20 N17 1.372 . S
C20 N18 1.361 . S
C20 C28 1.457 . S
C21 N16 1.363 . S
C21 N18 1.377 . S
C21 C34 1.479 . S
C22 C19 1.480 . S
C22 C23 1.383 . S
C22 C27 1.385 . S
C23 H4 0.947 . S
C23 C22 1.383 . S
C23 C24 1.388 . S
C24 H5 0.946 1_545 S
C24 C23 1.388 . S
C24 C25 1.384 . S
C25 C24 1.384 . S
C25 C26 1.377 . S
C26 H6 0.953 . S
C26 C25 1.377 . S
C26 C27 1.369 . S
C27 H7 0.945 . S
C27 C22 1.385 . S
C27 C26 1.369 . S
C28 C20 1.457 . S
C28 C29 1.372 . S
C28 C33 1.364 . S
C29 H8 0.952 . S
C29 C28 1.372 . S
C29 C30 1.389 1_554 S
C30 H9 0.949 . S
C30 C29 1.389 1_556 S
C30 C31 1.387 1_556 S
C31 C30 1.387 1_554 S
C31 C32 1.372 . S
C32 H10 0.950 . S
C32 C31 1.372 . S
C32 C33 1.379 . S
C33 H11 0.948 . S
C33 C28 1.364 . S
C33 C32 1.379 . S
C34 C3 1.383 . S
C34 C21 1.479 . S
C34 C35 1.398 . S
C35 C0 1.382 1_455 S
C35 H12 0.951 . S
C35 C34 1.398 . S
C36 C37 1.384 . S
C36 H49 0.947 . S
C36 C71 1.382 . S
C37 C36 1.384 . S
C37 C38 1.378 . S
C38 C37 1.378 . S
C38 C39 1.378 . S
C38 H50 0.952 . S
C39 C38 1.378 . S
C39 H51 0.950 . S
C39 C70 1.383 . S
H40 C59 0.947 . S
H41 C60 0.946 . S
H42 C62 0.953 . S
H43 C63 0.945 . S
H44 C65 0.952 . S
H45 C66 0.949 . S
H46 C68 0.950 . S
H47 C69 0.948 . S
H48 C71 0.951 . S
H49 C36 0.947 . S
H50 C38 0.952 . S
H51 C39 0.950 . S
N52 C55 1.382 . S
N52 C57 1.363 . S
N53 C55 1.371 . S
N53 C56 1.372 . S
N54 C56 1.361 . S
N54 C57 1.377 . S
C55 N52 1.382 . S
C55 N53 1.371 . S
C55 C58 1.480 . S
C56 N53 1.372 . S
C56 N54 1.361 . S
C56 C64 1.457 . S
C57 N52 1.363 . S
C57 N54 1.377 . S
C57 C70 1.479 . S
C58 C55 1.480 . S
C58 C59 1.383 . S
C58 C63 1.385 . S
C59 H40 0.947 . S
C59 C58 1.383 . S
C59 C60 1.388 . S
C60 H41 0.946 . S
C60 C59 1.388 . S
C60 C61 1.384 . S
C61 C60 1.384 . S
C61 C62 1.377 . S
C62 H42 0.953 . S
C62 C61 1.377 . S
C62 C63 1.369 . S
C63 H43 0.945 . S
C63 C58 1.385 . S
C63 C62 1.369 . S
C64 C56 1.457 . S
C64 C65 1.372 . S
C64 C69 1.364 . S
C65 H44 0.952 . S
C65 C64 1.372 . S
C65 C66 1.389 . S
C66 H45 0.949 . S
C66 C65 1.389 . S
C66 C67 1.387 . S
C67 C66 1.387 . S
C67 C68 1.372 . S
C68 H46 0.950 . S
C68 C67 1.372 . S
C68 C69 1.379 . S
C69 H47 0.948 . S
C69 C64 1.364 . S
C69 C68 1.379 . S
C70 C39 1.383 . S
C70 C57 1.479 . S
C70 C71 1.398 . S
C71 C36 1.382 . S
C71 H48 0.951 . S
C71 C70 1.398 . S
C72 C73 1.384 1_554 S
C72 H85 0.947 . S
C72 C107 1.382 . S
C73 C72 1.384 1_556 S
C73 C74 1.378 . S
C74 C73 1.378 . S
C74 C75 1.398 . S
C74 H86 0.952 . S
C75 C74 1.398 . S
C75 H87 0.961 . S
C75 C106 1.352 1_556 S
H76 C95 0.947 . S
H77 C96 0.946 . S
H78 C98 0.953 . S
H79 C99 0.945 . S
H80 C101 0.952 . S
H81 C102 0.949 . S
H82 C104 0.950 . S
H83 C105 0.948 . S
H84 C107 0.951 . S
H85 C72 0.947 . S
H86 C74 0.952 . S
H87 C75 0.961 . S
N88 C91 1.382 . S
N88 C93 1.363 . S
N89 C91 1.371 . S
N89 C92 1.372 . S
N90 C92 1.361 . S
N90 C93 1.377 . S
C91 N88 1.382 . S
C91 N89 1.371 . S
C91 C94 1.480 . S
C92 N89 1.372 . S
C92 N90 1.361 . S
C92 C100 1.457 . S
C93 N88 1.363 . S
C93 N90 1.377 . S
C93 C106 1.479 . S
C94 C91 1.480 . S
C94 C95 1.383 . S
C94 C99 1.385 . S
C95 H76 0.947 . S
C95 C94 1.383 . S
C95 C96 1.388 . S
C96 H77 0.946 . S
C96 C95 1.388 . S
C96 C97 1.384 . S
C97 C96 1.384 . S
C97 C98 1.377 . S
C98 H78 0.953 . S
C98 C97 1.377 . S
C98 C99 1.369 . S
C99 H79 0.945 . S
C99 C94 1.385 . S
C99 C98 1.369 . S
C100 C92 1.457 . S
C100 C101 1.372 . S
C100 C105 1.364 1_655 S
C101 H80 0.952 . S
C101 C100 1.372 . S
C101 C102 1.389 . S
C102 H81 0.949 . S
C102 C101 1.389 . S
C102 C103 1.387 1_655 S
C103 C102 1.387 1_455 S
C103 C104 1.372 . S
C104 H82 0.950 . S
C104 C103 1.372 . S
C104 C105 1.379 . S
C105 H83 0.948 . S
C105 C100 1.364 1_455 S
C105 C104 1.379 . S
C106 C75 1.352 1_554 S
C106 C93 1.479 . S
C106 C107 1.398 . S
C107 C72 1.382 . S
C107 H84 0.951 . S
C107 C106 1.398 . S
C108 C109 1.384 . S
C108 H121 0.947 . S
C108 C143 1.382 . S
C109 C108 1.384 . S
C109 C110 1.378 . S
C110 C109 1.378 . S
C110 C111 1.378 . S
C110 H122 0.952 . S
C111 C110 1.378 . S
C111 H123 0.950 . S
C111 C142 1.383 . S
H112 C131 0.947 . S
H113 C132 0.946 . S
H114 C134 0.953 . S
H115 C135 0.945 . S
H116 C137 0.952 . S
H117 C138 0.949 . S
H118 C140 0.950 . S
H119 C141 0.948 . S
H120 C143 0.951 . S
H121 C108 0.947 . S
H122 C110 0.952 . S
H123 C111 0.950 . S
N124 C127 1.382 . S
N124 C129 1.363 . S
N125 C127 1.371 . S
N125 C128 1.372 . S
N126 C128 1.361 . S
N126 C129 1.377 . S
C127 N124 1.382 . S
C127 N125 1.371 . S
C127 C130 1.480 . S
C128 N125 1.372 . S
C128 N126 1.361 . S
C128 C136 1.457 . S
C129 N124 1.363 . S
C129 N126 1.377 . S
C129 C142 1.479 . S
C130 C127 1.480 . S
C130 C131 1.383 . S
C130 C135 1.385 . S
C131 H112 0.947 . S
C131 C130 1.383 . S
C131 C132 1.388 . S
C132 H113 0.946 . S
C132 C131 1.388 . S
C132 C133 1.384 . S
C133 C132 1.384 . S
C133 C134 1.377 . S
C134 H114 0.953 . S
C134 C133 1.377 . S
C134 C135 1.369 . S
C135 H115 0.945 . S
C135 C130 1.385 . S
C135 C134 1.369 . S
C136 C128 1.457 . S
C136 C137 1.372 . S
C136 C141 1.364 . S
C137 H116 0.952 . S
C137 C136 1.372 . S
C137 C138 1.389 . S
C138 H117 0.949 . S
C138 C137 1.389 . S
C138 C139 1.387 . S
C139 C138 1.387 . S
C139 C140 1.372 . S
C140 H118 0.950 . S
C140 C139 1.372 . S
C140 C141 1.379 . S
C141 H119 0.948 . S
C141 C136 1.364 . S
C141 C140 1.379 . S
C142 C111 1.383 . S
C142 C129 1.479 . S
C142 C143 1.398 . S
C143 C108 1.382 . S
C143 H120 0.951 . S
C143 C142 1.398 . S
C144 C145 1.384 . S
C144 H157 0.947 . S
C144 C179 1.382 . S
C145 C144 1.384 . S
C145 C146 1.378 . S
C146 C145 1.378 . S
C146 C147 1.378 . S
C146 H158 0.952 . S
C147 C146 1.378 . S
C147 H159 0.950 . S
C147 C178 1.383 . S
H148 C167 0.947 . S
H149 C168 0.946 . S
H150 C170 0.953 1_545 S
H151 C171 0.945 . S
H152 C173 0.952 . S
H153 C174 0.949 . S
H154 C176 0.950 . S
H155 C177 0.948 . S
H156 C179 0.951 . S
H157 C144 0.947 . S
H158 C146 0.952 . S
H159 C147 0.950 . S
N160 C163 1.382 . S
N160 C165 1.363 . S
N161 C163 1.371 . S
N161 C164 1.372 . S
N162 C164 1.361 . S
N162 C165 1.377 . S
C163 N160 1.382 . S
C163 N161 1.371 . S
C163 C166 1.480 . S
C164 N161 1.372 . S
C164 N162 1.361 . S
C164 C172 1.457 . S
C165 N160 1.363 . S
C165 N162 1.377 . S
C165 C178 1.479 . S
C166 C163 1.480 . S
C166 C167 1.383 . S
C166 C171 1.385 . S
C167 H148 0.947 . S
C167 C166 1.383 . S
C167 C168 1.388 1_455 S
C168 H149 0.946 . S
C168 C167 1.388 1_655 S
C168 C169 1.384 . S
C169 C168 1.384 . S
C169 C170 1.377 1_655 S
C170 H150 0.953 1_565 S
C170 C169 1.377 1_455 S
C170 C171 1.369 . S
C171 H151 0.945 . S
C171 C166 1.385 . S
C171 C170 1.369 . S
C172 C164 1.457 . S
C172 C173 1.372 1_565 S
C172 C177 1.364 . S
C173 H152 0.952 . S
C173 C172 1.372 1_545 S
C173 C174 1.389 . S
C174 H153 0.949 . S
C174 C173 1.389 . S
C174 C175 1.387 . S
C175 C174 1.387 . S
C175 C176 1.372 1_545 S
C176 H154 0.950 . S
C176 C175 1.372 1_565 S
C176 C177 1.379 . S
C177 H155 0.948 . S
C177 C172 1.364 . S
C177 C176 1.379 . S
C178 C147 1.383 . S
C178 C165 1.479 . S
C178 C179 1.398 . S
C179 C144 1.382 . S
C179 H156 0.951 . S
C179 C178 1.398 . S
C180 C181 1.384 . S
C180 H193 0.947 . S
C180 C215 1.382 . S
C181 C180 1.384 . S
C181 C182 1.378 . S
C182 C181 1.378 . S
C182 C183 1.378 . S
C182 H194 0.952 . S
C183 C182 1.378 . S
C183 H195 0.950 . S
C183 C214 1.383 . S
H184 C203 0.947 . S
H185 C204 0.946 . S
H186 C206 0.953 . S
H187 C207 0.945 . S
H188 C209 0.952 . S
H189 C210 0.949 . S
H190 C212 0.950 . S
H191 C213 0.948 . S
H192 C215 0.951 . S
H193 C180 0.947 . S
H194 C182 0.952 . S
H195 C183 0.950 . S
N196 C199 1.382 . S
N196 C201 1.363 . S
N197 C199 1.371 . S
N197 C200 1.372 . S
N198 C200 1.361 . S
N198 C201 1.377 . S
C199 N196 1.382 . S
C199 N197 1.371 . S
C199 C202 1.480 . S
C200 N197 1.372 . S
C200 N198 1.361 . S
C200 C208 1.457 . S
C201 N196 1.363 . S
C201 N198 1.377 . S
C201 C214 1.479 . S
C202 C199 1.480 . S
C202 C203 1.383 . S
C202 C207 1.385 . S
C203 H184 0.947 . S
C203 C202 1.383 . S
C203 C204 1.388 . S
C204 H185 0.946 . S
C204 C203 1.388 . S
C204 C205 1.384 . S
C205 C204 1.384 . S
C205 C206 1.377 . S
C206 H186 0.953 . S
C206 C205 1.377 . S
C206 C207 1.369 . S
C207 H187 0.945 . S
C207 C202 1.385 . S
C207 C206 1.369 . S
C208 C200 1.457 . S
C208 C209 1.372 . S
C208 C213 1.364 . S
C209 H188 0.952 . S
C209 C208 1.372 . S
C209 C210 1.389 . S
C210 H189 0.949 . S
C210 C209 1.389 . S
C210 C211 1.387 . S
C211 C210 1.387 . S
C211 C212 1.372 . S
C212 H190 0.950 . S
C212 C211 1.372 . S
C212 C213 1.379 . S
C213 H191 0.948 . S
C213 C208 1.364 . S
C213 C212 1.379 . S
C214 C183 1.383 . S
C214 C201 1.479 . S
C214 C215 1.398 . S
C215 C180 1.382 . S
C215 H192 0.951 . S
C215 C214 1.398 . S
C216 C217 1.384 . S
C216 H229 0.947 . S
C216 C251 1.382 . S
C217 C216 1.384 . S
C217 C218 1.378 . S
C218 C217 1.378 . S
C218 C219 1.378 . S
C218 H230 0.952 . S
C219 C218 1.378 . S
C219 H231 0.950 . S
C219 C250 1.383 . S
H220 C239 0.947 . S
H221 C240 0.946 . S
H222 C242 0.953 . S
H223 C243 0.945 . S
H224 C245 0.952 . S
H225 C246 0.949 . S
H226 C248 0.950 . S
H227 C249 0.959 . S
H228 C251 0.951 . S
H229 C216 0.947 . S
H230 C218 0.952 . S
H231 C219 0.950 . S
N232 C235 1.382 . S
N232 C237 1.363 . S
N233 C235 1.371 . S
N233 C236 1.372 . S
N234 C236 1.361 . S
N234 C237 1.377 . S
C235 N232 1.382 . S
C235 N233 1.371 . S
C235 C238 1.480 . S
C236 N233 1.372 . S
C236 N234 1.361 . S
C236 C244 1.457 . S
C237 N232 1.363 . S
C237 N234 1.377 . S
C237 C250 1.479 . S
C238 C235 1.480 . S
C238 C239 1.383 . S
C238 C243 1.385 . S
C239 H220 0.947 . S
C239 C238 1.383 . S
C239 C240 1.388 . S
C240 H221 0.946 . S
C240 C239 1.388 . S
C240 C241 1.384 . S
C241 C240 1.384 . S
C241 C242 1.377 . S
C242 H222 0.953 . S
C242 C241 1.377 . S
C242 C243 1.369 . S
C243 H223 0.945 . S
C243 C238 1.385 . S
C243 C242 1.369 . S
C244 C236 1.457 . S
C244 C245 1.372 . S
C244 C249 1.326 1_655 S
C245 H224 0.952 . S
C245 C244 1.372 . S
C245 C246 1.389 . S
C246 H225 0.949 . S
C246 C245 1.389 . S
C246 C247 1.387 1_655 S
C247 C246 1.387 1_455 S
C247 C248 1.372 . S
C248 H226 0.950 . S
C248 C247 1.372 . S
C248 C249 1.407 . S
C249 H227 0.959 . S
C249 C244 1.326 1_455 S
C249 C248 1.407 . S
C250 C219 1.383 . S
C250 C237 1.479 . S
C250 C251 1.398 . S
C251 C216 1.382 . S
C251 H228 0.951 . S
C251 C250 1.398 . S
C252 C253 1.384 . S
C252 H265 0.947 . S
C252 C287 1.382 . S
C253 C252 1.384 . S
C253 C254 1.378 . S
C254 C253 1.378 . S
C254 C255 1.378 . S
C254 H266 0.952 . S
C255 C254 1.378 . S
C255 H267 0.950 . S
C255 C286 1.383 . S
H256 C275 0.947 . S
H257 C276 0.946 . S
H258 C278 0.953 . S
H259 C279 0.945 . S
H260 C281 0.952 . S
H261 C282 0.949 . S
H262 C284 0.950 . S
H263 C285 0.948 . S
H264 C287 0.951 . S
H265 C252 0.947 . S
H266 C254 0.952 . S
H267 C255 0.950 . S
N268 C271 1.382 . S
N268 C273 1.363 . S
N269 C271 1.371 . S
N269 C272 1.372 . S
N270 C272 1.361 . S
N270 C273 1.377 . S
C271 N268 1.382 . S
C271 N269 1.371 . S
C271 C274 1.480 . S
C272 N269 1.372 . S
C272 N270 1.361 . S
C272 C280 1.457 . S
C273 N268 1.363 . S
C273 N270 1.377 . S
C273 C286 1.479 . S
C274 C271 1.480 . S
C274 C275 1.383 . S
C274 C279 1.385 . S
C275 H256 0.947 . S
C275 C274 1.383 . S
C275 C276 1.388 . S
C276 H257 0.946 . S
C276 C275 1.388 . S
C276 C277 1.384 . S
C277 C276 1.384 . S
C277 C278 1.377 . S
C278 H258 0.953 . S
C278 C277 1.377 . S
C278 C279 1.369 . S
C279 H259 0.945 . S
C279 C274 1.385 . S
C279 C278 1.369 . S
C280 C272 1.457 . S
C280 C281 1.372 . S
C280 C285 1.364 . S
C281 H260 0.952 . S
C281 C280 1.372 . S
C281 C282 1.389 . S
C282 H261 0.949 . S
C282 C281 1.389 . S
C282 C283 1.387 . S
C283 C282 1.387 . S
C283 C284 1.372 . S
C284 H262 0.950 . S
C284 C283 1.372 . S
C284 C285 1.379 . S
C285 H263 0.948 . S
C285 C280 1.364 . S
C285 C284 1.379 . S
C286 C255 1.383 . S
C286 C273 1.479 . S
C286 C287 1.398 . S
C287 C252 1.382 . S
C287 H264 0.951 . S
C287 C286 1.398 . S
C288 C289 1.384 . S
C288 H301 0.947 . S
C288 C323 1.382 . S
C289 C288 1.384 . S
C289 C290 1.378 . S
C290 C289 1.378 . S
C290 C291 1.378 . S
C290 H302 0.952 . S
C291 C290 1.378 . S
C291 H303 0.950 . S
C291 C322 1.383 . S
H292 C311 0.947 . S
H293 C312 0.946 . S
H294 C314 0.953 . S
H295 C315 0.945 . S
H296 C317 0.952 . S
H297 C318 0.949 . S
H298 C320 0.950 . S
H299 C321 0.948 . S
H300 C323 0.951 . S
H301 C288 0.947 . S
H302 C290 0.952 . S
H303 C291 0.950 . S
N304 C307 1.382 . S
N304 C309 1.363 . S
N305 C307 1.371 . S
N305 C308 1.372 . S
N306 C308 1.361 . S
N306 C309 1.377 . S
C307 N304 1.382 . S
C307 N305 1.371 . S
C307 C310 1.480 . S
C308 N305 1.372 . S
C308 N306 1.361 . S
C308 C316 1.457 . S
C309 N304 1.363 . S
C309 N306 1.377 . S
C309 C322 1.479 . S
C310 C307 1.480 . S
C310 C311 1.383 . S
C310 C315 1.385 . S
C311 H292 0.947 . S
C311 C310 1.383 . S
C311 C312 1.388 . S
C312 H293 0.946 . S
C312 C311 1.388 . S
C312 C313 1.384 . S
C313 C312 1.384 . S
C313 C314 1.377 . S
C314 H294 0.953 . S
C314 C313 1.377 . S
C314 C315 1.369 . S
C315 H295 0.945 . S
C315 C310 1.385 . S
C315 C314 1.369 . S
C316 C308 1.457 . S
C316 C317 1.372 . S
C316 C321 1.364 . S
C317 H296 0.952 . S
C317 C316 1.372 . S
C317 C318 1.389 . S
C318 H297 0.949 . S
C318 C317 1.389 . S
C318 C319 1.387 . S
C319 C318 1.387 . S
C319 C320 1.372 . S
C320 H298 0.950 . S
C320 C319 1.372 . S
C320 C321 1.379 . S
C321 H299 0.948 . S
C321 C316 1.364 . S
C321 C320 1.379 . S
C322 C291 1.383 . S
C322 C309 1.479 . S
C322 C323 1.398 . S
C323 C288 1.382 . S
C323 H300 0.951 . S
C323 C322 1.398 . S
C324 C325 1.384 . S
C324 H337 0.947 . S
C324 C359 1.382 . S
C325 C324 1.384 . S
C325 C326 1.378 . S
C326 C325 1.378 . S
C326 C327 1.378 . S
C326 H338 0.952 . S
C327 C326 1.378 . S
C327 H339 0.950 . S
C327 C358 1.383 . S
H328 C347 0.947 . S
H329 C348 0.946 . S
H330 C350 0.953 . S
H331 C351 0.945 . S
H332 C353 0.952 . S
H333 C354 0.949 . S
H334 C356 0.950 . S
H335 C357 0.948 . S
H336 C359 0.951 . S
H337 C324 0.947 . S
H338 C326 0.952 . S
H339 C327 0.950 . S
N340 C343 1.382 . S
N340 C345 1.363 . S
N341 C343 1.371 . S
N341 C344 1.372 . S
N342 C344 1.361 . S
N342 C345 1.377 . S
C343 N340 1.382 . S
C343 N341 1.371 . S
C343 C346 1.480 . S
C344 N341 1.372 . S
C344 N342 1.361 . S
C344 C352 1.457 . S
C345 N340 1.363 . S
C345 N342 1.377 . S
C345 C358 1.479 . S
C346 C343 1.480 . S
C346 C347 1.383 . S
C346 C351 1.385 1_565 S
C347 H328 0.947 . S
C347 C346 1.383 . S
C347 C348 1.388 . S
C348 H329 0.946 . S
C348 C347 1.388 . S
C348 C349 1.384 1_565 S
C349 C348 1.384 1_545 S
C349 C350 1.377 . S
C350 H330 0.953 . S
C350 C349 1.377 . S
C350 C351 1.369 . S
C351 H331 0.945 . S
C351 C346 1.385 1_545 S
C351 C350 1.369 . S
C352 C344 1.457 . S
C352 C353 1.372 . S
C352 C357 1.364 . S
C353 H332 0.952 . S
C353 C352 1.372 . S
C353 C354 1.389 . S
C354 H333 0.949 . S
C354 C353 1.389 . S
C354 C355 1.387 . S
C355 C354 1.387 . S
C355 C356 1.372 . S
C356 H334 0.950 . S
C356 C355 1.372 . S
C356 C357 1.379 . S
C357 H335 0.948 . S
C357 C352 1.364 . S
C357 C356 1.379 . S
C358 C327 1.383 . S
C358 C345 1.479 . S
C358 C359 1.398 . S
C359 C324 1.382 . S
C359 H336 0.951 . S
C359 C358 1.398 . S
C360 C361 1.384 . S
C360 H373 0.947 . S
C360 C395 1.382 . S
C361 C360 1.384 . S
C361 C362 1.378 . S
C362 C361 1.378 . S
C362 C363 1.378 . S
C362 H374 0.952 . S
C363 C362 1.378 . S
C363 H375 0.950 . S
C363 C394 1.383 . S
H364 C383 0.947 . S
H365 C384 0.946 . S
H366 C386 0.953 . S
H367 C387 0.945 . S
H368 C389 0.952 . S
H369 C390 0.949 . S
H370 C392 0.950 . S
H371 C393 0.948 . S
H372 C395 0.951 . S
H373 C360 0.947 . S
H374 C362 0.952 . S
H375 C363 0.950 . S
N376 C379 1.382 . S
N376 C381 1.363 . S
N377 C379 1.371 . S
N377 C380 1.372 . S
N378 C380 1.361 . S
N378 C381 1.377 . S
C379 N376 1.382 . S
C379 N377 1.371 . S
C379 C382 1.480 . S
C380 N377 1.372 . S
C380 N378 1.361 . S
C380 C388 1.457 . S
C381 N376 1.363 . S
C381 N378 1.377 . S
C381 C394 1.479 . S
C382 C379 1.480 . S
C382 C383 1.383 . S
C382 C387 1.385 . S
C383 H364 0.947 . S
C383 C382 1.383 . S
C383 C384 1.388 . S
C384 H365 0.946 . S
C384 C383 1.388 . S
C384 C385 1.384 . S
C385 C384 1.384 . S
C385 C386 1.377 . S
C386 H366 0.953 . S
C386 C385 1.377 . S
C386 C387 1.369 . S
C387 H367 0.945 . S
C387 C382 1.385 . S
C387 C386 1.369 . S
C388 C380 1.457 . S
C388 C389 1.372 . S
C388 C393 1.364 . S
C389 H368 0.952 . S
C389 C388 1.372 . S
C389 C390 1.389 . S
C390 H369 0.949 . S
C390 C389 1.389 . S
C390 C391 1.387 . S
C391 C390 1.387 . S
C391 C392 1.372 . S
C392 H370 0.950 . S
C392 C391 1.372 . S
C392 C393 1.379 . S
C393 H371 0.948 . S
C393 C388 1.364 . S
C393 C392 1.379 . S
C394 C363 1.383 . S
C394 C381 1.479 . S
C394 C395 1.398 . S
C395 C360 1.382 . S
C395 H372 0.951 . S
C395 C394 1.398 . S
C396 C397 1.384 . S
C396 H409 0.947 . S
C396 C431 1.382 . S
C397 C396 1.384 . S
C397 C398 1.378 . S
C398 C397 1.378 . S
C398 C399 1.378 . S
C398 H410 0.952 . S
C399 C398 1.378 . S
C399 H411 0.950 . S
C399 C430 1.383 . S
H400 C419 0.947 . S
H401 C420 0.946 . S
H402 C422 0.953 . S
H403 C423 0.945 . S
H404 C425 0.952 . S
H405 C426 0.949 . S
H406 C428 0.950 . S
H407 C429 0.948 . S
H408 C431 0.951 . S
H409 C396 0.947 . S
H410 C398 0.952 . S
H411 C399 0.950 . S
N412 C415 1.382 . S
N412 C417 1.363 . S
N413 C415 1.371 . S
N413 C416 1.372 . S
N414 C416 1.361 . S
N414 C417 1.377 . S
C415 N412 1.382 . S
C415 N413 1.371 . S
C415 C418 1.480 . S
C416 N413 1.372 . S
C416 N414 1.361 . S
C416 C424 1.457 . S
C417 N412 1.363 . S
C417 N414 1.377 . S
C417 C430 1.479 . S
C418 C415 1.480 . S
C418 C419 1.383 . S
C418 C423 1.385 . S
C419 H400 0.947 . S
C419 C418 1.383 . S
C419 C420 1.388 . S
C420 H401 0.946 . S
C420 C419 1.388 . S
C420 C421 1.384 . S
C421 C420 1.384 . S
C421 C422 1.377 . S
C422 H402 0.953 . S
C422 C421 1.377 . S
C422 C423 1.369 . S
C423 H403 0.945 . S
C423 C418 1.385 . S
C423 C422 1.369 . S
C424 C416 1.457 . S
C424 C425 1.372 . S
C424 C429 1.364 . S
C425 H404 0.952 . S
C425 C424 1.372 . S
C425 C426 1.389 . S
C426 H405 0.949 . S
C426 C425 1.389 . S
C426 C427 1.387 . S
C427 C426 1.387 . S
C427 C428 1.372 . S
C428 H406 0.950 . S
C428 C427 1.372 . S
C428 C429 1.379 . S
C429 H407 0.948 . S
C429 C424 1.364 . S
C429 C428 1.379 . S
C430 C399 1.383 . S
C430 C417 1.479 . S
C430 C431 1.398 . S
C431 C396 1.382 . S
C431 H408 0.951 . S
C431 C430 1.398 . S
C432 C433 1.384 . S
C432 H445 0.947 . S
C432 C467 1.382 . S
C433 C432 1.384 . S
C433 C434 1.378 . S
C434 C433 1.378 . S
C434 C435 1.378 . S
C434 H446 0.952 . S
C435 C434 1.378 . S
C435 H447 0.950 . S
C435 C466 1.383 . S
H436 C455 0.947 . S
H437 C456 0.946 . S
H438 C458 0.953 . S
H439 C459 0.945 . S
H440 C461 0.952 . S
H441 C462 0.949 . S
H442 C464 0.950 . S
H443 C465 0.948 . S
H444 C467 0.951 . S
H445 C432 0.947 . S
H446 C434 0.952 . S
H447 C435 0.950 . S
N448 C451 1.382 . S
N448 C453 1.363 . S
N449 C451 1.371 . S
N449 C452 1.372 . S
N450 C452 1.361 . S
N450 C453 1.377 . S
C451 N448 1.382 . S
C451 N449 1.371 . S
C451 C454 1.480 . S
C452 N449 1.372 . S
C452 N450 1.361 . S
C452 C460 1.457 . S
C453 N448 1.363 . S
C453 N450 1.377 . S
C453 C466 1.479 . S
C454 C451 1.480 . S
C454 C455 1.383 . S
C454 C459 1.385 . S
C455 H436 0.947 . S
C455 C454 1.383 . S
C455 C456 1.388 . S
C456 H437 0.946 . S
C456 C455 1.388 . S
C456 C457 1.384 . S
C457 C456 1.384 . S
C457 C458 1.377 . S
C458 H438 0.953 . S
C458 C457 1.377 . S
C458 C459 1.369 . S
C459 H439 0.945 . S
C459 C454 1.385 . S
C459 C458 1.369 . S
C460 C452 1.457 . S
C460 C461 1.372 . S
C460 C465 1.364 . S
C461 H440 0.952 . S
C461 C460 1.372 . S
C461 C462 1.389 . S
C462 H441 0.949 . S
C462 C461 1.389 . S
C462 C463 1.387 . S
C463 C462 1.387 . S
C463 C464 1.372 . S
C464 H442 0.950 . S
C464 C463 1.372 . S
C464 C465 1.379 . S
C465 H443 0.948 . S
C465 C460 1.364 . S
C465 C464 1.379 . S
C466 C435 1.383 . S
C466 C453 1.479 . S
C466 C467 1.398 . S
C467 C432 1.382 . S
C467 H444 0.951 . S
C467 C466 1.398 . S
C468 C469 1.376 1_554 S
C468 H481 0.947 . S
C468 C503 1.382 1_554 S
C469 C468 1.376 1_556 S
C469 C470 1.430 . S
C470 C469 1.430 . S
C470 C471 1.378 . S
C470 H482 0.952 . S
C471 C470 1.378 . S
C471 H483 0.950 . S
C471 C502 1.383 . S
H472 C491 0.947 . S
H473 C492 0.946 . S
H474 C494 0.953 . S
H475 C495 0.945 . S
H476 C497 0.952 . S
H477 C498 0.949 . S
H478 C500 0.950 . S
H479 C501 0.948 . S
H480 C503 0.951 . S
H481 C468 0.947 . S
H482 C470 0.952 . S
H483 C471 0.950 . S
N484 C487 1.382 . S
N484 C489 1.363 . S
N485 C487 1.371 . S
N485 C488 1.372 . S
N486 C488 1.361 . S
N486 C489 1.377 . S
C487 N484 1.382 . S
C487 N485 1.371 . S
C487 C490 1.480 . S
C488 N485 1.372 . S
C488 N486 1.361 . S
C488 C496 1.457 . S
C489 N484 1.363 . S
C489 N486 1.377 . S
C489 C502 1.479 . S
C490 C487 1.480 . S
C490 C491 1.383 . S
C490 C495 1.385 . S
C491 H472 0.947 . S
C491 C490 1.383 . S
C491 C492 1.388 . S
C492 H473 0.946 . S
C492 C491 1.388 . S
C492 C493 1.384 . S
C493 C492 1.384 . S
C493 C494 1.377 . S
C494 H474 0.953 . S
C494 C493 1.377 . S
C494 C495 1.369 . S
C495 H475 0.945 . S
C495 C490 1.385 . S
C495 C494 1.369 . S
C496 C488 1.457 . S
C496 C497 1.372 . S
C496 C501 1.364 . S
C497 H476 0.952 . S
C497 C496 1.372 . S
C497 C498 1.389 . S
C498 H477 0.949 . S
C498 C497 1.389 . S
C498 C499 1.387 . S
C499 C498 1.387 . S
C499 C500 1.372 . S
C500 H478 0.950 . S
C500 C499 1.372 . S
C500 C501 1.379 . S
C501 H479 0.948 . S
C501 C496 1.364 . S
C501 C500 1.379 . S
C502 C471 1.383 . S
C502 C489 1.479 . S
C502 C503 1.398 . S
C503 C468 1.382 1_556 S
C503 H480 0.951 . S
C503 C502 1.398 . S
C504 C505 1.384 . S
C504 H517 0.947 . S
C504 C539 1.382 . S
C505 C504 1.384 . S
C505 C506 1.378 . S
C506 C505 1.378 . S
C506 C507 1.378 . S
C506 H518 0.952 . S
C507 C506 1.378 . S
C507 H519 0.950 . S
C507 C538 1.383 . S
H508 C527 0.947 . S
H509 C528 0.946 . S
H510 C530 0.953 . S
H511 C531 0.945 . S
H512 C533 0.952 . S
H513 C534 0.949 . S
H514 C536 0.950 . S
H515 C537 0.948 . S
H516 C539 0.951 . S
H517 C504 0.947 . S
H518 C506 0.952 . S
H519 C507 0.950 . S
N520 C523 1.382 . S
N520 C525 1.363 . S
N521 C523 1.371 . S
N521 C524 1.372 . S
N522 C524 1.361 . S
N522 C525 1.377 . S
C523 N520 1.382 . S
C523 N521 1.371 . S
C523 C526 1.480 . S
C524 N521 1.372 . S
C524 N522 1.361 . S
C524 C532 1.457 . S
C525 N520 1.363 . S
C525 N522 1.377 . S
C525 C538 1.479 . S
C526 C523 1.480 . S
C526 C527 1.383 . S
C526 C531 1.385 . S
C527 H508 0.947 . S
C527 C526 1.383 . S
C527 C528 1.388 . S
C528 H509 0.946 . S
C528 C527 1.388 . S
C528 C529 1.384 . S
C529 C528 1.384 . S
C529 C530 1.377 . S
C530 H510 0.953 . S
C530 C529 1.377 . S
C530 C531 1.369 . S
C531 H511 0.945 . S
C531 C526 1.385 . S
C531 C530 1.369 . S
C532 C524 1.457 . S
C532 C533 1.372 . S
C532 C537 1.364 . S
C533 H512 0.952 . S
C533 C532 1.372 . S
C533 C534 1.389 . S
C534 H513 0.949 . S
C534 C533 1.389 . S
C534 C535 1.387 . S
C535 C534 1.387 . S
C535 C536 1.372 . S
C536 H514 0.950 . S
C536 C535 1.372 . S
C536 C537 1.379 . S
C537 H515 0.948 . S
C537 C532 1.364 . S
C537 C536 1.379 . S
C538 C507 1.383 . S
C538 C525 1.479 . S
C538 C539 1.398 . S
C539 C504 1.382 . S
C539 H516 0.951 . S
C539 C538 1.398 . S
C540 C541 1.384 1_556 S
C540 H553 0.947 . S
C540 C575 1.382 . S
C541 C540 1.384 1_554 S
C541 C542 1.378 . S
C542 C541 1.378 . S
C542 C543 1.378 . S
C542 H554 0.952 . S
C543 C542 1.378 . S
C543 H555 0.950 . S
C543 C574 1.383 1_554 S
H544 C563 0.947 . S
H545 C564 0.946 . S
H546 C566 0.953 . S
H547 C567 0.945 . S
H548 C569 0.952 . S
H549 C570 0.949 . S
H550 C572 0.950 . S
H551 C573 0.948 . S
H552 C575 0.951 . S
H553 C540 0.947 . S
H554 C542 0.952 . S
H555 C543 0.950 . S
N556 C559 1.382 . S
N556 C561 1.363 . S
N557 C559 1.371 . S
N557 C560 1.372 . S
N558 C560 1.361 . S
N558 C561 1.377 . S
C559 N556 1.382 . S
C559 N557 1.371 . S
C559 C562 1.480 . S
C560 N557 1.372 . S
C560 N558 1.361 . S
C560 C568 1.457 . S
C561 N556 1.363 . S
C561 N558 1.377 . S
C561 C574 1.479 . S
C562 C559 1.480 . S
C562 C563 1.383 . S
C562 C567 1.385 . S
C563 H544 0.947 . S
C563 C562 1.383 . S
C563 C564 1.388 . S
C564 H545 0.946 . S
C564 C563 1.388 . S
C564 C565 1.359 1_545 S
C565 C564 1.359 1_565 S
C565 C566 1.384 . S
C566 H546 0.953 . S
C566 C565 1.384 . S
C566 C567 1.369 1_565 S
C567 H547 0.945 . S
C567 C562 1.385 . S
C567 C566 1.369 1_545 S
C568 C560 1.457 . S
C568 C569 1.372 . S
C568 C573 1.364 . S
C569 H548 0.952 . S
C569 C568 1.372 . S
C569 C570 1.389 . S
C570 H549 0.949 . S
C570 C569 1.389 . S
C570 C571 1.387 . S
C571 C570 1.387 . S
C571 C572 1.372 . S
C572 H550 0.950 . S
C572 C571 1.372 . S
C572 C573 1.379 . S
C573 H551 0.948 . S
C573 C568 1.364 . S
C573 C572 1.379 . S
C574 C543 1.383 1_556 S
C574 C561 1.479 . S
C574 C575 1.398 . S
C575 C540 1.382 . S
C575 H552 0.951 . S
C575 C574 1.398 . S
C576 O577 1.160 1_554 S
C576 O583 1.185 . S
O577 C576 1.160 1_556 S
O578 Zn579 1.899 1_556 S
O578 C586 1.284 . S
Zn579 O578 1.899 1_554 S
Zn579 O580 2.032 . S
Zn579 O583 2.086 . S
Zn579 O588 1.977 . S
O580 Zn579 2.032 . S
O580 C584 1.278 . S
C581 O582 1.203 . S
C581 O588 1.267 . S
O582 C581 1.203 . S
O583 C576 1.185 . S
O583 Zn579 2.086 . S
C584 O580 1.278 . S
C584 O585 1.211 . S
O585 C584 1.211 . S
C586 O578 1.284 . S
C586 O587 1.273 . S
O587 C586 1.273 . S
O588 Zn579 1.977 . S
O588 C581 1.267 . S
C589 O590 1.160 . S
C589 O596 1.185 . S
O590 C589 1.160 . S
O591 Zn592 1.899 . S
O591 C599 1.284 . S
Zn592 O591 1.899 . S
Zn592 O593 2.032 . S
Zn592 O596 2.086 . S
Zn592 O601 1.977 . S
O593 Zn592 2.032 . S
O593 C597 1.278 . S
C594 O595 1.203 . S
C594 O601 1.267 . S
O595 C594 1.203 . S
O596 C589 1.185 . S
O596 Zn592 2.086 . S
C597 O593 1.278 . S
C597 O598 1.211 . S
O598 C597 1.211 . S
C599 O591 1.284 . S
C599 O600 1.273 . S
O600 C599 1.273 . S
O601 Zn592 1.977 . S
O601 C594 1.267 . S
C602 O603 1.160 1_554 S
C602 O609 1.185 . S
O603 C602 1.160 1_556 S
O604 Zn605 1.899 1_556 S
O604 C612 1.284 . S
Zn605 O604 1.899 1_554 S
Zn605 O606 2.032 1_554 S
Zn605 O609 2.086 . S
Zn605 O614 1.977 . S
O606 Zn605 2.032 1_556 S
O606 C610 1.278 . S
C607 O608 1.203 . S
C607 O614 1.267 . S
O608 C607 1.203 . S
O609 C602 1.185 . S
O609 Zn605 2.086 . S
C610 O606 1.278 . S
C610 O611 1.211 1_556 S
O611 C610 1.211 1_554 S
C612 O604 1.284 . S
C612 O613 1.273 . S
O613 C612 1.273 . S
O614 Zn605 1.977 . S
O614 C607 1.267 . S
C615 O616 1.160 . S
C615 O622 1.185 . S
O616 C615 1.160 . S
O617 Zn618 1.899 . S
O617 C625 1.284 . S
Zn618 O617 1.899 . S
Zn618 O619 2.032 . S
Zn618 O622 2.086 . S
Zn618 O627 1.977 . S
O619 Zn618 2.032 . S
O619 C623 1.278 1_545 S
C620 O621 1.203 . S
C620 O627 1.267 . S
O621 C620 1.203 . S
O622 C615 1.185 . S
O622 Zn618 2.086 . S
C623 O619 1.278 1_565 S
C623 O624 1.211 . S
O624 C623 1.211 . S
C625 O617 1.284 . S
C625 O626 1.273 1_545 S
O626 C625 1.273 1_565 S
O627 Zn618 1.977 . S
O627 C620 1.267 . S
C628 O629 1.160 . S
C628 O635 1.185 . S
O629 C628 1.160 . S
O630 Zn631 1.899 . S
O630 C638 1.284 . S
Zn631 O630 1.899 . S
Zn631 O632 2.032 . S
Zn631 O635 2.086 . S
Zn631 O640 1.977 . S
O632 Zn631 2.032 . S
O632 C636 1.278 . S
C633 O634 1.203 . S
C633 O640 1.267 . S
O634 C633 1.203 . S
O635 C628 1.185 . S
O635 Zn631 2.086 . S
C636 O632 1.278 . S
C636 O637 1.211 . S
O637 C636 1.211 . S
C638 O630 1.284 . S
C638 O639 1.273 . S
O639 C638 1.273 . S
O640 Zn631 1.977 . S
O640 C633 1.267 . S
C641 O642 1.160 . S
C641 O648 1.185 . S
O642 C641 1.160 . S
O643 Zn644 1.899 . S
O643 C651 1.284 . S
Zn644 O643 1.899 . S
Zn644 O645 2.032 . S
Zn644 O648 2.086 . S
Zn644 O653 1.977 . S
O645 Zn644 2.032 . S
O645 C649 1.278 . S
C646 O647 1.203 . S
C646 O653 1.267 . S
O647 C646 1.203 . S
O648 C641 1.185 . S
O648 Zn644 2.086 . S
C649 O645 1.278 . S
C649 O650 1.211 . S
O650 C649 1.211 . S
C651 O643 1.284 . S
C651 O652 1.273 . S
O652 C651 1.273 . S
O653 Zn644 1.977 . S
O653 C646 1.267 . S
C654 O655 1.160 . S
C654 O661 1.185 . S
O655 C654 1.160 . S
O656 Zn657 1.899 . S
O656 C664 1.284 . S
Zn657 O656 1.899 . S
Zn657 O658 2.032 . S
Zn657 O661 2.086 . S
Zn657 O666 1.977 . S
O658 Zn657 2.032 . S
O658 C662 1.278 . S
C659 O660 1.203 . S
C659 O666 1.267 . S
O660 C659 1.203 . S
O661 C654 1.185 . S
O661 Zn657 2.086 . S
C662 O658 1.278 . S
C662 O663 1.211 . S
O663 C662 1.211 . S
C664 O656 1.284 . S
C664 O665 1.273 . S
O665 C664 1.273 . S
O666 Zn657 1.977 . S
O666 C659 1.267 . S
C667 O668 1.160 . S
C667 O674 1.185 . S
O668 C667 1.160 . S
O669 Zn670 1.899 . S
O669 C677 1.284 1_565 S
Zn670 O669 1.899 . S
Zn670 O671 2.032 1_565 S
Zn670 O674 2.086 . S
Zn670 O679 1.977 . S
O671 Zn670 2.032 1_545 S
O671 C675 1.278 . S
C672 O673 1.203 1_565 S
C672 O679 1.267 . S
O673 C672 1.203 1_545 S
O674 C667 1.185 . S
O674 Zn670 2.086 . S
C675 O671 1.278 . S
C675 O676 1.211 . S
O676 C675 1.211 . S
C677 O669 1.284 1_545 S
C677 O678 1.273 . S
O678 C677 1.273 . S
O679 Zn670 1.977 . S
O679 C672 1.267 . S
C680 O681 1.160 1_455 S
C680 O687 1.185 . S
O681 C680 1.160 1_655 S
O682 Zn683 1.899 1_655 S
O682 C690 1.284 . S
Zn683 O682 1.899 1_455 S
Zn683 O684 2.017 1_455 S
Zn683 O687 2.086 . S
Zn683 O692 1.977 . S
O684 Zn683 2.017 1_655 S
O684 C688 1.274 1_655 S
C685 O686 1.203 . S
C685 O692 1.267 . S
O686 C685 1.203 . S
O687 C680 1.185 . S
O687 Zn683 2.086 . S
C688 O684 1.274 1_455 S
C688 O689 1.232 . S
O689 C688 1.232 . S
C690 O682 1.284 . S
C690 O691 1.273 . S
O691 C690 1.273 . S
O692 Zn683 1.977 . S
O692 C685 1.267 . S
C693 O694 1.160 . S
C693 O700 1.185 . S
O694 C693 1.160 . S
O695 Zn696 1.899 . S
O695 C703 1.284 . S
Zn696 O695 1.899 . S
Zn696 O697 2.032 . S
Zn696 O700 2.086 . S
Zn696 O705 1.977 . S
O697 Zn696 2.032 . S
O697 C701 1.278 . S
C698 O699 1.203 . S
C698 O705 1.267 . S
O699 C698 1.203 . S
O700 C693 1.185 . S
O700 Zn696 2.086 . S
C701 O697 1.278 . S
C701 O702 1.211 . S
O702 C701 1.211 . S
C703 O695 1.284 . S
C703 O704 1.273 . S
O704 C703 1.273 . S
O705 Zn696 1.977 . S
O705 C698 1.267 . S
C706 O707 1.160 1_455 S
C706 O713 1.185 . S
O707 C706 1.160 1_655 S
O708 Zn709 1.899 1_655 S
O708 C716 1.284 . S
Zn709 O708 1.899 1_455 S
Zn709 O710 2.027 1_455 S
Zn709 O713 2.086 . S
Zn709 O718 1.977 . S
O710 Zn709 2.027 1_655 S
O710 C714 1.275 1_655 S
C711 O712 1.203 . S
C711 O718 1.267 . S
O712 C711 1.203 . S
O713 C706 1.185 . S
O713 Zn709 2.086 . S
C714 O710 1.275 1_455 S
C714 O715 1.211 . S
O715 C714 1.211 . S
C716 O708 1.284 . S
C716 O717 1.273 . S
O717 C716 1.273 . S
O718 Zn709 1.977 . S
O718 C711 1.267 . S
C719 O720 1.160 . S
C719 O726 1.185 . S
O720 C719 1.160 . S
O721 Zn722 1.899 . S
O721 C729 1.284 . S
Zn722 O721 1.899 . S
Zn722 O723 2.032 . S
Zn722 O726 2.086 . S
Zn722 O731 1.977 . S
O723 Zn722 2.032 . S
O723 C727 1.278 . S
C724 O725 1.203 . S
C724 O731 1.267 . S
O725 C724 1.203 . S
O726 C719 1.185 . S
O726 Zn722 2.086 . S
C727 O723 1.278 . S
C727 O728 1.211 . S
O728 C727 1.211 . S
C729 O721 1.284 . S
C729 O730 1.273 . S
O730 C729 1.273 . S
O731 Zn722 1.977 . S
O731 C724 1.267 . S
H732 C750 0.951 . S
H733 C752 0.951 . S
H734 C754 0.950 . S
H735 C755 0.950 . S
H736 C757 0.950 . S
H737 C760 0.950 . S
H738 C761 0.950 . S
H739 C763 0.950 . S
H740 C764 0.950 . S
H741 C765 0.951 . S
H742 C767 0.951 . S
H743 C769 0.950 . S
H744 C770 0.950 . S
H745 C772 0.950 . S
H746 C775 0.950 . S
H747 C776 0.950 . S
H748 C778 0.950 . S
H749 C779 0.950 . S
C750 H732 0.951 . S
C750 C751 1.366 . S
C750 C752 1.388 . S
C751 C750 1.366 . S
C751 C755 1.385 . S
C752 H733 0.951 . S
C752 C750 1.388 . S
C752 C753 1.366 . S
C753 C752 1.366 . S
C753 C754 1.414 . S
C753 C756 1.499 . S
C754 H734 0.950 . S
C754 C753 1.414 . S
C754 C755 1.374 . S
C755 H735 0.950 . S
C755 C751 1.385 . S
C755 C754 1.374 . S
C756 C753 1.499 . S
C756 C757 1.373 . S
C756 C758 1.389 . S
C757 H736 0.950 . S
C757 C756 1.373 . S
C757 C773 1.377 . S
C758 C756 1.389 . S
C758 C759 1.524 . S
C758 C772 1.377 . S
C759 C758 1.524 . S
C759 C760 1.397 . S
C759 C764 1.363 . S
C760 H737 0.950 . S
C760 C759 1.397 . S
C760 C761 1.334 . S
C761 H738 0.950 . S
C761 C760 1.334 . S
C761 C762 1.287 . S
C762 C761 1.287 . S
C762 C763 1.524 . S
C762 H781 0.913 . S
C763 H739 0.950 . S
C763 C762 1.524 . S
C763 C764 1.415 . S
C764 H740 0.950 . S
C764 C759 1.363 . S
C764 C763 1.415 . S
C765 H741 0.951 . S
C765 C766 1.366 . S
C765 C767 1.388 . S
C766 C765 1.366 . S
C766 C770 1.385 . S
C767 H742 0.951 . S
C767 C765 1.388 . S
C767 C768 1.366 . S
C768 C767 1.366 . S
C768 C769 1.414 . S
C768 C771 1.499 . S
C769 H743 0.950 . S
C769 C768 1.414 . S
C769 C770 1.374 . S
C770 H744 0.950 . S
C770 C766 1.385 . S
C770 C769 1.374 . S
C771 C768 1.499 . S
C771 C772 1.373 . S
C771 C773 1.389 . S
C772 H745 0.950 . S
C772 C758 1.377 . S
C772 C771 1.373 . S
C773 C757 1.377 . S
C773 C771 1.389 . S
C773 C774 1.524 . S
C774 C773 1.524 . S
C774 C775 1.397 . S
C774 C779 1.363 . S
C775 H746 0.950 . S
C775 C774 1.397 . S
C775 C776 1.334 . S
C776 H747 0.950 . S
C776 C775 1.334 . S
C776 C777 1.287 . S
C777 C776 1.287 . S
C777 C778 1.524 . S
C777 H780 0.999 . S
C778 H748 0.950 . S
C778 C777 1.524 . S
C778 C779 1.415 . S
C779 H749 0.950 . S
C779 C774 1.363 . S
C779 C778 1.415 . S
H780 C777 0.999 . S
H781 C762 0.913 . S
H782 C800 0.951 . S
H783 C802 0.951 . S
H784 C804 0.950 . S
H785 C805 0.950 . S
H786 C807 0.950 . S
H787 C810 0.950 . S
H788 C811 0.950 1_655 S
H789 C813 0.983 . S
H790 C814 0.950 . S
H791 C815 0.951 . S
H792 C817 0.951 . S
H793 C819 0.950 . S
H794 C820 0.950 . S
H795 C822 0.950 . S
H796 C825 0.950 . S
H797 C826 0.950 . S
H798 C828 0.950 . S
H799 C829 0.950 . S
C800 H782 0.951 . S
C800 C801 1.366 . S
C800 C802 1.388 . S
C801 C800 1.366 . S
C801 C805 1.385 . S
C802 H783 0.951 . S
C802 C800 1.388 . S
C802 C803 1.366 . S
C803 C802 1.366 . S
C803 C804 1.414 . S
C803 C806 1.499 . S
C804 H784 0.950 . S
C804 C803 1.414 . S
C804 C805 1.374 . S
C805 H785 0.950 . S
C805 C801 1.385 . S
C805 C804 1.374 . S
C806 C803 1.499 . S
C806 C807 1.373 . S
C806 C808 1.389 . S
C807 H786 0.950 . S
C807 C806 1.373 . S
C807 C823 1.377 . S
C808 C806 1.389 . S
C808 C809 1.524 . S
C808 C822 1.377 . S
C809 C808 1.524 . S
C809 C810 1.397 . S
C809 C814 1.363 . S
C810 H787 0.950 . S
C810 C809 1.397 . S
C810 C811 1.334 . S
C811 H788 0.950 1_455 S
C811 C810 1.334 . S
C811 C812 1.287 1_455 S
C812 C811 1.287 1_655 S
C812 C813 1.538 . S
C812 H831 0.913 . S
C813 H789 0.983 . S
C813 C812 1.538 . S
C813 C814 1.365 1_655 S
C814 H790 0.950 . S
C814 C809 1.363 . S
C814 C813 1.365 1_455 S
C815 H791 0.951 . S
C815 C816 1.366 . S
C815 C817 1.388 . S
C816 C815 1.366 . S
C816 C820 1.385 . S
C817 H792 0.951 . S
C817 C815 1.388 . S
C817 C818 1.366 . S
C818 C817 1.366 . S
C818 C819 1.414 . S
C818 C821 1.499 . S
C819 H793 0.950 . S
C819 C818 1.414 . S
C819 C820 1.374 . S
C820 H794 0.950 . S
C820 C816 1.385 . S
C820 C819 1.374 . S
C821 C818 1.499 . S
C821 C822 1.373 . S
C821 C823 1.389 . S
C822 H795 0.950 . S
C822 C808 1.377 . S
C822 C821 1.373 . S
C823 C807 1.377 . S
C823 C821 1.389 . S
C823 C824 1.524 . S
C824 C823 1.524 . S
C824 C825 1.397 . S
C824 C829 1.363 . S
C825 H796 0.950 . S
C825 C824 1.397 . S
C825 C826 1.334 . S
C826 H797 0.950 . S
C826 C825 1.334 . S
C826 C827 1.287 . S
C827 C826 1.287 . S
C827 C828 1.524 . S
C827 H830 0.999 . S
C828 H798 0.950 . S
C828 C827 1.524 . S
C828 C829 1.415 . S
C829 H799 0.950 . S
C829 C824 1.363 . S
C829 C828 1.415 . S
H830 C827 0.999 . S
H831 C812 0.913 . S
H832 C850 0.951 . S
H833 C852 0.951 . S
H834 C854 0.950 . S
H835 C855 0.950 . S
H836 C857 0.950 . S
H837 C860 0.950 . S
H838 C861 0.950 . S
H839 C863 0.950 . S
H840 C864 0.950 . S
H841 C865 0.951 . S
H842 C867 0.951 . S
H843 C869 0.950 . S
H844 C870 0.950 . S
H845 C872 0.950 . S
H846 C875 0.950 . S
H847 C876 0.950 . S
H848 C878 0.950 . S
H849 C879 0.950 . S
C850 H832 0.951 . S
C850 C851 1.366 . S
C850 C852 1.388 . S
C851 C850 1.366 . S
C851 C855 1.385 . S
C852 H833 0.951 . S
C852 C850 1.388 . S
C852 C853 1.366 . S
C853 C852 1.366 . S
C853 C854 1.414 . S
C853 C856 1.499 . S
C854 H834 0.950 . S
C854 C853 1.414 . S
C854 C855 1.374 . S
C855 H835 0.950 . S
C855 C851 1.385 . S
C855 C854 1.374 . S
C856 C853 1.499 . S
C856 C857 1.373 . S
C856 C858 1.389 . S
C857 H836 0.950 . S
C857 C856 1.373 . S
C857 C873 1.377 . S
C858 C856 1.389 . S
C858 C859 1.524 . S
C858 C872 1.377 . S
C859 C858 1.524 . S
C859 C860 1.397 . S
C859 C864 1.363 . S
C860 H837 0.950 . S
C860 C859 1.397 . S
C860 C861 1.334 . S
C861 H838 0.950 . S
C861 C860 1.334 . S
C861 C862 1.287 . S
C862 C861 1.287 . S
C862 C863 1.524 . S
C862 H881 0.913 . S
C863 H839 0.950 . S
C863 C862 1.524 . S
C863 C864 1.415 . S
C864 H840 0.950 . S
C864 C859 1.363 . S
C864 C863 1.415 . S
C865 H841 0.951 . S
C865 C866 1.366 . S
C865 C867 1.388 . S
C866 C865 1.366 . S
C866 C870 1.385 . S
C867 H842 0.951 . S
C867 C865 1.388 . S
C867 C868 1.366 . S
C868 C867 1.366 . S
C868 C869 1.414 . S
C868 C871 1.499 . S
C869 H843 0.950 . S
C869 C868 1.414 . S
C869 C870 1.374 . S
C870 H844 0.950 . S
C870 C866 1.385 . S
C870 C869 1.374 . S
C871 C868 1.499 . S
C871 C872 1.373 . S
C871 C873 1.389 . S
C872 H845 0.950 . S
C872 C858 1.377 . S
C872 C871 1.373 . S
C873 C857 1.377 . S
C873 C871 1.389 . S
C873 C874 1.524 . S
C874 C873 1.524 . S
C874 C875 1.397 . S
C874 C879 1.363 . S
C875 H846 0.950 . S
C875 C874 1.397 . S
C875 C876 1.334 . S
C876 H847 0.950 . S
C876 C875 1.334 . S
C876 C877 1.287 . S
C877 C876 1.287 . S
C877 C878 1.524 . S
C877 H880 0.999 . S
C878 H848 0.950 . S
C878 C877 1.524 . S
C878 C879 1.415 . S
C879 H849 0.950 . S
C879 C874 1.363 . S
C879 C878 1.415 . S
H880 C877 0.999 . S
H881 C862 0.913 . S
H882 C900 0.951 . S
H883 C902 0.951 . S
H884 C904 0.950 . S
H885 C905 0.950 1_455 S
H886 C907 0.950 . S
H887 C910 0.950 . S
H888 C911 0.950 . S
H889 C913 0.950 . S
H890 C914 0.950 . S
H891 C915 0.951 . S
H892 C917 0.951 . S
H893 C919 0.950 1_565 S
H894 C920 0.950 . S
H895 C922 0.950 . S
H896 C925 0.950 . S
H897 C926 0.950 . S
H898 C928 0.950 . S
H899 C929 0.950 . S
C900 H882 0.951 . S
C900 C901 1.366 . S
C900 C902 1.388 . S
C901 C900 1.366 . S
C901 C905 1.385 . S
C902 H883 0.951 . S
C902 C900 1.388 . S
C902 C903 1.366 . S
C903 C902 1.366 . S
C903 C904 1.414 . S
C903 C906 1.499 . S
C904 H884 0.950 . S
C904 C903 1.414 . S
C904 C905 1.374 . S
C905 H885 0.950 1_655 S
C905 C901 1.385 . S
C905 C904 1.374 . S
C906 C903 1.499 . S
C906 C907 1.373 1_565 S
C906 C908 1.389 . S
C907 H886 0.950 . S
C907 C906 1.373 1_545 S
C907 C923 1.377 . S
C908 C906 1.389 . S
C908 C909 1.524 . S
C908 C922 1.377 . S
C909 C908 1.524 . S
C909 C910 1.397 . S
C909 C914 1.363 . S
C910 H887 0.950 . S
C910 C909 1.397 . S
C910 C911 1.334 . S
C911 H888 0.950 . S
C911 C910 1.334 . S
C911 C912 1.287 . S
C912 C911 1.287 . S
C912 C913 1.524 . S
C912 H931 0.913 . S
C913 H889 0.950 . S
C913 C912 1.524 . S
C913 C914 1.415 . S
C914 H890 0.950 . S
C914 C909 1.363 . S
C914 C913 1.415 . S
C915 H891 0.951 . S
C915 C916 1.366 . S
C915 C917 1.388 . S
C916 C915 1.366 . S
C916 C920 1.385 . S
C917 H892 0.951 . S
C917 C915 1.388 . S
C917 C918 1.366 . S
C918 C917 1.366 . S
C918 C919 1.414 . S
C918 C921 1.501 . S
C919 H893 0.950 1_545 S
C919 C918 1.414 . S
C919 C920 1.374 . S
C920 H894 0.950 . S
C920 C916 1.385 . S
C920 C919 1.374 . S
C921 C918 1.501 . S
C921 C922 1.363 1_545 S
C921 C923 1.396 . S
C922 H895 0.950 . S
C922 C908 1.377 . S
C922 C921 1.363 1_565 S
C923 C907 1.377 . S
C923 C921 1.396 . S
C923 C924 1.524 . S
C924 C923 1.524 . S
C924 C925 1.397 . S
C924 C929 1.363 . S
C925 H896 0.950 . S
C925 C924 1.397 . S
C925 C926 1.334 . S
C926 H897 0.950 . S
C926 C925 1.334 . S
C926 C927 1.287 . S
C927 C926 1.287 . S
C927 C928 1.524 . S
C927 H930 0.999 . S
C928 H898 0.950 . S
C928 C927 1.524 . S
C928 C929 1.415 . S
C929 H899 0.950 . S
C929 C924 1.363 . S
C929 C928 1.415 . S
H930 C927 0.999 . S
H931 C912 0.913 . S
H932 C950 0.951 . S
H933 C952 0.951 . S
H934 C954 0.950 . S
H935 C955 0.950 . S
H936 C957 0.950 . S
H937 C960 0.950 . S
H938 C961 0.950 . S
H939 C963 0.950 . S
H940 C964 0.950 . S
H941 C965 0.951 . S
H942 C967 0.951 . S
H943 C969 0.950 . S
H944 C970 0.950 . S
H945 C972 0.950 . S
H946 C975 0.950 . S
H947 C976 0.950 . S
H948 C978 0.950 . S
H949 C979 0.950 . S
C950 H932 0.951 . S
C950 C951 1.366 . S
C950 C952 1.388 . S
C951 C950 1.366 . S
C951 C955 1.385 . S
C952 H933 0.951 . S
C952 C950 1.388 . S
C952 C953 1.366 . S
C953 C952 1.366 . S
C953 C954 1.414 . S
C953 C956 1.499 . S
C954 H934 0.950 . S
C954 C953 1.414 . S
C954 C955 1.374 . S
C955 H935 0.950 . S
C955 C951 1.385 . S
C955 C954 1.374 . S
C956 C953 1.499 . S
C956 C957 1.373 . S
C956 C958 1.389 . S
C957 H936 0.950 . S
C957 C956 1.373 . S
C957 C973 1.377 . S
C958 C956 1.389 . S
C958 C959 1.524 . S
C958 C972 1.377 . S
C959 C958 1.524 . S
C959 C960 1.397 . S
C959 C964 1.363 . S
C960 H937 0.950 . S
C960 C959 1.397 . S
C960 C961 1.334 . S
C961 H938 0.950 . S
C961 C960 1.334 . S
C961 C962 1.287 . S
C962 C961 1.287 . S
C962 C963 1.524 . S
C962 H981 0.913 . S
C963 H939 0.950 . S
C963 C962 1.524 . S
C963 C964 1.415 . S
C964 H940 0.950 . S
C964 C959 1.363 . S
C964 C963 1.415 . S
C965 H941 0.951 . S
C965 C966 1.366 . S
C965 C967 1.388 . S
C966 C965 1.366 . S
C966 C970 1.385 . S
C967 H942 0.951 . S
C967 C965 1.388 . S
C967 C968 1.366 . S
C968 C967 1.366 . S
C968 C969 1.414 . S
C968 C971 1.499 . S
C969 H943 0.950 . S
C969 C968 1.414 . S
C969 C970 1.374 . S
C970 H944 0.950 . S
C970 C966 1.385 . S
C970 C969 1.374 . S
C971 C968 1.499 . S
C971 C972 1.373 . S
C971 C973 1.389 . S
C972 H945 0.950 . S
C972 C958 1.377 . S
C972 C971 1.373 . S
C973 C957 1.377 . S
C973 C971 1.389 . S
C973 C974 1.524 . S
C974 C973 1.524 . S
C974 C975 1.397 . S
C974 C979 1.363 . S
C975 H946 0.950 . S
C975 C974 1.397 . S
C975 C976 1.334 . S
C976 H947 0.950 . S
C976 C975 1.334 . S
C976 C977 1.287 . S
C977 C976 1.287 . S
C977 C978 1.524 . S
C977 H980 0.999 . S
C978 H948 0.950 . S
C978 C977 1.524 . S
C978 C979 1.415 . S
C979 H949 0.950 . S
C979 C974 1.363 . S
C979 C978 1.415 . S
H980 C977 0.999 . S
H981 C962 0.913 . S
H982 C1000 0.951 . S
H983 C1002 0.951 . S
H984 C1004 0.950 . S
H985 C1005 0.950 . S
H986 C1007 0.950 . S
H987 C1010 0.950 . S
H988 C1011 0.950 . S
H989 C1013 0.950 . S
H990 C1014 0.950 . S
H991 C1015 0.951 . S
H992 C1017 0.951 . S
H993 C1019 0.950 . S
H994 C1020 0.950 . S
H995 C1022 0.950 . S
H996 C1025 0.950 . S
H997 C1026 0.950 . S
H998 C1028 0.950 . S
H999 C1029 0.950 . S
C1000 H982 0.951 . S
C1000 C1001 1.366 . S
C1000 C1002 1.388 . S
C1001 C1000 1.366 . S
C1001 C1005 1.385 . S
C1002 H983 0.951 . S
C1002 C1000 1.388 . S
C1002 C1003 1.366 . S
C1003 C1002 1.366 . S
C1003 C1004 1.414 . S
C1003 C1006 1.499 . S
C1004 H984 0.950 . S
C1004 C1003 1.414 . S
C1004 C1005 1.374 . S
C1005 H985 0.950 . S
C1005 C1001 1.385 . S
C1005 C1004 1.374 . S
C1006 C1003 1.499 . S
C1006 C1007 1.373 . S
C1006 C1008 1.389 . S
C1007 H986 0.950 . S
C1007 C1006 1.373 . S
C1007 C1023 1.377 . S
C1008 C1006 1.389 . S
C1008 C1009 1.524 . S
C1008 C1022 1.377 . S
C1009 C1008 1.524 . S
C1009 C1010 1.397 . S
C1009 C1014 1.363 . S
C1010 H987 0.950 . S
C1010 C1009 1.397 . S
C1010 C1011 1.334 . S
C1011 H988 0.950 . S
C1011 C1010 1.334 . S
C1011 C1012 1.287 . S
C1012 C1011 1.287 . S
C1012 C1013 1.524 . S
C1012 H1031 0.913 . S
C1013 H989 0.950 . S
C1013 C1012 1.524 . S
C1013 C1014 1.415 . S
C1014 H990 0.950 . S
C1014 C1009 1.363 . S
C1014 C1013 1.415 . S
C1015 H991 0.951 . S
C1015 C1016 1.366 . S
C1015 C1017 1.388 . S
C1016 C1015 1.366 . S
C1016 C1020 1.385 . S
C1017 H992 0.951 . S
C1017 C1015 1.388 . S
C1017 C1018 1.366 . S
C1018 C1017 1.366 . S
C1018 C1019 1.414 . S
C1018 C1021 1.499 . S
C1019 H993 0.950 . S
C1019 C1018 1.414 . S
C1019 C1020 1.374 . S
C1020 H994 0.950 . S
C1020 C1016 1.385 . S
C1020 C1019 1.374 . S
C1021 C1018 1.499 . S
C1021 C1022 1.373 . S
C1021 C1023 1.389 . S
C1022 H995 0.950 . S
C1022 C1008 1.377 . S
C1022 C1021 1.373 . S
C1023 C1007 1.377 . S
C1023 C1021 1.389 . S
C1023 C1024 1.524 . S
C1024 C1023 1.524 . S
C1024 C1025 1.397 . S
C1024 C1029 1.363 . S
C1025 H996 0.950 . S
C1025 C1024 1.397 . S
C1025 C1026 1.334 . S
C1026 H997 0.950 . S
C1026 C1025 1.334 . S
C1026 C1027 1.287 . S
C1027 C1026 1.287 . S
C1027 C1028 1.524 . S
C1027 H1030 0.999 . S
C1028 H998 0.950 . S
C1028 C1027 1.524 . S
C1028 C1029 1.415 . S
C1029 H999 0.950 . S
C1029 C1024 1.363 . S
C1029 C1028 1.415 . S
H1030 C1027 0.999 . S
H1031 C1012 0.913 . S
H1032 C1050 0.951 . S
H1033 C1052 0.951 . S
H1034 C1054 0.950 . S
H1035 C1055 0.950 . S
H1036 C1057 0.950 . S
H1037 C1060 0.950 . S
H1038 C1061 0.950 . S
H1039 C1063 0.950 . S
H1040 C1064 0.950 . S
H1041 C1065 0.951 . S
H1042 C1067 0.951 . S
H1043 C1069 0.950 . S
H1044 C1070 0.950 . S
H1045 C1072 0.950 . S
H1046 C1075 0.950 . S
H1047 C1076 0.950 . S
H1048 C1078 0.950 . S
H1049 C1079 0.950 . S
C1050 H1032 0.951 . S
C1050 C1051 1.366 . S
C1050 C1052 1.388 . S
C1051 C1050 1.366 . S
C1051 C1055 1.385 . S
C1052 H1033 0.951 . S
C1052 C1050 1.388 . S
C1052 C1053 1.366 . S
C1053 C1052 1.366 . S
C1053 C1054 1.414 . S
C1053 C1056 1.499 . S
C1054 H1034 0.950 . S
C1054 C1053 1.414 . S
C1054 C1055 1.374 . S
C1055 H1035 0.950 . S
C1055 C1051 1.385 . S
C1055 C1054 1.374 . S
C1056 C1053 1.499 . S
C1056 C1057 1.373 . S
C1056 C1058 1.389 . S
C1057 H1036 0.950 . S
C1057 C1056 1.373 . S
C1057 C1073 1.377 . S
C1058 C1056 1.389 . S
C1058 C1059 1.524 . S
C1058 C1072 1.377 . S
C1059 C1058 1.524 . S
C1059 C1060 1.397 . S
C1059 C1064 1.363 . S
C1060 H1037 0.950 . S
C1060 C1059 1.397 . S
C1060 C1061 1.334 . S
C1061 H1038 0.950 . S
C1061 C1060 1.334 . S
C1061 C1062 1.287 . S
C1062 C1061 1.287 . S
C1062 C1063 1.524 . S
C1062 H1081 0.913 . S
C1063 H1039 0.950 . S
C1063 C1062 1.524 . S
C1063 C1064 1.415 . S
C1064 H1040 0.950 . S
C1064 C1059 1.363 . S
C1064 C1063 1.415 . S
C1065 H1041 0.951 . S
C1065 C1066 1.366 . S
C1065 C1067 1.388 . S
C1066 C1065 1.366 . S
C1066 C1070 1.385 . S
C1067 H1042 0.951 . S
C1067 C1065 1.388 . S
C1067 C1068 1.366 . S
C1068 C1067 1.366 . S
C1068 C1069 1.414 . S
C1068 C1071 1.499 . S
C1069 H1043 0.950 . S
C1069 C1068 1.414 . S
C1069 C1070 1.374 . S
C1070 H1044 0.950 . S
C1070 C1066 1.385 . S
C1070 C1069 1.374 . S
C1071 C1068 1.499 . S
C1071 C1072 1.373 . S
C1071 C1073 1.389 . S
C1072 H1045 0.950 . S
C1072 C1058 1.377 . S
C1072 C1071 1.373 . S
C1073 C1057 1.377 . S
C1073 C1071 1.389 . S
C1073 C1074 1.524 . S
C1074 C1073 1.524 . S
C1074 C1075 1.397 . S
C1074 C1079 1.363 . S
C1075 H1046 0.950 . S
C1075 C1074 1.397 . S
C1075 C1076 1.334 . S
C1076 H1047 0.950 . S
C1076 C1075 1.334 . S
C1076 C1077 1.287 . S
C1077 C1076 1.287 . S
C1077 C1078 1.524 . S
C1077 H1080 0.999 . S
C1078 H1048 0.950 . S
C1078 C1077 1.524 . S
C1078 C1079 1.415 . S
C1079 H1049 0.950 . S
C1079 C1074 1.363 . S
C1079 C1078 1.415 . S
H1080 C1077 0.999 . S
H1081 C1062 0.913 . S
H1082 C1100 0.951 . S
H1083 C1102 0.951 . S
H1084 C1104 0.950 1_545 S
H1085 C1105 0.950 . S
H1086 C1107 0.976 . S
H1087 C1110 0.950 . S
H1088 C1111 0.950 . S
H1089 C1113 0.950 . S
H1090 C1114 0.950 . S
H1091 C1115 0.951 . S
H1092 C1117 0.951 . S
H1093 C1119 0.950 . S
H1094 C1120 0.950 . S
H1095 C1122 0.950 . S
H1096 C1125 0.950 . S
H1097 C1126 0.950 . S
H1098 C1128 0.950 . S
H1099 C1129 0.950 . S
C1100 H1082 0.951 . S
C1100 C1101 1.366 . S
C1100 C1102 1.388 . S
C1101 C1100 1.366 . S
C1101 C1105 1.385 . S
C1102 H1083 0.951 . S
C1102 C1100 1.388 . S
C1102 C1103 1.366 . S
C1103 C1102 1.366 . S
C1103 C1104 1.414 . S
C1103 C1106 1.499 . S
C1104 H1084 0.950 1_565 S
C1104 C1103 1.414 . S
C1104 C1105 1.374 . S
C1105 H1085 0.950 . S
C1105 C1101 1.385 . S
C1105 C1104 1.374 . S
C1106 C1103 1.499 . S
C1106 C1107 1.346 1_565 S
C1106 C1108 1.389 . S
C1107 H1086 0.976 . S
C1107 C1106 1.346 1_545 S
C1107 C1123 1.379 . S
C1108 C1106 1.389 . S
C1108 C1109 1.524 . S
C1108 C1122 1.377 . S
C1109 C1108 1.524 . S
C1109 C1110 1.397 . S
C1109 C1114 1.363 . S
C1110 H1087 0.950 . S
C1110 C1109 1.397 . S
C1110 C1111 1.334 . S
C1111 H1088 0.950 . S
C1111 C1110 1.334 . S
C1111 C1112 1.287 . S
C1112 C1111 1.287 . S
C1112 C1113 1.524 . S
C1112 H1131 0.913 . S
C1113 H1089 0.950 . S
C1113 C1112 1.524 . S
C1113 C1114 1.415 . S
C1114 H1090 0.950 . S
C1114 C1109 1.363 . S
C1114 C1113 1.415 . S
C1115 H1091 0.951 . S
C1115 C1116 1.366 1_545 S
C1115 C1117 1.388 . S
C1116 C1115 1.366 1_565 S
C1116 C1120 1.385 . S
C1117 H1092 0.951 . S
C1117 C1115 1.388 . S
C1117 C1118 1.366 1_545 S
C1118 C1117 1.366 1_565 S
C1118 C1119 1.414 . S
C1118 C1121 1.499 . S
C1119 H1093 0.950 . S
C1119 C1118 1.414 . S
C1119 C1120 1.374 . S
C1120 H1094 0.950 . S
C1120 C1116 1.385 . S
C1120 C1119 1.374 . S
C1121 C1118 1.499 . S
C1121 C1122 1.373 . S
C1121 C1123 1.389 1_565 S
C1122 H1095 0.950 . S
C1122 C1108 1.377 . S
C1122 C1121 1.373 . S
C1123 C1107 1.379 . S
C1123 C1121 1.389 1_545 S
C1123 C1124 1.524 . S
C1124 C1123 1.524 . S
C1124 C1125 1.397 . S
C1124 C1129 1.363 . S
C1125 H1096 0.950 . S
C1125 C1124 1.397 . S
C1125 C1126 1.334 . S
C1126 H1097 0.950 . S
C1126 C1125 1.334 . S
C1126 C1127 1.287 . S
C1127 C1126 1.287 . S
C1127 C1128 1.524 . S
C1127 H1130 0.999 . S
C1128 H1098 0.950 . S
C1128 C1127 1.524 . S
C1128 C1129 1.415 . S
C1129 H1099 0.950 . S
C1129 C1124 1.363 . S
C1129 C1128 1.415 . S
H1130 C1127 0.999 . S
H1131 C1112 0.913 . S
H1132 C1150 0.951 . S
H1133 C1152 0.951 . S
H1134 C1154 0.950 . S
H1135 C1155 0.950 . S
H1136 C1157 0.950 . S
H1137 C1160 0.950 . S
H1138 C1161 0.950 . S
H1139 C1163 0.950 . S
H1140 C1164 0.950 . S
H1141 C1165 0.951 . S
H1142 C1167 0.951 . S
H1143 C1169 0.950 . S
H1144 C1170 0.950 . S
H1145 C1172 0.950 . S
H1146 C1175 0.950 . S
H1147 C1176 0.950 . S
H1148 C1178 0.950 . S
H1149 C1179 0.950 . S
C1150 H1132 0.951 . S
C1150 C1151 1.366 . S
C1150 C1152 1.388 . S
C1151 C1150 1.366 . S
C1151 C1155 1.385 . S
C1152 H1133 0.951 . S
C1152 C1150 1.388 . S
C1152 C1153 1.366 . S
C1153 C1152 1.366 . S
C1153 C1154 1.414 . S
C1153 C1156 1.499 . S
C1154 H1134 0.950 . S
C1154 C1153 1.414 . S
C1154 C1155 1.374 . S
C1155 H1135 0.950 . S
C1155 C1151 1.385 . S
C1155 C1154 1.374 . S
C1156 C1153 1.499 . S
C1156 C1157 1.373 . S
C1156 C1158 1.389 . S
C1157 H1136 0.950 . S
C1157 C1156 1.373 . S
C1157 C1173 1.377 . S
C1158 C1156 1.389 . S
C1158 C1159 1.524 . S
C1158 C1172 1.377 . S
C1159 C1158 1.524 . S
C1159 C1160 1.397 . S
C1159 C1164 1.363 . S
C1160 H1137 0.950 . S
C1160 C1159 1.397 . S
C1160 C1161 1.334 . S
C1161 H1138 0.950 . S
C1161 C1160 1.334 . S
C1161 C1162 1.287 . S
C1162 C1161 1.287 . S
C1162 C1163 1.524 . S
C1162 H1181 0.913 . S
C1163 H1139 0.950 . S
C1163 C1162 1.524 . S
C1163 C1164 1.415 . S
C1164 H1140 0.950 . S
C1164 C1159 1.363 . S
C1164 C1163 1.415 . S
C1165 H1141 0.951 . S
C1165 C1166 1.366 . S
C1165 C1167 1.388 . S
C1166 C1165 1.366 . S
C1166 C1170 1.385 . S
C1167 H1142 0.951 . S
C1167 C1165 1.388 . S
C1167 C1168 1.366 . S
C1168 C1167 1.366 . S
C1168 C1169 1.414 . S
C1168 C1171 1.499 . S
C1169 H1143 0.950 . S
C1169 C1168 1.414 . S
C1169 C1170 1.374 . S
C1170 H1144 0.950 . S
C1170 C1166 1.385 . S
C1170 C1169 1.374 . S
C1171 C1168 1.499 . S
C1171 C1172 1.373 . S
C1171 C1173 1.389 . S
C1172 H1145 0.950 . S
C1172 C1158 1.377 . S
C1172 C1171 1.373 . S
C1173 C1157 1.377 . S
C1173 C1171 1.389 . S
C1173 C1174 1.524 . S
C1174 C1173 1.524 . S
C1174 C1175 1.397 . S
C1174 C1179 1.363 . S
C1175 H1146 0.950 . S
C1175 C1174 1.397 . S
C1175 C1176 1.334 . S
C1176 H1147 0.950 . S
C1176 C1175 1.334 . S
C1176 C1177 1.287 . S
C1177 C1176 1.287 . S
C1177 C1178 1.524 . S
C1177 H1180 0.999 . S
C1178 H1148 0.950 . S
C1178 C1177 1.524 . S
C1178 C1179 1.415 . S
C1179 H1149 0.950 . S
C1179 C1174 1.363 . S
C1179 C1178 1.415 . S
H1180 C1177 0.999 . S
H1181 C1162 0.913 . S
H1182 C1200 0.951 . S
H1183 C1202 0.951 . S
H1184 C1204 0.950 . S
H1185 C1205 0.950 . S
H1186 C1207 0.950 . S
H1187 C1210 0.950 . S
H1188 C1211 0.950 . S
H1189 C1213 0.950 . S
H1190 C1214 0.950 . S
H1191 C1215 0.951 . S
H1192 C1217 0.951 . S
H1193 C1219 0.950 . S
H1194 C1220 0.950 . S
H1195 C1222 0.950 . S
H1196 C1225 0.950 . S
H1197 C1226 0.950 . S
H1198 C1228 0.950 . S
H1199 C1229 0.950 . S
C1200 H1182 0.951 . S
C1200 C1201 1.366 . S
C1200 C1202 1.388 . S
C1201 C1200 1.366 . S
C1201 C1205 1.385 . S
C1202 H1183 0.951 . S
C1202 C1200 1.388 . S
C1202 C1203 1.366 . S
C1203 C1202 1.366 . S
C1203 C1204 1.414 . S
C1203 C1206 1.499 . S
C1204 H1184 0.950 . S
C1204 C1203 1.414 . S
C1204 C1205 1.374 . S
C1205 H1185 0.950 . S
C1205 C1201 1.385 . S
C1205 C1204 1.374 . S
C1206 C1203 1.499 . S
C1206 C1207 1.373 . S
C1206 C1208 1.389 . S
C1207 H1186 0.950 . S
C1207 C1206 1.373 . S
C1207 C1223 1.377 . S
C1208 C1206 1.389 . S
C1208 C1209 1.524 . S
C1208 C1222 1.377 . S
C1209 C1208 1.524 . S
C1209 C1210 1.397 . S
C1209 C1214 1.363 . S
C1210 H1187 0.950 . S
C1210 C1209 1.397 . S
C1210 C1211 1.334 . S
C1211 H1188 0.950 . S
C1211 C1210 1.334 . S
C1211 C1212 1.287 . S
C1212 C1211 1.287 . S
C1212 C1213 1.524 . S
C1212 H1231 0.913 . S
C1213 H1189 0.950 . S
C1213 C1212 1.524 . S
C1213 C1214 1.415 . S
C1214 H1190 0.950 . S
C1214 C1209 1.363 . S
C1214 C1213 1.415 . S
C1215 H1191 0.951 . S
C1215 C1216 1.366 . S
C1215 C1217 1.388 . S
C1216 C1215 1.366 . S
C1216 C1220 1.385 . S
C1217 H1192 0.951 . S
C1217 C1215 1.388 . S
C1217 C1218 1.366 . S
C1218 C1217 1.366 . S
C1218 C1219 1.414 . S
C1218 C1221 1.499 . S
C1219 H1193 0.950 . S
C1219 C1218 1.414 . S
C1219 C1220 1.374 . S
C1220 H1194 0.950 . S
C1220 C1216 1.385 . S
C1220 C1219 1.374 . S
C1221 C1218 1.499 . S
C1221 C1222 1.373 . S
C1221 C1223 1.389 . S
C1222 H1195 0.950 . S
C1222 C1208 1.377 . S
C1222 C1221 1.373 . S
C1223 C1207 1.377 . S
C1223 C1221 1.389 . S
C1223 C1224 1.524 . S
C1224 C1223 1.524 . S
C1224 C1225 1.397 . S
C1224 C1229 1.363 . S
C1225 H1196 0.950 . S
C1225 C1224 1.397 . S
C1225 C1226 1.334 . S
C1226 H1197 0.950 . S
C1226 C1225 1.334 . S
C1226 C1227 1.287 . S
C1227 C1226 1.287 . S
C1227 C1228 1.524 . S
C1227 H1230 0.999 . S
C1228 H1198 0.950 . S
C1228 C1227 1.524 . S
C1228 C1229 1.415 . S
C1229 H1199 0.950 . S
C1229 C1224 1.363 . S
C1229 C1228 1.415 . S
H1230 C1227 0.999 . S
H1231 C1212 0.913 . S
H1232 C1250 0.951 . S
H1233 C1252 0.951 . S
H1234 C1254 0.950 . S
H1235 C1255 0.950 . S
H1236 C1257 0.950 . S
H1237 C1260 0.950 . S
H1238 C1261 0.950 . S
H1239 C1263 0.950 . S
H1240 C1264 0.950 . S
H1241 C1265 0.951 . S
H1242 C1267 0.951 . S
H1243 C1269 0.950 . S
H1244 C1270 0.950 . S
H1245 C1272 0.950 . S
H1246 C1275 0.950 . S
H1247 C1276 0.950 . S
H1248 C1278 0.950 . S
H1249 C1279 0.950 . S
C1250 H1232 0.951 . S
C1250 C1251 1.366 . S
C1250 C1252 1.388 . S
C1251 C1250 1.366 . S
C1251 C1255 1.385 . S
C1252 H1233 0.951 . S
C1252 C1250 1.388 . S
C1252 C1253 1.366 . S
C1253 C1252 1.366 . S
C1253 C1254 1.414 . S
C1253 C1256 1.499 . S
C1254 H1234 0.950 . S
C1254 C1253 1.414 . S
C1254 C1255 1.374 . S
C1255 H1235 0.950 . S
C1255 C1251 1.385 . S
C1255 C1254 1.374 . S
C1256 C1253 1.499 . S
C1256 C1257 1.373 . S
C1256 C1258 1.389 . S
C1257 H1236 0.950 . S
C1257 C1256 1.373 . S
C1257 C1273 1.377 . S
C1258 C1256 1.389 . S
C1258 C1259 1.524 . S
C1258 C1272 1.377 . S
C1259 C1258 1.524 . S
C1259 C1260 1.397 . S
C1259 C1264 1.363 . S
C1260 H1237 0.950 . S
C1260 C1259 1.397 . S
C1260 C1261 1.334 . S
C1261 H1238 0.950 . S
C1261 C1260 1.334 . S
C1261 C1262 1.287 . S
C1262 C1261 1.287 . S
C1262 C1263 1.524 . S
C1262 H1281 0.913 . S
C1263 H1239 0.950 . S
C1263 C1262 1.524 . S
C1263 C1264 1.415 . S
C1264 H1240 0.950 . S
C1264 C1259 1.363 . S
C1264 C1263 1.415 . S
C1265 H1241 0.951 . S
C1265 C1266 1.366 . S
C1265 C1267 1.388 . S
C1266 C1265 1.366 . S
C1266 C1270 1.385 . S
C1267 H1242 0.951 . S
C1267 C1265 1.388 . S
C1267 C1268 1.366 . S
C1268 C1267 1.366 . S
C1268 C1269 1.414 . S
C1268 C1271 1.499 . S
C1269 H1243 0.950 . S
C1269 C1268 1.414 . S
C1269 C1270 1.374 . S
C1270 H1244 0.950 . S
C1270 C1266 1.385 . S
C1270 C1269 1.374 . S
C1271 C1268 1.499 . S
C1271 C1272 1.373 . S
C1271 C1273 1.389 . S
C1272 H1245 0.950 . S
C1272 C1258 1.377 . S
C1272 C1271 1.373 . S
C1273 C1257 1.377 . S
C1273 C1271 1.389 . S
C1273 C1274 1.524 . S
C1274 C1273 1.524 . S
C1274 C1275 1.397 . S
C1274 C1279 1.363 . S
C1275 H1246 0.950 . S
C1275 C1274 1.397 . S
C1275 C1276 1.334 . S
C1276 H1247 0.950 . S
C1276 C1275 1.334 . S
C1276 C1277 1.287 . S
C1277 C1276 1.287 . S
C1277 C1278 1.524 . S
C1277 H1280 0.999 . S
C1278 H1248 0.950 . S
C1278 C1277 1.524 . S
C1278 C1279 1.415 . S
C1279 H1249 0.950 . S
C1279 C1274 1.363 . S
C1279 C1278 1.415 . S
H1280 C1277 0.999 . S
H1281 C1262 0.913 . S
H1282 C1300 0.951 . S
H1283 C1302 0.951 . S
H1284 C1304 0.950 . S
H1285 C1305 0.950 . S
H1286 C1307 0.950 . S
H1287 C1310 0.950 . S
H1288 C1311 0.950 . S
H1289 C1313 0.950 . S
H1290 C1314 0.950 . S
H1291 C1315 0.951 . S
H1292 C1317 0.951 . S
H1293 C1319 0.950 . S
H1294 C1320 0.950 . S
H1295 C1322 0.950 . S
H1296 C1325 0.950 . S
H1297 C1326 0.950 . S
H1298 C1328 0.950 . S
H1299 C1329 0.950 . S
C1300 H1282 0.951 . S
C1300 C1301 1.366 . S
C1300 C1302 1.388 . S
C1301 C1300 1.366 . S
C1301 C1305 1.385 . S
C1302 H1283 0.951 . S
C1302 C1300 1.388 . S
C1302 C1303 1.366 . S
C1303 C1302 1.366 . S
C1303 C1304 1.414 . S
C1303 C1306 1.499 . S
C1304 H1284 0.950 . S
C1304 C1303 1.414 . S
C1304 C1305 1.374 . S
C1305 H1285 0.950 . S
C1305 C1301 1.385 . S
C1305 C1304 1.374 . S
C1306 C1303 1.499 . S
C1306 C1307 1.373 . S
C1306 C1308 1.389 . S
C1307 H1286 0.950 . S
C1307 C1306 1.373 . S
C1307 C1323 1.377 . S
C1308 C1306 1.389 . S
C1308 C1309 1.524 . S
C1308 C1322 1.377 . S
C1309 C1308 1.524 . S
C1309 C1310 1.397 . S
C1309 C1314 1.363 . S
C1310 H1287 0.950 . S
C1310 C1309 1.397 . S
C1310 C1311 1.334 . S
C1311 H1288 0.950 . S
C1311 C1310 1.334 . S
C1311 C1312 1.287 . S
C1312 C1311 1.287 . S
C1312 C1313 1.524 . S
C1312 H1331 0.913 . S
C1313 H1289 0.950 . S
C1313 C1312 1.524 . S
C1313 C1314 1.415 . S
C1314 H1290 0.950 . S
C1314 C1309 1.363 . S
C1314 C1313 1.415 . S
C1315 H1291 0.951 . S
C1315 C1316 1.366 . S
C1315 C1317 1.388 . S
C1316 C1315 1.366 . S
C1316 C1320 1.385 . S
C1317 H1292 0.951 . S
C1317 C1315 1.388 . S
C1317 C1318 1.366 . S
C1318 C1317 1.366 . S
C1318 C1319 1.414 . S
C1318 C1321 1.499 . S
C1319 H1293 0.950 . S
C1319 C1318 1.414 . S
C1319 C1320 1.374 . S
C1320 H1294 0.950 . S
C1320 C1316 1.385 . S
C1320 C1319 1.374 . S
C1321 C1318 1.499 . S
C1321 C1322 1.373 . S
C1321 C1323 1.389 . S
C1322 H1295 0.950 . S
C1322 C1308 1.377 . S
C1322 C1321 1.373 . S
C1323 C1307 1.377 . S
C1323 C1321 1.389 . S
C1323 C1324 1.524 . S
C1324 C1323 1.524 . S
C1324 C1325 1.397 . S
C1324 C1329 1.363 . S
C1325 H1296 0.950 . S
C1325 C1324 1.397 . S
C1325 C1326 1.334 . S
C1326 H1297 0.950 . S
C1326 C1325 1.334 . S
C1326 C1327 1.287 . S
C1327 C1326 1.287 . S
C1327 C1328 1.524 . S
C1327 H1330 0.999 . S
C1328 H1298 0.950 . S
C1328 C1327 1.524 . S
C1328 C1329 1.415 . S
C1329 H1299 0.950 . S
C1329 C1324 1.363 . S
C1329 C1328 1.415 . S
H1330 C1327 0.999 . S
H1331 C1312 0.913 . S
H1332 C1350 0.951 . S
H1333 C1352 0.951 . S
H1334 C1354 0.950 . S
H1335 C1355 0.950 . S
H1336 C1357 0.950 . S
H1337 C1360 0.950 . S
H1338 C1361 0.950 . S
H1339 C1363 0.950 . S
H1340 C1364 0.950 . S
H1341 C1365 0.951 . S
H1342 C1367 0.951 . S
H1343 C1369 0.950 . S
H1344 C1370 0.950 . S
H1345 C1372 0.950 . S
H1346 C1375 0.950 . S
H1347 C1376 0.950 . S
H1348 C1378 0.950 . S
H1349 C1379 0.950 . S
C1350 H1332 0.951 . S
C1350 C1351 1.366 . S
C1350 C1352 1.388 . S
C1351 C1350 1.366 . S
C1351 C1355 1.385 . S
C1352 H1333 0.951 . S
C1352 C1350 1.388 . S
C1352 C1353 1.366 . S
C1353 C1352 1.366 . S
C1353 C1354 1.414 . S
C1353 C1356 1.499 . S
C1354 H1334 0.950 . S
C1354 C1353 1.414 . S
C1354 C1355 1.374 . S
C1355 H1335 0.950 . S
C1355 C1351 1.385 . S
C1355 C1354 1.374 . S
C1356 C1353 1.499 . S
C1356 C1357 1.373 . S
C1356 C1358 1.389 . S
C1357 H1336 0.950 . S
C1357 C1356 1.373 . S
C1357 C1373 1.377 . S
C1358 C1356 1.389 . S
C1358 C1359 1.524 . S
C1358 C1372 1.377 . S
C1359 C1358 1.524 . S
C1359 C1360 1.397 . S
C1359 C1364 1.363 . S
C1360 H1337 0.950 . S
C1360 C1359 1.397 . S
C1360 C1361 1.334 . S
C1361 H1338 0.950 . S
C1361 C1360 1.334 . S
C1361 C1362 1.287 . S
C1362 C1361 1.287 . S
C1362 C1363 1.524 . S
C1362 H1381 0.913 . S
C1363 H1339 0.950 . S
C1363 C1362 1.524 . S
C1363 C1364 1.415 . S
C1364 H1340 0.950 . S
C1364 C1359 1.363 . S
C1364 C1363 1.415 . S
C1365 H1341 0.951 . S
C1365 C1366 1.366 . S
C1365 C1367 1.388 . S
C1366 C1365 1.366 . S
C1366 C1370 1.385 . S
C1367 H1342 0.951 . S
C1367 C1365 1.388 . S
C1367 C1368 1.366 . S
C1368 C1367 1.366 . S
C1368 C1369 1.414 . S
C1368 C1371 1.499 . S
C1369 H1343 0.950 . S
C1369 C1368 1.414 . S
C1369 C1370 1.374 . S
C1370 H1344 0.950 . S
C1370 C1366 1.385 . S
C1370 C1369 1.374 . S
C1371 C1368 1.499 . S
C1371 C1372 1.373 . S
C1371 C1373 1.389 . S
C1372 H1345 0.950 . S
C1372 C1358 1.377 . S
C1372 C1371 1.373 . S
C1373 C1357 1.377 . S
C1373 C1371 1.389 . S
C1373 C1374 1.524 . S
C1374 C1373 1.524 . S
C1374 C1375 1.397 . S
C1374 C1379 1.363 . S
C1375 H1346 0.950 . S
C1375 C1374 1.397 . S
C1375 C1376 1.334 . S
C1376 H1347 0.950 . S
C1376 C1375 1.334 . S
C1376 C1377 1.287 . S
C1377 C1376 1.287 . S
C1377 C1378 1.524 . S
C1377 H1380 0.999 . S
C1378 H1348 0.950 . S
C1378 C1377 1.524 . S
C1378 C1379 1.415 . S
C1379 H1349 0.950 . S
C1379 C1374 1.363 . S
C1379 C1378 1.415 . S
H1380 C1377 0.999 . S
H1381 C1362 0.913 . S
H1382 C1400 0.951 . S
H1383 C1402 0.951 . S
H1384 C1404 0.950 . S
H1385 C1405 0.950 . S
H1386 C1407 0.950 . S
H1387 C1410 0.950 . S
H1388 C1411 0.950 . S
H1389 C1413 0.950 . S
H1390 C1414 0.950 1_455 S
H1391 C1415 0.951 . S
H1392 C1417 0.951 . S
H1393 C1419 0.950 . S
H1394 C1420 0.950 . S
H1395 C1422 0.973 . S
H1396 C1425 0.950 . S
H1397 C1426 0.950 . S
H1398 C1428 0.950 . S
H1399 C1429 0.950 . S
C1400 H1382 0.951 . S
C1400 C1401 1.366 . S
C1400 C1402 1.388 . S
C1401 C1400 1.366 . S
C1401 C1405 1.385 . S
C1402 H1383 0.951 . S
C1402 C1400 1.388 . S
C1402 C1403 1.366 . S
C1403 C1402 1.366 . S
C1403 C1404 1.414 . S
C1403 C1406 1.499 . S
C1404 H1384 0.950 . S
C1404 C1403 1.414 . S
C1404 C1405 1.374 . S
C1405 H1385 0.950 . S
C1405 C1401 1.385 . S
C1405 C1404 1.374 . S
C1406 C1403 1.499 . S
C1406 C1407 1.373 . S
C1406 C1408 1.389 . S
C1407 H1386 0.950 . S
C1407 C1406 1.373 . S
C1407 C1423 1.377 . S
C1408 C1406 1.389 . S
C1408 C1409 1.524 1_455 S
C1408 C1422 1.377 . S
C1409 C1408 1.524 1_655 S
C1409 C1410 1.397 . S
C1409 C1414 1.363 . S
C1410 H1387 0.950 . S
C1410 C1409 1.397 . S
C1410 C1411 1.334 . S
C1411 H1388 0.950 . S
C1411 C1410 1.334 . S
C1411 C1412 1.287 . S
C1412 C1411 1.287 . S
C1412 C1413 1.524 . S
C1412 H1431 0.913 . S
C1413 H1389 0.950 . S
C1413 C1412 1.524 . S
C1413 C1414 1.415 . S
C1414 H1390 0.950 1_655 S
C1414 C1409 1.363 . S
C1414 C1413 1.415 . S
C1415 H1391 0.951 . S
C1415 C1416 1.366 . S
C1415 C1417 1.388 . S
C1416 C1415 1.366 . S
C1416 C1420 1.385 . S
C1417 H1392 0.951 . S
C1417 C1415 1.388 . S
C1417 C1418 1.366 . S
C1418 C1417 1.366 . S
C1418 C1419 1.414 . S
C1418 C1421 1.499 . S
C1419 H1393 0.950 . S
C1419 C1418 1.414 . S
C1419 C1420 1.374 . S
C1420 H1394 0.950 . S
C1420 C1416 1.385 . S
C1420 C1419 1.374 . S
C1421 C1418 1.499 . S
C1421 C1422 1.373 . S
C1421 C1423 1.389 . S
C1422 H1395 0.973 . S
C1422 C1408 1.377 . S
C1422 C1421 1.373 . S
C1423 C1407 1.377 . S
C1423 C1421 1.389 . S
C1423 C1424 1.524 . S
C1424 C1423 1.524 . S
C1424 C1425 1.397 . S
C1424 C1429 1.363 . S
C1425 H1396 0.950 . S
C1425 C1424 1.397 . S
C1425 C1426 1.334 . S
C1426 H1397 0.950 . S
C1426 C1425 1.334 . S
C1426 C1427 1.287 . S
C1427 C1426 1.287 . S
C1427 C1428 1.524 . S
C1427 H1430 0.999 . S
C1428 H1398 0.950 . S
C1428 C1427 1.524 . S
C1428 C1429 1.415 . S
C1429 H1399 0.950 . S
C1429 C1424 1.363 . S
C1429 C1428 1.415 . S
H1430 C1427 0.999 . S
H1431 C1412 0.913 . S
H1432 C1450 0.951 . S
H1433 C1452 0.951 . S
H1434 C1454 0.950 . S
H1435 C1455 0.950 . S
H1436 C1457 0.950 . S
H1437 C1460 0.950 . S
H1438 C1461 0.950 . S
H1439 C1463 0.950 . S
H1440 C1464 0.950 . S
H1441 C1465 0.951 . S
H1442 C1467 0.951 . S
H1443 C1469 0.950 . S
H1444 C1470 0.950 . S
H1445 C1472 0.950 . S
H1446 C1475 0.950 . S
H1447 C1476 0.950 . S
H1448 C1478 0.950 . S
H1449 C1479 0.950 . S
C1450 H1432 0.951 . S
C1450 C1451 1.366 . S
C1450 C1452 1.388 . S
C1451 C1450 1.366 . S
C1451 C1455 1.385 . S
C1452 H1433 0.951 . S
C1452 C1450 1.388 . S
C1452 C1453 1.366 . S
C1453 C1452 1.366 . S
C1453 C1454 1.414 . S
C1453 C1456 1.499 . S
C1454 H1434 0.950 . S
C1454 C1453 1.414 . S
C1454 C1455 1.374 . S
C1455 H1435 0.950 . S
C1455 C1451 1.385 . S
C1455 C1454 1.374 . S
C1456 C1453 1.499 . S
C1456 C1457 1.373 . S
C1456 C1458 1.389 . S
C1457 H1436 0.950 . S
C1457 C1456 1.373 . S
C1457 C1473 1.377 . S
C1458 C1456 1.389 . S
C1458 C1459 1.524 . S
C1458 C1472 1.377 . S
C1459 C1458 1.524 . S
C1459 C1460 1.397 . S
C1459 C1464 1.363 . S
C1460 H1437 0.950 . S
C1460 C1459 1.397 . S
C1460 C1461 1.334 . S
C1461 H1438 0.950 . S
C1461 C1460 1.334 . S
C1461 C1462 1.287 . S
C1462 C1461 1.287 . S
C1462 C1463 1.524 . S
C1462 H1481 0.913 . S
C1463 H1439 0.950 . S
C1463 C1462 1.524 . S
C1463 C1464 1.415 . S
C1464 H1440 0.950 . S
C1464 C1459 1.363 . S
C1464 C1463 1.415 . S
C1465 H1441 0.951 . S
C1465 C1466 1.366 . S
C1465 C1467 1.388 . S
C1466 C1465 1.366 . S
C1466 C1470 1.385 . S
C1467 H1442 0.951 . S
C1467 C1465 1.388 . S
C1467 C1468 1.366 . S
C1468 C1467 1.366 . S
C1468 C1469 1.414 . S
C1468 C1471 1.499 . S
C1469 H1443 0.950 . S
C1469 C1468 1.414 . S
C1469 C1470 1.374 . S
C1470 H1444 0.950 . S
C1470 C1466 1.385 . S
C1470 C1469 1.374 . S
C1471 C1468 1.499 . S
C1471 C1472 1.373 . S
C1471 C1473 1.389 . S
C1472 H1445 0.950 . S
C1472 C1458 1.377 . S
C1472 C1471 1.373 . S
C1473 C1457 1.377 . S
C1473 C1471 1.389 . S
C1473 C1474 1.524 . S
C1474 C1473 1.524 . S
C1474 C1475 1.397 . S
C1474 C1479 1.363 . S
C1475 H1446 0.950 . S
C1475 C1474 1.397 . S
C1475 C1476 1.334 . S
C1476 H1447 0.950 . S
C1476 C1475 1.334 . S
C1476 C1477 1.287 . S
C1477 C1476 1.287 . S
C1477 C1478 1.524 . S
C1477 H1480 0.999 . S
C1478 H1448 0.950 . S
C1478 C1477 1.524 . S
C1478 C1479 1.415 . S
C1479 H1449 0.950 . S
C1479 C1474 1.363 . S
C1479 C1478 1.415 . S
H1480 C1477 0.999 . S
H1481 C1462 0.913 . S
H1482 C1500 0.951 . S
H1483 C1502 0.951 . S
H1484 C1504 0.950 . S
H1485 C1505 0.950 . S
H1486 C1507 0.950 1_455 S
H1487 C1510 0.950 . S
H1488 C1511 0.950 . S
H1489 C1513 0.950 . S
H1490 C1514 0.950 . S
H1491 C1515 0.951 1_455 S
H1492 C1517 0.951 . S
H1493 C1519 0.950 . S
H1494 C1520 0.950 . S
H1495 C1522 0.950 . S
H1496 C1525 0.950 . S
H1497 C1526 0.950 . S
H1498 C1528 0.950 . S
H1499 C1529 0.950 . S
C1500 H1482 0.951 . S
C1500 C1501 1.366 . S
C1500 C1502 1.388 . S
C1501 C1500 1.366 . S
C1501 C1505 1.385 . S
C1502 H1483 0.951 . S
C1502 C1500 1.388 . S
C1502 C1503 1.366 . S
C1503 C1502 1.366 . S
C1503 C1504 1.414 . S
C1503 C1506 1.499 . S
C1504 H1484 0.950 . S
C1504 C1503 1.414 . S
C1504 C1505 1.374 . S
C1505 H1485 0.950 . S
C1505 C1501 1.385 . S
C1505 C1504 1.374 . S
C1506 C1503 1.499 . S
C1506 C1507 1.373 . S
C1506 C1508 1.389 . S
C1507 H1486 0.950 1_655 S
C1507 C1506 1.373 . S
C1507 C1523 1.377 1_655 S
C1508 C1506 1.389 . S
C1508 C1509 1.524 . S
C1508 C1522 1.377 . S
C1509 C1508 1.524 . S
C1509 C1510 1.397 . S
C1509 C1514 1.363 . S
C1510 H1487 0.950 . S
C1510 C1509 1.397 . S
C1510 C1511 1.334 . S
C1511 H1488 0.950 . S
C1511 C1510 1.334 . S
C1511 C1512 1.287 . S
C1512 C1511 1.287 . S
C1512 C1513 1.524 . S
C1512 H1531 0.913 . S
C1513 H1489 0.950 . S
C1513 C1512 1.524 . S
C1513 C1514 1.415 . S
C1514 H1490 0.950 . S
C1514 C1509 1.363 . S
C1514 C1513 1.415 . S
C1515 H1491 0.951 1_655 S
C1515 C1516 1.366 . S
C1515 C1517 1.388 . S
C1516 C1515 1.366 . S
C1516 C1520 1.385 . S
C1517 H1492 0.951 . S
C1517 C1515 1.388 . S
C1517 C1518 1.366 . S
C1518 C1517 1.366 . S
C1518 C1519 1.414 . S
C1518 C1521 1.499 . S
C1519 H1493 0.950 . S
C1519 C1518 1.414 . S
C1519 C1520 1.374 . S
C1520 H1494 0.950 . S
C1520 C1516 1.385 . S
C1520 C1519 1.374 . S
C1521 C1518 1.499 . S
C1521 C1522 1.373 . S
C1521 C1523 1.389 1_655 S
C1522 H1495 0.950 . S
C1522 C1508 1.377 . S
C1522 C1521 1.373 . S
C1523 C1507 1.377 1_455 S
C1523 C1521 1.389 1_455 S
C1523 C1524 1.524 . S
C1524 C1523 1.524 . S
C1524 C1525 1.397 . S
C1524 C1529 1.363 . S
C1525 H1496 0.950 . S
C1525 C1524 1.397 . S
C1525 C1526 1.334 . S
C1526 H1497 0.950 . S
C1526 C1525 1.334 . S
C1526 C1527 1.287 . S
C1527 C1526 1.287 . S
C1527 C1528 1.524 . S
C1527 H1530 0.999 . S
C1528 H1498 0.950 . S
C1528 C1527 1.524 . S
C1528 C1529 1.415 . S
C1529 H1499 0.950 . S
C1529 C1524 1.363 . S
C1529 C1528 1.415 . S
H1530 C1527 0.999 . S
H1531 C1512 0.913 . S
H1532 C1550 0.951 . S
H1533 C1552 0.951 . S
H1534 C1554 0.950 . S
H1535 C1555 0.950 . S
H1536 C1557 0.950 . S
H1537 C1560 0.950 . S
H1538 C1561 0.950 . S
H1539 C1563 0.950 . S
H1540 C1564 0.950 . S
H1541 C1565 0.951 . S
H1542 C1567 0.951 . S
H1543 C1569 0.950 . S
H1544 C1570 0.950 . S
H1545 C1572 0.950 . S
H1546 C1575 0.950 . S
H1547 C1576 0.950 . S
H1548 C1578 0.950 . S
H1549 C1579 0.950 . S
C1550 H1532 0.951 . S
C1550 C1551 1.366 . S
C1550 C1552 1.388 . S
C1551 C1550 1.366 . S
C1551 C1555 1.385 . S
C1552 H1533 0.951 . S
C1552 C1550 1.388 . S
C1552 C1553 1.366 . S
C1553 C1552 1.366 . S
C1553 C1554 1.414 . S
C1553 C1556 1.499 . S
C1554 H1534 0.950 . S
C1554 C1553 1.414 . S
C1554 C1555 1.374 . S
C1555 H1535 0.950 . S
C1555 C1551 1.385 . S
C1555 C1554 1.374 . S
C1556 C1553 1.499 . S
C1556 C1557 1.373 . S
C1556 C1558 1.389 . S
C1557 H1536 0.950 . S
C1557 C1556 1.373 . S
C1557 C1573 1.377 . S
C1558 C1556 1.389 . S
C1558 C1559 1.524 . S
C1558 C1572 1.377 . S
C1559 C1558 1.524 . S
C1559 C1560 1.397 . S
C1559 C1564 1.363 . S
C1560 H1537 0.950 . S
C1560 C1559 1.397 . S
C1560 C1561 1.334 . S
C1561 H1538 0.950 . S
C1561 C1560 1.334 . S
C1561 C1562 1.287 . S
C1562 C1561 1.287 . S
C1562 C1563 1.524 . S
C1562 H1581 0.913 . S
C1563 H1539 0.950 . S
C1563 C1562 1.524 . S
C1563 C1564 1.415 . S
C1564 H1540 0.950 . S
C1564 C1559 1.363 . S
C1564 C1563 1.415 . S
C1565 H1541 0.951 . S
C1565 C1566 1.366 . S
C1565 C1567 1.388 . S
C1566 C1565 1.366 . S
C1566 C1570 1.385 . S
C1567 H1542 0.951 . S
C1567 C1565 1.388 . S
C1567 C1568 1.366 . S
C1568 C1567 1.366 . S
C1568 C1569 1.414 . S
C1568 C1571 1.499 . S
C1569 H1543 0.950 . S
C1569 C1568 1.414 . S
C1569 C1570 1.374 . S
C1570 H1544 0.950 . S
C1570 C1566 1.385 . S
C1570 C1569 1.374 . S
C1571 C1568 1.499 . S
C1571 C1572 1.373 . S
C1571 C1573 1.389 . S
C1572 H1545 0.950 . S
C1572 C1558 1.377 . S
C1572 C1571 1.373 . S
C1573 C1557 1.377 . S
C1573 C1571 1.389 . S
C1573 C1574 1.524 . S
C1574 C1573 1.524 . S
C1574 C1575 1.397 . S
C1574 C1579 1.363 . S
C1575 H1546 0.950 . S
C1575 C1574 1.397 . S
C1575 C1576 1.334 . S
C1576 H1547 0.950 . S
C1576 C1575 1.334 . S
C1576 C1577 1.287 . S
C1577 C1576 1.287 . S
C1577 C1578 1.524 . S
C1577 H1580 0.999 . S
C1578 H1548 0.950 . S
C1578 C1577 1.524 . S
C1578 C1579 1.415 . S
C1579 H1549 0.950 . S
C1579 C1574 1.363 . S
C1579 C1578 1.415 . S
H1580 C1577 0.999 . S
H1581 C1562 0.913 . S
H1582 C1600 0.951 . S
H1583 C1602 0.951 . S
H1584 C1604 0.950 . S
H1585 C1605 0.950 . S
H1586 C1607 0.950 . S
H1587 C1610 0.950 . S
H1588 C1611 0.950 . S
H1589 C1613 0.950 . S
H1590 C1614 0.950 . S
H1591 C1615 0.951 . S
H1592 C1617 0.951 . S
H1593 C1619 0.950 . S
H1594 C1620 0.950 . S
H1595 C1622 0.950 . S
H1596 C1625 0.950 . S
H1597 C1626 0.950 . S
H1598 C1628 0.950 . S
H1599 C1629 0.950 . S
C1600 H1582 0.951 . S
C1600 C1601 1.366 . S
C1600 C1602 1.388 . S
C1601 C1600 1.366 . S
C1601 C1605 1.385 . S
C1602 H1583 0.951 . S
C1602 C1600 1.388 . S
C1602 C1603 1.366 . S
C1603 C1602 1.366 . S
C1603 C1604 1.414 . S
C1603 C1606 1.499 . S
C1604 H1584 0.950 . S
C1604 C1603 1.414 . S
C1604 C1605 1.374 . S
C1605 H1585 0.950 . S
C1605 C1601 1.385 . S
C1605 C1604 1.374 . S
C1606 C1603 1.499 . S
C1606 C1607 1.373 . S
C1606 C1608 1.389 . S
C1607 H1586 0.950 . S
C1607 C1606 1.373 . S
C1607 C1623 1.377 . S
C1608 C1606 1.389 . S
C1608 C1609 1.524 . S
C1608 C1622 1.377 . S
C1609 C1608 1.524 . S
C1609 C1610 1.397 . S
C1609 C1614 1.363 . S
C1610 H1587 0.950 . S
C1610 C1609 1.397 . S
C1610 C1611 1.334 . S
C1611 H1588 0.950 . S
C1611 C1610 1.334 . S
C1611 C1612 1.287 . S
C1612 C1611 1.287 . S
C1612 C1613 1.524 . S
C1612 H1631 0.913 . S
C1613 H1589 0.950 . S
C1613 C1612 1.524 . S
C1613 C1614 1.415 . S
C1614 H1590 0.950 . S
C1614 C1609 1.363 . S
C1614 C1613 1.415 . S
C1615 H1591 0.951 . S
C1615 C1616 1.366 . S
C1615 C1617 1.388 . S
C1616 C1615 1.366 . S
C1616 C1620 1.385 . S
C1617 H1592 0.951 . S
C1617 C1615 1.388 . S
C1617 C1618 1.366 . S
C1618 C1617 1.366 . S
C1618 C1619 1.414 . S
C1618 C1621 1.499 . S
C1619 H1593 0.950 . S
C1619 C1618 1.414 . S
C1619 C1620 1.374 . S
C1620 H1594 0.950 . S
C1620 C1616 1.385 . S
C1620 C1619 1.374 . S
C1621 C1618 1.499 . S
C1621 C1622 1.373 . S
C1621 C1623 1.389 . S
C1622 H1595 0.950 . S
C1622 C1608 1.377 . S
C1622 C1621 1.373 . S
C1623 C1607 1.377 . S
C1623 C1621 1.389 . S
C1623 C1624 1.524 . S
C1624 C1623 1.524 . S
C1624 C1625 1.397 . S
C1624 C1629 1.363 . S
C1625 H1596 0.950 . S
C1625 C1624 1.397 . S
C1625 C1626 1.334 . S
C1626 H1597 0.950 . S
C1626 C1625 1.334 . S
C1626 C1627 1.287 . S
C1627 C1626 1.287 . S
C1627 C1628 1.524 . S
C1627 H1630 0.999 . S
C1628 H1598 0.950 . S
C1628 C1627 1.524 . S
C1628 C1629 1.415 . S
C1629 H1599 0.950 . S
C1629 C1624 1.363 . S
C1629 C1628 1.415 . S
H1630 C1627 0.999 . S
H1631 C1612 0.913 . S
H1632 C1650 0.951 . S
H1633 C1652 0.951 . S
H1634 C1654 0.950 1_554 S
H1635 C1655 0.950 1_554 S
H1636 C1657 0.950 1_554 S
H1637 C1660 0.950 . S
H1638 C1661 0.950 . S
H1639 C1663 0.950 . S
H1640 C1664 0.950 . S
H1641 C1665 0.951 . S
H1642 C1667 0.951 . S
H1643 C1669 0.950 . S
H1644 C1670 0.950 . S
H1645 C1672 0.950 . S
H1646 C1675 0.950 1_556 S
H1647 C1676 0.950 . S
H1648 C1678 0.950 . S
H1649 C1679 0.950 . S
C1650 H1632 0.951 . S
C1650 C1651 1.366 . S
C1650 C1652 1.388 . S
C1651 C1650 1.366 . S
C1651 C1655 1.385 . S
C1652 H1633 0.951 . S
C1652 C1650 1.388 . S
C1652 C1653 1.366 . S
C1653 C1652 1.366 . S
C1653 C1654 1.414 . S
C1653 C1656 1.499 . S
C1654 H1634 0.950 1_556 S
C1654 C1653 1.414 . S
C1654 C1655 1.374 . S
C1655 H1635 0.950 1_556 S
C1655 C1651 1.385 . S
C1655 C1654 1.374 . S
C1656 C1653 1.499 . S
C1656 C1657 1.373 . S
C1656 C1658 1.389 . S
C1657 H1636 0.950 1_556 S
C1657 C1656 1.373 . S
C1657 C1673 1.374 1_556 S
C1658 C1656 1.389 . S
C1658 C1659 1.524 . S
C1658 C1672 1.377 . S
C1659 C1658 1.524 . S
C1659 C1660 1.397 . S
C1659 C1664 1.363 . S
C1660 H1637 0.950 . S
C1660 C1659 1.397 . S
C1660 C1661 1.334 1_565 S
C1661 H1638 0.950 . S
C1661 C1660 1.334 1_545 S
C1661 C1662 1.287 . S
C1662 C1661 1.287 . S
C1662 C1663 1.524 1_545 S
C1662 H1681 0.913 . S
C1663 H1639 0.950 . S
C1663 C1662 1.524 1_565 S
C1663 C1664 1.415 . S
C1664 H1640 0.950 . S
C1664 C1659 1.363 . S
C1664 C1663 1.415 . S
C1665 H1641 0.951 . S
C1665 C1666 1.366 . S
C1665 C1667 1.388 . S
C1666 C1665 1.366 . S
C1666 C1670 1.385 1_554 S
C1667 H1642 0.951 . S
C1667 C1665 1.388 . S
C1667 C1668 1.366 1_554 S
C1668 C1667 1.366 1_556 S
C1668 C1669 1.414 . S
C1668 C1671 1.499 . S
C1669 H1643 0.950 . S
C1669 C1668 1.414 . S
C1669 C1670 1.374 . S
C1670 H1644 0.950 . S
C1670 C1666 1.385 1_556 S
C1670 C1669 1.374 . S
C1671 C1668 1.499 . S
C1671 C1672 1.373 . S
C1671 C1673 1.382 1_556 S
C1672 H1645 0.950 . S
C1672 C1658 1.377 . S
C1672 C1671 1.373 . S
C1673 C1657 1.374 1_554 S
C1673 C1671 1.382 1_554 S
C1673 C1674 1.534 . S
C1674 C1673 1.534 . S
C1674 C1675 1.397 . S
C1674 C1679 1.363 . S
C1675 H1646 0.950 1_554 S
C1675 C1674 1.397 . S
C1675 C1676 1.334 . S
C1676 H1647 0.950 . S
C1676 C1675 1.334 . S
C1676 C1677 1.287 . S
C1677 C1676 1.287 . S
C1677 C1678 1.524 . S
C1677 H1680 0.999 . S
C1678 H1648 0.950 . S
C1678 C1677 1.524 . S
C1678 C1679 1.415 . S
C1679 H1649 0.950 . S
C1679 C1674 1.363 . S
C1679 C1678 1.415 . S
H1680 C1677 0.999 . S
H1681 C1662 0.913 . S
H1682 C1700 0.951 . S
H1683 C1702 0.951 . S
H1684 C1704 0.950 . S
H1685 C1705 0.950 . S
H1686 C1707 0.950 . S
H1687 C1710 0.950 . S
H1688 C1711 0.950 . S
H1689 C1713 0.950 . S
H1690 C1714 0.950 . S
H1691 C1715 0.951 . S
H1692 C1717 0.951 . S
H1693 C1719 0.950 . S
H1694 C1720 0.950 . S
H1695 C1722 0.950 . S
H1696 C1725 0.950 . S
H1697 C1726 0.950 . S
H1698 C1728 0.950 . S
H1699 C1729 0.950 . S
C1700 H1682 0.951 . S
C1700 C1701 1.366 . S
C1700 C1702 1.388 . S
C1701 C1700 1.366 . S
C1701 C1705 1.385 . S
C1702 H1683 0.951 . S
C1702 C1700 1.388 . S
C1702 C1703 1.366 . S
C1703 C1702 1.366 . S
C1703 C1704 1.414 . S
C1703 C1706 1.499 . S
C1704 H1684 0.950 . S
C1704 C1703 1.414 . S
C1704 C1705 1.374 . S
C1705 H1685 0.950 . S
C1705 C1701 1.385 . S
C1705 C1704 1.374 . S
C1706 C1703 1.499 . S
C1706 C1707 1.373 . S
C1706 C1708 1.389 . S
C1707 H1686 0.950 . S
C1707 C1706 1.373 . S
C1707 C1723 1.377 . S
C1708 C1706 1.389 . S
C1708 C1709 1.524 . S
C1708 C1722 1.377 . S
C1709 C1708 1.524 . S
C1709 C1710 1.397 . S
C1709 C1714 1.363 . S
C1710 H1687 0.950 . S
C1710 C1709 1.397 . S
C1710 C1711 1.334 . S
C1711 H1688 0.950 . S
C1711 C1710 1.334 . S
C1711 C1712 1.287 . S
C1712 C1711 1.287 . S
C1712 C1713 1.524 . S
C1712 H1731 0.913 . S
C1713 H1689 0.950 . S
C1713 C1712 1.524 . S
C1713 C1714 1.415 . S
C1714 H1690 0.950 . S
C1714 C1709 1.363 . S
C1714 C1713 1.415 . S
C1715 H1691 0.951 . S
C1715 C1716 1.366 . S
C1715 C1717 1.388 . S
C1716 C1715 1.366 . S
C1716 C1720 1.385 . S
C1717 H1692 0.951 . S
C1717 C1715 1.388 . S
C1717 C1718 1.366 . S
C1718 C1717 1.366 . S
C1718 C1719 1.414 . S
C1718 C1721 1.499 . S
C1719 H1693 0.950 . S
C1719 C1718 1.414 . S
C1719 C1720 1.374 . S
C1720 H1694 0.950 . S
C1720 C1716 1.385 . S
C1720 C1719 1.374 . S
C1721 C1718 1.499 . S
C1721 C1722 1.373 . S
C1721 C1723 1.389 . S
C1722 H1695 0.950 . S
C1722 C1708 1.377 . S
C1722 C1721 1.373 . S
C1723 C1707 1.377 . S
C1723 C1721 1.389 . S
C1723 C1724 1.524 . S
C1724 C1723 1.524 . S
C1724 C1725 1.397 . S
C1724 C1729 1.363 . S
C1725 H1696 0.950 . S
C1725 C1724 1.397 . S
C1725 C1726 1.334 . S
C1726 H1697 0.950 . S
C1726 C1725 1.334 . S
C1726 C1727 1.287 . S
C1727 C1726 1.287 . S
C1727 C1728 1.524 . S
C1727 H1730 0.999 . S
C1728 H1698 0.950 . S
C1728 C1727 1.524 . S
C1728 C1729 1.415 . S
C1729 H1699 0.950 . S
C1729 C1724 1.363 . S
C1729 C1728 1.415 . S
H1730 C1727 0.999 . S
H1731 C1712 0.913 . S
H1732 C1750 0.951 . S
H1733 C1752 0.951 . S
H1734 C1754 0.950 . S
H1735 C1755 0.950 . S
H1736 C1757 0.950 . S
H1737 C1760 0.950 . S
H1738 C1761 0.950 . S
H1739 C1763 0.950 . S
H1740 C1764 0.950 . S
H1741 C1765 0.951 . S
H1742 C1767 0.951 . S
H1743 C1769 0.950 . S
H1744 C1770 0.950 . S
H1745 C1772 0.950 . S
H1746 C1775 0.950 . S
H1747 C1776 0.950 . S
H1748 C1778 0.950 . S
H1749 C1779 0.950 . S
C1750 H1732 0.951 . S
C1750 C1751 1.366 . S
C1750 C1752 1.388 . S
C1751 C1750 1.366 . S
C1751 C1755 1.385 . S
C1752 H1733 0.951 . S
C1752 C1750 1.388 . S
C1752 C1753 1.366 . S
C1753 C1752 1.366 . S
C1753 C1754 1.414 . S
C1753 C1756 1.499 . S
C1754 H1734 0.950 . S
C1754 C1753 1.414 . S
C1754 C1755 1.374 . S
C1755 H1735 0.950 . S
C1755 C1751 1.385 . S
C1755 C1754 1.374 . S
C1756 C1753 1.499 . S
C1756 C1757 1.373 . S
C1756 C1758 1.389 . S
C1757 H1736 0.950 . S
C1757 C1756 1.373 . S
C1757 C1773 1.377 . S
C1758 C1756 1.389 . S
C1758 C1759 1.524 . S
C1758 C1772 1.377 . S
C1759 C1758 1.524 . S
C1759 C1760 1.397 . S
C1759 C1764 1.363 . S
C1760 H1737 0.950 . S
C1760 C1759 1.397 . S
C1760 C1761 1.334 . S
C1761 H1738 0.950 . S
C1761 C1760 1.334 . S
C1761 C1762 1.287 . S
C1762 C1761 1.287 . S
C1762 C1763 1.524 . S
C1762 H1781 0.913 1_545 S
C1763 H1739 0.950 . S
C1763 C1762 1.524 . S
C1763 C1764 1.415 . S
C1764 H1740 0.950 . S
C1764 C1759 1.363 . S
C1764 C1763 1.415 . S
C1765 H1741 0.951 . S
C1765 C1766 1.366 . S
C1765 C1767 1.388 . S
C1766 C1765 1.366 . S
C1766 C1770 1.385 . S
C1767 H1742 0.951 . S
C1767 C1765 1.388 . S
C1767 C1768 1.366 . S
C1768 C1767 1.366 . S
C1768 C1769 1.414 . S
C1768 C1771 1.499 . S
C1769 H1743 0.950 . S
C1769 C1768 1.414 . S
C1769 C1770 1.374 . S
C1770 H1744 0.950 . S
C1770 C1766 1.385 . S
C1770 C1769 1.374 . S
C1771 C1768 1.499 . S
C1771 C1772 1.373 . S
C1771 C1773 1.389 . S
C1772 H1745 0.950 . S
C1772 C1758 1.377 . S
C1772 C1771 1.373 . S
C1773 C1757 1.377 . S
C1773 C1771 1.389 . S
C1773 C1774 1.524 . S
C1774 C1773 1.524 . S
C1774 C1775 1.397 . S
C1774 C1779 1.363 . S
C1775 H1746 0.950 . S
C1775 C1774 1.397 . S
C1775 C1776 1.334 . S
C1776 H1747 0.950 . S
C1776 C1775 1.334 . S
C1776 C1777 1.287 . S
C1777 C1776 1.287 . S
C1777 C1778 1.524 . S
C1777 H1780 0.999 . S
C1778 H1748 0.950 . S
C1778 C1777 1.524 . S
C1778 C1779 1.415 . S
C1779 H1749 0.950 . S
C1779 C1774 1.363 . S
C1779 C1778 1.415 . S
H1780 C1777 0.999 . S
H1781 C1762 0.913 1_565 S
H1782 C1800 0.951 . S
H1783 C1802 0.951 . S
H1784 C1804 0.950 . S
H1785 C1805 0.950 . S
H1786 C1807 0.950 . S
H1787 C1810 0.950 . S
H1788 C1811 0.950 . S
H1789 C1813 0.950 . S
H1790 C1814 0.950 . S
H1791 C1815 0.951 . S
H1792 C1817 0.951 . S
H1793 C1819 0.950 . S
H1794 C1820 0.950 . S
H1795 C1822 0.950 . S
H1796 C1825 0.950 . S
H1797 C1826 0.950 . S
H1798 C1828 0.950 . S
H1799 C1829 0.950 . S
C1800 H1782 0.951 . S
C1800 C1801 1.366 . S
C1800 C1802 1.388 . S
C1801 C1800 1.366 . S
C1801 C1805 1.385 . S
C1802 H1783 0.951 . S
C1802 C1800 1.388 . S
C1802 C1803 1.366 . S
C1803 C1802 1.366 . S
C1803 C1804 1.414 . S
C1803 C1806 1.499 . S
C1804 H1784 0.950 . S
C1804 C1803 1.414 . S
C1804 C1805 1.374 . S
C1805 H1785 0.950 . S
C1805 C1801 1.385 . S
C1805 C1804 1.374 . S
C1806 C1803 1.499 . S
C1806 C1807 1.373 . S
C1806 C1808 1.389 . S
C1807 H1786 0.950 . S
C1807 C1806 1.373 . S
C1807 C1823 1.377 . S
C1808 C1806 1.389 . S
C1808 C1809 1.524 . S
C1808 C1822 1.377 . S
C1809 C1808 1.524 . S
C1809 C1810 1.397 . S
C1809 C1814 1.363 . S
C1810 H1787 0.950 . S
C1810 C1809 1.397 . S
C1810 C1811 1.334 . S
C1811 H1788 0.950 . S
C1811 C1810 1.334 . S
C1811 C1812 1.287 . S
C1812 C1811 1.287 . S
C1812 C1813 1.524 . S
C1812 H1831 0.913 . S
C1813 H1789 0.950 . S
C1813 C1812 1.524 . S
C1813 C1814 1.415 . S
C1814 H1790 0.950 . S
C1814 C1809 1.363 . S
C1814 C1813 1.415 . S
C1815 H1791 0.951 . S
C1815 C1816 1.366 . S
C1815 C1817 1.388 . S
C1816 C1815 1.366 . S
C1816 C1820 1.385 . S
C1817 H1792 0.951 . S
C1817 C1815 1.388 . S
C1817 C1818 1.366 . S
C1818 C1817 1.366 . S
C1818 C1819 1.414 . S
C1818 C1821 1.499 . S
C1819 H1793 0.950 . S
C1819 C1818 1.414 . S
C1819 C1820 1.374 . S
C1820 H1794 0.950 . S
C1820 C1816 1.385 . S
C1820 C1819 1.374 . S
C1821 C1818 1.499 . S
C1821 C1822 1.373 . S
C1821 C1823 1.389 . S
C1822 H1795 0.950 . S
C1822 C1808 1.377 . S
C1822 C1821 1.373 . S
C1823 C1807 1.377 . S
C1823 C1821 1.389 . S
C1823 C1824 1.524 . S
C1824 C1823 1.524 . S
C1824 C1825 1.397 . S
C1824 C1829 1.363 . S
C1825 H1796 0.950 . S
C1825 C1824 1.397 . S
C1825 C1826 1.334 . S
C1826 H1797 0.950 . S
C1826 C1825 1.334 . S
C1826 C1827 1.287 . S
C1827 C1826 1.287 . S
C1827 C1828 1.524 . S
C1827 H1830 0.999 . S
C1828 H1798 0.950 . S
C1828 C1827 1.524 . S
C1828 C1829 1.415 . S
C1829 H1799 0.950 . S
C1829 C1824 1.363 . S
C1829 C1828 1.415 . S
H1830 C1827 0.999 . S
H1831 C1812 0.913 . S
H1832 C1850 0.951 . S
H1833 C1852 0.951 . S
H1834 C1854 0.950 . S
H1835 C1855 0.950 . S
H1836 C1857 0.950 . S
H1837 C1860 0.950 . S
H1838 C1861 0.950 . S
H1839 C1863 0.950 . S
H1840 C1864 0.950 . S
H1841 C1865 0.951 . S
H1842 C1867 0.951 . S
H1843 C1869 0.950 . S
H1844 C1870 0.950 . S
H1845 C1872 0.950 . S
H1846 C1875 0.950 . S
H1847 C1876 0.950 . S
H1848 C1878 0.950 . S
H1849 C1879 0.950 . S
C1850 H1832 0.951 . S
C1850 C1851 1.366 . S
C1850 C1852 1.388 . S
C1851 C1850 1.366 . S
C1851 C1855 1.385 . S
C1852 H1833 0.951 . S
C1852 C1850 1.388 . S
C1852 C1853 1.366 . S
C1853 C1852 1.366 . S
C1853 C1854 1.414 . S
C1853 C1856 1.499 . S
C1854 H1834 0.950 . S
C1854 C1853 1.414 . S
C1854 C1855 1.374 . S
C1855 H1835 0.950 . S
C1855 C1851 1.385 . S
C1855 C1854 1.374 . S
C1856 C1853 1.499 . S
C1856 C1857 1.373 . S
C1856 C1858 1.389 . S
C1857 H1836 0.950 . S
C1857 C1856 1.373 . S
C1857 C1873 1.377 . S
C1858 C1856 1.389 . S
C1858 C1859 1.524 . S
C1858 C1872 1.377 . S
C1859 C1858 1.524 . S
C1859 C1860 1.397 . S
C1859 C1864 1.363 . S
C1860 H1837 0.950 . S
C1860 C1859 1.397 . S
C1860 C1861 1.334 . S
C1861 H1838 0.950 . S
C1861 C1860 1.334 . S
C1861 C1862 1.287 . S
C1862 C1861 1.287 . S
C1862 C1863 1.524 . S
C1862 H1881 0.913 . S
C1863 H1839 0.950 . S
C1863 C1862 1.524 . S
C1863 C1864 1.415 . S
C1864 H1840 0.950 . S
C1864 C1859 1.363 . S
C1864 C1863 1.415 . S
C1865 H1841 0.951 . S
C1865 C1866 1.366 . S
C1865 C1867 1.388 . S
C1866 C1865 1.366 . S
C1866 C1870 1.385 . S
C1867 H1842 0.951 . S
C1867 C1865 1.388 . S
C1867 C1868 1.366 . S
C1868 C1867 1.366 . S
C1868 C1869 1.414 . S
C1868 C1871 1.499 . S
C1869 H1843 0.950 . S
C1869 C1868 1.414 . S
C1869 C1870 1.374 . S
C1870 H1844 0.950 . S
C1870 C1866 1.385 . S
C1870 C1869 1.374 . S
C1871 C1868 1.499 . S
C1871 C1872 1.373 . S
C1871 C1873 1.389 . S
C1872 H1845 0.950 . S
C1872 C1858 1.377 . S
C1872 C1871 1.373 . S
C1873 C1857 1.377 . S
C1873 C1871 1.389 . S
C1873 C1874 1.524 . S
C1874 C1873 1.524 . S
C1874 C1875 1.397 . S
C1874 C1879 1.363 . S
C1875 H1846 0.950 . S
C1875 C1874 1.397 . S
C1875 C1876 1.334 . S
C1876 H1847 0.950 . S
C1876 C1875 1.334 . S
C1876 C1877 1.287 . S
C1877 C1876 1.287 . S
C1877 C1878 1.524 . S
C1877 H1880 0.999 . S
C1878 H1848 0.950 . S
C1878 C1877 1.524 . S
C1878 C1879 1.415 . S
C1879 H1849 0.950 . S
C1879 C1874 1.363 . S
C1879 C1878 1.415 . S
H1880 C1877 0.999 . S
H1881 C1862 0.913 . S
H1882 C1900 0.951 . S
H1883 C1902 0.951 . S
H1884 C1904 0.950 . S
H1885 C1905 0.950 . S
H1886 C1907 0.950 . S
H1887 C1910 0.950 . S
H1888 C1911 0.950 . S
H1889 C1913 0.950 . S
H1890 C1914 0.950 . S
H1891 C1915 0.951 . S
H1892 C1917 0.951 . S
H1893 C1919 0.950 . S
H1894 C1920 0.950 . S
H1895 C1922 0.950 . S
H1896 C1925 0.950 . S
H1897 C1926 0.950 . S
H1898 C1928 0.950 . S
H1899 C1929 0.950 . S
C1900 H1882 0.951 . S
C1900 C1901 1.366 . S
C1900 C1902 1.388 . S
C1901 C1900 1.366 . S
C1901 C1905 1.385 . S
C1902 H1883 0.951 . S
C1902 C1900 1.388 . S
C1902 C1903 1.366 . S
C1903 C1902 1.366 . S
C1903 C1904 1.414 . S
C1903 C1906 1.499 . S
C1904 H1884 0.950 . S
C1904 C1903 1.414 . S
C1904 C1905 1.374 . S
C1905 H1885 0.950 . S
C1905 C1901 1.385 . S
C1905 C1904 1.374 . S
C1906 C1903 1.499 . S
C1906 C1907 1.373 . S
C1906 C1908 1.389 . S
C1907 H1886 0.950 . S
C1907 C1906 1.373 . S
C1907 C1923 1.377 . S
C1908 C1906 1.389 . S
C1908 C1909 1.524 . S
C1908 C1922 1.377 . S
C1909 C1908 1.524 . S
C1909 C1910 1.397 . S
C1909 C1914 1.363 . S
C1910 H1887 0.950 . S
C1910 C1909 1.397 . S
C1910 C1911 1.334 . S
C1911 H1888 0.950 . S
C1911 C1910 1.334 . S
C1911 C1912 1.287 . S
C1912 C1911 1.287 . S
C1912 C1913 1.524 . S
C1912 H1931 0.913 . S
C1913 H1889 0.950 . S
C1913 C1912 1.524 . S
C1913 C1914 1.415 . S
C1914 H1890 0.950 . S
C1914 C1909 1.363 . S
C1914 C1913 1.415 . S
C1915 H1891 0.951 . S
C1915 C1916 1.366 . S
C1915 C1917 1.388 . S
C1916 C1915 1.366 . S
C1916 C1920 1.385 . S
C1917 H1892 0.951 . S
C1917 C1915 1.388 . S
C1917 C1918 1.366 . S
C1918 C1917 1.366 . S
C1918 C1919 1.414 . S
C1918 C1921 1.499 . S
C1919 H1893 0.950 . S
C1919 C1918 1.414 . S
C1919 C1920 1.374 . S
C1920 H1894 0.950 . S
C1920 C1916 1.385 . S
C1920 C1919 1.374 . S
C1921 C1918 1.499 . S
C1921 C1922 1.373 . S
C1921 C1923 1.389 . S
C1922 H1895 0.950 . S
C1922 C1908 1.377 . S
C1922 C1921 1.373 . S
C1923 C1907 1.377 . S
C1923 C1921 1.389 . S
C1923 C1924 1.524 . S
C1924 C1923 1.524 . S
C1924 C1925 1.397 . S
C1924 C1929 1.363 . S
C1925 H1896 0.950 . S
C1925 C1924 1.397 . S
C1925 C1926 1.334 . S
C1926 H1897 0.950 . S
C1926 C1925 1.334 . S
C1926 C1927 1.287 . S
C1927 C1926 1.287 . S
C1927 C1928 1.524 . S
C1927 H1930 0.999 . S
C1928 H1898 0.950 . S
C1928 C1927 1.524 . S
C1928 C1929 1.415 . S
C1929 H1899 0.950 . S
C1929 C1924 1.363 . S
C1929 C1928 1.415 . S
H1930 C1927 0.999 . S
H1931 C1912 0.913 . S
H1932 C1950 0.951 . S
H1933 C1952 0.951 . S
H1934 C1954 0.950 . S
H1935 C1955 0.950 . S
H1936 C1957 0.950 . S
H1937 C1960 0.950 . S
H1938 C1961 0.950 . S
H1939 C1963 0.950 . S
H1940 C1964 0.950 . S
H1941 C1965 0.951 . S
H1942 C1967 0.951 . S
H1943 C1969 0.950 . S
H1944 C1970 0.950 . S
H1945 C1972 0.950 . S
H1946 C1975 0.950 . S
H1947 C1976 0.950 . S
H1948 C1978 0.950 . S
H1949 C1979 0.950 . S
C1950 H1932 0.951 . S
C1950 C1951 1.366 . S
C1950 C1952 1.388 . S
C1951 C1950 1.366 . S
C1951 C1955 1.385 . S
C1952 H1933 0.951 . S
C1952 C1950 1.388 . S
C1952 C1953 1.366 . S
C1953 C1952 1.366 . S
C1953 C1954 1.414 . S
C1953 C1956 1.499 . S
C1954 H1934 0.950 . S
C1954 C1953 1.414 . S
C1954 C1955 1.374 . S
C1955 H1935 0.950 . S
C1955 C1951 1.385 . S
C1955 C1954 1.374 . S
C1956 C1953 1.499 . S
C1956 C1957 1.373 . S
C1956 C1958 1.389 . S
C1957 H1936 0.950 . S
C1957 C1956 1.373 . S
C1957 C1973 1.377 . S
C1958 C1956 1.389 . S
C1958 C1959 1.524 . S
C1958 C1972 1.377 . S
C1959 C1958 1.524 . S
C1959 C1960 1.397 . S
C1959 C1964 1.363 . S
C1960 H1937 0.950 . S
C1960 C1959 1.397 . S
C1960 C1961 1.334 . S
C1961 H1938 0.950 . S
C1961 C1960 1.334 . S
C1961 C1962 1.287 . S
C1962 C1961 1.287 . S
C1962 C1963 1.524 . S
C1962 H1981 0.913 . S
C1963 H1939 0.950 . S
C1963 C1962 1.524 . S
C1963 C1964 1.415 . S
C1964 H1940 0.950 . S
C1964 C1959 1.363 . S
C1964 C1963 1.415 . S
C1965 H1941 0.951 . S
C1965 C1966 1.366 . S
C1965 C1967 1.388 . S
C1966 C1965 1.366 . S
C1966 C1970 1.385 . S
C1967 H1942 0.951 . S
C1967 C1965 1.388 . S
C1967 C1968 1.366 . S
C1968 C1967 1.366 . S
C1968 C1969 1.414 . S
C1968 C1971 1.499 . S
C1969 H1943 0.950 . S
C1969 C1968 1.414 . S
C1969 C1970 1.374 . S
C1970 H1944 0.950 . S
C1970 C1966 1.385 . S
C1970 C1969 1.374 . S
C1971 C1968 1.499 . S
C1971 C1972 1.373 . S
C1971 C1973 1.389 . S
C1972 H1945 0.950 . S
C1972 C1958 1.377 . S
C1972 C1971 1.373 . S
C1973 C1957 1.377 . S
C1973 C1971 1.389 . S
C1973 C1974 1.524 . S
C1974 C1973 1.524 . S
C1974 C1975 1.397 . S
C1974 C1979 1.363 . S
C1975 H1946 0.950 . S
C1975 C1974 1.397 . S
C1975 C1976 1.334 . S
C1976 H1947 0.950 . S
C1976 C1975 1.334 . S
C1976 C1977 1.287 . S
C1977 C1976 1.287 . S
C1977 C1978 1.524 . S
C1977 H1980 0.999 . S
C1978 H1948 0.950 . S
C1978 C1977 1.524 . S
C1978 C1979 1.415 . S
C1979 H1949 0.950 . S
C1979 C1974 1.363 . S
C1979 C1978 1.415 . S
H1980 C1977 0.999 . S
H1981 C1962 0.913 . S
H1982 C2000 0.951 . S
H1983 C2002 0.951 . S
H1984 C2004 0.950 . S
H1985 C2005 0.950 . S
H1986 C2007 0.950 . S
H1987 C2010 0.950 . S
H1988 C2011 0.950 . S
H1989 C2013 0.950 . S
H1990 C2014 0.950 . S
H1991 C2015 0.951 . S
H1992 C2017 0.951 . S
H1993 C2019 0.950 . S
H1994 C2020 0.950 . S
H1995 C2022 0.950 . S
H1996 C2025 0.950 . S
H1997 C2026 0.950 . S
H1998 C2028 0.950 . S
H1999 C2029 0.950 . S
C2000 H1982 0.951 . S
C2000 C2001 1.366 . S
C2000 C2002 1.388 . S
C2001 C2000 1.366 . S
C2001 C2005 1.385 . S
C2002 H1983 0.951 . S
C2002 C2000 1.388 . S
C2002 C2003 1.366 . S
C2003 C2002 1.366 . S
C2003 C2004 1.414 . S
C2003 C2006 1.499 . S
C2004 H1984 0.950 . S
C2004 C2003 1.414 . S
C2004 C2005 1.374 . S
C2005 H1985 0.950 . S
C2005 C2001 1.385 . S
C2005 C2004 1.374 . S
C2006 C2003 1.499 . S
C2006 C2007 1.373 . S
C2006 C2008 1.389 . S
C2007 H1986 0.950 . S
C2007 C2006 1.373 . S
C2007 C2023 1.377 . S
C2008 C2006 1.389 . S
C2008 C2009 1.524 . S
C2008 C2022 1.377 . S
C2009 C2008 1.524 . S
C2009 C2010 1.397 . S
C2009 C2014 1.363 . S
C2010 H1987 0.950 . S
C2010 C2009 1.397 . S
C2010 C2011 1.334 . S
C2011 H1988 0.950 . S
C2011 C2010 1.334 . S
C2011 C2012 1.287 . S
C2012 C2011 1.287 . S
C2012 C2013 1.524 . S
C2012 H2031 0.913 . S
C2013 H1989 0.950 . S
C2013 C2012 1.524 . S
C2013 C2014 1.415 . S
C2014 H1990 0.950 . S
C2014 C2009 1.363 . S
C2014 C2013 1.415 . S
C2015 H1991 0.951 . S
C2015 C2016 1.366 . S
C2015 C2017 1.388 . S
C2016 C2015 1.366 . S
C2016 C2020 1.385 . S
C2017 H1992 0.951 . S
C2017 C2015 1.388 . S
C2017 C2018 1.366 . S
C2018 C2017 1.366 . S
C2018 C2019 1.414 . S
C2018 C2021 1.499 . S
C2019 H1993 0.950 . S
C2019 C2018 1.414 . S
C2019 C2020 1.374 . S
C2020 H1994 0.950 . S
C2020 C2016 1.385 . S
C2020 C2019 1.374 . S
C2021 C2018 1.499 . S
C2021 C2022 1.373 . S
C2021 C2023 1.389 . S
C2022 H1995 0.950 . S
C2022 C2008 1.377 . S
C2022 C2021 1.373 . S
C2023 C2007 1.377 . S
C2023 C2021 1.389 . S
C2023 C2024 1.524 1_545 S
C2024 C2023 1.524 1_565 S
C2024 C2025 1.397 . S
C2024 C2029 1.363 . S
C2025 H1996 0.950 . S
C2025 C2024 1.397 . S
C2025 C2026 1.334 . S
C2026 H1997 0.950 . S
C2026 C2025 1.334 . S
C2026 C2027 1.287 . S
C2027 C2026 1.287 . S
C2027 C2028 1.524 . S
C2027 H2030 0.999 . S
C2028 H1998 0.950 . S
C2028 C2027 1.524 . S
C2028 C2029 1.415 . S
C2029 H1999 0.950 . S
C2029 C2024 1.363 . S
C2029 C2028 1.415 . S
H2030 C2027 0.999 . S
H2031 C2012 0.913 . S
H2032 C2050 0.951 . S
H2033 C2052 0.951 . S
H2034 C2054 0.950 . S
H2035 C2055 0.950 . S
H2036 C2057 0.950 . S
H2037 C2060 0.950 . S
H2038 C2061 0.950 . S
H2039 C2063 0.950 . S
H2040 C2064 0.950 . S
H2041 C2065 0.951 . S
H2042 C2067 0.951 . S
H2043 C2069 0.950 . S
H2044 C2070 0.950 . S
H2045 C2072 0.950 . S
H2046 C2075 0.950 . S
H2047 C2076 0.950 . S
H2048 C2078 0.950 . S
H2049 C2079 0.950 . S
C2050 H2032 0.951 . S
C2050 C2051 1.366 . S
C2050 C2052 1.388 . S
C2051 C2050 1.366 . S
C2051 C2055 1.385 . S
C2052 H2033 0.951 . S
C2052 C2050 1.388 . S
C2052 C2053 1.366 . S
C2053 C2052 1.366 . S
C2053 C2054 1.414 . S
C2053 C2056 1.499 . S
C2054 H2034 0.950 . S
C2054 C2053 1.414 . S
C2054 C2055 1.374 . S
C2055 H2035 0.950 . S
C2055 C2051 1.385 . S
C2055 C2054 1.374 . S
C2056 C2053 1.499 . S
C2056 C2057 1.373 . S
C2056 C2058 1.389 . S
C2057 H2036 0.950 . S
C2057 C2056 1.373 . S
C2057 C2073 1.377 . S
C2058 C2056 1.389 . S
C2058 C2059 1.524 . S
C2058 C2072 1.377 . S
C2059 C2058 1.524 . S
C2059 C2060 1.397 . S
C2059 C2064 1.363 . S
C2060 H2037 0.950 . S
C2060 C2059 1.397 . S
C2060 C2061 1.334 . S
C2061 H2038 0.950 . S
C2061 C2060 1.334 . S
C2061 C2062 1.287 . S
C2062 C2061 1.287 . S
C2062 C2063 1.524 . S
C2062 H2081 0.913 . S
C2063 H2039 0.950 . S
C2063 C2062 1.524 . S
C2063 C2064 1.415 . S
C2064 H2040 0.950 . S
C2064 C2059 1.363 . S
C2064 C2063 1.415 . S
C2065 H2041 0.951 . S
C2065 C2066 1.366 . S
C2065 C2067 1.388 . S
C2066 C2065 1.366 . S
C2066 C2070 1.385 . S
C2067 H2042 0.951 . S
C2067 C2065 1.388 . S
C2067 C2068 1.366 . S
C2068 C2067 1.366 . S
C2068 C2069 1.414 . S
C2068 C2071 1.499 . S
C2069 H2043 0.950 . S
C2069 C2068 1.414 . S
C2069 C2070 1.374 . S
C2070 H2044 0.950 . S
C2070 C2066 1.385 . S
C2070 C2069 1.374 . S
C2071 C2068 1.499 . S
C2071 C2072 1.373 . S
C2071 C2073 1.389 . S
C2072 H2045 0.950 . S
C2072 C2058 1.377 . S
C2072 C2071 1.373 . S
C2073 C2057 1.377 . S
C2073 C2071 1.389 . S
C2073 C2074 1.524 . S
C2074 C2073 1.524 . S
C2074 C2075 1.397 . S
C2074 C2079 1.363 . S
C2075 H2046 0.950 . S
C2075 C2074 1.397 . S
C2075 C2076 1.334 . S
C2076 H2047 0.950 . S
C2076 C2075 1.334 . S
C2076 C2077 1.287 . S
C2077 C2076 1.287 . S
C2077 C2078 1.524 . S
C2077 H2080 0.999 . S
C2078 H2048 0.950 . S
C2078 C2077 1.524 . S
C2078 C2079 1.415 . S
C2079 H2049 0.950 . S
C2079 C2074 1.363 . S
C2079 C2078 1.415 . S
H2080 C2077 0.999 . S
H2081 C2062 0.913 . S
H2082 C2100 0.951 . S
H2083 C2102 0.951 . S
H2084 C2104 0.950 . S
H2085 C2105 0.950 . S
H2086 C2107 0.950 . S
H2087 C2110 0.950 . S
H2088 C2111 0.950 . S
H2089 C2113 0.950 . S
H2090 C2114 0.950 . S
H2091 C2115 0.951 . S
H2092 C2117 0.951 . S
H2093 C2119 0.950 . S
H2094 C2120 0.950 . S
H2095 C2122 0.950 . S
H2096 C2125 0.950 . S
H2097 C2126 0.950 . S
H2098 C2128 0.950 . S
H2099 C2129 0.950 . S
C2100 H2082 0.951 . S
C2100 C2101 1.366 . S
C2100 C2102 1.388 . S
C2101 C2100 1.366 . S
C2101 C2105 1.385 . S
C2102 H2083 0.951 . S
C2102 C2100 1.388 . S
C2102 C2103 1.366 . S
C2103 C2102 1.366 . S
C2103 C2104 1.414 . S
C2103 C2106 1.499 . S
C2104 H2084 0.950 . S
C2104 C2103 1.414 . S
C2104 C2105 1.374 . S
C2105 H2085 0.950 . S
C2105 C2101 1.385 . S
C2105 C2104 1.374 . S
C2106 C2103 1.499 . S
C2106 C2107 1.373 . S
C2106 C2108 1.389 . S
C2107 H2086 0.950 . S
C2107 C2106 1.373 . S
C2107 C2123 1.377 . S
C2108 C2106 1.389 . S
C2108 C2109 1.524 . S
C2108 C2122 1.377 . S
C2109 C2108 1.524 . S
C2109 C2110 1.397 . S
C2109 C2114 1.363 . S
C2110 H2087 0.950 . S
C2110 C2109 1.397 . S
C2110 C2111 1.334 . S
C2111 H2088 0.950 . S
C2111 C2110 1.334 . S
C2111 C2112 1.287 . S
C2112 C2111 1.287 . S
C2112 C2113 1.524 . S
C2112 H2131 0.913 . S
C2113 H2089 0.950 . S
C2113 C2112 1.524 . S
C2113 C2114 1.415 . S
C2114 H2090 0.950 . S
C2114 C2109 1.363 . S
C2114 C2113 1.415 . S
C2115 H2091 0.951 . S
C2115 C2116 1.366 . S
C2115 C2117 1.388 . S
C2116 C2115 1.366 . S
C2116 C2120 1.385 . S
C2117 H2092 0.951 . S
C2117 C2115 1.388 . S
C2117 C2118 1.366 . S
C2118 C2117 1.366 . S
C2118 C2119 1.414 . S
C2118 C2121 1.499 . S
C2119 H2093 0.950 . S
C2119 C2118 1.414 . S
C2119 C2120 1.374 . S
C2120 H2094 0.950 . S
C2120 C2116 1.385 . S
C2120 C2119 1.374 . S
C2121 C2118 1.499 . S
C2121 C2122 1.373 . S
C2121 C2123 1.389 . S
C2122 H2095 0.950 . S
C2122 C2108 1.377 . S
C2122 C2121 1.373 . S
C2123 C2107 1.377 . S
C2123 C2121 1.389 . S
C2123 C2124 1.524 . S
C2124 C2123 1.524 . S
C2124 C2125 1.397 . S
C2124 C2129 1.363 . S
C2125 H2096 0.950 . S
C2125 C2124 1.397 . S
C2125 C2126 1.334 . S
C2126 H2097 0.950 . S
C2126 C2125 1.334 . S
C2126 C2127 1.287 . S
C2127 C2126 1.287 . S
C2127 C2128 1.524 . S
C2127 H2130 0.999 . S
C2128 H2098 0.950 . S
C2128 C2127 1.524 . S
C2128 C2129 1.415 . S
C2129 H2099 0.950 . S
C2129 C2124 1.363 . S
C2129 C2128 1.415 . S
H2130 C2127 0.999 . S
H2131 C2112 0.913 . S
H2132 C2150 0.951 . S
H2133 C2152 0.951 . S
H2134 C2154 0.950 . S
H2135 C2155 0.950 . S
H2136 C2157 0.950 . S
H2137 C2160 0.950 . S
H2138 C2161 0.950 . S
H2139 C2163 0.950 . S
H2140 C2164 0.950 . S
H2141 C2165 0.951 . S
H2142 C2167 0.951 . S
H2143 C2169 0.950 . S
H2144 C2170 0.950 . S
H2145 C2172 0.950 . S
H2146 C2175 0.950 . S
H2147 C2176 0.950 . S
H2148 C2178 0.950 . S
H2149 C2179 0.950 . S
C2150 H2132 0.951 . S
C2150 C2151 1.366 . S
C2150 C2152 1.388 . S
C2151 C2150 1.366 . S
C2151 C2155 1.385 . S
C2152 H2133 0.951 . S
C2152 C2150 1.388 . S
C2152 C2153 1.366 . S
C2153 C2152 1.366 . S
C2153 C2154 1.414 . S
C2153 C2156 1.499 . S
C2154 H2134 0.950 . S
C2154 C2153 1.414 . S
C2154 C2155 1.374 . S
C2155 H2135 0.950 . S
C2155 C2151 1.385 . S
C2155 C2154 1.374 . S
C2156 C2153 1.499 . S
C2156 C2157 1.373 . S
C2156 C2158 1.389 . S
C2157 H2136 0.950 . S
C2157 C2156 1.373 . S
C2157 C2173 1.377 . S
C2158 C2156 1.389 . S
C2158 C2159 1.524 . S
C2158 C2172 1.377 . S
C2159 C2158 1.524 . S
C2159 C2160 1.397 . S
C2159 C2164 1.363 . S
C2160 H2137 0.950 . S
C2160 C2159 1.397 . S
C2160 C2161 1.334 . S
C2161 H2138 0.950 . S
C2161 C2160 1.334 . S
C2161 C2162 1.287 . S
C2162 C2161 1.287 . S
C2162 C2163 1.524 . S
C2162 H2181 0.913 . S
C2163 H2139 0.950 . S
C2163 C2162 1.524 . S
C2163 C2164 1.415 . S
C2164 H2140 0.950 . S
C2164 C2159 1.363 . S
C2164 C2163 1.415 . S
C2165 H2141 0.951 . S
C2165 C2166 1.366 . S
C2165 C2167 1.388 . S
C2166 C2165 1.366 . S
C2166 C2170 1.385 . S
C2167 H2142 0.951 . S
C2167 C2165 1.388 . S
C2167 C2168 1.366 . S
C2168 C2167 1.366 . S
C2168 C2169 1.414 . S
C2168 C2171 1.499 . S
C2169 H2143 0.950 . S
C2169 C2168 1.414 . S
C2169 C2170 1.374 . S
C2170 H2144 0.950 . S
C2170 C2166 1.385 . S
C2170 C2169 1.374 . S
C2171 C2168 1.499 . S
C2171 C2172 1.373 . S
C2171 C2173 1.389 . S
C2172 H2145 0.950 . S
C2172 C2158 1.377 . S
C2172 C2171 1.373 . S
C2173 C2157 1.377 . S
C2173 C2171 1.389 . S
C2173 C2174 1.524 . S
C2174 C2173 1.524 . S
C2174 C2175 1.397 . S
C2174 C2179 1.363 . S
C2175 H2146 0.950 . S
C2175 C2174 1.397 . S
C2175 C2176 1.334 . S
C2176 H2147 0.950 . S
C2176 C2175 1.334 . S
C2176 C2177 1.287 . S
C2177 C2176 1.287 . S
C2177 C2178 1.524 . S
C2177 H2180 0.999 . S
C2178 H2148 0.950 . S
C2178 C2177 1.524 . S
C2178 C2179 1.415 . S
C2179 H2149 0.950 . S
C2179 C2174 1.363 . S
C2179 C2178 1.415 . S
H2180 C2177 0.999 . S
H2181 C2162 0.913 . S
H2182 C2200 0.951 1_455 S
H2183 C2202 0.951 . S
H2184 C2204 0.950 . S
H2185 C2205 0.950 . S
H2186 C2207 0.950 . S
H2187 C2210 0.950 . S
H2188 C2211 0.950 . S
H2189 C2213 0.950 . S
H2190 C2214 0.981 . S
H2191 C2215 0.951 . S
H2192 C2217 0.951 . S
H2193 C2219 0.950 . S
H2194 C2220 0.950 . S
H2195 C2222 0.950 . S
H2196 C2225 0.950 . S
H2197 C2226 0.950 . S
H2198 C2228 0.950 . S
H2199 C2229 0.950 . S
C2200 H2182 0.951 1_655 S
C2200 C2201 1.366 . S
C2200 C2202 1.388 . S
C2201 C2200 1.366 . S
C2201 C2205 1.385 . S
C2202 H2183 0.951 . S
C2202 C2200 1.388 . S
C2202 C2203 1.366 . S
C2203 C2202 1.366 . S
C2203 C2204 1.414 . S
C2203 C2206 1.499 . S
C2204 H2184 0.950 . S
C2204 C2203 1.414 . S
C2204 C2205 1.374 . S
C2205 H2185 0.950 . S
C2205 C2201 1.385 . S
C2205 C2204 1.374 . S
C2206 C2203 1.499 . S
C2206 C2207 1.373 . S
C2206 C2208 1.389 . S
C2207 H2186 0.950 . S
C2207 C2206 1.373 . S
C2207 C2223 1.377 . S
C2208 C2206 1.389 . S
C2208 C2209 1.524 . S
C2208 C2222 1.377 . S
C2209 C2208 1.524 . S
C2209 C2210 1.397 1_545 S
C2209 C2214 1.363 1_545 S
C2210 H2187 0.950 . S
C2210 C2209 1.397 1_565 S
C2210 C2211 1.334 . S
C2211 H2188 0.950 . S
C2211 C2210 1.334 . S
C2211 C2212 1.287 . S
C2212 C2211 1.287 . S
C2212 C2213 1.524 . S
C2212 H2231 0.913 . S
C2213 H2189 0.950 . S
C2213 C2212 1.524 . S
C2213 C2214 1.415 . S
C2214 H2190 0.981 . S
C2214 C2209 1.363 1_565 S
C2214 C2213 1.415 . S
C2215 H2191 0.951 . S
C2215 C2216 1.366 . S
C2215 C2217 1.388 . S
C2216 C2215 1.366 . S
C2216 C2220 1.385 . S
C2217 H2192 0.951 . S
C2217 C2215 1.388 . S
C2217 C2218 1.366 . S
C2218 C2217 1.366 . S
C2218 C2219 1.414 . S
C2218 C2221 1.499 . S
C2219 H2193 0.950 . S
C2219 C2218 1.414 . S
C2219 C2220 1.374 . S
C2220 H2194 0.950 . S
C2220 C2216 1.385 . S
C2220 C2219 1.374 . S
C2221 C2218 1.499 . S
C2221 C2222 1.373 . S
C2221 C2223 1.389 . S
C2222 H2195 0.950 . S
C2222 C2208 1.377 . S
C2222 C2221 1.373 . S
C2223 C2207 1.377 . S
C2223 C2221 1.389 . S
C2223 C2224 1.524 . S
C2224 C2223 1.524 . S
C2224 C2225 1.397 . S
C2224 C2229 1.363 . S
C2225 H2196 0.950 . S
C2225 C2224 1.397 . S
C2225 C2226 1.334 . S
C2226 H2197 0.950 . S
C2226 C2225 1.334 . S
C2226 C2227 1.287 . S
C2227 C2226 1.287 . S
C2227 C2228 1.524 . S
C2227 H2230 0.999 . S
C2228 H2198 0.950 . S
C2228 C2227 1.524 . S
C2228 C2229 1.415 . S
C2229 H2199 0.950 . S
C2229 C2224 1.363 . S
C2229 C2228 1.415 . S
H2230 C2227 0.999 . S
H2231 C2212 0.913 . S
H2232 C2250 0.951 . S
H2233 C2252 0.951 . S
H2234 C2254 0.950 . S
H2235 C2255 0.950 . S
H2236 C2257 0.950 . S
H2237 C2260 0.950 . S
H2238 C2261 0.950 . S
H2239 C2263 0.950 . S
H2240 C2264 0.950 . S
H2241 C2265 0.951 . S
H2242 C2267 0.951 . S
H2243 C2269 0.950 . S
H2244 C2270 0.950 . S
H2245 C2272 0.950 . S
H2246 C2275 0.950 . S
H2247 C2276 0.950 . S
H2248 C2278 0.950 . S
H2249 C2279 0.950 . S
C2250 H2232 0.951 . S
C2250 C2251 1.366 . S
C2250 C2252 1.388 . S
C2251 C2250 1.366 . S
C2251 C2255 1.385 . S
C2252 H2233 0.951 . S
C2252 C2250 1.388 . S
C2252 C2253 1.366 . S
C2253 C2252 1.366 . S
C2253 C2254 1.414 . S
C2253 C2256 1.499 . S
C2254 H2234 0.950 . S
C2254 C2253 1.414 . S
C2254 C2255 1.374 . S
C2255 H2235 0.950 . S
C2255 C2251 1.385 . S
C2255 C2254 1.374 . S
C2256 C2253 1.499 . S
C2256 C2257 1.373 . S
C2256 C2258 1.389 . S
C2257 H2236 0.950 . S
C2257 C2256 1.373 . S
C2257 C2273 1.377 . S
C2258 C2256 1.389 . S
C2258 C2259 1.524 . S
C2258 C2272 1.377 . S
C2259 C2258 1.524 . S
C2259 C2260 1.397 . S
C2259 C2264 1.363 . S
C2260 H2237 0.950 . S
C2260 C2259 1.397 . S
C2260 C2261 1.334 . S
C2261 H2238 0.950 . S
C2261 C2260 1.334 . S
C2261 C2262 1.287 . S
C2262 C2261 1.287 . S
C2262 C2263 1.524 . S
C2262 H2281 0.913 . S
C2263 H2239 0.950 . S
C2263 C2262 1.524 . S
C2263 C2264 1.415 . S
C2264 H2240 0.950 . S
C2264 C2259 1.363 . S
C2264 C2263 1.415 . S
C2265 H2241 0.951 . S
C2265 C2266 1.366 . S
C2265 C2267 1.388 . S
C2266 C2265 1.366 . S
C2266 C2270 1.385 . S
C2267 H2242 0.951 . S
C2267 C2265 1.388 . S
C2267 C2268 1.366 . S
C2268 C2267 1.366 . S
C2268 C2269 1.414 . S
C2268 C2271 1.499 . S
C2269 H2243 0.950 . S
C2269 C2268 1.414 . S
C2269 C2270 1.374 . S
C2270 H2244 0.950 . S
C2270 C2266 1.385 . S
C2270 C2269 1.374 . S
C2271 C2268 1.499 . S
C2271 C2272 1.373 . S
C2271 C2273 1.389 . S
C2272 H2245 0.950 . S
C2272 C2258 1.377 . S
C2272 C2271 1.373 . S
C2273 C2257 1.377 . S
C2273 C2271 1.389 . S
C2273 C2274 1.524 . S
C2274 C2273 1.524 . S
C2274 C2275 1.397 . S
C2274 C2279 1.363 . S
C2275 H2246 0.950 . S
C2275 C2274 1.397 . S
C2275 C2276 1.334 . S
C2276 H2247 0.950 . S
C2276 C2275 1.334 . S
C2276 C2277 1.287 . S
C2277 C2276 1.287 . S
C2277 C2278 1.524 . S
C2277 H2280 0.999 . S
C2278 H2248 0.950 . S
C2278 C2277 1.524 . S
C2278 C2279 1.415 . S
C2279 H2249 0.950 . S
C2279 C2274 1.363 . S
C2279 C2278 1.415 . S
H2280 C2277 0.999 . S
H2281 C2262 0.913 . S
H2282 C2300 0.951 . S
H2283 C2302 0.951 . S
H2284 C2304 0.950 . S
H2285 C2305 0.950 . S
H2286 C2307 0.950 . S
H2287 C2310 0.950 . S
H2288 C2311 0.950 . S
H2289 C2313 0.965 . S
H2290 C2314 0.950 . S
H2291 C2315 0.951 . S
H2292 C2317 0.951 . S
H2293 C2319 0.950 . S
H2294 C2320 0.950 . S
H2295 C2322 0.950 . S
H2296 C2325 0.950 . S
H2297 C2326 0.950 . S
H2298 C2328 0.950 . S
H2299 C2329 0.950 . S
C2300 H2282 0.951 . S
C2300 C2301 1.366 . S
C2300 C2302 1.388 . S
C2301 C2300 1.366 . S
C2301 C2305 1.385 . S
C2302 H2283 0.951 . S
C2302 C2300 1.388 . S
C2302 C2303 1.366 . S
C2303 C2302 1.366 . S
C2303 C2304 1.414 . S
C2303 C2306 1.499 . S
C2304 H2284 0.950 . S
C2304 C2303 1.414 . S
C2304 C2305 1.374 . S
C2305 H2285 0.950 . S
C2305 C2301 1.385 . S
C2305 C2304 1.374 . S
C2306 C2303 1.499 . S
C2306 C2307 1.373 . S
C2306 C2308 1.389 . S
C2307 H2286 0.950 . S
C2307 C2306 1.373 . S
C2307 C2323 1.377 . S
C2308 C2306 1.389 . S
C2308 C2309 1.524 . S
C2308 C2322 1.377 . S
C2309 C2308 1.524 . S
C2309 C2310 1.397 . S
C2309 C2314 1.363 . S
C2310 H2287 0.950 . S
C2310 C2309 1.397 . S
C2310 C2311 1.334 1_455 S
C2311 H2288 0.950 . S
C2311 C2310 1.334 1_655 S
C2311 C2312 1.287 . S
C2312 C2311 1.287 . S
C2312 C2313 1.524 1_655 S
C2312 H2331 0.913 . S
C2313 H2289 0.965 . S
C2313 C2312 1.524 1_455 S
C2313 C2314 1.415 . S
C2314 H2290 0.950 . S
C2314 C2309 1.363 . S
C2314 C2313 1.415 . S
C2315 H2291 0.951 . S
C2315 C2316 1.366 . S
C2315 C2317 1.388 . S
C2316 C2315 1.366 . S
C2316 C2320 1.385 . S
C2317 H2292 0.951 . S
C2317 C2315 1.388 . S
C2317 C2318 1.366 . S
C2318 C2317 1.366 . S
C2318 C2319 1.414 . S
C2318 C2321 1.499 . S
C2319 H2293 0.950 . S
C2319 C2318 1.414 . S
C2319 C2320 1.374 . S
C2320 H2294 0.950 . S
C2320 C2316 1.385 . S
C2320 C2319 1.374 . S
C2321 C2318 1.499 . S
C2321 C2322 1.373 . S
C2321 C2323 1.389 . S
C2322 H2295 0.950 . S
C2322 C2308 1.377 . S
C2322 C2321 1.373 . S
C2323 C2307 1.377 . S
C2323 C2321 1.389 . S
C2323 C2324 1.524 . S
C2324 C2323 1.524 . S
C2324 C2325 1.397 . S
C2324 C2329 1.363 . S
C2325 H2296 0.950 . S
C2325 C2324 1.397 . S
C2325 C2326 1.334 . S
C2326 H2297 0.950 . S
C2326 C2325 1.334 . S
C2326 C2327 1.287 . S
C2327 C2326 1.287 . S
C2327 C2328 1.524 . S
C2327 H2330 0.999 . S
C2328 H2298 0.950 . S
C2328 C2327 1.524 . S
C2328 C2329 1.415 . S
C2329 H2299 0.950 . S
C2329 C2324 1.363 . S
C2329 C2328 1.415 . S
H2330 C2327 0.999 . S
H2331 C2312 0.913 . S
H2332 C2350 0.951 . S
H2333 C2352 0.951 . S
H2334 C2354 0.950 . S
H2335 C2355 0.950 . S
H2336 C2357 0.950 . S
H2337 C2360 0.950 . S
H2338 C2361 0.950 . S
H2339 C2363 0.950 . S
H2340 C2364 0.950 . S
H2341 C2365 0.951 . S
H2342 C2367 0.951 . S
H2343 C2369 0.950 . S
H2344 C2370 0.950 . S
H2345 C2372 0.950 . S
H2346 C2375 0.950 . S
H2347 C2376 0.950 . S
H2348 C2378 0.950 . S
H2349 C2379 0.950 . S
C2350 H2332 0.951 . S
C2350 C2351 1.366 . S
C2350 C2352 1.388 . S
C2351 C2350 1.366 . S
C2351 C2355 1.385 . S
C2352 H2333 0.951 . S
C2352 C2350 1.388 . S
C2352 C2353 1.366 . S
C2353 C2352 1.366 . S
C2353 C2354 1.414 . S
C2353 C2356 1.499 . S
C2354 H2334 0.950 . S
C2354 C2353 1.414 . S
C2354 C2355 1.374 . S
C2355 H2335 0.950 . S
C2355 C2351 1.385 . S
C2355 C2354 1.374 . S
C2356 C2353 1.499 . S
C2356 C2357 1.373 . S
C2356 C2358 1.389 . S
C2357 H2336 0.950 . S
C2357 C2356 1.373 . S
C2357 C2373 1.377 . S
C2358 C2356 1.389 . S
C2358 C2359 1.524 . S
C2358 C2372 1.377 . S
C2359 C2358 1.524 . S
C2359 C2360 1.397 . S
C2359 C2364 1.363 . S
C2360 H2337 0.950 . S
C2360 C2359 1.397 . S
C2360 C2361 1.334 . S
C2361 H2338 0.950 . S
C2361 C2360 1.334 . S
C2361 C2362 1.287 . S
C2362 C2361 1.287 . S
C2362 C2363 1.524 . S
C2362 H2381 0.913 . S
C2363 H2339 0.950 . S
C2363 C2362 1.524 . S
C2363 C2364 1.415 . S
C2364 H2340 0.950 . S
C2364 C2359 1.363 . S
C2364 C2363 1.415 . S
C2365 H2341 0.951 . S
C2365 C2366 1.366 . S
C2365 C2367 1.388 . S
C2366 C2365 1.366 . S
C2366 C2370 1.385 . S
C2367 H2342 0.951 . S
C2367 C2365 1.388 . S
C2367 C2368 1.366 . S
C2368 C2367 1.366 . S
C2368 C2369 1.414 . S
C2368 C2371 1.499 . S
C2369 H2343 0.950 . S
C2369 C2368 1.414 . S
C2369 C2370 1.374 . S
C2370 H2344 0.950 . S
C2370 C2366 1.385 . S
C2370 C2369 1.374 . S
C2371 C2368 1.499 . S
C2371 C2372 1.373 . S
C2371 C2373 1.389 . S
C2372 H2345 0.950 . S
C2372 C2358 1.377 . S
C2372 C2371 1.373 . S
C2373 C2357 1.377 . S
C2373 C2371 1.389 . S
C2373 C2374 1.524 . S
C2374 C2373 1.524 . S
C2374 C2375 1.397 . S
C2374 C2379 1.363 . S
C2375 H2346 0.950 . S
C2375 C2374 1.397 . S
C2375 C2376 1.334 . S
C2376 H2347 0.950 . S
C2376 C2375 1.334 . S
C2376 C2377 1.287 . S
C2377 C2376 1.287 . S
C2377 C2378 1.524 . S
C2377 H2380 0.999 . S
C2378 H2348 0.950 . S
C2378 C2377 1.524 . S
C2378 C2379 1.415 . S
C2379 H2349 0.950 . S
C2379 C2374 1.363 . S
C2379 C2378 1.415 . S
H2380 C2377 0.999 . S
H2381 C2362 0.913 . S
H2382 C2400 0.951 . S
H2383 C2402 0.951 . S
H2384 C2404 0.950 . S
H2385 C2405 0.985 . S
H2386 C2407 0.921 1_455 S
H2387 C2410 0.950 . S
H2388 C2411 0.950 . S
H2389 C2413 0.950 . S
H2390 C2414 0.950 . S
H2391 C2415 0.951 . S
H2392 C2417 0.982 . S
H2393 C2419 0.950 . S
H2394 C2420 0.950 . S
H2395 C2422 0.950 . S
H2396 C2425 0.950 . S
H2397 C2426 0.950 . S
H2398 C2428 0.950 . S
H2399 C2429 0.950 . S
C2400 H2382 0.951 . S
C2400 C2401 1.366 . S
C2400 C2402 1.388 . S
C2401 C2400 1.366 . S
C2401 C2405 1.385 . S
C2402 H2383 0.951 . S
C2402 C2400 1.388 . S
C2402 C2403 1.366 . S
C2403 C2402 1.366 . S
C2403 C2404 1.414 . S
C2403 C2406 1.499 . S
C2404 H2384 0.950 . S
C2404 C2403 1.414 . S
C2404 C2405 1.374 . S
C2405 H2385 0.985 . S
C2405 C2401 1.385 . S
C2405 C2404 1.374 . S
C2406 C2403 1.499 . S
C2406 C2407 1.410 . S
C2406 C2408 1.389 . S
C2407 H2386 0.921 1_655 S
C2407 C2406 1.410 . S
C2407 C2423 1.369 1_655 S
C2408 C2406 1.389 . S
C2408 C2409 1.524 . S
C2408 C2422 1.377 . S
C2409 C2408 1.524 . S
C2409 C2410 1.397 . S
C2409 C2414 1.363 . S
C2410 H2387 0.950 . S
C2410 C2409 1.397 . S
C2410 C2411 1.334 . S
C2411 H2388 0.950 . S
C2411 C2410 1.334 . S
C2411 C2412 1.287 . S
C2412 C2411 1.287 . S
C2412 C2413 1.524 . S
C2412 H2431 0.913 . S
C2413 H2389 0.950 . S
C2413 C2412 1.524 . S
C2413 C2414 1.415 . S
C2414 H2390 0.950 . S
C2414 C2409 1.363 . S
C2414 C2413 1.415 . S
C2415 H2391 0.951 . S
C2415 C2416 1.366 1_455 S
C2415 C2417 1.400 . S
C2416 C2415 1.366 1_655 S
C2416 C2420 1.385 . S
C2417 H2392 0.982 . S
C2417 C2415 1.400 . S
C2417 C2418 1.327 1_455 S
C2418 C2417 1.327 1_655 S
C2418 C2419 1.414 . S
C2418 C2421 1.499 . S
C2419 H2393 0.950 . S
C2419 C2418 1.414 . S
C2419 C2420 1.374 . S
C2420 H2394 0.950 . S
C2420 C2416 1.385 . S
C2420 C2419 1.374 . S
C2421 C2418 1.499 . S
C2421 C2422 1.373 . S
C2421 C2423 1.389 1_655 S
C2422 H2395 0.950 . S
C2422 C2408 1.377 . S
C2422 C2421 1.373 . S
C2423 C2407 1.369 1_455 S
C2423 C2421 1.389 1_455 S
C2423 C2424 1.524 . S
C2424 C2423 1.524 . S
C2424 C2425 1.397 . S
C2424 C2429 1.363 . S
C2425 H2396 0.950 . S
C2425 C2424 1.397 . S
C2425 C2426 1.334 . S
C2426 H2397 0.950 . S
C2426 C2425 1.334 . S
C2426 C2427 1.287 . S
C2427 C2426 1.287 . S
C2427 C2428 1.524 . S
C2427 H2430 0.999 . S
C2428 H2398 0.950 . S
C2428 C2427 1.524 . S
C2428 C2429 1.415 . S
C2429 H2399 0.950 . S
C2429 C2424 1.363 . S
C2429 C2428 1.415 . S
H2430 C2427 0.999 . S
H2431 C2412 0.913 . S
H2432 C2450 0.951 . S
H2433 C2452 0.951 . S
H2434 C2454 0.950 . S
H2435 C2455 0.950 . S
H2436 C2457 0.950 . S
H2437 C2460 0.950 . S
H2438 C2461 0.950 . S
H2439 C2463 0.950 . S
H2440 C2464 0.950 . S
H2441 C2465 0.951 . S
H2442 C2467 0.951 . S
H2443 C2469 0.950 . S
H2444 C2470 0.950 . S
H2445 C2472 0.950 . S
H2446 C2475 0.950 . S
H2447 C2476 0.950 . S
H2448 C2478 0.950 . S
H2449 C2479 0.950 . S
C2450 H2432 0.951 . S
C2450 C2451 1.366 . S
C2450 C2452 1.388 . S
C2451 C2450 1.366 . S
C2451 C2455 1.385 . S
C2452 H2433 0.951 . S
C2452 C2450 1.388 . S
C2452 C2453 1.366 . S
C2453 C2452 1.366 . S
C2453 C2454 1.414 . S
C2453 C2456 1.499 . S
C2454 H2434 0.950 . S
C2454 C2453 1.414 . S
C2454 C2455 1.374 . S
C2455 H2435 0.950 . S
C2455 C2451 1.385 . S
C2455 C2454 1.374 . S
C2456 C2453 1.499 . S
C2456 C2457 1.373 . S
C2456 C2458 1.389 . S
C2457 H2436 0.950 . S
C2457 C2456 1.373 . S
C2457 C2473 1.377 . S
C2458 C2456 1.389 . S
C2458 C2459 1.524 . S
C2458 C2472 1.377 . S
C2459 C2458 1.524 . S
C2459 C2460 1.397 . S
C2459 C2464 1.363 . S
C2460 H2437 0.950 . S
C2460 C2459 1.397 . S
C2460 C2461 1.334 . S
C2461 H2438 0.950 . S
C2461 C2460 1.334 . S
C2461 C2462 1.287 . S
C2462 C2461 1.287 . S
C2462 C2463 1.524 . S
C2462 H2481 0.913 . S
C2463 H2439 0.950 . S
C2463 C2462 1.524 . S
C2463 C2464 1.415 . S
C2464 H2440 0.950 . S
C2464 C2459 1.363 . S
C2464 C2463 1.415 . S
C2465 H2441 0.951 . S
C2465 C2466 1.366 . S
C2465 C2467 1.388 . S
C2466 C2465 1.366 . S
C2466 C2470 1.385 . S
C2467 H2442 0.951 . S
C2467 C2465 1.388 . S
C2467 C2468 1.366 . S
C2468 C2467 1.366 . S
C2468 C2469 1.414 . S
C2468 C2471 1.499 . S
C2469 H2443 0.950 . S
C2469 C2468 1.414 . S
C2469 C2470 1.374 . S
C2470 H2444 0.950 . S
C2470 C2466 1.385 . S
C2470 C2469 1.374 . S
C2471 C2468 1.499 . S
C2471 C2472 1.373 . S
C2471 C2473 1.389 . S
C2472 H2445 0.950 . S
C2472 C2458 1.377 . S
C2472 C2471 1.373 . S
C2473 C2457 1.377 . S
C2473 C2471 1.389 . S
C2473 C2474 1.524 . S
C2474 C2473 1.524 . S
C2474 C2475 1.397 . S
C2474 C2479 1.363 . S
C2475 H2446 0.950 . S
C2475 C2474 1.397 . S
C2475 C2476 1.334 . S
C2476 H2447 0.950 . S
C2476 C2475 1.334 . S
C2476 C2477 1.287 . S
C2477 C2476 1.287 . S
C2477 C2478 1.524 . S
C2477 H2480 0.999 . S
C2478 H2448 0.950 . S
C2478 C2477 1.524 . S
C2478 C2479 1.415 . S
C2479 H2449 0.950 . S
C2479 C2474 1.363 . S
C2479 C2478 1.415 . S
H2480 C2477 0.999 . S
H2481 C2462 0.913 . S
H2482 C2500 0.951 . S
H2483 C2502 0.951 . S
H2484 C2504 0.950 1_655 S
H2485 C2505 0.950 . S
H2486 C2507 0.950 . S
H2487 C2510 0.950 . S
H2488 C2511 0.950 . S
H2489 C2513 0.950 . S
H2490 C2514 0.950 . S
H2491 C2515 0.951 . S
H2492 C2517 0.951 . S
H2493 C2519 0.950 . S
H2494 C2520 0.950 . S
H2495 C2522 0.950 . S
H2496 C2525 0.950 . S
H2497 C2526 0.950 . S
H2498 C2528 0.950 . S
H2499 C2529 0.950 . S
C2500 H2482 0.951 . S
C2500 C2501 1.366 . S
C2500 C2502 1.388 . S
C2501 C2500 1.366 . S
C2501 C2505 1.385 . S
C2502 H2483 0.951 . S
C2502 C2500 1.388 . S
C2502 C2503 1.366 . S
C2503 C2502 1.366 . S
C2503 C2504 1.414 . S
C2503 C2506 1.499 . S
C2504 H2484 0.950 1_455 S
C2504 C2503 1.414 . S
C2504 C2505 1.374 . S
C2505 H2485 0.950 . S
C2505 C2501 1.385 . S
C2505 C2504 1.374 . S
C2506 C2503 1.499 . S
C2506 C2507 1.373 . S
C2506 C2508 1.389 . S
C2507 H2486 0.950 . S
C2507 C2506 1.373 . S
C2507 C2523 1.377 . S
C2508 C2506 1.389 . S
C2508 C2509 1.524 . S
C2508 C2522 1.377 . S
C2509 C2508 1.524 . S
C2509 C2510 1.397 . S
C2509 C2514 1.363 . S
C2510 H2487 0.950 . S
C2510 C2509 1.397 . S
C2510 C2511 1.334 1_556 S
C2511 H2488 0.950 . S
C2511 C2510 1.334 1_554 S
C2511 C2512 1.287 . S
C2512 C2511 1.287 . S
C2512 C2513 1.524 1_554 S
C2512 H2531 0.913 . S
C2513 H2489 0.950 . S
C2513 C2512 1.524 1_556 S
C2513 C2514 1.415 . S
C2514 H2490 0.950 . S
C2514 C2509 1.363 . S
C2514 C2513 1.415 . S
C2515 H2491 0.951 . S
C2515 C2516 1.366 1_655 S
C2515 C2517 1.388 . S
C2516 C2515 1.366 1_455 S
C2516 C2520 1.385 . S
C2517 H2492 0.951 . S
C2517 C2515 1.388 . S
C2517 C2518 1.366 1_655 S
C2518 C2517 1.366 1_455 S
C2518 C2519 1.414 . S
C2518 C2521 1.499 . S
C2519 H2493 0.950 . S
C2519 C2518 1.414 . S
C2519 C2520 1.374 . S
C2520 H2494 0.950 . S
C2520 C2516 1.385 . S
C2520 C2519 1.374 . S
C2521 C2518 1.499 . S
C2521 C2522 1.373 . S
C2521 C2523 1.389 . S
C2522 H2495 0.950 . S
C2522 C2508 1.377 . S
C2522 C2521 1.373 . S
C2523 C2507 1.377 . S
C2523 C2521 1.389 . S
C2523 C2524 1.536 . S
C2524 C2523 1.536 . S
C2524 C2525 1.409 . S
C2524 C2529 1.342 1_455 S
C2525 H2496 0.950 . S
C2525 C2524 1.409 . S
C2525 C2526 1.334 . S
C2526 H2497 0.950 . S
C2526 C2525 1.334 . S
C2526 C2527 1.287 1_455 S
C2527 C2526 1.287 1_655 S
C2527 C2528 1.524 . S
C2527 H2530 0.999 . S
C2528 H2498 0.950 . S
C2528 C2527 1.524 . S
C2528 C2529 1.415 . S
C2529 H2499 0.950 . S
C2529 C2524 1.342 1_655 S
C2529 C2528 1.415 . S
H2530 C2527 0.999 . S
H2531 C2512 0.913 . S
H2532 C2550 0.951 . S
H2533 C2552 0.951 . S
H2534 C2554 0.950 . S
H2535 C2555 0.950 . S
H2536 C2557 0.950 . S
H2537 C2560 0.950 . S
H2538 C2561 0.950 . S
H2539 C2563 0.950 . S
H2540 C2564 0.950 . S
H2541 C2565 0.951 . S
H2542 C2567 0.951 . S
H2543 C2569 0.950 . S
H2544 C2570 0.950 . S
H2545 C2572 0.950 . S
H2546 C2575 0.950 . S
H2547 C2576 0.950 . S
H2548 C2578 0.950 . S
H2549 C2579 0.950 . S
C2550 H2532 0.951 . S
C2550 C2551 1.366 . S
C2550 C2552 1.388 . S
C2551 C2550 1.366 . S
C2551 C2555 1.385 . S
C2552 H2533 0.951 . S
C2552 C2550 1.388 . S
C2552 C2553 1.366 . S
C2553 C2552 1.366 . S
C2553 C2554 1.414 . S
C2553 C2556 1.499 . S
C2554 H2534 0.950 . S
C2554 C2553 1.414 . S
C2554 C2555 1.374 . S
C2555 H2535 0.950 . S
C2555 C2551 1.385 . S
C2555 C2554 1.374 . S
C2556 C2553 1.499 . S
C2556 C2557 1.373 . S
C2556 C2558 1.389 . S
C2557 H2536 0.950 . S
C2557 C2556 1.373 . S
C2557 C2573 1.377 . S
C2558 C2556 1.389 . S
C2558 C2559 1.524 . S
C2558 C2572 1.377 . S
C2559 C2558 1.524 . S
C2559 C2560 1.397 . S
C2559 C2564 1.363 . S
C2560 H2537 0.950 . S
C2560 C2559 1.397 . S
C2560 C2561 1.334 . S
C2561 H2538 0.950 . S
C2561 C2560 1.334 . S
C2561 C2562 1.287 . S
C2562 C2561 1.287 . S
C2562 C2563 1.524 . S
C2562 H2581 0.913 . S
C2563 H2539 0.950 . S
C2563 C2562 1.524 . S
C2563 C2564 1.415 . S
C2564 H2540 0.950 . S
C2564 C2559 1.363 . S
C2564 C2563 1.415 . S
C2565 H2541 0.951 . S
C2565 C2566 1.366 . S
C2565 C2567 1.388 . S
C2566 C2565 1.366 . S
C2566 C2570 1.385 . S
C2567 H2542 0.951 . S
C2567 C2565 1.388 . S
C2567 C2568 1.366 . S
C2568 C2567 1.366 . S
C2568 C2569 1.414 . S
C2568 C2571 1.499 . S
C2569 H2543 0.950 . S
C2569 C2568 1.414 . S
C2569 C2570 1.374 . S
C2570 H2544 0.950 . S
C2570 C2566 1.385 . S
C2570 C2569 1.374 . S
C2571 C2568 1.499 . S
C2571 C2572 1.373 . S
C2571 C2573 1.389 . S
C2572 H2545 0.950 . S
C2572 C2558 1.377 . S
C2572 C2571 1.373 . S
C2573 C2557 1.377 . S
C2573 C2571 1.389 . S
C2573 C2574 1.524 . S
C2574 C2573 1.524 . S
C2574 C2575 1.397 . S
C2574 C2579 1.363 . S
C2575 H2546 0.950 . S
C2575 C2574 1.397 . S
C2575 C2576 1.334 . S
C2576 H2547 0.950 . S
C2576 C2575 1.334 . S
C2576 C2577 1.287 . S
C2577 C2576 1.287 . S
C2577 C2578 1.524 . S
C2577 H2580 0.999 . S
C2578 H2548 0.950 . S
C2578 C2577 1.524 . S
C2578 C2579 1.415 . S
C2579 H2549 0.950 . S
C2579 C2574 1.363 . S
C2579 C2578 1.415 . S
H2580 C2577 0.999 . S
H2581 C2562 0.913 . S
H2582 C2600 0.951 . S
H2583 C2602 0.951 . S
H2584 C2604 0.950 . S
H2585 C2605 0.950 . S
H2586 C2607 0.950 . S
H2587 C2610 0.950 . S
H2588 C2611 0.950 . S
H2589 C2613 0.950 . S
H2590 C2614 0.950 . S
H2591 C2615 0.951 . S
H2592 C2617 0.951 . S
H2593 C2619 0.950 . S
H2594 C2620 0.950 . S
H2595 C2622 0.950 . S
H2596 C2625 0.950 . S
H2597 C2626 0.950 . S
H2598 C2628 0.950 . S
H2599 C2629 0.950 . S
C2600 H2582 0.951 . S
C2600 C2601 1.366 . S
C2600 C2602 1.388 . S
C2601 C2600 1.366 . S
C2601 C2605 1.385 . S
C2602 H2583 0.951 . S
C2602 C2600 1.388 . S
C2602 C2603 1.366 . S
C2603 C2602 1.366 . S
C2603 C2604 1.414 . S
C2603 C2606 1.499 . S
C2604 H2584 0.950 . S
C2604 C2603 1.414 . S
C2604 C2605 1.374 . S
C2605 H2585 0.950 . S
C2605 C2601 1.385 . S
C2605 C2604 1.374 . S
C2606 C2603 1.499 . S
C2606 C2607 1.373 . S
C2606 C2608 1.389 . S
C2607 H2586 0.950 . S
C2607 C2606 1.373 . S
C2607 C2623 1.377 . S
C2608 C2606 1.389 . S
C2608 C2609 1.524 . S
C2608 C2622 1.377 . S
C2609 C2608 1.524 . S
C2609 C2610 1.397 . S
C2609 C2614 1.363 . S
C2610 H2587 0.950 . S
C2610 C2609 1.397 . S
C2610 C2611 1.334 . S
C2611 H2588 0.950 . S
C2611 C2610 1.334 . S
C2611 C2612 1.287 . S
C2612 C2611 1.287 . S
C2612 C2613 1.524 . S
C2612 H2631 0.913 . S
C2613 H2589 0.950 . S
C2613 C2612 1.524 . S
C2613 C2614 1.415 . S
C2614 H2590 0.950 . S
C2614 C2609 1.363 . S
C2614 C2613 1.415 . S
C2615 H2591 0.951 . S
C2615 C2616 1.366 . S
C2615 C2617 1.388 . S
C2616 C2615 1.366 . S
C2616 C2620 1.385 . S
C2617 H2592 0.951 . S
C2617 C2615 1.388 . S
C2617 C2618 1.366 . S
C2618 C2617 1.366 . S
C2618 C2619 1.414 . S
C2618 C2621 1.499 . S
C2619 H2593 0.950 . S
C2619 C2618 1.414 . S
C2619 C2620 1.374 . S
C2620 H2594 0.950 . S
C2620 C2616 1.385 . S
C2620 C2619 1.374 . S
C2621 C2618 1.499 . S
C2621 C2622 1.373 . S
C2621 C2623 1.389 . S
C2622 H2595 0.950 . S
C2622 C2608 1.377 . S
C2622 C2621 1.373 . S
C2623 C2607 1.377 . S
C2623 C2621 1.389 . S
C2623 C2624 1.524 . S
C2624 C2623 1.524 . S
C2624 C2625 1.397 . S
C2624 C2629 1.363 . S
C2625 H2596 0.950 . S
C2625 C2624 1.397 . S
C2625 C2626 1.334 . S
C2626 H2597 0.950 . S
C2626 C2625 1.334 . S
C2626 C2627 1.287 . S
C2627 C2626 1.287 . S
C2627 C2628 1.524 . S
C2627 H2630 0.999 . S
C2628 H2598 0.950 . S
C2628 C2627 1.524 . S
C2628 C2629 1.415 . S
C2629 H2599 0.950 . S
C2629 C2624 1.363 . S
C2629 C2628 1.415 . S
H2630 C2627 0.999 . S
H2631 C2612 0.913 . S
H2632 C2650 0.951 . S
H2633 C2652 0.951 . S
H2634 C2654 0.950 . S
H2635 C2655 0.950 . S
H2636 C2657 0.950 . S
H2637 C2660 0.950 . S
H2638 C2661 0.950 . S
H2639 C2663 0.950 . S
H2640 C2664 0.950 . S
H2641 C2665 0.951 . S
H2642 C2667 0.951 . S
H2643 C2669 0.950 . S
H2644 C2670 0.950 . S
H2645 C2672 0.950 . S
H2646 C2675 0.950 . S
H2647 C2676 0.950 . S
H2648 C2678 0.950 . S
H2649 C2679 0.950 . S
C2650 H2632 0.951 . S
C2650 C2651 1.366 . S
C2650 C2652 1.388 . S
C2651 C2650 1.366 . S
C2651 C2655 1.385 . S
C2652 H2633 0.951 . S
C2652 C2650 1.388 . S
C2652 C2653 1.366 . S
C2653 C2652 1.366 . S
C2653 C2654 1.414 . S
C2653 C2656 1.499 . S
C2654 H2634 0.950 . S
C2654 C2653 1.414 . S
C2654 C2655 1.374 . S
C2655 H2635 0.950 . S
C2655 C2651 1.385 . S
C2655 C2654 1.374 . S
C2656 C2653 1.499 . S
C2656 C2657 1.373 . S
C2656 C2658 1.389 . S
C2657 H2636 0.950 . S
C2657 C2656 1.373 . S
C2657 C2673 1.377 . S
C2658 C2656 1.389 . S
C2658 C2659 1.524 . S
C2658 C2672 1.377 . S
C2659 C2658 1.524 . S
C2659 C2660 1.397 . S
C2659 C2664 1.363 . S
C2660 H2637 0.950 . S
C2660 C2659 1.397 . S
C2660 C2661 1.334 . S
C2661 H2638 0.950 . S
C2661 C2660 1.334 . S
C2661 C2662 1.287 . S
C2662 C2661 1.287 . S
C2662 C2663 1.524 . S
C2662 H2681 0.913 . S
C2663 H2639 0.950 . S
C2663 C2662 1.524 . S
C2663 C2664 1.415 . S
C2664 H2640 0.950 . S
C2664 C2659 1.363 . S
C2664 C2663 1.415 . S
C2665 H2641 0.951 . S
C2665 C2666 1.366 . S
C2665 C2667 1.388 . S
C2666 C2665 1.366 . S
C2666 C2670 1.385 . S
C2667 H2642 0.951 . S
C2667 C2665 1.388 . S
C2667 C2668 1.366 . S
C2668 C2667 1.366 . S
C2668 C2669 1.414 . S
C2668 C2671 1.499 . S
C2669 H2643 0.950 . S
C2669 C2668 1.414 . S
C2669 C2670 1.374 . S
C2670 H2644 0.950 . S
C2670 C2666 1.385 . S
C2670 C2669 1.374 . S
C2671 C2668 1.499 . S
C2671 C2672 1.373 . S
C2671 C2673 1.389 . S
C2672 H2645 0.950 . S
C2672 C2658 1.377 . S
C2672 C2671 1.373 . S
C2673 C2657 1.377 . S
C2673 C2671 1.389 . S
C2673 C2674 1.524 . S
C2674 C2673 1.524 . S
C2674 C2675 1.397 . S
C2674 C2679 1.363 . S
C2675 H2646 0.950 . S
C2675 C2674 1.397 . S
C2675 C2676 1.334 . S
C2676 H2647 0.950 . S
C2676 C2675 1.334 . S
C2676 C2677 1.287 . S
C2677 C2676 1.287 . S
C2677 C2678 1.524 . S
C2677 H2680 0.999 . S
C2678 H2648 0.950 . S
C2678 C2677 1.524 . S
C2678 C2679 1.415 . S
C2679 H2649 0.950 . S
C2679 C2674 1.363 . S
C2679 C2678 1.415 . S
H2680 C2677 0.999 . S
H2681 C2662 0.913 . S
H2682 C2700 0.951 . S
H2683 C2702 0.951 . S
H2684 C2704 0.950 . S
H2685 C2705 0.950 . S
H2686 C2707 0.950 . S
H2687 C2710 0.950 . S
H2688 C2711 0.950 . S
H2689 C2713 0.950 . S
H2690 C2714 0.950 . S
H2691 C2715 0.951 . S
H2692 C2717 0.951 . S
H2693 C2719 0.950 . S
H2694 C2720 0.950 . S
H2695 C2722 0.950 . S
H2696 C2725 0.950 . S
H2697 C2726 0.950 . S
H2698 C2728 0.950 . S
H2699 C2729 0.950 . S
C2700 H2682 0.951 . S
C2700 C2701 1.366 . S
C2700 C2702 1.388 . S
C2701 C2700 1.366 . S
C2701 C2705 1.385 . S
C2702 H2683 0.951 . S
C2702 C2700 1.388 . S
C2702 C2703 1.366 . S
C2703 C2702 1.366 . S
C2703 C2704 1.414 . S
C2703 C2706 1.499 . S
C2704 H2684 0.950 . S
C2704 C2703 1.414 . S
C2704 C2705 1.374 . S
C2705 H2685 0.950 . S
C2705 C2701 1.385 . S
C2705 C2704 1.374 . S
C2706 C2703 1.499 . S
C2706 C2707 1.373 . S
C2706 C2708 1.389 . S
C2707 H2686 0.950 . S
C2707 C2706 1.373 . S
C2707 C2723 1.377 . S
C2708 C2706 1.389 . S
C2708 C2709 1.524 . S
C2708 C2722 1.377 . S
C2709 C2708 1.524 . S
C2709 C2710 1.397 . S
C2709 C2714 1.363 . S
C2710 H2687 0.950 . S
C2710 C2709 1.397 . S
C2710 C2711 1.334 . S
C2711 H2688 0.950 . S
C2711 C2710 1.334 . S
C2711 C2712 1.287 . S
C2712 C2711 1.287 . S
C2712 C2713 1.524 . S
C2712 H2731 0.913 . S
C2713 H2689 0.950 . S
C2713 C2712 1.524 . S
C2713 C2714 1.415 . S
C2714 H2690 0.950 . S
C2714 C2709 1.363 . S
C2714 C2713 1.415 . S
C2715 H2691 0.951 . S
C2715 C2716 1.366 . S
C2715 C2717 1.388 . S
C2716 C2715 1.366 . S
C2716 C2720 1.385 . S
C2717 H2692 0.951 . S
C2717 C2715 1.388 . S
C2717 C2718 1.366 . S
C2718 C2717 1.366 . S
C2718 C2719 1.414 . S
C2718 C2721 1.499 . S
C2719 H2693 0.950 . S
C2719 C2718 1.414 . S
C2719 C2720 1.374 . S
C2720 H2694 0.950 . S
C2720 C2716 1.385 . S
C2720 C2719 1.374 . S
C2721 C2718 1.499 . S
C2721 C2722 1.373 . S
C2721 C2723 1.389 . S
C2722 H2695 0.950 . S
C2722 C2708 1.377 . S
C2722 C2721 1.373 . S
C2723 C2707 1.377 . S
C2723 C2721 1.389 . S
C2723 C2724 1.524 . S
C2724 C2723 1.524 . S
C2724 C2725 1.397 . S
C2724 C2729 1.363 . S
C2725 H2696 0.950 . S
C2725 C2724 1.397 . S
C2725 C2726 1.334 . S
C2726 H2697 0.950 . S
C2726 C2725 1.334 . S
C2726 C2727 1.287 . S
C2727 C2726 1.287 . S
C2727 C2728 1.524 . S
C2727 H2730 0.999 . S
C2728 H2698 0.950 . S
C2728 C2727 1.524 . S
C2728 C2729 1.415 . S
C2729 H2699 0.950 . S
C2729 C2724 1.363 . S
C2729 C2728 1.415 . S
H2730 C2727 0.999 . S
H2731 C2712 0.913 . S
H2732 C2750 0.951 . S
H2733 C2752 0.951 . S
H2734 C2754 0.950 . S
H2735 C2755 0.950 . S
H2736 C2757 0.950 . S
H2737 C2760 0.950 . S
H2738 C2761 0.950 . S
H2739 C2763 0.950 . S
H2740 C2764 0.950 . S
H2741 C2765 0.951 . S
H2742 C2767 0.951 . S
H2743 C2769 0.950 . S
H2744 C2770 0.950 . S
H2745 C2772 0.950 . S
H2746 C2775 0.950 . S
H2747 C2776 0.950 . S
H2748 C2778 0.950 . S
H2749 C2779 0.950 . S
C2750 H2732 0.951 . S
C2750 C2751 1.366 . S
C2750 C2752 1.388 . S
C2751 C2750 1.366 . S
C2751 C2755 1.385 . S
C2752 H2733 0.951 . S
C2752 C2750 1.388 . S
C2752 C2753 1.366 . S
C2753 C2752 1.366 . S
C2753 C2754 1.414 . S
C2753 C2756 1.499 . S
C2754 H2734 0.950 . S
C2754 C2753 1.414 . S
C2754 C2755 1.374 . S
C2755 H2735 0.950 . S
C2755 C2751 1.385 . S
C2755 C2754 1.374 . S
C2756 C2753 1.499 . S
C2756 C2757 1.373 . S
C2756 C2758 1.389 . S
C2757 H2736 0.950 . S
C2757 C2756 1.373 . S
C2757 C2773 1.377 . S
C2758 C2756 1.389 . S
C2758 C2759 1.524 . S
C2758 C2772 1.377 . S
C2759 C2758 1.524 . S
C2759 C2760 1.397 . S
C2759 C2764 1.363 . S
C2760 H2737 0.950 . S
C2760 C2759 1.397 . S
C2760 C2761 1.334 . S
C2761 H2738 0.950 . S
C2761 C2760 1.334 . S
C2761 C2762 1.287 . S
C2762 C2761 1.287 . S
C2762 C2763 1.524 . S
C2762 H2781 0.913 . S
C2763 H2739 0.950 . S
C2763 C2762 1.524 . S
C2763 C2764 1.415 . S
C2764 H2740 0.950 . S
C2764 C2759 1.363 . S
C2764 C2763 1.415 . S
C2765 H2741 0.951 . S
C2765 C2766 1.366 . S
C2765 C2767 1.388 . S
C2766 C2765 1.366 . S
C2766 C2770 1.385 . S
C2767 H2742 0.951 . S
C2767 C2765 1.388 . S
C2767 C2768 1.366 . S
C2768 C2767 1.366 . S
C2768 C2769 1.414 . S
C2768 C2771 1.499 . S
C2769 H2743 0.950 . S
C2769 C2768 1.414 . S
C2769 C2770 1.374 . S
C2770 H2744 0.950 . S
C2770 C2766 1.385 . S
C2770 C2769 1.374 . S
C2771 C2768 1.499 . S
C2771 C2772 1.373 . S
C2771 C2773 1.389 . S
C2772 H2745 0.950 . S
C2772 C2758 1.377 . S
C2772 C2771 1.373 . S
C2773 C2757 1.377 . S
C2773 C2771 1.389 . S
C2773 C2774 1.524 . S
C2774 C2773 1.524 . S
C2774 C2775 1.397 . S
C2774 C2779 1.363 . S
C2775 H2746 0.950 . S
C2775 C2774 1.397 . S
C2775 C2776 1.334 . S
C2776 H2747 0.950 . S
C2776 C2775 1.334 . S
C2776 C2777 1.287 . S
C2777 C2776 1.287 . S
C2777 C2778 1.524 . S
C2777 H2780 0.999 . S
C2778 H2748 0.950 . S
C2778 C2777 1.524 . S
C2778 C2779 1.415 . S
C2779 H2749 0.950 . S
C2779 C2774 1.363 . S
C2779 C2778 1.415 . S
H2780 C2777 0.999 . S
H2781 C2762 0.913 . S
H2782 C2800 0.951 . S
H2783 C2802 0.951 . S
H2784 C2804 0.950 . S
H2785 C2805 0.950 . S
H2786 C2807 0.950 . S
H2787 C2810 0.950 . S
H2788 C2811 0.950 . S
H2789 C2813 0.950 . S
H2790 C2814 0.950 . S
H2791 C2815 0.951 . S
H2792 C2817 0.951 . S
H2793 C2819 0.950 . S
H2794 C2820 0.950 . S
H2795 C2822 0.950 . S
H2796 C2825 0.950 . S
H2797 C2826 0.950 . S
H2798 C2828 0.950 . S
H2799 C2829 0.950 . S
C2800 H2782 0.951 . S
C2800 C2801 1.366 . S
C2800 C2802 1.388 . S
C2801 C2800 1.366 . S
C2801 C2805 1.385 . S
C2802 H2783 0.951 . S
C2802 C2800 1.388 . S
C2802 C2803 1.366 . S
C2803 C2802 1.366 . S
C2803 C2804 1.414 . S
C2803 C2806 1.499 . S
C2804 H2784 0.950 . S
C2804 C2803 1.414 . S
C2804 C2805 1.374 . S
C2805 H2785 0.950 . S
C2805 C2801 1.385 . S
C2805 C2804 1.374 . S
C2806 C2803 1.499 . S
C2806 C2807 1.373 . S
C2806 C2808 1.389 . S
C2807 H2786 0.950 . S
C2807 C2806 1.373 . S
C2807 C2823 1.377 . S
C2808 C2806 1.389 . S
C2808 C2809 1.524 . S
C2808 C2822 1.377 . S
C2809 C2808 1.524 . S
C2809 C2810 1.397 . S
C2809 C2814 1.363 . S
C2810 H2787 0.950 . S
C2810 C2809 1.397 . S
C2810 C2811 1.334 . S
C2811 H2788 0.950 . S
C2811 C2810 1.334 . S
C2811 C2812 1.287 . S
C2812 C2811 1.287 . S
C2812 C2813 1.524 . S
C2812 H2831 0.913 . S
C2813 H2789 0.950 . S
C2813 C2812 1.524 . S
C2813 C2814 1.415 . S
C2814 H2790 0.950 . S
C2814 C2809 1.363 . S
C2814 C2813 1.415 . S
C2815 H2791 0.951 . S
C2815 C2816 1.366 . S
C2815 C2817 1.388 . S
C2816 C2815 1.366 . S
C2816 C2820 1.385 . S
C2817 H2792 0.951 . S
C2817 C2815 1.388 . S
C2817 C2818 1.366 . S
C2818 C2817 1.366 . S
C2818 C2819 1.414 . S
C2818 C2821 1.499 . S
C2819 H2793 0.950 . S
C2819 C2818 1.414 . S
C2819 C2820 1.374 . S
C2820 H2794 0.950 . S
C2820 C2816 1.385 . S
C2820 C2819 1.374 . S
C2821 C2818 1.499 . S
C2821 C2822 1.373 . S
C2821 C2823 1.389 . S
C2822 H2795 0.950 . S
C2822 C2808 1.377 . S
C2822 C2821 1.373 . S
C2823 C2807 1.377 . S
C2823 C2821 1.389 . S
C2823 C2824 1.524 . S
C2824 C2823 1.524 . S
C2824 C2825 1.397 . S
C2824 C2829 1.363 . S
C2825 H2796 0.950 . S
C2825 C2824 1.397 . S
C2825 C2826 1.334 . S
C2826 H2797 0.950 . S
C2826 C2825 1.334 . S
C2826 C2827 1.287 . S
C2827 C2826 1.287 . S
C2827 C2828 1.524 . S
C2827 H2830 0.999 . S
C2828 H2798 0.950 . S
C2828 C2827 1.524 . S
C2828 C2829 1.415 . S
C2829 H2799 0.950 . S
C2829 C2824 1.363 . S
C2829 C2828 1.415 . S
H2830 C2827 0.999 . S
H2831 C2812 0.913 . S
H2832 C2850 0.951 . S
H2833 C2852 0.951 . S
H2834 C2854 0.950 . S
H2835 C2855 0.950 . S
H2836 C2857 0.950 . S
H2837 C2860 0.950 . S
H2838 C2861 0.950 . S
H2839 C2863 0.950 . S
H2840 C2864 0.950 . S
H2841 C2865 0.951 . S
H2842 C2867 0.951 . S
H2843 C2869 0.950 . S
H2844 C2870 0.950 . S
H2845 C2872 0.950 . S
H2846 C2875 0.950 . S
H2847 C2876 0.950 . S
H2848 C2878 0.950 . S
H2849 C2879 0.950 . S
C2850 H2832 0.951 . S
C2850 C2851 1.366 . S
C2850 C2852 1.388 . S
C2851 C2850 1.366 . S
C2851 C2855 1.385 . S
C2852 H2833 0.951 . S
C2852 C2850 1.388 . S
C2852 C2853 1.366 . S
C2853 C2852 1.366 . S
C2853 C2854 1.414 . S
C2853 C2856 1.499 . S
C2854 H2834 0.950 . S
C2854 C2853 1.414 . S
C2854 C2855 1.374 . S
C2855 H2835 0.950 . S
C2855 C2851 1.385 . S
C2855 C2854 1.374 . S
C2856 C2853 1.499 . S
C2856 C2857 1.373 . S
C2856 C2858 1.389 . S
C2857 H2836 0.950 . S
C2857 C2856 1.373 . S
C2857 C2873 1.377 . S
C2858 C2856 1.389 . S
C2858 C2859 1.524 . S
C2858 C2872 1.377 . S
C2859 C2858 1.524 . S
C2859 C2860 1.397 . S
C2859 C2864 1.363 . S
C2860 H2837 0.950 . S
C2860 C2859 1.397 . S
C2860 C2861 1.334 . S
C2861 H2838 0.950 . S
C2861 C2860 1.334 . S
C2861 C2862 1.287 . S
C2862 C2861 1.287 . S
C2862 C2863 1.524 . S
C2862 H2881 0.913 . S
C2863 H2839 0.950 . S
C2863 C2862 1.524 . S
C2863 C2864 1.415 . S
C2864 H2840 0.950 . S
C2864 C2859 1.363 . S
C2864 C2863 1.415 . S
C2865 H2841 0.951 . S
C2865 C2866 1.366 . S
C2865 C2867 1.388 . S
C2866 C2865 1.366 . S
C2866 C2870 1.385 . S
C2867 H2842 0.951 . S
C2867 C2865 1.388 . S
C2867 C2868 1.366 . S
C2868 C2867 1.366 . S
C2868 C2869 1.414 . S
C2868 C2871 1.499 . S
C2869 H2843 0.950 . S
C2869 C2868 1.414 . S
C2869 C2870 1.374 . S
C2870 H2844 0.950 . S
C2870 C2866 1.385 . S
C2870 C2869 1.374 . S
C2871 C2868 1.499 . S
C2871 C2872 1.373 . S
C2871 C2873 1.389 . S
C2872 H2845 0.950 . S
C2872 C2858 1.377 . S
C2872 C2871 1.373 . S
C2873 C2857 1.377 . S
C2873 C2871 1.389 . S
C2873 C2874 1.524 . S
C2874 C2873 1.524 . S
C2874 C2875 1.397 . S
C2874 C2879 1.363 . S
C2875 H2846 0.950 . S
C2875 C2874 1.397 . S
C2875 C2876 1.334 . S
C2876 H2847 0.950 . S
C2876 C2875 1.334 . S
C2876 C2877 1.287 . S
C2877 C2876 1.287 . S
C2877 C2878 1.524 . S
C2877 H2880 0.999 . S
C2878 H2848 0.950 . S
C2878 C2877 1.524 . S
C2878 C2879 1.415 . S
C2879 H2849 0.950 . S
C2879 C2874 1.363 . S
C2879 C2878 1.415 . S
H2880 C2877 0.999 . S
H2881 C2862 0.913 . S
H2882 C2900 0.951 . S
H2883 C2902 0.951 . S
H2884 C2904 0.950 . S
H2885 C2905 0.950 . S
H2886 C2907 0.950 . S
H2887 C2910 0.950 . S
H2888 C2911 0.950 . S
H2889 C2913 0.950 . S
H2890 C2914 0.950 . S
H2891 C2915 0.951 . S
H2892 C2917 0.951 . S
H2893 C2919 0.950 . S
H2894 C2920 0.950 . S
H2895 C2922 0.950 . S
H2896 C2925 0.950 . S
H2897 C2926 0.950 . S
H2898 C2928 0.950 . S
H2899 C2929 0.950 . S
C2900 H2882 0.951 . S
C2900 C2901 1.366 . S
C2900 C2902 1.388 . S
C2901 C2900 1.366 . S
C2901 C2905 1.385 . S
C2902 H2883 0.951 . S
C2902 C2900 1.388 . S
C2902 C2903 1.366 . S
C2903 C2902 1.366 . S
C2903 C2904 1.414 . S
C2903 C2906 1.499 . S
C2904 H2884 0.950 . S
C2904 C2903 1.414 . S
C2904 C2905 1.374 . S
C2905 H2885 0.950 . S
C2905 C2901 1.385 . S
C2905 C2904 1.374 . S
C2906 C2903 1.499 . S
C2906 C2907 1.373 . S
C2906 C2908 1.389 . S
C2907 H2886 0.950 . S
C2907 C2906 1.373 . S
C2907 C2923 1.377 . S
C2908 C2906 1.389 . S
C2908 C2909 1.524 . S
C2908 C2922 1.377 . S
C2909 C2908 1.524 . S
C2909 C2910 1.397 . S
C2909 C2914 1.363 . S
C2910 H2887 0.950 . S
C2910 C2909 1.397 . S
C2910 C2911 1.334 . S
C2911 H2888 0.950 . S
C2911 C2910 1.334 . S
C2911 C2912 1.287 . S
C2912 C2911 1.287 . S
C2912 C2913 1.524 . S
C2912 H2931 0.913 . S
C2913 H2889 0.950 . S
C2913 C2912 1.524 . S
C2913 C2914 1.415 . S
C2914 H2890 0.950 . S
C2914 C2909 1.363 . S
C2914 C2913 1.415 . S
C2915 H2891 0.951 . S
C2915 C2916 1.366 . S
C2915 C2917 1.388 . S
C2916 C2915 1.366 . S
C2916 C2920 1.385 . S
C2917 H2892 0.951 . S
C2917 C2915 1.388 . S
C2917 C2918 1.366 . S
C2918 C2917 1.366 . S
C2918 C2919 1.414 . S
C2918 C2921 1.499 . S
C2919 H2893 0.950 . S
C2919 C2918 1.414 . S
C2919 C2920 1.374 . S
C2920 H2894 0.950 . S
C2920 C2916 1.385 . S
C2920 C2919 1.374 . S
C2921 C2918 1.499 . S
C2921 C2922 1.373 . S
C2921 C2923 1.389 . S
C2922 H2895 0.950 . S
C2922 C2908 1.377 . S
C2922 C2921 1.373 . S
C2923 C2907 1.377 . S
C2923 C2921 1.389 . S
C2923 C2924 1.524 . S
C2924 C2923 1.524 . S
C2924 C2925 1.397 . S
C2924 C2929 1.363 . S
C2925 H2896 0.950 . S
C2925 C2924 1.397 . S
C2925 C2926 1.334 . S
C2926 H2897 0.950 . S
C2926 C2925 1.334 . S
C2926 C2927 1.287 . S
C2927 C2926 1.287 . S
C2927 C2928 1.524 . S
C2927 H2930 0.999 . S
C2928 H2898 0.950 . S
C2928 C2927 1.524 . S
C2928 C2929 1.415 . S
C2929 H2899 0.950 . S
C2929 C2924 1.363 . S
C2929 C2928 1.415 . S
H2930 C2927 0.999 . S
H2931 C2912 0.913 . S
H2932 C2950 0.951 . S
H2933 C2952 0.951 . S
H2934 C2954 0.950 . S
H2935 C2955 0.950 . S
H2936 C2957 0.950 . S
H2937 C2960 0.950 . S
H2938 C2961 0.950 . S
H2939 C2963 0.950 . S
H2940 C2964 0.950 . S
H2941 C2965 0.951 . S
H2942 C2967 0.951 . S
H2943 C2969 0.950 . S
H2944 C2970 0.950 1_554 S
H2945 C2972 0.950 . S
H2946 C2975 0.950 . S
H2947 C2976 0.950 . S
H2948 C2978 0.950 . S
H2949 C2979 0.950 . S
C2950 H2932 0.951 . S
C2950 C2951 1.366 . S
C2950 C2952 1.388 . S
C2951 C2950 1.366 . S
C2951 C2955 1.385 . S
C2952 H2933 0.951 . S
C2952 C2950 1.388 . S
C2952 C2953 1.366 . S
C2953 C2952 1.366 . S
C2953 C2954 1.414 . S
C2953 C2956 1.499 . S
C2954 H2934 0.950 . S
C2954 C2953 1.414 . S
C2954 C2955 1.374 . S
C2955 H2935 0.950 . S
C2955 C2951 1.385 . S
C2955 C2954 1.374 . S
C2956 C2953 1.499 . S
C2956 C2957 1.373 . S
C2956 C2958 1.389 . S
C2957 H2936 0.950 . S
C2957 C2956 1.373 . S
C2957 C2973 1.377 . S
C2958 C2956 1.389 . S
C2958 C2959 1.524 . S
C2958 C2972 1.377 . S
C2959 C2958 1.524 . S
C2959 C2960 1.397 . S
C2959 C2964 1.363 . S
C2960 H2937 0.950 . S
C2960 C2959 1.397 . S
C2960 C2961 1.334 . S
C2961 H2938 0.950 . S
C2961 C2960 1.334 . S
C2961 C2962 1.287 . S
C2962 C2961 1.287 . S
C2962 C2963 1.524 . S
C2962 H2981 0.913 . S
C2963 H2939 0.950 . S
C2963 C2962 1.524 . S
C2963 C2964 1.415 . S
C2964 H2940 0.950 . S
C2964 C2959 1.363 . S
C2964 C2963 1.415 . S
C2965 H2941 0.951 . S
C2965 C2966 1.366 . S
C2965 C2967 1.388 . S
C2966 C2965 1.366 . S
C2966 C2970 1.385 . S
C2967 H2942 0.951 . S
C2967 C2965 1.388 . S
C2967 C2968 1.366 . S
C2968 C2967 1.366 . S
C2968 C2969 1.414 . S
C2968 C2971 1.499 . S
C2969 H2943 0.950 . S
C2969 C2968 1.414 . S
C2969 C2970 1.374 . S
C2970 H2944 0.950 1_556 S
C2970 C2966 1.385 . S
C2970 C2969 1.374 . S
C2971 C2968 1.499 . S
C2971 C2972 1.373 . S
C2971 C2973 1.389 . S
C2972 H2945 0.950 . S
C2972 C2958 1.377 . S
C2972 C2971 1.373 . S
C2973 C2957 1.377 . S
C2973 C2971 1.389 . S
C2973 C2974 1.512 1_556 S
C2974 C2973 1.512 1_554 S
C2974 C2975 1.417 . S
C2974 C2979 1.357 1_554 S
C2975 H2946 0.950 . S
C2975 C2974 1.417 . S
C2975 C2976 1.334 . S
C2976 H2947 0.950 . S
C2976 C2975 1.334 . S
C2976 C2977 1.287 . S
C2977 C2976 1.287 . S
C2977 C2978 1.524 . S
C2977 H2980 0.999 . S
C2978 H2948 0.950 . S
C2978 C2977 1.524 . S
C2978 C2979 1.415 1_554 S
C2979 H2949 0.950 . S
C2979 C2974 1.357 1_556 S
C2979 C2978 1.415 1_556 S
H2980 C2977 0.999 . S
H2981 C2962 0.913 . S
H2982 C3000 0.951 . S
H2983 C3002 0.951 . S
H2984 C3004 0.950 . S
H2985 C3005 0.950 . S
H2986 C3007 0.950 . S
H2987 C3010 0.950 . S
H2988 C3011 0.950 . S
H2989 C3013 0.950 . S
H2990 C3014 0.950 . S
H2991 C3015 0.951 . S
H2992 C3017 0.951 . S
H2993 C3019 0.950 . S
H2994 C3020 0.950 . S
H2995 C3022 0.950 . S
H2996 C3025 0.950 . S
H2997 C3026 0.950 . S
H2998 C3028 0.950 . S
H2999 C3029 0.950 . S
C3000 H2982 0.951 . S
C3000 C3001 1.366 . S
C3000 C3002 1.388 . S
C3001 C3000 1.366 . S
C3001 C3005 1.385 . S
C3002 H2983 0.951 . S
C3002 C3000 1.388 . S
C3002 C3003 1.366 . S
C3003 C3002 1.366 . S
C3003 C3004 1.414 . S
C3003 C3006 1.499 . S
C3004 H2984 0.950 . S
C3004 C3003 1.414 . S
C3004 C3005 1.374 . S
C3005 H2985 0.950 . S
C3005 C3001 1.385 . S
C3005 C3004 1.374 . S
C3006 C3003 1.499 . S
C3006 C3007 1.373 . S
C3006 C3008 1.389 . S
C3007 H2986 0.950 . S
C3007 C3006 1.373 . S
C3007 C3023 1.377 . S
C3008 C3006 1.389 . S
C3008 C3009 1.524 . S
C3008 C3022 1.377 . S
C3009 C3008 1.524 . S
C3009 C3010 1.397 . S
C3009 C3014 1.363 . S
C3010 H2987 0.950 . S
C3010 C3009 1.397 . S
C3010 C3011 1.334 . S
C3011 H2988 0.950 . S
C3011 C3010 1.334 . S
C3011 C3012 1.287 . S
C3012 C3011 1.287 . S
C3012 C3013 1.524 . S
C3012 H3031 0.913 . S
C3013 H2989 0.950 . S
C3013 C3012 1.524 . S
C3013 C3014 1.415 . S
C3014 H2990 0.950 . S
C3014 C3009 1.363 . S
C3014 C3013 1.415 . S
C3015 H2991 0.951 . S
C3015 C3016 1.366 . S
C3015 C3017 1.388 . S
C3016 C3015 1.366 . S
C3016 C3020 1.385 . S
C3017 H2992 0.951 . S
C3017 C3015 1.388 . S
C3017 C3018 1.366 . S
C3018 C3017 1.366 . S
C3018 C3019 1.414 . S
C3018 C3021 1.499 . S
C3019 H2993 0.950 . S
C3019 C3018 1.414 . S
C3019 C3020 1.374 . S
C3020 H2994 0.950 . S
C3020 C3016 1.385 . S
C3020 C3019 1.374 . S
C3021 C3018 1.499 . S
C3021 C3022 1.373 . S
C3021 C3023 1.389 . S
C3022 H2995 0.950 . S
C3022 C3008 1.377 . S
C3022 C3021 1.373 . S
C3023 C3007 1.377 . S
C3023 C3021 1.389 . S
C3023 C3024 1.524 . S
C3024 C3023 1.524 . S
C3024 C3025 1.397 . S
C3024 C3029 1.363 . S
C3025 H2996 0.950 . S
C3025 C3024 1.397 . S
C3025 C3026 1.334 . S
C3026 H2997 0.950 . S
C3026 C3025 1.334 . S
C3026 C3027 1.287 . S
C3027 C3026 1.287 . S
C3027 C3028 1.524 . S
C3027 H3030 0.999 . S
C3028 H2998 0.950 . S
C3028 C3027 1.524 . S
C3028 C3029 1.415 . S
C3029 H2999 0.950 . S
C3029 C3024 1.363 . S
C3029 C3028 1.415 . S
H3030 C3027 0.999 . S
H3031 C3012 0.913 . S
H3032 C3050 0.951 . S
H3033 C3052 0.965 . S
H3034 C3054 0.950 . S
H3035 C3055 0.950 . S
H3036 C3057 0.950 . S
H3037 C3060 0.950 . S
H3038 C3061 0.950 . S
H3039 C3063 0.950 1_556 S
H3040 C3064 0.950 1_556 S
H3041 C3065 0.951 . S
H3042 C3067 0.951 . S
H3043 C3069 0.950 . S
H3044 C3070 0.950 . S
H3045 C3072 0.950 . S
H3046 C3075 0.949 . S
H3047 C3076 0.950 . S
H3048 C3078 0.950 . S
H3049 C3079 0.950 . S
C3050 H3032 0.951 . S
C3050 C3051 1.366 . S
C3050 C3052 1.388 . S
C3051 C3050 1.366 . S
C3051 C3055 1.385 . S
C3052 H3033 0.965 . S
C3052 C3050 1.388 . S
C3052 C3053 1.366 . S
C3053 C3052 1.366 . S
C3053 C3054 1.414 . S
C3053 C3056 1.499 . S
C3054 H3034 0.950 . S
C3054 C3053 1.414 . S
C3054 C3055 1.374 . S
C3055 H3035 0.950 . S
C3055 C3051 1.385 . S
C3055 C3054 1.374 . S
C3056 C3053 1.499 . S
C3056 C3057 1.373 . S
C3056 C3058 1.389 . S
C3057 H3036 0.950 . S
C3057 C3056 1.373 . S
C3057 C3073 1.377 . S
C3058 C3056 1.389 . S
C3058 C3059 1.524 . S
C3058 C3072 1.377 . S
C3059 C3058 1.524 . S
C3059 C3060 1.397 . S
C3059 C3064 1.363 . S
C3060 H3037 0.950 . S
C3060 C3059 1.397 . S
C3060 C3061 1.334 . S
C3061 H3038 0.950 . S
C3061 C3060 1.334 . S
C3061 C3062 1.287 . S
C3062 C3061 1.287 . S
C3062 C3063 1.524 . S
C3062 H3081 0.913 . S
C3063 H3039 0.950 1_554 S
C3063 C3062 1.524 . S
C3063 C3064 1.415 . S
C3064 H3040 0.950 1_554 S
C3064 C3059 1.363 . S
C3064 C3063 1.415 . S
C3065 H3041 0.951 . S
C3065 C3066 1.366 . S
C3065 C3067 1.388 . S
C3066 C3065 1.366 . S
C3066 C3070 1.385 1_554 S
C3067 H3042 0.951 . S
C3067 C3065 1.388 . S
C3067 C3068 1.366 . S
C3068 C3067 1.366 . S
C3068 C3069 1.414 1_554 S
C3068 C3071 1.499 . S
C3069 H3043 0.950 . S
C3069 C3068 1.414 1_556 S
C3069 C3070 1.374 . S
C3070 H3044 0.950 . S
C3070 C3066 1.385 1_556 S
C3070 C3069 1.374 . S
C3071 C3068 1.499 . S
C3071 C3072 1.373 . S
C3071 C3073 1.389 . S
C3072 H3045 0.950 . S
C3072 C3058 1.377 . S
C3072 C3071 1.373 . S
C3073 C3057 1.377 . S
C3073 C3071 1.389 . S
C3073 C3074 1.524 . S
C3074 C3073 1.524 . S
C3074 C3075 1.397 1_554 S
C3074 C3079 1.363 . S
C3075 H3046 0.949 . S
C3075 C3074 1.397 1_556 S
C3075 C3076 1.334 . S
C3076 H3047 0.950 . S
C3076 C3075 1.334 . S
C3076 C3077 1.287 1_556 S
C3077 C3076 1.287 1_554 S
C3077 C3078 1.524 . S
C3077 H3080 0.999 . S
C3078 H3048 0.950 . S
C3078 C3077 1.524 . S
C3078 C3079 1.415 . S
C3079 H3049 0.950 . S
C3079 C3074 1.363 . S
C3079 C3078 1.415 . S
H3080 C3077 0.999 . S
H3081 C3062 0.913 . S
H3082 C3100 0.951 . S
H3083 C3102 0.951 . S
H3084 C3104 0.950 . S
H3085 C3105 0.950 1_545 S
H3086 C3107 0.950 . S
H3087 C3110 0.950 . S
H3088 C3111 0.950 . S
H3089 C3113 0.950 . S
H3090 C3114 0.950 . S
H3091 C3115 0.951 . S
H3092 C3117 0.951 . S
H3093 C3119 0.950 . S
H3094 C3120 0.950 . S
H3095 C3122 0.950 . S
H3096 C3125 0.950 . S
H3097 C3126 0.950 . S
H3098 C3128 0.945 1_545 S
H3099 C3129 0.950 . S
C3100 H3082 0.951 . S
C3100 C3101 1.366 . S
C3100 C3102 1.388 . S
C3101 C3100 1.366 . S
C3101 C3105 1.385 . S
C3102 H3083 0.951 . S
C3102 C3100 1.388 . S
C3102 C3103 1.366 . S
C3103 C3102 1.366 . S
C3103 C3104 1.414 . S
C3103 C3106 1.499 . S
C3104 H3084 0.950 . S
C3104 C3103 1.414 . S
C3104 C3105 1.374 . S
C3105 H3085 0.950 1_565 S
C3105 C3101 1.385 . S
C3105 C3104 1.374 . S
C3106 C3103 1.499 . S
C3106 C3107 1.373 . S
C3106 C3108 1.389 . S
C3107 H3086 0.950 . S
C3107 C3106 1.373 . S
C3107 C3123 1.377 . S
C3108 C3106 1.389 . S
C3108 C3109 1.524 . S
C3108 C3122 1.377 . S
C3109 C3108 1.524 . S
C3109 C3110 1.397 . S
C3109 C3114 1.363 . S
C3110 H3087 0.950 . S
C3110 C3109 1.397 . S
C3110 C3111 1.334 . S
C3111 H3088 0.950 . S
C3111 C3110 1.334 . S
C3111 C3112 1.287 . S
C3112 C3111 1.287 . S
C3112 C3113 1.524 . S
C3112 H3131 0.913 . S
C3113 H3089 0.950 . S
C3113 C3112 1.524 . S
C3113 C3114 1.415 . S
C3114 H3090 0.950 . S
C3114 C3109 1.363 . S
C3114 C3113 1.415 . S
C3115 H3091 0.951 . S
C3115 C3116 1.366 . S
C3115 C3117 1.388 . S
C3116 C3115 1.366 . S
C3116 C3120 1.385 . S
C3117 H3092 0.951 . S
C3117 C3115 1.388 . S
C3117 C3118 1.366 . S
C3118 C3117 1.366 . S
C3118 C3119 1.414 . S
C3118 C3121 1.499 . S
C3119 H3093 0.950 . S
C3119 C3118 1.414 . S
C3119 C3120 1.374 . S
C3120 H3094 0.950 . S
C3120 C3116 1.385 . S
C3120 C3119 1.374 . S
C3121 C3118 1.499 . S
C3121 C3122 1.373 . S
C3121 C3123 1.389 . S
C3122 H3095 0.950 . S
C3122 C3108 1.377 . S
C3122 C3121 1.373 . S
C3123 C3107 1.377 . S
C3123 C3121 1.389 . S
C3123 C3124 1.524 . S
C3124 C3123 1.524 . S
C3124 C3125 1.397 1_554 S
C3124 C3129 1.363 . S
C3125 H3096 0.950 . S
C3125 C3124 1.397 1_556 S
C3125 C3126 1.334 . S
C3126 H3097 0.950 . S
C3126 C3125 1.334 . S
C3126 C3127 1.287 . S
C3127 C3126 1.287 . S
C3127 C3128 1.524 1_556 S
C3127 H3130 0.999 . S
C3128 H3098 0.945 1_565 S
C3128 C3127 1.524 1_554 S
C3128 C3129 1.415 . S
C3129 H3099 0.950 . S
C3129 C3124 1.363 . S
C3129 C3128 1.415 . S
H3130 C3127 0.999 . S
H3131 C3112 0.913 . S
C766 C586 1.391 . S
C751 C181 1.398 . S
C816 C599 1.617 . S
C801 C247 1.628 . S
C851 C283 1.449 . S
C866 C612 1.444 . S
C916 C625 1.530 . S
C901 C169 1.537 . S
C966 C633 1.467 . S
C951 C361 1.493 . S
C1016 C646 1.404 . S
C1001 C433 1.420 . S
C1051 C421 1.515 . S
C1066 C659 1.493 . S
C1116 C672 1.511 . S
C1101 C355 1.528 . S
C1151 C427 1.438 . S
C1166 C690 1.429 . S
C1216 C701 1.523 . S
C1201 C325 1.552 . S
C1251 C385 1.448 . S
C1266 C685 1.425 . S
C1316 C693 1.465 . S
C1301 C463 1.486 . S
C1351 C253 1.503 . S
C1366 C716 1.495 . S
C1401 C145 1.522 . S
C1416 C706 1.495 . S
C1451 C205 1.489 . S
C1466 C711 1.463 . S
C1501 C217 1.573 . S
C1516 C714 1.543 1_655 S
C1551 C139 1.451 . S
C1566 C623 1.426 . S
C1601 C535 1.407 . S
C1616 C615 1.389 . S
C1666 C584 1.541 . S
C1651 C565 1.582 . S
C1716 C589 1.491 . S
C1701 C313 1.507 . S
C1751 C175 1.562 . S
C1766 C636 1.537 . S
C1816 C675 1.506 . S
C1801 C397 1.527 . S
C1866 C628 1.489 . S
C1851 C349 1.515 . S
C1916 C654 1.457 . S
C1901 C457 1.481 . S
C1966 C664 1.390 . S
C1951 C505 1.398 . S
C2001 C571 1.628 . S
C2016 C677 1.616 . S
C2051 C319 1.449 . S
C2066 C638 1.440 . S
C2116 C651 1.530 . S
C2101 C493 1.536 . S
C2151 C109 1.493 . S
C2166 C607 1.462 . S
C2216 C620 1.404 . S
C2201 C1 1.420 . S
C2266 C581 1.493 . S
C2251 C61 1.515 . S
C2316 C594 1.511 . S
C2301 C103 1.528 . S
C2351 C67 1.438 . S
C2366 C703 1.429 . S
C2401 C73 1.552 . S
C2416 C688 1.507 1_655 S
C2451 C133 1.448 . S
C2466 C698 1.425 . S
C2501 C31 1.486 1_556 S
C2516 C680 1.465 . S
C2566 C729 1.495 . S
C2551 C289 1.503 . S
C2616 C719 1.494 . S
C2601 C469 1.481 1_554 S
C2666 C724 1.462 . S
C2651 C529 1.489 . S
C2701 C541 1.574 . S
C2716 C727 1.543 . S
C2751 C391 1.452 . S
C2766 C649 1.426 . S
C2816 C641 1.389 . S
C2801 C211 1.408 . S
C2866 C662 1.540 . S
C2851 C241 1.567 . S
C2916 C667 1.490 . S
C2901 C277 1.511 . S
C2951 C499 1.562 . S
C2966 C610 1.538 . S
C3016 C597 1.505 . S
C3001 C37 1.531 . S
C3051 C97 1.515 . S
C3066 C602 1.487 . S
C3116 C576 1.456 . S
C3101 C25 1.481 1_565 S
