# Generated by pormake.
# Topology ssb, (4,4)-cn, num edge types: 1
# Building blocks:
#     Node 0, Type 0, BuildingBlock: NAWXER_clean_linker_0, # of connection points: 4
#     Node 1, Type 0, BuildingBlock: NAWXER_clean_linker_0, # of connection points: 4
#     Node 2, Type 0, BuildingBlock: NAWXER_clean_linker_0, # of connection points: 4
#     Node 3, Type 0, BuildingBlock: NAWXER_clean_linker_0, # of connection points: 4
#     Node 4, Type 0, BuildingBlock: NAWXER_clean_linker_0, # of connection points: 4
#     Node 5, Type 0, BuildingBlock: NAWXER_clean_linker_0, # of connection points: 4
#     Node 6, Type 0, BuildingBlock: NAWXER_clean_linker_0, # of connection points: 4
#     Node 7, Type 0, BuildingBlock: NAWXER_clean_linker_0, # of connection points: 4
#     Node 8, Type 1, BuildingBlock: KOZSID_clean_sbu_0, # of connection points: 4
#     Node 9, Type 1, BuildingBlock: KOZSID_clean_sbu_0, # of connection points: 4
#     Node 10, Type 1, BuildingBlock: KOZSID_clean_sbu_0, # of connection points: 4
#     Node 11, Type 1, BuildingBlock: KOZSID_clean_sbu_0, # of connection points: 4
#     Node 12, Type 1, BuildingBlock: KOZSID_clean_sbu_0, # of connection points: 4
#     Node 13, Type 1, BuildingBlock: KOZSID_clean_sbu_0, # of connection points: 4
#     Node 14, Type 1, BuildingBlock: KOZSID_clean_sbu_0, # of connection points: 4
#     Node 15, Type 1, BuildingBlock: KOZSID_clean_sbu_0, # of connection points: 4
#     Edge 16, Type (0, 1), BuildingBlock: XUDNAN_clean_linker_2, # of connection points: 2
#     Edge 17, Type (0, 1), BuildingBlock: XUDNAN_clean_linker_2, # of connection points: 2
#     Edge 18, Type (0, 1), BuildingBlock: XUDNAN_clean_linker_2, # of connection points: 2
#     Edge 19, Type (0, 1), BuildingBlock: XUDNAN_clean_linker_2, # of connection points: 2
#     Edge 20, Type (0, 1), BuildingBlock: XUDNAN_clean_linker_2, # of connection points: 2
#     Edge 21, Type (0, 1), BuildingBlock: XUDNAN_clean_linker_2, # of connection points: 2
#     Edge 22, Type (0, 1), BuildingBlock: XUDNAN_clean_linker_2, # of connection points: 2
#     Edge 23, Type (0, 1), BuildingBlock: XUDNAN_clean_linker_2, # of connection points: 2
#     Edge 24, Type (0, 1), BuildingBlock: XUDNAN_clean_linker_2, # of connection points: 2
#     Edge 25, Type (0, 1), BuildingBlock: XUDNAN_clean_linker_2, # of connection points: 2
#     Edge 26, Type (0, 1), BuildingBlock: XUDNAN_clean_linker_2, # of connection points: 2
#     Edge 27, Type (0, 1), BuildingBlock: XUDNAN_clean_linker_2, # of connection points: 2
#     Edge 28, Type (0, 1), BuildingBlock: XUDNAN_clean_linker_2, # of connection points: 2
#     Edge 29, Type (0, 1), BuildingBlock: XUDNAN_clean_linker_2, # of connection points: 2
#     Edge 30, Type (0, 1), BuildingBlock: XUDNAN_clean_linker_2, # of connection points: 2
#     Edge 31, Type (0, 1), BuildingBlock: XUDNAN_clean_linker_2, # of connection points: 2
#     Edge 32, Type (0, 1), BuildingBlock: XUDNAN_clean_linker_2, # of connection points: 2
#     Edge 33, Type (0, 1), BuildingBlock: XUDNAN_clean_linker_2, # of connection points: 2
#     Edge 34, Type (0, 1), BuildingBlock: XUDNAN_clean_linker_2, # of connection points: 2
#     Edge 35, Type (0, 1), BuildingBlock: XUDNAN_clean_linker_2, # of connection points: 2
#     Edge 36, Type (0, 1), BuildingBlock: XUDNAN_clean_linker_2, # of connection points: 2
#     Edge 37, Type (0, 1), BuildingBlock: XUDNAN_clean_linker_2, # of connection points: 2
#     Edge 38, Type (0, 1), BuildingBlock: XUDNAN_clean_linker_2, # of connection points: 2
#     Edge 39, Type (0, 1), BuildingBlock: XUDNAN_clean_linker_2, # of connection points: 2
#     Edge 40, Type (0, 1), BuildingBlock: XUDNAN_clean_linker_2, # of connection points: 2
#     Edge 41, Type (0, 1), BuildingBlock: XUDNAN_clean_linker_2, # of connection points: 2
#     Edge 42, Type (0, 1), BuildingBlock: XUDNAN_clean_linker_2, # of connection points: 2
#     Edge 43, Type (0, 1), BuildingBlock: XUDNAN_clean_linker_2, # of connection points: 2
#     Edge 44, Type (0, 1), BuildingBlock: XUDNAN_clean_linker_2, # of connection points: 2
#     Edge 45, Type (0, 1), BuildingBlock: XUDNAN_clean_linker_2, # of connection points: 2
#     Edge 46, Type (0, 1), BuildingBlock: XUDNAN_clean_linker_2, # of connection points: 2
#     Edge 47, Type (0, 1), BuildingBlock: XUDNAN_clean_linker_2, # of connection points: 2
# Relax obj value: 0.002
# Max RMSD: 0.030
# Mean RMSD: 0.018
data_MOF--net-ssb--node1-KOZSID_clean_sbu_0--node2-NAWXER_clean_linker_0--edge1-XUDNAN_clean_linker_2
_symmetry_space_group_name_H-M    P1
_symmetry_Int_Tables_number       1
_symmetry_cell_setting            triclinic
loop_
_symmetry_equiv_pos_as_xyz
'x, y, z'
_cell_length_a     63.25036
_cell_length_b     63.032795
_cell_length_c     46.518159
_cell_angle_alpha  91.982258
_cell_angle_beta   94.296199
_cell_angle_gamma 89.987149
loop_
_atom_site_label
_atom_site_type_symbol
_atom_site_fract_x
_atom_site_fract_y
_atom_site_fract_z
_atom_type_partial_charge
C0 C 0.29586 0.24865 0.1825 0.0
C1 C 0.31712 0.24524 0.19241 0.0
C2 C 0.2799 0.24947 0.20176 0.0
C3 C 0.28484 0.24701 0.2314 0.0
C4 C 0.32203 0.24277 0.2221 0.0
C5 C 0.30602 0.24346 0.24135 0.0
C6 C 0.26792 0.24742 0.2519 0.0
C7 C 0.27318 0.3138 0.22023 0.0
C8 C 0.25505 0.32193 0.20487 0.0
C9 C 0.27225 0.29501 0.23539 0.0
C10 C 0.25325 0.2834 0.2354 0.0
C11 C 0.236 0.3103 0.2048 0.0
C12 C 0.23508 0.2914 0.22007 0.0
C13 C 0.25228 0.26355 0.25234 0.0
C14 C 0.2097 0.24692 0.36006 0.0
C15 C 0.18814 0.24901 0.35079 0.0
C16 C 0.22513 0.24549 0.34009 0.0
C17 C 0.21935 0.24597 0.31038 0.0
C18 C 0.18236 0.2494 0.32101 0.0
C19 C 0.19786 0.24809 0.30101 0.0
C20 C 0.23579 0.24523 0.28924 0.0
C21 C 0.2355 0.18157 0.332 0.0
C22 C 0.2547 0.17653 0.34762 0.0
C23 C 0.2344 0.19843 0.3128 0.0
C24 C 0.25246 0.21079 0.30874 0.0
C25 C 0.27286 0.18848 0.34271 0.0
C26 C 0.27177 0.20523 0.3235 0.0
C27 C 0.25164 0.22931 0.28913 0.0
H28 H 0.29155 0.25073 0.1598 0.0
H29 H 0.26365 0.25181 0.19341 0.0
H30 H 0.33819 0.23984 0.23038 0.0
H31 H 0.3102 0.24134 0.26409 0.0
H32 H 0.28823 0.32203 0.22069 0.0
H33 H 0.28645 0.28974 0.24752 0.0
H34 H 0.22165 0.31609 0.19357 0.0
H35 H 0.22013 0.283 0.21987 0.0
H36 H 0.21467 0.24645 0.38282 0.0
H37 H 0.24164 0.2443 0.34792 0.0
H38 H 0.16592 0.25129 0.31321 0.0
H39 H 0.19307 0.24872 0.27821 0.0
H40 H 0.22117 0.17281 0.33508 0.0
H41 H 0.21937 0.20182 0.3012 0.0
H42 H 0.28805 0.1849 0.35375 0.0
H43 H 0.28604 0.21416 0.32063 0.0
N44 N 0.26709 0.23116 0.27043 0.0
N45 N 0.23671 0.26163 0.27087 0.0
C46 C 0.69009 0.27351 0.20748 0.0
C47 C 0.688 0.2582 0.18469 0.0
C48 C 0.70811 0.27388 0.22692 0.0
C49 C 0.72442 0.25899 0.22386 0.0
C50 C 0.70425 0.2432 0.18195 0.0
C51 C 0.72217 0.24353 0.20141 0.0
C52 C 0.74341 0.2586 0.24457 0.0
C53 C 0.74738 0.31956 0.1985 0.0
C54 C 0.74666 0.33791 0.21646 0.0
C55 C 0.75023 0.29964 0.21033 0.0
C56 C 0.75213 0.29763 0.24037 0.0
C57 C 0.7487 0.33588 0.24654 0.0
C58 C 0.75156 0.31591 0.25838 0.0
C59 C 0.75586 0.27668 0.25303 0.0
C60 C 0.83376 0.23837 0.31166 0.0
C61 C 0.83905 0.25409 0.3332 0.0
C62 C 0.81407 0.23855 0.29593 0.0
C63 C 0.79905 0.25429 0.30158 0.0
C64 C 0.82396 0.26976 0.33899 0.0
C65 C 0.80422 0.26994 0.32318 0.0
C66 C 0.77875 0.25547 0.28345 0.0
C67 C 0.77117 0.19423 0.32962 0.0
C68 C 0.76958 0.17588 0.31145 0.0
C69 C 0.77107 0.21437 0.31796 0.0
C70 C 0.76939 0.2165 0.28795 0.0
C71 C 0.76879 0.17813 0.28142 0.0
C72 C 0.7685 0.19825 0.26981 0.0
C73 C 0.76604 0.23751 0.27536 0.0
H74 H 0.67787 0.2853 0.21015 0.0
H75 H 0.70921 0.28566 0.24448 0.0
H76 H 0.70297 0.23097 0.16497 0.0
H77 H 0.73439 0.23172 0.19881 0.0
H78 H 0.74572 0.32059 0.17525 0.0
H79 H 0.7512 0.28583 0.19598 0.0
H80 H 0.7485 0.34976 0.26091 0.0
H81 H 0.75329 0.31471 0.28162 0.0
H82 H 0.84493 0.22597 0.30679 0.0
H83 H 0.81084 0.22665 0.27882 0.0
H84 H 0.82762 0.28225 0.35518 0.0
H85 H 0.79304 0.28242 0.32769 0.0
H86 H 0.77145 0.19312 0.35282 0.0
H87 H 0.77129 0.22825 0.33238 0.0
H88 H 0.76793 0.16434 0.26683 0.0
H89 H 0.76715 0.19957 0.24658 0.0
N90 N 0.74903 0.23976 0.25611 0.0
N91 N 0.77303 0.27443 0.27214 0.0
C92 C 0.69905 0.75476 0.1724 0.0
C93 C 0.6782 0.75148 0.18015 0.0
C94 C 0.71601 0.7562 0.19338 0.0
C95 C 0.71253 0.75487 0.22265 0.0
C96 C 0.67484 0.75029 0.2097 0.0
C97 C 0.69181 0.75228 0.23073 0.0
C98 C 0.73059 0.75621 0.24465 0.0
C99 C 0.72841 0.68876 0.2091 0.0
C100 C 0.74585 0.68199 0.19402 0.0
C101 C 0.7289 0.70806 0.22509 0.0
C102 C 0.74678 0.72144 0.22637 0.0
C103 C 0.76372 0.69546 0.19506 0.0
C104 C 0.76425 0.71481 0.21127 0.0
C105 C 0.74757 0.74157 0.24475 0.0
C106 C 0.79935 0.76412 0.35411 0.0
C107 C 0.81996 0.76566 0.34478 0.0
C108 C 0.78168 0.76319 0.33419 0.0
C109 C 0.78423 0.76367 0.30453 0.0
C110 C 0.82238 0.76605 0.31495 0.0
C111 C 0.80469 0.76483 0.29504 0.0
C112 C 0.76566 0.76212 0.28336 0.0
C113 C 0.76428 0.82692 0.32909 0.0
C114 C 0.74634 0.83045 0.34483 0.0
C115 C 0.76504 0.80961 0.30919 0.0
C116 C 0.74787 0.79532 0.30444 0.0
C117 C 0.72899 0.81646 0.33939 0.0
C118 C 0.7297 0.79929 0.3194 0.0
C119 C 0.74841 0.77648 0.28375 0.0
H120 H 0.70236 0.75644 0.15011 0.0
H121 H 0.73189 0.75853 0.18677 0.0
H122 H 0.65919 0.74743 0.21669 0.0
H123 H 0.68885 0.75121 0.25328 0.0
H124 H 0.71429 0.67901 0.20875 0.0
H125 H 0.71539 0.71223 0.23707 0.0
H126 H 0.77754 0.69075 0.18403 0.0
H127 H 0.77836 0.72461 0.21204 0.0
H128 H 0.79683 0.76327 0.3768 0.0
H129 H 0.76602 0.76182 0.34194 0.0
H130 H 0.83791 0.76755 0.30689 0.0
H131 H 0.80696 0.76512 0.2722 0.0
H132 H 0.77796 0.83727 0.33259 0.0
H133 H 0.77909 0.80744 0.29748 0.0
H134 H 0.71472 0.81879 0.35059 0.0
H135 H 0.71609 0.78882 0.31603 0.0
N136 N 0.73152 0.77289 0.26422 0.0
N137 N 0.76458 0.74529 0.264 0.0
C138 C 0.31812 0.73187 0.20101 0.0
C139 C 0.32181 0.7485 0.18272 0.0
C140 C 0.30155 0.73306 0.21922 0.0
C141 C 0.28785 0.75064 0.21891 0.0
C142 C 0.30918 0.76682 0.18395 0.0
C143 C 0.29227 0.76786 0.20189 0.0
C144 C 0.26849 0.75046 0.23529 0.0
C145 C 0.25714 0.7012 0.16433 0.0
C146 C 0.26092 0.68062 0.17425 0.0
C147 C 0.25512 0.71821 0.18384 0.0
C148 C 0.25659 0.71489 0.21354 0.0
C149 C 0.26237 0.67744 0.20416 0.0
C150 C 0.25992 0.69442 0.22362 0.0
C151 C 0.25463 0.73286 0.23403 0.0
C152 C 0.18126 0.76338 0.30061 0.0
C153 C 0.17734 0.7447 0.31497 0.0
C154 C 0.19935 0.76518 0.28521 0.0
C155 C 0.2143 0.74863 0.28474 0.0
C156 C 0.19203 0.72801 0.31401 0.0
C157 C 0.2103 0.72997 0.29912 0.0
C158 C 0.23352 0.74991 0.26818 0.0
C159 C 0.23535 0.80342 0.33258 0.0
C160 C 0.23261 0.82305 0.31942 0.0
C161 C 0.24099 0.78552 0.31649 0.0
C162 C 0.24359 0.78695 0.28693 0.0
C163 C 0.23627 0.82464 0.29016 0.0
C164 C 0.24179 0.80669 0.27404 0.0
C165 C 0.2471 0.76783 0.26897 0.0
H166 H 0.32786 0.71773 0.20085 0.0
H167 H 0.2991 0.71992 0.23299 0.0
H168 H 0.31176 0.77989 0.17008 0.0
H169 H 0.28213 0.78171 0.20155 0.0
H170 H 0.25544 0.70419 0.14149 0.0
H171 H 0.25225 0.73396 0.17577 0.0
H172 H 0.26565 0.6619 0.21262 0.0
H173 H 0.26113 0.69169 0.24655 0.0
H174 H 0.16999 0.77633 0.30055 0.0
H175 H 0.20145 0.77941 0.27335 0.0
H176 H 0.18942 0.71343 0.3249 0.0
H177 H 0.22138 0.71686 0.29887 0.0
H178 H 0.23311 0.80191 0.35528 0.0
H179 H 0.24282 0.77046 0.32694 0.0
H180 H 0.23429 0.83961 0.27954 0.0
H181 H 0.24386 0.80808 0.25127 0.0
N182 N 0.26403 0.7675 0.25247 0.0
N183 N 0.2379 0.73308 0.25066 0.0
C184 C 0.18794 0.77978 0.68676 0.0
C185 C 0.18514 0.76198 0.66774 0.0
C186 C 0.20503 0.78079 0.70769 0.0
C187 C 0.21974 0.76411 0.70985 0.0
C188 C 0.19988 0.74531 0.67005 0.0
C189 C 0.21691 0.74633 0.69097 0.0
C190 C 0.23718 0.76421 0.73295 0.0
C191 C 0.25105 0.81986 0.6767 0.0
C192 C 0.25251 0.83988 0.69125 0.0
C193 C 0.25019 0.80101 0.69206 0.0
C194 C 0.25057 0.80161 0.72243 0.0
C195 C 0.25259 0.84034 0.72163 0.0
C196 C 0.25183 0.82156 0.73691 0.0
C197 C 0.25094 0.78175 0.73947 0.0
C198 C 0.3186 0.74516 0.8203 0.0
C199 C 0.32175 0.76184 0.84104 0.0
C200 C 0.30112 0.7452 0.80005 0.0
C201 C 0.28637 0.76188 0.80022 0.0
C202 C 0.30704 0.77859 0.84101 0.0
C203 C 0.28963 0.77868 0.82064 0.0
C204 C 0.26826 0.76246 0.77818 0.0
C205 C 0.25759 0.70648 0.83433 0.0
C206 C 0.25698 0.68656 0.81957 0.0
C207 C 0.25662 0.72545 0.81911 0.0
C208 C 0.25506 0.72505 0.78868 0.0
C209 C 0.25471 0.68626 0.78916 0.0
C210 C 0.25364 0.70517 0.77401 0.0
C211 C 0.25435 0.74503 0.77187 0.0
H212 H 0.17692 0.79292 0.68548 0.0
H213 H 0.20651 0.79444 0.7225 0.0
H214 H 0.198 0.73122 0.6561 0.0
H215 H 0.22787 0.73313 0.69249 0.0
H216 H 0.25125 0.81865 0.65345 0.0
H217 H 0.24979 0.78593 0.68016 0.0
H218 H 0.25326 0.8553 0.7338 0.0
H219 H 0.25219 0.82265 0.76023 0.0
H220 H 0.3296 0.732 0.81982 0.0
H221 H 0.29924 0.73231 0.78405 0.0
H222 H 0.3092 0.79182 0.85644 0.0
H223 H 0.27862 0.79185 0.82089 0.0
H224 H 0.25932 0.70743 0.85768 0.0
H225 H 0.25711 0.74045 0.83121 0.0
H226 H 0.25376 0.67132 0.77692 0.0
H227 H 0.2521 0.70422 0.75065 0.0
N228 N 0.23951 0.74664 0.74927 0.0
N229 N 0.26586 0.7801 0.762 0.0
C230 C 0.32218 0.28283 0.83498 0.0
C231 C 0.33175 0.26558 0.84926 0.0
C232 C 0.30226 0.2806 0.81998 0.0
C233 C 0.29145 0.26109 0.81909 0.0
C234 C 0.32067 0.24623 0.8489 0.0
C235 C 0.3008 0.24398 0.83377 0.0
C236 C 0.27171 0.25767 0.80023 0.0
C237 C 0.25572 0.30449 0.86899 0.0
C238 C 0.24922 0.32439 0.85893 0.0
C239 C 0.25716 0.2872 0.84973 0.0
C240 C 0.25249 0.28961 0.82004 0.0
C241 C 0.24383 0.32655 0.8293 0.0
C242 C 0.24543 0.3093 0.81005 0.0
C243 C 0.25426 0.2716 0.79931 0.0
C244 C 0.19245 0.22892 0.70833 0.0
C245 C 0.18365 0.24751 0.69675 0.0
C246 C 0.20979 0.23004 0.72889 0.0
C247 C 0.21921 0.24973 0.73739 0.0
C248 C 0.19245 0.26722 0.70601 0.0
C249 C 0.2101 0.2683 0.72597 0.0
C250 C 0.23776 0.2516 0.75907 0.0
C251 C 0.26285 0.20494 0.69249 0.0
C252 C 0.26948 0.18553 0.70412 0.0
C253 C 0.25718 0.22178 0.71066 0.0
C254 C 0.25769 0.2192 0.74055 0.0
C255 C 0.26954 0.18294 0.73394 0.0
C256 C 0.26374 0.19964 0.75198 0.0
C257 C 0.25507 0.23734 0.76065 0.0
H258 H 0.33026 0.29799 0.83502 0.0
H259 H 0.29566 0.29391 0.80824 0.0
H260 H 0.32771 0.23257 0.85937 0.0
H261 H 0.2929 0.2287 0.83306 0.0
H262 H 0.26004 0.30234 0.89167 0.0
H263 H 0.26195 0.27196 0.85807 0.0
H264 H 0.23832 0.34158 0.82098 0.0
H265 H 0.2414 0.31142 0.78728 0.0
H266 H 0.18567 0.21356 0.7018 0.0
H267 H 0.2156 0.21549 0.73828 0.0
H268 H 0.1859 0.28176 0.69737 0.0
H269 H 0.21676 0.28375 0.73233 0.0
H270 H 0.26274 0.20728 0.66952 0.0
H271 H 0.25311 0.23695 0.70151 0.0
H272 H 0.2742 0.168 0.74336 0.0
H273 H 0.26442 0.19743 0.77504 0.0
N274 N 0.27124 0.24099 0.78108 0.0
N275 N 0.23812 0.26816 0.77865 0.0
C276 C 0.81703 0.23891 0.71473 0.0
C277 C 0.82386 0.25834 0.70473 0.0
C278 C 0.7984 0.23786 0.7292 0.0
C279 C 0.78594 0.25611 0.73314 0.0
C280 C 0.81131 0.27647 0.70835 0.0
C281 C 0.79257 0.27536 0.72232 0.0
C282 C 0.76731 0.25612 0.75091 0.0
C283 C 0.75235 0.20866 0.67742 0.0
C284 C 0.75296 0.18731 0.68577 0.0
C285 C 0.75171 0.22552 0.69788 0.0
C286 C 0.75143 0.22169 0.72742 0.0
C287 C 0.75199 0.18353 0.71539 0.0
C288 C 0.75106 0.20048 0.73586 0.0
C289 C 0.75175 0.23977 0.74931 0.0
C290 C 0.68744 0.28076 0.8242 0.0
C291 C 0.68235 0.26409 0.84171 0.0
C292 C 0.70351 0.27841 0.80535 0.0
C293 C 0.71529 0.25952 0.80414 0.0
C294 C 0.69309 0.24465 0.83909 0.0
C295 C 0.70948 0.2424 0.82045 0.0
C296 C 0.73408 0.25811 0.78676 0.0
C297 C 0.74957 0.30561 0.86025 0.0
C298 C 0.74884 0.32692 0.85172 0.0
C299 C 0.75008 0.28867 0.8399 0.0
C300 C 0.75016 0.29239 0.81031 0.0
C301 C 0.7495 0.33057 0.82201 0.0
C302 C 0.75036 0.31355 0.80166 0.0
C303 C 0.74978 0.27424 0.78854 0.0
H304 H 0.82661 0.22478 0.71258 0.0
H305 H 0.79427 0.22296 0.73823 0.0
H306 H 0.8162 0.29164 0.70076 0.0
H307 H 0.78342 0.28971 0.72517 0.0
H308 H 0.75233 0.21251 0.65493 0.0
H309 H 0.75149 0.24165 0.69055 0.0
H310 H 0.75253 0.16749 0.72299 0.0
H311 H 0.75071 0.197 0.75846 0.0
H312 H 0.67912 0.29576 0.82532 0.0
H313 H 0.70708 0.2916 0.79219 0.0
H314 H 0.68942 0.23152 0.85229 0.0
H315 H 0.71813 0.22759 0.81962 0.0
H316 H 0.74982 0.30185 0.88278 0.0
H317 H 0.75038 0.27257 0.84734 0.0
H318 H 0.74881 0.34655 0.81423 0.0
H319 H 0.7505 0.31692 0.779 0.0
N320 N 0.76561 0.27262 0.77039 0.0
N321 N 0.73576 0.24142 0.76747 0.0
C322 C 0.80779 0.76632 0.67954 0.0
C323 C 0.82807 0.76588 0.69417 0.0
C324 C 0.7896 0.76324 0.69442 0.0
C325 C 0.79141 0.7595 0.72413 0.0
C326 C 0.82979 0.76175 0.72376 0.0
C327 C 0.81167 0.75838 0.73849 0.0
C328 C 0.77246 0.75644 0.74055 0.0
C329 C 0.77052 0.8253 0.71551 0.0
C330 C 0.751 0.83185 0.7024 0.0
C331 C 0.77238 0.80539 0.72778 0.0
C332 C 0.75491 0.79149 0.72626 0.0
C333 C 0.73359 0.81799 0.70087 0.0
C334 C 0.73555 0.79799 0.71261 0.0
C335 C 0.75565 0.77121 0.74137 0.0
C336 C 0.70996 0.74452 0.84215 0.0
C337 C 0.68903 0.74993 0.83284 0.0
C338 C 0.72585 0.74361 0.82277 0.0
C339 C 0.72118 0.748 0.79357 0.0
C340 C 0.68426 0.75382 0.80348 0.0
C341 C 0.70022 0.75307 0.78412 0.0
C342 C 0.7384 0.74941 0.7736 0.0
C343 C 0.73513 0.6809 0.79395 0.0
C344 C 0.75338 0.67275 0.80874 0.0
C345 C 0.73549 0.7009 0.78207 0.0
C346 C 0.75403 0.71329 0.78507 0.0
C347 C 0.77202 0.68505 0.81138 0.0
C348 C 0.77236 0.70509 0.79949 0.0
C349 C 0.75471 0.7342 0.77175 0.0
H350 H 0.80598 0.76949 0.65675 0.0
H351 H 0.77414 0.76383 0.68278 0.0
H352 H 0.8452 0.76104 0.73553 0.0
H353 H 0.81348 0.75532 0.76131 0.0
H354 H 0.78407 0.8359 0.71721 0.0
H355 H 0.78725 0.80123 0.73923 0.0
H356 H 0.71842 0.82269 0.69069 0.0
H357 H 0.72179 0.78767 0.71143 0.0
H358 H 0.71414 0.74132 0.86459 0.0
H359 H 0.74194 0.74016 0.83088 0.0
H360 H 0.66836 0.75825 0.79568 0.0
H361 H 0.69625 0.75677 0.76179 0.0
H362 H 0.72048 0.6719 0.79174 0.0
H363 H 0.72131 0.70658 0.77028 0.0
H364 H 0.78641 0.67908 0.82233 0.0
H365 H 0.78692 0.71424 0.80169 0.0
N366 N 0.77125 0.73847 0.75572 0.0
N367 N 0.73941 0.76712 0.75798 0.0
C368 C 0.03967 0.27503 0.56953 0.0
C369 C 0.04829 0.2944 0.57956 0.0
C370 C 0.03616 0.30977 0.56661 0.0
C371 C 0.021 0.29902 0.54928 0.0
N372 N 0.02238 0.27766 0.55084 0.0
Co373 Co 0.00531 0.2559 0.52643 0.0
N374 N 0.98991 0.27847 0.50376 0.0
C375 C 0.99196 0.29974 0.50809 0.0
C376 C 0.97902 0.31123 0.48952 0.0
C377 C 0.96794 0.29645 0.47236 0.0
C378 C 0.97479 0.2767 0.48152 0.0
N379 N 0.98877 0.23409 0.50164 0.0
C380 C 0.97417 0.23651 0.47912 0.0
C381 C 0.96653 0.21706 0.46782 0.0
C382 C 0.97668 0.20182 0.48372 0.0
C383 C 0.98986 0.21275 0.50374 0.0
N384 N 0.02041 0.23342 0.54938 0.0
C385 C 0.01674 0.21227 0.54734 0.0
C386 C 0.02975 0.20084 0.5659 0.0
C387 C 0.04284 0.21553 0.58023 0.0
C388 C 0.03711 0.23511 0.56932 0.0
N389 N 0.9826 0.25683 0.55413 0.0
C390 C 0.95058 0.2588 0.59361 0.0
C391 C 0.95677 0.23939 0.58145 0.0
C392 C 0.97265 0.23878 0.56193 0.0
C393 C 0.96048 0.27715 0.58525 0.0
C394 C 0.97627 0.27581 0.56587 0.0
N395 N 0.028 0.25505 0.49914 0.0
C396 C 0.05521 0.23581 0.47513 0.0
C397 C 0.06444 0.25485 0.46784 0.0
C398 C 0.05433 0.27382 0.47479 0.0
C399 C 0.03619 0.27355 0.49002 0.0
C400 C 0.03706 0.23627 0.49076 0.0
H401 H 0.02945 0.28858 0.49496 0.0
H402 H 0.03098 0.22133 0.49665 0.0
H403 H 0.97658 0.22349 0.55358 0.0
H404 H 0.98301 0.29047 0.56078 0.0
C405 C 0.00665 0.30843 0.52923 0.0
C406 C 0.04909 0.25454 0.57681 0.0
C407 C 0.96658 0.25678 0.46821 0.0
C408 C 0.0028 0.20348 0.52546 0.0
H409 H 0.06232 0.29725 0.59391 0.0
H410 H 0.03875 0.32676 0.56851 0.0
H411 H 0.97788 0.32832 0.48847 0.0
H412 H 0.95619 0.29981 0.455 0.0
H413 H 0.95464 0.21419 0.45015 0.0
H414 H 0.97449 0.18481 0.48124 0.0
H415 H 0.03035 0.18378 0.56779 0.0
H416 H 0.05571 0.21216 0.59607 0.0
H417 H 0.94969 0.22465 0.58729 0.0
H418 H 0.956 0.29268 0.59341 0.0
H419 H 0.06246 0.22073 0.46995 0.0
H420 H 0.06067 0.28892 0.46897 0.0
C421 C 0.73365 0.04686 0.5487 0.0
C422 C 0.71442 0.0564 0.55374 0.0
C423 C 0.69896 0.04432 0.53918 0.0
C424 C 0.70949 0.0282 0.52591 0.0
N425 N 0.73081 0.02911 0.53119 0.0
Co426 Co 0.75199 0.00912 0.51462 0.0
N427 N 0.72912 0.99174 0.49248 0.0
C428 C 0.708 0.99535 0.49184 0.0
C429 C 0.69608 0.98088 0.47499 0.0
C430 C 0.71038 0.96701 0.46441 0.0
C431 C 0.73032 0.97376 0.47557 0.0
N432 N 0.77316 0.98921 0.49792 0.0
C433 C 0.77031 0.97146 0.48043 0.0
C434 C 0.78953 0.96218 0.47479 0.0
C435 C 0.80503 0.97438 0.4891 0.0
C436 C 0.7945 0.99034 0.50274 0.0
N437 N 0.77484 0.02641 0.53693 0.0
C438 C 0.79594 0.02265 0.53777 0.0
C439 C 0.80783 0.03676 0.55525 0.0
C440 C 0.79354 0.05051 0.56608 0.0
C441 C 0.77362 0.04412 0.55436 0.0
N442 N 0.75028 0.99049 0.54784 0.0
C443 C 0.74768 0.96143 0.59209 0.0
C444 C 0.7673 0.968 0.58367 0.0
C445 C 0.76822 0.98239 0.56168 0.0
C446 C 0.7294 0.97024 0.57866 0.0
C447 C 0.73106 0.98471 0.55691 0.0
N448 N 0.75372 0.02771 0.48131 0.0
C449 C 0.77449 0.04739 0.44966 0.0
C450 C 0.75612 0.0546 0.4346 0.0
C451 C 0.73656 0.04806 0.44316 0.0
C452 C 0.73573 0.03479 0.46642 0.0
C453 C 0.77293 0.03398 0.47267 0.0
H454 H 0.72033 0.03067 0.47203 0.0
H455 H 0.78751 0.02896 0.48315 0.0
H456 H 0.78365 0.98646 0.55604 0.0
H457 H 0.71655 0.99068 0.54742 0.0
C458 C 0.69985 0.01233 0.50766 0.0
C459 C 0.75416 0.0557 0.56021 0.0
C460 C 0.74979 0.9623 0.46963 0.0
C461 C 0.80412 0.00596 0.52141 0.0
H462 H 0.71176 0.0708 0.56624 0.0
H463 H 0.68204 0.04717 0.53799 0.0
H464 H 0.679 0.98038 0.47105 0.0
H465 H 0.70655 0.95338 0.45019 0.0
H466 H 0.79213 0.94785 0.46209 0.0
H467 H 0.82195 0.97165 0.48999 0.0
H468 H 0.8249 0.03709 0.55945 0.0
H469 H 0.79738 0.06384 0.58084 0.0
H470 H 0.78195 0.96199 0.59384 0.0
H471 H 0.71378 0.96556 0.58421 0.0
H472 H 0.79002 0.05194 0.4436 0.0
H473 H 0.72188 0.05351 0.43236 0.0
C474 C 0.03902 0.77917 0.54506 0.0
C475 C 0.0488 0.79845 0.5529 0.0
C476 C 0.03781 0.81359 0.53781 0.0
C477 C 0.02207 0.80275 0.52163 0.0
N478 N 0.02203 0.78162 0.52591 0.0
Co479 Co 0.00296 0.75967 0.50523 0.0
N480 N 0.98807 0.78168 0.48114 0.0
C481 C 0.99223 0.80275 0.48167 0.0
C482 C 0.97883 0.81392 0.4633 0.0
C483 C 0.96493 0.79918 0.45077 0.0
C484 C 0.97067 0.77985 0.46242 0.0
N485 N 0.98411 0.73768 0.48419 0.0
C486 C 0.96701 0.74012 0.46521 0.0
C487 C 0.95761 0.72076 0.45685 0.0
C488 C 0.96902 0.70557 0.47133 0.0
C489 C 0.98463 0.71646 0.48772 0.0
N490 N 0.01762 0.73771 0.5297 0.0
C491 C 0.01309 0.71673 0.52964 0.0
C492 C 0.02635 0.7056 0.54829 0.0
C493 C 0.0404 0.72028 0.56065 0.0
C494 C 0.0349 0.73955 0.54866 0.0
N495 N 0.98161 0.7639 0.53434 0.0
C496 C 0.94978 0.76991 0.57344 0.0
C497 C 0.95507 0.74961 0.56339 0.0
C498 C 0.97095 0.74698 0.5442 0.0
C499 C 0.96084 0.78715 0.56374 0.0
C500 C 0.97648 0.78383 0.54429 0.0
N501 N 0.02427 0.75539 0.47605 0.0
C502 C 0.04672 0.73194 0.44947 0.0
C503 C 0.05539 0.74899 0.43585 0.0
C504 C 0.0482 0.76937 0.44291 0.0
C505 C 0.03284 0.77219 0.46291 0.0
C506 C 0.0313 0.73543 0.46908 0.0
H507 H 0.02818 0.78812 0.46741 0.0
H508 H 0.02544 0.7217 0.47849 0.0
H509 H 0.97423 0.73109 0.53757 0.0
H510 H 0.98408 0.79766 0.5374 0.0
C511 C 0.00803 0.81172 0.50088 0.0
C512 C 0.04737 0.75883 0.55459 0.0
C513 C 0.95821 0.76053 0.45656 0.0
C514 C 0.99801 0.70762 0.50941 0.0
H515 H 0.06284 0.80123 0.56729 0.0
H516 H 0.04136 0.83039 0.53781 0.0
H517 H 0.97873 0.83085 0.46012 0.0
H518 H 0.95164 0.80238 0.4355 0.0
H519 H 0.94347 0.71788 0.44272 0.0
H520 H 0.96561 0.68874 0.47116 0.0
H521 H 0.0264 0.68868 0.55154 0.0
H522 H 0.05364 0.7171 0.576 0.0
H523 H 0.94721 0.73571 0.5706 0.0
H524 H 0.95722 0.80323 0.57073 0.0
H525 H 0.05195 0.71583 0.44538 0.0
H526 H 0.05417 0.78316 0.43283 0.0
C527 C 0.27218 0.96759 0.54611 0.0
C528 C 0.29121 0.95672 0.55016 0.0
C529 C 0.30504 0.9658 0.53307 0.0
C530 C 0.29376 0.98159 0.51945 0.0
N531 N 0.27347 0.98315 0.5267 0.0
Co532 Co 0.25168 0.00402 0.51145 0.0
N533 N 0.27212 0.01731 0.48621 0.0
C534 C 0.29223 0.01097 0.48273 0.0
C535 C 0.30256 0.02311 0.46428 0.0
C536 C 0.2883 0.03829 0.45566 0.0
C537 C 0.27004 0.03462 0.46953 0.0
N538 N 0.23006 0.02529 0.49671 0.0
C539 C 0.23201 0.04213 0.47946 0.0
C540 C 0.21324 0.05348 0.47613 0.0
C541 C 0.19899 0.04363 0.49187 0.0
C542 C 0.2098 0.02692 0.50401 0.0
N543 N 0.23111 0.99042 0.53632 0.0
C544 C 0.21051 0.99577 0.53806 0.0
C545 C 0.20016 0.98363 0.55648 0.0
C546 C 0.21495 0.96959 0.5671 0.0
C547 C 0.2336 0.97392 0.55447 0.0
N548 N 0.26084 0.02433 0.54317 0.0
C549 C 0.27276 0.0578 0.58218 0.0
C550 C 0.25176 0.05083 0.57865 0.0
C551 C 0.24621 0.03413 0.55928 0.0
C552 C 0.28799 0.04678 0.56747 0.0
C553 C 0.28172 0.03008 0.54826 0.0
N554 N 0.24242 0.98372 0.47952 0.0
C555 C 0.21446 0.96485 0.45102 0.0
C556 C 0.22927 0.95214 0.43793 0.0
C557 C 0.25077 0.95608 0.44504 0.0
C558 C 0.25693 0.97188 0.46559 0.0
C559 C 0.22134 0.9805 0.47149 0.0
H560 H 0.2735 0.97382 0.47022 0.0
H561 H 0.20924 0.9895 0.48079 0.0
H562 H 0.2299 0.02982 0.55714 0.0
H563 H 0.29392 0.02248 0.53717 0.0
C564 C 0.3015 0.99465 0.4989 0.0
C565 C 0.25333 0.96219 0.56095 0.0
C566 C 0.25145 0.04848 0.46675 0.0
C567 C 0.2016 0.01283 0.52298 0.0
H568 H 0.2947 0.94344 0.56386 0.0
H569 H 0.32132 0.96124 0.53058 0.0
H570 H 0.31874 0.02148 0.45844 0.0
H571 H 0.29114 0.05091 0.44121 0.0
H572 H 0.21024 0.06764 0.46399 0.0
H573 H 0.18279 0.04835 0.4946 0.0
H574 H 0.18383 0.98498 0.56181 0.0
H575 H 0.21232 0.95763 0.58258 0.0
H576 H 0.23955 0.05849 0.59042 0.0
H577 H 0.30451 0.05152 0.56985 0.0
H578 H 0.19761 0.96259 0.44576 0.0
H579 H 0.26288 0.94651 0.43564 0.0
C580 C 0.53393 0.77052 0.05216 0.0
C581 C 0.5406 0.78933 0.06646 0.0
C582 C 0.52844 0.80513 0.05465 0.0
C583 C 0.51515 0.79521 0.03379 0.0
N584 N 0.51784 0.77392 0.03188 0.0
Co585 Co 0.50286 0.75354 0.00311 0.0
N586 N 0.48764 0.77723 0.98275 0.0
C587 C 0.49017 0.79829 0.98844 0.0
C588 C 0.47692 0.81061 0.97134 0.0
C589 C 0.46489 0.79655 0.95415 0.0
C590 C 0.47148 0.77643 0.96195 0.0
N591 N 0.48736 0.73313 0.97489 0.0
C592 C 0.47074 0.73661 0.95547 0.0
C593 C 0.4632 0.71784 0.94195 0.0
C594 C 0.47523 0.70188 0.95362 0.0
C595 C 0.48928 0.71175 0.97361 0.0
N596 N 0.51855 0.72988 0.02293 0.0
C597 C 0.51698 0.70888 0.01604 0.0
C598 C 0.53041 0.69655 0.03284 0.0
C599 C 0.54166 0.71056 0.05103 0.0
C600 C 0.53448 0.7307 0.0441 0.0
N601 N 0.47918 0.75118 0.0288 0.0
C602 C 0.4429 0.74723 0.06041 0.0
C603 C 0.45449 0.72942 0.05213 0.0
C604 C 0.47228 0.73171 0.03644 0.0
C605 C 0.45044 0.76718 0.05362 0.0
C606 C 0.46852 0.76878 0.03811 0.0
N607 N 0.52659 0.75588 0.97743 0.0
C608 C 0.55247 0.73923 0.94803 0.0
C609 C 0.56361 0.7583 0.94718 0.0
C610 C 0.55527 0.77634 0.96044 0.0
C611 C 0.53683 0.77483 0.97506 0.0
C612 C 0.53417 0.73837 0.96318 0.0
H613 H 0.53147 0.78916 0.98483 0.0
H614 H 0.52677 0.72323 0.96367 0.0
H615 H 0.47995 0.71742 0.03032 0.0
H616 H 0.4733 0.78442 0.03339 0.0
C617 C 0.50259 0.80573 0.01279 0.0
C618 C 0.54441 0.75011 0.05668 0.0
C619 C 0.46058 0.75712 0.95108 0.0
C620 C 0.50322 0.70133 0.99308 0.0
H621 H 0.55352 0.79171 0.0828 0.0
H622 H 0.53003 0.82201 0.05946 0.0
H623 H 0.47529 0.82771 0.97246 0.0
H624 H 0.45201 0.80056 0.93864 0.0
H625 H 0.44989 0.71576 0.92611 0.0
H626 H 0.47331 0.68501 0.94904 0.0
H627 H 0.53221 0.67948 0.03147 0.0
H628 H 0.55424 0.7065 0.06697 0.0
H629 H 0.44982 0.7136 0.05752 0.0
H630 H 0.44212 0.78153 0.05945 0.0
H631 H 0.55828 0.72481 0.93803 0.0
H632 H 0.56308 0.7916 0.95983 0.0
C633 C 0.23999 0.53607 0.0551 0.0
C634 C 0.22098 0.54379 0.06434 0.0
C635 C 0.20518 0.5326 0.04909 0.0
C636 C 0.21536 0.51883 0.03139 0.0
N637 N 0.23674 0.52028 0.03478 0.0
Co638 Co 0.25772 0.50415 0.01241 0.0
N639 N 0.23446 0.49027 0.98699 0.0
C640 C 0.21342 0.49391 0.98707 0.0
C641 C 0.20142 0.48158 0.9672 0.0
C642 C 0.21566 0.46901 0.95405 0.0
C643 C 0.23552 0.47442 0.96687 0.0
N644 N 0.27872 0.48757 0.99052 0.0
C645 C 0.27534 0.47145 0.97073 0.0
C646 C 0.29423 0.46292 0.96228 0.0
C647 C 0.31017 0.47385 0.97766 0.0
C648 C 0.30012 0.48826 0.99464 0.0
N649 N 0.28105 0.51847 0.03735 0.0
C650 C 0.30219 0.51564 0.03625 0.0
C651 C 0.3142 0.52835 0.05562 0.0
C652 C 0.2999 0.54041 0.06939 0.0
C653 C 0.27995 0.53435 0.05744 0.0
N654 N 0.25697 0.48033 0.03999 0.0
C655 C 0.25662 0.44701 0.07984 0.0
C656 C 0.27555 0.45637 0.07294 0.0
C657 C 0.27539 0.47261 0.05313 0.0
C658 C 0.23779 0.45428 0.06571 0.0
C659 C 0.2383 0.47092 0.04619 0.0
N660 N 0.25852 0.52798 0.98485 0.0
C661 C 0.27844 0.5505 0.95519 0.0
C662 C 0.26023 0.56162 0.94562 0.0
C663 C 0.24113 0.55584 0.95669 0.0
C664 C 0.24061 0.53907 0.97596 0.0
C665 C 0.27727 0.53408 0.97458 0.0
H666 H 0.22551 0.53529 0.98328 0.0
H667 H 0.29185 0.52655 0.98094 0.0
H668 H 0.29048 0.4787 0.04887 0.0
H669 H 0.22339 0.47603 0.03651 0.0
C670 C 0.20534 0.50681 0.00858 0.0
C671 C 0.26062 0.54538 0.06403 0.0
C672 C 0.2546 0.46263 0.96147 0.0
C673 C 0.31026 0.50151 0.01607 0.0
H674 H 0.21857 0.55677 0.07953 0.0
H675 H 0.18828 0.53511 0.04959 0.0
H676 H 0.18431 0.48097 0.9638 0.0
H677 H 0.21186 0.45657 0.93785 0.0
H678 H 0.29635 0.44969 0.94735 0.0
H679 H 0.32703 0.47102 0.97741 0.0
H680 H 0.33132 0.52919 0.05874 0.0
H681 H 0.30367 0.5528 0.08567 0.0
H682 H 0.29062 0.45115 0.08286 0.0
H683 H 0.22268 0.44762 0.07031 0.0
H684 H 0.29374 0.5545 0.9478 0.0
H685 H 0.22652 0.56383 0.94996 0.0
C686 C 0.47404 0.28078 0.98497 0.0
C687 C 0.46568 0.30081 0.97989 0.0
C688 C 0.47544 0.31439 1.00013 0.0
C689 C 0.48904 0.30196 0.01646 0.0
N690 N 0.48876 0.28125 0.00773 0.0
Co691 Co 0.50498 0.25751 0.02671 0.0
N692 N 0.51946 0.27761 0.05629 0.0
C693 C 0.51646 0.2988 0.0591 0.0
C694 C 0.52992 0.30859 0.0799 0.0
C695 C 0.5427 0.29281 0.09053 0.0
C696 C 0.53616 0.27423 0.0756 0.0
N697 N 0.52093 0.23379 0.04606 0.0
C698 C 0.53725 0.23466 0.06665 0.0
C699 C 0.54469 0.21461 0.07336 0.0
C700 C 0.53299 0.20053 0.05574 0.0
C701 C 0.51911 0.21278 0.03943 0.0
N702 N 0.49098 0.23742 0.99672 0.0
C703 C 0.49399 0.21619 0.99424 0.0
C704 C 0.48221 0.20663 0.97146 0.0
C705 C 0.47091 0.22267 0.95871 0.0
C706 C 0.47637 0.24115 0.97463 0.0
N707 N 0.5287 0.26151 1.0017 0.0
C708 C 0.56407 0.26713 0.96891 0.0
C709 C 0.55699 0.24684 0.97488 0.0
C710 C 0.53937 0.24442 0.99093 0.0
C711 C 0.55273 0.28455 0.97922 0.0
C712 C 0.53535 0.28141 0.99552 0.0
N713 N 0.48105 0.25343 0.05171 0.0
C714 C 0.45337 0.23096 0.0674 0.0
C715 C 0.44378 0.24821 0.08079 0.0
C716 C 0.45385 0.26794 0.08081 0.0
C717 C 0.47232 0.27017 0.0663 0.0
C718 C 0.47185 0.23385 0.05335 0.0
H719 H 0.47892 0.2857 0.06668 0.0
H720 H 0.47808 0.22002 0.04349 0.0
H721 H 0.53487 0.22854 0.99473 0.0
H722 H 0.52761 0.29532 0.00316 0.0
C723 C 0.5022 0.30926 0.04016 0.0
C724 C 0.46688 0.26173 0.96829 0.0
C725 C 0.54733 0.25412 0.07857 0.0
C726 C 0.50682 0.20549 0.01482 0.0
H727 H 0.45351 0.30516 0.96357 0.0
H728 H 0.47273 0.33127 0.00285 0.0
H729 H 0.531 0.32536 0.08567 0.0
H730 H 0.55584 0.29493 0.10664 0.0
H731 H 0.55784 0.21071 0.08849 0.0
H732 H 0.53525 0.18353 0.05379 0.0
H733 H 0.48156 0.18992 0.96525 0.0
H734 H 0.45966 0.22091 0.94007 0.0
H735 H 0.56524 0.23277 0.96781 0.0
H736 H 0.55715 0.30062 0.97475 0.0
H737 H 0.44652 0.21521 0.06746 0.0
H738 H 0.4471 0.2818 0.09106 0.0
C739 C 0.72758 0.54524 0.04937 0.0
C740 C 0.7081 0.55469 0.05309 0.0
C741 C 0.69321 0.54269 0.03723 0.0
C742 C 0.70436 0.52672 0.02458 0.0
N743 N 0.72552 0.52778 0.0313 0.0
Co744 Co 0.74746 0.50798 0.01645 0.0
N745 N 0.72533 0.48922 0.99517 0.0
C746 C 0.70408 0.49204 0.9943 0.0
C747 C 0.69274 0.47674 0.9782 0.0
C748 C 0.70757 0.46312 0.96845 0.0
C749 C 0.72724 0.47083 0.97934 0.0
N750 N 0.76943 0.48848 1.00087 0.0
C751 C 0.76732 0.47025 0.98423 0.0
C752 C 0.78695 0.46174 0.97888 0.0
C753 C 0.8019 0.47502 0.99233 0.0
C754 C 0.79069 0.49082 0.00523 0.0
N755 N 0.76955 0.52636 0.03862 0.0
C756 C 0.79077 0.52336 0.03983 0.0
C757 C 0.80202 0.53787 0.05749 0.0
C758 C 0.78712 0.55087 0.06847 0.0
C759 C 0.76753 0.54362 0.05669 0.0
N760 N 0.74602 0.49031 0.0506 0.0
C761 C 0.74369 0.46312 0.09693 0.0
C762 C 0.76319 0.46817 0.08666 0.0
C763 C 0.764 0.48176 0.06374 0.0
C764 C 0.72544 0.47245 0.08423 0.0
C765 C 0.72695 0.48589 0.06125 0.0
N766 N 0.74888 0.5257 0.9821 0.0
C767 C 0.76892 0.54711 0.9515 0.0
C768 C 0.75063 0.55156 0.93416 0.0
C769 C 0.73151 0.5427 0.94092 0.0
C770 C 0.73099 0.53004 0.96484 0.0
C771 C 0.76774 0.5341 0.97502 0.0
H772 H 0.71583 0.52416 0.96893 0.0
H773 H 0.78229 0.53119 0.98713 0.0
H774 H 0.77931 0.48491 0.05679 0.0
H775 H 0.71245 0.49225 0.05214 0.0
C776 C 0.69532 0.50974 0.00788 0.0
C777 C 0.74747 0.55341 0.06383 0.0
C778 C 0.74718 0.46 0.97394 0.0
C779 C 0.79962 0.50696 0.02367 0.0
H780 H 0.70497 0.56873 0.06613 0.0
H781 H 0.67623 0.54511 0.03553 0.0
H782 H 0.67571 0.47571 0.97387 0.0
H783 H 0.70425 0.44911 0.95475 0.0
H784 H 0.7902 0.4472 0.96698 0.0
H785 H 0.81894 0.47304 0.9933 0.0
H786 H 0.81904 0.53883 0.06194 0.0
H787 H 0.79033 0.56413 0.08356 0.0
H788 H 0.7778 0.46158 0.09618 0.0
H789 H 0.70995 0.46888 0.09134 0.0
H790 H 0.78413 0.55355 0.94685 0.0
H791 H 0.71687 0.54596 0.92824 0.0
H792 H 0.14864 0.23018 0.35027 0.0
H793 H 0.19095 0.27435 0.39971 0.0
H794 H 0.16439 0.2795 0.43547 0.0
H795 H 0.10033 0.25809 0.36184 0.0
H796 H 0.08479 0.23443 0.36497 0.0
H797 H 0.1073 0.23374 0.34342 0.0
H798 H 0.12332 0.2028 0.37308 0.0
H799 H 0.10087 0.20342 0.39477 0.0
H800 H 0.12735 0.206 0.41177 0.0
H801 H 0.1331 0.28104 0.46485 0.0
H802 H 0.09893 0.27837 0.48682 0.0
H803 H 0.07657 0.23272 0.41944 0.0
C804 C 0.15227 0.24095 0.36861 0.0
C805 C 0.17195 0.25179 0.37226 0.0
C806 C 0.17615 0.26564 0.39666 0.0
C807 C 0.16112 0.26875 0.41703 0.0
C808 C 0.14194 0.25782 0.41285 0.0
C809 C 0.13745 0.24414 0.38935 0.0
C810 C 0.11551 0.23446 0.39006 0.0
C811 C 0.10114 0.24055 0.36349 0.0
C812 C 0.11685 0.21023 0.39257 0.0
C813 C 0.10832 0.24503 0.41747 0.0
C814 C 0.12387 0.25846 0.43019 0.0
C815 C 0.12085 0.27052 0.45518 0.0
C816 C 0.10137 0.26896 0.46743 0.0
C817 C 0.08514 0.25537 0.45481 0.0
C818 C 0.08879 0.24307 0.42966 0.0
H819 H 0.78969 0.16033 0.36089 0.0
H820 H 0.74321 0.14365 0.29023 0.0
H821 H 0.73699 0.10943 0.31213 0.0
H822 H 0.81063 0.10674 0.37235 0.0
H823 H 0.81324 0.11063 0.41103 0.0
H824 H 0.81579 0.1329 0.38825 0.0
H825 H 0.78617 0.15267 0.41393 0.0
H826 H 0.78353 0.13049 0.43674 0.0
H827 H 0.76073 0.14004 0.41547 0.0
H828 H 0.73345 0.0785 0.34352 0.0
H829 H 0.73323 0.0527 0.3823 0.0
H830 H 0.78123 0.08985 0.4331 0.0
C831 C 0.77833 0.14942 0.34989 0.0
C832 C 0.76711 0.15465 0.32367 0.0
C833 C 0.75238 0.13987 0.30997 0.0
C834 C 0.74863 0.12041 0.32232 0.0
C835 C 0.75972 0.11593 0.34837 0.0
C836 C 0.77432 0.12996 0.36197 0.0
C837 C 0.78316 0.12183 0.39066 0.0
C838 C 0.80713 0.11778 0.39055 0.0
C839 C 0.77809 0.13717 0.41567 0.0
C840 C 0.77093 0.10125 0.39129 0.0
C841 C 0.7576 0.09807 0.36661 0.0
C842 C 0.74396 0.08069 0.36284 0.0
C843 C 0.74385 0.06621 0.38502 0.0
C844 C 0.75727 0.06926 0.4106 0.0
C845 C 0.7711 0.08691 0.41355 0.0
H846 H 0.85961 0.74824 0.33952 0.0
H847 H 0.82325 0.78588 0.39831 0.0
H848 H 0.85414 0.78724 0.43386 0.0
H849 H 0.88955 0.7182 0.39243 0.0
H850 H 0.91372 0.71895 0.37429 0.0
H851 H 0.88846 0.72005 0.35375 0.0
H852 H 0.89952 0.75517 0.33158 0.0
H853 H 0.92486 0.75409 0.35188 0.0
H854 H 0.90837 0.77724 0.35512 0.0
H855 H 0.88898 0.78459 0.46314 0.0
H856 H 0.92605 0.77958 0.48292 0.0
H857 H 0.94036 0.74598 0.40393 0.0
C858 C 0.85811 0.75696 0.35972 0.0
C859 C 0.8388 0.76679 0.36608 0.0
C860 C 0.83762 0.77778 0.39305 0.0
C861 C 0.85516 0.77878 0.41336 0.0
C862 C 0.87386 0.76888 0.40636 0.0
C863 C 0.87553 0.75834 0.38011 0.0
C864 C 0.89767 0.74962 0.37758 0.0
C865 C 0.89732 0.72526 0.37432 0.0
C866 C 0.90823 0.75964 0.35256 0.0
C867 C 0.9082 0.75695 0.40651 0.0
C868 C 0.89413 0.76787 0.4229 0.0
C869 C 0.90014 0.77609 0.4505 0.0
C870 C 0.92113 0.77318 0.46155 0.0
C871 C 0.9358 0.76227 0.44496 0.0
C872 C 0.92927 0.75412 0.4171 0.0
H873 H 0.24962 0.86281 0.32041 0.0
H874 H 0.2012 0.82547 0.3567 0.0
H875 H 0.1917 0.85657 0.38689 0.0
H876 H 0.2677 0.88894 0.38387 0.0
H877 H 0.27271 0.91396 0.36801 0.0
H878 H 0.27368 0.88973 0.34663 0.0
H879 H 0.24571 0.90464 0.30901 0.0
H880 H 0.24464 0.92898 0.33035 0.0
H881 H 0.22069 0.91411 0.32051 0.0
H882 H 0.19011 0.89028 0.4164 0.0
H883 H 0.19763 0.92359 0.44473 0.0
H884 H 0.24641 0.93917 0.38804 0.0
C885 C 0.23666 0.86136 0.33417 0.0
C886 C 0.22606 0.84187 0.33623 0.0
C887 C 0.20957 0.84032 0.35503 0.0
C888 C 0.20394 0.85791 0.37199 0.0
C889 C 0.21488 0.87688 0.36969 0.0
C890 C 0.23088 0.87871 0.35123 0.0
C891 C 0.2415 0.90021 0.35471 0.0
C892 C 0.2653 0.89807 0.36386 0.0
C893 C 0.23791 0.91272 0.32699 0.0
C894 C 0.22948 0.90992 0.37873 0.0
C895 C 0.21396 0.89637 0.38676 0.0
C896 C 0.20192 0.90122 0.40997 0.0
C897 C 0.20624 0.92021 0.42584 0.0
C898 C 0.22255 0.93396 0.41848 0.0
C899 C 0.23386 0.92895 0.39415 0.0
H900 H 0.14376 0.77314 0.67478 0.0
H901 H 0.18476 0.7473 0.61153 0.0
H902 H 0.15391 0.74334 0.57595 0.0
H903 H 0.09921 0.73961 0.65507 0.0
H904 H 0.07978 0.76 0.66054 0.0
H905 H 0.10511 0.76111 0.68099 0.0
H906 H 0.11156 0.79887 0.663 0.0
H907 H 0.08619 0.79791 0.64263 0.0
H908 H 0.10987 0.8032 0.62479 0.0
H909 H 0.11856 0.74181 0.54739 0.0
H910 H 0.08109 0.74365 0.52763 0.0
H911 H 0.06325 0.77068 0.60916 0.0
C912 C 0.14631 0.7669 0.65334 0.0
C913 C 0.1667 0.76049 0.64597 0.0
C914 C 0.16927 0.75207 0.61779 0.0
C915 C 0.15186 0.74985 0.59739 0.0
C916 C 0.13197 0.75614 0.60546 0.0
C917 C 0.12911 0.76457 0.63271 0.0
C918 C 0.10604 0.76996 0.63595 0.0
C919 C 0.09701 0.75689 0.65954 0.0
C920 C 0.10326 0.79391 0.64194 0.0
C921 C 0.09638 0.76323 0.60629 0.0
C922 C 0.11161 0.75528 0.58901 0.0
C923 C 0.10651 0.74803 0.56068 0.0
C924 C 0.08529 0.74908 0.54967 0.0
C925 C 0.06958 0.75735 0.56696 0.0
C926 C 0.07514 0.76436 0.59563 0.0
H927 H 0.24919 0.17001 0.65405 0.0
H928 H 0.30472 0.16089 0.7128 0.0
H929 H 0.31387 0.12866 0.68467 0.0
H930 H 0.23432 0.11763 0.64708 0.0
H931 H 0.22531 0.11789 0.6094 0.0
H932 H 0.22488 0.14193 0.63131 0.0
H933 H 0.24788 0.16092 0.59612 0.0
H934 H 0.24821 0.13696 0.57386 0.0
H935 H 0.27279 0.14942 0.58736 0.0
H936 H 0.31464 0.09547 0.65362 0.0
H937 H 0.30687 0.06376 0.6217 0.0
H938 H 0.2511 0.09504 0.58323 0.0
C939 C 0.26361 0.16157 0.66042 0.0
C940 C 0.27629 0.16785 0.68543 0.0
C941 C 0.29476 0.15617 0.69369 0.0
C942 C 0.30016 0.13797 0.67778 0.0
C943 C 0.28697 0.13183 0.65364 0.0
C944 C 0.26916 0.14336 0.64486 0.0
C945 C 0.25661 0.13237 0.61974 0.0
C946 C 0.23395 0.12715 0.62736 0.0
C947 C 0.25637 0.14571 0.59266 0.0
C948 C 0.26971 0.11253 0.61646 0.0
C949 C 0.28733 0.11261 0.63588 0.0
C950 C 0.30109 0.09535 0.63797 0.0
C951 C 0.29658 0.07745 0.61982 0.0
C952 C 0.27836 0.07699 0.60019 0.0
C953 C 0.26503 0.09491 0.59826 0.0
H954 H 0.83948 0.23492 0.6598 0.0
H955 H 0.85529 0.28623 0.72222 0.0
H956 H 0.89002 0.29047 0.70213 0.0
H957 H 0.89269 0.21246 0.65823 0.0
H958 H 0.89021 0.20669 0.61991 0.0
H959 H 0.86701 0.2067 0.64017 0.0
H960 H 0.84918 0.23424 0.60616 0.0
H961 H 0.87228 0.23427 0.58577 0.0
H962 H 0.86269 0.25883 0.60093 0.0
H963 H 0.9226 0.28957 0.67539 0.0
H964 H 0.95056 0.28511 0.64168 0.0
H965 H 0.9134 0.23558 0.59433 0.0
C966 C 0.8504 0.24687 0.66934 0.0
C967 C 0.84479 0.26025 0.69259 0.0
C968 C 0.85929 0.27593 0.70431 0.0
C969 C 0.87907 0.27837 0.69315 0.0
C970 C 0.88409 0.2651 0.67011 0.0
C971 C 0.87018 0.24974 0.65815 0.0
C972 C 0.8792 0.23837 0.63249 0.0
C973 C 0.88247 0.21465 0.63804 0.0
C974 C 0.86499 0.24163 0.60469 0.0
C975 C 0.90027 0.24983 0.63186 0.0
C976 C 0.90278 0.26503 0.65397 0.0
C977 C 0.92077 0.27781 0.65787 0.0
C978 C 0.93652 0.27524 0.63843 0.0
C979 C 0.93416 0.26017 0.61504 0.0
C980 C 0.91583 0.24713 0.61205 0.0
H981 H 0.77477 0.85054 0.66361 0.0
H982 H 0.72127 0.86117 0.71533 0.0
H983 H 0.71597 0.89671 0.69503 0.0
H984 H 0.79474 0.90507 0.66698 0.0
H985 H 0.80155 0.90401 0.63002 0.0
H986 H 0.80219 0.88017 0.65037 0.0
H987 H 0.77647 0.86181 0.61116 0.0
H988 H 0.77579 0.88555 0.5907 0.0
H989 H 0.75144 0.87418 0.60098 0.0
H990 H 0.71582 0.93041 0.668 0.0
H991 H 0.71972 0.95938 0.63441 0.0
H992 H 0.77219 0.92577 0.59854 0.0
C993 C 0.76217 0.86055 0.67092 0.0
C994 C 0.74849 0.85334 0.69108 0.0
C995 C 0.73187 0.86654 0.69983 0.0
C996 C 0.72882 0.88672 0.68854 0.0
C997 C 0.74246 0.89333 0.66845 0.0
C998 C 0.75873 0.88061 0.65959 0.0
C999 C 0.77024 0.89091 0.63633 0.0
C1000 C 0.79356 0.8953 0.64655 0.0
C1001 C 0.76836 0.8773 0.60813 0.0
C1002 C 0.75779 0.91131 0.63336 0.0
C1003 C 0.74198 0.91251 0.65228 0.0
C1004 C 0.72815 0.92967 0.65308 0.0
C1005 C 0.7304 0.94597 0.63378 0.0
C1006 C 0.74624 0.94488 0.61379 0.0
C1007 C 0.76017 0.92733 0.61387 0.0
H1008 H 0.83945 0.74842 0.64238 0.0
H1009 H 0.86057 0.79283 0.71191 0.0
H1010 H 0.89342 0.79941 0.68798 0.0
H1011 H 0.89038 0.72552 0.63317 0.0
H1012 H 0.88633 0.72242 0.59449 0.0
H1013 H 0.86397 0.72194 0.61626 0.0
H1014 H 0.8464 0.75242 0.58716 0.0
H1015 H 0.8687 0.75295 0.56525 0.0
H1016 H 0.86082 0.7768 0.58406 0.0
H1017 H 0.92413 0.80096 0.65683 0.0
H1018 H 0.95122 0.79634 0.62155 0.0
H1019 H 0.91072 0.75034 0.57255 0.0
C1020 C 0.8509 0.7597 0.65236 0.0
C1021 C 0.84745 0.77016 0.679 0.0
C1022 C 0.86296 0.78455 0.69162 0.0
C1023 C 0.88162 0.78846 0.67813 0.0
C1024 C 0.88464 0.77776 0.65204 0.0
C1025 C 0.86977 0.76361 0.63931 0.0
C1026 C 0.87733 0.75363 0.61174 0.0
C1027 C 0.87964 0.72944 0.61407 0.0
C1028 C 0.86242 0.75929 0.5855 0.0
C1029 C 0.89877 0.76433 0.61105 0.0
C1030 C 0.90258 0.77832 0.63438 0.0
C1031 C 0.92129 0.79008 0.63844 0.0
C1032 C 0.93655 0.78743 0.6182 0.0
C1033 C 0.93314 0.773 0.59426 0.0
C1034 C 0.91391 0.76136 0.59074 0.0
H1035 H 0.23426 0.85097 0.63708 0.0
H1036 H 0.27661 0.87497 0.70867 0.0
H1037 H 0.28042 0.90843 0.68392 0.0
H1038 H 0.26277 0.87418 0.5809 0.0
H1039 H 0.23916 0.88036 0.55865 0.0
H1040 H 0.23922 0.85822 0.58215 0.0
H1041 H 0.20676 0.87401 0.60601 0.0
H1042 H 0.20666 0.89623 0.58265 0.0
H1043 H 0.20813 0.90072 0.62122 0.0
H1044 H 0.27997 0.9397 0.65158 0.0
H1045 H 0.27577 0.96596 0.61318 0.0
H1046 H 0.2347 0.92224 0.56134 0.0
C1047 C 0.24444 0.86318 0.64755 0.0
C1048 C 0.25487 0.86013 0.67529 0.0
C1049 C 0.26794 0.8768 0.68795 0.0
C1050 C 0.27038 0.89595 0.6739 0.0
C1051 C 0.25977 0.89845 0.64688 0.0
C1052 C 0.24712 0.88251 0.63371 0.0
C1053 C 0.2377 0.88935 0.60435 0.0
C1054 C 0.24516 0.87465 0.58008 0.0
C1055 C 0.21337 0.89012 0.60352 0.0
C1056 C 0.24706 0.91155 0.60312 0.0
C1057 C 0.25971 0.91646 0.62798 0.0
C1058 C 0.27011 0.93599 0.63203 0.0
C1059 C 0.26764 0.95083 0.61013 0.0
C1060 C 0.25492 0.9462 0.58434 0.0
C1061 C 0.24445 0.92626 0.5809 0.0
H1062 H 0.14455 0.26575 0.69981 0.0
H1063 H 0.18196 0.22671 0.64437 0.0
H1064 H 0.15207 0.22562 0.60671 0.0
H1065 H 0.09527 0.23807 0.68115 0.0
H1066 H 0.07924 0.26166 0.68304 0.0
H1067 H 0.10388 0.26011 0.70489 0.0
H1068 H 0.11666 0.29473 0.68312 0.0
H1069 H 0.09211 0.29628 0.66102 0.0
H1070 H 0.117 0.29627 0.64453 0.0
H1071 H 0.11846 0.22964 0.57476 0.0
H1072 H 0.08217 0.23538 0.55255 0.0
H1073 H 0.06561 0.26927 0.63031 0.0
C1074 C 0.14638 0.25705 0.67966 0.0
C1075 C 0.1655 0.2464 0.67474 0.0
C1076 C 0.16737 0.23492 0.6484 0.0
C1077 C 0.15055 0.23432 0.62691 0.0
C1078 C 0.13189 0.24504 0.63234 0.0
C1079 C 0.12959 0.25594 0.65823 0.0
C1080 C 0.10752 0.26521 0.65916 0.0
C1081 C 0.09579 0.25569 0.6835 0.0
C1082 C 0.10839 0.28957 0.66213 0.0
C1083 C 0.09778 0.2579 0.62973 0.0
C1084 C 0.11222 0.24655 0.61445 0.0
C1085 C 0.10701 0.23842 0.58657 0.0
C1086 C 0.08644 0.24177 0.57413 0.0
C1087 C 0.07129 0.25292 0.58966 0.0
C1088 C 0.07705 0.26102 0.61783 0.0
H1089 H 0.73721 0.14561 0.68483 0.0
H1090 H 0.77452 0.18771 0.63641 0.0
H1091 H 0.77776 0.15941 0.59942 0.0
H1092 H 0.76822 0.09834 0.67029 0.0
H1093 H 0.74565 0.08074 0.66758 0.0
H1094 H 0.74547 0.10455 0.69016 0.0
H1095 H 0.71055 0.11625 0.66266 0.0
H1096 H 0.71068 0.09254 0.6399 0.0
H1097 H 0.70944 0.11822 0.624 0.0
H1098 H 0.77672 0.1267 0.56662 0.0
H1099 H 0.77298 0.09126 0.54212 0.0
H1100 H 0.73863 0.06893 0.6124 0.0
C1101 C 0.74621 0.14894 0.66662 0.0
C1102 C 0.75523 0.16939 0.66369 0.0
C1103 C 0.76679 0.17268 0.63915 0.0
C1104 C 0.76893 0.15653 0.61795 0.0
C1105 C 0.75969 0.13681 0.62139 0.0
C1106 C 0.74872 0.13284 0.64523 0.0
C1107 C 0.74076 0.10996 0.64385 0.0
C1108 C 0.75062 0.09767 0.6695 0.0
C1109 C 0.71641 0.10921 0.64253 0.0
C1110 C 0.74895 0.10178 0.61555 0.0
C1111 C 0.7597 0.11764 0.60289 0.0
C1112 C 0.76843 0.11415 0.57645 0.0
C1113 C 0.76624 0.09397 0.56266 0.0
C1114 C 0.75557 0.0773 0.57528 0.0
C1115 C 0.74682 0.08136 0.60216 0.0
H1116 H 0.84951 0.26223 0.39118 0.0
H1117 H 0.87719 0.24691 0.31042 0.0
H1118 H 0.9128 0.24684 0.33597 0.0
H1119 H 0.89171 0.29751 0.42097 0.0
H1120 H 0.89032 0.28881 0.45728 0.0
H1121 H 0.86696 0.28804 0.4326 0.0
H1122 H 0.86236 0.24796 0.44126 0.0
H1123 H 0.88569 0.24862 0.46596 0.0
H1124 H 0.88399 0.23004 0.43554 0.0
H1125 H 0.94538 0.24771 0.37029 0.0
H1126 H 0.97264 0.24918 0.41154 0.0
H1127 H 0.92411 0.26436 0.4698 0.0
C1128 C 0.86308 0.25908 0.37882 0.0
C1129 C 0.86051 0.25447 0.34877 0.0
C1130 C 0.87869 0.25015 0.33349 0.0
C1131 C 0.89901 0.25023 0.34778 0.0
C1132 C 0.90097 0.25471 0.37738 0.0
C1133 C 0.88351 0.25907 0.39276 0.0
C1134 C 0.88998 0.26296 0.42456 0.0
C1135 C 0.88441 0.28568 0.43442 0.0
C1136 C 0.87991 0.24641 0.4429 0.0
C1137 C 0.91376 0.25998 0.42465 0.0
C1138 C 0.91978 0.2553 0.39718 0.0
C1139 C 0.94088 0.25147 0.39186 0.0
C1140 C 0.95622 0.25235 0.41528 0.0
C1141 C 0.95033 0.257 0.4435 0.0
C1142 C 0.92889 0.26095 0.44825 0.0
H1143 H 0.76086 0.87223 0.34338 0.0
H1144 H 0.73068 0.82877 0.39809 0.0
H1145 H 0.72884 0.85727 0.43543 0.0
H1146 H 0.79251 0.9007 0.40107 0.0
H1147 H 0.78919 0.9262 0.38496 0.0
H1148 H 0.78855 0.90234 0.36242 0.0
H1149 H 0.75168 0.91282 0.33932 0.0
H1150 H 0.75222 0.93671 0.36177 0.0
H1151 H 0.73041 0.91835 0.36217 0.0
H1152 H 0.73002 0.89055 0.46728 0.0
H1153 H 0.73365 0.92641 0.49063 0.0
H1154 H 0.76263 0.94908 0.41597 0.0
C1155 C 0.75401 0.86865 0.3633 0.0
C1156 C 0.7458 0.84808 0.36752 0.0
C1157 C 0.73679 0.84432 0.39393 0.0
C1158 C 0.73579 0.86044 0.41545 0.0
C1159 C 0.74383 0.88048 0.41053 0.0
C1160 C 0.75275 0.88469 0.3851 0.0
C1161 C 0.75985 0.90781 0.38519 0.0
C1162 C 0.78396 0.90935 0.3833 0.0
C1163 C 0.74782 0.91962 0.36065 0.0
C1164 C 0.7535 0.91588 0.41457 0.0
C1165 C 0.74437 0.89977 0.42885 0.0
C1166 C 0.73717 0.90325 0.45626 0.0
C1167 C 0.73928 0.92366 0.46939 0.0
C1168 C 0.74845 0.9405 0.45522 0.0
C1169 C 0.75566 0.93648 0.42739 0.0
H1170 H 0.16075 0.7719 0.35509 0.0
H1171 H 0.14944 0.71165 0.30861 0.0
H1172 H 0.11663 0.70682 0.33335 0.0
H1173 H 0.1431 0.75489 0.4224 0.0
H1174 H 0.13115 0.77996 0.43152 0.0
H1175 H 0.15329 0.77916 0.40931 0.0
H1176 H 0.13116 0.79913 0.36972 0.0
H1177 H 0.10893 0.79995 0.39178 0.0
H1178 H 0.10586 0.7885 0.35566 0.0
H1179 H 0.085 0.70861 0.36257 0.0
H1180 H 0.05752 0.71579 0.39633 0.0
H1181 H 0.09013 0.77399 0.42639 0.0
C1182 C 0.15123 0.7578 0.35002 0.0
C1183 C 0.15756 0.74215 0.32988 0.0
C1184 C 0.14491 0.72375 0.32407 0.0
C1185 C 0.12622 0.72092 0.33791 0.0
C1186 C 0.12045 0.73656 0.35772 0.0
C1187 C 0.13263 0.75457 0.36398 0.0
C1188 C 0.12321 0.76849 0.38703 0.0
C1189 C 0.1386 0.77075 0.41417 0.0
C1190 C 0.11692 0.79031 0.37534 0.0
C1191 C 0.10381 0.75553 0.39265 0.0
C1192 C 0.10248 0.73725 0.37534 0.0
C1193 C 0.08597 0.72278 0.37642 0.0
C1194 C 0.07048 0.72695 0.39591 0.0
C1195 C 0.07164 0.74535 0.41443 0.0
C1196 C 0.08856 0.75987 0.41248 0.0
H1197 H 0.23498 0.13676 0.34503 0.0
H1198 H 0.27697 0.17751 0.40058 0.0
H1199 H 0.28001 0.14978 0.43668 0.0
H1200 H 0.20732 0.11369 0.40262 0.0
H1201 H 0.20539 0.08762 0.38545 0.0
H1202 H 0.20612 0.11076 0.36384 0.0
H1203 H 0.2384 0.09533 0.3392 0.0
H1204 H 0.23776 0.07215 0.36071 0.0
H1205 H 0.2617 0.0877 0.36113 0.0
H1206 H 0.27912 0.11741 0.46697 0.0
H1207 H 0.27438 0.08258 0.48876 0.0
H1208 H 0.23294 0.06224 0.41459 0.0
C1209 C 0.24467 0.13995 0.36488 0.0
C1210 C 0.25587 0.15947 0.36964 0.0
C1211 C 0.26852 0.16271 0.39595 0.0
C1212 C 0.27024 0.14705 0.41679 0.0
C1213 C 0.25921 0.12801 0.41132 0.0
C1214 C 0.24665 0.12436 0.38603 0.0
C1215 C 0.23676 0.10228 0.38546 0.0
C1216 C 0.21245 0.10368 0.38427 0.0
C1217 C 0.2441 0.08856 0.36012 0.0
C1218 C 0.24579 0.09412 0.41428 0.0
C1219 C 0.25866 0.1093 0.42886 0.0
C1220 C 0.26901 0.10547 0.45575 0.0
C1221 C 0.26624 0.08566 0.468 0.0
C1222 C 0.25322 0.0698 0.45351 0.0
C1223 C 0.24283 0.07416 0.42627 0.0
H1224 H 0.64743 0.73596 0.82811 0.0
H1225 H 0.6935 0.77075 0.88539 0.0
H1226 H 0.66653 0.77652 0.9205 0.0
H1227 H 0.60229 0.76846 0.84242 0.0
H1228 H 0.58392 0.74653 0.8413 0.0
H1229 H 0.60684 0.74496 0.82057 0.0
H1230 H 0.6183 0.71018 0.84537 0.0
H1231 H 0.59541 0.71164 0.86617 0.0
H1232 H 0.62156 0.70989 0.88419 0.0
H1233 H 0.63453 0.77942 0.94887 0.0
H1234 H 0.59987 0.77787 0.96979 0.0
H1235 H 0.57427 0.7407 0.89493 0.0
C1236 C 0.6518 0.74482 0.84803 0.0
C1237 C 0.67264 0.75283 0.85404 0.0
C1238 C 0.67776 0.76421 0.88046 0.0
C1239 C 0.66251 0.76768 0.90048 0.0
C1240 C 0.64216 0.75959 0.89391 0.0
C1241 C 0.63677 0.74828 0.86844 0.0
C1242 C 0.61378 0.74112 0.86695 0.0
C1243 C 0.60095 0.75085 0.84129 0.0
C1244 C 0.61218 0.71676 0.86559 0.0
C1245 C 0.60709 0.75028 0.89548 0.0
C1246 C 0.62371 0.76097 0.91058 0.0
C1247 C 0.6214 0.77108 0.93727 0.0
C1248 C 0.60161 0.77022 0.94889 0.0
C1249 C 0.58432 0.75925 0.93399 0.0
C1250 C 0.58721 0.74909 0.90693 0.0
H1251 H 0.23974 0.67474 0.87037 0.0
H1252 H 0.2805 0.65193 0.80494 0.0
H1253 H 0.28497 0.61807 0.82947 0.0
H1254 H 0.26875 0.65023 0.93094 0.0
H1255 H 0.24536 0.64348 0.94856 0.0
H1256 H 0.24516 0.66615 0.92599 0.0
H1257 H 0.21243 0.65082 0.8955 0.0
H1258 H 0.21257 0.62806 0.91793 0.0
H1259 H 0.21364 0.62444 0.87946 0.0
H1260 H 0.2856 0.58666 0.86094 0.0
H1261 H 0.28216 0.55958 0.89721 0.0
H1262 H 0.24086 0.60151 0.94324 0.0
C1263 C 0.24969 0.66266 0.86128 0.0
C1264 C 0.25962 0.66614 0.83538 0.0
C1265 C 0.27238 0.64972 0.8243 0.0
C1266 C 0.27514 0.63038 0.83823 0.0
C1267 C 0.26503 0.62741 0.86341 0.0
C1268 C 0.25253 0.64304 0.8749 0.0
C1269 C 0.24341 0.6355 0.90225 0.0
C1270 C 0.25113 0.64969 0.92849 0.0
C1271 C 0.21907 0.63466 0.89855 0.0
C1272 C 0.25281 0.61327 0.9043 0.0
C1273 C 0.26527 0.60905 0.88163 0.0
C1274 C 0.27591 0.58981 0.8788 0.0
C1275 C 0.27392 0.57452 0.89969 0.0
C1276 C 0.26135 0.57829 0.92335 0.0
C1277 C 0.25049 0.59798 0.9254 0.0
H1278 H 0.34711 0.25067 0.9017 0.0
H1279 H 0.36603 0.28425 0.82784 0.0
H1280 H 0.40279 0.28625 0.84974 0.0
H1281 H 0.38048 0.2799 0.95531 0.0
H1282 H 0.38656 0.25712 0.97679 0.0
H1283 H 0.36175 0.25835 0.95525 0.0
H1284 H 0.37015 0.22238 0.92991 0.0
H1285 H 0.39505 0.22113 0.95128 0.0
H1286 H 0.39454 0.21941 0.91247 0.0
H1287 H 0.43764 0.28412 0.87927 0.0
H1288 H 0.46776 0.27953 0.91584 0.0
H1289 H 0.42624 0.24762 0.97045 0.0
C1290 C 0.35901 0.25838 0.8901 0.0
C1291 C 0.35368 0.26736 0.86308 0.0
C1292 C 0.36967 0.27752 0.84874 0.0
C1293 C 0.39063 0.27859 0.8609 0.0
C1294 C 0.39536 0.26948 0.88746 0.0
C1295 C 0.38 0.25968 0.90199 0.0
C1296 C 0.38922 0.25143 0.93047 0.0
C1297 C 0.37889 0.26236 0.95596 0.0
C1298 C 0.38711 0.22714 0.93105 0.0
C1299 C 0.41216 0.25811 0.92967 0.0
C1300 C 0.4154 0.26841 0.90459 0.0
C1301 C 0.43529 0.27611 0.89898 0.0
C1302 C 0.45226 0.27342 0.91973 0.0
C1303 C 0.44914 0.26326 0.94569 0.0
C1304 C 0.42891 0.25537 0.95061 0.0
H1305 H 0.76399 0.36877 0.8513 0.0
H1306 H 0.72852 0.32671 0.90221 0.0
H1307 H 0.7259 0.35525 0.93899 0.0
H1308 H 0.79265 0.39735 0.91035 0.0
H1309 H 0.79043 0.42279 0.89385 0.0
H1310 H 0.79053 0.39881 0.8716 0.0
H1311 H 0.75476 0.40945 0.84535 0.0
H1312 H 0.75463 0.43353 0.86737 0.0
H1313 H 0.73246 0.41548 0.86616 0.0
H1314 H 0.72733 0.38827 0.97124 0.0
H1315 H 0.73053 0.42416 0.99448 0.0
H1316 H 0.76234 0.44627 0.92178 0.0
C1317 C 0.75552 0.36547 0.87001 0.0
C1318 C 0.74688 0.34496 0.8737 0.0
C1319 C 0.736 0.34176 0.89888 0.0
C1320 C 0.73422 0.35805 0.91997 0.0
C1321 C 0.74308 0.37783 0.91575 0.0
C1322 C 0.7533 0.38173 0.89125 0.0
C1323 C 0.76075 0.40474 0.89169 0.0
C1324 C 0.78504 0.40599 0.89188 0.0
C1325 C 0.75001 0.41649 0.86612 0.0
C1326 C 0.75312 0.4131 0.92022 0.0
C1327 C 0.74314 0.3972 0.93385 0.0
C1328 C 0.73501 0.40085 0.96065 0.0
C1329 C 0.73691 0.42128 0.97373 0.0
C1330 C 0.74665 0.43802 0.96002 0.0
C1331 C 0.75491 0.43377 0.93287 0.0
H1332 H 0.64614 0.26297 0.19624 0.0
H1333 H 0.68678 0.25208 0.12604 0.0
H1334 H 0.65523 0.24966 0.09146 0.0
H1335 H 0.60477 0.22728 0.16968 0.0
H1336 H 0.5836 0.24392 0.18121 0.0
H1337 H 0.60937 0.24527 0.2005 0.0
H1338 H 0.61095 0.28576 0.1928 0.0
H1339 H 0.58514 0.28454 0.1736 0.0
H1340 H 0.60727 0.29544 0.15675 0.0
H1341 H 0.61931 0.24802 0.06449 0.0
H1342 H 0.58129 0.24788 0.04707 0.0
H1343 H 0.56398 0.25965 0.13454 0.0
C1344 C 0.64842 0.26033 0.17355 0.0
C1345 C 0.66895 0.25766 0.16386 0.0
C1346 C 0.67121 0.25391 0.13402 0.0
C1347 C 0.65339 0.25261 0.11419 0.0
C1348 C 0.63339 0.25508 0.1245 0.0
C1349 C 0.63079 0.25892 0.15345 0.0
C1350 C 0.60751 0.26072 0.1589 0.0
C1351 C 0.60093 0.24326 0.17875 0.0
C1352 C 0.60242 0.28294 0.17124 0.0
C1353 C 0.59745 0.25726 0.12851 0.0
C1354 C 0.61267 0.25407 0.10897 0.0
C1355 C 0.60726 0.25054 0.07958 0.0
C1356 C 0.58572 0.25043 0.06989 0.0
C1357 C 0.56996 0.25385 0.08953 0.0
C1358 C 0.57587 0.25713 0.11919 0.0
H1359 H 0.7603 0.67041 0.14037 0.0
H1360 H 0.7308 0.64463 0.21292 0.0
H1361 H 0.72885 0.60945 0.18812 0.0
H1362 H 0.72955 0.64023 0.08505 0.0
H1363 H 0.75114 0.63602 0.06232 0.0
H1364 H 0.7509 0.65925 0.08596 0.0
H1365 H 0.78789 0.64928 0.10915 0.0
H1366 H 0.78823 0.62601 0.08557 0.0
H1367 H 0.79187 0.62345 0.12409 0.0
H1368 H 0.72934 0.57691 0.15536 0.0
H1369 H 0.73209 0.54945 0.11644 0.0
H1370 H 0.76115 0.59535 0.06442 0.0
C1371 C 0.75361 0.65733 0.15115 0.0
C1372 C 0.74555 0.66053 0.17869 0.0
C1373 C 0.73676 0.64287 0.19175 0.0
C1374 C 0.7357 0.6227 0.17788 0.0
C1375 C 0.74351 0.62015 0.15075 0.0
C1376 C 0.75232 0.63695 0.13745 0.0
C1377 C 0.75913 0.62983 0.10788 0.0
C1378 C 0.74695 0.64206 0.08388 0.0
C1379 C 0.78321 0.63229 0.10661 0.0
C1380 C 0.75268 0.6065 0.10665 0.0
C1381 C 0.74377 0.60129 0.13172 0.0
C1382 C 0.73635 0.58082 0.13569 0.0
C1383 C 0.73797 0.56531 0.11351 0.0
C1384 C 0.74691 0.57021 0.08754 0.0
C1385 C 0.7544 0.59112 0.08416 0.0
H1386 H 0.35567 0.77455 0.17376 0.0
H1387 H 0.32397 0.71617 0.14311 0.0
H1388 H 0.35067 0.71035 0.10756 0.0
H1389 H 0.37205 0.79095 0.10423 0.0
H1390 H 0.39748 0.80084 0.1189 0.0
H1391 H 0.37525 0.80117 0.14098 0.0
H1392 H 0.39692 0.77966 0.1794 0.0
H1393 H 0.41921 0.77928 0.15745 0.0
H1394 H 0.40853 0.75471 0.16891 0.0
H1395 H 0.38055 0.71063 0.07564 0.0
H1396 H 0.41289 0.71593 0.05055 0.0
H1397 H 0.4271 0.77308 0.10341 0.0
C1398 C 0.35431 0.76069 0.15931 0.0
C1399 C 0.33776 0.74581 0.16104 0.0
C1400 C 0.33659 0.72769 0.14214 0.0
C1401 C 0.35162 0.7243 0.12183 0.0
C1402 C 0.36787 0.7391 0.1208 0.0
C1403 C 0.36944 0.75688 0.13909 0.0
C1404 C 0.38912 0.76971 0.13424 0.0
C1405 C 0.38311 0.79199 0.12398 0.0
C1406 C 0.40434 0.7709 0.16163 0.0
C1407 C 0.39832 0.75633 0.11043 0.0
C1408 C 0.38566 0.73887 0.10291 0.0
C1409 C 0.3907 0.72416 0.0815 0.0
C1410 C 0.40927 0.72724 0.06753 0.0
C1411 C 0.42288 0.74476 0.07516 0.0
C1412 C 0.4171 0.75958 0.09684 0.0
H1413 H 0.23586 0.33419 0.15173 0.0
H1414 H 0.27653 0.35771 0.22531 0.0
H1415 H 0.28018 0.39175 0.20191 0.0
H1416 H 0.26366 0.35917 0.0974 0.0
H1417 H 0.24022 0.36577 0.07509 0.0
H1418 H 0.24008 0.34314 0.09769 0.0
H1419 H 0.20746 0.35834 0.12174 0.0
H1420 H 0.20749 0.38102 0.09918 0.0
H1421 H 0.20868 0.38478 0.13785 0.0
H1422 H 0.28082 0.42291 0.17043 0.0
H1423 H 0.27797 0.44957 0.13284 0.0
H1424 H 0.2362 0.40756 0.07895 0.0
C1425 C 0.24535 0.34657 0.16306 0.0
C1426 C 0.25612 0.34293 0.19043 0.0
C1427 C 0.26847 0.35969 0.20421 0.0
C1428 C 0.27053 0.37925 0.19114 0.0
C1429 C 0.26005 0.38218 0.16416 0.0
C1430 C 0.24761 0.3664 0.15022 0.0
C1431 C 0.2384 0.37383 0.12101 0.0
C1432 C 0.24605 0.35963 0.09634 0.0
C1433 C 0.21406 0.37453 0.11988 0.0
C1434 C 0.24776 0.39613 0.12071 0.0
C1435 C 0.26019 0.4005 0.14593 0.0
C1436 C 0.27106 0.41968 0.15065 0.0
C1437 C 0.2694 0.43473 0.12905 0.0
C1438 C 0.25691 0.43078 0.10281 0.0
C1439 C 0.24572 0.41121 0.09883 0.0
H1440 H 0.35727 0.26279 0.19775 0.0
H1441 H 0.31503 0.22372 0.14023 0.0
H1442 H 0.34264 0.22063 0.10557 0.0
H1443 H 0.38097 0.29121 0.14216 0.0
H1444 H 0.40708 0.29187 0.16057 0.0
H1445 H 0.38401 0.2911 0.181 0.0
H1446 H 0.39848 0.25747 0.20615 0.0
H1447 H 0.42161 0.25814 0.18584 0.0
H1448 H 0.40537 0.23458 0.1845 0.0
H1449 H 0.37481 0.2212 0.07751 0.0
H1450 H 0.40934 0.226 0.05723 0.0
H1451 H 0.4311 0.26478 0.13258 0.0
C1452 C 0.35388 0.2535 0.17792 0.0
C1453 C 0.33392 0.24355 0.17167 0.0
C1454 C 0.33006 0.23172 0.14533 0.0
C1455 C 0.34569 0.22978 0.12557 0.0
C1456 C 0.36513 0.23981 0.13235 0.0
C1457 C 0.3693 0.2515 0.15782 0.0
C1458 C 0.39153 0.26079 0.15966 0.0
C1459 C 0.39085 0.28519 0.16092 0.0
C1460 C 0.40504 0.25223 0.18557 0.0
C1461 C 0.39922 0.25239 0.13133 0.0
C1462 C 0.38372 0.24029 0.11598 0.0
C1463 C 0.38708 0.23062 0.08935 0.0
C1464 C 0.4068 0.23333 0.07808 0.0
C1465 C 0.423 0.24566 0.09336 0.0
C1466 C 0.41902 0.25539 0.12029 0.0
H1467 H 0.76636 0.35272 0.17078 0.0
H1468 H 0.72147 0.37087 0.23329 0.0
H1469 H 0.71689 0.40579 0.21094 0.0
H1470 H 0.79084 0.40423 0.16664 0.0
H1471 H 0.79364 0.40128 0.12844 0.0
H1472 H 0.79402 0.3782 0.15025 0.0
H1473 H 0.76319 0.36161 0.117 0.0
H1474 H 0.76276 0.38459 0.09506 0.0
H1475 H 0.73896 0.37635 0.11062 0.0
H1476 H 0.71604 0.43809 0.18001 0.0
H1477 H 0.71941 0.4653 0.14351 0.0
H1478 H 0.7645 0.4253 0.10135 0.0
C1479 C 0.75551 0.364 0.17975 0.0
C1480 C 0.74423 0.35908 0.20373 0.0
C1481 C 0.73043 0.37441 0.21509 0.0
C1482 C 0.72767 0.39423 0.20248 0.0
C1483 C 0.73892 0.39846 0.17867 0.0
C1484 C 0.75261 0.38378 0.1675 0.0
C1485 C 0.76248 0.39196 0.14142 0.0
C1486 C 0.78668 0.39404 0.14704 0.0
C1487 C 0.75648 0.37779 0.11443 0.0
C1488 C 0.75203 0.41346 0.1394 0.0
C1489 C 0.73853 0.41699 0.16109 0.0
C1490 C 0.72665 0.43554 0.16303 0.0
C1491 C 0.72859 0.45084 0.14216 0.0
C1492 C 0.74231 0.44745 0.11973 0.0
C1493 C 0.75421 0.42853 0.11855 0.0
H1494 H 0.63624 0.76345 0.1837 0.0
H1495 H 0.6789 0.73401 0.12503 0.0
H1496 H 0.64973 0.73166 0.08709 0.0
H1497 H 0.59157 0.72939 0.16044 0.0
H1498 H 0.57232 0.75011 0.16488 0.0
H1499 H 0.59687 0.75049 0.18716 0.0
H1500 H 0.60464 0.78839 0.17068 0.0
H1501 H 0.58021 0.78804 0.14814 0.0
H1502 H 0.60494 0.79312 0.13271 0.0
H1503 H 0.61623 0.73363 0.05472 0.0
H1504 H 0.57981 0.73683 0.03179 0.0
H1505 H 0.55809 0.76065 0.11296 0.0
C1506 C 0.63954 0.75623 0.16308 0.0
C1507 C 0.66019 0.74927 0.1575 0.0
C1508 C 0.66354 0.74014 0.12986 0.0
C1509 C 0.64697 0.73853 0.10812 0.0
C1510 C 0.62697 0.7457 0.11437 0.0
C1511 C 0.62309 0.75405 0.1413 0.0
C1512 C 0.59991 0.75982 0.14272 0.0
C1513 C 0.58956 0.74666 0.16513 0.0
C1514 C 0.59728 0.78376 0.14893 0.0
C1515 C 0.59143 0.75355 0.1123 0.0
C1516 C 0.60737 0.74569 0.0962 0.0
C1517 C 0.60359 0.73957 0.06719 0.0
C1518 C 0.58293 0.74144 0.05437 0.0
C1519 C 0.56632 0.74909 0.07063 0.0
C1520 C 0.57061 0.75502 0.10002 0.0
H1521 H 0.24709 0.63967 0.17879 0.0
H1522 H 0.27966 0.68039 0.12274 0.0
H1523 H 0.28213 0.65039 0.08776 0.0
H1524 H 0.27963 0.5938 0.16685 0.0
H1525 H 0.25802 0.57536 0.16856 0.0
H1526 H 0.25789 0.60036 0.18847 0.0
H1527 H 0.22109 0.609 0.16323 0.0
H1528 H 0.22118 0.58409 0.14307 0.0
H1529 H 0.21776 0.60857 0.12438 0.0
H1530 H 0.28027 0.61621 0.05843 0.0
H1531 H 0.27644 0.57933 0.03845 0.0
H1532 H 0.24878 0.56051 0.11615 0.0
C1533 C 0.25502 0.64232 0.1594 0.0
C1534 C 0.26302 0.6625 0.15349 0.0
C1535 C 0.27295 0.66523 0.12751 0.0
C1536 C 0.27458 0.64826 0.10758 0.0
C1537 C 0.26647 0.62863 0.11415 0.0
C1538 C 0.25713 0.62552 0.13957 0.0
C1539 C 0.25033 0.6027 0.14194 0.0
C1540 C 0.26218 0.59245 0.168 0.0
C1541 C 0.22615 0.60101 0.14323 0.0
C1542 C 0.25729 0.59346 0.11382 0.0
C1543 C 0.26632 0.60872 0.09791 0.0
C1544 C 0.27336 0.60408 0.07075 0.0
C1545 C 0.27114 0.58322 0.05961 0.0
C1546 C 0.26218 0.56741 0.07582 0.0
C1547 C 0.25541 0.57252 0.10332 0.0
H1548 H 0.36304 0.7522 0.83146 0.0
H1549 H 0.32263 0.77172 0.89892 0.0
H1550 H 0.35371 0.77227 0.93447 0.0
H1551 H 0.39726 0.71775 0.87467 0.0
H1552 H 0.42083 0.72507 0.85785 0.0
H1553 H 0.39536 0.72593 0.83781 0.0
H1554 H 0.40163 0.76542 0.82706 0.0
H1555 H 0.42711 0.76468 0.84705 0.0
H1556 H 0.4078 0.78423 0.85658 0.0
H1557 H 0.3892 0.77072 0.96266 0.0
H1558 H 0.42683 0.76771 0.98121 0.0
H1559 H 0.44411 0.74968 0.8954 0.0
C1560 C 0.3607 0.75638 0.85377 0.0
C1561 C 0.3404 0.76189 0.86245 0.0
C1562 C 0.33806 0.76763 0.89176 0.0
C1563 C 0.35559 0.76788 0.91211 0.0
C1564 C 0.37537 0.76242 0.90281 0.0
C1565 C 0.37804 0.75681 0.87433 0.0
C1566 C 0.40106 0.75201 0.86984 0.0
C1567 C 0.40378 0.72881 0.85943 0.0
C1568 C 0.40992 0.76751 0.8489 0.0
C1569 C 0.41094 0.75579 0.90024 0.0
C1570 C 0.39583 0.7617 0.91897 0.0
C1571 C 0.40114 0.76607 0.94821 0.0
C1572 C 0.42246 0.76435 0.95854 0.0
C1573 C 0.4381 0.75832 0.93968 0.0
C1574 C 0.43229 0.7541 0.91019 0.0
H1575 H 0.26173 0.36501 0.85016 0.0
H1576 H 0.23496 0.32573 0.91326 0.0
H1577 H 0.23407 0.35686 0.9469 0.0
H1578 H 0.29438 0.39761 0.89978 0.0
H1579 H 0.28959 0.42146 0.88005 0.0
H1580 H 0.28856 0.39598 0.86123 0.0
H1581 H 0.25046 0.40396 0.83983 0.0
H1582 H 0.2514 0.42949 0.85848 0.0
H1583 H 0.23029 0.41116 0.86377 0.0
H1584 H 0.23603 0.39225 0.97343 0.0
H1585 H 0.24022 0.4298 0.99066 0.0
H1586 H 0.26414 0.44582 0.90928 0.0
C1587 C 0.25547 0.36296 0.87093 0.0
C1588 C 0.24841 0.34296 0.87912 0.0
C1589 C 0.2407 0.34087 0.9067 0.0
C1590 C 0.24003 0.35845 0.92587 0.0
C1591 C 0.24707 0.37794 0.91703 0.0
C1592 C 0.25457 0.3803 0.89019 0.0
C1593 C 0.26097 0.40298 0.88574 0.0
C1594 C 0.28479 0.40459 0.88145 0.0
C1595 C 0.24747 0.41245 0.86046 0.0
C1596 C 0.25583 0.41306 0.91428 0.0
C1597 C 0.24793 0.39834 0.93211 0.0
C1598 C 0.24218 0.40391 0.95969 0.0
C1599 C 0.24459 0.42513 0.96926 0.0
C1600 C 0.25262 0.44031 0.95121 0.0
C1601 C 0.25816 0.43428 0.9234 0.0
H1602 H 0.6479 0.23923 0.85156 0.0
H1603 H 0.68138 0.2969 0.88114 0.0
H1604 H 0.65516 0.30366 0.91714 0.0
H1605 H 0.5955 0.26022 0.85766 0.0
H1606 H 0.58467 0.23588 0.86961 0.0
H1607 H 0.60652 0.23505 0.84689 0.0
H1608 H 0.62849 0.2133 0.88476 0.0
H1609 H 0.6067 0.21406 0.90759 0.0
H1610 H 0.63247 0.22358 0.92142 0.0
H1611 H 0.62562 0.30407 0.95014 0.0
H1612 H 0.59404 0.29885 0.97695 0.0
H1613 H 0.57821 0.24201 0.92416 0.0
C1614 C 0.64975 0.25317 0.86581 0.0
C1615 C 0.66665 0.26756 0.86361 0.0
C1616 C 0.66845 0.28577 0.88235 0.0
C1617 C 0.6537 0.2897 0.90293 0.0
C1618 C 0.63711 0.27534 0.9044 0.0
C1619 C 0.63496 0.25749 0.88629 0.0
C1620 C 0.61524 0.24501 0.89182 0.0
C1621 C 0.59956 0.24399 0.86489 0.0
C1622 C 0.62108 0.22266 0.90201 0.0
C1623 C 0.60671 0.25861 0.91588 0.0
C1624 C 0.61966 0.27594 0.9229 0.0
C1625 C 0.61524 0.29065 0.94466 0.0
C1626 C 0.59709 0.28763 0.95962 0.0
C1627 C 0.58333 0.27012 0.95265 0.0
C1628 C 0.58837 0.25546 0.93038 0.0
H1629 H 0.77071 0.66137 0.86174 0.0
H1630 H 0.7346 0.63639 0.78496 0.0
H1631 H 0.73189 0.60174 0.80763 0.0
H1632 H 0.80019 0.61244 0.87799 0.0
H1633 H 0.79921 0.61667 0.91639 0.0
H1634 H 0.79946 0.63906 0.89336 0.0
H1635 H 0.76485 0.65306 0.91372 0.0
H1636 H 0.76447 0.63074 0.93674 0.0
H1637 H 0.74187 0.63602 0.91211 0.0
H1638 H 0.73094 0.57076 0.83987 0.0
H1639 H 0.73225 0.54542 0.87941 0.0
H1640 H 0.76974 0.59041 0.93447 0.0
C1641 C 0.76261 0.64849 0.84944 0.0
C1642 C 0.75286 0.65158 0.82159 0.0
C1643 C 0.74199 0.63445 0.80646 0.0
C1644 C 0.7405 0.61468 0.81906 0.0
C1645 C 0.75009 0.61227 0.84669 0.0
C1646 C 0.76103 0.62867 0.86164 0.0
C1647 C 0.76906 0.62225 0.89154 0.0
C1648 C 0.79343 0.62263 0.89501 0.0
C1649 C 0.75948 0.63635 0.91489 0.0
C1650 C 0.7606 0.59979 0.89126 0.0
C1651 C 0.74978 0.5943 0.86514 0.0
C1652 C 0.73957 0.57478 0.8603 0.0
C1653 C 0.74032 0.56056 0.88286 0.0
C1654 C 0.75121 0.56596 0.90982 0.0
C1655 C 0.76167 0.58573 0.91387 0.0
loop_
_geom_bond_atom_site_label_1
_geom_bond_atom_site_label_2
_geom_bond_distance
_geom_bond_site_symmetry_2
_ccdc_geom_bond_type
C0 C1 1.384 . S
C0 C2 1.384 . S
C0 H28 0.931 . S
C1 C0 1.384 . S
C1 C4 1.382 . S
C2 C0 1.384 . S
C2 C3 1.381 . S
C2 H29 0.930 . S
C3 C2 1.381 . S
C3 C5 1.381 . S
C3 C6 1.487 . S
C4 C1 1.382 . S
C4 C5 1.387 . S
C4 H30 0.930 . S
C5 C3 1.381 . S
C5 C4 1.387 . S
C5 H31 0.931 . S
C6 C3 1.487 . S
C6 C13 1.399 . S
C6 N44 1.343 . S
C7 C8 1.384 . S
C7 C9 1.384 . S
C7 H32 0.931 . S
C8 C7 1.384 . S
C8 C11 1.382 . S
C9 C7 1.384 . S
C9 C10 1.381 . S
C9 H33 0.930 . S
C10 C9 1.381 . S
C10 C12 1.381 . S
C10 C13 1.487 . S
C11 C8 1.382 . S
C11 C12 1.387 . S
C11 H34 0.930 . S
C12 C10 1.381 . S
C12 C11 1.387 . S
C12 H35 0.931 . S
C13 C6 1.399 . S
C13 C10 1.487 . S
C13 N45 1.343 . S
C14 C15 1.384 . S
C14 C16 1.384 . S
C14 H36 0.931 . S
C15 C14 1.384 . S
C15 C18 1.382 . S
C16 C14 1.384 . S
C16 C17 1.381 . S
C16 H37 0.930 . S
C17 C16 1.381 . S
C17 C19 1.381 . S
C17 C20 1.487 . S
C18 C15 1.382 . S
C18 C19 1.387 . S
C18 H38 0.930 . S
C19 C17 1.381 . S
C19 C18 1.387 . S
C19 H39 0.931 . S
C20 C17 1.487 . S
C20 C27 1.399 . S
C20 N45 1.343 . S
C21 C22 1.384 . S
C21 C23 1.384 . S
C21 H40 0.931 . S
C22 C21 1.384 . S
C22 C25 1.382 . S
C23 C21 1.384 . S
C23 C24 1.381 . S
C23 H41 0.930 . S
C24 C23 1.381 . S
C24 C26 1.381 . S
C24 C27 1.487 . S
C25 C22 1.382 . S
C25 C26 1.387 . S
C25 H42 0.930 . S
C26 C24 1.381 . S
C26 C25 1.387 . S
C26 H43 0.931 . S
C27 C20 1.399 . S
C27 C24 1.487 . S
C27 N44 1.343 . S
H28 C0 0.931 . S
H29 C2 0.930 . S
H30 C4 0.930 . S
H31 C5 0.931 . S
H32 C7 0.931 . S
H33 C9 0.930 . S
H34 C11 0.930 . S
H35 C12 0.931 . S
H36 C14 0.931 . S
H37 C16 0.930 . S
H38 C18 0.930 . S
H39 C19 0.931 . S
H40 C21 0.931 . S
H41 C23 0.930 . S
H42 C25 0.930 . S
H43 C26 0.931 . S
N44 C6 1.343 . S
N44 C27 1.343 . S
N45 C13 1.343 . S
N45 C20 1.343 . S
C46 C47 1.384 . S
C46 C48 1.384 . S
C46 H74 0.931 . S
C47 C46 1.384 . S
C47 C50 1.382 . S
C48 C46 1.384 . S
C48 C49 1.381 . S
C48 H75 0.930 . S
C49 C48 1.381 . S
C49 C51 1.381 . S
C49 C52 1.487 . S
C50 C47 1.382 . S
C50 C51 1.387 . S
C50 H76 0.930 . S
C51 C49 1.381 . S
C51 C50 1.387 . S
C51 H77 0.931 . S
C52 C49 1.487 . S
C52 C59 1.399 . S
C52 N90 1.343 . S
C53 C54 1.384 . S
C53 C55 1.384 . S
C53 H78 0.931 . S
C54 C53 1.384 . S
C54 C57 1.382 . S
C55 C53 1.384 . S
C55 C56 1.381 . S
C55 H79 0.930 . S
C56 C55 1.381 . S
C56 C58 1.381 . S
C56 C59 1.487 . S
C57 C54 1.382 . S
C57 C58 1.387 . S
C57 H80 0.930 . S
C58 C56 1.381 . S
C58 C57 1.387 . S
C58 H81 0.931 . S
C59 C52 1.399 . S
C59 C56 1.487 . S
C59 N91 1.343 . S
C60 C61 1.384 . S
C60 C62 1.384 . S
C60 H82 0.931 . S
C61 C60 1.384 . S
C61 C64 1.382 . S
C62 C60 1.384 . S
C62 C63 1.381 . S
C62 H83 0.930 . S
C63 C62 1.381 . S
C63 C65 1.381 . S
C63 C66 1.487 . S
C64 C61 1.382 . S
C64 C65 1.387 . S
C64 H84 0.930 . S
C65 C63 1.381 . S
C65 C64 1.387 . S
C65 H85 0.931 . S
C66 C63 1.487 . S
C66 C73 1.399 . S
C66 N91 1.343 . S
C67 C68 1.384 . S
C67 C69 1.384 . S
C67 H86 0.931 . S
C68 C67 1.384 . S
C68 C71 1.382 . S
C69 C67 1.384 . S
C69 C70 1.381 . S
C69 H87 0.930 . S
C70 C69 1.381 . S
C70 C72 1.381 . S
C70 C73 1.487 . S
C71 C68 1.382 . S
C71 C72 1.387 . S
C71 H88 0.930 . S
C72 C70 1.381 . S
C72 C71 1.387 . S
C72 H89 0.931 . S
C73 C66 1.399 . S
C73 C70 1.487 . S
C73 N90 1.343 . S
H74 C46 0.931 . S
H75 C48 0.930 . S
H76 C50 0.930 . S
H77 C51 0.931 . S
H78 C53 0.931 . S
H79 C55 0.930 . S
H80 C57 0.930 . S
H81 C58 0.931 . S
H82 C60 0.931 . S
H83 C62 0.930 . S
H84 C64 0.930 . S
H85 C65 0.931 . S
H86 C67 0.931 . S
H87 C69 0.930 . S
H88 C71 0.930 . S
H89 C72 0.931 . S
N90 C52 1.343 . S
N90 C73 1.343 . S
N91 C59 1.343 . S
N91 C66 1.343 . S
C92 C93 1.384 . S
C92 C94 1.384 . S
C92 H120 0.931 . S
C93 C92 1.384 . S
C93 C96 1.382 . S
C94 C92 1.384 . S
C94 C95 1.381 . S
C94 H121 0.930 . S
C95 C94 1.381 . S
C95 C97 1.381 . S
C95 C98 1.487 . S
C96 C93 1.382 . S
C96 C97 1.387 . S
C96 H122 0.930 . S
C97 C95 1.381 . S
C97 C96 1.387 . S
C97 H123 0.931 . S
C98 C95 1.487 . S
C98 C105 1.399 . S
C98 N136 1.343 . S
C99 C100 1.384 . S
C99 C101 1.384 . S
C99 H124 0.931 . S
C100 C99 1.384 . S
C100 C103 1.382 . S
C101 C99 1.384 . S
C101 C102 1.381 . S
C101 H125 0.930 . S
C102 C101 1.381 . S
C102 C104 1.381 . S
C102 C105 1.487 . S
C103 C100 1.382 . S
C103 C104 1.387 . S
C103 H126 0.930 . S
C104 C102 1.381 . S
C104 C103 1.387 . S
C104 H127 0.931 . S
C105 C98 1.399 . S
C105 C102 1.487 . S
C105 N137 1.343 . S
C106 C107 1.384 . S
C106 C108 1.384 . S
C106 H128 0.931 . S
C107 C106 1.384 . S
C107 C110 1.382 . S
C108 C106 1.384 . S
C108 C109 1.381 . S
C108 H129 0.930 . S
C109 C108 1.381 . S
C109 C111 1.381 . S
C109 C112 1.487 . S
C110 C107 1.382 . S
C110 C111 1.387 . S
C110 H130 0.930 . S
C111 C109 1.381 . S
C111 C110 1.387 . S
C111 H131 0.931 . S
C112 C109 1.487 . S
C112 C119 1.399 . S
C112 N137 1.343 . S
C113 C114 1.384 . S
C113 C115 1.384 . S
C113 H132 0.931 . S
C114 C113 1.384 . S
C114 C117 1.382 . S
C115 C113 1.384 . S
C115 C116 1.381 . S
C115 H133 0.930 . S
C116 C115 1.381 . S
C116 C118 1.381 . S
C116 C119 1.487 . S
C117 C114 1.382 . S
C117 C118 1.387 . S
C117 H134 0.930 . S
C118 C116 1.381 . S
C118 C117 1.387 . S
C118 H135 0.931 . S
C119 C112 1.399 . S
C119 C116 1.487 . S
C119 N136 1.343 . S
H120 C92 0.931 . S
H121 C94 0.930 . S
H122 C96 0.930 . S
H123 C97 0.931 . S
H124 C99 0.931 . S
H125 C101 0.930 . S
H126 C103 0.930 . S
H127 C104 0.931 . S
H128 C106 0.931 . S
H129 C108 0.930 . S
H130 C110 0.930 . S
H131 C111 0.931 . S
H132 C113 0.931 . S
H133 C115 0.930 . S
H134 C117 0.930 . S
H135 C118 0.931 . S
N136 C98 1.343 . S
N136 C119 1.343 . S
N137 C105 1.343 . S
N137 C112 1.343 . S
C138 C139 1.384 . S
C138 C140 1.384 . S
C138 H166 0.931 . S
C139 C138 1.384 . S
C139 C142 1.382 . S
C140 C138 1.384 . S
C140 C141 1.381 . S
C140 H167 0.930 . S
C141 C140 1.381 . S
C141 C143 1.381 . S
C141 C144 1.487 . S
C142 C139 1.382 . S
C142 C143 1.387 . S
C142 H168 0.930 . S
C143 C141 1.381 . S
C143 C142 1.387 . S
C143 H169 0.931 . S
C144 C141 1.487 . S
C144 C151 1.399 . S
C144 N182 1.343 . S
C145 C146 1.384 . S
C145 C147 1.384 . S
C145 H170 0.931 . S
C146 C145 1.384 . S
C146 C149 1.382 . S
C147 C145 1.384 . S
C147 C148 1.381 . S
C147 H171 0.930 . S
C148 C147 1.381 . S
C148 C150 1.381 . S
C148 C151 1.487 . S
C149 C146 1.382 . S
C149 C150 1.387 . S
C149 H172 0.930 . S
C150 C148 1.381 . S
C150 C149 1.387 . S
C150 H173 0.931 . S
C151 C144 1.399 . S
C151 C148 1.487 . S
C151 N183 1.343 . S
C152 C153 1.384 . S
C152 C154 1.384 . S
C152 H174 0.931 . S
C153 C152 1.384 . S
C153 C156 1.382 . S
C154 C152 1.384 . S
C154 C155 1.381 . S
C154 H175 0.930 . S
C155 C154 1.381 . S
C155 C157 1.381 . S
C155 C158 1.487 . S
C156 C153 1.382 . S
C156 C157 1.387 . S
C156 H176 0.930 . S
C157 C155 1.381 . S
C157 C156 1.387 . S
C157 H177 0.931 . S
C158 C155 1.487 . S
C158 C165 1.399 . S
C158 N183 1.343 . S
C159 C160 1.384 . S
C159 C161 1.384 . S
C159 H178 0.931 . S
C160 C159 1.384 . S
C160 C163 1.382 . S
C161 C159 1.384 . S
C161 C162 1.381 . S
C161 H179 0.930 . S
C162 C161 1.381 . S
C162 C164 1.381 . S
C162 C165 1.487 . S
C163 C160 1.382 . S
C163 C164 1.387 . S
C163 H180 0.930 . S
C164 C162 1.381 . S
C164 C163 1.387 . S
C164 H181 0.931 . S
C165 C158 1.399 . S
C165 C162 1.487 . S
C165 N182 1.343 . S
H166 C138 0.931 . S
H167 C140 0.930 . S
H168 C142 0.930 . S
H169 C143 0.931 . S
H170 C145 0.931 . S
H171 C147 0.930 . S
H172 C149 0.930 . S
H173 C150 0.931 . S
H174 C152 0.931 . S
H175 C154 0.930 . S
H176 C156 0.930 . S
H177 C157 0.931 . S
H178 C159 0.931 . S
H179 C161 0.930 . S
H180 C163 0.930 . S
H181 C164 0.931 . S
N182 C144 1.343 . S
N182 C165 1.343 . S
N183 C151 1.343 . S
N183 C158 1.343 . S
C184 C185 1.384 . S
C184 C186 1.384 . S
C184 H212 0.931 . S
C185 C184 1.384 . S
C185 C188 1.382 . S
C186 C184 1.384 . S
C186 C187 1.381 . S
C186 H213 0.930 . S
C187 C186 1.381 . S
C187 C189 1.381 . S
C187 C190 1.487 . S
C188 C185 1.382 . S
C188 C189 1.387 . S
C188 H214 0.930 . S
C189 C187 1.381 . S
C189 C188 1.387 . S
C189 H215 0.931 . S
C190 C187 1.487 . S
C190 C197 1.399 . S
C190 N228 1.343 . S
C191 C192 1.384 . S
C191 C193 1.384 . S
C191 H216 0.931 . S
C192 C191 1.384 . S
C192 C195 1.382 . S
C193 C191 1.384 . S
C193 C194 1.381 . S
C193 H217 0.930 . S
C194 C193 1.381 . S
C194 C196 1.381 . S
C194 C197 1.487 . S
C195 C192 1.382 . S
C195 C196 1.387 . S
C195 H218 0.930 . S
C196 C194 1.381 . S
C196 C195 1.387 . S
C196 H219 0.931 . S
C197 C190 1.399 . S
C197 C194 1.487 . S
C197 N229 1.343 . S
C198 C199 1.384 . S
C198 C200 1.384 . S
C198 H220 0.931 . S
C199 C198 1.384 . S
C199 C202 1.382 . S
C200 C198 1.384 . S
C200 C201 1.381 . S
C200 H221 0.930 . S
C201 C200 1.381 . S
C201 C203 1.381 . S
C201 C204 1.487 . S
C202 C199 1.382 . S
C202 C203 1.387 . S
C202 H222 0.930 . S
C203 C201 1.381 . S
C203 C202 1.387 . S
C203 H223 0.931 . S
C204 C201 1.487 . S
C204 C211 1.399 . S
C204 N229 1.343 . S
C205 C206 1.384 . S
C205 C207 1.384 . S
C205 H224 0.931 . S
C206 C205 1.384 . S
C206 C209 1.382 . S
C207 C205 1.384 . S
C207 C208 1.381 . S
C207 H225 0.930 . S
C208 C207 1.381 . S
C208 C210 1.381 . S
C208 C211 1.487 . S
C209 C206 1.382 . S
C209 C210 1.387 . S
C209 H226 0.930 . S
C210 C208 1.381 . S
C210 C209 1.387 . S
C210 H227 0.931 . S
C211 C204 1.399 . S
C211 C208 1.487 . S
C211 N228 1.343 . S
H212 C184 0.931 . S
H213 C186 0.930 . S
H214 C188 0.930 . S
H215 C189 0.931 . S
H216 C191 0.931 . S
H217 C193 0.930 . S
H218 C195 0.930 . S
H219 C196 0.931 . S
H220 C198 0.931 . S
H221 C200 0.930 . S
H222 C202 0.930 . S
H223 C203 0.931 . S
H224 C205 0.931 . S
H225 C207 0.930 . S
H226 C209 0.930 . S
H227 C210 0.931 . S
N228 C190 1.343 . S
N228 C211 1.343 . S
N229 C197 1.343 . S
N229 C204 1.343 . S
C230 C231 1.384 . S
C230 C232 1.384 . S
C230 H258 0.931 . S
C231 C230 1.384 . S
C231 C234 1.382 . S
C232 C230 1.384 . S
C232 C233 1.381 . S
C232 H259 0.930 . S
C233 C232 1.381 . S
C233 C235 1.381 . S
C233 C236 1.487 . S
C234 C231 1.382 . S
C234 C235 1.387 . S
C234 H260 0.930 . S
C235 C233 1.381 . S
C235 C234 1.387 . S
C235 H261 0.931 . S
C236 C233 1.487 . S
C236 C243 1.399 . S
C236 N274 1.343 . S
C237 C238 1.384 . S
C237 C239 1.384 . S
C237 H262 0.931 . S
C238 C237 1.384 . S
C238 C241 1.382 . S
C239 C237 1.384 . S
C239 C240 1.381 . S
C239 H263 0.930 . S
C240 C239 1.381 . S
C240 C242 1.381 . S
C240 C243 1.487 . S
C241 C238 1.382 . S
C241 C242 1.387 . S
C241 H264 0.930 . S
C242 C240 1.381 . S
C242 C241 1.387 . S
C242 H265 0.931 . S
C243 C236 1.399 . S
C243 C240 1.487 . S
C243 N275 1.343 . S
C244 C245 1.384 . S
C244 C246 1.384 . S
C244 H266 0.931 . S
C245 C244 1.384 . S
C245 C248 1.382 . S
C246 C244 1.384 . S
C246 C247 1.381 . S
C246 H267 0.930 . S
C247 C246 1.381 . S
C247 C249 1.381 . S
C247 C250 1.487 . S
C248 C245 1.382 . S
C248 C249 1.387 . S
C248 H268 0.930 . S
C249 C247 1.381 . S
C249 C248 1.387 . S
C249 H269 0.931 . S
C250 C247 1.487 . S
C250 C257 1.399 . S
C250 N275 1.343 . S
C251 C252 1.384 . S
C251 C253 1.384 . S
C251 H270 0.931 . S
C252 C251 1.384 . S
C252 C255 1.382 . S
C253 C251 1.384 . S
C253 C254 1.381 . S
C253 H271 0.930 . S
C254 C253 1.381 . S
C254 C256 1.381 . S
C254 C257 1.487 . S
C255 C252 1.382 . S
C255 C256 1.387 . S
C255 H272 0.930 . S
C256 C254 1.381 . S
C256 C255 1.387 . S
C256 H273 0.931 . S
C257 C250 1.399 . S
C257 C254 1.487 . S
C257 N274 1.343 . S
H258 C230 0.931 . S
H259 C232 0.930 . S
H260 C234 0.930 . S
H261 C235 0.931 . S
H262 C237 0.931 . S
H263 C239 0.930 . S
H264 C241 0.930 . S
H265 C242 0.931 . S
H266 C244 0.931 . S
H267 C246 0.930 . S
H268 C248 0.930 . S
H269 C249 0.931 . S
H270 C251 0.931 . S
H271 C253 0.930 . S
H272 C255 0.930 . S
H273 C256 0.931 . S
N274 C236 1.343 . S
N274 C257 1.343 . S
N275 C243 1.343 . S
N275 C250 1.343 . S
C276 C277 1.384 . S
C276 C278 1.384 . S
C276 H304 0.931 . S
C277 C276 1.384 . S
C277 C280 1.382 . S
C278 C276 1.384 . S
C278 C279 1.381 . S
C278 H305 0.930 . S
C279 C278 1.381 . S
C279 C281 1.381 . S
C279 C282 1.487 . S
C280 C277 1.382 . S
C280 C281 1.387 . S
C280 H306 0.930 . S
C281 C279 1.381 . S
C281 C280 1.387 . S
C281 H307 0.931 . S
C282 C279 1.487 . S
C282 C289 1.399 . S
C282 N320 1.343 . S
C283 C284 1.384 . S
C283 C285 1.384 . S
C283 H308 0.931 . S
C284 C283 1.384 . S
C284 C287 1.382 . S
C285 C283 1.384 . S
C285 C286 1.381 . S
C285 H309 0.930 . S
C286 C285 1.381 . S
C286 C288 1.381 . S
C286 C289 1.487 . S
C287 C284 1.382 . S
C287 C288 1.387 . S
C287 H310 0.930 . S
C288 C286 1.381 . S
C288 C287 1.387 . S
C288 H311 0.931 . S
C289 C282 1.399 . S
C289 C286 1.487 . S
C289 N321 1.343 . S
C290 C291 1.384 . S
C290 C292 1.384 . S
C290 H312 0.931 . S
C291 C290 1.384 . S
C291 C294 1.382 . S
C292 C290 1.384 . S
C292 C293 1.381 . S
C292 H313 0.930 . S
C293 C292 1.381 . S
C293 C295 1.381 . S
C293 C296 1.487 . S
C294 C291 1.382 . S
C294 C295 1.387 . S
C294 H314 0.930 . S
C295 C293 1.381 . S
C295 C294 1.387 . S
C295 H315 0.931 . S
C296 C293 1.487 . S
C296 C303 1.399 . S
C296 N321 1.343 . S
C297 C298 1.384 . S
C297 C299 1.384 . S
C297 H316 0.931 . S
C298 C297 1.384 . S
C298 C301 1.382 . S
C299 C297 1.384 . S
C299 C300 1.381 . S
C299 H317 0.930 . S
C300 C299 1.381 . S
C300 C302 1.381 . S
C300 C303 1.487 . S
C301 C298 1.382 . S
C301 C302 1.387 . S
C301 H318 0.930 . S
C302 C300 1.381 . S
C302 C301 1.387 . S
C302 H319 0.931 . S
C303 C296 1.399 . S
C303 C300 1.487 . S
C303 N320 1.343 . S
H304 C276 0.931 . S
H305 C278 0.930 . S
H306 C280 0.930 . S
H307 C281 0.931 . S
H308 C283 0.931 . S
H309 C285 0.930 . S
H310 C287 0.930 . S
H311 C288 0.931 . S
H312 C290 0.931 . S
H313 C292 0.930 . S
H314 C294 0.930 . S
H315 C295 0.931 . S
H316 C297 0.931 . S
H317 C299 0.930 . S
H318 C301 0.930 . S
H319 C302 0.931 . S
N320 C282 1.343 . S
N320 C303 1.343 . S
N321 C289 1.343 . S
N321 C296 1.343 . S
C322 C323 1.384 . S
C322 C324 1.384 . S
C322 H350 0.931 . S
C323 C322 1.384 . S
C323 C326 1.382 . S
C324 C322 1.384 . S
C324 C325 1.381 . S
C324 H351 0.930 . S
C325 C324 1.381 . S
C325 C327 1.381 . S
C325 C328 1.487 . S
C326 C323 1.382 . S
C326 C327 1.387 . S
C326 H352 0.930 . S
C327 C325 1.381 . S
C327 C326 1.387 . S
C327 H353 0.931 . S
C328 C325 1.487 . S
C328 C335 1.399 . S
C328 N366 1.343 . S
C329 C330 1.384 . S
C329 C331 1.384 . S
C329 H354 0.931 . S
C330 C329 1.384 . S
C330 C333 1.382 . S
C331 C329 1.384 . S
C331 C332 1.381 . S
C331 H355 0.930 . S
C332 C331 1.381 . S
C332 C334 1.381 . S
C332 C335 1.487 . S
C333 C330 1.382 . S
C333 C334 1.387 . S
C333 H356 0.930 . S
C334 C332 1.381 . S
C334 C333 1.387 . S
C334 H357 0.931 . S
C335 C328 1.399 . S
C335 C332 1.487 . S
C335 N367 1.343 . S
C336 C337 1.384 . S
C336 C338 1.384 . S
C336 H358 0.931 . S
C337 C336 1.384 . S
C337 C340 1.382 . S
C338 C336 1.384 . S
C338 C339 1.381 . S
C338 H359 0.930 . S
C339 C338 1.381 . S
C339 C341 1.381 . S
C339 C342 1.487 . S
C340 C337 1.382 . S
C340 C341 1.387 . S
C340 H360 0.930 . S
C341 C339 1.381 . S
C341 C340 1.387 . S
C341 H361 0.931 . S
C342 C339 1.487 . S
C342 C349 1.399 . S
C342 N367 1.343 . S
C343 C344 1.384 . S
C343 C345 1.384 . S
C343 H362 0.931 . S
C344 C343 1.384 . S
C344 C347 1.382 . S
C345 C343 1.384 . S
C345 C346 1.381 . S
C345 H363 0.930 . S
C346 C345 1.381 . S
C346 C348 1.381 . S
C346 C349 1.487 . S
C347 C344 1.382 . S
C347 C348 1.387 . S
C347 H364 0.930 . S
C348 C346 1.381 . S
C348 C347 1.387 . S
C348 H365 0.931 . S
C349 C342 1.399 . S
C349 C346 1.487 . S
C349 N366 1.343 . S
H350 C322 0.931 . S
H351 C324 0.930 . S
H352 C326 0.930 . S
H353 C327 0.931 . S
H354 C329 0.931 . S
H355 C331 0.930 . S
H356 C333 0.930 . S
H357 C334 0.931 . S
H358 C336 0.931 . S
H359 C338 0.930 . S
H360 C340 0.930 . S
H361 C341 0.931 . S
H362 C343 0.931 . S
H363 C345 0.930 . S
H364 C347 0.930 . S
H365 C348 0.931 . S
N366 C328 1.343 . S
N366 C349 1.343 . S
N367 C335 1.343 . S
N367 C342 1.343 . S
C368 C369 1.443 . S
C368 N372 1.376 . S
C368 C406 1.389 . S
C369 C368 1.443 . S
C369 C370 1.340 . S
C369 H409 0.951 . S
C370 C369 1.340 . S
C370 C371 1.439 . S
C370 H410 0.950 . S
C371 C370 1.439 . S
C371 N372 1.374 . S
C371 C405 1.395 . S
N372 C368 1.376 . S
N372 C371 1.374 . S
N372 Co373 2.008 . S
Co373 N372 2.008 . S
Co373 N374 1.995 1_455 S
Co373 N379 2.008 1_455 S
Co373 N384 1.995 . S
Co373 N389 2.282 1_455 S
Co373 N395 2.282 . S
N374 Co373 1.995 1_655 S
N374 C375 1.376 . S
N374 C378 1.383 . S
C375 N374 1.376 . S
C375 C376 1.446 . S
C375 C405 1.391 1_655 S
C376 C375 1.446 . S
C376 C377 1.339 . S
C376 H411 0.949 . S
C377 C376 1.339 . S
C377 C378 1.439 . S
C377 H412 0.950 . S
C378 N374 1.383 . S
C378 C377 1.439 . S
C378 C407 1.392 . S
N379 Co373 2.008 1_655 S
N379 C380 1.376 . S
N379 C383 1.374 . S
C380 N379 1.376 . S
C380 C381 1.443 . S
C380 C407 1.389 . S
C381 C380 1.443 . S
C381 C382 1.340 . S
C381 H413 0.951 . S
C382 C381 1.340 . S
C382 C383 1.439 . S
C382 H414 0.950 . S
C383 N379 1.374 . S
C383 C382 1.439 . S
C383 C408 1.425 . S
N384 Co373 1.995 . S
N384 C385 1.376 . S
N384 C388 1.383 . S
C385 N384 1.376 . S
C385 C386 1.446 . S
C385 C408 1.360 1_455 S
C386 C385 1.446 . S
C386 C387 1.339 . S
C386 H415 0.949 . S
C387 C386 1.339 . S
C387 C388 1.439 . S
C387 H416 0.950 . S
C388 N384 1.383 . S
C388 C387 1.439 . S
C388 C406 1.392 . S
N389 Co373 2.282 1_655 S
N389 C392 1.332 . S
N389 C394 1.332 . S
C390 C391 1.386 . S
C390 C393 1.388 . S
C391 C390 1.386 . S
C391 C392 1.382 . S
C391 H417 0.950 . S
C392 N389 1.332 . S
C392 C391 1.382 . S
C392 H403 0.952 . S
C393 C390 1.388 . S
C393 C394 1.382 . S
C393 H418 0.950 . S
C394 N389 1.332 . S
C394 C393 1.382 . S
C394 H404 0.948 . S
N395 Co373 2.282 . S
N395 C399 1.332 . S
N395 C400 1.332 . S
C396 C397 1.388 . S
C396 C400 1.382 . S
C396 H419 0.950 . S
C397 C396 1.388 . S
C397 C398 1.386 . S
C398 C397 1.386 . S
C398 C399 1.382 . S
C398 H420 0.950 . S
C399 N395 1.332 . S
C399 C398 1.382 . S
C399 H401 0.952 . S
C400 N395 1.332 . S
C400 C396 1.382 . S
C400 H402 0.948 . S
H401 C399 0.952 . S
H402 C400 0.948 . S
H403 C392 0.952 . S
H404 C394 0.948 . S
C405 C371 1.395 . S
C405 C375 1.391 1_455 S
C406 C368 1.389 . S
C406 C388 1.392 . S
C407 C378 1.392 . S
C407 C380 1.389 . S
C408 C383 1.425 . S
C408 C385 1.360 1_655 S
H409 C369 0.951 . S
H410 C370 0.950 . S
H411 C376 0.949 . S
H412 C377 0.950 . S
H413 C381 0.951 . S
H414 C382 0.950 . S
H415 C386 0.949 . S
H416 C387 0.950 . S
H417 C391 0.950 . S
H418 C393 0.950 . S
H419 C396 0.950 . S
H420 C398 0.950 . S
C421 C422 1.443 . S
C421 N425 1.376 . S
C421 C459 1.389 . S
C422 C421 1.443 . S
C422 C423 1.340 . S
C422 H462 0.951 . S
C423 C422 1.340 . S
C423 C424 1.439 . S
C423 H463 0.950 . S
C424 C423 1.439 . S
C424 N425 1.374 . S
C424 C458 1.395 . S
N425 C421 1.376 . S
N425 C424 1.374 . S
N425 Co426 2.008 . S
Co426 N425 2.008 . S
Co426 N427 1.995 1_545 S
Co426 N432 2.008 1_545 S
Co426 N437 1.995 . S
Co426 N442 2.282 1_545 S
Co426 N448 2.282 . S
N427 Co426 1.995 1_565 S
N427 C428 1.376 . S
N427 C431 1.383 . S
C428 N427 1.376 . S
C428 C429 1.446 . S
C428 C458 1.391 1_565 S
C429 C428 1.446 . S
C429 C430 1.339 . S
C429 H464 0.949 . S
C430 C429 1.339 . S
C430 C431 1.439 . S
C430 H465 0.950 . S
C431 N427 1.383 . S
C431 C430 1.439 . S
C431 C460 1.392 . S
N432 Co426 2.008 1_565 S
N432 C433 1.376 . S
N432 C436 1.374 . S
C433 N432 1.376 . S
C433 C434 1.443 . S
C433 C460 1.389 . S
C434 C433 1.443 . S
C434 C435 1.340 . S
C434 H466 0.951 . S
C435 C434 1.340 . S
C435 C436 1.439 . S
C435 H467 0.950 . S
C436 N432 1.374 . S
C436 C435 1.439 . S
C436 C461 1.404 . S
N437 Co426 1.995 . S
N437 C438 1.376 . S
N437 C441 1.383 . S
C438 N437 1.376 . S
C438 C439 1.446 . S
C438 C461 1.381 1_545 S
C439 C438 1.446 . S
C439 C440 1.339 . S
C439 H468 0.949 . S
C440 C439 1.339 . S
C440 C441 1.439 . S
C440 H469 0.950 . S
C441 N437 1.383 . S
C441 C440 1.439 . S
C441 C459 1.392 . S
N442 Co426 2.282 1_565 S
N442 C445 1.332 . S
N442 C447 1.332 . S
C443 C444 1.386 . S
C443 C446 1.388 . S
C444 C443 1.386 . S
C444 C445 1.382 . S
C444 H470 0.950 . S
C445 N442 1.332 . S
C445 C444 1.382 . S
C445 H456 0.952 . S
C446 C443 1.388 . S
C446 C447 1.382 . S
C446 H471 0.950 . S
C447 N442 1.332 . S
C447 C446 1.382 . S
C447 H457 0.948 . S
N448 Co426 2.282 . S
N448 C452 1.332 . S
N448 C453 1.332 . S
C449 C450 1.388 . S
C449 C453 1.382 . S
C449 H472 0.950 . S
C450 C449 1.388 . S
C450 C451 1.386 . S
C451 C450 1.386 . S
C451 C452 1.382 . S
C451 H473 0.950 . S
C452 N448 1.332 . S
C452 C451 1.382 . S
C452 H454 0.952 . S
C453 N448 1.332 . S
C453 C449 1.382 . S
C453 H455 0.948 . S
H454 C452 0.952 . S
H455 C453 0.948 . S
H456 C445 0.952 . S
H457 C447 0.948 . S
C458 C424 1.395 . S
C458 C428 1.391 1_545 S
C459 C421 1.389 . S
C459 C441 1.392 . S
C460 C431 1.392 . S
C460 C433 1.389 . S
C461 C436 1.404 . S
C461 C438 1.381 1_565 S
H462 C422 0.951 . S
H463 C423 0.950 . S
H464 C429 0.949 . S
H465 C430 0.950 . S
H466 C434 0.951 . S
H467 C435 0.950 . S
H468 C439 0.949 . S
H469 C440 0.950 . S
H470 C444 0.950 . S
H471 C446 0.950 . S
H472 C449 0.950 . S
H473 C451 0.950 . S
C474 C475 1.443 . S
C474 N478 1.376 . S
C474 C512 1.389 . S
C475 C474 1.443 . S
C475 C476 1.340 . S
C475 H515 0.951 . S
C476 C475 1.340 . S
C476 C477 1.439 . S
C476 H516 0.950 . S
C477 C476 1.439 . S
C477 N478 1.374 . S
C477 C511 1.395 . S
N478 C474 1.376 . S
N478 C477 1.374 . S
N478 Co479 2.008 . S
Co479 N478 2.008 . S
Co479 N480 1.995 1_455 S
Co479 N485 2.008 1_455 S
Co479 N490 1.995 . S
Co479 N495 2.282 1_455 S
Co479 N501 2.282 . S
N480 Co479 1.995 1_655 S
N480 C481 1.376 . S
N480 C484 1.383 . S
C481 N480 1.376 . S
C481 C482 1.446 . S
C481 C511 1.391 1_655 S
C482 C481 1.446 . S
C482 C483 1.339 . S
C482 H517 0.949 . S
C483 C482 1.339 . S
C483 C484 1.439 . S
C483 H518 0.950 . S
C484 N480 1.383 . S
C484 C483 1.439 . S
C484 C513 1.392 . S
N485 Co479 2.008 1_655 S
N485 C486 1.376 . S
N485 C489 1.374 . S
C486 N485 1.376 . S
C486 C487 1.443 . S
C486 C513 1.389 . S
C487 C486 1.443 . S
C487 C488 1.340 . S
C487 H519 0.951 . S
C488 C487 1.340 . S
C488 C489 1.439 . S
C488 H520 0.950 . S
C489 N485 1.374 . S
C489 C488 1.439 . S
C489 C514 1.395 . S
N490 Co479 1.995 . S
N490 C491 1.376 . S
N490 C494 1.383 . S
C491 N490 1.376 . S
C491 C492 1.446 . S
C491 C514 1.391 1_455 S
C492 C491 1.446 . S
C492 C493 1.339 . S
C492 H521 0.949 . S
C493 C492 1.339 . S
C493 C494 1.439 . S
C493 H522 0.950 . S
C494 N490 1.383 . S
C494 C493 1.439 . S
C494 C512 1.392 . S
N495 Co479 2.282 1_655 S
N495 C498 1.332 . S
N495 C500 1.332 . S
C496 C497 1.386 . S
C496 C499 1.388 . S
C497 C496 1.386 . S
C497 C498 1.382 . S
C497 H523 0.950 . S
C498 N495 1.332 . S
C498 C497 1.382 . S
C498 H509 0.952 . S
C499 C496 1.388 . S
C499 C500 1.382 . S
C499 H524 0.950 . S
C500 N495 1.332 . S
C500 C499 1.382 . S
C500 H510 0.948 . S
N501 Co479 2.282 . S
N501 C505 1.332 . S
N501 C506 1.332 . S
C502 C503 1.388 . S
C502 C506 1.382 . S
C502 H525 0.950 . S
C503 C502 1.388 . S
C503 C504 1.386 . S
C504 C503 1.386 . S
C504 C505 1.382 . S
C504 H526 0.950 . S
C505 N501 1.332 . S
C505 C504 1.382 . S
C505 H507 0.952 . S
C506 N501 1.332 . S
C506 C502 1.382 . S
C506 H508 0.948 . S
H507 C505 0.952 . S
H508 C506 0.948 . S
H509 C498 0.952 . S
H510 C500 0.948 . S
C511 C477 1.395 . S
C511 C481 1.391 1_455 S
C512 C474 1.389 . S
C512 C494 1.392 . S
C513 C484 1.392 . S
C513 C486 1.389 . S
C514 C489 1.395 . S
C514 C491 1.391 1_655 S
H515 C475 0.951 . S
H516 C476 0.950 . S
H517 C482 0.949 . S
H518 C483 0.950 . S
H519 C487 0.951 . S
H520 C488 0.950 . S
H521 C492 0.949 . S
H522 C493 0.950 . S
H523 C497 0.950 . S
H524 C499 0.950 . S
H525 C502 0.950 . S
H526 C504 0.950 . S
C527 C528 1.443 . S
C527 N531 1.376 . S
C527 C565 1.389 . S
C528 C527 1.443 . S
C528 C529 1.340 . S
C528 H568 0.951 . S
C529 C528 1.340 . S
C529 C530 1.439 . S
C529 H569 0.950 . S
C530 C529 1.439 . S
C530 N531 1.374 . S
C530 C564 1.408 . S
N531 C527 1.376 . S
N531 C530 1.374 . S
N531 Co532 2.008 1_565 S
Co532 N531 2.008 1_545 S
Co532 N533 1.995 . S
Co532 N538 2.008 . S
Co532 N543 1.995 1_545 S
Co532 N548 2.282 . S
Co532 N554 2.282 1_545 S
N533 Co532 1.995 . S
N533 C534 1.376 . S
N533 C537 1.383 . S
C534 N533 1.376 . S
C534 C535 1.446 . S
C534 C564 1.377 1_545 S
C535 C534 1.446 . S
C535 C536 1.339 . S
C535 H570 0.949 . S
C536 C535 1.339 . S
C536 C537 1.439 . S
C536 H571 0.950 . S
C537 N533 1.383 . S
C537 C536 1.439 . S
C537 C566 1.392 . S
N538 Co532 2.008 . S
N538 C539 1.376 . S
N538 C542 1.374 . S
C539 N538 1.376 . S
C539 C540 1.443 . S
C539 C566 1.389 . S
C540 C539 1.443 . S
C540 C541 1.340 . S
C540 H572 0.951 . S
C541 C540 1.340 . S
C541 C542 1.439 . S
C541 H573 0.950 . S
C542 N538 1.374 . S
C542 C541 1.439 . S
C542 C567 1.395 . S
N543 Co532 1.995 1_565 S
N543 C544 1.376 . S
N543 C547 1.383 . S
C544 N543 1.376 . S
C544 C545 1.446 . S
C544 C567 1.391 1_565 S
C545 C544 1.446 . S
C545 C546 1.339 . S
C545 H574 0.949 . S
C546 C545 1.339 . S
C546 C547 1.439 . S
C546 H575 0.950 . S
C547 N543 1.383 . S
C547 C546 1.439 . S
C547 C565 1.392 . S
N548 Co532 2.282 . S
N548 C551 1.332 . S
N548 C553 1.332 . S
C549 C550 1.386 . S
C549 C552 1.388 . S
C550 C549 1.386 . S
C550 C551 1.382 . S
C550 H576 0.950 . S
C551 N548 1.332 . S
C551 C550 1.382 . S
C551 H562 0.952 . S
C552 C549 1.388 . S
C552 C553 1.382 . S
C552 H577 0.950 . S
C553 N548 1.332 . S
C553 C552 1.382 . S
C553 H563 0.948 . S
N554 Co532 2.282 1_565 S
N554 C558 1.332 . S
N554 C559 1.332 . S
C555 C556 1.388 . S
C555 C559 1.382 . S
C555 H578 0.950 . S
C556 C555 1.388 . S
C556 C557 1.386 . S
C557 C556 1.386 . S
C557 C558 1.382 . S
C557 H579 0.950 . S
C558 N554 1.332 . S
C558 C557 1.382 . S
C558 H560 0.952 . S
C559 N554 1.332 . S
C559 C555 1.382 . S
C559 H561 0.948 . S
H560 C558 0.952 . S
H561 C559 0.948 . S
H562 C551 0.952 . S
H563 C553 0.948 . S
C564 C530 1.408 . S
C564 C534 1.377 1_565 S
C565 C527 1.389 . S
C565 C547 1.392 . S
C566 C537 1.392 . S
C566 C539 1.389 . S
C567 C542 1.395 . S
C567 C544 1.391 1_545 S
H568 C528 0.951 . S
H569 C529 0.950 . S
H570 C535 0.949 . S
H571 C536 0.950 . S
H572 C540 0.951 . S
H573 C541 0.950 . S
H574 C545 0.949 . S
H575 C546 0.950 . S
H576 C550 0.950 . S
H577 C552 0.950 . S
H578 C555 0.950 . S
H579 C557 0.950 . S
C580 C581 1.443 . S
C580 N584 1.376 . S
C580 C618 1.389 . S
C581 C580 1.443 . S
C581 C582 1.340 . S
C581 H621 0.951 . S
C582 C581 1.340 . S
C582 C583 1.439 . S
C582 H622 0.950 . S
C583 C582 1.439 . S
C583 N584 1.374 . S
C583 C617 1.395 1_554 S
N584 C580 1.376 . S
N584 C583 1.374 . S
N584 Co585 2.013 . S
Co585 N584 2.013 . S
Co585 N586 1.988 1_554 S
Co585 N591 2.003 1_554 S
Co585 N596 2.001 . S
Co585 N601 2.292 . S
Co585 N607 2.273 1_554 S
N586 Co585 1.988 1_556 S
N586 C587 1.376 . S
N586 C590 1.383 . S
C587 N586 1.376 . S
C587 C588 1.446 . S
C587 C617 1.391 . S
C588 C587 1.446 . S
C588 C589 1.339 . S
C588 H623 0.949 . S
C589 C588 1.339 . S
C589 C590 1.439 . S
C589 H624 0.950 . S
C590 N586 1.383 . S
C590 C589 1.439 . S
C590 C619 1.392 . S
N591 Co585 2.003 1_556 S
N591 C592 1.376 . S
N591 C595 1.374 . S
C592 N591 1.376 . S
C592 C593 1.443 . S
C592 C619 1.389 . S
C593 C592 1.443 . S
C593 C594 1.340 . S
C593 H625 0.951 . S
C594 C593 1.340 . S
C594 C595 1.439 . S
C594 H626 0.950 . S
C595 N591 1.374 . S
C595 C594 1.439 . S
C595 C620 1.395 1_556 S
N596 Co585 2.001 . S
N596 C597 1.376 . S
N596 C600 1.383 . S
C597 N596 1.376 . S
C597 C598 1.446 . S
C597 C620 1.391 . S
C598 C597 1.446 . S
C598 C599 1.339 . S
C598 H627 0.949 . S
C599 C598 1.339 . S
C599 C600 1.439 . S
C599 H628 0.950 . S
C600 N596 1.383 . S
C600 C599 1.439 . S
C600 C618 1.392 . S
N601 Co585 2.292 . S
N601 C604 1.332 . S
N601 C606 1.332 . S
C602 C603 1.386 . S
C602 C605 1.388 . S
C603 C602 1.386 . S
C603 C604 1.382 . S
C603 H629 0.950 . S
C604 N601 1.332 . S
C604 C603 1.382 . S
C604 H615 0.952 . S
C605 C602 1.388 . S
C605 C606 1.382 . S
C605 H630 0.950 . S
C606 N601 1.332 . S
C606 C605 1.382 . S
C606 H616 0.948 . S
N607 Co585 2.273 1_556 S
N607 C611 1.332 . S
N607 C612 1.332 . S
C608 C609 1.388 . S
C608 C612 1.382 . S
C608 H631 0.950 . S
C609 C608 1.388 . S
C609 C610 1.386 . S
C610 C609 1.386 . S
C610 C611 1.382 . S
C610 H632 0.950 . S
C611 N607 1.332 . S
C611 C610 1.382 . S
C611 H613 0.952 . S
C612 N607 1.332 . S
C612 C608 1.382 . S
C612 H614 0.948 . S
H613 C611 0.952 . S
H614 C612 0.948 . S
H615 C604 0.952 . S
H616 C606 0.948 . S
C617 C583 1.395 1_556 S
C617 C587 1.391 . S
C618 C580 1.389 . S
C618 C600 1.392 . S
C619 C590 1.392 . S
C619 C592 1.389 . S
C620 C595 1.395 1_554 S
C620 C597 1.391 . S
H621 C581 0.951 . S
H622 C582 0.950 . S
H623 C588 0.949 . S
H624 C589 0.950 . S
H625 C593 0.951 . S
H626 C594 0.950 . S
H627 C598 0.949 . S
H628 C599 0.950 . S
H629 C603 0.950 . S
H630 C605 0.950 . S
H631 C608 0.950 . S
H632 C610 0.950 . S
C633 C634 1.443 . S
C633 N637 1.376 . S
C633 C671 1.389 . S
C634 C633 1.443 . S
C634 C635 1.340 . S
C634 H674 0.951 . S
C635 C634 1.340 . S
C635 C636 1.439 . S
C635 H675 0.950 . S
C636 C635 1.439 . S
C636 N637 1.374 . S
C636 C670 1.395 . S
N637 C633 1.376 . S
N637 C636 1.374 . S
N637 Co638 2.008 . S
Co638 N637 2.008 . S
Co638 N639 1.995 1_554 S
Co638 N644 2.008 1_554 S
Co638 N649 1.995 . S
Co638 N654 2.282 . S
Co638 N660 2.282 1_554 S
N639 Co638 1.995 1_556 S
N639 C640 1.376 . S
N639 C643 1.383 . S
C640 N639 1.376 . S
C640 C641 1.446 . S
C640 C670 1.391 1_556 S
C641 C640 1.446 . S
C641 C642 1.339 . S
C641 H676 0.949 . S
C642 C641 1.339 . S
C642 C643 1.439 . S
C642 H677 0.950 . S
C643 N639 1.383 . S
C643 C642 1.439 . S
C643 C672 1.392 . S
N644 Co638 2.008 1_556 S
N644 C645 1.376 . S
N644 C648 1.374 1_556 S
C645 N644 1.376 . S
C645 C646 1.443 . S
C645 C672 1.389 . S
C646 C645 1.443 . S
C646 C647 1.340 . S
C646 H678 0.951 . S
C647 C646 1.340 . S
C647 C648 1.439 1_556 S
C647 H679 0.950 . S
C648 N644 1.374 1_554 S
C648 C647 1.439 1_554 S
C648 C673 1.395 . S
N649 Co638 1.995 . S
N649 C650 1.376 . S
N649 C653 1.383 . S
C650 N649 1.376 . S
C650 C651 1.446 . S
C650 C673 1.391 . S
C651 C650 1.446 . S
C651 C652 1.339 . S
C651 H680 0.949 . S
C652 C651 1.339 . S
C652 C653 1.439 . S
C652 H681 0.950 . S
C653 N649 1.383 . S
C653 C652 1.439 . S
C653 C671 1.392 . S
N654 Co638 2.282 . S
N654 C657 1.332 . S
N654 C659 1.332 . S
C655 C656 1.386 . S
C655 C658 1.388 . S
C656 C655 1.386 . S
C656 C657 1.382 . S
C656 H682 0.950 . S
C657 N654 1.332 . S
C657 C656 1.382 . S
C657 H668 0.952 . S
C658 C655 1.388 . S
C658 C659 1.382 . S
C658 H683 0.950 . S
C659 N654 1.332 . S
C659 C658 1.382 . S
C659 H669 0.948 . S
N660 Co638 2.282 1_556 S
N660 C664 1.332 . S
N660 C665 1.332 . S
C661 C662 1.388 . S
C661 C665 1.382 . S
C661 H684 0.950 . S
C662 C661 1.388 . S
C662 C663 1.386 . S
C663 C662 1.386 . S
C663 C664 1.382 . S
C663 H685 0.950 . S
C664 N660 1.332 . S
C664 C663 1.382 . S
C664 H666 0.952 . S
C665 N660 1.332 . S
C665 C661 1.382 . S
C665 H667 0.948 . S
H666 C664 0.952 . S
H667 C665 0.948 . S
H668 C657 0.952 . S
H669 C659 0.948 . S
C670 C636 1.395 . S
C670 C640 1.391 1_554 S
C671 C633 1.389 . S
C671 C653 1.392 . S
C672 C643 1.392 . S
C672 C645 1.389 . S
C673 C648 1.395 . S
C673 C650 1.391 . S
H674 C634 0.951 . S
H675 C635 0.950 . S
H676 C641 0.949 . S
H677 C642 0.950 . S
H678 C646 0.951 . S
H679 C647 0.950 . S
H680 C651 0.949 . S
H681 C652 0.950 . S
H682 C656 0.950 . S
H683 C658 0.950 . S
H684 C661 0.950 . S
H685 C663 0.950 . S
C686 C687 1.443 . S
C686 N690 1.376 1_556 S
C686 C724 1.389 . S
C687 C686 1.443 . S
C687 C688 1.340 . S
C687 H727 0.951 . S
C688 C687 1.340 . S
C688 C689 1.439 1_556 S
C688 H728 0.950 1_556 S
C689 C688 1.439 1_554 S
C689 N690 1.374 . S
C689 C723 1.395 . S
N690 C686 1.376 1_554 S
N690 C689 1.374 . S
N690 Co691 2.008 . S
Co691 N690 2.008 . S
Co691 N692 1.995 . S
Co691 N697 2.008 . S
Co691 N702 1.995 1_554 S
Co691 N707 2.282 1_554 S
Co691 N713 2.282 . S
N692 Co691 1.995 . S
N692 C693 1.376 . S
N692 C696 1.383 . S
C693 N692 1.376 . S
C693 C694 1.446 . S
C693 C723 1.391 . S
C694 C693 1.446 . S
C694 C695 1.339 . S
C694 H729 0.949 . S
C695 C694 1.339 . S
C695 C696 1.439 . S
C695 H730 0.950 . S
C696 N692 1.383 . S
C696 C695 1.439 . S
C696 C725 1.392 . S
N697 Co691 2.008 . S
N697 C698 1.376 . S
N697 C701 1.374 . S
C698 N697 1.376 . S
C698 C699 1.443 . S
C698 C725 1.389 . S
C699 C698 1.443 . S
C699 C700 1.340 . S
C699 H731 0.951 . S
C700 C699 1.340 . S
C700 C701 1.439 . S
C700 H732 0.950 . S
C701 N697 1.374 . S
C701 C700 1.439 . S
C701 C726 1.395 . S
N702 Co691 1.995 1_556 S
N702 C703 1.376 . S
N702 C706 1.383 . S
C703 N702 1.376 . S
C703 C704 1.446 . S
C703 C726 1.391 1_556 S
C704 C703 1.446 . S
C704 C705 1.339 . S
C704 H733 0.949 . S
C705 C704 1.339 . S
C705 C706 1.439 . S
C705 H734 0.950 . S
C706 N702 1.383 . S
C706 C705 1.439 . S
C706 C724 1.392 . S
N707 Co691 2.282 1_556 S
N707 C710 1.332 . S
N707 C712 1.332 . S
C708 C709 1.386 . S
C708 C711 1.388 . S
C709 C708 1.386 . S
C709 C710 1.382 . S
C709 H735 0.950 . S
C710 N707 1.332 . S
C710 C709 1.382 . S
C710 H721 0.952 . S
C711 C708 1.388 . S
C711 C712 1.382 . S
C711 H736 0.950 . S
C712 N707 1.332 . S
C712 C711 1.382 . S
C712 H722 0.950 1_556 S
N713 Co691 2.282 . S
N713 C717 1.332 . S
N713 C718 1.332 . S
C714 C715 1.388 . S
C714 C718 1.382 . S
C714 H737 0.950 . S
C715 C714 1.388 . S
C715 C716 1.386 . S
C716 C715 1.386 . S
C716 C717 1.382 . S
C716 H738 0.950 . S
C717 N713 1.332 . S
C717 C716 1.382 . S
C717 H719 0.952 . S
C718 N713 1.332 . S
C718 C714 1.382 . S
C718 H720 0.948 . S
H719 C717 0.952 . S
H720 C718 0.948 . S
H721 C710 0.952 . S
H722 C712 0.950 1_554 S
C723 C689 1.395 . S
C723 C693 1.391 . S
C724 C686 1.389 . S
C724 C706 1.392 . S
C725 C696 1.392 . S
C725 C698 1.389 . S
C726 C701 1.395 . S
C726 C703 1.391 1_554 S
H727 C687 0.951 . S
H728 C688 0.950 1_554 S
H729 C694 0.949 . S
H730 C695 0.950 . S
H731 C699 0.951 . S
H732 C700 0.950 . S
H733 C704 0.949 . S
H734 C705 0.950 . S
H735 C709 0.950 . S
H736 C711 0.950 . S
H737 C714 0.950 . S
H738 C716 0.950 . S
C739 C740 1.443 . S
C739 N743 1.376 . S
C739 C777 1.389 . S
C740 C739 1.443 . S
C740 C741 1.340 . S
C740 H780 0.951 . S
C741 C740 1.340 . S
C741 C742 1.439 . S
C741 H781 0.950 . S
C742 C741 1.439 . S
C742 N743 1.374 . S
C742 C776 1.395 1_554 S
N743 C739 1.376 . S
N743 C742 1.374 . S
N743 Co744 2.008 . S
Co744 N743 2.008 . S
Co744 N745 1.995 1_554 S
Co744 N750 2.008 1_554 S
Co744 N755 1.995 . S
Co744 N760 2.282 . S
Co744 N766 2.282 1_554 S
N745 Co744 1.995 1_556 S
N745 C746 1.376 . S
N745 C749 1.383 . S
C746 N745 1.376 . S
C746 C747 1.446 . S
C746 C776 1.391 . S
C747 C746 1.446 . S
C747 C748 1.339 . S
C747 H782 0.949 . S
C748 C747 1.339 . S
C748 C749 1.439 . S
C748 H783 0.950 . S
C749 N745 1.383 . S
C749 C748 1.439 . S
C749 C778 1.392 . S
N750 Co744 2.008 1_556 S
N750 C751 1.376 . S
N750 C754 1.374 1_556 S
C751 N750 1.376 . S
C751 C752 1.443 . S
C751 C778 1.389 . S
C752 C751 1.443 . S
C752 C753 1.340 . S
C752 H784 0.951 . S
C753 C752 1.340 . S
C753 C754 1.439 1_556 S
C753 H785 0.950 . S
C754 N750 1.374 1_554 S
C754 C753 1.439 1_554 S
C754 C779 1.395 . S
N755 Co744 1.995 . S
N755 C756 1.376 . S
N755 C759 1.383 . S
C756 N755 1.376 . S
C756 C757 1.446 . S
C756 C779 1.391 . S
C757 C756 1.446 . S
C757 C758 1.339 . S
C757 H786 0.949 . S
C758 C757 1.339 . S
C758 C759 1.439 . S
C758 H787 0.950 . S
C759 N755 1.383 . S
C759 C758 1.439 . S
C759 C777 1.392 . S
N760 Co744 2.282 . S
N760 C763 1.332 . S
N760 C765 1.332 . S
C761 C762 1.386 . S
C761 C764 1.388 . S
C762 C761 1.386 . S
C762 C763 1.382 . S
C762 H788 0.950 . S
C763 N760 1.332 . S
C763 C762 1.382 . S
C763 H774 0.952 . S
C764 C761 1.388 . S
C764 C765 1.382 . S
C764 H789 0.950 . S
C765 N760 1.332 . S
C765 C764 1.382 . S
C765 H775 0.948 . S
N766 Co744 2.282 1_556 S
N766 C770 1.332 . S
N766 C771 1.332 . S
C767 C768 1.388 . S
C767 C771 1.382 . S
C767 H790 0.950 . S
C768 C767 1.388 . S
C768 C769 1.386 . S
C769 C768 1.386 . S
C769 C770 1.382 . S
C769 H791 0.950 . S
C770 N766 1.332 . S
C770 C769 1.382 . S
C770 H772 0.952 . S
C771 N766 1.332 . S
C771 C767 1.382 . S
C771 H773 0.948 . S
H772 C770 0.952 . S
H773 C771 0.948 . S
H774 C763 0.952 . S
H775 C765 0.948 . S
C776 C742 1.395 1_556 S
C776 C746 1.391 . S
C777 C739 1.389 . S
C777 C759 1.392 . S
C778 C749 1.392 . S
C778 C751 1.389 . S
C779 C754 1.395 . S
C779 C756 1.391 . S
H780 C740 0.951 . S
H781 C741 0.950 . S
H782 C747 0.949 . S
H783 C748 0.950 . S
H784 C752 0.951 . S
H785 C753 0.950 . S
H786 C757 0.949 . S
H787 C758 0.950 . S
H788 C762 0.950 . S
H789 C764 0.950 . S
H790 C767 0.950 . S
H791 C769 0.950 . S
H792 C804 0.930 . S
H793 C806 0.930 . S
H794 C807 0.930 . S
H795 C811 0.959 . S
H796 C811 0.959 . S
H797 C811 0.961 . S
H798 C812 0.960 . S
H799 C812 0.961 . S
H800 C812 0.959 . S
H801 C815 0.929 . S
H802 C816 0.931 . S
H803 C818 0.930 . S
C804 H792 0.930 . S
C804 C805 1.399 . S
C804 C809 1.399 . S
C805 C804 1.399 . S
C805 C806 1.376 . S
C806 H793 0.930 . S
C806 C805 1.376 . S
C806 C807 1.388 . S
C807 H794 0.930 . S
C807 C806 1.388 . S
C807 C808 1.390 . S
C808 C807 1.390 . S
C808 C809 1.394 . S
C808 C814 1.465 . S
C809 C804 1.399 . S
C809 C808 1.394 . S
C809 C810 1.516 . S
C810 C809 1.516 . S
C810 C811 1.502 . S
C810 C812 1.561 . S
C810 C813 1.526 . S
C811 H795 0.959 . S
C811 H796 0.959 . S
C811 H797 0.961 . S
C811 C810 1.502 . S
C812 H798 0.960 . S
C812 H799 0.961 . S
C812 H800 0.959 . S
C812 C810 1.561 . S
C813 C810 1.526 . S
C813 C814 1.396 . S
C813 C818 1.390 . S
C814 C808 1.465 . S
C814 C813 1.396 . S
C814 C815 1.399 . S
C815 H801 0.929 . S
C815 C814 1.399 . S
C815 C816 1.385 . S
C816 H802 0.931 . S
C816 C815 1.385 . S
C816 C817 1.389 . S
C817 C816 1.389 . S
C817 C818 1.387 . S
C818 H803 0.930 . S
C818 C813 1.390 . S
C818 C817 1.387 . S
H819 C831 0.930 . S
H820 C833 0.930 . S
H821 C834 0.930 . S
H822 C838 0.959 . S
H823 C838 0.959 . S
H824 C838 0.961 . S
H825 C839 0.960 . S
H826 C839 0.961 . S
H827 C839 0.959 . S
H828 C842 0.929 . S
H829 C843 0.931 . S
H830 C845 0.930 . S
C831 H819 0.930 . S
C831 C832 1.399 . S
C831 C836 1.399 . S
C832 C831 1.399 . S
C832 C833 1.376 . S
C833 H820 0.930 . S
C833 C832 1.376 . S
C833 C834 1.388 . S
C834 H821 0.930 . S
C834 C833 1.388 . S
C834 C835 1.390 . S
C835 C834 1.390 . S
C835 C836 1.394 . S
C835 C841 1.465 . S
C836 C831 1.399 . S
C836 C835 1.394 . S
C836 C837 1.516 . S
C837 C836 1.516 . S
C837 C838 1.502 . S
C837 C839 1.561 . S
C837 C840 1.526 . S
C838 H822 0.959 . S
C838 H823 0.959 . S
C838 H824 0.961 . S
C838 C837 1.502 . S
C839 H825 0.960 . S
C839 H826 0.961 . S
C839 H827 0.959 . S
C839 C837 1.561 . S
C840 C837 1.526 . S
C840 C841 1.396 . S
C840 C845 1.390 . S
C841 C835 1.465 . S
C841 C840 1.396 . S
C841 C842 1.399 . S
C842 H828 0.929 . S
C842 C841 1.399 . S
C842 C843 1.385 . S
C843 H829 0.931 . S
C843 C842 1.385 . S
C843 C844 1.389 . S
C844 C843 1.389 . S
C844 C845 1.387 . S
C845 H830 0.930 . S
C845 C840 1.390 . S
C845 C844 1.387 . S
H846 C858 0.930 . S
H847 C860 0.930 . S
H848 C861 0.930 . S
H849 C865 0.959 . S
H850 C865 0.959 . S
H851 C865 0.961 . S
H852 C866 0.960 . S
H853 C866 0.961 . S
H854 C866 0.959 . S
H855 C869 0.929 . S
H856 C870 0.931 . S
H857 C872 0.930 . S
C858 H846 0.930 . S
C858 C859 1.399 . S
C858 C863 1.399 . S
C859 C858 1.399 . S
C859 C860 1.376 . S
C860 H847 0.930 . S
C860 C859 1.376 . S
C860 C861 1.388 . S
C861 H848 0.930 . S
C861 C860 1.388 . S
C861 C862 1.390 . S
C862 C861 1.390 . S
C862 C863 1.394 . S
C862 C868 1.465 . S
C863 C858 1.399 . S
C863 C862 1.394 . S
C863 C864 1.516 . S
C864 C863 1.516 . S
C864 C865 1.502 . S
C864 C866 1.561 . S
C864 C867 1.526 . S
C865 H849 0.959 . S
C865 H850 0.959 . S
C865 H851 0.961 . S
C865 C864 1.502 . S
C866 H852 0.960 . S
C866 H853 0.961 . S
C866 H854 0.959 . S
C866 C864 1.561 . S
C867 C864 1.526 . S
C867 C868 1.396 . S
C867 C872 1.390 . S
C868 C862 1.465 . S
C868 C867 1.396 . S
C868 C869 1.399 . S
C869 H855 0.929 . S
C869 C868 1.399 . S
C869 C870 1.385 . S
C870 H856 0.931 . S
C870 C869 1.385 . S
C870 C871 1.389 . S
C871 C870 1.389 . S
C871 C872 1.387 . S
C872 H857 0.930 . S
C872 C867 1.390 . S
C872 C871 1.387 . S
H873 C885 0.930 . S
H874 C887 0.930 . S
H875 C888 0.930 . S
H876 C892 0.959 . S
H877 C892 0.959 . S
H878 C892 0.961 . S
H879 C893 0.960 . S
H880 C893 0.961 . S
H881 C893 0.959 . S
H882 C896 0.929 . S
H883 C897 0.931 . S
H884 C899 0.930 . S
C885 H873 0.930 . S
C885 C886 1.399 . S
C885 C890 1.399 . S
C886 C885 1.399 . S
C886 C887 1.376 . S
C887 H874 0.930 . S
C887 C886 1.376 . S
C887 C888 1.388 . S
C888 H875 0.930 . S
C888 C887 1.388 . S
C888 C889 1.390 . S
C889 C888 1.390 . S
C889 C890 1.394 . S
C889 C895 1.465 . S
C890 C885 1.399 . S
C890 C889 1.394 . S
C890 C891 1.516 . S
C891 C890 1.516 . S
C891 C892 1.502 . S
C891 C893 1.561 . S
C891 C894 1.526 . S
C892 H876 0.959 . S
C892 H877 0.959 . S
C892 H878 0.961 . S
C892 C891 1.502 . S
C893 H879 0.960 . S
C893 H880 0.961 . S
C893 H881 0.959 . S
C893 C891 1.561 . S
C894 C891 1.526 . S
C894 C895 1.396 . S
C894 C899 1.390 . S
C895 C889 1.465 . S
C895 C894 1.396 . S
C895 C896 1.399 . S
C896 H882 0.929 . S
C896 C895 1.399 . S
C896 C897 1.385 . S
C897 H883 0.931 . S
C897 C896 1.385 . S
C897 C898 1.389 . S
C898 C897 1.389 . S
C898 C899 1.387 . S
C899 H884 0.930 . S
C899 C894 1.390 . S
C899 C898 1.387 . S
H900 C912 0.930 . S
H901 C914 0.930 . S
H902 C915 0.930 . S
H903 C919 0.959 . S
H904 C919 0.959 . S
H905 C919 0.961 . S
H906 C920 0.960 . S
H907 C920 0.961 . S
H908 C920 0.959 . S
H909 C923 0.929 . S
H910 C924 0.931 . S
H911 C926 0.930 . S
C912 H900 0.930 . S
C912 C913 1.399 . S
C912 C917 1.399 . S
C913 C912 1.399 . S
C913 C914 1.376 . S
C914 H901 0.930 . S
C914 C913 1.376 . S
C914 C915 1.388 . S
C915 H902 0.930 . S
C915 C914 1.388 . S
C915 C916 1.390 . S
C916 C915 1.390 . S
C916 C917 1.394 . S
C916 C922 1.465 . S
C917 C912 1.399 . S
C917 C916 1.394 . S
C917 C918 1.516 . S
C918 C917 1.516 . S
C918 C919 1.502 . S
C918 C920 1.561 . S
C918 C921 1.526 . S
C919 H903 0.959 . S
C919 H904 0.959 . S
C919 H905 0.961 . S
C919 C918 1.502 . S
C920 H906 0.960 . S
C920 H907 0.961 . S
C920 H908 0.959 . S
C920 C918 1.561 . S
C921 C918 1.526 . S
C921 C922 1.396 . S
C921 C926 1.390 . S
C922 C916 1.465 . S
C922 C921 1.396 . S
C922 C923 1.399 . S
C923 H909 0.929 . S
C923 C922 1.399 . S
C923 C924 1.385 . S
C924 H910 0.931 . S
C924 C923 1.385 . S
C924 C925 1.389 . S
C925 C924 1.389 . S
C925 C926 1.387 . S
C926 H911 0.930 . S
C926 C921 1.390 . S
C926 C925 1.387 . S
H927 C939 0.930 . S
H928 C941 0.930 . S
H929 C942 0.930 . S
H930 C946 0.959 . S
H931 C946 0.959 . S
H932 C946 0.961 . S
H933 C947 0.960 . S
H934 C947 0.961 . S
H935 C947 0.959 . S
H936 C950 0.929 . S
H937 C951 0.931 . S
H938 C953 0.930 . S
C939 H927 0.930 . S
C939 C940 1.399 . S
C939 C944 1.399 . S
C940 C939 1.399 . S
C940 C941 1.376 . S
C941 H928 0.930 . S
C941 C940 1.376 . S
C941 C942 1.388 . S
C942 H929 0.930 . S
C942 C941 1.388 . S
C942 C943 1.390 . S
C943 C942 1.390 . S
C943 C944 1.394 . S
C943 C949 1.465 . S
C944 C939 1.399 . S
C944 C943 1.394 . S
C944 C945 1.516 . S
C945 C944 1.516 . S
C945 C946 1.502 . S
C945 C947 1.561 . S
C945 C948 1.526 . S
C946 H930 0.959 . S
C946 H931 0.959 . S
C946 H932 0.961 . S
C946 C945 1.502 . S
C947 H933 0.960 . S
C947 H934 0.961 . S
C947 H935 0.959 . S
C947 C945 1.561 . S
C948 C945 1.526 . S
C948 C949 1.396 . S
C948 C953 1.390 . S
C949 C943 1.465 . S
C949 C948 1.396 . S
C949 C950 1.399 . S
C950 H936 0.929 . S
C950 C949 1.399 . S
C950 C951 1.385 . S
C951 H937 0.931 . S
C951 C950 1.385 . S
C951 C952 1.389 . S
C952 C951 1.389 . S
C952 C953 1.387 . S
C953 H938 0.930 . S
C953 C948 1.390 . S
C953 C952 1.387 . S
H954 C966 0.930 . S
H955 C968 0.930 . S
H956 C969 0.930 . S
H957 C973 0.959 . S
H958 C973 0.959 . S
H959 C973 0.961 . S
H960 C974 0.960 . S
H961 C974 0.961 . S
H962 C974 0.959 . S
H963 C977 0.929 . S
H964 C978 0.931 . S
H965 C980 0.930 . S
C966 H954 0.930 . S
C966 C967 1.399 . S
C966 C971 1.399 . S
C967 C966 1.399 . S
C967 C968 1.376 . S
C968 H955 0.930 . S
C968 C967 1.376 . S
C968 C969 1.388 . S
C969 H956 0.930 . S
C969 C968 1.388 . S
C969 C970 1.390 . S
C970 C969 1.390 . S
C970 C971 1.394 . S
C970 C976 1.465 . S
C971 C966 1.399 . S
C971 C970 1.394 . S
C971 C972 1.516 . S
C972 C971 1.516 . S
C972 C973 1.502 . S
C972 C974 1.561 . S
C972 C975 1.526 . S
C973 H957 0.959 . S
C973 H958 0.959 . S
C973 H959 0.961 . S
C973 C972 1.502 . S
C974 H960 0.960 . S
C974 H961 0.961 . S
C974 H962 0.959 . S
C974 C972 1.561 . S
C975 C972 1.526 . S
C975 C976 1.396 . S
C975 C980 1.390 . S
C976 C970 1.465 . S
C976 C975 1.396 . S
C976 C977 1.399 . S
C977 H963 0.929 . S
C977 C976 1.399 . S
C977 C978 1.385 . S
C978 H964 0.931 . S
C978 C977 1.385 . S
C978 C979 1.389 . S
C979 C978 1.389 . S
C979 C980 1.387 . S
C980 H965 0.930 . S
C980 C975 1.390 . S
C980 C979 1.387 . S
H981 C993 0.930 . S
H982 C995 0.930 . S
H983 C996 0.930 . S
H984 C1000 0.959 . S
H985 C1000 0.959 . S
H986 C1000 0.961 . S
H987 C1001 0.960 . S
H988 C1001 0.961 . S
H989 C1001 0.959 . S
H990 C1004 0.929 . S
H991 C1005 0.931 . S
H992 C1007 0.930 . S
C993 H981 0.930 . S
C993 C994 1.399 . S
C993 C998 1.399 . S
C994 C993 1.399 . S
C994 C995 1.376 . S
C995 H982 0.930 . S
C995 C994 1.376 . S
C995 C996 1.388 . S
C996 H983 0.930 . S
C996 C995 1.388 . S
C996 C997 1.390 . S
C997 C996 1.390 . S
C997 C998 1.394 . S
C997 C1003 1.465 . S
C998 C993 1.399 . S
C998 C997 1.394 . S
C998 C999 1.516 . S
C999 C998 1.516 . S
C999 C1000 1.502 . S
C999 C1001 1.561 . S
C999 C1002 1.526 . S
C1000 H984 0.959 . S
C1000 H985 0.959 . S
C1000 H986 0.961 . S
C1000 C999 1.502 . S
C1001 H987 0.960 . S
C1001 H988 0.961 . S
C1001 H989 0.959 . S
C1001 C999 1.561 . S
C1002 C999 1.526 . S
C1002 C1003 1.396 . S
C1002 C1007 1.390 . S
C1003 C997 1.465 . S
C1003 C1002 1.396 . S
C1003 C1004 1.399 . S
C1004 H990 0.929 . S
C1004 C1003 1.399 . S
C1004 C1005 1.385 . S
C1005 H991 0.931 . S
C1005 C1004 1.385 . S
C1005 C1006 1.389 . S
C1006 C1005 1.389 . S
C1006 C1007 1.387 . S
C1007 H992 0.930 . S
C1007 C1002 1.390 . S
C1007 C1006 1.387 . S
H1008 C1020 0.930 . S
H1009 C1022 0.930 . S
H1010 C1023 0.930 . S
H1011 C1027 0.959 . S
H1012 C1027 0.959 . S
H1013 C1027 0.961 . S
H1014 C1028 0.960 . S
H1015 C1028 0.961 . S
H1016 C1028 0.959 . S
H1017 C1031 0.929 . S
H1018 C1032 0.931 . S
H1019 C1034 0.930 . S
C1020 H1008 0.930 . S
C1020 C1021 1.399 . S
C1020 C1025 1.399 . S
C1021 C1020 1.399 . S
C1021 C1022 1.376 . S
C1022 H1009 0.930 . S
C1022 C1021 1.376 . S
C1022 C1023 1.388 . S
C1023 H1010 0.930 . S
C1023 C1022 1.388 . S
C1023 C1024 1.390 . S
C1024 C1023 1.390 . S
C1024 C1025 1.394 . S
C1024 C1030 1.465 . S
C1025 C1020 1.399 . S
C1025 C1024 1.394 . S
C1025 C1026 1.516 . S
C1026 C1025 1.516 . S
C1026 C1027 1.502 . S
C1026 C1028 1.561 . S
C1026 C1029 1.526 . S
C1027 H1011 0.959 . S
C1027 H1012 0.959 . S
C1027 H1013 0.961 . S
C1027 C1026 1.502 . S
C1028 H1014 0.960 . S
C1028 H1015 0.961 . S
C1028 H1016 0.959 . S
C1028 C1026 1.561 . S
C1029 C1026 1.526 . S
C1029 C1030 1.396 . S
C1029 C1034 1.390 . S
C1030 C1024 1.465 . S
C1030 C1029 1.396 . S
C1030 C1031 1.399 . S
C1031 H1017 0.929 . S
C1031 C1030 1.399 . S
C1031 C1032 1.385 . S
C1032 H1018 0.931 . S
C1032 C1031 1.385 . S
C1032 C1033 1.389 . S
C1033 C1032 1.389 . S
C1033 C1034 1.387 . S
C1034 H1019 0.930 . S
C1034 C1029 1.390 . S
C1034 C1033 1.387 . S
H1035 C1047 0.930 . S
H1036 C1049 0.930 . S
H1037 C1050 0.930 . S
H1038 C1054 0.959 . S
H1039 C1054 0.959 . S
H1040 C1054 0.961 . S
H1041 C1055 0.960 . S
H1042 C1055 0.961 . S
H1043 C1055 0.959 . S
H1044 C1058 0.929 . S
H1045 C1059 0.931 . S
H1046 C1061 0.930 . S
C1047 H1035 0.930 . S
C1047 C1048 1.399 . S
C1047 C1052 1.399 . S
C1048 C1047 1.399 . S
C1048 C1049 1.376 . S
C1049 H1036 0.930 . S
C1049 C1048 1.376 . S
C1049 C1050 1.388 . S
C1050 H1037 0.930 . S
C1050 C1049 1.388 . S
C1050 C1051 1.390 . S
C1051 C1050 1.390 . S
C1051 C1052 1.394 . S
C1051 C1057 1.465 . S
C1052 C1047 1.399 . S
C1052 C1051 1.394 . S
C1052 C1053 1.516 . S
C1053 C1052 1.516 . S
C1053 C1054 1.502 . S
C1053 C1055 1.561 . S
C1053 C1056 1.526 . S
C1054 H1038 0.959 . S
C1054 H1039 0.959 . S
C1054 H1040 0.961 . S
C1054 C1053 1.502 . S
C1055 H1041 0.960 . S
C1055 H1042 0.961 . S
C1055 H1043 0.959 . S
C1055 C1053 1.561 . S
C1056 C1053 1.526 . S
C1056 C1057 1.396 . S
C1056 C1061 1.390 . S
C1057 C1051 1.465 . S
C1057 C1056 1.396 . S
C1057 C1058 1.399 . S
C1058 H1044 0.929 . S
C1058 C1057 1.399 . S
C1058 C1059 1.385 . S
C1059 H1045 0.931 . S
C1059 C1058 1.385 . S
C1059 C1060 1.389 . S
C1060 C1059 1.389 . S
C1060 C1061 1.387 . S
C1061 H1046 0.930 . S
C1061 C1056 1.390 . S
C1061 C1060 1.387 . S
H1062 C1074 0.930 . S
H1063 C1076 0.930 . S
H1064 C1077 0.930 . S
H1065 C1081 0.959 . S
H1066 C1081 0.959 . S
H1067 C1081 0.961 . S
H1068 C1082 0.960 . S
H1069 C1082 0.961 . S
H1070 C1082 0.959 . S
H1071 C1085 0.929 . S
H1072 C1086 0.931 . S
H1073 C1088 0.930 . S
C1074 H1062 0.930 . S
C1074 C1075 1.399 . S
C1074 C1079 1.399 . S
C1075 C1074 1.399 . S
C1075 C1076 1.376 . S
C1076 H1063 0.930 . S
C1076 C1075 1.376 . S
C1076 C1077 1.388 . S
C1077 H1064 0.930 . S
C1077 C1076 1.388 . S
C1077 C1078 1.390 . S
C1078 C1077 1.390 . S
C1078 C1079 1.394 . S
C1078 C1084 1.465 . S
C1079 C1074 1.399 . S
C1079 C1078 1.394 . S
C1079 C1080 1.516 . S
C1080 C1079 1.516 . S
C1080 C1081 1.502 . S
C1080 C1082 1.561 . S
C1080 C1083 1.526 . S
C1081 H1065 0.959 . S
C1081 H1066 0.959 . S
C1081 H1067 0.961 . S
C1081 C1080 1.502 . S
C1082 H1068 0.960 . S
C1082 H1069 0.961 . S
C1082 H1070 0.959 . S
C1082 C1080 1.561 . S
C1083 C1080 1.526 . S
C1083 C1084 1.396 . S
C1083 C1088 1.390 . S
C1084 C1078 1.465 . S
C1084 C1083 1.396 . S
C1084 C1085 1.399 . S
C1085 H1071 0.929 . S
C1085 C1084 1.399 . S
C1085 C1086 1.385 . S
C1086 H1072 0.931 . S
C1086 C1085 1.385 . S
C1086 C1087 1.389 . S
C1087 C1086 1.389 . S
C1087 C1088 1.387 . S
C1088 H1073 0.930 . S
C1088 C1083 1.390 . S
C1088 C1087 1.387 . S
H1089 C1101 0.930 . S
H1090 C1103 0.930 . S
H1091 C1104 0.930 . S
H1092 C1108 0.959 . S
H1093 C1108 0.959 . S
H1094 C1108 0.961 . S
H1095 C1109 0.960 . S
H1096 C1109 0.961 . S
H1097 C1109 0.959 . S
H1098 C1112 0.929 . S
H1099 C1113 0.931 . S
H1100 C1115 0.930 . S
C1101 H1089 0.930 . S
C1101 C1102 1.399 . S
C1101 C1106 1.399 . S
C1102 C1101 1.399 . S
C1102 C1103 1.376 . S
C1103 H1090 0.930 . S
C1103 C1102 1.376 . S
C1103 C1104 1.388 . S
C1104 H1091 0.930 . S
C1104 C1103 1.388 . S
C1104 C1105 1.390 . S
C1105 C1104 1.390 . S
C1105 C1106 1.394 . S
C1105 C1111 1.465 . S
C1106 C1101 1.399 . S
C1106 C1105 1.394 . S
C1106 C1107 1.516 . S
C1107 C1106 1.516 . S
C1107 C1108 1.502 . S
C1107 C1109 1.561 . S
C1107 C1110 1.526 . S
C1108 H1092 0.959 . S
C1108 H1093 0.959 . S
C1108 H1094 0.961 . S
C1108 C1107 1.502 . S
C1109 H1095 0.960 . S
C1109 H1096 0.961 . S
C1109 H1097 0.959 . S
C1109 C1107 1.561 . S
C1110 C1107 1.526 . S
C1110 C1111 1.396 . S
C1110 C1115 1.390 . S
C1111 C1105 1.465 . S
C1111 C1110 1.396 . S
C1111 C1112 1.399 . S
C1112 H1098 0.929 . S
C1112 C1111 1.399 . S
C1112 C1113 1.385 . S
C1113 H1099 0.931 . S
C1113 C1112 1.385 . S
C1113 C1114 1.389 . S
C1114 C1113 1.389 . S
C1114 C1115 1.387 . S
C1115 H1100 0.930 . S
C1115 C1110 1.390 . S
C1115 C1114 1.387 . S
H1116 C1128 0.930 . S
H1117 C1130 0.930 . S
H1118 C1131 0.930 . S
H1119 C1135 0.959 . S
H1120 C1135 0.959 . S
H1121 C1135 0.961 . S
H1122 C1136 0.960 . S
H1123 C1136 0.961 . S
H1124 C1136 0.959 . S
H1125 C1139 0.929 . S
H1126 C1140 0.931 . S
H1127 C1142 0.930 . S
C1128 H1116 0.930 . S
C1128 C1129 1.399 . S
C1128 C1133 1.399 . S
C1129 C1128 1.399 . S
C1129 C1130 1.376 . S
C1130 H1117 0.930 . S
C1130 C1129 1.376 . S
C1130 C1131 1.388 . S
C1131 H1118 0.930 . S
C1131 C1130 1.388 . S
C1131 C1132 1.390 . S
C1132 C1131 1.390 . S
C1132 C1133 1.394 . S
C1132 C1138 1.465 . S
C1133 C1128 1.399 . S
C1133 C1132 1.394 . S
C1133 C1134 1.516 . S
C1134 C1133 1.516 . S
C1134 C1135 1.502 . S
C1134 C1136 1.561 . S
C1134 C1137 1.526 . S
C1135 H1119 0.959 . S
C1135 H1120 0.959 . S
C1135 H1121 0.961 . S
C1135 C1134 1.502 . S
C1136 H1122 0.960 . S
C1136 H1123 0.961 . S
C1136 H1124 0.959 . S
C1136 C1134 1.561 . S
C1137 C1134 1.526 . S
C1137 C1138 1.396 . S
C1137 C1142 1.390 . S
C1138 C1132 1.465 . S
C1138 C1137 1.396 . S
C1138 C1139 1.399 . S
C1139 H1125 0.929 . S
C1139 C1138 1.399 . S
C1139 C1140 1.385 . S
C1140 H1126 0.931 . S
C1140 C1139 1.385 . S
C1140 C1141 1.389 . S
C1141 C1140 1.389 . S
C1141 C1142 1.387 . S
C1142 H1127 0.930 . S
C1142 C1137 1.390 . S
C1142 C1141 1.387 . S
H1143 C1155 0.930 . S
H1144 C1157 0.930 . S
H1145 C1158 0.930 . S
H1146 C1162 0.959 . S
H1147 C1162 0.959 . S
H1148 C1162 0.961 . S
H1149 C1163 0.960 . S
H1150 C1163 0.961 . S
H1151 C1163 0.959 . S
H1152 C1166 0.929 . S
H1153 C1167 0.931 . S
H1154 C1169 0.930 . S
C1155 H1143 0.930 . S
C1155 C1156 1.399 . S
C1155 C1160 1.399 . S
C1156 C1155 1.399 . S
C1156 C1157 1.376 . S
C1157 H1144 0.930 . S
C1157 C1156 1.376 . S
C1157 C1158 1.388 . S
C1158 H1145 0.930 . S
C1158 C1157 1.388 . S
C1158 C1159 1.390 . S
C1159 C1158 1.390 . S
C1159 C1160 1.394 . S
C1159 C1165 1.465 . S
C1160 C1155 1.399 . S
C1160 C1159 1.394 . S
C1160 C1161 1.516 . S
C1161 C1160 1.516 . S
C1161 C1162 1.502 . S
C1161 C1163 1.561 . S
C1161 C1164 1.526 . S
C1162 H1146 0.959 . S
C1162 H1147 0.959 . S
C1162 H1148 0.961 . S
C1162 C1161 1.502 . S
C1163 H1149 0.960 . S
C1163 H1150 0.961 . S
C1163 H1151 0.959 . S
C1163 C1161 1.561 . S
C1164 C1161 1.526 . S
C1164 C1165 1.396 . S
C1164 C1169 1.390 . S
C1165 C1159 1.465 . S
C1165 C1164 1.396 . S
C1165 C1166 1.399 . S
C1166 H1152 0.929 . S
C1166 C1165 1.399 . S
C1166 C1167 1.385 . S
C1167 H1153 0.931 . S
C1167 C1166 1.385 . S
C1167 C1168 1.389 . S
C1168 C1167 1.389 . S
C1168 C1169 1.387 . S
C1169 H1154 0.930 . S
C1169 C1164 1.390 . S
C1169 C1168 1.387 . S
H1170 C1182 0.930 . S
H1171 C1184 0.930 . S
H1172 C1185 0.930 . S
H1173 C1189 0.959 . S
H1174 C1189 0.959 . S
H1175 C1189 0.961 . S
H1176 C1190 0.960 . S
H1177 C1190 0.961 . S
H1178 C1190 0.959 . S
H1179 C1193 0.929 . S
H1180 C1194 0.931 . S
H1181 C1196 0.930 . S
C1182 H1170 0.930 . S
C1182 C1183 1.399 . S
C1182 C1187 1.399 . S
C1183 C1182 1.399 . S
C1183 C1184 1.376 . S
C1184 H1171 0.930 . S
C1184 C1183 1.376 . S
C1184 C1185 1.388 . S
C1185 H1172 0.930 . S
C1185 C1184 1.388 . S
C1185 C1186 1.390 . S
C1186 C1185 1.390 . S
C1186 C1187 1.394 . S
C1186 C1192 1.465 . S
C1187 C1182 1.399 . S
C1187 C1186 1.394 . S
C1187 C1188 1.516 . S
C1188 C1187 1.516 . S
C1188 C1189 1.502 . S
C1188 C1190 1.561 . S
C1188 C1191 1.526 . S
C1189 H1173 0.959 . S
C1189 H1174 0.959 . S
C1189 H1175 0.961 . S
C1189 C1188 1.502 . S
C1190 H1176 0.960 . S
C1190 H1177 0.961 . S
C1190 H1178 0.959 . S
C1190 C1188 1.561 . S
C1191 C1188 1.526 . S
C1191 C1192 1.396 . S
C1191 C1196 1.390 . S
C1192 C1186 1.465 . S
C1192 C1191 1.396 . S
C1192 C1193 1.399 . S
C1193 H1179 0.929 . S
C1193 C1192 1.399 . S
C1193 C1194 1.385 . S
C1194 H1180 0.931 . S
C1194 C1193 1.385 . S
C1194 C1195 1.389 . S
C1195 C1194 1.389 . S
C1195 C1196 1.387 . S
C1196 H1181 0.930 . S
C1196 C1191 1.390 . S
C1196 C1195 1.387 . S
H1197 C1209 0.930 . S
H1198 C1211 0.930 . S
H1199 C1212 0.930 . S
H1200 C1216 0.959 . S
H1201 C1216 0.959 . S
H1202 C1216 0.961 . S
H1203 C1217 0.960 . S
H1204 C1217 0.961 . S
H1205 C1217 0.959 . S
H1206 C1220 0.929 . S
H1207 C1221 0.931 . S
H1208 C1223 0.930 . S
C1209 H1197 0.930 . S
C1209 C1210 1.399 . S
C1209 C1214 1.399 . S
C1210 C1209 1.399 . S
C1210 C1211 1.376 . S
C1211 H1198 0.930 . S
C1211 C1210 1.376 . S
C1211 C1212 1.388 . S
C1212 H1199 0.930 . S
C1212 C1211 1.388 . S
C1212 C1213 1.390 . S
C1213 C1212 1.390 . S
C1213 C1214 1.394 . S
C1213 C1219 1.465 . S
C1214 C1209 1.399 . S
C1214 C1213 1.394 . S
C1214 C1215 1.516 . S
C1215 C1214 1.516 . S
C1215 C1216 1.502 . S
C1215 C1217 1.561 . S
C1215 C1218 1.526 . S
C1216 H1200 0.959 . S
C1216 H1201 0.959 . S
C1216 H1202 0.961 . S
C1216 C1215 1.502 . S
C1217 H1203 0.960 . S
C1217 H1204 0.961 . S
C1217 H1205 0.959 . S
C1217 C1215 1.561 . S
C1218 C1215 1.526 . S
C1218 C1219 1.396 . S
C1218 C1223 1.390 . S
C1219 C1213 1.465 . S
C1219 C1218 1.396 . S
C1219 C1220 1.399 . S
C1220 H1206 0.929 . S
C1220 C1219 1.399 . S
C1220 C1221 1.385 . S
C1221 H1207 0.931 . S
C1221 C1220 1.385 . S
C1221 C1222 1.389 . S
C1222 C1221 1.389 . S
C1222 C1223 1.387 . S
C1223 H1208 0.930 . S
C1223 C1218 1.390 . S
C1223 C1222 1.387 . S
H1224 C1236 0.930 . S
H1225 C1238 0.930 . S
H1226 C1239 0.930 . S
H1227 C1243 0.959 . S
H1228 C1243 0.959 . S
H1229 C1243 0.961 . S
H1230 C1244 0.960 . S
H1231 C1244 0.961 . S
H1232 C1244 0.959 . S
H1233 C1247 0.929 . S
H1234 C1248 0.931 . S
H1235 C1250 0.930 . S
C1236 H1224 0.930 . S
C1236 C1237 1.399 . S
C1236 C1241 1.399 . S
C1237 C1236 1.399 . S
C1237 C1238 1.376 . S
C1238 H1225 0.930 . S
C1238 C1237 1.376 . S
C1238 C1239 1.388 . S
C1239 H1226 0.930 . S
C1239 C1238 1.388 . S
C1239 C1240 1.390 . S
C1240 C1239 1.390 . S
C1240 C1241 1.394 . S
C1240 C1246 1.465 . S
C1241 C1236 1.399 . S
C1241 C1240 1.394 . S
C1241 C1242 1.516 . S
C1242 C1241 1.516 . S
C1242 C1243 1.502 . S
C1242 C1244 1.561 . S
C1242 C1245 1.526 . S
C1243 H1227 0.959 . S
C1243 H1228 0.959 . S
C1243 H1229 0.961 . S
C1243 C1242 1.502 . S
C1244 H1230 0.960 . S
C1244 H1231 0.961 . S
C1244 H1232 0.959 . S
C1244 C1242 1.561 . S
C1245 C1242 1.526 . S
C1245 C1246 1.396 . S
C1245 C1250 1.390 . S
C1246 C1240 1.465 . S
C1246 C1245 1.396 . S
C1246 C1247 1.399 . S
C1247 H1233 0.929 . S
C1247 C1246 1.399 . S
C1247 C1248 1.385 . S
C1248 H1234 0.931 . S
C1248 C1247 1.385 . S
C1248 C1249 1.389 . S
C1249 C1248 1.389 . S
C1249 C1250 1.387 . S
C1250 H1235 0.930 . S
C1250 C1245 1.390 . S
C1250 C1249 1.387 . S
H1251 C1263 0.930 . S
H1252 C1265 0.930 . S
H1253 C1266 0.930 . S
H1254 C1270 0.959 . S
H1255 C1270 0.959 . S
H1256 C1270 0.961 . S
H1257 C1271 0.960 . S
H1258 C1271 0.961 . S
H1259 C1271 0.959 . S
H1260 C1274 0.929 . S
H1261 C1275 0.931 . S
H1262 C1277 0.930 . S
C1263 H1251 0.930 . S
C1263 C1264 1.399 . S
C1263 C1268 1.399 . S
C1264 C1263 1.399 . S
C1264 C1265 1.376 . S
C1265 H1252 0.930 . S
C1265 C1264 1.376 . S
C1265 C1266 1.388 . S
C1266 H1253 0.930 . S
C1266 C1265 1.388 . S
C1266 C1267 1.390 . S
C1267 C1266 1.390 . S
C1267 C1268 1.394 . S
C1267 C1273 1.465 . S
C1268 C1263 1.399 . S
C1268 C1267 1.394 . S
C1268 C1269 1.516 . S
C1269 C1268 1.516 . S
C1269 C1270 1.502 . S
C1269 C1271 1.561 . S
C1269 C1272 1.526 . S
C1270 H1254 0.959 . S
C1270 H1255 0.959 . S
C1270 H1256 0.961 . S
C1270 C1269 1.502 . S
C1271 H1257 0.960 . S
C1271 H1258 0.961 . S
C1271 H1259 0.959 . S
C1271 C1269 1.561 . S
C1272 C1269 1.526 . S
C1272 C1273 1.396 . S
C1272 C1277 1.390 . S
C1273 C1267 1.465 . S
C1273 C1272 1.396 . S
C1273 C1274 1.399 . S
C1274 H1260 0.929 . S
C1274 C1273 1.399 . S
C1274 C1275 1.385 . S
C1275 H1261 0.931 . S
C1275 C1274 1.385 . S
C1275 C1276 1.389 . S
C1276 C1275 1.389 . S
C1276 C1277 1.387 . S
C1277 H1262 0.930 . S
C1277 C1272 1.390 . S
C1277 C1276 1.387 . S
H1278 C1290 0.930 . S
H1279 C1292 0.930 . S
H1280 C1293 0.930 . S
H1281 C1297 0.959 . S
H1282 C1297 0.959 . S
H1283 C1297 0.961 . S
H1284 C1298 0.960 . S
H1285 C1298 0.961 . S
H1286 C1298 0.959 . S
H1287 C1301 0.929 . S
H1288 C1302 0.931 . S
H1289 C1304 0.930 . S
C1290 H1278 0.930 . S
C1290 C1291 1.399 . S
C1290 C1295 1.399 . S
C1291 C1290 1.399 . S
C1291 C1292 1.376 . S
C1292 H1279 0.930 . S
C1292 C1291 1.376 . S
C1292 C1293 1.388 . S
C1293 H1280 0.930 . S
C1293 C1292 1.388 . S
C1293 C1294 1.390 . S
C1294 C1293 1.390 . S
C1294 C1295 1.394 . S
C1294 C1300 1.465 . S
C1295 C1290 1.399 . S
C1295 C1294 1.394 . S
C1295 C1296 1.516 . S
C1296 C1295 1.516 . S
C1296 C1297 1.502 . S
C1296 C1298 1.561 . S
C1296 C1299 1.526 . S
C1297 H1281 0.959 . S
C1297 H1282 0.959 . S
C1297 H1283 0.961 . S
C1297 C1296 1.502 . S
C1298 H1284 0.960 . S
C1298 H1285 0.961 . S
C1298 H1286 0.959 . S
C1298 C1296 1.561 . S
C1299 C1296 1.526 . S
C1299 C1300 1.396 . S
C1299 C1304 1.390 . S
C1300 C1294 1.465 . S
C1300 C1299 1.396 . S
C1300 C1301 1.399 . S
C1301 H1287 0.929 . S
C1301 C1300 1.399 . S
C1301 C1302 1.385 . S
C1302 H1288 0.931 . S
C1302 C1301 1.385 . S
C1302 C1303 1.389 . S
C1303 C1302 1.389 . S
C1303 C1304 1.387 . S
C1304 H1289 0.930 . S
C1304 C1299 1.390 . S
C1304 C1303 1.387 . S
H1305 C1317 0.930 . S
H1306 C1319 0.930 . S
H1307 C1320 0.930 . S
H1308 C1324 0.959 . S
H1309 C1324 0.959 . S
H1310 C1324 0.961 . S
H1311 C1325 0.960 . S
H1312 C1325 0.961 . S
H1313 C1325 0.959 . S
H1314 C1328 0.929 . S
H1315 C1329 0.931 . S
H1316 C1331 0.930 . S
C1317 H1305 0.930 . S
C1317 C1318 1.399 . S
C1317 C1322 1.399 . S
C1318 C1317 1.399 . S
C1318 C1319 1.376 . S
C1319 H1306 0.930 . S
C1319 C1318 1.376 . S
C1319 C1320 1.388 . S
C1320 H1307 0.930 . S
C1320 C1319 1.388 . S
C1320 C1321 1.390 . S
C1321 C1320 1.390 . S
C1321 C1322 1.394 . S
C1321 C1327 1.465 . S
C1322 C1317 1.399 . S
C1322 C1321 1.394 . S
C1322 C1323 1.516 . S
C1323 C1322 1.516 . S
C1323 C1324 1.502 . S
C1323 C1325 1.561 . S
C1323 C1326 1.526 . S
C1324 H1308 0.959 . S
C1324 H1309 0.959 . S
C1324 H1310 0.961 . S
C1324 C1323 1.502 . S
C1325 H1311 0.960 . S
C1325 H1312 0.961 . S
C1325 H1313 0.959 . S
C1325 C1323 1.561 . S
C1326 C1323 1.526 . S
C1326 C1327 1.396 . S
C1326 C1331 1.390 . S
C1327 C1321 1.465 . S
C1327 C1326 1.396 . S
C1327 C1328 1.399 . S
C1328 H1314 0.929 . S
C1328 C1327 1.399 . S
C1328 C1329 1.385 . S
C1329 H1315 0.931 . S
C1329 C1328 1.385 . S
C1329 C1330 1.389 . S
C1330 C1329 1.389 . S
C1330 C1331 1.387 . S
C1331 H1316 0.930 . S
C1331 C1326 1.390 . S
C1331 C1330 1.387 . S
H1332 C1344 0.930 . S
H1333 C1346 0.930 . S
H1334 C1347 0.930 . S
H1335 C1351 0.959 . S
H1336 C1351 0.959 . S
H1337 C1351 0.961 . S
H1338 C1352 0.960 . S
H1339 C1352 0.961 . S
H1340 C1352 0.959 . S
H1341 C1355 0.929 . S
H1342 C1356 0.931 . S
H1343 C1358 0.930 . S
C1344 H1332 0.930 . S
C1344 C1345 1.399 . S
C1344 C1349 1.399 . S
C1345 C1344 1.399 . S
C1345 C1346 1.376 . S
C1346 H1333 0.930 . S
C1346 C1345 1.376 . S
C1346 C1347 1.388 . S
C1347 H1334 0.930 . S
C1347 C1346 1.388 . S
C1347 C1348 1.390 . S
C1348 C1347 1.390 . S
C1348 C1349 1.394 . S
C1348 C1354 1.465 . S
C1349 C1344 1.399 . S
C1349 C1348 1.394 . S
C1349 C1350 1.516 . S
C1350 C1349 1.516 . S
C1350 C1351 1.502 . S
C1350 C1352 1.561 . S
C1350 C1353 1.526 . S
C1351 H1335 0.959 . S
C1351 H1336 0.959 . S
C1351 H1337 0.961 . S
C1351 C1350 1.502 . S
C1352 H1338 0.960 . S
C1352 H1339 0.961 . S
C1352 H1340 0.959 . S
C1352 C1350 1.561 . S
C1353 C1350 1.526 . S
C1353 C1354 1.396 . S
C1353 C1358 1.390 . S
C1354 C1348 1.465 . S
C1354 C1353 1.396 . S
C1354 C1355 1.399 . S
C1355 H1341 0.929 . S
C1355 C1354 1.399 . S
C1355 C1356 1.385 . S
C1356 H1342 0.931 . S
C1356 C1355 1.385 . S
C1356 C1357 1.389 . S
C1357 C1356 1.389 . S
C1357 C1358 1.387 . S
C1358 H1343 0.930 . S
C1358 C1353 1.390 . S
C1358 C1357 1.387 . S
H1359 C1371 0.930 . S
H1360 C1373 0.930 . S
H1361 C1374 0.930 . S
H1362 C1378 0.959 . S
H1363 C1378 0.959 . S
H1364 C1378 0.961 . S
H1365 C1379 0.960 . S
H1366 C1379 0.961 . S
H1367 C1379 0.959 . S
H1368 C1382 0.929 . S
H1369 C1383 0.931 . S
H1370 C1385 0.930 . S
C1371 H1359 0.930 . S
C1371 C1372 1.399 . S
C1371 C1376 1.399 . S
C1372 C1371 1.399 . S
C1372 C1373 1.376 . S
C1373 H1360 0.930 . S
C1373 C1372 1.376 . S
C1373 C1374 1.388 . S
C1374 H1361 0.930 . S
C1374 C1373 1.388 . S
C1374 C1375 1.390 . S
C1375 C1374 1.390 . S
C1375 C1376 1.394 . S
C1375 C1381 1.465 . S
C1376 C1371 1.399 . S
C1376 C1375 1.394 . S
C1376 C1377 1.516 . S
C1377 C1376 1.516 . S
C1377 C1378 1.502 . S
C1377 C1379 1.561 . S
C1377 C1380 1.526 . S
C1378 H1362 0.959 . S
C1378 H1363 0.959 . S
C1378 H1364 0.961 . S
C1378 C1377 1.502 . S
C1379 H1365 0.960 . S
C1379 H1366 0.961 . S
C1379 H1367 0.959 . S
C1379 C1377 1.561 . S
C1380 C1377 1.526 . S
C1380 C1381 1.396 . S
C1380 C1385 1.390 . S
C1381 C1375 1.465 . S
C1381 C1380 1.396 . S
C1381 C1382 1.399 . S
C1382 H1368 0.929 . S
C1382 C1381 1.399 . S
C1382 C1383 1.385 . S
C1383 H1369 0.931 . S
C1383 C1382 1.385 . S
C1383 C1384 1.389 . S
C1384 C1383 1.389 . S
C1384 C1385 1.387 . S
C1385 H1370 0.930 . S
C1385 C1380 1.390 . S
C1385 C1384 1.387 . S
H1386 C1398 0.930 . S
H1387 C1400 0.930 . S
H1388 C1401 0.930 . S
H1389 C1405 0.959 . S
H1390 C1405 0.959 . S
H1391 C1405 0.961 . S
H1392 C1406 0.960 . S
H1393 C1406 0.961 . S
H1394 C1406 0.959 . S
H1395 C1409 0.929 . S
H1396 C1410 0.931 . S
H1397 C1412 0.930 . S
C1398 H1386 0.930 . S
C1398 C1399 1.399 . S
C1398 C1403 1.399 . S
C1399 C1398 1.399 . S
C1399 C1400 1.376 . S
C1400 H1387 0.930 . S
C1400 C1399 1.376 . S
C1400 C1401 1.388 . S
C1401 H1388 0.930 . S
C1401 C1400 1.388 . S
C1401 C1402 1.390 . S
C1402 C1401 1.390 . S
C1402 C1403 1.394 . S
C1402 C1408 1.465 . S
C1403 C1398 1.399 . S
C1403 C1402 1.394 . S
C1403 C1404 1.516 . S
C1404 C1403 1.516 . S
C1404 C1405 1.502 . S
C1404 C1406 1.561 . S
C1404 C1407 1.526 . S
C1405 H1389 0.959 . S
C1405 H1390 0.959 . S
C1405 H1391 0.961 . S
C1405 C1404 1.502 . S
C1406 H1392 0.960 . S
C1406 H1393 0.961 . S
C1406 H1394 0.959 . S
C1406 C1404 1.561 . S
C1407 C1404 1.526 . S
C1407 C1408 1.396 . S
C1407 C1412 1.390 . S
C1408 C1402 1.465 . S
C1408 C1407 1.396 . S
C1408 C1409 1.399 . S
C1409 H1395 0.929 . S
C1409 C1408 1.399 . S
C1409 C1410 1.385 . S
C1410 H1396 0.931 . S
C1410 C1409 1.385 . S
C1410 C1411 1.389 . S
C1411 C1410 1.389 . S
C1411 C1412 1.387 . S
C1412 H1397 0.930 . S
C1412 C1407 1.390 . S
C1412 C1411 1.387 . S
H1413 C1425 0.930 . S
H1414 C1427 0.930 . S
H1415 C1428 0.930 . S
H1416 C1432 0.959 . S
H1417 C1432 0.959 . S
H1418 C1432 0.961 . S
H1419 C1433 0.960 . S
H1420 C1433 0.961 . S
H1421 C1433 0.959 . S
H1422 C1436 0.929 . S
H1423 C1437 0.931 . S
H1424 C1439 0.930 . S
C1425 H1413 0.930 . S
C1425 C1426 1.399 . S
C1425 C1430 1.399 . S
C1426 C1425 1.399 . S
C1426 C1427 1.376 . S
C1427 H1414 0.930 . S
C1427 C1426 1.376 . S
C1427 C1428 1.388 . S
C1428 H1415 0.930 . S
C1428 C1427 1.388 . S
C1428 C1429 1.390 . S
C1429 C1428 1.390 . S
C1429 C1430 1.394 . S
C1429 C1435 1.465 . S
C1430 C1425 1.399 . S
C1430 C1429 1.394 . S
C1430 C1431 1.516 . S
C1431 C1430 1.516 . S
C1431 C1432 1.502 . S
C1431 C1433 1.561 . S
C1431 C1434 1.526 . S
C1432 H1416 0.959 . S
C1432 H1417 0.959 . S
C1432 H1418 0.961 . S
C1432 C1431 1.502 . S
C1433 H1419 0.960 . S
C1433 H1420 0.961 . S
C1433 H1421 0.959 . S
C1433 C1431 1.561 . S
C1434 C1431 1.526 . S
C1434 C1435 1.396 . S
C1434 C1439 1.390 . S
C1435 C1429 1.465 . S
C1435 C1434 1.396 . S
C1435 C1436 1.399 . S
C1436 H1422 0.929 . S
C1436 C1435 1.399 . S
C1436 C1437 1.385 . S
C1437 H1423 0.931 . S
C1437 C1436 1.385 . S
C1437 C1438 1.389 . S
C1438 C1437 1.389 . S
C1438 C1439 1.387 . S
C1439 H1424 0.930 . S
C1439 C1434 1.390 . S
C1439 C1438 1.387 . S
H1440 C1452 0.930 . S
H1441 C1454 0.930 . S
H1442 C1455 0.930 . S
H1443 C1459 0.959 . S
H1444 C1459 0.959 . S
H1445 C1459 0.961 . S
H1446 C1460 0.960 . S
H1447 C1460 0.961 . S
H1448 C1460 0.959 . S
H1449 C1463 0.929 . S
H1450 C1464 0.931 . S
H1451 C1466 0.930 . S
C1452 H1440 0.930 . S
C1452 C1453 1.399 . S
C1452 C1457 1.399 . S
C1453 C1452 1.399 . S
C1453 C1454 1.376 . S
C1454 H1441 0.930 . S
C1454 C1453 1.376 . S
C1454 C1455 1.388 . S
C1455 H1442 0.930 . S
C1455 C1454 1.388 . S
C1455 C1456 1.390 . S
C1456 C1455 1.390 . S
C1456 C1457 1.394 . S
C1456 C1462 1.465 . S
C1457 C1452 1.399 . S
C1457 C1456 1.394 . S
C1457 C1458 1.516 . S
C1458 C1457 1.516 . S
C1458 C1459 1.502 . S
C1458 C1460 1.561 . S
C1458 C1461 1.526 . S
C1459 H1443 0.959 . S
C1459 H1444 0.959 . S
C1459 H1445 0.961 . S
C1459 C1458 1.502 . S
C1460 H1446 0.960 . S
C1460 H1447 0.961 . S
C1460 H1448 0.959 . S
C1460 C1458 1.561 . S
C1461 C1458 1.526 . S
C1461 C1462 1.396 . S
C1461 C1466 1.390 . S
C1462 C1456 1.465 . S
C1462 C1461 1.396 . S
C1462 C1463 1.399 . S
C1463 H1449 0.929 . S
C1463 C1462 1.399 . S
C1463 C1464 1.385 . S
C1464 H1450 0.931 . S
C1464 C1463 1.385 . S
C1464 C1465 1.389 . S
C1465 C1464 1.389 . S
C1465 C1466 1.387 . S
C1466 H1451 0.930 . S
C1466 C1461 1.390 . S
C1466 C1465 1.387 . S
H1467 C1479 0.930 . S
H1468 C1481 0.930 . S
H1469 C1482 0.930 . S
H1470 C1486 0.959 . S
H1471 C1486 0.959 . S
H1472 C1486 0.961 . S
H1473 C1487 0.960 . S
H1474 C1487 0.961 . S
H1475 C1487 0.959 . S
H1476 C1490 0.929 . S
H1477 C1491 0.931 . S
H1478 C1493 0.930 . S
C1479 H1467 0.930 . S
C1479 C1480 1.399 . S
C1479 C1484 1.399 . S
C1480 C1479 1.399 . S
C1480 C1481 1.376 . S
C1481 H1468 0.930 . S
C1481 C1480 1.376 . S
C1481 C1482 1.388 . S
C1482 H1469 0.930 . S
C1482 C1481 1.388 . S
C1482 C1483 1.390 . S
C1483 C1482 1.390 . S
C1483 C1484 1.394 . S
C1483 C1489 1.465 . S
C1484 C1479 1.399 . S
C1484 C1483 1.394 . S
C1484 C1485 1.516 . S
C1485 C1484 1.516 . S
C1485 C1486 1.502 . S
C1485 C1487 1.561 . S
C1485 C1488 1.526 . S
C1486 H1470 0.959 . S
C1486 H1471 0.959 . S
C1486 H1472 0.961 . S
C1486 C1485 1.502 . S
C1487 H1473 0.960 . S
C1487 H1474 0.961 . S
C1487 H1475 0.959 . S
C1487 C1485 1.561 . S
C1488 C1485 1.526 . S
C1488 C1489 1.396 . S
C1488 C1493 1.390 . S
C1489 C1483 1.465 . S
C1489 C1488 1.396 . S
C1489 C1490 1.399 . S
C1490 H1476 0.929 . S
C1490 C1489 1.399 . S
C1490 C1491 1.385 . S
C1491 H1477 0.931 . S
C1491 C1490 1.385 . S
C1491 C1492 1.389 . S
C1492 C1491 1.389 . S
C1492 C1493 1.387 . S
C1493 H1478 0.930 . S
C1493 C1488 1.390 . S
C1493 C1492 1.387 . S
H1494 C1506 0.930 . S
H1495 C1508 0.930 . S
H1496 C1509 0.930 . S
H1497 C1513 0.959 . S
H1498 C1513 0.959 . S
H1499 C1513 0.961 . S
H1500 C1514 0.960 . S
H1501 C1514 0.961 . S
H1502 C1514 0.959 . S
H1503 C1517 0.929 . S
H1504 C1518 0.931 . S
H1505 C1520 0.930 . S
C1506 H1494 0.930 . S
C1506 C1507 1.399 . S
C1506 C1511 1.399 . S
C1507 C1506 1.399 . S
C1507 C1508 1.376 . S
C1508 H1495 0.930 . S
C1508 C1507 1.376 . S
C1508 C1509 1.388 . S
C1509 H1496 0.930 . S
C1509 C1508 1.388 . S
C1509 C1510 1.390 . S
C1510 C1509 1.390 . S
C1510 C1511 1.394 . S
C1510 C1516 1.465 . S
C1511 C1506 1.399 . S
C1511 C1510 1.394 . S
C1511 C1512 1.516 . S
C1512 C1511 1.516 . S
C1512 C1513 1.502 . S
C1512 C1514 1.561 . S
C1512 C1515 1.526 . S
C1513 H1497 0.959 . S
C1513 H1498 0.959 . S
C1513 H1499 0.961 . S
C1513 C1512 1.502 . S
C1514 H1500 0.960 . S
C1514 H1501 0.961 . S
C1514 H1502 0.959 . S
C1514 C1512 1.561 . S
C1515 C1512 1.526 . S
C1515 C1516 1.396 . S
C1515 C1520 1.390 . S
C1516 C1510 1.465 . S
C1516 C1515 1.396 . S
C1516 C1517 1.399 . S
C1517 H1503 0.929 . S
C1517 C1516 1.399 . S
C1517 C1518 1.385 . S
C1518 H1504 0.931 . S
C1518 C1517 1.385 . S
C1518 C1519 1.389 . S
C1519 C1518 1.389 . S
C1519 C1520 1.387 . S
C1520 H1505 0.930 . S
C1520 C1515 1.390 . S
C1520 C1519 1.387 . S
H1521 C1533 0.930 . S
H1522 C1535 0.930 . S
H1523 C1536 0.930 . S
H1524 C1540 0.959 . S
H1525 C1540 0.959 . S
H1526 C1540 0.961 . S
H1527 C1541 0.960 . S
H1528 C1541 0.961 . S
H1529 C1541 0.959 . S
H1530 C1544 0.929 . S
H1531 C1545 0.931 . S
H1532 C1547 0.930 . S
C1533 H1521 0.930 . S
C1533 C1534 1.399 . S
C1533 C1538 1.399 . S
C1534 C1533 1.399 . S
C1534 C1535 1.376 . S
C1535 H1522 0.930 . S
C1535 C1534 1.376 . S
C1535 C1536 1.388 . S
C1536 H1523 0.930 . S
C1536 C1535 1.388 . S
C1536 C1537 1.390 . S
C1537 C1536 1.390 . S
C1537 C1538 1.394 . S
C1537 C1543 1.465 . S
C1538 C1533 1.399 . S
C1538 C1537 1.394 . S
C1538 C1539 1.516 . S
C1539 C1538 1.516 . S
C1539 C1540 1.502 . S
C1539 C1541 1.561 . S
C1539 C1542 1.526 . S
C1540 H1524 0.959 . S
C1540 H1525 0.959 . S
C1540 H1526 0.961 . S
C1540 C1539 1.502 . S
C1541 H1527 0.960 . S
C1541 H1528 0.961 . S
C1541 H1529 0.959 . S
C1541 C1539 1.561 . S
C1542 C1539 1.526 . S
C1542 C1543 1.396 . S
C1542 C1547 1.390 . S
C1543 C1537 1.465 . S
C1543 C1542 1.396 . S
C1543 C1544 1.399 . S
C1544 H1530 0.929 . S
C1544 C1543 1.399 . S
C1544 C1545 1.385 . S
C1545 H1531 0.931 . S
C1545 C1544 1.385 . S
C1545 C1546 1.389 . S
C1546 C1545 1.389 . S
C1546 C1547 1.387 . S
C1547 H1532 0.930 . S
C1547 C1542 1.390 . S
C1547 C1546 1.387 . S
H1548 C1560 0.930 . S
H1549 C1562 0.930 . S
H1550 C1563 0.930 . S
H1551 C1567 0.959 . S
H1552 C1567 0.959 . S
H1553 C1567 0.961 . S
H1554 C1568 0.960 . S
H1555 C1568 0.961 . S
H1556 C1568 0.959 . S
H1557 C1571 0.929 . S
H1558 C1572 0.931 . S
H1559 C1574 0.930 . S
C1560 H1548 0.930 . S
C1560 C1561 1.399 . S
C1560 C1565 1.399 . S
C1561 C1560 1.399 . S
C1561 C1562 1.376 . S
C1562 H1549 0.930 . S
C1562 C1561 1.376 . S
C1562 C1563 1.388 . S
C1563 H1550 0.930 . S
C1563 C1562 1.388 . S
C1563 C1564 1.390 . S
C1564 C1563 1.390 . S
C1564 C1565 1.394 . S
C1564 C1570 1.465 . S
C1565 C1560 1.399 . S
C1565 C1564 1.394 . S
C1565 C1566 1.516 . S
C1566 C1565 1.516 . S
C1566 C1567 1.502 . S
C1566 C1568 1.561 . S
C1566 C1569 1.526 . S
C1567 H1551 0.959 . S
C1567 H1552 0.959 . S
C1567 H1553 0.961 . S
C1567 C1566 1.502 . S
C1568 H1554 0.960 . S
C1568 H1555 0.961 . S
C1568 H1556 0.959 . S
C1568 C1566 1.561 . S
C1569 C1566 1.526 . S
C1569 C1570 1.396 . S
C1569 C1574 1.390 . S
C1570 C1564 1.465 . S
C1570 C1569 1.396 . S
C1570 C1571 1.399 . S
C1571 H1557 0.929 . S
C1571 C1570 1.399 . S
C1571 C1572 1.385 . S
C1572 H1558 0.931 . S
C1572 C1571 1.385 . S
C1572 C1573 1.389 . S
C1573 C1572 1.389 . S
C1573 C1574 1.387 . S
C1574 H1559 0.930 . S
C1574 C1569 1.390 . S
C1574 C1573 1.387 . S
H1575 C1587 0.930 . S
H1576 C1589 0.930 . S
H1577 C1590 0.930 . S
H1578 C1594 0.959 . S
H1579 C1594 0.959 . S
H1580 C1594 0.961 . S
H1581 C1595 0.960 . S
H1582 C1595 0.961 . S
H1583 C1595 0.959 . S
H1584 C1598 0.929 . S
H1585 C1599 0.931 . S
H1586 C1601 0.930 . S
C1587 H1575 0.930 . S
C1587 C1588 1.399 . S
C1587 C1592 1.399 . S
C1588 C1587 1.399 . S
C1588 C1589 1.376 . S
C1589 H1576 0.930 . S
C1589 C1588 1.376 . S
C1589 C1590 1.388 . S
C1590 H1577 0.930 . S
C1590 C1589 1.388 . S
C1590 C1591 1.390 . S
C1591 C1590 1.390 . S
C1591 C1592 1.394 . S
C1591 C1597 1.465 . S
C1592 C1587 1.399 . S
C1592 C1591 1.394 . S
C1592 C1593 1.516 . S
C1593 C1592 1.516 . S
C1593 C1594 1.502 . S
C1593 C1595 1.561 . S
C1593 C1596 1.526 . S
C1594 H1578 0.959 . S
C1594 H1579 0.959 . S
C1594 H1580 0.961 . S
C1594 C1593 1.502 . S
C1595 H1581 0.960 . S
C1595 H1582 0.961 . S
C1595 H1583 0.959 . S
C1595 C1593 1.561 . S
C1596 C1593 1.526 . S
C1596 C1597 1.396 . S
C1596 C1601 1.390 . S
C1597 C1591 1.465 . S
C1597 C1596 1.396 . S
C1597 C1598 1.399 . S
C1598 H1584 0.929 . S
C1598 C1597 1.399 . S
C1598 C1599 1.385 . S
C1599 H1585 0.931 . S
C1599 C1598 1.385 . S
C1599 C1600 1.389 . S
C1600 C1599 1.389 . S
C1600 C1601 1.387 . S
C1601 H1586 0.930 . S
C1601 C1596 1.390 . S
C1601 C1600 1.387 . S
H1602 C1614 0.930 . S
H1603 C1616 0.930 . S
H1604 C1617 0.930 . S
H1605 C1621 0.959 . S
H1606 C1621 0.959 . S
H1607 C1621 0.961 . S
H1608 C1622 0.960 . S
H1609 C1622 0.961 . S
H1610 C1622 0.959 . S
H1611 C1625 0.929 . S
H1612 C1626 0.931 . S
H1613 C1628 0.930 . S
C1614 H1602 0.930 . S
C1614 C1615 1.399 . S
C1614 C1619 1.399 . S
C1615 C1614 1.399 . S
C1615 C1616 1.376 . S
C1616 H1603 0.930 . S
C1616 C1615 1.376 . S
C1616 C1617 1.388 . S
C1617 H1604 0.930 . S
C1617 C1616 1.388 . S
C1617 C1618 1.390 . S
C1618 C1617 1.390 . S
C1618 C1619 1.394 . S
C1618 C1624 1.465 . S
C1619 C1614 1.399 . S
C1619 C1618 1.394 . S
C1619 C1620 1.516 . S
C1620 C1619 1.516 . S
C1620 C1621 1.502 . S
C1620 C1622 1.561 . S
C1620 C1623 1.526 . S
C1621 H1605 0.959 . S
C1621 H1606 0.959 . S
C1621 H1607 0.961 . S
C1621 C1620 1.502 . S
C1622 H1608 0.960 . S
C1622 H1609 0.961 . S
C1622 H1610 0.959 . S
C1622 C1620 1.561 . S
C1623 C1620 1.526 . S
C1623 C1624 1.396 . S
C1623 C1628 1.390 . S
C1624 C1618 1.465 . S
C1624 C1623 1.396 . S
C1624 C1625 1.399 . S
C1625 H1611 0.929 . S
C1625 C1624 1.399 . S
C1625 C1626 1.385 . S
C1626 H1612 0.931 . S
C1626 C1625 1.385 . S
C1626 C1627 1.389 . S
C1627 C1626 1.389 . S
C1627 C1628 1.387 . S
C1628 H1613 0.930 . S
C1628 C1623 1.390 . S
C1628 C1627 1.387 . S
H1629 C1641 0.930 . S
H1630 C1643 0.930 . S
H1631 C1644 0.930 . S
H1632 C1648 0.959 . S
H1633 C1648 0.959 . S
H1634 C1648 0.961 . S
H1635 C1649 0.960 . S
H1636 C1649 0.961 . S
H1637 C1649 0.959 . S
H1638 C1652 0.929 . S
H1639 C1653 0.931 . S
H1640 C1655 0.930 . S
C1641 H1629 0.930 . S
C1641 C1642 1.399 . S
C1641 C1646 1.399 . S
C1642 C1641 1.399 . S
C1642 C1643 1.376 . S
C1643 H1630 0.930 . S
C1643 C1642 1.376 . S
C1643 C1644 1.388 . S
C1644 H1631 0.930 . S
C1644 C1643 1.388 . S
C1644 C1645 1.390 . S
C1645 C1644 1.390 . S
C1645 C1646 1.394 . S
C1645 C1651 1.465 . S
C1646 C1641 1.399 . S
C1646 C1645 1.394 . S
C1646 C1647 1.516 . S
C1647 C1646 1.516 . S
C1647 C1648 1.502 . S
C1647 C1649 1.561 . S
C1647 C1650 1.526 . S
C1648 H1632 0.959 . S
C1648 H1633 0.959 . S
C1648 H1634 0.961 . S
C1648 C1647 1.502 . S
C1649 H1635 0.960 . S
C1649 H1636 0.961 . S
C1649 H1637 0.959 . S
C1649 C1647 1.561 . S
C1650 C1647 1.526 . S
C1650 C1651 1.396 . S
C1650 C1655 1.390 . S
C1651 C1645 1.465 . S
C1651 C1650 1.396 . S
C1651 C1652 1.399 . S
C1652 H1638 0.929 . S
C1652 C1651 1.399 . S
C1652 C1653 1.385 . S
C1653 H1639 0.931 . S
C1653 C1652 1.385 . S
C1653 C1654 1.389 . S
C1654 C1653 1.389 . S
C1654 C1655 1.387 . S
C1655 H1640 0.930 . S
C1655 C1650 1.390 . S
C1655 C1654 1.387 . S
C817 C397 1.468 . S
C805 C15 1.461 . S
C844 C450 1.302 . S
C832 C68 1.300 . S
C871 C513 1.526 . S
C859 C107 1.535 . S
C898 C556 1.238 . S
C886 C160 1.233 . S
C913 C185 1.525 . S
C925 C512 1.541 . S
C952 C549 1.314 . S
C940 C252 1.315 . S
C979 C390 1.464 . S
C967 C277 1.455 . S
C1006 C443 1.229 . S
C994 C330 1.234 . S
C1033 C496 1.470 . S
C1021 C323 1.454 . S
C1060 C565 1.784 . S
C1048 C192 1.790 . S
C1087 C406 1.554 . S
C1075 C245 1.544 . S
C1114 C459 1.722 . S
C1102 C284 1.720 . S
C1141 C407 1.536 . S
C1129 C61 1.531 . S
C1168 C460 1.805 . S
C1156 C114 1.793 . S
C1195 C503 1.474 . S
C1183 C153 1.486 . S
C1222 C566 1.717 . S
C1210 C22 1.706 . S
C1249 C609 1.438 . S
C1237 C337 1.431 . S
C1264 C206 1.661 . S
C1276 C662 1.659 . S
C1291 C231 1.576 . S
C1303 C724 1.573 . S
C1318 C298 1.671 . S
C1330 C778 1.675 . S
C1345 C47 1.502 . S
C1357 C725 1.499 . S
C1372 C100 1.748 . S
C1384 C777 1.747 . S
C1399 C139 1.503 . S
C1411 C602 1.490 . S
C1438 C655 1.594 . S
C1426 C8 1.600 . S
C1465 C715 1.446 . S
C1453 C1 1.457 . S
C1480 C54 1.352 . S
C1492 C761 1.339 . S
C1507 C93 1.575 . S
C1519 C618 1.583 . S
C1534 C146 1.309 . S
C1546 C671 1.315 . S
C1573 C619 1.517 . S
C1561 C199 1.515 . S
C1600 C672 1.399 . S
C1588 C238 1.393 . S
C1615 C291 1.495 . S
C1627 C708 1.507 . S
C1654 C768 1.274 . S
C1642 C344 1.291 . S
