# Generated by pormake.
# Topology pyr, (3,6)-cn, num edge types: 1
# Building blocks:
#     Node 0, Type 0, BuildingBlock: BELTOD_clean_linker_0, # of connection points: 3
#     Node 1, Type 0, BuildingBlock: BELTOD_clean_linker_0, # of connection points: 3
#     Node 2, Type 0, BuildingBlock: BELTOD_clean_linker_0, # of connection points: 3
#     Node 3, Type 0, BuildingBlock: BELTOD_clean_linker_0, # of connection points: 3
#     Node 4, Type 0, BuildingBlock: BELTOD_clean_linker_0, # of connection points: 3
#     Node 5, Type 0, BuildingBlock: BELTOD_clean_linker_0, # of connection points: 3
#     Node 6, Type 0, BuildingBlock: BELTOD_clean_linker_0, # of connection points: 3
#     Node 7, Type 0, BuildingBlock: BELTOD_clean_linker_0, # of connection points: 3
#     Node 8, Type 1, BuildingBlock: BETDAH_clean_sbu_0, # of connection points: 6
#     Node 9, Type 1, BuildingBlock: BETDAH_clean_sbu_0, # of connection points: 6
#     Node 10, Type 1, BuildingBlock: BETDAH_clean_sbu_0, # of connection points: 6
#     Node 11, Type 1, BuildingBlock: BETDAH_clean_sbu_0, # of connection points: 6
#     Edge 12, Type (0, 1), BuildingBlock: CIFDUS_clean_linker_0, # of connection points: 2
#     Edge 13, Type (0, 1), BuildingBlock: CIFDUS_clean_linker_0, # of connection points: 2
#     Edge 14, Type (0, 1), BuildingBlock: CIFDUS_clean_linker_0, # of connection points: 2
#     Edge 15, Type (0, 1), BuildingBlock: CIFDUS_clean_linker_0, # of connection points: 2
#     Edge 16, Type (0, 1), BuildingBlock: CIFDUS_clean_linker_0, # of connection points: 2
#     Edge 17, Type (0, 1), BuildingBlock: CIFDUS_clean_linker_0, # of connection points: 2
#     Edge 18, Type (0, 1), BuildingBlock: CIFDUS_clean_linker_0, # of connection points: 2
#     Edge 19, Type (0, 1), BuildingBlock: CIFDUS_clean_linker_0, # of connection points: 2
#     Edge 20, Type (0, 1), BuildingBlock: CIFDUS_clean_linker_0, # of connection points: 2
#     Edge 21, Type (0, 1), BuildingBlock: CIFDUS_clean_linker_0, # of connection points: 2
#     Edge 22, Type (0, 1), BuildingBlock: CIFDUS_clean_linker_0, # of connection points: 2
#     Edge 23, Type (0, 1), BuildingBlock: CIFDUS_clean_linker_0, # of connection points: 2
#     Edge 24, Type (0, 1), BuildingBlock: CIFDUS_clean_linker_0, # of connection points: 2
#     Edge 25, Type (0, 1), BuildingBlock: CIFDUS_clean_linker_0, # of connection points: 2
#     Edge 26, Type (0, 1), BuildingBlock: CIFDUS_clean_linker_0, # of connection points: 2
#     Edge 27, Type (0, 1), BuildingBlock: CIFDUS_clean_linker_0, # of connection points: 2
#     Edge 28, Type (0, 1), BuildingBlock: CIFDUS_clean_linker_0, # of connection points: 2
#     Edge 29, Type (0, 1), BuildingBlock: CIFDUS_clean_linker_0, # of connection points: 2
#     Edge 30, Type (0, 1), BuildingBlock: CIFDUS_clean_linker_0, # of connection points: 2
#     Edge 31, Type (0, 1), BuildingBlock: CIFDUS_clean_linker_0, # of connection points: 2
#     Edge 32, Type (0, 1), BuildingBlock: CIFDUS_clean_linker_0, # of connection points: 2
#     Edge 33, Type (0, 1), BuildingBlock: CIFDUS_clean_linker_0, # of connection points: 2
#     Edge 34, Type (0, 1), BuildingBlock: CIFDUS_clean_linker_0, # of connection points: 2
#     Edge 35, Type (0, 1), BuildingBlock: CIFDUS_clean_linker_0, # of connection points: 2
# Relax obj value: 0.123
# Max RMSD: 0.132
# Mean RMSD: 0.063
data_MOF--net-pyr--node1-BETDAH_clean_sbu_0--node2-BELTOD_clean_linker_0--edge1-CIFDUS_clean_linker_0
_symmetry_space_group_name_H-M    P1
_symmetry_Int_Tables_number       1
_symmetry_cell_setting            triclinic
loop_
_symmetry_equiv_pos_as_xyz
'x, y, z'
_cell_length_a     38.39374
_cell_length_b     41.419328
_cell_length_c     36.478665
_cell_angle_alpha  91.050111
_cell_angle_beta   89.13921
_cell_angle_gamma 102.26138
loop_
_atom_site_label
_atom_site_type_symbol
_atom_site_fract_x
_atom_site_fract_y
_atom_site_fract_z
_atom_type_partial_charge
P0 P 0.36333 0.3148 0.25708 0.0
H1 H 0.41366 0.31384 0.19623 0.0
H2 H 0.44078 0.27011 0.16954 0.0
H3 H 0.38383 0.20153 0.24876 0.0
H4 H 0.3566 0.24472 0.27462 0.0
H5 H 0.34394 0.37858 0.2609 0.0
H6 H 0.30249 0.40195 0.22525 0.0
H7 H 0.29527 0.32208 0.14589 0.0
H8 H 0.33615 0.29835 0.18245 0.0
H9 H 0.36028 0.30309 0.33644 0.0
H10 H 0.28832 0.28526 0.24502 0.0
O11 O 0.39477 0.34117 0.27994 0.0
H12 H 0.31213 0.27478 0.377 0.0
H13 H 0.24064 0.25763 0.28501 0.0
C14 C 0.38261 0.28249 0.23693 0.0
C15 C 0.40691 0.2893 0.20761 0.0
C16 C 0.42256 0.26436 0.1926 0.0
C17 C 0.41429 0.23225 0.2069 0.0
C18 C 0.39027 0.22577 0.23663 0.0
C19 C 0.37469 0.25064 0.25154 0.0
C20 C 0.34359 0.33705 0.22407 0.0
C21 C 0.33451 0.36678 0.2351 0.0
C22 C 0.31067 0.38009 0.21465 0.0
C23 C 0.29526 0.36375 0.1828 0.0
C24 C 0.30629 0.33505 0.17053 0.0
C25 C 0.33014 0.32172 0.19111 0.0
C26 C 0.32766 0.29705 0.28792 0.0
C27 C 0.33404 0.2937 0.32525 0.0
C28 C 0.30664 0.27743 0.3483 0.0
C29 C 0.27254 0.26446 0.33422 0.0
C30 C 0.26637 0.2681 0.29684 0.0
C31 C 0.29373 0.28393 0.27389 0.0
P32 P 0.36474 0.95608 0.55573 0.0
H33 H 0.36527 1.01178 0.60574 0.0
H34 H 0.36509 1.01675 0.67272 0.0
H35 H 0.3727 0.91443 0.68014 0.0
H36 H 0.37178 0.90942 0.61368 0.0
H37 H 0.43474 0.94182 0.5433 0.0
H38 H 0.45476 0.88977 0.53646 0.0
H39 H 0.34513 0.83665 0.53167 0.0
H40 H 0.32533 0.88875 0.53817 0.0
H41 H 0.29782 0.93027 0.59496 0.0
H42 H 0.33088 0.97869 0.49266 0.0
O43 O 0.39077 0.98867 0.53592 0.0
H44 H 0.23603 0.93264 0.58287 0.0
H45 H 0.26899 0.98121 0.48039 0.0
C46 C 0.36926 0.9605 0.60468 0.0
C47 C 0.3674 0.9906 0.62188 0.0
C48 C 0.36729 0.99337 0.66012 0.0
C49 C 0.36884 0.96595 0.68178 0.0
C50 C 0.37102 0.9359 0.66431 0.0
C51 C 0.37098 0.93315 0.62615 0.0
C52 C 0.37862 0.91917 0.5408 0.0
C53 C 0.41507 0.91907 0.53957 0.0
C54 C 0.42645 0.88932 0.53598 0.0
C55 C 0.40148 0.85916 0.53377 0.0
C56 C 0.36498 0.85953 0.53289 0.0
C57 C 0.35362 0.88933 0.53663 0.0
C58 C 0.31897 0.95503 0.54506 0.0
C59 C 0.29179 0.94142 0.56988 0.0
C60 C 0.25649 0.94281 0.56299 0.0
C61 C 0.24775 0.95742 0.5309 0.0
C62 C 0.27491 0.96968 0.5053 0.0
C63 C 0.31028 0.96844 0.51235 0.0
P64 P 0.66848 0.3356 0.85453 0.0
H65 H 0.69388 0.32122 0.92667 0.0
H66 H 0.74386 0.34857 0.96403 0.0
H67 H 0.76555 0.42971 0.88853 0.0
H68 H 0.71451 0.40263 0.8519 0.0
H69 H 0.64906 0.26361 0.8431 0.0
H70 H 0.61383 0.21863 0.87845 0.0
H71 H 0.58313 0.28951 0.95378 0.0
H72 H 0.61885 0.33482 0.918 0.0
H73 H 0.69752 0.37002 0.78852 0.0
H74 H 0.59819 0.35605 0.8487 0.0
O75 O 0.69425 0.31622 0.82879 0.0
H76 H 0.67346 0.39964 0.74142 0.0
H77 H 0.57355 0.38606 0.80096 0.0
C78 C 0.69951 0.36007 0.88674 0.0
C79 C 0.70848 0.34543 0.9187 0.0
C80 C 0.73767 0.36094 0.93984 0.0
C81 C 0.7593 0.39133 0.92927 0.0
C82 C 0.74947 0.40656 0.89792 0.0
C83 C 0.72007 0.39102 0.87684 0.0
C84 C 0.63687 0.3029 0.87778 0.0
C85 C 0.6346 0.26974 0.86702 0.0
C86 C 0.61461 0.2438 0.88758 0.0
C87 C 0.59591 0.25017 0.91943 0.0
C88 C 0.59707 0.28351 0.92941 0.0
C89 C 0.6174 0.30955 0.90888 0.0
C90 C 0.64966 0.36025 0.82214 0.0
C91 C 0.67042 0.37336 0.79173 0.0
C92 C 0.6565 0.39029 0.76453 0.0
C93 C 0.62126 0.39495 0.76683 0.0
C94 C 0.60077 0.38299 0.79815 0.0
C95 C 0.6148 0.36571 0.82549 0.0
P96 P 0.82498 0.68969 0.34306 0.0
H97 H 0.84245 0.7572 0.31533 0.0
H98 H 0.87058 0.81028 0.34178 0.0
H99 H 0.89217 0.76194 0.44038 0.0
H100 H 0.86202 0.70848 0.41386 0.0
H101 H 0.81521 0.61802 0.3266 0.0
H102 H 0.84828 0.58574 0.28797 0.0
H103 H 0.92548 0.67438 0.26239 0.0
H104 H 0.89342 0.70656 0.303 0.0
H105 H 0.75693 0.70223 0.36851 0.0
H106 H 0.82067 0.6312 0.39161 0.0
O107 O 0.80071 0.69989 0.30928 0.0
H108 H 0.70897 0.67235 0.40746 0.0
H109 H 0.77203 0.60045 0.43007 0.0
C110 C 0.84976 0.72859 0.36256 0.0
C111 C 0.85321 0.7578 0.34265 0.0
C112 C 0.86977 0.78844 0.35788 0.0
C113 C 0.88407 0.79098 0.39347 0.0
C114 C 0.88117 0.76141 0.41318 0.0
C115 C 0.86421 0.73062 0.39789 0.0
C116 C 0.85273 0.66467 0.31976 0.0
C117 C 0.84008 0.6305 0.31424 0.0
C118 C 0.85867 0.61204 0.29145 0.0
C119 C 0.88951 0.62749 0.27212 0.0
C120 C 0.90184 0.66176 0.27696 0.0
C121 C 0.88374 0.68009 0.3006 0.0
C122 C 0.79212 0.6685 0.376 0.0
C123 C 0.76069 0.68016 0.382 0.0
C124 C 0.7332 0.66306 0.40446 0.0
C125 C 0.73628 0.63365 0.42158 0.0
C126 C 0.76843 0.62264 0.41675 0.0
C127 C 0.7963 0.64021 0.39467 0.0
P128 P 0.70753 0.82156 0.91158 0.0
H129 H 0.65916 0.80967 0.97468 0.0
H130 H 0.60485 0.82983 0.98764 0.0
H131 H 0.60082 0.85671 0.87437 0.0
H132 H 0.65441 0.83563 0.86116 0.0
H133 H 0.77507 0.83083 0.94838 0.0
H134 H 0.80515 0.79282 0.97809 0.0
H135 H 0.70947 0.71613 0.97078 0.0
H136 H 0.67943 0.75478 0.9401 0.0
H137 H 0.71789 0.86034 0.84513 0.0
H138 H 0.72707 0.76261 0.87686 0.0
O139 O 0.72805 0.86051 0.92089 0.0
H140 H 0.74983 0.85406 0.78809 0.0
H141 H 0.76022 0.75684 0.8204 0.0
C142 C 0.66081 0.82089 0.91689 0.0
C143 C 0.6455 0.81804 0.95214 0.0
C144 C 0.61446 0.82965 0.95957 0.0
C145 C 0.59892 0.84494 0.93199 0.0
C146 C 0.61233 0.8449 0.89601 0.0
C147 C 0.64301 0.8328 0.88849 0.0
C148 C 0.72485 0.79579 0.9426 0.0
C149 C 0.76004 0.80623 0.95431 0.0
C150 C 0.77727 0.78436 0.97143 0.0
C151 C 0.75973 0.75137 0.97695 0.0
C152 C 0.72375 0.74135 0.96679 0.0
C153 C 0.70643 0.76345 0.94964 0.0
C154 C 0.72063 0.81229 0.86564 0.0
C155 C 0.7257 0.83711 0.83935 0.0
C156 C 0.74386 0.83343 0.80665 0.0
C157 C 0.75772 0.80504 0.80008 0.0
C158 C 0.7499 0.77899 0.82497 0.0
C159 C 0.73108 0.78244 0.85739 0.0
P160 P 0.86722 0.27791 0.40026 0.0
H161 H 0.86843 0.33845 0.44441 0.0
H162 H 0.82042 0.3621 0.47152 0.0
H163 H 0.74359 0.27478 0.4381 0.0
H164 H 0.79137 0.25188 0.41031 0.0
H165 H 0.92617 0.24435 0.39069 0.0
H166 H 0.93814 0.19341 0.416 0.0
H167 H 0.84441 0.18409 0.48516 0.0
H168 H 0.83236 0.23452 0.45977 0.0
H169 H 0.82966 0.31061 0.34839 0.0
H170 H 0.86467 0.21837 0.35332 0.0
O171 O 0.9038 0.30764 0.39562 0.0
H172 H 0.79734 0.29142 0.29191 0.0
H173 H 0.83333 0.1997 0.297 0.0
C174 C 0.83332 0.29359 0.4251 0.0
C175 C 0.84128 0.32432 0.4433 0.0
C176 C 0.81386 0.33771 0.45894 0.0
C177 C 0.77817 0.32047 0.45654 0.0
C178 C 0.7707 0.28897 0.43977 0.0
C179 C 0.798 0.27576 0.42408 0.0
C180 C 0.87836 0.2433 0.42316 0.0
C181 C 0.90845 0.23154 0.41162 0.0
C182 C 0.91507 0.20234 0.42581 0.0
C183 C 0.89198 0.18474 0.45226 0.0
C184 C 0.86261 0.19722 0.4648 0.0
C185 C 0.85571 0.22612 0.45017 0.0
C186 C 0.84924 0.26583 0.35549 0.0
C187 C 0.83097 0.28654 0.33706 0.0
C188 C 0.81251 0.27561 0.30488 0.0
C189 C 0.81282 0.24409 0.29022 0.0
C190 C 0.83293 0.22425 0.30753 0.0
C191 C 0.85084 0.23495 0.33998 0.0
P192 P 0.36688 0.69284 0.22916 0.0
H193 H 0.33776 0.69704 0.15672 0.0
H194 H 0.28014 0.67438 0.12866 0.0
H195 H 0.24043 0.63067 0.2316 0.0
H196 H 0.298 0.65458 0.26013 0.0
H197 H 0.43696 0.73641 0.2375 0.0
H198 H 0.46261 0.79195 0.21634 0.0
H199 H 0.35875 0.80218 0.1807 0.0
H200 H 0.33294 0.74723 0.20412 0.0
H201 H 0.35362 0.62649 0.25937 0.0
H202 H 0.39736 0.72513 0.29894 0.0
O203 O 0.39311 0.67532 0.20191 0.0
H204 H 0.36979 0.60386 0.31635 0.0
H205 H 0.41526 0.70267 0.35558 0.0
C206 C 0.32238 0.67795 0.21071 0.0
C207 C 0.31654 0.68308 0.17355 0.0
C208 C 0.28355 0.67 0.15744 0.0
C209 C 0.25564 0.65065 0.17783 0.0
C210 C 0.26146 0.6453 0.21508 0.0
C211 C 0.2944 0.65908 0.23146 0.0
C212 C 0.38298 0.73716 0.22235 0.0
C213 C 0.41944 0.7509 0.22614 0.0
C214 C 0.43421 0.78268 0.21335 0.0
C215 C 0.4131 0.80161 0.19562 0.0
C216 C 0.37608 0.78861 0.19399 0.0
C217 C 0.36122 0.75684 0.20729 0.0
C218 C 0.37362 0.67764 0.27473 0.0
C219 C 0.36628 0.64342 0.28058 0.0
C220 C 0.37619 0.6304 0.31318 0.0
C221 C 0.39443 0.65118 0.34094 0.0
C222 C 0.40102 0.68565 0.33532 0.0
C223 C 0.3908 0.69867 0.30267 0.0
P224 P 0.16861 0.34585 0.75059 0.0
H225 H 0.19155 0.30053 0.69773 0.0
H226 H 0.16185 0.24901 0.66779 0.0
H227 H 0.06318 0.25616 0.7222 0.0
H228 H 0.09294 0.30869 0.75127 0.0
H229 H 0.22826 0.40099 0.76601 0.0
H230 H 0.27494 0.43371 0.72789 0.0
H231 H 0.2251 0.38257 0.63145 0.0
H232 H 0.1771 0.35258 0.66953 0.0
H233 H 0.13531 0.33248 0.82325 0.0
H234 H 0.1439 0.40859 0.74273 0.0
O235 O 0.19458 0.33107 0.77935 0.0
H236 H 0.10585 0.36467 0.86599 0.0
H237 H 0.11473 0.44113 0.78537 0.0
C238 C 0.14434 0.30941 0.72583 0.0
C239 C 0.16324 0.29168 0.70245 0.0
C240 C 0.14624 0.262 0.68539 0.0
C241 C 0.11 0.24843 0.69223 0.0
C242 C 0.0911 0.26592 0.71617 0.0
C243 C 0.10805 0.29613 0.73267 0.0
C244 C 0.19943 0.37365 0.72094 0.0
C245 C 0.22709 0.39732 0.73654 0.0
C246 C 0.25425 0.41574 0.71453 0.0
C247 C 0.25491 0.41059 0.67617 0.0
C248 C 0.22603 0.38778 0.66061 0.0
C249 C 0.19846 0.37001 0.68263 0.0
C250 C 0.14198 0.368 0.77962 0.0
C251 C 0.1306 0.35604 0.81458 0.0
C252 C 0.11403 0.37472 0.83927 0.0
C253 C 0.10803 0.40584 0.82957 0.0
C254 C 0.11855 0.41726 0.79397 0.0
C255 C 0.13531 0.39861 0.76938 0.0
Ho256 Ho 1.00582 0.03516 0.50313 0.0
Ho257 Ho 0.99531 1.00543 0.57848 0.0
C258 C 0.03551 0.0805 0.57621 0.0
C259 C 1.01101 0.07364 0.44736 0.0
C260 C 0.03861 0.10205 0.4364 0.0
C261 C 0.0359 0.11798 0.40341 0.0
C262 C 0.06309 0.14426 0.39246 0.0
C263 C 0.09328 0.15508 0.41452 0.0
C264 C 0.09529 0.13939 0.44806 0.0
C265 C 0.06833 0.11294 0.45872 0.0
C266 C 0.05782 1.00467 0.5235 0.0
C267 C 0.96408 0.96024 0.5061 0.0
C268 C 0.98997 0.96535 0.63224 0.0
C269 C 0.96007 0.93816 0.64196 0.0
C270 C 0.9662 0.90762 0.65294 0.0
C271 C 0.93748 0.88184 0.66181 0.0
C272 C 0.90216 0.88635 0.66009 0.0
C273 C 0.89635 0.9168 0.64794 0.0
C274 C 0.92489 0.94222 0.63864 0.0
C275 C 0.94342 0.0362 0.55792 0.0
O276 O 0.02559 0.07928 0.5414 0.0
O277 O 0.03125 0.05334 0.59581 0.0
O278 O 0.02077 0.0453 0.44644 0.0
O279 O 0.99361 0.07797 0.47743 0.0
O280 O 0.04667 1.00515 0.4903 0.0
O281 O 0.04278 1.02251 0.544 0.0
O282 O 0.97431 0.96149 0.54074 0.0
O283 O 0.96895 0.98734 0.48628 0.0
O284 O 0.98366 0.9951 0.63562 0.0
O285 O 1.00683 0.96108 0.6017 0.0
O286 O 0.9534 0.03484 0.59149 0.0
O287 O 0.95909 1.01857 0.53794 0.0
H288 H 1.01311 0.10974 0.38587 0.0
H289 H 0.06091 0.15543 0.36622 0.0
H290 H 0.11783 0.14735 0.46598 0.0
H291 H 0.07088 0.10068 0.4842 0.0
H292 H 0.99316 0.90378 0.65484 0.0
H293 H 0.943 0.85859 0.67046 0.0
H294 H 0.86978 0.92167 0.64687 0.0
H295 H 0.91933 0.96531 0.62941 0.0
Ho296 Ho 0.52938 0.03846 0.0844 0.0
Ho297 Ho 0.46124 1.0267 0.04927 0.0
C298 C 0.4684 0.07247 0.11683 0.0
C299 C 0.58992 0.05891 0.11664 0.0
C300 C 0.61226 0.08728 0.13529 0.0
C301 C 0.60276 0.11814 0.1381 0.0
C302 C 0.62559 0.14474 0.15553 0.0
C303 C 0.65818 0.1407 0.17002 0.0
C304 C 0.66713 0.10954 0.16721 0.0
C305 C 0.64442 0.08317 0.14997 0.0
C306 C 0.48663 0.97949 0.10322 0.0
C307 C 0.52289 0.99294 1.01459 0.0
C308 C 0.40316 1.00506 1.0135 0.0
C309 C 0.3988 1.00341 0.97363 0.0
C310 C 0.42877 1.01418 0.95108 0.0
C311 C 0.42547 1.01345 0.9131 0.0
C312 C 0.39206 1.00202 0.89687 0.0
C313 C 0.36203 0.99104 0.91959 0.0
C314 C 0.3654 0.99179 0.9578 0.0
C315 C 0.50567 0.08382 1.02665 0.0
O316 O 0.50255 0.07789 0.10785 0.0
O317 O 0.44631 0.04666 0.10286 0.0
O318 O 0.56097 0.0441 0.13369 0.0
O319 O 0.58526 0.06173 0.08159 0.0
O320 O 0.5203 0.98417 0.09568 0.0
O321 O 0.47663 1.00664 0.10088 0.0
O322 O 0.48834 0.9908 1.01857 0.0
O323 O 0.54588 1.01392 1.03432 0.0
O324 O 0.41189 0.03492 1.02725 0.0
O325 O 0.42272 0.98572 1.02632 0.0
O326 O 0.47183 0.08017 1.03222 0.0
O327 O 0.51428 0.0565 1.03174 0.0
H328 H 0.57791 0.12163 0.12678 0.0
H329 H 0.61799 0.16846 0.15734 0.0
H330 H 0.69155 0.10535 0.17886 0.0
H331 H 0.65202 0.05943 0.1481 0.0
H332 H 0.45482 1.02322 0.96294 0.0
H333 H 0.44919 1.02151 0.89642 0.0
H334 H 0.33591 0.9823 0.90784 0.0
H335 H 0.34201 0.98349 0.97491 0.0
Ho336 Ho 0.50392 0.49659 0.53863 0.0
Ho337 Ho 0.50114 0.55406 0.58406 0.0
C338 C 0.53425 0.49914 0.62068 0.0
C339 C 0.52043 0.44785 0.50179 0.0
C340 C 0.54914 0.42944 0.50038 0.0
C341 C 0.58433 0.44469 0.50919 0.0
C342 C 0.61184 0.4277 0.50368 0.0
C343 C 0.6045 0.39519 0.48943 0.0
C344 C 0.5689 0.37956 0.48248 0.0
C345 C 0.54151 0.39661 0.4878 0.0
C346 C 0.44076 0.49206 0.5756 0.0
C347 C 0.47125 0.55153 0.49986 0.0
C348 C 0.48243 0.60194 0.62041 0.0
C349 C 0.47737 0.63488 0.61104 0.0
C350 C 0.48028 0.64531 0.57453 0.0
C351 C 0.4747 0.6765 0.56576 0.0
C352 C 0.46662 0.69785 0.59347 0.0
C353 C 0.46412 0.68736 0.63006 0.0
C354 C 0.46936 0.65605 0.63874 0.0
C355 C 0.56524 0.55991 0.54869 0.0
O356 O 0.53982 0.49069 0.58624 0.0
O357 O 0.5141 0.52077 0.62759 0.0
O358 O 0.49974 0.44386 0.53077 0.0
O359 O 0.52905 0.47859 0.49158 0.0
O360 O 0.44349 0.4829 0.54171 0.0
O361 O 0.47156 0.50283 0.58795 0.0
O362 O 0.47367 0.56645 0.53246 0.0
O363 O 0.48301 0.52411 0.49472 0.0
O364 O 0.51521 0.59783 0.61846 0.0
O365 O 0.45968 0.57716 0.60591 0.0
O366 O 0.56064 0.56969 0.58198 0.0
O367 O 0.53492 0.54811 0.53513 0.0
H368 H 0.59069 0.47003 0.51919 0.0
H369 H 0.63897 0.44049 0.50911 0.0
H370 H 0.56228 0.35433 0.4722 0.0
H371 H 0.51443 0.38441 0.48114 0.0
H372 H 0.48688 0.62938 0.55284 0.0
H373 H 0.47711 0.68407 0.5374 0.0
H374 H 0.45755 0.70318 0.65192 0.0
H375 H 0.46703 0.64831 0.66705 0.0
Ho376 Ho 1.00825 0.48821 0.07227 0.0
Ho377 Ho 1.00644 0.5516 1.0369 0.0
C378 C 0.07518 0.54688 0.08654 0.0
C379 C 0.01465 0.42902 0.08742 0.0
C380 C 0.04669 0.41605 0.09447 0.0
C381 C 0.0803 0.43406 0.08355 0.0
C382 C 0.11107 0.42272 0.09117 0.0
C383 C 0.10905 0.39342 0.11076 0.0
C384 C 0.07519 0.37538 0.12169 0.0
C385 C 0.04427 0.38658 0.11348 0.0
C386 C 0.9803 0.53079 0.11594 0.0
C387 C 0.93866 0.49334 1.02476 0.0
C388 C 1.00259 0.61182 1.02353 0.0
C389 C 0.97289 0.629 1.02358 0.0
C390 C 0.93754 0.61106 1.02523 0.0
C391 C 0.90933 0.62751 1.02645 0.0
C392 C 0.91602 0.66221 1.02605 0.0
C393 C 0.95157 0.68007 1.02457 0.0
C394 C 0.97977 0.66356 1.02339 0.0
C395 C 0.03359 0.50904 0.99263 0.0
O396 O 0.06403 0.51449 0.08548 0.0
O397 O 0.05624 0.56632 0.07158 0.0
O398 O 1.00728 0.44987 0.11211 0.0
O399 O 1.0118 0.43903 0.05401 0.0
O400 O 0.99923 0.51079 0.12769 0.0
O401 O 0.97493 0.52549 0.08208 0.0
O402 O 0.94958 0.52576 1.02738 0.0
O403 O 0.95849 0.47355 1.03744 0.0
O404 O 1.0021 0.58924 0.99792 0.0
O405 O 1.01047 0.60205 0.05562 0.0
O406 O 0.01441 0.52905 0.98147 0.0
O407 O 0.03975 0.51435 1.02649 0.0
H408 H 0.08282 0.45716 0.06945 0.0
H409 H 0.13644 0.43705 0.08173 0.0
H410 H 0.07255 0.35303 0.13735 0.0
H411 H 0.01857 0.37255 0.12253 0.0
H412 H 0.93174 0.58434 1.0258 0.0
H413 H 0.88231 0.61307 1.02798 0.0
H414 H 0.95759 0.7068 1.0237 0.0
H415 H 1.00693 0.67776 1.02231 0.0
H416 H 0.20336 0.26969 0.33807 0.0
H417 H 0.27736 0.21552 0.38161 0.0
H418 H 0.22839 0.17811 0.41257 0.0
H419 H 0.16425 0.15753 0.42166 0.0
H420 H 0.09002 0.21175 0.37832 0.0
H421 H 0.13944 0.25207 0.35213 0.0
C422 C 0.20873 0.24984 0.35462 0.0
C423 C 0.2438 0.24515 0.35735 0.0
C424 C 0.18043 0.22817 0.3718 0.0
C425 C 0.25059 0.21973 0.37931 0.0
C426 C 0.22257 0.19817 0.39672 0.0
C427 C 0.15882 0.17853 0.4072 0.0
C428 C 0.12338 0.18136 0.40167 0.0
C429 C 0.18733 0.2017 0.3924 0.0
C430 C 0.11696 0.20855 0.38235 0.0
C431 C 0.14522 0.23174 0.36756 0.0
H432 H 0.40314 1.01666 0.72503 0.0
H433 H 0.33225 0.92078 0.72984 0.0
H434 H 0.33237 0.92383 0.79671 0.0
H435 H 0.35403 0.95301 0.85387 0.0
H436 H 0.42361 0.04952 0.84891 0.0
H437 H 0.42229 0.04703 0.78205 0.0
C438 C 0.38733 0.99662 0.74068 0.0
C439 C 0.36791 0.96847 0.72242 0.0
C440 C 0.38732 0.9986 0.77912 0.0
C441 C 0.34795 0.94251 0.74319 0.0
C442 C 0.34781 0.9443 0.78144 0.0
C443 C 0.36846 0.9737 0.83816 0.0
C444 C 0.38903 1.00131 0.85635 0.0
C445 C 0.36759 0.97213 0.7997 0.0
C446 C 0.40798 1.02775 0.83556 0.0
C447 C 0.40714 1.02642 0.79734 0.0
H448 H 0.57955 0.44186 0.76979 0.0
H449 H 0.62909 0.38437 0.69326 0.0
H450 H 0.60766 0.41139 0.64194 0.0
H451 H 0.57494 0.45169 0.61802 0.0
H452 H 0.52552 0.50953 0.69433 0.0
H453 H 0.54661 0.48228 0.74573 0.0
C454 C 0.58544 0.43506 0.7419 0.0
C455 C 0.60624 0.41108 0.73575 0.0
C456 C 0.57312 0.45098 0.71211 0.0
C457 C 0.61369 0.40297 0.69916 0.0
C458 C 0.6013 0.41839 0.66961 0.0
C459 C 0.56885 0.45848 0.64586 0.0
C460 C 0.54861 0.4829 0.65192 0.0
C461 C 0.58113 0.44259 0.67565 0.0
C462 C 0.54106 0.49104 0.68846 0.0
C463 C 0.55309 0.47534 0.71807 0.0
H464 H 0.89964 0.63173 0.1975 0.0
H465 H 0.92186 0.57808 0.29133 0.0
H466 H 0.9527 0.54434 0.2519 0.0
H467 H 0.97298 0.52946 0.19052 0.0
H468 H 0.94671 0.5797 0.09577 0.0
H469 H 0.91806 0.61519 0.13529 0.0
C470 C 0.91142 0.61273 0.20922 0.0
C471 C 0.90872 0.60762 0.24742 0.0
C472 C 0.92836 0.59271 0.18608 0.0
C473 C 0.92364 0.58257 0.26213 0.0
C474 C 0.94128 0.56326 0.23954 0.0
C475 C 0.96101 0.5482 0.1785 0.0
C476 C 0.9623 0.55202 0.1401 0.0
C477 C 0.94375 0.56799 0.20146 0.0
C478 C 0.94628 0.57626 0.12511 0.0
C479 C 0.92985 0.59659 0.14779 0.0
H480 H 0.38143 0.16835 0.19341 0.0
H481 H 0.48344 0.23597 0.18459 0.0
H482 H 0.50974 0.19192 0.15801 0.0
H483 H 0.50332 0.1346 0.13588 0.0
H484 H 0.40102 0.06726 0.14443 0.0
H485 H 0.37553 0.11066 0.17344 0.0
C486 C 0.40953 0.17339 0.1861 0.0
C487 C 0.4304 0.20545 0.19094 0.0
C488 C 0.42448 0.14795 0.171 0.0
C489 C 0.46663 0.21165 0.18069 0.0
C490 C 0.48176 0.18641 0.16574 0.0
C491 C 0.47556 0.12927 0.14449 0.0
C492 C 0.45412 0.0977 0.13798 0.0
C493 C 0.46088 0.15451 0.1606 0.0
C494 C 0.41813 0.09133 0.14908 0.0
C495 C 0.40348 0.11617 0.16557 0.0
H496 H 0.20323 0.9783 0.58016 0.0
H497 H 0.20951 0.94523 0.46786 0.0
H498 H 0.15008 0.95502 0.45654 0.0
H499 H 0.09787 0.97555 0.47764 0.0
H500 H 0.09172 1.00998 0.58938 0.0
H501 H 0.14942 0.99644 0.60216 0.0
C502 C 0.19133 0.97277 0.55338 0.0
C503 C 0.21075 0.96116 0.52483 0.0
C504 C 0.1573 0.97873 0.54701 0.0
C505 C 0.19524 0.95454 0.49012 0.0
C506 C 0.16125 0.96001 0.48368 0.0
C507 C 0.10904 0.97987 0.50488 0.0
C508 C 0.09083 0.99394 0.53249 0.0
C509 C 0.1423 0.97254 0.51177 0.0
C510 C 0.10543 0.99927 0.56769 0.0
C511 C 0.13839 0.99162 0.57494 0.0
H512 H 0.7889 0.45673 0.94508 0.0
H513 H 0.80685 0.35821 0.95833 0.0
H514 H 0.86247 0.38056 0.98979 0.0
H515 H 0.9074 0.4281 1.01235 0.0
H516 H 0.89029 0.52676 0.99812 0.0
H517 H 0.83369 0.50437 0.9682 0.0
C518 C 0.805 0.4401 0.95468 0.0
C519 C 0.79316 0.40567 0.94935 0.0
C520 C 0.83747 0.45318 0.97261 0.0
C521 C 0.81455 0.38471 0.96249 0.0
C522 C 0.8467 0.39751 0.98032 0.0
C523 C 0.89127 0.44476 1.00288 0.0
C524 C 0.90342 0.47917 1.00764 0.0
C525 C 0.85855 0.4317 0.98546 0.0
C526 C 0.88191 0.5002 0.99497 0.0
C527 C 0.84939 0.4874 0.97775 0.0
H528 H 0.69477 0.6571 0.47273 0.0
H529 H 0.70851 0.56679 0.41961 0.0
H530 H 0.65629 0.53582 0.45271 0.0
H531 H 0.60553 0.53451 0.49678 0.0
H532 H 0.59484 0.62507 0.55157 0.0
H533 H 0.64625 0.65563 0.51768 0.0
C534 C 0.68634 0.63064 0.46831 0.0
C535 C 0.70563 0.61442 0.44351 0.0
C536 C 0.65644 0.61294 0.48769 0.0
C537 C 0.69446 0.57997 0.43869 0.0
C538 C 0.66438 0.56224 0.45746 0.0
C539 C 0.61449 0.56093 0.50109 0.0
C540 C 0.59622 0.5775 0.52659 0.0
C541 C 0.64495 0.57845 0.48198 0.0
C542 C 0.6084 0.61169 0.5322 0.0
C543 C 0.63786 0.62924 0.5128 0.0
H544 H 0.234 0.32514 0.15664 0.0
H545 H 0.28839 0.42709 0.16999 0.0
H546 H 0.23571 0.4451 0.14869 0.0
H547 H 0.17324 0.43192 0.13019 0.0
H548 H 0.11974 0.33 0.11366 0.0
H549 H 0.17315 0.31202 0.13267 0.0
C550 C 0.23472 0.35131 0.15409 0.0
C551 C 0.26516 0.37471 0.16509 0.0
C552 C 0.20433 0.36152 0.1418 0.0
C553 C 0.26521 0.40853 0.1622 0.0
C554 C 0.2351 0.41886 0.14997 0.0
C555 C 0.17332 0.40576 0.12996 0.0
C556 C 0.14221 0.38241 0.12064 0.0
C557 C 0.20432 0.39556 0.14031 0.0
C558 C 0.14291 0.34859 0.12137 0.0
C559 C 0.17359 0.33826 0.13195 0.0
H560 H 0.61522 0.19226 0.93788 0.0
H561 H 0.52987 0.2446 0.95163 0.0
H562 H 0.49526 0.19861 0.98646 0.0
H563 H 0.48817 0.14263 1.01176 0.0
H564 H 0.57345 0.09027 0.99868 0.0
H565 H 0.60887 0.13686 0.96491 0.0
C566 C 0.58896 0.1936 0.94832 0.0
C567 C 0.57528 0.22211 0.9418 0.0
C568 C 0.56906 0.16689 0.96849 0.0
C569 C 0.54139 0.22335 0.9563 0.0
C570 C 0.52142 0.19688 0.97612 0.0
C571 C 0.51456 0.14142 1.00159 0.0
C572 C 0.52798 0.11278 1.00759 0.0
C573 C 0.53485 0.16843 0.98224 0.0
C574 C 0.56236 0.11186 0.99442 0.0
C575 C 0.58263 0.13854 0.97503 0.0
H576 H 0.88502 0.81313 0.46566 0.0
H577 H 0.92354 0.84484 0.35755 0.0
H578 H 0.94904 0.89972 0.38181 0.0
H579 H 0.96145 0.93946 0.43392 0.0
H580 H 0.92708 0.90658 0.54262 0.0
H581 H 0.89961 0.85201 0.51807 0.0
C582 C 0.89933 0.83179 0.44733 0.0
C583 C 0.90159 0.82435 0.40947 0.0
C584 C 0.91483 0.86354 0.46164 0.0
C585 C 0.9202 0.84951 0.38654 0.0
C586 C 0.93518 0.88111 0.40047 0.0
C587 C 0.94772 0.92043 0.45219 0.0
C588 C 0.94621 0.92743 0.49011 0.0
C589 C 0.93256 0.88856 0.43795 0.0
C590 C 0.92874 0.90212 0.51335 0.0
C591 C 0.91298 0.87075 0.4993 0.0
H592 H 0.44862 0.84488 0.58181 0.0
H593 H 0.37956 0.80213 0.49349 0.0
H594 H 0.39508 0.7485 0.50298 0.0
H595 H 0.42586 0.71329 0.53882 0.0
H596 H 0.49365 0.75641 0.62801 0.0
H597 H 0.48119 0.81056 0.61563 0.0
C598 C 0.43751 0.82399 0.56414 0.0
C599 C 0.41317 0.82745 0.53684 0.0
C600 C 0.44609 0.7933 0.57015 0.0
C601 C 0.3983 0.79998 0.51475 0.0
C602 C 0.40716 0.76938 0.52017 0.0
C603 C 0.43823 0.73466 0.55519 0.0
C604 C 0.46049 0.73089 0.58439 0.0
C605 C 0.43065 0.76566 0.54814 0.0
C606 C 0.47605 0.75866 0.6057 0.0
C607 C 0.46906 0.78962 0.59855 0.0
H608 H 0.75505 0.81975 0.72788 0.0
H609 H 0.82387 0.79391 0.8097 0.0
H610 H 0.87557 0.8119 0.76978 0.0
H611 H 0.90173 0.84571 0.71816 0.0
H612 H 0.83335 0.8703 0.63483 0.0
H613 H 0.78096 0.84201 0.66888 0.0
C614 C 0.78127 0.81714 0.73635 0.0
C615 C 0.78582 0.80603 0.77175 0.0
C616 C 0.81101 0.82805 0.71349 0.0
C617 C 0.81974 0.80236 0.78248 0.0
C618 C 0.84939 0.81299 0.75984 0.0
C619 C 0.87556 0.84393 0.70655 0.0
C620 C 0.87159 0.86133 0.67465 0.0
C621 C 0.8455 0.82747 0.72615 0.0
C622 C 0.83723 0.85838 0.66017 0.0
C623 C 0.80718 0.84204 0.67952 0.0
H624 H 0.74258 0.24345 0.28289 0.0
H625 H 0.83117 0.21299 0.22871 0.0
H626 H 0.79094 0.18162 0.18317 0.0
H627 H 0.73014 0.15777 0.16346 0.0
H628 H 0.64096 0.18495 0.22018 0.0
H629 H 0.68188 0.22361 0.25929 0.0
C630 C 0.75312 0.23061 0.26054 0.0
C631 C 0.78968 0.2303 0.25917 0.0
C632 C 0.7297 0.21193 0.2351 0.0
C633 C 0.80304 0.21328 0.2304 0.0
C634 C 0.78008 0.19535 0.20445 0.0
C635 C 0.71967 0.17233 0.18424 0.0
C636 C 0.68259 0.1681 0.18934 0.0
C637 C 0.74326 0.19362 0.20731 0.0
C638 C 0.66939 0.18775 0.21568 0.0
C639 C 0.69278 0.20965 0.23826 0.0
H640 H 0.41914 0.59378 0.3469 0.0
H641 H 0.39931 0.67614 0.41212 0.0
H642 H 0.42103 0.65331 0.4665 0.0
H643 H 0.44576 0.60941 0.49618 0.0
H644 H 0.46359 0.52679 0.42996 0.0
H645 H 0.44194 0.5499 0.37624 0.0
C646 C 0.41893 0.60667 0.373 0.0
C647 C 0.40729 0.63685 0.37483 0.0
C648 C 0.43113 0.59318 0.40446 0.0
C649 C 0.40838 0.65319 0.40922 0.0
C650 C 0.42063 0.63996 0.44061 0.0
C651 C 0.44481 0.59637 0.47006 0.0
C652 C 0.45651 0.56619 0.4676 0.0
C653 C 0.43215 0.60992 0.43866 0.0
C654 C 0.45494 0.54993 0.43319 0.0
C655 C 0.44252 0.56319 0.40218 0.0
H656 H 0.11788 0.41475 0.90439 0.0
H657 H 0.05883 0.44308 0.81504 0.0
H658 H 0.03112 0.47689 0.85707 0.0
H659 H 0.02323 0.49879 0.91924 0.0
H660 H 0.08237 0.47158 1.00874 0.0
H661 H 0.1098 0.43677 0.96708 0.0
C662 C 0.09873 0.42807 0.89407 0.0
C663 C 0.09076 0.42621 0.85618 0.0
C664 C 0.08269 0.44771 0.91862 0.0
C665 C 0.06611 0.4442 0.84367 0.0
C666 C 0.04999 0.46349 0.86784 0.0
C667 C 0.04213 0.48525 0.9297 0.0
C668 C 0.05049 0.48771 0.96737 0.0
C669 C 0.0581 0.46555 0.90534 0.0
C670 C 0.0751 0.46994 0.98018 0.0
C671 C 0.09093 0.4501 0.9562 0.0
H672 H 0.61142 0.91003 0.92122 0.0
H673 H 0.53454 0.82991 0.96817 0.0
H674 H 0.50076 0.86936 0.99386 0.0
H675 H 0.49735 0.92714 1.00851 0.0
H676 H 0.57921 1.00668 0.96783 0.0
H677 H 0.60678 0.96713 0.93358 0.0
C678 C 0.58672 0.90122 0.93627 0.0
C679 C 0.57502 0.86725 0.94244 0.0
C680 C 0.56867 0.92403 0.95225 0.0
C681 C 0.54368 0.85601 0.96288 0.0
C682 C 0.52457 0.87854 0.97765 0.0
C683 C 0.52075 0.93568 0.99143 0.0
C684 C 0.53623 0.96958 0.99023 0.0
C685 C 0.53736 0.91267 0.97331 0.0
C686 C 0.56697 0.9806 0.96889 0.0
C687 C 0.58271 0.95804 0.94945 0.0
H688 H 0.89347 0.16716 0.52331 0.0
H689 H 0.9045 0.1319 0.41271 0.0
H690 H 0.9164 0.08027 0.43591 0.0
H691 H 0.92678 0.0465 0.48776 0.0
H692 H 0.92188 0.08449 0.59811 0.0
H693 H 0.90277 0.13292 0.57514 0.0
C694 C 0.89814 0.14798 0.50437 0.0
C695 C 0.89825 0.15324 0.46644 0.0
C696 C 0.90565 0.11873 0.51791 0.0
C697 C 0.90468 0.12844 0.44207 0.0
C698 C 0.91124 0.09889 0.45529 0.0
C699 C 0.92139 0.06539 0.5067 0.0
C700 C 0.92642 0.06236 0.54441 0.0
C701 C 0.91224 0.09395 0.49316 0.0
C702 C 0.91855 0.08649 0.56886 0.0
C703 C 0.90788 0.11429 0.55574 0.0
H704 H 0.21797 0.58653 0.17842 0.0
H705 H 0.21536 0.68248 0.1362 0.0
H706 H 0.15972 0.65933 0.10446 0.0
H707 H 0.11177 0.61161 0.088 0.0
H708 H 0.11586 0.5151 0.1281 0.0
H709 H 0.17054 0.53852 0.16093 0.0
C710 C 0.20503 0.60238 0.16251 0.0
C711 C 0.22082 0.63627 0.15988 0.0
C712 C 0.17325 0.58872 0.14363 0.0
C713 C 0.20392 0.65633 0.13863 0.0
C714 C 0.17204 0.64309 0.12046 0.0
C715 C 0.12461 0.59564 0.10385 0.0
C716 C 0.1094 0.56153 0.10541 0.0
C717 C 0.15649 0.60927 0.12257 0.0
C718 C 0.12674 0.54138 0.12613 0.0
C719 C 0.15811 0.55479 0.14511 0.0
H720 H 0.32543 0.43263 0.69552 0.0
H721 H 0.25517 0.42829 0.60321 0.0
H722 H 0.30574 0.4521 0.56427 0.0
H723 H 0.37073 0.4735 0.55553 0.0
H724 H 0.43938 0.48283 0.64932 0.0
H725 H 0.38863 0.45881 0.68837 0.0
C726 C 0.32066 0.43742 0.66715 0.0
C727 C 0.28589 0.42788 0.65275 0.0
C728 C 0.34987 0.45226 0.64486 0.0
C729 C 0.28131 0.43415 0.6154 0.0
C730 C 0.31036 0.44819 0.59293 0.0
C731 C 0.37447 0.47045 0.58457 0.0
C732 C 0.40894 0.47976 0.59934 0.0
C733 C 0.34487 0.45708 0.60722 0.0
C734 C 0.41324 0.47592 0.63713 0.0
C735 C 0.38418 0.46205 0.65953 0.0
H736 H 0.81039 0.7597 1.02981 0.0
H737 H 0.75669 0.68883 0.95004 0.0
H738 H 0.79853 0.65333 0.96098 0.0
H739 H 0.85478 0.64595 0.98712 0.0
H740 H 0.91021 0.71804 0.06469 0.0
H741 H 0.86383 0.74997 0.05991 0.0
C742 C 0.80767 0.73635 1.01504 0.0
C743 C 0.78062 0.72715 0.98891 0.0
C744 C 0.83259 0.71661 1.02047 0.0
C745 C 0.777 0.69647 0.97056 0.0
C746 C 0.80122 0.6763 0.97646 0.0
C747 C 0.85637 0.6683 1.00354 0.0
C748 C 0.88612 0.67979 1.02591 0.0
C749 C 0.82976 0.68664 1.00047 0.0
C750 C 0.88793 0.709 0.04672 0.0
C751 C 0.86133 0.72716 0.04417 0.0
H752 H 0.38805 0.85956 0.18776 0.0
H753 H 0.47696 0.81497 0.15882 0.0
H754 H 0.50642 0.86507 0.12824 0.0
H755 H 0.50803 0.92176 0.10952 0.0
H756 H 0.41972 0.96742 0.13588 0.0
H757 H 0.38891 0.91681 0.16674 0.0
C758 C 0.41377 0.86067 0.17463 0.0
C759 C 0.4303 0.83321 0.17657 0.0
C760 C 0.43077 0.88988 0.1563 0.0
C761 C 0.46376 0.83561 0.15914 0.0
C762 C 0.48064 0.86432 0.14114 0.0
C763 C 0.48198 0.92072 0.12195 0.0
C764 C 0.46635 0.94854 0.12049 0.0
C765 C 0.46457 0.89164 0.13967 0.0
C766 C 0.43244 0.94648 0.13657 0.0
C767 C 0.41486 0.9175 0.15432 0.0
H768 H 0.11285 0.22713 0.62082 0.0
H769 H 0.06852 0.1953 0.72665 0.0
H770 H 0.04297 0.14048 0.70097 0.0
H771 H 0.03345 0.10096 0.64819 0.0
H772 H 0.07456 0.13439 0.54169 0.0
H773 H 0.10115 0.1886 0.56771 0.0
C774 C 0.09759 0.20819 0.63827 0.0
C775 C 0.09276 0.21549 0.67574 0.0
C776 C 0.08248 0.17673 0.62315 0.0
C777 C 0.07248 0.19063 0.69773 0.0
C778 C 0.05801 0.15912 0.68307 0.0
C779 C 0.04842 0.12006 0.63075 0.0
C780 C 0.05224 0.11329 0.59298 0.0
C781 C 0.06292 0.15177 0.64581 0.0
C782 C 0.07119 0.13867 0.57076 0.0
C783 C 0.08645 0.16981 0.58567 0.0
H784 H 0.71694 0.32007 0.42087 0.0
H785 H 0.77317 0.3562 0.51987 0.0
H786 H 0.72417 0.38233 0.53922 0.0
H787 H 0.66512 0.39466 0.52774 0.0
H788 H 0.61017 0.35849 0.42788 0.0
H789 H 0.65852 0.33177 0.40971 0.0
C790 C 0.7183 0.33324 0.44697 0.0
C791 C 0.74851 0.33597 0.46904 0.0
C792 C 0.69016 0.34801 0.45787 0.0
C793 C 0.75026 0.35389 0.5023 0.0
C794 C 0.7222 0.36869 0.51343 0.0
C795 C 0.66383 0.38102 0.50196 0.0
C796 C 0.63389 0.37839 0.47938 0.0
C797 C 0.69203 0.36596 0.49136 0.0
C798 C 0.63251 0.36039 0.44617 0.0
C799 C 0.66029 0.34531 0.43556 0.0
loop_
_geom_bond_atom_site_label_1
_geom_bond_atom_site_label_2
_geom_bond_distance
_geom_bond_site_symmetry_2
_ccdc_geom_bond_type
P0 O11 1.490 . S
P0 C14 1.812 . S
P0 C20 1.803 . S
P0 C26 1.819 . S
H1 C15 0.941 . S
H2 C16 0.939 . S
H3 C18 0.940 . S
H4 C19 0.940 . S
H5 C21 0.939 . S
H6 C22 0.942 . S
H7 C24 0.940 . S
H8 C25 0.939 . S
H9 C27 0.941 . S
H10 C31 0.939 . S
O11 P0 1.490 . S
H12 C28 0.939 . S
H13 C30 0.940 . S
C14 P0 1.812 . S
C14 C15 1.389 . S
C14 C19 1.391 . S
C15 H1 0.941 . S
C15 C14 1.389 . S
C15 C16 1.397 . S
C16 H2 0.939 . S
C16 C15 1.397 . S
C16 C17 1.378 . S
C17 C16 1.378 . S
C17 C18 1.378 . S
C18 H3 0.940 . S
C18 C17 1.378 . S
C18 C19 1.396 . S
C19 H4 0.940 . S
C19 C14 1.391 . S
C19 C18 1.396 . S
C20 P0 1.803 . S
C20 C21 1.378 . S
C20 C25 1.400 . S
C21 H5 0.939 . S
C21 C20 1.378 . S
C21 C22 1.361 . S
C22 H6 0.942 . S
C22 C21 1.361 . S
C22 C23 1.369 . S
C23 C22 1.369 . S
C23 C24 1.404 . S
C24 H7 0.940 . S
C24 C23 1.404 . S
C24 C25 1.389 . S
C25 H8 0.939 . S
C25 C20 1.400 . S
C25 C24 1.389 . S
C26 P0 1.819 . S
C26 C27 1.391 . S
C26 C31 1.391 . S
C27 H9 0.941 . S
C27 C26 1.391 . S
C27 C28 1.396 . S
C28 H12 0.939 . S
C28 C27 1.396 . S
C28 C29 1.397 . S
C29 C28 1.397 . S
C29 C30 1.385 . S
C30 H13 0.940 . S
C30 C29 1.385 . S
C30 C31 1.388 . S
C31 H10 0.939 . S
C31 C26 1.391 . S
C31 C30 1.388 . S
P32 O43 1.490 . S
P32 C46 1.812 . S
P32 C52 1.803 . S
P32 C58 1.819 . S
H33 C47 0.941 . S
H34 C48 0.939 . S
H35 C50 0.940 . S
H36 C51 0.940 . S
H37 C53 0.939 . S
H38 C54 0.942 . S
H39 C56 0.940 . S
H40 C57 0.939 . S
H41 C59 0.941 . S
H42 C63 0.939 . S
O43 P32 1.490 . S
H44 C60 0.939 . S
H45 C62 0.940 . S
C46 P32 1.812 . S
C46 C47 1.389 . S
C46 C51 1.391 . S
C47 H33 0.941 . S
C47 C46 1.389 . S
C47 C48 1.397 . S
C48 H34 0.939 . S
C48 C47 1.397 . S
C48 C49 1.378 . S
C49 C48 1.378 . S
C49 C50 1.378 . S
C50 H35 0.940 . S
C50 C49 1.378 . S
C50 C51 1.396 . S
C51 H36 0.940 . S
C51 C46 1.391 . S
C51 C50 1.396 . S
C52 P32 1.803 . S
C52 C53 1.378 . S
C52 C57 1.400 . S
C53 H37 0.939 . S
C53 C52 1.378 . S
C53 C54 1.361 . S
C54 H38 0.942 . S
C54 C53 1.361 . S
C54 C55 1.369 . S
C55 C54 1.369 . S
C55 C56 1.404 . S
C56 H39 0.940 . S
C56 C55 1.404 . S
C56 C57 1.389 . S
C57 H40 0.939 . S
C57 C52 1.400 . S
C57 C56 1.389 . S
C58 P32 1.819 . S
C58 C59 1.391 . S
C58 C63 1.391 . S
C59 H41 0.941 . S
C59 C58 1.391 . S
C59 C60 1.396 . S
C60 H44 0.939 . S
C60 C59 1.396 . S
C60 C61 1.397 . S
C61 C60 1.397 . S
C61 C62 1.385 . S
C62 H45 0.940 . S
C62 C61 1.385 . S
C62 C63 1.388 . S
C63 H42 0.939 . S
C63 C58 1.391 . S
C63 C62 1.388 . S
P64 O75 1.490 . S
P64 C78 1.812 . S
P64 C84 1.803 . S
P64 C90 1.819 . S
H65 C79 0.941 . S
H66 C80 0.939 . S
H67 C82 0.940 . S
H68 C83 0.940 . S
H69 C85 0.939 . S
H70 C86 0.942 . S
H71 C88 0.940 . S
H72 C89 0.939 . S
H73 C91 0.941 . S
H74 C95 0.939 . S
O75 P64 1.490 . S
H76 C92 0.939 . S
H77 C94 0.940 . S
C78 P64 1.812 . S
C78 C79 1.389 . S
C78 C83 1.391 . S
C79 H65 0.941 . S
C79 C78 1.389 . S
C79 C80 1.397 . S
C80 H66 0.939 . S
C80 C79 1.397 . S
C80 C81 1.378 . S
C81 C80 1.378 . S
C81 C82 1.378 . S
C82 H67 0.940 . S
C82 C81 1.378 . S
C82 C83 1.396 . S
C83 H68 0.940 . S
C83 C78 1.391 . S
C83 C82 1.396 . S
C84 P64 1.803 . S
C84 C85 1.378 . S
C84 C89 1.400 . S
C85 H69 0.939 . S
C85 C84 1.378 . S
C85 C86 1.361 . S
C86 H70 0.942 . S
C86 C85 1.361 . S
C86 C87 1.369 . S
C87 C86 1.369 . S
C87 C88 1.404 . S
C88 H71 0.940 . S
C88 C87 1.404 . S
C88 C89 1.389 . S
C89 H72 0.939 . S
C89 C84 1.400 . S
C89 C88 1.389 . S
C90 P64 1.819 . S
C90 C91 1.391 . S
C90 C95 1.391 . S
C91 H73 0.941 . S
C91 C90 1.391 . S
C91 C92 1.396 . S
C92 H76 0.939 . S
C92 C91 1.396 . S
C92 C93 1.397 . S
C93 C92 1.397 . S
C93 C94 1.385 . S
C94 H77 0.940 . S
C94 C93 1.385 . S
C94 C95 1.388 . S
C95 H74 0.939 . S
C95 C90 1.391 . S
C95 C94 1.388 . S
P96 O107 1.490 . S
P96 C110 1.812 . S
P96 C116 1.803 . S
P96 C122 1.819 . S
H97 C111 0.941 . S
H98 C112 0.939 . S
H99 C114 0.940 . S
H100 C115 0.940 . S
H101 C117 0.939 . S
H102 C118 0.942 . S
H103 C120 0.940 . S
H104 C121 0.939 . S
H105 C123 0.941 . S
H106 C127 0.939 . S
O107 P96 1.490 . S
H108 C124 0.939 . S
H109 C126 0.940 . S
C110 P96 1.812 . S
C110 C111 1.389 . S
C110 C115 1.391 . S
C111 H97 0.941 . S
C111 C110 1.389 . S
C111 C112 1.397 . S
C112 H98 0.939 . S
C112 C111 1.397 . S
C112 C113 1.378 . S
C113 C112 1.378 . S
C113 C114 1.378 . S
C114 H99 0.940 . S
C114 C113 1.378 . S
C114 C115 1.396 . S
C115 H100 0.940 . S
C115 C110 1.391 . S
C115 C114 1.396 . S
C116 P96 1.803 . S
C116 C117 1.378 . S
C116 C121 1.400 . S
C117 H101 0.939 . S
C117 C116 1.378 . S
C117 C118 1.361 . S
C118 H102 0.942 . S
C118 C117 1.361 . S
C118 C119 1.369 . S
C119 C118 1.369 . S
C119 C120 1.404 . S
C120 H103 0.940 . S
C120 C119 1.404 . S
C120 C121 1.389 . S
C121 H104 0.939 . S
C121 C116 1.400 . S
C121 C120 1.389 . S
C122 P96 1.819 . S
C122 C123 1.391 . S
C122 C127 1.391 . S
C123 H105 0.941 . S
C123 C122 1.391 . S
C123 C124 1.396 . S
C124 H108 0.939 . S
C124 C123 1.396 . S
C124 C125 1.397 . S
C125 C124 1.397 . S
C125 C126 1.385 . S
C126 H109 0.940 . S
C126 C125 1.385 . S
C126 C127 1.388 . S
C127 H106 0.939 . S
C127 C122 1.391 . S
C127 C126 1.388 . S
P128 O139 1.490 . S
P128 C142 1.812 . S
P128 C148 1.803 . S
P128 C154 1.819 . S
H129 C143 0.941 . S
H130 C144 0.939 . S
H131 C146 0.940 . S
H132 C147 0.940 . S
H133 C149 0.939 . S
H134 C150 0.942 . S
H135 C152 0.940 . S
H136 C153 0.939 . S
H137 C155 0.941 . S
H138 C159 0.939 . S
O139 P128 1.490 . S
H140 C156 0.939 . S
H141 C158 0.940 . S
C142 P128 1.812 . S
C142 C143 1.389 . S
C142 C147 1.391 . S
C143 H129 0.941 . S
C143 C142 1.389 . S
C143 C144 1.397 . S
C144 H130 0.939 . S
C144 C143 1.397 . S
C144 C145 1.378 . S
C145 C144 1.378 . S
C145 C146 1.378 . S
C146 H131 0.940 . S
C146 C145 1.378 . S
C146 C147 1.396 . S
C147 H132 0.940 . S
C147 C142 1.391 . S
C147 C146 1.396 . S
C148 P128 1.803 . S
C148 C149 1.378 . S
C148 C153 1.400 . S
C149 H133 0.939 . S
C149 C148 1.378 . S
C149 C150 1.361 . S
C150 H134 0.942 . S
C150 C149 1.361 . S
C150 C151 1.369 . S
C151 C150 1.369 . S
C151 C152 1.404 . S
C152 H135 0.940 . S
C152 C151 1.404 . S
C152 C153 1.389 . S
C153 H136 0.939 . S
C153 C148 1.400 . S
C153 C152 1.389 . S
C154 P128 1.819 . S
C154 C155 1.391 . S
C154 C159 1.391 . S
C155 H137 0.941 . S
C155 C154 1.391 . S
C155 C156 1.396 . S
C156 H140 0.939 . S
C156 C155 1.396 . S
C156 C157 1.397 . S
C157 C156 1.397 . S
C157 C158 1.385 . S
C158 H141 0.940 . S
C158 C157 1.385 . S
C158 C159 1.388 . S
C159 H138 0.939 . S
C159 C154 1.391 . S
C159 C158 1.388 . S
P160 O171 1.490 . S
P160 C174 1.812 . S
P160 C180 1.803 . S
P160 C186 1.819 . S
H161 C175 0.941 . S
H162 C176 0.939 . S
H163 C178 0.940 . S
H164 C179 0.940 . S
H165 C181 0.939 . S
H166 C182 0.942 . S
H167 C184 0.940 . S
H168 C185 0.939 . S
H169 C187 0.941 . S
H170 C191 0.939 . S
O171 P160 1.490 . S
H172 C188 0.939 . S
H173 C190 0.940 . S
C174 P160 1.812 . S
C174 C175 1.389 . S
C174 C179 1.391 . S
C175 H161 0.941 . S
C175 C174 1.389 . S
C175 C176 1.397 . S
C176 H162 0.939 . S
C176 C175 1.397 . S
C176 C177 1.378 . S
C177 C176 1.378 . S
C177 C178 1.378 . S
C178 H163 0.940 . S
C178 C177 1.378 . S
C178 C179 1.396 . S
C179 H164 0.940 . S
C179 C174 1.391 . S
C179 C178 1.396 . S
C180 P160 1.803 . S
C180 C181 1.378 . S
C180 C185 1.400 . S
C181 H165 0.939 . S
C181 C180 1.378 . S
C181 C182 1.361 . S
C182 H166 0.942 . S
C182 C181 1.361 . S
C182 C183 1.369 . S
C183 C182 1.369 . S
C183 C184 1.404 . S
C184 H167 0.940 . S
C184 C183 1.404 . S
C184 C185 1.389 . S
C185 H168 0.939 . S
C185 C180 1.400 . S
C185 C184 1.389 . S
C186 P160 1.819 . S
C186 C187 1.391 . S
C186 C191 1.391 . S
C187 H169 0.941 . S
C187 C186 1.391 . S
C187 C188 1.396 . S
C188 H172 0.939 . S
C188 C187 1.396 . S
C188 C189 1.397 . S
C189 C188 1.397 . S
C189 C190 1.385 . S
C190 H173 0.940 . S
C190 C189 1.385 . S
C190 C191 1.388 . S
C191 H170 0.939 . S
C191 C186 1.391 . S
C191 C190 1.388 . S
P192 O203 1.490 . S
P192 C206 1.812 . S
P192 C212 1.803 . S
P192 C218 1.819 . S
H193 C207 0.941 . S
H194 C208 0.939 . S
H195 C210 0.940 . S
H196 C211 0.940 . S
H197 C213 0.939 . S
H198 C214 0.942 . S
H199 C216 0.940 . S
H200 C217 0.939 . S
H201 C219 0.941 . S
H202 C223 0.939 . S
O203 P192 1.490 . S
H204 C220 0.939 . S
H205 C222 0.940 . S
C206 P192 1.812 . S
C206 C207 1.389 . S
C206 C211 1.391 . S
C207 H193 0.941 . S
C207 C206 1.389 . S
C207 C208 1.397 . S
C208 H194 0.939 . S
C208 C207 1.397 . S
C208 C209 1.378 . S
C209 C208 1.378 . S
C209 C210 1.378 . S
C210 H195 0.940 . S
C210 C209 1.378 . S
C210 C211 1.396 . S
C211 H196 0.940 . S
C211 C206 1.391 . S
C211 C210 1.396 . S
C212 P192 1.803 . S
C212 C213 1.378 . S
C212 C217 1.400 . S
C213 H197 0.939 . S
C213 C212 1.378 . S
C213 C214 1.361 . S
C214 H198 0.942 . S
C214 C213 1.361 . S
C214 C215 1.369 . S
C215 C214 1.369 . S
C215 C216 1.404 . S
C216 H199 0.940 . S
C216 C215 1.404 . S
C216 C217 1.389 . S
C217 H200 0.939 . S
C217 C212 1.400 . S
C217 C216 1.389 . S
C218 P192 1.819 . S
C218 C219 1.391 . S
C218 C223 1.391 . S
C219 H201 0.941 . S
C219 C218 1.391 . S
C219 C220 1.396 . S
C220 H204 0.939 . S
C220 C219 1.396 . S
C220 C221 1.397 . S
C221 C220 1.397 . S
C221 C222 1.385 . S
C222 H205 0.940 . S
C222 C221 1.385 . S
C222 C223 1.388 . S
C223 H202 0.939 . S
C223 C218 1.391 . S
C223 C222 1.388 . S
P224 O235 1.490 . S
P224 C238 1.812 . S
P224 C244 1.803 . S
P224 C250 1.819 . S
H225 C239 0.941 . S
H226 C240 0.939 . S
H227 C242 0.940 . S
H228 C243 0.940 . S
H229 C245 0.939 . S
H230 C246 0.942 . S
H231 C248 0.940 . S
H232 C249 0.939 . S
H233 C251 0.941 . S
H234 C255 0.939 . S
O235 P224 1.490 . S
H236 C252 0.939 . S
H237 C254 0.940 . S
C238 P224 1.812 . S
C238 C239 1.389 . S
C238 C243 1.391 . S
C239 H225 0.941 . S
C239 C238 1.389 . S
C239 C240 1.397 . S
C240 H226 0.939 . S
C240 C239 1.397 . S
C240 C241 1.378 . S
C241 C240 1.378 . S
C241 C242 1.378 . S
C242 H227 0.940 . S
C242 C241 1.378 . S
C242 C243 1.396 . S
C243 H228 0.940 . S
C243 C238 1.391 . S
C243 C242 1.396 . S
C244 P224 1.803 . S
C244 C245 1.378 . S
C244 C249 1.400 . S
C245 H229 0.939 . S
C245 C244 1.378 . S
C245 C246 1.361 . S
C246 H230 0.942 . S
C246 C245 1.361 . S
C246 C247 1.369 . S
C247 C246 1.369 . S
C247 C248 1.404 . S
C248 H231 0.940 . S
C248 C247 1.404 . S
C248 C249 1.389 . S
C249 H232 0.939 . S
C249 C244 1.400 . S
C249 C248 1.389 . S
C250 P224 1.819 . S
C250 C251 1.391 . S
C250 C255 1.391 . S
C251 H233 0.941 . S
C251 C250 1.391 . S
C251 C252 1.396 . S
C252 H236 0.939 . S
C252 C251 1.396 . S
C252 C253 1.397 . S
C253 C252 1.397 . S
C253 C254 1.385 . S
C254 H237 0.940 . S
C254 C253 1.385 . S
C254 C255 1.388 . S
C255 H234 0.939 . S
C255 C250 1.391 . S
C255 C254 1.388 . S
Ho256 C259 2.811 . S
Ho256 O276 2.322 . S
Ho256 O278 2.378 . S
Ho256 O279 2.524 . S
Ho256 O280 2.381 1_545 S
Ho256 O281 2.669 1_545 S
Ho256 O283 2.346 1_445 S
Ho256 O287 2.305 1_455 S
Ho257 C268 2.811 . S
Ho257 O277 2.346 1_665 S
Ho257 O281 2.305 1_655 S
Ho257 O282 2.322 . S
Ho257 O284 2.378 . S
Ho257 O285 2.524 . S
Ho257 O286 2.381 1_565 S
Ho257 O287 2.669 1_565 S
C258 O276 1.259 . S
C258 O277 1.268 . S
C259 Ho256 2.811 . S
C259 C260 1.488 . S
C259 O278 1.215 . S
C259 O279 1.289 . S
C260 C259 1.488 . S
C260 C261 1.348 . S
C260 C265 1.413 . S
C261 C260 1.348 . S
C261 C262 1.442 . S
C261 H288 0.930 . S
C262 C261 1.442 . S
C262 C263 1.381 . S
C262 H289 0.931 . S
C263 C262 1.381 . S
C263 C264 1.321 . S
C264 C263 1.321 . S
C264 C265 1.403 . S
C264 H290 0.934 . S
C265 C260 1.413 . S
C265 C264 1.403 . S
C265 H291 0.930 . S
C266 O280 1.275 . S
C266 O281 1.256 . S
C267 O282 1.259 . S
C267 O283 1.268 . S
C268 Ho257 2.811 . S
C268 C269 1.488 . S
C268 O284 1.215 . S
C268 O285 1.289 . S
C269 C268 1.488 . S
C269 C270 1.348 . S
C269 C274 1.413 . S
C270 C269 1.348 . S
C270 C271 1.442 . S
C270 H292 0.930 . S
C271 C270 1.442 . S
C271 C272 1.381 . S
C271 H293 0.931 . S
C272 C271 1.381 . S
C272 C273 1.321 . S
C273 C272 1.321 . S
C273 C274 1.403 . S
C273 H294 0.934 . S
C274 C269 1.413 . S
C274 C273 1.403 . S
C274 H295 0.930 . S
C275 O286 1.275 . S
C275 O287 1.256 . S
O276 Ho256 2.322 . S
O276 C258 1.259 . S
O277 Ho257 2.346 1_445 S
O277 C258 1.268 . S
O278 Ho256 2.378 . S
O278 C259 1.215 . S
O279 Ho256 2.524 . S
O279 C259 1.289 . S
O280 Ho256 2.381 1_565 S
O280 C266 1.275 . S
O281 Ho256 2.669 1_565 S
O281 Ho257 2.305 1_455 S
O281 C266 1.256 . S
O282 Ho257 2.322 . S
O282 C267 1.259 . S
O283 Ho256 2.346 1_665 S
O283 C267 1.268 . S
O284 Ho257 2.378 . S
O284 C268 1.215 . S
O285 Ho257 2.524 . S
O285 C268 1.289 . S
O286 Ho257 2.381 1_545 S
O286 C275 1.275 . S
O287 Ho256 2.305 1_655 S
O287 Ho257 2.669 1_545 S
O287 C275 1.256 . S
H288 C261 0.930 . S
H289 C262 0.931 . S
H290 C264 0.934 . S
H291 C265 0.930 . S
H292 C270 0.930 . S
H293 C271 0.931 . S
H294 C273 0.934 . S
H295 C274 0.930 . S
Ho296 C299 2.811 . S
Ho296 O316 2.322 . S
Ho296 O318 2.378 . S
Ho296 O319 2.524 . S
Ho296 O320 2.381 1_545 S
Ho296 O321 2.669 1_545 S
Ho296 O323 2.346 1_544 S
Ho296 O327 2.305 1_554 S
Ho297 C308 2.811 1_545 S
Ho297 O317 2.346 1_556 S
Ho297 O321 2.305 1_546 S
Ho297 O322 2.322 1_545 S
Ho297 O324 2.376 1_545 S
Ho297 O325 2.524 1_545 S
Ho297 O326 2.381 . S
Ho297 O327 2.669 . S
C298 O316 1.259 . S
C298 O317 1.268 . S
C299 Ho296 2.811 . S
C299 C300 1.488 . S
C299 O318 1.215 . S
C299 O319 1.289 . S
C300 C299 1.488 . S
C300 C301 1.348 . S
C300 C305 1.413 . S
C301 C300 1.348 . S
C301 C302 1.442 . S
C301 H328 0.930 . S
C302 C301 1.442 . S
C302 C303 1.381 . S
C302 H329 0.931 . S
C303 C302 1.381 . S
C303 C304 1.321 . S
C304 C303 1.321 . S
C304 C305 1.403 . S
C304 H330 0.934 . S
C305 C300 1.413 . S
C305 C304 1.403 . S
C305 H331 0.930 . S
C306 O320 1.275 . S
C306 O321 1.256 . S
C307 O322 1.259 . S
C307 O323 1.268 . S
C308 Ho297 2.811 1_565 S
C308 C309 1.488 . S
C308 O324 1.239 . S
C308 O325 1.289 . S
C309 C308 1.488 . S
C309 C310 1.348 . S
C309 C314 1.413 . S
C310 C309 1.348 . S
C310 C311 1.442 . S
C310 H332 0.930 . S
C311 C310 1.442 . S
C311 C312 1.381 . S
C311 H333 0.931 . S
C312 C311 1.381 . S
C312 C313 1.321 . S
C313 C312 1.321 . S
C313 C314 1.403 . S
C313 H334 0.934 . S
C314 C309 1.413 . S
C314 C313 1.403 . S
C314 H335 0.930 . S
C315 O326 1.275 . S
C315 O327 1.256 . S
O316 Ho296 2.322 . S
O316 C298 1.259 . S
O317 Ho297 2.346 1_554 S
O317 C298 1.268 . S
O318 Ho296 2.378 . S
O318 C299 1.215 . S
O319 Ho296 2.524 . S
O319 C299 1.289 . S
O320 Ho296 2.381 1_565 S
O320 C306 1.275 . S
O321 Ho296 2.669 1_565 S
O321 Ho297 2.305 1_564 S
O321 C306 1.256 . S
O322 Ho297 2.322 1_565 S
O322 C307 1.259 . S
O323 Ho296 2.346 1_566 S
O323 C307 1.268 . S
O324 Ho297 2.376 1_565 S
O324 C308 1.239 . S
O325 Ho297 2.524 1_565 S
O325 C308 1.289 . S
O326 Ho297 2.381 . S
O326 C315 1.275 . S
O327 Ho296 2.305 1_556 S
O327 Ho297 2.669 . S
O327 C315 1.256 . S
H328 C301 0.930 . S
H329 C302 0.931 . S
H330 C304 0.934 . S
H331 C305 0.930 . S
H332 C310 0.930 . S
H333 C311 0.931 . S
H334 C313 0.934 . S
H335 C314 0.930 . S
Ho336 C339 2.811 . S
Ho336 O356 2.322 . S
Ho336 O358 2.378 . S
Ho336 O359 2.524 . S
Ho336 O360 2.381 . S
Ho336 O361 2.669 . S
Ho336 O363 2.346 . S
Ho336 O367 2.305 . S
Ho337 C348 2.811 . S
Ho337 O357 2.346 . S
Ho337 O361 2.305 . S
Ho337 O362 2.322 . S
Ho337 O364 2.378 . S
Ho337 O365 2.524 . S
Ho337 O366 2.381 . S
Ho337 O367 2.669 . S
C338 O356 1.259 . S
C338 O357 1.268 . S
C339 Ho336 2.811 . S
C339 C340 1.488 . S
C339 O358 1.215 . S
C339 O359 1.289 . S
C340 C339 1.488 . S
C340 C341 1.348 . S
C340 C345 1.413 . S
C341 C340 1.348 . S
C341 C342 1.442 . S
C341 H368 0.930 . S
C342 C341 1.442 . S
C342 C343 1.381 . S
C342 H369 0.931 . S
C343 C342 1.381 . S
C343 C344 1.321 . S
C344 C343 1.321 . S
C344 C345 1.403 . S
C344 H370 0.934 . S
C345 C340 1.413 . S
C345 C344 1.403 . S
C345 H371 0.930 . S
C346 O360 1.275 . S
C346 O361 1.256 . S
C347 O362 1.259 . S
C347 O363 1.268 . S
C348 Ho337 2.811 . S
C348 C349 1.488 . S
C348 O364 1.215 . S
C348 O365 1.289 . S
C349 C348 1.488 . S
C349 C350 1.348 . S
C349 C354 1.413 . S
C350 C349 1.348 . S
C350 C351 1.442 . S
C350 H372 0.930 . S
C351 C350 1.442 . S
C351 C352 1.381 . S
C351 H373 0.931 . S
C352 C351 1.381 . S
C352 C353 1.321 . S
C353 C352 1.321 . S
C353 C354 1.403 . S
C353 H374 0.934 . S
C354 C349 1.413 . S
C354 C353 1.403 . S
C354 H375 0.930 . S
C355 O366 1.275 . S
C355 O367 1.256 . S
O356 Ho336 2.322 . S
O356 C338 1.259 . S
O357 Ho337 2.346 . S
O357 C338 1.268 . S
O358 Ho336 2.378 . S
O358 C339 1.215 . S
O359 Ho336 2.524 . S
O359 C339 1.289 . S
O360 Ho336 2.381 . S
O360 C346 1.275 . S
O361 Ho336 2.669 . S
O361 Ho337 2.305 . S
O361 C346 1.256 . S
O362 Ho337 2.322 . S
O362 C347 1.259 . S
O363 Ho336 2.346 . S
O363 C347 1.268 . S
O364 Ho337 2.378 . S
O364 C348 1.215 . S
O365 Ho337 2.524 . S
O365 C348 1.289 . S
O366 Ho337 2.381 . S
O366 C355 1.275 . S
O367 Ho336 2.305 . S
O367 Ho337 2.669 . S
O367 C355 1.256 . S
H368 C341 0.930 . S
H369 C342 0.931 . S
H370 C344 0.934 . S
H371 C345 0.930 . S
H372 C350 0.930 . S
H373 C351 0.931 . S
H374 C353 0.934 . S
H375 C354 0.930 . S
Ho376 C379 2.811 . S
Ho376 O396 2.322 . S
Ho376 O398 2.378 . S
Ho376 O399 2.524 . S
Ho376 O400 2.381 1_455 S
Ho376 O401 2.669 1_455 S
Ho376 O403 2.349 1_455 S
Ho376 O407 2.305 1_554 S
Ho377 C388 2.811 . S
Ho377 O397 2.346 1_656 S
Ho377 O401 2.305 1_556 S
Ho377 O402 2.322 . S
Ho377 O404 2.378 . S
Ho377 O405 2.524 . S
Ho377 O406 2.381 1_655 S
Ho377 O407 2.669 1_655 S
C378 O396 1.259 . S
C378 O397 1.268 . S
C379 Ho376 2.811 . S
C379 C380 1.488 . S
C379 O398 1.215 . S
C379 O399 1.289 . S
C380 C379 1.488 . S
C380 C381 1.348 . S
C380 C385 1.413 . S
C381 C380 1.348 . S
C381 C382 1.442 . S
C381 H408 0.930 . S
C382 C381 1.442 . S
C382 C383 1.381 . S
C382 H409 0.931 . S
C383 C382 1.381 . S
C383 C384 1.321 . S
C384 C383 1.321 . S
C384 C385 1.403 . S
C384 H410 0.934 . S
C385 C380 1.413 . S
C385 C384 1.403 . S
C385 H411 0.930 . S
C386 O400 1.275 . S
C386 O401 1.256 . S
C387 O402 1.259 . S
C387 O403 1.264 1_556 S
C388 Ho377 2.811 . S
C388 C389 1.488 . S
C388 O404 1.215 . S
C388 O405 1.289 . S
C389 C388 1.488 . S
C389 C390 1.348 . S
C389 C394 1.413 . S
C390 C389 1.348 . S
C390 C391 1.442 . S
C390 H412 0.930 . S
C391 C390 1.442 . S
C391 C392 1.381 . S
C391 H413 0.931 . S
C392 C391 1.381 . S
C392 C393 1.321 . S
C393 C392 1.321 . S
C393 C394 1.403 . S
C393 H414 0.934 . S
C394 C389 1.413 . S
C394 C393 1.403 . S
C394 H415 0.930 . S
C395 O406 1.275 . S
C395 O407 1.256 . S
O396 Ho376 2.322 . S
O396 C378 1.259 . S
O397 Ho377 2.346 1_454 S
O397 C378 1.268 . S
O398 Ho376 2.378 . S
O398 C379 1.215 . S
O399 Ho376 2.524 . S
O399 C379 1.289 . S
O400 Ho376 2.381 1_655 S
O400 C386 1.275 . S
O401 Ho376 2.669 1_655 S
O401 Ho377 2.305 1_554 S
O401 C386 1.256 . S
O402 Ho377 2.322 . S
O402 C387 1.259 . S
O403 Ho376 2.349 1_655 S
O403 C387 1.264 1_554 S
O404 Ho377 2.378 . S
O404 C388 1.215 . S
O405 Ho377 2.524 . S
O405 C388 1.289 . S
O406 Ho377 2.381 1_455 S
O406 C395 1.275 . S
O407 Ho376 2.305 1_556 S
O407 Ho377 2.669 1_455 S
O407 C395 1.256 . S
H408 C381 0.930 . S
H409 C382 0.931 . S
H410 C384 0.934 . S
H411 C385 0.930 . S
H412 C390 0.930 . S
H413 C391 0.931 . S
H414 C393 0.934 . S
H415 C394 0.930 . S
H416 C422 0.930 . S
H417 C425 0.930 . S
H418 C426 0.930 . S
H419 C427 0.930 . S
H420 C430 0.930 . S
H421 C431 0.930 . S
C422 H416 0.930 . S
C422 C423 1.355 . S
C422 C424 1.415 . S
C423 C422 1.355 . S
C423 C425 1.419 . S
C424 C422 1.415 . S
C424 C429 1.425 . S
C424 C431 1.409 . S
C425 H417 0.930 . S
C425 C423 1.419 . S
C425 C426 1.362 . S
C426 H418 0.930 . S
C426 C425 1.362 . S
C426 C429 1.409 . S
C427 H419 0.930 . S
C427 C428 1.355 . S
C427 C429 1.415 . S
C428 C427 1.355 . S
C428 C430 1.419 . S
C429 C424 1.425 . S
C429 C426 1.409 . S
C429 C427 1.415 . S
C430 H420 0.930 . S
C430 C428 1.419 . S
C430 C431 1.362 . S
C431 H421 0.930 . S
C431 C424 1.409 . S
C431 C430 1.362 . S
H432 C438 0.930 . S
H433 C441 0.930 . S
H434 C442 0.930 . S
H435 C443 0.930 . S
H436 C446 0.930 . S
H437 C447 0.930 . S
C438 H432 0.930 . S
C438 C439 1.355 . S
C438 C440 1.415 . S
C439 C438 1.355 . S
C439 C441 1.419 . S
C440 C438 1.415 . S
C440 C445 1.425 . S
C440 C447 1.409 . S
C441 H433 0.930 . S
C441 C439 1.419 . S
C441 C442 1.362 . S
C442 H434 0.930 . S
C442 C441 1.362 . S
C442 C445 1.409 . S
C443 H435 0.930 . S
C443 C444 1.355 . S
C443 C445 1.415 . S
C444 C443 1.355 . S
C444 C446 1.419 . S
C445 C440 1.425 . S
C445 C442 1.409 . S
C445 C443 1.415 . S
C446 H436 0.930 . S
C446 C444 1.419 . S
C446 C447 1.362 . S
C447 H437 0.930 . S
C447 C440 1.409 . S
C447 C446 1.362 . S
H448 C454 0.930 . S
H449 C457 0.930 . S
H450 C458 0.930 . S
H451 C459 0.930 . S
H452 C462 0.930 . S
H453 C463 0.930 . S
C454 H448 0.930 . S
C454 C455 1.355 . S
C454 C456 1.415 . S
C455 C454 1.355 . S
C455 C457 1.419 . S
C456 C454 1.415 . S
C456 C461 1.425 . S
C456 C463 1.409 . S
C457 H449 0.930 . S
C457 C455 1.419 . S
C457 C458 1.362 . S
C458 H450 0.930 . S
C458 C457 1.362 . S
C458 C461 1.409 . S
C459 H451 0.930 . S
C459 C460 1.355 . S
C459 C461 1.415 . S
C460 C459 1.355 . S
C460 C462 1.419 . S
C461 C456 1.425 . S
C461 C458 1.409 . S
C461 C459 1.415 . S
C462 H452 0.930 . S
C462 C460 1.419 . S
C462 C463 1.362 . S
C463 H453 0.930 . S
C463 C456 1.409 . S
C463 C462 1.362 . S
H464 C470 0.930 . S
H465 C473 0.930 . S
H466 C474 0.930 . S
H467 C475 0.930 . S
H468 C478 0.930 . S
H469 C479 0.930 . S
C470 H464 0.930 . S
C470 C471 1.355 . S
C470 C472 1.415 . S
C471 C470 1.355 . S
C471 C473 1.419 . S
C472 C470 1.415 . S
C472 C477 1.425 . S
C472 C479 1.409 . S
C473 H465 0.930 . S
C473 C471 1.419 . S
C473 C474 1.362 . S
C474 H466 0.930 . S
C474 C473 1.362 . S
C474 C477 1.409 . S
C475 H467 0.930 . S
C475 C476 1.355 . S
C475 C477 1.415 . S
C476 C475 1.355 . S
C476 C478 1.419 . S
C477 C472 1.425 . S
C477 C474 1.409 . S
C477 C475 1.415 . S
C478 H468 0.930 . S
C478 C476 1.419 . S
C478 C479 1.362 . S
C479 H469 0.930 . S
C479 C472 1.409 . S
C479 C478 1.362 . S
H480 C486 0.930 . S
H481 C489 0.930 . S
H482 C490 0.930 . S
H483 C491 0.930 . S
H484 C494 0.930 . S
H485 C495 0.930 . S
C486 H480 0.930 . S
C486 C487 1.355 . S
C486 C488 1.415 . S
C487 C486 1.355 . S
C487 C489 1.419 . S
C488 C486 1.415 . S
C488 C493 1.425 . S
C488 C495 1.409 . S
C489 H481 0.930 . S
C489 C487 1.419 . S
C489 C490 1.362 . S
C490 H482 0.930 . S
C490 C489 1.362 . S
C490 C493 1.409 . S
C491 H483 0.930 . S
C491 C492 1.355 . S
C491 C493 1.415 . S
C492 C491 1.355 . S
C492 C494 1.419 . S
C493 C488 1.425 . S
C493 C490 1.409 . S
C493 C491 1.415 . S
C494 H484 0.930 . S
C494 C492 1.419 . S
C494 C495 1.362 . S
C495 H485 0.930 . S
C495 C488 1.409 . S
C495 C494 1.362 . S
H496 C502 0.930 . S
H497 C505 0.930 . S
H498 C506 0.930 . S
H499 C507 0.930 . S
H500 C510 0.930 1_545 S
H501 C511 0.930 . S
C502 H496 0.930 . S
C502 C503 1.355 . S
C502 C504 1.415 . S
C503 C502 1.355 . S
C503 C505 1.419 . S
C504 C502 1.415 . S
C504 C509 1.425 . S
C504 C511 1.409 . S
C505 H497 0.930 . S
C505 C503 1.419 . S
C505 C506 1.362 . S
C506 H498 0.930 . S
C506 C505 1.362 . S
C506 C509 1.409 . S
C507 H499 0.930 . S
C507 C508 1.355 . S
C507 C509 1.415 . S
C508 C507 1.355 . S
C508 C510 1.419 . S
C509 C504 1.425 . S
C509 C506 1.409 . S
C509 C507 1.415 . S
C510 H500 0.930 1_565 S
C510 C508 1.419 . S
C510 C511 1.362 . S
C511 H501 0.930 . S
C511 C504 1.409 . S
C511 C510 1.362 . S
H512 C518 0.930 . S
H513 C521 0.930 . S
H514 C522 0.930 . S
H515 C523 0.930 . S
H516 C526 0.930 . S
H517 C527 0.930 . S
C518 H512 0.930 . S
C518 C519 1.355 . S
C518 C520 1.415 . S
C519 C518 1.355 . S
C519 C521 1.419 . S
C520 C518 1.415 . S
C520 C525 1.425 . S
C520 C527 1.409 . S
C521 H513 0.930 . S
C521 C519 1.419 . S
C521 C522 1.362 . S
C522 H514 0.930 . S
C522 C521 1.362 . S
C522 C525 1.409 . S
C523 H515 0.930 . S
C523 C524 1.355 . S
C523 C525 1.415 . S
C524 C523 1.355 . S
C524 C526 1.419 . S
C525 C520 1.425 . S
C525 C522 1.409 . S
C525 C523 1.415 . S
C526 H516 0.930 . S
C526 C524 1.419 . S
C526 C527 1.362 . S
C527 H517 0.930 . S
C527 C520 1.409 . S
C527 C526 1.362 . S
H528 C534 0.930 . S
H529 C537 0.930 . S
H530 C538 0.930 . S
H531 C539 0.930 . S
H532 C542 0.930 . S
H533 C543 0.930 . S
C534 H528 0.930 . S
C534 C535 1.355 . S
C534 C536 1.415 . S
C535 C534 1.355 . S
C535 C537 1.419 . S
C536 C534 1.415 . S
C536 C541 1.425 . S
C536 C543 1.409 . S
C537 H529 0.930 . S
C537 C535 1.419 . S
C537 C538 1.362 . S
C538 H530 0.930 . S
C538 C537 1.362 . S
C538 C541 1.409 . S
C539 H531 0.930 . S
C539 C540 1.355 . S
C539 C541 1.415 . S
C540 C539 1.355 . S
C540 C542 1.419 . S
C541 C536 1.425 . S
C541 C538 1.409 . S
C541 C539 1.415 . S
C542 H532 0.930 . S
C542 C540 1.419 . S
C542 C543 1.362 . S
C543 H533 0.930 . S
C543 C536 1.409 . S
C543 C542 1.362 . S
H544 C550 0.930 . S
H545 C553 0.930 . S
H546 C554 0.930 . S
H547 C555 0.930 . S
H548 C558 0.930 . S
H549 C559 0.930 . S
C550 H544 0.930 . S
C550 C551 1.355 . S
C550 C552 1.415 . S
C551 C550 1.355 . S
C551 C553 1.419 . S
C552 C550 1.415 . S
C552 C557 1.425 . S
C552 C559 1.409 . S
C553 H545 0.930 . S
C553 C551 1.419 . S
C553 C554 1.362 . S
C554 H546 0.930 . S
C554 C553 1.362 . S
C554 C557 1.409 . S
C555 H547 0.930 . S
C555 C556 1.355 . S
C555 C557 1.415 . S
C556 C555 1.355 . S
C556 C558 1.419 . S
C557 C552 1.425 . S
C557 C554 1.409 . S
C557 C555 1.415 . S
C558 H548 0.930 . S
C558 C556 1.419 . S
C558 C559 1.362 . S
C559 H549 0.930 . S
C559 C552 1.409 . S
C559 C558 1.362 . S
H560 C566 0.930 . S
H561 C569 0.930 . S
H562 C570 0.930 . S
H563 C571 0.930 . S
H564 C574 0.930 . S
H565 C575 0.930 . S
C566 H560 0.930 . S
C566 C567 1.355 . S
C566 C568 1.415 . S
C567 C566 1.355 . S
C567 C569 1.419 . S
C568 C566 1.415 . S
C568 C573 1.425 . S
C568 C575 1.409 . S
C569 H561 0.930 . S
C569 C567 1.419 . S
C569 C570 1.362 . S
C570 H562 0.930 . S
C570 C569 1.362 . S
C570 C573 1.409 . S
C571 H563 0.930 . S
C571 C572 1.355 . S
C571 C573 1.415 . S
C572 C571 1.355 . S
C572 C574 1.419 . S
C573 C568 1.425 . S
C573 C570 1.409 . S
C573 C571 1.415 . S
C574 H564 0.930 . S
C574 C572 1.419 . S
C574 C575 1.362 . S
C575 H565 0.930 . S
C575 C568 1.409 . S
C575 C574 1.362 . S
H576 C582 0.930 . S
H577 C585 0.930 . S
H578 C586 0.930 . S
H579 C587 0.930 . S
H580 C590 0.930 . S
H581 C591 0.930 . S
C582 H576 0.930 . S
C582 C583 1.355 . S
C582 C584 1.415 . S
C583 C582 1.355 . S
C583 C585 1.419 . S
C584 C582 1.415 . S
C584 C589 1.425 . S
C584 C591 1.409 . S
C585 H577 0.930 . S
C585 C583 1.419 . S
C585 C586 1.362 . S
C586 H578 0.930 . S
C586 C585 1.362 . S
C586 C589 1.409 . S
C587 H579 0.930 . S
C587 C588 1.355 . S
C587 C589 1.415 . S
C588 C587 1.355 . S
C588 C590 1.419 . S
C589 C584 1.425 . S
C589 C586 1.409 . S
C589 C587 1.415 . S
C590 H580 0.930 . S
C590 C588 1.419 . S
C590 C591 1.362 . S
C591 H581 0.930 . S
C591 C584 1.409 . S
C591 C590 1.362 . S
H592 C598 0.930 . S
H593 C601 0.930 . S
H594 C602 0.930 . S
H595 C603 0.930 . S
H596 C606 0.930 . S
H597 C607 0.930 . S
C598 H592 0.930 . S
C598 C599 1.355 . S
C598 C600 1.415 . S
C599 C598 1.355 . S
C599 C601 1.419 . S
C600 C598 1.415 . S
C600 C605 1.425 . S
C600 C607 1.409 . S
C601 H593 0.930 . S
C601 C599 1.419 . S
C601 C602 1.362 . S
C602 H594 0.930 . S
C602 C601 1.362 . S
C602 C605 1.409 . S
C603 H595 0.930 . S
C603 C604 1.355 . S
C603 C605 1.415 . S
C604 C603 1.355 . S
C604 C606 1.419 . S
C605 C600 1.425 . S
C605 C602 1.409 . S
C605 C603 1.415 . S
C606 H596 0.930 . S
C606 C604 1.419 . S
C606 C607 1.362 . S
C607 H597 0.930 . S
C607 C600 1.409 . S
C607 C606 1.362 . S
H608 C614 0.930 . S
H609 C617 0.930 . S
H610 C618 0.930 . S
H611 C619 0.930 . S
H612 C622 0.930 . S
H613 C623 0.930 . S
C614 H608 0.930 . S
C614 C615 1.355 . S
C614 C616 1.415 . S
C615 C614 1.355 . S
C615 C617 1.419 . S
C616 C614 1.415 . S
C616 C621 1.425 . S
C616 C623 1.409 . S
C617 H609 0.930 . S
C617 C615 1.419 . S
C617 C618 1.362 . S
C618 H610 0.930 . S
C618 C617 1.362 . S
C618 C621 1.409 . S
C619 H611 0.930 . S
C619 C620 1.355 . S
C619 C621 1.415 . S
C620 C619 1.355 . S
C620 C622 1.419 . S
C621 C616 1.425 . S
C621 C618 1.409 . S
C621 C619 1.415 . S
C622 H612 0.930 . S
C622 C620 1.419 . S
C622 C623 1.362 . S
C623 H613 0.930 . S
C623 C616 1.409 . S
C623 C622 1.362 . S
H624 C630 0.930 . S
H625 C633 0.930 . S
H626 C634 0.930 . S
H627 C635 0.930 . S
H628 C638 0.930 . S
H629 C639 0.930 . S
C630 H624 0.930 . S
C630 C631 1.355 . S
C630 C632 1.415 . S
C631 C630 1.355 . S
C631 C633 1.419 . S
C632 C630 1.415 . S
C632 C637 1.425 . S
C632 C639 1.409 . S
C633 H625 0.930 . S
C633 C631 1.419 . S
C633 C634 1.362 . S
C634 H626 0.930 . S
C634 C633 1.362 . S
C634 C637 1.409 . S
C635 H627 0.930 . S
C635 C636 1.355 . S
C635 C637 1.415 . S
C636 C635 1.355 . S
C636 C638 1.419 . S
C637 C632 1.425 . S
C637 C634 1.409 . S
C637 C635 1.415 . S
C638 H628 0.930 . S
C638 C636 1.419 . S
C638 C639 1.362 . S
C639 H629 0.930 . S
C639 C632 1.409 . S
C639 C638 1.362 . S
H640 C646 0.930 . S
H641 C649 0.930 . S
H642 C650 0.930 . S
H643 C651 0.930 . S
H644 C654 0.930 . S
H645 C655 0.930 . S
C646 H640 0.930 . S
C646 C647 1.355 . S
C646 C648 1.415 . S
C647 C646 1.355 . S
C647 C649 1.419 . S
C648 C646 1.415 . S
C648 C653 1.425 . S
C648 C655 1.409 . S
C649 H641 0.930 . S
C649 C647 1.419 . S
C649 C650 1.362 . S
C650 H642 0.930 . S
C650 C649 1.362 . S
C650 C653 1.409 . S
C651 H643 0.930 . S
C651 C652 1.355 . S
C651 C653 1.415 . S
C652 C651 1.355 . S
C652 C654 1.419 . S
C653 C648 1.425 . S
C653 C650 1.409 . S
C653 C651 1.415 . S
C654 H644 0.930 . S
C654 C652 1.419 . S
C654 C655 1.362 . S
C655 H645 0.930 . S
C655 C648 1.409 . S
C655 C654 1.362 . S
H656 C662 0.930 . S
H657 C665 0.930 . S
H658 C666 0.930 . S
H659 C667 0.930 . S
H660 C670 0.930 . S
H661 C671 0.930 . S
C662 H656 0.930 . S
C662 C663 1.355 . S
C662 C664 1.415 . S
C663 C662 1.355 . S
C663 C665 1.419 . S
C664 C662 1.415 . S
C664 C669 1.425 . S
C664 C671 1.409 . S
C665 H657 0.930 . S
C665 C663 1.419 . S
C665 C666 1.362 . S
C666 H658 0.930 . S
C666 C665 1.362 . S
C666 C669 1.409 . S
C667 H659 0.930 . S
C667 C668 1.355 . S
C667 C669 1.415 . S
C668 C667 1.355 . S
C668 C670 1.419 . S
C669 C664 1.425 . S
C669 C666 1.409 . S
C669 C667 1.415 . S
C670 H660 0.930 . S
C670 C668 1.419 . S
C670 C671 1.362 . S
C671 H661 0.930 . S
C671 C664 1.409 . S
C671 C670 1.362 . S
H672 C678 0.930 . S
H673 C681 0.930 . S
H674 C682 0.930 . S
H675 C683 0.930 . S
H676 C686 0.930 . S
H677 C687 0.930 . S
C678 H672 0.930 . S
C678 C679 1.355 . S
C678 C680 1.415 . S
C679 C678 1.355 . S
C679 C681 1.419 . S
C680 C678 1.415 . S
C680 C685 1.425 . S
C680 C687 1.409 . S
C681 H673 0.930 . S
C681 C679 1.419 . S
C681 C682 1.362 . S
C682 H674 0.930 . S
C682 C681 1.362 . S
C682 C685 1.409 . S
C683 H675 0.930 . S
C683 C684 1.355 . S
C683 C685 1.415 . S
C684 C683 1.355 . S
C684 C686 1.419 . S
C685 C680 1.425 . S
C685 C682 1.409 . S
C685 C683 1.415 . S
C686 H676 0.930 . S
C686 C684 1.419 . S
C686 C687 1.362 . S
C687 H677 0.930 . S
C687 C680 1.409 . S
C687 C686 1.362 . S
H688 C694 0.930 . S
H689 C697 0.930 . S
H690 C698 0.930 . S
H691 C699 0.930 . S
H692 C702 0.930 . S
H693 C703 0.930 . S
C694 H688 0.930 . S
C694 C695 1.355 . S
C694 C696 1.415 . S
C695 C694 1.355 . S
C695 C697 1.419 . S
C696 C694 1.415 . S
C696 C701 1.425 . S
C696 C703 1.409 . S
C697 H689 0.930 . S
C697 C695 1.419 . S
C697 C698 1.362 . S
C698 H690 0.930 . S
C698 C697 1.362 . S
C698 C701 1.409 . S
C699 H691 0.930 . S
C699 C700 1.355 . S
C699 C701 1.415 . S
C700 C699 1.355 . S
C700 C702 1.419 . S
C701 C696 1.425 . S
C701 C698 1.409 . S
C701 C699 1.415 . S
C702 H692 0.930 . S
C702 C700 1.419 . S
C702 C703 1.362 . S
C703 H693 0.930 . S
C703 C696 1.409 . S
C703 C702 1.362 . S
H704 C710 0.930 . S
H705 C713 0.930 . S
H706 C714 0.930 . S
H707 C715 0.930 . S
H708 C718 0.930 . S
H709 C719 0.930 . S
C710 H704 0.930 . S
C710 C711 1.355 . S
C710 C712 1.415 . S
C711 C710 1.355 . S
C711 C713 1.419 . S
C712 C710 1.415 . S
C712 C717 1.425 . S
C712 C719 1.409 . S
C713 H705 0.930 . S
C713 C711 1.419 . S
C713 C714 1.362 . S
C714 H706 0.930 . S
C714 C713 1.362 . S
C714 C717 1.409 . S
C715 H707 0.930 . S
C715 C716 1.355 . S
C715 C717 1.415 . S
C716 C715 1.355 . S
C716 C718 1.419 . S
C717 C712 1.425 . S
C717 C714 1.409 . S
C717 C715 1.415 . S
C718 H708 0.930 . S
C718 C716 1.419 . S
C718 C719 1.362 . S
C719 H709 0.930 . S
C719 C712 1.409 . S
C719 C718 1.362 . S
H720 C726 0.930 . S
H721 C729 0.930 . S
H722 C730 0.930 . S
H723 C731 0.930 . S
H724 C734 0.930 . S
H725 C735 0.930 . S
C726 H720 0.930 . S
C726 C727 1.355 . S
C726 C728 1.415 . S
C727 C726 1.355 . S
C727 C729 1.419 . S
C728 C726 1.415 . S
C728 C733 1.425 . S
C728 C735 1.409 . S
C729 H721 0.930 . S
C729 C727 1.419 . S
C729 C730 1.362 . S
C730 H722 0.930 . S
C730 C729 1.362 . S
C730 C733 1.409 . S
C731 H723 0.930 . S
C731 C732 1.355 . S
C731 C733 1.415 . S
C732 C731 1.355 . S
C732 C734 1.419 . S
C733 C728 1.425 . S
C733 C730 1.409 . S
C733 C731 1.415 . S
C734 H724 0.930 . S
C734 C732 1.419 . S
C734 C735 1.362 . S
C735 H725 0.930 . S
C735 C728 1.409 . S
C735 C734 1.362 . S
H736 C742 0.930 . S
H737 C745 0.930 . S
H738 C746 0.930 . S
H739 C747 0.930 . S
H740 C750 0.930 . S
H741 C751 0.930 . S
C742 H736 0.930 . S
C742 C743 1.355 . S
C742 C744 1.415 . S
C743 C742 1.355 . S
C743 C745 1.419 . S
C744 C742 1.415 . S
C744 C749 1.425 . S
C744 C751 1.409 . S
C745 H737 0.930 . S
C745 C743 1.419 . S
C745 C746 1.362 . S
C746 H738 0.930 . S
C746 C745 1.362 . S
C746 C749 1.409 . S
C747 H739 0.930 . S
C747 C748 1.355 . S
C747 C749 1.415 . S
C748 C747 1.355 . S
C748 C750 1.419 . S
C749 C744 1.425 . S
C749 C746 1.409 . S
C749 C747 1.415 . S
C750 H740 0.930 . S
C750 C748 1.419 . S
C750 C751 1.362 . S
C751 H741 0.930 . S
C751 C744 1.409 . S
C751 C750 1.362 . S
H752 C758 0.930 . S
H753 C761 0.930 . S
H754 C762 0.930 . S
H755 C763 0.930 . S
H756 C766 0.930 . S
H757 C767 0.930 . S
C758 H752 0.930 . S
C758 C759 1.355 . S
C758 C760 1.415 . S
C759 C758 1.355 . S
C759 C761 1.419 . S
C760 C758 1.415 . S
C760 C765 1.425 . S
C760 C767 1.409 . S
C761 H753 0.930 . S
C761 C759 1.419 . S
C761 C762 1.362 . S
C762 H754 0.930 . S
C762 C761 1.362 . S
C762 C765 1.409 . S
C763 H755 0.930 . S
C763 C764 1.355 . S
C763 C765 1.415 . S
C764 C763 1.355 . S
C764 C766 1.419 . S
C765 C760 1.425 . S
C765 C762 1.409 . S
C765 C763 1.415 . S
C766 H756 0.930 . S
C766 C764 1.419 . S
C766 C767 1.362 . S
C767 H757 0.930 . S
C767 C760 1.409 . S
C767 C766 1.362 . S
H768 C774 0.930 . S
H769 C777 0.930 . S
H770 C778 0.930 . S
H771 C779 0.930 . S
H772 C782 0.930 . S
H773 C783 0.930 . S
C774 H768 0.930 . S
C774 C775 1.355 . S
C774 C776 1.415 . S
C775 C774 1.355 . S
C775 C777 1.419 . S
C776 C774 1.415 . S
C776 C781 1.425 . S
C776 C783 1.409 . S
C777 H769 0.930 . S
C777 C775 1.419 . S
C777 C778 1.362 . S
C778 H770 0.930 . S
C778 C777 1.362 . S
C778 C781 1.409 . S
C779 H771 0.930 . S
C779 C780 1.355 . S
C779 C781 1.415 . S
C780 C779 1.355 . S
C780 C782 1.419 . S
C781 C776 1.425 . S
C781 C778 1.409 . S
C781 C779 1.415 . S
C782 H772 0.930 . S
C782 C780 1.419 . S
C782 C783 1.362 . S
C783 H773 0.930 . S
C783 C776 1.409 . S
C783 C782 1.362 . S
H784 C790 0.930 . S
H785 C793 0.930 . S
H786 C794 0.930 . S
H787 C795 0.930 . S
H788 C798 0.930 . S
H789 C799 0.930 . S
C790 H784 0.930 . S
C790 C791 1.355 . S
C790 C792 1.415 . S
C791 C790 1.355 . S
C791 C793 1.419 . S
C792 C790 1.415 . S
C792 C797 1.425 . S
C792 C799 1.409 . S
C793 H785 0.930 . S
C793 C791 1.419 . S
C793 C794 1.362 . S
C794 H786 0.930 . S
C794 C793 1.362 . S
C794 C797 1.409 . S
C795 H787 0.930 . S
C795 C796 1.355 . S
C795 C797 1.415 . S
C796 C795 1.355 . S
C796 C798 1.419 . S
C797 C792 1.425 . S
C797 C794 1.409 . S
C797 C795 1.415 . S
C798 H788 0.930 . S
C798 C796 1.419 . S
C798 C799 1.362 . S
C799 H789 0.930 . S
C799 C792 1.409 . S
C799 C798 1.362 . S
C423 C29 1.264 . S
C428 C263 1.266 . S
C439 C49 1.016 . S
C444 C312 1.004 . S
C460 C338 2.502 . S
C455 C93 2.498 . S
C471 C119 2.320 . S
C476 C386 2.322 . S
C492 C298 2.326 . S
C487 C17 2.292 . S
C508 C266 0.783 . S
C503 C61 0.893 . S
C524 C387 1.920 . S
C519 C81 1.914 . S
C540 C355 1.673 . S
C535 C125 1.675 . S
C551 C23 1.627 . S
C556 C383 1.631 . S
C572 C315 2.299 . S
C567 C87 2.351 . S
C583 C113 2.308 . S
C588 C267 2.367 . S
C599 C55 0.995 . S
C604 C352 0.996 . S
C620 C272 1.200 . S
C615 C157 1.067 . S
C631 C189 1.032 . S
C636 C303 1.053 . S
C647 C221 2.490 . S
C652 C347 2.464 . S
C663 C253 2.397 . S
C668 C395 2.419 . S
C679 C145 2.089 . S
C684 C307 2.405 . S
C700 C275 0.791 . S
C695 C183 0.803 . S
C716 C378 1.931 . S
C711 C209 1.919 . S
C732 C346 1.644 . S
C727 C247 1.658 . S
C743 C151 1.518 . S
C748 C392 1.639 . S
C764 C306 2.295 . S
C759 C215 2.320 . S
C780 C258 2.335 . S
C775 C241 2.279 . S
C791 C177 0.975 . S
C796 C343 0.933 . S
