# Generated by pormake.
# Topology ptr, (4,4)-cn, num edge types: 1
# Building blocks:
#     Node 0, Type 0, BuildingBlock: GALJAG_clean_sbu_0, # of connection points: 4
#     Node 1, Type 0, BuildingBlock: GALJAG_clean_sbu_0, # of connection points: 4
#     Node 2, Type 0, BuildingBlock: GALJAG_clean_sbu_0, # of connection points: 4
#     Node 3, Type 0, BuildingBlock: GALJAG_clean_sbu_0, # of connection points: 4
#     Node 4, Type 0, BuildingBlock: GALJAG_clean_sbu_0, # of connection points: 4
#     Node 5, Type 0, BuildingBlock: GALJAG_clean_sbu_0, # of connection points: 4
#     Node 6, Type 0, BuildingBlock: GALJAG_clean_sbu_0, # of connection points: 4
#     Node 7, Type 0, BuildingBlock: GALJAG_clean_sbu_0, # of connection points: 4
#     Node 8, Type 0, BuildingBlock: GALJAG_clean_sbu_0, # of connection points: 4
#     Node 9, Type 0, BuildingBlock: GALJAG_clean_sbu_0, # of connection points: 4
#     Node 10, Type 0, BuildingBlock: GALJAG_clean_sbu_0, # of connection points: 4
#     Node 11, Type 0, BuildingBlock: GALJAG_clean_sbu_0, # of connection points: 4
#     Node 12, Type 0, BuildingBlock: GALJAG_clean_sbu_0, # of connection points: 4
#     Node 13, Type 0, BuildingBlock: GALJAG_clean_sbu_0, # of connection points: 4
#     Node 14, Type 0, BuildingBlock: GALJAG_clean_sbu_0, # of connection points: 4
#     Node 15, Type 0, BuildingBlock: GALJAG_clean_sbu_0, # of connection points: 4
#     Node 16, Type 0, BuildingBlock: GALJAG_clean_sbu_0, # of connection points: 4
#     Node 17, Type 0, BuildingBlock: GALJAG_clean_sbu_0, # of connection points: 4
#     Node 18, Type 1, BuildingBlock: MIFKUJ_clean_linker_1, # of connection points: 4
#     Node 19, Type 1, BuildingBlock: MIFKUJ_clean_linker_1, # of connection points: 4
#     Node 20, Type 1, BuildingBlock: MIFKUJ_clean_linker_1, # of connection points: 4
#     Node 21, Type 1, BuildingBlock: MIFKUJ_clean_linker_1, # of connection points: 4
#     Node 22, Type 1, BuildingBlock: MIFKUJ_clean_linker_1, # of connection points: 4
#     Node 23, Type 1, BuildingBlock: MIFKUJ_clean_linker_1, # of connection points: 4
#     Node 24, Type 1, BuildingBlock: MIFKUJ_clean_linker_1, # of connection points: 4
#     Node 25, Type 1, BuildingBlock: MIFKUJ_clean_linker_1, # of connection points: 4
#     Node 26, Type 1, BuildingBlock: MIFKUJ_clean_linker_1, # of connection points: 4
#     Node 27, Type 1, BuildingBlock: MIFKUJ_clean_linker_1, # of connection points: 4
#     Node 28, Type 1, BuildingBlock: MIFKUJ_clean_linker_1, # of connection points: 4
#     Node 29, Type 1, BuildingBlock: MIFKUJ_clean_linker_1, # of connection points: 4
#     Node 30, Type 1, BuildingBlock: MIFKUJ_clean_linker_1, # of connection points: 4
#     Node 31, Type 1, BuildingBlock: MIFKUJ_clean_linker_1, # of connection points: 4
#     Node 32, Type 1, BuildingBlock: MIFKUJ_clean_linker_1, # of connection points: 4
#     Node 33, Type 1, BuildingBlock: MIFKUJ_clean_linker_1, # of connection points: 4
#     Node 34, Type 1, BuildingBlock: MIFKUJ_clean_linker_1, # of connection points: 4
#     Node 35, Type 1, BuildingBlock: MIFKUJ_clean_linker_1, # of connection points: 4
#     Edge 36, Type (0, 1), BuildingBlock: KIFKEQ_clean_linker_1, # of connection points: 2
#     Edge 37, Type (0, 1), BuildingBlock: KIFKEQ_clean_linker_1, # of connection points: 2
#     Edge 38, Type (0, 1), BuildingBlock: KIFKEQ_clean_linker_1, # of connection points: 2
#     Edge 39, Type (0, 1), BuildingBlock: KIFKEQ_clean_linker_1, # of connection points: 2
#     Edge 40, Type (0, 1), BuildingBlock: KIFKEQ_clean_linker_1, # of connection points: 2
#     Edge 41, Type (0, 1), BuildingBlock: KIFKEQ_clean_linker_1, # of connection points: 2
#     Edge 42, Type (0, 1), BuildingBlock: KIFKEQ_clean_linker_1, # of connection points: 2
#     Edge 43, Type (0, 1), BuildingBlock: KIFKEQ_clean_linker_1, # of connection points: 2
#     Edge 44, Type (0, 1), BuildingBlock: KIFKEQ_clean_linker_1, # of connection points: 2
#     Edge 45, Type (0, 1), BuildingBlock: KIFKEQ_clean_linker_1, # of connection points: 2
#     Edge 46, Type (0, 1), BuildingBlock: KIFKEQ_clean_linker_1, # of connection points: 2
#     Edge 47, Type (0, 1), BuildingBlock: KIFKEQ_clean_linker_1, # of connection points: 2
#     Edge 48, Type (0, 1), BuildingBlock: KIFKEQ_clean_linker_1, # of connection points: 2
#     Edge 49, Type (0, 1), BuildingBlock: KIFKEQ_clean_linker_1, # of connection points: 2
#     Edge 50, Type (0, 1), BuildingBlock: KIFKEQ_clean_linker_1, # of connection points: 2
#     Edge 51, Type (0, 1), BuildingBlock: KIFKEQ_clean_linker_1, # of connection points: 2
#     Edge 52, Type (0, 1), BuildingBlock: KIFKEQ_clean_linker_1, # of connection points: 2
#     Edge 53, Type (0, 1), BuildingBlock: KIFKEQ_clean_linker_1, # of connection points: 2
#     Edge 54, Type (0, 1), BuildingBlock: KIFKEQ_clean_linker_1, # of connection points: 2
#     Edge 55, Type (0, 1), BuildingBlock: KIFKEQ_clean_linker_1, # of connection points: 2
#     Edge 56, Type (0, 1), BuildingBlock: KIFKEQ_clean_linker_1, # of connection points: 2
#     Edge 57, Type (0, 1), BuildingBlock: KIFKEQ_clean_linker_1, # of connection points: 2
#     Edge 58, Type (0, 1), BuildingBlock: KIFKEQ_clean_linker_1, # of connection points: 2
#     Edge 59, Type (0, 1), BuildingBlock: KIFKEQ_clean_linker_1, # of connection points: 2
#     Edge 60, Type (0, 1), BuildingBlock: KIFKEQ_clean_linker_1, # of connection points: 2
#     Edge 61, Type (0, 1), BuildingBlock: KIFKEQ_clean_linker_1, # of connection points: 2
#     Edge 62, Type (0, 1), BuildingBlock: KIFKEQ_clean_linker_1, # of connection points: 2
#     Edge 63, Type (0, 1), BuildingBlock: KIFKEQ_clean_linker_1, # of connection points: 2
#     Edge 64, Type (0, 1), BuildingBlock: KIFKEQ_clean_linker_1, # of connection points: 2
#     Edge 65, Type (0, 1), BuildingBlock: KIFKEQ_clean_linker_1, # of connection points: 2
#     Edge 66, Type (0, 1), BuildingBlock: KIFKEQ_clean_linker_1, # of connection points: 2
#     Edge 67, Type (0, 1), BuildingBlock: KIFKEQ_clean_linker_1, # of connection points: 2
#     Edge 68, Type (0, 1), BuildingBlock: KIFKEQ_clean_linker_1, # of connection points: 2
#     Edge 69, Type (0, 1), BuildingBlock: KIFKEQ_clean_linker_1, # of connection points: 2
#     Edge 70, Type (0, 1), BuildingBlock: KIFKEQ_clean_linker_1, # of connection points: 2
#     Edge 71, Type (0, 1), BuildingBlock: KIFKEQ_clean_linker_1, # of connection points: 2
#     Edge 72, Type (0, 1), BuildingBlock: KIFKEQ_clean_linker_1, # of connection points: 2
#     Edge 73, Type (0, 1), BuildingBlock: KIFKEQ_clean_linker_1, # of connection points: 2
#     Edge 74, Type (0, 1), BuildingBlock: KIFKEQ_clean_linker_1, # of connection points: 2
#     Edge 75, Type (0, 1), BuildingBlock: KIFKEQ_clean_linker_1, # of connection points: 2
#     Edge 76, Type (0, 1), BuildingBlock: KIFKEQ_clean_linker_1, # of connection points: 2
#     Edge 77, Type (0, 1), BuildingBlock: KIFKEQ_clean_linker_1, # of connection points: 2
#     Edge 78, Type (0, 1), BuildingBlock: KIFKEQ_clean_linker_1, # of connection points: 2
#     Edge 79, Type (0, 1), BuildingBlock: KIFKEQ_clean_linker_1, # of connection points: 2
#     Edge 80, Type (0, 1), BuildingBlock: KIFKEQ_clean_linker_1, # of connection points: 2
#     Edge 81, Type (0, 1), BuildingBlock: KIFKEQ_clean_linker_1, # of connection points: 2
#     Edge 82, Type (0, 1), BuildingBlock: KIFKEQ_clean_linker_1, # of connection points: 2
#     Edge 83, Type (0, 1), BuildingBlock: KIFKEQ_clean_linker_1, # of connection points: 2
#     Edge 84, Type (0, 1), BuildingBlock: KIFKEQ_clean_linker_1, # of connection points: 2
#     Edge 85, Type (0, 1), BuildingBlock: KIFKEQ_clean_linker_1, # of connection points: 2
#     Edge 86, Type (0, 1), BuildingBlock: KIFKEQ_clean_linker_1, # of connection points: 2
#     Edge 87, Type (0, 1), BuildingBlock: KIFKEQ_clean_linker_1, # of connection points: 2
#     Edge 88, Type (0, 1), BuildingBlock: KIFKEQ_clean_linker_1, # of connection points: 2
#     Edge 89, Type (0, 1), BuildingBlock: KIFKEQ_clean_linker_1, # of connection points: 2
#     Edge 90, Type (0, 1), BuildingBlock: KIFKEQ_clean_linker_1, # of connection points: 2
#     Edge 91, Type (0, 1), BuildingBlock: KIFKEQ_clean_linker_1, # of connection points: 2
#     Edge 92, Type (0, 1), BuildingBlock: KIFKEQ_clean_linker_1, # of connection points: 2
#     Edge 93, Type (0, 1), BuildingBlock: KIFKEQ_clean_linker_1, # of connection points: 2
#     Edge 94, Type (0, 1), BuildingBlock: KIFKEQ_clean_linker_1, # of connection points: 2
#     Edge 95, Type (0, 1), BuildingBlock: KIFKEQ_clean_linker_1, # of connection points: 2
#     Edge 96, Type (0, 1), BuildingBlock: KIFKEQ_clean_linker_1, # of connection points: 2
#     Edge 97, Type (0, 1), BuildingBlock: KIFKEQ_clean_linker_1, # of connection points: 2
#     Edge 98, Type (0, 1), BuildingBlock: KIFKEQ_clean_linker_1, # of connection points: 2
#     Edge 99, Type (0, 1), BuildingBlock: KIFKEQ_clean_linker_1, # of connection points: 2
#     Edge 100, Type (0, 1), BuildingBlock: KIFKEQ_clean_linker_1, # of connection points: 2
#     Edge 101, Type (0, 1), BuildingBlock: KIFKEQ_clean_linker_1, # of connection points: 2
#     Edge 102, Type (0, 1), BuildingBlock: KIFKEQ_clean_linker_1, # of connection points: 2
#     Edge 103, Type (0, 1), BuildingBlock: KIFKEQ_clean_linker_1, # of connection points: 2
#     Edge 104, Type (0, 1), BuildingBlock: KIFKEQ_clean_linker_1, # of connection points: 2
#     Edge 105, Type (0, 1), BuildingBlock: KIFKEQ_clean_linker_1, # of connection points: 2
#     Edge 106, Type (0, 1), BuildingBlock: KIFKEQ_clean_linker_1, # of connection points: 2
#     Edge 107, Type (0, 1), BuildingBlock: KIFKEQ_clean_linker_1, # of connection points: 2
# Relax obj value: 0.053
# Max RMSD: 0.081
# Mean RMSD: 0.075
data_MOF--net-ptr--node1-GALJAG_clean_sbu_0--node2-MIFKUJ_clean_linker_1--edge1-KIFKEQ_clean_linker_1
_symmetry_space_group_name_H-M    P1
_symmetry_Int_Tables_number       1
_symmetry_cell_setting            triclinic
loop_
_symmetry_equiv_pos_as_xyz
'x, y, z'
_cell_length_a     89.872293
_cell_length_b     89.9525
_cell_length_c     65.876085
_cell_angle_alpha  89.998727
_cell_angle_beta   90.009588
_cell_angle_gamma 120.08044
loop_
_atom_site_label
_atom_site_type_symbol
_atom_site_fract_x
_atom_site_fract_y
_atom_site_fract_z
_atom_type_partial_charge
In0 In 1.00045 0.35332 0.0165 0.0
O1 O 0.98642 0.35553 0.04456 0.0
O2 O 0.00853 0.37802 0.03392 0.0
C3 C 0.97715 0.32271 1.00051 0.0
C4 C 0.02395 0.34671 0.03342 0.0
C5 C 0.00389 0.37287 0.98376 0.0
O6 O 0.97299 0.33082 0.01278 0.0
O7 O 0.99304 0.32987 0.99674 0.0
O8 O 0.01661 0.37272 0.99174 0.0
O9 O 0.98966 0.36326 0.9923 0.0
C10 C 0.99668 0.37141 0.04693 0.0
O11 O 0.02732 0.3563 0.01806 0.0
O12 O 0.00878 0.3404 0.03996 0.0
In13 In 0.64785 0.64854 0.01288 0.0
O14 O 0.64369 0.62859 0.0371 0.0
O15 O 0.6261 0.63794 0.03585 0.0
C16 C 0.6779 0.65451 0.99624 0.0
C17 C 0.65581 0.67878 0.03038 0.0
C18 C 0.62534 0.63145 0.98259 0.0
O19 O 0.67103 0.64439 0.01101 0.0
O20 O 0.66977 0.66172 0.9902 0.0
O21 O 0.63126 0.64729 0.98564 0.0
O22 O 0.63069 0.62438 0.99479 0.0
C23 C 0.63049 0.62818 0.04448 0.0
O24 O 0.64646 0.67324 0.01473 0.0
O25 O 0.66138 0.66927 0.03684 0.0
In26 In 0.35473 0.00259 0.01389 0.0
O27 O 0.35861 0.02977 0.0119 0.0
O28 O 0.33943 0.01038 0.99327 0.0
C29 C 0.37581 0.00595 0.04491 0.0
C30 C 0.37198 0.99885 0.98245 0.0
C31 C 0.32477 0.9796 0.03143 0.0
O32 O 0.37402 0.01829 0.0388 0.0
O33 O 0.36712 0.99208 0.03527 0.0
O34 O 0.32962 0.97669 0.01462 0.0
O35 O 0.33483 0.99413 0.03905 0.0
C36 C 0.34721 0.02596 0.9985 0.0
O37 O 0.35742 0.98686 0.98803 0.0
O38 O 0.37768 0.01242 0.99276 0.0
In39 In 0.00263 0.64782 0.01486 0.0
O40 O 0.01663 0.64637 0.98641 0.0
O41 O 0.99371 0.62391 0.99566 0.0
C42 C 0.02638 0.67804 0.03127 0.0
C43 C 0.97853 0.65377 0.99858 0.0
C44 C 0.99964 0.62763 0.0467 0.0
O45 O 0.03028 0.67013 0.01841 0.0
O46 O 0.01058 0.67085 0.03548 0.0
O47 O 0.98877 0.63235 0.04334 0.0
O48 O 0.01177 0.63304 0.03404 0.0
C49 C 0.00588 0.63073 0.98305 0.0
O50 O 0.97489 0.64218 0.01169 0.0
O51 O 0.99425 0.66238 0.99398 0.0
In52 In 0.35443 0.35515 0.01641 0.0
O53 O 0.35584 0.37075 0.98805 0.0
O54 O 0.37895 0.37271 0.99895 0.0
C55 C 0.32421 0.3488 0.0327 0.0
C56 C 0.34753 0.32515 0.99895 0.0
C57 C 0.37432 0.36966 0.04951 0.0
O58 O 0.33341 0.36189 0.02195 0.0
O59 O 0.33012 0.33879 0.03495 0.0
O60 O 0.37329 0.35661 0.04093 0.0
O61 O 0.36535 0.37524 0.04143 0.0
C62 C 0.37185 0.37719 0.98574 0.0
O63 O 0.35823 0.33189 0.01326 0.0
O64 O 0.34021 0.3334 0.99375 0.0
In65 In 0.64822 0.00122 0.01495 0.0
O66 O 0.64662 0.01507 0.04344 0.0
O67 O 0.62395 0.99277 0.03336 0.0
C68 C 0.67877 0.02465 0.99904 0.0
C69 C 0.65397 0.97706 0.03142 0.0
C70 C 0.62884 0.99894 0.98251 0.0
O71 O 0.6709 0.02862 0.01189 0.0
O72 O 0.67138 0.0089 0.99457 0.0
O73 O 0.63195 0.98709 0.98701 0.0
O74 O 0.63541 0.01165 0.99437 0.0
C75 C 0.6308 0.00468 0.04628 0.0
O76 O 0.64243 0.97344 0.01824 0.0
O77 O 0.66264 0.99278 0.03596 0.0
In78 In 0.66892 0.68941 0.34716 0.0
O79 O 0.65461 0.69031 0.37565 0.0
O80 O 0.67738 0.71305 0.36674 0.0
C81 C 0.6444 0.65975 0.33021 0.0
C82 C 0.69289 0.68334 0.36376 0.0
C83 C 0.67393 0.71047 0.31546 0.0
O84 O 0.64082 0.66824 0.34256 0.0
O85 O 0.66024 0.66608 0.32677 0.0
O86 O 0.68327 0.70386 0.31838 0.0
O87 O 0.6622 0.70643 0.32842 0.0
C88 C 0.66517 0.70596 0.37925 0.0
O89 O 0.69664 0.6952 0.35102 0.0
O90 O 0.67708 0.67445 0.36784 0.0
In91 In 0.31409 0.98049 0.34956 0.0
O92 O 0.31301 0.96538 0.378 0.0
O93 O 0.28968 0.96331 0.36731 0.0
C94 C 0.34468 0.9871 0.3338 0.0
C95 C 0.31891 0.00964 0.36738 0.0
C96 C 0.29327 0.96415 0.31773 0.0
O97 O 0.33578 0.97437 0.34512 0.0
O98 O 0.33839 0.99667 0.33089 0.0
O99 O 0.29745 0.97937 0.32246 0.0
O100 O 0.29953 0.95734 0.32902 0.0
C101 C 0.29699 0.95893 0.38043 0.0
O102 O 0.31144 0.00457 0.35045 0.0
O103 O 0.32409 1.0002 0.37502 0.0
In104 In 0.02063 0.33309 0.34771 0.0
O105 O 0.02912 0.36161 0.34368 0.0
O106 O 0.00536 0.343 0.33068 0.0
C107 C 0.0434 0.34394 0.37892 0.0
C108 C 0.03223 0.3229 0.31558 0.0
C109 C 0.99079 0.30743 0.36294 0.0
O110 O 0.04805 0.34716 0.36062 0.0
O111 O 0.02735 0.33577 0.38145 0.0
O112 O 1.00097 0.3045 0.35279 0.0
O113 O 0.99553 0.32312 0.36492 0.0
C114 C 0.01609 0.3587 0.33335 0.0
O115 O 0.02441 0.33116 0.31377 0.0
O116 O 0.03368 0.31912 0.33363 0.0
In117 In 0.66751 0.97988 0.34686 0.0
O118 O 0.68279 0.97925 0.31915 0.0
O119 O 0.6612 0.95588 0.32876 0.0
C120 C 0.68993 0.00992 0.36466 0.0
C121 C 0.64332 0.9858 0.33042 0.0
C122 C 0.66408 0.95968 0.37879 0.0
O123 O 0.69378 0.00439 0.34904 0.0
O124 O 0.67477 1.00047 0.37099 0.0
O125 O 0.65153 0.96062 0.37158 0.0
O126 O 0.67824 0.96883 0.36982 0.0
C127 C 0.67335 0.96331 0.31627 0.0
O128 O 0.63969 0.97416 0.3434 0.0
O129 O 0.65904 0.99449 0.32602 0.0
In130 In 0.02285 0.69013 0.34875 0.0
O131 O 0.02344 0.70492 0.31992 0.0
O132 O 0.04714 0.70906 0.33181 0.0
C133 C 0.99256 0.68271 0.36587 0.0
C134 C 0.01752 0.66033 0.33206 0.0
C135 C 0.04268 0.70595 0.38139 0.0
O136 O 0.9997 0.69405 0.35228 0.0
O137 O 1.00052 0.67493 0.37046 0.0
O138 O 0.04187 0.69274 0.37351 0.0
O139 O 0.03355 0.71112 0.37277 0.0
C140 C 0.03959 0.7126 0.31817 0.0
O141 O 0.02882 0.66827 0.34546 0.0
O142 O 0.00882 0.66727 0.32735 0.0
In143 In 0.316 0.33542 0.34807 0.0
O144 O 0.31504 0.30946 0.34843 0.0
O145 O 0.32571 0.32593 0.374 0.0
C146 C 0.29635 0.33231 0.31551 0.0
C147 C 0.2971 0.33821 0.37801 0.0
C148 C 0.34725 0.35906 0.33383 0.0
O149 O 0.29809 0.31998 0.32177 0.0
O150 O 0.30447 0.34598 0.32564 0.0
O151 O 0.3387 0.36293 0.34575 0.0
O152 O 0.34022 0.3433 0.32958 0.0
C153 C 0.32171 0.31172 0.36587 0.0
O154 O 0.31267 0.34949 0.37515 0.0
O155 O 0.29119 0.32579 0.36569 0.0
In156 In 0.33597 0.02272 0.68209 0.0
O157 O 0.36317 0.02671 0.68404 0.0
O158 O 0.34337 0.0061 0.70077 0.0
C159 C 0.34169 0.04614 0.65296 0.0
C160 C 0.33202 0.03849 0.71489 0.0
C161 C 0.31154 0.99358 0.66408 0.0
O162 O 0.35101 0.03937 0.65486 0.0
O163 O 0.3298 0.0413 0.66589 0.0
O164 O 0.3103 0.99713 0.68233 0.0
O165 O 0.32502 0.00454 0.6552 0.0
C166 C 0.35911 0.01439 0.69618 0.0
O167 O 0.31933 0.02696 0.70521 0.0
O168 O 0.34651 0.04194 0.70804 0.0
In169 In 0.98035 0.31302 0.68135 0.0
O170 O 0.97593 0.33588 0.68432 0.0
O171 O 0.99535 0.33569 0.70259 0.0
C172 C 0.95904 0.29521 0.65038 0.0
C173 C 0.96464 0.29179 0.71314 0.0
C174 C 0.01093 0.32194 0.66406 0.0
O175 O 0.96013 0.30885 0.6572 0.0
O176 O 0.96848 0.2906 0.65928 0.0
O177 O 0.00544 0.31242 0.67957 0.0
O178 O 1.00112 0.32716 0.65756 0.0
C179 C 0.98734 0.34335 0.69779 0.0
O180 O 0.97794 0.29311 0.70492 0.0
O181 O 0.95931 0.30103 0.70525 0.0
In182 In 0.68788 0.66797 0.68126 0.0
O183 O 0.69209 0.69514 0.67882 0.0
O184 O 0.67226 0.67549 0.66091 0.0
C185 C 0.70924 0.6713 0.71208 0.0
C186 C 0.70474 0.6656 0.64856 0.0
C187 C 0.65762 0.64422 0.69766 0.0
O188 O 0.7048 0.68236 0.70877 0.0
O189 O 0.70302 0.65885 0.69986 0.0
O190 O 0.66475 0.64068 0.68341 0.0
O191 O 0.66561 0.6597 0.70332 0.0
C192 C 0.68036 0.69118 0.66579 0.0
O193 O 0.69112 0.65285 0.6552 0.0
O194 O 0.70973 0.67931 0.65841 0.0
In195 In 0.33414 0.31419 0.67977 0.0
O196 O 0.34842 0.31337 0.65134 0.0
O197 O 0.32651 0.29017 0.66112 0.0
C198 C 0.35828 0.34428 0.69629 0.0
C199 C 0.31002 0.31965 0.66238 0.0
C200 C 0.32971 0.29332 0.71149 0.0
O201 O 0.36203 0.33577 0.68422 0.0
O202 O 0.34242 0.33778 0.6997 0.0
O203 O 0.31956 0.29893 0.7081 0.0
O204 O 0.34191 0.29825 0.69899 0.0
C205 C 0.33852 0.29748 0.64836 0.0
O206 O 0.30655 0.30922 0.67687 0.0
O207 O 0.32556 0.32738 0.65696 0.0
In208 In 0.68916 0.02276 0.6811 0.0
O209 O 0.6884 0.03701 0.65252 0.0
O210 O 0.71231 0.03954 0.6614 0.0
C211 C 0.65954 0.01793 0.69785 0.0
C212 C 0.68422 0.99342 0.66362 0.0
C213 C 0.71048 0.03787 0.71301 0.0
O214 O 0.67002 0.03167 0.68895 0.0
O215 O 0.66388 0.0066 0.69807 0.0
O216 O 0.70244 0.02176 0.71061 0.0
O217 O 0.70768 0.04608 0.69949 0.0
C218 C 0.70429 0.04357 0.64893 0.0
O219 O 0.69599 0.00159 0.67648 0.0
O220 O 0.67494 0.99994 0.65988 0.0
In221 In 0.98135 0.66606 0.68206 0.0
O222 O 0.97749 0.63901 0.68464 0.0
O223 O 0.99737 0.6589 0.70223 0.0
C224 C 0.95971 0.66227 0.65136 0.0
C225 C 0.96458 0.66832 0.71488 0.0
C226 C 0.01127 0.69039 0.66564 0.0
O227 O 0.96471 0.6516 0.65438 0.0
O228 O 0.96551 0.67454 0.66382 0.0
O229 O 0.00394 0.69362 0.67992 0.0
O230 O 0.00368 0.67491 0.65997 0.0
C231 C 0.98936 0.64318 0.69753 0.0
O232 O 0.97812 0.68111 0.70815 0.0
O233 O 0.95961 0.65459 0.70507 0.0
H234 H 0.15183 0.34754 0.19613 0.0
H235 H 0.12918 0.34556 0.21847 0.0
H236 H 0.09256 0.29797 0.18956 0.0
H237 H 0.11537 0.30004 0.16717 0.0
H238 H 0.16333 0.32457 0.19412 0.0
H239 H 0.13988 0.34947 0.14982 0.0
H240 H 0.11845 0.35231 0.13 0.0
H241 H 0.10758 0.30703 0.09565 0.0
H242 H 0.12879 0.30404 0.1159 0.0
H243 H 0.18343 0.3005 0.13349 0.0
H244 H 0.20827 0.30403 0.1142 0.0
H245 H 0.22749 0.35871 0.11044 0.0
H246 H 0.20301 0.35505 0.13052 0.0
H247 H 0.16314 0.32607 0.11884 0.0
H248 H 0.18472 0.29991 0.17163 0.0
H249 H 0.20725 0.30045 0.19314 0.0
H250 H 0.22307 0.35259 0.2108 0.0
H251 H 0.20081 0.35204 0.1889 0.0
C252 C 0.13527 0.32398 0.17996 0.0
C253 C 0.1389 0.33676 0.19449 0.0
C254 C 0.12593 0.33565 0.20717 0.0
C255 C 0.1091 0.32161 0.20575 0.0
C256 C 0.10544 0.30888 0.19106 0.0
C257 C 0.11841 0.31011 0.17818 0.0
C258 C 0.14939 0.32471 0.16754 0.0
C259 C 0.16322 0.32487 0.17765 0.0
C260 C 0.14928 0.32509 0.14606 0.0
C261 C 0.1358 0.32641 0.13452 0.0
C262 C 0.13272 0.34001 0.13822 0.0
C263 C 0.1206 0.34173 0.12671 0.0
C264 C 0.11134 0.32992 0.11121 0.0
C265 C 0.11437 0.31625 0.10762 0.0
C266 C 0.12655 0.31457 0.1191 0.0
C267 C 0.19155 0.32755 0.13356 0.0
C268 C 0.19311 0.31324 0.12861 0.0
C269 C 0.20724 0.31528 0.11741 0.0
C270 C 0.21997 0.33168 0.11074 0.0
C271 C 0.21816 0.34594 0.1156 0.0
C272 C 0.20411 0.34388 0.12693 0.0
C273 C 0.17674 0.32556 0.14549 0.0
C274 C 0.16294 0.32538 0.13529 0.0
C275 C 0.17687 0.3253 0.16688 0.0
C276 C 0.1913 0.32602 0.1785 0.0
C277 C 0.1933 0.31156 0.17982 0.0
C278 C 0.20605 0.31183 0.19228 0.0
C279 C 0.21696 0.32656 0.20369 0.0
C280 C 0.21507 0.34113 0.20199 0.0
C281 C 0.20231 0.34082 0.18957 0.0
H282 H 0.70821 0.8759 0.18818 0.0
H283 H 0.70935 0.89728 0.21201 0.0
H284 H 0.65928 0.88669 0.19178 0.0
H285 H 0.65793 0.86492 0.16833 0.0
H286 H 0.68731 0.84336 0.18971 0.0
H287 H 0.69912 0.88667 0.14001 0.0
H288 H 0.69526 0.90772 0.12071 0.0
H289 H 0.64566 0.86738 0.10015 0.0
H290 H 0.64943 0.8464 0.11973 0.0
H291 H 0.64809 0.79933 0.12595 0.0
H292 H 0.64485 0.77461 0.10642 0.0
H293 H 0.69919 0.79327 0.11277 0.0
H294 H 0.70231 0.81773 0.13281 0.0
H295 H 0.67121 0.8357 0.11693 0.0
H296 H 0.65907 0.7929 0.16731 0.0
H297 H 0.66094 0.77252 0.19023 0.0
H298 H 0.7109 0.8124 0.21033 0.0
H299 H 0.70924 0.83267 0.18696 0.0
C300 C 0.68301 0.86879 0.17637 0.0
C301 C 0.69752 0.87826 0.18872 0.0
C302 C 0.69817 0.89047 0.20233 0.0
C303 C 0.68438 0.89359 0.20377 0.0
C304 C 0.67016 0.88466 0.19083 0.0
C305 C 0.66941 0.87225 0.17738 0.0
C306 C 0.68155 0.85431 0.16391 0.0
C307 C 0.68419 0.84193 0.17365 0.0
C308 C 0.67678 0.85206 0.14315 0.0
C309 C 0.67448 0.86495 0.13156 0.0
C310 C 0.68731 0.88237 0.13158 0.0
C311 C 0.68511 0.89439 0.1205 0.0
C312 C 0.67015 0.8892 0.10894 0.0
C313 C 0.6574 0.87174 0.10876 0.0
C314 C 0.65954 0.85975 0.11998 0.0
C315 C 0.67541 0.81026 0.13086 0.0
C316 C 0.65928 0.79806 0.12315 0.0
C317 C 0.65744 0.78397 0.11209 0.0
C318 C 0.67178 0.78213 0.10813 0.0
C319 C 0.68798 0.7945 0.11558 0.0
C320 C 0.68975 0.80838 0.12704 0.0
C321 C 0.67727 0.82506 0.14274 0.0
C322 C 0.67461 0.83737 0.1329 0.0
C323 C 0.6821 0.82732 0.16341 0.0
C324 C 0.68409 0.81433 0.17522 0.0
C325 C 0.6707 0.79715 0.17609 0.0
C326 C 0.67173 0.78551 0.18928 0.0
C327 C 0.68603 0.79092 0.20211 0.0
C328 C 0.69967 0.80794 0.20073 0.0
C329 C 0.69873 0.8195 0.18737 0.0
H330 H 0.12805 0.83396 0.18907 0.0
H331 H 0.10667 0.81392 0.2131 0.0
H332 H 0.11652 0.77401 0.19288 0.0
H333 H 0.13819 0.79419 0.1691 0.0
H334 H 0.1609 0.84495 0.19035 0.0
H335 H 0.11623 0.81357 0.14115 0.0
H336 H 0.095 0.78871 0.12179 0.0
H337 H 0.1352 0.77963 0.10045 0.0
H338 H 0.15633 0.80431 0.12003 0.0
H339 H 0.20243 0.84912 0.12331 0.0
H340 H 0.22706 0.87054 0.10357 0.0
H341 H 0.21106 0.90775 0.11459 0.0
H342 H 0.18667 0.88642 0.13479 0.0
H343 H 0.16675 0.8368 0.11699 0.0
H344 H 0.21098 0.86672 0.16504 0.0
H345 H 0.23272 0.88875 0.18675 0.0
H346 H 0.19408 0.89826 0.21279 0.0
H347 H 0.17273 0.87724 0.18974 0.0
C348 C 0.13473 0.81561 0.17718 0.0
C349 C 0.12551 0.82085 0.18965 0.0
C350 C 0.11332 0.80941 0.2034 0.0
C351 C 0.10999 0.79243 0.20492 0.0
C352 C 0.1187 0.78697 0.19188 0.0
C353 C 0.13106 0.79849 0.17825 0.0
C354 C 0.14916 0.82849 0.16453 0.0
C355 C 0.16195 0.84337 0.17418 0.0
C356 C 0.15096 0.82599 0.14363 0.0
C357 C 0.13789 0.81073 0.13224 0.0
C358 C 0.12045 0.80609 0.13253 0.0
C359 C 0.10833 0.79191 0.12143 0.0
C360 C 0.11344 0.78223 0.10958 0.0
C361 C 0.1309 0.78695 0.10923 0.0
C362 C 0.14298 0.80103 0.12046 0.0
C363 C 0.19282 0.86624 0.13057 0.0
C364 C 0.20424 0.86189 0.12146 0.0
C365 C 0.21828 0.8741 0.11027 0.0
C366 C 0.22088 0.89073 0.1076 0.0
C367 C 0.20925 0.89498 0.11639 0.0
C368 C 0.1954 0.88286 0.12795 0.0
C369 C 0.17818 0.85336 0.14279 0.0
C370 C 0.16547 0.83849 0.13309 0.0
C371 C 0.17651 0.85579 0.16369 0.0
C372 C 0.19018 0.8704 0.17547 0.0
C373 C 0.20728 0.87398 0.17486 0.0
C374 C 0.21969 0.8864 0.18765 0.0
C375 C 0.21521 0.89523 0.20181 0.0
C376 C 0.19816 0.89196 0.20198 0.0
C377 C 0.18583 0.87976 0.1889 0.0
H378 H 0.29565 0.17083 0.83842 0.0
H379 H 0.29475 0.19121 0.8146 0.0
H380 H 0.34336 0.23135 0.83774 0.0
H381 H 0.34449 0.21082 0.86123 0.0
H382 H 0.31789 0.16051 0.83791 0.0
H383 H 0.30267 0.19053 0.88694 0.0
H384 H 0.30571 0.21503 0.90655 0.0
H385 H 0.3541 0.22351 0.93045 0.0
H386 H 0.35124 0.19931 0.91052 0.0
H387 H 0.35173 0.15682 0.9115 0.0
H388 H 0.35476 0.13561 0.93156 0.0
H389 H 0.30702 0.09524 0.90673 0.0
H390 H 0.30388 0.1165 0.88695 0.0
H391 H 0.32946 0.16694 0.91187 0.0
H392 H 0.3483 0.14213 0.86068 0.0
H393 H 0.34931 0.12102 0.83813 0.0
H394 H 0.29775 0.1049 0.81764 0.0
H395 H 0.29675 0.12592 0.84038 0.0
C396 C 0.3201 0.18926 0.85172 0.0
C397 C 0.30606 0.18405 0.83853 0.0
C398 C 0.30554 0.19569 0.82492 0.0
C399 C 0.319 0.21282 0.8243 0.0
C400 C 0.33272 0.21825 0.83806 0.0
C401 C 0.33335 0.20653 0.85152 0.0
C402 C 0.32151 0.17623 0.8642 0.0
C403 C 0.32009 0.16178 0.85418 0.0
C404 C 0.32514 0.17825 0.88528 0.0
C405 C 0.32682 0.19314 0.89704 0.0
C406 C 0.31405 0.19779 0.89618 0.0
C407 C 0.31577 0.21177 0.90743 0.0
C408 C 0.33013 0.22117 0.92005 0.0
C409 C 0.3428 0.21639 0.92104 0.0
C410 C 0.34118 0.20257 0.90963 0.0
C411 C 0.32768 0.13827 0.8975 0.0
C412 C 0.34187 0.14341 0.91043 0.0
C413 C 0.34358 0.13129 0.92192 0.0
C414 C 0.33115 0.11375 0.92068 0.0
C415 C 0.31693 0.10862 0.90778 0.0
C416 C 0.31515 0.12077 0.89643 0.0
C417 C 0.3258 0.15127 0.88554 0.0
C418 C 0.32713 0.16566 0.89563 0.0
C419 C 0.3224 0.14943 0.86445 0.0
C420 C 0.32241 0.13554 0.85228 0.0
C421 C 0.33711 0.13385 0.8516 0.0
C422 C 0.33772 0.12188 0.83859 0.0
C423 C 0.32363 0.11135 0.82606 0.0
C424 C 0.30874 0.11271 0.82724 0.0
C425 C 0.30819 0.12478 0.84013 0.0
H426 H 0.83394 0.12385 0.84098 0.0
H427 H 0.81339 0.10209 0.81764 0.0
H428 H 0.77414 0.11301 0.83782 0.0
H429 H 0.79481 0.13499 0.8609 0.0
H430 H 0.84543 0.15677 0.83893 0.0
H431 H 0.81438 0.1133 0.88924 0.0
H432 H 0.78946 0.09239 0.90863 0.0
H433 H 0.78103 0.13312 0.92967 0.0
H434 H 0.80535 0.15375 0.9094 0.0
H435 H 0.84806 0.1968 0.90949 0.0
H436 H 0.86888 0.22141 0.92945 0.0
H437 H 0.90956 0.21293 0.90845 0.0
H438 H 0.88867 0.18819 0.88872 0.0
H439 H 0.83773 0.16435 0.91195 0.0
H440 H 0.86317 0.20582 0.85787 0.0
H441 H 0.8845 0.22679 0.83463 0.0
H442 H 0.90264 0.19145 0.82142 0.0
H443 H 0.88075 0.17031 0.84411 0.0
C444 C 0.81594 0.13104 0.8528 0.0
C445 C 0.82086 0.12145 0.84055 0.0
C446 C 0.80912 0.10904 0.8272 0.0
C447 C 0.79218 0.10589 0.82587 0.0
C448 C 0.78706 0.11501 0.8387 0.0
C449 C 0.79886 0.12756 0.85193 0.0
C450 C 0.82908 0.14565 0.86503 0.0
C451 C 0.84386 0.15822 0.85501 0.0
C452 C 0.82677 0.14794 0.88585 0.0
C453 C 0.81165 0.1351 0.89763 0.0
C454 C 0.80701 0.11769 0.89779 0.0
C455 C 0.79287 0.10576 0.90912 0.0
C456 C 0.78318 0.11104 0.92074 0.0
C457 C 0.78798 0.12852 0.92066 0.0
C458 C 0.80202 0.14039 0.90922 0.0
C459 C 0.86678 0.19071 0.89739 0.0
C460 C 0.86146 0.20021 0.9092 0.0
C461 C 0.87336 0.21425 0.92065 0.0
C462 C 0.89087 0.21913 0.92052 0.0
C463 C 0.8962 0.20964 0.90865 0.0
C464 C 0.88427 0.19552 0.89731 0.0
C465 C 0.85395 0.17544 0.88577 0.0
C466 C 0.83928 0.16278 0.8959 0.0
C467 C 0.85618 0.17313 0.86499 0.0
C468 C 0.87041 0.18654 0.85273 0.0
C469 C 0.87192 0.20271 0.85017 0.0
C470 C 0.8842 0.21473 0.8369 0.0
C471 C 0.89532 0.21084 0.826 0.0
C472 C 0.89411 0.19479 0.8292 0.0
C473 C 0.88169 0.18273 0.84229 0.0
H474 H 0.80742 0.65129 0.8348 0.0
H475 H 0.78695 0.65167 0.81085 0.0
H476 H 0.79303 0.69773 0.8392 0.0
H477 H 0.81343 0.69707 0.8635 0.0
H478 H 0.84099 0.67652 0.83771 0.0
H479 H 0.79065 0.64911 0.88086 0.0
H480 H 0.76615 0.64647 0.90008 0.0
H481 H 0.80053 0.69152 0.93491 0.0
H482 H 0.82489 0.69437 0.91522 0.0
H483 H 0.88669 0.69571 0.88745 0.0
H484 H 0.90817 0.69298 0.90735 0.0
H485 H 0.86792 0.64604 0.93391 0.0
H486 H 0.84651 0.64876 0.91385 0.0
H487 H 0.83677 0.67202 0.91273 0.0
H488 H 0.87815 0.70127 0.84337 0.0
H489 H 0.89947 0.70025 0.82106 0.0
H490 H 0.88031 0.64735 0.83804 0.0
H491 H 0.85917 0.64854 0.8606 0.0
C492 C 0.812 0.67419 0.85086 0.0
C493 C 0.80424 0.6614 0.83598 0.0
C494 C 0.79262 0.6617 0.82222 0.0
C495 C 0.78858 0.6749 0.82289 0.0
C496 C 0.79584 0.68736 0.83832 0.0
C497 C 0.8075 0.68702 0.8522 0.0
C498 C 0.82568 0.67458 0.86382 0.0
C499 C 0.84009 0.67565 0.85415 0.0
C500 C 0.82455 0.67348 0.88523 0.0
C501 C 0.80957 0.67207 0.89643 0.0
C502 C 0.79287 0.65856 0.89244 0.0
C503 C 0.77891 0.65695 0.90361 0.0
C504 C 0.78139 0.66878 0.91905 0.0
C505 C 0.79814 0.68232 0.92296 0.0
C506 C 0.81209 0.6839 0.91181 0.0
C507 C 0.86499 0.67232 0.89895 0.0
C508 C 0.8825 0.68475 0.89741 0.0
C509 C 0.89476 0.68318 0.90881 0.0
C510 C 0.88974 0.66926 0.92216 0.0
C511 C 0.87218 0.657 0.92393 0.0
C512 C 0.85994 0.65852 0.91244 0.0
C513 C 0.8519 0.67364 0.88655 0.0
C514 C 0.83772 0.67309 0.89632 0.0
C515 C 0.85312 0.6751 0.86518 0.0
C516 C 0.86719 0.67501 0.85364 0.0
C517 C 0.87878 0.68956 0.84253 0.0
C518 C 0.89095 0.68898 0.82988 0.0
C519 C 0.89148 0.67371 0.82781 0.0
C520 C 0.8801 0.65925 0.83932 0.0
C521 C 0.86812 0.65993 0.85224 0.0
H522 H 0.81066 0.68632 0.50307 0.0
H523 H 0.78948 0.68728 0.52577 0.0
H524 H 0.77007 0.63411 0.54165 0.0
H525 H 0.79141 0.63331 0.51918 0.0
H526 H 0.82827 0.65743 0.52533 0.0
H527 H 0.82428 0.68735 0.44997 0.0
H528 H 0.80342 0.69052 0.42943 0.0
H529 H 0.76237 0.64362 0.45519 0.0
H530 H 0.78341 0.64013 0.47497 0.0
H531 H 0.84526 0.64237 0.44614 0.0
H532 H 0.86983 0.64523 0.42687 0.0
H533 H 0.90426 0.68754 0.46528 0.0
H534 H 0.87965 0.68481 0.48431 0.0
H535 H 0.83377 0.66408 0.45056 0.0
H536 H 0.85625 0.63747 0.49907 0.0
H537 H 0.87631 0.63625 0.52346 0.0
H538 H 0.8817 0.68143 0.55344 0.0
H539 H 0.86164 0.68241 0.52936 0.0
C540 C 0.80251 0.65973 0.50943 0.0
C541 C 0.80164 0.67482 0.5112 0.0
C542 C 0.78963 0.67537 0.52422 0.0
C543 C 0.77818 0.66077 0.53548 0.0
C544 C 0.77864 0.64549 0.53303 0.0
C545 C 0.79083 0.64503 0.52027 0.0
C546 C 0.81667 0.65977 0.4979 0.0
C547 C 0.82945 0.65876 0.50894 0.0
C548 C 0.81826 0.66184 0.4766 0.0
C549 C 0.80542 0.6636 0.46419 0.0
C550 C 0.81079 0.67769 0.45109 0.0
C551 C 0.79882 0.67957 0.4395 0.0
C552 C 0.78118 0.66738 0.44072 0.0
C553 C 0.77585 0.65318 0.45372 0.0
C554 C 0.78786 0.65127 0.46525 0.0
C555 C 0.86058 0.6632 0.46688 0.0
C556 C 0.8581 0.65226 0.45043 0.0
C557 C 0.87214 0.65394 0.43938 0.0
C558 C 0.88899 0.66658 0.44458 0.0
C559 C 0.89146 0.6775 0.46109 0.0
C560 C 0.87739 0.67591 0.47203 0.0
C561 C 0.8455 0.6617 0.47802 0.0
C562 C 0.83256 0.66255 0.46691 0.0
C563 C 0.84397 0.65998 0.49939 0.0
C564 C 0.85738 0.65997 0.5125 0.0
C565 C 0.86195 0.6472 0.51076 0.0
C566 C 0.87341 0.64654 0.52468 0.0
C567 C 0.88038 0.65859 0.54058 0.0
C568 C 0.87625 0.67171 0.54169 0.0
C569 C 0.86485 0.67235 0.52787 0.0
H570 H 0.37267 0.20881 0.52134 0.0
H571 H 0.37423 0.23066 0.54476 0.0
H572 H 0.32453 0.22084 0.52409 0.0
H573 H 0.3227 0.19861 0.5012 0.0
H574 H 0.35121 0.17635 0.52344 0.0
H575 H 0.36544 0.21742 0.46788 0.0
H576 H 0.36229 0.23876 0.44795 0.0
H577 H 0.30838 0.20219 0.43941 0.0
H578 H 0.31166 0.18078 0.45896 0.0
H579 H 0.31078 0.13218 0.4596 0.0
H580 H 0.30681 0.10708 0.44032 0.0
H581 H 0.36053 0.1235 0.44843 0.0
H582 H 0.36437 0.14838 0.46814 0.0
H583 H 0.3342 0.16775 0.45092 0.0
H584 H 0.32122 0.1256 0.50177 0.0
H585 H 0.32215 0.1048 0.52462 0.0
H586 H 0.37236 0.14378 0.54558 0.0
H587 H 0.3718 0.16419 0.52168 0.0
C588 C 0.34763 0.2021 0.50932 0.0
C589 C 0.36218 0.21148 0.52166 0.0
C590 C 0.36307 0.22395 0.53504 0.0
C591 C 0.34949 0.22741 0.53624 0.0
C592 C 0.33527 0.21858 0.52329 0.0
C593 C 0.33427 0.20592 0.5101 0.0
C594 C 0.3457 0.18719 0.49736 0.0
C595 C 0.34796 0.1747 0.50743 0.0
C596 C 0.34066 0.18462 0.47672 0.0
C597 C 0.33876 0.19758 0.46493 0.0
C598 C 0.35296 0.21402 0.46169 0.0
C599 C 0.35118 0.22613 0.45026 0.0
C600 C 0.3351 0.22206 0.4422 0.0
C601 C 0.32088 0.20563 0.44556 0.0
C602 C 0.32275 0.19341 0.45664 0.0
C603 C 0.33784 0.14205 0.46535 0.0
C604 C 0.32168 0.13034 0.45725 0.0
C605 C 0.31942 0.11603 0.44633 0.0
C606 C 0.33338 0.11345 0.44291 0.0
C607 C 0.34961 0.1253 0.45079 0.0
C608 C 0.35178 0.13942 0.46209 0.0
C609 C 0.34018 0.15718 0.47693 0.0
C610 C 0.33785 0.1696 0.46682 0.0
C611 C 0.34521 0.15968 0.49757 0.0
C612 C 0.34653 0.14647 0.50977 0.0
C613 C 0.33269 0.12954 0.51076 0.0
C614 C 0.33311 0.1177 0.52415 0.0
C615 C 0.34725 0.12261 0.53718 0.0
C616 C 0.36133 0.13943 0.53567 0.0
C617 C 0.36098 0.15119 0.5221 0.0
H618 H 0.79176 0.16545 0.5197 0.0
H619 H 0.76928 0.14568 0.54295 0.0
H620 H 0.77797 0.10478 0.52375 0.0
H621 H 0.80075 0.12463 0.501 0.0
H622 H 0.82433 0.17537 0.52283 0.0
H623 H 0.78364 0.14976 0.46581 0.0
H624 H 0.76193 0.12526 0.44604 0.0
H625 H 0.79676 0.10556 0.4406 0.0
H626 H 0.81858 0.13028 0.45986 0.0
H627 H 0.86566 0.17619 0.45432 0.0
H628 H 0.89089 0.19663 0.43485 0.0
H629 H 0.88225 0.23775 0.45351 0.0
H630 H 0.85713 0.21731 0.47294 0.0
H631 H 0.83295 0.16638 0.45051 0.0
H632 H 0.87363 0.19079 0.50464 0.0
H633 H 0.89499 0.2114 0.52838 0.0
H634 H 0.86107 0.23103 0.54234 0.0
H635 H 0.83973 0.21037 0.51856 0.0
C636 C 0.79789 0.14655 0.5084 0.0
C637 C 0.78867 0.15217 0.52027 0.0
C638 C 0.77585 0.14089 0.53356 0.0
C639 C 0.77189 0.12371 0.53514 0.0
C640 C 0.78057 0.11788 0.52262 0.0
C641 C 0.79356 0.12923 0.50952 0.0
C642 C 0.81318 0.15916 0.49664 0.0
C643 C 0.82601 0.17362 0.50687 0.0
C644 C 0.81581 0.15651 0.4761 0.0
C645 C 0.80266 0.14176 0.46429 0.0
C646 C 0.78659 0.14018 0.46029 0.0
C647 C 0.77426 0.12627 0.44899 0.0
C648 C 0.77774 0.11359 0.44189 0.0
C649 C 0.79379 0.11515 0.44601 0.0
C650 C 0.80624 0.12925 0.45691 0.0
C651 C 0.85959 0.19523 0.4653 0.0
C652 C 0.86922 0.18962 0.45423 0.0
C653 C 0.88361 0.20131 0.44305 0.0
C654 C 0.88862 0.21884 0.44267 0.0
C655 C 0.87893 0.2244 0.45376 0.0
C656 C 0.86456 0.21272 0.4649 0.0
C657 C 0.84401 0.18274 0.47666 0.0
C658 C 0.83116 0.1683 0.46638 0.0
C659 C 0.84145 0.1853 0.49726 0.0
C660 C 0.85513 0.1991 0.50978 0.0
C661 C 0.87092 0.19974 0.51253 0.0
C662 C 0.88305 0.21142 0.5262 0.0
C663 C 0.87964 0.22275 0.53726 0.0
C664 C 0.86409 0.22253 0.53391 0.0
C665 C 0.85188 0.21071 0.52041 0.0
H666 H 0.97067 0.5081 0.1732 0.0
H667 H 0.97071 0.52935 0.15028 0.0
H668 H 0.01891 0.56826 0.17611 0.0
H669 H 0.01935 0.54663 0.19801 0.0
H670 H 0.99171 0.4966 0.17325 0.0
H671 H 0.97655 0.52599 0.22259 0.0
H672 H 0.97957 0.55057 0.24181 0.0
H673 H 0.02775 0.55886 0.26643 0.0
H674 H 0.02508 0.53486 0.24635 0.0
H675 H 0.02585 0.4918 0.24484 0.0
H676 H 0.02863 0.47067 0.26529 0.0
H677 H 0.97913 0.43086 0.24362 0.0
H678 H 0.97618 0.45219 0.22371 0.0
H679 H 0.0032 0.50228 0.24722 0.0
H680 H 0.0189 0.47375 0.19732 0.0
H681 H 0.01793 0.45159 0.17507 0.0
H682 H 0.9694 0.4425 0.15066 0.0
H683 H 0.96998 0.4639 0.17379 0.0
C684 C 0.99496 0.52572 0.18744 0.0
C685 C 0.98122 0.52123 0.17398 0.0
C686 C 0.98117 0.53349 0.16101 0.0
C687 C 0.99482 0.55059 0.16126 0.0
C688 C 0.0083 0.55518 0.17524 0.0
C689 C 0.00845 0.54285 0.18802 0.0
C690 C 0.99571 0.51222 0.1997 0.0
C691 C 0.99385 0.49766 0.18952 0.0
C692 C 0.99912 0.51393 0.22082 0.0
C693 C 1.0007 0.52868 0.23278 0.0
C694 C 0.98787 0.53323 0.23193 0.0
C695 C 0.98952 0.54718 0.24315 0.0
C696 C 0.00393 0.55676 0.25569 0.0
C697 C 0.01663 0.552 0.2567 0.0
C698 C 0.01503 0.53814 0.24537 0.0
C699 C 1.00087 0.47357 0.23263 0.0
C700 C 0.01558 0.47852 0.24453 0.0
C701 C 0.01722 0.4664 0.25609 0.0
C702 C 0.00412 0.44906 0.25607 0.0
C703 C 0.98938 0.44414 0.24414 0.0
C704 C 0.98775 0.45628 0.23258 0.0
C705 C 0.99913 0.48665 0.22074 0.0
C706 C 1.00084 0.50113 0.23099 0.0
C707 C 0.99556 0.48487 0.19966 0.0
C708 C 0.99443 0.47043 0.18741 0.0
C709 C 0.00783 0.46667 0.18757 0.0
C710 C 0.00737 0.45413 0.17459 0.0
C711 C 0.99364 0.44527 0.1609 0.0
C712 C 0.98007 0.44882 0.16114 0.0
C713 C 0.98045 0.46122 0.17425 0.0
H714 H 0.49784 0.45783 0.17654 0.0
H715 H 0.47656 0.43508 0.1548 0.0
H716 H 0.43985 0.45119 0.16955 0.0
H717 H 0.461 0.47337 0.19186 0.0
H718 H 0.50993 0.49298 0.1711 0.0
H719 H 0.48114 0.44983 0.22201 0.0
H720 H 0.45717 0.42852 0.24239 0.0
H721 H 0.44689 0.46799 0.2634 0.0
H722 H 0.47073 0.48921 0.24281 0.0
H723 H 0.51311 0.53315 0.24186 0.0
H724 H 0.53403 0.5582 0.26116 0.0
H725 H 0.57491 0.55062 0.23874 0.0
H726 H 0.55395 0.52552 0.21961 0.0
H727 H 0.50356 0.50081 0.24446 0.0
H728 H 0.52672 0.54207 0.19067 0.0
H729 H 0.54725 0.56371 0.16712 0.0
H730 H 0.56584 0.52943 0.15057 0.0
H731 H 0.54527 0.50782 0.17417 0.0
C732 C 0.48096 0.46722 0.18589 0.0
C733 C 0.48511 0.45627 0.17526 0.0
C734 C 0.47295 0.44335 0.16271 0.0
C735 C 0.45645 0.44129 0.16023 0.0
C736 C 0.45227 0.45212 0.17128 0.0
C737 C 0.46439 0.4649 0.18401 0.0
C738 C 0.49433 0.48188 0.19771 0.0
C739 C 0.50872 0.49454 0.18725 0.0
C740 C 0.49237 0.48419 0.21858 0.0
C741 C 0.47764 0.47111 0.23067 0.0
C742 C 0.47358 0.45386 0.23077 0.0
C743 C 0.4599 0.4417 0.24247 0.0
C744 C 0.45015 0.44659 0.25451 0.0
C745 C 0.45429 0.46387 0.25448 0.0
C746 C 0.46788 0.476 0.24267 0.0
C747 C 0.53194 0.52751 0.22909 0.0
C748 C 0.52658 0.53686 0.24112 0.0
C749 C 0.53854 0.55115 0.25219 0.0
C750 C 0.55614 0.55642 0.25146 0.0
C751 C 0.56149 0.54706 0.23938 0.0
C752 C 0.54951 0.53271 0.2284 0.0
C753 C 0.5191 0.51204 0.21779 0.0
C754 C 0.50484 0.49921 0.22835 0.0
C755 C 0.52096 0.50969 0.1969 0.0
C756 C 0.53454 0.52338 0.18423 0.0
C757 C 0.53541 0.53933 0.18222 0.0
C758 C 0.54704 0.55162 0.16867 0.0
C759 C 0.55808 0.54821 0.15698 0.0
C760 C 0.55758 0.53245 0.15951 0.0
C761 C 0.5458 0.52008 0.17289 0.0
H762 H 0.54048 0.03548 0.17158 0.0
H763 H 0.56168 0.03518 0.1488 0.0
H764 H 0.55137 0.98664 0.17439 0.0
H765 H 0.52935 0.98649 0.19613 0.0
H766 H 0.50782 0.01498 0.17128 0.0
H767 H 0.55162 0.0293 0.22126 0.0
H768 H 0.57302 0.02623 0.24091 0.0
H769 H 0.53303 0.97743 0.26388 0.0
H770 H 0.5117 0.98044 0.24402 0.0
H771 H 0.46789 0.97972 0.24233 0.0
H772 H 0.44361 0.9767 0.26231 0.0
H773 H 0.45332 0.0261 0.24063 0.0
H774 H 0.47765 0.02911 0.22078 0.0
H775 H 0.50084 0.00216 0.24498 0.0
H776 H 0.45928 0.98482 0.18944 0.0
H777 H 0.43872 0.98544 0.16573 0.0
H778 H 0.47416 0.03932 0.15428 0.0
H779 H 0.49493 0.03823 0.17724 0.0
C780 C 0.53333 0.01106 0.18569 0.0
C781 C 0.54284 0.0248 0.17234 0.0
C782 C 0.55513 0.02469 0.15945 0.0
C783 C 0.55828 0.01086 0.15966 0.0
C784 C 0.54913 0.99738 0.17354 0.0
C785 C 0.53668 0.9974 0.18625 0.0
C786 C 0.51904 0.01042 0.19779 0.0
C787 C 0.50653 0.01251 0.1875 0.0
C788 C 0.517 0.00668 0.21885 0.0
C789 C 0.53005 0.00501 0.23095 0.0
C790 C 0.54747 0.01786 0.23037 0.0
C791 C 0.55969 0.0161 0.24162 0.0
C792 C 0.55471 0.00157 0.2539 0.0
C793 C 0.53724 0.98885 0.25472 0.0
C794 C 0.52505 0.99055 0.24334 0.0
C795 C 0.47451 0.00455 0.22986 0.0
C796 C 0.46479 0.9899 0.24186 0.0
C797 C 0.45095 0.98821 0.25334 0.0
C798 C 0.44654 0.00116 0.25306 0.0
C799 C 0.45623 0.01579 0.24094 0.0
C800 C 0.47013 0.01751 0.22954 0.0
C801 C 0.48964 0.00655 0.21837 0.0
C802 C 0.50229 0.00476 0.2288 0.0
C803 C 0.49184 0.01051 0.19744 0.0
C804 C 0.47859 0.01148 0.18506 0.0
C805 C 0.46249 0.99679 0.18197 0.0
C806 C 0.45071 0.99722 0.16844 0.0
C807 C 0.45475 0.01242 0.15788 0.0
C808 C 0.4707 0.02728 0.16171 0.0
C809 C 0.48256 0.02675 0.17499 0.0
H810 H 0.48851 0.01992 0.85891 0.0
H811 H 0.46644 0.01945 0.88094 0.0
H812 H 0.42873 0.97088 0.85495 0.0
H813 H 0.45102 0.9714 0.83287 0.0
H814 H 0.49943 0.99672 0.85892 0.0
H815 H 0.47497 0.019 0.81302 0.0
H816 H 0.45335 0.021 0.79274 0.0
H817 H 0.44356 0.97551 0.75955 0.0
H818 H 0.4647 0.97314 0.78061 0.0
H819 H 0.51433 0.97145 0.7876 0.0
H820 H 0.53908 0.97469 0.76841 0.0
H821 H 0.56823 0.02793 0.78714 0.0
H822 H 0.54376 0.02413 0.80718 0.0
H823 H 0.49836 0.99448 0.78367 0.0
H824 H 0.52401 0.97319 0.83224 0.0
H825 H 0.54622 0.97335 0.85402 0.0
H826 H 0.55541 0.02101 0.88101 0.0
H827 H 0.53344 0.02089 0.85905 0.0
C828 C 0.4714 0.99572 0.84423 0.0
C829 C 0.47547 0.00923 0.85783 0.0
C830 C 0.46281 0.009 0.87032 0.0
C831 C 0.44584 0.99514 0.86965 0.0
C832 C 0.44172 0.98168 0.85586 0.0
C833 C 0.4544 0.98201 0.84317 0.0
C834 C 0.48525 0.99565 0.83205 0.0
C835 C 0.49922 0.99635 0.84245 0.0
C836 C 0.48483 0.99487 0.81058 0.0
C837 C 0.47127 0.99575 0.7986 0.0
C838 C 0.46794 0.00925 0.80166 0.0
C839 C 0.45574 0.01053 0.78981 0.0
C840 C 0.44673 0.99846 0.77443 0.0
C841 C 0.45008 0.98492 0.77142 0.0
C842 C 0.46225 0.9836 0.78335 0.0
C843 C 0.52731 0.99752 0.79885 0.0
C844 C 0.52612 0.98376 0.78758 0.0
C845 C 0.54028 0.98571 0.77649 0.0
C846 C 0.55579 0.0016 0.77612 0.0
C847 C 0.55674 0.0154 0.78734 0.0
C848 C 0.5427 0.01332 0.7987 0.0
C849 C 0.51243 0.9956 0.81061 0.0
C850 C 0.49834 0.99458 0.80014 0.0
C851 C 0.51283 0.99638 0.83201 0.0
C852 C 0.52715 0.99708 0.84396 0.0
C853 C 0.53103 0.98381 0.84261 0.0
C854 C 0.5436 0.98384 0.85518 0.0
C855 C 0.55256 0.99719 0.86924 0.0
C856 C 0.5489 0.01065 0.87017 0.0
C857 C 0.53628 0.01055 0.85773 0.0
H858 H 0.03707 0.53989 0.85941 0.0
H859 H 0.03661 0.56109 0.88201 0.0
H860 H 0.98924 0.55221 0.85419 0.0
H861 H 0.9892 0.53018 0.83261 0.0
H862 H 0.01588 0.5073 0.85886 0.0
H863 H 0.03258 0.55217 0.80937 0.0
H864 H 0.03037 0.57388 0.78929 0.0
H865 H 0.98221 0.5344 0.76426 0.0
H866 H 0.98433 0.5128 0.78454 0.0
H867 H 0.98291 0.46938 0.78565 0.0
H868 H 0.9797 0.44496 0.76585 0.0
H869 H 0.02719 0.45204 0.79111 0.0
H870 H 0.03048 0.47663 0.81067 0.0
H871 H 0.00586 0.50178 0.78457 0.0
H872 H 0.9859 0.45867 0.83743 0.0
H873 H 0.985 0.43685 0.8605 0.0
H874 H 0.03713 0.47223 0.87925 0.0
H875 H 0.03795 0.49399 0.85616 0.0
C876 C 0.01324 0.53346 0.84418 0.0
C877 C 0.02662 0.54256 0.85812 0.0
C878 C 0.02642 0.55485 0.87091 0.0
C879 C 0.01287 0.55842 0.87001 0.0
C880 C 0.99976 0.54966 0.85557 0.0
C881 C 0.99985 0.5372 0.84296 0.0
C882 C 0.01266 0.5192 0.8321 0.0
C883 C 0.01403 0.50631 0.84253 0.0
C884 C 0.00968 0.51755 0.81087 0.0
C885 C 0.00854 0.53084 0.79865 0.0
C886 C 0.02146 0.5482 0.79972 0.0
C887 C 0.0202 0.5606 0.78822 0.0
C888 C 0.00612 0.55584 0.77519 0.0
C889 C 0.99331 0.53844 0.77396 0.0
C890 C 0.9945 0.52609 0.78558 0.0
C891 C 0.00685 0.47477 0.79984 0.0
C892 C 0.99266 0.46572 0.7869 0.0
C893 C 0.99086 0.45178 0.77555 0.0
C894 C 0.00318 0.44657 0.77693 0.0
C895 C 0.01736 0.45561 0.78993 0.0
C896 C 0.01923 0.46964 0.80116 0.0
C897 C 0.00889 0.48988 0.81141 0.0
C898 C 0.00786 0.50292 0.80087 0.0
C899 C 0.01202 0.49163 0.83255 0.0
C900 C 0.01201 0.47791 0.84504 0.0
C901 C 0.99721 0.46162 0.84628 0.0
C902 C 0.99668 0.44923 0.85955 0.0
C903 C 0.01099 0.45287 0.8717 0.0
C904 C 0.02597 0.46901 0.86995 0.0
C905 C 0.02643 0.48147 0.85686 0.0
H906 H 0.45954 0.49646 0.85673 0.0
H907 H 0.43874 0.4753 0.88016 0.0
H908 H 0.44981 0.4371 0.8563 0.0
H909 H 0.47136 0.45865 0.83373 0.0
H910 H 0.49236 0.5087 0.85744 0.0
H911 H 0.44853 0.47835 0.80753 0.0
H912 H 0.42746 0.45365 0.78794 0.0
H913 H 0.46816 0.44588 0.76512 0.0
H914 H 0.48901 0.47009 0.78546 0.0
H915 H 0.53152 0.51329 0.78558 0.0
H916 H 0.55563 0.5343 0.76538 0.0
H917 H 0.54743 0.5746 0.78857 0.0
H918 H 0.52264 0.5533 0.8078 0.0
H919 H 0.49915 0.50262 0.78381 0.0
H920 H 0.54278 0.53219 0.8347 0.0
H921 H 0.56313 0.5542 0.85806 0.0
H922 H 0.52279 0.56289 0.87974 0.0
H923 H 0.5026 0.54125 0.85605 0.0
C924 C 0.46702 0.47919 0.84337 0.0
C925 C 0.4574 0.48349 0.85644 0.0
C926 C 0.44536 0.47129 0.86973 0.0
C927 C 0.44257 0.45444 0.87022 0.0
C928 C 0.45178 0.45 0.85658 0.0
C929 C 0.46396 0.46227 0.84342 0.0
C930 C 0.48123 0.49278 0.8311 0.0
C931 C 0.49366 0.50755 0.84122 0.0
C932 C 0.48324 0.49097 0.81009 0.0
C933 C 0.47035 0.47598 0.79818 0.0
C934 C 0.45288 0.47119 0.79851 0.0
C935 C 0.44087 0.45718 0.78709 0.0
C936 C 0.4461 0.44775 0.77493 0.0
C937 C 0.46363 0.45267 0.77453 0.0
C938 C 0.4756 0.46662 0.78602 0.0
C939 C 0.52531 0.53169 0.7984 0.0
C940 C 0.53484 0.52664 0.78623 0.0
C941 C 0.54878 0.53873 0.77483 0.0
C942 C 0.55361 0.55622 0.77539 0.0
C943 C 0.54401 0.56125 0.78757 0.0
C944 C 0.52994 0.54909 0.79882 0.0
C945 C 0.51032 0.51859 0.81019 0.0
C946 C 0.49776 0.50388 0.79998 0.0
C947 C 0.5082 0.52046 0.83116 0.0
C948 C 0.52114 0.53509 0.84351 0.0
C949 C 0.53841 0.53915 0.84406 0.0
C950 C 0.55003 0.5517 0.85745 0.0
C951 C 0.54449 0.56016 0.87076 0.0
C952 C 0.52735 0.55644 0.86977 0.0
C953 C 0.51583 0.5441 0.85623 0.0
H954 H 0.63059 0.84025 0.51066 0.0
H955 H 0.62979 0.86116 0.48772 0.0
H956 H 0.68361 0.89643 0.49997 0.0
H957 H 0.68397 0.8757 0.52361 0.0
H958 H 0.65354 0.82712 0.50529 0.0
H959 H 0.64016 0.85846 0.55414 0.0
H960 H 0.6442 0.88361 0.57305 0.0
H961 H 0.69283 0.89167 0.59562 0.0
H962 H 0.68883 0.86663 0.57648 0.0
H963 H 0.68661 0.82239 0.57911 0.0
H964 H 0.6887 0.80075 0.59938 0.0
H965 H 0.64008 0.76146 0.57513 0.0
H966 H 0.63788 0.78319 0.5551 0.0
H967 H 0.66565 0.83396 0.57914 0.0
H968 H 0.68109 0.80482 0.53115 0.0
H969 H 0.68106 0.7829 0.50939 0.0
H970 H 0.63332 0.77362 0.48227 0.0
H971 H 0.63285 0.7947 0.50508 0.0
C972 C 0.65731 0.85647 0.51886 0.0
C973 C 0.64213 0.8526 0.50857 0.0
C974 C 0.64176 0.86454 0.49532 0.0
C975 C 0.65668 0.88049 0.49175 0.0
C976 C 0.67179 0.88443 0.50249 0.0
C977 C 0.67207 0.87256 0.51597 0.0
C978 C 0.65804 0.84317 0.53137 0.0
C979 C 0.65585 0.82838 0.52153 0.0
C980 C 0.66186 0.84537 0.55234 0.0
C981 C 0.66429 0.86075 0.56365 0.0
C982 C 0.65181 0.86578 0.56291 0.0
C983 C 0.65412 0.88014 0.57377 0.0
C984 C 0.66886 0.88965 0.58581 0.0
C985 C 0.68126 0.88452 0.58666 0.0
C986 C 0.67901 0.87023 0.57568 0.0
C987 C 0.66218 0.80442 0.56539 0.0
C988 C 0.67633 0.80914 0.57824 0.0
C989 C 0.67751 0.79676 0.58985 0.0
C990 C 0.66457 0.7794 0.58881 0.0
C991 C 0.65035 0.7747 0.57604 0.0
C992 C 0.64911 0.78711 0.56456 0.0
C993 C 0.66103 0.81768 0.5531 0.0
C994 C 0.66319 0.83253 0.56294 0.0
C995 C 0.65756 0.81571 0.53197 0.0
C996 C 0.65688 0.80136 0.51995 0.0
C997 C 0.67036 0.79772 0.52094 0.0
C998 C 0.67045 0.78533 0.50821 0.0
C999 C 0.65726 0.77652 0.49387 0.0
C1000 C 0.64358 0.77991 0.49326 0.0
C1001 C 0.64338 0.79214 0.50618 0.0
H1002 H 0.16305 0.79164 0.51273 0.0
H1003 H 0.14199 0.76969 0.49006 0.0
H1004 H 0.10653 0.78781 0.50276 0.0
H1005 H 0.12742 0.80918 0.52606 0.0
H1006 H 0.17668 0.82683 0.50751 0.0
H1007 H 0.1456 0.7839 0.55664 0.0
H1008 H 0.12081 0.76248 0.57578 0.0
H1009 H 0.11154 0.80226 0.59808 0.0
H1010 H 0.13613 0.82366 0.57848 0.0
H1011 H 0.18072 0.87006 0.57263 0.0
H1012 H 0.20187 0.89505 0.59203 0.0
H1013 H 0.23967 0.87959 0.58211 0.0
H1014 H 0.21853 0.85472 0.56242 0.0
H1015 H 0.16866 0.83491 0.58031 0.0
H1016 H 0.19901 0.87753 0.52952 0.0
H1017 H 0.22093 0.89779 0.50612 0.0
H1018 H 0.23088 0.85794 0.48595 0.0
H1019 H 0.20932 0.83781 0.50979 0.0
C1020 C 0.14677 0.80198 0.52112 0.0
C1021 C 0.15063 0.79069 0.5108 0.0
C1022 C 0.1386 0.77824 0.49771 0.0
C1023 C 0.12254 0.77701 0.49435 0.0
C1024 C 0.11861 0.78814 0.50513 0.0
C1025 C 0.13058 0.80044 0.51842 0.0
C1026 C 0.16013 0.81621 0.53343 0.0
C1027 C 0.17514 0.82844 0.52355 0.0
C1028 C 0.15774 0.81846 0.5542 0.0
C1029 C 0.14261 0.8054 0.5658 0.0
C1030 C 0.13808 0.78802 0.56534 0.0
C1031 C 0.12394 0.77577 0.57636 0.0
C1032 C 0.11421 0.78069 0.58837 0.0
C1033 C 0.11888 0.79812 0.58907 0.0
C1034 C 0.13292 0.81034 0.57785 0.0
C1035 C 0.19811 0.86062 0.56603 0.0
C1036 C 0.19357 0.87207 0.57463 0.0
C1037 C 0.20564 0.88634 0.58562 0.0
C1038 C 0.22236 0.8892 0.58855 0.0
C1039 C 0.22683 0.87759 0.58016 0.0
C1040 C 0.21482 0.86348 0.56885 0.0
C1041 C 0.18524 0.84556 0.55433 0.0
C1042 C 0.17031 0.8332 0.56433 0.0
C1043 C 0.18772 0.84315 0.53365 0.0
C1044 C 0.20257 0.85613 0.5216 0.0
C1045 C 0.20629 0.87327 0.5206 0.0
C1046 C 0.21877 0.88484 0.50714 0.0
C1047 C 0.22751 0.87939 0.49416 0.0
C1048 C 0.22421 0.86242 0.49566 0.0
C1049 C 0.21192 0.85094 0.5093 0.0
H1050 H 0.13652 0.31846 0.50024 0.0
H1051 H 0.11719 0.32127 0.47661 0.0
H1052 H 0.12748 0.36836 0.50619 0.0
H1053 H 0.14683 0.36539 0.53002 0.0
H1054 H 0.17001 0.34049 0.50259 0.0
H1055 H 0.12218 0.31774 0.54704 0.0
H1056 H 0.09841 0.31628 0.56655 0.0
H1057 H 0.13435 0.36073 0.60116 0.0
H1058 H 0.15816 0.36219 0.58144 0.0
H1059 H 0.20308 0.35977 0.582 0.0
H1060 H 0.22439 0.35656 0.60177 0.0
H1061 H 0.21317 0.3115 0.5668 0.0
H1062 H 0.1917 0.31455 0.54738 0.0
H1063 H 0.16956 0.34015 0.57781 0.0
H1064 H 0.2177 0.36194 0.52929 0.0
H1065 H 0.23883 0.36245 0.50524 0.0
H1066 H 0.19906 0.31552 0.47804 0.0
H1067 H 0.17812 0.31527 0.50176 0.0
C1068 C 0.14317 0.34174 0.51685 0.0
C1069 C 0.1345 0.32931 0.50178 0.0
C1070 C 0.12353 0.33099 0.48821 0.0
C1071 C 0.12102 0.34519 0.48932 0.0
C1072 C 0.12911 0.35726 0.50498 0.0
C1073 C 0.14015 0.35557 0.51862 0.0
C1074 C 0.1565 0.34091 0.52932 0.0
C1075 C 0.1698 0.34023 0.51906 0.0
C1076 C 0.15641 0.34096 0.5508 0.0
C1077 C 0.14196 0.34026 0.56253 0.0
C1078 C 0.12495 0.32734 0.55861 0.0
C1079 C 0.11136 0.32651 0.5698 0.0
C1080 C 0.11448 0.33845 0.58533 0.0
C1081 C 0.13154 0.35126 0.5894 0.0
C1082 C 0.14514 0.35214 0.57811 0.0
C1083 C 0.19599 0.33761 0.56292 0.0
C1084 C 0.20518 0.34917 0.57863 0.0
C1085 C 0.21731 0.3473 0.58995 0.0
C1086 C 0.22053 0.33384 0.58574 0.0
C1087 C 0.21119 0.32217 0.57016 0.0
C1088 C 0.19896 0.32395 0.55899 0.0
C1089 C 0.183 0.33953 0.55099 0.0
C1090 C 0.16983 0.34053 0.56135 0.0
C1091 C 0.18295 0.33942 0.52952 0.0
C1092 C 0.19634 0.33862 0.51721 0.0
C1093 C 0.21366 0.35163 0.51835 0.0
C1094 C 0.22569 0.3519 0.50461 0.0
C1095 C 0.22054 0.33918 0.48951 0.0
C1096 C 0.20336 0.32573 0.48916 0.0
C1097 C 0.19139 0.3255 0.50279 0.0
H1098 H 0.97592 0.35971 0.08053 0.0
H1099 H 0.01473 0.40608 0.05151 0.0
H1100 H 0.97522 0.37669 0.10913 0.0
H1101 H 0.01363 0.42307 0.07952 0.0
H1102 H 0.02144 0.44817 0.14023 0.0
H1103 H 0.02185 0.42952 0.1139 0.0
H1104 H 0.96677 0.39695 0.11922 0.0
H1105 H 0.9665 0.41504 0.14658 0.0
C1106 C 0.98417 0.37354 0.08019 0.0
C1107 C 0.99543 0.38156 0.06384 0.0
C1108 C 0.98373 0.38329 0.09653 0.0
C1109 C 0.99448 0.40128 0.09678 0.0
C1110 C 0.00547 0.40924 0.08015 0.0
C1111 C 0.006 0.39951 0.06396 0.0
C1112 C 0.00944 0.43684 0.13616 0.0
C1113 C 0.99393 0.43319 0.14559 0.0
C1114 C 0.00963 0.42626 0.12076 0.0
C1115 C 0.9943 0.41182 0.11416 0.0
C1116 C 0.97884 0.4079 0.12393 0.0
C1117 C 0.97866 0.41842 0.13948 0.0
H1118 H 0.63269 0.60132 0.06058 0.0
H1119 H 0.60636 0.63009 0.06743 0.0
H1120 H 0.61557 0.58229 0.08817 0.0
H1121 H 0.58984 0.61169 0.09555 0.0
H1122 H 0.54929 0.56444 0.12864 0.0
H1123 H 0.56718 0.58386 0.10195 0.0
H1124 H 0.61042 0.57973 0.12356 0.0
H1125 H 0.59217 0.55974 0.14987 0.0
C1126 C 0.62337 0.60368 0.06815 0.0
C1127 C 0.62076 0.61709 0.06177 0.0
C1128 C 0.61362 0.59285 0.08407 0.0
C1129 C 0.6012 0.59535 0.0941 0.0
C1130 C 0.59896 0.60908 0.08794 0.0
C1131 C 0.60853 0.61973 0.07188 0.0
C1132 C 0.56267 0.56782 0.12778 0.0
C1133 C 0.56937 0.56064 0.14137 0.0
C1134 C 0.57297 0.57901 0.1125 0.0
C1135 C 0.59033 0.58349 0.11057 0.0
C1136 C 0.59706 0.57639 0.12434 0.0
C1137 C 0.58666 0.56501 0.13949 0.0
H1138 H 0.37591 0.97998 0.066 0.0
H1139 H 0.40097 0.03531 0.06271 0.0
H1140 H 0.39455 0.9823 0.09428 0.0
H1141 H 0.41982 0.03761 0.09089 0.0
H1142 H 0.46297 0.03019 0.12185 0.0
H1143 H 0.44353 0.02947 0.09563 0.0
H1144 H 0.39998 0.99356 0.13132 0.0
H1145 H 0.41932 0.99479 0.15813 0.0
C1146 C 0.38541 0.99264 0.07132 0.0
C1147 C 0.38703 0.00747 0.06213 0.0
C1148 C 0.39599 0.99395 0.08759 0.0
C1149 C 0.40859 0.01013 0.09477 0.0
C1150 C 0.41024 0.02498 0.08557 0.0
C1151 C 0.39944 0.02367 0.06951 0.0
C1152 C 0.44926 0.02244 0.12444 0.0
C1153 C 0.44279 0.01255 0.14224 0.0
C1154 C 0.43814 0.02198 0.10931 0.0
C1155 C 0.42028 0.01143 0.11143 0.0
C1156 C 0.41373 0.00167 0.12922 0.0
C1157 C 0.42484 0.00233 0.14452 0.0
H1158 H 0.40386 0.0228 0.96974 0.0
H1159 H 0.36212 0.97185 0.95608 0.0
H1160 H 0.42018 0.02109 0.94137 0.0
H1161 H 0.37839 0.97025 0.92714 0.0
H1162 H 0.42281 0.96805 0.8928 0.0
H1163 H 0.40381 0.96825 0.9192 0.0
H1164 H 0.42042 0.02122 0.90501 0.0
H1165 H 0.43956 0.02105 0.87895 0.0
C1166 C 0.39812 0.01124 0.96057 0.0
C1167 C 0.3817 0.99746 0.96514 0.0
C1168 C 0.40743 0.01031 0.94417 0.0
C1169 C 0.40055 0.9956 0.9318 0.0
C1170 C 0.38412 0.98173 0.93642 0.0
C1171 C 0.37478 0.98266 0.95294 0.0
C1172 C 0.42216 0.97963 0.89513 0.0
C1173 C 0.4328 0.99459 0.88396 0.0
C1174 C 0.41127 0.97975 0.91025 0.0
C1175 C 0.41075 0.99482 0.91443 0.0
C1176 C 0.42081 0.00951 0.90255 0.0
C1177 C 0.43174 0.00942 0.88756 0.0
H1178 H 0.97807 0.36979 0.95948 0.0
H1179 H 0.03296 0.40029 0.96823 0.0
H1180 H 0.9799 0.38805 0.93127 0.0
H1181 H 0.0348 0.4192 0.94053 0.0
H1182 H 0.03443 0.44256 0.87923 0.0
H1183 H 0.03292 0.4224 0.90515 0.0
H1184 H 0.98402 0.41546 0.92525 0.0
H1185 H 0.98534 0.43503 0.89894 0.0
C1186 C 0.99055 0.38049 0.95539 0.0
C1187 C 0.00536 0.38367 0.96611 0.0
C1188 C 0.9916 0.39106 0.93929 0.0
C1189 C 0.00748 0.40529 0.93367 0.0
C1190 C 0.02238 0.40827 0.94421 0.0
C1191 C 0.02133 0.3975 0.96018 0.0
C1192 C 0.02335 0.43662 0.88918 0.0
C1193 C 0.00995 0.44026 0.88699 0.0
C1194 C 0.0225 0.42514 0.90411 0.0
C1195 C 0.00832 0.41721 0.91735 0.0
C1196 C 0.99496 0.42095 0.91509 0.0
C1197 C 0.99572 0.43223 0.90003 0.0
H1198 H 0.61811 0.64419 0.94856 0.0
H1199 H 0.60531 0.59683 0.97928 0.0
H1200 H 0.59845 0.62769 0.92082 0.0
H1201 H 0.58557 0.58048 0.95187 0.0
H1202 H 0.53773 0.5595 0.91104 0.0
H1203 H 0.55713 0.57757 0.93789 0.0
H1204 H 0.59697 0.60514 0.89349 0.0
H1205 H 0.57752 0.58689 0.8665 0.0
C1206 C 0.61103 0.63029 0.94942 0.0
C1207 C 0.61321 0.62177 0.96605 0.0
C1208 C 0.59989 0.62088 0.93355 0.0
C1209 C 0.5905 0.60284 0.93428 0.0
C1210 C 0.59256 0.59438 0.95102 0.0
C1211 C 0.6039 0.60374 0.96665 0.0
C1212 C 0.55056 0.56954 0.90698 0.0
C1213 C 0.55613 0.57183 0.8867 0.0
C1214 C 0.56168 0.57979 0.92234 0.0
C1215 C 0.57852 0.59271 0.91773 0.0
C1216 C 0.584 0.59532 0.8974 0.0
C1217 C 0.57294 0.58484 0.88202 0.0
H1218 H 0.98702 0.59631 0.97675 0.0
H1219 H 0.0278 0.643 0.95049 0.0
H1220 H 0.98895 0.57982 0.94874 0.0
H1221 H 0.02935 0.62655 0.92181 0.0
H1222 H 0.03938 0.58844 0.88572 0.0
H1223 H 0.03789 0.60628 0.91253 0.0
H1224 H 0.98258 0.57404 0.914 0.0
H1225 H 0.98416 0.55557 0.88833 0.0
C1226 C 0.99632 0.60308 0.96486 0.0
C1227 C 0.00725 0.62095 0.96581 0.0
C1228 C 0.99734 0.59363 0.94866 0.0
C1229 C 0.00919 0.60183 0.93283 0.0
C1230 C 0.02018 0.61976 0.93381 0.0
C1231 C 0.01925 0.62922 0.95018 0.0
C1232 C 0.0269 0.58507 0.89186 0.0
C1233 C 0.01191 0.57042 0.8849 0.0
C1234 C 0.02603 0.59546 0.90708 0.0
C1235 C 0.01013 0.59155 0.91562 0.0
C1236 C 0.9951 0.57728 0.90811 0.0
C1237 C 0.99598 0.56681 0.89307 0.0
H1238 H 0.35913 0.38481 0.95197 0.0
H1239 H 0.40654 0.39533 0.98091 0.0
H1240 H 0.3754 0.40257 0.92306 0.0
H1241 H 0.42281 0.4135 0.95254 0.0
H1242 H 0.44711 0.43077 0.89135 0.0
H1243 H 0.42925 0.41162 0.91814 0.0
H1244 H 0.39453 0.4315 0.9125 0.0
H1245 H 0.41184 0.44993 0.88471 0.0
C1246 C 0.37303 0.39106 0.95223 0.0
C1247 C 0.38156 0.38863 0.96865 0.0
C1248 C 0.38237 0.40129 0.9357 0.0
C1249 C 0.40045 0.40939 0.93534 0.0
C1250 C 0.40891 0.40717 0.95202 0.0
C1251 C 0.39959 0.39686 0.96841 0.0
C1252 C 0.43547 0.43083 0.89545 0.0
C1253 C 0.43098 0.44198 0.8858 0.0
C1254 C 0.42535 0.42001 0.91111 0.0
C1255 C 0.41054 0.42015 0.91774 0.0
C1256 C 0.40579 0.43097 0.90776 0.0
C1257 C 0.41585 0.44171 0.89196 0.0
H1258 H 0.62042 0.02283 0.97119 0.0
H1259 H 0.61355 0.97345 0.95391 0.0
H1260 H 0.60295 0.0219 0.94256 0.0
H1261 H 0.59624 0.97266 0.92477 0.0
H1262 H 0.54915 0.96976 0.89105 0.0
H1263 H 0.56835 0.96978 0.91728 0.0
H1264 H 0.60345 0.02369 0.90611 0.0
H1265 H 0.58416 0.02368 0.88009 0.0
C1266 C 0.61526 0.0118 0.96117 0.0
C1267 C 0.61835 0.9982 0.96482 0.0
C1268 C 0.60534 0.01133 0.94463 0.0
C1269 C 0.59828 0.99727 0.93124 0.0
C1270 C 0.60138 0.98363 0.93487 0.0
C1271 C 0.61134 0.9841 0.95149 0.0
C1272 C 0.56111 0.98154 0.89397 0.0
C1273 C 0.56507 0.99676 0.88363 0.0
C1274 C 0.57213 0.98155 0.909 0.0
C1275 C 0.58736 0.99678 0.91397 0.0
C1276 C 0.59164 0.01182 0.90299 0.0
C1277 C 0.58061 0.01182 0.88805 0.0
H1278 H 0.59619 0.98675 0.05154 0.0
H1279 H 0.64307 0.0257 0.07959 0.0
H1280 H 0.57958 0.98853 0.07955 0.0
H1281 H 0.62647 0.02707 0.10822 0.0
H1282 H 0.5888 0.03733 0.14496 0.0
H1283 H 0.60665 0.03613 0.11791 0.0
H1284 H 0.57323 0.98112 0.11402 0.0
H1285 H 0.55479 0.98246 0.13994 0.0
C1286 C 0.60296 0.99562 0.06381 0.0
C1287 C 0.62093 0.00607 0.06339 0.0
C1288 C 0.59344 0.99655 0.07999 0.0
C1289 C 0.60166 0.00782 0.09632 0.0
C1290 C 0.61968 0.01836 0.09584 0.0
C1291 C 0.62921 0.01754 0.07949 0.0
C1292 C 0.58518 0.02498 0.13823 0.0
C1293 C 0.57022 0.01001 0.1446 0.0
C1294 C 0.59557 0.02427 0.12287 0.0
C1295 C 0.59133 0.00855 0.1136 0.0
C1296 C 0.57673 0.99352 0.12049 0.0
C1297 C 0.56627 0.99425 0.13567 0.0
H1298 H 0.01838 0.61195 0.05274 0.0
H1299 H 0.97834 0.61861 0.07978 0.0
H1300 H 0.01695 0.59405 0.0811 0.0
H1301 H 0.97734 0.60117 0.10881 0.0
H1302 H 0.96804 0.55391 0.14623 0.0
H1303 H 0.96893 0.57261 0.11896 0.0
H1304 H 0.02416 0.59544 0.11563 0.0
H1305 H 0.02313 0.57596 0.14174 0.0
C1306 C 0.00935 0.60969 0.06488 0.0
C1307 C 0.99848 0.61669 0.06406 0.0
C1308 C 0.00862 0.59953 0.08127 0.0
C1309 C 0.99716 0.59627 0.09743 0.0
C1310 C 0.98621 0.60325 0.09656 0.0
C1311 C 0.98682 0.61331 0.07999 0.0
C1312 C 0.98036 0.56283 0.13958 0.0
C1313 C 0.99548 0.56325 0.14614 0.0
C1314 C 0.9809 0.57374 0.1241 0.0
C1315 C 0.9966 0.58546 0.1149 0.0
C1316 C 0.01178 0.58634 0.12202 0.0
C1317 C 0.01122 0.57533 0.13732 0.0
H1318 H 0.40048 0.36551 0.06432 0.0
H1319 H 0.37341 0.39319 0.07461 0.0
H1320 H 0.42001 0.38118 0.09243 0.0
H1321 H 0.39275 0.40865 0.1027 0.0
H1322 H 0.42122 0.42178 0.16345 0.0
H1323 H 0.40082 0.40302 0.13782 0.0
H1324 H 0.44289 0.41276 0.09803 0.0
H1325 H 0.46331 0.43202 0.12318 0.0
C1326 C 0.39861 0.3748 0.07271 0.0
C1327 C 0.38548 0.37819 0.06724 0.0
C1328 C 0.4098 0.3838 0.08871 0.0
C1329 C 0.40788 0.39612 0.09974 0.0
C1330 C 0.39444 0.39912 0.0946 0.0
C1331 C 0.38344 0.39034 0.07844 0.0
C1332 C 0.42617 0.42003 0.14922 0.0
C1333 C 0.44398 0.42858 0.14542 0.0
C1334 C 0.41446 0.4092 0.13459 0.0
C1335 C 0.42027 0.40645 0.11593 0.0
C1336 C 0.43804 0.41447 0.11238 0.0
C1337 C 0.44975 0.42548 0.12688 0.0
H1338 H 0.64319 0.6931 0.41174 0.0
H1339 H 0.68355 0.74033 0.38599 0.0
H1340 H 0.64136 0.70911 0.44074 0.0
H1341 H 0.68133 0.75636 0.41432 0.0
H1342 H 0.68603 0.77986 0.47517 0.0
H1343 H 0.68776 0.76179 0.44908 0.0
H1344 H 0.63252 0.72905 0.45068 0.0
H1345 H 0.63089 0.74649 0.47792 0.0
C1346 C 0.65158 0.70691 0.41223 0.0
C1347 C 0.66356 0.71545 0.39665 0.0
C1348 C 0.65049 0.71611 0.42878 0.0
C1349 C 0.66129 0.73406 0.43002 0.0
C1350 C 0.67309 0.74254 0.41422 0.0
C1351 C 0.67428 0.73335 0.39784 0.0
C1352 C 0.67426 0.76859 0.47038 0.0
C1353 C 0.65831 0.76473 0.47872 0.0
C1354 C 0.67522 0.75835 0.45509 0.0
C1355 C 0.66026 0.74407 0.44748 0.0
C1356 C 0.64434 0.73989 0.45619 0.0
C1357 C 0.64338 0.75006 0.47166 0.0
H1358 H 0.31004 0.95344 0.41533 0.0
H1359 H 0.26238 0.93803 0.3837 0.0
H1360 H 0.29393 0.93416 0.44345 0.0
H1361 H 0.24639 0.91865 0.41158 0.0
H1362 H 0.227 0.87194 0.4541 0.0
H1363 H 0.24447 0.89117 0.4268 0.0
H1364 H 0.27112 0.93211 0.4702 0.0
H1365 H 0.2535 0.91283 0.49763 0.0
C1366 C 0.29615 0.94589 0.41436 0.0
C1367 C 0.28745 0.9472 0.39734 0.0
C1368 C 0.28696 0.93496 0.43046 0.0
C1369 C 0.26895 0.92492 0.42962 0.0
C1370 C 0.26028 0.92616 0.41253 0.0
C1371 C 0.26943 0.93728 0.39663 0.0
C1372 C 0.23673 0.88498 0.45785 0.0
C1373 C 0.23894 0.8909 0.47797 0.0
C1374 C 0.24662 0.896 0.44222 0.0
C1375 C 0.25909 0.91311 0.44642 0.0
C1376 C 0.26164 0.91894 0.4666 0.0
C1377 C 0.25153 0.90797 0.48224 0.0
H1378 H 0.03588 0.33635 0.41901 0.0
H1379 H 0.07846 0.36006 0.37706 0.0
H1380 H 0.05554 0.33909 0.44615 0.0
H1381 H 0.09822 0.36316 0.40432 0.0
H1382 H 0.12159 0.3407 0.44849 0.0
H1383 H 0.10363 0.34301 0.42257 0.0
H1384 H 0.07937 0.35828 0.46817 0.0
H1385 H 0.09708 0.35538 0.49438 0.0
C1386 C 0.0495 0.34245 0.41568 0.0
C1387 C 0.05561 0.34784 0.39586 0.0
C1388 C 0.06079 0.34411 0.43128 0.0
C1389 C 0.07844 0.35119 0.42738 0.0
C1390 C 0.08465 0.35736 0.40775 0.0
C1391 C 0.07335 0.35569 0.39215 0.0
C1392 C 0.11238 0.34448 0.45303 0.0
C1393 C 0.11061 0.34764 0.47354 0.0
C1394 C 0.10224 0.34605 0.43811 0.0
C1395 C 0.09006 0.35087 0.44326 0.0
C1396 C 0.08853 0.35441 0.46372 0.0
C1397 C 0.09875 0.35288 0.47871 0.0
H1398 H 0.05061 0.30613 0.31552 0.0
H1399 H 0.03305 0.33269 0.27628 0.0
H1400 H 0.06745 0.30421 0.28752 0.0
H1401 H 0.04979 0.33071 0.24836 0.0
H1402 H 0.10175 0.34651 0.21653 0.0
H1403 H 0.08123 0.34479 0.242 0.0
H1404 H 0.06555 0.29158 0.25291 0.0
H1405 H 0.08628 0.29338 0.2275 0.0
C1406 C 0.05012 0.31129 0.30084 0.0
C1407 C 0.04059 0.31965 0.29814 0.0
C1408 C 0.05971 0.31015 0.28479 0.0
C1409 C 0.06006 0.31745 0.26578 0.0
C1410 C 0.04997 0.32518 0.2629 0.0
C1411 C 0.0403 0.32622 0.27887 0.0
C1412 C 0.09386 0.33443 0.22431 0.0
C1413 C 0.09565 0.3201 0.22007 0.0
C1414 C 0.08201 0.3334 0.23877 0.0
C1415 C 0.07176 0.31804 0.24947 0.0
C1416 C 0.07334 0.30361 0.245 0.0
C1417 C 0.08509 0.3046 0.23035 0.0
H1418 H 0.69282 0.71568 0.28083 0.0
H1419 H 0.66083 0.73175 0.31168 0.0
H1420 H 0.69676 0.73521 0.25267 0.0
H1421 H 0.66499 0.75135 0.28382 0.0
H1422 H 0.69337 0.79818 0.24214 0.0
H1423 H 0.69134 0.7787 0.26922 0.0
H1424 H 0.67639 0.73791 0.22549 0.0
H1425 H 0.67833 0.75744 0.19826 0.0
C1426 C 0.6867 0.72341 0.28161 0.0
C1427 C 0.67653 0.72222 0.29843 0.0
C1428 C 0.68889 0.7345 0.2655 0.0
C1429 C 0.68123 0.7448 0.26616 0.0
C1430 C 0.67116 0.74365 0.28303 0.0
C1431 C 0.66872 0.73238 0.29891 0.0
C1432 C 0.68989 0.78512 0.23826 0.0
C1433 C 0.68603 0.77931 0.2181 0.0
C1434 C 0.68861 0.77396 0.25376 0.0
C1435 C 0.68366 0.75682 0.24942 0.0
C1436 C 0.68032 0.7511 0.2292 0.0
C1437 C 0.68133 0.76222 0.21368 0.0
H1438 H 0.28352 0.9773 0.28621 0.0
H1439 H 0.2775 0.92993 0.31019 0.0
H1440 H 0.26568 0.96169 0.25701 0.0
H1441 H 0.25913 0.91424 0.28176 0.0
H1442 H 0.24046 0.89167 0.22067 0.0
H1443 H 0.26 0.90934 0.24713 0.0
H1444 H 0.23735 0.94187 0.24624 0.0
H1445 H 0.21866 0.92495 0.21845 0.0
C1446 C 0.27825 0.96353 0.28531 0.0
C1447 C 0.28198 0.95484 0.30039 0.0
C1448 C 0.26796 0.95456 0.26864 0.0
C1449 C 0.26104 0.93667 0.26685 0.0
C1450 C 0.26457 0.92803 0.28225 0.0
C1451 C 0.275 0.93701 0.29869 0.0
C1452 C 0.23988 0.90283 0.22566 0.0
C1453 C 0.22787 0.90679 0.2173 0.0
C1454 C 0.25092 0.91283 0.24121 0.0
C1455 C 0.25012 0.92692 0.24916 0.0
C1456 C 0.23843 0.93118 0.24049 0.0
C1457 C 0.22751 0.9213 0.2247 0.0
H1458 H 0.66006 0.92884 0.31317 0.0
H1459 H 0.69262 0.97653 0.28179 0.0
H1460 H 0.66388 0.91295 0.2856 0.0
H1461 H 0.69621 0.96047 0.2539 0.0
H1462 H 0.67678 0.91941 0.19988 0.0
H1463 H 0.67526 0.93732 0.22702 0.0
H1464 H 0.68986 0.91128 0.27086 0.0
H1465 H 0.69151 0.89354 0.24385 0.0
C1466 C 0.66804 0.93592 0.30036 0.0
C1467 C 0.67607 0.95392 0.29963 0.0
C1468 C 0.67027 0.92683 0.28464 0.0
C1469 C 0.68035 0.9355 0.26767 0.0
C1470 C 0.68831 0.9535 0.2668 0.0
C1471 C 0.68633 0.96266 0.28277 0.0
C1472 C 0.67976 0.91763 0.21531 0.0
C1473 C 0.68429 0.90513 0.21978 0.0
C1474 C 0.679 0.92792 0.23077 0.0
C1475 C 0.68242 0.92562 0.251 0.0
C1476 C 0.6871 0.91324 0.2554 0.0
C1477 C 0.68814 0.90319 0.23994 0.0
H1478 H 0.02673 0.71717 0.28245 0.0
H1479 H 0.07395 0.73501 0.31606 0.0
H1480 H 0.04298 0.73658 0.25445 0.0
H1481 H 0.09004 0.75442 0.28832 0.0
H1482 H 0.10969 0.80004 0.24484 0.0
H1483 H 0.0918 0.78095 0.27195 0.0
H1484 H 0.06641 0.73958 0.22877 0.0
H1485 H 0.08438 0.75877 0.20149 0.0
C1486 C 0.04054 0.72529 0.28389 0.0
C1487 C 0.04908 0.7246 0.30143 0.0
C1488 C 0.04982 0.7363 0.26786 0.0
C1489 C 0.06775 0.74702 0.26926 0.0
C1490 C 0.07621 0.74642 0.28691 0.0
C1491 C 0.067 0.73526 0.30274 0.0
C1492 C 0.10015 0.78694 0.24107 0.0
C1493 C 0.09841 0.7809 0.22104 0.0
C1494 C 0.09001 0.77599 0.25661 0.0
C1495 C 0.07776 0.75879 0.25246 0.0
C1496 C 0.07569 0.75282 0.23236 0.0
C1497 C 0.08604 0.76374 0.21681 0.0
H1498 H 0.29051 0.35714 0.30074 0.0
H1499 H 0.27769 0.3046 0.29063 0.0
H1500 H 0.27215 0.35516 0.27255 0.0
H1501 H 0.25949 0.30269 0.26194 0.0
H1502 H 0.21252 0.30097 0.22977 0.0
H1503 H 0.23243 0.3019 0.25555 0.0
H1504 H 0.27008 0.35307 0.2361 0.0
H1505 H 0.2501 0.35217 0.21041 0.0
C1506 C 0.28386 0.34519 0.29237 0.0
C1507 C 0.28552 0.33101 0.29793 0.0
C1508 C 0.27342 0.34409 0.27608 0.0
C1509 C 0.26439 0.32879 0.26489 0.0
C1510 C 0.26614 0.31462 0.27036 0.0
C1511 C 0.27661 0.31572 0.28672 0.0
C1512 C 0.22515 0.3123 0.23076 0.0
C1513 C 0.22967 0.32654 0.21812 0.0
C1514 C 0.23658 0.31283 0.24555 0.0
C1515 C 0.25281 0.32761 0.24802 0.0
C1516 C 0.25755 0.34162 0.23488 0.0
C1517 C 0.24611 0.3411 0.22014 0.0
H1518 H 0.26347 0.31562 0.38589 0.0
H1519 H 0.30685 0.36273 0.40773 0.0
H1520 H 0.2458 0.31664 0.41318 0.0
H1521 H 0.28897 0.36388 0.43508 0.0
H1522 H 0.2544 0.34768 0.49339 0.0
H1523 H 0.27361 0.3483 0.46659 0.0
H1524 H 0.23312 0.33412 0.42248 0.0
H1525 H 0.21408 0.33353 0.44904 0.0
C1526 C 0.26922 0.32625 0.39649 0.0
C1527 C 0.28653 0.33914 0.39461 0.0
C1528 C 0.25906 0.32688 0.41209 0.0
C1529 C 0.26595 0.34041 0.42622 0.0
C1530 C 0.28333 0.35324 0.4245 0.0
C1531 C 0.29352 0.35264 0.40878 0.0
C1532 C 0.24969 0.34484 0.47793 0.0
C1533 C 0.23263 0.34028 0.4734 0.0
C1534 C 0.26069 0.34522 0.46259 0.0
C1535 C 0.25481 0.34106 0.44246 0.0
C1536 C 0.23792 0.337 0.43791 0.0
C1537 C 0.22699 0.33663 0.45316 0.0
H1538 H 0.68988 0.96044 0.40128 0.0
H1539 H 0.63456 0.93406 0.39575 0.0
H1540 H 0.68733 0.9418 0.42963 0.0
H1541 H 0.63203 0.91527 0.42406 0.0
H1542 H 0.63952 0.87255 0.45534 0.0
H1543 H 0.64046 0.89216 0.42926 0.0
H1544 H 0.67547 0.93542 0.46599 0.0
H1545 H 0.67407 0.91586 0.4926 0.0
C1546 C 0.67718 0.95068 0.40616 0.0
C1547 C 0.66242 0.94866 0.39628 0.0
C1548 C 0.67572 0.94009 0.42246 0.0
C1549 C 0.65948 0.9271 0.42903 0.0
C1550 C 0.64471 0.92513 0.41922 0.0
C1551 C 0.64615 0.9359 0.40309 0.0
C1552 C 0.64713 0.88623 0.45817 0.0
C1553 C 0.65671 0.89256 0.47619 0.0
C1554 C 0.64771 0.89746 0.44313 0.0
C1555 C 0.65806 0.91529 0.44559 0.0
C1556 C 0.66751 0.9217 0.46362 0.0
C1557 C 0.66676 0.91047 0.47881 0.0
H1558 H 0.04183 0.73042 0.40488 0.0
H1559 H 0.06834 0.70182 0.39777 0.0
H1560 H 0.06061 0.74614 0.43331 0.0
H1561 H 0.08726 0.71771 0.42618 0.0
H1562 H 0.13021 0.76779 0.45779 0.0
H1563 H 0.11037 0.74911 0.43183 0.0
H1564 H 0.06737 0.74052 0.46924 0.0
H1565 H 0.08716 0.75871 0.4957 0.0
C1566 C 0.05163 0.72745 0.40945 0.0
C1567 C 0.05367 0.71493 0.39908 0.0
C1568 C 0.0623 0.73637 0.4258 0.0
C1569 C 0.07538 0.73314 0.43195 0.0
C1570 C 0.07734 0.72052 0.42168 0.0
C1571 C 0.06649 0.7114 0.40549 0.0
C1572 C 0.11654 0.76164 0.46079 0.0
C1573 C 0.11035 0.76484 0.47894 0.0
C1574 C 0.10518 0.75097 0.44582 0.0
C1575 C 0.08735 0.74341 0.4485 0.0
C1576 C 0.08108 0.74635 0.4667 0.0
C1577 C 0.09244 0.75684 0.4818 0.0
H1578 H 0.30309 0.03835 0.72818 0.0
H1579 H 0.35708 0.05959 0.74121 0.0
H1580 H 0.30092 0.05532 0.75577 0.0
H1581 H 0.35484 0.07599 0.76922 0.0
H1582 H 0.35022 0.1186 0.80044 0.0
H1583 H 0.35185 0.10027 0.77447 0.0
H1584 H 0.30134 0.05929 0.79159 0.0
H1585 H 0.2996 0.07794 0.81732 0.0
C1586 C 0.31443 0.04648 0.73713 0.0
C1587 C 0.33027 0.04775 0.73245 0.0
C1588 C 0.31318 0.05614 0.75302 0.0
C1589 C 0.32774 0.06716 0.7647 0.0
C1590 C 0.34345 0.06797 0.76032 0.0
C1591 C 0.34472 0.05847 0.74433 0.0
C1592 C 0.33955 0.10561 0.79882 0.0
C1593 C 0.32481 0.0997 0.81097 0.0
C1594 C 0.34048 0.09505 0.78393 0.0
C1595 C 0.32675 0.07822 0.78091 0.0
C1596 C 0.31206 0.07224 0.79325 0.0
C1597 C 0.31107 0.08289 0.80806 0.0
H1598 H 0.94019 0.29186 0.73737 0.0
H1599 H 0.96926 0.26605 0.7283 0.0
H1600 H 0.92503 0.27273 0.76571 0.0
H1601 H 0.95391 0.24675 0.75668 0.0
H1602 H 0.90432 0.20336 0.78917 0.0
H1603 H 0.92265 0.22333 0.76309 0.0
H1604 H 0.93154 0.26607 0.80114 0.0
H1605 H 0.9137 0.24615 0.82767 0.0
C1606 C 0.94337 0.28212 0.74148 0.0
C1607 C 0.95587 0.28041 0.7306 0.0
C1608 C 0.93477 0.27125 0.75779 0.0
C1609 C 0.93832 0.25829 0.76341 0.0
C1610 C 0.95087 0.25659 0.75259 0.0
C1611 C 0.95968 0.26765 0.73642 0.0
C1612 C 0.91048 0.21699 0.79227 0.0
C1613 C 0.90743 0.22309 0.8106 0.0
C1614 C 0.92095 0.22844 0.77724 0.0
C1615 C 0.92845 0.24623 0.78006 0.0
C1616 C 0.92573 0.25239 0.79848 0.0
C1617 C 0.91544 0.24096 0.81363 0.0
H1618 H 0.72371 0.69613 0.74158 0.0
H1619 H 0.72074 0.64925 0.72049 0.0
H1620 H 0.74319 0.69806 0.76886 0.0
H1621 H 0.73989 0.65106 0.74765 0.0
H1622 H 0.78939 0.66966 0.78229 0.0
H1623 H 0.77037 0.66963 0.75605 0.0
H1624 H 0.74365 0.68276 0.80068 0.0
H1625 H 0.76276 0.68269 0.8272 0.0
C1626 C 0.72718 0.68625 0.7428 0.0
C1627 C 0.72079 0.6726 0.72883 0.0
C1628 C 0.73824 0.6873 0.75846 0.0
C1629 C 0.74318 0.67479 0.7603 0.0
C1630 C 0.73657 0.66107 0.74644 0.0
C1631 C 0.72552 0.65999 0.73092 0.0
C1632 C 0.77938 0.67242 0.78659 0.0
C1633 C 0.77741 0.6759 0.80691 0.0
C1634 C 0.7685 0.67243 0.77153 0.0
C1635 C 0.75536 0.67597 0.77633 0.0
C1636 C 0.75371 0.68005 0.79651 0.0
C1637 C 0.76464 0.68 0.81168 0.0
H1638 H 0.70155 0.63693 0.62993 0.0
H1639 H 0.72971 0.69233 0.62724 0.0
H1640 H 0.71882 0.6358 0.602 0.0
H1641 H 0.74636 0.6913 0.59877 0.0
H1642 H 0.78672 0.6849 0.5649 0.0
H1643 H 0.76849 0.6858 0.59156 0.0
H1644 H 0.7251 0.6399 0.56708 0.0
H1645 H 0.74373 0.6387 0.54088 0.0
C1646 C 0.71128 0.64885 0.62318 0.0
C1647 C 0.71438 0.6647 0.63086 0.0
C1648 C 0.72113 0.64823 0.60706 0.0
C1649 C 0.73413 0.66347 0.59811 0.0
C1650 C 0.7368 0.6793 0.60552 0.0
C1651 C 0.72715 0.6799 0.62178 0.0
C1652 C 0.77324 0.67512 0.56512 0.0
C1653 C 0.76662 0.66178 0.55079 0.0
C1654 C 0.76272 0.67564 0.58038 0.0
C1655 C 0.74521 0.66296 0.58154 0.0
C1656 C 0.73855 0.64973 0.56694 0.0
C1657 C 0.74917 0.64908 0.55183 0.0
H1658 H 0.32614 0.06528 0.64925 0.0
H1659 H 0.36187 0.05384 0.61906 0.0
H1660 H 0.32814 0.08372 0.62115 0.0
H1661 H 0.36344 0.07187 0.59044 0.0
H1662 H 0.37385 0.11849 0.55119 0.0
H1663 H 0.37336 0.10073 0.57943 0.0
H1664 H 0.31893 0.08135 0.58708 0.0
H1665 H 0.31963 0.09983 0.55987 0.0
C1666 C 0.33442 0.0667 0.63656 0.0
C1667 C 0.34381 0.05808 0.63632 0.0
C1668 C 0.33546 0.07717 0.62034 0.0
C1669 C 0.34578 0.07914 0.60334 0.0
C1670 C 0.35547 0.07077 0.60332 0.0
C1671 C 0.35454 0.06039 0.61968 0.0
C1672 C 0.3618 0.11054 0.559 0.0
C1673 C 0.3468 0.11069 0.55322 0.0
C1674 C 0.36148 0.10019 0.57506 0.0
C1675 C 0.34614 0.08969 0.58569 0.0
C1676 C 0.33107 0.08951 0.57954 0.0
C1677 C 0.33141 0.09993 0.56362 0.0
H1678 H 0.93276 0.2981 0.63342 0.0
H1679 H 0.96005 0.27014 0.62853 0.0
H1680 H 0.91367 0.28091 0.60584 0.0
H1681 H 0.94166 0.25357 0.60047 0.0
H1682 H 0.89469 0.21367 0.56681 0.0
H1683 H 0.9137 0.23147 0.59384 0.0
H1684 H 0.91128 0.27516 0.57054 0.0
H1685 H 0.89165 0.257 0.54387 0.0
C1686 C 0.93477 0.28839 0.6263 0.0
C1687 C 0.94779 0.28536 0.63323 0.0
C1688 C 0.92391 0.2786 0.6104 0.0
C1689 C 0.926 0.26572 0.60092 0.0
C1690 C 0.93934 0.26305 0.60765 0.0
C1691 C 0.94999 0.27264 0.62368 0.0
C1692 C 0.89835 0.22712 0.56738 0.0
C1693 C 0.89178 0.23398 0.55317 0.0
C1694 C 0.9093 0.23738 0.58285 0.0
C1695 C 0.91419 0.25485 0.58439 0.0
C1696 C 0.90764 0.26173 0.57006 0.0
C1697 C 0.89647 0.25137 0.5547 0.0
H1698 H 0.32431 0.2629 0.64478 0.0
H1699 H 0.35788 0.31059 0.61395 0.0
H1700 H 0.3281 0.24693 0.61725 0.0
H1701 H 0.36142 0.29446 0.58611 0.0
H1702 H 0.34245 0.25358 0.5319 0.0
H1703 H 0.3407 0.27151 0.55884 0.0
H1704 H 0.35429 0.24507 0.60327 0.0
H1705 H 0.35619 0.22732 0.57646 0.0
C1706 C 0.33246 0.26996 0.63208 0.0
C1707 C 0.34083 0.28799 0.63151 0.0
C1708 C 0.33468 0.26082 0.61639 0.0
C1709 C 0.34508 0.26949 0.59962 0.0
C1710 C 0.35329 0.2875 0.59886 0.0
C1711 C 0.35132 0.2967 0.61479 0.0
C1712 C 0.34519 0.25173 0.54741 0.0
C1713 C 0.34949 0.23911 0.55211 0.0
C1714 C 0.34428 0.26202 0.56276 0.0
C1715 C 0.34731 0.2596 0.58309 0.0
C1716 C 0.35181 0.24712 0.58772 0.0
C1717 C 0.35301 0.23707 0.57238 0.0
H1718 H 0.73859 0.06501 0.64439 0.0
H1719 H 0.68989 0.04876 0.61489 0.0
H1720 H 0.75353 0.0847 0.61644 0.0
H1721 H 0.705 0.0684 0.58657 0.0
H1722 H 0.74558 0.09041 0.53143 0.0
H1723 H 0.72789 0.07108 0.55878 0.0
H1724 H 0.75415 0.11205 0.60223 0.0
H1725 H 0.7717 0.13133 0.57504 0.0
C1726 C 0.73108 0.06562 0.63189 0.0
C1727 C 0.71308 0.05537 0.63181 0.0
C1728 C 0.73963 0.07695 0.61596 0.0
C1729 C 0.73039 0.07809 0.59943 0.0
C1730 C 0.71239 0.06771 0.59915 0.0
C1731 C 0.70377 0.05656 0.61534 0.0
C1732 C 0.7474 0.09529 0.54681 0.0
C1733 C 0.75999 0.11236 0.55113 0.0
C1734 C 0.73724 0.08428 0.56239 0.0
C1735 C 0.73974 0.09009 0.58258 0.0
C1736 C 0.75204 0.10725 0.5868 0.0
C1737 C 0.76199 0.1183 0.57122 0.0
H1738 H 0.94608 0.63785 0.62129 0.0
H1739 H 0.94711 0.68351 0.64362 0.0
H1740 H 0.92648 0.63568 0.59402 0.0
H1741 H 0.92786 0.68147 0.61649 0.0
H1742 H 0.8787 0.66244 0.58134 0.0
H1743 H 0.89761 0.6623 0.60762 0.0
H1744 H 0.92569 0.65129 0.56261 0.0
H1745 H 0.90665 0.65149 0.53606 0.0
C1746 C 0.94215 0.64741 0.62035 0.0
C1747 C 0.94804 0.66078 0.63466 0.0
C1748 C 0.93102 0.64622 0.60471 0.0
C1749 C 0.92551 0.65832 0.60321 0.0
C1750 C 0.93161 0.67176 0.61743 0.0
C1751 C 0.94272 0.67298 0.63293 0.0
C1752 C 0.88896 0.66008 0.57698 0.0
C1753 C 0.89136 0.65727 0.55655 0.0
C1754 C 0.89978 0.65998 0.59206 0.0
C1755 C 0.91329 0.65703 0.58716 0.0
C1756 C 0.91534 0.65354 0.56685 0.0
C1757 C 0.90446 0.65367 0.55167 0.0
H1758 H 0.93979 0.64163 0.73643 0.0
H1759 H 0.96776 0.69702 0.73334 0.0
H1760 H 0.92324 0.64273 0.76498 0.0
H1761 H 0.95059 0.69822 0.76132 0.0
H1762 H 0.92592 0.69568 0.82237 0.0
H1763 H 0.94451 0.69428 0.79628 0.0
H1764 H 0.90108 0.64822 0.77215 0.0
H1765 H 0.88288 0.64932 0.79874 0.0
C1766 C 0.94233 0.65406 0.74183 0.0
C1767 C 0.95501 0.66924 0.73262 0.0
C1768 C 0.93274 0.65471 0.75813 0.0
C1769 C 0.93539 0.67056 0.76544 0.0
C1770 C 0.94831 0.68578 0.75635 0.0
C1771 C 0.95809 0.68511 0.74021 0.0
C1772 C 0.92047 0.68522 0.81153 0.0
C1773 C 0.90302 0.67254 0.81263 0.0
C1774 C 0.93106 0.68446 0.79649 0.0
C1775 C 0.92436 0.67114 0.78201 0.0
C1776 C 0.90686 0.65846 0.78324 0.0
C1777 C 0.89636 0.65909 0.79845 0.0
H1778 H 0.3449 0.27395 0.71586 0.0
H1779 H 0.30966 0.28643 0.74547 0.0
H1780 H 0.34144 0.25449 0.74359 0.0
H1781 H 0.30643 0.26704 0.77354 0.0
H1782 H 0.3253 0.24581 0.82859 0.0
H1783 H 0.32707 0.26545 0.80154 0.0
H1784 H 0.31564 0.22597 0.75698 0.0
H1785 H 0.31374 0.2064 0.78386 0.0
C1786 C 0.33645 0.27257 0.72834 0.0
C1787 C 0.32751 0.28167 0.72849 0.0
C1788 C 0.33443 0.26139 0.74415 0.0
C1789 C 0.32364 0.25925 0.76065 0.0
C1790 C 0.31487 0.26852 0.76101 0.0
C1791 C 0.31666 0.27952 0.74495 0.0
C1792 C 0.32308 0.24136 0.81301 0.0
C1793 C 0.31934 0.22459 0.8083 0.0
C1794 C 0.32399 0.25253 0.7976 0.0
C1795 C 0.32152 0.2472 0.77722 0.0
C1796 C 0.31767 0.23041 0.77257 0.0
C1797 C 0.31647 0.21919 0.78795 0.0
H1798 H 0.71418 0.02399 0.74849 0.0
H1799 H 0.73379 0.07186 0.71587 0.0
H1800 H 0.73403 0.03933 0.77659 0.0
H1801 H 0.75358 0.08699 0.74363 0.0
H1802 H 0.79936 0.10464 0.78598 0.0
H1803 H 0.77967 0.087 0.75918 0.0
H1804 H 0.73845 0.06325 0.80284 0.0
H1805 H 0.75825 0.08097 0.82984 0.0
C1806 C 0.72276 0.03773 0.7473 0.0
C1807 C 0.72246 0.04673 0.73 0.0
C1808 C 0.73403 0.04649 0.76338 0.0
C1809 C 0.74538 0.06432 0.76221 0.0
C1810 C 0.7451 0.07322 0.74485 0.0
C1811 C 0.73371 0.06456 0.729 0.0
C1812 C 0.78617 0.09548 0.78995 0.0
C1813 C 0.78034 0.09418 0.81002 0.0
C1814 C 0.77488 0.08548 0.77457 0.0
C1815 C 0.75754 0.07382 0.77893 0.0
C1816 C 0.75178 0.07208 0.7991 0.0
C1817 C 0.76306 0.08228 0.81449 0.0
H1818 H 0.05813 0.36079 0.02437 0.0
H1819 H 0.01876 0.32543 0.06537 0.0
H1820 H 0.07943 0.35624 0.04213 0.0
H1821 H 0.04 0.32104 0.08321 0.0
H1822 H 0.0793 0.30495 0.09897 0.0
H1823 H 0.05844 0.30842 0.0788 0.0
H1824 H 0.09378 0.36308 0.07545 0.0
H1825 H 0.1148 0.35954 0.09512 0.0
C1826 C 0.05402 0.35201 0.03711 0.0
C1827 C 0.03679 0.34349 0.04349 0.0
C1828 C 0.06623 0.34947 0.04736 0.0
C1829 C 0.06142 0.33829 0.06411 0.0
C1830 C 0.0441 0.32958 0.07023 0.0
C1831 C 0.03194 0.33217 0.06007 0.0
C1832 C 0.08268 0.31768 0.09374 0.0
C1833 C 0.09869 0.33197 0.09872 0.0
C1834 C 0.07067 0.31969 0.08234 0.0
C1835 C 0.07443 0.33604 0.07555 0.0
C1836 C 0.09054 0.3503 0.08028 0.0
C1837 C 0.10251 0.34829 0.09176 0.0
H1838 H 0.66605 0.68743 0.06953 0.0
H1839 H 0.65287 0.7056 0.01555 0.0
H1840 H 0.67006 0.71273 0.0881 0.0
H1841 H 0.65738 0.73121 0.03411 0.0
H1842 H 0.68859 0.78258 0.0735 0.0
H1843 H 0.68506 0.75778 0.05386 0.0
H1844 H 0.64731 0.72351 0.09704 0.0
H1845 H 0.65051 0.74827 0.11634 0.0
C1846 C 0.6642 0.69693 0.06158 0.0
C1847 C 0.65914 0.69457 0.0411 0.0
C1848 C 0.66642 0.71133 0.07224 0.0
C1849 C 0.664 0.72383 0.0625 0.0
C1850 C 0.65937 0.72173 0.04189 0.0
C1851 C 0.65676 0.70711 0.03133 0.0
C1852 C 0.67955 0.76972 0.07871 0.0
C1853 C 0.6698 0.76725 0.09636 0.0
C1854 C 0.67748 0.75561 0.06748 0.0
C1855 C 0.66594 0.73882 0.07402 0.0
C1856 C 0.65633 0.73636 0.09177 0.0
C1857 C 0.6581 0.75046 0.10273 0.0
H1858 H 0.31727 0.97884 0.0715 0.0
H1859 H 0.29685 0.95136 0.01525 0.0
H1860 H 0.29186 0.95707 0.08955 0.0
H1861 H 0.27114 0.92977 0.03336 0.0
H1862 H 0.2208 0.90932 0.07492 0.0
H1863 H 0.24577 0.93082 0.05563 0.0
H1864 H 0.27953 0.92298 0.09514 0.0
H1865 H 0.25459 0.90122 0.11407 0.0
C1866 C 0.30727 0.96823 0.06297 0.0
C1867 C 0.30901 0.96677 0.04198 0.0
C1868 C 0.29281 0.95577 0.07332 0.0
C1869 C 0.27963 0.9418 0.06281 0.0
C1870 C 0.28114 0.94049 0.04175 0.0
C1871 C 0.29583 0.95278 0.03144 0.0
C1872 C 0.23358 0.91221 0.07939 0.0
C1873 C 0.23585 0.90368 0.09592 0.0
C1874 C 0.24779 0.92439 0.06834 0.0
C1875 C 0.2645 0.9285 0.07397 0.0
C1876 C 0.26676 0.92004 0.09058 0.0
C1877 C 0.25254 0.9076 0.10133 0.0
H1878 H 0.32143 0.02004 0.97217 0.0
H1879 H 0.36559 0.0609 1.00257 0.0
H1880 H 0.31689 0.04115 0.95431 0.0
H1881 H 0.36144 0.08211 0.9842 0.0
H1882 H 0.34039 0.1157 0.96061 0.0
H1883 H 0.34346 0.09448 0.98044 0.0
H1884 H 0.32958 0.06159 0.92768 0.0
H1885 H 0.3262 0.08267 0.90806 0.0
C1886 C 0.33017 0.03356 0.97505 0.0
C1887 C 0.34389 0.03882 0.98874 0.0
C1888 C 0.32765 0.04568 0.96468 0.0
C1889 C 0.33889 0.06338 0.96763 0.0
C1890 C 0.35241 0.06861 0.98169 0.0
C1891 C 0.35485 0.05646 0.99217 0.0
C1892 C 0.33807 0.10395 0.95326 0.0
C1893 C 0.33303 0.10084 0.93278 0.0
C1894 C 0.33985 0.09179 0.96461 0.0
C1895 C 0.33674 0.07627 0.95571 0.0
C1896 C 0.33175 0.07322 0.93518 0.0
C1897 C 0.32985 0.08533 0.92389 0.0
H1898 H 0.94209 0.30719 1.00185 0.0
H1899 H 0.98344 0.3021 0.97594 0.0
H1900 H 0.92123 0.28199 0.98287 0.0
H1901 H 0.96263 0.27662 0.95746 0.0
H1902 H 0.92285 0.24467 0.90921 0.0
H1903 H 0.94351 0.26913 0.92927 0.0
H1904 H 0.9082 0.25145 0.97993 0.0
H1905 H 0.88744 0.22714 0.95968 0.0
C1906 C 0.9467 0.30054 0.99231 0.0
C1907 C 0.9644 0.30665 0.99033 0.0
C1908 C 0.93474 0.28604 0.98147 0.0
C1909 C 0.94022 0.27729 0.9685 0.0
C1910 C 0.95794 0.28321 0.96697 0.0
C1911 C 0.96988 0.29775 0.9777 0.0
C1912 C 0.91956 0.24596 0.92468 0.0
C1913 C 0.90351 0.23398 0.93284 0.0
C1914 C 0.93142 0.25996 0.93622 0.0
C1915 C 0.92758 0.26228 0.95628 0.0
C1916 C 0.91152 0.25024 0.96445 0.0
C1917 C 0.89961 0.23628 0.95285 0.0
H1918 H 0.69471 0.676 0.96471 0.0
H1919 H 0.69687 0.63917 0.00486 0.0
H1920 H 0.72 0.67961 0.94675 0.0
H1921 H 0.72244 0.64299 0.98705 0.0
H1922 H 0.7544 0.6393 0.93446 0.0
H1923 H 0.72989 0.63626 0.95384 0.0
H1924 H 0.75075 0.69117 0.95107 0.0
H1925 H 0.77494 0.69414 0.9311 0.0
C1926 C 0.70069 0.66878 0.96981 0.0
C1927 C 0.6938 0.65728 0.98618 0.0
C1928 C 0.71525 0.67092 0.95958 0.0
C1929 C 0.72324 0.66158 0.96545 0.0
C1930 C 0.71646 0.65022 0.982 0.0
C1931 C 0.70189 0.64811 0.99228 0.0
C1932 C 0.75368 0.6507 0.93785 0.0
C1933 C 0.76659 0.66695 0.93115 0.0
C1934 C 0.73975 0.64899 0.94918 0.0
C1935 C 0.73837 0.66347 0.95402 0.0
C1936 C 0.75134 0.67973 0.94743 0.0
C1937 C 0.76529 0.68145 0.93615 0.0
H1938 H 0.98399 0.6794 0.97234 0.0
H1939 H 0.94354 0.63469 1.00238 0.0
H1940 H 0.96259 0.68365 0.95474 0.0
H1941 H 0.92204 0.63864 0.9843 0.0
H1942 H 0.88831 0.66023 0.96212 0.0
H1943 H 0.90969 0.65698 0.98143 0.0
H1944 H 0.94189 0.67056 0.92807 0.0
H1945 H 0.92062 0.674 0.90892 0.0
C1946 C 0.97051 0.67046 0.97517 0.0
C1947 C 0.96544 0.65668 0.9887 0.0
C1948 C 0.95823 0.67283 0.96497 0.0
C1949 C 0.94057 0.66141 0.96796 0.0
C1950 C 0.93551 0.64778 0.98179 0.0
C1951 C 0.94783 0.64546 0.99208 0.0
C1952 C 0.89993 0.66244 0.95452 0.0
C1953 C 0.9028 0.66741 0.93401 0.0
C1954 C 0.91218 0.66056 0.96557 0.0
C1955 C 0.92755 0.66354 0.95634 0.0
C1956 C 0.93036 0.66848 0.9358 0.0
C1957 C 0.91816 0.67043 0.92479 0.0
H1958 H 0.32223 0.30633 0.9716 0.0
H1959 H 0.36539 0.30806 1.00261 0.0
H1960 H 0.31727 0.2807 0.95335 0.0
H1961 H 0.36091 0.28278 0.98378 0.0
H1962 H 0.33925 0.22834 0.95995 0.0
H1963 H 0.34268 0.25276 0.97976 0.0
H1964 H 0.32911 0.27204 0.92699 0.0
H1965 H 0.32522 0.24733 0.90746 0.0
C1966 C 0.33069 0.30124 0.97447 0.0
C1967 C 0.34421 0.30921 0.98852 0.0
C1968 C 0.32794 0.2866 0.96389 0.0
C1969 C 0.33875 0.27967 0.96693 0.0
C1970 C 0.35216 0.28758 0.98121 0.0
C1971 C 0.35481 0.30213 0.99195 0.0
C1972 C 0.33703 0.23783 0.95262 0.0
C1973 C 0.33197 0.23593 0.93216 0.0
C1974 C 0.33905 0.25188 0.96394 0.0
C1975 C 0.33621 0.26446 0.95502 0.0
C1976 C 0.33111 0.26249 0.93452 0.0
C1977 C 0.32892 0.24835 0.92327 0.0
H1978 H 0.69455 0.05965 1.00142 0.0
H1979 H 0.69935 0.01859 0.97413 0.0
H1980 H 0.72029 0.08074 0.98326 0.0
H1981 H 0.72501 0.03965 0.95598 0.0
H1982 H 0.77994 0.08358 0.94263 0.0
H1983 H 0.7553 0.06289 0.96251 0.0
H1984 H 0.72798 0.0894 0.94689 0.0
H1985 H 0.7524 0.10986 0.92663 0.0
C1986 C 0.70117 0.05514 0.99167 0.0
C1987 C 0.69493 0.03748 0.98916 0.0
C1988 C 0.71583 0.06721 0.98119 0.0
C1989 C 0.72462 0.06184 0.96815 0.0
C1990 C 0.7186 0.04418 0.96605 0.0
C1991 C 0.70387 0.03212 0.97637 0.0
C1992 C 0.76862 0.08491 0.94322 0.0
C1993 C 0.76819 0.09842 0.93297 0.0
C1994 C 0.75453 0.07309 0.95469 0.0
C1995 C 0.73974 0.07457 0.95632 0.0
C1996 C 0.73932 0.0881 0.94619 0.0
C1997 C 0.75334 0.09983 0.93459 0.0
H1998 H 0.634 0.94207 0.02915 0.0
H1999 H 0.68029 0.98258 0.05654 0.0
H2000 H 0.63784 0.92069 0.04765 0.0
H2001 H 0.68449 0.96132 0.07447 0.0
H2002 H 0.67641 0.9208 0.12125 0.0
H2003 H 0.67255 0.94173 0.10196 0.0
H2004 H 0.65512 0.90743 0.05034 0.0
H2005 H 0.65865 0.88636 0.06989 0.0
C2006 C 0.64511 0.94638 0.03893 0.0
C2007 C 0.6568 0.96399 0.04147 0.0
C2008 C 0.64736 0.93414 0.04948 0.0
C2009 C 0.66143 0.93926 0.06269 0.0
C2010 C 0.67332 0.95689 0.06479 0.0
C2011 C 0.67098 0.9691 0.05438 0.0
C2012 C 0.67185 0.91779 0.10574 0.0
C2013 C 0.66785 0.90195 0.09708 0.0
C2014 C 0.66968 0.9298 0.09463 0.0
C2015 C 0.66359 0.92634 0.07452 0.0
C2016 C 0.65959 0.91046 0.06587 0.0
C2017 C 0.66165 0.89838 0.07705 0.0
H2018 H 0.02035 0.69856 0.05624 0.0
H2019 H 0.06144 0.69356 0.02933 0.0
H2020 H 0.04132 0.72416 0.07434 0.0
H2021 H 0.0825 0.7189 0.04799 0.0
H2022 H 0.11632 0.77399 0.07038 0.0
H2023 H 0.09536 0.74943 0.05062 0.0
H2024 H 0.06086 0.73201 0.10206 0.0
H2025 H 0.08169 0.75676 0.1216 0.0
C2026 C 0.03389 0.70294 0.05421 0.0
C2027 C 0.03925 0.69405 0.04139 0.0
C2028 C 0.04592 0.71755 0.06472 0.0
C2029 C 0.06363 0.72355 0.06279 0.0
C2030 C 0.06899 0.71478 0.04967 0.0
C2031 C 0.05693 0.70021 0.03904 0.0
C2032 C 0.10427 0.76486 0.07746 0.0
C2033 C 0.10064 0.76731 0.09754 0.0
C2034 C 0.09227 0.75075 0.06616 0.0
C2035 C 0.07638 0.7387 0.07471 0.0
C2036 C 0.0728 0.74118 0.09483 0.0
C2037 C 0.08476 0.75534 0.10607 0.0
H2038 H 0.29965 0.31941 0.05091 0.0
H2039 H 0.31287 0.37161 0.03743 0.0
H2040 H 0.27407 0.31505 0.06918 0.0
H2041 H 0.28737 0.36728 0.05584 0.0
H2042 H 0.25339 0.35812 0.11288 0.0
H2043 H 0.27794 0.3621 0.09291 0.0
H2044 H 0.24566 0.31416 0.06198 0.0
H2045 H 0.22087 0.31037 0.08143 0.0
C2046 C 0.29703 0.32991 0.05177 0.0
C2047 C 0.30825 0.34585 0.04277 0.0
C2048 C 0.28237 0.3274 0.06215 0.0
C2049 C 0.27878 0.34085 0.06399 0.0
C2050 C 0.28991 0.35673 0.05481 0.0
C2051 C 0.30444 0.35917 0.04417 0.0
C2052 C 0.2514 0.34852 0.10162 0.0
C2053 C 0.23506 0.33394 0.09877 0.0
C2054 C 0.26551 0.3508 0.09023 0.0
C2055 C 0.2637 0.33846 0.07587 0.0
C2056 C 0.24745 0.32381 0.07309 0.0
C2057 C 0.23328 0.32161 0.08432 0.0
H2058 H 0.72785 0.70266 0.36031 0.0
H2059 H 0.68746 0.6576 0.3899 0.0
H2060 H 0.74941 0.69855 0.37808 0.0
H2061 H 0.70897 0.65359 0.40778 0.0
H2062 H 0.75261 0.64254 0.42095 0.0
H2063 H 0.73148 0.64608 0.40151 0.0
H2064 H 0.75977 0.70064 0.41331 0.0
H2065 H 0.78077 0.69712 0.43297 0.0
C2066 C 0.72359 0.69184 0.37054 0.0
C2067 C 0.70597 0.68046 0.37374 0.0
C2068 C 0.73592 0.68955 0.3808 0.0
C2069 C 0.7309 0.67577 0.39438 0.0
C2070 C 0.71327 0.66423 0.39727 0.0
C2071 C 0.70094 0.66658 0.38711 0.0
C2072 C 0.75425 0.65528 0.41956 0.0
C2073 C 0.7684 0.66954 0.42857 0.0
C2074 C 0.74216 0.6573 0.40837 0.0
C2075 C 0.74396 0.67365 0.40584 0.0
C2076 C 0.75816 0.68792 0.41471 0.0
C2077 C 0.77021 0.68589 0.42597 0.0
H2078 H 0.31743 0.03685 0.35104 0.0
H2079 H 0.32511 0.0172 0.4075 0.0
H2080 H 0.32097 0.06239 0.36894 0.0
H2081 H 0.32817 0.04242 0.42534 0.0
H2082 H 0.31021 0.0798 0.4501 0.0
H2083 H 0.30662 0.05468 0.43129 0.0
H2084 H 0.34732 0.08801 0.39044 0.0
H2085 H 0.35119 0.11315 0.40956 0.0
C2086 C 0.31982 0.03797 0.36724 0.0
C2087 C 0.32103 0.02509 0.37789 0.0
C2088 C 0.32188 0.05256 0.37743 0.0
C2089 C 0.32478 0.05427 0.39848 0.0
C2090 C 0.32585 0.04132 0.40912 0.0
C2091 C 0.32417 0.02696 0.39889 0.0
C2092 C 0.31834 0.08172 0.43707 0.0
C2093 C 0.331 0.09834 0.43126 0.0
C2094 C 0.31633 0.0674 0.42639 0.0
C2095 C 0.32668 0.06948 0.40945 0.0
C2096 C 0.33913 0.08612 0.40339 0.0
C2097 C 0.3414 0.10043 0.41436 0.0
H2098 H 0.97893 0.27279 0.36398 0.0
H2099 H 0.96736 0.31143 0.38474 0.0
H2100 H 0.95423 0.2509 0.38299 0.0
H2101 H 0.94263 0.28963 0.40336 0.0
H2102 H 0.91339 0.25129 0.45353 0.0
H2103 H 0.93768 0.27213 0.43345 0.0
H2104 H 0.92259 0.23551 0.3844 0.0
H2105 H 0.8982 0.2146 0.40453 0.0
C2106 C 0.97101 0.27656 0.37241 0.0
C2107 C 0.97513 0.29383 0.37295 0.0
C2108 C 0.95684 0.26403 0.38325 0.0
C2109 C 0.94656 0.26855 0.39486 0.0
C2110 C 0.95047 0.28577 0.39491 0.0
C2111 C 0.96458 0.29824 0.3841 0.0
C2112 C 0.91517 0.24771 0.43841 0.0
C2113 C 0.90378 0.23131 0.43061 0.0
C2114 C 0.92909 0.25966 0.42689 0.0
C2115 C 0.932 0.25554 0.40724 0.0
C2116 C 0.9208 0.23903 0.39954 0.0
C2117 C 0.90684 0.22705 0.41109 0.0
H2118 H 0.9889 0.35495 0.31112 0.0
H2119 H 0.03846 0.3934 0.33413 0.0
H2120 H 0.98602 0.37714 0.29342 0.0
H2121 H 0.03546 0.41574 0.31664 0.0
H2122 H 0.03276 0.44612 0.26145 0.0
H2123 H 0.0355 0.42488 0.28161 0.0
H2124 H 0.98211 0.40169 0.29908 0.0
H2125 H 0.97938 0.42294 0.27894 0.0
C2126 C 0.9991 0.36819 0.31258 0.0
C2127 C 0.01393 0.37243 0.32397 0.0
C2128 C 0.99741 0.38092 0.30251 0.0
C2129 C 0.01053 0.39822 0.30357 0.0
C2130 C 0.02523 0.40251 0.31531 0.0
C2131 C 0.0269 0.38974 0.32544 0.0
C2132 C 0.02165 0.4366 0.26976 0.0
C2133 C 0.00583 0.4362 0.26852 0.0
C2134 C 0.02323 0.42445 0.28135 0.0
C2135 C 0.00903 0.41159 0.29196 0.0
C2136 C 0.99325 0.41127 0.29086 0.0
C2137 C 0.99167 0.42344 0.27928 0.0
H2138 H 0.6094 0.64532 0.33177 0.0
H2139 H 0.64964 0.6388 0.30506 0.0
H2140 H 0.58787 0.62036 0.3129 0.0
H2141 H 0.62821 0.61366 0.28667 0.0
H2142 H 0.58774 0.58209 0.23921 0.0
H2143 H 0.60873 0.60674 0.25873 0.0
H2144 H 0.57438 0.5895 0.31029 0.0
H2145 H 0.5533 0.56493 0.29062 0.0
C2146 C 0.61362 0.63844 0.32203 0.0
C2147 C 0.6312 0.64405 0.31984 0.0
C2148 C 0.60129 0.6241 0.31127 0.0
C2149 C 0.6063 0.61504 0.29814 0.0
C2150 C 0.6239 0.6205 0.29632 0.0
C2151 C 0.63619 0.63485 0.30699 0.0
C2152 C 0.58472 0.58351 0.25475 0.0
C2153 C 0.56886 0.57153 0.26336 0.0
C2154 C 0.59676 0.59763 0.26598 0.0
C2155 C 0.5933 0.60009 0.28615 0.0
C2156 C 0.57739 0.58814 0.29473 0.0
C2157 C 0.56531 0.57405 0.28346 0.0
H2158 H 0.3589 0.96645 0.33445 0.0
H2159 H 0.36622 0.01418 0.3099 0.0
H2160 H 0.38379 0.97011 0.31534 0.0
H2161 H 0.39135 0.0181 0.29122 0.0
H2162 H 0.42169 0.00868 0.24207 0.0
H2163 H 0.39774 0.00579 0.26244 0.0
H2164 H 0.41466 0.98714 0.31276 0.0
H2165 H 0.43851 0.98988 0.29228 0.0
C2166 C 0.36597 0.97783 0.32518 0.0
C2167 C 0.36058 0.98999 0.32362 0.0
C2168 C 0.38028 0.97998 0.31428 0.0
C2169 C 0.38953 0.99435 0.30163 0.0
C2170 C 0.38435 0.00672 0.30051 0.0
C2171 C 0.37002 0.00454 0.31135 0.0
C2172 C 0.42036 0.00409 0.25753 0.0
C2173 C 0.43199 0.99949 0.26554 0.0
C2174 C 0.40665 0.00246 0.26924 0.0
C2175 C 0.40427 0.99626 0.28928 0.0
C2176 C 0.41595 0.99171 0.2973 0.0
C2177 C 0.42963 0.99329 0.28556 0.0
H2178 H 0.60832 0.96617 0.3333 0.0
H2179 H 0.6488 0.01192 0.30499 0.0
H2180 H 0.58685 0.97011 0.31513 0.0
H2181 H 0.62743 0.0162 0.28735 0.0
H2182 H 0.58613 0.00753 0.24111 0.0
H2183 H 0.60733 0.00394 0.26021 0.0
H2184 H 0.57392 0.98776 0.31264 0.0
H2185 H 0.55259 0.99107 0.29332 0.0
C2186 C 0.61261 0.97718 0.32337 0.0
C2187 C 0.63023 0.98869 0.32049 0.0
C2188 C 0.60032 0.97949 0.31302 0.0
C2189 C 0.60539 0.99343 0.29966 0.0
C2190 C 0.62305 0.00514 0.29719 0.0
C2191 C 0.63531 0.00276 0.30742 0.0
C2192 C 0.58338 0.00334 0.25676 0.0
C2193 C 0.5677 0.9996 0.26571 0.0
C2194 C 0.59555 0.00131 0.26775 0.0
C2195 C 0.59239 0.99561 0.28803 0.0
C2196 C 0.57669 0.99193 0.29699 0.0
C2197 C 0.56448 0.99386 0.28594 0.0
H2198 H 0.03727 0.64523 0.33591 0.0
H2199 H 0.99221 0.63977 0.30553 0.0
H2200 H 0.03379 0.6198 0.31816 0.0
H2201 H 0.98877 0.61443 0.28776 0.0
H2202 H 0.97872 0.55982 0.27552 0.0
H2203 H 0.98172 0.58438 0.29469 0.0
H2204 H 0.03626 0.61189 0.28249 0.0
H2205 H 0.03328 0.58753 0.26296 0.0
C2206 C 0.02658 0.63855 0.32553 0.0
C2207 C 0.01503 0.6445 0.32209 0.0
C2208 C 0.02465 0.62406 0.31528 0.0
C2209 C 0.01102 0.61513 0.30153 0.0
C2210 C 0.9993 0.62093 0.2984 0.0
C2211 C 1.00132 0.63549 0.30851 0.0
C2212 C 0.99134 0.57116 0.27672 0.0
C2213 C 0.00575 0.57166 0.26763 0.0
C2214 C 0.99305 0.58521 0.28778 0.0
C2215 C 0.00923 0.60006 0.29014 0.0
C2216 C 0.02366 0.60053 0.28121 0.0
C2217 C 0.02194 0.58654 0.27003 0.0
H2218 H 0.36239 0.39404 0.33561 0.0
H2219 H 0.36875 0.35328 0.3103 0.0
H2220 H 0.38773 0.4152 0.31708 0.0
H2221 H 0.39436 0.3744 0.29227 0.0
H2222 H 0.42528 0.41425 0.24355 0.0
H2223 H 0.40124 0.39326 0.26386 0.0
H2224 H 0.41844 0.42877 0.31431 0.0
H2225 H 0.44233 0.44986 0.2938 0.0
C2226 C 0.36937 0.38963 0.32634 0.0
C2227 C 0.36354 0.37201 0.32432 0.0
C2228 C 0.38394 0.40176 0.31577 0.0
C2229 C 0.39304 0.39651 0.30303 0.0
C2230 C 0.38748 0.37888 0.3016 0.0
C2231 C 0.37287 0.36678 0.31206 0.0
C2232 C 0.424 0.4175 0.25904 0.0
C2233 C 0.43569 0.43371 0.26706 0.0
C2234 C 0.41024 0.40546 0.27072 0.0
C2235 C 0.4079 0.40928 0.29078 0.0
C2236 C 0.41969 0.42547 0.29884 0.0
C2237 C 0.4334 0.43756 0.2871 0.0
H2238 H 0.32177 0.28376 0.34949 0.0
H2239 H 0.32685 0.30999 0.40622 0.0
H2240 H 0.32523 0.26183 0.36761 0.0
H2241 H 0.32991 0.28793 0.42424 0.0
H2242 H 0.31196 0.23267 0.44863 0.0
H2243 H 0.30888 0.25439 0.42961 0.0
H2244 H 0.35043 0.26202 0.39009 0.0
H2245 H 0.35373 0.24049 0.40938 0.0
C2246 C 0.32361 0.28482 0.36579 0.0
C2247 C 0.32407 0.29857 0.37646 0.0
C2248 C 0.32564 0.27233 0.37611 0.0
C2249 C 0.32777 0.27321 0.39729 0.0
C2250 C 0.32817 0.28692 0.40792 0.0
C2251 C 0.32651 0.29957 0.39759 0.0
C2252 C 0.32038 0.23897 0.43584 0.0
C2253 C 0.33309 0.23498 0.43045 0.0
C2254 C 0.31868 0.25141 0.42505 0.0
C2255 C 0.32942 0.25982 0.40842 0.0
C2256 C 0.34195 0.25563 0.4028 0.0
C2257 C 0.34389 0.24343 0.41387 0.0
H2258 H 0.6882 0.0187 0.40372 0.0
H2259 H 0.71986 0.03666 0.34993 0.0
H2260 H 0.70947 0.04409 0.42226 0.0
H2261 H 0.74095 0.06235 0.36844 0.0
H2262 H 0.7615 0.1139 0.40707 0.0
H2263 H 0.74004 0.08901 0.38765 0.0
H2264 H 0.74282 0.05493 0.43164 0.0
H2265 H 0.76456 0.07977 0.45074 0.0
C2266 C 0.69962 0.02816 0.39581 0.0
C2267 C 0.70241 0.02572 0.3754 0.0
C2268 C 0.71179 0.04262 0.40644 0.0
C2269 C 0.72679 0.05509 0.39673 0.0
C2270 C 0.72942 0.0529 0.37619 0.0
C2271 C 0.71741 0.03822 0.36566 0.0
C2272 C 0.75748 0.10106 0.41252 0.0
C2273 C 0.76461 0.09866 0.43033 0.0
C2274 C 0.74532 0.08689 0.40141 0.0
C2275 C 0.73983 0.07013 0.40822 0.0
C2276 C 0.74683 0.06775 0.42616 0.0
C2277 C 0.75926 0.0819 0.43701 0.0
H2278 H 0.97721 0.66171 0.39833 0.0
H2279 H 0.97209 0.6964 0.35742 0.0
H2280 H 0.95188 0.65738 0.41699 0.0
H2281 H 0.94675 0.69212 0.37617 0.0
H2282 H 0.89206 0.66621 0.40328 0.0
H2283 H 0.91658 0.66938 0.3837 0.0
H2284 H 0.94424 0.67479 0.43937 0.0
H2285 H 0.91962 0.67133 0.45895 0.0
C2286 C 0.97062 0.66834 0.39326 0.0
C2287 C 0.97665 0.67941 0.37642 0.0
C2288 C 0.95618 0.66595 0.40403 0.0
C2289 C 0.94736 0.67447 0.39812 0.0
C2290 C 0.95319 0.68527 0.38101 0.0
C2291 C 0.96773 0.68777 0.37032 0.0
C2292 C 0.90333 0.66794 0.41133 0.0
C2293 C 0.9039 0.6685 0.43267 0.0
C2294 C 0.91742 0.66991 0.40012 0.0
C2295 C 0.93234 0.67232 0.40999 0.0
C2296 C 0.93287 0.67279 0.43133 0.0
C2297 C 0.91884 0.67097 0.44253 0.0
H2298 H 0.35349 0.9904 0.72501 0.0
H2299 H 0.39365 0.03024 0.68864 0.0
H2300 H 0.37479 0.98604 0.74272 0.0
H2301 H 0.41498 0.02557 0.70596 0.0
H2302 H 0.44933 0.02788 0.75881 0.0
H2303 H 0.42823 0.03086 0.73881 0.0
H2304 H 0.3947 0.97577 0.73968 0.0
H2305 H 0.41549 0.97286 0.76059 0.0
C2306 C 0.36686 0.99805 0.72059 0.0
C2307 C 0.3719 0.01072 0.7055 0.0
C2308 C 0.37908 0.9955 0.73067 0.0
C2309 C 0.39664 0.00551 0.72585 0.0
C2310 C 0.40161 0.01783 0.71031 0.0
C2311 C 0.38937 0.02043 0.70027 0.0
C2312 C 0.4374 0.0164 0.75491 0.0
C2313 C 0.43408 1.00014 0.76147 0.0
C2314 C 0.42538 0.01809 0.74316 0.0
C2315 C 0.40974 0.00356 0.73758 0.0
C2316 C 0.40652 0.98726 0.74387 0.0
C2317 C 0.41854 0.98558 0.75569 0.0
H2318 H 0.96881 0.35977 0.69426 0.0
H2319 H 0.01289 0.36287 0.72455 0.0
H2320 H 0.97284 0.3849 0.71308 0.0
H2321 H 0.0173 0.38829 0.74287 0.0
H2322 H 0.00795 0.42028 0.78943 0.0
H2323 H 0.00451 0.39587 0.76965 0.0
H2324 H 0.99099 0.41527 0.71698 0.0
H2325 H 0.99413 0.43951 0.73695 0.0
C2326 C 0.97949 0.36596 0.70475 0.0
C2327 C 0.99049 0.35932 0.70799 0.0
C2328 C 0.98186 0.38042 0.71548 0.0
C2329 C 0.99535 0.3886 0.72961 0.0
C2330 C 0.00658 0.38214 0.73243 0.0
C2331 C 0.00414 0.36764 0.72181 0.0
C2332 C 0.00436 0.41938 0.77359 0.0
C2333 C 1.00129 0.43181 0.76477 0.0
C2334 C 0.00243 0.40541 0.76221 0.0
C2335 C 0.99751 0.40358 0.74166 0.0
C2336 C 0.99453 0.41609 0.73282 0.0
C2337 C 0.99635 0.43001 0.74426 0.0
H2338 H 0.6379 0.64979 0.72456 0.0
H2339 H 0.64123 0.6093 0.69341 0.0
H2340 H 0.61233 0.62837 0.74256 0.0
H2341 H 0.61562 0.58784 0.71151 0.0
H2342 H 0.58418 0.55723 0.7681 0.0
H2343 H 0.60848 0.57809 0.748 0.0
H2344 H 0.58161 0.60561 0.73553 0.0
H2345 H 0.55702 0.58448 0.75512 0.0
C2346 C 0.6331 0.63631 0.72146 0.0
C2347 C 0.64157 0.63121 0.7076 0.0
C2348 C 0.61842 0.62406 0.73171 0.0
C2349 C 0.61201 0.60644 0.72848 0.0
C2350 C 0.62037 0.60133 0.71443 0.0
C2351 C 0.63495 0.61361 0.70399 0.0
C2352 C 0.58329 0.56756 0.76084 0.0
C2353 C 0.56856 0.5691 0.76326 0.0
C2354 C 0.59726 0.57953 0.74934 0.0
C2355 C 0.59693 0.59346 0.74016 0.0
C2356 C 0.58229 0.59509 0.7426 0.0
C2357 C 0.56823 0.58302 0.75393 0.0
H2358 H 0.65416 0.6852 0.64009 0.0
H2359 H 0.69903 0.72611 0.66938 0.0
H2360 H 0.64943 0.70631 0.62249 0.0
H2361 H 0.69469 0.74728 0.65127 0.0
H2362 H 0.67392 0.78117 0.62863 0.0
H2363 H 0.67676 0.75974 0.64829 0.0
H2364 H 0.66172 0.72664 0.59563 0.0
H2365 H 0.65855 0.74794 0.5762 0.0
C2366 C 0.66301 0.69873 0.64278 0.0
C2367 C 0.67698 0.70401 0.65608 0.0
C2368 C 0.66038 0.71084 0.63257 0.0
C2369 C 0.67174 0.72853 0.63531 0.0
C2370 C 0.68554 0.73379 0.64895 0.0
C2371 C 0.68809 0.72165 0.65928 0.0
C2372 C 0.67126 0.76932 0.62128 0.0
C2373 C 0.66601 0.76623 0.60088 0.0
C2374 C 0.67292 0.75704 0.63252 0.0
C2375 C 0.66949 0.74143 0.62357 0.0
C2376 C 0.66417 0.73836 0.60316 0.0
C2377 C 0.66239 0.75058 0.59197 0.0
H2378 H 0.30776 0.98786 0.62343 0.0
H2379 H 0.28527 0.96433 0.68099 0.0
H2380 H 0.28579 0.96247 0.60568 0.0
H2381 H 0.26338 0.93868 0.6631 0.0
H2382 H 0.24244 0.88991 0.6201 0.0
H2383 H 0.26368 0.9151 0.63918 0.0
H2384 H 0.25239 0.94777 0.60207 0.0
H2385 H 0.23104 0.92261 0.5832 0.0
C2386 C 0.29815 0.97723 0.63229 0.0
C2387 C 0.29821 0.97806 0.65359 0.0
C2388 C 0.28554 0.96275 0.62212 0.0
C2389 C 0.27291 0.94866 0.63304 0.0
C2390 C 0.27305 0.94937 0.65436 0.0
C2391 C 0.2855 0.96403 0.66456 0.0
C2392 C 0.24452 0.90249 0.61607 0.0
C2393 C 0.23515 0.90436 0.60019 0.0
C2394 C 0.25655 0.91684 0.62705 0.0
C2395 C 0.25964 0.93333 0.62207 0.0
C2396 C 0.25029 0.93519 0.60615 0.0
C2397 C 0.23805 0.92082 0.59544 0.0
H2398 H 0.03393 0.31183 0.67469 0.0
H2399 H 0.02438 0.34104 0.62978 0.0
H2400 H 0.05956 0.31687 0.65607 0.0
H2401 H 0.05009 0.34629 0.61134 0.0
H2402 H 0.08329 0.33238 0.57134 0.0
H2403 H 0.05897 0.32934 0.59106 0.0
H2404 H 0.0886 0.33945 0.64616 0.0
H2405 H 0.1128 0.342 0.62645 0.0
C2406 C 0.03741 0.31947 0.66096 0.0
C2407 C 0.0271 0.32597 0.65365 0.0
C2408 C 0.05213 0.32243 0.65034 0.0
C2409 C 0.05682 0.33191 0.63216 0.0
C2410 C 0.0467 0.33873 0.62513 0.0
C2411 C 0.03202 0.33581 0.63576 0.0
C2412 C 0.08459 0.33388 0.58767 0.0
C2413 C 0.09996 0.33737 0.59733 0.0
C2414 C 0.07072 0.33232 0.59896 0.0
C2415 C 0.07185 0.33417 0.62019 0.0
C2416 C 0.08727 0.33782 0.62985 0.0
C2417 C 0.10119 0.33945 0.61854 0.0
H2418 H 0.31429 0.33877 0.62856 0.0
H2419 H 0.27616 0.30645 0.67267 0.0
H2420 H 0.29266 0.34245 0.61053 0.0
H2421 H 0.25443 0.31012 0.65452 0.0
H2422 H 0.22562 0.3362 0.62689 0.0
H2423 H 0.24729 0.33313 0.64602 0.0
H2424 H 0.26649 0.32398 0.5901 0.0
H2425 H 0.24505 0.32729 0.57101 0.0
C2426 C 0.30129 0.33249 0.63444 0.0
C2427 C 0.29691 0.32228 0.65201 0.0
C2428 C 0.28888 0.33453 0.62405 0.0
C2429 C 0.27183 0.32651 0.63105 0.0
C2430 C 0.2675 0.31655 0.64884 0.0
C2431 C 0.27991 0.31439 0.65917 0.0
C2432 C 0.23455 0.33364 0.6187 0.0
C2433 C 0.23365 0.33199 0.59745 0.0
C2434 C 0.24684 0.33173 0.62966 0.0
C2435 C 0.2586 0.32834 0.61956 0.0
C2436 C 0.25771 0.32675 0.5983 0.0
C2437 C 0.24534 0.32849 0.58738 0.0
H2438 H 0.65831 0.97277 0.63788 0.0
H2439 H 0.70454 0.97879 0.66562 0.0
H2440 H 0.65449 0.94755 0.61967 0.0
H2441 H 0.70104 0.95378 0.64691 0.0
H2442 H 0.68002 0.89836 0.625 0.0
H2443 H 0.68357 0.92307 0.64433 0.0
H2444 H 0.66686 0.94009 0.59224 0.0
H2445 H 0.66307 0.91525 0.57309 0.0
C2446 C 0.66769 0.96871 0.64005 0.0
C2447 C 0.68174 0.97778 0.65317 0.0
C2448 C 0.66557 0.95431 0.62949 0.0
C2449 C 0.67752 0.94866 0.63167 0.0
C2450 C 0.69148 0.95763 0.64501 0.0
C2451 C 0.69355 0.97202 0.65567 0.0
C2452 C 0.67722 0.90745 0.61766 0.0
C2453 C 0.67122 0.90482 0.59752 0.0
C2454 C 0.67928 0.92164 0.62873 0.0
C2455 C 0.67546 0.93359 0.6199 0.0
C2456 C 0.6696 0.93099 0.59969 0.0
C2457 C 0.66746 0.91677 0.58867 0.0
H2458 H 0.03149 0.68566 0.63869 0.0
H2459 H 0.02664 0.72524 0.66985 0.0
H2460 H 0.05674 0.70752 0.62084 0.0
H2461 H 0.05153 0.74721 0.65141 0.0
H2462 H 0.1061 0.7825 0.62796 0.0
H2463 H 0.08186 0.76076 0.6475 0.0
H2464 H 0.06412 0.72793 0.59458 0.0
H2465 H 0.08861 0.74947 0.57535 0.0
C2466 C 0.03582 0.69906 0.64169 0.0
C2467 C 0.02708 0.70375 0.65563 0.0
C2468 C 0.05023 0.71162 0.63133 0.0
C2469 C 0.05614 0.72918 0.63449 0.0
C2470 C 0.04751 0.73384 0.64873 0.0
C2471 C 0.03318 0.72126 0.65925 0.0
C2472 C 0.09695 0.77065 0.62053 0.0
C2473 C 0.09927 0.76765 0.60015 0.0
C2474 C 0.08303 0.75819 0.6317 0.0
C2475 C 0.07101 0.74251 0.62269 0.0
C2476 C 0.07329 0.73966 0.6022 0.0
C2477 C 0.08728 0.75203 0.59111 0.0
H2478 H 0.9711 0.60822 0.69406 0.0
H2479 H 0.01564 0.64956 0.72332 0.0
H2480 H 0.97575 0.58732 0.71232 0.0
H2481 H 0.02067 0.62872 0.74111 0.0
H2482 H 0.01181 0.58724 0.78766 0.0
H2483 H 0.00848 0.60837 0.76805 0.0
H2484 H 0.99405 0.57527 0.71544 0.0
H2485 H 0.99708 0.55403 0.73524 0.0
C2486 C 0.98203 0.61283 0.70418 0.0
C2487 C 0.99296 0.63052 0.70732 0.0
C2488 C 0.98476 0.60086 0.7146 0.0
C2489 C 0.99855 0.6063 0.7283 0.0
C2490 C 0.00973 0.62404 0.73099 0.0
C2491 C 0.00694 0.636 0.72067 0.0
C2492 C 0.00808 0.58457 0.77185 0.0
C2493 C 0.00467 0.56896 0.76301 0.0
C2494 C 0.00621 0.5967 0.76057 0.0
C2495 C 1.00099 0.59356 0.74012 0.0
C2496 C 0.9978 0.57801 0.73123 0.0
C2497 C 0.99957 0.56584 0.74256 0.0
H2498 H 0.39326 0.35903 0.69453 0.0
H2499 H 0.35283 0.36533 0.72111 0.0
H2500 H 0.41473 0.38449 0.71275 0.0
H2501 H 0.37424 0.39063 0.73943 0.0
H2502 H 0.41858 0.44481 0.75348 0.0
H2503 H 0.39763 0.42036 0.73358 0.0
H2504 H 0.42393 0.39266 0.74839 0.0
H2505 H 0.44475 0.41698 0.76851 0.0
C2506 C 0.38897 0.3659 0.70418 0.0
C2507 C 0.37137 0.36018 0.70641 0.0
C2508 C 0.40125 0.3804 0.71471 0.0
C2509 C 0.39618 0.38955 0.72758 0.0
C2510 C 0.37858 0.38399 0.72948 0.0
C2511 C 0.36631 0.36944 0.71905 0.0
C2512 C 0.41982 0.43345 0.75267 0.0
C2513 C 0.43336 0.43288 0.76265 0.0
C2514 C 0.40783 0.41946 0.74121 0.0
C2515 C 0.40914 0.40459 0.73937 0.0
C2516 C 0.42272 0.40404 0.74924 0.0
C2517 C 0.43466 0.41799 0.76077 0.0
H2518 H 0.63149 0.98772 0.70918 0.0
H2519 H 0.6522 0.04264 0.70955 0.0
H2520 H 0.60598 0.98373 0.72738 0.0
H2521 H 0.62684 0.03863 0.72816 0.0
H2522 H 0.59018 0.0217 0.78517 0.0
H2523 H 0.61475 0.026 0.76503 0.0
H2524 H 0.58054 0.9903 0.72019 0.0
H2525 H 0.5558 0.98663 0.73961 0.0
C2526 C 0.63055 0.99892 0.7131 0.0
C2527 C 0.6438 0.01549 0.70797 0.0
C2528 C 0.61596 0.99662 0.72343 0.0
C2529 C 0.61452 0.01088 0.72919 0.0
C2530 C 0.62772 0.02745 0.72397 0.0
C2531 C 0.64215 0.02972 0.71326 0.0
C2532 C 0.58778 0.01498 0.77085 0.0
C2533 C 0.57087 0.00386 0.76407 0.0
C2534 C 0.60191 0.01739 0.75939 0.0
C2535 C 0.5995 0.0085 0.74108 0.0
C2536 C 0.5827 0.99722 0.73435 0.0
C2537 C 0.56855 0.99504 0.7456 0.0
loop_
_geom_bond_atom_site_label_1
_geom_bond_atom_site_label_2
_geom_bond_distance
_geom_bond_site_symmetry_2
_ccdc_geom_bond_type
In0 O1 2.269 1_455 S
In0 O2 2.329 . S
In0 O6 2.239 1_455 S
In0 O7 2.332 1_454 S
In0 O8 2.275 1_554 S
In0 O9 2.294 1_454 S
In0 O11 2.338 . S
In0 O12 2.351 . S
O1 In0 2.269 1_655 S
O1 C10 1.223 1_655 S
O2 In0 2.329 . S
O2 C10 1.284 . S
C3 O6 1.252 1_556 S
C3 O7 1.260 . S
C4 O11 1.240 . S
C4 O12 1.252 . S
C5 O8 1.270 . S
C5 O9 1.247 1_455 S
O6 In0 2.239 1_655 S
O6 C3 1.252 1_554 S
O7 In0 2.332 1_656 S
O7 C3 1.260 . S
O8 In0 2.275 1_556 S
O8 C5 1.270 . S
O9 In0 2.294 1_656 S
O9 C5 1.247 1_655 S
C10 O1 1.223 1_455 S
C10 O2 1.284 . S
O11 In0 2.338 . S
O11 C4 1.240 . S
O12 In0 2.351 . S
O12 C4 1.252 . S
In13 O14 2.294 . S
In13 O15 2.326 . S
In13 O19 2.266 . S
In13 O20 2.326 1_554 S
In13 O21 2.266 1_554 S
In13 O22 2.326 1_554 S
In13 O24 2.294 . S
In13 O25 2.326 . S
O14 In13 2.294 . S
O14 C23 1.240 . S
O15 In13 2.326 . S
O15 C23 1.252 . S
C16 O19 1.252 1_556 S
C16 O20 1.260 . S
C17 O24 1.240 . S
C17 O25 1.252 . S
C18 O21 1.252 . S
C18 O22 1.260 . S
O19 In13 2.266 . S
O19 C16 1.252 1_554 S
O20 In13 2.326 1_556 S
O20 C16 1.260 . S
O21 In13 2.266 1_556 S
O21 C18 1.252 . S
O22 In13 2.326 1_556 S
O22 C18 1.260 . S
C23 O14 1.240 . S
C23 O15 1.252 . S
O24 In13 2.294 . S
O24 C17 1.240 . S
O25 In13 2.326 . S
O25 C17 1.252 . S
In26 O27 2.355 . S
In26 O28 2.360 1_554 S
In26 O32 2.279 . S
In26 O33 2.281 1_545 S
In26 O34 2.228 1_545 S
In26 O35 2.335 1_545 S
In26 O37 2.260 1_544 S
In26 O38 2.331 1_554 S
O27 In26 2.355 . S
O27 C36 1.240 1_554 S
O28 In26 2.360 1_556 S
O28 C36 1.252 . S
C29 O32 1.289 . S
C29 O33 1.234 1_545 S
C30 O37 1.216 1_545 S
C30 O38 1.297 . S
C31 O34 1.252 . S
C31 O35 1.260 . S
O32 In26 2.279 . S
O32 C29 1.289 . S
O33 In26 2.281 1_565 S
O33 C29 1.234 1_565 S
O34 In26 2.228 1_565 S
O34 C31 1.252 . S
O35 In26 2.335 1_565 S
O35 C31 1.260 . S
C36 O27 1.240 1_556 S
C36 O28 1.252 . S
O37 In26 2.260 1_566 S
O37 C30 1.216 1_565 S
O38 In26 2.331 1_556 S
O38 C30 1.297 . S
In39 O40 2.293 1_554 S
In39 O41 2.326 1_454 S
In39 O45 2.265 . S
In39 O46 2.326 . S
In39 O47 2.267 1_455 S
In39 O48 2.324 . S
In39 O50 2.296 1_455 S
In39 O51 2.328 1_454 S
O40 In39 2.293 1_556 S
O40 C49 1.239 . S
O41 In39 2.326 1_656 S
O41 C49 1.254 1_655 S
C42 O45 1.252 . S
C42 O46 1.260 . S
C43 O50 1.240 1_556 S
C43 O51 1.252 . S
C44 O47 1.231 1_455 S
C44 O48 1.275 . S
O45 In39 2.265 . S
O45 C42 1.252 . S
O46 In39 2.326 . S
O46 C42 1.260 . S
O47 In39 2.267 1_655 S
O47 C44 1.231 1_655 S
O48 In39 2.324 . S
O48 C44 1.275 . S
C49 O40 1.239 . S
C49 O41 1.254 1_455 S
O50 In39 2.296 1_655 S
O50 C43 1.240 1_554 S
O51 In39 2.328 1_656 S
O51 C43 1.252 . S
In52 O53 2.294 1_554 S
In52 O54 2.326 1_554 S
In52 O58 2.266 . S
In52 O59 2.326 . S
In52 O60 2.266 . S
In52 O61 2.326 . S
In52 O63 2.294 . S
In52 O64 2.326 1_554 S
O53 In52 2.294 1_556 S
O53 C62 1.240 . S
O54 In52 2.326 1_556 S
O54 C62 1.252 . S
C55 O58 1.252 . S
C55 O59 1.260 . S
C56 O63 1.240 1_556 S
C56 O64 1.252 . S
C57 O60 1.252 . S
C57 O61 1.260 . S
O58 In52 2.266 . S
O58 C55 1.252 . S
O59 In52 2.326 . S
O59 C55 1.260 . S
O60 In52 2.266 . S
O60 C57 1.252 . S
O61 In52 2.326 . S
O61 C57 1.260 . S
C62 O53 1.240 . S
C62 O54 1.252 . S
O63 In52 2.294 . S
O63 C56 1.240 1_554 S
O64 In52 2.326 1_556 S
O64 C56 1.252 . S
In65 O66 2.293 . S
In65 O67 2.326 1_545 S
In65 O71 2.265 . S
In65 O72 2.326 1_554 S
In65 O73 2.267 1_544 S
In65 O74 2.324 1_554 S
In65 O76 2.296 1_545 S
In65 O77 2.328 1_545 S
O66 In65 2.293 . S
O66 C75 1.239 . S
O67 In65 2.326 1_565 S
O67 C75 1.255 1_565 S
C68 O71 1.252 1_556 S
C68 O72 1.260 . S
C69 O76 1.240 . S
C69 O77 1.252 . S
C70 O73 1.234 1_545 S
C70 O74 1.273 . S
O71 In65 2.265 . S
O71 C68 1.252 1_554 S
O72 In65 2.326 1_556 S
O72 C68 1.260 . S
O73 In65 2.267 1_566 S
O73 C70 1.234 1_565 S
O74 In65 2.324 1_556 S
O74 C70 1.273 . S
C75 O66 1.239 . S
C75 O67 1.255 1_545 S
O76 In65 2.296 1_565 S
O76 C69 1.240 . S
O77 In65 2.328 1_565 S
O77 C69 1.252 . S
In78 O79 2.294 . S
In78 O80 2.326 . S
In78 O84 2.266 . S
In78 O85 2.326 . S
In78 O86 2.266 . S
In78 O87 2.326 . S
In78 O89 2.294 . S
In78 O90 2.326 . S
O79 In78 2.294 . S
O79 C88 1.240 . S
O80 In78 2.326 . S
O80 C88 1.252 . S
C81 O84 1.252 . S
C81 O85 1.260 . S
C82 O89 1.240 . S
C82 O90 1.252 . S
C83 O86 1.252 . S
C83 O87 1.260 . S
O84 In78 2.266 . S
O84 C81 1.252 . S
O85 In78 2.326 . S
O85 C81 1.260 . S
O86 In78 2.266 . S
O86 C83 1.252 . S
O87 In78 2.326 . S
O87 C83 1.260 . S
C88 O79 1.240 . S
C88 O80 1.252 . S
O89 In78 2.294 . S
O89 C82 1.240 . S
O90 In78 2.326 . S
O90 C82 1.252 . S
In91 O92 2.294 . S
In91 O93 2.326 . S
In91 O97 2.266 . S
In91 O98 2.326 . S
In91 O99 2.266 . S
In91 O100 2.326 . S
In91 O102 2.294 1_565 S
In91 O103 2.326 1_565 S
O92 In91 2.294 . S
O92 C101 1.240 . S
O93 In91 2.326 . S
O93 C101 1.252 . S
C94 O97 1.252 . S
C94 O98 1.260 . S
C95 O102 1.240 . S
C95 O103 1.252 . S
C96 O99 1.252 . S
C96 O100 1.260 . S
O97 In91 2.266 . S
O97 C94 1.252 . S
O98 In91 2.326 . S
O98 C94 1.260 . S
O99 In91 2.266 . S
O99 C96 1.252 . S
O100 In91 2.326 . S
O100 C96 1.260 . S
C101 O92 1.240 . S
C101 O93 1.252 . S
O102 In91 2.294 1_545 S
O102 C95 1.240 . S
O103 In91 2.326 1_545 S
O103 C95 1.252 . S
In104 O105 2.294 . S
In104 O106 2.326 . S
In104 O110 2.266 . S
In104 O111 2.326 . S
In104 O112 2.266 1_455 S
In104 O113 2.326 1_455 S
In104 O115 2.294 . S
In104 O116 2.326 . S
O105 In104 2.294 . S
O105 C114 1.240 . S
O106 In104 2.326 . S
O106 C114 1.252 . S
C107 O110 1.252 . S
C107 O111 1.260 . S
C108 O115 1.240 . S
C108 O116 1.252 . S
C109 O112 1.252 . S
C109 O113 1.260 . S
O110 In104 2.266 . S
O110 C107 1.252 . S
O111 In104 2.326 . S
O111 C107 1.260 . S
O112 In104 2.266 1_655 S
O112 C109 1.252 . S
O113 In104 2.326 1_655 S
O113 C109 1.260 . S
C114 O105 1.240 . S
C114 O106 1.252 . S
O115 In104 2.294 . S
O115 C108 1.240 . S
O116 In104 2.326 . S
O116 C108 1.252 . S
In117 O118 2.294 . S
In117 O119 2.326 . S
In117 O123 2.266 1_565 S
In117 O124 2.326 1_565 S
In117 O125 2.266 . S
In117 O126 2.326 . S
In117 O128 2.294 . S
In117 O129 2.326 . S
O118 In117 2.294 . S
O118 C127 1.240 . S
O119 In117 2.326 . S
O119 C127 1.252 . S
C120 O123 1.252 . S
C120 O124 1.260 . S
C121 O128 1.240 . S
C121 O129 1.252 . S
C122 O125 1.252 . S
C122 O126 1.260 . S
O123 In117 2.266 1_545 S
O123 C120 1.252 . S
O124 In117 2.326 1_545 S
O124 C120 1.260 . S
O125 In117 2.266 . S
O125 C122 1.252 . S
O126 In117 2.326 . S
O126 C122 1.260 . S
C127 O118 1.240 . S
C127 O119 1.252 . S
O128 In117 2.294 . S
O128 C121 1.240 . S
O129 In117 2.326 . S
O129 C121 1.252 . S
In130 O131 2.294 . S
In130 O132 2.326 . S
In130 O136 2.266 1_455 S
In130 O137 2.326 1_455 S
In130 O138 2.266 . S
In130 O139 2.326 . S
In130 O141 2.294 . S
In130 O142 2.326 . S
O131 In130 2.294 . S
O131 C140 1.240 . S
O132 In130 2.326 . S
O132 C140 1.252 . S
C133 O136 1.252 . S
C133 O137 1.260 . S
C134 O141 1.240 . S
C134 O142 1.252 . S
C135 O138 1.252 . S
C135 O139 1.260 . S
O136 In130 2.266 1_655 S
O136 C133 1.252 . S
O137 In130 2.326 1_655 S
O137 C133 1.260 . S
O138 In130 2.266 . S
O138 C135 1.252 . S
O139 In130 2.326 . S
O139 C135 1.260 . S
C140 O131 1.240 . S
C140 O132 1.252 . S
O141 In130 2.294 . S
O141 C134 1.240 . S
O142 In130 2.326 . S
O142 C134 1.252 . S
In143 O144 2.294 . S
In143 O145 2.326 . S
In143 O149 2.266 . S
In143 O150 2.326 . S
In143 O151 2.266 . S
In143 O152 2.326 . S
In143 O154 2.294 . S
In143 O155 2.326 . S
O144 In143 2.294 . S
O144 C153 1.240 . S
O145 In143 2.326 . S
O145 C153 1.252 . S
C146 O149 1.252 . S
C146 O150 1.260 . S
C147 O154 1.240 . S
C147 O155 1.252 . S
C148 O151 1.252 . S
C148 O152 1.260 . S
O149 In143 2.266 . S
O149 C146 1.252 . S
O150 In143 2.326 . S
O150 C146 1.260 . S
O151 In143 2.266 . S
O151 C148 1.252 . S
O152 In143 2.326 . S
O152 C148 1.260 . S
C153 O144 1.240 . S
C153 O145 1.252 . S
O154 In143 2.294 . S
O154 C147 1.240 . S
O155 In143 2.326 . S
O155 C147 1.252 . S
In156 O157 2.294 . S
In156 O158 2.326 . S
In156 O162 2.266 . S
In156 O163 2.326 . S
In156 O164 2.266 1_545 S
In156 O165 2.326 1_545 S
In156 O167 2.294 . S
In156 O168 2.326 . S
O157 In156 2.294 . S
O157 C166 1.240 . S
O158 In156 2.326 . S
O158 C166 1.252 . S
C159 O162 1.252 . S
C159 O163 1.260 . S
C160 O167 1.240 . S
C160 O168 1.252 . S
C161 O164 1.252 . S
C161 O165 1.260 . S
O162 In156 2.266 . S
O162 C159 1.252 . S
O163 In156 2.326 . S
O163 C159 1.260 . S
O164 In156 2.266 1_565 S
O164 C161 1.252 . S
O165 In156 2.326 1_565 S
O165 C161 1.260 . S
C166 O157 1.240 . S
C166 O158 1.252 . S
O167 In156 2.294 . S
O167 C160 1.240 . S
O168 In156 2.326 . S
O168 C160 1.252 . S
In169 O170 2.294 . S
In169 O171 2.326 . S
In169 O175 2.266 . S
In169 O176 2.326 . S
In169 O177 2.266 1_655 S
In169 O178 2.326 1_655 S
In169 O180 2.294 . S
In169 O181 2.326 . S
O170 In169 2.294 . S
O170 C179 1.240 . S
O171 In169 2.326 . S
O171 C179 1.252 . S
C172 O175 1.252 . S
C172 O176 1.260 . S
C173 O180 1.240 . S
C173 O181 1.252 . S
C174 O177 1.252 . S
C174 O178 1.260 . S
O175 In169 2.266 . S
O175 C172 1.252 . S
O176 In169 2.326 . S
O176 C172 1.260 . S
O177 In169 2.266 1_455 S
O177 C174 1.252 . S
O178 In169 2.326 1_455 S
O178 C174 1.260 . S
C179 O170 1.240 . S
C179 O171 1.252 . S
O180 In169 2.294 . S
O180 C173 1.240 . S
O181 In169 2.326 . S
O181 C173 1.252 . S
In182 O183 2.294 . S
In182 O184 2.326 . S
In182 O188 2.266 . S
In182 O189 2.326 . S
In182 O190 2.266 . S
In182 O191 2.326 . S
In182 O193 2.294 . S
In182 O194 2.326 . S
O183 In182 2.294 . S
O183 C192 1.240 . S
O184 In182 2.326 . S
O184 C192 1.252 . S
C185 O188 1.252 . S
C185 O189 1.260 . S
C186 O193 1.240 . S
C186 O194 1.252 . S
C187 O190 1.252 . S
C187 O191 1.260 . S
O188 In182 2.266 . S
O188 C185 1.252 . S
O189 In182 2.326 . S
O189 C185 1.260 . S
O190 In182 2.266 . S
O190 C187 1.252 . S
O191 In182 2.326 . S
O191 C187 1.260 . S
C192 O183 1.240 . S
C192 O184 1.252 . S
O193 In182 2.294 . S
O193 C186 1.240 . S
O194 In182 2.326 . S
O194 C186 1.252 . S
In195 O196 2.294 . S
In195 O197 2.326 . S
In195 O201 2.266 . S
In195 O202 2.326 . S
In195 O203 2.266 . S
In195 O204 2.326 . S
In195 O206 2.294 . S
In195 O207 2.326 . S
O196 In195 2.294 . S
O196 C205 1.240 . S
O197 In195 2.326 . S
O197 C205 1.252 . S
C198 O201 1.252 . S
C198 O202 1.260 . S
C199 O206 1.240 . S
C199 O207 1.252 . S
C200 O203 1.252 . S
C200 O204 1.260 . S
O201 In195 2.266 . S
O201 C198 1.252 . S
O202 In195 2.326 . S
O202 C198 1.260 . S
O203 In195 2.266 . S
O203 C200 1.252 . S
O204 In195 2.326 . S
O204 C200 1.260 . S
C205 O196 1.240 . S
C205 O197 1.252 . S
O206 In195 2.294 . S
O206 C199 1.240 . S
O207 In195 2.326 . S
O207 C199 1.252 . S
In208 O209 2.294 . S
In208 O210 2.326 . S
In208 O214 2.266 . S
In208 O215 2.326 . S
In208 O216 2.266 . S
In208 O217 2.326 . S
In208 O219 2.294 1_545 S
In208 O220 2.287 1_545 S
O209 In208 2.294 . S
O209 C218 1.240 . S
O210 In208 2.326 . S
O210 C218 1.252 . S
C211 O214 1.252 . S
C211 O215 1.260 . S
C212 O219 1.240 . S
C212 O220 1.319 . S
C213 O216 1.252 . S
C213 O217 1.260 . S
O214 In208 2.266 . S
O214 C211 1.252 . S
O215 In208 2.326 . S
O215 C211 1.260 . S
O216 In208 2.266 . S
O216 C213 1.252 . S
O217 In208 2.326 . S
O217 C213 1.260 . S
C218 O209 1.240 . S
C218 O210 1.252 . S
O219 In208 2.294 1_565 S
O219 C212 1.240 . S
O220 In208 2.287 1_565 S
O220 C212 1.319 . S
In221 O222 2.294 . S
In221 O223 2.326 . S
In221 O227 2.266 . S
In221 O228 2.326 . S
In221 O229 2.266 1_655 S
In221 O230 2.326 1_655 S
In221 O232 2.294 . S
In221 O233 2.326 . S
O222 In221 2.294 . S
O222 C231 1.240 . S
O223 In221 2.326 . S
O223 C231 1.252 . S
C224 O227 1.252 . S
C224 O228 1.260 . S
C225 O232 1.240 . S
C225 O233 1.252 . S
C226 O229 1.252 . S
C226 O230 1.260 . S
O227 In221 2.266 . S
O227 C224 1.252 . S
O228 In221 2.326 . S
O228 C224 1.260 . S
O229 In221 2.266 1_455 S
O229 C226 1.252 . S
O230 In221 2.326 1_455 S
O230 C226 1.260 . S
C231 O222 1.240 . S
C231 O223 1.252 . S
O232 In221 2.294 . S
O232 C225 1.240 . S
O233 In221 2.326 . S
O233 C225 1.252 . S
H234 C253 0.949 . S
H235 C254 0.950 . S
H236 C256 0.950 . S
H237 C257 0.950 . S
H238 C259 0.950 . S
H239 C262 0.950 . S
H240 C263 0.950 . S
H241 C265 0.951 . S
H242 C266 0.949 . S
H243 C268 0.949 . S
H244 C269 0.950 . S
H245 C271 0.950 . S
H246 C272 0.950 . S
H247 C274 0.950 . S
H248 C277 0.950 . S
H249 C278 0.950 . S
H250 C280 0.951 . S
H251 C281 0.949 . S
C252 C253 1.376 . S
C252 C257 1.386 . S
C252 C258 1.483 . S
C253 H234 0.949 . S
C253 C252 1.376 . S
C253 C254 1.397 . S
C254 H235 0.950 . S
C254 C253 1.397 . S
C254 C255 1.391 . S
C255 C254 1.391 . S
C255 C256 1.405 . S
C256 H236 0.950 . S
C256 C255 1.405 . S
C256 C257 1.367 . S
C257 H237 0.950 . S
C257 C252 1.386 . S
C257 C256 1.367 . S
C258 C252 1.483 . S
C258 C259 1.382 . S
C258 C260 1.403 . S
C259 H238 0.950 . S
C259 C258 1.382 . S
C259 C275 1.411 . S
C260 C258 1.403 . S
C260 C261 1.489 . S
C260 C274 1.411 . S
C261 C260 1.489 . S
C261 C262 1.383 . S
C261 C266 1.382 . S
C262 H239 0.950 . S
C262 C261 1.383 . S
C262 C263 1.395 . S
C263 H240 0.950 . S
C263 C262 1.395 . S
C263 C264 1.288 . S
C264 C263 1.288 . S
C264 C265 1.392 . S
C265 H241 0.951 . S
C265 C264 1.392 . S
C265 C266 1.392 . S
C266 H242 0.949 . S
C266 C261 1.382 . S
C266 C265 1.392 . S
C267 C268 1.376 . S
C267 C272 1.386 . S
C267 C273 1.483 . S
C268 H243 0.949 . S
C268 C267 1.376 . S
C268 C269 1.397 . S
C269 H244 0.950 . S
C269 C268 1.397 . S
C269 C270 1.391 . S
C270 C269 1.391 . S
C270 C271 1.405 . S
C271 H245 0.950 . S
C271 C270 1.405 . S
C271 C272 1.367 . S
C272 H246 0.950 . S
C272 C267 1.386 . S
C272 C271 1.367 . S
C273 C267 1.483 . S
C273 C274 1.382 . S
C273 C275 1.403 . S
C274 H247 0.950 . S
C274 C260 1.411 . S
C274 C273 1.382 . S
C275 C259 1.411 . S
C275 C273 1.403 . S
C275 C276 1.489 . S
C276 C275 1.489 . S
C276 C277 1.383 . S
C276 C281 1.382 . S
C277 H248 0.950 . S
C277 C276 1.383 . S
C277 C278 1.395 . S
C278 H249 0.950 . S
C278 C277 1.395 . S
C278 C279 1.288 . S
C279 C278 1.288 . S
C279 C280 1.392 . S
C280 H250 0.951 . S
C280 C279 1.392 . S
C280 C281 1.392 . S
C281 H251 0.949 . S
C281 C276 1.382 . S
C281 C280 1.392 . S
H282 C301 0.949 . S
H283 C302 0.950 . S
H284 C304 0.950 . S
H285 C305 0.950 . S
H286 C307 0.950 . S
H287 C310 0.950 . S
H288 C311 0.950 . S
H289 C313 0.951 . S
H290 C314 0.949 . S
H291 C316 0.949 . S
H292 C317 0.950 . S
H293 C319 0.950 . S
H294 C320 0.950 . S
H295 C322 0.950 . S
H296 C325 0.950 . S
H297 C326 0.950 . S
H298 C328 0.951 . S
H299 C329 0.949 . S
C300 C301 1.376 . S
C300 C305 1.386 . S
C300 C306 1.483 . S
C301 H282 0.949 . S
C301 C300 1.376 . S
C301 C302 1.397 . S
C302 H283 0.950 . S
C302 C301 1.397 . S
C302 C303 1.391 . S
C303 C302 1.391 . S
C303 C304 1.405 . S
C304 H284 0.950 . S
C304 C303 1.405 . S
C304 C305 1.367 . S
C305 H285 0.950 . S
C305 C300 1.386 . S
C305 C304 1.367 . S
C306 C300 1.483 . S
C306 C307 1.382 . S
C306 C308 1.403 . S
C307 H286 0.950 . S
C307 C306 1.382 . S
C307 C323 1.411 . S
C308 C306 1.403 . S
C308 C309 1.489 . S
C308 C322 1.411 . S
C309 C308 1.489 . S
C309 C310 1.383 . S
C309 C314 1.382 . S
C310 H287 0.950 . S
C310 C309 1.383 . S
C310 C311 1.395 . S
C311 H288 0.950 . S
C311 C310 1.395 . S
C311 C312 1.288 . S
C312 C311 1.288 . S
C312 C313 1.392 . S
C313 H289 0.951 . S
C313 C312 1.392 . S
C313 C314 1.392 . S
C314 H290 0.949 . S
C314 C309 1.382 . S
C314 C313 1.392 . S
C315 C316 1.376 . S
C315 C320 1.386 . S
C315 C321 1.483 . S
C316 H291 0.949 . S
C316 C315 1.376 . S
C316 C317 1.397 . S
C317 H292 0.950 . S
C317 C316 1.397 . S
C317 C318 1.391 . S
C318 C317 1.391 . S
C318 C319 1.405 . S
C319 H293 0.950 . S
C319 C318 1.405 . S
C319 C320 1.367 . S
C320 H294 0.950 . S
C320 C315 1.386 . S
C320 C319 1.367 . S
C321 C315 1.483 . S
C321 C322 1.382 . S
C321 C323 1.403 . S
C322 H295 0.950 . S
C322 C308 1.411 . S
C322 C321 1.382 . S
C323 C307 1.411 . S
C323 C321 1.403 . S
C323 C324 1.489 . S
C324 C323 1.489 . S
C324 C325 1.383 . S
C324 C329 1.382 . S
C325 H296 0.950 . S
C325 C324 1.383 . S
C325 C326 1.395 . S
C326 H297 0.950 . S
C326 C325 1.395 . S
C326 C327 1.288 . S
C327 C326 1.288 . S
C327 C328 1.392 . S
C328 H298 0.951 . S
C328 C327 1.392 . S
C328 C329 1.392 . S
C329 H299 0.949 . S
C329 C324 1.382 . S
C329 C328 1.392 . S
H330 C349 0.949 . S
H331 C350 0.950 . S
H332 C352 0.950 . S
H333 C353 0.950 . S
H334 C355 0.950 . S
H335 C358 0.950 . S
H336 C359 0.950 . S
H337 C361 0.951 . S
H338 C362 0.949 . S
H339 C364 0.949 . S
H340 C365 0.950 . S
H341 C367 0.950 . S
H342 C368 0.950 . S
H343 C370 0.950 . S
H344 C373 0.950 . S
H345 C374 0.950 . S
H346 C376 0.951 . S
H347 C377 0.949 . S
C348 C349 1.376 . S
C348 C353 1.386 . S
C348 C354 1.483 . S
C349 H330 0.949 . S
C349 C348 1.376 . S
C349 C350 1.397 . S
C350 H331 0.950 . S
C350 C349 1.397 . S
C350 C351 1.391 . S
C351 C350 1.391 . S
C351 C352 1.405 . S
C352 H332 0.950 . S
C352 C351 1.405 . S
C352 C353 1.367 . S
C353 H333 0.950 . S
C353 C348 1.386 . S
C353 C352 1.367 . S
C354 C348 1.483 . S
C354 C355 1.382 . S
C354 C356 1.403 . S
C355 H334 0.950 . S
C355 C354 1.382 . S
C355 C371 1.411 . S
C356 C354 1.403 . S
C356 C357 1.489 . S
C356 C370 1.411 . S
C357 C356 1.489 . S
C357 C358 1.383 . S
C357 C362 1.382 . S
C358 H335 0.950 . S
C358 C357 1.383 . S
C358 C359 1.395 . S
C359 H336 0.950 . S
C359 C358 1.395 . S
C359 C360 1.288 . S
C360 C359 1.288 . S
C360 C361 1.392 . S
C361 H337 0.951 . S
C361 C360 1.392 . S
C361 C362 1.392 . S
C362 H338 0.949 . S
C362 C357 1.382 . S
C362 C361 1.392 . S
C363 C364 1.376 . S
C363 C368 1.386 . S
C363 C369 1.483 . S
C364 H339 0.949 . S
C364 C363 1.376 . S
C364 C365 1.397 . S
C365 H340 0.950 . S
C365 C364 1.397 . S
C365 C366 1.391 . S
C366 C365 1.391 . S
C366 C367 1.405 . S
C367 H341 0.950 . S
C367 C366 1.405 . S
C367 C368 1.367 . S
C368 H342 0.950 . S
C368 C363 1.386 . S
C368 C367 1.367 . S
C369 C363 1.483 . S
C369 C370 1.382 . S
C369 C371 1.403 . S
C370 H343 0.950 . S
C370 C356 1.411 . S
C370 C369 1.382 . S
C371 C355 1.411 . S
C371 C369 1.403 . S
C371 C372 1.489 . S
C372 C371 1.489 . S
C372 C373 1.383 . S
C372 C377 1.382 . S
C373 H344 0.950 . S
C373 C372 1.383 . S
C373 C374 1.395 . S
C374 H345 0.950 . S
C374 C373 1.395 . S
C374 C375 1.288 . S
C375 C374 1.288 . S
C375 C376 1.392 . S
C376 H346 0.951 . S
C376 C375 1.392 . S
C376 C377 1.392 . S
C377 H347 0.949 . S
C377 C372 1.382 . S
C377 C376 1.392 . S
H378 C397 0.949 . S
H379 C398 0.950 . S
H380 C400 0.950 . S
H381 C401 0.950 . S
H382 C403 0.950 . S
H383 C406 0.950 . S
H384 C407 0.950 . S
H385 C409 0.951 . S
H386 C410 0.949 . S
H387 C412 0.949 . S
H388 C413 0.950 . S
H389 C415 0.950 . S
H390 C416 0.950 . S
H391 C418 0.950 . S
H392 C421 0.950 . S
H393 C422 0.950 . S
H394 C424 0.951 . S
H395 C425 0.949 . S
C396 C397 1.376 . S
C396 C401 1.386 . S
C396 C402 1.483 . S
C397 H378 0.949 . S
C397 C396 1.376 . S
C397 C398 1.397 . S
C398 H379 0.950 . S
C398 C397 1.397 . S
C398 C399 1.391 . S
C399 C398 1.391 . S
C399 C400 1.405 . S
C400 H380 0.950 . S
C400 C399 1.405 . S
C400 C401 1.367 . S
C401 H381 0.950 . S
C401 C396 1.386 . S
C401 C400 1.367 . S
C402 C396 1.483 . S
C402 C403 1.382 . S
C402 C404 1.403 . S
C403 H382 0.950 . S
C403 C402 1.382 . S
C403 C419 1.411 . S
C404 C402 1.403 . S
C404 C405 1.489 . S
C404 C418 1.411 . S
C405 C404 1.489 . S
C405 C406 1.383 . S
C405 C410 1.382 . S
C406 H383 0.950 . S
C406 C405 1.383 . S
C406 C407 1.395 . S
C407 H384 0.950 . S
C407 C406 1.395 . S
C407 C408 1.288 . S
C408 C407 1.288 . S
C408 C409 1.392 . S
C409 H385 0.951 . S
C409 C408 1.392 . S
C409 C410 1.392 . S
C410 H386 0.949 . S
C410 C405 1.382 . S
C410 C409 1.392 . S
C411 C412 1.376 . S
C411 C416 1.386 . S
C411 C417 1.483 . S
C412 H387 0.949 . S
C412 C411 1.376 . S
C412 C413 1.397 . S
C413 H388 0.950 . S
C413 C412 1.397 . S
C413 C414 1.391 . S
C414 C413 1.391 . S
C414 C415 1.405 . S
C415 H389 0.950 . S
C415 C414 1.405 . S
C415 C416 1.367 . S
C416 H390 0.950 . S
C416 C411 1.386 . S
C416 C415 1.367 . S
C417 C411 1.483 . S
C417 C418 1.382 . S
C417 C419 1.403 . S
C418 H391 0.950 . S
C418 C404 1.411 . S
C418 C417 1.382 . S
C419 C403 1.411 . S
C419 C417 1.403 . S
C419 C420 1.489 . S
C420 C419 1.489 . S
C420 C421 1.383 . S
C420 C425 1.382 . S
C421 H392 0.950 . S
C421 C420 1.383 . S
C421 C422 1.395 . S
C422 H393 0.950 . S
C422 C421 1.395 . S
C422 C423 1.288 . S
C423 C422 1.288 . S
C423 C424 1.392 . S
C424 H394 0.951 . S
C424 C423 1.392 . S
C424 C425 1.392 . S
C425 H395 0.949 . S
C425 C420 1.382 . S
C425 C424 1.392 . S
H426 C445 0.949 . S
H427 C446 0.950 . S
H428 C448 0.950 . S
H429 C449 0.950 . S
H430 C451 0.950 . S
H431 C454 0.950 . S
H432 C455 0.950 . S
H433 C457 0.951 . S
H434 C458 0.949 . S
H435 C460 0.949 . S
H436 C461 0.950 . S
H437 C463 0.950 . S
H438 C464 0.950 . S
H439 C466 0.950 . S
H440 C469 0.950 . S
H441 C470 0.950 . S
H442 C472 0.951 . S
H443 C473 0.949 . S
C444 C445 1.376 . S
C444 C449 1.386 . S
C444 C450 1.483 . S
C445 H426 0.949 . S
C445 C444 1.376 . S
C445 C446 1.397 . S
C446 H427 0.950 . S
C446 C445 1.397 . S
C446 C447 1.391 . S
C447 C446 1.391 . S
C447 C448 1.405 . S
C448 H428 0.950 . S
C448 C447 1.405 . S
C448 C449 1.367 . S
C449 H429 0.950 . S
C449 C444 1.386 . S
C449 C448 1.367 . S
C450 C444 1.483 . S
C450 C451 1.382 . S
C450 C452 1.403 . S
C451 H430 0.950 . S
C451 C450 1.382 . S
C451 C467 1.411 . S
C452 C450 1.403 . S
C452 C453 1.489 . S
C452 C466 1.411 . S
C453 C452 1.489 . S
C453 C454 1.383 . S
C453 C458 1.382 . S
C454 H431 0.950 . S
C454 C453 1.383 . S
C454 C455 1.395 . S
C455 H432 0.950 . S
C455 C454 1.395 . S
C455 C456 1.288 . S
C456 C455 1.288 . S
C456 C457 1.392 . S
C457 H433 0.951 . S
C457 C456 1.392 . S
C457 C458 1.392 . S
C458 H434 0.949 . S
C458 C453 1.382 . S
C458 C457 1.392 . S
C459 C460 1.376 . S
C459 C464 1.386 . S
C459 C465 1.483 . S
C460 H435 0.949 . S
C460 C459 1.376 . S
C460 C461 1.397 . S
C461 H436 0.950 . S
C461 C460 1.397 . S
C461 C462 1.391 . S
C462 C461 1.391 . S
C462 C463 1.405 . S
C463 H437 0.950 . S
C463 C462 1.405 . S
C463 C464 1.367 . S
C464 H438 0.950 . S
C464 C459 1.386 . S
C464 C463 1.367 . S
C465 C459 1.483 . S
C465 C466 1.382 . S
C465 C467 1.403 . S
C466 H439 0.950 . S
C466 C452 1.411 . S
C466 C465 1.382 . S
C467 C451 1.411 . S
C467 C465 1.403 . S
C467 C468 1.489 . S
C468 C467 1.489 . S
C468 C469 1.383 . S
C468 C473 1.382 . S
C469 H440 0.950 . S
C469 C468 1.383 . S
C469 C470 1.395 . S
C470 H441 0.950 . S
C470 C469 1.395 . S
C470 C471 1.288 . S
C471 C470 1.288 . S
C471 C472 1.392 . S
C472 H442 0.951 . S
C472 C471 1.392 . S
C472 C473 1.392 . S
C473 H443 0.949 . S
C473 C468 1.382 . S
C473 C472 1.392 . S
H474 C493 0.949 . S
H475 C494 0.950 . S
H476 C496 0.950 . S
H477 C497 0.950 . S
H478 C499 0.950 . S
H479 C502 0.950 . S
H480 C503 0.950 . S
H481 C505 0.951 . S
H482 C506 0.949 . S
H483 C508 0.949 . S
H484 C509 0.950 . S
H485 C511 0.950 . S
H486 C512 0.950 . S
H487 C514 0.950 . S
H488 C517 0.950 . S
H489 C518 0.950 . S
H490 C520 0.951 . S
H491 C521 0.949 . S
C492 C493 1.376 . S
C492 C497 1.386 . S
C492 C498 1.483 . S
C493 H474 0.949 . S
C493 C492 1.376 . S
C493 C494 1.397 . S
C494 H475 0.950 . S
C494 C493 1.397 . S
C494 C495 1.391 . S
C495 C494 1.391 . S
C495 C496 1.405 . S
C496 H476 0.950 . S
C496 C495 1.405 . S
C496 C497 1.367 . S
C497 H477 0.950 . S
C497 C492 1.386 . S
C497 C496 1.367 . S
C498 C492 1.483 . S
C498 C499 1.382 . S
C498 C500 1.403 . S
C499 H478 0.950 . S
C499 C498 1.382 . S
C499 C515 1.411 . S
C500 C498 1.403 . S
C500 C501 1.489 . S
C500 C514 1.411 . S
C501 C500 1.489 . S
C501 C502 1.383 . S
C501 C506 1.382 . S
C502 H479 0.950 . S
C502 C501 1.383 . S
C502 C503 1.395 . S
C503 H480 0.950 . S
C503 C502 1.395 . S
C503 C504 1.288 . S
C504 C503 1.288 . S
C504 C505 1.392 . S
C505 H481 0.951 . S
C505 C504 1.392 . S
C505 C506 1.392 . S
C506 H482 0.949 . S
C506 C501 1.382 . S
C506 C505 1.392 . S
C507 C508 1.376 . S
C507 C512 1.386 . S
C507 C513 1.483 . S
C508 H483 0.949 . S
C508 C507 1.376 . S
C508 C509 1.397 . S
C509 H484 0.950 . S
C509 C508 1.397 . S
C509 C510 1.391 . S
C510 C509 1.391 . S
C510 C511 1.405 . S
C511 H485 0.950 . S
C511 C510 1.405 . S
C511 C512 1.367 . S
C512 H486 0.950 . S
C512 C507 1.386 . S
C512 C511 1.367 . S
C513 C507 1.483 . S
C513 C514 1.382 . S
C513 C515 1.403 . S
C514 H487 0.950 . S
C514 C500 1.411 . S
C514 C513 1.382 . S
C515 C499 1.411 . S
C515 C513 1.403 . S
C515 C516 1.489 . S
C516 C515 1.489 . S
C516 C517 1.383 . S
C516 C521 1.382 . S
C517 H488 0.950 . S
C517 C516 1.383 . S
C517 C518 1.395 . S
C518 H489 0.950 . S
C518 C517 1.395 . S
C518 C519 1.288 . S
C519 C518 1.288 . S
C519 C520 1.392 . S
C520 H490 0.951 . S
C520 C519 1.392 . S
C520 C521 1.392 . S
C521 H491 0.949 . S
C521 C516 1.382 . S
C521 C520 1.392 . S
H522 C541 0.949 . S
H523 C542 0.950 . S
H524 C544 0.950 . S
H525 C545 0.950 . S
H526 C547 0.950 . S
H527 C550 0.950 . S
H528 C551 0.950 . S
H529 C553 0.951 . S
H530 C554 0.949 . S
H531 C556 0.949 . S
H532 C557 0.950 . S
H533 C559 0.950 . S
H534 C560 0.950 . S
H535 C562 0.950 . S
H536 C565 0.950 . S
H537 C566 0.950 . S
H538 C568 0.951 . S
H539 C569 0.949 . S
C540 C541 1.376 . S
C540 C545 1.386 . S
C540 C546 1.483 . S
C541 H522 0.949 . S
C541 C540 1.376 . S
C541 C542 1.397 . S
C542 H523 0.950 . S
C542 C541 1.397 . S
C542 C543 1.391 . S
C543 C542 1.391 . S
C543 C544 1.405 . S
C544 H524 0.950 . S
C544 C543 1.405 . S
C544 C545 1.367 . S
C545 H525 0.950 . S
C545 C540 1.386 . S
C545 C544 1.367 . S
C546 C540 1.483 . S
C546 C547 1.382 . S
C546 C548 1.403 . S
C547 H526 0.950 . S
C547 C546 1.382 . S
C547 C563 1.411 . S
C548 C546 1.403 . S
C548 C549 1.489 . S
C548 C562 1.411 . S
C549 C548 1.489 . S
C549 C550 1.383 . S
C549 C554 1.382 . S
C550 H527 0.950 . S
C550 C549 1.383 . S
C550 C551 1.395 . S
C551 H528 0.950 . S
C551 C550 1.395 . S
C551 C552 1.288 . S
C552 C551 1.288 . S
C552 C553 1.392 . S
C553 H529 0.951 . S
C553 C552 1.392 . S
C553 C554 1.392 . S
C554 H530 0.949 . S
C554 C549 1.382 . S
C554 C553 1.392 . S
C555 C556 1.376 . S
C555 C560 1.386 . S
C555 C561 1.483 . S
C556 H531 0.949 . S
C556 C555 1.376 . S
C556 C557 1.397 . S
C557 H532 0.950 . S
C557 C556 1.397 . S
C557 C558 1.391 . S
C558 C557 1.391 . S
C558 C559 1.405 . S
C559 H533 0.950 . S
C559 C558 1.405 . S
C559 C560 1.367 . S
C560 H534 0.950 . S
C560 C555 1.386 . S
C560 C559 1.367 . S
C561 C555 1.483 . S
C561 C562 1.382 . S
C561 C563 1.403 . S
C562 H535 0.950 . S
C562 C548 1.411 . S
C562 C561 1.382 . S
C563 C547 1.411 . S
C563 C561 1.403 . S
C563 C564 1.489 . S
C564 C563 1.489 . S
C564 C565 1.383 . S
C564 C569 1.382 . S
C565 H536 0.950 . S
C565 C564 1.383 . S
C565 C566 1.395 . S
C566 H537 0.950 . S
C566 C565 1.395 . S
C566 C567 1.288 . S
C567 C566 1.288 . S
C567 C568 1.392 . S
C568 H538 0.951 . S
C568 C567 1.392 . S
C568 C569 1.392 . S
C569 H539 0.949 . S
C569 C564 1.382 . S
C569 C568 1.392 . S
H570 C589 0.949 . S
H571 C590 0.950 . S
H572 C592 0.950 . S
H573 C593 0.950 . S
H574 C595 0.950 . S
H575 C598 0.950 . S
H576 C599 0.950 . S
H577 C601 0.951 . S
H578 C602 0.949 . S
H579 C604 0.949 . S
H580 C605 0.950 . S
H581 C607 0.950 . S
H582 C608 0.950 . S
H583 C610 0.950 . S
H584 C613 0.950 . S
H585 C614 0.950 . S
H586 C616 0.951 . S
H587 C617 0.949 . S
C588 C589 1.376 . S
C588 C593 1.386 . S
C588 C594 1.483 . S
C589 H570 0.949 . S
C589 C588 1.376 . S
C589 C590 1.397 . S
C590 H571 0.950 . S
C590 C589 1.397 . S
C590 C591 1.391 . S
C591 C590 1.391 . S
C591 C592 1.405 . S
C592 H572 0.950 . S
C592 C591 1.405 . S
C592 C593 1.367 . S
C593 H573 0.950 . S
C593 C588 1.386 . S
C593 C592 1.367 . S
C594 C588 1.483 . S
C594 C595 1.382 . S
C594 C596 1.403 . S
C595 H574 0.950 . S
C595 C594 1.382 . S
C595 C611 1.411 . S
C596 C594 1.403 . S
C596 C597 1.489 . S
C596 C610 1.411 . S
C597 C596 1.489 . S
C597 C598 1.383 . S
C597 C602 1.382 . S
C598 H575 0.950 . S
C598 C597 1.383 . S
C598 C599 1.395 . S
C599 H576 0.950 . S
C599 C598 1.395 . S
C599 C600 1.288 . S
C600 C599 1.288 . S
C600 C601 1.392 . S
C601 H577 0.951 . S
C601 C600 1.392 . S
C601 C602 1.392 . S
C602 H578 0.949 . S
C602 C597 1.382 . S
C602 C601 1.392 . S
C603 C604 1.376 . S
C603 C608 1.386 . S
C603 C609 1.483 . S
C604 H579 0.949 . S
C604 C603 1.376 . S
C604 C605 1.397 . S
C605 H580 0.950 . S
C605 C604 1.397 . S
C605 C606 1.391 . S
C606 C605 1.391 . S
C606 C607 1.405 . S
C607 H581 0.950 . S
C607 C606 1.405 . S
C607 C608 1.367 . S
C608 H582 0.950 . S
C608 C603 1.386 . S
C608 C607 1.367 . S
C609 C603 1.483 . S
C609 C610 1.382 . S
C609 C611 1.403 . S
C610 H583 0.950 . S
C610 C596 1.411 . S
C610 C609 1.382 . S
C611 C595 1.411 . S
C611 C609 1.403 . S
C611 C612 1.489 . S
C612 C611 1.489 . S
C612 C613 1.383 . S
C612 C617 1.382 . S
C613 H584 0.950 . S
C613 C612 1.383 . S
C613 C614 1.395 . S
C614 H585 0.950 . S
C614 C613 1.395 . S
C614 C615 1.288 . S
C615 C614 1.288 . S
C615 C616 1.392 . S
C616 H586 0.951 . S
C616 C615 1.392 . S
C616 C617 1.392 . S
C617 H587 0.949 . S
C617 C612 1.382 . S
C617 C616 1.392 . S
H618 C637 0.949 . S
H619 C638 0.950 . S
H620 C640 0.950 . S
H621 C641 0.950 . S
H622 C643 0.950 . S
H623 C646 0.950 . S
H624 C647 0.950 . S
H625 C649 0.951 . S
H626 C650 0.949 . S
H627 C652 0.949 . S
H628 C653 0.950 . S
H629 C655 0.950 . S
H630 C656 0.950 . S
H631 C658 0.950 . S
H632 C661 0.950 . S
H633 C662 0.950 . S
H634 C664 0.951 . S
H635 C665 0.949 . S
C636 C637 1.376 . S
C636 C641 1.386 . S
C636 C642 1.483 . S
C637 H618 0.949 . S
C637 C636 1.376 . S
C637 C638 1.397 . S
C638 H619 0.950 . S
C638 C637 1.397 . S
C638 C639 1.391 . S
C639 C638 1.391 . S
C639 C640 1.405 . S
C640 H620 0.950 . S
C640 C639 1.405 . S
C640 C641 1.367 . S
C641 H621 0.950 . S
C641 C636 1.386 . S
C641 C640 1.367 . S
C642 C636 1.483 . S
C642 C643 1.382 . S
C642 C644 1.403 . S
C643 H622 0.950 . S
C643 C642 1.382 . S
C643 C659 1.411 . S
C644 C642 1.403 . S
C644 C645 1.489 . S
C644 C658 1.411 . S
C645 C644 1.489 . S
C645 C646 1.383 . S
C645 C650 1.382 . S
C646 H623 0.950 . S
C646 C645 1.383 . S
C646 C647 1.395 . S
C647 H624 0.950 . S
C647 C646 1.395 . S
C647 C648 1.288 . S
C648 C647 1.288 . S
C648 C649 1.392 . S
C649 H625 0.951 . S
C649 C648 1.392 . S
C649 C650 1.392 . S
C650 H626 0.949 . S
C650 C645 1.382 . S
C650 C649 1.392 . S
C651 C652 1.376 . S
C651 C656 1.386 . S
C651 C657 1.483 . S
C652 H627 0.949 . S
C652 C651 1.376 . S
C652 C653 1.397 . S
C653 H628 0.950 . S
C653 C652 1.397 . S
C653 C654 1.391 . S
C654 C653 1.391 . S
C654 C655 1.405 . S
C655 H629 0.950 . S
C655 C654 1.405 . S
C655 C656 1.367 . S
C656 H630 0.950 . S
C656 C651 1.386 . S
C656 C655 1.367 . S
C657 C651 1.483 . S
C657 C658 1.382 . S
C657 C659 1.403 . S
C658 H631 0.950 . S
C658 C644 1.411 . S
C658 C657 1.382 . S
C659 C643 1.411 . S
C659 C657 1.403 . S
C659 C660 1.489 . S
C660 C659 1.489 . S
C660 C661 1.383 . S
C660 C665 1.382 . S
C661 H632 0.950 . S
C661 C660 1.383 . S
C661 C662 1.395 . S
C662 H633 0.950 . S
C662 C661 1.395 . S
C662 C663 1.288 . S
C663 C662 1.288 . S
C663 C664 1.392 . S
C664 H634 0.951 . S
C664 C663 1.392 . S
C664 C665 1.392 . S
C665 H635 0.949 . S
C665 C660 1.382 . S
C665 C664 1.392 . S
H666 C685 0.949 . S
H667 C686 0.950 . S
H668 C688 0.950 . S
H669 C689 0.950 . S
H670 C691 0.950 . S
H671 C694 0.950 . S
H672 C695 0.950 . S
H673 C697 0.951 . S
H674 C698 0.949 . S
H675 C700 0.949 . S
H676 C701 0.950 . S
H677 C703 0.950 . S
H678 C704 0.950 . S
H679 C706 0.950 . S
H680 C709 0.950 . S
H681 C710 0.950 . S
H682 C712 0.951 . S
H683 C713 0.949 . S
C684 C685 1.376 . S
C684 C689 1.386 1_655 S
C684 C690 1.483 . S
C685 H666 0.949 . S
C685 C684 1.376 . S
C685 C686 1.397 . S
C686 H667 0.950 . S
C686 C685 1.397 . S
C686 C687 1.391 . S
C687 C686 1.391 . S
C687 C688 1.405 1_655 S
C688 H668 0.950 . S
C688 C687 1.405 1_455 S
C688 C689 1.367 . S
C689 H669 0.950 . S
C689 C684 1.386 1_455 S
C689 C688 1.367 . S
C690 C684 1.483 . S
C690 C691 1.382 . S
C690 C692 1.403 1_655 S
C691 H670 0.950 . S
C691 C690 1.382 . S
C691 C707 1.411 . S
C692 C690 1.403 1_455 S
C692 C693 1.489 . S
C692 C706 1.411 . S
C693 C692 1.489 . S
C693 C694 1.383 1_455 S
C693 C698 1.382 . S
C694 H671 0.950 . S
C694 C693 1.383 1_655 S
C694 C695 1.395 . S
C695 H672 0.950 . S
C695 C694 1.395 . S
C695 C696 1.288 1_655 S
C696 C695 1.288 1_455 S
C696 C697 1.392 . S
C697 H673 0.951 . S
C697 C696 1.392 . S
C697 C698 1.392 . S
C698 H674 0.949 . S
C698 C693 1.382 . S
C698 C697 1.392 . S
C699 C700 1.376 . S
C699 C704 1.386 1_455 S
C699 C705 1.483 . S
C700 H675 0.949 . S
C700 C699 1.376 . S
C700 C701 1.397 . S
C701 H676 0.950 . S
C701 C700 1.397 . S
C701 C702 1.391 . S
C702 C701 1.391 . S
C702 C703 1.405 1_455 S
C703 H677 0.950 . S
C703 C702 1.405 1_655 S
C703 C704 1.367 . S
C704 H678 0.950 . S
C704 C699 1.386 1_655 S
C704 C703 1.367 . S
C705 C699 1.483 . S
C705 C706 1.382 . S
C705 C707 1.403 1_455 S
C706 H679 0.950 . S
C706 C692 1.411 . S
C706 C705 1.382 . S
C707 C691 1.411 . S
C707 C705 1.403 1_655 S
C707 C708 1.489 . S
C708 C707 1.489 . S
C708 C709 1.383 1_655 S
C708 C713 1.382 . S
C709 H680 0.950 . S
C709 C708 1.383 1_455 S
C709 C710 1.395 . S
C710 H681 0.950 . S
C710 C709 1.395 . S
C710 C711 1.288 1_455 S
C711 C710 1.288 1_655 S
C711 C712 1.392 . S
C712 H682 0.951 . S
C712 C711 1.392 . S
C712 C713 1.392 . S
C713 H683 0.949 . S
C713 C708 1.382 . S
C713 C712 1.392 . S
H714 C733 0.949 . S
H715 C734 0.950 . S
H716 C736 0.950 . S
H717 C737 0.950 . S
H718 C739 0.950 . S
H719 C742 0.950 . S
H720 C743 0.950 . S
H721 C745 0.951 . S
H722 C746 0.949 . S
H723 C748 0.949 . S
H724 C749 0.950 . S
H725 C751 0.950 . S
H726 C752 0.950 . S
H727 C754 0.950 . S
H728 C757 0.950 . S
H729 C758 0.950 . S
H730 C760 0.951 . S
H731 C761 0.949 . S
C732 C733 1.376 . S
C732 C737 1.386 . S
C732 C738 1.483 . S
C733 H714 0.949 . S
C733 C732 1.376 . S
C733 C734 1.397 . S
C734 H715 0.950 . S
C734 C733 1.397 . S
C734 C735 1.391 . S
C735 C734 1.391 . S
C735 C736 1.405 . S
C736 H716 0.950 . S
C736 C735 1.405 . S
C736 C737 1.367 . S
C737 H717 0.950 . S
C737 C732 1.386 . S
C737 C736 1.367 . S
C738 C732 1.483 . S
C738 C739 1.382 . S
C738 C740 1.403 . S
C739 H718 0.950 . S
C739 C738 1.382 . S
C739 C755 1.411 . S
C740 C738 1.403 . S
C740 C741 1.489 . S
C740 C754 1.411 . S
C741 C740 1.489 . S
C741 C742 1.383 . S
C741 C746 1.382 . S
C742 H719 0.950 . S
C742 C741 1.383 . S
C742 C743 1.395 . S
C743 H720 0.950 . S
C743 C742 1.395 . S
C743 C744 1.288 . S
C744 C743 1.288 . S
C744 C745 1.392 . S
C745 H721 0.951 . S
C745 C744 1.392 . S
C745 C746 1.392 . S
C746 H722 0.949 . S
C746 C741 1.382 . S
C746 C745 1.392 . S
C747 C748 1.376 . S
C747 C752 1.386 . S
C747 C753 1.483 . S
C748 H723 0.949 . S
C748 C747 1.376 . S
C748 C749 1.397 . S
C749 H724 0.950 . S
C749 C748 1.397 . S
C749 C750 1.391 . S
C750 C749 1.391 . S
C750 C751 1.405 . S
C751 H725 0.950 . S
C751 C750 1.405 . S
C751 C752 1.367 . S
C752 H726 0.950 . S
C752 C747 1.386 . S
C752 C751 1.367 . S
C753 C747 1.483 . S
C753 C754 1.382 . S
C753 C755 1.403 . S
C754 H727 0.950 . S
C754 C740 1.411 . S
C754 C753 1.382 . S
C755 C739 1.411 . S
C755 C753 1.403 . S
C755 C756 1.489 . S
C756 C755 1.489 . S
C756 C757 1.383 . S
C756 C761 1.382 . S
C757 H728 0.950 . S
C757 C756 1.383 . S
C757 C758 1.395 . S
C758 H729 0.950 . S
C758 C757 1.395 . S
C758 C759 1.288 . S
C759 C758 1.288 . S
C759 C760 1.392 . S
C760 H730 0.951 . S
C760 C759 1.392 . S
C760 C761 1.392 . S
C761 H731 0.949 . S
C761 C756 1.382 . S
C761 C760 1.392 . S
H762 C781 0.949 . S
H763 C782 0.950 . S
H764 C784 0.950 . S
H765 C785 0.950 . S
H766 C787 0.950 . S
H767 C790 0.950 . S
H768 C791 0.950 . S
H769 C793 0.951 . S
H770 C794 0.949 . S
H771 C796 0.949 . S
H772 C797 0.950 . S
H773 C799 0.950 . S
H774 C800 0.950 . S
H775 C802 0.950 . S
H776 C805 0.950 . S
H777 C806 0.950 . S
H778 C808 0.951 . S
H779 C809 0.949 . S
C780 C781 1.376 . S
C780 C785 1.386 1_545 S
C780 C786 1.483 . S
C781 H762 0.949 . S
C781 C780 1.376 . S
C781 C782 1.397 . S
C782 H763 0.950 . S
C782 C781 1.397 . S
C782 C783 1.391 . S
C783 C782 1.391 . S
C783 C784 1.405 1_545 S
C784 H764 0.950 . S
C784 C783 1.405 1_565 S
C784 C785 1.367 . S
C785 H765 0.950 . S
C785 C780 1.386 1_565 S
C785 C784 1.367 . S
C786 C780 1.483 . S
C786 C787 1.382 . S
C786 C788 1.403 1_545 S
C787 H766 0.950 . S
C787 C786 1.382 . S
C787 C803 1.411 . S
C788 C786 1.403 1_565 S
C788 C789 1.489 . S
C788 C802 1.411 . S
C789 C788 1.489 . S
C789 C790 1.383 1_565 S
C789 C794 1.382 . S
C790 H767 0.950 . S
C790 C789 1.383 1_545 S
C790 C791 1.395 . S
C791 H768 0.950 . S
C791 C790 1.395 . S
C791 C792 1.288 1_545 S
C792 C791 1.288 1_565 S
C792 C793 1.392 . S
C793 H769 0.951 . S
C793 C792 1.392 . S
C793 C794 1.392 . S
C794 H770 0.949 . S
C794 C789 1.382 . S
C794 C793 1.392 . S
C795 C796 1.376 . S
C795 C800 1.386 1_565 S
C795 C801 1.483 . S
C796 H771 0.949 . S
C796 C795 1.376 . S
C796 C797 1.397 . S
C797 H772 0.950 . S
C797 C796 1.397 . S
C797 C798 1.391 . S
C798 C797 1.391 . S
C798 C799 1.405 1_565 S
C799 H773 0.950 . S
C799 C798 1.405 1_545 S
C799 C800 1.367 . S
C800 H774 0.950 . S
C800 C795 1.386 1_545 S
C800 C799 1.367 . S
C801 C795 1.483 . S
C801 C802 1.382 . S
C801 C803 1.403 1_565 S
C802 H775 0.950 . S
C802 C788 1.411 . S
C802 C801 1.382 . S
C803 C787 1.411 . S
C803 C801 1.403 1_545 S
C803 C804 1.489 . S
C804 C803 1.489 . S
C804 C805 1.383 1_545 S
C804 C809 1.382 . S
C805 H776 0.950 . S
C805 C804 1.383 1_565 S
C805 C806 1.395 . S
C806 H777 0.950 . S
C806 C805 1.395 . S
C806 C807 1.288 1_565 S
C807 C806 1.288 1_545 S
C807 C808 1.392 . S
C808 H778 0.951 . S
C808 C807 1.392 . S
C808 C809 1.392 . S
C809 H779 0.949 . S
C809 C804 1.382 . S
C809 C808 1.392 . S
H810 C829 0.949 . S
H811 C830 0.950 . S
H812 C832 0.950 . S
H813 C833 0.950 . S
H814 C835 0.950 . S
H815 C838 0.950 . S
H816 C839 0.950 . S
H817 C841 0.951 . S
H818 C842 0.949 . S
H819 C844 0.949 . S
H820 C845 0.950 . S
H821 C847 0.950 . S
H822 C848 0.950 . S
H823 C850 0.950 . S
H824 C853 0.950 . S
H825 C854 0.950 . S
H826 C856 0.951 . S
H827 C857 0.949 . S
C828 C829 1.382 . S
C828 C833 1.383 1_545 S
C828 C834 1.505 . S
C829 H810 0.949 . S
C829 C828 1.382 . S
C829 C830 1.397 . S
C830 H811 0.950 . S
C830 C829 1.397 . S
C830 C831 1.391 1_545 S
C831 C830 1.391 1_565 S
C831 C832 1.405 . S
C832 H812 0.950 . S
C832 C831 1.405 . S
C832 C833 1.367 . S
C833 H813 0.950 . S
C833 C828 1.383 1_565 S
C833 C832 1.367 . S
C834 C828 1.505 . S
C834 C835 1.359 . S
C834 C836 1.398 1_545 S
C835 H814 0.950 . S
C835 C834 1.359 . S
C835 C851 1.444 . S
C836 C834 1.398 1_565 S
C836 C837 1.484 . S
C836 C850 1.435 . S
C837 C836 1.484 . S
C837 C838 1.349 1_565 S
C837 C842 1.400 . S
C838 H815 0.950 . S
C838 C837 1.349 1_545 S
C838 C839 1.395 . S
C839 H816 0.950 . S
C839 C838 1.395 . S
C839 C840 1.288 . S
C840 C839 1.288 . S
C840 C841 1.392 1_545 S
C841 H817 0.951 . S
C841 C840 1.392 1_565 S
C841 C842 1.392 . S
C842 H818 0.949 . S
C842 C837 1.400 . S
C842 C841 1.392 . S
C843 C844 1.369 . S
C843 C848 1.389 1_565 S
C843 C849 1.505 . S
C844 H819 0.949 . S
C844 C843 1.369 . S
C844 C845 1.397 . S
C845 H820 0.950 . S
C845 C844 1.397 . S
C845 C846 1.391 1_565 S
C846 C845 1.391 1_545 S
C846 C847 1.405 . S
C847 H821 0.950 . S
C847 C846 1.405 . S
C847 C848 1.367 . S
C848 H822 0.950 . S
C848 C843 1.389 1_545 S
C848 C847 1.367 . S
C849 C843 1.505 . S
C849 C850 1.365 . S
C849 C851 1.398 1_565 S
C850 H823 0.950 . S
C850 C836 1.435 . S
C850 C849 1.365 . S
C851 C835 1.444 . S
C851 C849 1.398 1_545 S
C851 C852 1.484 . S
C852 C851 1.484 . S
C852 C853 1.332 1_545 S
C852 C857 1.410 . S
C853 H824 0.950 . S
C853 C852 1.332 1_565 S
C853 C854 1.395 . S
C854 H825 0.950 . S
C854 C853 1.395 . S
C854 C855 1.288 . S
C855 C854 1.288 . S
C855 C856 1.392 1_565 S
C856 H826 0.951 . S
C856 C855 1.392 1_545 S
C856 C857 1.392 . S
C857 H827 0.949 . S
C857 C852 1.410 . S
C857 C856 1.392 . S
H858 C877 0.949 . S
H859 C878 0.950 . S
H860 C880 0.950 . S
H861 C881 0.950 . S
H862 C883 0.950 . S
H863 C886 0.950 . S
H864 C887 0.950 . S
H865 C889 0.951 . S
H866 C890 0.949 . S
H867 C892 0.949 . S
H868 C893 0.950 . S
H869 C895 0.950 . S
H870 C896 0.950 . S
H871 C898 0.950 . S
H872 C901 0.950 . S
H873 C902 0.950 . S
H874 C904 0.951 . S
H875 C905 0.949 . S
C876 C877 1.376 . S
C876 C881 1.386 1_455 S
C876 C882 1.483 . S
C877 H858 0.949 . S
C877 C876 1.376 . S
C877 C878 1.397 . S
C878 H859 0.950 . S
C878 C877 1.397 . S
C878 C879 1.391 . S
C879 C878 1.391 . S
C879 C880 1.405 1_455 S
C880 H860 0.950 . S
C880 C879 1.405 1_655 S
C880 C881 1.367 . S
C881 H861 0.950 . S
C881 C876 1.386 1_655 S
C881 C880 1.367 . S
C882 C876 1.483 . S
C882 C883 1.382 . S
C882 C884 1.403 1_455 S
C883 H862 0.950 . S
C883 C882 1.382 . S
C883 C899 1.411 . S
C884 C882 1.403 1_655 S
C884 C885 1.489 . S
C884 C898 1.411 . S
C885 C884 1.489 . S
C885 C886 1.383 1_655 S
C885 C890 1.382 . S
C886 H863 0.950 . S
C886 C885 1.383 1_455 S
C886 C887 1.395 . S
C887 H864 0.950 . S
C887 C886 1.395 . S
C887 C888 1.288 1_455 S
C888 C887 1.288 1_655 S
C888 C889 1.392 . S
C889 H865 0.951 . S
C889 C888 1.392 . S
C889 C890 1.392 . S
C890 H866 0.949 . S
C890 C885 1.382 . S
C890 C889 1.392 . S
C891 C892 1.376 . S
C891 C896 1.386 1_655 S
C891 C897 1.483 . S
C892 H867 0.949 . S
C892 C891 1.376 . S
C892 C893 1.397 . S
C893 H868 0.950 . S
C893 C892 1.397 . S
C893 C894 1.391 . S
C894 C893 1.391 . S
C894 C895 1.405 1_655 S
C895 H869 0.950 . S
C895 C894 1.405 1_455 S
C895 C896 1.367 . S
C896 H870 0.950 . S
C896 C891 1.386 1_455 S
C896 C895 1.367 . S
C897 C891 1.483 . S
C897 C898 1.382 . S
C897 C899 1.403 1_655 S
C898 H871 0.950 . S
C898 C884 1.411 . S
C898 C897 1.382 . S
C899 C883 1.411 . S
C899 C897 1.403 1_455 S
C899 C900 1.489 . S
C900 C899 1.489 . S
C900 C901 1.383 1_455 S
C900 C905 1.382 . S
C901 H872 0.950 . S
C901 C900 1.383 1_655 S
C901 C902 1.395 . S
C902 H873 0.950 . S
C902 C901 1.395 . S
C902 C903 1.288 1_655 S
C903 C902 1.288 1_455 S
C903 C904 1.392 . S
C904 H874 0.951 . S
C904 C903 1.392 . S
C904 C905 1.392 . S
C905 H875 0.949 . S
C905 C900 1.382 . S
C905 C904 1.392 . S
H906 C925 0.949 . S
H907 C926 0.950 . S
H908 C928 0.950 . S
H909 C929 0.950 . S
H910 C931 0.950 . S
H911 C934 0.950 . S
H912 C935 0.950 . S
H913 C937 0.951 . S
H914 C938 0.949 . S
H915 C940 0.949 . S
H916 C941 0.950 . S
H917 C943 0.950 . S
H918 C944 0.950 . S
H919 C946 0.950 . S
H920 C949 0.950 . S
H921 C950 0.950 . S
H922 C952 0.951 . S
H923 C953 0.949 . S
C924 C925 1.376 . S
C924 C929 1.386 . S
C924 C930 1.483 . S
C925 H906 0.949 . S
C925 C924 1.376 . S
C925 C926 1.397 . S
C926 H907 0.950 . S
C926 C925 1.397 . S
C926 C927 1.391 . S
C927 C926 1.391 . S
C927 C928 1.405 . S
C928 H908 0.950 . S
C928 C927 1.405 . S
C928 C929 1.367 . S
C929 H909 0.950 . S
C929 C924 1.386 . S
C929 C928 1.367 . S
C930 C924 1.483 . S
C930 C931 1.382 . S
C930 C932 1.403 . S
C931 H910 0.950 . S
C931 C930 1.382 . S
C931 C947 1.411 . S
C932 C930 1.403 . S
C932 C933 1.489 . S
C932 C946 1.411 . S
C933 C932 1.489 . S
C933 C934 1.383 . S
C933 C938 1.382 . S
C934 H911 0.950 . S
C934 C933 1.383 . S
C934 C935 1.395 . S
C935 H912 0.950 . S
C935 C934 1.395 . S
C935 C936 1.288 . S
C936 C935 1.288 . S
C936 C937 1.392 . S
C937 H913 0.951 . S
C937 C936 1.392 . S
C937 C938 1.392 . S
C938 H914 0.949 . S
C938 C933 1.382 . S
C938 C937 1.392 . S
C939 C940 1.376 . S
C939 C944 1.386 . S
C939 C945 1.483 . S
C940 H915 0.949 . S
C940 C939 1.376 . S
C940 C941 1.397 . S
C941 H916 0.950 . S
C941 C940 1.397 . S
C941 C942 1.391 . S
C942 C941 1.391 . S
C942 C943 1.405 . S
C943 H917 0.950 . S
C943 C942 1.405 . S
C943 C944 1.367 . S
C944 H918 0.950 . S
C944 C939 1.386 . S
C944 C943 1.367 . S
C945 C939 1.483 . S
C945 C946 1.382 . S
C945 C947 1.403 . S
C946 H919 0.950 . S
C946 C932 1.411 . S
C946 C945 1.382 . S
C947 C931 1.411 . S
C947 C945 1.403 . S
C947 C948 1.489 . S
C948 C947 1.489 . S
C948 C949 1.383 . S
C948 C953 1.382 . S
C949 H920 0.950 . S
C949 C948 1.383 . S
C949 C950 1.395 . S
C950 H921 0.950 . S
C950 C949 1.395 . S
C950 C951 1.288 . S
C951 C950 1.288 . S
C951 C952 1.392 . S
C952 H922 0.951 . S
C952 C951 1.392 . S
C952 C953 1.392 . S
C953 H923 0.949 . S
C953 C948 1.382 . S
C953 C952 1.392 . S
H954 C973 0.949 . S
H955 C974 0.950 . S
H956 C976 0.950 . S
H957 C977 0.950 . S
H958 C979 0.950 . S
H959 C982 0.950 . S
H960 C983 0.950 . S
H961 C985 0.951 . S
H962 C986 0.949 . S
H963 C988 0.949 . S
H964 C989 0.950 . S
H965 C991 0.950 . S
H966 C992 0.950 . S
H967 C994 0.950 . S
H968 C997 0.950 . S
H969 C998 0.950 . S
H970 C1000 0.951 . S
H971 C1001 0.949 . S
C972 C973 1.376 . S
C972 C977 1.386 . S
C972 C978 1.483 . S
C973 H954 0.949 . S
C973 C972 1.376 . S
C973 C974 1.397 . S
C974 H955 0.950 . S
C974 C973 1.397 . S
C974 C975 1.391 . S
C975 C974 1.391 . S
C975 C976 1.405 . S
C976 H956 0.950 . S
C976 C975 1.405 . S
C976 C977 1.367 . S
C977 H957 0.950 . S
C977 C972 1.386 . S
C977 C976 1.367 . S
C978 C972 1.483 . S
C978 C979 1.382 . S
C978 C980 1.403 . S
C979 H958 0.950 . S
C979 C978 1.382 . S
C979 C995 1.411 . S
C980 C978 1.403 . S
C980 C981 1.489 . S
C980 C994 1.411 . S
C981 C980 1.489 . S
C981 C982 1.383 . S
C981 C986 1.382 . S
C982 H959 0.950 . S
C982 C981 1.383 . S
C982 C983 1.395 . S
C983 H960 0.950 . S
C983 C982 1.395 . S
C983 C984 1.288 . S
C984 C983 1.288 . S
C984 C985 1.392 . S
C985 H961 0.951 . S
C985 C984 1.392 . S
C985 C986 1.392 . S
C986 H962 0.949 . S
C986 C981 1.382 . S
C986 C985 1.392 . S
C987 C988 1.376 . S
C987 C992 1.386 . S
C987 C993 1.483 . S
C988 H963 0.949 . S
C988 C987 1.376 . S
C988 C989 1.397 . S
C989 H964 0.950 . S
C989 C988 1.397 . S
C989 C990 1.391 . S
C990 C989 1.391 . S
C990 C991 1.405 . S
C991 H965 0.950 . S
C991 C990 1.405 . S
C991 C992 1.367 . S
C992 H966 0.950 . S
C992 C987 1.386 . S
C992 C991 1.367 . S
C993 C987 1.483 . S
C993 C994 1.382 . S
C993 C995 1.403 . S
C994 H967 0.950 . S
C994 C980 1.411 . S
C994 C993 1.382 . S
C995 C979 1.411 . S
C995 C993 1.403 . S
C995 C996 1.489 . S
C996 C995 1.489 . S
C996 C997 1.383 . S
C996 C1001 1.382 . S
C997 H968 0.950 . S
C997 C996 1.383 . S
C997 C998 1.395 . S
C998 H969 0.950 . S
C998 C997 1.395 . S
C998 C999 1.288 . S
C999 C998 1.288 . S
C999 C1000 1.392 . S
C1000 H970 0.951 . S
C1000 C999 1.392 . S
C1000 C1001 1.392 . S
C1001 H971 0.949 . S
C1001 C996 1.382 . S
C1001 C1000 1.392 . S
H1002 C1021 0.949 . S
H1003 C1022 0.950 . S
H1004 C1024 0.950 . S
H1005 C1025 0.950 . S
H1006 C1027 0.950 . S
H1007 C1030 0.950 . S
H1008 C1031 0.950 . S
H1009 C1033 0.951 . S
H1010 C1034 0.949 . S
H1011 C1036 0.949 . S
H1012 C1037 0.950 . S
H1013 C1039 0.950 . S
H1014 C1040 0.950 . S
H1015 C1042 0.950 . S
H1016 C1045 0.950 . S
H1017 C1046 0.950 . S
H1018 C1048 0.951 . S
H1019 C1049 0.949 . S
C1020 C1021 1.376 . S
C1020 C1025 1.386 . S
C1020 C1026 1.483 . S
C1021 H1002 0.949 . S
C1021 C1020 1.376 . S
C1021 C1022 1.397 . S
C1022 H1003 0.950 . S
C1022 C1021 1.397 . S
C1022 C1023 1.391 . S
C1023 C1022 1.391 . S
C1023 C1024 1.405 . S
C1024 H1004 0.950 . S
C1024 C1023 1.405 . S
C1024 C1025 1.367 . S
C1025 H1005 0.950 . S
C1025 C1020 1.386 . S
C1025 C1024 1.367 . S
C1026 C1020 1.483 . S
C1026 C1027 1.382 . S
C1026 C1028 1.403 . S
C1027 H1006 0.950 . S
C1027 C1026 1.382 . S
C1027 C1043 1.411 . S
C1028 C1026 1.403 . S
C1028 C1029 1.489 . S
C1028 C1042 1.411 . S
C1029 C1028 1.489 . S
C1029 C1030 1.383 . S
C1029 C1034 1.382 . S
C1030 H1007 0.950 . S
C1030 C1029 1.383 . S
C1030 C1031 1.395 . S
C1031 H1008 0.950 . S
C1031 C1030 1.395 . S
C1031 C1032 1.288 . S
C1032 C1031 1.288 . S
C1032 C1033 1.392 . S
C1033 H1009 0.951 . S
C1033 C1032 1.392 . S
C1033 C1034 1.392 . S
C1034 H1010 0.949 . S
C1034 C1029 1.382 . S
C1034 C1033 1.392 . S
C1035 C1036 1.376 . S
C1035 C1040 1.386 . S
C1035 C1041 1.483 . S
C1036 H1011 0.949 . S
C1036 C1035 1.376 . S
C1036 C1037 1.397 . S
C1037 H1012 0.950 . S
C1037 C1036 1.397 . S
C1037 C1038 1.391 . S
C1038 C1037 1.391 . S
C1038 C1039 1.405 . S
C1039 H1013 0.950 . S
C1039 C1038 1.405 . S
C1039 C1040 1.367 . S
C1040 H1014 0.950 . S
C1040 C1035 1.386 . S
C1040 C1039 1.367 . S
C1041 C1035 1.483 . S
C1041 C1042 1.382 . S
C1041 C1043 1.403 . S
C1042 H1015 0.950 . S
C1042 C1028 1.411 . S
C1042 C1041 1.382 . S
C1043 C1027 1.411 . S
C1043 C1041 1.403 . S
C1043 C1044 1.489 . S
C1044 C1043 1.489 . S
C1044 C1045 1.383 . S
C1044 C1049 1.382 . S
C1045 H1016 0.950 . S
C1045 C1044 1.383 . S
C1045 C1046 1.395 . S
C1046 H1017 0.950 . S
C1046 C1045 1.395 . S
C1046 C1047 1.288 . S
C1047 C1046 1.288 . S
C1047 C1048 1.392 . S
C1048 H1018 0.951 . S
C1048 C1047 1.392 . S
C1048 C1049 1.392 . S
C1049 H1019 0.949 . S
C1049 C1044 1.382 . S
C1049 C1048 1.392 . S
H1050 C1069 0.949 . S
H1051 C1070 0.950 . S
H1052 C1072 0.950 . S
H1053 C1073 0.950 . S
H1054 C1075 0.950 . S
H1055 C1078 0.950 . S
H1056 C1079 0.950 . S
H1057 C1081 0.951 . S
H1058 C1082 0.949 . S
H1059 C1084 0.949 . S
H1060 C1085 0.950 . S
H1061 C1087 0.950 . S
H1062 C1088 0.950 . S
H1063 C1090 0.950 . S
H1064 C1093 0.950 . S
H1065 C1094 0.950 . S
H1066 C1096 0.951 . S
H1067 C1097 0.949 . S
C1068 C1069 1.376 . S
C1068 C1073 1.386 . S
C1068 C1074 1.483 . S
C1069 H1050 0.949 . S
C1069 C1068 1.376 . S
C1069 C1070 1.397 . S
C1070 H1051 0.950 . S
C1070 C1069 1.397 . S
C1070 C1071 1.391 . S
C1071 C1070 1.391 . S
C1071 C1072 1.405 . S
C1072 H1052 0.950 . S
C1072 C1071 1.405 . S
C1072 C1073 1.367 . S
C1073 H1053 0.950 . S
C1073 C1068 1.386 . S
C1073 C1072 1.367 . S
C1074 C1068 1.483 . S
C1074 C1075 1.382 . S
C1074 C1076 1.403 . S
C1075 H1054 0.950 . S
C1075 C1074 1.382 . S
C1075 C1091 1.411 . S
C1076 C1074 1.403 . S
C1076 C1077 1.489 . S
C1076 C1090 1.411 . S
C1077 C1076 1.489 . S
C1077 C1078 1.383 . S
C1077 C1082 1.382 . S
C1078 H1055 0.950 . S
C1078 C1077 1.383 . S
C1078 C1079 1.395 . S
C1079 H1056 0.950 . S
C1079 C1078 1.395 . S
C1079 C1080 1.288 . S
C1080 C1079 1.288 . S
C1080 C1081 1.392 . S
C1081 H1057 0.951 . S
C1081 C1080 1.392 . S
C1081 C1082 1.392 . S
C1082 H1058 0.949 . S
C1082 C1077 1.382 . S
C1082 C1081 1.392 . S
C1083 C1084 1.376 . S
C1083 C1088 1.386 . S
C1083 C1089 1.483 . S
C1084 H1059 0.949 . S
C1084 C1083 1.376 . S
C1084 C1085 1.397 . S
C1085 H1060 0.950 . S
C1085 C1084 1.397 . S
C1085 C1086 1.391 . S
C1086 C1085 1.391 . S
C1086 C1087 1.405 . S
C1087 H1061 0.950 . S
C1087 C1086 1.405 . S
C1087 C1088 1.367 . S
C1088 H1062 0.950 . S
C1088 C1083 1.386 . S
C1088 C1087 1.367 . S
C1089 C1083 1.483 . S
C1089 C1090 1.382 . S
C1089 C1091 1.403 . S
C1090 H1063 0.950 . S
C1090 C1076 1.411 . S
C1090 C1089 1.382 . S
C1091 C1075 1.411 . S
C1091 C1089 1.403 . S
C1091 C1092 1.489 . S
C1092 C1091 1.489 . S
C1092 C1093 1.383 . S
C1092 C1097 1.382 . S
C1093 H1064 0.950 . S
C1093 C1092 1.383 . S
C1093 C1094 1.395 . S
C1094 H1065 0.950 . S
C1094 C1093 1.395 . S
C1094 C1095 1.288 . S
C1095 C1094 1.288 . S
C1095 C1096 1.392 . S
C1096 H1066 0.951 . S
C1096 C1095 1.392 . S
C1096 C1097 1.392 . S
C1097 H1067 0.949 . S
C1097 C1092 1.382 . S
C1097 C1096 1.392 . S
H1098 C1106 0.950 . S
H1099 C1111 0.950 . S
H1100 C1108 0.950 . S
H1101 C1110 0.950 . S
H1102 C1112 0.950 . S
H1103 C1114 0.950 . S
H1104 C1116 0.950 . S
H1105 C1117 0.950 . S
C1106 H1098 0.950 . S
C1106 C1107 1.390 1_655 S
C1106 C1108 1.391 . S
C1107 C1106 1.390 1_455 S
C1107 C1111 1.390 . S
C1108 H1100 0.950 . S
C1108 C1106 1.391 . S
C1108 C1109 1.400 . S
C1109 C1108 1.400 . S
C1109 C1110 1.398 1_655 S
C1109 C1115 1.491 . S
C1110 H1101 0.950 . S
C1110 C1109 1.398 1_455 S
C1110 C1111 1.391 . S
C1111 H1099 0.950 . S
C1111 C1107 1.390 . S
C1111 C1110 1.391 . S
C1112 H1102 0.950 . S
C1112 C1113 1.386 1_455 S
C1112 C1114 1.391 . S
C1113 C1112 1.386 1_655 S
C1113 C1117 1.393 . S
C1114 H1103 0.950 . S
C1114 C1112 1.391 . S
C1114 C1115 1.400 1_455 S
C1115 C1109 1.491 . S
C1115 C1114 1.400 1_655 S
C1115 C1116 1.398 . S
C1116 H1104 0.950 . S
C1116 C1115 1.398 . S
C1116 C1117 1.391 . S
C1117 H1105 0.950 . S
C1117 C1113 1.393 . S
C1117 C1116 1.391 . S
H1118 C1126 0.950 . S
H1119 C1131 0.950 . S
H1120 C1128 0.950 . S
H1121 C1130 0.950 . S
H1122 C1132 0.950 . S
H1123 C1134 0.950 . S
H1124 C1136 0.950 . S
H1125 C1137 0.950 . S
C1126 H1118 0.950 . S
C1126 C1127 1.386 . S
C1126 C1128 1.391 . S
C1127 C1126 1.386 . S
C1127 C1131 1.393 . S
C1128 H1120 0.950 . S
C1128 C1126 1.391 . S
C1128 C1129 1.400 . S
C1129 C1128 1.400 . S
C1129 C1130 1.398 . S
C1129 C1135 1.491 . S
C1130 H1121 0.950 . S
C1130 C1129 1.398 . S
C1130 C1131 1.391 . S
C1131 H1119 0.950 . S
C1131 C1127 1.393 . S
C1131 C1130 1.391 . S
C1132 H1122 0.950 . S
C1132 C1133 1.386 . S
C1132 C1134 1.391 . S
C1133 C1132 1.386 . S
C1133 C1137 1.393 . S
C1134 H1123 0.950 . S
C1134 C1132 1.391 . S
C1134 C1135 1.400 . S
C1135 C1129 1.491 . S
C1135 C1134 1.400 . S
C1135 C1136 1.398 . S
C1136 H1124 0.950 . S
C1136 C1135 1.398 . S
C1136 C1137 1.391 . S
C1137 H1125 0.950 . S
C1137 C1133 1.393 . S
C1137 C1136 1.391 . S
H1138 C1146 0.950 . S
H1139 C1151 0.950 . S
H1140 C1148 0.950 . S
H1141 C1150 0.950 . S
H1142 C1152 0.950 . S
H1143 C1154 0.950 . S
H1144 C1156 0.950 . S
H1145 C1157 0.950 . S
C1146 H1138 0.950 . S
C1146 C1147 1.366 1_565 S
C1146 C1148 1.391 . S
C1147 C1146 1.366 1_545 S
C1147 C1151 1.397 . S
C1148 H1140 0.950 . S
C1148 C1146 1.391 . S
C1148 C1149 1.400 1_565 S
C1149 C1148 1.400 1_545 S
C1149 C1150 1.398 . S
C1149 C1155 1.491 . S
C1150 H1141 0.950 . S
C1150 C1149 1.398 . S
C1150 C1151 1.391 . S
C1151 H1139 0.950 . S
C1151 C1147 1.397 . S
C1151 C1150 1.391 . S
C1152 H1142 0.950 . S
C1152 C1153 1.386 . S
C1152 C1154 1.391 . S
C1153 C1152 1.386 . S
C1153 C1157 1.393 1_545 S
C1154 H1143 0.950 . S
C1154 C1152 1.391 . S
C1154 C1155 1.400 . S
C1155 C1149 1.491 . S
C1155 C1154 1.400 . S
C1155 C1156 1.398 1_545 S
C1156 H1144 0.950 . S
C1156 C1155 1.398 1_565 S
C1156 C1157 1.391 . S
C1157 H1145 0.950 . S
C1157 C1153 1.393 1_565 S
C1157 C1156 1.391 . S
H1158 C1166 0.950 . S
H1159 C1171 0.950 . S
H1160 C1168 0.950 . S
H1161 C1170 0.950 . S
H1162 C1172 0.950 . S
H1163 C1174 0.950 . S
H1164 C1176 0.950 . S
H1165 C1177 0.950 . S
C1166 H1158 0.950 . S
C1166 C1167 1.400 . S
C1166 C1168 1.391 . S
C1167 C1166 1.400 . S
C1167 C1171 1.370 1_545 S
C1168 H1160 0.950 . S
C1168 C1166 1.391 . S
C1168 C1169 1.338 1_545 S
C1169 C1168 1.338 1_565 S
C1169 C1170 1.436 . S
C1169 C1175 1.517 . S
C1170 H1161 0.950 . S
C1170 C1169 1.436 . S
C1170 C1171 1.391 . S
C1171 H1159 0.950 . S
C1171 C1167 1.370 1_565 S
C1171 C1170 1.391 . S
C1172 H1162 0.950 . S
C1172 C1173 1.386 . S
C1172 C1174 1.391 . S
C1173 C1172 1.386 . S
C1173 C1177 1.393 1_565 S
C1174 H1163 0.950 . S
C1174 C1172 1.391 . S
C1174 C1175 1.400 . S
C1175 C1169 1.517 . S
C1175 C1174 1.400 . S
C1175 C1176 1.398 1_565 S
C1176 H1164 0.950 . S
C1176 C1175 1.398 1_545 S
C1176 C1177 1.391 . S
C1177 H1165 0.950 . S
C1177 C1173 1.393 1_545 S
C1177 C1176 1.391 . S
H1178 C1186 0.950 . S
H1179 C1191 0.950 . S
H1180 C1188 0.950 . S
H1181 C1190 0.950 . S
H1182 C1192 0.950 . S
H1183 C1194 0.950 . S
H1184 C1196 0.950 . S
H1185 C1197 0.950 . S
C1186 H1178 0.950 . S
C1186 C1187 1.344 1_655 S
C1186 C1188 1.391 . S
C1187 C1186 1.344 1_455 S
C1187 C1191 1.416 . S
C1188 H1180 0.950 . S
C1188 C1186 1.391 . S
C1188 C1189 1.400 1_655 S
C1189 C1188 1.400 1_455 S
C1189 C1190 1.398 . S
C1189 C1195 1.491 . S
C1190 H1181 0.950 . S
C1190 C1189 1.398 . S
C1190 C1191 1.391 . S
C1191 H1179 0.950 . S
C1191 C1187 1.416 . S
C1191 C1190 1.391 . S
C1192 H1182 0.950 . S
C1192 C1193 1.386 . S
C1192 C1194 1.391 . S
C1193 C1192 1.386 . S
C1193 C1197 1.393 1_455 S
C1194 H1183 0.950 . S
C1194 C1192 1.391 . S
C1194 C1195 1.400 . S
C1195 C1189 1.491 . S
C1195 C1194 1.400 . S
C1195 C1196 1.398 1_455 S
C1196 H1184 0.950 . S
C1196 C1195 1.398 1_655 S
C1196 C1197 1.391 . S
C1197 H1185 0.950 . S
C1197 C1193 1.393 1_655 S
C1197 C1196 1.391 . S
H1198 C1206 0.950 . S
H1199 C1211 0.950 . S
H1200 C1208 0.950 . S
H1201 C1210 0.950 . S
H1202 C1212 0.950 . S
H1203 C1214 0.950 . S
H1204 C1216 0.950 . S
H1205 C1217 0.950 . S
C1206 H1198 0.950 . S
C1206 C1207 1.386 . S
C1206 C1208 1.391 . S
C1207 C1206 1.386 . S
C1207 C1211 1.393 . S
C1208 H1200 0.950 . S
C1208 C1206 1.391 . S
C1208 C1209 1.400 . S
C1209 C1208 1.400 . S
C1209 C1210 1.398 . S
C1209 C1215 1.491 . S
C1210 H1201 0.950 . S
C1210 C1209 1.398 . S
C1210 C1211 1.391 . S
C1211 H1199 0.950 . S
C1211 C1207 1.393 . S
C1211 C1210 1.391 . S
C1212 H1202 0.950 . S
C1212 C1213 1.386 . S
C1212 C1214 1.391 . S
C1213 C1212 1.386 . S
C1213 C1217 1.393 . S
C1214 H1203 0.950 . S
C1214 C1212 1.391 . S
C1214 C1215 1.400 . S
C1215 C1209 1.491 . S
C1215 C1214 1.400 . S
C1215 C1216 1.398 . S
C1216 H1204 0.950 . S
C1216 C1215 1.398 . S
C1216 C1217 1.391 . S
C1217 H1205 0.950 . S
C1217 C1213 1.393 . S
C1217 C1216 1.391 . S
H1218 C1226 0.950 . S
H1219 C1231 0.950 . S
H1220 C1228 0.950 . S
H1221 C1230 0.950 . S
H1222 C1232 0.950 . S
H1223 C1234 0.950 . S
H1224 C1236 0.950 . S
H1225 C1237 0.950 . S
C1226 H1218 0.950 . S
C1226 C1227 1.382 1_655 S
C1226 C1228 1.391 . S
C1227 C1226 1.382 1_455 S
C1227 C1231 1.406 . S
C1228 H1220 0.950 . S
C1228 C1226 1.391 . S
C1228 C1229 1.400 1_655 S
C1229 C1228 1.400 1_455 S
C1229 C1230 1.398 . S
C1229 C1235 1.491 . S
C1230 H1221 0.950 . S
C1230 C1229 1.398 . S
C1230 C1231 1.391 . S
C1231 H1219 0.950 . S
C1231 C1227 1.406 . S
C1231 C1230 1.391 . S
C1232 H1222 0.950 . S
C1232 C1233 1.386 . S
C1232 C1234 1.391 . S
C1233 C1232 1.386 . S
C1233 C1237 1.393 1_455 S
C1234 H1223 0.950 . S
C1234 C1232 1.391 . S
C1234 C1235 1.400 . S
C1235 C1229 1.491 . S
C1235 C1234 1.400 . S
C1235 C1236 1.398 1_455 S
C1236 H1224 0.950 . S
C1236 C1235 1.398 1_655 S
C1236 C1237 1.391 . S
C1237 H1225 0.950 . S
C1237 C1233 1.393 1_655 S
C1237 C1236 1.391 . S
H1238 C1246 0.950 . S
H1239 C1251 0.950 . S
H1240 C1248 0.950 . S
H1241 C1250 0.950 . S
H1242 C1252 0.950 . S
H1243 C1254 0.950 . S
H1244 C1256 0.950 . S
H1245 C1257 0.950 . S
C1246 H1238 0.950 . S
C1246 C1247 1.386 . S
C1246 C1248 1.391 . S
C1247 C1246 1.386 . S
C1247 C1251 1.393 . S
C1248 H1240 0.950 . S
C1248 C1246 1.391 . S
C1248 C1249 1.400 . S
C1249 C1248 1.400 . S
C1249 C1250 1.398 . S
C1249 C1255 1.491 . S
C1250 H1241 0.950 . S
C1250 C1249 1.398 . S
C1250 C1251 1.391 . S
C1251 H1239 0.950 . S
C1251 C1247 1.393 . S
C1251 C1250 1.391 . S
C1252 H1242 0.950 . S
C1252 C1253 1.386 . S
C1252 C1254 1.391 . S
C1253 C1252 1.386 . S
C1253 C1257 1.393 . S
C1254 H1243 0.950 . S
C1254 C1252 1.391 . S
C1254 C1255 1.400 . S
C1255 C1249 1.491 . S
C1255 C1254 1.400 . S
C1255 C1256 1.398 . S
C1256 H1244 0.950 . S
C1256 C1255 1.398 . S
C1256 C1257 1.391 . S
C1257 H1245 0.950 . S
C1257 C1253 1.393 . S
C1257 C1256 1.391 . S
H1258 C1266 0.950 . S
H1259 C1271 0.950 . S
H1260 C1268 0.950 . S
H1261 C1270 0.950 . S
H1262 C1272 0.950 . S
H1263 C1274 0.950 . S
H1264 C1276 0.950 . S
H1265 C1277 0.950 . S
C1266 H1258 0.950 . S
C1266 C1267 1.354 1_545 S
C1266 C1268 1.391 . S
C1267 C1266 1.354 1_565 S
C1267 C1271 1.414 . S
C1268 H1260 0.950 . S
C1268 C1266 1.391 . S
C1268 C1269 1.400 1_545 S
C1269 C1268 1.400 1_565 S
C1269 C1270 1.398 . S
C1269 C1275 1.491 . S
C1270 H1261 0.950 . S
C1270 C1269 1.398 . S
C1270 C1271 1.391 . S
C1271 H1259 0.950 . S
C1271 C1267 1.414 . S
C1271 C1270 1.391 . S
C1272 H1262 0.950 . S
C1272 C1273 1.386 . S
C1272 C1274 1.391 . S
C1273 C1272 1.386 . S
C1273 C1277 1.393 1_565 S
C1274 H1263 0.950 . S
C1274 C1272 1.391 . S
C1274 C1275 1.400 . S
C1275 C1269 1.491 . S
C1275 C1274 1.400 . S
C1275 C1276 1.398 1_565 S
C1276 H1264 0.950 . S
C1276 C1275 1.398 1_545 S
C1276 C1277 1.391 . S
C1277 H1265 0.950 . S
C1277 C1273 1.393 1_545 S
C1277 C1276 1.391 . S
H1278 C1286 0.950 . S
H1279 C1291 0.950 . S
H1280 C1288 0.950 . S
H1281 C1290 0.950 . S
H1282 C1292 0.950 . S
H1283 C1294 0.950 . S
H1284 C1296 0.950 . S
H1285 C1297 0.950 . S
C1286 H1278 0.950 . S
C1286 C1287 1.368 1_565 S
C1286 C1288 1.391 . S
C1287 C1286 1.368 1_545 S
C1287 C1291 1.428 . S
C1288 H1280 0.950 . S
C1288 C1286 1.391 . S
C1288 C1289 1.400 1_565 S
C1289 C1288 1.400 1_545 S
C1289 C1290 1.398 . S
C1289 C1295 1.491 . S
C1290 H1281 0.950 . S
C1290 C1289 1.398 . S
C1290 C1291 1.391 . S
C1291 H1279 0.950 . S
C1291 C1287 1.428 . S
C1291 C1290 1.391 . S
C1292 H1282 0.950 . S
C1292 C1293 1.386 . S
C1292 C1294 1.391 . S
C1293 C1292 1.386 . S
C1293 C1297 1.393 1_545 S
C1294 H1283 0.950 . S
C1294 C1292 1.391 . S
C1294 C1295 1.400 . S
C1295 C1289 1.491 . S
C1295 C1294 1.400 . S
C1295 C1296 1.398 1_545 S
C1296 H1284 0.950 . S
C1296 C1295 1.398 1_565 S
C1296 C1297 1.391 . S
C1297 H1285 0.950 . S
C1297 C1293 1.393 1_565 S
C1297 C1296 1.391 . S
H1298 C1306 0.950 . S
H1299 C1311 0.950 . S
H1300 C1308 0.950 . S
H1301 C1310 0.950 . S
H1302 C1312 0.950 . S
H1303 C1314 0.950 . S
H1304 C1316 0.950 . S
H1305 C1317 0.950 . S
C1306 H1298 0.950 . S
C1306 C1307 1.370 1_455 S
C1306 C1308 1.391 . S
C1307 C1306 1.370 1_655 S
C1307 C1311 1.403 . S
C1308 H1300 0.950 . S
C1308 C1306 1.391 . S
C1308 C1309 1.400 1_455 S
C1309 C1308 1.400 1_655 S
C1309 C1310 1.398 . S
C1309 C1315 1.491 . S
C1310 H1301 0.950 . S
C1310 C1309 1.398 . S
C1310 C1311 1.391 . S
C1311 H1299 0.950 . S
C1311 C1307 1.403 . S
C1311 C1310 1.391 . S
C1312 H1302 0.950 . S
C1312 C1313 1.386 . S
C1312 C1314 1.391 . S
C1313 C1312 1.386 . S
C1313 C1317 1.393 1_655 S
C1314 H1303 0.950 . S
C1314 C1312 1.391 . S
C1314 C1315 1.400 . S
C1315 C1309 1.491 . S
C1315 C1314 1.400 . S
C1315 C1316 1.398 1_655 S
C1316 H1304 0.950 . S
C1316 C1315 1.398 1_455 S
C1316 C1317 1.391 . S
C1317 H1305 0.950 . S
C1317 C1313 1.393 1_455 S
C1317 C1316 1.391 . S
H1318 C1326 0.950 . S
H1319 C1331 0.950 . S
H1320 C1328 0.950 . S
H1321 C1330 0.950 . S
H1322 C1332 0.950 . S
H1323 C1334 0.950 . S
H1324 C1336 0.950 . S
H1325 C1337 0.950 . S
C1326 H1318 0.950 . S
C1326 C1327 1.386 . S
C1326 C1328 1.391 . S
C1327 C1326 1.386 . S
C1327 C1331 1.393 . S
C1328 H1320 0.950 . S
C1328 C1326 1.391 . S
C1328 C1329 1.400 . S
C1329 C1328 1.400 . S
C1329 C1330 1.398 . S
C1329 C1335 1.491 . S
C1330 H1321 0.950 . S
C1330 C1329 1.398 . S
C1330 C1331 1.391 . S
C1331 H1319 0.950 . S
C1331 C1327 1.393 . S
C1331 C1330 1.391 . S
C1332 H1322 0.950 . S
C1332 C1333 1.386 . S
C1332 C1334 1.391 . S
C1333 C1332 1.386 . S
C1333 C1337 1.393 . S
C1334 H1323 0.950 . S
C1334 C1332 1.391 . S
C1334 C1335 1.400 . S
C1335 C1329 1.491 . S
C1335 C1334 1.400 . S
C1335 C1336 1.398 . S
C1336 H1324 0.950 . S
C1336 C1335 1.398 . S
C1336 C1337 1.391 . S
C1337 H1325 0.950 . S
C1337 C1333 1.393 . S
C1337 C1336 1.391 . S
H1338 C1346 0.950 . S
H1339 C1351 0.950 . S
H1340 C1348 0.950 . S
H1341 C1350 0.950 . S
H1342 C1352 0.950 . S
H1343 C1354 0.950 . S
H1344 C1356 0.950 . S
H1345 C1357 0.950 . S
C1346 H1338 0.950 . S
C1346 C1347 1.386 . S
C1346 C1348 1.391 . S
C1347 C1346 1.386 . S
C1347 C1351 1.393 . S
C1348 H1340 0.950 . S
C1348 C1346 1.391 . S
C1348 C1349 1.400 . S
C1349 C1348 1.400 . S
C1349 C1350 1.398 . S
C1349 C1355 1.491 . S
C1350 H1341 0.950 . S
C1350 C1349 1.398 . S
C1350 C1351 1.391 . S
C1351 H1339 0.950 . S
C1351 C1347 1.393 . S
C1351 C1350 1.391 . S
C1352 H1342 0.950 . S
C1352 C1353 1.386 . S
C1352 C1354 1.391 . S
C1353 C1352 1.386 . S
C1353 C1357 1.393 . S
C1354 H1343 0.950 . S
C1354 C1352 1.391 . S
C1354 C1355 1.400 . S
C1355 C1349 1.491 . S
C1355 C1354 1.400 . S
C1355 C1356 1.398 . S
C1356 H1344 0.950 . S
C1356 C1355 1.398 . S
C1356 C1357 1.391 . S
C1357 H1345 0.950 . S
C1357 C1353 1.393 . S
C1357 C1356 1.391 . S
H1358 C1366 0.950 . S
H1359 C1371 0.950 . S
H1360 C1368 0.950 . S
H1361 C1370 0.950 . S
H1362 C1372 0.950 . S
H1363 C1374 0.950 . S
H1364 C1376 0.950 . S
H1365 C1377 0.950 . S
C1366 H1358 0.950 . S
C1366 C1367 1.386 . S
C1366 C1368 1.391 . S
C1367 C1366 1.386 . S
C1367 C1371 1.393 . S
C1368 H1360 0.950 . S
C1368 C1366 1.391 . S
C1368 C1369 1.400 . S
C1369 C1368 1.400 . S
C1369 C1370 1.398 . S
C1369 C1375 1.491 . S
C1370 H1361 0.950 . S
C1370 C1369 1.398 . S
C1370 C1371 1.391 . S
C1371 H1359 0.950 . S
C1371 C1367 1.393 . S
C1371 C1370 1.391 . S
C1372 H1362 0.950 . S
C1372 C1373 1.386 . S
C1372 C1374 1.391 . S
C1373 C1372 1.386 . S
C1373 C1377 1.393 . S
C1374 H1363 0.950 . S
C1374 C1372 1.391 . S
C1374 C1375 1.400 . S
C1375 C1369 1.491 . S
C1375 C1374 1.400 . S
C1375 C1376 1.398 . S
C1376 H1364 0.950 . S
C1376 C1375 1.398 . S
C1376 C1377 1.391 . S
C1377 H1365 0.950 . S
C1377 C1373 1.393 . S
C1377 C1376 1.391 . S
H1378 C1386 0.950 . S
H1379 C1391 0.950 . S
H1380 C1388 0.950 . S
H1381 C1390 0.950 . S
H1382 C1392 0.950 . S
H1383 C1394 0.950 . S
H1384 C1396 0.950 . S
H1385 C1397 0.950 . S
C1386 H1378 0.950 . S
C1386 C1387 1.386 . S
C1386 C1388 1.391 . S
C1387 C1386 1.386 . S
C1387 C1391 1.393 . S
C1388 H1380 0.950 . S
C1388 C1386 1.391 . S
C1388 C1389 1.400 . S
C1389 C1388 1.400 . S
C1389 C1390 1.398 . S
C1389 C1395 1.491 . S
C1390 H1381 0.950 . S
C1390 C1389 1.398 . S
C1390 C1391 1.391 . S
C1391 H1379 0.950 . S
C1391 C1387 1.393 . S
C1391 C1390 1.391 . S
C1392 H1382 0.950 . S
C1392 C1393 1.386 . S
C1392 C1394 1.391 . S
C1393 C1392 1.386 . S
C1393 C1397 1.393 . S
C1394 H1383 0.950 . S
C1394 C1392 1.391 . S
C1394 C1395 1.400 . S
C1395 C1389 1.491 . S
C1395 C1394 1.400 . S
C1395 C1396 1.398 . S
C1396 H1384 0.950 . S
C1396 C1395 1.398 . S
C1396 C1397 1.391 . S
C1397 H1385 0.950 . S
C1397 C1393 1.393 . S
C1397 C1396 1.391 . S
H1398 C1406 0.950 . S
H1399 C1411 0.950 . S
H1400 C1408 0.950 . S
H1401 C1410 0.950 . S
H1402 C1412 0.950 . S
H1403 C1414 0.950 . S
H1404 C1416 0.950 . S
H1405 C1417 0.950 . S
C1406 H1398 0.950 . S
C1406 C1407 1.386 . S
C1406 C1408 1.391 . S
C1407 C1406 1.386 . S
C1407 C1411 1.393 . S
C1408 H1400 0.950 . S
C1408 C1406 1.391 . S
C1408 C1409 1.400 . S
C1409 C1408 1.400 . S
C1409 C1410 1.398 . S
C1409 C1415 1.491 . S
C1410 H1401 0.950 . S
C1410 C1409 1.398 . S
C1410 C1411 1.391 . S
C1411 H1399 0.950 . S
C1411 C1407 1.393 . S
C1411 C1410 1.391 . S
C1412 H1402 0.950 . S
C1412 C1413 1.386 . S
C1412 C1414 1.391 . S
C1413 C1412 1.386 . S
C1413 C1417 1.393 . S
C1414 H1403 0.950 . S
C1414 C1412 1.391 . S
C1414 C1415 1.400 . S
C1415 C1409 1.491 . S
C1415 C1414 1.400 . S
C1415 C1416 1.398 . S
C1416 H1404 0.950 . S
C1416 C1415 1.398 . S
C1416 C1417 1.391 . S
C1417 H1405 0.950 . S
C1417 C1413 1.393 . S
C1417 C1416 1.391 . S
H1418 C1426 0.950 . S
H1419 C1431 0.950 . S
H1420 C1428 0.950 . S
H1421 C1430 0.950 . S
H1422 C1432 0.950 . S
H1423 C1434 0.950 . S
H1424 C1436 0.950 . S
H1425 C1437 0.950 . S
C1426 H1418 0.950 . S
C1426 C1427 1.386 . S
C1426 C1428 1.391 . S
C1427 C1426 1.386 . S
C1427 C1431 1.393 . S
C1428 H1420 0.950 . S
C1428 C1426 1.391 . S
C1428 C1429 1.400 . S
C1429 C1428 1.400 . S
C1429 C1430 1.398 . S
C1429 C1435 1.491 . S
C1430 H1421 0.950 . S
C1430 C1429 1.398 . S
C1430 C1431 1.391 . S
C1431 H1419 0.950 . S
C1431 C1427 1.393 . S
C1431 C1430 1.391 . S
C1432 H1422 0.950 . S
C1432 C1433 1.386 . S
C1432 C1434 1.391 . S
C1433 C1432 1.386 . S
C1433 C1437 1.393 . S
C1434 H1423 0.950 . S
C1434 C1432 1.391 . S
C1434 C1435 1.400 . S
C1435 C1429 1.491 . S
C1435 C1434 1.400 . S
C1435 C1436 1.398 . S
C1436 H1424 0.950 . S
C1436 C1435 1.398 . S
C1436 C1437 1.391 . S
C1437 H1425 0.950 . S
C1437 C1433 1.393 . S
C1437 C1436 1.391 . S
H1438 C1446 0.950 . S
H1439 C1451 0.950 . S
H1440 C1448 0.950 . S
H1441 C1450 0.950 . S
H1442 C1452 0.950 . S
H1443 C1454 0.950 . S
H1444 C1456 0.950 . S
H1445 C1457 0.950 . S
C1446 H1438 0.950 . S
C1446 C1447 1.386 . S
C1446 C1448 1.391 . S
C1447 C1446 1.386 . S
C1447 C1451 1.393 . S
C1448 H1440 0.950 . S
C1448 C1446 1.391 . S
C1448 C1449 1.400 . S
C1449 C1448 1.400 . S
C1449 C1450 1.398 . S
C1449 C1455 1.491 . S
C1450 H1441 0.950 . S
C1450 C1449 1.398 . S
C1450 C1451 1.391 . S
C1451 H1439 0.950 . S
C1451 C1447 1.393 . S
C1451 C1450 1.391 . S
C1452 H1442 0.950 . S
C1452 C1453 1.386 . S
C1452 C1454 1.391 . S
C1453 C1452 1.386 . S
C1453 C1457 1.393 . S
C1454 H1443 0.950 . S
C1454 C1452 1.391 . S
C1454 C1455 1.400 . S
C1455 C1449 1.491 . S
C1455 C1454 1.400 . S
C1455 C1456 1.398 . S
C1456 H1444 0.950 . S
C1456 C1455 1.398 . S
C1456 C1457 1.391 . S
C1457 H1445 0.950 . S
C1457 C1453 1.393 . S
C1457 C1456 1.391 . S
H1458 C1466 0.950 . S
H1459 C1471 0.950 . S
H1460 C1468 0.950 . S
H1461 C1470 0.950 . S
H1462 C1472 0.950 . S
H1463 C1474 0.950 . S
H1464 C1476 0.950 . S
H1465 C1477 0.950 . S
C1466 H1458 0.950 . S
C1466 C1467 1.386 . S
C1466 C1468 1.391 . S
C1467 C1466 1.386 . S
C1467 C1471 1.393 . S
C1468 H1460 0.950 . S
C1468 C1466 1.391 . S
C1468 C1469 1.400 . S
C1469 C1468 1.400 . S
C1469 C1470 1.398 . S
C1469 C1475 1.491 . S
C1470 H1461 0.950 . S
C1470 C1469 1.398 . S
C1470 C1471 1.391 . S
C1471 H1459 0.950 . S
C1471 C1467 1.393 . S
C1471 C1470 1.391 . S
C1472 H1462 0.950 . S
C1472 C1473 1.386 . S
C1472 C1474 1.391 . S
C1473 C1472 1.386 . S
C1473 C1477 1.393 . S
C1474 H1463 0.950 . S
C1474 C1472 1.391 . S
C1474 C1475 1.400 . S
C1475 C1469 1.491 . S
C1475 C1474 1.400 . S
C1475 C1476 1.398 . S
C1476 H1464 0.950 . S
C1476 C1475 1.398 . S
C1476 C1477 1.391 . S
C1477 H1465 0.950 . S
C1477 C1473 1.393 . S
C1477 C1476 1.391 . S
H1478 C1486 0.950 . S
H1479 C1491 0.950 . S
H1480 C1488 0.950 . S
H1481 C1490 0.950 . S
H1482 C1492 0.950 . S
H1483 C1494 0.950 . S
H1484 C1496 0.950 . S
H1485 C1497 0.950 . S
C1486 H1478 0.950 . S
C1486 C1487 1.386 . S
C1486 C1488 1.391 . S
C1487 C1486 1.386 . S
C1487 C1491 1.393 . S
C1488 H1480 0.950 . S
C1488 C1486 1.391 . S
C1488 C1489 1.400 . S
C1489 C1488 1.400 . S
C1489 C1490 1.398 . S
C1489 C1495 1.491 . S
C1490 H1481 0.950 . S
C1490 C1489 1.398 . S
C1490 C1491 1.391 . S
C1491 H1479 0.950 . S
C1491 C1487 1.393 . S
C1491 C1490 1.391 . S
C1492 H1482 0.950 . S
C1492 C1493 1.386 . S
C1492 C1494 1.391 . S
C1493 C1492 1.386 . S
C1493 C1497 1.393 . S
C1494 H1483 0.950 . S
C1494 C1492 1.391 . S
C1494 C1495 1.400 . S
C1495 C1489 1.491 . S
C1495 C1494 1.400 . S
C1495 C1496 1.398 . S
C1496 H1484 0.950 . S
C1496 C1495 1.398 . S
C1496 C1497 1.391 . S
C1497 H1485 0.950 . S
C1497 C1493 1.393 . S
C1497 C1496 1.391 . S
H1498 C1506 0.950 . S
H1499 C1511 0.950 . S
H1500 C1508 0.950 . S
H1501 C1510 0.950 . S
H1502 C1512 0.950 . S
H1503 C1514 0.950 . S
H1504 C1516 0.950 . S
H1505 C1517 0.950 . S
C1506 H1498 0.950 . S
C1506 C1507 1.386 . S
C1506 C1508 1.391 . S
C1507 C1506 1.386 . S
C1507 C1511 1.393 . S
C1508 H1500 0.950 . S
C1508 C1506 1.391 . S
C1508 C1509 1.400 . S
C1509 C1508 1.400 . S
C1509 C1510 1.398 . S
C1509 C1515 1.491 . S
C1510 H1501 0.950 . S
C1510 C1509 1.398 . S
C1510 C1511 1.391 . S
C1511 H1499 0.950 . S
C1511 C1507 1.393 . S
C1511 C1510 1.391 . S
C1512 H1502 0.950 . S
C1512 C1513 1.386 . S
C1512 C1514 1.391 . S
C1513 C1512 1.386 . S
C1513 C1517 1.393 . S
C1514 H1503 0.950 . S
C1514 C1512 1.391 . S
C1514 C1515 1.400 . S
C1515 C1509 1.491 . S
C1515 C1514 1.400 . S
C1515 C1516 1.398 . S
C1516 H1504 0.950 . S
C1516 C1515 1.398 . S
C1516 C1517 1.391 . S
C1517 H1505 0.950 . S
C1517 C1513 1.393 . S
C1517 C1516 1.391 . S
H1518 C1526 0.950 . S
H1519 C1531 0.950 . S
H1520 C1528 0.950 . S
H1521 C1530 0.950 . S
H1522 C1532 0.950 . S
H1523 C1534 0.950 . S
H1524 C1536 0.950 . S
H1525 C1537 0.950 . S
C1526 H1518 0.950 . S
C1526 C1527 1.386 . S
C1526 C1528 1.391 . S
C1527 C1526 1.386 . S
C1527 C1531 1.393 . S
C1528 H1520 0.950 . S
C1528 C1526 1.391 . S
C1528 C1529 1.400 . S
C1529 C1528 1.400 . S
C1529 C1530 1.398 . S
C1529 C1535 1.491 . S
C1530 H1521 0.950 . S
C1530 C1529 1.398 . S
C1530 C1531 1.391 . S
C1531 H1519 0.950 . S
C1531 C1527 1.393 . S
C1531 C1530 1.391 . S
C1532 H1522 0.950 . S
C1532 C1533 1.386 . S
C1532 C1534 1.391 . S
C1533 C1532 1.386 . S
C1533 C1537 1.393 . S
C1534 H1523 0.950 . S
C1534 C1532 1.391 . S
C1534 C1535 1.400 . S
C1535 C1529 1.491 . S
C1535 C1534 1.400 . S
C1535 C1536 1.398 . S
C1536 H1524 0.950 . S
C1536 C1535 1.398 . S
C1536 C1537 1.391 . S
C1537 H1525 0.950 . S
C1537 C1533 1.393 . S
C1537 C1536 1.391 . S
H1538 C1546 0.950 . S
H1539 C1551 0.950 . S
H1540 C1548 0.950 . S
H1541 C1550 0.950 . S
H1542 C1552 0.950 . S
H1543 C1554 0.950 . S
H1544 C1556 0.950 . S
H1545 C1557 0.950 . S
C1546 H1538 0.950 . S
C1546 C1547 1.386 . S
C1546 C1548 1.391 . S
C1547 C1546 1.386 . S
C1547 C1551 1.393 . S
C1548 H1540 0.950 . S
C1548 C1546 1.391 . S
C1548 C1549 1.400 . S
C1549 C1548 1.400 . S
C1549 C1550 1.398 . S
C1549 C1555 1.491 . S
C1550 H1541 0.950 . S
C1550 C1549 1.398 . S
C1550 C1551 1.391 . S
C1551 H1539 0.950 . S
C1551 C1547 1.393 . S
C1551 C1550 1.391 . S
C1552 H1542 0.950 . S
C1552 C1553 1.386 . S
C1552 C1554 1.391 . S
C1553 C1552 1.386 . S
C1553 C1557 1.393 . S
C1554 H1543 0.950 . S
C1554 C1552 1.391 . S
C1554 C1555 1.400 . S
C1555 C1549 1.491 . S
C1555 C1554 1.400 . S
C1555 C1556 1.398 . S
C1556 H1544 0.950 . S
C1556 C1555 1.398 . S
C1556 C1557 1.391 . S
C1557 H1545 0.950 . S
C1557 C1553 1.393 . S
C1557 C1556 1.391 . S
H1558 C1566 0.950 . S
H1559 C1571 0.950 . S
H1560 C1568 0.950 . S
H1561 C1570 0.950 . S
H1562 C1572 0.950 . S
H1563 C1574 0.950 . S
H1564 C1576 0.950 . S
H1565 C1577 0.950 . S
C1566 H1558 0.950 . S
C1566 C1567 1.386 . S
C1566 C1568 1.391 . S
C1567 C1566 1.386 . S
C1567 C1571 1.393 . S
C1568 H1560 0.950 . S
C1568 C1566 1.391 . S
C1568 C1569 1.400 . S
C1569 C1568 1.400 . S
C1569 C1570 1.398 . S
C1569 C1575 1.491 . S
C1570 H1561 0.950 . S
C1570 C1569 1.398 . S
C1570 C1571 1.391 . S
C1571 H1559 0.950 . S
C1571 C1567 1.393 . S
C1571 C1570 1.391 . S
C1572 H1562 0.950 . S
C1572 C1573 1.386 . S
C1572 C1574 1.391 . S
C1573 C1572 1.386 . S
C1573 C1577 1.393 . S
C1574 H1563 0.950 . S
C1574 C1572 1.391 . S
C1574 C1575 1.400 . S
C1575 C1569 1.491 . S
C1575 C1574 1.400 . S
C1575 C1576 1.398 . S
C1576 H1564 0.950 . S
C1576 C1575 1.398 . S
C1576 C1577 1.391 . S
C1577 H1565 0.950 . S
C1577 C1573 1.393 . S
C1577 C1576 1.391 . S
H1578 C1586 0.950 . S
H1579 C1591 0.950 . S
H1580 C1588 0.950 . S
H1581 C1590 0.950 . S
H1582 C1592 0.950 . S
H1583 C1594 0.950 . S
H1584 C1596 0.950 . S
H1585 C1597 0.950 . S
C1586 H1578 0.950 . S
C1586 C1587 1.386 . S
C1586 C1588 1.391 . S
C1587 C1586 1.386 . S
C1587 C1591 1.393 . S
C1588 H1580 0.950 . S
C1588 C1586 1.391 . S
C1588 C1589 1.400 . S
C1589 C1588 1.400 . S
C1589 C1590 1.398 . S
C1589 C1595 1.491 . S
C1590 H1581 0.950 . S
C1590 C1589 1.398 . S
C1590 C1591 1.391 . S
C1591 H1579 0.950 . S
C1591 C1587 1.393 . S
C1591 C1590 1.391 . S
C1592 H1582 0.950 . S
C1592 C1593 1.386 . S
C1592 C1594 1.391 . S
C1593 C1592 1.386 . S
C1593 C1597 1.393 . S
C1594 H1583 0.950 . S
C1594 C1592 1.391 . S
C1594 C1595 1.400 . S
C1595 C1589 1.491 . S
C1595 C1594 1.400 . S
C1595 C1596 1.398 . S
C1596 H1584 0.950 . S
C1596 C1595 1.398 . S
C1596 C1597 1.391 . S
C1597 H1585 0.950 . S
C1597 C1593 1.393 . S
C1597 C1596 1.391 . S
H1598 C1606 0.950 . S
H1599 C1611 0.950 . S
H1600 C1608 0.950 . S
H1601 C1610 0.950 . S
H1602 C1612 0.950 . S
H1603 C1614 0.950 . S
H1604 C1616 0.950 . S
H1605 C1617 0.950 . S
C1606 H1598 0.950 . S
C1606 C1607 1.386 . S
C1606 C1608 1.391 . S
C1607 C1606 1.386 . S
C1607 C1611 1.393 . S
C1608 H1600 0.950 . S
C1608 C1606 1.391 . S
C1608 C1609 1.400 . S
C1609 C1608 1.400 . S
C1609 C1610 1.398 . S
C1609 C1615 1.491 . S
C1610 H1601 0.950 . S
C1610 C1609 1.398 . S
C1610 C1611 1.391 . S
C1611 H1599 0.950 . S
C1611 C1607 1.393 . S
C1611 C1610 1.391 . S
C1612 H1602 0.950 . S
C1612 C1613 1.386 . S
C1612 C1614 1.391 . S
C1613 C1612 1.386 . S
C1613 C1617 1.393 . S
C1614 H1603 0.950 . S
C1614 C1612 1.391 . S
C1614 C1615 1.400 . S
C1615 C1609 1.491 . S
C1615 C1614 1.400 . S
C1615 C1616 1.398 . S
C1616 H1604 0.950 . S
C1616 C1615 1.398 . S
C1616 C1617 1.391 . S
C1617 H1605 0.950 . S
C1617 C1613 1.393 . S
C1617 C1616 1.391 . S
H1618 C1626 0.950 . S
H1619 C1631 0.950 . S
H1620 C1628 0.950 . S
H1621 C1630 0.950 . S
H1622 C1632 0.950 . S
H1623 C1634 0.950 . S
H1624 C1636 0.950 . S
H1625 C1637 0.950 . S
C1626 H1618 0.950 . S
C1626 C1627 1.386 . S
C1626 C1628 1.391 . S
C1627 C1626 1.386 . S
C1627 C1631 1.393 . S
C1628 H1620 0.950 . S
C1628 C1626 1.391 . S
C1628 C1629 1.400 . S
C1629 C1628 1.400 . S
C1629 C1630 1.398 . S
C1629 C1635 1.491 . S
C1630 H1621 0.950 . S
C1630 C1629 1.398 . S
C1630 C1631 1.391 . S
C1631 H1619 0.950 . S
C1631 C1627 1.393 . S
C1631 C1630 1.391 . S
C1632 H1622 0.950 . S
C1632 C1633 1.386 . S
C1632 C1634 1.391 . S
C1633 C1632 1.386 . S
C1633 C1637 1.393 . S
C1634 H1623 0.950 . S
C1634 C1632 1.391 . S
C1634 C1635 1.400 . S
C1635 C1629 1.491 . S
C1635 C1634 1.400 . S
C1635 C1636 1.398 . S
C1636 H1624 0.950 . S
C1636 C1635 1.398 . S
C1636 C1637 1.391 . S
C1637 H1625 0.950 . S
C1637 C1633 1.393 . S
C1637 C1636 1.391 . S
H1638 C1646 0.950 . S
H1639 C1651 0.950 . S
H1640 C1648 0.950 . S
H1641 C1650 0.950 . S
H1642 C1652 0.950 . S
H1643 C1654 0.950 . S
H1644 C1656 0.950 . S
H1645 C1657 0.950 . S
C1646 H1638 0.950 . S
C1646 C1647 1.386 . S
C1646 C1648 1.391 . S
C1647 C1646 1.386 . S
C1647 C1651 1.393 . S
C1648 H1640 0.950 . S
C1648 C1646 1.391 . S
C1648 C1649 1.400 . S
C1649 C1648 1.400 . S
C1649 C1650 1.398 . S
C1649 C1655 1.491 . S
C1650 H1641 0.950 . S
C1650 C1649 1.398 . S
C1650 C1651 1.391 . S
C1651 H1639 0.950 . S
C1651 C1647 1.393 . S
C1651 C1650 1.391 . S
C1652 H1642 0.950 . S
C1652 C1653 1.386 . S
C1652 C1654 1.391 . S
C1653 C1652 1.386 . S
C1653 C1657 1.393 . S
C1654 H1643 0.950 . S
C1654 C1652 1.391 . S
C1654 C1655 1.400 . S
C1655 C1649 1.491 . S
C1655 C1654 1.400 . S
C1655 C1656 1.398 . S
C1656 H1644 0.950 . S
C1656 C1655 1.398 . S
C1656 C1657 1.391 . S
C1657 H1645 0.950 . S
C1657 C1653 1.393 . S
C1657 C1656 1.391 . S
H1658 C1666 0.950 . S
H1659 C1671 0.950 . S
H1660 C1668 0.950 . S
H1661 C1670 0.950 . S
H1662 C1672 0.950 . S
H1663 C1674 0.950 . S
H1664 C1676 0.950 . S
H1665 C1677 0.950 . S
C1666 H1658 0.950 . S
C1666 C1667 1.386 . S
C1666 C1668 1.391 . S
C1667 C1666 1.386 . S
C1667 C1671 1.393 . S
C1668 H1660 0.950 . S
C1668 C1666 1.391 . S
C1668 C1669 1.400 . S
C1669 C1668 1.400 . S
C1669 C1670 1.398 . S
C1669 C1675 1.491 . S
C1670 H1661 0.950 . S
C1670 C1669 1.398 . S
C1670 C1671 1.391 . S
C1671 H1659 0.950 . S
C1671 C1667 1.393 . S
C1671 C1670 1.391 . S
C1672 H1662 0.950 . S
C1672 C1673 1.386 . S
C1672 C1674 1.391 . S
C1673 C1672 1.386 . S
C1673 C1677 1.393 . S
C1674 H1663 0.950 . S
C1674 C1672 1.391 . S
C1674 C1675 1.400 . S
C1675 C1669 1.491 . S
C1675 C1674 1.400 . S
C1675 C1676 1.398 . S
C1676 H1664 0.950 . S
C1676 C1675 1.398 . S
C1676 C1677 1.391 . S
C1677 H1665 0.950 . S
C1677 C1673 1.393 . S
C1677 C1676 1.391 . S
H1678 C1686 0.950 . S
H1679 C1691 0.950 . S
H1680 C1688 0.950 . S
H1681 C1690 0.950 . S
H1682 C1692 0.950 . S
H1683 C1694 0.950 . S
H1684 C1696 0.950 . S
H1685 C1697 0.950 . S
C1686 H1678 0.950 . S
C1686 C1687 1.386 . S
C1686 C1688 1.391 . S
C1687 C1686 1.386 . S
C1687 C1691 1.393 . S
C1688 H1680 0.950 . S
C1688 C1686 1.391 . S
C1688 C1689 1.400 . S
C1689 C1688 1.400 . S
C1689 C1690 1.398 . S
C1689 C1695 1.491 . S
C1690 H1681 0.950 . S
C1690 C1689 1.398 . S
C1690 C1691 1.391 . S
C1691 H1679 0.950 . S
C1691 C1687 1.393 . S
C1691 C1690 1.391 . S
C1692 H1682 0.950 . S
C1692 C1693 1.386 . S
C1692 C1694 1.391 . S
C1693 C1692 1.386 . S
C1693 C1697 1.393 . S
C1694 H1683 0.950 . S
C1694 C1692 1.391 . S
C1694 C1695 1.400 . S
C1695 C1689 1.491 . S
C1695 C1694 1.400 . S
C1695 C1696 1.398 . S
C1696 H1684 0.950 . S
C1696 C1695 1.398 . S
C1696 C1697 1.391 . S
C1697 H1685 0.950 . S
C1697 C1693 1.393 . S
C1697 C1696 1.391 . S
H1698 C1706 0.950 . S
H1699 C1711 0.950 . S
H1700 C1708 0.950 . S
H1701 C1710 0.950 . S
H1702 C1712 0.950 . S
H1703 C1714 0.950 . S
H1704 C1716 0.950 . S
H1705 C1717 0.950 . S
C1706 H1698 0.950 . S
C1706 C1707 1.386 . S
C1706 C1708 1.391 . S
C1707 C1706 1.386 . S
C1707 C1711 1.393 . S
C1708 H1700 0.950 . S
C1708 C1706 1.391 . S
C1708 C1709 1.400 . S
C1709 C1708 1.400 . S
C1709 C1710 1.398 . S
C1709 C1715 1.491 . S
C1710 H1701 0.950 . S
C1710 C1709 1.398 . S
C1710 C1711 1.391 . S
C1711 H1699 0.950 . S
C1711 C1707 1.393 . S
C1711 C1710 1.391 . S
C1712 H1702 0.950 . S
C1712 C1713 1.386 . S
C1712 C1714 1.391 . S
C1713 C1712 1.386 . S
C1713 C1717 1.393 . S
C1714 H1703 0.950 . S
C1714 C1712 1.391 . S
C1714 C1715 1.400 . S
C1715 C1709 1.491 . S
C1715 C1714 1.400 . S
C1715 C1716 1.398 . S
C1716 H1704 0.950 . S
C1716 C1715 1.398 . S
C1716 C1717 1.391 . S
C1717 H1705 0.950 . S
C1717 C1713 1.393 . S
C1717 C1716 1.391 . S
H1718 C1726 0.950 . S
H1719 C1731 0.950 . S
H1720 C1728 0.950 . S
H1721 C1730 0.950 . S
H1722 C1732 0.950 . S
H1723 C1734 0.950 . S
H1724 C1736 0.950 . S
H1725 C1737 0.950 . S
C1726 H1718 0.950 . S
C1726 C1727 1.386 . S
C1726 C1728 1.391 . S
C1727 C1726 1.386 . S
C1727 C1731 1.393 . S
C1728 H1720 0.950 . S
C1728 C1726 1.391 . S
C1728 C1729 1.400 . S
C1729 C1728 1.400 . S
C1729 C1730 1.398 . S
C1729 C1735 1.491 . S
C1730 H1721 0.950 . S
C1730 C1729 1.398 . S
C1730 C1731 1.391 . S
C1731 H1719 0.950 . S
C1731 C1727 1.393 . S
C1731 C1730 1.391 . S
C1732 H1722 0.950 . S
C1732 C1733 1.386 . S
C1732 C1734 1.391 . S
C1733 C1732 1.386 . S
C1733 C1737 1.393 . S
C1734 H1723 0.950 . S
C1734 C1732 1.391 . S
C1734 C1735 1.400 . S
C1735 C1729 1.491 . S
C1735 C1734 1.400 . S
C1735 C1736 1.398 . S
C1736 H1724 0.950 . S
C1736 C1735 1.398 . S
C1736 C1737 1.391 . S
C1737 H1725 0.950 . S
C1737 C1733 1.393 . S
C1737 C1736 1.391 . S
H1738 C1746 0.950 . S
H1739 C1751 0.950 . S
H1740 C1748 0.950 . S
H1741 C1750 0.950 . S
H1742 C1752 0.950 . S
H1743 C1754 0.950 . S
H1744 C1756 0.950 . S
H1745 C1757 0.950 . S
C1746 H1738 0.950 . S
C1746 C1747 1.386 . S
C1746 C1748 1.391 . S
C1747 C1746 1.386 . S
C1747 C1751 1.393 . S
C1748 H1740 0.950 . S
C1748 C1746 1.391 . S
C1748 C1749 1.400 . S
C1749 C1748 1.400 . S
C1749 C1750 1.398 . S
C1749 C1755 1.491 . S
C1750 H1741 0.950 . S
C1750 C1749 1.398 . S
C1750 C1751 1.391 . S
C1751 H1739 0.950 . S
C1751 C1747 1.393 . S
C1751 C1750 1.391 . S
C1752 H1742 0.950 . S
C1752 C1753 1.386 . S
C1752 C1754 1.391 . S
C1753 C1752 1.386 . S
C1753 C1757 1.393 . S
C1754 H1743 0.950 . S
C1754 C1752 1.391 . S
C1754 C1755 1.400 . S
C1755 C1749 1.491 . S
C1755 C1754 1.400 . S
C1755 C1756 1.398 . S
C1756 H1744 0.950 . S
C1756 C1755 1.398 . S
C1756 C1757 1.391 . S
C1757 H1745 0.950 . S
C1757 C1753 1.393 . S
C1757 C1756 1.391 . S
H1758 C1766 0.950 . S
H1759 C1771 0.950 . S
H1760 C1768 0.950 . S
H1761 C1770 0.950 . S
H1762 C1772 0.950 . S
H1763 C1774 0.950 . S
H1764 C1776 0.950 . S
H1765 C1777 0.950 . S
C1766 H1758 0.950 . S
C1766 C1767 1.386 . S
C1766 C1768 1.391 . S
C1767 C1766 1.386 . S
C1767 C1771 1.393 . S
C1768 H1760 0.950 . S
C1768 C1766 1.391 . S
C1768 C1769 1.400 . S
C1769 C1768 1.400 . S
C1769 C1770 1.398 . S
C1769 C1775 1.491 . S
C1770 H1761 0.950 . S
C1770 C1769 1.398 . S
C1770 C1771 1.391 . S
C1771 H1759 0.950 . S
C1771 C1767 1.393 . S
C1771 C1770 1.391 . S
C1772 H1762 0.950 . S
C1772 C1773 1.386 . S
C1772 C1774 1.391 . S
C1773 C1772 1.386 . S
C1773 C1777 1.393 . S
C1774 H1763 0.950 . S
C1774 C1772 1.391 . S
C1774 C1775 1.400 . S
C1775 C1769 1.491 . S
C1775 C1774 1.400 . S
C1775 C1776 1.398 . S
C1776 H1764 0.950 . S
C1776 C1775 1.398 . S
C1776 C1777 1.391 . S
C1777 H1765 0.950 . S
C1777 C1773 1.393 . S
C1777 C1776 1.391 . S
H1778 C1786 0.950 . S
H1779 C1791 0.950 . S
H1780 C1788 0.950 . S
H1781 C1790 0.950 . S
H1782 C1792 0.950 . S
H1783 C1794 0.950 . S
H1784 C1796 0.950 . S
H1785 C1797 0.950 . S
C1786 H1778 0.950 . S
C1786 C1787 1.386 . S
C1786 C1788 1.391 . S
C1787 C1786 1.386 . S
C1787 C1791 1.393 . S
C1788 H1780 0.950 . S
C1788 C1786 1.391 . S
C1788 C1789 1.400 . S
C1789 C1788 1.400 . S
C1789 C1790 1.398 . S
C1789 C1795 1.491 . S
C1790 H1781 0.950 . S
C1790 C1789 1.398 . S
C1790 C1791 1.391 . S
C1791 H1779 0.950 . S
C1791 C1787 1.393 . S
C1791 C1790 1.391 . S
C1792 H1782 0.950 . S
C1792 C1793 1.386 . S
C1792 C1794 1.391 . S
C1793 C1792 1.386 . S
C1793 C1797 1.393 . S
C1794 H1783 0.950 . S
C1794 C1792 1.391 . S
C1794 C1795 1.400 . S
C1795 C1789 1.491 . S
C1795 C1794 1.400 . S
C1795 C1796 1.398 . S
C1796 H1784 0.950 . S
C1796 C1795 1.398 . S
C1796 C1797 1.391 . S
C1797 H1785 0.950 . S
C1797 C1793 1.393 . S
C1797 C1796 1.391 . S
H1798 C1806 0.950 . S
H1799 C1811 0.950 . S
H1800 C1808 0.950 . S
H1801 C1810 0.950 . S
H1802 C1812 0.950 . S
H1803 C1814 0.950 . S
H1804 C1816 0.950 . S
H1805 C1817 0.950 . S
C1806 H1798 0.950 . S
C1806 C1807 1.386 . S
C1806 C1808 1.391 . S
C1807 C1806 1.386 . S
C1807 C1811 1.393 . S
C1808 H1800 0.950 . S
C1808 C1806 1.391 . S
C1808 C1809 1.400 . S
C1809 C1808 1.400 . S
C1809 C1810 1.398 . S
C1809 C1815 1.491 . S
C1810 H1801 0.950 . S
C1810 C1809 1.398 . S
C1810 C1811 1.391 . S
C1811 H1799 0.950 . S
C1811 C1807 1.393 . S
C1811 C1810 1.391 . S
C1812 H1802 0.950 . S
C1812 C1813 1.386 . S
C1812 C1814 1.391 . S
C1813 C1812 1.386 . S
C1813 C1817 1.393 . S
C1814 H1803 0.950 . S
C1814 C1812 1.391 . S
C1814 C1815 1.400 . S
C1815 C1809 1.491 . S
C1815 C1814 1.400 . S
C1815 C1816 1.398 . S
C1816 H1804 0.950 . S
C1816 C1815 1.398 . S
C1816 C1817 1.391 . S
C1817 H1805 0.950 . S
C1817 C1813 1.393 . S
C1817 C1816 1.391 . S
H1818 C1826 0.950 . S
H1819 C1831 0.950 . S
H1820 C1828 0.950 . S
H1821 C1830 0.950 . S
H1822 C1832 0.950 . S
H1823 C1834 0.950 . S
H1824 C1836 0.950 . S
H1825 C1837 0.950 . S
C1826 H1818 0.950 . S
C1826 C1827 1.386 . S
C1826 C1828 1.391 . S
C1827 C1826 1.386 . S
C1827 C1831 1.393 . S
C1828 H1820 0.950 . S
C1828 C1826 1.391 . S
C1828 C1829 1.400 . S
C1829 C1828 1.400 . S
C1829 C1830 1.398 . S
C1829 C1835 1.491 . S
C1830 H1821 0.950 . S
C1830 C1829 1.398 . S
C1830 C1831 1.391 . S
C1831 H1819 0.950 . S
C1831 C1827 1.393 . S
C1831 C1830 1.391 . S
C1832 H1822 0.950 . S
C1832 C1833 1.386 . S
C1832 C1834 1.391 . S
C1833 C1832 1.386 . S
C1833 C1837 1.393 . S
C1834 H1823 0.950 . S
C1834 C1832 1.391 . S
C1834 C1835 1.400 . S
C1835 C1829 1.491 . S
C1835 C1834 1.400 . S
C1835 C1836 1.398 . S
C1836 H1824 0.950 . S
C1836 C1835 1.398 . S
C1836 C1837 1.391 . S
C1837 H1825 0.950 . S
C1837 C1833 1.393 . S
C1837 C1836 1.391 . S
H1838 C1846 0.950 . S
H1839 C1851 0.950 . S
H1840 C1848 0.950 . S
H1841 C1850 0.950 . S
H1842 C1852 0.950 . S
H1843 C1854 0.950 . S
H1844 C1856 0.950 . S
H1845 C1857 0.950 . S
C1846 H1838 0.950 . S
C1846 C1847 1.386 . S
C1846 C1848 1.391 . S
C1847 C1846 1.386 . S
C1847 C1851 1.393 . S
C1848 H1840 0.950 . S
C1848 C1846 1.391 . S
C1848 C1849 1.400 . S
C1849 C1848 1.400 . S
C1849 C1850 1.398 . S
C1849 C1855 1.491 . S
C1850 H1841 0.950 . S
C1850 C1849 1.398 . S
C1850 C1851 1.391 . S
C1851 H1839 0.950 . S
C1851 C1847 1.393 . S
C1851 C1850 1.391 . S
C1852 H1842 0.950 . S
C1852 C1853 1.386 . S
C1852 C1854 1.391 . S
C1853 C1852 1.386 . S
C1853 C1857 1.393 . S
C1854 H1843 0.950 . S
C1854 C1852 1.391 . S
C1854 C1855 1.400 . S
C1855 C1849 1.491 . S
C1855 C1854 1.400 . S
C1855 C1856 1.398 . S
C1856 H1844 0.950 . S
C1856 C1855 1.398 . S
C1856 C1857 1.391 . S
C1857 H1845 0.950 . S
C1857 C1853 1.393 . S
C1857 C1856 1.391 . S
H1858 C1866 0.950 . S
H1859 C1871 0.950 . S
H1860 C1868 0.950 . S
H1861 C1870 0.950 . S
H1862 C1872 0.950 . S
H1863 C1874 0.950 . S
H1864 C1876 0.950 . S
H1865 C1877 0.950 . S
C1866 H1858 0.950 . S
C1866 C1867 1.386 . S
C1866 C1868 1.391 . S
C1867 C1866 1.386 . S
C1867 C1871 1.393 . S
C1868 H1860 0.950 . S
C1868 C1866 1.391 . S
C1868 C1869 1.400 . S
C1869 C1868 1.400 . S
C1869 C1870 1.398 . S
C1869 C1875 1.491 . S
C1870 H1861 0.950 . S
C1870 C1869 1.398 . S
C1870 C1871 1.391 . S
C1871 H1859 0.950 . S
C1871 C1867 1.393 . S
C1871 C1870 1.391 . S
C1872 H1862 0.950 . S
C1872 C1873 1.386 . S
C1872 C1874 1.391 . S
C1873 C1872 1.386 . S
C1873 C1877 1.393 . S
C1874 H1863 0.950 . S
C1874 C1872 1.391 . S
C1874 C1875 1.400 . S
C1875 C1869 1.491 . S
C1875 C1874 1.400 . S
C1875 C1876 1.398 . S
C1876 H1864 0.950 . S
C1876 C1875 1.398 . S
C1876 C1877 1.391 . S
C1877 H1865 0.950 . S
C1877 C1873 1.393 . S
C1877 C1876 1.391 . S
H1878 C1886 0.950 . S
H1879 C1891 0.950 1_554 S
H1880 C1888 0.950 . S
H1881 C1890 0.950 . S
H1882 C1892 0.950 . S
H1883 C1894 0.950 . S
H1884 C1896 0.950 . S
H1885 C1897 0.950 . S
C1886 H1878 0.950 . S
C1886 C1887 1.386 . S
C1886 C1888 1.391 . S
C1887 C1886 1.386 . S
C1887 C1891 1.393 . S
C1888 H1880 0.950 . S
C1888 C1886 1.391 . S
C1888 C1889 1.400 . S
C1889 C1888 1.400 . S
C1889 C1890 1.398 . S
C1889 C1895 1.491 . S
C1890 H1881 0.950 . S
C1890 C1889 1.398 . S
C1890 C1891 1.391 . S
C1891 H1879 0.950 1_556 S
C1891 C1887 1.393 . S
C1891 C1890 1.391 . S
C1892 H1882 0.950 . S
C1892 C1893 1.386 . S
C1892 C1894 1.391 . S
C1893 C1892 1.386 . S
C1893 C1897 1.393 . S
C1894 H1883 0.950 . S
C1894 C1892 1.391 . S
C1894 C1895 1.400 . S
C1895 C1889 1.491 . S
C1895 C1894 1.400 . S
C1895 C1896 1.398 . S
C1896 H1884 0.950 . S
C1896 C1895 1.398 . S
C1896 C1897 1.391 . S
C1897 H1885 0.950 . S
C1897 C1893 1.393 . S
C1897 C1896 1.391 . S
H1898 C1906 0.950 1_554 S
H1899 C1911 0.950 . S
H1900 C1908 0.950 . S
H1901 C1910 0.950 . S
H1902 C1912 0.950 . S
H1903 C1914 0.950 . S
H1904 C1916 0.950 . S
H1905 C1917 0.950 . S
C1906 H1898 0.950 1_556 S
C1906 C1907 1.386 . S
C1906 C1908 1.391 . S
C1907 C1906 1.386 . S
C1907 C1911 1.393 . S
C1908 H1900 0.950 . S
C1908 C1906 1.391 . S
C1908 C1909 1.400 . S
C1909 C1908 1.400 . S
C1909 C1910 1.398 . S
C1909 C1915 1.491 . S
C1910 H1901 0.950 . S
C1910 C1909 1.398 . S
C1910 C1911 1.391 . S
C1911 H1899 0.950 . S
C1911 C1907 1.393 . S
C1911 C1910 1.391 . S
C1912 H1902 0.950 . S
C1912 C1913 1.386 . S
C1912 C1914 1.391 . S
C1913 C1912 1.386 . S
C1913 C1917 1.393 . S
C1914 H1903 0.950 . S
C1914 C1912 1.391 . S
C1914 C1915 1.400 . S
C1915 C1909 1.491 . S
C1915 C1914 1.400 . S
C1915 C1916 1.398 . S
C1916 H1904 0.950 . S
C1916 C1915 1.398 . S
C1916 C1917 1.391 . S
C1917 H1905 0.950 . S
C1917 C1913 1.393 . S
C1917 C1916 1.391 . S
H1918 C1926 0.950 . S
H1919 C1931 0.950 . S
H1920 C1928 0.950 . S
H1921 C1930 0.950 . S
H1922 C1932 0.950 . S
H1923 C1934 0.950 . S
H1924 C1936 0.950 . S
H1925 C1937 0.950 . S
C1926 H1918 0.950 . S
C1926 C1927 1.386 . S
C1926 C1928 1.391 . S
C1927 C1926 1.386 . S
C1927 C1931 1.393 . S
C1928 H1920 0.950 . S
C1928 C1926 1.391 . S
C1928 C1929 1.400 . S
C1929 C1928 1.400 . S
C1929 C1930 1.398 . S
C1929 C1935 1.491 . S
C1930 H1921 0.950 . S
C1930 C1929 1.398 . S
C1930 C1931 1.391 . S
C1931 H1919 0.950 . S
C1931 C1927 1.393 . S
C1931 C1930 1.391 . S
C1932 H1922 0.950 . S
C1932 C1933 1.386 . S
C1932 C1934 1.391 . S
C1933 C1932 1.386 . S
C1933 C1937 1.393 . S
C1934 H1923 0.950 . S
C1934 C1932 1.391 . S
C1934 C1935 1.400 . S
C1935 C1929 1.491 . S
C1935 C1934 1.400 . S
C1935 C1936 1.398 . S
C1936 H1924 0.950 . S
C1936 C1935 1.398 . S
C1936 C1937 1.391 . S
C1937 H1925 0.950 . S
C1937 C1933 1.393 . S
C1937 C1936 1.391 . S
H1938 C1946 0.950 . S
H1939 C1951 0.950 . S
H1940 C1948 0.950 . S
H1941 C1950 0.950 . S
H1942 C1952 0.950 . S
H1943 C1954 0.950 . S
H1944 C1956 0.950 . S
H1945 C1957 0.950 . S
C1946 H1938 0.950 . S
C1946 C1947 1.386 . S
C1946 C1948 1.391 . S
C1947 C1946 1.386 . S
C1947 C1951 1.393 . S
C1948 H1940 0.950 . S
C1948 C1946 1.391 . S
C1948 C1949 1.400 . S
C1949 C1948 1.400 . S
C1949 C1950 1.398 . S
C1949 C1955 1.491 . S
C1950 H1941 0.950 . S
C1950 C1949 1.398 . S
C1950 C1951 1.391 . S
C1951 H1939 0.950 . S
C1951 C1947 1.393 . S
C1951 C1950 1.391 . S
C1952 H1942 0.950 . S
C1952 C1953 1.386 . S
C1952 C1954 1.391 . S
C1953 C1952 1.386 . S
C1953 C1957 1.393 . S
C1954 H1943 0.950 . S
C1954 C1952 1.391 . S
C1954 C1955 1.400 . S
C1955 C1949 1.491 . S
C1955 C1954 1.400 . S
C1955 C1956 1.398 . S
C1956 H1944 0.950 . S
C1956 C1955 1.398 . S
C1956 C1957 1.391 . S
C1957 H1945 0.950 . S
C1957 C1953 1.393 . S
C1957 C1956 1.391 . S
H1958 C1966 0.950 . S
H1959 C1971 0.950 . S
H1960 C1968 0.950 . S
H1961 C1970 0.950 . S
H1962 C1972 0.950 . S
H1963 C1974 0.950 . S
H1964 C1976 0.950 . S
H1965 C1977 0.950 . S
C1966 H1958 0.950 . S
C1966 C1967 1.386 . S
C1966 C1968 1.391 . S
C1967 C1966 1.386 . S
C1967 C1971 1.393 . S
C1968 H1960 0.950 . S
C1968 C1966 1.391 . S
C1968 C1969 1.400 . S
C1969 C1968 1.400 . S
C1969 C1970 1.398 . S
C1969 C1975 1.491 . S
C1970 H1961 0.950 . S
C1970 C1969 1.398 . S
C1970 C1971 1.391 . S
C1971 H1959 0.950 . S
C1971 C1967 1.393 . S
C1971 C1970 1.391 . S
C1972 H1962 0.950 . S
C1972 C1973 1.386 . S
C1972 C1974 1.391 . S
C1973 C1972 1.386 . S
C1973 C1977 1.393 . S
C1974 H1963 0.950 . S
C1974 C1972 1.391 . S
C1974 C1975 1.400 . S
C1975 C1969 1.491 . S
C1975 C1974 1.400 . S
C1975 C1976 1.398 . S
C1976 H1964 0.950 . S
C1976 C1975 1.398 . S
C1976 C1977 1.391 . S
C1977 H1965 0.950 . S
C1977 C1973 1.393 . S
C1977 C1976 1.391 . S
H1978 C1986 0.950 . S
H1979 C1991 0.950 . S
H1980 C1988 0.950 . S
H1981 C1990 0.950 . S
H1982 C1992 0.950 . S
H1983 C1994 0.950 . S
H1984 C1996 0.950 . S
H1985 C1997 0.950 . S
C1986 H1978 0.950 . S
C1986 C1987 1.386 . S
C1986 C1988 1.391 . S
C1987 C1986 1.386 . S
C1987 C1991 1.393 . S
C1988 H1980 0.950 . S
C1988 C1986 1.391 . S
C1988 C1989 1.400 . S
C1989 C1988 1.400 . S
C1989 C1990 1.398 . S
C1989 C1995 1.491 . S
C1990 H1981 0.950 . S
C1990 C1989 1.398 . S
C1990 C1991 1.391 . S
C1991 H1979 0.950 . S
C1991 C1987 1.393 . S
C1991 C1990 1.391 . S
C1992 H1982 0.950 . S
C1992 C1993 1.386 . S
C1992 C1994 1.391 . S
C1993 C1992 1.386 . S
C1993 C1997 1.393 . S
C1994 H1983 0.950 . S
C1994 C1992 1.391 . S
C1994 C1995 1.400 . S
C1995 C1989 1.491 . S
C1995 C1994 1.400 . S
C1995 C1996 1.398 . S
C1996 H1984 0.950 . S
C1996 C1995 1.398 . S
C1996 C1997 1.391 . S
C1997 H1985 0.950 . S
C1997 C1993 1.393 . S
C1997 C1996 1.391 . S
H1998 C2006 0.950 . S
H1999 C2011 0.950 . S
H2000 C2008 0.950 . S
H2001 C2010 0.950 . S
H2002 C2012 0.950 . S
H2003 C2014 0.950 . S
H2004 C2016 0.950 . S
H2005 C2017 0.950 . S
C2006 H1998 0.950 . S
C2006 C2007 1.386 . S
C2006 C2008 1.391 . S
C2007 C2006 1.386 . S
C2007 C2011 1.393 . S
C2008 H2000 0.950 . S
C2008 C2006 1.391 . S
C2008 C2009 1.400 . S
C2009 C2008 1.400 . S
C2009 C2010 1.398 . S
C2009 C2015 1.491 . S
C2010 H2001 0.950 . S
C2010 C2009 1.398 . S
C2010 C2011 1.391 . S
C2011 H1999 0.950 . S
C2011 C2007 1.393 . S
C2011 C2010 1.391 . S
C2012 H2002 0.950 . S
C2012 C2013 1.386 . S
C2012 C2014 1.391 . S
C2013 C2012 1.386 . S
C2013 C2017 1.393 . S
C2014 H2003 0.950 . S
C2014 C2012 1.391 . S
C2014 C2015 1.400 . S
C2015 C2009 1.491 . S
C2015 C2014 1.400 . S
C2015 C2016 1.398 . S
C2016 H2004 0.950 . S
C2016 C2015 1.398 . S
C2016 C2017 1.391 . S
C2017 H2005 0.950 . S
C2017 C2013 1.393 . S
C2017 C2016 1.391 . S
H2018 C2026 0.950 . S
H2019 C2031 0.950 . S
H2020 C2028 0.950 . S
H2021 C2030 0.950 . S
H2022 C2032 0.950 . S
H2023 C2034 0.950 . S
H2024 C2036 0.950 . S
H2025 C2037 0.950 . S
C2026 H2018 0.950 . S
C2026 C2027 1.386 . S
C2026 C2028 1.391 . S
C2027 C2026 1.386 . S
C2027 C2031 1.393 . S
C2028 H2020 0.950 . S
C2028 C2026 1.391 . S
C2028 C2029 1.400 . S
C2029 C2028 1.400 . S
C2029 C2030 1.398 . S
C2029 C2035 1.491 . S
C2030 H2021 0.950 . S
C2030 C2029 1.398 . S
C2030 C2031 1.391 . S
C2031 H2019 0.950 . S
C2031 C2027 1.393 . S
C2031 C2030 1.391 . S
C2032 H2022 0.950 . S
C2032 C2033 1.386 . S
C2032 C2034 1.391 . S
C2033 C2032 1.386 . S
C2033 C2037 1.393 . S
C2034 H2023 0.950 . S
C2034 C2032 1.391 . S
C2034 C2035 1.400 . S
C2035 C2029 1.491 . S
C2035 C2034 1.400 . S
C2035 C2036 1.398 . S
C2036 H2024 0.950 . S
C2036 C2035 1.398 . S
C2036 C2037 1.391 . S
C2037 H2025 0.950 . S
C2037 C2033 1.393 . S
C2037 C2036 1.391 . S
H2038 C2046 0.950 . S
H2039 C2051 0.950 . S
H2040 C2048 0.950 . S
H2041 C2050 0.950 . S
H2042 C2052 0.950 . S
H2043 C2054 0.950 . S
H2044 C2056 0.950 . S
H2045 C2057 0.950 . S
C2046 H2038 0.950 . S
C2046 C2047 1.386 . S
C2046 C2048 1.391 . S
C2047 C2046 1.386 . S
C2047 C2051 1.393 . S
C2048 H2040 0.950 . S
C2048 C2046 1.391 . S
C2048 C2049 1.400 . S
C2049 C2048 1.400 . S
C2049 C2050 1.398 . S
C2049 C2055 1.491 . S
C2050 H2041 0.950 . S
C2050 C2049 1.398 . S
C2050 C2051 1.391 . S
C2051 H2039 0.950 . S
C2051 C2047 1.393 . S
C2051 C2050 1.391 . S
C2052 H2042 0.950 . S
C2052 C2053 1.386 . S
C2052 C2054 1.391 . S
C2053 C2052 1.386 . S
C2053 C2057 1.393 . S
C2054 H2043 0.950 . S
C2054 C2052 1.391 . S
C2054 C2055 1.400 . S
C2055 C2049 1.491 . S
C2055 C2054 1.400 . S
C2055 C2056 1.398 . S
C2056 H2044 0.950 . S
C2056 C2055 1.398 . S
C2056 C2057 1.391 . S
C2057 H2045 0.950 . S
C2057 C2053 1.393 . S
C2057 C2056 1.391 . S
H2058 C2066 0.950 . S
H2059 C2071 0.950 . S
H2060 C2068 0.950 . S
H2061 C2070 0.950 . S
H2062 C2072 0.950 . S
H2063 C2074 0.950 . S
H2064 C2076 0.950 . S
H2065 C2077 0.950 . S
C2066 H2058 0.950 . S
C2066 C2067 1.386 . S
C2066 C2068 1.391 . S
C2067 C2066 1.386 . S
C2067 C2071 1.393 . S
C2068 H2060 0.950 . S
C2068 C2066 1.391 . S
C2068 C2069 1.400 . S
C2069 C2068 1.400 . S
C2069 C2070 1.398 . S
C2069 C2075 1.491 . S
C2070 H2061 0.950 . S
C2070 C2069 1.398 . S
C2070 C2071 1.391 . S
C2071 H2059 0.950 . S
C2071 C2067 1.393 . S
C2071 C2070 1.391 . S
C2072 H2062 0.950 . S
C2072 C2073 1.386 . S
C2072 C2074 1.391 . S
C2073 C2072 1.386 . S
C2073 C2077 1.393 . S
C2074 H2063 0.950 . S
C2074 C2072 1.391 . S
C2074 C2075 1.400 . S
C2075 C2069 1.491 . S
C2075 C2074 1.400 . S
C2075 C2076 1.398 . S
C2076 H2064 0.950 . S
C2076 C2075 1.398 . S
C2076 C2077 1.391 . S
C2077 H2065 0.950 . S
C2077 C2073 1.393 . S
C2077 C2076 1.391 . S
H2078 C2086 0.950 . S
H2079 C2091 0.950 . S
H2080 C2088 0.950 . S
H2081 C2090 0.950 . S
H2082 C2092 0.950 . S
H2083 C2094 0.950 . S
H2084 C2096 0.950 . S
H2085 C2097 0.950 . S
C2086 H2078 0.950 . S
C2086 C2087 1.386 . S
C2086 C2088 1.391 . S
C2087 C2086 1.386 . S
C2087 C2091 1.393 . S
C2088 H2080 0.950 . S
C2088 C2086 1.391 . S
C2088 C2089 1.400 . S
C2089 C2088 1.400 . S
C2089 C2090 1.398 . S
C2089 C2095 1.491 . S
C2090 H2081 0.950 . S
C2090 C2089 1.398 . S
C2090 C2091 1.391 . S
C2091 H2079 0.950 . S
C2091 C2087 1.393 . S
C2091 C2090 1.391 . S
C2092 H2082 0.950 . S
C2092 C2093 1.386 . S
C2092 C2094 1.391 . S
C2093 C2092 1.386 . S
C2093 C2097 1.393 . S
C2094 H2083 0.950 . S
C2094 C2092 1.391 . S
C2094 C2095 1.400 . S
C2095 C2089 1.491 . S
C2095 C2094 1.400 . S
C2095 C2096 1.398 . S
C2096 H2084 0.950 . S
C2096 C2095 1.398 . S
C2096 C2097 1.391 . S
C2097 H2085 0.950 . S
C2097 C2093 1.393 . S
C2097 C2096 1.391 . S
H2098 C2106 0.950 . S
H2099 C2111 0.950 . S
H2100 C2108 0.950 . S
H2101 C2110 0.950 . S
H2102 C2112 0.950 . S
H2103 C2114 0.950 . S
H2104 C2116 0.950 . S
H2105 C2117 0.950 . S
C2106 H2098 0.950 . S
C2106 C2107 1.386 . S
C2106 C2108 1.391 . S
C2107 C2106 1.386 . S
C2107 C2111 1.393 . S
C2108 H2100 0.950 . S
C2108 C2106 1.391 . S
C2108 C2109 1.400 . S
C2109 C2108 1.400 . S
C2109 C2110 1.398 . S
C2109 C2115 1.491 . S
C2110 H2101 0.950 . S
C2110 C2109 1.398 . S
C2110 C2111 1.391 . S
C2111 H2099 0.950 . S
C2111 C2107 1.393 . S
C2111 C2110 1.391 . S
C2112 H2102 0.950 . S
C2112 C2113 1.386 . S
C2112 C2114 1.391 . S
C2113 C2112 1.386 . S
C2113 C2117 1.393 . S
C2114 H2103 0.950 . S
C2114 C2112 1.391 . S
C2114 C2115 1.400 . S
C2115 C2109 1.491 . S
C2115 C2114 1.400 . S
C2115 C2116 1.398 . S
C2116 H2104 0.950 . S
C2116 C2115 1.398 . S
C2116 C2117 1.391 . S
C2117 H2105 0.950 . S
C2117 C2113 1.393 . S
C2117 C2116 1.391 . S
H2118 C2126 0.950 . S
H2119 C2131 0.950 . S
H2120 C2128 0.950 . S
H2121 C2130 0.950 . S
H2122 C2132 0.950 . S
H2123 C2134 0.950 . S
H2124 C2136 0.950 . S
H2125 C2137 0.950 . S
C2126 H2118 0.950 . S
C2126 C2127 1.386 1_655 S
C2126 C2128 1.391 . S
C2127 C2126 1.386 1_455 S
C2127 C2131 1.393 . S
C2128 H2120 0.950 . S
C2128 C2126 1.391 . S
C2128 C2129 1.400 1_655 S
C2129 C2128 1.400 1_455 S
C2129 C2130 1.398 . S
C2129 C2135 1.491 . S
C2130 H2121 0.950 . S
C2130 C2129 1.398 . S
C2130 C2131 1.391 . S
C2131 H2119 0.950 . S
C2131 C2127 1.393 . S
C2131 C2130 1.391 . S
C2132 H2122 0.950 . S
C2132 C2133 1.386 . S
C2132 C2134 1.391 . S
C2133 C2132 1.386 . S
C2133 C2137 1.393 1_455 S
C2134 H2123 0.950 . S
C2134 C2132 1.391 . S
C2134 C2135 1.400 . S
C2135 C2129 1.491 . S
C2135 C2134 1.400 . S
C2135 C2136 1.398 1_455 S
C2136 H2124 0.950 . S
C2136 C2135 1.398 1_655 S
C2136 C2137 1.391 . S
C2137 H2125 0.950 . S
C2137 C2133 1.393 1_655 S
C2137 C2136 1.391 . S
H2138 C2146 0.950 . S
H2139 C2151 0.950 . S
H2140 C2148 0.950 . S
H2141 C2150 0.950 . S
H2142 C2152 0.950 . S
H2143 C2154 0.950 . S
H2144 C2156 0.950 . S
H2145 C2157 0.950 . S
C2146 H2138 0.950 . S
C2146 C2147 1.386 . S
C2146 C2148 1.391 . S
C2147 C2146 1.386 . S
C2147 C2151 1.393 . S
C2148 H2140 0.950 . S
C2148 C2146 1.391 . S
C2148 C2149 1.400 . S
C2149 C2148 1.400 . S
C2149 C2150 1.398 . S
C2149 C2155 1.491 . S
C2150 H2141 0.950 . S
C2150 C2149 1.398 . S
C2150 C2151 1.391 . S
C2151 H2139 0.950 . S
C2151 C2147 1.393 . S
C2151 C2150 1.391 . S
C2152 H2142 0.950 . S
C2152 C2153 1.386 . S
C2152 C2154 1.391 . S
C2153 C2152 1.386 . S
C2153 C2157 1.393 . S
C2154 H2143 0.950 . S
C2154 C2152 1.391 . S
C2154 C2155 1.400 . S
C2155 C2149 1.491 . S
C2155 C2154 1.400 . S
C2155 C2156 1.398 . S
C2156 H2144 0.950 . S
C2156 C2155 1.398 . S
C2156 C2157 1.391 . S
C2157 H2145 0.950 . S
C2157 C2153 1.393 . S
C2157 C2156 1.391 . S
H2158 C2166 0.950 . S
H2159 C2171 0.950 . S
H2160 C2168 0.950 . S
H2161 C2170 0.950 . S
H2162 C2172 0.950 . S
H2163 C2174 0.950 . S
H2164 C2176 0.950 . S
H2165 C2177 0.950 . S
C2166 H2158 0.950 . S
C2166 C2167 1.386 . S
C2166 C2168 1.391 . S
C2167 C2166 1.386 . S
C2167 C2171 1.393 1_565 S
C2168 H2160 0.950 . S
C2168 C2166 1.391 . S
C2168 C2169 1.400 . S
C2169 C2168 1.400 . S
C2169 C2170 1.398 1_565 S
C2169 C2175 1.491 . S
C2170 H2161 0.950 . S
C2170 C2169 1.398 1_545 S
C2170 C2171 1.391 . S
C2171 H2159 0.950 . S
C2171 C2167 1.393 1_545 S
C2171 C2170 1.391 . S
C2172 H2162 0.950 . S
C2172 C2173 1.386 1_545 S
C2172 C2174 1.391 . S
C2173 C2172 1.386 1_565 S
C2173 C2177 1.393 . S
C2174 H2163 0.950 . S
C2174 C2172 1.391 . S
C2174 C2175 1.400 1_545 S
C2175 C2169 1.491 . S
C2175 C2174 1.400 1_565 S
C2175 C2176 1.398 . S
C2176 H2164 0.950 . S
C2176 C2175 1.398 . S
C2176 C2177 1.391 . S
C2177 H2165 0.950 . S
C2177 C2173 1.393 . S
C2177 C2176 1.391 . S
H2178 C2186 0.950 . S
H2179 C2191 0.950 . S
H2180 C2188 0.950 . S
H2181 C2190 0.950 . S
H2182 C2192 0.950 . S
H2183 C2194 0.950 . S
H2184 C2196 0.950 . S
H2185 C2197 0.950 1_545 S
C2186 H2178 0.950 . S
C2186 C2187 1.386 . S
C2186 C2188 1.391 . S
C2187 C2186 1.386 . S
C2187 C2191 1.393 . S
C2188 H2180 0.950 . S
C2188 C2186 1.391 . S
C2188 C2189 1.400 . S
C2189 C2188 1.400 . S
C2189 C2190 1.398 . S
C2189 C2195 1.491 . S
C2190 H2181 0.950 . S
C2190 C2189 1.398 . S
C2190 C2191 1.391 . S
C2191 H2179 0.950 . S
C2191 C2187 1.393 . S
C2191 C2190 1.391 . S
C2192 H2182 0.950 . S
C2192 C2193 1.386 . S
C2192 C2194 1.391 . S
C2193 C2192 1.386 . S
C2193 C2197 1.393 . S
C2194 H2183 0.950 . S
C2194 C2192 1.391 . S
C2194 C2195 1.400 . S
C2195 C2189 1.491 . S
C2195 C2194 1.400 . S
C2195 C2196 1.398 . S
C2196 H2184 0.950 . S
C2196 C2195 1.398 . S
C2196 C2197 1.391 . S
C2197 H2185 0.950 1_565 S
C2197 C2193 1.393 . S
C2197 C2196 1.391 . S
H2198 C2206 0.950 . S
H2199 C2211 0.950 . S
H2200 C2208 0.950 . S
H2201 C2210 0.950 . S
H2202 C2212 0.950 . S
H2203 C2214 0.950 . S
H2204 C2216 0.950 . S
H2205 C2217 0.950 . S
C2206 H2198 0.950 . S
C2206 C2207 1.386 . S
C2206 C2208 1.391 . S
C2207 C2206 1.386 . S
C2207 C2211 1.393 1_455 S
C2208 H2200 0.950 . S
C2208 C2206 1.391 . S
C2208 C2209 1.400 . S
C2209 C2208 1.400 . S
C2209 C2210 1.398 1_455 S
C2209 C2215 1.491 . S
C2210 H2201 0.950 . S
C2210 C2209 1.398 1_655 S
C2210 C2211 1.391 . S
C2211 H2199 0.950 . S
C2211 C2207 1.393 1_655 S
C2211 C2210 1.391 . S
C2212 H2202 0.950 . S
C2212 C2213 1.386 1_655 S
C2212 C2214 1.391 . S
C2213 C2212 1.386 1_455 S
C2213 C2217 1.393 . S
C2214 H2203 0.950 . S
C2214 C2212 1.391 . S
C2214 C2215 1.400 1_655 S
C2215 C2209 1.491 . S
C2215 C2214 1.400 1_455 S
C2215 C2216 1.398 . S
C2216 H2204 0.950 . S
C2216 C2215 1.398 . S
C2216 C2217 1.391 . S
C2217 H2205 0.950 . S
C2217 C2213 1.393 . S
C2217 C2216 1.391 . S
H2218 C2226 0.950 . S
H2219 C2231 0.950 . S
H2220 C2228 0.950 . S
H2221 C2230 0.950 . S
H2222 C2232 0.950 . S
H2223 C2234 0.950 . S
H2224 C2236 0.950 . S
H2225 C2237 0.950 . S
C2226 H2218 0.950 . S
C2226 C2227 1.386 . S
C2226 C2228 1.391 . S
C2227 C2226 1.386 . S
C2227 C2231 1.393 . S
C2228 H2220 0.950 . S
C2228 C2226 1.391 . S
C2228 C2229 1.400 . S
C2229 C2228 1.400 . S
C2229 C2230 1.398 . S
C2229 C2235 1.491 . S
C2230 H2221 0.950 . S
C2230 C2229 1.398 . S
C2230 C2231 1.391 . S
C2231 H2219 0.950 . S
C2231 C2227 1.393 . S
C2231 C2230 1.391 . S
C2232 H2222 0.950 . S
C2232 C2233 1.386 . S
C2232 C2234 1.391 . S
C2233 C2232 1.386 . S
C2233 C2237 1.393 . S
C2234 H2223 0.950 . S
C2234 C2232 1.391 . S
C2234 C2235 1.400 . S
C2235 C2229 1.491 . S
C2235 C2234 1.400 . S
C2235 C2236 1.398 . S
C2236 H2224 0.950 . S
C2236 C2235 1.398 . S
C2236 C2237 1.391 . S
C2237 H2225 0.950 . S
C2237 C2233 1.393 . S
C2237 C2236 1.391 . S
H2238 C2246 0.950 . S
H2239 C2251 0.950 . S
H2240 C2248 0.950 . S
H2241 C2250 0.950 . S
H2242 C2252 0.950 . S
H2243 C2254 0.950 . S
H2244 C2256 0.950 . S
H2245 C2257 0.950 . S
C2246 H2238 0.950 . S
C2246 C2247 1.386 . S
C2246 C2248 1.391 . S
C2247 C2246 1.386 . S
C2247 C2251 1.393 . S
C2248 H2240 0.950 . S
C2248 C2246 1.391 . S
C2248 C2249 1.400 . S
C2249 C2248 1.400 . S
C2249 C2250 1.398 . S
C2249 C2255 1.491 . S
C2250 H2241 0.950 . S
C2250 C2249 1.398 . S
C2250 C2251 1.391 . S
C2251 H2239 0.950 . S
C2251 C2247 1.393 . S
C2251 C2250 1.391 . S
C2252 H2242 0.950 . S
C2252 C2253 1.386 . S
C2252 C2254 1.391 . S
C2253 C2252 1.386 . S
C2253 C2257 1.393 . S
C2254 H2243 0.950 . S
C2254 C2252 1.391 . S
C2254 C2255 1.400 . S
C2255 C2249 1.491 . S
C2255 C2254 1.400 . S
C2255 C2256 1.398 . S
C2256 H2244 0.950 . S
C2256 C2255 1.398 . S
C2256 C2257 1.391 . S
C2257 H2245 0.950 . S
C2257 C2253 1.393 . S
C2257 C2256 1.391 . S
H2258 C2266 0.950 . S
H2259 C2271 0.950 . S
H2260 C2268 0.950 . S
H2261 C2270 0.950 . S
H2262 C2272 0.950 . S
H2263 C2274 0.950 . S
H2264 C2276 0.950 . S
H2265 C2277 0.950 . S
C2266 H2258 0.950 . S
C2266 C2267 1.386 . S
C2266 C2268 1.391 . S
C2267 C2266 1.386 . S
C2267 C2271 1.393 . S
C2268 H2260 0.950 . S
C2268 C2266 1.391 . S
C2268 C2269 1.400 . S
C2269 C2268 1.400 . S
C2269 C2270 1.398 . S
C2269 C2275 1.491 . S
C2270 H2261 0.950 . S
C2270 C2269 1.398 . S
C2270 C2271 1.391 . S
C2271 H2259 0.950 . S
C2271 C2267 1.393 . S
C2271 C2270 1.391 . S
C2272 H2262 0.950 . S
C2272 C2273 1.386 . S
C2272 C2274 1.391 . S
C2273 C2272 1.386 . S
C2273 C2277 1.393 . S
C2274 H2263 0.950 . S
C2274 C2272 1.391 . S
C2274 C2275 1.400 . S
C2275 C2269 1.491 . S
C2275 C2274 1.400 . S
C2275 C2276 1.398 . S
C2276 H2264 0.950 . S
C2276 C2275 1.398 . S
C2276 C2277 1.391 . S
C2277 H2265 0.950 . S
C2277 C2273 1.393 . S
C2277 C2276 1.391 . S
H2278 C2286 0.950 . S
H2279 C2291 0.950 . S
H2280 C2288 0.950 . S
H2281 C2290 0.950 . S
H2282 C2292 0.950 . S
H2283 C2294 0.950 . S
H2284 C2296 0.950 . S
H2285 C2297 0.950 . S
C2286 H2278 0.950 . S
C2286 C2287 1.386 . S
C2286 C2288 1.391 . S
C2287 C2286 1.386 . S
C2287 C2291 1.393 . S
C2288 H2280 0.950 . S
C2288 C2286 1.391 . S
C2288 C2289 1.400 . S
C2289 C2288 1.400 . S
C2289 C2290 1.398 . S
C2289 C2295 1.491 . S
C2290 H2281 0.950 . S
C2290 C2289 1.398 . S
C2290 C2291 1.391 . S
C2291 H2279 0.950 . S
C2291 C2287 1.393 . S
C2291 C2290 1.391 . S
C2292 H2282 0.950 . S
C2292 C2293 1.386 . S
C2292 C2294 1.391 . S
C2293 C2292 1.386 . S
C2293 C2297 1.393 . S
C2294 H2283 0.950 . S
C2294 C2292 1.391 . S
C2294 C2295 1.400 . S
C2295 C2289 1.491 . S
C2295 C2294 1.400 . S
C2295 C2296 1.398 . S
C2296 H2284 0.950 . S
C2296 C2295 1.398 . S
C2296 C2297 1.391 . S
C2297 H2285 0.950 . S
C2297 C2293 1.393 . S
C2297 C2296 1.391 . S
H2298 C2306 0.950 . S
H2299 C2311 0.950 . S
H2300 C2308 0.950 . S
H2301 C2310 0.950 . S
H2302 C2312 0.950 . S
H2303 C2314 0.950 . S
H2304 C2316 0.950 . S
H2305 C2317 0.950 . S
C2306 H2298 0.950 . S
C2306 C2307 1.386 1_565 S
C2306 C2308 1.391 . S
C2307 C2306 1.386 1_545 S
C2307 C2311 1.393 . S
C2308 H2300 0.950 . S
C2308 C2306 1.391 . S
C2308 C2309 1.400 1_565 S
C2309 C2308 1.400 1_545 S
C2309 C2310 1.398 . S
C2309 C2315 1.491 . S
C2310 H2301 0.950 . S
C2310 C2309 1.398 . S
C2310 C2311 1.391 . S
C2311 H2299 0.950 . S
C2311 C2307 1.393 . S
C2311 C2310 1.391 . S
C2312 H2302 0.950 . S
C2312 C2313 1.386 . S
C2312 C2314 1.391 . S
C2313 C2312 1.386 . S
C2313 C2317 1.393 1_545 S
C2314 H2303 0.950 . S
C2314 C2312 1.391 . S
C2314 C2315 1.400 . S
C2315 C2309 1.491 . S
C2315 C2314 1.400 . S
C2315 C2316 1.398 1_545 S
C2316 H2304 0.950 . S
C2316 C2315 1.398 1_565 S
C2316 C2317 1.391 . S
C2317 H2305 0.950 . S
C2317 C2313 1.393 1_565 S
C2317 C2316 1.391 . S
H2318 C2326 0.950 . S
H2319 C2331 0.950 . S
H2320 C2328 0.950 . S
H2321 C2330 0.950 . S
H2322 C2332 0.949 1_455 S
H2323 C2334 0.939 1_455 S
H2324 C2336 0.950 . S
H2325 C2337 0.950 . S
C2326 H2318 0.950 . S
C2326 C2327 1.386 . S
C2326 C2328 1.391 . S
C2327 C2326 1.386 . S
C2327 C2331 1.393 . S
C2328 H2320 0.950 . S
C2328 C2326 1.391 . S
C2328 C2329 1.400 . S
C2329 C2328 1.400 . S
C2329 C2330 1.398 . S
C2329 C2335 1.491 . S
C2330 H2321 0.950 . S
C2330 C2329 1.398 . S
C2330 C2331 1.391 . S
C2331 H2319 0.950 . S
C2331 C2327 1.393 . S
C2331 C2330 1.391 . S
C2332 H2322 0.949 1_655 S
C2332 C2333 1.388 . S
C2332 C2334 1.390 . S
C2333 C2332 1.388 . S
C2333 C2337 1.393 . S
C2334 H2323 0.939 1_655 S
C2334 C2332 1.390 . S
C2334 C2335 1.400 . S
C2335 C2329 1.491 . S
C2335 C2334 1.400 . S
C2335 C2336 1.398 . S
C2336 H2324 0.950 . S
C2336 C2335 1.398 . S
C2336 C2337 1.391 . S
C2337 H2325 0.950 . S
C2337 C2333 1.393 . S
C2337 C2336 1.391 . S
H2338 C2346 0.950 . S
H2339 C2351 0.950 . S
H2340 C2348 0.950 . S
H2341 C2350 0.950 . S
H2342 C2352 0.950 . S
H2343 C2354 0.950 . S
H2344 C2356 0.950 . S
H2345 C2357 0.950 . S
C2346 H2338 0.950 . S
C2346 C2347 1.386 . S
C2346 C2348 1.391 . S
C2347 C2346 1.386 . S
C2347 C2351 1.393 . S
C2348 H2340 0.950 . S
C2348 C2346 1.391 . S
C2348 C2349 1.400 . S
C2349 C2348 1.400 . S
C2349 C2350 1.398 . S
C2349 C2355 1.491 . S
C2350 H2341 0.950 . S
C2350 C2349 1.398 . S
C2350 C2351 1.391 . S
C2351 H2339 0.950 . S
C2351 C2347 1.393 . S
C2351 C2350 1.391 . S
C2352 H2342 0.950 . S
C2352 C2353 1.386 . S
C2352 C2354 1.391 . S
C2353 C2352 1.386 . S
C2353 C2357 1.393 . S
C2354 H2343 0.950 . S
C2354 C2352 1.391 . S
C2354 C2355 1.400 . S
C2355 C2349 1.491 . S
C2355 C2354 1.400 . S
C2355 C2356 1.398 . S
C2356 H2344 0.950 . S
C2356 C2355 1.398 . S
C2356 C2357 1.391 . S
C2357 H2345 0.950 . S
C2357 C2353 1.393 . S
C2357 C2356 1.391 . S
H2358 C2366 0.950 . S
H2359 C2371 0.950 . S
H2360 C2368 0.950 . S
H2361 C2370 0.950 . S
H2362 C2372 0.950 . S
H2363 C2374 0.950 . S
H2364 C2376 0.950 . S
H2365 C2377 0.950 . S
C2366 H2358 0.950 . S
C2366 C2367 1.386 . S
C2366 C2368 1.391 . S
C2367 C2366 1.386 . S
C2367 C2371 1.393 . S
C2368 H2360 0.950 . S
C2368 C2366 1.391 . S
C2368 C2369 1.400 . S
C2369 C2368 1.400 . S
C2369 C2370 1.398 . S
C2369 C2375 1.491 . S
C2370 H2361 0.950 . S
C2370 C2369 1.398 . S
C2370 C2371 1.391 . S
C2371 H2359 0.950 . S
C2371 C2367 1.393 . S
C2371 C2370 1.391 . S
C2372 H2362 0.950 . S
C2372 C2373 1.386 . S
C2372 C2374 1.391 . S
C2373 C2372 1.386 . S
C2373 C2377 1.393 . S
C2374 H2363 0.950 . S
C2374 C2372 1.391 . S
C2374 C2375 1.400 . S
C2375 C2369 1.491 . S
C2375 C2374 1.400 . S
C2375 C2376 1.398 . S
C2376 H2364 0.950 . S
C2376 C2375 1.398 . S
C2376 C2377 1.391 . S
C2377 H2365 0.950 . S
C2377 C2373 1.393 . S
C2377 C2376 1.391 . S
H2378 C2386 0.950 . S
H2379 C2391 0.950 . S
H2380 C2388 0.950 . S
H2381 C2390 0.950 . S
H2382 C2392 0.950 . S
H2383 C2394 0.950 . S
H2384 C2396 0.950 . S
H2385 C2397 0.950 . S
C2386 H2378 0.950 . S
C2386 C2387 1.386 . S
C2386 C2388 1.391 . S
C2387 C2386 1.386 . S
C2387 C2391 1.393 . S
C2388 H2380 0.950 . S
C2388 C2386 1.391 . S
C2388 C2389 1.400 . S
C2389 C2388 1.400 . S
C2389 C2390 1.398 . S
C2389 C2395 1.491 . S
C2390 H2381 0.950 . S
C2390 C2389 1.398 . S
C2390 C2391 1.391 . S
C2391 H2379 0.950 . S
C2391 C2387 1.393 . S
C2391 C2390 1.391 . S
C2392 H2382 0.950 . S
C2392 C2393 1.386 . S
C2392 C2394 1.391 . S
C2393 C2392 1.386 . S
C2393 C2397 1.393 . S
C2394 H2383 0.950 . S
C2394 C2392 1.391 . S
C2394 C2395 1.400 . S
C2395 C2389 1.491 . S
C2395 C2394 1.400 . S
C2395 C2396 1.398 . S
C2396 H2384 0.950 . S
C2396 C2395 1.398 . S
C2396 C2397 1.391 . S
C2397 H2385 0.950 . S
C2397 C2393 1.393 . S
C2397 C2396 1.391 . S
H2398 C2406 0.950 . S
H2399 C2411 0.950 . S
H2400 C2408 0.950 . S
H2401 C2410 0.950 . S
H2402 C2412 0.950 . S
H2403 C2414 0.950 . S
H2404 C2416 0.950 . S
H2405 C2417 0.950 . S
C2406 H2398 0.950 . S
C2406 C2407 1.386 . S
C2406 C2408 1.391 . S
C2407 C2406 1.386 . S
C2407 C2411 1.393 . S
C2408 H2400 0.950 . S
C2408 C2406 1.391 . S
C2408 C2409 1.400 . S
C2409 C2408 1.400 . S
C2409 C2410 1.398 . S
C2409 C2415 1.491 . S
C2410 H2401 0.950 . S
C2410 C2409 1.398 . S
C2410 C2411 1.391 . S
C2411 H2399 0.950 . S
C2411 C2407 1.393 . S
C2411 C2410 1.391 . S
C2412 H2402 0.950 . S
C2412 C2413 1.386 . S
C2412 C2414 1.391 . S
C2413 C2412 1.386 . S
C2413 C2417 1.393 . S
C2414 H2403 0.950 . S
C2414 C2412 1.391 . S
C2414 C2415 1.400 . S
C2415 C2409 1.491 . S
C2415 C2414 1.400 . S
C2415 C2416 1.398 . S
C2416 H2404 0.950 . S
C2416 C2415 1.398 . S
C2416 C2417 1.391 . S
C2417 H2405 0.950 . S
C2417 C2413 1.393 . S
C2417 C2416 1.391 . S
H2418 C2426 0.950 . S
H2419 C2431 0.950 . S
H2420 C2428 0.950 . S
H2421 C2430 0.950 . S
H2422 C2432 0.950 . S
H2423 C2434 0.950 . S
H2424 C2436 0.950 . S
H2425 C2437 0.950 . S
C2426 H2418 0.950 . S
C2426 C2427 1.386 . S
C2426 C2428 1.391 . S
C2427 C2426 1.386 . S
C2427 C2431 1.393 . S
C2428 H2420 0.950 . S
C2428 C2426 1.391 . S
C2428 C2429 1.400 . S
C2429 C2428 1.400 . S
C2429 C2430 1.398 . S
C2429 C2435 1.491 . S
C2430 H2421 0.950 . S
C2430 C2429 1.398 . S
C2430 C2431 1.391 . S
C2431 H2419 0.950 . S
C2431 C2427 1.393 . S
C2431 C2430 1.391 . S
C2432 H2422 0.950 . S
C2432 C2433 1.386 . S
C2432 C2434 1.391 . S
C2433 C2432 1.386 . S
C2433 C2437 1.393 . S
C2434 H2423 0.950 . S
C2434 C2432 1.391 . S
C2434 C2435 1.400 . S
C2435 C2429 1.491 . S
C2435 C2434 1.400 . S
C2435 C2436 1.398 . S
C2436 H2424 0.950 . S
C2436 C2435 1.398 . S
C2436 C2437 1.391 . S
C2437 H2425 0.950 . S
C2437 C2433 1.393 . S
C2437 C2436 1.391 . S
H2438 C2446 0.950 . S
H2439 C2451 0.950 . S
H2440 C2448 0.950 . S
H2441 C2450 0.950 . S
H2442 C2452 0.950 . S
H2443 C2454 0.950 . S
H2444 C2456 0.950 . S
H2445 C2457 0.950 . S
C2446 H2438 0.950 . S
C2446 C2447 1.386 . S
C2446 C2448 1.391 . S
C2447 C2446 1.386 . S
C2447 C2451 1.393 . S
C2448 H2440 0.950 . S
C2448 C2446 1.391 . S
C2448 C2449 1.400 . S
C2449 C2448 1.400 . S
C2449 C2450 1.398 . S
C2449 C2455 1.491 . S
C2450 H2441 0.950 . S
C2450 C2449 1.398 . S
C2450 C2451 1.391 . S
C2451 H2439 0.950 . S
C2451 C2447 1.393 . S
C2451 C2450 1.391 . S
C2452 H2442 0.950 . S
C2452 C2453 1.386 . S
C2452 C2454 1.391 . S
C2453 C2452 1.386 . S
C2453 C2457 1.393 . S
C2454 H2443 0.950 . S
C2454 C2452 1.391 . S
C2454 C2455 1.400 . S
C2455 C2449 1.491 . S
C2455 C2454 1.400 . S
C2455 C2456 1.398 . S
C2456 H2444 0.950 . S
C2456 C2455 1.398 . S
C2456 C2457 1.391 . S
C2457 H2445 0.950 . S
C2457 C2453 1.393 . S
C2457 C2456 1.391 . S
H2458 C2466 0.950 . S
H2459 C2471 0.950 . S
H2460 C2468 0.950 . S
H2461 C2470 0.950 . S
H2462 C2472 0.950 . S
H2463 C2474 0.950 . S
H2464 C2476 0.950 . S
H2465 C2477 0.950 . S
C2466 H2458 0.950 . S
C2466 C2467 1.386 . S
C2466 C2468 1.391 . S
C2467 C2466 1.386 . S
C2467 C2471 1.393 . S
C2468 H2460 0.950 . S
C2468 C2466 1.391 . S
C2468 C2469 1.400 . S
C2469 C2468 1.400 . S
C2469 C2470 1.398 . S
C2469 C2475 1.491 . S
C2470 H2461 0.950 . S
C2470 C2469 1.398 . S
C2470 C2471 1.391 . S
C2471 H2459 0.950 . S
C2471 C2467 1.393 . S
C2471 C2470 1.391 . S
C2472 H2462 0.950 . S
C2472 C2473 1.386 . S
C2472 C2474 1.391 . S
C2473 C2472 1.386 . S
C2473 C2477 1.393 . S
C2474 H2463 0.950 . S
C2474 C2472 1.391 . S
C2474 C2475 1.400 . S
C2475 C2469 1.491 . S
C2475 C2474 1.400 . S
C2475 C2476 1.398 . S
C2476 H2464 0.950 . S
C2476 C2475 1.398 . S
C2476 C2477 1.391 . S
C2477 H2465 0.950 . S
C2477 C2473 1.393 . S
C2477 C2476 1.391 . S
H2478 C2486 0.950 . S
H2479 C2491 0.950 . S
H2480 C2488 0.950 . S
H2481 C2490 0.950 . S
H2482 C2492 0.950 . S
H2483 C2494 0.950 . S
H2484 C2496 0.950 . S
H2485 C2497 0.950 . S
C2486 H2478 0.950 . S
C2486 C2487 1.386 . S
C2486 C2488 1.391 . S
C2487 C2486 1.386 . S
C2487 C2491 1.393 1_655 S
C2488 H2480 0.950 . S
C2488 C2486 1.391 . S
C2488 C2489 1.400 . S
C2489 C2488 1.400 . S
C2489 C2490 1.398 1_655 S
C2489 C2495 1.491 . S
C2490 H2481 0.950 . S
C2490 C2489 1.398 1_455 S
C2490 C2491 1.391 . S
C2491 H2479 0.950 . S
C2491 C2487 1.393 1_455 S
C2491 C2490 1.391 . S
C2492 H2482 0.950 . S
C2492 C2493 1.386 1_455 S
C2492 C2494 1.391 . S
C2493 C2492 1.386 1_655 S
C2493 C2497 1.393 . S
C2494 H2483 0.950 . S
C2494 C2492 1.391 . S
C2494 C2495 1.400 1_455 S
C2495 C2489 1.491 . S
C2495 C2494 1.400 1_655 S
C2495 C2496 1.398 . S
C2496 H2484 0.950 . S
C2496 C2495 1.398 . S
C2496 C2497 1.391 . S
C2497 H2485 0.950 . S
C2497 C2493 1.393 . S
C2497 C2496 1.391 . S
H2498 C2506 0.950 . S
H2499 C2511 0.950 . S
H2500 C2508 0.950 . S
H2501 C2510 0.950 . S
H2502 C2512 0.950 . S
H2503 C2514 0.950 . S
H2504 C2516 0.950 . S
H2505 C2517 0.950 . S
C2506 H2498 0.950 . S
C2506 C2507 1.386 . S
C2506 C2508 1.391 . S
C2507 C2506 1.386 . S
C2507 C2511 1.393 . S
C2508 H2500 0.950 . S
C2508 C2506 1.391 . S
C2508 C2509 1.400 . S
C2509 C2508 1.400 . S
C2509 C2510 1.398 . S
C2509 C2515 1.491 . S
C2510 H2501 0.950 . S
C2510 C2509 1.398 . S
C2510 C2511 1.391 . S
C2511 H2499 0.950 . S
C2511 C2507 1.393 . S
C2511 C2510 1.391 . S
C2512 H2502 0.950 . S
C2512 C2513 1.386 . S
C2512 C2514 1.391 . S
C2513 C2512 1.386 . S
C2513 C2517 1.393 . S
C2514 H2503 0.950 . S
C2514 C2512 1.391 . S
C2514 C2515 1.400 . S
C2515 C2509 1.491 . S
C2515 C2514 1.400 . S
C2515 C2516 1.398 . S
C2516 H2504 0.950 . S
C2516 C2515 1.398 . S
C2516 C2517 1.391 . S
C2517 H2505 0.950 . S
C2517 C2513 1.393 . S
C2517 C2516 1.391 . S
H2518 C2526 0.950 . S
H2519 C2531 0.950 . S
H2520 C2528 0.950 . S
H2521 C2530 0.950 . S
H2522 C2532 0.950 . S
H2523 C2534 0.950 . S
H2524 C2536 0.950 . S
H2525 C2537 0.950 . S
C2526 H2518 0.950 . S
C2526 C2527 1.386 1_565 S
C2526 C2528 1.391 . S
C2527 C2526 1.386 1_545 S
C2527 C2531 1.393 . S
C2528 H2520 0.950 . S
C2528 C2526 1.391 . S
C2528 C2529 1.400 1_565 S
C2529 C2528 1.400 1_545 S
C2529 C2530 1.398 . S
C2529 C2535 1.491 . S
C2530 H2521 0.950 . S
C2530 C2529 1.398 . S
C2530 C2531 1.391 . S
C2531 H2519 0.950 . S
C2531 C2527 1.393 . S
C2531 C2530 1.391 . S
C2532 H2522 0.950 . S
C2532 C2533 1.386 . S
C2532 C2534 1.391 . S
C2533 C2532 1.386 . S
C2533 C2537 1.393 1_545 S
C2534 H2523 0.950 . S
C2534 C2532 1.391 . S
C2534 C2535 1.400 . S
C2535 C2529 1.491 . S
C2535 C2534 1.400 . S
C2535 C2536 1.398 1_545 S
C2536 H2524 0.950 . S
C2536 C2535 1.398 1_565 S
C2536 C2537 1.391 . S
C2537 H2525 0.950 . S
C2537 C2533 1.393 1_565 S
C2537 C2536 1.391 . S
C1107 C10 1.593 . S
C1113 C711 1.585 . S
C1127 C23 1.627 . S
C1133 C759 1.608 . S
C1153 C807 1.600 . S
C1147 C29 1.613 . S
C1167 C30 1.594 . S
C1173 C831 1.603 . S
C1187 C5 1.623 . S
C1193 C903 1.609 . S
C1207 C18 1.631 . S
C1213 C951 1.623 . S
C1227 C49 1.598 . S
C1233 C879 1.594 . S
C1253 C927 1.628 . S
C1247 C62 1.628 . S
C1273 C855 1.583 . S
C1267 C70 1.628 1_565 S
C1287 C75 1.589 . S
C1293 C783 1.591 . S
C1313 C687 1.615 . S
C1307 C44 1.633 1_655 S
C1327 C57 1.632 . S
C1333 C735 1.635 . S
C1347 C88 1.656 . S
C1353 C999 1.637 . S
C1367 C101 1.652 . S
C1373 C1047 1.636 . S
C1393 C1071 1.643 . S
C1387 C107 1.646 . S
C1407 C108 1.635 . S
C1413 C255 1.618 . S
C1427 C83 1.646 . S
C1433 C327 1.639 . S
C1447 C96 1.646 . S
C1453 C375 1.628 . S
C1467 C127 1.635 . S
C1473 C303 1.629 . S
C1487 C140 1.641 . S
C1493 C351 1.635 . S
C1513 C279 1.601 . S
C1507 C146 1.641 . S
C1533 C1095 1.626 . S
C1527 C147 1.653 . S
C1553 C975 1.646 . S
C1547 C122 1.654 . S
C1573 C1023 1.651 . S
C1567 C135 1.658 . S
C1587 C160 1.635 . S
C1593 C423 1.616 . S
C1607 C173 1.636 . S
C1613 C471 1.628 . S
C1627 C185 1.643 . S
C1633 C495 1.639 . S
C1647 C186 1.655 . S
C1653 C543 1.649 . S
C1673 C615 1.646 . S
C1667 C159 1.648 . S
C1693 C663 1.641 . S
C1687 C172 1.658 . S
C1713 C591 1.652 . S
C1707 C205 1.659 . S
C1733 C639 1.649 . S
C1727 C218 1.656 . S
C1747 C224 1.639 . S
C1753 C567 1.611 . S
C1773 C519 1.606 . S
C1767 C225 1.630 . S
C1787 C200 1.652 . S
C1793 C399 1.647 . S
C1813 C447 1.642 . S
C1807 C213 1.645 . S
C1833 C264 1.517 . S
C1827 C4 1.515 . S
C1847 C17 1.496 . S
C1853 C318 1.483 . S
C1873 C366 1.506 . S
C1867 C31 1.520 . S
C1893 C414 1.504 . S
C1887 C36 1.521 . S
C1913 C462 1.518 . S
C1907 C3 1.523 . S
C1933 C504 1.498 . S
C1927 C16 1.501 . S
C1947 C43 1.522 . S
C1953 C510 1.529 . S
C1967 C56 1.494 . S
C1973 C408 1.488 . S
C1987 C68 1.514 . S
C1993 C456 1.495 . S
C2007 C69 1.520 . S
C2013 C312 1.504 . S
C2033 C360 1.512 . S
C2027 C42 1.518 . S
C2047 C55 1.504 . S
C2053 C270 1.501 . S
C2073 C552 1.517 . S
C2067 C82 1.517 . S
C2087 C95 1.527 . S
C2093 C606 1.522 . S
C2107 C109 1.543 . S
C2113 C654 1.538 . S
C2133 C702 1.486 . S
C2127 C114 1.486 . S
C2147 C81 1.525 . S
C2153 C750 1.519 . S
C2167 C94 1.492 . S
C2173 C798 1.495 . S
C2187 C121 1.493 . S
C2193 C792 1.478 . S
C2207 C134 1.485 . S
C2213 C696 1.482 . S
C2233 C744 1.498 . S
C2227 C148 1.520 . S
C2247 C153 1.517 . S
C2253 C600 1.500 . S
C2267 C120 1.544 . S
C2273 C648 1.533 . S
C2293 C558 1.531 . S
C2287 C133 1.537 . S
C2313 C840 1.488 . S
C2307 C166 1.485 . S
C2327 C179 1.479 . S
C2333 C894 1.486 . S
C2347 C187 1.523 . S
C2353 C942 1.512 . S
C2373 C990 1.502 . S
C2367 C192 1.520 . S
C2393 C1038 1.531 . S
C2387 C161 1.546 . S
C2407 C174 1.534 . S
C2413 C1080 1.534 . S
C2427 C199 1.519 . S
C2433 C1086 1.516 . S
C2447 C212 1.526 . S
C2453 C984 1.520 . S
C2473 C1032 1.529 . S
C2467 C226 1.537 . S
C2493 C888 1.475 . S
C2487 C231 1.483 . S
C2513 C936 1.508 . S
C2507 C198 1.529 . S
C2527 C211 1.497 . S
C2533 C846 1.499 . S
