# Generated by pormake.
# Topology zzz, (3,6)-cn, num edge types: 1
# Building blocks:
#     Node 0, Type 0, BuildingBlock: ESEHIV_clean_linker_0, # of connection points: 3
#     Node 1, Type 0, BuildingBlock: ESEHIV_clean_linker_0, # of connection points: 3
#     Node 2, Type 0, BuildingBlock: ESEHIV_clean_linker_0, # of connection points: 3
#     Node 3, Type 0, BuildingBlock: ESEHIV_clean_linker_0, # of connection points: 3
#     Node 4, Type 0, BuildingBlock: ESEHIV_clean_linker_0, # of connection points: 3
#     Node 5, Type 0, BuildingBlock: ESEHIV_clean_linker_0, # of connection points: 3
#     Node 6, Type 0, BuildingBlock: ESEHIV_clean_linker_0, # of connection points: 3
#     Node 7, Type 0, BuildingBlock: ESEHIV_clean_linker_0, # of connection points: 3
#     Node 8, Type 1, BuildingBlock: GEDQOX_clean_sbu_0, # of connection points: 6
#     Node 9, Type 1, BuildingBlock: GEDQOX_clean_sbu_0, # of connection points: 6
#     Node 10, Type 1, BuildingBlock: GEDQOX_clean_sbu_0, # of connection points: 6
#     Node 11, Type 1, BuildingBlock: GEDQOX_clean_sbu_0, # of connection points: 6
#     Edge 12, Type (0, 1), BuildingBlock: EZIPEK_clean_linker_0, # of connection points: 2
#     Edge 13, Type (0, 1), BuildingBlock: EZIPEK_clean_linker_0, # of connection points: 2
#     Edge 14, Type (0, 1), BuildingBlock: EZIPEK_clean_linker_0, # of connection points: 2
#     Edge 15, Type (0, 1), BuildingBlock: EZIPEK_clean_linker_0, # of connection points: 2
#     Edge 16, Type (0, 1), BuildingBlock: EZIPEK_clean_linker_0, # of connection points: 2
#     Edge 17, Type (0, 1), BuildingBlock: EZIPEK_clean_linker_0, # of connection points: 2
#     Edge 18, Type (0, 1), BuildingBlock: EZIPEK_clean_linker_0, # of connection points: 2
#     Edge 19, Type (0, 1), BuildingBlock: EZIPEK_clean_linker_0, # of connection points: 2
#     Edge 20, Type (0, 1), BuildingBlock: EZIPEK_clean_linker_0, # of connection points: 2
#     Edge 21, Type (0, 1), BuildingBlock: EZIPEK_clean_linker_0, # of connection points: 2
#     Edge 22, Type (0, 1), BuildingBlock: EZIPEK_clean_linker_0, # of connection points: 2
#     Edge 23, Type (0, 1), BuildingBlock: EZIPEK_clean_linker_0, # of connection points: 2
#     Edge 24, Type (0, 1), BuildingBlock: EZIPEK_clean_linker_0, # of connection points: 2
#     Edge 25, Type (0, 1), BuildingBlock: EZIPEK_clean_linker_0, # of connection points: 2
#     Edge 26, Type (0, 1), BuildingBlock: EZIPEK_clean_linker_0, # of connection points: 2
#     Edge 27, Type (0, 1), BuildingBlock: EZIPEK_clean_linker_0, # of connection points: 2
#     Edge 28, Type (0, 1), BuildingBlock: EZIPEK_clean_linker_0, # of connection points: 2
#     Edge 29, Type (0, 1), BuildingBlock: EZIPEK_clean_linker_0, # of connection points: 2
#     Edge 30, Type (0, 1), BuildingBlock: EZIPEK_clean_linker_0, # of connection points: 2
#     Edge 31, Type (0, 1), BuildingBlock: EZIPEK_clean_linker_0, # of connection points: 2
#     Edge 32, Type (0, 1), BuildingBlock: EZIPEK_clean_linker_0, # of connection points: 2
#     Edge 33, Type (0, 1), BuildingBlock: EZIPEK_clean_linker_0, # of connection points: 2
#     Edge 34, Type (0, 1), BuildingBlock: EZIPEK_clean_linker_0, # of connection points: 2
#     Edge 35, Type (0, 1), BuildingBlock: EZIPEK_clean_linker_0, # of connection points: 2
# Relax obj value: 0.327
# Max RMSD: 0.369
# Mean RMSD: 0.188
data_MOF--net-zzz--node1-GEDQOX_clean_sbu_0--node2-ESEHIV_clean_linker_0--edge1-EZIPEK_clean_linker_0
_symmetry_space_group_name_H-M    P1
_symmetry_Int_Tables_number       1
_symmetry_cell_setting            triclinic
loop_
_symmetry_equiv_pos_as_xyz
'x, y, z'
_cell_length_a     34.942485
_cell_length_b     33.086906
_cell_length_c     13.94505
_cell_angle_alpha  75.387816
_cell_angle_beta   89.95462
_cell_angle_gamma 107.95247
loop_
_atom_site_label
_atom_site_type_symbol
_atom_site_fract_x
_atom_site_fract_y
_atom_site_fract_z
_atom_type_partial_charge
H0 H 0.83765 0.53845 0.17766 0.0
H1 H 0.74298 0.52185 0.98031 0.0
H2 H 0.733 0.57401 0.23003 0.0
C3 C 0.80746 0.53872 0.15977 0.0
C4 C 0.78686 0.55676 0.21422 0.0
C5 C 0.79246 0.52698 0.07431 0.0
C6 C 0.75439 0.52978 0.04779 0.0
C7 C 0.73234 0.54569 0.10576 0.0
C8 C 0.74888 0.55957 0.18844 0.0
H9 H 0.04672 0.83902 0.33196 0.0
H10 H 0.06097 0.79118 0.08158 0.0
H11 H 0.00887 0.69911 0.3648 0.0
C12 C 0.04579 0.81127 0.3026 0.0
C13 C 0.02731 0.76863 0.36168 0.0
C14 C 0.05476 0.81923 0.20129 0.0
C15 C 0.05351 0.78428 0.16079 0.0
C16 C 0.03866 0.74028 0.2196 0.0
C17 C 0.02384 0.73244 0.32056 0.0
H18 H 0.69706 0.03434 0.23413 0.0
H19 H 0.76719 0.03032 0.98839 0.0
H20 H 0.79578 0.98602 0.29342 0.0
C21 C 0.723 0.02804 0.20575 0.0
C22 C 0.74451 0.00678 0.27274 0.0
C23 C 0.72936 0.03358 0.10364 0.0
C24 C 0.76217 0.02383 0.06794 0.0
C25 C 0.78732 0.00557 0.13389 0.0
C26 C 0.77836 0.99882 0.23752 0.0
H27 H 0.58584 0.76664 0.50942 0.0
H28 H 0.48535 0.815 0.50103 0.0
H29 H 0.57879 0.87195 0.26165 0.0
C30 C 0.57184 0.79061 0.47221 0.0
C31 C 0.58678 0.81791 0.37592 0.0
C32 C 0.53566 0.78918 0.51806 0.0
C33 C 0.51464 0.81772 0.46934 0.0
C34 C 0.53099 0.84828 0.37666 0.0
C35 C 0.56773 0.84926 0.33376 0.0
H36 H 0.23791 0.58974 0.5062 0.0
H37 H 0.27859 0.54262 0.79094 0.0
H38 H 0.33141 0.53045 0.52434 0.0
C39 C 0.25832 0.57545 0.55059 0.0
C40 C 0.28176 0.55665 0.50611 0.0
C41 C 0.25471 0.56814 0.6543 0.0
C42 C 0.28106 0.54891 0.71068 0.0
C43 C 0.31185 0.53952 0.66329 0.0
C44 C 0.31084 0.54172 0.56073 0.0
H45 H 0.99122 0.27428 0.42829 0.0
H46 H 0.99051 0.32935 0.67447 0.0
H47 H 0.02695 0.41506 0.37749 0.0
C48 C 0.99407 0.3031 0.45528 0.0
C49 C 0.00992 0.34484 0.39012 0.0
C50 C 0.98902 0.2975 0.55707 0.0
C51 C 0.99381 0.33404 0.59474 0.0
C52 C 0.00559 0.37685 0.53025 0.0
C53 C 0.01486 0.38237 0.427 0.0
H54 H 0.34063 0.0606 0.60163 0.0
H55 H 0.2379 0.03011 0.80758 0.0
H56 H 0.24268 0.10984 0.50806 0.0
C57 C 0.31189 0.06435 0.61902 0.0
C58 C 0.29418 0.08763 0.54416 0.0
C59 C 0.29197 0.04348 0.71403 0.0
C60 C 0.25402 0.04698 0.7349 0.0
C61 C 0.23691 0.0724 0.66201 0.0
C62 C 0.25679 0.09225 0.56597 0.0
H63 H 0.51315 0.34718 0.40186 0.0
H64 H 0.47834 0.23016 0.29519 0.0
H65 H 0.51885 0.2257 0.58911 0.0
C66 C 0.50751 0.31205 0.41392 0.0
C67 C 0.517 0.28808 0.50278 0.0
C68 C 0.49285 0.29175 0.33853 0.0
C69 C 0.48795 0.24613 0.35392 0.0
C70 C 0.49746 0.22216 0.44556 0.0
C71 C 0.51078 0.24346 0.51955 0.0
Nd72 Nd 0.99761 0.02792 0.80151 0.0
Nd73 Nd 0.02741 0.08178 0.95129 0.0
C74 C 0.96645 0.96541 0.70748 0.0
C75 C 0.97484 0.92726 0.68196 0.0
C76 C 0.94841 0.88397 0.72049 0.0
C77 C 0.95341 0.84851 0.68891 0.0
C78 C 0.98478 0.85549 0.61719 0.0
C79 C 0.01201 0.89838 0.5812 0.0
C80 C 0.00713 0.93377 0.61295 0.0
C81 C 0.07821 0.07822 0.76193 0.0
C82 C 0.03679 0.98437 0.99932 0.0
C83 C 0.05977 0.13601 0.06315 0.0
C84 C 0.05356 0.17484 0.09098 0.0
C85 C 0.07283 0.21845 0.03335 0.0
C86 C 0.06865 0.25482 0.06244 0.0
C87 C 0.04525 0.24867 0.15025 0.0
C88 C 0.02571 0.20529 0.20737 0.0
C89 C 0.02987 0.16895 0.17843 0.0
C90 C 0.94367 0.04814 0.95398 0.0
C91 C 0.99742 0.12675 0.75059 0.0
O92 O 0.9899 0.00515 0.66352 0.0
O93 O 0.95555 0.96149 0.79992 0.0
O94 O 0.0524 0.07388 0.69564 0.0
O95 O 0.06042 0.05782 0.84737 0.0
O96 O 0.02057 0.98031 0.91574 0.0
O97 O 0.04318 0.01999 0.03163 0.0
O98 O 0.07369 0.14193 0.97154 0.0
O99 O 0.03271 0.09711 0.09854 0.0
O100 O 0.96318 0.08661 0.96474 0.0
O101 O 0.9685 0.02848 0.94532 0.0
O102 O 0.02775 0.13156 0.80679 0.0
O103 O 0.97457 0.08725 0.74607 0.0
H104 H 0.92311 0.87769 0.77317 0.0
H105 H 0.93196 0.81585 0.71791 0.0
H106 H 0.03645 0.90476 0.52594 0.0
H107 H 0.02815 0.96644 0.58122 0.0
H108 H 0.09162 0.2246 0.96609 0.0
H109 H 0.08413 0.28784 0.01708 0.0
H110 H 0.0076 0.19954 0.27553 0.0
H111 H 0.01486 0.13614 0.22546 0.0
Nd112 Nd 0.50565 0.99202 0.83977 0.0
Nd113 Nd 0.50056 0.05788 0.94294 0.0
C114 C 0.515 0.93036 0.76288 0.0
C115 C 0.55046 0.93342 0.69929 0.0
C116 C 0.57682 0.90959 0.73668 0.0
C117 C 0.61336 0.91724 0.68249 0.0
C118 C 0.62376 0.94829 0.58924 0.0
C119 C 0.59719 0.97139 0.55101 0.0
C120 C 0.56113 0.96434 0.6056 0.0
C121 C 0.51706 0.07393 0.7087 0.0
C122 C 0.58882 0.05125 0.90337 0.0
C123 C 0.49799 0.1238 0.01501 0.0
C124 C 0.46674 0.13059 0.07504 0.0
C125 C 0.42823 0.12809 0.04179 0.0
C126 C 0.39726 0.12795 0.10563 0.0
C127 C 0.40414 0.12939 0.20404 0.0
C128 C 0.44306 0.13449 0.23543 0.0
C129 C 0.47417 0.1353 0.17127 0.0
C130 C 0.48532 0.97445 0.07169 0.0
C131 C 0.41665 0.99698 0.89269 0.0
O132 O 0.52142 0.93062 0.85502 0.0
O133 O 0.49308 0.95513 0.72445 0.0
O134 O 0.53872 0.04888 0.70441 0.0
O135 O 0.49153 0.05612 0.78336 0.0
O136 O 0.56941 0.01276 0.88858 0.0
O137 O 0.56955 0.07926 0.90791 0.0
O138 O 0.49119 0.12279 0.92327 0.0
O139 O 0.51329 0.09345 0.06038 0.0
O140 O 0.46481 1.00068 0.076 0.0
O141 O 0.51244 0.99246 1.00032 0.0
O142 O 0.43611 0.03615 0.90408 0.0
O143 O 0.43651 0.97023 0.88016 0.0
H144 H 0.56969 0.88597 0.80909 0.0
H145 H 0.63353 0.89905 0.71311 0.0
H146 H 0.60467 0.99545 0.47917 0.0
H147 H 0.54211 0.98397 0.57499 0.0
H148 H 0.42146 0.12433 0.96812 0.0
H149 H 0.36736 0.12407 0.08034 0.0
H150 H 0.44888 0.13585 0.31101 0.0
H151 H 0.50358 0.13748 0.19849 0.0
Nd152 Nd 0.4926 0.5512 0.03212 0.0
Nd153 Nd 0.53623 0.53954 0.8593 0.0
C154 C 0.46276 0.58329 0.15636 0.0
C155 C 0.49074 0.62135 0.18294 0.0
C156 C 0.48173 0.63776 0.26036 0.0
C157 C 0.51039 0.67425 0.28088 0.0
C158 C 0.54804 0.69403 0.22459 0.0
C159 C 0.55708 0.67698 0.14883 0.0
C160 C 0.52852 0.64138 0.12753 0.0
C161 C 0.57399 0.56547 0.04753 0.0
C162 C 0.51607 0.63034 0.82176 0.0
C163 C 0.59466 0.53025 0.75598 0.0
C164 C 0.60426 0.49308 0.73557 0.0
C165 C 0.60763 0.45814 0.81355 0.0
C166 C 0.60331 0.41734 0.79631 0.0
C167 C 0.59562 0.4118 0.70122 0.0
C168 C 0.59839 0.44827 0.62106 0.0
C169 C 0.60285 0.48891 0.63815 0.0
C170 C 0.45529 0.52111 0.83809 0.0
C171 C 0.49674 0.45191 0.05164 0.0
O172 O 0.45587 0.59158 0.06261 0.0
O173 O 0.47163 0.54674 0.18638 0.0
O174 O 0.5476 0.55161 0.12241 0.0
O175 O 0.55744 0.57718 0.96969 0.0
O176 O 0.49084 0.61041 0.9023 0.0
O177 O 0.54189 0.61243 0.79577 0.0
O178 O 0.59723 0.53372 0.84733 0.0
O179 O 0.56234 0.53725 0.71737 0.0
O180 O 0.48311 0.53653 0.76421 0.0
O181 O 0.46972 0.51132 0.9213 0.0
O182 O 0.52011 0.46959 0.96701 0.0
O183 O 0.47774 0.47515 0.08693 0.0
H184 H 0.45286 0.62271 0.30404 0.0
H185 H 0.50327 0.68725 0.33999 0.0
H186 H 0.58594 0.6918 0.10493 0.0
H187 H 0.53591 0.62963 0.06663 0.0
H188 H 0.61021 0.46117 0.88883 0.0
H189 H 0.60179 0.38935 0.85833 0.0
H190 H 0.59313 0.4443 0.54687 0.0
H191 H 0.60114 0.5158 0.57685 0.0
Nd192 Nd 0.02828 0.59268 0.78177 0.0
Nd193 Nd 0.03262 0.53232 0.9545 0.0
C194 C 0.00651 0.64886 0.63936 0.0
C195 C 0.97389 0.6414 0.57266 0.0
C196 C 0.9455 0.66388 0.56788 0.0
C197 C 0.912 0.65377 0.51306 0.0
C198 C 0.90637 0.62074 0.46328 0.0
C199 C 0.93474 0.5984 0.46743 0.0
C200 C 0.96823 0.60855 0.52185 0.0
C201 C 0.02639 0.51429 0.73932 0.0
C202 C 0.9438 0.53214 0.91728 0.0
C203 C 0.05861 0.47857 0.09427 0.0
C204 C 0.09723 0.48563 0.14248 0.0
C205 C 0.1342 0.49327 0.089 0.0
C206 C 0.1707 0.5038 0.1335 0.0
C207 C 0.17086 0.50687 0.23209 0.0
C208 C 0.13405 0.49832 0.28612 0.0
C209 C 0.09769 0.48805 0.24168 0.0
C210 C 0.03168 0.60908 0.99915 0.0
C211 C 0.11584 0.59513 0.81458 0.0
O212 O 0.99438 0.63995 0.73292 0.0
O213 O 0.03644 0.63442 0.62641 0.0
O214 O 0.04664 0.55325 0.68783 0.0
O215 O 0.00659 0.51636 0.81357 0.0
O216 O 0.96303 0.56759 0.84723 0.0
O217 O 0.9634 0.50613 0.96566 0.0
O218 O 0.05984 0.47849 1.00077 0.0
O219 O 0.03536 0.50013 0.11372 0.0
O220 O 0.01056 0.56968 0.04765 0.0
O221 O 0.0528 0.608 0.9256 0.0
O222 O 0.09625 0.55608 0.8728 0.0
O223 O 0.09619 0.62283 0.78013 0.0
H224 H 0.94885 0.68863 0.60819 0.0
H225 H 0.89027 0.67128 0.51029 0.0
H226 H 0.93075 0.57286 0.42912 0.0
H227 H 0.98915 0.59 0.52581 0.0
H228 H 0.13511 0.49208 0.01216 0.0
H229 H 0.19882 0.51019 0.09074 0.0
H230 H 0.13354 0.50044 0.36239 0.0
H231 H 0.06997 0.48321 0.28416 0.0
C232 C 0.19275 0.11159 0.71571 0.0
C233 C 0.19643 0.07509 0.68483 0.0
C234 C 0.12333 0.0393 0.71356 0.0
C235 C 0.11914 0.07726 0.73718 0.0
N236 N 0.14864 0.15141 0.75054 0.0
N237 N 0.16552 0.00771 0.63829 0.0
C238 C 0.15356 0.11399 0.73545 0.0
C239 C 0.16178 0.03995 0.67917 0.0
N240 N 0.22673 0.14329 0.7285 0.0
N241 N 0.0908 1.00195 0.72693 0.0
H242 H 0.19328 0.00656 0.6137 0.0
H243 H 0.14102 0.98415 0.62086 0.0
H244 H 0.06171 0.99991 0.74922 0.0
H245 H 0.09306 0.97167 0.72358 0.0
H246 H 0.22629 0.16827 0.76086 0.0
H247 H 0.25581 0.143 0.71253 0.0
H248 H 0.17202 0.18103 0.74006 0.0
H249 H 0.1204 0.15371 0.76737 0.0
C250 C 0.53715 0.17088 0.47464 0.0
C251 C 0.4984 0.17598 0.46896 0.0
C252 C 0.471 0.10436 0.59143 0.0
C253 C 0.51082 0.10607 0.61755 0.0
N254 N 0.58282 0.14191 0.58031 0.0
N255 N 0.42749 0.14663 0.51909 0.0
C256 C 0.54431 0.13896 0.55643 0.0
C257 C 0.46487 0.14185 0.52501 0.0
N258 N 0.56745 0.19877 0.40494 0.0
N259 N 0.43935 0.06658 0.62671 0.0
H260 H 0.4224 0.17326 0.46848 0.0
H261 H 0.40254 0.12564 0.56732 0.0
H262 H 0.44315 0.03725 0.66781 0.0
H263 H 0.41036 0.06279 0.60404 0.0
H264 H 0.59597 0.19533 0.39992 0.0
H265 H 0.56228 0.22275 0.34633 0.0
H266 H 0.60806 0.16798 0.54447 0.0
H267 H 0.58955 0.12025 0.64106 0.0
C268 C 0.3572 0.49135 0.71498 0.0
C269 C 0.345 0.52799 0.72139 0.0
C270 C 0.39208 0.53939 0.84872 0.0
C271 C 0.41172 0.5123 0.82145 0.0
N272 N 0.41223 0.46033 0.72838 0.0
N273 N 0.36125 0.59436 0.7785 0.0
C274 C 0.39401 0.48748 0.75433 0.0
C275 C 0.36492 0.55393 0.78497 0.0
N276 N 0.33315 0.45955 0.67566 0.0
N277 N 0.3999 0.55187 0.93405 0.0
H278 H 0.34712 0.60969 0.72146 0.0
H279 H 0.37747 0.61496 0.82032 0.0
H280 H 0.41648 0.53717 0.98544 0.0
H281 H 0.38498 0.57075 0.95873 0.0
H282 H 0.33946 0.43074 0.67579 0.0
H283 H 0.30466 0.45965 0.65375 0.0
H284 H 0.40303 0.44501 0.67171 0.0
H285 H 0.43756 0.45472 0.76158 0.0
C286 C 0.97766 0.42796 0.59659 0.0
C287 C 0.01131 0.41484 0.5762 0.0
C288 C 0.05143 0.46053 0.67915 0.0
C289 C 0.01874 0.47608 0.69387 0.0
N290 N 0.95292 0.48022 0.65172 0.0
N291 N 0.08204 0.42364 0.58607 0.0
C292 C 0.98235 0.46118 0.64881 0.0
C293 C 0.04875 0.43274 0.61393 0.0
N294 N 0.94085 0.40802 0.56746 0.0
N295 N 0.08473 0.47126 0.73056 0.0
H296 H 0.08105 0.40299 0.54 0.0
H297 H 0.1112 0.43933 0.6014 0.0
H298 H 0.08758 0.49111 0.77928 0.0
H299 H 0.10781 0.45742 0.73224 0.0
H300 H 0.91411 0.41188 0.59025 0.0
H301 H 0.93669 0.38542 0.52494 0.0
H302 H 0.92793 0.4749 0.61031 0.0
H303 H 0.95481 0.50394 0.6901 0.0
C304 C 0.82905 0.99806 0.99117 0.0
C305 C 0.82338 0.99621 0.09313 0.0
C306 C 0.89556 0.01021 0.10707 0.0
C307 C 0.90219 0.02433 1.00173 0.0
N308 N 0.87536 0.02332 0.84274 0.0
N309 N 0.84745 0.95978 0.24075 0.0
C310 C 0.86894 0.01507 0.94331 0.0
C311 C 0.85543 0.99066 0.15144 0.0
N312 N 0.79696 0.97854 0.94471 0.0
N313 N 0.92722 0.01499 0.16515 0.0
H314 H 0.81849 0.93736 0.26309 0.0
H315 H 0.87002 0.95178 0.28283 0.0
H316 H 0.95729 0.02684 0.1361 0.0
H317 H 0.92314 0.00887 0.24222 0.0
H318 H 0.79933 0.97519 0.87288 0.0
H319 H 0.76867 0.96127 0.98359 0.0
H320 H 0.85233 0.02237 0.79513 0.0
H321 H 0.90412 0.0325 0.80698 0.0
C322 C 0.50783 0.91537 0.33048 0.0
C323 C 0.50815 0.87517 0.31296 0.0
C324 C 0.48255 0.896 0.1489 0.0
C325 C 0.48865 0.93901 0.15975 0.0
N326 N 0.50896 0.99063 0.26074 0.0
N327 N 0.49357 0.82513 0.20889 0.0
C328 C 0.50085 0.9487 0.25141 0.0
C329 C 0.49426 0.86471 0.22349 0.0
N330 N 0.51465 0.9219 0.42264 0.0
N331 N 0.46473 0.88488 0.06787 0.0
H332 H 0.48948 0.81747 0.1409 0.0
H333 H 0.4986 0.80013 0.26492 0.0
H334 H 0.45563 0.90692 0.01259 0.0
H335 H 0.45591 0.85311 0.05889 0.0
H336 H 0.52147 0.89901 0.48061 0.0
H337 H 0.50972 0.94787 0.4444 0.0
H338 H 0.52289 1.00107 0.32012 0.0
H339 H 0.50512 0.01646 0.2055 0.0
C340 C 0.65742 0.51409 0.12688 0.0
C341 C 0.69206 0.54906 0.07969 0.0
C342 C 0.64937 0.59225 0.99793 0.0
C343 C 0.61457 0.55893 0.05344 0.0
N344 N 0.58667 0.48883 0.17906 0.0
N345 N 0.72268 0.62271 0.97623 0.0
C346 C 0.61896 0.52013 0.12016 0.0
C347 C 0.68849 0.58833 0.01587 0.0
N348 N 0.66117 0.47426 0.17618 0.0
N349 N 0.64534 0.62816 0.92965 0.0
H350 H 0.75164 0.6205 0.98565 0.0
H351 H 0.72273 0.65425 0.93919 0.0
H352 H 0.61838 0.63533 0.92115 0.0
H353 H 0.66853 0.65019 0.87758 0.0
H354 H 0.63672 0.44565 0.20195 0.0
H355 H 0.68892 0.46862 0.18403 0.0
H356 H 0.58965 0.46557 0.24219 0.0
H357 H 0.55675 0.48519 0.16573 0.0
C358 C 0.05863 0.6747 0.19617 0.0
C359 C 0.03557 0.704 0.16868 0.0
C360 C 0.02094 0.67912 0.01582 0.0
C361 C 0.03949 0.64618 0.0487 0.0
N362 N 0.07411 0.61039 0.17513 0.0
N363 N 0.98693 0.72576 0.06244 0.0
C364 C 0.05765 0.64326 0.1407 0.0
C365 C 0.01447 0.70369 0.08132 0.0
N366 N 0.08299 0.67815 0.27228 0.0
N367 N 0.01024 0.68771 0.9207 0.0
H368 H 0.9798 0.74214 0.11114 0.0
H369 H 0.96794 0.72345 1.0051 0.0
H370 H 0.01657 0.67156 0.8707 0.0
H371 H 0.99972 0.71392 0.88892 0.0
H372 H 0.10384 0.66124 0.2891 0.0
H373 H 0.08464 0.7005 0.31432 0.0
H374 H 0.08306 0.60266 0.24688 0.0
H375 H 0.07729 0.58952 0.13285 0.0
C376 C 0.02697 0.24551 0.61365 0.0
C377 C 0.99024 0.25485 0.62001 0.0
C378 C 0.9555 0.17762 0.7063 0.0
C379 C 0.99154 0.16779 0.69169 0.0
N380 N 0.05817 0.1903 0.60857 0.0
N381 N 0.9187 0.22905 0.67179 0.0
C382 C 0.02629 0.20123 0.63848 0.0
C383 C 0.95437 0.22093 0.66538 0.0
N384 N 0.06258 0.27918 0.5842 0.0
N385 N 0.92221 0.14606 0.76017 0.0
H386 H 0.91542 0.26014 0.64489 0.0
H387 H 0.91542 0.26014 0.64489 0.0
H388 H 0.92143 0.11384 0.79283 0.0
H389 H 0.89553 0.1526 0.77285 0.0
H390 H 0.09071 0.27441 0.587 0.0
H391 H 0.0643 0.31231 0.5665 0.0
H392 H 0.08281 0.21284 0.56146 0.0
H393 H 0.0578 0.15772 0.62176 0.0
C394 C 0.32605 0.03032 0.87345 0.0
C395 C 0.31131 0.01669 0.78805 0.0
C396 C 0.35333 0.96818 0.80896 0.0
C397 C 0.3724 0.9874 0.88342 0.0
N398 N 0.36266 0.01641 0.01945 0.0
N399 N 0.30251 0.96231 0.69407 0.0
C400 C 0.35328 0.0111 0.9275 0.0
C401 C 0.32164 0.98192 0.7634 0.0
N402 N 0.31742 0.06425 0.89775 0.0
N403 N 0.36518 0.93705 0.78052 0.0
H404 H 0.27818 0.96968 0.65893 0.0
H405 H 0.27818 0.96968 0.65893 0.0
H406 H 0.38502 0.92233 0.81909 0.0
H407 H 0.35276 0.92387 0.72266 0.0
H408 H 0.33148 0.07868 0.95222 0.0
H409 H 0.29846 0.08028 0.85912 0.0
H410 H 0.34771 0.03072 0.05902 0.0
H411 H 0.38253 1.002 0.05953 0.0
C412 C 0.58067 0.32614 0.56751 0.0
C413 C 0.53782 0.31071 0.5749 0.0
C414 C 0.53435 0.34953 0.69948 0.0
C415 C 0.57708 0.36798 0.68563 0.0
N416 N 0.64122 0.36469 0.6343 0.0
N417 N 0.47438 0.29569 0.66677 0.0
C418 C 0.60035 0.35264 0.62951 0.0
C419 C 0.5148 0.31818 0.64795 0.0
N420 N 0.60223 0.31737 0.49785 0.0
N421 N 0.51244 0.36456 0.75539 0.0
H422 H 0.45919 0.27305 0.62827 0.0
H423 H 0.45663 0.29657 0.72572 0.0
H424 H 0.52564 0.38634 0.79744 0.0
H425 H 0.48119 0.35692 0.75714 0.0
H426 H 0.6333 0.3316 0.48156 0.0
H427 H 0.58877 0.29731 0.45221 0.0
H428 H 0.66009 0.35234 0.60072 0.0
H429 H 0.65566 0.38429 0.68011 0.0
C430 C 0.18205 0.56553 0.66147 0.0
C431 C 0.22025 0.57669 0.70105 0.0
C432 C 0.19043 0.60571 0.81777 0.0
C433 C 0.15527 0.60049 0.76548 0.0
N434 N 0.12632 0.59094 0.61248 0.0
N435 N 0.2625 0.61932 0.80259 0.0
C436 C 0.15429 0.58614 0.67841 0.0
C437 C 0.22514 0.60014 0.77579 0.0
N438 N 0.17055 0.53455 0.60961 0.0
N439 N 0.19079 0.61599 0.90658 0.0
H440 H 0.28882 0.61979 0.76701 0.0
H441 H 0.26735 0.6392 0.8516 0.0
H442 H 0.16638 0.62218 0.93623 0.0
H443 H 0.21438 0.61585 0.95229 0.0
H444 H 0.18714 0.514 0.60186 0.0
H445 H 0.18714 0.514 0.60186 0.0
H446 H 0.12448 0.57913 0.54928 0.0
H447 H 0.10908 0.61137 0.6154 0.0
C448 C 0.08683 0.89732 0.09747 0.0
C449 C 0.05179 0.86128 0.13882 0.0
C450 C 0.01029 0.90988 0.10958 0.0
C451 C 0.04439 0.94511 0.06034 0.0
N452 N 0.11404 0.97259 0.99433 0.0
N453 N 0.97897 0.83112 0.16406 0.0
C454 C 0.08252 0.93902 0.05055 0.0
C455 C 0.0131 0.86697 0.13833 0.0
N456 N 0.12397 0.89185 0.10509 0.0
N457 N 0.97529 0.91766 0.12987 0.0
H458 H 0.97967 0.79886 0.18463 0.0
H459 H 0.94992 0.8331 0.1558 0.0
H460 H 0.97236 0.94911 0.11016 0.0
H461 H 0.95063 0.89388 0.1747 0.0
H462 H 0.15095 0.91785 0.08567 0.0
H463 H 0.12767 0.86123 0.13596 0.0
H464 H 0.14128 0.96876 0.97514 0.0
H465 H 0.11205 0.00392 0.96231 0.0
C466 C 0.65618 0.01113 0.07911 0.0
C467 C 0.69561 0.0394 0.04133 0.0
C468 C 0.6656 0.07863 0.90331 0.0
C469 C 0.62674 0.05422 0.95261 0.0
N470 N 0.58893 0.01148 0.10897 0.0
N471 N 0.73755 0.10529 0.92254 0.0
C472 C 0.62321 0.02483 0.0472 0.0
C473 C 0.70049 0.07477 0.95419 0.0
N474 N 0.65003 0.97109 0.14538 0.0
N475 N 0.66911 0.10499 0.80909 0.0
H476 H 0.7632 0.10402 0.95973 0.0
H477 H 0.74203 0.13361 0.86441 0.0
H478 H 0.64393 0.10917 0.77275 0.0
H479 H 0.69658 0.12041 0.76596 0.0
H480 H 0.62119 0.94906 0.17073 0.0
H481 H 0.6735 0.95818 0.16509 0.0
H482 H 0.5863 0.99174 0.18155 0.0
H483 H 0.56651 0.02624 0.09274 0.0
C484 C 0.62366 0.76724 0.35415 0.0
C485 C 0.61446 0.80616 0.31192 0.0
C486 C 0.58396 0.77566 0.17958 0.0
C487 C 0.57799 0.73303 0.24405 0.0
N488 N 0.60091 0.68771 0.38156 0.0
N489 N 0.62094 0.85271 0.14546 0.0
C490 C 0.60139 0.72842 0.32725 0.0
C491 C 0.60698 0.81237 0.21088 0.0
N492 N 0.65088 0.76754 0.42386 0.0
N493 N 0.56733 0.78155 0.09077 0.0
H494 H 0.63939 0.88001 0.16633 0.0
H495 H 0.63939 0.88001 0.16633 0.0
H496 H 0.54943 0.75547 0.06514 0.0
H497 H 0.5711 0.81295 0.04443 0.0
H498 H 0.66039 0.74059 0.45555 0.0
H499 H 0.66527 0.79651 0.44426 0.0
H500 H 0.61467 0.68251 0.44777 0.0
H501 H 0.58564 0.65906 0.36111 0.0
C502 C 0.83165 0.48422 0.01493 0.0
C503 C 0.82248 0.52395 1.00362 0.0
C504 C 0.89192 0.5665 0.94585 0.0
C505 C 0.90151 0.52737 0.94895 0.0
N506 N 0.87702 0.44901 0.96476 0.0
N507 N 0.84024 0.60148 0.9237 0.0
C508 C 0.87029 0.486 0.97667 0.0
C509 C 0.85123 0.56439 0.95426 0.0
N510 N 0.804 0.44525 0.06486 0.0
N511 N 0.92136 0.60489 0.94604 0.0
H512 H 0.81031 0.60076 0.93077 0.0
H513 H 0.86018 0.63146 0.88216 0.0
H514 H 0.95123 0.60663 0.95656 0.0
H515 H 0.91506 0.63312 0.95136 0.0
H516 H 0.81042 0.41565 0.08516 0.0
H517 H 0.7751 0.44341 0.08932 0.0
H518 H 0.85428 0.41878 0.97681 0.0
H519 H 0.90441 0.44955 0.93387 0.0
C520 C 0.99828 0.32785 0.22583 0.0
C521 C 0.02643 0.34456 0.29076 0.0
C522 C 0.07208 0.30834 0.24068 0.0
C523 C 0.04183 0.28722 0.18507 0.0
N524 N 0.98148 0.28627 0.10154 0.0
N525 N 0.09495 0.36421 0.33198 0.0
C526 C 0.00676 0.30045 0.1694 0.0
C527 C 0.06527 0.3398 0.287 0.0
N528 N 0.96218 0.33577 0.22482 0.0
N529 N 0.1062 0.29639 0.25412 0.0
H530 H 0.09002 0.38722 0.36554 0.0
H531 H 0.12484 0.36476 0.32813 0.0
H532 H 0.11247 0.2742 0.22004 0.0
H533 H 0.12735 0.30659 0.30276 0.0
H534 H 0.93786 0.32103 0.18872 0.0
H535 H 0.95665 0.35698 0.26336 0.0
H536 H 0.95686 0.29686 0.08084 0.0
H537 H 0.98703 0.26611 0.06014 0.0
C538 C 0.31346 0.06875 0.3939 0.0
C539 C 0.31372 0.10194 0.44128 0.0
C540 C 0.36604 0.15588 0.31492 0.0
C541 C 0.37007 0.12102 0.27795 0.0
N542 N 0.34607 0.0429 0.28402 0.0
N543 N 0.33982 0.17721 0.44938 0.0
C544 C 0.34319 0.0775 0.31645 0.0
C545 C 0.33934 0.14585 0.40129 0.0
N546 N 0.2858 0.02762 0.42635 0.0
N547 N 0.38756 0.19844 0.26692 0.0
H548 H 0.31986 0.17105 0.51095 0.0
H549 H 0.36111 0.20853 0.43163 0.0
H550 H 0.40748 0.2066 0.20408 0.0
H551 H 0.38327 0.22567 0.28393 0.0
H552 H 0.28516 1.002 0.39472 0.0
H553 H 0.26262 0.0199 0.48174 0.0
H554 H 0.36789 0.04514 0.23011 0.0
H555 H 0.36789 0.04514 0.23011 0.0
C556 C 0.45369 0.33771 0.23705 0.0
C557 C 0.48716 0.32172 0.24292 0.0
C558 C 0.52599 0.38823 0.11535 0.0
C559 C 0.49243 0.40493 0.10908 0.0
N560 N 0.42019 0.38631 0.13875 0.0
N561 N 0.54936 0.32453 0.16467 0.0
C562 C 0.45492 0.37675 0.16213 0.0
C563 C 0.52102 0.34438 0.17304 0.0
N564 N 0.42124 0.31645 0.30565 0.0
N565 N 0.56369 0.41482 0.07428 0.0
H566 H 0.54676 0.29289 0.20761 0.0
H567 H 0.57276 0.33729 0.10818 0.0
H568 H 0.57085 0.44796 0.03772 0.0
H569 H 0.58947 0.40537 0.08633 0.0
H570 H 0.39798 0.32926 0.31312 0.0
H571 H 0.41888 0.28695 0.35852 0.0
H572 H 0.39166 0.36517 0.16953 0.0
H573 H 0.41948 0.41269 0.07989 0.0
C574 C 0.24657 0.49846 0.423 0.0
C575 C 0.26723 0.54353 0.41406 0.0
C576 C 0.23195 0.56445 0.26698 0.0
C577 C 0.20922 0.51934 0.28057 0.0
N578 N 0.20332 0.44316 0.34932 0.0
N579 N 0.28907 0.61807 0.31316 0.0
C580 C 0.21963 0.48615 0.35106 0.0
C581 C 0.26329 0.57605 0.33009 0.0
N582 N 0.25053 0.46859 0.50646 0.0
N583 N 0.22196 0.59618 0.19796 0.0
H584 H 0.312 0.6265 0.35952 0.0
H585 H 0.29013 0.64316 0.24973 0.0
H586 H 0.19969 0.58876 0.14958 0.0
H587 H 0.23428 0.62976 0.19159 0.0
H588 H 0.23406 0.43512 0.52598 0.0
H589 H 0.23406 0.43512 0.52598 0.0
H590 H 0.21229 0.41756 0.39228 0.0
H591 H 0.1835 0.4338 0.29706 0.0
C592 C 0.02954 0.77575 0.53655 0.0
C593 C 0.00601 0.76699 0.45695 0.0
C594 C 0.96204 0.8065 0.50017 0.0
C595 C 0.98791 0.81909 0.57365 0.0
N596 N 0.03883 0.80539 0.68134 0.0
N597 N 0.94278 0.76035 0.38586 0.0
C598 C 0.01912 0.79998 0.59868 0.0
C599 C 0.96942 0.7772 0.4482 0.0
N600 N 0.06334 0.76322 0.54779 0.0
N601 N 0.93226 0.82502 0.47471 0.0
H602 H 0.94852 0.73978 0.34609 0.0
H603 H 0.91393 0.76314 0.38092 0.0
H604 H 0.92573 0.84643 0.51077 0.0
H605 H 0.91562 0.82146 0.41376 0.0
H606 H 0.08484 0.7724 0.59652 0.0
H607 H 0.07003 0.74405 0.50514 0.0
H608 H 0.05977 0.78976 0.7087 0.0
H609 H 0.03167 0.82296 0.72736 0.0
C610 C 0.6974 0.94239 0.39777 0.0
C611 C 0.72527 0.9858 0.37628 0.0
C612 C 0.6938 0.99791 0.51996 0.0
C613 C 0.66234 0.95744 0.52966 0.0
N614 N 0.63775 0.88836 0.48344 0.0
N615 N 0.75303 0.05378 0.421 0.0
C616 C 0.66565 0.92874 0.47235 0.0
C617 C 0.72487 0.01289 0.44035 0.0
N618 N 0.6984 0.91367 0.34366 0.0
N619 N 0.69365 0.02171 0.58699 0.0
H620 H 0.77689 0.06415 0.36602 0.0
H621 H 0.75258 0.07759 0.45708 0.0
H622 H 0.67139 0.01101 0.646 0.0
H623 H 0.71668 0.05017 0.58902 0.0
H624 H 0.72034 0.92023 0.28611 0.0
H625 H 0.72034 0.92023 0.28611 0.0
H626 H 0.61252 0.87524 0.53496 0.0
H627 H 0.61252 0.87524 0.53496 0.0
C628 C 0.49324 0.7109 0.59819 0.0
C629 C 0.51869 0.75188 0.60922 0.0
C630 C 0.53759 0.7138 0.7688 0.0
C631 C 0.51368 0.67265 0.75516 0.0
N632 N 0.46004 0.63302 0.6729 0.0
N633 N 0.55616 0.79397 0.71493 0.0
C634 C 0.48854 0.67163 0.67513 0.0
C635 C 0.53772 0.75372 0.69858 0.0
N636 N 0.47558 0.70912 0.51125 0.0
N637 N 0.56123 0.71457 0.84678 0.0
H638 H 0.55558 0.8231 0.66479 0.0
H639 H 0.56851 0.79843 0.78084 0.0
H640 H 0.56102 0.68604 0.90026 0.0
H641 H 0.58239 0.74299 0.85623 0.0
H642 H 0.46099 0.67985 0.49293 0.0
H643 H 0.47712 0.73715 0.45466 0.0
H644 H 0.43786 0.6306 0.62291 0.0
H645 H 0.45628 0.60389 0.72751 0.0
C646 C 0.80631 0.55665 0.38758 0.0
C647 C 0.80954 0.57937 0.28571 0.0
C648 C 0.87387 0.6324 0.3032 0.0
C649 C 0.87106 0.60954 0.40497 0.0
N650 N 0.83149 0.55624 0.5501 0.0
N651 N 0.83945 0.64491 0.15302 0.0
C652 C 0.83602 0.57381 0.44934 0.0
C653 C 0.84094 0.61958 0.24614 0.0
N654 N 0.77604 0.51766 0.42358 0.0
N655 N 0.90894 0.66446 0.25958 0.0
H656 H 0.81563 0.63603 0.10941 0.0
H657 H 0.85955 0.67644 0.12301 0.0
H658 H 0.93408 0.67425 0.29856 0.0
H659 H 0.91434 0.67879 0.18328 0.0
H660 H 0.77454 0.49664 0.49399 0.0
H661 H 0.75309 0.50537 0.38065 0.0
H662 H 0.80515 0.53277 0.58821 0.0
H663 H 0.85313 0.56768 0.59685 0.0
loop_
_geom_bond_atom_site_label_1
_geom_bond_atom_site_label_2
_geom_bond_distance
_geom_bond_site_symmetry_2
_ccdc_geom_bond_type
H0 C3 0.931 . S
H1 C6 0.928 . S
H2 C8 0.930 . S
C3 H0 0.931 . S
C3 C4 1.413 . S
C3 C5 1.360 1_554 S
C4 C3 1.413 . S
C4 C8 1.429 . S
C5 C3 1.360 1_556 S
C5 C6 1.372 . S
C6 H1 0.928 . S
C6 C5 1.372 . S
C6 C7 1.404 . S
C7 C6 1.404 . S
C7 C8 1.391 1_556 S
C8 H2 0.930 . S
C8 C4 1.429 . S
C8 C7 1.391 1_554 S
H9 C12 0.931 . S
H10 C15 0.928 . S
H11 C17 0.930 . S
C12 H9 0.931 . S
C12 C13 1.413 . S
C12 C14 1.359 1_554 S
C13 C12 1.413 . S
C13 C17 1.429 . S
C14 C12 1.359 1_556 S
C14 C15 1.372 . S
C15 H10 0.928 . S
C15 C14 1.372 . S
C15 C16 1.404 1_556 S
C16 C15 1.404 1_554 S
C16 C17 1.391 . S
C17 H11 0.930 . S
C17 C13 1.429 . S
C17 C16 1.391 . S
H18 C21 0.931 . S
H19 C24 0.928 . S
H20 C26 0.930 . S
C21 H18 0.931 . S
C21 C22 1.413 . S
C21 C23 1.360 1_554 S
C22 C21 1.413 . S
C22 C26 1.429 . S
C23 C21 1.360 1_556 S
C23 C24 1.372 . S
C24 H19 0.928 . S
C24 C23 1.372 . S
C24 C25 1.404 1_556 S
C25 C24 1.404 1_554 S
C25 C26 1.391 . S
C26 H20 0.930 . S
C26 C22 1.429 . S
C26 C25 1.391 . S
H27 C30 0.931 . S
H28 C33 0.928 . S
H29 C35 0.930 . S
C30 H27 0.931 . S
C30 C31 1.413 . S
C30 C32 1.360 . S
C31 C30 1.413 . S
C31 C35 1.429 . S
C32 C30 1.360 . S
C32 C33 1.372 . S
C33 H28 0.928 . S
C33 C32 1.372 . S
C33 C34 1.404 . S
C34 C33 1.404 . S
C34 C35 1.391 . S
C35 H29 0.930 . S
C35 C31 1.429 . S
C35 C34 1.391 . S
H36 C39 0.931 . S
H37 C42 0.928 . S
H38 C44 0.930 . S
C39 H36 0.931 . S
C39 C40 1.413 . S
C39 C41 1.360 . S
C40 C39 1.413 . S
C40 C44 1.429 . S
C41 C39 1.360 . S
C41 C42 1.372 . S
C42 H37 0.928 . S
C42 C41 1.372 . S
C42 C43 1.404 . S
C43 C42 1.404 . S
C43 C44 1.391 . S
C44 H38 0.930 . S
C44 C40 1.429 . S
C44 C43 1.391 . S
H45 C48 0.931 . S
H46 C51 0.928 . S
H47 C53 0.930 . S
C48 H45 0.931 . S
C48 C49 1.413 . S
C48 C50 1.360 . S
C49 C48 1.413 . S
C49 C53 1.429 . S
C50 C48 1.360 . S
C50 C51 1.372 . S
C51 H46 0.928 . S
C51 C50 1.372 . S
C51 C52 1.404 . S
C52 C51 1.404 . S
C52 C53 1.391 . S
C53 H47 0.930 . S
C53 C49 1.429 . S
C53 C52 1.391 . S
H54 C57 0.931 . S
H55 C60 0.928 . S
H56 C62 0.930 . S
C57 H54 0.931 . S
C57 C58 1.413 . S
C57 C59 1.360 . S
C58 C57 1.413 . S
C58 C62 1.429 . S
C59 C57 1.360 . S
C59 C60 1.372 . S
C60 H55 0.928 . S
C60 C59 1.372 . S
C60 C61 1.404 . S
C61 C60 1.404 . S
C61 C62 1.391 . S
C62 H56 0.930 . S
C62 C58 1.429 . S
C62 C61 1.391 . S
H63 C66 0.931 . S
H64 C69 0.928 . S
H65 C71 0.930 . S
C66 H63 0.931 . S
C66 C67 1.413 . S
C66 C68 1.360 . S
C67 C66 1.413 . S
C67 C71 1.429 . S
C68 C66 1.360 . S
C68 C69 1.372 . S
C69 H64 0.928 . S
C69 C68 1.372 . S
C69 C70 1.404 . S
C70 C69 1.404 . S
C70 C71 1.391 . S
C71 H65 0.930 . S
C71 C67 1.429 . S
C71 C70 1.391 . S
Nd72 C74 2.836 1_445 S
Nd72 O92 2.500 1_445 S
Nd72 O93 2.492 . S
Nd72 O94 2.487 . S
Nd72 O95 2.682 . S
Nd72 O96 2.410 1_545 S
Nd72 O101 2.414 1_455 S
Nd72 O103 2.424 . S
Nd73 C83 2.836 . S
Nd73 O95 2.414 1_554 S
Nd73 O97 2.424 1_545 S
Nd73 O98 2.500 . S
Nd73 O99 2.492 . S
Nd73 O100 2.487 1_455 S
Nd73 O101 2.682 1_454 S
Nd73 O102 2.410 1_554 S
C74 Nd72 2.836 1_665 S
C74 C75 1.498 . S
C74 O92 1.258 . S
C74 O93 1.239 1_665 S
C75 C74 1.498 . S
C75 C76 1.366 . S
C75 C80 1.407 1_655 S
C76 C75 1.366 . S
C76 C77 1.392 . S
C76 H104 0.930 . S
C77 C76 1.392 . S
C77 C78 1.398 . S
C77 H105 0.929 . S
C78 C77 1.398 . S
C78 C79 1.352 . S
C79 C78 1.352 . S
C79 C80 1.384 1_655 S
C79 H106 0.930 1_655 S
C80 C75 1.407 1_455 S
C80 C79 1.384 1_455 S
C80 H107 0.929 . S
C81 O94 1.241 . S
C81 O95 1.273 . S
C82 O96 1.251 . S
C82 O97 1.268 1_556 S
C83 Nd73 2.836 . S
C83 C84 1.498 . S
C83 O98 1.258 . S
C83 O99 1.239 . S
C84 C83 1.498 . S
C84 C85 1.366 . S
C84 C89 1.407 . S
C85 C84 1.366 . S
C85 C86 1.392 . S
C85 H108 0.930 . S
C86 C85 1.392 . S
C86 C87 1.398 . S
C86 H109 0.929 . S
C87 C86 1.398 . S
C87 C88 1.352 . S
C88 C87 1.352 . S
C88 C89 1.384 . S
C88 H110 0.930 . S
C89 C84 1.407 . S
C89 C88 1.384 . S
C89 H111 0.929 . S
C90 O100 1.241 1_556 S
C90 O101 1.273 . S
C91 O102 1.251 . S
C91 O103 1.268 . S
O92 Nd72 2.500 1_665 S
O92 C74 1.258 . S
O93 Nd72 2.492 . S
O93 C74 1.239 1_445 S
O94 Nd72 2.487 . S
O94 C81 1.241 . S
O95 Nd72 2.682 . S
O95 Nd73 2.414 1_556 S
O95 C81 1.273 . S
O96 Nd72 2.410 1_565 S
O96 C82 1.251 . S
O97 Nd73 2.424 1_565 S
O97 C82 1.268 1_554 S
O98 Nd73 2.500 . S
O98 C83 1.258 . S
O99 Nd73 2.492 . S
O99 C83 1.239 . S
O100 Nd73 2.487 1_655 S
O100 C90 1.241 1_554 S
O101 Nd72 2.414 1_655 S
O101 Nd73 2.682 1_656 S
O101 C90 1.273 . S
O102 Nd73 2.410 1_556 S
O102 C91 1.251 . S
O103 Nd72 2.424 . S
O103 C91 1.268 . S
H104 C76 0.930 . S
H105 C77 0.929 . S
H106 C79 0.930 1_455 S
H107 C80 0.929 . S
H108 C85 0.930 . S
H109 C86 0.929 . S
H110 C88 0.930 . S
H111 C89 0.929 . S
Nd112 C114 2.836 1_545 S
Nd112 O132 2.500 1_545 S
Nd112 O133 2.492 . S
Nd112 O134 2.487 . S
Nd112 O135 2.682 . S
Nd112 O136 2.410 . S
Nd112 O141 2.414 1_545 S
Nd112 O143 2.424 . S
Nd113 C123 2.836 1_556 S
Nd113 O135 2.414 . S
Nd113 O137 2.424 . S
Nd113 O138 2.500 1_556 S
Nd113 O139 2.492 1_556 S
Nd113 O140 2.490 1_556 S
Nd113 O141 2.682 1_545 S
Nd113 O142 2.410 . S
C114 Nd112 2.836 1_565 S
C114 C115 1.498 . S
C114 O132 1.258 . S
C114 O133 1.239 1_565 S
C115 C114 1.498 . S
C115 C116 1.366 . S
C115 C120 1.407 . S
C116 C115 1.366 . S
C116 C117 1.392 . S
C116 H144 0.930 . S
C117 C116 1.392 . S
C117 C118 1.398 . S
C117 H145 0.929 . S
C118 C117 1.398 . S
C118 C119 1.352 . S
C119 C118 1.352 . S
C119 C120 1.384 . S
C119 H146 0.930 . S
C120 C115 1.407 . S
C120 C119 1.384 . S
C120 H147 0.929 . S
C121 O134 1.241 . S
C121 O135 1.273 . S
C122 O136 1.251 . S
C122 O137 1.268 . S
C123 Nd113 2.836 1_554 S
C123 C124 1.498 . S
C123 O138 1.259 . S
C123 O139 1.239 . S
C124 C123 1.498 . S
C124 C125 1.366 . S
C124 C129 1.407 . S
C125 C124 1.366 . S
C125 C126 1.392 . S
C125 H148 0.930 . S
C126 C125 1.392 . S
C126 C127 1.398 . S
C126 H149 0.929 . S
C127 C126 1.398 . S
C127 C128 1.352 . S
C128 C127 1.352 . S
C128 C129 1.384 . S
C128 H150 0.930 . S
C129 C124 1.407 . S
C129 C128 1.384 . S
C129 H151 0.929 . S
C130 O140 1.238 1_565 S
C130 O141 1.273 1_554 S
C131 O142 1.251 . S
C131 O143 1.268 . S
O132 Nd112 2.500 1_565 S
O132 C114 1.258 . S
O133 Nd112 2.492 . S
O133 C114 1.239 1_545 S
O134 Nd112 2.487 . S
O134 C121 1.241 . S
O135 Nd112 2.682 . S
O135 Nd113 2.414 . S
O135 C121 1.273 . S
O136 Nd112 2.410 . S
O136 C122 1.251 . S
O137 Nd113 2.424 . S
O137 C122 1.268 . S
O138 Nd113 2.500 1_554 S
O138 C123 1.259 . S
O139 Nd113 2.492 1_554 S
O139 C123 1.239 . S
O140 Nd113 2.490 1_554 S
O140 C130 1.238 1_545 S
O141 Nd112 2.414 1_565 S
O141 Nd113 2.682 1_565 S
O141 C130 1.273 1_556 S
O142 Nd113 2.410 . S
O142 C131 1.251 . S
O143 Nd112 2.424 . S
O143 C131 1.268 . S
H144 C116 0.930 . S
H145 C117 0.929 . S
H146 C119 0.930 . S
H147 C120 0.929 . S
H148 C125 0.930 . S
H149 C126 0.929 . S
H150 C128 0.930 . S
H151 C129 0.929 . S
Nd152 C154 2.836 . S
Nd152 O172 2.500 . S
Nd152 O173 2.492 . S
Nd152 O174 2.487 1_554 S
Nd152 O175 2.682 1_554 S
Nd152 O176 2.410 1_554 S
Nd152 O181 2.414 1_554 S
Nd152 O183 2.424 . S
Nd153 C163 2.836 . S
Nd153 O175 2.414 . S
Nd153 O177 2.424 . S
Nd153 O178 2.500 . S
Nd153 O179 2.492 . S
Nd153 O180 2.487 . S
Nd153 O181 2.682 . S
Nd153 O182 2.410 . S
C154 Nd152 2.836 . S
C154 C155 1.498 . S
C154 O172 1.258 . S
C154 O173 1.239 . S
C155 C154 1.498 . S
C155 C156 1.366 . S
C155 C160 1.407 . S
C156 C155 1.366 . S
C156 C157 1.392 . S
C156 H184 0.930 . S
C157 C156 1.392 . S
C157 C158 1.398 . S
C157 H185 0.929 . S
C158 C157 1.398 . S
C158 C159 1.352 . S
C159 C158 1.352 . S
C159 C160 1.384 . S
C159 H186 0.930 . S
C160 C155 1.407 . S
C160 C159 1.384 . S
C160 H187 0.929 . S
C161 O174 1.241 . S
C161 O175 1.273 . S
C162 O176 1.251 . S
C162 O177 1.268 . S
C163 Nd153 2.836 . S
C163 C164 1.498 . S
C163 O178 1.258 . S
C163 O179 1.239 . S
C164 C163 1.498 . S
C164 C165 1.366 . S
C164 C169 1.407 . S
C165 C164 1.366 . S
C165 C166 1.392 . S
C165 H188 0.930 . S
C166 C165 1.392 . S
C166 C167 1.398 . S
C166 H189 0.929 . S
C167 C166 1.398 . S
C167 C168 1.352 . S
C168 C167 1.352 . S
C168 C169 1.384 . S
C168 H190 0.930 . S
C169 C164 1.407 . S
C169 C168 1.384 . S
C169 H191 0.929 . S
C170 O180 1.241 . S
C170 O181 1.273 . S
C171 O182 1.251 . S
C171 O183 1.268 1_556 S
O172 Nd152 2.500 . S
O172 C154 1.258 . S
O173 Nd152 2.492 . S
O173 C154 1.239 . S
O174 Nd152 2.487 1_556 S
O174 C161 1.241 . S
O175 Nd152 2.682 1_556 S
O175 Nd153 2.414 . S
O175 C161 1.273 . S
O176 Nd152 2.410 1_556 S
O176 C162 1.251 . S
O177 Nd153 2.424 . S
O177 C162 1.268 . S
O178 Nd153 2.500 . S
O178 C163 1.258 . S
O179 Nd153 2.492 . S
O179 C163 1.239 . S
O180 Nd153 2.487 . S
O180 C170 1.241 . S
O181 Nd152 2.414 1_556 S
O181 Nd153 2.682 . S
O181 C170 1.273 . S
O182 Nd153 2.410 . S
O182 C171 1.251 . S
O183 Nd152 2.424 . S
O183 C171 1.268 1_554 S
H184 C156 0.930 . S
H185 C157 0.929 . S
H186 C159 0.930 . S
H187 C160 0.929 . S
H188 C165 0.930 . S
H189 C166 0.929 . S
H190 C168 0.930 . S
H191 C169 0.929 . S
Nd192 C194 2.836 1_455 S
Nd192 O212 2.500 1_455 S
Nd192 O213 2.492 1_455 S
Nd192 O214 2.487 . S
Nd192 O215 2.682 . S
Nd192 O216 2.410 1_455 S
Nd192 O221 2.414 . S
Nd192 O223 2.424 . S
Nd193 C203 2.836 . S
Nd193 O215 2.414 1_554 S
Nd193 O217 2.424 1_454 S
Nd193 O218 2.500 . S
Nd193 O219 2.492 . S
Nd193 O220 2.487 . S
Nd193 O221 2.682 1_554 S
Nd193 O222 2.410 1_554 S
C194 Nd192 2.836 1_655 S
C194 C195 1.498 . S
C194 O212 1.258 . S
C194 O213 1.239 . S
C195 C194 1.498 . S
C195 C196 1.366 . S
C195 C200 1.407 . S
C196 C195 1.366 . S
C196 C197 1.392 . S
C196 H224 0.930 . S
C197 C196 1.392 . S
C197 C198 1.398 . S
C197 H225 0.929 . S
C198 C197 1.398 . S
C198 C199 1.352 . S
C199 C198 1.352 . S
C199 C200 1.384 . S
C199 H226 0.930 . S
C200 C195 1.407 . S
C200 C199 1.384 . S
C200 H227 0.929 . S
C201 O214 1.241 . S
C201 O215 1.273 . S
C202 O216 1.251 . S
C202 O217 1.268 . S
C203 Nd193 2.836 . S
C203 C204 1.498 . S
C203 O218 1.258 . S
C203 O219 1.239 . S
C204 C203 1.498 . S
C204 C205 1.366 . S
C204 C209 1.407 . S
C205 C204 1.366 . S
C205 C206 1.392 . S
C205 H228 0.930 . S
C206 C205 1.392 . S
C206 C207 1.398 . S
C206 H229 0.929 . S
C207 C206 1.398 . S
C207 C208 1.352 . S
C208 C207 1.352 . S
C208 C209 1.384 . S
C208 H230 0.930 . S
C209 C204 1.407 . S
C209 C208 1.384 . S
C209 H231 0.929 . S
C210 O220 1.241 1_556 S
C210 O221 1.273 . S
C211 O222 1.251 . S
C211 O223 1.268 . S
O212 Nd192 2.500 1_655 S
O212 C194 1.258 . S
O213 Nd192 2.492 1_655 S
O213 C194 1.239 . S
O214 Nd192 2.487 . S
O214 C201 1.241 . S
O215 Nd192 2.682 . S
O215 Nd193 2.414 1_556 S
O215 C201 1.273 . S
O216 Nd192 2.410 1_655 S
O216 C202 1.251 . S
O217 Nd193 2.424 1_656 S
O217 C202 1.268 . S
O218 Nd193 2.500 . S
O218 C203 1.258 . S
O219 Nd193 2.492 . S
O219 C203 1.239 . S
O220 Nd193 2.487 . S
O220 C210 1.241 1_554 S
O221 Nd192 2.414 . S
O221 Nd193 2.682 1_556 S
O221 C210 1.273 . S
O222 Nd193 2.410 1_556 S
O222 C211 1.251 . S
O223 Nd192 2.424 . S
O223 C211 1.268 . S
H224 C196 0.930 . S
H225 C197 0.929 . S
H226 C199 0.930 . S
H227 C200 0.929 . S
H228 C205 0.930 . S
H229 C206 0.929 . S
H230 C208 0.930 . S
H231 C209 0.929 . S
C232 C233 1.363 . S
C232 C238 1.379 . S
C232 N240 1.356 . S
C233 C232 1.363 . S
C233 C239 1.363 . S
C234 C235 1.363 . S
C234 C239 1.379 . S
C234 N241 1.356 . S
C235 C234 1.363 . S
C235 C238 1.363 . S
N236 C238 1.356 . S
N236 H248 0.984 1_556 S
N236 H249 0.985 . S
N237 C239 1.356 . S
N237 H242 0.984 . S
N237 H243 0.985 . S
C238 C232 1.379 . S
C238 C235 1.363 . S
C238 N236 1.356 . S
C239 C233 1.363 . S
C239 C234 1.379 . S
C239 N237 1.356 . S
N240 C232 1.356 . S
N240 H246 0.984 . S
N240 H247 0.984 . S
N241 C234 1.356 . S
N241 H244 0.984 . S
N241 H245 0.985 . S
H242 N237 0.984 . S
H243 N237 0.985 . S
H244 N241 0.984 . S
H245 N241 0.985 . S
H246 N240 0.984 . S
H247 N240 0.984 . S
H248 N236 0.984 1_554 S
H249 N236 0.985 . S
C250 C251 1.363 . S
C250 C256 1.379 . S
C250 N258 1.356 . S
C251 C250 1.363 . S
C251 C257 1.363 . S
C252 C253 1.363 . S
C252 C257 1.379 . S
C252 N259 1.356 . S
C253 C252 1.363 . S
C253 C256 1.363 . S
N254 C256 1.356 . S
N254 H266 0.984 . S
N254 H267 0.985 . S
N255 C257 1.356 . S
N255 H260 0.984 . S
N255 H261 0.985 . S
C256 C250 1.379 . S
C256 C253 1.363 . S
C256 N254 1.356 . S
C257 C251 1.363 . S
C257 C252 1.379 . S
C257 N255 1.356 . S
N258 C250 1.356 . S
N258 H264 0.984 . S
N258 H265 0.984 . S
N259 C252 1.356 . S
N259 H262 0.984 . S
N259 H263 0.985 . S
H260 N255 0.984 . S
H261 N255 0.985 . S
H262 N259 0.984 . S
H263 N259 0.985 . S
H264 N258 0.984 . S
H265 N258 0.984 . S
H266 N254 0.984 . S
H267 N254 0.985 . S
C268 C269 1.363 . S
C268 C274 1.379 . S
C268 N276 1.356 . S
C269 C268 1.363 . S
C269 C275 1.363 . S
C270 C271 1.363 . S
C270 C275 1.379 . S
C270 N277 1.356 . S
C271 C270 1.363 . S
C271 C274 1.363 . S
N272 C274 1.356 . S
N272 H284 0.984 . S
N272 H285 0.985 . S
N273 C275 1.356 . S
N273 H278 0.984 . S
N273 H279 0.985 . S
C274 C268 1.379 . S
C274 C271 1.363 . S
C274 N272 1.356 . S
C275 C269 1.363 . S
C275 C270 1.379 . S
C275 N273 1.356 . S
N276 C268 1.356 . S
N276 H282 0.984 . S
N276 H283 0.984 . S
N277 C270 1.356 . S
N277 H280 0.984 . S
N277 H281 0.985 . S
H278 N273 0.984 . S
H279 N273 0.985 . S
H280 N277 0.984 . S
H281 N277 0.985 . S
H282 N276 0.984 . S
H283 N276 0.984 . S
H284 N272 0.984 . S
H285 N272 0.985 . S
C286 C287 1.363 . S
C286 C292 1.379 . S
C286 N294 1.356 . S
C287 C286 1.363 . S
C287 C293 1.363 . S
C288 C289 1.363 . S
C288 C293 1.379 . S
C288 N295 1.356 . S
C289 C288 1.363 . S
C289 C292 1.363 . S
N290 C292 1.356 . S
N290 H302 0.984 1_455 S
N290 H303 0.976 1_455 S
N291 C293 1.356 . S
N291 H296 0.984 . S
N291 H297 0.985 . S
C292 C286 1.379 . S
C292 C289 1.363 . S
C292 N290 1.356 . S
C293 C287 1.363 . S
C293 C288 1.379 . S
C293 N291 1.356 . S
N294 C286 1.356 . S
N294 H300 0.984 . S
N294 H301 0.984 . S
N295 C288 1.356 . S
N295 H298 0.984 . S
N295 H299 0.985 . S
H296 N291 0.984 . S
H297 N291 0.985 . S
H298 N295 0.984 . S
H299 N295 0.985 . S
H300 N294 0.984 . S
H301 N294 0.984 . S
H302 N290 0.984 1_655 S
H303 N290 0.976 1_655 S
C304 C305 1.363 . S
C304 C310 1.379 . S
C304 N312 1.356 . S
C305 C304 1.363 . S
C305 C311 1.363 1_556 S
C306 C307 1.366 1_564 S
C306 C311 1.381 . S
C306 N313 1.352 1_565 S
C307 C306 1.366 1_546 S
C307 C310 1.363 1_545 S
N308 C310 1.356 1_545 S
N308 H320 0.984 . S
N308 H321 0.985 . S
N309 C311 1.356 . S
N309 H314 0.984 . S
N309 H315 0.985 . S
C310 C304 1.379 . S
C310 C307 1.363 1_565 S
C310 N308 1.356 1_565 S
C311 C305 1.363 1_554 S
C311 C306 1.381 . S
C311 N309 1.356 . S
N312 C304 1.356 . S
N312 H318 0.984 . S
N312 H319 0.984 . S
N313 C306 1.352 1_545 S
N313 H316 0.984 . S
N313 H317 0.985 . S
H314 N309 0.984 . S
H315 N309 0.985 . S
H316 N313 0.984 . S
H317 N313 0.985 . S
H318 N312 0.984 . S
H319 N312 0.984 . S
H320 N308 0.984 . S
H321 N308 0.985 . S
C322 C323 1.363 . S
C322 C328 1.379 . S
C322 N330 1.356 . S
C323 C322 1.363 . S
C323 C329 1.363 . S
C324 C325 1.363 . S
C324 C329 1.379 . S
C324 N331 1.356 . S
C325 C324 1.363 . S
C325 C328 1.363 . S
N326 C328 1.356 1_545 S
N326 H338 0.984 . S
N326 H339 0.985 . S
N327 C329 1.356 . S
N327 H332 0.984 . S
N327 H333 0.985 . S
C328 C322 1.379 . S
C328 C325 1.363 . S
C328 N326 1.356 1_565 S
C329 C323 1.363 . S
C329 C324 1.379 . S
C329 N327 1.356 . S
N330 C322 1.356 . S
N330 H336 0.984 1_565 S
N330 H337 0.984 . S
N331 C324 1.356 . S
N331 H334 0.984 . S
N331 H335 0.985 . S
H332 N327 0.984 . S
H333 N327 0.985 . S
H334 N331 0.984 . S
H335 N331 0.985 . S
H336 N330 0.984 1_545 S
H337 N330 0.984 . S
H338 N326 0.984 . S
H339 N326 0.985 . S
C340 C341 1.363 1_554 S
C340 C346 1.379 . S
C340 N348 1.356 . S
C341 C340 1.363 1_556 S
C341 C347 1.363 . S
C342 C343 1.363 . S
C342 C347 1.379 . S
C342 N349 1.356 . S
C343 C342 1.363 . S
C343 C346 1.363 1_556 S
N344 C346 1.356 . S
N344 H356 0.984 . S
N344 H357 0.985 . S
N345 C347 1.356 . S
N345 H350 0.984 . S
N345 H351 0.985 . S
C346 C340 1.379 . S
C346 C343 1.363 1_554 S
C346 N344 1.356 . S
C347 C341 1.363 . S
C347 C342 1.379 . S
C347 N345 1.356 . S
N348 C340 1.356 . S
N348 H354 0.984 . S
N348 H355 0.984 . S
N349 C342 1.356 . S
N349 H352 0.984 . S
N349 H353 0.985 . S
H350 N345 0.984 . S
H351 N345 0.985 . S
H352 N349 0.984 . S
H353 N349 0.985 . S
H354 N348 0.984 . S
H355 N348 0.984 . S
H356 N344 0.984 . S
H357 N344 0.985 . S
C358 C359 1.363 . S
C358 C364 1.379 . S
C358 N366 1.356 . S
C359 C358 1.363 . S
C359 C365 1.363 1_554 S
C360 C361 1.363 . S
C360 C365 1.379 . S
C360 N367 1.356 . S
C361 C360 1.363 . S
C361 C364 1.363 1_556 S
N362 C364 1.356 1_455 S
N362 H374 0.984 . S
N362 H375 0.985 . S
N363 C365 1.356 . S
N363 H368 0.984 . S
N363 H369 0.985 . S
C364 C358 1.379 . S
C364 C361 1.363 1_554 S
C364 N362 1.356 1_655 S
C365 C359 1.363 1_556 S
C365 C360 1.379 . S
C365 N363 1.356 . S
N366 C358 1.356 . S
N366 H372 0.984 . S
N366 H373 0.984 . S
N367 C360 1.356 . S
N367 H370 0.984 . S
N367 H371 0.985 . S
H368 N363 0.984 . S
H369 N363 0.985 . S
H370 N367 0.984 . S
H371 N367 0.985 . S
H372 N366 0.984 . S
H373 N366 0.984 . S
H374 N362 0.984 . S
H375 N362 0.985 . S
C376 C377 1.363 . S
C376 C382 1.379 . S
C376 N384 1.356 . S
C377 C376 1.363 . S
C377 C383 1.363 . S
C378 C379 1.363 . S
C378 C383 1.379 . S
C378 N385 1.356 . S
C379 C378 1.363 . S
C379 C382 1.363 . S
N380 C382 1.356 . S
N380 H392 0.984 1_556 S
N380 H393 0.985 . S
N381 C383 1.356 . S
N381 H386 0.984 . S
N381 H387 0.985 . S
C382 C376 1.379 . S
C382 C379 1.363 . S
C382 N380 1.356 . S
C383 C377 1.363 . S
C383 C378 1.379 . S
C383 N381 1.356 . S
N384 C376 1.356 . S
N384 H390 0.984 1_556 S
N384 H391 0.984 . S
N385 C378 1.356 . S
N385 H388 0.984 . S
N385 H389 0.985 . S
H386 N381 0.984 . S
H387 N381 0.985 . S
H388 N385 0.984 . S
H389 N385 0.985 . S
H390 N384 0.984 1_554 S
H391 N384 0.984 . S
H392 N380 0.984 1_554 S
H393 N380 0.985 . S
C394 C395 1.363 . S
C394 C400 1.379 . S
C394 N402 1.356 . S
C395 C394 1.363 . S
C395 C401 1.363 . S
C396 C397 1.363 . S
C396 C401 1.379 . S
C396 N403 1.356 . S
C397 C396 1.363 . S
C397 C400 1.363 . S
N398 C400 1.356 1_554 S
N398 H410 0.984 . S
N398 H411 0.985 . S
N399 C401 1.356 . S
N399 H404 0.984 . S
N399 H405 0.985 . S
C400 C394 1.379 . S
C400 C397 1.363 . S
C400 N398 1.356 1_556 S
C401 C395 1.363 . S
C401 C396 1.379 . S
C401 N399 1.356 . S
N402 C394 1.356 . S
N402 H408 0.984 1_556 S
N402 H409 0.984 . S
N403 C396 1.356 . S
N403 H406 0.984 . S
N403 H407 0.985 . S
H404 N399 0.984 . S
H405 N399 0.985 . S
H406 N403 0.984 . S
H407 N403 0.985 . S
H408 N402 0.984 1_554 S
H409 N402 0.984 . S
H410 N398 0.984 . S
H411 N398 0.985 . S
C412 C413 1.363 . S
C412 C418 1.379 . S
C412 N420 1.356 . S
C413 C412 1.363 . S
C413 C419 1.363 . S
C414 C415 1.363 . S
C414 C419 1.379 . S
C414 N421 1.356 . S
C415 C414 1.363 . S
C415 C418 1.363 . S
N416 C418 1.356 . S
N416 H428 0.984 . S
N416 H429 0.985 . S
N417 C419 1.356 . S
N417 H422 0.984 . S
N417 H423 0.985 . S
C418 C412 1.379 . S
C418 C415 1.363 . S
C418 N416 1.356 . S
C419 C413 1.363 . S
C419 C414 1.379 . S
C419 N417 1.356 . S
N420 C412 1.356 . S
N420 H426 0.984 . S
N420 H427 0.984 . S
N421 C414 1.356 . S
N421 H424 0.984 . S
N421 H425 0.985 . S
H422 N417 0.984 . S
H423 N417 0.985 . S
H424 N421 0.984 . S
H425 N421 0.985 . S
H426 N420 0.984 . S
H427 N420 0.984 . S
H428 N416 0.984 . S
H429 N416 0.985 . S
C430 C431 1.363 . S
C430 C436 1.379 . S
C430 N438 1.356 . S
C431 C430 1.363 . S
C431 C437 1.363 . S
C432 C433 1.363 . S
C432 C437 1.379 . S
C432 N439 1.356 1_556 S
C433 C432 1.363 . S
C433 C436 1.363 . S
N434 C436 1.356 . S
N434 H446 0.984 . S
N434 H447 0.985 . S
N435 C437 1.356 1_554 S
N435 H440 0.984 . S
N435 H441 0.985 . S
C436 C430 1.379 . S
C436 C433 1.363 . S
C436 N434 1.356 . S
C437 C431 1.363 . S
C437 C432 1.379 . S
C437 N435 1.356 1_556 S
N438 C430 1.356 . S
N438 H444 0.984 . S
N438 H445 0.984 . S
N439 C432 1.356 1_554 S
N439 H442 0.984 1_554 S
N439 H443 0.985 . S
H440 N435 0.984 . S
H441 N435 0.985 . S
H442 N439 0.984 1_556 S
H443 N439 0.985 . S
H444 N438 0.984 . S
H445 N438 0.984 . S
H446 N434 0.984 . S
H447 N434 0.985 . S
C448 C449 1.363 . S
C448 C454 1.379 . S
C448 N456 1.356 . S
C449 C448 1.363 . S
C449 C455 1.363 1_556 S
C450 C451 1.363 1_554 S
C450 C455 1.379 . S
C450 N457 1.356 . S
C451 C450 1.363 1_556 S
C451 C454 1.363 . S
N452 C454 1.356 1_455 S
N452 H464 0.984 . S
N452 H465 0.985 . S
N453 C455 1.356 . S
N453 H458 0.984 . S
N453 H459 0.985 . S
C454 C448 1.379 . S
C454 C451 1.363 . S
C454 N452 1.356 1_655 S
C455 C449 1.363 1_554 S
C455 C450 1.379 . S
C455 N453 1.356 . S
N456 C448 1.356 . S
N456 H462 0.984 . S
N456 H463 0.984 . S
N457 C450 1.356 . S
N457 H460 0.984 . S
N457 H461 0.985 . S
H458 N453 0.984 . S
H459 N453 0.985 . S
H460 N457 0.984 . S
H461 N457 0.985 . S
H462 N456 0.984 . S
H463 N456 0.984 . S
H464 N452 0.984 . S
H465 N452 0.985 . S
C466 C467 1.363 . S
C466 C472 1.379 . S
C466 N474 1.356 1_556 S
C467 C466 1.363 . S
C467 C473 1.363 1_565 S
C468 C469 1.363 . S
C468 C473 1.379 . S
C468 N475 1.356 . S
C469 C468 1.363 . S
C469 C472 1.363 1_545 S
N470 C472 1.356 . S
N470 H482 0.984 1_556 S
N470 H483 0.985 1_565 S
N471 C473 1.356 . S
N471 H476 0.984 1_545 S
N471 H477 0.985 . S
C472 C466 1.379 . S
C472 C469 1.363 1_565 S
C472 N470 1.356 . S
C473 C467 1.363 1_545 S
C473 C468 1.379 . S
C473 N471 1.356 . S
N474 C466 1.356 1_554 S
N474 H480 0.984 . S
N474 H481 0.984 . S
N475 C468 1.356 . S
N475 H478 0.984 . S
N475 H479 0.985 . S
H476 N471 0.984 1_565 S
H477 N471 0.985 . S
H478 N475 0.984 . S
H479 N475 0.985 . S
H480 N474 0.984 . S
H481 N474 0.984 . S
H482 N470 0.984 1_554 S
H483 N470 0.985 1_545 S
C484 C485 1.363 . S
C484 C490 1.379 . S
C484 N492 1.356 . S
C485 C484 1.363 . S
C485 C491 1.363 . S
C486 C487 1.363 . S
C486 C491 1.379 . S
C486 N493 1.356 . S
C487 C486 1.363 . S
C487 C490 1.363 . S
N488 C490 1.356 . S
N488 H500 0.984 . S
N488 H501 0.985 . S
N489 C491 1.356 . S
N489 H494 0.984 . S
N489 H495 0.985 . S
C490 C484 1.379 . S
C490 C487 1.363 . S
C490 N488 1.356 . S
C491 C485 1.363 . S
C491 C486 1.379 . S
C491 N489 1.356 . S
N492 C484 1.356 . S
N492 H498 0.984 . S
N492 H499 0.984 . S
N493 C486 1.356 . S
N493 H496 0.984 . S
N493 H497 0.985 . S
H494 N489 0.984 . S
H495 N489 0.985 . S
H496 N493 0.984 . S
H497 N493 0.985 . S
H498 N492 0.984 . S
H499 N492 0.984 . S
H500 N488 0.984 . S
H501 N488 0.985 . S
C502 C503 1.363 . S
C502 C508 1.379 . S
C502 N510 1.356 . S
C503 C502 1.363 . S
C503 C509 1.363 . S
C504 C505 1.363 . S
C504 C509 1.379 . S
C504 N511 1.356 . S
C505 C504 1.363 . S
C505 C508 1.363 . S
N506 C508 1.356 . S
N506 H518 0.984 . S
N506 H519 0.985 . S
N507 C509 1.356 . S
N507 H512 0.984 . S
N507 H513 0.985 . S
C508 C502 1.379 . S
C508 C505 1.363 . S
C508 N506 1.356 . S
C509 C503 1.363 . S
C509 C504 1.379 . S
C509 N507 1.356 . S
N510 C502 1.356 . S
N510 H516 0.984 . S
N510 H517 0.984 . S
N511 C504 1.356 . S
N511 H514 0.984 . S
N511 H515 0.985 . S
H512 N507 0.984 . S
H513 N507 0.985 . S
H514 N511 0.984 . S
H515 N511 0.985 . S
H516 N510 0.984 . S
H517 N510 0.984 . S
H518 N506 0.984 . S
H519 N506 0.985 . S
C520 C521 1.363 . S
C520 C526 1.379 . S
C520 N528 1.356 . S
C521 C520 1.363 . S
C521 C527 1.363 . S
C522 C523 1.363 . S
C522 C527 1.379 . S
C522 N529 1.356 . S
C523 C522 1.363 . S
C523 C526 1.363 . S
N524 C526 1.356 . S
N524 H536 0.984 . S
N524 H537 0.985 . S
N525 C527 1.356 . S
N525 H530 0.984 . S
N525 H531 0.985 . S
C526 C520 1.379 . S
C526 C523 1.363 . S
C526 N524 1.356 . S
C527 C521 1.363 . S
C527 C522 1.379 . S
C527 N525 1.356 . S
N528 C520 1.356 . S
N528 H534 0.984 . S
N528 H535 0.984 . S
N529 C522 1.356 . S
N529 H532 0.984 . S
N529 H533 0.985 . S
H530 N525 0.984 . S
H531 N525 0.985 . S
H532 N529 0.984 . S
H533 N529 0.985 . S
H534 N528 0.984 . S
H535 N528 0.984 . S
H536 N524 0.984 . S
H537 N524 0.985 . S
C538 C539 1.363 . S
C538 C544 1.379 . S
C538 N546 1.356 . S
C539 C538 1.363 . S
C539 C545 1.363 . S
C540 C541 1.363 . S
C540 C545 1.379 . S
C540 N547 1.356 . S
C541 C540 1.363 . S
C541 C544 1.363 . S
N542 C544 1.356 . S
N542 H554 0.984 . S
N542 H555 0.985 . S
N543 C545 1.356 . S
N543 H548 0.984 . S
N543 H549 0.985 . S
C544 C538 1.379 . S
C544 C541 1.363 . S
C544 N542 1.356 . S
C545 C539 1.363 . S
C545 C540 1.379 . S
C545 N543 1.356 . S
N546 C538 1.356 . S
N546 H552 0.984 . S
N546 H553 0.984 . S
N547 C540 1.356 . S
N547 H550 0.984 . S
N547 H551 0.985 . S
H548 N543 0.984 . S
H549 N543 0.985 . S
H550 N547 0.984 . S
H551 N547 0.985 . S
H552 N546 0.984 . S
H553 N546 0.984 . S
H554 N542 0.984 . S
H555 N542 0.985 . S
C556 C557 1.363 . S
C556 C562 1.379 . S
C556 N564 1.356 . S
C557 C556 1.363 . S
C557 C563 1.363 . S
C558 C559 1.363 . S
C558 C563 1.379 . S
C558 N565 1.356 1_554 S
C559 C558 1.363 . S
C559 C562 1.363 . S
N560 C562 1.356 . S
N560 H572 0.984 . S
N560 H573 0.985 . S
N561 C563 1.356 . S
N561 H566 0.984 . S
N561 H567 0.985 . S
C562 C556 1.379 . S
C562 C559 1.363 . S
C562 N560 1.356 . S
C563 C557 1.363 . S
C563 C558 1.379 . S
C563 N561 1.356 . S
N564 C556 1.356 . S
N564 H570 0.984 . S
N564 H571 0.984 . S
N565 C558 1.356 1_556 S
N565 H568 0.984 . S
N565 H569 0.985 . S
H566 N561 0.984 . S
H567 N561 0.985 . S
H568 N565 0.984 . S
H569 N565 0.985 . S
H570 N564 0.984 . S
H571 N564 0.984 . S
H572 N560 0.984 . S
H573 N560 0.985 . S
C574 C575 1.363 . S
C574 C580 1.379 . S
C574 N582 1.356 . S
C575 C574 1.363 . S
C575 C581 1.363 . S
C576 C577 1.363 . S
C576 C581 1.379 . S
C576 N583 1.356 . S
C577 C576 1.363 . S
C577 C580 1.363 . S
N578 C580 1.356 . S
N578 H590 0.984 . S
N578 H591 0.985 . S
N579 C581 1.356 . S
N579 H584 0.984 . S
N579 H585 0.985 . S
C580 C574 1.379 . S
C580 C577 1.363 . S
C580 N578 1.356 . S
C581 C575 1.363 . S
C581 C576 1.379 . S
C581 N579 1.356 . S
N582 C574 1.356 . S
N582 H588 0.984 . S
N582 H589 0.984 . S
N583 C576 1.356 . S
N583 H586 0.984 . S
N583 H587 0.985 . S
H584 N579 0.984 . S
H585 N579 0.985 . S
H586 N583 0.984 . S
H587 N583 0.985 . S
H588 N582 0.984 . S
H589 N582 0.984 . S
H590 N578 0.984 . S
H591 N578 0.985 . S
C592 C593 1.363 . S
C592 C598 1.379 . S
C592 N600 1.356 . S
C593 C592 1.363 . S
C593 C599 1.363 . S
C594 C595 1.363 . S
C594 C599 1.379 . S
C594 N601 1.356 . S
C595 C594 1.363 . S
C595 C598 1.363 . S
N596 C598 1.356 . S
N596 H608 0.984 . S
N596 H609 0.985 . S
N597 C599 1.356 . S
N597 H602 0.984 . S
N597 H603 0.985 . S
C598 C592 1.379 . S
C598 C595 1.363 . S
C598 N596 1.356 . S
C599 C593 1.363 . S
C599 C594 1.379 . S
C599 N597 1.356 . S
N600 C592 1.356 . S
N600 H606 0.984 . S
N600 H607 0.984 . S
N601 C594 1.356 . S
N601 H604 0.984 . S
N601 H605 0.985 . S
H602 N597 0.984 . S
H603 N597 0.985 . S
H604 N601 0.984 . S
H605 N601 0.985 . S
H606 N600 0.984 . S
H607 N600 0.984 . S
H608 N596 0.984 . S
H609 N596 0.985 . S
C610 C611 1.363 . S
C610 C616 1.379 . S
C610 N618 1.356 . S
C611 C610 1.363 . S
C611 C617 1.363 . S
C612 C613 1.363 . S
C612 C617 1.379 . S
C612 N619 1.356 . S
C613 C612 1.363 . S
C613 C616 1.363 . S
N614 C616 1.356 . S
N614 H626 0.984 . S
N614 H627 0.985 . S
N615 C617 1.358 . S
N615 H620 0.979 . S
N615 H621 0.981 1_565 S
C616 C610 1.379 . S
C616 C613 1.363 . S
C616 N614 1.356 . S
C617 C611 1.363 . S
C617 C612 1.379 . S
C617 N615 1.358 . S
N618 C610 1.356 . S
N618 H624 0.984 . S
N618 H625 0.984 . S
N619 C612 1.356 . S
N619 H622 0.984 . S
N619 H623 0.983 1_565 S
H620 N615 0.979 . S
H621 N615 0.981 1_545 S
H622 N619 0.984 . S
H623 N619 0.983 1_545 S
H624 N618 0.984 . S
H625 N618 0.984 . S
H626 N614 0.984 . S
H627 N614 0.985 . S
C628 C629 1.363 . S
C628 C634 1.379 . S
C628 N636 1.356 . S
C629 C628 1.363 . S
C629 C635 1.363 . S
C630 C631 1.363 . S
C630 C635 1.379 . S
C630 N637 1.356 . S
C631 C630 1.363 . S
C631 C634 1.363 . S
N632 C634 1.356 . S
N632 H644 0.984 . S
N632 H645 0.985 . S
N633 C635 1.356 . S
N633 H638 0.984 . S
N633 H639 0.985 . S
C634 C628 1.379 . S
C634 C631 1.363 . S
C634 N632 1.356 . S
C635 C629 1.363 . S
C635 C630 1.379 . S
C635 N633 1.356 . S
N636 C628 1.356 . S
N636 H642 0.984 . S
N636 H643 0.984 . S
N637 C630 1.356 . S
N637 H640 0.984 . S
N637 H641 0.985 . S
H638 N633 0.984 . S
H639 N633 0.985 . S
H640 N637 0.984 . S
H641 N637 0.985 . S
H642 N636 0.984 . S
H643 N636 0.984 . S
H644 N632 0.984 . S
H645 N632 0.985 . S
C646 C647 1.363 . S
C646 C652 1.379 . S
C646 N654 1.356 . S
C647 C646 1.363 . S
C647 C653 1.363 . S
C648 C649 1.363 . S
C648 C653 1.379 . S
C648 N655 1.356 . S
C649 C648 1.363 . S
C649 C652 1.363 . S
N650 C652 1.356 . S
N650 H662 0.984 . S
N650 H663 0.985 . S
N651 C653 1.356 . S
N651 H656 0.984 . S
N651 H657 0.985 . S
C652 C646 1.379 . S
C652 C649 1.363 . S
C652 N650 1.356 . S
C653 C647 1.363 . S
C653 C648 1.379 . S
C653 N651 1.356 . S
N654 C646 1.356 . S
N654 H660 0.984 . S
N654 H661 0.984 . S
N655 C648 1.356 . S
N655 H658 0.984 . S
N655 H659 0.985 . S
H656 N651 0.984 . S
H657 N651 0.985 . S
H658 N655 0.984 . S
H659 N655 0.985 . S
H660 N654 0.984 . S
H661 N654 0.984 . S
H662 N650 0.984 . S
H663 N650 0.985 . S
C233 C61 1.532 . S
C235 C81 1.521 . S
C253 C121 1.560 . S
C251 C70 1.613 . S
C271 C170 1.223 . S
C269 C43 1.246 . S
C289 C201 1.743 . S
C287 C52 1.820 . S
C307 C90 1.521 . S
C305 C25 1.540 1_556 S
C323 C34 1.603 . S
C325 C130 1.560 . S
C341 C7 1.242 . S
C343 C161 1.223 . S
C359 C16 1.830 . S
C361 C210 1.743 1_655 S
C379 C91 1.053 . S
C377 C50 0.932 . S
C397 C131 1.516 . S
C395 C59 1.380 . S
C415 C167 0.870 . S
C413 C67 0.881 . S
C431 C41 1.108 . S
C433 C211 1.212 . S
C449 C14 0.940 . S
C451 C82 1.053 1_655 S
C469 C122 1.516 . S
C467 C23 1.396 . S
C487 C158 0.870 . S
C485 C31 0.880 . S
C503 C5 1.108 . S
C505 C202 1.212 . S
C521 C49 1.700 . S
C523 C87 1.732 . S
C539 C58 1.808 . S
C541 C127 1.710 . S
C559 C171 2.160 1_554 S
C557 C68 1.943 . S
C577 C207 1.555 . S
C575 C40 1.599 . S
C593 C13 1.702 . S
C595 C78 1.732 . S
C613 C118 1.710 . S
C611 C22 1.805 . S
C631 C162 2.160 . S
C629 C32 1.937 . S
C647 C4 1.595 . S
C649 C198 1.554 . S
