# Generated by pormake.
# Topology pts, (4,4)-cn, num edge types: 1
# Building blocks:
#     Node 0, Type 0, BuildingBlock: KUFVIS_clean_linker_0, # of connection points: 4
#     Node 1, Type 0, BuildingBlock: KUFVIS_clean_linker_0, # of connection points: 4
#     Node 2, Type 1, BuildingBlock: UXUYUI_clean_sbu_0, # of connection points: 4
#     Node 3, Type 1, BuildingBlock: UXUYUI_clean_sbu_0, # of connection points: 4
#     Edge 4, Type (0, 1), BuildingBlock: UVAHIK_clean_linker_0, # of connection points: 2
#     Edge 5, Type (0, 1), BuildingBlock: UVAHIK_clean_linker_0, # of connection points: 2
#     Edge 6, Type (0, 1), BuildingBlock: UVAHIK_clean_linker_0, # of connection points: 2
#     Edge 7, Type (0, 1), BuildingBlock: UVAHIK_clean_linker_0, # of connection points: 2
#     Edge 8, Type (0, 1), BuildingBlock: UVAHIK_clean_linker_0, # of connection points: 2
#     Edge 9, Type (0, 1), BuildingBlock: UVAHIK_clean_linker_0, # of connection points: 2
#     Edge 10, Type (0, 1), BuildingBlock: UVAHIK_clean_linker_0, # of connection points: 2
#     Edge 11, Type (0, 1), BuildingBlock: UVAHIK_clean_linker_0, # of connection points: 2
# Relax obj value: 0.008
# Max RMSD: 0.067
# Mean RMSD: 0.060
data_MOF--net-pts--node1-UXUYUI_clean_sbu_0--node2-KUFVIS_clean_linker_0--edge1-UVAHIK_clean_linker_0
_symmetry_space_group_name_H-M    P1
_symmetry_Int_Tables_number       1
_symmetry_cell_setting            triclinic
loop_
_symmetry_equiv_pos_as_xyz
'x, y, z'
_cell_length_a     38.781511
_cell_length_b     38.7586
_cell_length_c     52.095148
_cell_angle_alpha  90.036068
_cell_angle_beta   90.013205
_cell_angle_gamma 89.733991
loop_
_atom_site_label
_atom_site_type_symbol
_atom_site_fract_x
_atom_site_fract_y
_atom_site_fract_z
_atom_type_partial_charge
H0 H 0.40216 1.01219 -0.00676 0.0
H1 H 0.49513 1.00444 0.94897 0.0
H2 H 0.49889 0.03381 0.02922 0.0
H3 H 0.54881 1.00185 0.0267 0.0
H4 H 0.64115 0.02333 0.98466 0.0
H5 H 0.54322 0.03907 0.94833 0.0
C6 C 0.43004 1.01397 -0.00802 0.0
C7 C 0.44886 0.0232 0.01372 0.0
C8 C 0.44653 1.00769 0.96856 0.0
C9 C 0.48259 1.01028 0.96704 0.0
C10 C 0.50226 0.01912 -0.01104 0.0
C11 C 0.4848 0.02604 0.01224 0.0
C12 C 0.54079 0.02052 -0.01227 0.0
C13 C 0.56095 1.01093 0.00926 0.0
C14 C 0.59708 1.01174 0.00811 0.0
C15 C 0.6132 0.02251 0.98554 0.0
C16 C 0.59394 0.03216 0.96404 0.0
C17 C 0.55781 0.03105 0.96504 0.0
H18 H 0.05129 0.63716 0.49084 0.0
H19 H 1.0145 0.54589 0.52742 0.0
H20 H 0.0427 0.5445 0.44678 0.0
H21 H 1.00859 0.5001 0.44469 0.0
H22 H 0.99585 0.40375 0.48318 0.0
H23 H 0.029 0.49144 0.52637 0.0
C24 C 0.04549 0.60983 0.48986 0.0
C25 C 0.04759 0.59271 0.46629 0.0
C26 C 0.03425 0.59283 0.51194 0.0
C27 C 0.02457 0.55805 0.51034 0.0
C28 C 0.02794 0.53942 0.48704 0.0
C29 C 0.03946 0.55747 0.465 0.0
C30 C 0.01934 0.50156 0.48583 0.0
C31 C 1.01003 0.48558 0.46237 0.0
C32 C 1.0019 0.45037 0.46148 0.0
C33 C 1.00178 0.43106 0.48408 0.0
C34 C 1.01101 0.44592 0.50754 0.0
C35 C 0.02059 0.48082 0.50823 0.0
Li36 Li 0.01954 0.05152 0.25704 0.0
Li37 Li 0.02395 0.98792 0.25545 0.0
Li38 Li 0.0525 0.02386 0.22176 0.0
Li39 Li 0.98934 1.01604 0.22334 0.0
C40 C 0.08962 0.03697 0.27084 0.0
N41 N 0.14638 0.06692 0.29378 0.0
C42 C 0.10196 0.02442 0.29427 0.0
C43 C 0.10639 0.06452 0.25896 0.0
C44 C 0.13061 0.03998 0.3056 0.0
C45 C 0.13498 0.07936 0.27088 0.0
C46 C 0.96833 1.0009 0.28203 0.0
C47 C 0.9375 0.95334 0.30086 0.0
N48 N 0.9423 0.96736 0.32453 0.0
C49 C 0.97286 1.01494 0.30651 0.0
C50 C 0.95038 0.96996 0.27911 0.0
C51 C 0.95951 0.99756 0.32777 0.0
C52 C 0.98909 0.11424 0.26971 0.0
N53 N 1.01503 0.09266 0.277 0.0
C54 C 0.03344 0.1329 0.30896 0.0
C55 C 0.03677 0.10111 0.29649 0.0
C56 C 1.00722 0.15596 0.30151 0.0
C57 C 0.98463 0.14612 0.28179 0.0
H58 H 0.97222 0.10687 0.25412 0.0
H59 H 0.05684 0.08341 0.30231 0.0
C60 C 0.0278 0.91594 0.26264 0.0
N61 N 0.02919 0.94662 0.27525 0.0
C62 C 0.03157 0.88496 0.27601 0.0
C63 C 0.03873 0.91761 0.31516 0.0
C64 C 0.03458 0.94801 0.30102 0.0
C65 C 0.03722 0.88552 0.30262 0.0
H66 H 0.02408 0.91546 0.24212 0.0
H67 H 0.03557 0.97272 0.31062 0.0
C68 C 0.02287 0.08845 0.20545 0.0
N69 N 0.03703 0.14713 0.17728 0.0
C70 C 1.0095 0.09232 0.18069 0.0
C71 C 0.04299 0.11471 0.21601 0.0
C72 C 1.01708 0.12209 0.16671 0.0
C73 C 0.04997 0.1441 0.20144 0.0
C74 C 1.01384 0.96273 0.197 0.0
C75 C 0.02944 0.96684 0.17302 0.0
C76 C 0.98562 0.94067 0.19955 0.0
C77 C 1.01631 0.94897 0.15189 0.0
C78 C 0.97323 0.92333 0.17794 0.0
N79 N 0.9887 0.92781 0.15476 0.0
C80 C 0.12098 1.00902 0.21033 0.0
C81 C 0.09569 0.04689 0.17994 0.0
C82 C 0.15272 1.01085 0.19781 0.0
N83 N 0.0934 0.02723 0.20147 0.0
C84 C 0.12698 0.04944 0.16676 0.0
C85 C 0.15613 0.03143 0.17577 0.0
H86 H 0.1184 0.99346 0.22744 0.0
H87 H 0.07335 0.06059 0.17291 0.0
C88 C 0.91736 1.01104 0.21667 0.0
N89 N 0.94772 1.01306 0.20371 0.0
C90 C 0.88627 1.00788 0.20335 0.0
C91 C 0.91817 1.00925 0.16353 0.0
C92 C 0.94861 1.01265 0.17762 0.0
C93 C 0.88644 1.00668 0.17641 0.0
H94 H 0.91728 1.01172 0.23741 0.0
H95 H 0.97299 1.01457 0.16771 0.0
O96 O 0.06154 0.02201 0.25955 0.0
O97 O 0.9817 1.01722 0.26105 0.0
O98 O 1.01552 0.05948 0.21941 0.0
O99 O 0.0262 0.98017 0.21787 0.0
H100 H 0.08951 1.00296 0.30365 0.0
H101 H 0.09771 0.07413 0.24061 0.0
H102 H 0.14033 0.03062 0.32378 0.0
H103 H 0.14817 0.1007 0.26188 0.0
H104 H 0.92375 0.92925 0.29892 0.0
H105 H 0.98676 0.03884 0.30907 0.0
H106 H 0.94678 0.95873 0.26028 0.0
H107 H 0.96294 1.00802 0.34685 0.0
H108 H 0.05106 0.13929 0.32436 0.0
H109 H 0.96422 0.16322 0.27536 0.0
H110 H 0.03073 0.86083 0.26554 0.0
H111 H 0.04274 0.91919 0.3357 0.0
H112 H 0.99363 0.07249 0.17226 0.0
H113 H 0.05289 0.11269 0.23533 0.0
H114 H 1.00709 0.12529 0.14747 0.0
H115 H 0.06558 0.16456 0.20938 0.0
H116 H 0.05133 0.98374 0.17072 0.0
H117 H 0.97312 0.93737 0.21795 0.0
H118 H 0.02804 0.95199 0.13319 0.0
H119 H 0.95125 0.90639 0.17959 0.0
H120 H 0.17451 0.99677 0.20561 0.0
H121 H 0.12824 0.06509 0.14958 0.0
H122 H 0.86242 1.00579 0.21404 0.0
H123 H 0.91944 1.00893 0.14276 0.0
Li124 Li 0.9885 0.0236 0.7544 0.0
Li125 Li 0.05189 1.01677 0.75505 0.0
Li126 Li 0.02173 0.05128 0.72042 0.0
Li127 Li 0.01941 0.98745 0.72111 0.0
C128 C 1.01181 0.08264 0.77592 0.0
N129 N 0.98593 0.12796 0.81213 0.0
C130 C 0.02568 0.08327 0.80067 0.0
C131 C 0.9851 0.10536 0.76947 0.0
C132 C 1.01217 0.10631 0.81874 0.0
C133 C 0.97226 0.12798 0.78809 0.0
C134 C 0.02758 0.95745 0.77671 0.0
C135 C 0.06532 0.91057 0.78878 0.0
N136 N 0.0516 0.911 0.81281 0.0
C137 C 1.0136 0.95721 0.80144 0.0
C138 C 0.05341 0.93375 0.77024 0.0
C139 C 0.02618 0.9336 0.81944 0.0
C140 C 0.91669 0.02262 0.76123 0.0
N141 N 0.94689 0.02725 0.77402 0.0
C142 C 0.91637 0.0383 0.81309 0.0
C143 C 0.94729 0.03443 0.79958 0.0
C144 C 0.88475 0.03427 0.80025 0.0
C145 C 0.88522 0.02606 0.774 0.0
H146 H 0.917 1.01635 0.74103 0.0
H147 H 0.97157 0.03716 0.80951 0.0
C148 C 0.12344 0.01952 0.76323 0.0
N149 N 0.09295 1.01394 0.77539 0.0
C150 C 0.15455 1.01669 0.77657 0.0
C151 C 0.1224 1.00331 0.81497 0.0
C152 C 0.09188 1.00648 0.80088 0.0
C153 C 0.15435 1.00822 0.80278 0.0
H154 H 0.12366 0.02606 0.74308 0.0
H155 H 0.06735 1.00309 0.81033 0.0
C156 C 0.96108 0.034 0.69722 0.0
N157 N 0.92169 0.06099 0.65779 0.0
C158 C 0.96068 0.01785 0.67323 0.0
C159 C 0.9411 0.06362 0.70126 0.0
C160 C 0.94067 0.03195 0.65352 0.0
C161 C 0.92148 0.07695 0.68105 0.0
C162 C 0.08204 1.00378 0.69934 0.0
C163 C 0.08423 0.01846 0.6749 0.0
C164 C 0.1022 0.9749 0.70531 0.0
C165 C 0.10618 1.00361 0.65667 0.0
C166 C 0.1238 0.96078 0.68656 0.0
N167 N 0.1253 0.97529 0.66282 0.0
C168 C 0.03483 0.12157 0.71252 0.0
C169 C 1.01648 0.0929 0.67478 0.0
C170 C 0.03586 0.15306 0.69956 0.0
N171 N 0.02469 0.0924 0.70016 0.0
C172 C 1.01686 0.1239 0.66111 0.0
C173 C 0.02635 0.15458 0.67359 0.0
H174 H 0.04179 0.12047 0.73259 0.0
H175 H 1.00947 0.06931 0.66512 0.0
C176 C 1.0035 0.91758 0.7144 0.0
N177 N 1.01674 0.94535 0.70194 0.0
C178 C 1.00219 0.88542 0.70235 0.0
C179 C 0.02738 0.9111 0.66454 0.0
C180 C 0.02791 0.94284 0.67726 0.0
C181 C 1.01468 0.88179 0.6772 0.0
H182 H 0.99424 0.92031 0.73387 0.0
H183 H 0.03728 0.9654 0.6674 0.0
O184 O 0.02452 0.06008 0.75804 0.0
O185 O 1.01577 0.98056 0.75889 0.0
O186 O 0.98061 0.02062 0.71672 0.0
O187 O 0.06061 0.01793 0.71739 0.0
H188 H 0.04653 0.06605 0.80592 0.0
H189 H 0.97439 0.1055 0.75032 0.0
H190 H 0.02253 0.10695 0.83801 0.0
H191 H 0.95146 0.14557 0.7834 0.0
H192 H 0.08542 0.8922 0.78406 0.0
H193 H 0.99342 0.9752 0.80671 0.0
H194 H 0.06409 0.93321 0.75108 0.0
H195 H 1.01575 0.93326 0.8387 0.0
H196 H 0.91723 0.04399 0.83344 0.0
H197 H 0.86149 0.02287 0.76331 0.0
H198 H 0.17853 0.02055 0.76633 0.0
H199 H 0.12096 0.99745 0.83526 0.0
H200 H 0.97578 0.99479 0.66983 0.0
H201 H 0.94077 0.07618 0.71978 0.0
H202 H 0.94026 0.01983 0.63481 0.0
H203 H 0.90604 0.09996 0.68387 0.0
H204 H 0.06905 0.04097 0.67001 0.0
H205 H 0.10125 0.96356 0.72424 0.0
H206 H 0.10799 1.01459 0.63764 0.0
H207 H 0.13942 0.93834 0.69089 0.0
H208 H 0.04322 0.1761 0.70993 0.0
H209 H 1.00995 0.12385 0.64096 0.0
H210 H 0.99228 0.86347 0.71282 0.0
H211 H 0.03664 0.90955 0.64496 0.0
C212 C 0.41986 1.00135 0.05289 0.0
C213 C 0.42988 0.02945 0.03777 0.0
C214 C 0.39489 1.00558 0.07199 0.0
C215 C 0.31974 0.06035 0.08529 0.0
H216 H 0.31592 1.00803 0.14861 0.0
C217 C 0.20126 0.06583 0.15253 0.0
C218 C 0.18988 0.03406 0.16235 0.0
C219 C 0.233 0.06823 0.13993 0.0
C220 C 0.31654 0.02267 0.13092 0.0
H221 H 0.4231 0.08408 0.03101 0.0
H222 H 0.37984 0.09185 0.06483 0.0
H223 H 0.36884 1.00791 0.1232 0.0
H224 H 0.20293 0.97984 0.16635 0.0
H225 H 0.25815 0.98402 0.14435 0.0
H226 H 0.26726 0.07444 0.09261 0.0
C227 C 0.391 0.06649 0.0619 0.0
C228 C 0.34689 0.02267 0.11641 0.0
C229 C 0.41601 0.06221 0.0428 0.0
C230 C 0.21111 1.00482 0.15938 0.0
C231 C 0.24283 1.00723 0.1468 0.0
C232 C 0.28944 0.06036 0.09979 0.0
C233 C 0.3793 0.03797 0.07613 0.0
C234 C 0.34867 0.04107 0.09319 0.0
C235 C 0.25413 0.03894 0.13686 0.0
C236 C 0.28727 0.04106 0.12256 0.0
H237 H 0.42983 0.97575 0.04889 0.0
H238 H 0.38625 0.98299 0.08234 0.0
H239 H 0.31994 0.0743 0.06728 0.0
H240 H 0.18582 0.08897 0.15486 0.0
H241 H 0.24112 0.09313 0.13277 0.0
C242 C 0.98372 0.40163 0.53569 0.0
C243 C 1.01138 0.42398 0.53089 0.0
C244 C 0.98564 0.37727 0.55533 0.0
C245 C 0.04979 0.32734 0.59169 0.0
H246 H 0.969 0.29659 0.62894 0.0
C247 C 0.05257 0.21196 0.66272 0.0
C248 C 0.02566 0.18808 0.65977 0.0
C249 C 0.05161 0.24363 0.64985 0.0
C250 C 0.99177 0.30483 0.61862 0.0
H251 H 0.06211 0.43954 0.54373 0.0
H252 H 0.06534 0.39716 0.57854 0.0
H253 H 0.96567 0.34866 0.60279 0.0
H254 H 0.97642 0.17893 0.64135 0.0
H255 H 0.97481 0.23407 0.6188 0.0
H256 H 0.0757 0.28315 0.60734 0.0
C257 C 0.04233 0.39819 0.56678 0.0
C258 C 0.98989 0.33467 0.60364 0.0
C259 C 0.04035 0.4227 0.54706 0.0
C260 C 0.9977 0.19663 0.6438 0.0
C261 C 0.99659 0.22838 0.63114 0.0
C262 C 0.05172 0.29758 0.60682 0.0
C263 C 1.01528 0.37467 0.57076 0.0
C264 C 0.01863 0.34584 0.58948 0.0
C265 C 0.02353 0.25223 0.634 0.0
C266 C 0.02249 0.28557 0.61996 0.0
H267 H 0.96092 0.40225 0.52366 0.0
H268 H 0.96446 0.35943 0.55759 0.0
H269 H 0.07231 0.3349 0.58081 0.0
H270 H 0.07457 0.206 0.67477 0.0
H271 H 0.07268 0.26154 0.6525 0.0
C272 C 0.64527 0.97725 0.02667 0.0
C273 C 0.61897 1.00179 0.03018 0.0
C274 C 0.67094 0.97295 0.04515 0.0
C275 C 0.69842 0.99472 0.11146 0.0
H276 H 0.78934 0.994 0.08045 0.0
C277 C 0.82409 0.02149 0.16864 0.0
C278 C 0.85381 1.00271 0.16177 0.0
C279 C 0.79377 0.01854 0.15425 0.0
C280 C 0.76421 0.99361 0.08951 0.0
H281 H 0.59745 0.03953 0.05634 0.0
H282 H 0.64271 0.03228 0.08882 0.0
H283 H 0.73861 0.99238 0.05326 0.0
H284 H 0.87452 0.96499 0.13512 0.0
H285 H 0.82169 0.9596 0.11018 0.0
H286 H 0.72436 0.99637 0.1478 0.0
C287 C 0.64331 1.01613 0.07186 0.0
C288 C 0.73504 0.99266 0.07388 0.0
C289 C 0.61738 0.02027 0.05334 0.0
C290 C 0.85228 0.98032 0.1406 0.0
C291 C 0.82197 0.97724 0.1263 0.0
C292 C 0.72775 0.99558 0.12718 0.0
C293 C 0.67109 0.99336 0.06747 0.0
C294 C 0.70178 0.99316 0.08461 0.0
C295 C 0.79245 0.99665 0.13273 0.0
C296 C 0.76102 0.99504 0.11636 0.0
H297 H 0.64685 0.96253 0.00901 0.0
H298 H 0.6915 0.95458 0.04147 0.0
H299 H 0.67316 0.995 0.12031 0.0
H300 H 0.82454 0.03918 0.18473 0.0
H301 H 0.77168 0.03419 0.15955 0.0
C302 C 0.06024 0.6329 0.54391 0.0
C303 C 0.03218 0.61255 0.5363 0.0
C304 C 0.05702 0.65615 0.5642 0.0
C305 C 0.99101 0.70839 0.5964 0.0
H306 H 0.06804 0.73412 0.63975 0.0
C307 C 0.98644 0.82549 0.66595 0.0
C308 C 1.01508 0.84753 0.66443 0.0
C309 C 0.98698 0.79325 0.65385 0.0
C310 C 0.04631 0.72724 0.62775 0.0
H311 H 0.9793 0.59908 0.54481 0.0
H312 H 0.97364 0.63965 0.58075 0.0
H313 H 0.07169 0.68188 0.61374 0.0
H314 H 0.06695 0.85275 0.6495 0.0
H315 H 0.06787 0.79661 0.62832 0.0
H316 H 0.96594 0.7542 0.61012 0.0
C317 C 0.99805 0.63787 0.57074 0.0
C318 C 0.04837 0.69731 0.61286 0.0
C319 C 1.00135 0.61442 0.55037 0.0
C320 C 0.04437 0.8365 0.6508 0.0
C321 C 0.04504 0.80418 0.63893 0.0
C322 C 0.98887 0.73824 0.61143 0.0
C323 C 0.02561 0.65964 0.57744 0.0
C324 C 0.02116 0.68805 0.59642 0.0
C325 C 1.01633 0.78223 0.64025 0.0
C326 C 1.01689 0.74848 0.62672 0.0
H327 H 0.08436 0.63181 0.53344 0.0
H328 H 0.07868 0.67268 0.56857 0.0
H329 H 0.96972 0.7023 0.58375 0.0
H330 H 0.96342 0.83339 0.67621 0.0
H331 H 0.96453 0.77684 0.65525 0.0
C332 C 0.42414 0.02138 0.92465 0.0
C333 C 0.42502 0.99928 0.94597 0.0
C334 C 0.39804 0.01813 0.90621 0.0
C335 C 0.3087 0.98684 0.90273 0.0
H336 H 0.31665 1.00662 0.83006 0.0
C337 C 0.19147 0.97794 0.83534 0.0
C338 C 0.18722 1.00456 0.81728 0.0
C339 C 0.22216 0.9747 0.84922 0.0
C340 C 0.31401 1.00126 0.85036 0.0
H341 H 0.40145 0.95484 0.96379 0.0
H342 H 0.35665 0.94835 0.93129 0.0
H343 H 0.3686 1.00416 0.85668 0.0
H344 H 0.21205 0.04864 0.79966 0.0
H345 H 0.26555 0.04307 0.82399 0.0
H346 H 0.25428 0.98448 0.89668 0.0
C347 C 0.37531 0.96884 0.92908 0.0
C348 C 0.34378 0.99981 0.86559 0.0
C349 C 0.40113 0.97229 0.94755 0.0
C350 C 0.21461 0.0276 0.81321 0.0
C351 C 0.24532 0.02437 0.82712 0.0
C352 C 0.27907 0.98826 0.88757 0.0
C353 C 0.37254 0.9926 0.90878 0.0
C354 C 0.34145 0.99262 0.89199 0.0
C355 C 0.24937 0.99803 0.84543 0.0
C356 C 0.28129 0.99559 0.86122 0.0
H357 H 0.44214 0.04259 0.9232 0.0
H358 H 0.39662 0.03693 0.89087 0.0
H359 H 0.30577 0.98211 0.9231 0.0
H360 H 0.17116 0.95937 0.8386 0.0
H361 H 0.22462 0.95376 0.86286 0.0
C362 C 0.02395 0.42538 0.42065 0.0
C363 C 0.99602 0.43204 0.43703 0.0
C364 C 0.02141 0.40008 0.40157 0.0
C365 C 0.97187 0.32037 0.38946 0.0
H366 H 0.02621 0.31723 0.32705 0.0
C367 C 0.97093 0.20254 0.32155 0.0
C368 C 1.00356 0.19017 0.31412 0.0
C369 C 0.96755 0.23452 0.33376 0.0
C370 C 1.01095 0.31777 0.34446 0.0
H371 H 0.94287 0.41976 0.44535 0.0
H372 H 0.93759 0.37697 0.41116 0.0
H373 H 0.02302 0.37073 0.35181 0.0
H374 H 0.05811 0.20203 0.31302 0.0
H375 H 0.0522 0.25794 0.33439 0.0
H376 H 0.95991 0.26744 0.38212 0.0
C377 C 0.96191 0.39023 0.41347 0.0
C378 C 1.00913 0.3484 0.35868 0.0
C379 C 0.96467 0.4151 0.43278 0.0
C380 C 0.03267 0.21073 0.31877 0.0
C381 C 0.02925 0.24289 0.33073 0.0
C382 C 0.97338 0.28997 0.37511 0.0
C383 C 0.99073 0.38119 0.39841 0.0
C384 C 0.98996 0.34998 0.38161 0.0
C385 C 0.99668 0.25499 0.33855 0.0
C386 C 0.99332 0.28815 0.35267 0.0
H387 H 0.04855 0.43777 0.42392 0.0
H388 H 0.04427 0.39377 0.39058 0.0
H389 H 0.9575 0.32013 0.40727 0.0
H390 H 0.94805 0.18721 0.31834 0.0
H391 H 0.94211 0.24326 0.33946 0.0
C392 C 0.63508 0.07089 0.94181 0.0
C393 C 0.61287 0.04246 0.94071 0.0
C394 C 0.66033 0.07549 0.92306 0.0
C395 C 0.69375 0.04427 0.86014 0.0
H396 H 0.78235 0.06183 0.89202 0.0
C397 C 0.82401 1.01579 0.80976 0.0
C398 C 0.85151 0.03859 0.81412 0.0
C399 C 0.79294 0.01957 0.82312 0.0
C400 C 0.75782 0.05748 0.88265 0.0
H401 H 0.59798 0.99773 0.91859 0.0
H402 H 0.6424 1.00551 0.8857 0.0
H403 H 0.73031 0.06428 0.91777 0.0
H404 H 0.86748 0.08394 0.83531 0.0
H405 H 0.81329 0.09067 0.85852 0.0
H406 H 0.72167 0.03683 0.82504 0.0
C407 C 0.64007 0.02456 0.90082 0.0
C408 C 0.72787 0.05895 0.89745 0.0
C409 C 0.61457 0.02012 0.91956 0.0
C410 C 0.84702 0.06557 0.83185 0.0
C411 C 0.81593 0.06943 0.84513 0.0
C412 C 0.72383 0.04286 0.84527 0.0
C413 C 0.6642 0.05146 0.90301 0.0
C414 C 0.69546 0.0522 0.88645 0.0
C415 C 0.78859 0.0463 0.84112 0.0
C416 C 0.75627 0.04923 0.85641 0.0
H417 H 0.63426 0.08832 0.95807 0.0
H418 H 0.67799 0.0969 0.925 0.0
H419 H 0.66918 0.03913 0.85106 0.0
H420 H 0.82677 0.99451 0.79642 0.0
H421 H 0.77266 1.00097 0.81983 0.0
C422 C 0.0326 0.61457 0.42246 0.0
C423 C 0.05587 0.61322 0.4431 0.0
C424 C 0.03536 0.64057 0.4039 0.0
C425 C 0.06583 0.72959 0.40062 0.0
H426 H 0.04416 0.72316 0.32816 0.0
C427 C 0.06805 0.84965 0.3356 0.0
C428 C 0.04189 0.8528 0.31708 0.0
C429 C 0.07263 0.81879 0.34908 0.0
C430 C 0.04996 0.72542 0.34842 0.0
H431 H 0.10214 0.6356 0.45921 0.0
H432 H 0.10736 0.6805 0.42665 0.0
H433 H 0.04854 0.67055 0.3539 0.0
H434 H 0.99985 0.82609 0.29832 0.0
H435 H 1.00735 0.77246 0.32219 0.0
H436 H 0.06626 0.78424 0.39558 0.0
C437 C 0.08649 0.66215 0.42508 0.0
C438 C 0.05261 0.69525 0.36312 0.0
C439 C 0.08368 0.6363 0.4436 0.0
C440 C 0.02048 0.82434 0.31229 0.0
C441 C 0.02489 0.79354 0.3259 0.0
C442 C 0.063 0.75965 0.38603 0.0
C443 C 0.06147 0.66555 0.40571 0.0
C444 C 0.06053 0.69703 0.38941 0.0
C445 C 0.05096 0.79038 0.34455 0.0
C446 C 0.05492 0.75804 0.35975 0.0
H447 H 1.01077 0.59726 0.42177 0.0
H448 H 1.01565 0.64251 0.38924 0.0
H449 H 0.07115 0.73197 0.42096 0.0
H450 H 0.08533 0.87092 0.33942 0.0
H451 H 0.09337 0.81715 0.36295 0.0
loop_
_geom_bond_atom_site_label_1
_geom_bond_atom_site_label_2
_geom_bond_distance
_geom_bond_site_symmetry_2
_ccdc_geom_bond_type
H0 C6 0.930 1_565 S
H1 C9 0.931 . S
H2 C11 0.929 1_565 S
H3 C13 0.930 . S
H4 C15 0.930 . S
H5 C17 0.927 1_565 S
C6 H0 0.930 1_545 S
C6 C7 1.380 1_545 S
C6 C8 1.394 1_554 S
C7 C6 1.380 1_565 S
C7 C11 1.381 1_565 S
C8 C6 1.394 1_556 S
C8 C9 1.400 . S
C9 H1 0.931 . S
C9 C8 1.400 . S
C9 C10 1.375 1_556 S
C10 C9 1.375 1_554 S
C10 C11 1.419 . S
C10 C12 1.501 . S
C11 H2 0.929 1_545 S
C11 C7 1.381 1_545 S
C11 C10 1.419 . S
C12 C10 1.501 . S
C12 C13 1.384 . S
C12 C17 1.413 1_554 S
C13 H3 0.930 . S
C13 C12 1.384 . S
C13 C14 1.389 . S
C14 C13 1.389 . S
C14 C15 1.405 . S
C15 H4 0.930 . S
C15 C14 1.405 . S
C15 C16 1.367 1_554 S
C16 C15 1.367 1_556 S
C16 C17 1.400 . S
C17 H5 0.927 1_545 S
C17 C12 1.413 1_556 S
C17 C16 1.400 . S
H18 C24 0.930 . S
H19 C27 0.931 . S
H20 C29 0.931 . S
H21 C31 0.931 . S
H22 C33 0.930 . S
H23 C35 0.931 . S
C24 H18 0.930 . S
C24 C25 1.380 . S
C24 C26 1.399 . S
C25 C24 1.380 . S
C25 C29 1.382 . S
C26 C24 1.399 . S
C26 C27 1.398 1_455 S
C27 H19 0.931 . S
C27 C26 1.398 1_655 S
C27 C28 1.375 1_655 S
C28 C27 1.375 1_455 S
C28 C29 1.415 . S
C28 C30 1.501 . S
C29 H20 0.931 . S
C29 C25 1.382 . S
C29 C28 1.415 . S
C30 C28 1.501 . S
C30 C31 1.384 1_455 S
C30 C35 1.408 . S
C31 H21 0.931 . S
C31 C30 1.384 1_655 S
C31 C32 1.389 1_655 S
C32 C31 1.389 1_455 S
C32 C33 1.406 . S
C33 H22 0.930 . S
C33 C32 1.406 . S
C33 C34 1.364 . S
C34 C33 1.364 . S
C34 C35 1.400 . S
C35 H23 0.931 . S
C35 C30 1.408 . S
C35 C34 1.400 . S
Li36 N53 1.990 . S
Li36 O96 1.956 . S
Li36 O97 1.970 1_455 S
Li36 O98 1.961 . S
Li37 N61 1.992 . S
Li37 O96 1.970 1_565 S
Li37 O97 1.956 1_465 S
Li37 O99 1.961 . S
Li38 N83 1.990 . S
Li38 O96 1.961 . S
Li38 O98 1.956 . S
Li38 O99 1.970 1_545 S
Li39 N89 1.989 1_545 S
Li39 O97 1.963 . S
Li39 O98 1.996 1_655 S
Li39 O99 1.932 1_645 S
C40 C42 1.348 1_545 S
C40 C43 1.356 . S
C40 O96 1.325 . S
N41 C44 1.314 1_545 S
N41 C45 1.279 . S
C42 C40 1.348 1_565 S
C42 C44 1.353 . S
C42 H100 0.929 . S
C43 C40 1.356 . S
C43 C45 1.358 . S
C43 H101 0.930 . S
C44 N41 1.314 1_565 S
C44 C42 1.353 . S
C44 H102 0.930 . S
C45 N41 1.279 . S
C45 C43 1.358 . S
C45 H103 0.930 . S
C46 C49 1.348 . S
C46 C50 1.356 1_545 S
C46 O97 1.325 . S
C47 N48 1.279 . S
C47 C50 1.358 . S
C47 H104 0.930 . S
N48 C47 1.279 . S
N48 C51 1.314 1_565 S
C49 C46 1.348 . S
C49 C51 1.353 . S
C49 H105 0.929 . S
C50 C46 1.356 1_565 S
C50 C47 1.358 . S
C50 H106 0.930 . S
C51 N48 1.314 1_545 S
C51 C49 1.353 . S
C51 H107 0.930 . S
C52 N53 1.314 1_655 S
C52 C57 1.353 . S
C52 H58 0.930 . S
N53 Li36 1.990 . S
N53 C52 1.314 1_455 S
N53 C55 1.279 . S
C54 C55 1.358 . S
C54 C56 1.356 . S
C54 H108 0.930 . S
C55 N53 1.279 . S
C55 C54 1.358 . S
C55 H59 0.930 . S
C56 C54 1.356 . S
C56 C57 1.348 1_455 S
C57 C52 1.353 . S
C57 C56 1.348 1_655 S
C57 H109 0.929 . S
H58 C52 0.930 . S
H59 C55 0.930 . S
C60 N61 1.336 . S
C60 C62 1.353 . S
C60 H66 0.930 . S
N61 Li37 1.992 . S
N61 C60 1.336 . S
N61 C64 1.260 1_455 S
C62 C60 1.353 . S
C62 C65 1.348 . S
C62 H110 0.929 . S
C63 C64 1.358 . S
C63 C65 1.356 1_655 S
C63 H111 0.930 . S
C64 N61 1.260 1_655 S
C64 C63 1.358 . S
C64 H67 0.930 . S
C65 C62 1.348 . S
C65 C63 1.356 1_455 S
H66 C60 0.930 . S
H67 C64 0.930 . S
C68 C70 1.348 1_455 S
C68 C71 1.356 . S
C68 O98 1.325 . S
N69 C72 1.314 1_455 S
N69 C73 1.279 . S
C70 C68 1.348 1_655 S
C70 C72 1.353 . S
C70 H112 0.929 . S
C71 C68 1.356 . S
C71 C73 1.358 . S
C71 H113 0.930 . S
C72 N69 1.314 1_655 S
C72 C70 1.353 . S
C72 H114 0.930 . S
C73 N69 1.279 . S
C73 C71 1.358 . S
C73 H115 0.930 . S
C74 C75 1.348 . S
C74 C76 1.356 1_455 S
C74 O99 1.325 . S
C75 C74 1.348 . S
C75 C77 1.353 . S
C75 H116 0.929 . S
C76 C74 1.356 1_655 S
C76 C78 1.358 . S
C76 H117 0.930 . S
C77 C75 1.353 . S
C77 N79 1.314 . S
C77 H118 0.930 . S
C78 C76 1.358 . S
C78 N79 1.279 1_655 S
C78 H119 0.930 . S
N79 C77 1.314 . S
N79 C78 1.279 1_455 S
C80 C82 1.353 . S
C80 N83 1.314 1_565 S
C80 H86 0.930 . S
C81 N83 1.279 . S
C81 C84 1.358 . S
C81 H87 0.930 . S
C82 C80 1.353 . S
C82 C85 1.348 1_565 S
C82 H120 0.929 . S
N83 Li38 1.990 . S
N83 C80 1.314 1_545 S
N83 C81 1.279 . S
C84 C81 1.358 . S
C84 C85 1.356 . S
C84 H121 0.930 . S
C85 C82 1.348 1_545 S
C85 C84 1.356 . S
H86 C80 0.930 . S
H87 C81 0.930 . S
C88 N89 1.314 1_545 S
C88 C90 1.353 . S
C88 H94 0.930 . S
N89 Li39 1.989 1_565 S
N89 C88 1.314 1_565 S
N89 C92 1.279 . S
C90 C88 1.353 . S
C90 C93 1.348 . S
C90 H122 0.929 . S
C91 C92 1.358 . S
C91 C93 1.356 1_565 S
C91 H123 0.930 . S
C92 N89 1.279 . S
C92 C91 1.358 . S
C92 H95 0.930 . S
C93 C90 1.348 . S
C93 C91 1.356 1_545 S
H94 C88 0.930 . S
H95 C92 0.930 . S
O96 Li36 1.956 . S
O96 Li37 1.970 1_545 S
O96 Li38 1.961 . S
O96 C40 1.325 . S
O97 Li36 1.970 1_655 S
O97 Li37 1.956 1_645 S
O97 Li39 1.963 . S
O97 C46 1.325 . S
O98 Li36 1.961 . S
O98 Li38 1.956 . S
O98 Li39 1.996 1_455 S
O98 C68 1.325 . S
O99 Li37 1.961 . S
O99 Li38 1.970 1_565 S
O99 Li39 1.932 1_465 S
O99 C74 1.325 . S
H100 C42 0.929 . S
H101 C43 0.930 . S
H102 C44 0.930 . S
H103 C45 0.930 . S
H104 C47 0.930 . S
H105 C49 0.929 . S
H106 C50 0.930 . S
H107 C51 0.930 . S
H108 C54 0.930 . S
H109 C57 0.929 . S
H110 C62 0.929 . S
H111 C63 0.930 . S
H112 C70 0.929 . S
H113 C71 0.930 . S
H114 C72 0.930 . S
H115 C73 0.930 . S
H116 C75 0.929 . S
H117 C76 0.930 . S
H118 C77 0.930 . S
H119 C78 0.930 . S
H120 C82 0.929 . S
H121 C84 0.930 . S
H122 C90 0.929 . S
H123 C91 0.930 . S
Li124 N141 1.990 . S
Li124 O184 1.956 1_655 S
Li124 O185 1.970 1_645 S
Li124 O186 1.961 . S
Li125 N149 1.990 1_545 S
Li125 O184 1.970 . S
Li125 O185 1.956 1_545 S
Li125 O187 1.961 . S
Li126 N171 1.992 . S
Li126 O184 1.961 . S
Li126 O186 1.956 1_455 S
Li126 O187 1.970 . S
Li127 N177 1.990 . S
Li127 O185 1.961 . S
Li127 O186 1.970 1_465 S
Li127 O187 1.956 1_565 S
C128 C130 1.348 . S
C128 C131 1.356 1_455 S
C128 O184 1.325 . S
N129 C132 1.332 . S
N129 C133 1.263 1_455 S
C130 C128 1.348 . S
C130 C132 1.353 . S
C130 H188 0.929 . S
C131 C128 1.356 1_655 S
C131 C133 1.358 . S
C131 H189 0.930 . S
C132 N129 1.332 . S
C132 C130 1.353 . S
C132 H190 0.930 . S
C133 N129 1.263 1_655 S
C133 C131 1.358 . S
C133 H191 0.930 . S
C134 C137 1.348 1_455 S
C134 C138 1.356 . S
C134 O185 1.325 . S
C135 N136 1.279 . S
C135 C138 1.358 . S
C135 H192 0.930 . S
N136 C135 1.279 . S
N136 C139 1.314 1_455 S
C137 C134 1.348 1_655 S
C137 C139 1.353 . S
C137 H193 0.929 . S
C138 C134 1.356 . S
C138 C135 1.358 . S
C138 H194 0.930 . S
C139 N136 1.314 1_655 S
C139 C137 1.353 . S
C139 H195 0.930 . S
C140 N141 1.314 1_565 S
C140 C145 1.353 . S
C140 H146 0.930 . S
N141 Li124 1.990 . S
N141 C140 1.314 1_545 S
N141 C143 1.279 . S
C142 C143 1.358 . S
C142 C144 1.356 . S
C142 H196 0.930 . S
C143 N141 1.279 . S
C143 C142 1.358 . S
C143 H147 0.930 . S
C144 C142 1.356 . S
C144 C145 1.348 1_545 S
C145 C140 1.353 . S
C145 C144 1.348 1_565 S
C145 H197 0.929 . S
H146 C140 0.930 . S
H147 C143 0.930 . S
C148 N149 1.314 1_545 S
C148 C150 1.353 . S
C148 H154 0.930 . S
N149 Li125 1.990 1_565 S
N149 C148 1.314 1_565 S
N149 C152 1.279 . S
C150 C148 1.353 . S
C150 C153 1.348 . S
C150 H198 0.929 . S
C151 C152 1.358 . S
C151 C153 1.356 1_565 S
C151 H199 0.930 . S
C152 N149 1.279 . S
C152 C151 1.358 . S
C152 H155 0.930 . S
C153 C150 1.348 . S
C153 C151 1.356 1_545 S
H154 C148 0.930 . S
H155 C152 0.930 . S
C156 C158 1.348 1_545 S
C156 C159 1.356 . S
C156 O186 1.325 . S
N157 C160 1.314 1_545 S
N157 C161 1.279 . S
C158 C156 1.348 1_565 S
C158 C160 1.353 . S
C158 H200 0.929 . S
C159 C156 1.356 . S
C159 C161 1.358 . S
C159 H201 0.930 . S
C160 N157 1.314 1_565 S
C160 C158 1.353 . S
C160 H202 0.930 . S
C161 N157 1.279 . S
C161 C159 1.358 . S
C161 H203 0.930 . S
C162 C163 1.348 . S
C162 C164 1.356 1_545 S
C162 O187 1.325 . S
C163 C162 1.348 . S
C163 C165 1.353 . S
C163 H204 0.929 . S
C164 C162 1.356 1_565 S
C164 C166 1.358 . S
C164 H205 0.930 . S
C165 C163 1.353 . S
C165 N167 1.314 1_545 S
C165 H206 0.930 . S
C166 C164 1.358 . S
C166 N167 1.279 . S
C166 H207 0.930 . S
N167 C165 1.314 1_565 S
N167 C166 1.279 . S
C168 C170 1.353 . S
C168 N171 1.333 . S
C168 H174 0.930 . S
C169 N171 1.262 1_655 S
C169 C172 1.358 . S
C169 H175 0.930 . S
C170 C168 1.353 . S
C170 C173 1.348 . S
C170 H208 0.929 . S
N171 Li126 1.992 . S
N171 C168 1.333 . S
N171 C169 1.262 1_455 S
C172 C169 1.358 . S
C172 C173 1.356 1_655 S
C172 H209 0.930 . S
C173 C170 1.348 . S
C173 C172 1.356 1_455 S
H174 C168 0.930 . S
H175 C169 0.930 . S
C176 N177 1.314 1_655 S
C176 C178 1.353 . S
C176 H182 0.930 . S
N177 Li127 1.990 . S
N177 C176 1.314 1_455 S
N177 C180 1.279 . S
C178 C176 1.353 . S
C178 C181 1.348 1_655 S
C178 H210 0.929 . S
C179 C180 1.358 . S
C179 C181 1.356 . S
C179 H211 0.930 . S
C180 N177 1.279 . S
C180 C179 1.358 . S
C180 H183 0.930 . S
C181 C178 1.348 1_455 S
C181 C179 1.356 . S
H182 C176 0.930 . S
H183 C180 0.930 . S
O184 Li124 1.956 1_455 S
O184 Li125 1.970 . S
O184 Li126 1.961 . S
O184 C128 1.325 . S
O185 Li124 1.970 1_465 S
O185 Li125 1.956 1_565 S
O185 Li127 1.961 . S
O185 C134 1.325 . S
O186 Li124 1.961 . S
O186 Li126 1.956 1_655 S
O186 Li127 1.970 1_645 S
O186 C156 1.325 . S
O187 Li125 1.961 . S
O187 Li126 1.970 . S
O187 Li127 1.956 1_545 S
O187 C162 1.325 . S
H188 C130 0.929 . S
H189 C131 0.930 . S
H190 C132 0.930 . S
H191 C133 0.930 . S
H192 C135 0.930 . S
H193 C137 0.929 . S
H194 C138 0.930 . S
H195 C139 0.930 . S
H196 C142 0.930 . S
H197 C145 0.929 . S
H198 C150 0.929 . S
H199 C151 0.930 . S
H200 C158 0.929 . S
H201 C159 0.930 . S
H202 C160 0.930 . S
H203 C161 0.930 . S
H204 C163 0.929 . S
H205 C164 0.930 . S
H206 C165 0.930 . S
H207 C166 0.930 . S
H208 C170 0.929 . S
H209 C172 0.930 . S
H210 C178 0.929 . S
H211 C179 0.930 . S
C212 C213 1.349 . S
C212 C214 1.327 . S
C212 H237 0.950 . S
C213 C212 1.349 . S
C213 C229 1.349 1_565 S
C214 C212 1.327 . S
C214 C233 1.429 . S
C214 H238 0.950 . S
C215 C232 1.574 . S
C215 C234 1.353 1_545 S
C215 H239 0.949 . S
H216 C220 0.949 . S
C217 C218 1.349 . S
C217 C219 1.327 . S
C217 H240 0.950 . S
C218 C217 1.349 . S
C218 C230 1.349 1_545 S
C219 C217 1.327 . S
C219 C235 1.443 . S
C219 H241 0.950 . S
C220 H216 0.949 . S
C220 C228 1.574 . S
C220 C236 1.366 1_565 S
H221 C229 0.950 . S
H222 C227 0.950 . S
H223 C228 0.949 . S
H224 C230 0.950 . S
H225 C231 0.950 . S
H226 C232 0.949 . S
C227 H222 0.950 . S
C227 C229 1.327 . S
C227 C233 1.429 1_545 S
C228 C220 1.574 . S
C228 H223 0.949 . S
C228 C234 1.384 . S
C229 C213 1.349 1_545 S
C229 H221 0.950 . S
C229 C227 1.327 . S
C230 C218 1.349 1_565 S
C230 H224 0.950 . S
C230 C231 1.327 . S
C231 H225 0.950 . S
C231 C230 1.327 . S
C231 C235 1.414 1_565 S
C232 C215 1.574 . S
C232 H226 0.949 . S
C232 C236 1.370 . S
C233 C214 1.429 . S
C233 C227 1.429 1_565 S
C233 C234 1.523 . S
C234 C215 1.353 1_565 S
C234 C228 1.384 . S
C234 C233 1.523 . S
C235 C219 1.443 . S
C235 C231 1.414 1_545 S
C235 C236 1.523 . S
C236 C220 1.366 1_545 S
C236 C232 1.370 . S
C236 C235 1.523 . S
H237 C212 0.950 . S
H238 C214 0.950 . S
H239 C215 0.949 . S
H240 C217 0.950 . S
H241 C219 0.950 . S
C242 C243 1.349 1_655 S
C242 C244 1.327 . S
C242 H267 0.950 . S
C243 C242 1.349 1_455 S
C243 C259 1.349 . S
C244 C242 1.327 . S
C244 C263 1.429 1_655 S
C244 H268 0.950 . S
C245 C262 1.574 . S
C245 C264 1.368 . S
C245 H269 0.949 . S
H246 C250 0.949 . S
C247 C248 1.349 . S
C247 C249 1.327 . S
C247 H270 0.950 . S
C248 C247 1.349 . S
C248 C260 1.349 1_455 S
C249 C247 1.327 . S
C249 C265 1.429 . S
C249 H271 0.950 . S
C250 H246 0.949 . S
C250 C258 1.574 . S
C250 C266 1.368 1_655 S
H251 C259 0.950 . S
H252 C257 0.950 . S
H253 C258 0.949 . S
H254 C260 0.950 . S
H255 C261 0.950 . S
H256 C262 0.949 . S
C257 H252 0.950 . S
C257 C259 1.327 . S
C257 C263 1.429 . S
C258 C250 1.574 . S
C258 H253 0.949 . S
C258 C264 1.368 1_655 S
C259 C243 1.349 . S
C259 H251 0.950 . S
C259 C257 1.327 . S
C260 C248 1.349 1_655 S
C260 H254 0.950 . S
C260 C261 1.327 . S
C261 H255 0.950 . S
C261 C260 1.327 . S
C261 C265 1.429 1_655 S
C262 C245 1.574 . S
C262 H256 0.949 . S
C262 C266 1.368 . S
C263 C244 1.429 1_455 S
C263 C257 1.429 . S
C263 C264 1.523 . S
C264 C245 1.368 . S
C264 C258 1.368 1_455 S
C264 C263 1.523 . S
C265 C249 1.429 . S
C265 C261 1.429 1_455 S
C265 C266 1.523 . S
C266 C250 1.368 1_455 S
C266 C262 1.368 . S
C266 C265 1.523 . S
H267 C242 0.950 . S
H268 C244 0.950 . S
H269 C245 0.949 . S
H270 C247 0.950 . S
H271 C249 0.950 . S
C272 C273 1.349 1_565 S
C272 C274 1.327 . S
C272 H297 0.950 . S
C273 C272 1.349 1_545 S
C273 C289 1.349 . S
C274 C272 1.327 . S
C274 C293 1.429 1_565 S
C274 H298 0.950 . S
C275 C292 1.574 . S
C275 C294 1.368 . S
C275 H299 0.949 . S
H276 C280 0.949 . S
C277 C278 1.349 . S
C277 C279 1.327 . S
C277 H300 0.950 . S
C278 C277 1.349 . S
C278 C290 1.349 1_545 S
C279 C277 1.327 . S
C279 C295 1.429 . S
C279 H301 0.950 . S
C280 H276 0.949 . S
C280 C288 1.574 . S
C280 C296 1.368 1_565 S
H281 C289 0.950 . S
H282 C287 0.950 . S
H283 C288 0.949 . S
H284 C290 0.950 . S
H285 C291 0.950 . S
H286 C292 0.949 . S
C287 H282 0.950 . S
C287 C289 1.327 . S
C287 C293 1.429 . S
C288 C280 1.574 . S
C288 H283 0.949 . S
C288 C294 1.368 1_565 S
C289 C273 1.349 . S
C289 H281 0.950 . S
C289 C287 1.327 . S
C290 C278 1.349 1_565 S
C290 H284 0.950 . S
C290 C291 1.327 . S
C291 H285 0.950 . S
C291 C290 1.327 . S
C291 C295 1.429 1_565 S
C292 C275 1.574 . S
C292 H286 0.949 . S
C292 C296 1.368 . S
C293 C274 1.429 1_545 S
C293 C287 1.429 . S
C293 C294 1.523 . S
C294 C275 1.368 . S
C294 C288 1.368 1_545 S
C294 C293 1.523 . S
C295 C279 1.429 . S
C295 C291 1.429 1_545 S
C295 C296 1.523 . S
C296 C280 1.368 1_545 S
C296 C292 1.368 . S
C296 C295 1.523 . S
H297 C272 0.950 . S
H298 C274 0.950 . S
H299 C275 0.949 . S
H300 C277 0.950 . S
H301 C279 0.950 . S
C302 C303 1.361 . S
C302 C304 1.327 . S
C302 H327 0.950 . S
C303 C302 1.361 . S
C303 C319 1.337 1_455 S
C304 C302 1.327 . S
C304 C323 1.429 . S
C304 H328 0.950 . S
C305 C322 1.574 . S
C305 C324 1.368 1_655 S
C305 H329 0.949 . S
H306 C310 0.949 . S
C307 C308 1.349 1_655 S
C307 C309 1.327 . S
C307 H330 0.950 . S
C308 C307 1.349 1_455 S
C308 C320 1.349 . S
C309 C307 1.327 . S
C309 C325 1.429 1_655 S
C309 H331 0.950 . S
C310 H306 0.949 . S
C310 C318 1.574 . S
C310 C326 1.368 . S
H311 C319 0.950 . S
H312 C317 0.950 . S
H313 C318 0.949 . S
H314 C320 0.950 . S
H315 C321 0.950 . S
H316 C322 0.949 . S
C317 H312 0.950 . S
C317 C319 1.327 . S
C317 C323 1.429 1_655 S
C318 C310 1.574 . S
C318 H313 0.949 . S
C318 C324 1.368 . S
C319 C303 1.337 1_655 S
C319 H311 0.950 . S
C319 C317 1.327 . S
C320 C308 1.349 . S
C320 H314 0.950 . S
C320 C321 1.327 . S
C321 H315 0.950 . S
C321 C320 1.327 . S
C321 C325 1.429 . S
C322 C305 1.574 . S
C322 H316 0.949 . S
C322 C326 1.368 1_655 S
C323 C304 1.429 . S
C323 C317 1.429 1_455 S
C323 C324 1.523 . S
C324 C305 1.368 1_455 S
C324 C318 1.368 . S
C324 C323 1.523 . S
C325 C309 1.429 1_455 S
C325 C321 1.429 . S
C325 C326 1.523 . S
C326 C310 1.368 . S
C326 C322 1.368 1_455 S
C326 C325 1.523 . S
H327 C302 0.950 . S
H328 C304 0.950 . S
H329 C305 0.949 . S
H330 C307 0.950 . S
H331 C309 0.950 . S
C332 C333 1.349 . S
C332 C334 1.327 . S
C332 H357 0.950 . S
C333 C332 1.349 . S
C333 C349 1.349 1_545 S
C334 C332 1.327 . S
C334 C353 1.429 . S
C334 H358 0.950 . S
C335 C352 1.574 . S
C335 C354 1.368 1_565 S
C335 H359 0.949 . S
H336 C340 0.949 . S
C337 C338 1.349 1_565 S
C337 C339 1.327 . S
C337 H360 0.950 . S
C338 C337 1.349 1_545 S
C338 C350 1.349 . S
C339 C337 1.327 . S
C339 C355 1.429 1_565 S
C339 H361 0.950 . S
C340 H336 0.949 . S
C340 C348 1.574 . S
C340 C356 1.368 . S
H341 C349 0.950 . S
H342 C347 0.950 . S
H343 C348 0.949 . S
H344 C350 0.950 . S
H345 C351 0.950 . S
H346 C352 0.949 . S
C347 H342 0.950 . S
C347 C349 1.327 . S
C347 C353 1.429 1_565 S
C348 C340 1.574 . S
C348 H343 0.949 . S
C348 C354 1.368 . S
C349 C333 1.349 1_565 S
C349 H341 0.950 . S
C349 C347 1.327 . S
C350 C338 1.349 . S
C350 H344 0.950 . S
C350 C351 1.327 . S
C351 H345 0.950 . S
C351 C350 1.327 . S
C351 C355 1.429 . S
C352 C335 1.574 . S
C352 H346 0.949 . S
C352 C356 1.368 1_565 S
C353 C334 1.429 . S
C353 C347 1.429 1_545 S
C353 C354 1.523 . S
C354 C335 1.368 1_545 S
C354 C348 1.368 . S
C354 C353 1.523 . S
C355 C339 1.429 1_545 S
C355 C351 1.429 . S
C355 C356 1.523 . S
C356 C340 1.368 . S
C356 C352 1.368 1_545 S
C356 C355 1.523 . S
H357 C332 0.950 . S
H358 C334 0.950 . S
H359 C335 0.949 . S
H360 C337 0.950 . S
H361 C339 0.950 . S
C362 C363 1.359 . S
C362 C364 1.327 . S
C362 H387 0.950 . S
C363 C362 1.359 . S
C363 C379 1.339 1_455 S
C364 C362 1.327 . S
C364 C383 1.429 . S
C364 H388 0.950 . S
C365 C382 1.574 . S
C365 C384 1.368 1_655 S
C365 H389 0.949 . S
H366 C370 0.949 . S
C367 C368 1.349 1_655 S
C367 C369 1.327 . S
C367 H390 0.950 . S
C368 C367 1.349 1_455 S
C368 C380 1.349 . S
C369 C367 1.327 . S
C369 C385 1.429 1_655 S
C369 H391 0.950 . S
C370 H366 0.949 . S
C370 C378 1.574 . S
C370 C386 1.368 . S
H371 C379 0.950 . S
H372 C377 0.950 . S
H373 C378 0.949 . S
H374 C380 0.950 . S
H375 C381 0.950 . S
H376 C382 0.949 . S
C377 H372 0.950 . S
C377 C379 1.327 . S
C377 C383 1.429 1_655 S
C378 C370 1.574 . S
C378 H373 0.949 . S
C378 C384 1.368 . S
C379 C363 1.339 1_655 S
C379 H371 0.950 . S
C379 C377 1.327 . S
C380 C368 1.349 . S
C380 H374 0.950 . S
C380 C381 1.327 . S
C381 H375 0.950 . S
C381 C380 1.327 . S
C381 C385 1.429 . S
C382 C365 1.574 . S
C382 H376 0.949 . S
C382 C386 1.368 1_655 S
C383 C364 1.429 . S
C383 C377 1.429 1_455 S
C383 C384 1.523 . S
C384 C365 1.368 1_455 S
C384 C378 1.368 . S
C384 C383 1.523 . S
C385 C369 1.429 1_455 S
C385 C381 1.429 . S
C385 C386 1.523 . S
C386 C370 1.368 . S
C386 C382 1.368 1_455 S
C386 C385 1.523 . S
H387 C362 0.950 . S
H388 C364 0.950 . S
H389 C365 0.949 . S
H390 C367 0.950 . S
H391 C369 0.950 . S
C392 C393 1.349 1_545 S
C392 C394 1.327 . S
C392 H417 0.950 . S
C393 C392 1.349 1_565 S
C393 C409 1.349 . S
C394 C392 1.327 . S
C394 C413 1.429 1_545 S
C394 H418 0.950 . S
C395 C412 1.574 . S
C395 C414 1.383 . S
C395 H419 0.949 . S
H396 C400 0.949 . S
C397 C398 1.349 1_565 S
C397 C399 1.327 . S
C397 H420 0.950 . S
C398 C397 1.349 1_545 S
C398 C410 1.349 . S
C399 C397 1.327 . S
C399 C415 1.413 1_565 S
C399 H421 0.950 . S
C400 H396 0.949 . S
C400 C408 1.574 . S
C400 C416 1.372 . S
H401 C409 0.950 . S
H402 C407 0.950 . S
H403 C408 0.949 . S
H404 C410 0.950 . S
H405 C411 0.950 . S
H406 C412 0.949 . S
C407 H402 0.950 . S
C407 C409 1.327 . S
C407 C413 1.429 . S
C408 C400 1.574 . S
C408 H403 0.949 . S
C408 C414 1.354 1_545 S
C409 C393 1.349 . S
C409 H401 0.950 . S
C409 C407 1.327 . S
C410 C398 1.349 . S
C410 H404 0.950 . S
C410 C411 1.327 . S
C411 H405 0.950 . S
C411 C410 1.327 . S
C411 C415 1.444 . S
C412 C395 1.574 . S
C412 H406 0.949 . S
C412 C416 1.365 1_565 S
C413 C394 1.429 1_565 S
C413 C407 1.429 . S
C413 C414 1.523 . S
C414 C395 1.383 . S
C414 C408 1.354 1_565 S
C414 C413 1.523 . S
C415 C399 1.413 1_545 S
C415 C411 1.444 . S
C415 C416 1.523 . S
C416 C400 1.372 . S
C416 C412 1.365 1_545 S
C416 C415 1.523 . S
H417 C392 0.950 . S
H418 C394 0.950 . S
H419 C395 0.949 . S
H420 C397 0.950 . S
H421 C399 0.950 . S
C422 C423 1.349 1_655 S
C422 C424 1.327 . S
C422 H447 0.950 . S
C423 C422 1.349 1_455 S
C423 C439 1.349 . S
C424 C422 1.327 . S
C424 C443 1.429 1_655 S
C424 H448 0.950 . S
C425 C442 1.574 . S
C425 C444 1.368 . S
C425 H449 0.949 . S
H426 C430 0.949 . S
C427 C428 1.349 . S
C427 C429 1.327 . S
C427 H450 0.950 . S
C428 C427 1.349 . S
C428 C440 1.349 1_455 S
C429 C427 1.327 . S
C429 C445 1.429 . S
C429 H451 0.950 . S
C430 H426 0.949 . S
C430 C438 1.574 . S
C430 C446 1.368 1_655 S
H431 C439 0.950 . S
H432 C437 0.950 . S
H433 C438 0.949 . S
H434 C440 0.950 . S
H435 C441 0.950 . S
H436 C442 0.949 . S
C437 H432 0.950 . S
C437 C439 1.327 . S
C437 C443 1.429 . S
C438 C430 1.574 . S
C438 H433 0.949 . S
C438 C444 1.368 1_655 S
C439 C423 1.349 . S
C439 H431 0.950 . S
C439 C437 1.327 . S
C440 C428 1.349 1_655 S
C440 H434 0.950 . S
C440 C441 1.327 . S
C441 H435 0.950 . S
C441 C440 1.327 . S
C441 C445 1.429 1_655 S
C442 C425 1.574 . S
C442 H436 0.949 . S
C442 C446 1.368 . S
C443 C424 1.429 1_455 S
C443 C437 1.429 . S
C443 C444 1.523 . S
C444 C425 1.368 . S
C444 C438 1.368 1_455 S
C444 C443 1.523 . S
C445 C429 1.429 . S
C445 C441 1.429 1_455 S
C445 C446 1.523 . S
C446 C430 1.368 1_455 S
C446 C442 1.368 . S
C446 C445 1.523 . S
H447 C422 0.950 . S
H448 C424 0.950 . S
H449 C425 0.949 . S
H450 C427 0.950 . S
H451 C429 0.950 . S
C218 C85 1.561 . S
C213 C7 1.508 . S
C248 C173 1.557 . S
C243 C34 1.504 . S
C278 C93 1.564 . S
C273 C14 1.515 . S
C308 C181 1.553 . S
C303 C26 1.506 . S
C338 C153 1.553 . S
C333 C8 1.506 . S
C368 C56 1.564 . S
C363 C32 1.515 . S
C398 C144 1.557 . S
C393 C16 1.502 1_565 S
C423 C25 1.507 . S
C428 C65 1.561 . S
