# Generated by pormake.
# Topology ssa, (4,4)-cn, num edge types: 1
# Building blocks:
#     Node 0, Type 0, BuildingBlock: ESEHIV_clean_sbu_0, # of connection points: 4
#     Node 1, Type 0, BuildingBlock: ESEHIV_clean_sbu_0, # of connection points: 4
#     Node 2, Type 0, BuildingBlock: ESEHIV_clean_sbu_0, # of connection points: 4
#     Node 3, Type 0, BuildingBlock: ESEHIV_clean_sbu_0, # of connection points: 4
#     Node 4, Type 0, BuildingBlock: ESEHIV_clean_sbu_0, # of connection points: 4
#     Node 5, Type 0, BuildingBlock: ESEHIV_clean_sbu_0, # of connection points: 4
#     Node 6, Type 1, BuildingBlock: NAWXER_clean_linker_0, # of connection points: 4
#     Node 7, Type 1, BuildingBlock: NAWXER_clean_linker_0, # of connection points: 4
#     Node 8, Type 1, BuildingBlock: NAWXER_clean_linker_0, # of connection points: 4
#     Node 9, Type 1, BuildingBlock: NAWXER_clean_linker_0, # of connection points: 4
#     Node 10, Type 1, BuildingBlock: NAWXER_clean_linker_0, # of connection points: 4
#     Node 11, Type 1, BuildingBlock: NAWXER_clean_linker_0, # of connection points: 4
#     Edge 12, Type (0, 1), None
#     Edge 13, Type (0, 1), None
#     Edge 14, Type (0, 1), None
#     Edge 15, Type (0, 1), None
#     Edge 16, Type (0, 1), None
#     Edge 17, Type (0, 1), None
#     Edge 18, Type (0, 1), None
#     Edge 19, Type (0, 1), None
#     Edge 20, Type (0, 1), None
#     Edge 21, Type (0, 1), None
#     Edge 22, Type (0, 1), None
#     Edge 23, Type (0, 1), None
#     Edge 24, Type (0, 1), None
#     Edge 25, Type (0, 1), None
#     Edge 26, Type (0, 1), None
#     Edge 27, Type (0, 1), None
#     Edge 28, Type (0, 1), None
#     Edge 29, Type (0, 1), None
#     Edge 30, Type (0, 1), None
#     Edge 31, Type (0, 1), None
#     Edge 32, Type (0, 1), None
#     Edge 33, Type (0, 1), None
#     Edge 34, Type (0, 1), None
#     Edge 35, Type (0, 1), None
# Relax obj value: 0.015
# Max RMSD: 0.110
# Mean RMSD: 0.058
data_MOF--net-ssa--node1-ESEHIV_clean_sbu_0--node2-NAWXER_clean_linker_0--edge1-none
_symmetry_space_group_name_H-M    P1
_symmetry_Int_Tables_number       1
_symmetry_cell_setting            triclinic
loop_
_symmetry_equiv_pos_as_xyz
'x, y, z'
_cell_length_a     31.723076
_cell_length_b     35.173841
_cell_length_c     22.641662
_cell_angle_alpha  87.642419
_cell_angle_beta   91.582499
_cell_angle_gamma 124.3867
loop_
_atom_site_label
_atom_site_type_symbol
_atom_site_fract_x
_atom_site_fract_y
_atom_site_fract_z
_atom_type_partial_charge
Cu0 Cu 0.99391 0.47254 1.00492 0.0
N1 N 0.98905 0.44793 0.93164 0.0
N2 N 0.94592 0.40387 0.85466 0.0
C3 C 0.94465 0.41101 0.91245 0.0
C4 C 0.99363 0.4375 0.83679 0.0
C5 C 0.02009 0.465 0.88439 0.0
O6 O 0.92736 0.46432 1.00892 0.0
C7 C 0.0472 0.43729 0.05739 0.0
O8 O 0.05974 0.43879 1.00214 0.0
H9 H 0.91136 0.39075 0.9403 0.0
H10 H 0.05813 0.49637 0.88376 0.0
N11 N 0.04491 0.53491 1.00777 0.0
N12 N 0.09549 0.60154 0.05284 0.0
C13 C 0.06588 0.55535 0.05926 0.0
C14 C 0.06222 0.56919 0.96671 0.0
C15 C 0.09359 0.61058 0.99456 0.0
C16 C 0.92239 0.49789 1.01029 0.0
O17 O 0.96051 0.53766 0.02968 0.0
H18 H 0.0564 0.53664 0.10133 0.0
H19 H 0.05062 0.56456 0.92075 0.0
O20 O 1.01386 0.44558 0.06849 0.0
H21 H 1.00759 0.4432 0.79202 0.0
H22 H 0.11215 0.64459 0.97384 0.0
Cu23 Cu 0.48884 1.00672 0.52581 0.0
N24 N 0.53783 0.0119 0.47526 0.0
N25 N 0.57637 0.98559 0.4262 0.0
C26 C 0.53181 0.97599 0.44719 0.0
C27 C 0.61183 0.02947 0.44111 0.0
C28 C 0.58789 0.04571 0.47111 0.0
O29 O 0.42284 0.961 0.49182 0.0
C30 C 0.53853 0.98693 0.61128 0.0
O31 O 0.549 0.96139 0.5829 0.0
H32 H 0.49625 0.94217 0.44679 0.0
H33 H 0.60626 0.07851 0.49225 0.0
N34 N 0.49678 0.06339 0.5386 0.0
N35 N 0.50233 0.12162 0.58442 0.0
C36 C 0.49729 0.08084 0.59107 0.0
C37 C 0.50164 0.09445 0.49755 0.0
C38 C 0.50473 0.13015 0.5256 0.0
C39 C 0.41146 0.96611 0.4391 0.0
O40 O 0.44232 1.00528 0.41011 0.0
H41 H 0.49242 0.06342 0.63324 0.0
H42 H 0.50282 0.0914 0.4504 0.0
O43 O 0.49621 0.98212 0.60051 0.0
H44 H 0.65243 0.04776 0.43323 0.0
H45 H 0.5091 0.16037 0.50451 0.0
Cu46 Cu 0.5509 0.53697 0.0525 0.0
N47 N 0.55158 0.48405 0.06217 0.0
N48 N 0.54481 0.42356 0.02203 0.0
C49 C 0.56704 0.46947 1.01876 0.0
C50 C 0.51519 0.40858 0.07056 0.0
C51 C 0.51945 0.44586 0.09523 0.0
O52 O 0.57375 0.55746 0.97147 0.0
C53 C 0.4678 0.51102 0.11861 0.0
O54 O 0.50033 0.51625 0.16001 0.0
H55 H 0.58878 0.49086 0.98119 0.0
H56 H 0.49594 0.44397 0.13037 0.0
N57 N 0.59169 0.58357 0.10697 0.0
N58 N 0.61427 0.64142 0.16757 0.0
C59 C 0.58328 0.61532 0.12288 0.0
C60 C 0.62962 0.58977 0.1425 0.0
C61 C 0.64371 0.62543 0.17972 0.0
C62 C 0.62074 0.58779 0.96104 0.0
O63 O 0.64882 0.61657 1.00278 0.0
H64 H 0.55304 0.61744 0.10368 0.0
H65 H 0.64496 0.56903 0.14246 0.0
O66 O 0.48123 0.51794 0.06469 0.0
H67 H 0.48896 0.37279 0.08424 0.0
H68 H 0.67302 0.63803 0.21352 0.0
Cu69 Cu 0.9861 0.49195 0.50603 0.0
N70 N 0.0337 0.47734 0.50318 0.0
N71 N 0.08299 0.46071 0.45984 0.0
C72 C 0.04332 0.46441 0.45321 0.0
C73 C 0.09913 0.47165 0.51619 0.0
C74 C 0.06809 0.48144 0.54327 0.0
O75 O 1.01012 0.54152 0.44393 0.0
C76 C 0.91548 0.40136 0.53681 0.0
O77 O 0.95557 0.41095 0.56813 0.0
H78 H 0.02417 0.46136 0.41156 0.0
H79 H 0.07182 0.49262 0.58794 0.0
N80 N 0.98413 0.51296 0.57961 0.0
N81 N 0.94567 0.51583 0.65893 0.0
C82 C 0.93993 0.50179 0.60302 0.0
C83 C 0.01966 0.53543 0.62202 0.0
C84 C 0.99601 0.5374 0.67103 0.0
C85 C 0.05647 0.57519 0.45301 0.0
O86 O 0.07805 0.5743 0.5029 0.0
H87 H 0.90408 0.48335 0.57908 0.0
H88 H 0.05964 0.54871 0.61831 0.0
O89 O 0.91901 0.43259 0.50171 0.0
H90 H 0.13258 0.47474 0.53522 0.0
H91 H 1.01432 0.55261 0.71263 0.0
Cu92 Cu 0.52654 0.01327 0.02689 0.0
N93 N 0.52956 0.06668 0.03554 0.0
N94 N 0.53853 0.12889 0.99259 0.0
C95 C 0.51609 0.08323 0.9899 0.0
C96 C 0.56578 0.14138 0.04349 0.0
C97 C 0.5602 0.10273 0.07 0.0
O98 O 0.54196 0.01822 0.94281 0.0
C99 C 0.4543 0.95775 0.11192 0.0
O100 O 0.49162 0.98963 0.14459 0.0
H101 H 0.49598 0.06328 0.95144 0.0
H102 H 0.58112 0.10204 0.10806 0.0
N103 N 0.5779 0.0147 0.07025 0.0
N104 N 0.61662 0.98726 0.1214 0.0
C105 C 0.5734 0.97705 0.09392 0.0
C106 C 0.62586 0.05025 0.08255 0.0
C107 C 0.64984 0.03338 0.11475 0.0
C108 C 0.5834 0.02511 0.9241 0.0
O109 O 0.60677 1.01036 0.95625 0.0
H110 H 0.53852 0.94286 0.09183 0.0
H111 H 0.64238 0.0857 0.0685 0.0
O112 O 0.46014 0.96082 0.0559 0.0
H113 H 0.59088 0.17635 0.05825 0.0
H114 H 0.68866 0.05334 0.13141 0.0
Cu115 Cu 0.49545 0.50532 0.55099 0.0
N116 N 0.51067 0.56494 0.55338 0.0
N117 N 0.53448 0.63376 0.51551 0.0
C118 C 0.52389 0.59197 0.5043 0.0
C119 C 0.52782 0.63336 0.57413 0.0
C120 C 0.51268 0.59058 0.59745 0.0
O121 O 0.45923 0.48284 0.47508 0.0
C122 C 0.58064 0.52862 0.61538 0.0
O123 O 0.56116 0.54627 0.64533 0.0
H124 H 0.52661 0.58135 0.46116 0.0
H125 H 0.50475 0.57962 0.64339 0.0
N126 N 0.45324 0.46554 0.61154 0.0
N127 N 0.43825 0.41223 0.68041 0.0
C128 C 0.45209 0.42736 0.62426 0.0
C129 C 0.43822 0.4744 0.66118 0.0
C130 C 0.42956 0.44172 0.70414 0.0
C131 C 0.41966 0.48398 0.47366 0.0
O132 O 0.40664 0.49371 0.52253 0.0
H133 H 0.46908 0.41543 0.59598 0.0
H134 H 0.43948 0.5052 0.66813 0.0
O135 O 0.55898 0.50893 0.5669 0.0
H136 H 0.53325 0.66179 0.5982 0.0
H137 H 0.42312 0.44259 0.75062 0.0
C138 C 0.41956 0.52989 0.17951 0.0
C139 C 0.41899 0.50204 0.13669 0.0
C140 C 0.37436 0.51793 0.20565 0.0
C141 C 0.32797 0.47689 0.19108 0.0
C142 C 0.3723 0.46305 0.11813 0.0
C143 C 0.32676 0.45046 0.14538 0.0
C144 C 0.28151 0.46228 0.22427 0.0
C145 C 0.37945 0.45095 0.3735 0.0
C146 C 0.39264 0.48259 0.41825 0.0
C147 C 0.34571 0.44586 0.3275 0.0
C148 C 0.32534 0.47264 0.32581 0.0
C149 C 0.37483 0.51119 0.41363 0.0
C150 C 0.34174 0.50626 0.36829 0.0
C151 C 0.28192 0.46272 0.28656 0.0
C152 C 0.08677 0.42251 0.37328 0.0
C153 C 0.11063 0.45913 0.41249 0.0
C154 C 0.11497 0.42106 0.32791 0.0
C155 C 0.1666 0.45706 0.32083 0.0
C156 C 0.16152 0.4956 0.40385 0.0
C157 C 0.18911 0.49478 0.35814 0.0
C158 C 0.20121 0.45322 0.28393 0.0
C159 C 0.09406 0.46225 0.15495 0.0
C160 C 0.07928 0.435 0.10485 0.0
C161 C 0.13217 0.46691 0.1935 0.0
C162 C 0.15525 0.44314 0.18412 0.0
C163 C 0.10211 0.41119 0.09558 0.0
C164 C 0.13924 0.41498 0.13477 0.0
C165 C 0.19855 0.44965 0.22167 0.0
H166 H 0.45528 0.56039 0.19387 0.0
H167 H 0.37596 0.54016 0.23864 0.0
H168 H 0.37139 0.44111 0.0852 0.0
H169 H 0.29113 0.41922 0.13265 0.0
H170 H 0.39262 0.42845 0.37599 0.0
H171 H 0.33342 0.41946 0.29543 0.0
H172 H 0.385 0.53653 0.44668 0.0
H173 H 0.32715 0.52769 0.36786 0.0
H174 H 0.04707 0.39446 0.37927 0.0
H175 H 0.0973 0.39133 0.30022 0.0
H176 H 0.1799 0.52459 0.43285 0.0
H177 H 0.22902 0.52286 0.35345 0.0
H178 H 0.07852 0.48227 0.16234 0.0
H179 H 0.14501 0.49094 0.22882 0.0
H180 H 0.09216 0.39044 0.05697 0.0
H181 H 0.15634 0.39652 0.12564 0.0
N182 N 0.2394 0.45455 0.19427 0.0
N183 N 0.24198 0.45862 0.31313 0.0
C184 C 0.91219 0.35149 0.77005 0.0
C185 C 0.90372 0.36902 0.8197 0.0
C186 C 0.87099 0.31453 0.73999 0.0
C187 C 0.82051 0.2948 0.75858 0.0
C188 C 0.85303 0.35034 0.83656 0.0
C189 C 0.81202 0.31349 0.80665 0.0
C190 C 0.77714 0.25131 0.73363 0.0
C191 C 0.8336 0.36039 0.59122 0.0
C192 C 0.86664 0.3583 0.55365 0.0
C193 C 0.79977 0.32247 0.62808 0.0
C194 C 0.79785 0.28156 0.62712 0.0
C195 C 0.86209 0.31633 0.54985 0.0
C196 C 0.82731 0.27801 0.58548 0.0
C197 C 0.76827 0.24397 0.67216 0.0
C198 C 0.57087 0.05446 0.67378 0.0
C199 C 0.58106 0.03169 0.63321 0.0
C200 C 0.60927 0.09851 0.69127 0.0
C201 C 0.65933 0.12017 0.6704 0.0
C202 C 0.63117 0.05318 0.61212 0.0
C203 C 0.66998 0.09734 0.63029 0.0
C204 C 0.70068 0.16548 0.69296 0.0
C205 C 0.6491 0.06076 0.8436 0.0
C206 C 0.61291 0.06119 0.87746 0.0
C207 C 0.68083 0.09748 0.80413 0.0
C208 C 0.67795 0.13592 0.79905 0.0
C209 C 0.60986 0.09961 0.87173 0.0
C210 C 0.64263 0.13692 0.83368 0.0
C211 C 0.70863 0.1732 0.75415 0.0
H212 H 0.95067 0.36488 0.75612 0.0
H213 H 0.87882 0.30001 0.7041 0.0
H214 H 0.84489 0.36366 0.87358 0.0
H215 H 0.77354 0.29887 0.82196 0.0
H216 H 0.83725 0.39257 0.59601 0.0
H217 H 0.77697 0.32586 0.65944 0.0
H218 H 0.88817 0.31422 0.52253 0.0
H219 H 0.82637 0.2468 0.5838 0.0
H220 H 0.533 0.03811 0.69203 0.0
H221 H 0.59981 0.11542 0.72177 0.0
H222 H 0.6402 0.03632 0.58083 0.0
H223 H 0.70838 0.11332 0.61381 0.0
H224 H 0.65287 0.03201 0.8477 0.0
H225 H 0.70765 0.09594 0.77751 0.0
H226 H 0.58324 0.10156 0.89796 0.0
H227 H 0.63942 0.16601 0.83004 0.0
N228 N 0.74651 0.21575 0.77223 0.0
N229 N 0.73077 0.20105 0.65404 0.0
C230 C 0.637 0.69219 0.25356 0.0
C231 C 0.61372 0.67691 0.19764 0.0
C232 C 0.63579 0.72615 0.28254 0.0
C233 C 0.6106 0.74529 0.25685 0.0
C234 C 0.58944 0.69692 0.17174 0.0
C235 C 0.58801 0.73053 0.20083 0.0
C236 C 0.60952 0.7823 0.28555 0.0
C237 C 0.53047 0.66167 0.41541 0.0
C238 C 0.5506 0.6709 0.4731 0.0
C239 C 0.54663 0.69755 0.37367 0.0
C240 C 0.58436 0.74319 0.3884 0.0
C241 C 0.58729 0.71657 0.48831 0.0
C242 C 0.60409 0.7524 0.44627 0.0
C243 C 0.59933 0.78202 0.34634 0.0
C244 C 0.54983 0.92091 0.36081 0.0
C245 C 0.58481 0.95322 0.40148 0.0
C246 C 0.55722 0.88866 0.33791 0.0
C247 C 0.59921 0.88748 0.35611 0.0
C248 C 0.62701 0.95217 0.41934 0.0
C249 C 0.63374 0.91918 0.39747 0.0
C250 C 0.60703 0.85339 0.33144 0.0
C251 C 0.65568 0.96918 0.20389 0.0
C252 C 0.62328 0.95519 0.15426 0.0
C253 C 0.65601 0.9365 0.24065 0.0
C254 C 0.62343 0.8894 0.22866 0.0
C255 C 0.59402 0.90842 0.13985 0.0
C256 C 0.5941 0.87582 0.17674 0.0
C257 C 0.61724 0.85374 0.27116 0.0
H258 H 0.65599 0.67784 0.27537 0.0
H259 H 0.65494 0.73764 0.32484 0.0
H260 H 0.57184 0.6871 0.12853 0.0
H261 H 0.56886 0.74496 0.17937 0.0
H262 H 0.50138 0.62674 0.40305 0.0
H263 H 0.52885 0.68962 0.33035 0.0
H264 H 0.60348 0.72443 0.53243 0.0
H265 H 0.63248 0.78744 0.45901 0.0
H266 H 0.51703 0.92095 0.34638 0.0
H267 H 0.53 0.86443 0.30615 0.0
H268 H 0.65414 0.97624 0.45123 0.0
H269 H 0.6663 0.91883 0.41218 0.0
H270 H 0.67888 1.00498 0.21588 0.0
H271 H 0.6804 0.94787 0.27945 0.0
H272 H 0.56983 0.89678 0.10092 0.0
H273 H 0.56939 0.83973 0.1661 0.0
N274 N 0.61773 0.81822 0.25054 0.0
N275 N 0.59879 0.81769 0.36674 0.0
C276 C 0.9176 0.53919 0.7429 0.0
C277 C 0.90593 0.50931 0.69654 0.0
C278 C 0.87853 0.53575 0.77503 0.0
C279 C 0.82701 0.502 0.7619 0.0
C280 C 0.85431 0.47444 0.68525 0.0
C281 C 0.81532 0.47108 0.71723 0.0
C282 C 0.78589 0.50343 0.78843 0.0
C283 C 0.85202 0.46239 0.93377 0.0
C284 C 0.88069 0.49636 0.97589 0.0
C285 C 0.81988 0.46606 0.89363 0.0
C286 C 0.81558 0.50375 0.89462 0.0
C287 C 0.87417 0.53266 0.9788 0.0
C288 C 0.8417 0.53608 0.93901 0.0
C289 C 0.78451 0.50989 0.84935 0.0
C290 C 0.6185 0.54073 0.87839 0.0
C291 C 0.64648 0.57918 0.91478 0.0
C292 C 0.64331 0.52476 0.84808 0.0
C293 C 0.69655 0.54767 0.85267 0.0
C294 C 0.70007 0.60403 0.91496 0.0
C295 C 0.72471 0.5882 0.88467 0.0
C296 C 0.7236 0.52848 0.82893 0.0
C297 C 0.65921 0.56598 0.67705 0.0
C298 C 0.62288 0.528 0.64372 0.0
C299 C 0.69227 0.5631 0.71604 0.0
C300 C 0.68904 0.52175 0.72376 0.0
C301 C 0.62191 0.48756 0.64819 0.0
C302 C 0.6549 0.48453 0.68787 0.0
C303 C 0.7212 0.51741 0.76896 0.0
H304 H 0.95673 0.56669 0.75254 0.0
H305 H 0.88864 0.56103 0.80808 0.0
H306 H 0.84372 0.45026 0.65077 0.0
H307 H 0.77591 0.44503 0.70604 0.0
H308 H 0.8561 0.43403 0.92995 0.0
H309 H 0.79914 0.43984 0.86101 0.0
H310 H 0.89557 0.55944 1.01061 0.0
H311 H 0.83871 0.56518 0.9414 0.0
H312 H 0.57716 0.52082 0.87704 0.0
H313 H 0.62072 0.49328 0.82382 0.0
H314 H 0.72301 0.63401 0.94182 0.0
H315 H 0.76589 0.60674 0.88817 0.0
H316 H 0.66071 0.59756 0.67464 0.0
H317 H 0.71941 0.59288 0.74145 0.0
H318 H 0.5936 0.45746 0.62401 0.0
H319 H 0.65216 0.45242 0.69248 0.0
N320 N 0.75312 0.50598 0.75097 0.0
N321 N 0.75436 0.52341 0.86686 0.0
C322 C 0.13454 0.6225 0.15263 0.0
C323 C 0.11851 0.63368 0.10001 0.0
C324 C 0.15762 0.65403 0.19808 0.0
C325 C 0.16433 0.69698 0.19194 0.0
C326 C 0.12437 0.67629 0.0947 0.0
C327 C 0.14706 0.70755 0.14013 0.0
C328 C 0.19777 0.73456 0.23241 0.0
C329 C 0.07004 0.62168 0.35624 0.0
C330 C 0.08896 0.61341 0.40881 0.0
C331 C 0.10323 0.65934 0.31755 0.0
C332 C 0.15595 0.68899 0.33052 0.0
C333 C 0.14171 0.64294 0.42054 0.0
C334 C 0.17433 0.6798 0.38236 0.0
C335 C 0.19305 0.73172 0.29479 0.0
C336 C 0.35117 0.93279 0.35306 0.0
C337 C 0.36921 0.92614 0.40723 0.0
C338 C 0.31612 0.89513 0.31905 0.0
C339 C 0.29964 0.85013 0.33761 0.0
C340 C 0.34986 0.88089 0.42777 0.0
C341 C 0.31548 0.84329 0.39326 0.0
C342 C 0.26638 0.81015 0.29941 0.0
C343 C 0.41224 0.90412 0.19901 0.0
C344 C 0.4079 0.91865 0.14173 0.0
C345 C 0.36906 0.8691 0.22974 0.0
C346 C 0.31992 0.84896 0.20517 0.0
C347 C 0.35925 0.89692 0.11553 0.0
C348 C 0.31567 0.86255 0.14707 0.0
C349 C 0.27354 0.81126 0.2377 0.0
H350 H 0.13088 0.59002 0.15779 0.0
H351 H 0.17227 0.6457 0.2366 0.0
H352 H 0.1116 0.68558 0.05534 0.0
H353 H 0.1526 0.74082 0.13405 0.0
H354 H 0.02974 0.59971 0.34562 0.0
H355 H 0.08744 0.66585 0.27855 0.0
H356 H 0.15842 0.63787 0.45987 0.0
H357 H 0.21452 0.70155 0.39388 0.0
H358 H 0.36488 0.9672 0.33638 0.0
H359 H 0.30298 0.90135 0.27746 0.0
H360 H 0.36301 0.87458 0.4693 0.0
H361 H 0.30277 0.80894 0.40914 0.0
H362 H 0.44934 0.91955 0.22001 0.0
H363 H 0.37437 0.85775 0.27276 0.0
H364 H 0.35475 0.90732 0.07141 0.0
H365 H 0.27851 0.84688 0.12621 0.0
N366 N 0.23804 0.77386 0.20696 0.0
N367 N 0.22733 0.77019 0.32526 0.0
C368 C 0.50062 0.1419 0.90402 0.0
C369 C 0.54151 0.15817 0.94429 0.0
C370 C 0.50265 0.17059 0.85808 0.0
C371 C 0.54573 0.21598 0.85151 0.0
C372 C 0.58579 0.20265 0.93534 0.0
C373 C 0.58782 0.23129 0.88943 0.0
C374 C 0.5412 0.25053 0.81886 0.0
C375 C 0.54219 0.16538 0.67547 0.0
C376 C 0.50554 0.15069 0.63018 0.0
C377 C 0.54738 0.19574 0.7181 0.0
C378 C 0.51485 0.21122 0.71762 0.0
C379 C 0.47379 0.16668 0.62861 0.0
C380 C 0.47806 0.19617 0.67193 0.0
C381 C 0.52099 0.24558 0.76079 0.0
C382 C 0.50025 0.40767 0.74123 0.0
C383 C 0.45305 0.38536 0.7117 0.0
C384 C 0.51966 0.38268 0.7627 0.0
C385 C 0.49155 0.33469 0.75619 0.0
C386 C 0.42523 0.33772 0.70427 0.0
C387 C 0.44416 0.31248 0.7267 0.0
C388 C 0.51169 0.30756 0.77806 0.0
C389 C 0.49542 0.35633 0.95802 0.0
C390 C 0.5424 0.3961 0.97475 0.0
C391 C 0.49256 0.33079 0.91043 0.0
C392 C 0.5367 0.34416 0.87915 0.0
C393 C 0.58642 0.40997 0.94253 0.0
C394 C 0.58376 0.3837 0.89584 0.0
C395 C 0.53439 0.31357 0.83435 0.0
H396 H 0.46608 0.10768 0.90972 0.0
H397 H 0.46909 0.15845 0.83063 0.0
H398 H 0.61851 0.21567 0.96442 0.0
H399 H 0.62115 0.26647 0.88564 0.0
H400 H 0.56827 0.15487 0.67623 0.0
H401 H 0.57811 0.2081 0.74998 0.0
H402 H 0.4455 0.15617 0.59383 0.0
H403 H 0.45264 0.20753 0.66923 0.0
H404 H 0.52316 0.44479 0.74491 0.0
H405 H 0.55739 0.40122 0.78245 0.0
H406 H 0.38952 0.32041 0.67991 0.0
H407 H 0.422 0.27564 0.72047 0.0
H408 H 0.46075 0.34533 0.98128 0.0
H409 H 0.45606 0.29996 0.89883 0.0
H410 H 0.62296 0.44068 0.95424 0.0
H411 H 0.61838 0.39418 0.87276 0.0
N412 N 0.54766 0.28461 0.85236 0.0
N413 N 0.50657 0.27432 0.74327 0.0
loop_
_geom_bond_atom_site_label_1
_geom_bond_atom_site_label_2
_geom_bond_distance
_geom_bond_site_symmetry_2
_ccdc_geom_bond_type
Cu0 N1 1.999 1_554 S
Cu0 O6 1.974 1_554 S
Cu0 N11 1.985 1_655 S
Cu0 O20 1.959 1_655 S
N1 Cu0 1.999 1_556 S
N1 C3 1.263 . S
N1 C5 1.389 1_556 S
N2 C3 1.358 . S
N2 C4 1.400 . S
C3 N1 1.263 . S
C3 N2 1.358 . S
C3 H9 0.930 . S
C4 N2 1.400 . S
C4 C5 1.351 1_556 S
C4 H21 0.930 . S
C5 N1 1.389 1_554 S
C5 C4 1.351 1_554 S
C5 H10 0.930 . S
O6 Cu0 1.974 1_556 S
O6 C16 1.282 . S
C7 O8 1.261 1_554 S
C7 O20 1.251 . S
O8 C7 1.261 1_556 S
H9 C3 0.930 . S
H10 C5 0.930 . S
N11 Cu0 1.985 1_455 S
N11 C13 1.335 . S
N11 C14 1.390 . S
N12 C13 1.345 . S
N12 C15 1.336 . S
C13 N11 1.335 . S
C13 N12 1.345 . S
C13 H18 0.930 . S
C14 N11 1.390 . S
C14 C15 1.346 . S
C14 H19 0.930 1_554 S
C15 N12 1.336 . S
C15 C14 1.346 . S
C15 H22 0.929 . S
C16 O6 1.282 . S
C16 O17 1.216 1_655 S
O17 C16 1.216 1_455 S
H18 C13 0.930 . S
H19 C14 0.930 1_556 S
O20 Cu0 1.959 1_455 S
O20 C7 1.251 . S
H21 C4 0.930 . S
H22 C15 0.929 . S
Cu23 N24 1.999 . S
Cu23 O29 1.974 . S
Cu23 N34 1.985 1_565 S
Cu23 O43 1.959 1_565 S
N24 Cu23 1.999 . S
N24 C26 1.263 . S
N24 C28 1.389 . S
N25 C26 1.358 . S
N25 C27 1.400 . S
C26 N24 1.263 . S
C26 N25 1.358 . S
C26 H32 0.930 . S
C27 N25 1.400 . S
C27 C28 1.351 . S
C27 H44 0.930 . S
C28 N24 1.389 . S
C28 C27 1.351 . S
C28 H33 0.930 . S
O29 Cu23 1.974 . S
O29 C39 1.282 . S
C30 O31 1.261 . S
C30 O43 1.251 . S
O31 C30 1.261 . S
H32 C26 0.930 . S
H33 C28 0.930 . S
N34 Cu23 1.985 1_545 S
N34 C36 1.335 . S
N34 C37 1.390 . S
N35 C36 1.345 . S
N35 C38 1.336 . S
C36 N34 1.335 . S
C36 N35 1.345 . S
C36 H41 0.930 . S
C37 N34 1.390 . S
C37 C38 1.346 . S
C37 H42 0.930 . S
C38 N35 1.336 . S
C38 C37 1.346 . S
C38 H45 0.929 . S
C39 O29 1.282 . S
C39 O40 1.216 . S
O40 C39 1.216 . S
H41 C36 0.930 . S
H42 C37 0.930 . S
O43 Cu23 1.959 1_545 S
O43 C30 1.251 . S
H44 C27 0.930 . S
H45 C38 0.929 . S
Cu46 N47 1.999 . S
Cu46 O52 1.974 . S
Cu46 N57 1.985 1_556 S
Cu46 O66 1.959 1_556 S
N47 Cu46 1.999 . S
N47 C49 1.263 . S
N47 C51 1.389 . S
N48 C49 1.358 . S
N48 C50 1.400 . S
C49 N47 1.263 . S
C49 N48 1.358 . S
C49 H55 0.930 . S
C50 N48 1.400 . S
C50 C51 1.351 . S
C50 H67 0.930 . S
C51 N47 1.389 . S
C51 C50 1.351 . S
C51 H56 0.930 . S
O52 Cu46 1.974 . S
O52 C62 1.282 . S
C53 O54 1.261 . S
C53 O66 1.251 . S
O54 C53 1.261 . S
H55 C49 0.930 . S
H56 C51 0.930 . S
N57 Cu46 1.985 1_554 S
N57 C59 1.335 . S
N57 C60 1.390 . S
N58 C59 1.345 . S
N58 C61 1.336 . S
C59 N57 1.335 . S
C59 N58 1.345 . S
C59 H64 0.930 . S
C60 N57 1.390 . S
C60 C61 1.346 . S
C60 H65 0.930 . S
C61 N58 1.336 . S
C61 C60 1.346 . S
C61 H68 0.929 . S
C62 O52 1.282 . S
C62 O63 1.216 1_556 S
O63 C62 1.216 1_554 S
H64 C59 0.930 . S
H65 C60 0.930 . S
O66 Cu46 1.959 1_554 S
O66 C53 1.251 . S
H67 C50 0.930 . S
H68 C61 0.929 . S
Cu69 N70 1.999 1_655 S
Cu69 O75 1.974 1_655 S
Cu69 N80 1.985 . S
Cu69 O89 1.959 . S
N70 Cu69 1.999 1_455 S
N70 C72 1.263 . S
N70 C74 1.389 1_455 S
N71 C72 1.358 . S
N71 C73 1.400 . S
C72 N70 1.263 . S
C72 N71 1.358 . S
C72 H78 0.930 . S
C73 N71 1.400 . S
C73 C74 1.351 1_455 S
C73 H90 0.930 . S
C74 N70 1.389 1_655 S
C74 C73 1.351 1_655 S
C74 H79 0.930 . S
O75 Cu69 1.974 1_455 S
O75 C85 1.282 . S
C76 O77 1.261 1_655 S
C76 O89 1.251 . S
O77 C76 1.261 1_455 S
H78 C72 0.930 . S
H79 C74 0.930 . S
N80 Cu69 1.985 . S
N80 C82 1.335 . S
N80 C83 1.390 . S
N81 C82 1.345 . S
N81 C84 1.336 . S
C82 N80 1.335 . S
C82 N81 1.345 . S
C82 H87 0.930 . S
C83 N80 1.390 . S
C83 C84 1.346 . S
C83 H88 0.930 1_655 S
C84 N81 1.336 . S
C84 C83 1.346 . S
C84 H91 0.929 . S
C85 O75 1.282 . S
C85 O86 1.216 . S
O86 C85 1.216 . S
H87 C82 0.930 . S
H88 C83 0.930 1_455 S
O89 Cu69 1.959 . S
O89 C76 1.251 . S
H90 C73 0.930 . S
H91 C84 0.929 . S
Cu92 N93 1.999 . S
Cu92 O98 1.974 1_554 S
Cu92 N103 1.985 1_545 S
Cu92 O112 1.959 1_545 S
N93 Cu92 1.999 . S
N93 C95 1.263 1_554 S
N93 C97 1.389 . S
N94 C95 1.358 . S
N94 C96 1.386 1_556 S
C95 N93 1.263 1_556 S
C95 N94 1.358 . S
C95 H101 0.930 . S
C96 N94 1.386 1_554 S
C96 C97 1.360 . S
C96 H113 0.935 . S
C97 N93 1.389 . S
C97 C96 1.360 . S
C97 H102 0.930 . S
O98 Cu92 1.974 1_556 S
O98 C108 1.282 . S
C99 O100 1.261 . S
C99 O112 1.251 . S
O100 C99 1.261 . S
H101 C95 0.930 . S
H102 C97 0.930 . S
N103 Cu92 1.985 1_565 S
N103 C105 1.335 . S
N103 C106 1.390 . S
N104 C105 1.345 . S
N104 C107 1.336 . S
C105 N103 1.335 . S
C105 N104 1.345 . S
C105 H110 0.930 . S
C106 N103 1.390 . S
C106 C107 1.346 . S
C106 H111 0.932 1_554 S
C107 N104 1.336 . S
C107 C106 1.346 . S
C107 H114 0.929 . S
C108 O98 1.282 . S
C108 O109 1.216 . S
O109 C108 1.216 . S
H110 C105 0.930 . S
H111 C106 0.932 1_556 S
O112 Cu92 1.959 1_565 S
O112 C99 1.251 . S
H113 C96 0.935 . S
H114 C107 0.929 . S
Cu115 N116 1.999 . S
Cu115 O121 1.974 . S
Cu115 N126 1.985 . S
Cu115 O135 1.959 . S
N116 Cu115 1.999 . S
N116 C118 1.263 . S
N116 C120 1.389 . S
N117 C118 1.358 . S
N117 C119 1.400 . S
C118 N116 1.263 . S
C118 N117 1.358 . S
C118 H124 0.930 . S
C119 N117 1.400 . S
C119 C120 1.351 . S
C119 H136 0.930 . S
C120 N116 1.389 . S
C120 C119 1.351 . S
C120 H125 0.930 . S
O121 Cu115 1.974 . S
O121 C131 1.282 . S
C122 O123 1.261 . S
C122 O135 1.251 . S
O123 C122 1.261 . S
H124 C118 0.930 . S
H125 C120 0.930 . S
N126 Cu115 1.985 . S
N126 C128 1.335 . S
N126 C129 1.390 . S
N127 C128 1.345 . S
N127 C130 1.336 . S
C128 N126 1.335 . S
C128 N127 1.345 . S
C128 H133 0.930 . S
C129 N126 1.390 . S
C129 C130 1.346 . S
C129 H134 0.930 . S
C130 N127 1.336 . S
C130 C129 1.346 . S
C130 H137 0.929 . S
C131 O121 1.282 . S
C131 O132 1.216 . S
O132 C131 1.216 . S
H133 C128 0.930 . S
H134 C129 0.930 . S
O135 Cu115 1.959 . S
O135 C122 1.251 . S
H136 C119 0.930 . S
H137 C130 0.929 . S
C138 C139 1.384 . S
C138 C140 1.384 . S
C138 H166 0.931 . S
C139 C138 1.384 . S
C139 C142 1.382 . S
C140 C138 1.384 . S
C140 C141 1.381 . S
C140 H167 0.930 . S
C141 C140 1.381 . S
C141 C143 1.381 . S
C141 C144 1.487 . S
C142 C139 1.382 . S
C142 C143 1.387 . S
C142 H168 0.930 . S
C143 C141 1.381 . S
C143 C142 1.387 . S
C143 H169 0.931 . S
C144 C141 1.487 . S
C144 C151 1.399 . S
C144 N182 1.343 . S
C145 C146 1.384 . S
C145 C147 1.384 . S
C145 H170 0.931 . S
C146 C145 1.384 . S
C146 C149 1.382 . S
C147 C145 1.384 . S
C147 C148 1.381 . S
C147 H171 0.930 . S
C148 C147 1.381 . S
C148 C150 1.381 . S
C148 C151 1.487 . S
C149 C146 1.382 . S
C149 C150 1.387 . S
C149 H172 0.930 . S
C150 C148 1.381 . S
C150 C149 1.387 . S
C150 H173 0.931 . S
C151 C144 1.399 . S
C151 C148 1.487 . S
C151 N183 1.343 . S
C152 C153 1.384 . S
C152 C154 1.384 . S
C152 H174 0.931 . S
C153 C152 1.384 . S
C153 C156 1.382 . S
C154 C152 1.384 . S
C154 C155 1.381 . S
C154 H175 0.930 . S
C155 C154 1.381 . S
C155 C157 1.381 . S
C155 C158 1.487 . S
C156 C153 1.382 . S
C156 C157 1.387 . S
C156 H176 0.930 . S
C157 C155 1.381 . S
C157 C156 1.387 . S
C157 H177 0.931 . S
C158 C155 1.487 . S
C158 C165 1.399 . S
C158 N183 1.343 . S
C159 C160 1.384 . S
C159 C161 1.384 . S
C159 H178 0.931 . S
C160 C159 1.384 . S
C160 C163 1.382 . S
C161 C159 1.384 . S
C161 C162 1.381 . S
C161 H179 0.930 . S
C162 C161 1.381 . S
C162 C164 1.381 . S
C162 C165 1.487 . S
C163 C160 1.382 . S
C163 C164 1.387 . S
C163 H180 0.930 . S
C164 C162 1.381 . S
C164 C163 1.387 . S
C164 H181 0.931 . S
C165 C158 1.399 . S
C165 C162 1.487 . S
C165 N182 1.343 . S
H166 C138 0.931 . S
H167 C140 0.930 . S
H168 C142 0.930 . S
H169 C143 0.931 . S
H170 C145 0.931 . S
H171 C147 0.930 . S
H172 C149 0.930 . S
H173 C150 0.931 . S
H174 C152 0.931 . S
H175 C154 0.930 . S
H176 C156 0.930 . S
H177 C157 0.931 . S
H178 C159 0.931 . S
H179 C161 0.930 . S
H180 C163 0.930 . S
H181 C164 0.931 . S
N182 C144 1.343 . S
N182 C165 1.343 . S
N183 C151 1.343 . S
N183 C158 1.343 . S
C184 C185 1.384 . S
C184 C186 1.384 . S
C184 H212 0.931 . S
C185 C184 1.384 . S
C185 C188 1.382 . S
C186 C184 1.384 . S
C186 C187 1.381 . S
C186 H213 0.930 . S
C187 C186 1.381 . S
C187 C189 1.381 . S
C187 C190 1.487 . S
C188 C185 1.382 . S
C188 C189 1.387 . S
C188 H214 0.930 . S
C189 C187 1.381 . S
C189 C188 1.387 . S
C189 H215 0.931 . S
C190 C187 1.487 . S
C190 C197 1.399 . S
C190 N228 1.343 . S
C191 C192 1.384 . S
C191 C193 1.384 . S
C191 H216 0.931 . S
C192 C191 1.384 . S
C192 C195 1.382 . S
C193 C191 1.384 . S
C193 C194 1.381 . S
C193 H217 0.930 . S
C194 C193 1.381 . S
C194 C196 1.381 . S
C194 C197 1.487 . S
C195 C192 1.382 . S
C195 C196 1.387 . S
C195 H218 0.930 . S
C196 C194 1.381 . S
C196 C195 1.387 . S
C196 H219 0.931 . S
C197 C190 1.399 . S
C197 C194 1.487 . S
C197 N229 1.343 . S
C198 C199 1.384 . S
C198 C200 1.384 . S
C198 H220 0.931 . S
C199 C198 1.384 . S
C199 C202 1.382 . S
C200 C198 1.384 . S
C200 C201 1.381 . S
C200 H221 0.930 . S
C201 C200 1.381 . S
C201 C203 1.381 . S
C201 C204 1.487 . S
C202 C199 1.382 . S
C202 C203 1.387 . S
C202 H222 0.930 . S
C203 C201 1.381 . S
C203 C202 1.387 . S
C203 H223 0.931 . S
C204 C201 1.487 . S
C204 C211 1.399 . S
C204 N229 1.343 . S
C205 C206 1.384 . S
C205 C207 1.384 . S
C205 H224 0.931 . S
C206 C205 1.384 . S
C206 C209 1.382 . S
C207 C205 1.384 . S
C207 C208 1.381 . S
C207 H225 0.930 . S
C208 C207 1.381 . S
C208 C210 1.381 . S
C208 C211 1.487 . S
C209 C206 1.382 . S
C209 C210 1.387 . S
C209 H226 0.930 . S
C210 C208 1.381 . S
C210 C209 1.387 . S
C210 H227 0.931 . S
C211 C204 1.399 . S
C211 C208 1.487 . S
C211 N228 1.343 . S
H212 C184 0.931 . S
H213 C186 0.930 . S
H214 C188 0.930 . S
H215 C189 0.931 . S
H216 C191 0.931 . S
H217 C193 0.930 . S
H218 C195 0.930 . S
H219 C196 0.931 . S
H220 C198 0.931 . S
H221 C200 0.930 . S
H222 C202 0.930 . S
H223 C203 0.931 . S
H224 C205 0.931 . S
H225 C207 0.930 . S
H226 C209 0.930 . S
H227 C210 0.931 . S
N228 C190 1.343 . S
N228 C211 1.343 . S
N229 C197 1.343 . S
N229 C204 1.343 . S
C230 C231 1.384 . S
C230 C232 1.384 . S
C230 H258 0.931 . S
C231 C230 1.384 . S
C231 C234 1.382 . S
C232 C230 1.384 . S
C232 C233 1.381 . S
C232 H259 0.930 . S
C233 C232 1.381 . S
C233 C235 1.381 . S
C233 C236 1.487 . S
C234 C231 1.382 . S
C234 C235 1.387 . S
C234 H260 0.930 . S
C235 C233 1.381 . S
C235 C234 1.387 . S
C235 H261 0.931 . S
C236 C233 1.487 . S
C236 C243 1.399 . S
C236 N274 1.343 . S
C237 C238 1.384 . S
C237 C239 1.384 . S
C237 H262 0.931 . S
C238 C237 1.384 . S
C238 C241 1.382 . S
C239 C237 1.384 . S
C239 C240 1.381 . S
C239 H263 0.930 . S
C240 C239 1.381 . S
C240 C242 1.381 . S
C240 C243 1.487 . S
C241 C238 1.382 . S
C241 C242 1.387 . S
C241 H264 0.930 . S
C242 C240 1.381 . S
C242 C241 1.387 . S
C242 H265 0.931 . S
C243 C236 1.399 . S
C243 C240 1.487 . S
C243 N275 1.343 . S
C244 C245 1.384 . S
C244 C246 1.384 . S
C244 H266 0.931 . S
C245 C244 1.384 . S
C245 C248 1.382 . S
C246 C244 1.384 . S
C246 C247 1.381 . S
C246 H267 0.930 . S
C247 C246 1.381 . S
C247 C249 1.381 . S
C247 C250 1.487 . S
C248 C245 1.382 . S
C248 C249 1.387 . S
C248 H268 0.930 . S
C249 C247 1.381 . S
C249 C248 1.387 . S
C249 H269 0.931 . S
C250 C247 1.487 . S
C250 C257 1.399 . S
C250 N275 1.343 . S
C251 C252 1.384 . S
C251 C253 1.384 . S
C251 H270 0.931 . S
C252 C251 1.384 . S
C252 C255 1.382 . S
C253 C251 1.384 . S
C253 C254 1.381 . S
C253 H271 0.930 . S
C254 C253 1.381 . S
C254 C256 1.381 . S
C254 C257 1.487 . S
C255 C252 1.382 . S
C255 C256 1.387 . S
C255 H272 0.930 . S
C256 C254 1.381 . S
C256 C255 1.387 . S
C256 H273 0.931 . S
C257 C250 1.399 . S
C257 C254 1.487 . S
C257 N274 1.343 . S
H258 C230 0.931 . S
H259 C232 0.930 . S
H260 C234 0.930 . S
H261 C235 0.931 . S
H262 C237 0.931 . S
H263 C239 0.930 . S
H264 C241 0.930 . S
H265 C242 0.931 . S
H266 C244 0.931 . S
H267 C246 0.930 . S
H268 C248 0.930 . S
H269 C249 0.931 . S
H270 C251 0.931 . S
H271 C253 0.930 . S
H272 C255 0.930 . S
H273 C256 0.931 . S
N274 C236 1.343 . S
N274 C257 1.343 . S
N275 C243 1.343 . S
N275 C250 1.343 . S
C276 C277 1.384 . S
C276 C278 1.384 . S
C276 H304 0.931 . S
C277 C276 1.384 . S
C277 C280 1.382 . S
C278 C276 1.384 . S
C278 C279 1.381 . S
C278 H305 0.930 . S
C279 C278 1.381 . S
C279 C281 1.381 . S
C279 C282 1.487 . S
C280 C277 1.382 . S
C280 C281 1.387 . S
C280 H306 0.930 . S
C281 C279 1.381 . S
C281 C280 1.387 . S
C281 H307 0.931 . S
C282 C279 1.487 . S
C282 C289 1.399 . S
C282 N320 1.343 . S
C283 C284 1.384 . S
C283 C285 1.384 . S
C283 H308 0.931 . S
C284 C283 1.384 . S
C284 C287 1.382 . S
C285 C283 1.384 . S
C285 C286 1.381 . S
C285 H309 0.930 . S
C286 C285 1.381 . S
C286 C288 1.381 . S
C286 C289 1.487 . S
C287 C284 1.382 . S
C287 C288 1.387 . S
C287 H310 0.930 . S
C288 C286 1.381 . S
C288 C287 1.387 . S
C288 H311 0.931 . S
C289 C282 1.399 . S
C289 C286 1.487 . S
C289 N321 1.343 . S
C290 C291 1.384 . S
C290 C292 1.384 . S
C290 H312 0.931 . S
C291 C290 1.384 . S
C291 C294 1.382 . S
C292 C290 1.384 . S
C292 C293 1.381 . S
C292 H313 0.930 . S
C293 C292 1.381 . S
C293 C295 1.381 . S
C293 C296 1.487 . S
C294 C291 1.382 . S
C294 C295 1.387 . S
C294 H314 0.930 . S
C295 C293 1.381 . S
C295 C294 1.387 . S
C295 H315 0.931 . S
C296 C293 1.487 . S
C296 C303 1.399 . S
C296 N321 1.343 . S
C297 C298 1.384 . S
C297 C299 1.384 . S
C297 H316 0.931 . S
C298 C297 1.384 . S
C298 C301 1.382 . S
C299 C297 1.384 . S
C299 C300 1.381 . S
C299 H317 0.930 . S
C300 C299 1.381 . S
C300 C302 1.381 . S
C300 C303 1.487 . S
C301 C298 1.382 . S
C301 C302 1.387 . S
C301 H318 0.930 . S
C302 C300 1.381 . S
C302 C301 1.387 . S
C302 H319 0.931 . S
C303 C296 1.399 . S
C303 C300 1.487 . S
C303 N320 1.343 . S
H304 C276 0.931 . S
H305 C278 0.930 . S
H306 C280 0.930 . S
H307 C281 0.931 . S
H308 C283 0.931 . S
H309 C285 0.930 . S
H310 C287 0.930 . S
H311 C288 0.931 . S
H312 C290 0.931 . S
H313 C292 0.930 . S
H314 C294 0.930 . S
H315 C295 0.931 . S
H316 C297 0.931 . S
H317 C299 0.930 . S
H318 C301 0.930 . S
H319 C302 0.931 . S
N320 C282 1.343 . S
N320 C303 1.343 . S
N321 C289 1.343 . S
N321 C296 1.343 . S
C322 C323 1.384 . S
C322 C324 1.384 . S
C322 H350 0.931 . S
C323 C322 1.384 . S
C323 C326 1.382 . S
C324 C322 1.384 . S
C324 C325 1.381 . S
C324 H351 0.930 . S
C325 C324 1.381 . S
C325 C327 1.381 . S
C325 C328 1.487 . S
C326 C323 1.382 . S
C326 C327 1.387 . S
C326 H352 0.930 . S
C327 C325 1.381 . S
C327 C326 1.387 . S
C327 H353 0.931 . S
C328 C325 1.487 . S
C328 C335 1.399 . S
C328 N366 1.343 . S
C329 C330 1.384 . S
C329 C331 1.384 . S
C329 H354 0.931 . S
C330 C329 1.384 . S
C330 C333 1.382 . S
C331 C329 1.384 . S
C331 C332 1.381 . S
C331 H355 0.930 . S
C332 C331 1.381 . S
C332 C334 1.381 . S
C332 C335 1.487 . S
C333 C330 1.382 . S
C333 C334 1.387 . S
C333 H356 0.930 . S
C334 C332 1.381 . S
C334 C333 1.387 . S
C334 H357 0.931 . S
C335 C328 1.399 . S
C335 C332 1.487 . S
C335 N367 1.343 . S
C336 C337 1.384 . S
C336 C338 1.384 . S
C336 H358 0.931 . S
C337 C336 1.384 . S
C337 C340 1.382 . S
C338 C336 1.384 . S
C338 C339 1.381 . S
C338 H359 0.930 . S
C339 C338 1.381 . S
C339 C341 1.381 . S
C339 C342 1.487 . S
C340 C337 1.382 . S
C340 C341 1.387 . S
C340 H360 0.930 . S
C341 C339 1.381 . S
C341 C340 1.387 . S
C341 H361 0.931 . S
C342 C339 1.487 . S
C342 C349 1.399 . S
C342 N367 1.343 . S
C343 C344 1.384 . S
C343 C345 1.384 . S
C343 H362 0.931 . S
C344 C343 1.384 . S
C344 C347 1.382 . S
C345 C343 1.384 . S
C345 C346 1.381 . S
C345 H363 0.930 . S
C346 C345 1.381 . S
C346 C348 1.381 . S
C346 C349 1.487 . S
C347 C344 1.382 . S
C347 C348 1.387 . S
C347 H364 0.930 . S
C348 C346 1.381 . S
C348 C347 1.387 . S
C348 H365 0.931 . S
C349 C342 1.399 . S
C349 C346 1.487 . S
C349 N366 1.343 . S
H350 C322 0.931 . S
H351 C324 0.930 . S
H352 C326 0.930 . S
H353 C327 0.931 . S
H354 C329 0.931 . S
H355 C331 0.930 . S
H356 C333 0.930 . S
H357 C334 0.931 . S
H358 C336 0.931 . S
H359 C338 0.930 . S
H360 C340 0.930 . S
H361 C341 0.931 . S
H362 C343 0.931 . S
H363 C345 0.930 . S
H364 C347 0.930 . S
H365 C348 0.931 . S
N366 C328 1.343 . S
N366 C349 1.343 . S
N367 C335 1.343 . S
N367 C342 1.343 . S
C368 C369 1.384 . S
C368 C370 1.384 . S
C368 H396 0.931 . S
C369 C368 1.384 . S
C369 C372 1.382 . S
C370 C368 1.384 . S
C370 C371 1.381 . S
C370 H397 0.930 . S
C371 C370 1.381 . S
C371 C373 1.381 . S
C371 C374 1.487 . S
C372 C369 1.382 . S
C372 C373 1.387 . S
C372 H398 0.930 . S
C373 C371 1.381 . S
C373 C372 1.387 . S
C373 H399 0.931 . S
C374 C371 1.487 . S
C374 C381 1.399 . S
C374 N412 1.343 . S
C375 C376 1.384 . S
C375 C377 1.384 . S
C375 H400 0.931 . S
C376 C375 1.384 . S
C376 C379 1.382 . S
C377 C375 1.384 . S
C377 C378 1.381 . S
C377 H401 0.930 . S
C378 C377 1.381 . S
C378 C380 1.381 . S
C378 C381 1.487 . S
C379 C376 1.382 . S
C379 C380 1.387 . S
C379 H402 0.930 . S
C380 C378 1.381 . S
C380 C379 1.387 . S
C380 H403 0.931 . S
C381 C374 1.399 . S
C381 C378 1.487 . S
C381 N413 1.343 . S
C382 C383 1.384 . S
C382 C384 1.384 . S
C382 H404 0.931 . S
C383 C382 1.384 . S
C383 C386 1.382 . S
C384 C382 1.384 . S
C384 C385 1.381 . S
C384 H405 0.930 . S
C385 C384 1.381 . S
C385 C387 1.381 . S
C385 C388 1.487 . S
C386 C383 1.382 . S
C386 C387 1.387 . S
C386 H406 0.930 . S
C387 C385 1.381 . S
C387 C386 1.387 . S
C387 H407 0.931 . S
C388 C385 1.487 . S
C388 C395 1.399 . S
C388 N413 1.343 . S
C389 C390 1.384 . S
C389 C391 1.384 . S
C389 H408 0.931 . S
C390 C389 1.384 . S
C390 C393 1.382 . S
C391 C389 1.384 . S
C391 C392 1.381 . S
C391 H409 0.930 . S
C392 C391 1.381 . S
C392 C394 1.381 . S
C392 C395 1.487 . S
C393 C390 1.382 . S
C393 C394 1.387 . S
C393 H410 0.930 . S
C394 C392 1.381 . S
C394 C393 1.387 . S
C394 H411 0.931 . S
C395 C388 1.399 . S
C395 C392 1.487 . S
C395 N412 1.343 . S
H396 C368 0.931 . S
H397 C370 0.930 . S
H398 C372 0.930 . S
H399 C373 0.931 . S
H400 C375 0.931 . S
H401 C377 0.930 . S
H402 C379 0.930 . S
H403 C380 0.931 . S
H404 C382 0.931 . S
H405 C384 0.930 . S
H406 C386 0.930 . S
H407 C387 0.931 . S
H408 C389 0.931 . S
H409 C391 0.930 . S
H410 C393 0.930 . S
H411 C394 0.931 . S
N412 C374 1.343 . S
N412 C395 1.343 . S
N413 C381 1.343 . S
N413 C388 1.343 . S
C7 C160 2.512 . S
C30 C199 2.064 . S
C231 N58 2.161 . S
C277 N81 1.658 . S
C344 C99 2.371 . S
C383 N127 1.934 . S
N25 C245 2.326 . S
C62 C291 2.145 . S
C330 C85 2.338 . S
C369 N94 2.091 . S
C131 C146 2.493 . S
C185 N2 1.788 . S
C284 C16 2.328 . S
C39 C337 1.845 . S
C390 N48 2.118 . S
N71 C153 1.489 . S
C108 C206 2.149 . S
N117 C238 1.871 . S
N35 C376 2.130 . S
C139 C53 1.961 . S
C76 C192 2.384 . S
N104 C252 1.749 . S
C122 C298 2.132 . S
N12 C323 1.521 . S
