# Generated by pormake.
# Topology anh, (6,3)-cn, num edge types: 1
# Building blocks:
#     Node 0, Type 0, BuildingBlock: CUKXOW_clean_sbu_0, # of connection points: 6
#     Node 1, Type 0, BuildingBlock: CUKXOW_clean_sbu_0, # of connection points: 6
#     Node 2, Type 0, BuildingBlock: CUKXOW_clean_sbu_0, # of connection points: 6
#     Node 3, Type 1, BuildingBlock: BETDIP_clean_linker_0, # of connection points: 3
#     Node 4, Type 1, BuildingBlock: BETDIP_clean_linker_0, # of connection points: 3
#     Node 5, Type 1, BuildingBlock: BETDIP_clean_linker_0, # of connection points: 3
#     Node 6, Type 1, BuildingBlock: BETDIP_clean_linker_0, # of connection points: 3
#     Node 7, Type 1, BuildingBlock: BETDIP_clean_linker_0, # of connection points: 3
#     Node 8, Type 1, BuildingBlock: BETDIP_clean_linker_0, # of connection points: 3
#     Edge 9, Type (0, 1), BuildingBlock: TEMPAE_clean_linker_10, # of connection points: 2
#     Edge 10, Type (0, 1), BuildingBlock: TEMPAE_clean_linker_10, # of connection points: 2
#     Edge 11, Type (0, 1), BuildingBlock: TEMPAE_clean_linker_10, # of connection points: 2
#     Edge 12, Type (0, 1), BuildingBlock: TEMPAE_clean_linker_10, # of connection points: 2
#     Edge 13, Type (0, 1), BuildingBlock: TEMPAE_clean_linker_10, # of connection points: 2
#     Edge 14, Type (0, 1), BuildingBlock: TEMPAE_clean_linker_10, # of connection points: 2
#     Edge 15, Type (0, 1), BuildingBlock: TEMPAE_clean_linker_10, # of connection points: 2
#     Edge 16, Type (0, 1), BuildingBlock: TEMPAE_clean_linker_10, # of connection points: 2
#     Edge 17, Type (0, 1), BuildingBlock: TEMPAE_clean_linker_10, # of connection points: 2
#     Edge 18, Type (0, 1), BuildingBlock: TEMPAE_clean_linker_10, # of connection points: 2
#     Edge 19, Type (0, 1), BuildingBlock: TEMPAE_clean_linker_10, # of connection points: 2
#     Edge 20, Type (0, 1), BuildingBlock: TEMPAE_clean_linker_10, # of connection points: 2
#     Edge 21, Type (0, 1), BuildingBlock: TEMPAE_clean_linker_10, # of connection points: 2
#     Edge 22, Type (0, 1), BuildingBlock: TEMPAE_clean_linker_10, # of connection points: 2
#     Edge 23, Type (0, 1), BuildingBlock: TEMPAE_clean_linker_10, # of connection points: 2
#     Edge 24, Type (0, 1), BuildingBlock: TEMPAE_clean_linker_10, # of connection points: 2
#     Edge 25, Type (0, 1), BuildingBlock: TEMPAE_clean_linker_10, # of connection points: 2
#     Edge 26, Type (0, 1), BuildingBlock: TEMPAE_clean_linker_10, # of connection points: 2
# Relax obj value: 0.081
# Max RMSD: 0.172
# Mean RMSD: 0.106
data_MOF--net-anh--node1-CUKXOW_clean_sbu_0--node2-BETDIP_clean_linker_0--edge1-TEMPAE_clean_linker_10
_symmetry_space_group_name_H-M    P1
_symmetry_Int_Tables_number       1
_symmetry_cell_setting            triclinic
loop_
_symmetry_equiv_pos_as_xyz
'x, y, z'
_cell_length_a     29.439111
_cell_length_b     28.69441
_cell_length_c     49.099777
_cell_angle_alpha  99.550855
_cell_angle_beta   90.305797
_cell_angle_gamma 113.30984
loop_
_atom_site_label
_atom_site_type_symbol
_atom_site_fract_x
_atom_site_fract_y
_atom_site_fract_z
_atom_type_partial_charge
Tb0 Tb 0.10215 0.54519 0.14101 0.0
C1 C 0.07662 0.50857 0.19842 0.0
Tb2 Tb 0.03595 0.42936 0.14254 0.0
O3 O 0.0381 0.55615 0.12443 0.0
O4 O 0.02739 0.50067 0.14858 0.0
O5 O 0.10936 0.54207 0.18502 0.0
C6 C 0.95123 0.34753 0.14176 0.0
O7 O 0.04072 0.46506 0.1856 0.0
C8 C 0.13202 0.44577 0.14277 0.0
C9 C 0.06753 0.46427 0.08515 0.0
O10 O 0.99057 0.3597 0.15825 0.0
O11 O 0.96031 0.38062 0.12526 0.0
O12 O 0.09614 0.40109 0.14345 0.0
O13 O 0.11134 0.47662 0.14192 0.0
O14 O 0.03681 0.42871 0.09817 0.0
O15 O 0.09928 0.5105 0.09787 0.0
C16 C 0.17777 0.63703 0.14502 0.0
O17 O 0.17381 0.59497 0.12869 0.0
O18 O 0.13868 0.62761 0.15897 0.0
C19 C 1.00475 0.5178 0.13363 0.0
Tb20 Tb 0.51704 0.03004 0.50672 0.0
C21 C 0.5638 0.06124 0.45222 0.0
Tb22 Tb 0.6252 0.10772 0.5114 0.0
O23 O 0.49208 0.08608 0.49363 0.0
O24 O 0.55608 0.11051 0.52004 0.0
O25 O 0.52768 0.02605 0.46293 0.0
C26 C 0.70436 0.19483 0.51043 0.0
O27 O 0.60252 0.09853 0.46753 0.0
C28 C 0.61261 0.01213 0.51138 0.0
C29 C 0.57907 0.07387 0.56558 0.0
O30 O 0.66283 0.19165 0.52039 0.0
O31 O 0.70178 0.14861 0.50127 0.0
O32 O 0.65137 0.05187 0.52358 0.0
O33 O 0.58623 0.02735 0.49792 0.0
O34 O 0.61426 0.11041 0.55512 0.0
O35 O 0.54117 0.03596 0.54997 0.0
C36 C 0.43252 0.94826 0.50733 0.0
O37 O 0.44095 0.99537 0.51871 0.0
O38 O 0.47156 0.94733 0.49558 0.0
C39 C 0.53043 0.12572 0.50606 0.0
Tb40 Tb 0.55349 0.61991 0.84061 0.0
C41 C 0.60635 0.64496 0.90034 0.0
Tb42 Tb 0.66374 0.64512 0.84717 0.0
O43 O 0.53759 0.53902 0.82318 0.0
O44 O 0.59792 0.58235 0.85169 0.0
O45 O 0.57081 0.6488 0.88523 0.0
C46 C 0.74235 0.62187 0.84112 0.0
O47 O 0.64325 0.63535 0.88893 0.0
C48 C 0.64243 0.72621 0.85255 0.0
C49 C 0.61041 0.62255 0.78666 0.0
O50 O 0.74127 0.66068 0.85872 0.0
O51 O 0.69983 0.59729 0.82704 0.0
O52 O 0.68343 0.72714 0.86333 0.0
O53 O 0.61989 0.68349 0.83663 0.0
O54 O 0.65197 0.634 0.80202 0.0
O55 O 0.56781 0.61746 0.79727 0.0
C56 C 0.46225 0.61771 0.83876 0.0
O57 O 0.49863 0.64575 0.82598 0.0
O58 O 0.47751 0.59167 0.85296 0.0
C59 C 0.57714 0.53993 0.83544 0.0
H60 H 0.51349 0.98354 0.16387 0.0
H61 H 0.595 0.08441 0.23876 0.0
H62 H 0.47355 0.94164 0.24345 0.0
H63 H 0.60175 0.14534 0.21015 0.0
C64 C 0.61462 0.12647 0.19271 0.0
C65 C 0.51912 0.99203 0.18628 0.0
C66 C 0.4886 0.95667 0.20201 0.0
C67 C 0.55699 0.03857 0.19933 0.0
C68 C 0.56491 0.04942 0.22841 0.0
C69 C 0.53538 0.01408 0.24426 0.0
C70 C 0.4973 0.96805 0.231 0.0
N71 N 0.58832 0.07267 0.18286 0.0
H72 H 0.56328 0.51912 0.49816 0.0
H73 H 0.59663 0.63497 0.57184 0.0
H74 H 0.58398 0.48235 0.57744 0.0
H75 H 0.51752 0.63054 0.54411 0.0
C76 C 0.5433 0.64466 0.52861 0.0
C77 C 0.57213 0.53089 0.52035 0.0
C78 C 0.57414 0.49524 0.5364 0.0
C79 C 0.5783 0.58083 0.5334 0.0
C80 C 0.58982 0.59578 0.56218 0.0
C81 C 0.59253 0.56088 0.5784 0.0
C82 C 0.58401 0.51054 0.56522 0.0
N83 N 0.57102 0.61558 0.518 0.0
H84 H 1.00047 0.44814 0.80771 0.0
H85 H 0.07278 0.39129 0.86209 0.0
H86 H 0.96138 0.44522 0.89144 0.0
H87 H 0.07453 0.47851 0.79155 0.0
C88 C 0.09658 0.45831 0.79702 0.0
C89 C 1.00522 0.43907 0.82778 0.0
C90 C 0.97591 0.44754 0.8488 0.0
C91 C 0.04102 0.41995 0.83279 0.0
C92 C 0.04506 0.40603 0.85845 0.0
C93 C 1.01613 0.41453 0.87987 0.0
C94 C 0.98175 0.43542 0.87473 0.0
N95 N 0.07719 0.42 0.81378 0.0
H96 H 0.07057 0.62979 0.48518 0.0
H97 H 1.00492 0.52895 0.40732 0.0
H98 H 0.13755 0.66495 0.40913 0.0
H99 H 0.93394 0.51871 0.43032 0.0
C100 C 0.9459 0.51237 0.44985 0.0
C101 C 0.07081 0.6206 0.46288 0.0
C102 C 0.10866 0.65334 0.44902 0.0
C103 C 0.03241 0.5765 0.44796 0.0
C104 C 0.03317 0.5639 0.41905 0.0
C105 C 0.0707 0.59622 0.4051 0.0
C106 C 0.10797 0.64087 0.42007 0.0
N107 N 0.9942 0.54461 0.46244 0.0
H108 H 0.63197 0.19147 0.85239 0.0
H109 H 0.5943 0.06428 0.78403 0.0
H110 H 0.60858 0.21297 0.76956 0.0
H111 H 0.54065 0.03465 0.8324 0.0
C112 C 0.57896 0.04184 0.8379 0.0
C113 C 0.62306 0.17631 0.8304 0.0
C114 C 0.62099 0.20857 0.81216 0.0
C115 C 0.613 0.12413 0.82028 0.0
C116 C 0.60151 0.10438 0.79179 0.0
C117 C 0.60019 0.13632 0.77332 0.0
C118 C 0.60984 0.18819 0.78372 0.0
N119 N 0.61652 0.09198 0.83853 0.0
H120 H 0.51896 0.47065 0.14897 0.0
H121 H 0.62357 0.53124 0.08925 0.0
H122 H 0.48272 0.54156 0.08578 0.0
H123 H 0.6237 0.44221 0.09474 0.0
C124 C 0.6401 0.4623 0.11549 0.0
C125 C 0.529 0.49035 0.13152 0.0
C126 C 0.49389 0.50403 0.11836 0.0
C127 C 0.5762 0.49963 0.12082 0.0
C128 C 0.58788 0.5238 0.09765 0.0
C129 C 0.55455 0.53932 0.08537 0.0
C130 C 0.50837 0.52997 0.09589 0.0
N131 N 0.61202 0.48477 0.13276 0.0
C132 C 0.20185 0.41687 0.1465 0.0
C133 C 0.18629 0.4561 0.14301 0.0
C134 C 0.25212 0.42396 0.1456 0.0
C135 C 0.28848 0.47141 0.14074 0.0
C136 C 0.27317 0.51169 0.13787 0.0
C137 C 0.22256 0.50362 0.13917 0.0
C138 C 0.26609 0.37993 0.14912 0.0
C139 C 0.31001 0.5629 0.13249 0.0
C140 C 0.42851 0.50301 0.15268 0.0
C141 C 0.44086 0.48979 0.12573 0.0
C142 C 0.37921 0.49675 0.15807 0.0
C143 C 0.34114 0.47696 0.13603 0.0
C144 C 0.35333 0.46202 0.10904 0.0
C145 C 0.40241 0.46821 0.10434 0.0
C146 C 0.36813 0.51262 0.18724 0.0
C147 C 0.31468 0.44066 0.08477 0.0
H148 H 0.17442 0.38001 0.14967 0.0
H149 H 0.21129 0.5342 0.13658 0.0
H150 H 0.27832 0.36546 0.12937 0.0
H151 H 0.29768 0.39343 0.16502 0.0
H152 H 0.23469 0.34731 0.15527 0.0
H153 H 0.29339 0.59167 0.13301 0.0
H154 H 0.3423 0.57878 0.14807 0.0
H155 H 0.3242 0.55733 0.11184 0.0
H156 H 0.45769 0.52008 0.16935 0.0
H157 H 0.41114 0.45729 0.08345 0.0
H158 H 0.33646 0.48045 0.19349 0.0
H159 H 0.3571 0.54559 0.18824 0.0
H160 H 0.40057 0.52415 0.20237 0.0
H161 H 0.28344 0.40554 0.08867 0.0
H162 H 0.32992 0.43065 0.06506 0.0
H163 H 0.29929 0.46941 0.08221 0.0
C164 C 0.74034 0.29038 0.51547 0.0
C165 C 0.74448 0.24336 0.50641 0.0
C166 C 0.77494 0.33644 0.50896 0.0
C167 C 0.81439 0.33523 0.4929 0.0
C168 C 0.81977 0.28808 0.48465 0.0
C169 C 0.78469 0.2426 0.49157 0.0
C170 C 0.76796 0.38591 0.51821 0.0
C171 C 0.86118 0.28523 0.46736 0.0
C172 C 0.86673 0.43565 0.44729 0.0
C173 C 0.91193 0.46884 0.46201 0.0
C174 C 0.83442 0.39236 0.45731 0.0
C175 C 0.8476 0.38227 0.4828 0.0
C176 C 0.89277 0.41633 0.4981 0.0
C177 C 0.92461 0.45925 0.48745 0.0
C178 C 0.78657 0.35692 0.44037 0.0
C179 C 0.90766 0.40705 0.5255 0.0
H180 H 0.70913 0.29096 0.52695 0.0
H181 H 0.78778 0.20619 0.48451 0.0
H182 H 0.80316 0.41703 0.52826 0.0
H183 H 0.75751 0.39869 0.49993 0.0
H184 H 0.73857 0.38125 0.53291 0.0
H185 H 0.86224 0.24645 0.46433 0.0
H186 H 0.85629 0.29434 0.44673 0.0
H187 H 0.89753 0.3143 0.47726 0.0
H188 H 0.85698 0.44313 0.42761 0.0
H189 H 0.9595 0.48497 0.49896 0.0
H190 H 0.75447 0.35372 0.45281 0.0
H191 H 0.78592 0.31758 0.43458 0.0
H192 H 0.78163 0.3706 0.42113 0.0
H193 H 0.87817 0.40411 0.53994 0.0
H194 H 0.94307 0.43826 0.53535 0.0
H195 H 0.9119 0.36984 0.52246 0.0
C196 C 0.64989 0.81406 0.87455 0.0
C197 C 0.63222 0.77251 0.85226 0.0
C198 C 0.64137 0.85887 0.87424 0.0
C199 C 0.61614 0.8628 0.85064 0.0
C200 C 0.59849 0.82085 0.82799 0.0
C201 C 0.60598 0.77585 0.8293 0.0
C202 C 0.65918 0.90189 0.89919 0.0
C203 C 0.57259 0.82388 0.80212 0.0
C204 C 0.55456 0.95752 0.85342 0.0
C205 C 0.59073 0.99863 0.84357 0.0
C206 C 0.56319 0.91405 0.85699 0.0
C207 C 0.60835 0.91076 0.84943 0.0
C208 C 0.64514 0.95244 0.83957 0.0
C209 C 0.63619 0.99631 0.83718 0.0
C210 C 0.52365 0.87129 0.86841 0.0
C211 C 0.69311 0.94982 0.83046 0.0
H212 H 0.6699 0.81124 0.89239 0.0
H213 H 0.59256 0.7438 0.81196 0.0
H214 H 0.6872 0.93731 0.89339 0.0
H215 H 0.62775 0.91122 0.90675 0.0
H216 H 0.67594 0.89176 0.91642 0.0
H217 H 0.56268 0.78861 0.786 0.0
H218 H 0.5382 0.8294 0.80722 0.0
H219 H 0.59686 0.85772 0.79335 0.0
H220 H 0.51937 0.9594 0.85831 0.0
H221 H 0.6639 0.02776 0.82913 0.0
H222 H 0.53995 0.86152 0.88594 0.0
H223 H 0.50816 0.83599 0.85221 0.0
H224 H 0.49275 0.8819 0.8757 0.0
H225 H 0.7129 0.94293 0.84761 0.0
H226 H 0.71816 0.98572 0.82362 0.0
H227 H 0.685 0.91686 0.81306 0.0
C228 C 0.93195 0.53558 0.11895 0.0
C229 C 0.95049 0.50741 0.1332 0.0
C230 C 0.88149 0.52797 0.1186 0.0
C231 C 0.84777 0.49079 0.13269 0.0
C232 C 0.86625 0.46202 0.14712 0.0
C233 C 0.91722 0.47092 0.14738 0.0
C234 C 0.86412 0.55951 0.10278 0.0
C235 C 0.83208 0.42149 0.16214 0.0
C236 C 0.72252 0.5017 0.14558 0.0
C237 C 0.69178 0.46712 0.12271 0.0
C238 C 0.77278 0.50858 0.14973 0.0
C239 C 0.79298 0.4802 0.13066 0.0
C240 C 0.7613 0.44395 0.1082 0.0
C241 C 0.71167 0.43816 0.10449 0.0
C242 C 0.80477 0.54747 0.17404 0.0
C243 C 0.78031 0.41241 0.08733 0.0
H244 H 0.95711 0.56398 0.10798 0.0
H245 H 0.93102 0.44926 0.15873 0.0
H246 H 0.83637 0.53364 0.08566 0.0
H247 H 0.84564 0.5801 0.1166 0.0
H248 H 0.89509 0.58833 0.09387 0.0
H249 H 0.85171 0.40175 0.17197 0.0
H250 H 0.81493 0.43945 0.17838 0.0
H251 H 0.80149 0.39206 0.1475 0.0
H252 H 0.70785 0.52449 0.15976 0.0
H253 H 0.6884 0.4113 0.08674 0.0
H254 H 0.83435 0.57967 0.16647 0.0
H255 H 0.82332 0.52943 0.18599 0.0
H256 H 0.78308 0.56361 0.18815 0.0
H257 H 0.80793 0.43821 0.07531 0.0
H258 H 0.75011 0.38244 0.07261 0.0
H259 H 0.79939 0.39323 0.09801 0.0
C260 C 0.37779 0.85715 0.48804 0.0
C261 C 0.38461 0.90371 0.50536 0.0
C262 C 0.33089 0.81626 0.48308 0.0
C263 C 0.29012 0.82196 0.49615 0.0
C264 C 0.29756 0.86776 0.51508 0.0
C265 C 0.3448 0.90844 0.51928 0.0
C266 C 0.32446 0.76818 0.4626 0.0
C267 C 0.25525 0.87472 0.52988 0.0
C268 C 0.1682 0.74528 0.45345 0.0
C269 C 0.15026 0.69965 0.46431 0.0
C270 C 0.21258 0.78647 0.46455 0.0
C271 C 0.23923 0.78233 0.48745 0.0
C272 C 0.21935 0.73807 0.49993 0.0
C273 C 0.17511 0.69697 0.48808 0.0
C274 C 0.23247 0.833 0.45061 0.0
C275 C 0.24619 0.73284 0.52475 0.0
H276 H 0.40871 0.85341 0.4774 0.0
H277 H 0.35027 0.94437 0.53291 0.0
H278 H 0.30545 0.73332 0.47184 0.0
H279 H 0.30077 0.76486 0.4441 0.0
H280 H 0.36045 0.76845 0.45572 0.0
H281 H 0.26849 0.90894 0.54687 0.0
H282 H 0.22992 0.87978 0.51494 0.0
H283 H 0.23332 0.83996 0.53862 0.0
H284 H 0.14844 0.74797 0.43548 0.0
H285 H 0.16144 0.66179 0.49657 0.0
H286 H 0.26718 0.8351 0.44108 0.0
H287 H 0.24174 0.86898 0.46603 0.0
H288 H 0.20564 0.83163 0.43418 0.0
H289 H 0.27919 0.72563 0.5182 0.0
H290 H 0.22219 0.70046 0.53468 0.0
H291 H 0.25953 0.76906 0.54037 0.0
C292 C 0.62924 0.49757 0.85196 0.0
C293 C 0.59029 0.49504 0.83438 0.0
C294 C 0.64113 0.45458 0.85148 0.0
C295 C 0.61286 0.40773 0.83323 0.0
C296 C 0.57382 0.40534 0.81525 0.0
C297 C 0.56307 0.449 0.81605 0.0
C298 C 0.6831 0.45961 0.87113 0.0
C299 C 0.5432 0.35648 0.79516 0.0
C300 C 0.65724 0.30197 0.80825 0.0
C301 C 0.62765 0.26287 0.82216 0.0
C302 C 0.65569 0.3509 0.81323 0.0
C303 C 0.62349 0.36084 0.83241 0.0
C304 C 0.59696 0.32311 0.84829 0.0
C305 C 0.59931 0.27443 0.84297 0.0
C306 C 0.68622 0.39092 0.79678 0.0
C307 C 0.56376 0.33311 0.86969 0.0
H308 H 0.6503 0.53309 0.8663 0.0
H309 H 0.53306 0.44698 0.80237 0.0
H310 H 0.66866 0.45255 0.89156 0.0
H311 H 0.69967 0.43163 0.86383 0.0
H312 H 0.7128 0.49926 0.87426 0.0
H313 H 0.51446 0.3611 0.78244 0.0
H314 H 0.56765 0.34471 0.78105 0.0
H315 H 0.52456 0.32465 0.80666 0.0
H316 H 0.67999 0.29348 0.79253 0.0
H317 H 0.57651 0.24442 0.85383 0.0
H318 H 0.70599 0.4287 0.81071 0.0
H319 H 0.66135 0.3962 0.78163 0.0
H320 H 0.71386 0.37971 0.78532 0.0
H321 H 0.58416 0.37059 0.88376 0.0
H322 H 0.54973 0.30216 0.88226 0.0
H323 H 0.53154 0.33568 0.85923 0.0
C324 C 0.56741 0.91757 0.49267 0.0
C325 C 0.60309 0.95751 0.51161 0.0
C326 C 0.55742 0.86554 0.49313 0.0
C327 C 0.58393 0.85319 0.51298 0.0
C328 C 0.6206 0.89356 0.53186 0.0
C329 C 0.6298 0.9452 0.53089 0.0
C330 C 0.51799 0.82381 0.47267 0.0
C331 C 0.64937 0.8822 0.55353 0.0
C332 C 0.52574 0.72341 0.53602 0.0
C333 C 0.55224 0.6964 0.52244 0.0
C334 C 0.53498 0.77391 0.53264 0.0
C335 C 0.57161 0.79819 0.51511 0.0
C336 C 0.59764 0.7706 0.5007 0.0
C337 C 0.58776 0.71998 0.5046 0.0
C338 C 0.5064 0.80176 0.54845 0.0
C339 C 0.63662 0.79497 0.48163 0.0
H340 H 0.54738 0.927 0.47737 0.0
H341 H 0.65746 0.976 0.54555 0.0
H342 H 0.53348 0.79761 0.46104 0.0
H343 H 0.48713 0.80015 0.48388 0.0
H344 H 0.5026 0.83984 0.45765 0.0
H345 H 0.67779 0.9179 0.56604 0.0
H346 H 0.62355 0.86023 0.5677 0.0
H347 H 0.66809 0.85776 0.54354 0.0
H348 H 0.49825 0.70527 0.54984 0.0
H349 H 0.60834 0.69929 0.49404 0.0
H350 H 0.48769 0.81564 0.53398 0.0
H351 H 0.53235 0.83618 0.56299 0.0
H352 H 0.47796 0.77683 0.5605 0.0
H353 H 0.62089 0.80936 0.46595 0.0
H354 H 0.65154 0.76754 0.47076 0.0
H355 H 0.66778 0.82871 0.49369 0.0
C356 C 0.77962 0.56405 0.8175 0.0
C357 C 0.78209 0.60305 0.83955 0.0
C358 C 0.8131 0.5404 0.81708 0.0
C359 C 0.84938 0.55576 0.83947 0.0
C360 C 0.85304 0.59632 0.86139 0.0
C361 C 0.8194 0.61985 0.86107 0.0
C362 C 0.80884 0.49812 0.79305 0.0
C363 C 0.89087 0.61308 0.88581 0.0
C364 C 0.89527 0.45627 0.85505 0.0
C365 C 0.94224 0.47328 0.84471 0.0
C366 C 0.86461 0.48273 0.85336 0.0
C367 C 0.88127 0.52704 0.84084 0.0
C368 C 0.9281 0.5437 0.82973 0.0
C369 C 0.95817 0.5167 0.8319 0.0
C370 C 0.81445 0.46333 0.865 0.0
C371 C 0.94673 0.59046 0.81597 0.0
H372 H 0.75071 0.55117 0.8008 0.0
H373 H 0.82092 0.64973 0.87822 0.0
H374 H 0.84413 0.50889 0.78281 0.0
H375 H 0.8024 0.46182 0.8006 0.0
H376 H 0.7782 0.49048 0.77738 0.0
H377 H 0.89085 0.64721 0.90029 0.0
H378 H 0.88283 0.58088 0.89733 0.0
H379 H 0.9286 0.62254 0.87859 0.0
H380 H 0.88261 0.42232 0.86463 0.0
H381 H 0.99476 0.53043 0.82422 0.0
H382 H 0.78486 0.45153 0.84807 0.0
H383 H 0.81077 0.4946 0.88024 0.0
H384 H 0.80809 0.42981 0.87528 0.0
H385 H 0.91949 0.586 0.79899 0.0
H386 H 0.98309 0.59698 0.80732 0.0
H387 H 0.95074 0.62533 0.83119 0.0
C388 C 0.26257 0.69051 0.13321 0.0
C389 C 0.22226 0.68589 0.14923 0.0
C390 C 0.30701 0.73491 0.13861 0.0
C391 C 0.31116 0.77534 0.16066 0.0
C392 C 0.26993 0.77143 0.17634 0.0
C393 C 0.22586 0.72672 0.17036 0.0
C394 C 0.34999 0.73776 0.12134 0.0
C395 C 0.27302 0.81362 0.20013 0.0
C396 C 0.43649 0.86232 0.19821 0.0
C397 C 0.44644 0.90861 0.1887 0.0
C398 C 0.39334 0.81817 0.18855 0.0
C399 C 0.35946 0.82019 0.16869 0.0
C400 C 0.37052 0.86595 0.15791 0.0
C401 C 0.41389 0.90974 0.1681 0.0
C402 C 0.38306 0.77003 0.20049 0.0
C403 C 0.33554 0.86933 0.13647 0.0
H404 H 0.25977 0.65891 0.11681 0.0
H405 H 0.1947 0.72311 0.18278 0.0
H406 H 0.36475 0.77458 0.11342 0.0
H407 H 0.38052 0.737 0.13435 0.0
H408 H 0.33936 0.70517 0.10348 0.0
H409 H 0.23692 0.80583 0.20933 0.0
H410 H 0.30099 0.81747 0.21655 0.0
H411 H 0.28536 0.8512 0.19307 0.0
H412 H 0.46202 0.86096 0.21376 0.0
H413 H 0.42121 0.94547 0.16078 0.0
H414 H 0.37554 0.7364 0.18361 0.0
H415 H 0.34943 0.76153 0.2122 0.0
H416 H 0.41444 0.77393 0.21463 0.0
H417 H 0.32557 0.8363 0.11896 0.0
H418 H 0.35176 0.90581 0.12824 0.0
H419 H 0.30067 0.86713 0.14581 0.0
C420 C 0.51529 0.19322 0.48584 0.0
C421 C 0.53937 0.18029 0.50622 0.0
C422 C 0.52161 0.24464 0.48646 0.0
C423 C 0.55233 0.28393 0.50815 0.0
C424 C 0.57781 0.27111 0.52833 0.0
C425 C 0.57087 0.21945 0.52716 0.0
C426 C 0.49419 0.25666 0.46441 0.0
C427 C 0.61088 0.31165 0.55184 0.0
C428 C 0.59606 0.42787 0.507 0.0
C429 C 0.56342 0.44068 0.52428 0.0
C430 C 0.59182 0.37647 0.5005 0.0
C431 C 0.55399 0.33732 0.51153 0.0
C432 C 0.5194 0.34995 0.52774 0.0
C433 C 0.5246 0.40139 0.5339 0.0
C434 C 0.62924 0.3645 0.48305 0.0
C435 C 0.47856 0.30966 0.53998 0.0
H436 H 0.49108 0.163 0.46953 0.0
H437 H 0.58893 0.20948 0.54319 0.0
H438 H 0.46535 0.26856 0.47378 0.0
H439 H 0.52001 0.28937 0.45541 0.0
H440 H 0.47594 0.22294 0.44745 0.0
H441 H 0.63097 0.29612 0.56455 0.0
H442 H 0.63852 0.34444 0.5437 0.0
H443 H 0.58818 0.32709 0.56548 0.0
H444 H 0.62645 0.45838 0.49985 0.0
H445 H 0.49954 0.41144 0.54739 0.0
H446 H 0.61002 0.33177 0.46579 0.0
H447 H 0.65251 0.35256 0.4958 0.0
H448 H 0.65396 0.39823 0.47431 0.0
H449 H 0.4568 0.27627 0.52357 0.0
H450 H 0.45283 0.32512 0.55058 0.0
H451 H 0.49504 0.2951 0.55524 0.0
C452 C 0.37559 0.58827 0.85206 0.0
C453 C 0.40981 0.60675 0.83272 0.0
C454 C 0.32452 0.5695 0.84495 0.0
C455 C 0.3076 0.56737 0.81752 0.0
C456 C 0.34221 0.58776 0.7982 0.0
C457 C 0.39312 0.60811 0.80622 0.0
C458 C 0.28871 0.5498 0.86643 0.0
C459 C 0.32565 0.5848 0.76857 0.0
C460 C 0.18132 0.45911 0.79591 0.0
C461 C 0.15071 0.48616 0.79807 0.0
C462 C 0.23295 0.48552 0.80057 0.0
C463 C 0.25393 0.53999 0.80865 0.0
C464 C 0.22308 0.56749 0.8101 0.0
C465 C 0.17171 0.54015 0.8043 0.0
C466 C 0.26484 0.45498 0.79787 0.0
C467 C 0.24388 0.62533 0.81945 0.0
H468 H 0.38877 0.58737 0.87256 0.0
H469 H 0.41981 0.62186 0.79118 0.0
H470 H 0.25985 0.56564 0.86678 0.0
H471 H 0.26955 0.50715 0.86107 0.0
H472 H 0.30771 0.5602 0.88753 0.0
H473 H 0.35686 0.60665 0.7569 0.0
H474 H 0.30926 0.54382 0.75796 0.0
H475 H 0.29646 0.59993 0.76775 0.0
H476 H 0.16476 0.41728 0.79102 0.0
H477 H 0.14765 0.56081 0.80627 0.0
H478 H 0.28089 0.45645 0.81864 0.0
H479 H 0.29619 0.47206 0.78515 0.0
H480 H 0.24345 0.41388 0.78827 0.0
H481 H 0.25824 0.63519 0.84152 0.0
H482 H 0.21552 0.64127 0.81733 0.0
H483 H 0.27548 0.64458 0.80739 0.0
C484 C 0.89484 0.27767 0.16485 0.0
C485 C 0.90156 0.30867 0.14476 0.0
C486 C 0.84707 0.24533 0.17041 0.0
C487 C 0.80518 0.24415 0.15549 0.0
C488 C 0.81191 0.27402 0.13444 0.0
C489 C 0.86012 0.30599 0.12932 0.0
C490 C 0.8414 0.21415 0.19307 0.0
C491 C 0.76822 0.2738 0.11809 0.0
C492 C 0.68175 0.13358 0.16021 0.0
C493 C 0.66142 0.15671 0.18132 0.0
C494 C 0.72807 0.16192 0.15103 0.0
C495 C 0.75449 0.21443 0.16334 0.0
C496 C 0.73341 0.2382 0.18414 0.0
C497 C 0.68709 0.209 0.19286 0.0
C498 C 0.74929 0.13543 0.12869 0.0
C499 C 0.76029 0.2942 0.19766 0.0
H500 H 0.92688 0.27989 0.17686 0.0
H501 H 0.86527 0.33028 0.11389 0.0
H502 H 0.8231 0.22819 0.2103 0.0
H503 H 0.81735 0.17298 0.18519 0.0
H504 H 0.87764 0.21679 0.20145 0.0
H505 H 0.77981 0.29575 0.10091 0.0
H506 H 0.7424 0.23362 0.10933 0.0
H507 H 0.74731 0.29126 0.132 0.0
H508 H 0.66199 0.09313 0.15118 0.0
H509 H 0.6713 0.22688 0.20916 0.0
H510 H 0.78372 0.13425 0.13721 0.0
H511 H 0.75949 0.15752 0.11153 0.0
H512 H 0.72287 0.09531 0.12011 0.0
H513 H 0.79641 0.30042 0.20793 0.0
H514 H 0.73852 0.30698 0.21332 0.0
H515 H 0.7683 0.31903 0.18172 0.0
C516 C 0.06946 0.49054 0.03932 0.0
C517 C 0.06502 0.45228 0.05472 0.0
C518 C 0.06322 0.47895 0.01033 0.0
C519 C 0.05399 0.42828 -0.00354 0.0
C520 C 0.05175 0.39008 0.01194 0.0
C521 C 0.05635 0.40231 0.04099 0.0
C522 C 0.06465 0.52046 0.9946 0.0
C523 C 0.04386 0.33625 -0.00216 0.0
C524 C 0.98582 0.39255 0.9256 0.0
C525 C 1.02529 0.40792 0.90857 0.0
C526 C 0.99452 0.39683 0.95417 0.0
C527 C 0.04383 0.41505 0.96587 0.0
C528 C 0.08351 0.42585 0.94847 0.0
C529 C 0.07387 0.42289 0.92006 0.0
C530 C 0.95117 0.38557 0.97204 0.0
C531 C 0.13646 0.44366 0.96007 0.0
H532 H 0.07582 0.52908 0.05001 0.0
H533 H 0.05345 0.3729 0.053 0.0
H534 H 0.09374 0.52666 0.97971 0.0
H535 H 0.02861 0.50807 0.98244 0.0
H536 H 0.07217 0.55784 0.00854 0.0
H537 H 0.04818 0.31277 0.01272 0.0
H538 H 1.00608 0.3163 0.98718 0.0
H539 H 0.07063 0.33796 0.98181 0.0
H540 H 0.94806 0.37953 0.9168 0.0
H541 H 0.10478 0.43514 0.90725 0.0
H542 H 0.95417 0.42193 0.98554 0.0
H543 H 0.95166 0.35875 0.98578 0.0
H544 H 0.91493 0.36848 0.95955 0.0
H545 H 0.14992 0.4843 0.97103 0.0
H546 H 0.16154 0.44145 0.94353 0.0
H547 H 0.13894 0.42008 0.97533 0.0
C548 C 0.51573 0.03205 0.40611 0.0
C549 C 0.56135 0.05817 0.42188 0.0
C550 C 0.51288 0.02777 0.37722 0.0
C551 C 0.55684 0.04927 0.36377 0.0
C552 C 0.60299 0.07599 0.37959 0.0
C553 C 0.60462 0.08057 0.40853 0.0
C554 C 0.46287 0.9998 0.36108 0.0
C555 C 0.65073 0.09861 0.36592 0.0
C556 C 0.55061 0.98855 0.28838 0.0
C557 C 0.54399 0.02485 0.27477 0.0
C558 C 0.55643 0.99685 0.31737 0.0
C559 C 0.55453 0.04206 0.33305 0.0
C560 C 0.54847 0.07919 0.31935 0.0
C561 C 0.54376 0.07034 0.29027 0.0
C562 C 0.56381 0.95686 0.33122 0.0
C563 C 0.54543 0.1274 0.33538 0.0
H564 H 0.48211 0.01513 0.41636 0.0
H565 H 0.64002 0.10058 0.42062 0.0
H566 H 0.45638 0.02492 0.34798 0.0
H567 H 0.46199 0.9649 0.34702 0.0
H568 H 0.43199 0.98779 0.3748 0.0
H569 H 0.68338 0.11931 0.38123 0.0
H570 H 0.65686 0.06738 0.35195 0.0
H571 H 0.64831 0.12587 0.35297 0.0
H572 H 0.55118 0.95358 0.27628 0.0
H573 H 0.53829 0.09818 0.27964 0.0
H574 H 0.53183 0.9394 0.34344 0.0
H575 H 0.59751 0.97526 0.34585 0.0
H576 H 0.56758 0.92552 0.31603 0.0
H577 H 0.51272 0.11668 0.34786 0.0
H578 H 0.54223 0.15319 0.32161 0.0
H579 H 0.57876 0.14921 0.35005 0.0
C580 C 0.57099 0.578 0.73954 0.0
C581 C 0.61155 0.61601 0.75637 0.0
C582 C 0.57113 0.57073 0.71062 0.0
C583 C 0.61216 0.60351 0.69832 0.0
C584 C 0.65304 0.64242 0.71528 0.0
C585 C 0.65262 0.64763 0.74422 0.0
C586 C 0.5275 0.52779 0.69325 0.0
C587 C 0.69667 0.67909 0.70288 0.0
C588 C 0.62784 0.55489 0.62382 0.0
C589 C 0.60167 0.57578 0.60915 0.0
C590 C 0.63232 0.56429 0.65287 0.0
C591 C 0.61175 0.59694 0.66767 0.0
C592 C 0.58777 0.62052 0.6531 0.0
C593 C 0.58226 0.60899 0.62406 0.0
C594 C 0.65726 0.53756 0.66769 0.0
C595 C 0.56645 0.65663 0.66819 0.0
H596 H 0.53946 0.55325 0.74904 0.0
H597 H 0.6838 0.67729 0.75734 0.0
H598 H 0.50889 0.54413 0.68021 0.0
H599 H 0.54052 0.50207 0.67908 0.0
H600 H 0.49973 0.50418 0.7061 0.0
H601 H 0.72523 0.70762 0.71896 0.0
H602 H 0.71421 0.65727 0.6892 0.0
H603 H 0.68375 0.70025 0.68985 0.0
H604 H 0.6442 0.53034 0.61263 0.0
H605 H 0.56134 0.62487 0.61317 0.0
H606 H 0.63007 0.51134 0.67973 0.0
H607 H 0.68774 0.56624 0.68264 0.0
H608 H 0.67267 0.51458 0.65315 0.0
H609 H 0.53396 0.63461 0.67894 0.0
H610 H 0.55437 0.67654 0.65392 0.0
H611 H 0.59427 0.68618 0.68422 0.0
C612 C 0.54664 0.03707 0.60789 0.0
C613 C 0.58136 0.07635 0.59596 0.0
C614 C 0.54708 0.04048 0.63677 0.0
C615 C 0.58291 0.08429 0.65408 0.0
C616 C 0.61871 0.12346 0.64215 0.0
C617 C 0.61757 0.11896 0.61328 0.0
C618 C 0.50857 0.9978 0.64876 0.0
C619 C 0.65749 0.17087 0.65994 0.0
C620 C 0.55932 0.13027 0.72731 0.0
C621 C 0.59051 0.11665 0.74302 0.0
C622 C 0.55475 0.11785 0.69832 0.0
C623 C 0.58185 0.09091 0.6847 0.0
C624 C 0.6112 0.07448 0.70046 0.0
C625 C 0.61526 0.08764 0.72949 0.0
C626 C 0.52283 0.13581 0.68225 0.0
C627 C 0.64035 0.04536 0.68667 0.0
H628 H 0.51868 1.00382 0.59471 0.0
H629 H 0.64461 0.1495 0.60433 0.0
H630 H 0.52675 0.98357 0.66334 0.0
H631 H 0.48391 0.01292 0.66075 0.0
H632 H 0.48539 0.96475 0.63249 0.0
H633 H 0.68379 0.19688 0.64742 0.0
H634 H 0.63918 0.19281 0.6729 0.0
H635 H 0.67893 0.15946 0.6742 0.0
H636 H 0.53938 0.15186 0.73773 0.0
H637 H 0.6396 0.07724 0.74152 0.0
H638 H 0.4967 0.10322 0.66682 0.0
H639 H 0.54666 0.16547 0.67068 0.0
H640 H 0.50115 0.15269 0.69594 0.0
H641 H 0.61635 0.01263 0.67054 0.0
H642 H 0.65664 0.03022 0.70173 0.0
H643 H 0.67091 0.07137 0.6762 0.0
C644 C 0.55323 0.62234 0.93947 0.0
C645 C 0.6007 0.64294 0.93 0.0
C646 C 0.54685 0.61074 0.96622 0.0
C647 C 0.58906 0.62132 0.98408 0.0
C648 C 0.63716 0.64573 0.97529 0.0
C649 C 0.64241 0.65554 0.94817 0.0
C650 C 0.49492 0.58379 0.97459 0.0
C651 C 0.68306 0.65904 0.99402 0.0
C652 C 0.56737 0.61109 0.05954 0.0
C653 C 0.56637 0.56205 0.0601 0.0
C654 C 0.57627 0.63177 0.03513 0.0
C655 C 0.58276 0.60189 0.01066 0.0
C656 C 0.58187 0.55233 0.01126 0.0
C657 C 0.57428 0.53329 0.0361 0.0
C658 C 0.57834 0.68526 0.03545 0.0
C659 C 0.58762 0.5188 0.98549 0.0
H660 H 0.52088 0.61211 0.92539 0.0
H661 H 0.67918 0.67181 0.94091 0.0
H662 H 0.48854 0.54377 0.97665 0.0
H663 H 0.49011 0.60368 0.99504 0.0
H664 H 0.46618 0.58205 0.95922 0.0
H665 H 0.7172 0.68439 0.98562 0.0
H666 H 0.67983 0.67864 0.01493 0.0
H667 H 0.68715 0.62313 -0.00352 0.0
H668 H 0.56131 0.63321 0.07824 0.0
H669 H 0.57298 0.49514 0.03661 0.0
H670 H 0.54743 0.68317 0.02161 0.0
H671 H 0.61345 0.70939 0.02741 0.0
H672 H 0.57578 0.7047 0.05657 0.0
H673 H 0.55815 0.5117 0.9692 0.0
H674 H 0.58546 0.48099 0.98944 0.0
H675 H 0.62381 0.53881 0.97716 0.0
C676 C 0.03294 0.50356 0.24169 0.0
C677 C 0.07744 0.52163 0.22881 0.0
C678 C 0.03213 0.51629 0.27042 0.0
C679 C 0.07714 0.54673 0.28674 0.0
C680 C 0.12235 0.5646 0.27389 0.0
C681 C 0.12186 0.55241 0.24494 0.0
C682 C 0.98303 0.49767 0.28326 0.0
C683 C 0.17116 0.59621 0.29074 0.0
C684 C 0.07037 0.61759 0.35802 0.0
C685 C 0.07179 0.58322 0.37484 0.0
C686 C 0.07207 0.6062 0.32925 0.0
C687 C 0.07658 0.55996 0.31725 0.0
C688 C 0.07879 0.52552 0.33429 0.0
C689 C 0.07574 0.5373 0.36294 0.0
C690 C 0.0683 0.6432 0.31167 0.0
C691 C 0.08455 0.47636 0.32229 0.0
H692 H 0.99839 0.48031 0.2292 0.0
H693 H 0.1563 0.56622 0.23498 0.0
H694 H 0.98326 0.47278 0.29825 0.0
H695 H 0.97704 0.53108 0.29493 0.0
H696 H 0.95126 0.47544 0.26753 0.0
H697 H 0.20313 0.60584 0.27767 0.0
H698 H 0.17065 0.63266 0.30225 0.0
H699 H 0.17689 0.57472 0.30633 0.0
H700 H 0.06723 0.65306 0.36741 0.0
H701 H 0.07735 0.51114 0.37614 0.0
H702 H 0.03566 0.62313 0.29635 0.0
H703 H 0.10163 0.65685 0.29986 0.0
H704 H 0.06466 0.67731 0.32426 0.0
H705 H 0.05203 0.45072 0.30772 0.0
H706 H 0.08806 0.45502 0.33854 0.0
H707 H 0.11788 0.48533 0.31031 0.0
loop_
_geom_bond_atom_site_label_1
_geom_bond_atom_site_label_2
_geom_bond_distance
_geom_bond_site_symmetry_2
_ccdc_geom_bond_type
Tb0 O3 2.453 . S
Tb0 O4 2.596 . S
Tb0 O5 2.374 . S
Tb0 O13 2.343 . S
Tb0 O15 2.353 . S
Tb0 O17 2.427 . S
Tb0 O18 2.513 . S
C1 O5 1.251 . S
C1 O7 1.263 . S
Tb2 O4 2.343 . S
Tb2 O7 2.353 . S
Tb2 O10 2.427 1_455 S
Tb2 O11 2.513 1_455 S
Tb2 O12 2.453 . S
Tb2 O13 2.596 . S
Tb2 O14 2.374 . S
O3 Tb0 2.453 . S
O3 C19 1.245 1_455 S
O4 Tb0 2.596 . S
O4 Tb2 2.343 . S
O4 C19 1.259 1_455 S
O5 Tb0 2.374 . S
O5 C1 1.251 . S
C6 O10 1.275 . S
C6 O11 1.246 . S
O7 C1 1.263 . S
O7 Tb2 2.353 . S
C8 O12 1.245 . S
C8 O13 1.259 . S
C9 O14 1.250 . S
C9 O15 1.263 . S
O10 Tb2 2.427 1_655 S
O10 C6 1.275 . S
O11 Tb2 2.513 1_655 S
O11 C6 1.246 . S
O12 Tb2 2.453 . S
O12 C8 1.245 . S
O13 Tb0 2.343 . S
O13 Tb2 2.596 . S
O13 C8 1.259 . S
O14 Tb2 2.374 . S
O14 C9 1.250 . S
O15 Tb0 2.353 . S
O15 C9 1.263 . S
C16 O17 1.275 . S
C16 O18 1.246 . S
O17 Tb0 2.427 . S
O17 C16 1.275 . S
O18 Tb0 2.513 . S
O18 C16 1.246 . S
C19 O3 1.245 1_655 S
C19 O4 1.259 1_655 S
Tb20 O23 2.453 . S
Tb20 O24 2.596 . S
Tb20 O25 2.374 . S
Tb20 O33 2.343 . S
Tb20 O35 2.353 . S
Tb20 O37 2.427 1_545 S
Tb20 O38 2.513 1_545 S
C21 O25 1.251 . S
C21 O27 1.263 . S
Tb22 O24 2.343 . S
Tb22 O27 2.353 . S
Tb22 O30 2.427 . S
Tb22 O31 2.513 . S
Tb22 O32 2.453 1_545 S
Tb22 O33 2.596 . S
Tb22 O34 2.374 . S
O23 Tb20 2.453 . S
O23 C39 1.245 . S
O24 Tb20 2.596 . S
O24 Tb22 2.343 . S
O24 C39 1.259 . S
O25 Tb20 2.374 . S
O25 C21 1.251 . S
C26 O30 1.275 . S
C26 O31 1.246 . S
O27 C21 1.263 . S
O27 Tb22 2.353 . S
C28 O32 1.245 . S
C28 O33 1.259 1_565 S
C29 O34 1.250 . S
C29 O35 1.263 . S
O30 Tb22 2.427 . S
O30 C26 1.275 . S
O31 Tb22 2.513 . S
O31 C26 1.246 . S
O32 Tb22 2.453 1_565 S
O32 C28 1.245 . S
O33 Tb20 2.343 . S
O33 Tb22 2.596 . S
O33 C28 1.259 1_545 S
O34 Tb22 2.374 . S
O34 C29 1.250 . S
O35 Tb20 2.353 . S
O35 C29 1.263 . S
C36 O37 1.275 . S
C36 O38 1.246 . S
O37 Tb20 2.427 1_565 S
O37 C36 1.275 . S
O38 Tb20 2.513 1_565 S
O38 C36 1.246 . S
C39 O23 1.245 . S
C39 O24 1.259 . S
Tb40 O43 2.453 . S
Tb40 O44 2.596 . S
Tb40 O45 2.374 . S
Tb40 O53 2.343 . S
Tb40 O55 2.353 . S
Tb40 O57 2.427 . S
Tb40 O58 2.513 . S
C41 O45 1.251 . S
C41 O47 1.263 . S
Tb42 O44 2.343 . S
Tb42 O47 2.353 . S
Tb42 O50 2.427 . S
Tb42 O51 2.513 . S
Tb42 O52 2.453 . S
Tb42 O53 2.596 . S
Tb42 O54 2.374 . S
O43 Tb40 2.453 . S
O43 C59 1.245 . S
O44 Tb40 2.596 . S
O44 Tb42 2.343 . S
O44 C59 1.259 . S
O45 Tb40 2.374 . S
O45 C41 1.251 . S
C46 O50 1.275 . S
C46 O51 1.246 . S
O47 C41 1.263 . S
O47 Tb42 2.353 . S
C48 O52 1.245 . S
C48 O53 1.259 . S
C49 O54 1.250 . S
C49 O55 1.263 . S
O50 Tb42 2.427 . S
O50 C46 1.275 . S
O51 Tb42 2.513 . S
O51 C46 1.246 . S
O52 Tb42 2.453 . S
O52 C48 1.245 . S
O53 Tb40 2.343 . S
O53 Tb42 2.596 . S
O53 C48 1.259 . S
O54 Tb42 2.374 . S
O54 C49 1.250 . S
O55 Tb40 2.353 . S
O55 C49 1.263 . S
C56 O57 1.275 . S
C56 O58 1.246 . S
O57 Tb40 2.427 . S
O57 C56 1.275 . S
O58 Tb40 2.513 . S
O58 C56 1.246 . S
C59 O43 1.245 . S
C59 O44 1.259 . S
H60 C65 0.930 . S
H61 C68 0.930 . S
H62 C70 0.930 . S
H63 C64 1.016 . S
C64 H63 1.016 . S
C64 N71 1.286 . S
C65 H60 0.930 . S
C65 C66 1.397 . S
C65 C67 1.361 . S
C66 C65 1.397 . S
C66 C70 1.390 . S
C67 C65 1.361 . S
C67 C68 1.393 . S
C67 N71 1.413 . S
C68 H61 0.930 . S
C68 C67 1.393 . S
C68 C69 1.399 . S
C69 C68 1.399 . S
C69 C70 1.381 . S
C70 H62 0.930 . S
C70 C66 1.390 . S
C70 C69 1.381 . S
N71 C64 1.286 . S
N71 C67 1.413 . S
H72 C77 0.930 . S
H73 C80 0.930 . S
H74 C82 0.930 . S
H75 C76 1.016 . S
C76 H75 1.016 . S
C76 N83 1.286 . S
C77 H72 0.930 . S
C77 C78 1.397 . S
C77 C79 1.361 . S
C78 C77 1.397 . S
C78 C82 1.390 . S
C79 C77 1.361 . S
C79 C80 1.393 . S
C79 N83 1.413 . S
C80 H73 0.930 . S
C80 C79 1.393 . S
C80 C81 1.399 . S
C81 C80 1.399 . S
C81 C82 1.381 . S
C82 H74 0.930 . S
C82 C78 1.390 . S
C82 C81 1.381 . S
N83 C76 1.286 . S
N83 C79 1.413 . S
H84 C89 0.930 . S
H85 C92 0.930 . S
H86 C94 0.930 . S
H87 C88 1.016 . S
C88 H87 1.016 . S
C88 N95 1.286 . S
C89 H84 0.930 . S
C89 C90 1.397 . S
C89 C91 1.361 . S
C90 C89 1.397 . S
C90 C94 1.390 . S
C91 C89 1.361 . S
C91 C92 1.393 . S
C91 N95 1.413 . S
C92 H85 0.930 . S
C92 C91 1.393 . S
C92 C93 1.399 . S
C93 C92 1.399 . S
C93 C94 1.381 . S
C94 H86 0.930 . S
C94 C90 1.390 . S
C94 C93 1.381 . S
N95 C88 1.286 . S
N95 C91 1.413 . S
H96 C101 0.930 . S
H97 C104 0.930 . S
H98 C106 0.930 . S
H99 C100 1.016 . S
C100 H99 1.016 . S
C100 N107 1.286 . S
C101 H96 0.930 . S
C101 C102 1.397 . S
C101 C103 1.361 1_455 S
C102 C101 1.397 . S
C102 C106 1.390 . S
C103 C101 1.361 1_655 S
C103 C104 1.393 . S
C103 N107 1.413 . S
C104 H97 0.930 . S
C104 C103 1.393 . S
C104 C105 1.399 1_655 S
C105 C104 1.399 1_455 S
C105 C106 1.381 . S
C106 H98 0.930 . S
C106 C102 1.390 . S
C106 C105 1.381 . S
N107 C100 1.286 . S
N107 C103 1.413 . S
H108 C113 0.930 . S
H109 C116 0.930 1_565 S
H110 C118 0.930 . S
H111 C112 1.016 . S
C112 H111 1.016 . S
C112 N119 1.286 . S
C113 H108 0.930 . S
C113 C114 1.397 . S
C113 C115 1.361 . S
C114 C113 1.397 . S
C114 C118 1.390 . S
C115 C113 1.361 . S
C115 C116 1.393 . S
C115 N119 1.413 1_545 S
C116 H109 0.930 1_545 S
C116 C115 1.393 . S
C116 C117 1.399 . S
C117 C116 1.399 . S
C117 C118 1.381 . S
C118 H110 0.930 . S
C118 C114 1.390 . S
C118 C117 1.381 . S
N119 C112 1.286 . S
N119 C115 1.413 1_565 S
H120 C125 0.930 . S
H121 C128 0.930 . S
H122 C130 0.930 . S
H123 C124 1.016 . S
C124 H123 1.016 . S
C124 N131 1.286 . S
C125 H120 0.930 . S
C125 C126 1.397 . S
C125 C127 1.361 . S
C126 C125 1.397 . S
C126 C130 1.390 . S
C127 C125 1.361 . S
C127 C128 1.393 . S
C127 N131 1.413 . S
C128 H121 0.930 . S
C128 C127 1.393 . S
C128 C129 1.399 . S
C129 C128 1.399 . S
C129 C130 1.381 . S
C130 H122 0.930 . S
C130 C126 1.390 . S
C130 C129 1.381 . S
N131 C124 1.286 . S
N131 C127 1.413 . S
C132 C133 1.391 . S
C132 C134 1.394 . S
C132 H148 0.931 . S
C133 C132 1.391 . S
C133 C137 1.376 . S
C134 C132 1.394 . S
C134 C135 1.369 . S
C134 C138 1.531 . S
C135 C134 1.369 . S
C135 C136 1.410 . S
C135 C143 1.503 . S
C136 C135 1.410 . S
C136 C137 1.392 . S
C136 C139 1.511 . S
C137 C133 1.376 . S
C137 C136 1.392 . S
C137 H149 0.929 . S
C138 C134 1.531 . S
C138 H150 0.960 . S
C138 H151 0.962 . S
C138 H152 0.960 . S
C139 C136 1.511 . S
C139 H153 0.961 . S
C139 H154 0.961 . S
C139 H155 0.961 . S
C140 C141 1.370 . S
C140 C142 1.363 . S
C140 H156 0.931 . S
C141 C140 1.370 . S
C141 C145 1.408 . S
C142 C140 1.363 . S
C142 C143 1.370 . S
C142 C146 1.524 . S
C143 C135 1.503 . S
C143 C142 1.370 . S
C143 C144 1.403 . S
C144 C143 1.403 . S
C144 C145 1.404 . S
C144 C147 1.539 . S
C145 C141 1.408 . S
C145 C144 1.404 . S
C145 H157 0.930 . S
C146 C142 1.524 . S
C146 H158 0.956 . S
C146 H159 0.961 . S
C146 H160 0.961 . S
C147 C144 1.539 . S
C147 H161 0.958 . S
C147 H162 0.961 . S
C147 H163 0.960 . S
H148 C132 0.931 . S
H149 C137 0.929 . S
H150 C138 0.960 . S
H151 C138 0.962 . S
H152 C138 0.960 . S
H153 C139 0.961 . S
H154 C139 0.961 . S
H155 C139 0.961 . S
H156 C140 0.931 . S
H157 C145 0.930 . S
H158 C146 0.956 . S
H159 C146 0.961 . S
H160 C146 0.961 . S
H161 C147 0.958 . S
H162 C147 0.961 . S
H163 C147 0.960 . S
C164 C165 1.391 . S
C164 C166 1.394 . S
C164 H180 0.931 . S
C165 C164 1.391 . S
C165 C169 1.376 . S
C166 C164 1.394 . S
C166 C167 1.369 . S
C166 C170 1.531 . S
C167 C166 1.369 . S
C167 C168 1.410 . S
C167 C175 1.503 . S
C168 C167 1.410 . S
C168 C169 1.392 . S
C168 C171 1.511 . S
C169 C165 1.376 . S
C169 C168 1.392 . S
C169 H181 0.929 . S
C170 C166 1.531 . S
C170 H182 0.960 . S
C170 H183 0.962 . S
C170 H184 0.960 . S
C171 C168 1.511 . S
C171 H185 0.961 . S
C171 H186 0.961 . S
C171 H187 0.961 . S
C172 C173 1.370 . S
C172 C174 1.363 . S
C172 H188 0.931 . S
C173 C172 1.370 . S
C173 C177 1.408 . S
C174 C172 1.363 . S
C174 C175 1.370 . S
C174 C178 1.524 . S
C175 C167 1.503 . S
C175 C174 1.370 . S
C175 C176 1.403 . S
C176 C175 1.403 . S
C176 C177 1.404 . S
C176 C179 1.539 . S
C177 C173 1.408 . S
C177 C176 1.404 . S
C177 H189 0.930 . S
C178 C174 1.524 . S
C178 H190 0.956 . S
C178 H191 0.961 . S
C178 H192 0.961 . S
C179 C176 1.539 . S
C179 H193 0.958 . S
C179 H194 0.961 . S
C179 H195 0.960 . S
H180 C164 0.931 . S
H181 C169 0.929 . S
H182 C170 0.960 . S
H183 C170 0.962 . S
H184 C170 0.960 . S
H185 C171 0.961 . S
H186 C171 0.961 . S
H187 C171 0.961 . S
H188 C172 0.931 . S
H189 C177 0.930 . S
H190 C178 0.956 . S
H191 C178 0.961 . S
H192 C178 0.961 . S
H193 C179 0.958 . S
H194 C179 0.961 . S
H195 C179 0.960 . S
C196 C197 1.391 . S
C196 C198 1.394 . S
C196 H212 0.931 . S
C197 C196 1.391 . S
C197 C201 1.376 . S
C198 C196 1.394 . S
C198 C199 1.369 . S
C198 C202 1.531 . S
C199 C198 1.369 . S
C199 C200 1.410 . S
C199 C207 1.503 . S
C200 C199 1.410 . S
C200 C201 1.392 . S
C200 C203 1.511 . S
C201 C197 1.376 . S
C201 C200 1.392 . S
C201 H213 0.929 . S
C202 C198 1.531 . S
C202 H214 0.960 . S
C202 H215 0.962 . S
C202 H216 0.960 . S
C203 C200 1.511 . S
C203 H217 0.961 . S
C203 H218 0.961 . S
C203 H219 0.961 . S
C204 C205 1.370 . S
C204 C206 1.363 . S
C204 H220 0.931 . S
C205 C204 1.370 . S
C205 C209 1.408 . S
C206 C204 1.363 . S
C206 C207 1.370 . S
C206 C210 1.524 . S
C207 C199 1.503 . S
C207 C206 1.370 . S
C207 C208 1.403 . S
C208 C207 1.403 . S
C208 C209 1.404 . S
C208 C211 1.539 . S
C209 C205 1.408 . S
C209 C208 1.404 . S
C209 H221 0.930 . S
C210 C206 1.524 . S
C210 H222 0.956 . S
C210 H223 0.961 . S
C210 H224 0.961 . S
C211 C208 1.539 . S
C211 H225 0.958 . S
C211 H226 0.961 . S
C211 H227 0.960 . S
H212 C196 0.931 . S
H213 C201 0.929 . S
H214 C202 0.960 . S
H215 C202 0.962 . S
H216 C202 0.960 . S
H217 C203 0.961 . S
H218 C203 0.961 . S
H219 C203 0.961 . S
H220 C204 0.931 . S
H221 C209 0.930 . S
H222 C210 0.956 . S
H223 C210 0.961 . S
H224 C210 0.961 . S
H225 C211 0.958 . S
H226 C211 0.961 . S
H227 C211 0.960 . S
C228 C229 1.391 . S
C228 C230 1.394 . S
C228 H244 0.931 . S
C229 C228 1.391 . S
C229 C233 1.376 . S
C230 C228 1.394 . S
C230 C231 1.369 . S
C230 C234 1.531 . S
C231 C230 1.369 . S
C231 C232 1.410 . S
C231 C239 1.503 . S
C232 C231 1.410 . S
C232 C233 1.392 . S
C232 C235 1.511 . S
C233 C229 1.376 . S
C233 C232 1.392 . S
C233 H245 0.929 . S
C234 C230 1.531 . S
C234 H246 0.960 . S
C234 H247 0.962 . S
C234 H248 0.960 . S
C235 C232 1.511 . S
C235 H249 0.961 . S
C235 H250 0.961 . S
C235 H251 0.961 . S
C236 C237 1.370 . S
C236 C238 1.363 . S
C236 H252 0.931 . S
C237 C236 1.370 . S
C237 C241 1.408 . S
C238 C236 1.363 . S
C238 C239 1.370 . S
C238 C242 1.524 . S
C239 C231 1.503 . S
C239 C238 1.370 . S
C239 C240 1.403 . S
C240 C239 1.403 . S
C240 C241 1.404 . S
C240 C243 1.539 . S
C241 C237 1.408 . S
C241 C240 1.404 . S
C241 H253 0.930 . S
C242 C238 1.524 . S
C242 H254 0.956 . S
C242 H255 0.961 . S
C242 H256 0.961 . S
C243 C240 1.539 . S
C243 H257 0.958 . S
C243 H258 0.961 . S
C243 H259 0.960 . S
H244 C228 0.931 . S
H245 C233 0.929 . S
H246 C234 0.960 . S
H247 C234 0.962 . S
H248 C234 0.960 . S
H249 C235 0.961 . S
H250 C235 0.961 . S
H251 C235 0.961 . S
H252 C236 0.931 . S
H253 C241 0.930 . S
H254 C242 0.956 . S
H255 C242 0.961 . S
H256 C242 0.961 . S
H257 C243 0.958 . S
H258 C243 0.961 . S
H259 C243 0.960 . S
C260 C261 1.391 . S
C260 C262 1.394 . S
C260 H276 0.931 . S
C261 C260 1.391 . S
C261 C265 1.376 . S
C262 C260 1.394 . S
C262 C263 1.369 . S
C262 C266 1.531 . S
C263 C262 1.369 . S
C263 C264 1.410 . S
C263 C271 1.503 . S
C264 C263 1.410 . S
C264 C265 1.392 . S
C264 C267 1.511 . S
C265 C261 1.376 . S
C265 C264 1.392 . S
C265 H277 0.929 . S
C266 C262 1.531 . S
C266 H278 0.960 . S
C266 H279 0.962 . S
C266 H280 0.960 . S
C267 C264 1.511 . S
C267 H281 0.961 . S
C267 H282 0.961 . S
C267 H283 0.961 . S
C268 C269 1.370 . S
C268 C270 1.363 . S
C268 H284 0.931 . S
C269 C268 1.370 . S
C269 C273 1.408 . S
C270 C268 1.363 . S
C270 C271 1.370 . S
C270 C274 1.524 . S
C271 C263 1.503 . S
C271 C270 1.370 . S
C271 C272 1.403 . S
C272 C271 1.403 . S
C272 C273 1.404 . S
C272 C275 1.539 . S
C273 C269 1.408 . S
C273 C272 1.404 . S
C273 H285 0.930 . S
C274 C270 1.524 . S
C274 H286 0.956 . S
C274 H287 0.961 . S
C274 H288 0.961 . S
C275 C272 1.539 . S
C275 H289 0.958 . S
C275 H290 0.961 . S
C275 H291 0.960 . S
H276 C260 0.931 . S
H277 C265 0.929 . S
H278 C266 0.960 . S
H279 C266 0.962 . S
H280 C266 0.960 . S
H281 C267 0.961 . S
H282 C267 0.961 . S
H283 C267 0.961 . S
H284 C268 0.931 . S
H285 C273 0.930 . S
H286 C274 0.956 . S
H287 C274 0.961 . S
H288 C274 0.961 . S
H289 C275 0.958 . S
H290 C275 0.961 . S
H291 C275 0.960 . S
C292 C293 1.391 . S
C292 C294 1.394 . S
C292 H308 0.931 . S
C293 C292 1.391 . S
C293 C297 1.376 . S
C294 C292 1.394 . S
C294 C295 1.369 . S
C294 C298 1.531 . S
C295 C294 1.369 . S
C295 C296 1.410 . S
C295 C303 1.503 . S
C296 C295 1.410 . S
C296 C297 1.392 . S
C296 C299 1.511 . S
C297 C293 1.376 . S
C297 C296 1.392 . S
C297 H309 0.929 . S
C298 C294 1.531 . S
C298 H310 0.960 . S
C298 H311 0.962 . S
C298 H312 0.960 . S
C299 C296 1.511 . S
C299 H313 0.961 . S
C299 H314 0.961 . S
C299 H315 0.961 . S
C300 C301 1.370 . S
C300 C302 1.363 . S
C300 H316 0.931 . S
C301 C300 1.370 . S
C301 C305 1.408 . S
C302 C300 1.363 . S
C302 C303 1.370 . S
C302 C306 1.524 . S
C303 C295 1.503 . S
C303 C302 1.370 . S
C303 C304 1.403 . S
C304 C303 1.403 . S
C304 C305 1.404 . S
C304 C307 1.539 . S
C305 C301 1.408 . S
C305 C304 1.404 . S
C305 H317 0.930 . S
C306 C302 1.524 . S
C306 H318 0.956 . S
C306 H319 0.961 . S
C306 H320 0.961 . S
C307 C304 1.539 . S
C307 H321 0.958 . S
C307 H322 0.961 . S
C307 H323 0.960 . S
H308 C292 0.931 . S
H309 C297 0.929 . S
H310 C298 0.960 . S
H311 C298 0.962 . S
H312 C298 0.960 . S
H313 C299 0.961 . S
H314 C299 0.961 . S
H315 C299 0.961 . S
H316 C300 0.931 . S
H317 C305 0.930 . S
H318 C306 0.956 . S
H319 C306 0.961 . S
H320 C306 0.961 . S
H321 C307 0.958 . S
H322 C307 0.961 . S
H323 C307 0.960 . S
C324 C325 1.391 . S
C324 C326 1.394 . S
C324 H340 0.931 . S
C325 C324 1.391 . S
C325 C329 1.376 . S
C326 C324 1.394 . S
C326 C327 1.369 . S
C326 C330 1.531 . S
C327 C326 1.369 . S
C327 C328 1.410 . S
C327 C335 1.503 . S
C328 C327 1.410 . S
C328 C329 1.392 . S
C328 C331 1.511 . S
C329 C325 1.376 . S
C329 C328 1.392 . S
C329 H341 0.929 . S
C330 C326 1.531 . S
C330 H342 0.960 . S
C330 H343 0.962 . S
C330 H344 0.960 . S
C331 C328 1.511 . S
C331 H345 0.961 . S
C331 H346 0.961 . S
C331 H347 0.961 . S
C332 C333 1.370 . S
C332 C334 1.363 . S
C332 H348 0.931 . S
C333 C332 1.370 . S
C333 C337 1.408 . S
C334 C332 1.363 . S
C334 C335 1.370 . S
C334 C338 1.524 . S
C335 C327 1.503 . S
C335 C334 1.370 . S
C335 C336 1.403 . S
C336 C335 1.403 . S
C336 C337 1.404 . S
C336 C339 1.539 . S
C337 C333 1.408 . S
C337 C336 1.404 . S
C337 H349 0.930 . S
C338 C334 1.524 . S
C338 H350 0.956 . S
C338 H351 0.961 . S
C338 H352 0.961 . S
C339 C336 1.539 . S
C339 H353 0.958 . S
C339 H354 0.961 . S
C339 H355 0.960 . S
H340 C324 0.931 . S
H341 C329 0.929 . S
H342 C330 0.960 . S
H343 C330 0.962 . S
H344 C330 0.960 . S
H345 C331 0.961 . S
H346 C331 0.961 . S
H347 C331 0.961 . S
H348 C332 0.931 . S
H349 C337 0.930 . S
H350 C338 0.956 . S
H351 C338 0.961 . S
H352 C338 0.961 . S
H353 C339 0.958 . S
H354 C339 0.961 . S
H355 C339 0.960 . S
C356 C357 1.391 . S
C356 C358 1.394 . S
C356 H372 0.931 . S
C357 C356 1.391 . S
C357 C361 1.376 . S
C358 C356 1.394 . S
C358 C359 1.369 . S
C358 C362 1.531 . S
C359 C358 1.369 . S
C359 C360 1.410 . S
C359 C367 1.503 . S
C360 C359 1.410 . S
C360 C361 1.392 . S
C360 C363 1.511 . S
C361 C357 1.376 . S
C361 C360 1.392 . S
C361 H373 0.929 . S
C362 C358 1.531 . S
C362 H374 0.960 . S
C362 H375 0.962 . S
C362 H376 0.960 . S
C363 C360 1.511 . S
C363 H377 0.961 . S
C363 H378 0.961 . S
C363 H379 0.961 . S
C364 C365 1.370 . S
C364 C366 1.363 . S
C364 H380 0.931 . S
C365 C364 1.370 . S
C365 C369 1.408 . S
C366 C364 1.363 . S
C366 C367 1.370 . S
C366 C370 1.524 . S
C367 C359 1.503 . S
C367 C366 1.370 . S
C367 C368 1.403 . S
C368 C367 1.403 . S
C368 C369 1.404 . S
C368 C371 1.539 . S
C369 C365 1.408 . S
C369 C368 1.404 . S
C369 H381 0.930 . S
C370 C366 1.524 . S
C370 H382 0.956 . S
C370 H383 0.961 . S
C370 H384 0.961 . S
C371 C368 1.539 . S
C371 H385 0.958 . S
C371 H386 0.961 . S
C371 H387 0.960 . S
H372 C356 0.931 . S
H373 C361 0.929 . S
H374 C362 0.960 . S
H375 C362 0.962 . S
H376 C362 0.960 . S
H377 C363 0.961 . S
H378 C363 0.961 . S
H379 C363 0.961 . S
H380 C364 0.931 . S
H381 C369 0.930 . S
H382 C370 0.956 . S
H383 C370 0.961 . S
H384 C370 0.961 . S
H385 C371 0.958 . S
H386 C371 0.961 . S
H387 C371 0.960 . S
C388 C389 1.391 . S
C388 C390 1.394 . S
C388 H404 0.931 . S
C389 C388 1.391 . S
C389 C393 1.376 . S
C390 C388 1.394 . S
C390 C391 1.369 . S
C390 C394 1.531 . S
C391 C390 1.369 . S
C391 C392 1.410 . S
C391 C399 1.503 . S
C392 C391 1.410 . S
C392 C393 1.392 . S
C392 C395 1.511 . S
C393 C389 1.376 . S
C393 C392 1.392 . S
C393 H405 0.929 . S
C394 C390 1.531 . S
C394 H406 0.960 . S
C394 H407 0.962 . S
C394 H408 0.960 . S
C395 C392 1.511 . S
C395 H409 0.961 . S
C395 H410 0.961 . S
C395 H411 0.961 . S
C396 C397 1.370 . S
C396 C398 1.363 . S
C396 H412 0.931 . S
C397 C396 1.370 . S
C397 C401 1.408 . S
C398 C396 1.363 . S
C398 C399 1.370 . S
C398 C402 1.524 . S
C399 C391 1.503 . S
C399 C398 1.370 . S
C399 C400 1.403 . S
C400 C399 1.403 . S
C400 C401 1.404 . S
C400 C403 1.539 . S
C401 C397 1.408 . S
C401 C400 1.404 . S
C401 H413 0.930 . S
C402 C398 1.524 . S
C402 H414 0.956 . S
C402 H415 0.961 . S
C402 H416 0.961 . S
C403 C400 1.539 . S
C403 H417 0.958 . S
C403 H418 0.961 . S
C403 H419 0.960 . S
H404 C388 0.931 . S
H405 C393 0.929 . S
H406 C394 0.960 . S
H407 C394 0.962 . S
H408 C394 0.960 . S
H409 C395 0.961 . S
H410 C395 0.961 . S
H411 C395 0.961 . S
H412 C396 0.931 . S
H413 C401 0.930 . S
H414 C402 0.956 . S
H415 C402 0.961 . S
H416 C402 0.961 . S
H417 C403 0.958 . S
H418 C403 0.961 . S
H419 C403 0.960 . S
C420 C421 1.391 . S
C420 C422 1.394 . S
C420 H436 0.931 . S
C421 C420 1.391 . S
C421 C425 1.376 . S
C422 C420 1.394 . S
C422 C423 1.369 . S
C422 C426 1.531 . S
C423 C422 1.369 . S
C423 C424 1.410 . S
C423 C431 1.503 . S
C424 C423 1.410 . S
C424 C425 1.392 . S
C424 C427 1.511 . S
C425 C421 1.376 . S
C425 C424 1.392 . S
C425 H437 0.929 . S
C426 C422 1.531 . S
C426 H438 0.960 . S
C426 H439 0.962 . S
C426 H440 0.960 . S
C427 C424 1.511 . S
C427 H441 0.961 . S
C427 H442 0.961 . S
C427 H443 0.961 . S
C428 C429 1.370 . S
C428 C430 1.363 . S
C428 H444 0.931 . S
C429 C428 1.370 . S
C429 C433 1.408 . S
C430 C428 1.363 . S
C430 C431 1.370 . S
C430 C434 1.524 . S
C431 C423 1.503 . S
C431 C430 1.370 . S
C431 C432 1.403 . S
C432 C431 1.403 . S
C432 C433 1.404 . S
C432 C435 1.539 . S
C433 C429 1.408 . S
C433 C432 1.404 . S
C433 H445 0.930 . S
C434 C430 1.524 . S
C434 H446 0.956 . S
C434 H447 0.961 . S
C434 H448 0.961 . S
C435 C432 1.539 . S
C435 H449 0.958 . S
C435 H450 0.961 . S
C435 H451 0.960 . S
H436 C420 0.931 . S
H437 C425 0.929 . S
H438 C426 0.960 . S
H439 C426 0.962 . S
H440 C426 0.960 . S
H441 C427 0.961 . S
H442 C427 0.961 . S
H443 C427 0.961 . S
H444 C428 0.931 . S
H445 C433 0.930 . S
H446 C434 0.956 . S
H447 C434 0.961 . S
H448 C434 0.961 . S
H449 C435 0.958 . S
H450 C435 0.961 . S
H451 C435 0.960 . S
C452 C453 1.391 . S
C452 C454 1.394 . S
C452 H468 0.931 . S
C453 C452 1.391 . S
C453 C457 1.376 . S
C454 C452 1.394 . S
C454 C455 1.369 . S
C454 C458 1.531 . S
C455 C454 1.369 . S
C455 C456 1.410 . S
C455 C463 1.503 . S
C456 C455 1.410 . S
C456 C457 1.392 . S
C456 C459 1.511 . S
C457 C453 1.376 . S
C457 C456 1.392 . S
C457 H469 0.929 . S
C458 C454 1.531 . S
C458 H470 0.960 . S
C458 H471 0.962 . S
C458 H472 0.960 . S
C459 C456 1.511 . S
C459 H473 0.961 . S
C459 H474 0.961 . S
C459 H475 0.961 . S
C460 C461 1.370 . S
C460 C462 1.363 . S
C460 H476 0.931 . S
C461 C460 1.370 . S
C461 C465 1.408 . S
C462 C460 1.363 . S
C462 C463 1.370 . S
C462 C466 1.524 . S
C463 C455 1.503 . S
C463 C462 1.370 . S
C463 C464 1.403 . S
C464 C463 1.403 . S
C464 C465 1.404 . S
C464 C467 1.539 . S
C465 C461 1.408 . S
C465 C464 1.404 . S
C465 H477 0.930 . S
C466 C462 1.524 . S
C466 H478 0.956 . S
C466 H479 0.961 . S
C466 H480 0.961 . S
C467 C464 1.539 . S
C467 H481 0.958 . S
C467 H482 0.961 . S
C467 H483 0.960 . S
H468 C452 0.931 . S
H469 C457 0.929 . S
H470 C458 0.960 . S
H471 C458 0.962 . S
H472 C458 0.960 . S
H473 C459 0.961 . S
H474 C459 0.961 . S
H475 C459 0.961 . S
H476 C460 0.931 . S
H477 C465 0.930 . S
H478 C466 0.956 . S
H479 C466 0.961 . S
H480 C466 0.961 . S
H481 C467 0.958 . S
H482 C467 0.961 . S
H483 C467 0.960 . S
C484 C485 1.391 . S
C484 C486 1.394 . S
C484 H500 0.931 . S
C485 C484 1.391 . S
C485 C489 1.376 . S
C486 C484 1.394 . S
C486 C487 1.369 . S
C486 C490 1.531 . S
C487 C486 1.369 . S
C487 C488 1.410 . S
C487 C495 1.503 . S
C488 C487 1.410 . S
C488 C489 1.392 . S
C488 C491 1.511 . S
C489 C485 1.376 . S
C489 C488 1.392 . S
C489 H501 0.929 . S
C490 C486 1.531 . S
C490 H502 0.960 . S
C490 H503 0.962 . S
C490 H504 0.960 . S
C491 C488 1.511 . S
C491 H505 0.961 . S
C491 H506 0.961 . S
C491 H507 0.961 . S
C492 C493 1.370 . S
C492 C494 1.363 . S
C492 H508 0.931 . S
C493 C492 1.370 . S
C493 C497 1.408 . S
C494 C492 1.363 . S
C494 C495 1.370 . S
C494 C498 1.524 . S
C495 C487 1.503 . S
C495 C494 1.370 . S
C495 C496 1.403 . S
C496 C495 1.403 . S
C496 C497 1.404 . S
C496 C499 1.539 . S
C497 C493 1.408 . S
C497 C496 1.404 . S
C497 H509 0.930 . S
C498 C494 1.524 . S
C498 H510 0.956 . S
C498 H511 0.961 . S
C498 H512 0.961 . S
C499 C496 1.539 . S
C499 H513 0.958 . S
C499 H514 0.961 . S
C499 H515 0.960 . S
H500 C484 0.931 . S
H501 C489 0.929 . S
H502 C490 0.960 . S
H503 C490 0.962 . S
H504 C490 0.960 . S
H505 C491 0.961 . S
H506 C491 0.961 . S
H507 C491 0.961 . S
H508 C492 0.931 . S
H509 C497 0.930 . S
H510 C498 0.956 . S
H511 C498 0.961 . S
H512 C498 0.961 . S
H513 C499 0.958 . S
H514 C499 0.961 . S
H515 C499 0.960 . S
C516 C517 1.391 . S
C516 C518 1.394 . S
C516 H532 0.931 . S
C517 C516 1.391 . S
C517 C521 1.376 . S
C518 C516 1.394 . S
C518 C519 1.369 . S
C518 C522 1.531 . S
C519 C518 1.369 . S
C519 C520 1.410 . S
C519 C527 1.503 1_554 S
C520 C519 1.410 . S
C520 C521 1.392 . S
C520 C523 1.511 . S
C521 C517 1.376 . S
C521 C520 1.392 . S
C521 H533 0.929 . S
C522 C518 1.531 . S
C522 H534 0.960 . S
C522 H535 0.962 . S
C522 H536 0.960 . S
C523 C520 1.511 . S
C523 H537 0.961 . S
C523 H538 0.961 1_554 S
C523 H539 0.961 . S
C524 C525 1.370 . S
C524 C526 1.363 . S
C524 H540 0.931 . S
C525 C524 1.370 . S
C525 C529 1.408 . S
C526 C524 1.363 . S
C526 C527 1.370 . S
C526 C530 1.524 . S
C527 C519 1.503 1_556 S
C527 C526 1.370 . S
C527 C528 1.403 . S
C528 C527 1.403 . S
C528 C529 1.404 . S
C528 C531 1.542 . S
C529 C525 1.408 . S
C529 C528 1.404 . S
C529 H541 0.930 . S
C530 C526 1.524 . S
C530 H542 0.956 1_456 S
C530 H543 0.961 1_556 S
C530 H544 0.961 1_455 S
C531 C528 1.542 . S
C531 H545 0.957 1_556 S
C531 H546 0.965 . S
C531 H547 0.955 1_556 S
H532 C516 0.931 . S
H533 C521 0.929 . S
H534 C522 0.960 . S
H535 C522 0.962 . S
H536 C522 0.960 . S
H537 C523 0.961 . S
H538 C523 0.961 1_556 S
H539 C523 0.961 . S
H540 C524 0.931 . S
H541 C529 0.930 . S
H542 C530 0.956 1_654 S
H543 C530 0.961 1_554 S
H544 C530 0.961 1_655 S
H545 C531 0.957 1_554 S
H546 C531 0.965 . S
H547 C531 0.955 1_554 S
C548 C549 1.391 . S
C548 C550 1.394 . S
C548 H564 0.931 . S
C549 C548 1.391 . S
C549 C553 1.376 . S
C550 C548 1.394 . S
C550 C551 1.369 . S
C550 C554 1.531 . S
C551 C550 1.369 . S
C551 C552 1.410 . S
C551 C559 1.503 . S
C552 C551 1.410 . S
C552 C553 1.392 . S
C552 C555 1.511 . S
C553 C549 1.376 . S
C553 C552 1.392 . S
C553 H565 0.929 . S
C554 C550 1.531 . S
C554 H566 0.960 . S
C554 H567 0.962 . S
C554 H568 0.960 . S
C555 C552 1.511 . S
C555 H569 0.961 . S
C555 H570 0.961 . S
C555 H571 0.961 . S
C556 C557 1.370 . S
C556 C558 1.363 . S
C556 H572 0.931 . S
C557 C556 1.370 . S
C557 C561 1.408 . S
C558 C556 1.363 . S
C558 C559 1.370 . S
C558 C562 1.524 1_545 S
C559 C551 1.503 . S
C559 C558 1.370 . S
C559 C560 1.403 . S
C560 C559 1.403 . S
C560 C561 1.404 . S
C560 C563 1.539 . S
C561 C557 1.408 . S
C561 C560 1.404 . S
C561 H573 0.930 . S
C562 C558 1.524 1_565 S
C562 H574 0.956 1_565 S
C562 H575 0.961 . S
C562 H576 0.961 . S
C563 C560 1.539 . S
C563 H577 0.958 . S
C563 H578 0.961 . S
C563 H579 0.960 . S
H564 C548 0.931 . S
H565 C553 0.929 . S
H566 C554 0.960 . S
H567 C554 0.962 . S
H568 C554 0.960 . S
H569 C555 0.961 . S
H570 C555 0.961 . S
H571 C555 0.961 . S
H572 C556 0.931 . S
H573 C561 0.930 . S
H574 C562 0.956 1_545 S
H575 C562 0.961 . S
H576 C562 0.961 . S
H577 C563 0.958 . S
H578 C563 0.961 . S
H579 C563 0.960 . S
C580 C581 1.391 . S
C580 C582 1.394 . S
C580 H596 0.931 . S
C581 C580 1.391 . S
C581 C585 1.376 . S
C582 C580 1.394 . S
C582 C583 1.369 . S
C582 C586 1.531 . S
C583 C582 1.369 . S
C583 C584 1.410 . S
C583 C591 1.503 . S
C584 C583 1.410 . S
C584 C585 1.392 . S
C584 C587 1.511 . S
C585 C581 1.376 . S
C585 C584 1.392 . S
C585 H597 0.929 . S
C586 C582 1.531 . S
C586 H598 0.960 . S
C586 H599 0.962 . S
C586 H600 0.960 . S
C587 C584 1.511 . S
C587 H601 0.961 . S
C587 H602 0.961 . S
C587 H603 0.961 . S
C588 C589 1.370 . S
C588 C590 1.363 . S
C588 H604 0.931 . S
C589 C588 1.370 . S
C589 C593 1.408 . S
C590 C588 1.363 . S
C590 C591 1.370 . S
C590 C594 1.524 . S
C591 C583 1.503 . S
C591 C590 1.370 . S
C591 C592 1.403 . S
C592 C591 1.403 . S
C592 C593 1.404 . S
C592 C595 1.539 . S
C593 C589 1.408 . S
C593 C592 1.404 . S
C593 H605 0.930 . S
C594 C590 1.524 . S
C594 H606 0.956 . S
C594 H607 0.961 . S
C594 H608 0.961 . S
C595 C592 1.539 . S
C595 H609 0.958 . S
C595 H610 0.961 . S
C595 H611 0.960 . S
H596 C580 0.931 . S
H597 C585 0.929 . S
H598 C586 0.960 . S
H599 C586 0.962 . S
H600 C586 0.960 . S
H601 C587 0.961 . S
H602 C587 0.961 . S
H603 C587 0.961 . S
H604 C588 0.931 . S
H605 C593 0.930 . S
H606 C594 0.956 . S
H607 C594 0.961 . S
H608 C594 0.961 . S
H609 C595 0.958 . S
H610 C595 0.961 . S
H611 C595 0.960 . S
C612 C613 1.391 . S
C612 C614 1.394 . S
C612 H628 0.931 1_545 S
C613 C612 1.391 . S
C613 C617 1.376 . S
C614 C612 1.394 . S
C614 C615 1.369 . S
C614 C618 1.531 1_545 S
C615 C614 1.369 . S
C615 C616 1.410 . S
C615 C623 1.503 . S
C616 C615 1.410 . S
C616 C617 1.392 . S
C616 C619 1.511 . S
C617 C613 1.376 . S
C617 C616 1.392 . S
C617 H629 0.929 . S
C618 C614 1.531 1_565 S
C618 H630 0.960 . S
C618 H631 0.962 . S
C618 H632 0.960 . S
C619 C616 1.511 . S
C619 H633 0.961 . S
C619 H634 0.961 . S
C619 H635 0.961 . S
C620 C621 1.370 . S
C620 C622 1.363 . S
C620 H636 0.931 . S
C621 C620 1.370 . S
C621 C625 1.408 . S
C622 C620 1.363 . S
C622 C623 1.370 . S
C622 C626 1.524 . S
C623 C615 1.503 . S
C623 C622 1.370 . S
C623 C624 1.403 . S
C624 C623 1.403 . S
C624 C625 1.404 . S
C624 C627 1.539 1_545 S
C625 C621 1.408 . S
C625 C624 1.404 . S
C625 H637 0.930 1_545 S
C626 C622 1.524 . S
C626 H638 0.956 . S
C626 H639 0.961 . S
C626 H640 0.961 . S
C627 C624 1.539 1_565 S
C627 H641 0.958 . S
C627 H642 0.961 . S
C627 H643 0.960 . S
H628 C612 0.931 1_565 S
H629 C617 0.929 . S
H630 C618 0.960 . S
H631 C618 0.962 . S
H632 C618 0.960 . S
H633 C619 0.961 . S
H634 C619 0.961 . S
H635 C619 0.961 . S
H636 C620 0.931 . S
H637 C625 0.930 1_565 S
H638 C626 0.956 . S
H639 C626 0.961 . S
H640 C626 0.961 . S
H641 C627 0.958 . S
H642 C627 0.961 . S
H643 C627 0.960 . S
C644 C645 1.391 . S
C644 C646 1.394 . S
C644 H660 0.931 . S
C645 C644 1.391 . S
C645 C649 1.376 . S
C646 C644 1.394 . S
C646 C647 1.369 . S
C646 C650 1.531 . S
C647 C646 1.369 . S
C647 C648 1.410 . S
C647 C655 1.503 1_556 S
C648 C647 1.410 . S
C648 C649 1.392 . S
C648 C651 1.511 . S
C649 C645 1.376 . S
C649 C648 1.392 . S
C649 H661 0.929 . S
C650 C646 1.531 . S
C650 H662 0.960 . S
C650 H663 0.962 . S
C650 H664 0.960 . S
C651 C648 1.511 . S
C651 H665 0.961 . S
C651 H666 0.994 . S
C651 H667 0.961 . S
C652 C653 1.370 . S
C652 C654 1.363 . S
C652 H668 0.931 . S
C653 C652 1.370 . S
C653 C657 1.408 . S
C654 C652 1.363 . S
C654 C655 1.370 . S
C654 C658 1.524 . S
C655 C647 1.503 1_554 S
C655 C654 1.370 . S
C655 C656 1.403 . S
C656 C655 1.403 . S
C656 C657 1.404 . S
C656 C659 1.539 1_554 S
C657 C653 1.408 . S
C657 C656 1.404 . S
C657 H669 0.930 . S
C658 C654 1.524 . S
C658 H670 0.956 1_554 S
C658 H671 0.961 1_554 S
C658 H672 0.961 . S
C659 C656 1.539 1_556 S
C659 H673 0.958 . S
C659 H674 0.961 1_556 S
C659 H675 0.960 . S
H660 C644 0.931 . S
H661 C649 0.929 . S
H662 C650 0.960 . S
H663 C650 0.962 . S
H664 C650 0.960 . S
H665 C651 0.961 . S
H666 C651 0.994 . S
H667 C651 0.961 . S
H668 C652 0.931 . S
H669 C657 0.930 . S
H670 C658 0.956 1_556 S
H671 C658 0.961 1_556 S
H672 C658 0.961 . S
H673 C659 0.958 . S
H674 C659 0.961 1_554 S
H675 C659 0.960 . S
C676 C677 1.391 . S
C676 C678 1.394 . S
C676 H692 0.931 1_455 S
C677 C676 1.391 . S
C677 C681 1.376 . S
C678 C676 1.394 . S
C678 C679 1.369 . S
C678 C682 1.531 1_455 S
C679 C678 1.369 . S
C679 C680 1.410 . S
C679 C687 1.503 . S
C680 C679 1.410 . S
C680 C681 1.392 . S
C680 C683 1.511 . S
C681 C677 1.376 . S
C681 C680 1.392 . S
C681 H693 0.929 . S
C682 C678 1.531 1_655 S
C682 H694 0.960 . S
C682 H695 0.962 . S
C682 H696 0.960 . S
C683 C680 1.511 . S
C683 H697 0.961 . S
C683 H698 0.961 . S
C683 H699 0.961 . S
C684 C685 1.370 . S
C684 C686 1.363 . S
C684 H700 0.931 1_455 S
C685 C684 1.370 . S
C685 C689 1.408 . S
C686 C684 1.363 . S
C686 C687 1.370 . S
C686 C690 1.524 . S
C687 C679 1.503 . S
C687 C686 1.370 . S
C687 C688 1.403 . S
C688 C687 1.403 . S
C688 C689 1.404 . S
C688 C691 1.539 . S
C689 C685 1.408 . S
C689 C688 1.404 . S
C689 H701 0.930 . S
C690 C686 1.524 . S
C690 H702 0.956 1_455 S
C690 H703 0.961 . S
C690 H704 0.961 1_455 S
C691 C688 1.539 . S
C691 H705 0.958 . S
C691 H706 0.961 . S
C691 H707 0.960 . S
H692 C676 0.931 1_655 S
H693 C681 0.929 . S
H694 C682 0.960 . S
H695 C682 0.962 . S
H696 C682 0.960 . S
H697 C683 0.961 . S
H698 C683 0.961 . S
H699 C683 0.961 . S
H700 C684 0.931 1_655 S
H701 C689 0.930 . S
H702 C690 0.956 1_655 S
H703 C690 0.961 . S
H704 C690 0.961 1_655 S
H705 C691 0.958 . S
H706 C691 0.961 . S
H707 C691 0.960 . S
C133 C8 2.182 . S
C141 C126 2.272 . S
C165 C26 1.410 . S
C173 C100 1.394 . S
C197 C48 1.535 . S
C205 C112 1.576 . S
C229 C19 1.578 . S
C237 C124 1.556 . S
C269 C102 1.354 . S
C261 C36 1.362 . S
C301 C114 1.556 . S
C293 C59 1.492 . S
C325 C28 1.536 . S
C333 C76 1.601 . S
C357 C46 1.361 . S
C365 C90 1.431 1_655 S
C389 C16 1.339 . S
C397 C66 1.372 1_565 S
C429 C78 1.551 . S
C421 C39 1.492 . S
C461 C88 0.780 . S
C453 C56 0.823 . S
C485 C6 1.432 . S
C493 C64 1.402 . S
C525 C93 1.490 . S
C517 C9 1.459 . S
C549 C21 1.528 . S
C557 C69 1.546 . S
C581 C49 1.491 . S
C589 C81 1.484 . S
C621 C117 1.505 . S
C613 C29 1.507 . S
C653 C129 1.626 . S
C645 C41 1.608 . S
C677 C1 1.485 . S
C685 C105 1.504 . S
