# Generated by pormake.
# Topology zzz, (3,6)-cn, num edge types: 1
# Building blocks:
#     Node 0, Type 0, BuildingBlock: ESEHIV_clean_linker_0, # of connection points: 3
#     Node 1, Type 0, BuildingBlock: ESEHIV_clean_linker_0, # of connection points: 3
#     Node 2, Type 0, BuildingBlock: ESEHIV_clean_linker_0, # of connection points: 3
#     Node 3, Type 0, BuildingBlock: ESEHIV_clean_linker_0, # of connection points: 3
#     Node 4, Type 0, BuildingBlock: ESEHIV_clean_linker_0, # of connection points: 3
#     Node 5, Type 0, BuildingBlock: ESEHIV_clean_linker_0, # of connection points: 3
#     Node 6, Type 0, BuildingBlock: ESEHIV_clean_linker_0, # of connection points: 3
#     Node 7, Type 0, BuildingBlock: ESEHIV_clean_linker_0, # of connection points: 3
#     Node 8, Type 1, BuildingBlock: GEDQOX_clean_sbu_0, # of connection points: 6
#     Node 9, Type 1, BuildingBlock: GEDQOX_clean_sbu_0, # of connection points: 6
#     Node 10, Type 1, BuildingBlock: GEDQOX_clean_sbu_0, # of connection points: 6
#     Node 11, Type 1, BuildingBlock: GEDQOX_clean_sbu_0, # of connection points: 6
#     Edge 12, Type (0, 1), BuildingBlock: XUDNAN_clean_linker_2, # of connection points: 2
#     Edge 13, Type (0, 1), BuildingBlock: XUDNAN_clean_linker_2, # of connection points: 2
#     Edge 14, Type (0, 1), BuildingBlock: XUDNAN_clean_linker_2, # of connection points: 2
#     Edge 15, Type (0, 1), BuildingBlock: XUDNAN_clean_linker_2, # of connection points: 2
#     Edge 16, Type (0, 1), BuildingBlock: XUDNAN_clean_linker_2, # of connection points: 2
#     Edge 17, Type (0, 1), BuildingBlock: XUDNAN_clean_linker_2, # of connection points: 2
#     Edge 18, Type (0, 1), BuildingBlock: XUDNAN_clean_linker_2, # of connection points: 2
#     Edge 19, Type (0, 1), BuildingBlock: XUDNAN_clean_linker_2, # of connection points: 2
#     Edge 20, Type (0, 1), BuildingBlock: XUDNAN_clean_linker_2, # of connection points: 2
#     Edge 21, Type (0, 1), BuildingBlock: XUDNAN_clean_linker_2, # of connection points: 2
#     Edge 22, Type (0, 1), BuildingBlock: XUDNAN_clean_linker_2, # of connection points: 2
#     Edge 23, Type (0, 1), BuildingBlock: XUDNAN_clean_linker_2, # of connection points: 2
#     Edge 24, Type (0, 1), BuildingBlock: XUDNAN_clean_linker_2, # of connection points: 2
#     Edge 25, Type (0, 1), BuildingBlock: XUDNAN_clean_linker_2, # of connection points: 2
#     Edge 26, Type (0, 1), BuildingBlock: XUDNAN_clean_linker_2, # of connection points: 2
#     Edge 27, Type (0, 1), BuildingBlock: XUDNAN_clean_linker_2, # of connection points: 2
#     Edge 28, Type (0, 1), BuildingBlock: XUDNAN_clean_linker_2, # of connection points: 2
#     Edge 29, Type (0, 1), BuildingBlock: XUDNAN_clean_linker_2, # of connection points: 2
#     Edge 30, Type (0, 1), BuildingBlock: XUDNAN_clean_linker_2, # of connection points: 2
#     Edge 31, Type (0, 1), BuildingBlock: XUDNAN_clean_linker_2, # of connection points: 2
#     Edge 32, Type (0, 1), BuildingBlock: XUDNAN_clean_linker_2, # of connection points: 2
#     Edge 33, Type (0, 1), BuildingBlock: XUDNAN_clean_linker_2, # of connection points: 2
#     Edge 34, Type (0, 1), BuildingBlock: XUDNAN_clean_linker_2, # of connection points: 2
#     Edge 35, Type (0, 1), BuildingBlock: XUDNAN_clean_linker_2, # of connection points: 2
# Relax obj value: 0.314
# Max RMSD: 0.320
# Mean RMSD: 0.195
data_MOF--net-zzz--node1-GEDQOX_clean_sbu_0--node2-ESEHIV_clean_linker_0--edge1-XUDNAN_clean_linker_2
_symmetry_space_group_name_H-M    P1
_symmetry_Int_Tables_number       1
_symmetry_cell_setting            triclinic
loop_
_symmetry_equiv_pos_as_xyz
'x, y, z'
_cell_length_a     49.140381
_cell_length_b     45.277244
_cell_length_c     17.464342
_cell_angle_alpha  80.111436
_cell_angle_beta   90.624304
_cell_angle_gamma 104.09226
loop_
_atom_site_label
_atom_site_type_symbol
_atom_site_fract_x
_atom_site_fract_y
_atom_site_fract_z
_atom_type_partial_charge
H0 H 0.84683 0.53624 0.20106 0.0
H1 H 0.78295 0.5219 0.03238 0.0
H2 H 0.77848 0.58029 0.20053 0.0
C3 C 0.82727 0.54021 0.17736 0.0
C4 C 0.8143 0.56025 0.20768 0.0
C5 C 0.81603 0.52614 0.11485 0.0
C6 C 0.79133 0.53214 0.08209 0.0
C7 C 0.7773 0.55111 0.11392 0.0
C8 C 0.78874 0.5649 0.17738 0.0
H9 H 0.97346 0.78965 0.28876 0.0
H10 H 0.00614 0.73799 0.14441 0.0
H11 H 0.97012 0.69385 0.37225 0.0
C12 C 0.97782 0.76814 0.27964 0.0
C13 C 0.97052 0.74213 0.33868 0.0
C14 C 0.99068 0.76697 0.2096 0.0
C15 C -0.00436 0.73887 0.19791 0.0
C16 C 0.98792 0.71212 0.25531 0.0
C17 C 0.97586 0.71406 0.32688 0.0
H18 H 0.67373 0.01342 0.12868 0.0
H19 H 0.74466 0.03201 0.97095 0.0
H20 H 0.7443 0.9755 0.19641 0.0
C21 C 0.69481 0.0117 0.11634 0.0
C22 C 0.70783 0.99404 0.1723 0.0
C23 C 0.70777 0.02546 0.04346 0.0
C24 C 0.7343 0.02135 0.02687 0.0
C25 C 0.74753 1.00321 0.08117 0.0
C26 C 0.73431 0.98966 0.1544 0.0
H27 H 0.61242 0.80854 0.41745 0.0
H28 H 0.54007 0.84109 0.46243 0.0
H29 H 0.59333 0.88376 0.25989 0.0
C30 C 0.60016 0.82553 0.40334 0.0
C31 C 0.60504 0.84565 0.33156 0.0
C32 C 0.5767 0.82332 0.45119 0.0
C33 C 0.55936 0.84387 0.42952 0.0
C34 C 0.56592 0.86647 0.36144 0.0
C35 C 0.58968 0.86818 0.31543 0.0
H36 H 0.24131 0.56564 0.53814 0.0
H37 H 0.30263 0.57607 0.71408 0.0
H38 H 0.31218 0.52551 0.53239 0.0
C39 C 0.26088 0.56169 0.56176 0.0
C40 C 0.27526 0.54383 0.52709 0.0
C41 C 0.27057 0.57319 0.62908 0.0
C42 C 0.29539 0.56756 0.6612 0.0
C43 C 0.31087 0.55098 0.62569 0.0
C44 C 0.30085 0.53931 0.55813 0.0
H45 H 0.9948 0.26074 0.41489 0.0
H46 H 0.99377 0.32034 0.57959 0.0
H47 H 0.04465 0.35479 0.36815 0.0
C48 C 0.001 0.28368 0.42992 0.0
C49 C 0.02006 0.30735 0.38107 0.0
C50 C 0.99172 0.28817 0.50129 0.0
C51 C 0.00064 0.3171 0.52347 0.0
C52 C 0.01929 0.34151 0.47514 0.0
C53 C 0.02959 0.33638 0.40453 0.0
H54 H 0.28789 0.02622 0.51117 0.0
H55 H 0.2188 1.00039 0.67647 0.0
H56 H 0.20775 0.04225 0.44061 0.0
C57 C 0.26598 0.02427 0.52483 0.0
C58 C 0.24915 0.03526 0.4667 0.0
C59 C 0.25524 0.01162 0.60046 0.0
C60 C 0.2272 0.01025 0.61803 0.0
C61 C 0.20972 0.02099 0.56102 0.0
C62 C 0.22099 0.03413 0.48529 0.0
H63 H 0.56009 0.33761 0.31553 0.0
H64 H 0.49733 0.25874 0.2668 0.0
H65 H 0.54399 0.25257 0.47743 0.0
C66 C 0.54924 0.31335 0.33005 0.0
C67 C 0.55452 0.29627 0.40072 0.0
C68 C 0.52845 0.30033 0.28143 0.0
C69 C 0.51347 0.26911 0.30361 0.0
C70 C 0.51913 0.25157 0.37444 0.0
C71 C 0.53953 0.26559 0.42259 0.0
Nd72 Nd 0.96743 0.01196 0.76845 0.0
Nd73 Nd 0.00185 0.04275 0.90544 0.0
C74 C 0.93438 0.97288 0.69088 0.0
C75 C 0.93578 0.94277 0.67223 0.0
C76 C 0.91134 0.92197 0.65476 0.0
C77 C 0.91242 0.89278 0.64031 0.0
C78 C 0.93799 0.88384 0.64338 0.0
C79 C 0.96241 0.90481 0.66155 0.0
C80 C 0.9613 0.93395 0.6759 0.0
C81 C 0.02483 0.03441 0.74144 0.0
C82 C 0.9942 0.96888 0.91002 0.0
C83 C 0.04132 0.07879 0.97456 0.0
C84 C 0.04421 0.10823 1.00314 0.0
C85 C 0.06447 0.11671 0.05764 0.0
C86 C 0.06722 0.14447 0.0856 0.0
C87 C 0.04975 0.16441 0.05947 0.0
C88 C 0.02954 0.1558 1.00429 0.0
C89 C 0.02676 0.12798 0.97663 0.0
C90 C 0.9445 0.0278 0.93702 0.0
C91 C 0.9701 0.08288 0.77218 0.0
O92 O 0.93027 0.97308 0.76463 0.0
O93 O 0.9535 0.99703 0.65693 0.0
O94 O 0.0063 0.03633 0.68822 0.0
O95 O 0.01232 0.02106 0.80536 0.0
O96 O 0.97802 0.971 0.84923 0.0
O97 O 0.00705 0.9931 0.94134 0.0
O98 O 0.04042 0.08048 0.89879 0.0
O99 O 0.02315 0.05464 1.01278 0.0
O100 O 0.9627 0.03948 0.9851 0.0
O101 O 0.95766 0.02481 0.87902 0.0
O102 O 0.99194 0.08281 0.81749 0.0
O103 O 0.95428 0.05733 0.75293 0.0
H104 H 0.89139 0.92822 0.65273 0.0
H105 H 0.89317 0.87712 0.62735 0.0
H106 H 0.98254 0.89899 0.66329 0.0
H107 H 0.98038 0.94962 0.69 0.0
H108 H 0.07806 0.10172 0.07907 0.0
H109 H 0.08265 0.14994 0.12902 0.0
H110 H 0.01591 0.17061 0.98219 0.0
H111 H 0.01092 0.12185 0.93463 0.0
Nd112 Nd 0.48735 0.99289 0.78347 0.0
Nd113 Nd 0.47853 0.0495 0.8641 0.0
C114 C 0.49671 0.94338 0.73919 0.0
C115 C 0.51716 0.93985 0.68181 0.0
C116 C 0.53393 0.91879 0.70184 0.0
C117 C 0.55533 0.91774 0.65056 0.0
C118 C 0.5604 0.93786 0.57838 0.0
C119 C 0.54282 0.95806 0.55748 0.0
C120 C 0.52161 0.95919 0.60864 0.0
C121 C 0.49019 0.0476 0.68346 0.0
C122 C 0.5413 0.04768 0.81451 0.0
C123 C 0.46017 0.09652 0.89435 0.0
C124 C 0.43784 0.09775 0.94902 0.0
C125 C 0.41751 0.11397 0.92341 0.0
C126 C 0.39426 0.11206 0.97154 0.0
C127 C 0.39085 0.09381 0.04634 0.0
C128 C 0.41175 0.07835 0.07248 0.0
C129 C 0.43484 0.08013 0.0243 0.0
C130 C 0.48677 1.00093 0.97508 0.0
C131 C 0.4241 0.99237 0.84425 0.0
O132 O 0.50738 0.95331 0.802 0.0
O133 O 0.4767 0.95634 0.71106 0.0
O134 O 0.50337 0.02716 0.6715 0.0
O135 O 0.47405 0.03742 0.74301 0.0
O136 O 0.53167 0.01807 0.8101 0.0
O137 O 0.52491 0.06617 0.82408 0.0
O138 O 0.45134 0.08221 0.83638 0.0
O139 O 0.48285 0.08959 0.9247 0.0
O140 O 0.48436 0.027 0.99197 0.0
O141 O 0.48516 1.00245 0.90282 0.0
O142 O 0.43413 0.01856 0.86995 0.0
O143 O 0.43991 0.9779 0.81123 0.0
H144 H 0.53101 0.90378 0.75808 0.0
H145 H 0.56856 0.90203 0.66867 0.0
H146 H 0.54572 0.97343 0.50177 0.0
H147 H 0.50913 0.97578 0.59141 0.0
H148 H 0.41918 0.12737 0.86519 0.0
H149 H 0.37851 0.12405 0.9491 0.0
H150 H 0.4102 0.06458 0.13018 0.0
H151 H 0.44999 0.06708 0.04546 0.0
Nd152 Nd 0.53113 0.56623 0.95305 0.0
Nd153 Nd 0.55785 0.55382 0.81468 0.0
C154 C 0.50701 0.58876 0.05517 0.0
C155 C 0.518 0.61902 0.07976 0.0
C156 C 0.51941 0.64665 0.02715 0.0
C157 C 0.5365 0.67455 0.04124 0.0
C158 C 0.55225 0.67556 0.10881 0.0
C159 C 0.54899 0.6484 0.16443 0.0
C160 C 0.53203 0.62042 0.15005 0.0
C161 C 0.58733 0.56832 0.96753 0.0
C162 C 0.55322 0.62378 0.80503 0.0
C163 C 0.59038 0.53708 0.71914 0.0
C164 C 0.60004 0.50963 0.71122 0.0
C165 C 0.59381 0.48315 0.7692 0.0
C166 C 0.60079 0.45614 0.75703 0.0
C167 C 0.61402 0.45532 0.68665 0.0
C168 C 0.6214 0.48249 0.63056 0.0
C169 C 0.61444 0.50941 0.64284 0.0
C170 C 0.5021 0.55288 0.79678 0.0
C171 C 0.52923 0.49591 0.95413 0.0
O172 O 0.49889 0.58948 0.9833 0.0
O173 O 0.52196 0.56857 0.07548 0.0
O174 O 0.56868 0.55554 0.02267 0.0
O175 O 0.57629 0.57997 0.90819 0.0
O176 O 0.53746 0.61302 0.86927 0.0
O177 O 0.56626 0.60613 0.77446 0.0
O178 O 0.59978 0.5504 0.7781 0.0
O179 O 0.5637 0.53521 0.7084 0.0
O180 O 0.52112 0.56439 0.74154 0.0
O181 O 0.51239 0.54105 0.85751 0.0
O182 O 0.55037 0.50739 0.90271 0.0
O183 O 0.514 0.51386 0.97386 0.0
H184 H 0.50863 0.64652 0.97276 0.0
H185 H 0.53834 0.69503 0.99731 0.0
H186 H 0.56004 0.64856 0.2184 0.0
H187 H 0.53116 0.59957 0.19204 0.0
H188 H 0.58283 0.48306 0.82265 0.0
H189 H 0.59497 0.43563 0.80144 0.0
H190 H 0.63109 0.48255 0.57512 0.0
H191 H 0.61938 0.52973 0.59764 0.0
Nd192 Nd 0.03288 0.56417 0.8233 0.0
Nd193 Nd 0.05145 0.50938 0.93594 0.0
C194 C 0.01875 0.6129 0.74346 0.0
C195 C -0.00321 0.61717 0.68687 0.0
C196 C 0.97716 0.63356 0.70194 0.0
C197 C 0.95485 0.63545 0.65222 0.0
C198 C 0.95188 0.62114 0.58617 0.0
C199 C 0.97208 0.60556 0.57 0.0
C200 C 0.99421 0.6035 0.61983 0.0
C201 C 0.03352 0.51242 0.76082 0.0
C202 C 0.98498 0.50712 0.91422 0.0
C203 C 0.07333 0.46279 0.99284 0.0
C204 C 0.09938 0.4626 0.03629 0.0
C205 C 0.09826 0.44434 0.11032 0.0
C206 C 0.12194 0.44758 0.15659 0.0
C207 C 0.14722 0.46922 0.12977 0.0
C208 C 0.14855 0.48651 0.0543 0.0
C209 C 0.12496 0.48319 1.00814 0.0
C210 C 0.04382 0.55309 0.02102 0.0
C211 C 0.09969 0.57167 0.8626 0.0
O212 O 0.0099 0.60113 0.81536 0.0
O213 O 0.03889 0.60163 0.72084 0.0
O214 O 0.01511 0.52856 0.74378 0.0
O215 O 0.05115 0.52462 0.80609 0.0
O216 O 0.99221 0.53709 0.88689 0.0
O217 O 0.00357 0.49002 0.92683 0.0
O218 O 0.07641 0.47609 0.91959 0.0
O219 O 0.05335 0.46991 0.02936 0.0
O220 O 0.05222 0.52868 0.05043 0.0
O221 O 0.04101 0.55381 0.94907 0.0
O222 O 0.09394 0.54315 0.90226 0.0
O223 O 0.08005 0.58525 0.83257 0.0
H224 H 0.97871 0.6443 0.75321 0.0
H225 H 0.93974 0.6478 0.66595 0.0
H226 H 0.97018 0.59383 0.5204 0.0
H227 H 0.00883 0.59047 0.60675 0.0
H228 H 0.07879 0.42833 0.13346 0.0
H229 H 0.12026 0.43358 0.21404 0.0
H230 H 0.16744 0.50372 0.0321 0.0
H231 H 0.12649 0.49766 0.95146 0.0
H232 H 0.17661 0.06333 0.53182 0.0
H233 H 0.17473 0.96894 0.6394 0.0
H234 H 0.12773 0.96305 0.69575 0.0
H235 H 0.14237 0.08308 0.68424 0.0
H236 H 0.12141 0.1049 0.62429 0.0
H237 H 0.15446 0.1019 0.58682 0.0
H238 H 0.12977 0.07998 0.46965 0.0
H239 H 0.09669 0.0834 0.50606 0.0
H240 H 0.10032 0.04666 0.48679 0.0
H241 H 0.08448 0.96872 0.75354 0.0
H242 H 0.04214 0.98261 0.79345 0.0
H243 H 0.06793 0.07187 0.64189 0.0
C244 C 0.16596 0.04124 0.56568 0.0
C245 C 0.17958 0.01675 0.58234 0.0
C246 C 0.16499 0.98822 0.62721 0.0
C247 C 0.13824 0.9846 0.65938 0.0
C248 C 0.12593 0.00949 0.645 0.0
C249 C 0.13881 0.03702 0.59773 0.0
C250 C 0.12046 0.05993 0.5926 0.0
C251 C 0.13559 0.08918 0.62386 0.0
C252 C 0.11126 0.06796 0.50878 0.0
C253 C 0.09572 0.0411 0.64583 0.0
C254 C 0.09967 0.01221 0.67577 0.0
C255 C 0.08087 0.99107 0.72965 0.0
C256 C 0.05701 0.99934 0.75257 0.0
C257 C 0.05182 0.02835 0.72099 0.0
C258 C 0.07142 0.04953 0.66673 0.0
H259 H 0.49463 0.2232 0.5166 0.0
H260 H 0.51391 0.20497 0.29034 0.0
H261 H 0.5022 0.14886 0.34268 0.0
H262 H 0.52652 0.17283 0.62326 0.0
H263 H 0.50149 0.15977 0.70405 0.0
H264 H 0.505 0.19743 0.64608 0.0
H265 H 0.452 0.18387 0.61752 0.0
H266 H 0.4482 0.14624 0.67675 0.0
H267 H 0.43703 0.14952 0.57764 0.0
H268 H 0.49849 0.09705 0.42512 0.0
H269 H 0.49793 0.05217 0.52807 0.0
H270 H 0.48003 0.10322 0.70179 0.0
C271 C 0.49533 0.20724 0.47743 0.0
C272 C 0.50502 0.21833 0.39925 0.0
C273 C 0.50608 0.19691 0.34991 0.0
C274 C 0.49963 0.16503 0.37939 0.0
C275 C 0.49168 0.15499 0.45793 0.0
C276 C 0.48886 0.17541 0.50594 0.0
C277 C 0.48267 0.1591 0.58972 0.0
C278 C 0.50528 0.17312 0.64391 0.0
C279 C 0.45322 0.15972 0.617 0.0
C280 C 0.48397 0.12663 0.58217 0.0
C281 C 0.48891 0.12472 0.50549 0.0
C282 C 0.49383 0.09805 0.4849 0.0
C283 C 0.49367 0.07276 0.54391 0.0
C284 C 0.48846 0.07412 0.62269 0.0
C285 C 0.48321 0.10129 0.64185 0.0
H286 H 0.36386 0.56477 0.55943 0.0
H287 H 0.31615 0.52468 0.77544 0.0
H288 H 0.35979 0.51923 0.84189 0.0
H289 H 0.41604 0.51807 0.58817 0.0
H290 H 0.44449 0.5499 0.54603 0.0
H291 H 0.40923 0.54818 0.51411 0.0
H292 H 0.41288 0.60269 0.5468 0.0
H293 H 0.44802 0.60445 0.57948 0.0
H294 H 0.42177 0.60971 0.64361 0.0
H295 H 0.40864 0.5205 0.8864 0.0
H296 H 0.45963 0.52796 0.90566 0.0
H297 H 0.47599 0.56858 0.66181 0.0
C298 C 0.36265 0.55427 0.62028 0.0
C299 C 0.33674 0.54492 0.66241 0.0
C300 C 0.33589 0.53191 0.74236 0.0
C301 C 0.36051 0.52871 0.78047 0.0
C302 C 0.38586 0.53876 0.73787 0.0
C303 C 0.38715 0.55121 0.65952 0.0
C304 C 0.41727 0.56167 0.62841 0.0
C305 C 0.42203 0.54335 0.56546 0.0
C306 C 0.42546 0.59671 0.59779 0.0
C307 C 0.43267 0.55338 0.70159 0.0
C308 C 0.41413 0.54002 0.76395 0.0
C309 C 0.42336 0.53078 0.83792 0.0
C310 C 0.45233 0.53515 0.84836 0.0
C311 C 0.47168 0.54877 0.78526 0.0
C312 C 0.46165 0.55806 0.71109 0.0
H313 H 0.98638 0.37817 0.5096 0.0
H314 H 0.07262 0.37093 0.50717 0.0
H315 H 0.08631 0.41522 0.57769 0.0
H316 H 0.00289 0.46404 0.48461 0.0
H317 H 0.97364 0.46311 0.54712 0.0
H318 H 0.97165 0.43296 0.4905 0.0
H319 H 0.96001 0.39198 0.61639 0.0
H320 H 0.96247 0.42196 0.67358 0.0
H321 H 0.98376 0.3945 0.69575 0.0
H322 H 0.08887 0.45565 0.66407 0.0
H323 H 0.0817 0.49396 0.74248 0.0
H324 H 0.99417 0.47663 0.68145 0.0
C325 C 0.00827 0.38654 0.52211 0.0
C326 C 0.02856 0.37147 0.50259 0.0
C327 C 0.05693 0.38259 0.52068 0.0
C328 C 0.06479 0.40752 0.56119 0.0
C329 C 0.04405 0.42126 0.58196 0.0
C330 C 0.01648 0.41161 0.56134 0.0
C331 C -0.00193 0.42972 0.5919 0.0
C332 C 0.98585 0.44858 0.52451 0.0
C333 C 0.97471 0.40825 0.64771 0.0
C334 C 0.01938 0.45056 0.63478 0.0
C335 C 0.04576 0.44522 0.62886 0.0
C336 C 0.06842 0.46039 0.6678 0.0
C337 C 0.06412 0.48193 0.71264 0.0
C338 C 0.03744 0.48836 0.71742 0.0
C339 C 0.01485 0.47239 0.67801 0.0
H340 H 0.79841 0.0165 0.15175 0.0
H341 H 0.75767 0.97959 0.9551 0.0
H342 H 0.80362 0.97864 0.90129 0.0
H343 H 0.856 0.06697 0.0471 0.0
H344 H 0.8817 0.06174 0.11929 0.0
H345 H 0.84549 0.05573 0.14863 0.0
H346 H 0.8447 1.00027 0.21896 0.0
H347 H 0.88107 1.00625 0.19065 0.0
H348 H 0.85525 0.9738 0.16611 0.0
H349 H 0.85371 0.98781 0.86029 0.0
H350 H 0.90518 1.00311 0.83939 0.0
H351 H 0.91436 0.03296 0.06318 0.0
C352 C 0.79922 0.0073 0.09875 0.0
C353 C 0.77458 0.99787 0.05772 0.0
C354 C 0.77637 0.98677 0.98739 0.0
C355 C 0.80234 0.98615 0.95642 0.0
C356 C 0.82638 0.9966 0.99666 0.0
C357 C 0.82512 1.00662 0.06677 0.0
C358 C 0.85439 0.0185 0.09525 0.0
C359 C 0.85969 0.05277 0.10299 0.0
C360 C 0.85913 0.99851 0.17232 0.0
C361 C 0.87217 0.0143 0.0293 0.0
C362 C 0.85554 1.00151 0.97325 0.0
C363 C 0.86699 0.99718 0.90458 0.0
C364 C 0.89624 1.00587 0.89318 0.0
C365 C 0.91373 0.01855 0.95022 0.0
C366 C 0.90148 0.02283 0.01911 0.0
H367 H 0.57222 0.92889 0.31827 0.0
H368 H 0.51445 0.84014 0.31414 0.0
H369 H 0.4867 0.86509 0.21586 0.0
H370 H 0.51866 0.97617 0.28802 0.0
H371 H 0.54304 0.00771 0.22811 0.0
H372 H 0.55574 0.98307 0.30514 0.0
H373 H 0.58885 0.97084 0.20467 0.0
H374 H 0.57598 0.99615 0.13002 0.0
H375 H 0.57391 0.95677 0.11939 0.0
H376 H 0.47104 0.89816 0.09972 0.0
H377 H 0.46218 0.93907 0.99504 0.0
H378 H 0.52739 0.00699 0.08239 0.0
C379 C 0.55295 0.91506 0.29929 0.0
C380 C 0.54505 0.88273 0.32488 0.0
C381 C 0.52032 0.86507 0.2969 0.0
C382 C 0.50468 0.87899 0.24023 0.0
C383 C 0.5138 0.91071 0.21318 0.0
C384 C 0.53685 0.9287 0.24359 0.0
C385 C 0.54292 0.96202 0.20237 0.0
C386 C 0.5399 0.98351 0.2593 0.0
C387 C 0.57216 0.97201 0.16175 0.0
C388 C 0.51997 0.95993 0.14335 0.0
C389 C 0.50373 0.93 0.14936 0.0
C390 C 0.48311 0.92183 0.09582 0.0
C391 C 0.47841 0.94503 0.03613 0.0
C392 C 0.4939 0.976 0.03159 0.0
C393 C 0.51496 0.98346 0.08567 0.0
H394 H 0.72521 0.53929 0.18373 0.0
H395 H 0.77109 0.57678 0.96401 0.0
H396 H 0.72776 0.58699 0.90312 0.0
H397 H 0.6624 0.49989 0.10078 0.0
H398 H 0.63903 0.50705 0.17037 0.0
H399 H 0.67393 0.50435 0.19743 0.0
H400 H 0.68368 0.55848 0.23707 0.0
H401 H 0.6488 0.56134 0.21007 0.0
H402 H 0.67883 0.59101 0.16754 0.0
H403 H 0.67949 0.59383 0.86707 0.0
H404 H 0.62912 0.59318 0.85584 0.0
H405 H 0.61403 0.54775 0.0966 0.0
C406 C 0.72606 0.54989 0.123 0.0
C407 C 0.75139 0.55754 0.07843 0.0
C408 C 0.75179 0.57086 0.99885 0.0
C409 C 0.72736 0.57679 0.96398 0.0
C410 C 0.70263 0.56888 1.00933 0.0
C411 C 0.70173 0.55542 0.08692 0.0
C412 C 0.67218 0.54773 0.12161 0.0
C413 C 0.66125 0.51268 0.14915 0.0
C414 C 0.6708 0.56572 0.18799 0.0
C415 C 0.65664 0.55907 0.05158 0.0
C416 C 0.67463 0.57148 0.98761 0.0
C417 C 0.66517 0.58391 0.9166 0.0
C418 C 0.63654 0.58335 0.91065 0.0
C419 C 0.61765 0.57 0.97491 0.0
C420 C 0.62796 0.55791 0.04628 0.0
H421 H 0.97963 0.68881 0.11961 0.0
H422 H 0.00873 0.66928 0.35409 0.0
H423 H 0.02376 0.62465 0.32057 0.0
H424 H 0.95622 0.60717 0.09078 0.0
H425 H 0.9677 0.61687 0.98991 0.0
H426 H 0.95583 0.64452 0.03549 0.0
H427 H 0.00284 0.6848 0.99453 0.0
H428 H 0.01504 0.65725 0.94969 0.0
H429 H 0.03543 0.67521 0.02327 0.0
H430 H 0.04048 0.58629 0.25752 0.0
H431 H 0.05454 0.55393 0.17284 0.0
H432 H 0.01577 0.59913 0.97744 0.0
C433 C 0.98895 0.67498 0.16421 0.0
C434 C 0.99332 0.68277 0.23934 0.0
C435 C 0.00506 0.66373 0.29637 0.0
C436 C 0.01378 0.63843 0.27769 0.0
C437 C 0.01034 0.63235 0.20201 0.0
C438 C -0.00219 0.64978 0.14647 0.0
C439 C -0.00223 0.63933 0.06839 0.0
C440 C 0.96759 0.62618 0.04476 0.0
C441 C 0.01373 0.66572 1.00528 0.0
C442 C 0.01336 0.61411 0.08776 0.0
C443 C 0.02008 0.61024 0.16543 0.0
C444 C 0.03507 0.5889 0.19691 0.0
C445 C 0.0431 0.57076 0.14815 0.0
C446 C 0.03635 0.57415 0.06855 0.0
C447 C 0.02135 0.59621 0.03793 0.0
H448 H 0.00988 0.26357 0.63818 0.0
H449 H 0.94091 0.25012 0.48148 0.0
H450 H 0.92256 0.19687 0.55267 0.0
H451 H 0.02516 0.1969 0.63488 0.0
H452 H 0.0347 0.18824 0.73471 0.0
H453 H 0.03767 0.22764 0.68954 0.0
H454 H 0.00552 0.23497 0.79766 0.0
H455 H 0.00294 0.19561 0.84441 0.0
H456 H 0.97154 0.20852 0.81951 0.0
H457 H 0.91799 0.14297 0.6197 0.0
H458 H 0.92638 0.09281 0.68057 0.0
H459 H -0.00043 0.1407 0.79118 0.0
C460 C 0.99001 0.24992 0.62218 0.0
C461 C 0.97628 0.26092 0.55608 0.0
C462 C 0.95119 0.24212 0.53336 0.0
C463 C 0.94071 0.2119 0.57338 0.0
C464 C 0.95563 0.20097 0.6358 0.0
C465 C 0.97957 0.21956 0.6609 0.0
C466 C 0.99436 0.20094 0.72025 0.0
C467 C 0.02474 0.20359 0.69314 0.0
C468 C 0.99352 0.21059 0.80021 0.0
C469 C 0.97604 0.16878 0.72085 0.0
C470 C 0.95344 0.16936 0.6733 0.0
C471 C 0.9352 0.14226 0.65862 0.0
C472 C 0.94028 0.11386 0.69299 0.0
C473 C 0.96364 0.11279 0.74071 0.0
C474 C 0.98136 0.14068 0.75574 0.0
H475 H 0.29471 0.97933 0.5839 0.0
H476 H 0.25804 0.01946 0.75301 0.0
H477 H 0.29236 1.00622 0.84851 0.0
H478 H 0.31781 0.91773 0.7261 0.0
H479 H 0.34987 0.92356 0.67012 0.0
H480 H 0.31838 0.92905 0.62188 0.0
H481 H 0.34463 0.98466 0.55822 0.0
H482 H 0.37607 0.97917 0.60546 0.0
H483 H 0.36217 0.0113 0.6193 0.0
H484 H 0.33559 0.99886 0.91483 0.0
H485 H 0.38507 1.00029 0.94358 0.0
H486 H 0.39431 0.96487 0.73259 0.0
C487 C 0.29352 0.98476 0.64159 0.0
C488 C 0.2736 1.00035 0.66099 0.0
C489 C 0.27275 0.00704 0.73711 0.0
C490 C 0.29218 0.99956 0.79185 0.0
C491 C 0.31214 0.9851 0.76994 0.0
C492 C 0.31285 0.97762 0.69663 0.0
C493 C 0.33873 0.96636 0.6835 0.0
C494 C 0.33071 0.93213 0.67492 0.0
C495 C 0.35644 0.98659 0.6125 0.0
C496 C 0.35343 0.9706 0.75894 0.0
C497 C 0.33737 0.98063 0.80891 0.0
C498 C 0.34803 0.99017 0.87735 0.0
C499 C 0.37616 0.99089 0.89327 0.0
C500 C 0.39331 0.98222 0.84086 0.0
C501 C 0.38138 0.97056 0.77496 0.0
H502 H 0.53946 0.30496 0.5413 0.0
H503 H 0.61029 0.32482 0.37974 0.0
H504 H 0.63859 0.35945 0.46202 0.0
H505 H 0.54495 0.37769 0.55781 0.0
H506 H 0.53409 0.37136 0.65881 0.0
H507 H 0.52286 0.34103 0.60326 0.0
H508 H 0.5441 0.30437 0.70357 0.0
H509 H 0.5555 0.33484 0.75969 0.0
H510 H 0.5805 0.31595 0.72745 0.0
H511 H 0.65532 0.39923 0.54373 0.0
H512 H 0.65769 0.44387 0.60917 0.0
H513 H 0.57478 0.40045 0.71315 0.0
C514 C 0.56139 0.31547 0.52579 0.0
C515 C 0.57312 0.31189 0.45583 0.0
C516 C 0.60133 0.32702 0.43425 0.0
C517 C 0.61751 0.34651 0.48087 0.0
C518 C 0.60502 0.35064 0.54837 0.0
C519 C 0.57752 0.33549 0.5708 0.0
C520 C 0.56707 0.34851 0.63578 0.0
C521 C 0.54073 0.36036 0.61244 0.0
C522 C 0.56148 0.32448 0.7111 0.0
C523 C 0.59226 0.37473 0.64276 0.0
C524 C 0.61432 0.37485 0.59406 0.0
C525 C 0.63846 0.39902 0.58332 0.0
C526 C 0.63955 0.42438 0.62031 0.0
C527 C 0.6164 0.4256 0.66617 0.0
C528 C 0.59311 0.3998 0.68024 0.0
H529 H 0.24828 0.55306 0.775 0.0
H530 H 0.25067 0.62371 0.57234 0.0
H531 H 0.21247 0.64018 0.63103 0.0
H532 H 0.17944 0.52805 0.784 0.0
H533 H 0.17439 0.51857 0.88807 0.0
H534 H 0.20731 0.51896 0.84449 0.0
H535 H 0.23355 0.55836 0.92773 0.0
H536 H 0.20064 0.55801 0.97304 0.0
H537 H 0.22331 0.59407 0.92632 0.0
H538 H 0.16825 0.64118 0.69631 0.0
H539 H 0.1207 0.6246 0.75669 0.0
H540 H 0.14601 0.55243 0.91697 0.0
C541 C 0.2417 0.57307 0.74522 0.0
C542 C 0.25266 0.58766 0.67029 0.0
C543 C 0.24273 0.61271 0.63054 0.0
C544 C 0.22117 0.62226 0.66366 0.0
C545 C 0.20978 0.60645 0.73641 0.0
C546 C 0.21985 0.58244 0.77699 0.0
C547 C 0.20066 0.56518 0.84592 0.0
C548 C 0.18981 0.53069 0.84018 0.0
C549 C 0.21543 0.56916 0.92281 0.0
C550 C 0.17742 0.582 0.8352 0.0
C551 C 0.18344 0.60633 0.77322 0.0
C552 C 0.16359 0.6227 0.74616 0.0
C553 C 0.13655 0.61309 0.78094 0.0
C554 C 0.12951 0.58704 0.84137 0.0
C555 C 0.1507 0.57245 0.87112 0.0
H556 H 0.01098 0.82742 0.22866 0.0
H557 H 0.9855 0.77023 0.05196 0.0
H558 H 0.99103 0.81715 0.95263 0.0
H559 H 0.97074 0.87832 0.16438 0.0
H560 H 0.99506 0.9124 0.18629 0.0
H561 H -0.00466 0.87499 0.24079 0.0
H562 H 0.04812 0.88415 0.20472 0.0
H563 H 0.04807 0.92178 0.15033 0.0
H564 H 0.05969 0.89418 0.10391 0.0
H565 H 0.99214 0.86874 0.87704 0.0
H566 H 0.98858 0.92179 0.82902 0.0
H567 H 0.01065 0.94622 0.05541 0.0
C568 C 0.00693 0.82468 0.16891 0.0
C569 C -0.00218 0.79502 0.14825 0.0
C570 C 0.993 0.79259 0.06921 0.0
C571 C -0.00401 0.81915 1.01234 0.0
C572 C 0.00384 0.84793 0.03541 0.0
C573 C 0.00936 0.85092 0.11174 0.0
C574 C 0.01407 0.88425 0.12287 0.0
C575 C 0.99252 0.88767 0.18205 0.0
C576 C 0.04429 0.89683 0.14687 0.0
C577 C 0.0092 0.89939 0.04137 0.0
C578 C 0.00386 0.87803 0.99171 0.0
C579 C -0.00331 0.88575 0.91501 0.0
C580 C 0.99449 0.91595 0.88854 0.0
C581 C -0.00078 0.93812 0.9387 0.0
C582 C 0.00727 0.92987 0.01564 0.0
H583 H 0.67235 0.0623 0.06283 0.0
H584 H 0.70655 0.02287 0.88761 0.0
H585 H 0.67332 0.03941 0.79395 0.0
H586 H 0.60646 0.0314 0.03012 0.0
H587 H 0.5915 0.06239 0.04739 0.0
H588 H 0.62366 0.05798 0.09177 0.0
H589 H 0.64858 0.11412 0.0287 0.0
H590 H 0.61628 0.11891 0.98415 0.0
H591 H 0.64781 0.12606 0.92493 0.0
H592 H 0.62964 0.04573 0.7333 0.0
H593 H 0.57923 0.04122 0.71174 0.0
H594 H 0.57131 0.07595 0.92407 0.0
C595 C 0.67344 0.05803 1.00397 0.0
C596 C 0.69217 0.04133 0.98279 0.0
C597 C 0.69289 0.03615 0.90519 0.0
C598 C 0.67398 0.04548 0.85135 0.0
C599 C 0.65457 0.06014 0.8756 0.0
C600 C 0.65435 0.06672 0.95 0.0
C601 C 0.62821 0.07701 0.96659 0.0
C602 C 0.61148 0.05595 0.03817 0.0
C603 C 0.63568 0.11106 0.97666 0.0
C604 C 0.61271 0.07286 0.89223 0.0
C605 C 0.6287 0.06402 0.83953 0.0
C606 C 0.61731 0.05378 0.77252 0.0
C607 C 0.58868 0.05123 0.76071 0.0
C608 C 0.57187 0.05906 0.81534 0.0
C609 C 0.5842 0.07123 0.87999 0.0
H610 H 0.5824 0.84227 0.19061 0.0
H611 H 0.65151 0.82135 0.3275 0.0
H612 H 0.65247 0.7797 0.25436 0.0
H613 H 0.54536 0.77595 0.21262 0.0
H614 H 0.52995 0.77465 0.11871 0.0
H615 H 0.54239 0.81102 0.14981 0.0
H616 H 0.57554 0.83241 0.02859 0.0
H617 H 0.56229 0.79642 0.99409 0.0
H618 H 0.59951 0.81084 1.00365 0.0
H619 H 0.63478 0.73058 0.20546 0.0
H620 H 0.6044 0.68279 0.1725 0.0
H621 H 0.54475 0.73422 0.07434 0.0
C622 C 0.59917 0.8306 0.20158 0.0
C623 C 0.61649 0.83469 0.26602 0.0
C624 C 0.63779 0.8184 0.27897 0.0
C625 C 0.63842 0.79459 0.23761 0.0
C626 C 0.61816 0.78808 0.18215 0.0
C627 C 0.5995 0.80642 0.16202 0.0
C628 C 0.57598 0.79116 0.11422 0.0
C629 C 0.54676 0.788 0.15116 0.0
C630 C 0.5785 0.80875 0.03013 0.0
C631 C 0.58253 0.76006 0.11799 0.0
C632 C 0.60746 0.75906 0.15473 0.0
C633 C 0.61574 0.73144 0.17439 0.0
C634 C 0.59807 0.70427 0.15668 0.0
C635 C 0.5721 0.70475 0.12099 0.0
C636 C 0.56474 0.73321 0.09986 0.0
H637 H 0.83956 0.53918 0.9698 0.0
H638 H 0.8312 0.47441 0.18625 0.0
H639 H 0.86849 0.45276 0.14111 0.0
H640 H 0.86324 0.48897 0.83886 0.0
H641 H 0.88769 0.52263 0.78677 0.0
H642 H 0.8549 0.52613 0.82505 0.0
H643 H 0.88213 0.5685 0.8994 0.0
H644 H 0.91477 0.56499 0.86187 0.0
H645 H 0.90878 0.56 0.96546 0.0
H646 H 0.91331 0.44684 0.08682 0.0
H647 H 0.96161 0.45855 0.03067 0.0
H648 H 0.94118 0.52745 0.84998 0.0
C649 C 0.84456 0.51926 1.00546 0.0
C650 C 0.83221 0.50786 0.08041 0.0
C651 C 0.84014 0.4829 0.12785 0.0
C652 C 0.86125 0.47047 0.10258 0.0
C653 C 0.8742 0.48328 0.0297 0.0
C654 C 0.86592 0.50698 0.9814 0.0
C655 C 0.88626 0.52061 0.91276 0.0
C656 C 0.87218 0.51418 0.83633 0.0
C657 C 0.89872 0.55555 0.90983 0.0
C658 C 0.90815 0.50231 0.93257 0.0
C659 C 0.90054 0.48026 0.99891 0.0
C660 C 0.91916 0.46339 0.03356 0.0
C661 C 0.94655 0.47009 1.00128 0.0
C662 C 0.95501 0.4938 0.93601 0.0
C663 C 0.93514 0.50897 0.89957 0.0
H664 H 0.98995 0.27736 0.27337 0.0
H665 H 0.07515 0.31687 0.33394 0.0
H666 H 0.09295 0.28963 0.24142 0.0
H667 H -0.00214 0.20547 0.27955 0.0
H668 H 0.97542 0.19566 0.20068 0.0
H669 H 0.96977 0.22423 0.25433 0.0
H670 H 0.97428 0.2644 0.12724 0.0
H671 H 0.97947 0.23574 0.0726 0.0
H672 H 0.00494 0.27237 0.06413 0.0
H673 H 0.10054 0.25025 0.16146 0.0
H674 H 0.09754 0.20503 0.09738 0.0
H675 H 0.00682 0.18918 0.0969 0.0
C676 C 0.01243 0.2813 0.26467 0.0
C677 C 0.0312 0.29943 0.31034 0.0
C678 C 0.06043 0.30362 0.29849 0.0
C679 C 0.07068 0.288 0.24644 0.0
C680 C 0.05141 0.26855 0.20629 0.0
C681 C 0.02286 0.2656 0.214 0.0
C682 C 0.00624 0.24039 0.17299 0.0
C683 C 0.98616 0.21495 0.23032 0.0
C684 C 0.9903 0.25405 0.1052 0.0
C685 C 0.02976 0.22861 0.14365 0.0
C686 C 0.0557 0.24544 0.16214 0.0
C687 C 0.08034 0.2373 0.14572 0.0
C688 C 0.07838 0.21131 0.11 0.0
C689 C 0.05193 0.1934 0.09177 0.0
C690 C 0.02743 0.20264 0.10819 0.0
H691 H 0.27709 1.00649 0.3817 0.0
H692 H 0.25175 0.09198 0.37601 0.0
H693 H 0.28239 0.11561 0.25824 0.0
H694 H 0.34672 0.03925 0.33965 0.0
H695 H 0.35224 0.01208 0.28074 0.0
H696 H 0.32478 1.00039 0.35487 0.0
H697 H 0.28794 0.98418 0.2529 0.0
H698 H 0.3154 0.99531 0.17842 0.0
H699 H 0.28527 0.01158 0.16683 0.0
H700 H 0.32141 0.13172 0.1524 0.0
H701 H 0.36254 0.13794 0.0653 0.0
H702 H 0.3614 0.04122 0.14164 0.0
C703 C 0.27732 0.0299 0.35412 0.0
C704 C 0.26196 0.04741 0.38739 0.0
C705 C 0.26303 0.07806 0.35056 0.0
C706 C 0.28052 0.09167 0.28404 0.0
C707 C 0.29646 0.07413 0.25484 0.0
C708 C 0.29458 0.04369 0.2882 0.0
C709 C 0.31537 0.0304 0.25045 0.0
C710 C 0.33599 0.01993 0.30997 0.0
C711 C 0.30008 1.0038 0.20971 0.0
C712 C 0.32998 0.05836 0.19212 0.0
C713 C 0.3187 0.08332 0.19478 0.0
C714 C 0.33001 0.11212 0.14899 0.0
C715 C 0.35338 0.11542 0.09949 0.0
C716 C 0.36536 0.09011 0.0964 0.0
C717 C 0.35309 0.06118 0.14295 0.0
H718 H 0.56401 0.34076 0.16957 0.0
H719 H 0.47639 0.30878 0.24414 0.0
H720 H 0.46587 0.3529 0.15455 0.0
H721 H 0.57016 0.41679 0.16749 0.0
H722 H 0.59304 0.43168 0.08242 0.0
H723 H 0.59293 0.39452 0.13893 0.0
H724 H 0.58169 0.36887 0.01687 0.0
H725 H 0.58225 0.40613 0.95939 0.0
H726 H 0.55182 0.37438 0.96045 0.0
H727 H 0.46686 0.40568 0.07878 0.0
H728 H 0.47813 0.45997 1.01085 0.0
H729 H 0.56492 0.45727 0.98089 0.0
C730 C 0.54242 0.3424 0.16459 0.0
C731 C 0.52094 0.32118 0.2133 0.0
C732 C 0.49304 0.32436 0.20636 0.0
C733 C 0.48693 0.34951 0.15598 0.0
C734 C 0.50888 0.37096 0.11188 0.0
C735 C 0.53599 0.36723 0.11421 0.0
C736 C 0.55621 0.39489 0.06634 0.0
C737 C 0.57944 0.41037 0.11683 0.0
C738 C 0.56873 0.3855 0.99662 0.0
C739 C 0.53654 0.41546 0.03989 0.0
C740 C 0.50929 0.40115 0.06636 0.0
C741 C 0.48795 0.41676 0.05603 0.0
C742 C 0.4946 0.44767 0.01784 0.0
C743 C 0.52232 0.46271 0.98985 0.0
C744 C 0.54341 0.44614 1.00009 0.0
H745 H 0.22012 0.51462 0.51574 0.0
H746 H 0.30052 0.53888 0.39098 0.0
H747 H 0.27707 0.51764 0.27871 0.0
H748 H 0.18943 0.44363 0.43976 0.0
H749 H 0.15502 0.45114 0.43466 0.0
H750 H 0.17873 0.46487 0.50747 0.0
H751 H 0.17389 0.52071 0.45884 0.0
H752 H 0.1502 0.50715 0.38611 0.0
H753 H 0.18136 0.53766 0.35778 0.0
H754 H 0.24357 0.49795 0.17562 0.0
H755 H 0.20372 0.48166 0.09207 0.0
H756 H 0.1456 0.47248 0.28503 0.0
C757 C 0.23291 0.51537 0.465 0.0
C758 C 0.26217 0.52865 0.46191 0.0
C759 C 0.27812 0.52865 0.39485 0.0
C760 C 0.26495 0.51672 0.33081 0.0
C761 C 0.23588 0.50462 0.33517 0.0
C762 C 0.22014 0.50374 0.40093 0.0
C763 C 0.1891 0.49143 0.38989 0.0
C764 C 0.17739 0.46095 0.44629 0.0
C765 C 0.17269 0.51569 0.39864 0.0
C766 C 0.18963 0.48613 0.30683 0.0
C767 C 0.21678 0.49354 0.27633 0.0
C768 C 0.22228 0.49184 0.19927 0.0
C769 C 0.19947 0.48273 0.15211 0.0
C770 C 0.17143 0.47561 0.18188 0.0
C771 C 0.16669 0.47701 0.26072 0.0
H772 H 0.92575 0.76547 0.35642 0.0
H773 H 0.99094 0.73147 0.48458 0.0
H774 H 0.98279 0.75733 0.59305 0.0
H775 H 0.94782 0.83658 0.38708 0.0
H776 H 0.91434 0.84568 0.39489 0.0
H777 H 0.91766 0.81635 0.34096 0.0
H778 H 0.87813 0.77612 0.42592 0.0
H779 H 0.874 0.80558 0.47931 0.0
H780 H 0.8804 0.7699 0.53031 0.0
H781 H 0.97596 0.79724 0.67055 0.0
H782 H 0.96928 0.84434 0.71325 0.0
H783 H 0.91098 0.855 0.52828 0.0
C784 C 0.93714 0.76206 0.40935 0.0
C785 C 0.95875 0.7463 0.41277 0.0
C786 C 0.97391 0.74292 0.48163 0.0
C787 C 0.96953 0.75779 0.5432 0.0
C788 C 0.94977 0.77563 0.53493 0.0
C789 C 0.93341 0.7773 0.47007 0.0
C790 C 0.91733 0.80203 0.46789 0.0
C791 C 0.92476 0.82659 0.39336 0.0
C792 C 0.88558 0.78753 0.4764 0.0
C793 C 0.92828 0.81524 0.53925 0.0
C794 C 0.94647 0.79934 0.57825 0.0
C795 C 0.96127 0.80937 0.6414 0.0
C796 C 0.95759 0.83639 0.66469 0.0
C797 C 0.93952 0.85341 0.62429 0.0
C798 C 0.92436 0.84217 0.56175 0.0
H799 H 0.68394 0.02239 0.2684 0.0
H800 H 0.69476 0.93264 0.24077 0.0
H801 H 0.66003 0.90772 0.34926 0.0
H802 H 0.67215 1.00555 0.48282 0.0
H803 H 0.64645 0.02819 0.47737 0.0
H804 H 0.67498 0.03848 0.40622 0.0
H805 H 0.63909 0.03579 0.29605 0.0
H806 H 0.61051 0.02508 0.36685 0.0
H807 H 0.61217 1.00071 0.29663 0.0
H808 H 0.62026 0.89282 0.45387 0.0
H809 H 0.58014 0.88949 0.54252 0.0
H810 H 0.59604 0.98955 0.4974 0.0
C811 C 0.67961 0.99755 0.28678 0.0
C812 C 0.6922 0.97942 0.24698 0.0
C813 C 0.68574 0.94696 0.27167 0.0
C814 C 0.6659 0.93265 0.33279 0.0
C815 C 0.65303 0.95123 0.36883 0.0
C816 C 0.65996 0.98306 0.34707 0.0
C817 C 0.64196 0.9979 0.39042 0.0
C818 C 0.65996 0.01876 0.4423 0.0
C819 C 0.62494 0.01593 0.33412 0.0
C820 C 0.62318 0.96948 0.43851 0.0
C821 C 0.62998 0.94273 0.42635 0.0
C822 C 0.61488 0.91368 0.46382 0.0
C823 C 0.59219 0.912 0.5143 0.0
C824 C 0.58474 0.93923 0.52653 0.0
C825 C 0.60078 0.96823 0.48844 0.0
H826 H 0.57598 0.76318 0.44572 0.0
H827 H 0.55898 0.82186 0.60187 0.0
H828 H 0.55015 0.77687 0.71029 0.0
H829 H 0.52549 0.69283 0.52984 0.0
H830 H 0.54838 0.66856 0.51481 0.0
H831 H 0.55095 0.70473 0.45001 0.0
H832 H 0.60381 0.72181 0.47812 0.0
H833 H 0.60141 0.68584 0.54349 0.0
H834 H 0.61451 0.722 0.57714 0.0
H835 H 0.5454 0.72501 0.80264 0.0
H836 H 0.54409 0.67184 0.86896 0.0
H837 H 0.56681 0.64883 0.65143 0.0
C838 C 0.57046 0.76673 0.50274 0.0
C839 C 0.56854 0.79622 0.51561 0.0
C840 C 0.56053 0.79952 0.59069 0.0
C841 C 0.55564 0.77412 0.65254 0.0
C842 C 0.55877 0.74565 0.63808 0.0
C843 C 0.56587 0.74191 0.56471 0.0
C844 C 0.56888 0.70944 0.56402 0.0
C845 C 0.54713 0.69292 0.51157 0.0
C846 C 0.59894 0.70981 0.53924 0.0
C847 C 0.56263 0.6953 0.64885 0.0
C848 C 0.55661 0.71641 0.69067 0.0
C849 C 0.55 0.7084 0.77015 0.0
C850 C 0.54927 0.67808 0.80739 0.0
C851 C 0.55535 0.65612 0.76558 0.0
C852 C 0.56231 0.66509 0.6853 0.0
H853 H 0.86896 0.5922 0.20558 0.0
H854 H 0.79229 0.5648 0.34788 0.0
H855 H 0.81874 0.58533 0.45701 0.0
H856 H 0.91236 0.56911 0.34292 0.0
H857 H 0.94262 0.60081 0.31402 0.0
H858 H 0.91692 0.58952 0.24389 0.0
H859 H 0.91069 0.64534 0.21305 0.0
H860 H 0.93609 0.65677 0.2842 0.0
H861 H 0.90156 0.66329 0.29042 0.0
H862 H 0.85489 0.6009 0.55579 0.0
H863 H 0.897 0.61043 0.63508 0.0
H864 H 0.95003 0.62837 0.42695 0.0
C865 C 0.85764 0.5912 0.25921 0.0
C866 C 0.82862 0.57691 0.26867 0.0
C867 C 0.81446 0.57595 0.33943 0.0
C868 C 0.82934 0.58751 0.40158 0.0
C869 C 0.85821 0.6004 0.39127 0.0
C870 C 0.87212 0.60269 0.32132 0.0
C871 C 0.9035 0.61499 0.32676 0.0
C872 C 0.91978 0.59223 0.30572 0.0
C873 C 0.91352 0.64701 0.27552 0.0
C874 C 0.90535 0.61729 0.41214 0.0
C875 C 0.87899 0.60953 0.44801 0.0
C876 C 0.87557 0.60769 0.52797 0.0
C877 C 0.89965 0.61325 0.57255 0.0
C878 C 0.92682 0.62025 0.53723 0.0
C879 C 0.92955 0.62306 0.45565 0.0
loop_
_geom_bond_atom_site_label_1
_geom_bond_atom_site_label_2
_geom_bond_distance
_geom_bond_site_symmetry_2
_ccdc_geom_bond_type
H0 C3 0.931 . S
H1 C6 0.928 . S
H2 C8 0.930 . S
C3 H0 0.931 . S
C3 C4 1.413 . S
C3 C5 1.360 1_554 S
C4 C3 1.413 . S
C4 C8 1.429 . S
C5 C3 1.360 1_556 S
C5 C6 1.372 . S
C6 H1 0.928 . S
C6 C5 1.372 . S
C6 C7 1.404 1_556 S
C7 C6 1.404 1_554 S
C7 C8 1.391 . S
C8 H2 0.930 . S
C8 C4 1.429 . S
C8 C7 1.391 . S
H9 C12 0.931 . S
H10 C15 0.928 . S
H11 C17 0.930 . S
C12 H9 0.931 . S
C12 C13 1.413 . S
C12 C14 1.360 1_554 S
C13 C12 1.413 . S
C13 C17 1.429 . S
C14 C12 1.360 1_556 S
C14 C15 1.372 . S
C15 H10 0.928 . S
C15 C14 1.372 . S
C15 C16 1.404 1_556 S
C16 C15 1.404 1_554 S
C16 C17 1.391 . S
C17 H11 0.930 . S
C17 C13 1.429 . S
C17 C16 1.391 . S
H18 C21 0.931 . S
H19 C24 0.928 . S
H20 C26 0.930 . S
C21 H18 0.931 . S
C21 C22 1.413 . S
C21 C23 1.360 1_554 S
C22 C21 1.413 . S
C22 C26 1.429 . S
C23 C21 1.360 1_556 S
C23 C24 1.372 . S
C24 H19 0.928 . S
C24 C23 1.372 . S
C24 C25 1.404 . S
C25 C24 1.404 . S
C25 C26 1.391 1_556 S
C26 H20 0.930 . S
C26 C22 1.429 . S
C26 C25 1.391 1_554 S
H27 C30 0.931 . S
H28 C33 0.928 . S
H29 C35 0.930 . S
C30 H27 0.931 . S
C30 C31 1.413 . S
C30 C32 1.360 . S
C31 C30 1.413 . S
C31 C35 1.429 . S
C32 C30 1.360 . S
C32 C33 1.372 . S
C33 H28 0.928 . S
C33 C32 1.372 . S
C33 C34 1.404 . S
C34 C33 1.404 . S
C34 C35 1.391 . S
C35 H29 0.930 . S
C35 C31 1.429 . S
C35 C34 1.391 . S
H36 C39 0.931 . S
H37 C42 0.928 . S
H38 C44 0.930 . S
C39 H36 0.931 . S
C39 C40 1.413 . S
C39 C41 1.360 . S
C40 C39 1.413 . S
C40 C44 1.429 . S
C41 C39 1.360 . S
C41 C42 1.372 . S
C42 H37 0.928 . S
C42 C41 1.372 . S
C42 C43 1.404 . S
C43 C42 1.404 . S
C43 C44 1.391 . S
C44 H38 0.930 . S
C44 C40 1.429 . S
C44 C43 1.391 . S
H45 C48 0.931 . S
H46 C51 0.928 . S
H47 C53 0.930 . S
C48 H45 0.931 . S
C48 C49 1.413 . S
C48 C50 1.360 . S
C49 C48 1.413 . S
C49 C53 1.429 . S
C50 C48 1.360 . S
C50 C51 1.372 . S
C51 H46 0.928 . S
C51 C50 1.372 . S
C51 C52 1.404 . S
C52 C51 1.404 . S
C52 C53 1.391 . S
C53 H47 0.930 . S
C53 C49 1.429 . S
C53 C52 1.391 . S
H54 C57 0.931 . S
H55 C60 0.928 . S
H56 C62 0.930 . S
C57 H54 0.931 . S
C57 C58 1.413 . S
C57 C59 1.360 . S
C58 C57 1.413 . S
C58 C62 1.429 . S
C59 C57 1.360 . S
C59 C60 1.372 . S
C60 H55 0.928 . S
C60 C59 1.372 . S
C60 C61 1.404 . S
C61 C60 1.404 . S
C61 C62 1.391 . S
C62 H56 0.930 . S
C62 C58 1.429 . S
C62 C61 1.391 . S
H63 C66 0.931 . S
H64 C69 0.928 . S
H65 C71 0.930 . S
C66 H63 0.931 . S
C66 C67 1.413 . S
C66 C68 1.360 . S
C67 C66 1.413 . S
C67 C71 1.429 . S
C68 C66 1.360 . S
C68 C69 1.372 . S
C69 H64 0.928 . S
C69 C68 1.372 . S
C69 C70 1.404 . S
C70 C69 1.404 . S
C70 C71 1.391 . S
C71 H65 0.930 . S
C71 C67 1.429 . S
C71 C70 1.391 . S
Nd72 C74 2.836 1_445 S
Nd72 O92 2.500 1_445 S
Nd72 O93 2.492 1_545 S
Nd72 O94 2.487 . S
Nd72 O95 2.682 . S
Nd72 O96 2.410 1_545 S
Nd72 O101 2.414 1_455 S
Nd72 O103 2.424 . S
Nd73 C83 2.836 1_556 S
Nd73 O95 2.414 . S
Nd73 O97 2.424 1_545 S
Nd73 O98 2.500 . S
Nd73 O99 2.492 1_556 S
Nd73 O100 2.487 1_455 S
Nd73 O101 2.682 1_455 S
Nd73 O102 2.410 . S
C74 Nd72 2.836 1_665 S
C74 C75 1.498 . S
C74 O92 1.258 . S
C74 O93 1.239 1_655 S
C75 C74 1.498 . S
C75 C76 1.366 . S
C75 C80 1.407 1_655 S
C76 C75 1.366 . S
C76 C77 1.392 . S
C76 H104 0.930 . S
C77 C76 1.392 . S
C77 C78 1.398 . S
C77 H105 0.929 . S
C78 C77 1.398 . S
C78 C79 1.352 . S
C79 C78 1.352 . S
C79 C80 1.384 1_655 S
C79 H106 0.930 1_655 S
C80 C75 1.407 1_455 S
C80 C79 1.384 1_455 S
C80 H107 0.929 . S
C81 O94 1.241 . S
C81 O95 1.273 . S
C82 O96 1.251 . S
C82 O97 1.268 . S
C83 Nd73 2.836 1_554 S
C83 C84 1.498 . S
C83 O98 1.258 1_554 S
C83 O99 1.239 . S
C84 C83 1.498 . S
C84 C85 1.366 . S
C84 C89 1.407 . S
C85 C84 1.366 . S
C85 C86 1.392 . S
C85 H108 0.930 . S
C86 C85 1.392 . S
C86 C87 1.398 . S
C86 H109 0.929 . S
C87 C86 1.398 . S
C87 C88 1.352 . S
C88 C87 1.352 . S
C88 C89 1.384 . S
C88 H110 0.930 . S
C89 C84 1.407 . S
C89 C88 1.384 . S
C89 H111 0.929 . S
C90 O100 1.241 . S
C90 O101 1.273 . S
C91 O102 1.251 . S
C91 O103 1.268 . S
O92 Nd72 2.500 1_665 S
O92 C74 1.258 . S
O93 Nd72 2.492 1_565 S
O93 C74 1.239 1_455 S
O94 Nd72 2.487 . S
O94 C81 1.241 . S
O95 Nd72 2.682 . S
O95 Nd73 2.414 . S
O95 C81 1.273 . S
O96 Nd72 2.410 1_565 S
O96 C82 1.251 . S
O97 Nd73 2.424 1_565 S
O97 C82 1.268 . S
O98 Nd73 2.500 . S
O98 C83 1.258 1_556 S
O99 Nd73 2.492 1_554 S
O99 C83 1.239 . S
O100 Nd73 2.487 1_655 S
O100 C90 1.241 . S
O101 Nd72 2.414 1_655 S
O101 Nd73 2.682 1_655 S
O101 C90 1.273 . S
O102 Nd73 2.410 . S
O102 C91 1.251 . S
O103 Nd72 2.424 . S
O103 C91 1.268 . S
H104 C76 0.930 . S
H105 C77 0.929 . S
H106 C79 0.930 1_455 S
H107 C80 0.929 . S
H108 C85 0.930 . S
H109 C86 0.929 . S
H110 C88 0.930 . S
H111 C89 0.929 . S
Nd112 C114 2.836 1_545 S
Nd112 O132 2.500 1_545 S
Nd112 O133 2.492 . S
Nd112 O134 2.487 . S
Nd112 O135 2.682 . S
Nd112 O136 2.410 . S
Nd112 O141 2.413 1_545 S
Nd112 O143 2.424 . S
Nd113 C123 2.836 1_556 S
Nd113 O135 2.414 . S
Nd113 O137 2.424 . S
Nd113 O138 2.500 . S
Nd113 O139 2.492 1_556 S
Nd113 O140 2.487 1_546 S
Nd113 O141 2.667 1_545 S
Nd113 O142 2.410 . S
C114 Nd112 2.836 1_565 S
C114 C115 1.498 . S
C114 O132 1.258 . S
C114 O133 1.239 1_565 S
C115 C114 1.498 . S
C115 C116 1.366 . S
C115 C120 1.407 . S
C116 C115 1.366 . S
C116 C117 1.392 . S
C116 H144 0.930 . S
C117 C116 1.392 . S
C117 C118 1.398 . S
C117 H145 0.929 . S
C118 C117 1.398 . S
C118 C119 1.352 . S
C119 C118 1.352 . S
C119 C120 1.384 . S
C119 H146 0.930 . S
C120 C115 1.407 . S
C120 C119 1.384 . S
C120 H147 0.929 1_565 S
C121 O134 1.241 . S
C121 O135 1.273 . S
C122 O136 1.251 . S
C122 O137 1.268 . S
C123 Nd113 2.836 1_554 S
C123 C124 1.498 . S
C123 O138 1.258 1_554 S
C123 O139 1.239 . S
C124 C123 1.498 . S
C124 C125 1.366 . S
C124 C129 1.407 . S
C125 C124 1.366 . S
C125 C126 1.392 . S
C125 H148 0.930 1_554 S
C126 C125 1.392 . S
C126 C127 1.398 . S
C126 H149 0.929 . S
C127 C126 1.398 . S
C127 C128 1.352 . S
C128 C127 1.352 . S
C128 C129 1.384 . S
C128 H150 0.930 . S
C129 C124 1.407 . S
C129 C128 1.384 . S
C129 H151 0.929 . S
C130 O140 1.241 1_556 S
C130 O141 1.278 . S
C131 O142 1.251 . S
C131 O143 1.268 . S
O132 Nd112 2.500 1_565 S
O132 C114 1.258 . S
O133 Nd112 2.492 . S
O133 C114 1.239 1_545 S
O134 Nd112 2.487 . S
O134 C121 1.241 . S
O135 Nd112 2.682 . S
O135 Nd113 2.414 . S
O135 C121 1.273 . S
O136 Nd112 2.410 . S
O136 C122 1.251 . S
O137 Nd113 2.424 . S
O137 C122 1.268 . S
O138 Nd113 2.500 . S
O138 C123 1.258 1_556 S
O139 Nd113 2.492 1_554 S
O139 C123 1.239 . S
O140 Nd113 2.487 1_564 S
O140 C130 1.241 1_554 S
O141 Nd112 2.413 1_565 S
O141 Nd113 2.667 1_565 S
O141 C130 1.278 . S
O142 Nd113 2.410 . S
O142 C131 1.251 . S
O143 Nd112 2.424 . S
O143 C131 1.268 . S
H144 C116 0.930 . S
H145 C117 0.929 . S
H146 C119 0.930 . S
H147 C120 0.929 1_545 S
H148 C125 0.930 1_556 S
H149 C126 0.929 . S
H150 C128 0.930 . S
H151 C129 0.929 . S
Nd152 C154 2.836 . S
Nd152 O172 2.500 . S
Nd152 O173 2.500 . S
Nd152 O174 2.487 . S
Nd152 O175 2.682 . S
Nd152 O176 2.410 . S
Nd152 O181 2.414 . S
Nd152 O183 2.424 . S
Nd153 C163 2.836 . S
Nd153 O175 2.414 . S
Nd153 O177 2.424 . S
Nd153 O178 2.500 . S
Nd153 O179 2.492 . S
Nd153 O180 2.487 . S
Nd153 O181 2.682 . S
Nd153 O182 2.410 . S
C154 Nd152 2.836 . S
C154 C155 1.498 1_556 S
C154 O172 1.258 . S
C154 O173 1.240 . S
C155 C154 1.498 1_554 S
C155 C156 1.366 1_554 S
C155 C160 1.407 . S
C156 C155 1.366 1_556 S
C156 C157 1.395 . S
C156 H184 0.930 . S
C157 C156 1.395 . S
C157 C158 1.395 1_556 S
C157 H185 0.931 . S
C158 C157 1.395 1_554 S
C158 C159 1.352 . S
C159 C158 1.352 . S
C159 C160 1.384 . S
C159 H186 0.930 . S
C160 C155 1.407 . S
C160 C159 1.384 . S
C160 H187 0.929 . S
C161 O174 1.241 . S
C161 O175 1.273 . S
C162 O176 1.251 . S
C162 O177 1.268 . S
C163 Nd153 2.836 . S
C163 C164 1.498 . S
C163 O178 1.258 . S
C163 O179 1.239 . S
C164 C163 1.498 . S
C164 C165 1.366 . S
C164 C169 1.407 . S
C165 C164 1.366 . S
C165 C166 1.392 . S
C165 H188 0.930 . S
C166 C165 1.392 . S
C166 C167 1.398 . S
C166 H189 0.929 . S
C167 C166 1.398 . S
C167 C168 1.352 . S
C168 C167 1.352 . S
C168 C169 1.384 . S
C168 H190 0.930 . S
C169 C164 1.407 . S
C169 C168 1.384 . S
C169 H191 0.929 . S
C170 O180 1.241 . S
C170 O181 1.273 . S
C171 O182 1.251 . S
C171 O183 1.268 . S
O172 Nd152 2.500 . S
O172 C154 1.258 . S
O173 Nd152 2.500 . S
O173 C154 1.240 . S
O174 Nd152 2.487 . S
O174 C161 1.241 . S
O175 Nd152 2.682 . S
O175 Nd153 2.414 . S
O175 C161 1.273 . S
O176 Nd152 2.410 . S
O176 C162 1.251 . S
O177 Nd153 2.424 . S
O177 C162 1.268 . S
O178 Nd153 2.500 . S
O178 C163 1.258 . S
O179 Nd153 2.492 . S
O179 C163 1.239 . S
O180 Nd153 2.487 . S
O180 C170 1.241 . S
O181 Nd152 2.414 . S
O181 Nd153 2.682 . S
O181 C170 1.273 . S
O182 Nd153 2.410 . S
O182 C171 1.251 . S
O183 Nd152 2.424 . S
O183 C171 1.268 . S
H184 C156 0.930 . S
H185 C157 0.931 . S
H186 C159 0.930 . S
H187 C160 0.929 . S
H188 C165 0.930 . S
H189 C166 0.929 . S
H190 C168 0.930 . S
H191 C169 0.929 . S
Nd192 C194 2.836 1_455 S
Nd192 O212 2.500 1_455 S
Nd192 O213 2.492 1_455 S
Nd192 O214 2.487 . S
Nd192 O215 2.682 . S
Nd192 O216 2.410 1_455 S
Nd192 O221 2.414 . S
Nd192 O223 2.424 . S
Nd193 C203 2.836 1_556 S
Nd193 O215 2.414 . S
Nd193 O217 2.424 1_455 S
Nd193 O218 2.497 1_556 S
Nd193 O219 2.492 1_556 S
Nd193 O220 2.487 . S
Nd193 O221 2.682 . S
Nd193 O222 2.410 . S
C194 Nd192 2.836 1_655 S
C194 C195 1.498 . S
C194 O212 1.258 . S
C194 O213 1.239 . S
C195 C194 1.498 . S
C195 C196 1.366 . S
C195 C200 1.407 . S
C196 C195 1.366 . S
C196 C197 1.392 . S
C196 H224 0.930 . S
C197 C196 1.392 . S
C197 C198 1.398 . S
C197 H225 0.929 . S
C198 C197 1.398 . S
C198 C199 1.352 . S
C199 C198 1.352 . S
C199 C200 1.384 . S
C199 H226 0.930 . S
C200 C195 1.407 . S
C200 C199 1.384 . S
C200 H227 0.929 . S
C201 O214 1.241 . S
C201 O215 1.273 . S
C202 O216 1.251 . S
C202 O217 1.268 . S
C203 Nd193 2.836 1_554 S
C203 C204 1.498 . S
C203 O218 1.265 . S
C203 O219 1.239 . S
C204 C203 1.498 . S
C204 C205 1.366 . S
C204 C209 1.407 . S
C205 C204 1.366 . S
C205 C206 1.392 . S
C205 H228 0.930 . S
C206 C205 1.392 . S
C206 C207 1.398 . S
C206 H229 0.929 . S
C207 C206 1.398 . S
C207 C208 1.352 . S
C208 C207 1.352 . S
C208 C209 1.384 . S
C208 H230 0.930 . S
C209 C204 1.407 . S
C209 C208 1.384 . S
C209 H231 0.929 . S
C210 O220 1.241 . S
C210 O221 1.273 . S
C211 O222 1.251 . S
C211 O223 1.268 . S
O212 Nd192 2.500 1_655 S
O212 C194 1.258 . S
O213 Nd192 2.492 1_655 S
O213 C194 1.239 . S
O214 Nd192 2.487 . S
O214 C201 1.241 . S
O215 Nd192 2.682 . S
O215 Nd193 2.414 . S
O215 C201 1.273 . S
O216 Nd192 2.410 1_655 S
O216 C202 1.251 . S
O217 Nd193 2.424 1_655 S
O217 C202 1.268 . S
O218 Nd193 2.497 1_554 S
O218 C203 1.265 . S
O219 Nd193 2.492 1_554 S
O219 C203 1.239 . S
O220 Nd193 2.487 . S
O220 C210 1.241 . S
O221 Nd192 2.414 . S
O221 Nd193 2.682 . S
O221 C210 1.273 . S
O222 Nd193 2.410 . S
O222 C211 1.251 . S
O223 Nd192 2.424 . S
O223 C211 1.268 . S
H224 C196 0.930 . S
H225 C197 0.929 . S
H226 C199 0.930 . S
H227 C200 0.929 . S
H228 C205 0.930 . S
H229 C206 0.929 . S
H230 C208 0.930 . S
H231 C209 0.929 . S
H232 C244 0.930 . S
H233 C246 0.930 . S
H234 C247 0.930 . S
H235 C251 0.959 . S
H236 C251 0.959 . S
H237 C251 0.961 . S
H238 C252 0.960 . S
H239 C252 0.961 . S
H240 C252 0.959 . S
H241 C255 0.929 . S
H242 C256 0.931 . S
H243 C258 0.930 . S
C244 H232 0.930 . S
C244 C245 1.399 . S
C244 C249 1.399 . S
C245 C244 1.399 . S
C245 C246 1.376 . S
C246 H233 0.930 . S
C246 C245 1.376 . S
C246 C247 1.388 . S
C247 H234 0.930 . S
C247 C246 1.388 . S
C247 C248 1.390 . S
C248 C247 1.390 . S
C248 C249 1.394 . S
C248 C254 1.465 . S
C249 C244 1.399 . S
C249 C248 1.394 . S
C249 C250 1.516 . S
C250 C249 1.516 . S
C250 C251 1.502 . S
C250 C252 1.561 . S
C250 C253 1.526 . S
C251 H235 0.959 . S
C251 H236 0.959 . S
C251 H237 0.961 . S
C251 C250 1.502 . S
C252 H238 0.960 . S
C252 H239 0.961 . S
C252 H240 0.959 . S
C252 C250 1.561 . S
C253 C250 1.526 . S
C253 C254 1.396 . S
C253 C258 1.390 . S
C254 C248 1.465 . S
C254 C253 1.396 . S
C254 C255 1.399 . S
C255 H241 0.929 . S
C255 C254 1.399 . S
C255 C256 1.385 . S
C256 H242 0.931 . S
C256 C255 1.385 . S
C256 C257 1.389 . S
C257 C256 1.389 . S
C257 C258 1.387 . S
C258 H243 0.930 . S
C258 C253 1.390 . S
C258 C257 1.387 . S
H259 C271 0.930 . S
H260 C273 0.930 . S
H261 C274 0.930 . S
H262 C278 0.959 . S
H263 C278 0.959 . S
H264 C278 0.961 . S
H265 C279 0.960 . S
H266 C279 0.961 . S
H267 C279 0.959 . S
H268 C282 0.929 . S
H269 C283 0.931 . S
H270 C285 0.930 . S
C271 H259 0.930 . S
C271 C272 1.399 . S
C271 C276 1.399 . S
C272 C271 1.399 . S
C272 C273 1.376 . S
C273 H260 0.930 . S
C273 C272 1.376 . S
C273 C274 1.388 . S
C274 H261 0.930 . S
C274 C273 1.388 . S
C274 C275 1.390 . S
C275 C274 1.390 . S
C275 C276 1.394 . S
C275 C281 1.465 . S
C276 C271 1.399 . S
C276 C275 1.394 . S
C276 C277 1.516 . S
C277 C276 1.516 . S
C277 C278 1.502 . S
C277 C279 1.561 . S
C277 C280 1.526 . S
C278 H262 0.959 . S
C278 H263 0.959 . S
C278 H264 0.961 . S
C278 C277 1.502 . S
C279 H265 0.960 . S
C279 H266 0.961 . S
C279 H267 0.959 . S
C279 C277 1.561 . S
C280 C277 1.526 . S
C280 C281 1.396 . S
C280 C285 1.390 . S
C281 C275 1.465 . S
C281 C280 1.396 . S
C281 C282 1.399 . S
C282 H268 0.929 . S
C282 C281 1.399 . S
C282 C283 1.385 . S
C283 H269 0.931 . S
C283 C282 1.385 . S
C283 C284 1.389 . S
C284 C283 1.389 . S
C284 C285 1.387 . S
C285 H270 0.930 . S
C285 C280 1.390 . S
C285 C284 1.387 . S
H286 C298 0.930 . S
H287 C300 0.930 . S
H288 C301 0.930 . S
H289 C305 0.959 . S
H290 C305 0.959 . S
H291 C305 0.961 . S
H292 C306 0.960 . S
H293 C306 0.961 . S
H294 C306 0.959 . S
H295 C309 0.929 . S
H296 C310 0.931 . S
H297 C312 0.930 . S
C298 H286 0.930 . S
C298 C299 1.399 . S
C298 C303 1.399 . S
C299 C298 1.399 . S
C299 C300 1.376 . S
C300 H287 0.930 . S
C300 C299 1.376 . S
C300 C301 1.388 . S
C301 H288 0.930 . S
C301 C300 1.388 . S
C301 C302 1.390 . S
C302 C301 1.390 . S
C302 C303 1.394 . S
C302 C308 1.465 . S
C303 C298 1.399 . S
C303 C302 1.394 . S
C303 C304 1.516 . S
C304 C303 1.516 . S
C304 C305 1.502 . S
C304 C306 1.561 . S
C304 C307 1.526 . S
C305 H289 0.959 . S
C305 H290 0.959 . S
C305 H291 0.961 . S
C305 C304 1.502 . S
C306 H292 0.960 . S
C306 H293 0.961 . S
C306 H294 0.959 . S
C306 C304 1.561 . S
C307 C304 1.526 . S
C307 C308 1.396 . S
C307 C312 1.390 . S
C308 C302 1.465 . S
C308 C307 1.396 . S
C308 C309 1.399 . S
C309 H295 0.929 . S
C309 C308 1.399 . S
C309 C310 1.385 . S
C310 H296 0.931 . S
C310 C309 1.385 . S
C310 C311 1.389 . S
C311 C310 1.389 . S
C311 C312 1.387 . S
C312 H297 0.930 . S
C312 C307 1.390 . S
C312 C311 1.387 . S
H313 C325 0.930 . S
H314 C327 0.930 . S
H315 C328 0.930 . S
H316 C332 0.959 . S
H317 C332 0.959 . S
H318 C332 0.961 . S
H319 C333 0.960 . S
H320 C333 0.961 . S
H321 C333 0.959 . S
H322 C336 0.929 . S
H323 C337 0.931 . S
H324 C339 0.930 . S
C325 H313 0.930 . S
C325 C326 1.399 . S
C325 C330 1.399 . S
C326 C325 1.399 . S
C326 C327 1.376 . S
C327 H314 0.930 . S
C327 C326 1.376 . S
C327 C328 1.388 . S
C328 H315 0.930 . S
C328 C327 1.388 . S
C328 C329 1.390 . S
C329 C328 1.390 . S
C329 C330 1.394 . S
C329 C335 1.465 . S
C330 C325 1.399 . S
C330 C329 1.394 . S
C330 C331 1.516 . S
C331 C330 1.516 . S
C331 C332 1.502 . S
C331 C333 1.561 . S
C331 C334 1.526 . S
C332 H316 0.959 . S
C332 H317 0.959 . S
C332 H318 0.961 . S
C332 C331 1.502 . S
C333 H319 0.960 . S
C333 H320 0.961 . S
C333 H321 0.959 . S
C333 C331 1.561 . S
C334 C331 1.526 . S
C334 C335 1.396 . S
C334 C339 1.390 . S
C335 C329 1.465 . S
C335 C334 1.396 . S
C335 C336 1.399 . S
C336 H322 0.929 . S
C336 C335 1.399 . S
C336 C337 1.385 . S
C337 H323 0.931 . S
C337 C336 1.385 . S
C337 C338 1.389 . S
C338 C337 1.389 . S
C338 C339 1.387 . S
C339 H324 0.930 . S
C339 C334 1.390 . S
C339 C338 1.387 . S
H340 C352 0.930 . S
H341 C354 0.930 . S
H342 C355 0.930 . S
H343 C359 0.959 . S
H344 C359 0.959 . S
H345 C359 0.961 . S
H346 C360 0.960 . S
H347 C360 0.961 . S
H348 C360 0.959 . S
H349 C363 0.929 . S
H350 C364 0.931 . S
H351 C366 0.930 . S
C352 H340 0.930 . S
C352 C353 1.399 1_545 S
C352 C357 1.399 . S
C353 C352 1.399 1_565 S
C353 C354 1.376 . S
C354 H341 0.930 . S
C354 C353 1.376 . S
C354 C355 1.388 . S
C355 H342 0.930 . S
C355 C354 1.388 . S
C355 C356 1.390 . S
C356 C355 1.390 . S
C356 C357 1.394 1_565 S
C356 C362 1.465 . S
C357 C352 1.399 . S
C357 C356 1.394 1_545 S
C357 C358 1.516 . S
C358 C357 1.516 . S
C358 C359 1.502 . S
C358 C360 1.561 1_556 S
C358 C361 1.526 . S
C359 H343 0.959 . S
C359 H344 0.959 . S
C359 H345 0.961 . S
C359 C358 1.502 . S
C360 H346 0.960 . S
C360 H347 0.961 . S
C360 H348 0.959 . S
C360 C358 1.561 1_554 S
C361 C358 1.526 . S
C361 C362 1.396 1_545 S
C361 C366 1.390 . S
C362 C356 1.465 . S
C362 C361 1.396 1_565 S
C362 C363 1.399 . S
C363 H349 0.929 . S
C363 C362 1.399 . S
C363 C364 1.385 . S
C364 H350 0.931 . S
C364 C363 1.385 . S
C364 C365 1.389 1_565 S
C365 C364 1.389 1_545 S
C365 C366 1.387 . S
C366 H351 0.930 . S
C366 C361 1.390 . S
C366 C365 1.387 . S
H367 C379 0.930 . S
H368 C381 0.930 . S
H369 C382 0.930 . S
H370 C386 0.959 . S
H371 C386 0.959 . S
H372 C386 0.961 . S
H373 C387 0.960 . S
H374 C387 0.961 1_556 S
H375 C387 0.959 . S
H376 C390 0.929 . S
H377 C391 0.931 . S
H378 C393 0.930 1_556 S
C379 H367 0.930 . S
C379 C380 1.399 . S
C379 C384 1.399 . S
C380 C379 1.399 . S
C380 C381 1.376 . S
C381 H368 0.930 . S
C381 C380 1.376 . S
C381 C382 1.388 . S
C382 H369 0.930 . S
C382 C381 1.388 . S
C382 C383 1.390 . S
C383 C382 1.390 . S
C383 C384 1.394 . S
C383 C389 1.465 . S
C384 C379 1.399 . S
C384 C383 1.394 . S
C384 C385 1.516 . S
C385 C384 1.516 . S
C385 C386 1.502 . S
C385 C387 1.561 . S
C385 C388 1.526 . S
C386 H370 0.959 . S
C386 H371 0.959 . S
C386 H372 0.961 . S
C386 C385 1.502 . S
C387 H373 0.960 . S
C387 H374 0.961 1_554 S
C387 H375 0.959 . S
C387 C385 1.561 . S
C388 C385 1.526 . S
C388 C389 1.396 . S
C388 C393 1.390 . S
C389 C383 1.465 . S
C389 C388 1.396 . S
C389 C390 1.399 . S
C390 H376 0.929 . S
C390 C389 1.399 . S
C390 C391 1.385 . S
C391 H377 0.931 . S
C391 C390 1.385 . S
C391 C392 1.389 1_554 S
C392 C391 1.389 1_556 S
C392 C393 1.387 1_556 S
C393 H378 0.930 1_554 S
C393 C388 1.390 . S
C393 C392 1.387 1_554 S
H394 C406 0.930 . S
H395 C408 0.930 . S
H396 C409 0.930 . S
H397 C413 0.959 . S
H398 C413 0.959 . S
H399 C413 0.961 . S
H400 C414 0.960 . S
H401 C414 0.961 . S
H402 C414 0.959 . S
H403 C417 0.929 . S
H404 C418 0.931 . S
H405 C420 0.930 . S
C406 H394 0.930 . S
C406 C407 1.399 1_554 S
C406 C411 1.399 1_554 S
C407 C406 1.399 1_556 S
C407 C408 1.376 . S
C408 H395 0.930 . S
C408 C407 1.376 . S
C408 C409 1.388 . S
C409 H396 0.930 . S
C409 C408 1.388 . S
C409 C410 1.390 . S
C410 C409 1.390 . S
C410 C411 1.394 . S
C410 C416 1.465 . S
C411 C406 1.399 1_556 S
C411 C410 1.394 . S
C411 C412 1.516 1_556 S
C412 C411 1.516 1_554 S
C412 C413 1.502 . S
C412 C414 1.561 . S
C412 C415 1.526 1_554 S
C413 H397 0.959 . S
C413 H398 0.959 . S
C413 H399 0.961 . S
C413 C412 1.502 . S
C414 H400 0.960 . S
C414 H401 0.961 . S
C414 H402 0.959 . S
C414 C412 1.561 . S
C415 C412 1.526 1_556 S
C415 C416 1.396 . S
C415 C420 1.390 . S
C416 C410 1.465 . S
C416 C415 1.396 . S
C416 C417 1.399 . S
C417 H403 0.929 . S
C417 C416 1.399 . S
C417 C418 1.385 . S
C418 H404 0.931 . S
C418 C417 1.385 . S
C418 C419 1.389 . S
C419 C418 1.389 . S
C419 C420 1.387 . S
C420 H405 0.930 . S
C420 C415 1.390 . S
C420 C419 1.387 . S
H421 C433 0.930 . S
H422 C435 0.930 . S
H423 C436 0.930 . S
H424 C440 0.959 . S
H425 C440 0.959 . S
H426 C440 0.961 . S
H427 C441 0.960 . S
H428 C441 0.961 . S
H429 C441 0.959 . S
H430 C444 0.929 . S
H431 C445 0.931 . S
H432 C447 0.930 . S
C433 H421 0.930 . S
C433 C434 1.399 1_556 S
C433 C438 1.399 . S
C434 C433 1.399 1_554 S
C434 C435 1.376 . S
C435 H422 0.930 . S
C435 C434 1.376 . S
C435 C436 1.388 . S
C436 H423 0.930 . S
C436 C435 1.388 . S
C436 C437 1.390 1_554 S
C437 C436 1.390 1_556 S
C437 C438 1.394 . S
C437 C443 1.465 . S
C438 C433 1.399 . S
C438 C437 1.394 . S
C438 C439 1.516 . S
C439 C438 1.516 . S
C439 C440 1.502 . S
C439 C441 1.561 . S
C439 C442 1.526 . S
C440 H424 0.959 . S
C440 H425 0.959 . S
C440 H426 0.961 . S
C440 C439 1.502 . S
C441 H427 0.960 . S
C441 H428 0.961 . S
C441 H429 0.959 . S
C441 C439 1.561 . S
C442 C439 1.526 . S
C442 C443 1.396 . S
C442 C447 1.390 . S
C443 C437 1.465 . S
C443 C442 1.396 . S
C443 C444 1.399 1_655 S
C444 H430 0.929 . S
C444 C443 1.399 1_455 S
C444 C445 1.385 . S
C445 H431 0.931 . S
C445 C444 1.385 . S
C445 C446 1.389 1_455 S
C446 C445 1.389 1_655 S
C446 C447 1.387 . S
C447 H432 0.930 . S
C447 C442 1.390 . S
C447 C446 1.387 . S
H448 C460 0.930 . S
H449 C462 0.930 . S
H450 C463 0.930 . S
H451 C467 0.959 . S
H452 C467 0.959 . S
H453 C467 0.961 . S
H454 C468 0.960 . S
H455 C468 0.961 . S
H456 C468 0.959 . S
H457 C471 0.929 . S
H458 C472 0.931 . S
H459 C474 0.930 . S
C460 H448 0.930 . S
C460 C461 1.399 . S
C460 C465 1.399 . S
C461 C460 1.399 . S
C461 C462 1.376 . S
C462 H449 0.930 . S
C462 C461 1.376 . S
C462 C463 1.388 . S
C463 H450 0.930 . S
C463 C462 1.388 . S
C463 C464 1.390 . S
C464 C463 1.390 . S
C464 C465 1.394 . S
C464 C470 1.465 . S
C465 C460 1.399 . S
C465 C464 1.394 . S
C465 C466 1.516 . S
C466 C465 1.516 . S
C466 C467 1.502 . S
C466 C468 1.561 . S
C466 C469 1.526 . S
C467 H451 0.959 . S
C467 H452 0.959 . S
C467 H453 0.961 . S
C467 C466 1.502 . S
C468 H454 0.960 . S
C468 H455 0.961 . S
C468 H456 0.959 . S
C468 C466 1.561 . S
C469 C466 1.526 . S
C469 C470 1.396 . S
C469 C474 1.390 . S
C470 C464 1.465 . S
C470 C469 1.396 . S
C470 C471 1.399 . S
C471 H457 0.929 . S
C471 C470 1.399 . S
C471 C472 1.385 . S
C472 H458 0.931 . S
C472 C471 1.385 . S
C472 C473 1.389 . S
C473 C472 1.389 . S
C473 C474 1.387 . S
C474 H459 0.930 . S
C474 C469 1.390 . S
C474 C473 1.387 . S
H475 C487 0.930 . S
H476 C489 0.930 . S
H477 C490 0.930 . S
H478 C494 0.959 . S
H479 C494 0.959 . S
H480 C494 0.961 . S
H481 C495 0.960 . S
H482 C495 0.961 . S
H483 C495 0.959 . S
H484 C498 0.929 . S
H485 C499 0.931 . S
H486 C501 0.930 . S
C487 H475 0.930 . S
C487 C488 1.399 . S
C487 C492 1.399 . S
C488 C487 1.399 . S
C488 C489 1.376 . S
C489 H476 0.930 . S
C489 C488 1.376 . S
C489 C490 1.388 . S
C490 H477 0.930 . S
C490 C489 1.388 . S
C490 C491 1.390 . S
C491 C490 1.390 . S
C491 C492 1.394 . S
C491 C497 1.465 . S
C492 C487 1.399 . S
C492 C491 1.394 . S
C492 C493 1.516 . S
C493 C492 1.516 . S
C493 C494 1.502 . S
C493 C495 1.561 . S
C493 C496 1.526 . S
C494 H478 0.959 . S
C494 H479 0.959 . S
C494 H480 0.961 . S
C494 C493 1.502 . S
C495 H481 0.960 . S
C495 H482 0.961 . S
C495 H483 0.959 . S
C495 C493 1.561 . S
C496 C493 1.526 . S
C496 C497 1.396 . S
C496 C501 1.390 . S
C497 C491 1.465 . S
C497 C496 1.396 . S
C497 C498 1.399 . S
C498 H484 0.929 . S
C498 C497 1.399 . S
C498 C499 1.385 . S
C499 H485 0.931 . S
C499 C498 1.385 . S
C499 C500 1.389 . S
C500 C499 1.389 . S
C500 C501 1.387 . S
C501 H486 0.930 . S
C501 C496 1.390 . S
C501 C500 1.387 . S
H502 C514 0.930 . S
H503 C516 0.930 . S
H504 C517 0.930 . S
H505 C521 0.959 . S
H506 C521 0.959 . S
H507 C521 0.961 . S
H508 C522 0.960 . S
H509 C522 0.961 . S
H510 C522 0.959 . S
H511 C525 0.929 . S
H512 C526 0.931 . S
H513 C528 0.930 . S
C514 H502 0.930 . S
C514 C515 1.399 . S
C514 C519 1.399 . S
C515 C514 1.399 . S
C515 C516 1.376 . S
C516 H503 0.930 . S
C516 C515 1.376 . S
C516 C517 1.388 . S
C517 H504 0.930 . S
C517 C516 1.388 . S
C517 C518 1.390 . S
C518 C517 1.390 . S
C518 C519 1.394 . S
C518 C524 1.465 . S
C519 C514 1.399 . S
C519 C518 1.394 . S
C519 C520 1.516 . S
C520 C519 1.516 . S
C520 C521 1.502 . S
C520 C522 1.561 . S
C520 C523 1.526 . S
C521 H505 0.959 . S
C521 H506 0.959 . S
C521 H507 0.961 . S
C521 C520 1.502 . S
C522 H508 0.960 . S
C522 H509 0.961 . S
C522 H510 0.959 . S
C522 C520 1.561 . S
C523 C520 1.526 . S
C523 C524 1.396 . S
C523 C528 1.390 . S
C524 C518 1.465 . S
C524 C523 1.396 . S
C524 C525 1.399 . S
C525 H511 0.929 . S
C525 C524 1.399 . S
C525 C526 1.385 . S
C526 H512 0.931 . S
C526 C525 1.385 . S
C526 C527 1.389 . S
C527 C526 1.389 . S
C527 C528 1.387 . S
C528 H513 0.930 . S
C528 C523 1.390 . S
C528 C527 1.387 . S
H529 C541 0.930 . S
H530 C543 0.930 . S
H531 C544 0.930 . S
H532 C548 0.959 . S
H533 C548 0.959 . S
H534 C548 0.961 . S
H535 C549 0.960 . S
H536 C549 0.961 . S
H537 C549 0.959 . S
H538 C552 0.929 . S
H539 C553 0.931 . S
H540 C555 0.930 . S
C541 H529 0.930 . S
C541 C542 1.399 . S
C541 C546 1.399 . S
C542 C541 1.399 . S
C542 C543 1.376 . S
C543 H530 0.930 . S
C543 C542 1.376 . S
C543 C544 1.388 . S
C544 H531 0.930 . S
C544 C543 1.388 . S
C544 C545 1.390 . S
C545 C544 1.390 . S
C545 C546 1.394 . S
C545 C551 1.465 . S
C546 C541 1.399 . S
C546 C545 1.394 . S
C546 C547 1.516 . S
C547 C546 1.516 . S
C547 C548 1.502 . S
C547 C549 1.561 . S
C547 C550 1.526 . S
C548 H532 0.959 . S
C548 H533 0.959 . S
C548 H534 0.961 . S
C548 C547 1.502 . S
C549 H535 0.960 . S
C549 H536 0.961 . S
C549 H537 0.959 . S
C549 C547 1.561 . S
C550 C547 1.526 . S
C550 C551 1.396 . S
C550 C555 1.390 . S
C551 C545 1.465 . S
C551 C550 1.396 . S
C551 C552 1.399 . S
C552 H538 0.929 . S
C552 C551 1.399 . S
C552 C553 1.385 . S
C553 H539 0.931 . S
C553 C552 1.385 . S
C553 C554 1.389 . S
C554 C553 1.389 . S
C554 C555 1.387 . S
C555 H540 0.930 . S
C555 C550 1.390 . S
C555 C554 1.387 . S
H556 C568 0.930 . S
H557 C570 0.930 . S
H558 C571 0.930 . S
H559 C575 0.959 . S
H560 C575 0.959 . S
H561 C575 0.961 . S
H562 C576 0.960 . S
H563 C576 0.961 . S
H564 C576 0.959 . S
H565 C579 0.929 . S
H566 C580 0.932 1_554 S
H567 C582 0.930 . S
C568 H556 0.930 . S
C568 C569 1.399 . S
C568 C573 1.399 . S
C569 C568 1.399 . S
C569 C570 1.376 1_556 S
C570 H557 0.930 . S
C570 C569 1.376 1_554 S
C570 C571 1.388 . S
C571 H558 0.930 . S
C571 C570 1.388 . S
C571 C572 1.390 1_554 S
C572 C571 1.390 1_556 S
C572 C573 1.394 . S
C572 C578 1.465 . S
C573 C568 1.399 . S
C573 C572 1.394 . S
C573 C574 1.516 . S
C574 C573 1.516 . S
C574 C575 1.502 . S
C574 C576 1.561 . S
C574 C577 1.526 . S
C575 H559 0.959 . S
C575 H560 0.959 . S
C575 H561 0.961 . S
C575 C574 1.502 . S
C576 H562 0.960 . S
C576 H563 0.961 . S
C576 H564 0.959 . S
C576 C574 1.561 . S
C577 C574 1.526 . S
C577 C578 1.396 . S
C577 C582 1.390 . S
C578 C572 1.465 . S
C578 C577 1.396 . S
C578 C579 1.399 1_556 S
C579 H565 0.929 . S
C579 C578 1.399 1_554 S
C579 C580 1.385 1_554 S
C580 H566 0.932 1_556 S
C580 C579 1.385 1_556 S
C580 C581 1.381 1_655 S
C581 C580 1.381 1_455 S
C581 C582 1.381 1_455 S
C582 H567 0.930 . S
C582 C577 1.390 . S
C582 C581 1.381 1_655 S
H583 C595 0.930 1_545 S
H584 C597 0.930 . S
H585 C598 0.930 . S
H586 C602 0.959 . S
H587 C602 0.959 . S
H588 C602 0.961 . S
H589 C603 0.960 . S
H590 C603 0.961 . S
H591 C603 0.959 . S
H592 C606 0.929 1_565 S
H593 C607 0.931 . S
H594 C609 0.930 . S
C595 H583 0.930 1_565 S
C595 C596 1.399 . S
C595 C600 1.399 1_565 S
C596 C595 1.399 . S
C596 C597 1.376 . S
C597 H584 0.930 . S
C597 C596 1.376 . S
C597 C598 1.388 . S
C598 H585 0.930 . S
C598 C597 1.388 . S
C598 C599 1.390 . S
C599 C598 1.390 . S
C599 C600 1.394 1_565 S
C599 C605 1.465 1_565 S
C600 C595 1.399 1_545 S
C600 C599 1.394 1_545 S
C600 C601 1.516 . S
C601 C600 1.516 . S
C601 C602 1.502 1_556 S
C601 C603 1.561 . S
C601 C604 1.526 . S
C602 H586 0.959 . S
C602 H587 0.959 . S
C602 H588 0.961 . S
C602 C601 1.502 1_554 S
C603 H589 0.960 . S
C603 H590 0.961 . S
C603 H591 0.959 . S
C603 C601 1.561 . S
C604 C601 1.526 . S
C604 C605 1.396 . S
C604 C609 1.390 . S
C605 C599 1.465 1_545 S
C605 C604 1.396 . S
C605 C606 1.399 . S
C606 H592 0.929 1_545 S
C606 C605 1.399 . S
C606 C607 1.385 . S
C607 H593 0.931 . S
C607 C606 1.385 . S
C607 C608 1.389 . S
C608 C607 1.389 . S
C608 C609 1.387 . S
C609 H594 0.930 . S
C609 C604 1.390 . S
C609 C608 1.387 . S
H610 C622 0.930 . S
H611 C624 0.930 . S
H612 C625 0.930 . S
H613 C629 0.959 . S
H614 C629 0.959 . S
H615 C629 0.961 . S
H616 C630 0.960 . S
H617 C630 0.961 . S
H618 C630 0.959 . S
H619 C633 0.929 . S
H620 C634 0.931 1_556 S
H621 C636 0.930 . S
C622 H610 0.930 . S
C622 C623 1.399 . S
C622 C627 1.399 . S
C623 C622 1.399 . S
C623 C624 1.376 . S
C624 H611 0.930 . S
C624 C623 1.376 . S
C624 C625 1.388 . S
C625 H612 0.930 . S
C625 C624 1.388 . S
C625 C626 1.390 . S
C626 C625 1.390 . S
C626 C627 1.394 . S
C626 C632 1.465 . S
C627 C622 1.399 . S
C627 C626 1.394 . S
C627 C628 1.516 . S
C628 C627 1.516 . S
C628 C629 1.502 . S
C628 C630 1.561 . S
C628 C631 1.526 . S
C629 H613 0.959 . S
C629 H614 0.959 . S
C629 H615 0.961 . S
C629 C628 1.502 . S
C630 H616 0.960 . S
C630 H617 0.961 . S
C630 H618 0.959 . S
C630 C628 1.561 . S
C631 C628 1.526 . S
C631 C632 1.396 . S
C631 C636 1.390 . S
C632 C626 1.465 . S
C632 C631 1.396 . S
C632 C633 1.399 . S
C633 H619 0.929 . S
C633 C632 1.399 . S
C633 C634 1.385 . S
C634 H620 0.931 1_554 S
C634 C633 1.385 . S
C634 C635 1.389 . S
C635 C634 1.389 . S
C635 C636 1.387 . S
C636 H621 0.930 . S
C636 C631 1.390 . S
C636 C635 1.387 . S
H637 C649 0.930 . S
H638 C651 0.930 . S
H639 C652 0.930 . S
H640 C656 0.959 . S
H641 C656 0.959 . S
H642 C656 0.961 . S
H643 C657 0.960 . S
H644 C657 0.961 . S
H645 C657 0.959 . S
H646 C660 0.929 . S
H647 C661 0.931 . S
H648 C663 0.930 . S
C649 H637 0.930 . S
C649 C650 1.399 . S
C649 C654 1.399 . S
C650 C649 1.399 . S
C650 C651 1.376 . S
C651 H638 0.930 . S
C651 C650 1.376 . S
C651 C652 1.388 . S
C652 H639 0.930 . S
C652 C651 1.388 . S
C652 C653 1.390 . S
C653 C652 1.390 . S
C653 C654 1.394 . S
C653 C659 1.465 . S
C654 C649 1.399 . S
C654 C653 1.394 . S
C654 C655 1.516 . S
C655 C654 1.516 . S
C655 C656 1.502 . S
C655 C657 1.561 . S
C655 C658 1.526 . S
C656 H640 0.959 . S
C656 H641 0.959 . S
C656 H642 0.961 . S
C656 C655 1.502 . S
C657 H643 0.960 . S
C657 H644 0.961 . S
C657 H645 0.959 . S
C657 C655 1.561 . S
C658 C655 1.526 . S
C658 C659 1.396 . S
C658 C663 1.390 . S
C659 C653 1.465 . S
C659 C658 1.396 . S
C659 C660 1.399 . S
C660 H646 0.929 . S
C660 C659 1.399 . S
C660 C661 1.385 . S
C661 H647 0.931 . S
C661 C660 1.385 . S
C661 C662 1.389 . S
C662 C661 1.389 . S
C662 C663 1.387 . S
C663 H648 0.930 . S
C663 C658 1.390 . S
C663 C662 1.387 . S
H664 C676 0.930 . S
H665 C678 0.930 . S
H666 C679 0.930 . S
H667 C683 0.959 . S
H668 C683 0.959 . S
H669 C683 0.961 . S
H670 C684 0.960 . S
H671 C684 0.961 . S
H672 C684 0.959 . S
H673 C687 0.929 . S
H674 C688 0.931 . S
H675 C690 0.930 . S
C676 H664 0.930 . S
C676 C677 1.399 . S
C676 C681 1.399 . S
C677 C676 1.399 . S
C677 C678 1.376 . S
C678 H665 0.930 . S
C678 C677 1.376 . S
C678 C679 1.388 . S
C679 H666 0.930 . S
C679 C678 1.388 . S
C679 C680 1.390 . S
C680 C679 1.390 . S
C680 C681 1.394 . S
C680 C686 1.465 . S
C681 C676 1.399 . S
C681 C680 1.394 . S
C681 C682 1.516 . S
C682 C681 1.516 . S
C682 C683 1.502 . S
C682 C684 1.561 . S
C682 C685 1.526 . S
C683 H667 0.959 . S
C683 H668 0.959 . S
C683 H669 0.961 . S
C683 C682 1.502 . S
C684 H670 0.960 . S
C684 H671 0.961 . S
C684 H672 0.959 . S
C684 C682 1.561 . S
C685 C682 1.526 . S
C685 C686 1.396 . S
C685 C690 1.390 . S
C686 C680 1.465 . S
C686 C685 1.396 . S
C686 C687 1.399 . S
C687 H673 0.929 . S
C687 C686 1.399 . S
C687 C688 1.385 . S
C688 H674 0.931 . S
C688 C687 1.385 . S
C688 C689 1.389 . S
C689 C688 1.389 . S
C689 C690 1.387 . S
C690 H675 0.930 . S
C690 C685 1.390 . S
C690 C689 1.387 . S
H691 C703 0.930 . S
H692 C705 0.930 . S
H693 C706 0.930 . S
H694 C710 0.959 . S
H695 C710 0.959 . S
H696 C710 0.961 . S
H697 C711 0.960 . S
H698 C711 0.961 . S
H699 C711 0.959 . S
H700 C714 0.929 . S
H701 C715 0.931 . S
H702 C717 0.930 . S
C703 H691 0.930 . S
C703 C704 1.399 . S
C703 C708 1.399 . S
C704 C703 1.399 . S
C704 C705 1.376 . S
C705 H692 0.930 . S
C705 C704 1.376 . S
C705 C706 1.388 . S
C706 H693 0.930 . S
C706 C705 1.388 . S
C706 C707 1.390 . S
C707 C706 1.390 . S
C707 C708 1.394 . S
C707 C713 1.465 . S
C708 C703 1.399 . S
C708 C707 1.394 . S
C708 C709 1.516 . S
C709 C708 1.516 . S
C709 C710 1.502 . S
C709 C711 1.561 . S
C709 C712 1.526 . S
C710 H694 0.959 . S
C710 H695 0.959 . S
C710 H696 0.961 . S
C710 C709 1.502 . S
C711 H697 0.960 . S
C711 H698 0.961 . S
C711 H699 0.959 . S
C711 C709 1.561 . S
C712 C709 1.526 . S
C712 C713 1.396 . S
C712 C717 1.390 . S
C713 C707 1.465 . S
C713 C712 1.396 . S
C713 C714 1.399 . S
C714 H700 0.929 . S
C714 C713 1.399 . S
C714 C715 1.385 . S
C715 H701 0.931 . S
C715 C714 1.385 . S
C715 C716 1.389 . S
C716 C715 1.389 . S
C716 C717 1.387 . S
C717 H702 0.930 . S
C717 C712 1.390 . S
C717 C716 1.387 . S
H718 C730 0.930 . S
H719 C732 0.930 . S
H720 C733 0.930 . S
H721 C737 0.959 . S
H722 C737 0.959 . S
H723 C737 0.961 . S
H724 C738 0.960 . S
H725 C738 0.961 . S
H726 C738 0.959 . S
H727 C741 0.929 . S
H728 C742 0.931 . S
H729 C744 0.930 . S
C730 H718 0.930 . S
C730 C731 1.399 . S
C730 C735 1.399 . S
C731 C730 1.399 . S
C731 C732 1.376 . S
C732 H719 0.930 . S
C732 C731 1.376 . S
C732 C733 1.388 . S
C733 H720 0.930 . S
C733 C732 1.388 . S
C733 C734 1.390 . S
C734 C733 1.390 . S
C734 C735 1.394 . S
C734 C740 1.465 . S
C735 C730 1.399 . S
C735 C734 1.394 . S
C735 C736 1.516 1_554 S
C736 C735 1.516 1_556 S
C736 C737 1.502 . S
C736 C738 1.561 . S
C736 C739 1.526 . S
C737 H721 0.959 . S
C737 H722 0.959 . S
C737 H723 0.961 . S
C737 C736 1.502 . S
C738 H724 0.960 . S
C738 H725 0.961 . S
C738 H726 0.959 . S
C738 C736 1.561 . S
C739 C736 1.526 . S
C739 C740 1.396 1_556 S
C739 C744 1.390 . S
C740 C734 1.465 . S
C740 C739 1.396 1_554 S
C740 C741 1.399 . S
C741 H727 0.929 . S
C741 C740 1.399 . S
C741 C742 1.385 . S
C742 H728 0.931 . S
C742 C741 1.385 . S
C742 C743 1.389 1_554 S
C743 C742 1.389 1_556 S
C743 C744 1.387 . S
C744 H729 0.930 . S
C744 C739 1.390 . S
C744 C743 1.387 . S
H745 C757 0.930 . S
H746 C759 0.930 . S
H747 C760 0.930 . S
H748 C764 0.959 . S
H749 C764 0.959 . S
H750 C764 0.961 . S
H751 C765 0.960 . S
H752 C765 0.961 . S
H753 C765 0.959 . S
H754 C768 0.929 . S
H755 C769 0.931 . S
H756 C771 0.930 . S
C757 H745 0.930 . S
C757 C758 1.399 . S
C757 C762 1.399 . S
C758 C757 1.399 . S
C758 C759 1.376 . S
C759 H746 0.930 . S
C759 C758 1.376 . S
C759 C760 1.388 . S
C760 H747 0.930 . S
C760 C759 1.388 . S
C760 C761 1.390 . S
C761 C760 1.390 . S
C761 C762 1.394 . S
C761 C767 1.465 . S
C762 C757 1.399 . S
C762 C761 1.394 . S
C762 C763 1.516 . S
C763 C762 1.516 . S
C763 C764 1.502 . S
C763 C765 1.561 . S
C763 C766 1.526 . S
C764 H748 0.959 . S
C764 H749 0.959 . S
C764 H750 0.961 . S
C764 C763 1.502 . S
C765 H751 0.960 . S
C765 H752 0.961 . S
C765 H753 0.959 . S
C765 C763 1.561 . S
C766 C763 1.526 . S
C766 C767 1.396 . S
C766 C771 1.390 . S
C767 C761 1.465 . S
C767 C766 1.396 . S
C767 C768 1.399 . S
C768 H754 0.929 . S
C768 C767 1.399 . S
C768 C769 1.385 . S
C769 H755 0.931 . S
C769 C768 1.385 . S
C769 C770 1.389 . S
C770 C769 1.389 . S
C770 C771 1.387 . S
C771 H756 0.930 . S
C771 C766 1.390 . S
C771 C770 1.387 . S
H772 C784 0.930 . S
H773 C786 0.930 . S
H774 C787 0.930 . S
H775 C791 0.959 . S
H776 C791 0.959 . S
H777 C791 0.961 . S
H778 C792 0.960 . S
H779 C792 0.961 . S
H780 C792 0.959 . S
H781 C795 0.913 1_455 S
H782 C796 0.931 1_455 S
H783 C798 0.930 . S
C784 H772 0.930 . S
C784 C785 1.399 . S
C784 C789 1.399 . S
C785 C784 1.399 . S
C785 C786 1.376 . S
C786 H773 0.930 . S
C786 C785 1.376 . S
C786 C787 1.388 . S
C787 H774 0.930 . S
C787 C786 1.388 . S
C787 C788 1.390 . S
C788 C787 1.390 . S
C788 C789 1.394 . S
C788 C794 1.465 . S
C789 C784 1.399 . S
C789 C788 1.394 . S
C789 C790 1.516 . S
C790 C789 1.516 . S
C790 C791 1.502 . S
C790 C792 1.561 . S
C790 C793 1.526 . S
C791 H775 0.959 . S
C791 H776 0.959 . S
C791 H777 0.961 . S
C791 C790 1.502 . S
C792 H778 0.960 . S
C792 H779 0.961 . S
C792 H780 0.959 . S
C792 C790 1.561 . S
C793 C790 1.526 . S
C793 C794 1.396 . S
C793 C798 1.390 . S
C794 C788 1.465 . S
C794 C793 1.396 . S
C794 C795 1.399 . S
C795 H781 0.913 1_655 S
C795 C794 1.399 . S
C795 C796 1.385 . S
C796 H782 0.931 1_655 S
C796 C795 1.385 . S
C796 C797 1.389 . S
C797 C796 1.389 . S
C797 C798 1.387 . S
C798 H783 0.930 . S
C798 C793 1.390 . S
C798 C797 1.387 . S
H799 C811 0.930 1_545 S
H800 C813 0.930 . S
H801 C814 0.930 . S
H802 C818 0.959 . S
H803 C818 0.959 . S
H804 C818 0.961 . S
H805 C819 0.960 . S
H806 C819 0.961 . S
H807 C819 0.959 1_565 S
H808 C822 0.929 . S
H809 C823 0.931 . S
H810 C825 0.930 1_545 S
C811 H799 0.930 1_565 S
C811 C812 1.399 . S
C811 C816 1.399 . S
C812 C811 1.399 . S
C812 C813 1.376 . S
C813 H800 0.930 . S
C813 C812 1.376 . S
C813 C814 1.388 . S
C814 H801 0.930 . S
C814 C813 1.388 . S
C814 C815 1.390 . S
C815 C814 1.390 . S
C815 C816 1.394 . S
C815 C821 1.465 . S
C816 C811 1.399 . S
C816 C815 1.394 . S
C816 C817 1.516 1_565 S
C817 C816 1.516 1_545 S
C817 C818 1.502 . S
C817 C819 1.561 . S
C817 C820 1.526 1_545 S
C818 H802 0.959 . S
C818 H803 0.959 . S
C818 H804 0.961 . S
C818 C817 1.502 . S
C819 H805 0.960 . S
C819 H806 0.961 . S
C819 H807 0.959 1_545 S
C819 C817 1.561 . S
C820 C817 1.526 1_565 S
C820 C821 1.396 . S
C820 C825 1.390 . S
C821 C815 1.465 . S
C821 C820 1.396 . S
C821 C822 1.399 . S
C822 H808 0.929 . S
C822 C821 1.399 . S
C822 C823 1.385 . S
C823 H809 0.931 . S
C823 C822 1.385 . S
C823 C824 1.389 . S
C824 C823 1.389 . S
C824 C825 1.387 . S
C825 H810 0.930 1_565 S
C825 C820 1.390 . S
C825 C824 1.387 . S
H826 C838 0.930 . S
H827 C840 0.930 . S
H828 C841 0.930 . S
H829 C845 0.959 . S
H830 C845 0.959 . S
H831 C845 0.961 . S
H832 C846 0.960 . S
H833 C846 0.961 . S
H834 C846 0.959 . S
H835 C849 0.929 . S
H836 C850 0.931 . S
H837 C852 0.930 . S
C838 H826 0.930 . S
C838 C839 1.399 . S
C838 C843 1.399 . S
C839 C838 1.399 . S
C839 C840 1.376 . S
C840 H827 0.930 . S
C840 C839 1.376 . S
C840 C841 1.388 . S
C841 H828 0.930 . S
C841 C840 1.388 . S
C841 C842 1.390 . S
C842 C841 1.390 . S
C842 C843 1.394 . S
C842 C848 1.465 . S
C843 C838 1.399 . S
C843 C842 1.394 . S
C843 C844 1.516 . S
C844 C843 1.516 . S
C844 C845 1.502 . S
C844 C846 1.561 . S
C844 C847 1.526 . S
C845 H829 0.959 . S
C845 H830 0.959 . S
C845 H831 0.961 . S
C845 C844 1.502 . S
C846 H832 0.960 . S
C846 H833 0.961 . S
C846 H834 0.959 . S
C846 C844 1.561 . S
C847 C844 1.526 . S
C847 C848 1.396 . S
C847 C852 1.390 . S
C848 C842 1.465 . S
C848 C847 1.396 . S
C848 C849 1.399 . S
C849 H835 0.929 . S
C849 C848 1.399 . S
C849 C850 1.385 . S
C850 H836 0.931 . S
C850 C849 1.385 . S
C850 C851 1.389 . S
C851 C850 1.389 . S
C851 C852 1.387 . S
C852 H837 0.930 . S
C852 C847 1.390 . S
C852 C851 1.387 . S
H853 C865 0.930 . S
H854 C867 0.930 . S
H855 C868 0.930 . S
H856 C872 0.959 . S
H857 C872 0.959 . S
H858 C872 0.961 . S
H859 C873 0.960 . S
H860 C873 0.961 . S
H861 C873 0.959 . S
H862 C876 0.929 . S
H863 C877 0.931 . S
H864 C879 0.930 . S
C865 H853 0.930 . S
C865 C866 1.399 . S
C865 C870 1.399 . S
C866 C865 1.399 . S
C866 C867 1.376 . S
C867 H854 0.930 . S
C867 C866 1.376 . S
C867 C868 1.388 . S
C868 H855 0.930 . S
C868 C867 1.388 . S
C868 C869 1.390 . S
C869 C868 1.390 . S
C869 C870 1.394 . S
C869 C875 1.465 . S
C870 C865 1.399 . S
C870 C869 1.394 . S
C870 C871 1.516 . S
C871 C870 1.516 . S
C871 C872 1.502 . S
C871 C873 1.561 . S
C871 C874 1.526 . S
C872 H856 0.959 . S
C872 H857 0.959 . S
C872 H858 0.961 . S
C872 C871 1.502 . S
C873 H859 0.960 . S
C873 H860 0.961 . S
C873 H861 0.959 . S
C873 C871 1.561 . S
C874 C871 1.526 . S
C874 C875 1.396 . S
C874 C879 1.390 . S
C875 C869 1.465 . S
C875 C874 1.396 . S
C875 C876 1.399 . S
C876 H862 0.929 . S
C876 C875 1.399 . S
C876 C877 1.385 . S
C877 H863 0.931 . S
C877 C876 1.385 . S
C877 C878 1.389 . S
C878 C877 1.389 . S
C878 C879 1.387 . S
C879 H864 0.930 . S
C879 C874 1.390 . S
C879 C878 1.387 . S
C245 C61 1.258 . S
C257 C81 1.184 . S
C284 C121 1.508 . S
C272 C70 1.435 . S
C311 C170 1.325 . S
C299 C43 1.332 . S
C338 C201 1.677 . S
C326 C52 1.791 . S
C365 C90 1.235 . S
C353 C25 1.286 . S
C380 C34 1.454 . S
C392 C130 1.452 . S
C407 C7 1.280 1_556 S
C419 C161 1.314 . S
C434 C16 1.745 . S
C446 C210 1.700 1_655 S
C473 C91 0.785 . S
C461 C50 0.663 . S
C500 C131 0.881 . S
C488 C59 0.944 . S
C527 C167 0.688 . S
C515 C67 0.628 . S
C542 C41 0.905 . S
C554 C211 1.014 . S
C569 C14 0.731 . S
C581 C82 0.785 . S
C608 C122 0.881 . S
C596 C23 0.944 . S
C635 C158 0.698 . S
C623 C31 0.695 . S
C650 C5 0.941 . S
C662 C202 1.020 . S
C677 C49 1.727 . S
C689 C87 1.761 . S
C704 C58 1.637 . S
C716 C127 1.624 . S
C743 C171 2.046 . S
C731 C68 1.852 . S
C770 C207 1.446 . S
C758 C40 1.478 . S
C785 C13 1.722 . S
C797 C78 1.750 . S
C824 C118 1.621 . S
C812 C22 1.612 . S
C851 C162 2.055 . S
C839 C32 1.914 . S
C866 C4 1.484 . S
C878 C198 1.490 . S
