# Generated by pormake.
# Topology zzz, (3,6)-cn, num edge types: 1
# Building blocks:
#     Node 0, Type 0, BuildingBlock: ESEHIV_clean_linker_0, # of connection points: 3
#     Node 1, Type 0, BuildingBlock: ESEHIV_clean_linker_0, # of connection points: 3
#     Node 2, Type 0, BuildingBlock: ESEHIV_clean_linker_0, # of connection points: 3
#     Node 3, Type 0, BuildingBlock: ESEHIV_clean_linker_0, # of connection points: 3
#     Node 4, Type 0, BuildingBlock: ESEHIV_clean_linker_0, # of connection points: 3
#     Node 5, Type 0, BuildingBlock: ESEHIV_clean_linker_0, # of connection points: 3
#     Node 6, Type 0, BuildingBlock: ESEHIV_clean_linker_0, # of connection points: 3
#     Node 7, Type 0, BuildingBlock: ESEHIV_clean_linker_0, # of connection points: 3
#     Node 8, Type 1, BuildingBlock: CUWYAW_clean_sbu_0, # of connection points: 6
#     Node 9, Type 1, BuildingBlock: CUWYAW_clean_sbu_0, # of connection points: 6
#     Node 10, Type 1, BuildingBlock: CUWYAW_clean_sbu_0, # of connection points: 6
#     Node 11, Type 1, BuildingBlock: CUWYAW_clean_sbu_0, # of connection points: 6
#     Edge 12, Type (0, 1), BuildingBlock: XIVTED_clean_linker_0, # of connection points: 2
#     Edge 13, Type (0, 1), BuildingBlock: XIVTED_clean_linker_0, # of connection points: 2
#     Edge 14, Type (0, 1), BuildingBlock: XIVTED_clean_linker_0, # of connection points: 2
#     Edge 15, Type (0, 1), BuildingBlock: XIVTED_clean_linker_0, # of connection points: 2
#     Edge 16, Type (0, 1), BuildingBlock: XIVTED_clean_linker_0, # of connection points: 2
#     Edge 17, Type (0, 1), BuildingBlock: XIVTED_clean_linker_0, # of connection points: 2
#     Edge 18, Type (0, 1), BuildingBlock: XIVTED_clean_linker_0, # of connection points: 2
#     Edge 19, Type (0, 1), BuildingBlock: XIVTED_clean_linker_0, # of connection points: 2
#     Edge 20, Type (0, 1), BuildingBlock: XIVTED_clean_linker_0, # of connection points: 2
#     Edge 21, Type (0, 1), BuildingBlock: XIVTED_clean_linker_0, # of connection points: 2
#     Edge 22, Type (0, 1), BuildingBlock: XIVTED_clean_linker_0, # of connection points: 2
#     Edge 23, Type (0, 1), BuildingBlock: XIVTED_clean_linker_0, # of connection points: 2
#     Edge 24, Type (0, 1), BuildingBlock: XIVTED_clean_linker_0, # of connection points: 2
#     Edge 25, Type (0, 1), BuildingBlock: XIVTED_clean_linker_0, # of connection points: 2
#     Edge 26, Type (0, 1), BuildingBlock: XIVTED_clean_linker_0, # of connection points: 2
#     Edge 27, Type (0, 1), BuildingBlock: XIVTED_clean_linker_0, # of connection points: 2
#     Edge 28, Type (0, 1), BuildingBlock: XIVTED_clean_linker_0, # of connection points: 2
#     Edge 29, Type (0, 1), BuildingBlock: XIVTED_clean_linker_0, # of connection points: 2
#     Edge 30, Type (0, 1), BuildingBlock: XIVTED_clean_linker_0, # of connection points: 2
#     Edge 31, Type (0, 1), BuildingBlock: XIVTED_clean_linker_0, # of connection points: 2
#     Edge 32, Type (0, 1), BuildingBlock: XIVTED_clean_linker_0, # of connection points: 2
#     Edge 33, Type (0, 1), BuildingBlock: XIVTED_clean_linker_0, # of connection points: 2
#     Edge 34, Type (0, 1), BuildingBlock: XIVTED_clean_linker_0, # of connection points: 2
#     Edge 35, Type (0, 1), BuildingBlock: XIVTED_clean_linker_0, # of connection points: 2
# Relax obj value: 0.489
# Max RMSD: 0.243
# Mean RMSD: 0.232
data_MOF--net-zzz--node1-CUWYAW_clean_sbu_0--node2-ESEHIV_clean_linker_0--edge1-XIVTED_clean_linker_0
_symmetry_space_group_name_H-M    P1
_symmetry_Int_Tables_number       1
_symmetry_cell_setting            triclinic
loop_
_symmetry_equiv_pos_as_xyz
'x, y, z'
_cell_length_a     45.352934
_cell_length_b     45.401719
_cell_length_c     14.936974
_cell_angle_alpha  89.670875
_cell_angle_beta   89.750206
_cell_angle_gamma 90.092077
loop_
_atom_site_label
_atom_site_type_symbol
_atom_site_fract_x
_atom_site_fract_y
_atom_site_fract_z
_atom_type_partial_charge
H0 H 0.78731 0.44366 0.33796 0.0
H1 H 0.70742 0.44178 0.18542 0.0
H2 H 0.7249 0.51441 0.36293 0.0
C3 C 0.76595 0.45298 0.3219 0.0
C4 C 0.75785 0.47974 0.36113 0.0
C5 C 0.74821 0.43943 0.25744 0.0
C6 C 0.72108 0.45218 0.23562 0.0
C7 C 0.71221 0.47914 0.27283 0.0
C8 C 0.73104 0.49331 0.33512 0.0
H9 H 0.07723 0.7834 0.36405 0.0
H10 H 0.07968 0.70596 0.20091 0.0
H11 H 1.00281 0.72468 0.36221 0.0
C12 C 0.06747 0.76276 0.34301 0.0
C13 C 0.03921 0.75554 0.37442 0.0
C14 C 0.08194 0.7455 0.27896 0.0
C15 C 0.06855 0.71938 0.25043 0.0
C16 C 0.04011 0.71139 0.27979 0.0
C17 C 0.02503 0.73004 0.34082 0.0
H18 H 0.73817 0.07933 0.38163 0.0
H19 H 0.81655 0.08093 0.2196 0.0
H20 H 0.79654 1.00496 0.3841 0.0
C21 C 0.75894 0.06955 0.36146 0.0
C22 C 0.76593 0.04149 0.39447 0.0
C23 C 0.77652 0.08366 0.2967 0.0
C24 C 0.8028 0.07013 0.26951 0.0
C25 C 0.81045 0.0418 0.30024 0.0
C26 C 0.79146 0.0271 0.36176 0.0
H27 H 0.43957 0.73599 0.37464 0.0
H28 H 0.51329 0.79545 0.37621 0.0
H29 H 0.43692 0.8149 0.2152 0.0
C30 C 0.44905 0.75703 0.35516 0.0
C31 C 0.43472 0.77459 0.29131 0.0
C32 C 0.4771 0.76431 0.38718 0.0
C33 C 0.49109 0.7902 0.35505 0.0
C34 C 0.47606 0.80922 0.29503 0.0
C35 C 0.44783 0.80124 0.26474 0.0
H36 H 0.23682 0.57941 0.11213 0.0
H37 H 0.31531 0.57843 0.27126 0.0
H38 H 0.29592 0.50563 0.09638 0.0
C39 C 0.25766 0.56932 0.12997 0.0
C40 C 0.26484 0.542 0.09251 0.0
C41 C 0.27524 0.58223 0.19604 0.0
C42 C 0.30164 0.56846 0.22026 0.0
C43 C 0.30956 0.54092 0.18508 0.0
C44 C 0.29061 0.52724 0.12216 0.0
H45 H 0.94368 0.23278 0.13633 0.0
H46 H 0.94361 0.31438 0.28038 0.0
H47 H 0.01567 0.29349 0.10252 0.0
C48 C 0.95327 0.25417 0.1498 0.0
C49 C 0.97998 0.26154 0.10767 0.0
C50 C 0.94033 0.27259 0.21407 0.0
C51 C 0.95361 0.29982 0.23169 0.0
C52 C 0.98082 0.30766 0.19293 0.0
C53 C 0.9944 0.28808 0.13154 0.0
H54 H 0.2835 0.94296 0.10679 0.0
H55 H 0.2059 0.93892 0.27127 0.0
H56 H 0.22408 0.01659 0.11189 0.0
C57 C 0.26264 0.95236 0.12797 0.0
C58 C 0.25535 0.98073 0.09833 0.0
C59 C 0.24541 0.93747 0.19177 0.0
C60 C 0.21908 0.95033 0.22116 0.0
C61 C 0.21074 0.97867 0.19222 0.0
C62 C 0.22951 0.99431 0.13213 0.0
H63 H 0.57803 0.28476 0.11503 0.0
H64 H 0.50452 0.22498 0.11289 0.0
H65 H 0.58031 0.20657 0.27755 0.0
C66 C 0.56849 0.26383 0.13518 0.0
C67 C 0.58263 0.24656 0.20014 0.0
C68 C 0.54061 0.25628 0.10225 0.0
C69 C 0.52654 0.23049 0.13509 0.0
C70 C 0.54136 0.21183 0.19664 0.0
C71 C 0.56946 0.22003 0.22741 0.0
C72 C 0.94904 0.03404 0.5631 0.0
Eu73 Eu 0.98554 0.01413 0.68348 0.0
C74 C 0.92824 0.05849 0.55398 0.0
C75 C 0.91959 0.07506 0.62854 0.0
C76 C 0.90265 0.1005 0.617 0.0
C77 C 0.89451 0.10993 0.53057 0.0
C78 C 0.90189 0.0921 0.4569 0.0
C79 C 0.91854 0.06659 0.46865 0.0
C80 C 0.9652 0.99733 0.8491 0.0
C81 C 0.01078 0.06799 0.80592 0.0
C82 C 0.06974 0.98183 0.92107 0.0
Eu83 Eu 0.03259 1.00157 0.80205 0.0
C84 C 0.08985 0.95674 0.9321 0.0
C85 C 0.11581 0.96007 0.98168 0.0
C86 C 0.13379 0.93572 0.99934 0.0
C87 C 0.12588 0.9076 0.96827 0.0
C88 C 0.10065 0.90484 0.91422 0.0
C89 C 0.0829 0.92919 0.89609 0.0
C90 C 0.05267 0.01902 0.63703 0.0
C91 C 1.00715 0.94787 0.67877 0.0
O92 O 0.97692 0.04136 0.56588 0.0
O93 O 0.94215 0.01374 0.62177 0.0
O94 O 0.9549 0.98791 0.77389 0.0
O95 O 0.98645 0.01471 0.83385 0.0
O96 O 0.9971 0.06093 0.73089 0.0
O97 O 0.02339 0.04721 0.85416 0.0
O98 O 0.04149 0.97592 0.92246 0.0
O99 O 0.07683 1.00093 0.85909 0.0
O100 O 0.06264 0.02866 0.71238 0.0
O101 O 0.03176 1.00119 0.65189 0.0
O102 O 0.02054 0.95477 0.75453 0.0
O103 O 0.99501 0.96883 0.6303 0.0
H104 H 0.92686 0.06895 0.69511 0.0
H105 H 0.89709 0.11346 0.67528 0.0
H106 H 0.89664 0.09883 0.38919 0.0
H107 H 0.92504 0.05396 0.41047 0.0
H108 H 0.12173 0.98133 1.00902 0.0
H109 H 0.1533 0.93871 0.03981 0.0
H110 H 0.09349 0.88356 0.89019 0.0
H111 H 0.06311 0.92622 0.85697 0.0
C112 C 0.48459 0.96425 0.52547 0.0
Eu113 Eu 0.50261 0.98912 0.67151 0.0
C114 C 0.46284 0.94144 0.50457 0.0
C115 C 0.4479 0.92641 0.57347 0.0
C116 C 0.42483 0.90714 0.55332 0.0
C117 C 0.41623 0.9028 0.46396 0.0
C118 C 0.43238 0.91685 0.39512 0.0
C119 C 0.45553 0.93596 0.41535 0.0
C120 C 0.50884 0.95961 0.8302 0.0
C121 C 0.45072 0.01168 0.80716 0.0
C122 C 0.53704 0.06868 0.93947 0.0
Eu123 Eu 0.51687 0.03522 0.8123 0.0
C124 C 0.56308 0.08743 0.95364 0.0
C125 C 0.56 0.11464 0.99674 0.0
C126 C 0.5848 0.13201 0.01436 0.0
C127 C 0.61311 0.12232 0.98957 0.0
C128 C 0.61583 0.09555 0.94307 0.0
C129 C 0.59108 0.07836 0.92507 0.0
C130 C 0.49956 0.05719 0.65001 0.0
C131 C 0.57097 1.00952 0.68746 0.0
O132 O 0.47369 0.98904 0.55578 0.0
O133 O 0.50782 0.95539 0.56988 0.0
O134 O 0.50382 0.94714 0.7542 0.0
O135 O 0.5114 0.98709 0.81835 0.0
O136 O 0.45706 1.00184 0.72585 0.0
O137 O 0.47162 0.02178 0.86008 0.0
O138 O 0.54149 0.04021 0.9361 0.0
O139 O 0.5185 0.07785 0.87886 0.0
O140 O 0.49066 0.06721 0.72655 0.0
O141 O 0.51686 0.03588 0.66322 0.0
O142 O 0.56315 0.02615 0.75645 0.0
O143 O 0.55128 0.99428 0.64196 0.0
H144 H 0.45338 0.93041 0.64289 0.0
H145 H 0.41297 0.89656 0.60779 0.0
H146 H 0.42604 0.91453 0.32569 0.0
H147 H 0.46688 0.94742 0.36145 0.0
H148 H 0.53847 0.12219 0.01832 0.0
H149 H 0.58193 0.15269 0.04905 0.0
H150 H 0.63726 0.08703 0.92432 0.0
H151 H 0.594 0.05755 0.89117 0.0
C152 C 0.569 0.48481 0.5561 0.0
Eu153 Eu 0.53175 0.50349 0.67681 0.0
C154 C 0.58943 0.46005 0.54438 0.0
C155 C 0.61405 0.4632 0.48807 0.0
C156 C 0.63199 0.43894 0.46954 0.0
C157 C 0.62534 0.4111 0.50629 0.0
C158 C 0.60169 0.40861 0.56728 0.0
C159 C 0.58399 0.43291 0.58634 0.0
C160 C 0.55184 0.51981 0.84182 0.0
C161 C 0.50622 0.44858 0.79784 0.0
C162 C 0.44739 0.53402 0.91793 0.0
Eu163 Eu 0.48454 0.51477 0.79761 0.0
C164 C 0.42926 0.56042 0.93222 0.0
C165 C 0.40199 0.55809 0.97642 0.0
C166 C 0.38559 0.5834 0.99564 0.0
C167 C 0.39632 0.61141 0.97114 0.0
C168 C 0.42307 0.61339 0.92334 0.0
C169 C 0.43933 0.58816 0.90407 0.0
C170 C 0.46474 0.4984 0.63223 0.0
C171 C 0.51005 0.56957 0.67724 0.0
O172 O 0.54085 0.47843 0.556 0.0
O173 O 0.57588 0.50377 0.61784 0.0
O174 O 0.56169 0.53004 0.76643 0.0
O175 O 0.53097 0.50199 0.82722 0.0
O176 O 0.51994 0.45639 0.72286 0.0
O177 O 0.49346 0.46879 0.84739 0.0
O178 O 0.47597 0.53753 0.92288 0.0
O179 O 0.43973 0.51719 0.8515 0.0
O180 O 0.45482 0.48804 0.70743 0.0
O181 O 0.48547 0.51634 0.64733 0.0
O182 O 0.49707 0.5618 0.75337 0.0
O183 O 0.52191 0.54923 0.62617 0.0
H184 H 0.61885 0.48417 0.45618 0.0
H185 H 0.6504 0.44167 0.42394 0.0
H186 H 0.59562 0.38751 0.59612 0.0
H187 H 0.56532 0.43019 0.63088 0.0
H188 H 0.39373 0.53678 0.99798 0.0
H189 H 0.3649 0.58114 0.03151 0.0
H190 H 0.43235 0.63457 0.90483 0.0
H191 H 0.46029 0.59044 0.87 0.0
C192 C 0.0355 0.57011 0.54626 0.0
Eu193 Eu 0.01649 0.53364 0.66922 0.0
C194 C 0.05978 0.59114 0.53566 0.0
C195 C 0.07797 0.59826 0.60812 0.0
C196 C 0.10317 0.61552 0.59447 0.0
C197 C 0.11065 0.62562 0.50798 0.0
C198 C 0.09129 0.6197 0.43683 0.0
C199 C 0.06605 0.60266 0.45068 0.0
C200 C 0.99998 0.55448 0.83382 0.0
C201 C 0.07132 0.50992 0.79175 0.0
C202 C 0.98654 0.44997 0.91149 0.0
Eu203 Eu 1.00544 0.4871 0.79022 0.0
C204 C 0.96236 0.42875 0.91989 0.0
C205 C 0.94422 0.42243 0.84663 0.0
C206 C 0.91904 0.40502 0.85835 0.0
C207 C 0.91151 0.39398 0.94374 0.0
C208 C 0.93092 0.39896 0.01547 0.0
C209 C 0.95614 0.41618 1.00352 0.0
C210 C 0.02201 0.4666 0.62529 0.0
C211 C 0.95045 0.5107 0.66919 0.0
O212 O 0.04307 0.54236 0.55013 0.0
O213 O 0.01536 0.57685 0.60527 0.0
O214 O 0.98993 0.56403 0.75815 0.0
O215 O 0.01778 0.53359 0.81974 0.0
O216 O 0.0638 0.52299 0.71569 0.0
O217 O 0.0508 0.49748 0.8417 0.0
O218 O 0.97881 0.47769 0.90878 0.0
O219 O 1.00689 0.44368 0.8527 0.0
O220 O 0.03225 0.45708 0.70072 0.0
O221 O 1.00402 0.48725 0.63992 0.0
O222 O 0.95816 0.49804 0.74559 0.0
O223 O 0.97088 0.52303 0.61847 0.0
H224 H 0.07329 0.58956 0.67439 0.0
H225 H 0.11747 0.61984 0.65079 0.0
H226 H 0.09665 0.62644 0.36906 0.0
H227 H 0.05219 0.59733 0.39411 0.0
H228 H 0.94891 0.43191 0.78133 0.0
H229 H 0.90475 0.40139 0.80156 0.0
H230 H 0.92561 0.3914 0.08248 0.0
H231 H 0.97001 0.42084 0.06064 0.0
H232 H 0.20505 0.03068 0.28471 0.0
H233 H 0.04688 0.98439 0.4874 0.0
H234 H 0.1553 0.95514 0.1987 0.0
H235 H 0.102 0.05192 0.60068 0.0
H236 H 0.08224 0.97929 0.36367 0.0
H237 H 0.16348 0.04491 0.38159 0.0
C238 C 0.18506 0.0176 0.28408 0.0
C239 C 0.18366 0.99171 0.23333 0.0
C240 C 0.08647 0.99547 0.41503 0.0
C241 C 0.13617 1.00746 0.34542 0.0
C242 C 0.06618 0.99847 0.48558 0.0
C243 C 0.07155 0.01845 0.55506 0.0
C244 C 0.11237 0.01264 0.41348 0.0
C245 C 0.09703 0.03608 0.54897 0.0
C246 C 0.16144 0.02552 0.3402 0.0
C247 C 0.15733 0.97529 0.23654 0.0
N248 N 0.11654 0.03262 0.48009 0.0
N249 N 0.13485 0.98326 0.292 0.0
H250 H 0.48921 0.20757 0.29026 0.0
H251 H 0.53161 0.04918 0.49559 0.0
H252 H 0.56347 0.15596 0.2032 0.0
H253 H 0.46837 0.1077 0.61658 0.0
H254 H 0.5366 0.08363 0.36931 0.0
H255 H 0.47414 0.1668 0.38972 0.0
C256 C 0.50176 0.18729 0.28979 0.0
C257 C 0.52755 0.18512 0.23794 0.0
C258 C 0.52137 0.08881 0.42295 0.0
C259 C 0.51087 0.13858 0.35292 0.0
C260 C 0.51844 0.06907 0.49498 0.0
C261 C 0.49974 0.07567 0.56727 0.0
C262 C 0.50541 0.11538 0.42271 0.0
C263 C 0.48321 0.1018 0.56263 0.0
C264 C 0.49339 0.16415 0.34739 0.0
C265 C 0.54335 0.15851 0.24153 0.0
N266 N 0.48658 0.12076 0.49216 0.0
N267 N 0.53494 0.13648 0.29839 0.0
H268 H 0.31366 0.48874 0.27853 0.0
H269 H 0.47172 0.53261 0.48081 0.0
H270 H 0.36585 0.56221 0.18602 0.0
H271 H 0.41505 0.46613 0.59658 0.0
H272 H 0.43724 0.53773 0.35557 0.0
H273 H 0.35455 0.47377 0.37648 0.0
C274 C 0.33411 0.50108 0.27633 0.0
C275 C 0.33641 0.52662 0.2233 0.0
C276 C 0.43246 0.52177 0.40783 0.0
C277 C 0.38307 0.51017 0.33711 0.0
C278 C 0.45224 0.51879 0.47931 0.0
C279 C 0.44621 0.49908 0.54989 0.0
C280 C 0.40636 0.50491 0.40643 0.0
C281 C 0.42054 0.48175 0.54406 0.0
C282 C 0.35733 0.49279 0.33319 0.0
C283 C 0.36323 0.54222 0.225 0.0
N284 N 0.40152 0.48523 0.47427 0.0
N285 N 0.38528 0.53396 0.28138 0.0
H286 H 0.03294 0.31325 0.28399 0.0
H287 H 0.98719 0.47195 0.47535 0.0
H288 H 0.9595 0.36383 0.18622 0.0
H289 H 0.05503 0.41746 0.5908 0.0
H290 H 0.98238 0.43661 0.35243 0.0
H291 H 0.04749 0.35518 0.3775 0.0
C292 C 0.02053 0.33357 0.27965 0.0
C293 C 0.99509 0.3351 0.22667 0.0
C294 C 0.99857 0.43252 0.40407 0.0
C295 C 0.01099 0.38297 0.33578 0.0
C296 C 1.00138 0.45278 0.47422 0.0
C297 C 0.02139 0.4476 0.54406 0.0
C298 C 0.01592 0.40681 0.40333 0.0
C299 C 0.03917 0.42229 0.53883 0.0
C300 C 0.02857 0.3574 0.33407 0.0
C301 C 0.97938 0.3618 0.22556 0.0
N302 N 0.03586 0.40281 0.4704 0.0
N303 N 0.98735 0.38446 0.27986 0.0
H304 H 0.81371 0.99014 0.20564 0.0
H305 H 0.97276 0.03121 0.9995 0.0
H306 H 0.86691 0.06275 0.29542 0.0
H307 H 0.91469 0.96625 0.88594 0.0
H308 H 0.93815 0.0371 0.12482 0.0
H309 H 0.85432 0.97481 0.10674 0.0
C310 C 0.83428 1.00229 0.20669 0.0
C311 C 0.83695 0.02771 0.25909 0.0
C312 C 0.9331 0.02131 0.07303 0.0
C313 C 0.88334 0.01078 0.14446 0.0
C314 C 0.95295 0.01786 1.00154 0.0
C315 C 0.94657 0.99836 0.93157 0.0
C316 C 0.9066 1.00509 0.07506 0.0
C317 C 0.92047 0.98168 0.938 0.0
C318 C 0.85735 0.99377 0.14938 0.0
C319 C 0.86395 0.04298 0.25629 0.0
N320 N 0.90141 0.98557 1.00783 0.0
N321 N 0.8859 0.03448 0.19953 0.0
H322 H 0.52563 0.81169 0.1903 0.0
H323 H 0.49106 0.97443 1.00181 0.0
H324 H 0.45693 0.86625 0.29907 0.0
H325 H 0.53259 0.9055 0.84985 0.0
H326 H 0.48907 0.94091 0.13282 0.0
H327 H 0.53981 0.85216 0.08899 0.0
C328 C 0.5142 0.83257 0.19501 0.0
C329 C 0.49009 0.83568 0.25322 0.0
C330 C 0.49912 0.9334 0.07115 0.0
C331 C 0.50574 0.88194 0.13627 0.0
C332 C 0.50043 0.95258 0.99677 0.0
C333 C 0.51197 0.94267 0.91497 0.0
C334 C 0.50995 0.90442 0.06377 0.0
C335 C 0.52342 0.91398 0.91158 0.0
C336 C 0.52204 0.85556 0.13645 0.0
C337 C 0.47564 0.86306 0.25515 0.0
N338 N 0.52209 0.89594 0.98448 0.0
N339 N 0.48346 0.88503 0.19705 0.0
H340 H 0.70421 0.53269 0.18911 0.0
H341 H 0.54708 0.48376 0.99023 0.0
H342 H 0.65744 0.45422 0.26952 0.0
H343 H 0.60021 0.55375 0.87818 0.0
H344 H 0.58268 0.47864 0.11267 0.0
H345 H 0.66176 0.54697 0.09641 0.0
C346 C 0.68461 0.51903 0.18991 0.0
C347 C 0.68432 0.49235 0.23791 0.0
C348 C 0.5864 0.49537 0.06189 0.0
C349 C 0.63587 0.5081 0.13023 0.0
C350 C 0.56598 0.49836 0.99209 0.0
C351 C 0.57075 0.51906 0.92329 0.0
C352 C 0.61181 0.51325 0.06341 0.0
C353 C 0.59572 0.53735 0.92937 0.0
C354 C 0.66051 0.52695 0.13603 0.0
C355 C 0.65851 0.47513 0.23456 0.0
N356 N 0.61536 0.53388 0.99751 0.0
N357 N 0.63557 0.48312 0.18123 0.0
H358 H 0.98918 0.70719 0.18088 0.0
H359 H 0.03419 0.54863 0.98484 0.0
H360 H 0.06173 0.65538 0.27883 0.0
H361 H 0.96782 0.60435 0.86694 0.0
H362 H 0.03912 0.58384 0.108 0.0
H363 H 0.97519 0.6662 0.08252 0.0
C364 C 1.00158 0.68683 0.18385 0.0
C365 C 0.02658 0.68466 0.23858 0.0
C366 C 0.02324 0.58825 0.05572 0.0
C367 C 0.01122 0.63783 0.12447 0.0
C368 C 0.02036 0.56806 0.98543 0.0
C369 C 1.0007 0.57358 0.9149 0.0
C370 C 1.00633 0.61426 0.05598 0.0
C371 C 0.98339 0.59923 0.91948 0.0
C372 C 0.99384 0.66354 0.12683 0.0
C373 C 0.04223 0.65793 0.23806 0.0
N374 N 0.98674 0.61864 0.98814 0.0
N375 N 0.0345 0.63578 0.18158 0.0
H376 H 0.93154 0.28256 0.3941 0.0
H377 H 0.90956 0.16031 0.61938 0.0
H378 H 0.89383 0.23585 0.17087 0.0
H379 H 0.85459 0.12939 0.40413 0.0
H380 H 0.90512 0.20968 0.56308 0.0
H381 H 0.90312 0.25217 0.4956 0.0
C382 C 0.9169 0.26628 0.36576 0.0
C383 C 0.9164 0.26087 0.27317 0.0
C384 C 0.89308 0.19261 0.52884 0.0
C385 C 0.88551 0.22395 0.39091 0.0
C386 C 0.89555 0.16399 0.5619 0.0
C387 C 0.88339 0.14031 0.51457 0.0
C388 C 0.87875 0.19761 0.44675 0.0
C389 C 0.86547 0.14681 0.44059 0.0
C390 C 0.90103 0.24828 0.42461 0.0
C391 C 0.89633 0.23974 0.24184 0.0
N392 N 0.86445 0.17471 0.40735 0.0
N393 N 0.88245 0.22142 0.30062 0.0
H394 H 0.27474 0.88952 0.123 0.0
H395 H 0.40349 0.86568 0.32369 0.0
H396 H 0.24717 0.92829 0.37241 0.0
H397 H 0.36398 0.90629 0.55529 0.0
H398 H 0.35469 0.85515 0.26636 0.0
H399 H 0.31244 0.86203 0.20231 0.0
C400 C 0.27611 0.89155 0.19511 0.0
C401 C 0.25868 0.91221 0.24051 0.0
C402 C 0.35634 0.86591 0.33041 0.0
C403 C 0.3026 0.88163 0.33229 0.0
C404 C 0.38449 0.87189 0.36334 0.0
C405 C 0.38791 0.88798 0.44261 0.0
C406 C 0.33145 0.8766 0.3766 0.0
C407 C 0.36255 0.89436 0.49295 0.0
C408 C 0.29797 0.876 0.24079 0.0
C409 C 0.26059 0.91318 0.3341 0.0
N410 N 0.33547 0.88932 0.458 0.0
N411 N 0.28279 0.89884 0.37644 0.0
H412 H 0.59198 0.24401 0.38093 0.0
H413 H 0.64196 0.36088 0.59767 0.0
H414 H 0.6297 0.2795 0.13738 0.0
H415 H 0.64048 0.39924 0.3327 0.0
H416 H 0.64952 0.31245 0.53101 0.0
H417 H 0.62027 0.27881 0.46638 0.0
C418 C 0.60722 0.25827 0.34526 0.0
C419 C 0.60756 0.25947 0.25128 0.0
C420 C 0.64781 0.33147 0.48742 0.0
C421 C 0.63998 0.30031 0.34968 0.0
C422 C 0.6437 0.35918 0.52554 0.0
C423 C 0.63932 0.384 0.47062 0.0
C424 C 0.64691 0.32861 0.39379 0.0
C425 C 0.64308 0.38071 0.37787 0.0
C426 C 0.62354 0.27845 0.39465 0.0
C427 C 0.62783 0.27861 0.20962 0.0
N428 N 0.6459 0.35342 0.34232 0.0
N429 N 0.64246 0.29897 0.25888 0.0
H430 H 0.24375 0.63089 0.14065 0.0
H431 H 0.12683 0.66965 0.38908 0.0
H432 H 0.27778 0.58857 0.37793 0.0
H433 H 0.1631 0.60824 0.58066 0.0
H434 H 0.17585 0.67619 0.32436 0.0
H435 H 0.20938 0.65821 0.23312 0.0
C436 C 0.2446 0.62803 0.21265 0.0
C437 C 0.26284 0.60648 0.25102 0.0
C438 C 0.17328 0.66146 0.38095 0.0
C439 C 0.2235 0.63786 0.35859 0.0
C440 C 0.14521 0.6579 0.41847 0.0
C441 C 0.14057 0.63739 0.48797 0.0
C442 C 0.19666 0.64397 0.41248 0.0
C443 C 0.16535 0.62384 0.526 0.0
C444 C 0.22493 0.64384 0.26607 0.0
C445 C 0.26377 0.60448 0.34478 0.0
N446 N 0.19213 0.62682 0.48635 0.0
N447 N 0.24379 0.61932 0.395 0.0
H448 H 0.12906 0.7765 0.34729 0.0
H449 H 0.13783 0.85585 0.87963 0.0
H450 H 0.09373 0.74382 0.09898 0.0
H451 H 0.14732 0.89745 0.13714 0.0
H452 H 0.14518 0.80794 0.95143 0.0
H453 H 0.15875 0.812 0.26221 0.0
C454 C 0.12821 0.77614 0.27485 0.0
C455 C 0.10784 0.75805 0.23051 0.0
C456 C 0.14658 0.82767 0.99162 0.0
C457 C 0.14184 0.79835 0.13316 0.0
C458 C 0.14222 0.85503 0.95082 0.0
C459 C 0.14059 0.88063 1.00299 0.0
C460 C 0.14924 0.82598 0.08511 0.0
C461 C 0.1477 0.87833 0.09423 0.0
C462 C 0.14524 0.79634 0.22637 0.0
C463 C 0.10857 0.75771 0.13649 0.0
N464 N 0.15092 0.85139 0.13282 0.0
N465 N 0.12463 0.77817 0.09101 0.0
H466 H 0.7803 0.09475 0.11615 0.0
H467 H 0.62217 0.14805 0.15301 0.0
H468 H 0.74367 0.1305 0.3596 0.0
H469 H 0.66581 0.13102 0.90127 0.0
H470 H 0.66981 0.1577 0.22073 0.0
H471 H 0.74553 0.1236 0.03022 0.0
C472 C 0.7657 0.10945 0.1519 0.0
C473 C 0.76407 0.10904 0.24585 0.0
C474 C 0.66903 0.15266 0.15001 0.0
C475 C 0.72303 0.14123 0.14708 0.0
C476 C 0.64166 0.14726 0.11096 0.0
C477 C 0.64006 0.13745 0.02211 0.0
C478 C 0.69491 0.14758 0.10035 0.0
C479 C 0.66615 0.1372 0.97115 0.0
C480 C 0.7455 0.12585 0.10236 0.0
C481 C 0.74472 0.12895 0.28737 0.0
N482 N 0.69257 0.14126 1.01162 0.0
N483 N 0.7242 0.14343 0.23791 0.0
H484 H 0.3877 0.74154 0.35354 0.0
H485 H 0.38864 0.6643 0.88377 0.0
H486 H 0.42558 0.77712 0.1103 0.0
H487 H 0.37247 0.62104 0.13734 0.0
H488 H 0.38072 0.71186 0.95568 0.0
H489 H 0.36089 0.70536 0.26443 0.0
C490 C 0.38966 0.7424 0.28127 0.0
C491 C 0.40993 0.7616 0.23976 0.0
C492 C 0.37808 0.6919 0.99498 0.0
C493 C 0.37929 0.72043 0.13775 0.0
C494 C 0.3827 0.66474 0.95408 0.0
C495 C 0.38234 0.63872 1.00534 0.0
C496 C 0.37326 0.693 0.08782 0.0
C497 C 0.37352 0.64053 0.09539 0.0
C498 C 0.37433 0.72174 0.23048 0.0
C499 C 0.41073 0.76242 0.14575 0.0
N500 N 0.37008 0.66728 0.13434 0.0
N501 N 0.39631 0.74156 0.09807 0.0
H502 H 0.78069 0.39156 0.31284 0.0
H503 H 0.89464 0.34919 0.05916 0.0
H504 H 0.7447 0.43245 0.07601 0.0
H505 H 0.85933 0.41261 0.87196 0.0
H506 H 0.84557 0.34328 0.12434 0.0
H507 H 0.81425 0.36361 0.21932 0.0
C508 C 0.77924 0.39395 0.24079 0.0
C509 C 0.76065 0.41522 0.20257 0.0
C510 C 0.84841 0.35831 0.06857 0.0
C511 C 0.79898 0.38308 0.09385 0.0
C512 C 0.87647 0.36151 0.03076 0.0
C513 C 0.88143 0.38243 0.96262 0.0
C514 C 0.82539 0.37657 0.03866 0.0
C515 C 0.85687 0.39669 0.92567 0.0
C516 C 0.79837 0.37774 0.18679 0.0
C517 C 0.75899 0.41672 0.10885 0.0
N518 N 0.83011 0.39405 0.96566 0.0
N519 N 0.77849 0.40151 0.05795 0.0
H520 H 0.95916 0.2467 0.94324 0.0
H521 H 0.04115 0.09063 0.94846 0.0
H522 H 0.0264 0.22374 0.13347 0.0
H523 H 0.97951 0.11621 0.74321 0.0
H524 H 0.03859 0.14029 1.01014 0.0
H525 H 0.96956 0.20128 0.86086 0.0
C526 C 0.97689 0.23256 0.96578 0.0
C527 C 0.99238 0.23939 0.04431 0.0
C528 C 0.02576 0.1352 0.95124 0.0
C529 C 1.00359 0.1864 0.95242 0.0
C530 C 0.02715 0.1067 0.91586 0.0
C531 C 0.01044 0.09894 0.84036 0.0
C532 C 1.00734 0.15641 0.91166 0.0
C533 C 0.99282 0.12101 0.80135 0.0
C534 C 0.98257 0.20639 0.91938 0.0
C535 C 0.01443 0.21973 0.07218 0.0
N536 N 0.99158 0.14855 0.83773 0.0
N537 N 0.01912 0.19405 0.02702 0.0
H538 H 0.29372 0.02486 0.14213 0.0
H539 H 0.40134 0.98745 0.72846 0.0
H540 H 0.26966 0.9676 0.92569 0.0
H541 H 0.42862 0.03533 0.96272 0.0
H542 H 0.35088 0.98601 0.78821 0.0
H543 H 0.34025 0.03624 0.06422 0.0
C544 C 0.29768 0.01569 0.07637 0.0
C545 C 0.2775 0.9957 0.03958 0.0
C546 C 0.36787 0.99699 0.8263 0.0
C547 C 0.33135 1.00757 0.95139 0.0
C548 C 0.39678 0.99781 0.79216 0.0
C549 C 0.41953 0.01137 0.84061 0.0
C550 C 0.36143 1.00995 0.90954 0.0
C551 C 0.41202 0.02443 0.92292 0.0
C552 C 0.3245 0.02174 0.03254 0.0
C553 C 0.28434 0.98356 0.9556 0.0
N554 N 0.38379 0.02332 0.95467 0.0
N555 N 0.31069 0.98943 0.91491 0.0
H556 H 0.49302 0.29192 0.13422 0.0
H557 H 0.53458 0.40039 0.72474 0.0
H558 H 0.55842 0.27187 0.93408 0.0
H559 H 0.47884 0.42515 0.94649 0.0
H560 H 0.53756 0.35041 0.78691 0.0
H561 H 0.48063 0.33717 0.05134 0.0
C562 C 0.50395 0.29647 0.071 0.0
C563 C 0.52647 0.27788 0.04032 0.0
C564 C 0.52451 0.36674 0.82167 0.0
C565 C 0.51323 0.33019 0.94649 0.0
C566 C 0.52283 0.39539 0.78613 0.0
C567 C 0.50671 0.41735 0.83062 0.0
C568 C 0.50981 0.35974 0.90229 0.0
C569 C 0.49175 0.40919 0.90985 0.0
C570 C 0.49723 0.32255 0.02434 0.0
C571 C 0.54062 0.28539 0.95937 0.0
N572 N 0.49378 0.38123 0.94313 0.0
N573 N 0.53399 0.31099 0.91585 0.0
H574 H 0.25018 0.56265 0.92696 0.0
H575 H 0.09449 0.47944 0.9337 0.0
H576 H 0.22755 0.49495 0.1181 0.0
H577 H 0.11936 0.54171 0.72755 0.0
H578 H 0.14428 0.48218 0.99451 0.0
H579 H 0.20486 0.5519 0.84424 0.0
C580 C 0.23615 0.54475 0.94966 0.0
C581 C 0.243 0.5293 0.02872 0.0
C582 C 0.13902 0.49511 0.93561 0.0
C583 C 0.19014 0.51766 0.93628 0.0
C584 C 0.11044 0.49364 0.90072 0.0
C585 C 0.10243 0.51048 0.82526 0.0
C586 C 0.1601 0.51377 0.89564 0.0
C587 C 0.12436 0.52831 0.78569 0.0
C588 C 0.21003 0.53887 0.90303 0.0
C589 C 0.22351 0.50696 0.05655 0.0
N590 N 0.15201 0.52965 0.82168 0.0
N591 N 0.19787 0.50208 1.01117 0.0
H592 H 0.05456 0.76751 0.54652 0.0
H593 H 0.97905 0.92675 0.53009 0.0
H594 H 0.99491 0.79495 0.33907 0.0
H595 H 0.03523 0.89816 0.7459 0.0
H596 H 0.9811 0.87731 0.4671 0.0
H597 H 0.04338 0.81265 0.62935 0.0
C598 C 0.0382 0.78255 0.52012 0.0
C599 C 0.02517 0.77709 0.43657 0.0
C600 C 0.99285 0.8817 0.52856 0.0
C601 C 0.01322 0.82977 0.52926 0.0
C602 C 0.99176 0.91009 0.56477 0.0
C603 C 1.00717 0.91698 0.64359 0.0
C604 C 1.00962 0.85967 0.57072 0.0
C605 C 0.02308 0.89412 0.68505 0.0
C606 C 0.03213 0.80858 0.56683 0.0
C607 C 1.00491 0.79789 0.4041 0.0
N608 N 0.02405 0.86668 0.64789 0.0
N609 N 0.99985 0.82339 0.44982 0.0
H610 H 0.75171 0.05897 0.56312 0.0
H611 H 0.59534 0.97677 0.55178 0.0
H612 H 0.72821 0.99538 0.36305 0.0
H613 H 0.61853 0.04189 0.7487 0.0
H614 H 0.64564 0.97885 0.49296 0.0
H615 H 0.70601 0.04764 0.64442 0.0
C616 C 0.73739 0.04178 0.53814 0.0
C617 C 0.74406 0.02773 0.45693 0.0
C618 C 0.63985 0.99253 0.54949 0.0
C619 C 0.69081 0.01548 0.54781 0.0
C620 C 0.61099 0.99141 0.58331 0.0
C621 C 0.60234 1.00932 0.65545 0.0
C622 C 0.66055 0.01177 0.58754 0.0
C623 C 0.62394 0.02769 0.69313 0.0
C624 C 0.71105 0.03561 0.58391 0.0
C625 C 0.72426 1.00627 0.42625 0.0
N626 N 0.65185 0.02856 0.65848 0.0
N627 N 0.69842 1.00108 0.471 0.0
H628 H 0.52339 0.72786 0.34802 0.0
H629 H 0.48309 0.61781 0.75419 0.0
H630 H 0.46106 0.74834 0.55656 0.0
H631 H 0.53654 0.59317 0.52724 0.0
H632 H 0.48083 0.66818 0.69535 0.0
H633 H 0.5355 0.68174 0.42671 0.0
C634 C 0.51315 0.7232 0.41222 0.0
C635 C 0.49155 0.74219 0.44656 0.0
C636 C 0.49323 0.6518 0.65867 0.0
C637 C 0.5044 0.68891 0.53554 0.0
C638 C 0.49451 0.62292 0.69236 0.0
C639 C 0.50981 0.60091 0.64556 0.0
C640 C 0.50745 0.65898 0.57748 0.0
C641 C 0.52428 0.6092 0.56565 0.0
C642 C 0.51968 0.69663 0.45647 0.0
C643 C 0.47818 0.73454 0.52856 0.0
N644 N 0.52264 0.6374 0.53413 0.0
N645 N 0.48459 0.70847 0.56969 0.0
H646 H 0.76587 0.4658 0.53687 0.0
H647 H 0.90187 0.48479 0.7498 0.0
H648 H 0.80126 0.52011 0.32542 0.0
H649 H 0.92754 0.53355 0.51341 0.0
H650 H 0.85189 0.48136 0.69196 0.0
H651 H 0.80998 0.47477 0.62502 0.0
C652 C 0.78257 0.48064 0.5106 0.0
C653 C 0.77944 0.49288 0.42467 0.0
C654 C 0.86815 0.49287 0.65199 0.0
C655 C 0.83153 0.50238 0.52383 0.0
C656 C 0.89698 0.49489 0.68569 0.0
C657 C 0.91924 0.50938 0.63662 0.0
C658 C 0.86127 0.50533 0.56776 0.0
C659 C 0.91132 0.52204 0.55389 0.0
C660 C 0.80825 0.48549 0.56058 0.0
C661 C 0.80236 0.51091 0.39236 0.0
N662 N 0.88324 0.5196 0.52226 0.0
N663 N 0.8274 0.51486 0.44138 0.0
loop_
_geom_bond_atom_site_label_1
_geom_bond_atom_site_label_2
_geom_bond_distance
_geom_bond_site_symmetry_2
_ccdc_geom_bond_type
H0 C3 0.931 . S
H1 C6 0.928 . S
H2 C8 0.930 . S
C3 H0 0.931 . S
C3 C4 1.413 . S
C3 C5 1.360 . S
C4 C3 1.413 . S
C4 C8 1.429 . S
C5 C3 1.360 . S
C5 C6 1.372 . S
C6 H1 0.928 . S
C6 C5 1.372 . S
C6 C7 1.404 . S
C7 C6 1.404 . S
C7 C8 1.391 . S
C8 H2 0.930 . S
C8 C4 1.429 . S
C8 C7 1.391 . S
H9 C12 0.931 . S
H10 C15 0.928 . S
H11 C17 0.930 . S
C12 H9 0.931 . S
C12 C13 1.413 . S
C12 C14 1.360 . S
C13 C12 1.413 . S
C13 C17 1.429 1_655 S
C14 C12 1.360 . S
C14 C15 1.372 . S
C15 H10 0.928 . S
C15 C14 1.372 . S
C15 C16 1.404 . S
C16 C15 1.404 . S
C16 C17 1.390 1_655 S
C17 H11 0.930 . S
C17 C13 1.429 1_455 S
C17 C16 1.390 1_455 S
H18 C21 0.931 . S
H19 C24 0.928 . S
H20 C26 0.930 . S
C21 H18 0.931 . S
C21 C22 1.413 . S
C21 C23 1.360 . S
C22 C21 1.413 . S
C22 C26 1.429 1_565 S
C23 C21 1.360 . S
C23 C24 1.372 . S
C24 H19 0.928 . S
C24 C23 1.372 . S
C24 C25 1.404 . S
C25 C24 1.404 . S
C25 C26 1.390 1_565 S
C26 H20 0.930 . S
C26 C22 1.429 1_545 S
C26 C25 1.390 1_545 S
H27 C30 0.931 . S
H28 C33 0.928 . S
H29 C35 0.930 . S
C30 H27 0.931 . S
C30 C31 1.413 . S
C30 C32 1.360 . S
C31 C30 1.413 . S
C31 C35 1.429 . S
C32 C30 1.360 . S
C32 C33 1.372 . S
C33 H28 0.928 . S
C33 C32 1.372 . S
C33 C34 1.404 . S
C34 C33 1.404 . S
C34 C35 1.391 . S
C35 H29 0.930 . S
C35 C31 1.429 . S
C35 C34 1.391 . S
H36 C39 0.931 . S
H37 C42 0.928 . S
H38 C44 0.930 . S
C39 H36 0.931 . S
C39 C40 1.413 1_554 S
C39 C41 1.360 . S
C40 C39 1.413 1_556 S
C40 C44 1.429 . S
C41 C39 1.360 . S
C41 C42 1.372 . S
C42 H37 0.928 . S
C42 C41 1.372 . S
C42 C43 1.404 . S
C43 C42 1.404 . S
C43 C44 1.391 1_554 S
C44 H38 0.930 . S
C44 C40 1.429 . S
C44 C43 1.391 1_556 S
H45 C48 0.931 . S
H46 C51 0.928 . S
H47 C53 0.930 . S
C48 H45 0.931 . S
C48 C49 1.413 1_554 S
C48 C50 1.360 . S
C49 C48 1.413 1_556 S
C49 C53 1.429 1_655 S
C50 C48 1.360 . S
C50 C51 1.372 . S
C51 H46 0.928 . S
C51 C50 1.372 . S
C51 C52 1.404 . S
C52 C51 1.404 . S
C52 C53 1.391 1_654 S
C53 H47 0.930 . S
C53 C49 1.429 1_455 S
C53 C52 1.391 1_456 S
H54 C57 0.931 . S
H55 C60 0.928 . S
H56 C62 0.930 . S
C57 H54 0.931 . S
C57 C58 1.413 1_554 S
C57 C59 1.360 . S
C58 C57 1.413 1_556 S
C58 C62 1.429 1_565 S
C59 C57 1.360 . S
C59 C60 1.372 . S
C60 H55 0.928 . S
C60 C59 1.372 . S
C60 C61 1.404 . S
C61 C60 1.404 . S
C61 C62 1.391 1_564 S
C62 H56 0.930 . S
C62 C58 1.429 1_545 S
C62 C61 1.391 1_546 S
H63 C66 0.931 . S
H64 C69 0.928 . S
H65 C71 0.930 . S
C66 H63 0.931 . S
C66 C67 1.413 . S
C66 C68 1.360 1_554 S
C67 C66 1.413 . S
C67 C71 1.429 . S
C68 C66 1.360 1_556 S
C68 C69 1.372 . S
C69 H64 0.928 . S
C69 C68 1.372 . S
C69 C70 1.404 1_556 S
C70 C69 1.404 1_554 S
C70 C71 1.391 . S
C71 H65 0.930 . S
C71 C67 1.429 . S
C71 C70 1.391 . S
C72 Eu73 2.835 . S
C72 C74 1.500 . S
C72 O92 1.257 . S
C72 O93 1.260 . S
Eu73 C72 2.835 . S
Eu73 O92 2.473 . S
Eu73 O93 2.480 . S
Eu73 O94 2.430 . S
Eu73 O95 2.670 1_545 S
Eu73 O96 2.394 . S
Eu73 O101 2.355 1_655 S
Eu73 O103 2.374 1_545 S
C74 C72 1.500 . S
C74 C75 1.377 . S
C74 C79 1.377 . S
C75 C74 1.377 . S
C75 C76 1.395 . S
C75 H104 0.931 . S
C76 C75 1.395 . S
C76 C77 1.383 . S
C76 H105 0.931 . S
C77 C76 1.383 . S
C77 C78 1.394 . S
C78 C77 1.394 . S
C78 C79 1.378 . S
C78 H106 0.915 1_655 S
C79 C74 1.377 . S
C79 C78 1.378 . S
C79 H107 0.931 1_655 S
C80 O94 1.259 . S
C80 O95 1.270 1_545 S
C81 O96 1.251 1_455 S
C81 O97 1.251 . S
C82 Eu83 2.835 . S
C82 C84 1.500 . S
C82 O98 1.257 . S
C82 O99 1.260 . S
Eu83 C82 2.835 . S
Eu83 O95 2.355 1_455 S
Eu83 O97 2.374 1_565 S
Eu83 O98 2.473 . S
Eu83 O99 2.480 . S
Eu83 O100 2.430 . S
Eu83 O101 2.670 1_565 S
Eu83 O102 2.394 . S
C84 C82 1.500 . S
C84 C85 1.377 . S
C84 C89 1.377 . S
C85 C84 1.377 . S
C85 C86 1.395 . S
C85 H108 0.931 . S
C86 C85 1.395 . S
C86 C87 1.383 1_556 S
C86 H109 0.931 . S
C87 C86 1.383 1_554 S
C87 C88 1.394 . S
C88 C87 1.394 . S
C88 C89 1.378 1_554 S
C88 H110 0.922 1_455 S
C89 C84 1.377 . S
C89 C88 1.378 1_556 S
C89 H111 0.931 1_455 S
C90 O100 1.259 . S
C90 O101 1.270 1_565 S
C91 O102 1.251 1_655 S
C91 O103 1.251 . S
O92 C72 1.257 . S
O92 Eu73 2.473 . S
O93 C72 1.260 . S
O93 Eu73 2.480 . S
O94 Eu73 2.430 . S
O94 C80 1.259 . S
O95 Eu73 2.670 1_565 S
O95 C80 1.270 1_565 S
O95 Eu83 2.355 1_655 S
O96 Eu73 2.394 . S
O96 C81 1.251 1_655 S
O97 C81 1.251 . S
O97 Eu83 2.374 1_545 S
O98 C82 1.257 . S
O98 Eu83 2.473 . S
O99 C82 1.260 . S
O99 Eu83 2.480 . S
O100 Eu83 2.430 . S
O100 C90 1.259 . S
O101 Eu73 2.355 1_455 S
O101 Eu83 2.670 1_545 S
O101 C90 1.270 1_545 S
O102 Eu83 2.394 . S
O102 C91 1.251 1_455 S
O103 Eu73 2.374 1_565 S
O103 C91 1.251 . S
H104 C75 0.931 . S
H105 C76 0.931 . S
H106 C78 0.915 1_455 S
H107 C79 0.931 1_455 S
H108 C85 0.931 . S
H109 C86 0.931 . S
H110 C88 0.922 1_655 S
H111 C89 0.931 1_655 S
C112 Eu113 2.835 . S
C112 C114 1.500 . S
C112 O132 1.257 . S
C112 O133 1.260 . S
Eu113 C112 2.835 . S
Eu113 O132 2.473 . S
Eu113 O133 2.480 . S
Eu113 O134 2.430 . S
Eu113 O135 2.670 . S
Eu113 O136 2.394 . S
Eu113 O141 2.355 1_565 S
Eu113 O143 2.374 . S
C114 C112 1.500 . S
C114 C115 1.377 . S
C114 C119 1.377 . S
C115 C114 1.377 . S
C115 C116 1.395 . S
C115 H144 0.931 . S
C116 C115 1.395 . S
C116 C117 1.383 . S
C116 H145 0.931 . S
C117 C116 1.383 . S
C117 C118 1.394 . S
C118 C117 1.394 . S
C118 C119 1.378 . S
C118 H146 0.931 1_565 S
C119 C114 1.377 . S
C119 C118 1.378 . S
C119 H147 0.931 1_565 S
C120 O134 1.259 . S
C120 O135 1.270 . S
C121 O136 1.251 1_545 S
C121 O137 1.251 . S
C122 Eu123 2.835 . S
C122 C124 1.500 . S
C122 O138 1.257 . S
C122 O139 1.260 . S
Eu123 C122 2.835 . S
Eu123 O135 2.355 1_545 S
Eu123 O137 2.374 . S
Eu123 O138 2.473 . S
Eu123 O139 2.480 . S
Eu123 O140 2.430 . S
Eu123 O141 2.670 . S
Eu123 O142 2.394 . S
C124 C122 1.500 . S
C124 C125 1.377 . S
C124 C129 1.377 . S
C125 C124 1.377 . S
C125 C126 1.395 . S
C125 H148 0.931 . S
C126 C125 1.395 . S
C126 C127 1.383 1_556 S
C126 H149 0.931 . S
C127 C126 1.383 1_554 S
C127 C128 1.394 . S
C128 C127 1.394 . S
C128 C129 1.378 1_554 S
C128 H150 0.931 1_545 S
C129 C124 1.377 . S
C129 C128 1.378 1_556 S
C129 H151 0.931 1_545 S
C130 O140 1.259 . S
C130 O141 1.270 . S
C131 O142 1.251 1_565 S
C131 O143 1.251 . S
O132 C112 1.257 . S
O132 Eu113 2.473 . S
O133 C112 1.260 . S
O133 Eu113 2.480 . S
O134 Eu113 2.430 . S
O134 C120 1.259 . S
O135 Eu113 2.670 . S
O135 C120 1.270 . S
O135 Eu123 2.355 1_565 S
O136 Eu113 2.394 . S
O136 C121 1.251 1_565 S
O137 C121 1.251 . S
O137 Eu123 2.374 . S
O138 C122 1.257 . S
O138 Eu123 2.473 . S
O139 C122 1.260 . S
O139 Eu123 2.480 . S
O140 Eu123 2.430 . S
O140 C130 1.259 . S
O141 Eu113 2.355 1_545 S
O141 Eu123 2.670 . S
O141 C130 1.270 . S
O142 Eu123 2.394 . S
O142 C131 1.251 1_545 S
O143 Eu113 2.374 . S
O143 C131 1.251 . S
H144 C115 0.931 . S
H145 C116 0.931 . S
H146 C118 0.931 1_545 S
H147 C119 0.931 1_545 S
H148 C125 0.931 . S
H149 C126 0.931 . S
H150 C128 0.931 1_565 S
H151 C129 0.931 1_565 S
C152 Eu153 2.835 . S
C152 C154 1.500 . S
C152 O172 1.257 . S
C152 O173 1.260 . S
Eu153 C152 2.835 . S
Eu153 O172 2.473 . S
Eu153 O173 2.480 . S
Eu153 O174 2.430 . S
Eu153 O175 2.670 . S
Eu153 O176 2.394 . S
Eu153 O181 2.355 . S
Eu153 O183 2.374 . S
C154 C152 1.500 . S
C154 C155 1.377 . S
C154 C159 1.377 . S
C155 C154 1.377 . S
C155 C156 1.395 . S
C155 H184 0.931 . S
C156 C155 1.395 . S
C156 C157 1.383 . S
C156 H185 0.931 . S
C157 C156 1.383 . S
C157 C158 1.394 . S
C158 C157 1.394 . S
C158 C159 1.378 . S
C158 H186 0.931 . S
C159 C154 1.377 . S
C159 C158 1.378 . S
C159 H187 0.931 . S
C160 O174 1.259 . S
C160 O175 1.270 . S
C161 O176 1.251 . S
C161 O177 1.251 . S
C162 Eu163 2.835 . S
C162 C164 1.500 . S
C162 O178 1.257 . S
C162 O179 1.260 . S
Eu163 C162 2.835 . S
Eu163 O175 2.355 . S
Eu163 O177 2.374 . S
Eu163 O178 2.473 . S
Eu163 O179 2.480 . S
Eu163 O180 2.430 . S
Eu163 O181 2.670 . S
Eu163 O182 2.394 . S
C164 C162 1.500 . S
C164 C165 1.377 . S
C164 C169 1.377 . S
C165 C164 1.377 . S
C165 C166 1.395 . S
C165 H188 0.931 . S
C166 C165 1.395 . S
C166 C167 1.383 1_556 S
C166 H189 0.931 1_556 S
C167 C166 1.383 1_554 S
C167 C168 1.394 . S
C168 C167 1.394 . S
C168 C169 1.378 1_554 S
C168 H190 0.931 . S
C169 C164 1.377 . S
C169 C168 1.378 1_556 S
C169 H191 0.931 . S
C170 O180 1.259 . S
C170 O181 1.270 . S
C171 O182 1.251 . S
C171 O183 1.251 . S
O172 C152 1.257 . S
O172 Eu153 2.473 . S
O173 C152 1.260 . S
O173 Eu153 2.480 . S
O174 Eu153 2.430 . S
O174 C160 1.259 . S
O175 Eu153 2.670 . S
O175 C160 1.270 . S
O175 Eu163 2.355 . S
O176 Eu153 2.394 . S
O176 C161 1.251 . S
O177 C161 1.251 . S
O177 Eu163 2.374 . S
O178 C162 1.257 . S
O178 Eu163 2.473 . S
O179 C162 1.260 . S
O179 Eu163 2.480 . S
O180 Eu163 2.430 . S
O180 C170 1.259 . S
O181 Eu153 2.355 . S
O181 Eu163 2.670 . S
O181 C170 1.270 . S
O182 Eu163 2.394 . S
O182 C171 1.251 . S
O183 Eu153 2.374 . S
O183 C171 1.251 . S
H184 C155 0.931 . S
H185 C156 0.931 . S
H186 C158 0.931 . S
H187 C159 0.931 . S
H188 C165 0.931 . S
H189 C166 0.931 1_554 S
H190 C168 0.931 . S
H191 C169 0.931 . S
C192 Eu193 2.835 . S
C192 C194 1.500 . S
C192 O212 1.257 . S
C192 O213 1.260 . S
Eu193 C192 2.835 . S
Eu193 O212 2.473 . S
Eu193 O213 2.480 . S
Eu193 O214 2.430 . S
Eu193 O215 2.670 1_455 S
Eu193 O216 2.394 . S
Eu193 O221 2.355 . S
Eu193 O223 2.374 1_455 S
C194 C192 1.500 . S
C194 C195 1.377 . S
C194 C199 1.377 . S
C195 C194 1.377 . S
C195 C196 1.395 . S
C195 H224 0.931 . S
C196 C195 1.395 . S
C196 C197 1.383 . S
C196 H225 0.931 . S
C197 C196 1.383 . S
C197 C198 1.394 . S
C198 C197 1.394 . S
C198 C199 1.378 . S
C198 H226 0.931 . S
C199 C194 1.377 . S
C199 C198 1.378 . S
C199 H227 0.931 . S
C200 O214 1.259 . S
C200 O215 1.270 1_455 S
C201 O216 1.251 . S
C201 O217 1.251 . S
C202 Eu203 2.835 . S
C202 C204 1.500 . S
C202 O218 1.257 . S
C202 O219 1.260 . S
Eu203 C202 2.835 . S
Eu203 O215 2.355 . S
Eu203 O217 2.374 1_655 S
Eu203 O218 2.473 . S
Eu203 O219 2.480 . S
Eu203 O220 2.430 . S
Eu203 O221 2.670 1_655 S
Eu203 O222 2.394 . S
C204 C202 1.500 . S
C204 C205 1.377 . S
C204 C209 1.377 . S
C205 C204 1.377 . S
C205 C206 1.395 . S
C205 H228 0.931 . S
C206 C205 1.395 . S
C206 C207 1.383 1_556 S
C206 H229 0.930 1_556 S
C207 C206 1.383 1_554 S
C207 C208 1.394 . S
C208 C207 1.394 . S
C208 C209 1.378 1_554 S
C208 H230 0.931 . S
C209 C204 1.377 . S
C209 C208 1.378 1_556 S
C209 H231 0.931 . S
C210 O220 1.259 1_455 S
C210 O221 1.270 . S
C211 O222 1.251 . S
C211 O223 1.251 . S
O212 C192 1.257 . S
O212 Eu193 2.473 . S
O213 C192 1.260 . S
O213 Eu193 2.480 . S
O214 Eu193 2.430 . S
O214 C200 1.259 . S
O215 Eu193 2.670 1_655 S
O215 C200 1.270 1_655 S
O215 Eu203 2.355 . S
O216 Eu193 2.394 . S
O216 C201 1.251 . S
O217 C201 1.251 . S
O217 Eu203 2.374 1_455 S
O218 C202 1.257 . S
O218 Eu203 2.473 . S
O219 C202 1.260 . S
O219 Eu203 2.480 . S
O220 Eu203 2.430 . S
O220 C210 1.259 1_655 S
O221 Eu193 2.355 . S
O221 Eu203 2.670 1_455 S
O221 C210 1.270 . S
O222 Eu203 2.394 . S
O222 C211 1.251 . S
O223 Eu193 2.374 1_655 S
O223 C211 1.251 . S
H224 C195 0.931 . S
H225 C196 0.931 . S
H226 C198 0.931 . S
H227 C199 0.931 . S
H228 C205 0.931 . S
H229 C206 0.930 1_554 S
H230 C208 0.931 . S
H231 C209 0.931 . S
H232 C238 0.930 . S
H233 C242 0.930 . S
H234 C247 0.929 . S
H235 C245 0.929 . S
H236 C240 0.929 . S
H237 C246 0.929 . S
C238 H232 0.930 . S
C238 C239 1.391 . S
C238 C246 1.378 . S
C239 C238 1.391 . S
C239 C247 1.409 1_545 S
C240 H236 0.929 . S
C240 C242 1.378 . S
C240 C244 1.379 . S
C241 C244 1.461 1_545 S
C241 C246 1.384 . S
C241 N249 1.392 1_545 S
C242 H233 0.930 . S
C242 C240 1.378 . S
C242 C243 1.385 . S
C243 C242 1.385 . S
C243 C245 1.415 1_565 S
C244 C240 1.379 . S
C244 C241 1.461 1_565 S
C244 N248 1.398 1_565 S
C245 H235 0.929 . S
C245 C243 1.415 1_545 S
C245 N248 1.384 . S
C246 H237 0.929 . S
C246 C238 1.378 . S
C246 C241 1.384 . S
C247 H234 0.929 . S
C247 C239 1.409 1_565 S
C247 N249 1.384 . S
N248 C244 1.398 1_545 S
N248 C245 1.384 . S
N249 C241 1.392 1_565 S
N249 C247 1.384 . S
H250 C256 0.930 . S
H251 C260 0.930 . S
H252 C265 0.929 . S
H253 C263 0.929 . S
H254 C258 0.929 . S
H255 C264 0.929 . S
C256 H250 0.930 . S
C256 C257 1.367 . S
C256 C264 1.378 . S
C257 C256 1.367 . S
C257 C265 1.433 . S
C258 H254 0.929 . S
C258 C260 1.378 . S
C258 C262 1.350 . S
C259 C262 1.463 . S
C259 C264 1.350 . S
C259 N267 1.427 . S
C260 H251 0.930 . S
C260 C258 1.378 . S
C260 C261 1.367 . S
C261 C260 1.367 . S
C261 C263 1.433 . S
C262 C258 1.350 . S
C262 C259 1.463 . S
C262 N266 1.427 . S
C263 H253 0.929 . S
C263 C261 1.433 . S
C263 N266 1.384 . S
C264 H255 0.929 . S
C264 C256 1.378 . S
C264 C259 1.350 . S
C265 H252 0.929 . S
C265 C257 1.433 . S
C265 N267 1.384 . S
N266 C262 1.427 . S
N266 C263 1.384 . S
N267 C259 1.427 . S
N267 C265 1.384 . S
H268 C274 0.930 . S
H269 C278 0.930 . S
H270 C283 0.929 . S
H271 C281 0.929 . S
H272 C276 0.929 . S
H273 C282 0.929 . S
C274 H268 0.930 . S
C274 C275 1.367 . S
C274 C282 1.378 . S
C275 C274 1.367 . S
C275 C283 1.433 . S
C276 H272 0.929 . S
C276 C278 1.378 . S
C276 C280 1.350 . S
C277 C280 1.463 . S
C277 C282 1.350 . S
C277 N285 1.427 . S
C278 H269 0.930 . S
C278 C276 1.378 . S
C278 C279 1.367 . S
C279 C278 1.367 . S
C279 C281 1.433 . S
C280 C276 1.350 . S
C280 C277 1.463 . S
C280 N284 1.427 . S
C281 H271 0.929 . S
C281 C279 1.433 . S
C281 N284 1.384 . S
C282 H273 0.929 . S
C282 C274 1.378 . S
C282 C277 1.350 . S
C283 H270 0.929 . S
C283 C275 1.433 . S
C283 N285 1.384 . S
N284 C280 1.427 . S
N284 C281 1.384 . S
N285 C277 1.427 . S
N285 C283 1.384 . S
H286 C292 0.930 . S
H287 C296 0.930 . S
H288 C301 0.929 . S
H289 C299 0.929 . S
H290 C294 0.929 . S
H291 C300 0.929 . S
C292 H286 0.930 . S
C292 C293 1.374 . S
C292 C300 1.378 . S
C293 C292 1.374 . S
C293 C301 1.427 1_455 S
C294 H290 0.929 . S
C294 C296 1.378 . S
C294 C298 1.341 1_655 S
C295 C298 1.463 . S
C295 C300 1.350 . S
C295 N303 1.427 1_455 S
C296 H287 0.930 . S
C296 C294 1.378 . S
C296 C297 1.367 1_655 S
C297 C296 1.367 1_455 S
C297 C299 1.433 . S
C298 C294 1.341 1_455 S
C298 C295 1.463 . S
C298 N302 1.437 . S
C299 H289 0.929 . S
C299 C297 1.433 . S
C299 N302 1.384 . S
C300 H291 0.929 . S
C300 C292 1.378 . S
C300 C295 1.350 . S
C301 H288 0.929 . S
C301 C293 1.427 1_655 S
C301 N303 1.384 . S
N302 C298 1.437 . S
N302 C299 1.384 . S
N303 C295 1.427 1_655 S
N303 C301 1.384 . S
H304 C310 0.930 . S
H305 C314 0.930 . S
H306 C319 0.929 . S
H307 C317 0.929 . S
H308 C312 0.929 . S
H309 C318 0.929 . S
C310 H304 0.930 . S
C310 C311 1.374 . S
C310 C318 1.378 . S
C311 C310 1.374 . S
C311 C319 1.426 1_565 S
C312 H308 0.929 . S
C312 C314 1.378 1_554 S
C312 C316 1.371 . S
C313 C316 1.462 1_565 S
C313 C318 1.363 . S
C313 N321 1.414 1_565 S
C314 H305 0.930 . S
C314 C312 1.378 1_556 S
C314 C315 1.383 . S
C315 C314 1.383 . S
C315 C317 1.418 1_545 S
C316 C312 1.371 . S
C316 C313 1.462 1_545 S
C316 N320 1.406 1_545 S
C317 H307 0.929 . S
C317 C315 1.418 1_565 S
C317 N320 1.384 1_556 S
C318 H309 0.929 . S
C318 C310 1.378 . S
C318 C313 1.363 . S
C319 H306 0.929 . S
C319 C311 1.426 1_545 S
C319 N321 1.384 . S
N320 C316 1.406 1_565 S
N320 C317 1.384 1_554 S
N321 C313 1.414 1_545 S
N321 C319 1.384 . S
H322 C328 0.930 . S
H323 C332 0.930 . S
H324 C337 0.929 . S
H325 C335 0.929 . S
H326 C330 0.929 . S
H327 C336 0.929 . S
C328 H322 0.930 . S
C328 C329 1.367 . S
C328 C336 1.378 . S
C329 C328 1.367 . S
C329 C337 1.433 . S
C330 H326 0.929 . S
C330 C332 1.378 1_554 S
C330 C334 1.350 . S
C331 C334 1.463 . S
C331 C336 1.350 . S
C331 N339 1.427 . S
C332 H323 0.930 . S
C332 C330 1.378 1_556 S
C332 C333 1.367 . S
C333 C332 1.367 . S
C333 C335 1.433 . S
C334 C330 1.350 . S
C334 C331 1.463 . S
C334 N338 1.427 . S
C335 H325 0.929 . S
C335 C333 1.433 . S
C335 N338 1.384 1_556 S
C336 H327 0.929 . S
C336 C328 1.378 . S
C336 C331 1.350 . S
C337 H324 0.929 . S
C337 C329 1.433 . S
C337 N339 1.384 . S
N338 C334 1.427 . S
N338 C335 1.384 1_554 S
N339 C331 1.427 . S
N339 C337 1.384 . S
H340 C346 0.930 . S
H341 C350 0.930 . S
H342 C355 0.929 . S
H343 C353 0.929 . S
H344 C348 0.929 . S
H345 C354 0.929 . S
C346 H340 0.930 . S
C346 C347 1.367 . S
C346 C354 1.378 . S
C347 C346 1.367 . S
C347 C355 1.433 . S
C348 H344 0.929 . S
C348 C350 1.378 1_554 S
C348 C352 1.350 . S
C349 C352 1.463 . S
C349 C354 1.350 . S
C349 N357 1.427 . S
C350 H341 0.930 . S
C350 C348 1.378 1_556 S
C350 C351 1.367 . S
C351 C350 1.367 . S
C351 C353 1.433 . S
C352 C348 1.350 . S
C352 C349 1.463 . S
C352 N356 1.427 . S
C353 H343 0.929 . S
C353 C351 1.433 . S
C353 N356 1.384 1_556 S
C354 H345 0.929 . S
C354 C346 1.378 . S
C354 C349 1.350 . S
C355 H342 0.929 . S
C355 C347 1.433 . S
C355 N357 1.384 . S
N356 C352 1.427 . S
N356 C353 1.384 1_554 S
N357 C349 1.427 . S
N357 C355 1.384 . S
H358 C364 0.930 . S
H359 C368 0.930 . S
H360 C373 0.929 . S
H361 C371 0.929 . S
H362 C366 0.929 . S
H363 C372 0.929 . S
C364 H358 0.930 . S
C364 C365 1.369 . S
C364 C372 1.378 . S
C365 C364 1.369 . S
C365 C373 1.431 1_655 S
C366 H362 0.929 . S
C366 C368 1.378 1_554 S
C366 C370 1.345 1_455 S
C367 C370 1.463 . S
C367 C372 1.356 . S
C367 N375 1.422 1_655 S
C368 H359 0.930 . S
C368 C366 1.378 1_556 S
C368 C369 1.367 1_455 S
C369 C368 1.367 1_655 S
C369 C371 1.433 . S
C370 C366 1.345 1_655 S
C370 C367 1.463 . S
C370 N374 1.433 1_554 S
C371 H361 0.929 . S
C371 C369 1.433 . S
C371 N374 1.384 . S
C372 H363 0.929 . S
C372 C364 1.378 . S
C372 C367 1.356 . S
C373 H360 0.929 . S
C373 C365 1.431 1_455 S
C373 N375 1.384 . S
N374 C370 1.433 1_556 S
N374 C371 1.384 . S
N375 C367 1.422 1_455 S
N375 C373 1.384 . S
H376 C382 0.930 . S
H377 C386 0.930 . S
H378 C391 0.929 . S
H379 C389 0.929 . S
H380 C384 0.929 . S
H381 C390 0.924 1_455 S
C382 H376 0.930 . S
C382 C383 1.367 . S
C382 C390 1.370 1_455 S
C383 C382 1.367 . S
C383 C391 1.433 1_455 S
C384 H380 0.929 . S
C384 C386 1.378 . S
C384 C388 1.350 . S
C385 C388 1.463 . S
C385 C390 1.363 . S
C385 N393 1.427 . S
C386 H377 0.930 . S
C386 C384 1.378 . S
C386 C387 1.367 . S
C387 C386 1.367 . S
C387 C389 1.433 . S
C388 C384 1.350 . S
C388 C385 1.463 . S
C388 N392 1.427 . S
C389 H379 0.929 . S
C389 C387 1.433 . S
C389 N392 1.384 . S
C390 H381 0.924 1_655 S
C390 C382 1.370 1_655 S
C390 C385 1.363 . S
C391 H378 0.929 . S
C391 C383 1.433 1_655 S
C391 N393 1.384 . S
N392 C388 1.427 . S
N392 C389 1.384 . S
N393 C385 1.427 . S
N393 C391 1.384 . S
H394 C400 0.930 . S
H395 C404 0.930 . S
H396 C409 0.929 . S
H397 C407 0.929 . S
H398 C402 0.929 1_545 S
H399 C408 0.929 . S
C400 H394 0.930 . S
C400 C401 1.367 1_565 S
C400 C408 1.378 . S
C401 C400 1.367 1_545 S
C401 C409 1.433 . S
C402 H398 0.929 1_565 S
C402 C404 1.378 . S
C402 C406 1.350 . S
C403 C406 1.463 . S
C403 C408 1.350 . S
C403 N411 1.427 1_565 S
C404 H395 0.930 . S
C404 C402 1.378 . S
C404 C405 1.367 . S
C405 C404 1.367 . S
C405 C407 1.433 . S
C406 C402 1.350 . S
C406 C403 1.463 . S
C406 N410 1.427 . S
C407 H397 0.929 . S
C407 C405 1.433 . S
C407 N410 1.384 . S
C408 H399 0.929 . S
C408 C400 1.378 . S
C408 C403 1.350 . S
C409 H396 0.929 . S
C409 C401 1.433 . S
C409 N411 1.384 . S
N410 C406 1.427 . S
N410 C407 1.384 . S
N411 C403 1.427 1_545 S
N411 C409 1.384 . S
H412 C418 0.930 . S
H413 C422 0.930 . S
H414 C427 0.929 . S
H415 C425 0.929 . S
H416 C420 0.929 . S
H417 C426 0.929 . S
C418 H412 0.930 . S
C418 C419 1.367 . S
C418 C426 1.378 . S
C419 C418 1.367 . S
C419 C427 1.433 . S
C420 H416 0.929 . S
C420 C422 1.378 . S
C420 C424 1.350 . S
C421 C424 1.463 . S
C421 C426 1.350 . S
C421 N429 1.427 . S
C422 H413 0.930 . S
C422 C420 1.378 . S
C422 C423 1.367 . S
C423 C422 1.367 . S
C423 C425 1.433 . S
C424 C420 1.350 . S
C424 C421 1.463 . S
C424 N428 1.427 . S
C425 H415 0.929 . S
C425 C423 1.433 . S
C425 N428 1.384 . S
C426 H417 0.929 . S
C426 C418 1.378 . S
C426 C421 1.350 . S
C427 H414 0.929 . S
C427 C419 1.433 . S
C427 N429 1.384 . S
N428 C424 1.427 . S
N428 C425 1.384 . S
N429 C421 1.427 . S
N429 C427 1.384 . S
H430 C436 0.930 . S
H431 C440 0.930 . S
H432 C445 0.929 . S
H433 C443 0.929 . S
H434 C438 0.929 . S
H435 C444 0.929 . S
C436 H430 0.930 . S
C436 C437 1.367 . S
C436 C444 1.378 . S
C437 C436 1.367 . S
C437 C445 1.433 . S
C438 H434 0.929 . S
C438 C440 1.378 . S
C438 C442 1.350 . S
C439 C442 1.463 . S
C439 C444 1.350 . S
C439 N447 1.427 . S
C440 H431 0.930 . S
C440 C438 1.378 . S
C440 C441 1.367 . S
C441 C440 1.367 . S
C441 C443 1.433 . S
C442 C438 1.350 . S
C442 C439 1.463 . S
C442 N446 1.427 . S
C443 H433 0.929 . S
C443 C441 1.433 . S
C443 N446 1.384 . S
C444 H435 0.929 . S
C444 C436 1.378 . S
C444 C439 1.350 . S
C445 H432 0.929 . S
C445 C437 1.433 . S
C445 N447 1.384 . S
N446 C442 1.427 . S
N446 C443 1.384 . S
N447 C439 1.427 . S
N447 C445 1.384 . S
H448 C454 0.930 . S
H449 C458 0.930 1_556 S
H450 C463 0.929 . S
H451 C461 0.929 . S
H452 C456 0.929 . S
H453 C462 0.929 . S
C454 H448 0.930 . S
C454 C455 1.367 1_455 S
C454 C462 1.378 . S
C455 C454 1.367 1_655 S
C455 C463 1.433 . S
C456 H452 0.929 . S
C456 C458 1.378 . S
C456 C460 1.350 . S
C457 C460 1.463 . S
C457 C462 1.350 . S
C457 N465 1.427 1_455 S
C458 H449 0.930 1_554 S
C458 C456 1.378 . S
C458 C459 1.367 . S
C459 C458 1.367 . S
C459 C461 1.433 . S
C460 C456 1.350 . S
C460 C457 1.463 . S
C460 N464 1.427 . S
C461 H451 0.929 . S
C461 C459 1.433 . S
C461 N464 1.384 . S
C462 H453 0.929 . S
C462 C454 1.378 . S
C462 C457 1.350 . S
C463 H450 0.929 . S
C463 C455 1.433 . S
C463 N465 1.384 . S
N464 C460 1.427 . S
N464 C461 1.384 . S
N465 C457 1.427 1_655 S
N465 C463 1.384 . S
H466 C472 0.930 . S
H467 C476 0.930 . S
H468 C481 0.929 . S
H469 C479 0.929 1_556 S
H470 C474 0.929 . S
H471 C480 0.929 . S
C472 H466 0.930 . S
C472 C473 1.367 . S
C472 C480 1.378 . S
C473 C472 1.367 . S
C473 C481 1.433 1_565 S
C474 H470 0.929 . S
C474 C476 1.378 . S
C474 C478 1.350 . S
C475 C478 1.463 . S
C475 C480 1.350 1_545 S
C475 N483 1.427 . S
C476 H467 0.930 . S
C476 C474 1.378 . S
C476 C477 1.367 . S
C477 C476 1.367 . S
C477 C479 1.433 . S
C478 C474 1.350 . S
C478 C475 1.463 . S
C478 N482 1.427 . S
C479 H469 0.929 1_554 S
C479 C477 1.433 . S
C479 N482 1.384 . S
C480 H471 0.929 . S
C480 C472 1.378 . S
C480 C475 1.350 1_565 S
C481 H468 0.929 . S
C481 C473 1.433 1_545 S
C481 N483 1.384 . S
N482 C478 1.427 . S
N482 C479 1.384 . S
N483 C475 1.427 . S
N483 C481 1.384 . S
H484 C490 0.930 . S
H485 C494 0.930 1_556 S
H486 C499 0.929 . S
H487 C497 0.929 . S
H488 C492 0.929 . S
H489 C498 0.929 . S
C490 H484 0.930 . S
C490 C491 1.367 . S
C490 C498 1.378 . S
C491 C490 1.367 . S
C491 C499 1.433 . S
C492 H488 0.929 . S
C492 C494 1.378 . S
C492 C496 1.350 . S
C493 C496 1.463 . S
C493 C498 1.350 . S
C493 N501 1.427 . S
C494 H485 0.930 1_554 S
C494 C492 1.378 . S
C494 C495 1.367 . S
C495 C494 1.367 . S
C495 C497 1.433 . S
C496 C492 1.350 . S
C496 C493 1.463 . S
C496 N500 1.427 . S
C497 H487 0.929 . S
C497 C495 1.433 . S
C497 N500 1.384 . S
C498 H489 0.929 . S
C498 C490 1.378 . S
C498 C493 1.350 . S
C499 H486 0.929 . S
C499 C491 1.433 . S
C499 N501 1.384 . S
N500 C496 1.427 . S
N500 C497 1.384 . S
N501 C493 1.427 . S
N501 C499 1.384 . S
H502 C508 0.930 . S
H503 C512 0.930 . S
H504 C517 0.929 . S
H505 C515 0.929 1_556 S
H506 C510 0.929 . S
H507 C516 0.929 . S
C508 H502 0.930 . S
C508 C509 1.367 . S
C508 C516 1.378 . S
C509 C508 1.367 . S
C509 C517 1.433 . S
C510 H506 0.929 . S
C510 C512 1.378 . S
C510 C514 1.350 . S
C511 C514 1.463 . S
C511 C516 1.350 . S
C511 N519 1.427 . S
C512 H503 0.930 . S
C512 C510 1.378 . S
C512 C513 1.367 . S
C513 C512 1.367 . S
C513 C515 1.433 . S
C514 C510 1.350 . S
C514 C511 1.463 . S
C514 N518 1.427 . S
C515 H505 0.929 1_554 S
C515 C513 1.433 . S
C515 N518 1.384 . S
C516 H507 0.929 . S
C516 C508 1.378 . S
C516 C511 1.350 . S
C517 H504 0.929 . S
C517 C509 1.433 . S
C517 N519 1.384 . S
N518 C514 1.427 . S
N518 C515 1.384 . S
N519 C511 1.427 . S
N519 C517 1.384 . S
H520 C526 0.930 . S
H521 C530 0.930 . S
H522 C535 0.929 . S
H523 C533 0.929 . S
H524 C528 0.929 . S
H525 C534 0.929 . S
C526 H520 0.930 . S
C526 C527 1.367 1_655 S
C526 C534 1.378 . S
C527 C526 1.367 1_455 S
C527 C535 1.433 . S
C528 H524 0.929 . S
C528 C530 1.378 . S
C528 C532 1.350 . S
C529 C532 1.463 . S
C529 C534 1.350 1_455 S
C529 N537 1.427 . S
C530 H521 0.930 . S
C530 C528 1.378 . S
C530 C531 1.367 . S
C531 C530 1.367 . S
C531 C533 1.433 1_455 S
C532 C528 1.350 . S
C532 C529 1.463 . S
C532 N536 1.427 1_455 S
C533 H523 0.929 . S
C533 C531 1.433 1_655 S
C533 N536 1.384 . S
C534 H525 0.929 . S
C534 C526 1.378 . S
C534 C529 1.350 1_655 S
C535 H522 0.929 . S
C535 C527 1.433 . S
C535 N537 1.384 . S
N536 C532 1.427 1_655 S
N536 C533 1.384 . S
N537 C529 1.427 . S
N537 C535 1.384 . S
H538 C544 0.930 . S
H539 C548 0.930 . S
H540 C553 0.929 . S
H541 C551 0.929 . S
H542 C546 0.929 . S
H543 C552 0.929 . S
C544 H538 0.930 . S
C544 C545 1.367 . S
C544 C552 1.378 . S
C545 C544 1.367 . S
C545 C553 1.433 1_545 S
C546 H542 0.929 . S
C546 C548 1.378 . S
C546 C550 1.350 1_565 S
C547 C550 1.463 . S
C547 C552 1.350 . S
C547 N555 1.427 1_545 S
C548 H539 0.930 . S
C548 C546 1.378 . S
C548 C549 1.367 1_565 S
C549 C548 1.367 1_545 S
C549 C551 1.433 . S
C550 C546 1.350 1_545 S
C550 C547 1.463 . S
C550 N554 1.427 . S
C551 H541 0.929 . S
C551 C549 1.433 . S
C551 N554 1.384 . S
C552 H543 0.929 . S
C552 C544 1.378 . S
C552 C547 1.350 . S
C553 H540 0.929 . S
C553 C545 1.433 1_565 S
C553 N555 1.384 . S
N554 C550 1.427 . S
N554 C551 1.384 . S
N555 C547 1.427 1_565 S
N555 C553 1.384 . S
H556 C562 0.930 . S
H557 C566 0.930 . S
H558 C571 0.929 . S
H559 C569 0.929 . S
H560 C564 0.929 . S
H561 C570 0.929 . S
C562 H556 0.930 . S
C562 C563 1.367 . S
C562 C570 1.378 . S
C563 C562 1.367 . S
C563 C571 1.433 . S
C564 H560 0.929 . S
C564 C566 1.378 . S
C564 C568 1.350 . S
C565 C568 1.463 . S
C565 C570 1.350 . S
C565 N573 1.427 . S
C566 H557 0.930 . S
C566 C564 1.378 . S
C566 C567 1.367 . S
C567 C566 1.367 . S
C567 C569 1.433 . S
C568 C564 1.350 . S
C568 C565 1.463 . S
C568 N572 1.427 . S
C569 H559 0.929 . S
C569 C567 1.433 . S
C569 N572 1.384 . S
C570 H561 0.929 . S
C570 C562 1.378 . S
C570 C565 1.350 . S
C571 H558 0.929 . S
C571 C563 1.433 . S
C571 N573 1.384 . S
N572 C568 1.427 . S
N572 C569 1.384 . S
N573 C565 1.427 . S
N573 C571 1.384 . S
H574 C580 0.930 . S
H575 C584 0.930 . S
H576 C589 0.929 . S
H577 C587 0.929 . S
H578 C582 0.929 . S
H579 C588 0.929 . S
C580 H574 0.930 . S
C580 C581 1.367 . S
C580 C588 1.378 . S
C581 C580 1.367 . S
C581 C589 1.433 . S
C582 H578 0.929 . S
C582 C584 1.378 . S
C582 C586 1.350 . S
C583 C586 1.463 . S
C583 C588 1.350 . S
C583 N591 1.427 . S
C584 H575 0.930 . S
C584 C582 1.378 . S
C584 C585 1.367 . S
C585 C584 1.367 . S
C585 C587 1.433 . S
C586 C582 1.350 . S
C586 C583 1.463 . S
C586 N590 1.427 . S
C587 H577 0.929 . S
C587 C585 1.433 . S
C587 N590 1.384 . S
C588 H579 0.929 . S
C588 C580 1.378 . S
C588 C583 1.350 . S
C589 H576 0.929 . S
C589 C581 1.433 . S
C589 N591 1.384 . S
N590 C586 1.427 . S
N590 C587 1.384 . S
N591 C583 1.427 . S
N591 C589 1.384 . S
H592 C598 0.930 . S
H593 C602 0.930 . S
H594 C607 0.929 . S
H595 C605 0.929 . S
H596 C600 0.929 . S
H597 C606 0.929 . S
C598 H592 0.930 . S
C598 C599 1.367 1_455 S
C598 C606 1.378 . S
C599 C598 1.367 1_655 S
C599 C607 1.433 . S
C600 H596 0.929 . S
C600 C602 1.378 . S
C600 C604 1.350 . S
C601 C604 1.463 . S
C601 C606 1.350 1_655 S
C601 N609 1.427 . S
C602 H593 0.930 . S
C602 C600 1.378 . S
C602 C603 1.367 . S
C603 C602 1.367 . S
C603 C605 1.433 1_655 S
C604 C600 1.350 . S
C604 C601 1.463 . S
C604 N608 1.427 1_655 S
C605 H595 0.929 . S
C605 C603 1.433 1_455 S
C605 N608 1.384 . S
C606 H597 0.929 . S
C606 C598 1.378 . S
C606 C601 1.350 1_455 S
C607 H594 0.929 . S
C607 C599 1.433 . S
C607 N609 1.384 . S
N608 C604 1.427 1_455 S
N608 C605 1.384 . S
N609 C601 1.427 . S
N609 C607 1.384 . S
H610 C616 0.930 . S
H611 C620 0.930 . S
H612 C625 0.929 . S
H613 C623 0.929 . S
H614 C618 0.929 . S
H615 C624 0.929 . S
C616 H610 0.930 . S
C616 C617 1.367 1_545 S
C616 C624 1.378 . S
C617 C616 1.367 1_565 S
C617 C625 1.433 . S
C618 H614 0.929 . S
C618 C620 1.378 . S
C618 C622 1.350 . S
C619 C622 1.463 . S
C619 C624 1.350 1_565 S
C619 N627 1.427 . S
C620 H611 0.930 . S
C620 C618 1.378 . S
C620 C621 1.367 . S
C621 C620 1.367 . S
C621 C623 1.433 1_565 S
C622 C618 1.350 . S
C622 C619 1.463 . S
C622 N626 1.427 1_565 S
C623 H613 0.929 . S
C623 C621 1.433 1_545 S
C623 N626 1.384 . S
C624 H615 0.929 . S
C624 C616 1.378 . S
C624 C619 1.350 1_545 S
C625 H612 0.929 . S
C625 C617 1.433 . S
C625 N627 1.384 . S
N626 C622 1.427 1_545 S
N626 C623 1.384 . S
N627 C619 1.427 . S
N627 C625 1.384 . S
H628 C634 0.930 . S
H629 C638 0.930 . S
H630 C643 0.929 . S
H631 C641 0.929 . S
H632 C636 0.929 . S
H633 C642 0.929 . S
C634 H628 0.930 . S
C634 C635 1.367 . S
C634 C642 1.378 . S
C635 C634 1.367 . S
C635 C643 1.433 . S
C636 H632 0.929 . S
C636 C638 1.378 . S
C636 C640 1.350 . S
C637 C640 1.463 . S
C637 C642 1.350 . S
C637 N645 1.427 . S
C638 H629 0.930 . S
C638 C636 1.378 . S
C638 C639 1.367 . S
C639 C638 1.367 . S
C639 C641 1.433 . S
C640 C636 1.350 . S
C640 C637 1.463 . S
C640 N644 1.427 . S
C641 H631 0.929 . S
C641 C639 1.433 . S
C641 N644 1.384 . S
C642 H633 0.929 . S
C642 C634 1.378 . S
C642 C637 1.350 . S
C643 H630 0.929 . S
C643 C635 1.433 . S
C643 N645 1.384 . S
N644 C640 1.427 . S
N644 C641 1.384 . S
N645 C637 1.427 . S
N645 C643 1.384 . S
H646 C652 0.930 . S
H647 C656 0.930 . S
H648 C661 0.929 . S
H649 C659 0.929 . S
H650 C654 0.929 . S
H651 C660 0.929 . S
C652 H646 0.930 . S
C652 C653 1.367 . S
C652 C660 1.378 . S
C653 C652 1.367 . S
C653 C661 1.433 . S
C654 H650 0.929 . S
C654 C656 1.378 . S
C654 C658 1.350 . S
C655 C658 1.463 . S
C655 C660 1.350 . S
C655 N663 1.427 . S
C656 H647 0.930 . S
C656 C654 1.378 . S
C656 C657 1.367 . S
C657 C656 1.367 . S
C657 C659 1.433 . S
C658 C654 1.350 . S
C658 C655 1.463 . S
C658 N662 1.427 . S
C659 H649 0.929 . S
C659 C657 1.433 . S
C659 N662 1.384 . S
C660 H651 0.929 . S
C660 C652 1.378 . S
C660 C655 1.350 . S
C661 H648 0.929 . S
C661 C653 1.433 . S
C661 N663 1.384 . S
N662 C658 1.427 . S
N662 C659 1.384 . S
N663 C655 1.427 . S
N663 C661 1.384 . S
C239 C61 1.816 1_545 S
C243 C90 1.965 . S
C261 C130 1.989 . S
C257 C70 1.839 . S
C279 C170 1.996 . S
C275 C43 1.853 . S
C297 C210 1.983 . S
C293 C52 1.823 1_455 S
C315 C80 1.969 . S
C311 C25 1.814 . S
C329 C34 1.856 . S
C333 C120 1.990 . S
C347 C7 1.845 . S
C351 C160 1.996 . S
C365 C16 1.823 . S
C369 C200 1.983 1_655 S
C387 C77 0.490 . S
C383 C50 0.442 1_455 S
C405 C117 0.459 . S
C401 C59 0.440 1_545 S
C423 C157 0.482 . S
C419 C67 0.438 . S
C437 C41 0.428 . S
C441 C197 0.450 . S
C455 C14 0.425 . S
C459 C87 0.465 . S
C477 C127 0.497 . S
C473 C23 0.462 . S
C495 C167 0.468 . S
C491 C31 0.433 . S
C509 C5 0.436 . S
C513 C207 0.471 . S
C527 C49 2.051 1_455 S
C531 C81 2.279 . S
C545 C58 1.999 1_545 S
C549 C121 2.222 . S
C567 C161 2.199 . S
C563 C68 1.982 . S
C585 C201 2.257 . S
C581 C40 2.031 . S
C599 C13 2.061 . S
C603 C91 2.286 . S
C621 C131 2.229 . S
C617 C22 2.006 . S
C639 C171 2.200 . S
C635 C32 1.985 . S
C653 C4 2.021 . S
C657 C211 2.260 . S
