# Generated by pormake.
# Topology llj, (12,3)-cn, num edge types: 1
# Building blocks:
#     Node 0, Type 0, BuildingBlock: QEWDON_clean_sbu_0, # of connection points: 12
#     Node 1, Type 0, BuildingBlock: QEWDON_clean_sbu_0, # of connection points: 12
#     Node 2, Type 1, BuildingBlock: KAKCAD_clean_linker_0, # of connection points: 3
#     Node 3, Type 1, BuildingBlock: KAKCAD_clean_linker_0, # of connection points: 3
#     Node 4, Type 1, BuildingBlock: KAKCAD_clean_linker_0, # of connection points: 3
#     Node 5, Type 1, BuildingBlock: KAKCAD_clean_linker_0, # of connection points: 3
#     Node 6, Type 1, BuildingBlock: KAKCAD_clean_linker_0, # of connection points: 3
#     Node 7, Type 1, BuildingBlock: KAKCAD_clean_linker_0, # of connection points: 3
#     Node 8, Type 1, BuildingBlock: KAKCAD_clean_linker_0, # of connection points: 3
#     Node 9, Type 1, BuildingBlock: KAKCAD_clean_linker_0, # of connection points: 3
#     Edge 10, Type (0, 1), BuildingBlock: MIFKUJ_clean_linker_0, # of connection points: 2
#     Edge 11, Type (0, 1), BuildingBlock: MIFKUJ_clean_linker_0, # of connection points: 2
#     Edge 12, Type (0, 1), BuildingBlock: MIFKUJ_clean_linker_0, # of connection points: 2
#     Edge 13, Type (0, 1), BuildingBlock: MIFKUJ_clean_linker_0, # of connection points: 2
#     Edge 14, Type (0, 1), BuildingBlock: MIFKUJ_clean_linker_0, # of connection points: 2
#     Edge 15, Type (0, 1), BuildingBlock: MIFKUJ_clean_linker_0, # of connection points: 2
#     Edge 16, Type (0, 1), BuildingBlock: MIFKUJ_clean_linker_0, # of connection points: 2
#     Edge 17, Type (0, 1), BuildingBlock: MIFKUJ_clean_linker_0, # of connection points: 2
#     Edge 18, Type (0, 1), BuildingBlock: MIFKUJ_clean_linker_0, # of connection points: 2
#     Edge 19, Type (0, 1), BuildingBlock: MIFKUJ_clean_linker_0, # of connection points: 2
#     Edge 20, Type (0, 1), BuildingBlock: MIFKUJ_clean_linker_0, # of connection points: 2
#     Edge 21, Type (0, 1), BuildingBlock: MIFKUJ_clean_linker_0, # of connection points: 2
#     Edge 22, Type (0, 1), BuildingBlock: MIFKUJ_clean_linker_0, # of connection points: 2
#     Edge 23, Type (0, 1), BuildingBlock: MIFKUJ_clean_linker_0, # of connection points: 2
#     Edge 24, Type (0, 1), BuildingBlock: MIFKUJ_clean_linker_0, # of connection points: 2
#     Edge 25, Type (0, 1), BuildingBlock: MIFKUJ_clean_linker_0, # of connection points: 2
#     Edge 26, Type (0, 1), BuildingBlock: MIFKUJ_clean_linker_0, # of connection points: 2
#     Edge 27, Type (0, 1), BuildingBlock: MIFKUJ_clean_linker_0, # of connection points: 2
#     Edge 28, Type (0, 1), BuildingBlock: MIFKUJ_clean_linker_0, # of connection points: 2
#     Edge 29, Type (0, 1), BuildingBlock: MIFKUJ_clean_linker_0, # of connection points: 2
#     Edge 30, Type (0, 1), BuildingBlock: MIFKUJ_clean_linker_0, # of connection points: 2
#     Edge 31, Type (0, 1), BuildingBlock: MIFKUJ_clean_linker_0, # of connection points: 2
#     Edge 32, Type (0, 1), BuildingBlock: MIFKUJ_clean_linker_0, # of connection points: 2
#     Edge 33, Type (0, 1), BuildingBlock: MIFKUJ_clean_linker_0, # of connection points: 2
# Relax obj value: 0.011
# Max RMSD: 0.050
# Mean RMSD: 0.047
data_MOF--net-llj--node1-QEWDON_clean_sbu_0--node2-KAKCAD_clean_linker_0--edge1-MIFKUJ_clean_linker_0
_symmetry_space_group_name_H-M    P1
_symmetry_Int_Tables_number       1
_symmetry_cell_setting            triclinic
loop_
_symmetry_equiv_pos_as_xyz
'x, y, z'
_cell_length_a     55.23171
_cell_length_b     55.224047
_cell_length_c     38.628568
_cell_angle_alpha  89.940907
_cell_angle_beta   90.023692
_cell_angle_gamma 89.939333
loop_
_atom_site_label
_atom_site_type_symbol
_atom_site_fract_x
_atom_site_fract_y
_atom_site_fract_z
_atom_type_partial_charge
Zn0 Zn 0.95982 0.04264 0.97796 0.0
Zn1 Zn 0.96407 0.03793 0.06005 0.0
O2 O 0.98328 0.03485 0.01654 0.0
H3 H 0.9974 0.02472 0.01366 0.0
C4 C 0.93568 0.98255 0.93112 0.0
O5 O 0.9522 0.99527 0.94743 0.0
Zn6 Zn 0.0497 0.95771 0.04913 0.0
Zn7 Zn 0.04512 0.94735 0.96877 0.0
O8 O 0.02628 0.95966 0.01009 0.0
H9 H 0.01311 0.97113 0.00866 0.0
Zn10 Zn 0.9492 0.94819 0.98435 0.0
O11 O 0.95705 0.97275 0.02136 0.0
Zn12 Zn 0.9627 0.95282 0.06378 0.0
H13 H 0.96506 0.98783 0.016 0.0
Zn14 Zn 0.05587 0.05513 0.97397 0.0
O15 O 0.05048 0.02829 0.00866 0.0
H16 H 0.04271 0.01312 0.003 0.0
Zn17 Zn 0.05128 0.04421 0.05488 0.0
C18 C 0.08832 0.02839 0.93048 0.0
O19 O 0.09576 0.02174 0.96138 0.0
O20 O 0.92892 0.06024 0.9942 0.0
O21 O 0.93239 0.05528 0.05109 0.0
O22 O 0.07519 0.92706 0.98151 0.0
O23 O 0.0778 0.93584 0.03755 0.0
O24 O 0.93686 0.91617 0.00426 0.0
O25 O 0.9444 0.92088 0.06036 0.0
C26 C 0.00544 0.06014 0.09126 0.0
O27 O 0.06975 0.0861 0.99603 0.0
O28 O 0.06762 0.07706 0.05214 0.0
O29 O 0.02461 0.93746 0.92646 0.0
C30 C 0.92094 0.06334 0.02483 0.0
O31 O 0.97456 0.05323 0.93133 0.0
C32 C 0.011 0.94311 0.0931 0.0
O33 O 0.931 0.96128 0.94154 0.0
C34 C 0.08562 0.92485 0.01079 0.0
O35 O 0.07101 0.04348 0.92805 0.0
C36 C 0.95081 0.99393 0.1041 0.0
O37 O 0.98257 0.05861 0.09362 0.0
O38 O 0.0163 0.04692 0.06929 0.0
C39 C 0.93572 0.90856 0.03534 0.0
O40 O 0.03386 0.94482 0.09217 0.0
O41 O 0.99877 0.94906 0.06665 0.0
C42 C 0.06872 0.00034 0.08524 0.0
O43 O 0.95071 0.97098 0.10584 0.0
O44 O 0.95936 0.00383 0.07709 0.0
C45 C 0.07353 0.09145 0.02767 0.0
O46 O 0.0691 0.02309 0.08921 0.0
O47 O 0.05944 0.99178 0.0579 0.0
C48 C 0.00288 0.93111 0.93225 0.0
O49 O 0.99493 0.93082 0.9643 0.0
C50 C 0.99133 0.04164 0.91606 0.0
O51 O 0.00014 0.0219 0.93032 0.0
Zn52 Zn 0.46659 0.53554 0.48122 0.0
Zn53 Zn 0.46363 0.53634 0.56298 0.0
O54 O 0.48703 0.53251 0.52425 0.0
H55 H 0.50224 0.52387 0.52477 0.0
C56 C 0.41983 0.48537 0.4514 0.0
O57 O 0.41413 0.48746 0.48429 0.0
Zn58 Zn 0.53709 0.46347 0.58493 0.0
Zn59 Zn 0.53932 0.46108 0.50293 0.0
O60 O 0.51771 0.46978 0.54277 0.0
H61 H 0.50533 0.48214 0.54186 0.0
Zn62 Zn 0.44937 0.44894 0.48171 0.0
O63 O 0.45846 0.47041 0.52114 0.0
Zn64 Zn 0.45296 0.45224 0.56495 0.0
H65 H 0.4663 0.48586 0.5178 0.0
Zn66 Zn 0.54442 0.53572 0.48817 0.0
O67 O 0.55145 0.51604 0.53144 0.0
H68 H 0.56033 0.50098 0.53202 0.0
Zn69 Zn 0.55062 0.54131 0.56858 0.0
C70 C 0.56107 0.49963 0.43956 0.0
O71 O 0.57156 0.49219 0.46816 0.0
O72 O 0.43562 0.55528 0.48973 0.0
O73 O 0.43408 0.5558 0.54739 0.0
O74 O 0.56766 0.43905 0.51783 0.0
O75 O 0.56468 0.43996 0.57531 0.0
O76 O 0.43085 0.41885 0.49818 0.0
O77 O 0.4345 0.4212 0.55555 0.0
C78 C 0.5028 0.5547 0.60469 0.0
O79 O 0.56092 0.56899 0.49201 0.0
O80 O 0.5659 0.57184 0.54904 0.0
O81 O 0.52077 0.45174 0.45867 0.0
C82 C 0.42547 0.56175 0.51786 0.0
O83 O 0.48628 0.54471 0.43808 0.0
C84 C 0.49298 0.44686 0.61544 0.0
O85 O 0.43473 0.46904 0.4422 0.0
C86 C 0.57486 0.4323 0.54769 0.0
O87 O 0.54755 0.51824 0.44071 0.0
C88 C 0.43901 0.49519 0.59748 0.0
O89 O 0.47986 0.55291 0.60339 0.0
O90 O 0.51515 0.54557 0.58019 0.0
C91 C 0.42665 0.41056 0.52841 0.0
O92 O 0.51497 0.45121 0.62258 0.0
O93 O 0.4862 0.44818 0.58416 0.0
C94 C 0.56569 0.50618 0.61456 0.0
O95 O 0.43421 0.47277 0.59869 0.0
O96 O 0.45379 0.50268 0.57488 0.0
C97 C 0.56859 0.58035 0.51853 0.0
O98 O 0.56985 0.52852 0.60964 0.0
O99 O 0.54955 0.49647 0.59586 0.0
C100 C 0.50339 0.43701 0.46298 0.0
O101 O 0.49869 0.42904 0.49433 0.0
C102 C 0.50216 0.5609 0.4433 0.0
O103 O 0.50441 0.57009 0.4745 0.0
C104 C 0.37638 0.32614 0.92108 0.0
C105 C 0.4007 0.331 0.91326 0.0
C106 C 0.37032 0.31343 0.95112 0.0
C107 C 0.38849 0.30503 0.97372 0.0
C108 C 0.41288 0.30939 0.96527 0.0
C109 C 0.4189 0.32237 0.93546 0.0
C110 C 0.38196 0.29276 0.00671 0.0
C111 C 0.36192 0.27718 0.00832 0.0
C112 C 0.35428 0.26733 0.04 0.0
C113 C 0.36769 0.2722 0.07006 0.0
C114 C 0.38786 0.28767 0.06905 0.0
C115 C 0.39479 0.2979 0.03724 0.0
C116 C 0.40045 0.29481 0.10151 0.0
C117 C 0.38713 0.299 0.13197 0.0
C118 C 0.42562 0.29877 0.10192 0.0
C119 C 0.43702 0.30754 0.13168 0.0
C120 C 0.42353 0.31212 0.16175 0.0
C121 C 0.33109 0.25389 0.04227 0.0
C122 C 0.31067 0.26232 0.02418 0.0
C123 C 0.32871 0.23353 0.06389 0.0
C124 C 0.30629 0.22211 0.06771 0.0
C125 C 0.28581 0.23083 0.05 0.0
C126 C 0.28834 0.2509 0.02791 0.0
C127 C 0.39858 0.30739 0.1618 0.0
H128 H 0.36202 0.33282 0.90452 0.0
H129 H 0.35135 0.31085 0.95708 0.0
H130 H 0.42734 0.30283 0.98175 0.0
H131 H 0.43781 0.32564 0.92971 0.0
H132 H 0.35199 0.27292 0.98491 0.0
H133 H 0.40945 0.3109 0.03656 0.0
H134 H 0.36186 0.26464 0.09455 0.0
H135 H 0.36767 0.29669 0.13251 0.0
H136 H 0.4365 0.29537 0.07911 0.0
H137 H 0.45633 0.31092 0.13114 0.0
H138 H 0.31176 0.27817 0.00771 0.0
H139 H 0.34415 0.2265 0.07799 0.0
H140 H 0.38771 0.31115 0.18452 0.0
H141 H 0.27303 0.2578 0.0134 0.0
H142 H 0.30491 0.20673 0.08501 0.0
C143 C 0.69546 0.36356 0.89566 0.0
C144 C 0.69416 0.38839 0.8878 0.0
C145 C 0.70262 0.35582 0.92854 0.0
C146 C 0.70879 0.37274 0.95425 0.0
C147 C 0.70837 0.39752 0.94597 0.0
C148 C 0.70106 0.40526 0.91319 0.0
C149 C 0.71454 0.36464 0.99001 0.0
C150 C 0.7282 0.34356 0.99576 0.0
C151 C 0.73265 0.33524 0.0295 0.0
C152 C 0.72378 0.34849 0.05776 0.0
C153 C 0.7098 0.36947 0.05258 0.0
C154 C 0.70532 0.37738 0.01859 0.0
C155 C 0.69867 0.38234 0.08242 0.0
C156 C 0.68915 0.36919 0.11049 0.0
C157 C 0.69669 0.40775 0.08257 0.0
C158 C 0.68512 0.41967 0.10986 0.0
C159 C 0.67558 0.40645 0.13774 0.0
C160 C 0.74537 0.31196 0.03513 0.0
C161 C 0.73852 0.29137 0.01621 0.0
C162 C 0.76392 0.30997 0.05988 0.0
C163 C 0.77552 0.28779 0.0654 0.0
C164 C 0.76854 0.26717 0.04659 0.0
C165 C 0.74992 0.26918 0.02198 0.0
C166 C 0.67786 0.38113 0.13791 0.0
H167 H 0.69057 0.35008 0.87657 0.0
H168 H 0.70255 0.3366 0.9341 0.0
H169 H 0.71335 0.411 0.96503 0.0
H170 H 0.70002 0.42453 0.90819 0.0
H171 H 0.73546 0.33358 0.97395 0.0
H172 H 0.69371 0.39293 0.01428 0.0
H173 H 0.72728 0.34207 0.0838 0.0
H174 H 0.68985 0.3496 0.11094 0.0
H175 H 0.70412 0.41847 0.06164 0.0
H176 H 0.68381 0.43924 0.10932 0.0
H177 H 0.7241 0.29236 0.99725 0.0
H178 H 0.76957 0.32561 0.07472 0.0
H179 H 0.67036 0.37048 0.15889 0.0
H180 H 0.74437 0.25364 0.00686 0.0
H181 H 0.78977 0.28668 0.08461 0.0
C182 C 0.60738 0.69711 0.14515 0.0
C183 C 0.60512 0.67173 0.14514 0.0
C184 C 0.61352 0.70947 0.11484 0.0
C185 C 0.61727 0.69672 0.08389 0.0
C186 C 0.61474 0.67143 0.08374 0.0
C187 C 0.60882 0.65905 0.11405 0.0
C188 C 0.62488 0.7095 0.05205 0.0
C189 C 0.64409 0.726 0.05311 0.0
C190 C 0.65317 0.73636 0.02255 0.0
C191 C 0.64263 0.73008 0.99062 0.0
C192 C 0.62325 0.71359 0.98917 0.0
C193 C 0.61427 0.70378 0.02019 0.0
C194 C 0.61322 0.70536 0.95544 0.0
C195 C 0.61043 0.72143 0.9274 0.0
C196 C 0.60642 0.681 0.9511 0.0
C197 C 0.59654 0.67304 0.91997 0.0
C198 C 0.59359 0.6891 0.89216 0.0
C199 C 0.67493 0.75205 0.02422 0.0
C200 C 0.67758 0.76899 0.05111 0.0
C201 C 0.69403 0.74885 0.00064 0.0
C202 C 0.71562 0.7617 0.00459 0.0
C203 C 0.71857 0.77792 0.03227 0.0
C204 C 0.69921 0.78173 0.05517 0.0
C205 C 0.60085 0.71332 0.89592 0.0
H206 H 0.60422 0.70747 0.1685 0.0
H207 H 0.61521 0.72901 0.11554 0.0
H208 H 0.61796 0.66112 0.06034 0.0
H209 H 0.60762 0.63949 0.11324 0.0
H210 H 0.65286 0.72972 0.07764 0.0
H211 H 0.59907 0.69138 0.01964 0.0
H212 H 0.64996 0.73753 0.96689 0.0
H213 H 0.61532 0.74033 0.9299 0.0
H214 H 0.60897 0.6679 0.97166 0.0
H215 H 0.59154 0.65416 0.91745 0.0
H216 H 0.66303 0.77212 0.06938 0.0
H217 H 0.69272 0.73568 0.97997 0.0
H218 H 0.59871 0.72601 0.87473 0.0
H219 H 0.70085 0.79443 0.07638 0.0
H220 H 0.73033 0.75825 0.98673 0.0
C221 C 0.28386 0.58635 0.14482 0.0
C222 C 0.30843 0.58125 0.15115 0.0
C223 C 0.27645 0.5954 0.11269 0.0
C224 C 0.29343 0.59929 0.08621 0.0
C225 C 0.31784 0.59361 0.09221 0.0
C226 C 0.32528 0.58482 0.12433 0.0
C227 C 0.28625 0.61093 0.05324 0.0
C228 C 0.27233 0.63217 0.0537 0.0
C229 C 0.26801 0.64516 0.02309 0.0
C230 C 0.27746 0.6365 0.99172 0.0
C231 C 0.29114 0.61503 0.99064 0.0
C232 C 0.2952 0.60224 0.0216 0.0
C233 C 0.30237 0.60686 0.95762 0.0
C234 C 0.29033 0.61008 0.92584 0.0
C235 C 0.32566 0.59656 0.9575 0.0
C236 C 0.33668 0.58981 0.92648 0.0
C237 C 0.32492 0.59361 0.89463 0.0
C238 C 0.25502 0.66861 0.02436 0.0
C239 C 0.23383 0.67113 0.04414 0.0
C240 C 0.26418 0.68883 0.00661 0.0
C241 C 0.25249 0.71117 0.00877 0.0
C242 C 0.23137 0.71374 0.02868 0.0
C243 C 0.22208 0.69347 0.04621 0.0
C244 C 0.30154 0.60372 0.89473 0.0
H245 H 0.27036 0.58348 0.16472 0.0
H246 H 0.25748 0.59952 0.10861 0.0
H247 H 0.33139 0.59687 0.07247 0.0
H248 H 0.34441 0.5816 0.12844 0.0
H249 H 0.26605 0.63937 0.07821 0.0
H250 H 0.30557 0.58557 0.02131 0.0
H251 H 0.2746 0.64689 0.96827 0.0
H252 H 0.27223 0.61761 0.92489 0.0
H253 H 0.33571 0.59412 0.98132 0.0
H254 H 0.35447 0.5816 0.9276 0.0
H255 H 0.22633 0.6558 0.05796 0.0
H256 H 0.28066 0.6875 0.99152 0.0
H257 H 0.29197 0.60715 0.87075 0.0
H258 H 0.20592 0.69498 0.06196 0.0
H259 H 0.25991 0.72642 0.99467 0.0
C260 C 0.88118 0.82489 0.38898 0.0
C261 C 0.90626 0.82902 0.38908 0.0
C262 C 0.86989 0.81457 0.4177 0.0
C263 C 0.88347 0.80802 0.44704 0.0
C264 C 0.90869 0.81147 0.44666 0.0
C265 C 0.91996 0.82195 0.418 0.0
C266 C 0.87115 0.79902 0.47863 0.0
C267 C 0.85135 0.78318 0.47618 0.0
C268 C 0.83848 0.77619 0.50588 0.0
C269 C 0.84584 0.78486 0.53837 0.0
C270 C 0.86566 0.80058 0.54127 0.0
C271 C 0.87823 0.80753 0.51133 0.0
C272 C 0.87259 0.81083 0.57524 0.0
C273 C 0.85485 0.82004 0.59775 0.0
C274 C 0.89708 0.81234 0.58477 0.0
C275 C 0.90374 0.82312 0.61598 0.0
C276 C 0.88604 0.83266 0.63827 0.0
C277 C 0.81654 0.76096 0.50286 0.0
C278 C 0.79921 0.7659 0.47715 0.0
C279 C 0.81225 0.74209 0.52647 0.0
C280 C 0.79084 0.72873 0.52482 0.0
C281 C 0.77327 0.73402 0.49958 0.0
C282 C 0.77779 0.75258 0.47554 0.0
C283 C 0.86152 0.83091 0.62894 0.0
H284 H 0.87015 0.83044 0.36716 0.0
H285 H 0.85039 0.81254 0.41736 0.0
H286 H 0.9197 0.80625 0.46865 0.0
H287 H 0.93939 0.82464 0.41851 0.0
H288 H 0.84591 0.77628 0.4511 0.0
H289 H 0.89286 0.82051 0.51337 0.0
H290 H 0.83583 0.77978 0.56138 0.0
H291 H 0.83585 0.81935 0.59089 0.0
H292 H 0.9111 0.80525 0.56799 0.0
H293 H 0.92279 0.82441 0.62234 0.0
H294 H 0.80187 0.78057 0.45892 0.0
H295 H 0.82545 0.73768 0.54626 0.0
H296 H 0.8475 0.83791 0.64579 0.0
H297 H 0.76447 0.75729 0.45607 0.0
H298 H 0.78805 0.71425 0.54332 0.0
C299 C 0.157 0.84908 0.3911 0.0
C300 C 0.1546 0.87393 0.38425 0.0
C301 C 0.16731 0.84114 0.42224 0.0
C302 C 0.17572 0.85794 0.44688 0.0
C303 C 0.1738 0.88281 0.43937 0.0
C304 C 0.1632 0.89069 0.40858 0.0
C305 C 0.18625 0.84979 0.48045 0.0
C306 C 0.2009 0.82899 0.48237 0.0
C307 C 0.21131 0.82176 0.51393 0.0
C308 C 0.20713 0.83561 0.54385 0.0
C309 C 0.19237 0.85633 0.54253 0.0
C310 C 0.18187 0.86308 0.51083 0.0
C311 C 0.18751 0.87094 0.5741 0.0
C312 C 0.18221 0.85967 0.60585 0.0
C313 C 0.18717 0.89637 0.57228 0.0
C314 C 0.18093 0.91019 0.60119 0.0
C315 C 0.17495 0.89893 0.63268 0.0
C316 C 0.22673 0.7998 0.51545 0.0
C317 C 0.21864 0.77793 0.50096 0.0
C318 C 0.2497 0.80063 0.53102 0.0
C319 C 0.26445 0.78005 0.53161 0.0
C320 C 0.25635 0.75816 0.51715 0.0
C321 C 0.23324 0.75725 0.50204 0.0
C322 C 0.176 0.87352 0.63483 0.0
H323 H 0.15043 0.83582 0.37271 0.0
H324 H 0.16824 0.82187 0.42725 0.0
H325 H 0.18064 0.89629 0.4572 0.0
H326 H 0.16196 0.90997 0.4036 0.0
H327 H 0.20481 0.81874 0.45912 0.0
H328 H 0.16977 0.87853 0.51001 0.0
H329 H 0.21534 0.8302 0.56816 0.0
H330 H 0.18209 0.84012 0.60801 0.0
H331 H 0.19163 0.90563 0.54839 0.0
H332 H 0.18078 0.92974 0.59887 0.0
H333 H 0.20094 0.7768 0.48897 0.0
H334 H 0.2564 0.81731 0.54219 0.0
H335 H 0.17128 0.86429 0.65864 0.0
H336 H 0.22663 0.74064 0.49053 0.0
H337 H 0.28215 0.78118 0.5436 0.0
C338 C 0.08816 0.19147 0.62528 0.0
C339 C 0.08629 0.1662 0.6218 0.0
C340 C 0.09656 0.20561 0.59777 0.0
C341 C 0.10295 0.19474 0.56621 0.0
C342 C 0.10109 0.16948 0.56281 0.0
C343 C 0.0929 0.15535 0.59034 0.0
C344 C 0.11178 0.20953 0.53685 0.0
C345 C 0.13003 0.22688 0.54185 0.0
C346 C 0.14005 0.23921 0.51345 0.0
C347 C 0.13097 0.23475 0.4801 0.0
C348 C 0.11291 0.21739 0.47478 0.0
C349 C 0.10326 0.20498 0.50325 0.0
C350 C 0.10615 0.21032 0.43919 0.0
C351 C 0.10052 0.22787 0.41407 0.0
C352 C 0.1067 0.18579 0.42975 0.0
C353 C 0.10209 0.17893 0.39571 0.0
C354 C 0.09664 0.19644 0.3705 0.0
C355 C 0.16176 0.25461 0.51788 0.0
C356 C 0.16341 0.27143 0.54505 0.0
C357 C 0.18143 0.25187 0.49521 0.0
C358 C 0.20225 0.26574 0.49936 0.0
C359 C 0.20392 0.28274 0.52626 0.0
C360 C 0.18433 0.28542 0.54919 0.0
C361 C 0.09556 0.22095 0.37998 0.0
H362 H 0.08336 0.20025 0.64938 0.0
H363 H 0.0978 0.22505 0.60101 0.0
H364 H 0.10621 0.16059 0.53891 0.0
H365 H 0.09145 0.13595 0.58686 0.0
H366 H 0.13747 0.22964 0.56752 0.0
H367 H 0.08932 0.19147 0.49915 0.0
H368 H 0.13883 0.24395 0.45799 0.0
H369 H 0.1 0.2469 0.42082 0.0
H370 H 0.11128 0.17194 0.44853 0.0
H371 H 0.10268 0.15988 0.38908 0.0
H372 H 0.14847 0.2739 0.56287 0.0
H373 H 0.18096 0.2386 0.47459 0.0
H374 H 0.09131 0.23472 0.36092 0.0
H375 H 0.18507 0.29848 0.57005 0.0
H376 H 0.21725 0.26278 0.4818 0.0
C377 C 0.79872 0.09859 0.63258 0.0
C378 C 0.82368 0.09579 0.63844 0.0
C379 C 0.7904 0.11042 0.60282 0.0
C380 C 0.80693 0.11923 0.57822 0.0
C381 C 0.83186 0.11629 0.58406 0.0
C382 C 0.84015 0.10482 0.61397 0.0
C383 C 0.79838 0.13138 0.54633 0.0
C384 C 0.7817 0.1505 0.54804 0.0
C385 C 0.77488 0.16309 0.51793 0.0
C386 C 0.78437 0.15587 0.48575 0.0
C387 C 0.80089 0.13657 0.48373 0.0
C388 C 0.80782 0.1245 0.51415 0.0
C389 C 0.81138 0.12896 0.45017 0.0
C390 C 0.79648 0.12452 0.42139 0.0
C391 C 0.83637 0.12475 0.44741 0.0
C392 C 0.8462 0.11545 0.41696 0.0
C393 C 0.83124 0.10994 0.3886 0.0
C394 C 0.7591 0.18474 0.52064 0.0
C395 C 0.7381 0.18423 0.54114 0.0
C396 C 0.76575 0.20648 0.50431 0.0
C397 C 0.75201 0.22746 0.50911 0.0
C398 C 0.73121 0.22706 0.53003 0.0
C399 C 0.7242 0.20516 0.54562 0.0
C400 C 0.80632 0.11502 0.39089 0.0
H401 H 0.78568 0.09188 0.6512 0.0
H402 H 0.77109 0.11241 0.59878 0.0
H403 H 0.84496 0.12309 0.56559 0.0
H404 H 0.85948 0.10273 0.6178 0.0
H405 H 0.77495 0.15631 0.57304 0.0
H406 H 0.82044 0.10948 0.51275 0.0
H407 H 0.77923 0.1655 0.46241 0.0
H408 H 0.77713 0.1275 0.42294 0.0
H409 H 0.84832 0.12843 0.46902 0.0
H410 H 0.86555 0.11235 0.41578 0.0
H411 H 0.73253 0.16768 0.55391 0.0
H412 H 0.78198 0.20744 0.48864 0.0
H413 H 0.79427 0.11085 0.36959 0.0
H414 H 0.70831 0.20437 0.56201 0.0
H415 H 0.75769 0.24405 0.49652 0.0
H416 H 0.09626 0.10258 0.0885 0.0
H417 H 0.12726 0.13343 0.09707 0.0
H418 H 0.11468 0.16038 0.99375 0.0
H419 H 0.08382 0.12942 0.98478 0.0
H420 H 0.15997 0.14646 0.00157 0.0
H421 H 0.10898 0.20326 0.06238 0.0
H422 H 0.07939 0.21808 0.10528 0.0
H423 H 0.1212 0.18645 0.18744 0.0
H424 H 0.15156 0.17223 0.14504 0.0
H425 H 0.24162 0.25276 0.05627 0.0
H426 H 0.20187 0.23341 0.05706 0.0
H427 H 0.23602 0.16312 0.05558 0.0
H428 H 0.27583 0.18233 0.05329 0.0
H429 H 0.17805 0.20246 0.09852 0.0
H430 H 0.20429 0.12648 0.00253 0.0
H431 H 0.23356 0.11915 0.95543 0.0
H432 H 0.23731 0.19553 0.93515 0.0
H433 H 0.20781 0.20327 0.98178 0.0
C434 C 0.09959 0.1155 0.06791 0.0
C435 C 0.08791 0.11328 0.03572 0.0
C436 C 0.11723 0.13326 0.07297 0.0
C437 C 0.12337 0.14912 0.04597 0.0
C438 C 0.11026 0.14824 0.01486 0.0
C439 C 0.09269 0.13048 0.00975 0.0
C440 C 0.14605 0.16329 0.04784 0.0
C441 C 0.16382 0.15883 0.02268 0.0
C442 C 0.1511 0.17945 0.07521 0.0
C443 C 0.13239 0.18658 0.1006 0.0
C444 C 0.11177 0.19936 0.08959 0.0
C445 C 0.095 0.20784 0.11381 0.0
C446 C 0.09841 0.20319 0.14903 0.0
C447 C 0.11864 0.19009 0.16014 0.0
C448 C 0.13573 0.182 0.13607 0.0
C449 C 0.24067 0.23317 0.05601 0.0
C450 C 0.26186 0.21907 0.05412 0.0
C451 C 0.21795 0.22216 0.05689 0.0
C452 C 0.21602 0.19687 0.05591 0.0
C453 C 0.23715 0.18271 0.05589 0.0
C454 C 0.25988 0.1937 0.05483 0.0
C455 C 0.19195 0.18538 0.05245 0.0
C456 C 0.17409 0.19016 0.07739 0.0
C457 C 0.18655 0.16993 0.02432 0.0
C458 C 0.20404 0.16545 0.99588 0.0
C459 C 0.21129 0.14169 0.98792 0.0
C460 C 0.22793 0.13747 0.96132 0.0
C461 C 0.23735 0.15687 0.94239 0.0
C462 C 0.23007 0.18052 0.94992 0.0
C463 C 0.21341 0.18484 0.97645 0.0
H464 H 0.25024 0.15356 0.92184 0.0
H465 H 0.0854 0.20983 0.16767 0.0
H466 H 0.89559 0.06997 0.08498 0.0
H467 H 0.86308 0.09902 0.0956 0.0
H468 H 0.86626 0.12172 0.98874 0.0
H469 H 0.89802 0.09216 0.97766 0.0
H470 H 0.86547 0.14526 0.09322 0.0
H471 H 0.81379 0.14438 0.9607 0.0
H472 H 0.79996 0.11467 0.91742 0.0
H473 H 0.80238 0.05833 0.994 0.0
H474 H 0.8158 0.08775 0.03794 0.0
H475 H 0.8171 0.25872 0.05012 0.0
H476 H 0.83759 0.21962 0.0546 0.0
H477 H 0.7684 0.18352 0.05981 0.0
H478 H 0.74783 0.22265 0.0546 0.0
H479 H 0.79543 0.16122 0.01614 0.0
H480 H 0.80634 0.18755 0.13141 0.0
H481 H 0.81701 0.21506 0.17925 0.0
H482 H 0.89099 0.21602 0.14517 0.0
H483 H 0.88071 0.18882 0.09679 0.0
C484 C 0.88896 0.08073 0.06355 0.0
C485 C 0.89933 0.07865 0.03041 0.0
C486 C 0.87043 0.0974 0.0697 0.0
C487 C 0.86201 0.11238 0.04289 0.0
C488 C 0.87198 0.10994 0.00965 0.0
C489 C 0.89027 0.09308 0.00338 0.0
C490 C 0.84452 0.13213 0.05009 0.0
C491 C 0.85001 0.14862 0.07659 0.0
C492 C 0.82395 0.13618 0.029 0.0
C493 C 0.81592 0.11831 0.00263 0.0
C494 C 0.81122 0.12569 0.9684 0.0
C495 C 0.80342 0.1089 0.94375 0.0
C496 C 0.8002 0.08465 0.95299 0.0
C497 C 0.80485 0.07713 0.98689 0.0
C498 C 0.81259 0.09385 0.01167 0.0
C499 C 0.80629 0.24247 0.05277 0.0
C500 C 0.7809 0.24367 0.05197 0.0
C501 C 0.818 0.22013 0.05543 0.0
C502 C 0.80454 0.19862 0.05796 0.0
C503 C 0.77915 0.19986 0.05787 0.0
C504 C 0.76743 0.22218 0.05484 0.0
C505 C 0.81704 0.17484 0.0583 0.0
C506 C 0.81063 0.15763 0.03318 0.0
C507 C 0.83638 0.1698 0.08125 0.0
C508 C 0.84269 0.18625 0.11029 0.0
C509 C 0.82485 0.19377 0.13394 0.0
C510 C 0.83084 0.20929 0.16119 0.0
C511 C 0.85466 0.21731 0.16521 0.0
C512 C 0.87255 0.2098 0.14202 0.0
C513 C 0.86665 0.1943 0.11469 0.0
H514 H 0.85926 0.22932 0.18634 0.0
H515 H 0.79425 0.07166 0.93384 0.0
H516 H 0.91633 0.87731 0.98846 0.0
H517 H 0.88259 0.84992 0.99838 0.0
H518 H 0.88688 0.86316 0.1081 0.0
H519 H 0.92068 0.8912 0.09853 0.0
H520 H 0.87019 0.81055 0.07697 0.0
H521 H 0.85187 0.89666 0.08525 0.0
H522 H 0.85735 0.93896 0.06634 0.0
H523 H 0.83317 0.92021 0.96415 0.0
H524 H 0.82798 0.87766 0.98236 0.0
H525 H 0.74316 0.78313 0.09319 0.0
H526 H 0.7827 0.80221 0.10212 0.0
H527 H 0.78675 0.81875 0.9931 0.0
H528 H 0.74711 0.80006 0.98409 0.0
H529 H 0.79937 0.85731 0.034 0.0
H530 H 0.81745 0.77167 0.02555 0.0
H531 H 0.81369 0.72881 0.04267 0.0
H532 H 0.83859 0.74612 0.14502 0.0
H533 H 0.84218 0.78918 0.12861 0.0
C534 C 0.91066 0.87395 0.01488 0.0
C535 C 0.9207 0.887 0.04262 0.0
C536 C 0.89146 0.85814 0.02047 0.0
C537 C 0.88211 0.85496 0.05385 0.0
C538 C 0.89388 0.8656 0.08215 0.0
C539 C 0.91311 0.88164 0.07657 0.0
C540 C 0.85758 0.84483 0.05752 0.0
C541 C 0.85455 0.82084 0.06841 0.0
C542 C 0.83739 0.8583 0.04585 0.0
C543 C 0.83973 0.88398 0.03508 0.0
C544 C 0.84788 0.90154 0.05869 0.0
C545 C 0.85092 0.92555 0.04811 0.0
C546 C 0.84566 0.93227 0.01404 0.0
C547 C 0.83726 0.91498 0.99053 0.0
C548 C 0.83424 0.89092 0.00097 0.0
C549 C 0.75239 0.79107 0.07121 0.0
C550 C 0.74209 0.79013 0.03792 0.0
C551 C 0.77503 0.80175 0.07631 0.0
C552 C 0.78768 0.81168 0.04822 0.0
C553 C 0.77726 0.81112 0.01509 0.0
C554 C 0.75472 0.80034 0.00994 0.0
C555 C 0.8118 0.82277 0.05306 0.0
C556 C 0.81479 0.84706 0.04348 0.0
C557 C 0.83181 0.80955 0.0662 0.0
C558 C 0.82981 0.78367 0.07598 0.0
C559 C 0.82193 0.76637 0.05179 0.0
C560 C 0.81986 0.74204 0.06134 0.0
C561 C 0.82582 0.73476 0.09494 0.0
C562 C 0.83393 0.75179 0.11902 0.0
C563 C 0.836 0.77616 0.1096 0.0
H564 H 0.82421 0.71591 0.10229 0.0
H565 H 0.84804 0.95087 0.00588 0.0
H566 H 0.11146 0.9146 0.06946 0.0
H567 H 0.14188 0.883 0.0772 0.0
H568 H 0.13517 0.86363 0.9694 0.0
H569 H 0.10527 0.89556 0.96117 0.0
H570 H 0.13579 0.83653 0.07146 0.0
H571 H 0.18608 0.83926 0.93897 0.0
H572 H 0.1995 0.86967 0.89631 0.0
H573 H 0.2014 0.92396 0.97576 0.0
H574 H 0.18832 0.89381 0.01899 0.0
H575 H 0.18291 0.72302 0.02436 0.0
H576 H 0.16274 0.76237 0.02707 0.0
H577 H 0.23183 0.79748 0.04094 0.0
H578 H 0.25214 0.75812 0.03818 0.0
H579 H 0.20564 0.82065 0.99399 0.0
H580 H 0.19297 0.79186 0.10853 0.0
H581 H 0.18104 0.76297 0.15413 0.0
H582 H 0.10778 0.76399 0.11694 0.0
H583 H 0.11933 0.7926 0.07078 0.0
C584 C 0.1168 0.90396 0.0472 0.0
C585 C 0.10593 0.90762 0.01465 0.0
C586 C 0.13414 0.88584 0.05173 0.0
C587 C 0.14094 0.87109 0.02384 0.0
C588 C 0.13057 0.87511 0.99115 0.0
C589 C 0.11335 0.89331 0.98653 0.0
C590 C 0.15737 0.85025 0.02932 0.0
C591 C 0.15119 0.83316 0.05472 0.0
C592 C 0.17774 0.8461 0.00792 0.0
C593 C 0.18606 0.86428 0.98219 0.0
C594 C 0.18951 0.85765 0.94739 0.0
C595 C 0.19702 0.87485 0.9231 0.0
C596 C 0.20125 0.89874 0.9333 0.0
C597 C 0.19805 0.90546 0.96786 0.0
C598 C 0.19056 0.88833 0.99227 0.0
C599 C 0.19377 0.7391 0.0284 0.0
C600 C 0.21909 0.73752 0.03109 0.0
C601 C 0.18224 0.76155 0.02996 0.0
C602 C 0.19579 0.7828 0.0346 0.0
C603 C 0.22106 0.78129 0.03734 0.0
C604 C 0.23262 0.75883 0.03565 0.0
C605 C 0.18354 0.80663 0.03535 0.0
C606 C 0.19047 0.82423 0.01107 0.0
C607 C 0.16414 0.81147 0.05823 0.0
C608 C 0.15708 0.79426 0.08601 0.0
C609 C 0.17435 0.78578 0.1099 0.0
C610 C 0.16765 0.76947 0.13588 0.0
C611 C 0.14368 0.76161 0.13839 0.0
C612 C 0.12635 0.77008 0.11496 0.0
C613 C 0.13296 0.78637 0.0889 0.0
H614 H 0.13853 0.74899 0.15853 0.0
H615 H 0.20703 0.91204 0.91444 0.0
H616 H 0.58812 0.60955 0.5684 0.0
H617 H 0.61855 0.64098 0.5602 0.0
H618 H 0.61328 0.6324 0.44945 0.0
H619 H 0.58318 0.60059 0.45735 0.0
H620 H 0.65896 0.62744 0.47185 0.0
H621 H 0.59535 0.68488 0.48749 0.0
H622 H 0.55992 0.70328 0.51602 0.0
H623 H 0.60215 0.71613 0.60752 0.0
H624 H 0.63778 0.6975 0.57972 0.0
H625 H 0.74872 0.71715 0.44297 0.0
H626 H 0.71007 0.69559 0.4421 0.0
H627 H 0.70695 0.69873 0.55361 0.0
H628 H 0.74512 0.72102 0.55463 0.0
H629 H 0.66348 0.709 0.52513 0.0
H630 H 0.72495 0.64763 0.51288 0.0
H631 H 0.76042 0.62787 0.48631 0.0
H632 H 0.72194 0.62127 0.39017 0.0
H633 H 0.68633 0.6413 0.41607 0.0
C634 C 0.59303 0.61467 0.54225 0.0
C635 C 0.58338 0.60238 0.51354 0.0
C636 C 0.61035 0.63276 0.53761 0.0
C637 C 0.61815 0.63901 0.5042 0.0
C638 C 0.6075 0.62779 0.47543 0.0
C639 C 0.59021 0.60968 0.48003 0.0
C640 C 0.63935 0.65503 0.49963 0.0
C641 C 0.65975 0.64552 0.48278 0.0
C642 C 0.64056 0.67828 0.5148 0.0
C643 C 0.61921 0.68964 0.53157 0.0
C644 C 0.59705 0.69147 0.51379 0.0
C645 C 0.57693 0.70197 0.52981 0.0
C646 C 0.57877 0.71083 0.56358 0.0
C647 C 0.60075 0.70926 0.58136 0.0
C648 C 0.62093 0.69876 0.56546 0.0
C649 C 0.73968 0.71345 0.46727 0.0
C650 C 0.75002 0.72067 0.49888 0.0
C651 C 0.7177 0.70101 0.46674 0.0
C652 C 0.70578 0.69542 0.49781 0.0
C653 C 0.71588 0.70288 0.52936 0.0
C654 C 0.73782 0.71535 0.52991 0.0
C655 C 0.68306 0.68128 0.49763 0.0
C656 C 0.66247 0.6911 0.51369 0.0
C657 C 0.68167 0.6582 0.48193 0.0
C658 C 0.70309 0.64623 0.46629 0.0
C659 C 0.72413 0.64217 0.48598 0.0
C660 C 0.74425 0.63088 0.47106 0.0
C661 C 0.74346 0.6234 0.43654 0.0
C662 C 0.72254 0.62713 0.41689 0.0
C663 C 0.70238 0.63844 0.43168 0.0
H664 H 0.75905 0.61465 0.42504 0.0
H665 H 0.56317 0.71895 0.57595 0.0
H666 H 0.38777 0.56601 0.5636 0.0
H667 H 0.35492 0.59614 0.56186 0.0
H668 H 0.38453 0.6261 0.46798 0.0
H669 H 0.41633 0.59526 0.46816 0.0
H670 H 0.37539 0.65574 0.54469 0.0
H671 H 0.34332 0.61163 0.44243 0.0
H672 H 0.32902 0.57389 0.41506 0.0
H673 H 0.27621 0.56493 0.49562 0.0
H674 H 0.29042 0.60251 0.52363 0.0
H675 H 0.30355 0.75515 0.49722 0.0
H676 H 0.32967 0.7194 0.49743 0.0
H677 H 0.27103 0.67651 0.53857 0.0
H678 H 0.24458 0.71218 0.53719 0.0
H679 H 0.29345 0.65112 0.49239 0.0
H680 H 0.31939 0.69683 0.59017 0.0
H681 H 0.33323 0.73268 0.62261 0.0
H682 H 0.397 0.73659 0.55932 0.0
H683 H 0.38338 0.70096 0.52616 0.0
C684 C 0.38695 0.57875 0.54227 0.0
C685 C 0.40456 0.57835 0.51602 0.0
C686 C 0.36829 0.5959 0.54136 0.0
C687 C 0.36752 0.61329 0.51492 0.0
C688 C 0.38479 0.61265 0.48843 0.0
C689 C 0.40292 0.59506 0.48863 0.0
C690 C 0.35018 0.63359 0.51657 0.0
C691 C 0.3575 0.65489 0.53314 0.0
C692 C 0.32675 0.63203 0.50231 0.0
C693 C 0.31812 0.60964 0.48532 0.0
C694 C 0.32884 0.60145 0.45448 0.0
C695 C 0.32072 0.58014 0.43881 0.0
C696 C 0.30181 0.56697 0.4537 0.0
C697 C 0.2909 0.57513 0.48418 0.0
C698 C 0.29896 0.59643 0.49993 0.0
C699 C 0.29629 0.7381 0.50644 0.0
C700 C 0.27213 0.73643 0.51743 0.0
C701 C 0.31123 0.71768 0.50665 0.0
C702 C 0.30249 0.6953 0.51868 0.0
C703 C 0.27822 0.69355 0.52925 0.0
C704 C 0.26314 0.71392 0.5285 0.0
C705 C 0.31872 0.67381 0.52007 0.0
C706 C 0.31123 0.65214 0.50424 0.0
C707 C 0.34197 0.67491 0.53559 0.0
C708 C 0.35025 0.69635 0.55548 0.0
C709 C 0.33628 0.70545 0.583 0.0
C710 C 0.3441 0.72571 0.60154 0.0
C711 C 0.36595 0.73694 0.59298 0.0
C712 C 0.38006 0.72789 0.5659 0.0
C713 C 0.37231 0.70765 0.54724 0.0
H714 H 0.37197 0.75262 0.60737 0.0
H715 H 0.29552 0.55049 0.44159 0.0
H716 H 0.40541 0.38426 0.4769 0.0
H717 H 0.3689 0.35978 0.48197 0.0
H718 H 0.37067 0.36761 0.59298 0.0
H719 H 0.40732 0.39224 0.58834 0.0
H720 H 0.35338 0.32095 0.56788 0.0
H721 H 0.3395 0.40658 0.55383 0.0
H722 H 0.34553 0.44624 0.52576 0.0
H723 H 0.31774 0.41795 0.43021 0.0
H724 H 0.31196 0.37794 0.45756 0.0
H725 H 0.22799 0.29388 0.58628 0.0
H726 H 0.2668 0.31493 0.59188 0.0
H727 H 0.26966 0.32413 0.48099 0.0
H728 H 0.23053 0.30419 0.47539 0.0
H729 H 0.28456 0.36367 0.51184 0.0
H730 H 0.30056 0.27804 0.52323 0.0
H731 H 0.2959 0.23747 0.54911 0.0
H732 H 0.32017 0.26477 0.6472 0.0
H733 H 0.32467 0.30561 0.62198 0.0
C734 C 0.39848 0.38029 0.50251 0.0
C735 C 0.40895 0.39069 0.53217 0.0
C736 C 0.3776 0.3663 0.50532 0.0
C737 C 0.36691 0.36245 0.53776 0.0
C738 C 0.37865 0.37061 0.56771 0.0
C739 C 0.39956 0.38469 0.56496 0.0
C740 C 0.34212 0.35268 0.53977 0.0
C741 C 0.33821 0.33038 0.55611 0.0
C742 C 0.32252 0.36501 0.52403 0.0
C743 C 0.32551 0.38919 0.50768 0.0
C744 C 0.33484 0.40875 0.52676 0.0
C745 C 0.3382 0.4313 0.51099 0.0
C746 C 0.33208 0.43459 0.4762 0.0
C747 C 0.3225 0.41535 0.45715 0.0
C748 C 0.31917 0.39274 0.47278 0.0
C749 C 0.2367 0.3008 0.56319 0.0
C750 C 0.22635 0.29716 0.53034 0.0
C751 C 0.25898 0.31258 0.56639 0.0
C752 C 0.27132 0.32068 0.53679 0.0
C753 C 0.26054 0.31789 0.50417 0.0
C754 C 0.23827 0.3063 0.50097 0.0
C755 C 0.29574 0.33155 0.5393 0.0
C756 C 0.29961 0.35423 0.5239 0.0
C757 C 0.31529 0.31946 0.55568 0.0
C758 C 0.31269 0.29492 0.57083 0.0
C759 C 0.30473 0.27543 0.55038 0.0
C760 C 0.30214 0.25238 0.56492 0.0
C761 C 0.30766 0.24856 0.5998 0.0
C762 C 0.31585 0.26777 0.6202 0.0
C763 C 0.31844 0.29086 0.6058 0.0
H764 H 0.30565 0.23071 0.61101 0.0
H765 H 0.33473 0.45205 0.46404 0.0
H766 H 0.59672 0.41448 0.60626 0.0
H767 H 0.62781 0.38293 0.60975 0.0
H768 H 0.62774 0.37698 0.49836 0.0
H769 H 0.59751 0.40889 0.49459 0.0
H770 H 0.62591 0.33758 0.59258 0.0
H771 H 0.68009 0.35975 0.46708 0.0
H772 H 0.69335 0.39581 0.43451 0.0
H773 H 0.69005 0.43849 0.52721 0.0
H774 H 0.67719 0.40257 0.56049 0.0
H775 H 0.68219 0.2331 0.52663 0.0
H776 H 0.65914 0.27034 0.53615 0.0
H777 H 0.72549 0.30879 0.5575 0.0
H778 H 0.74862 0.27168 0.54716 0.0
H779 H 0.69897 0.33514 0.51798 0.0
H780 H 0.6849 0.29293 0.62306 0.0
H781 H 0.67376 0.25858 0.66063 0.0
H782 H 0.60175 0.25909 0.61871 0.0
H783 H 0.61254 0.29322 0.58052 0.0
C784 C 0.6036 0.40667 0.5825 0.0
C785 C 0.59466 0.41427 0.55015 0.0
C786 C 0.6213 0.38858 0.58455 0.0
C787 C 0.63034 0.37774 0.55431 0.0
C788 C 0.62152 0.38544 0.52204 0.0
C789 C 0.60406 0.40363 0.51995 0.0
C790 C 0.64787 0.35737 0.55621 0.0
C791 C 0.642 0.33712 0.5765 0.0
C792 C 0.66921 0.35696 0.53591 0.0
C793 C 0.67746 0.37852 0.51621 0.0
C794 C 0.68234 0.37679 0.48057 0.0
C795 C 0.68977 0.39721 0.46198 0.0
C796 C 0.69248 0.41944 0.47877 0.0
C797 C 0.68787 0.42128 0.51423 0.0
C798 C 0.68048 0.40091 0.53296 0.0
C799 C 0.69181 0.24948 0.53358 0.0
C800 C 0.71718 0.24953 0.53614 0.0
C801 C 0.67864 0.27073 0.53916 0.0
C802 C 0.69054 0.29233 0.54808 0.0
C803 C 0.7159 0.29238 0.55066 0.0
C804 C 0.72909 0.2712 0.54468 0.0
C805 C 0.67656 0.31502 0.55346 0.0
C806 C 0.68309 0.33569 0.53448 0.0
C807 C 0.65622 0.31604 0.57574 0.0
C808 C 0.64959 0.29554 0.59874 0.0
C809 C 0.66673 0.28561 0.62167 0.0
C810 C 0.66047 0.26619 0.64311 0.0
C811 C 0.63707 0.25663 0.64201 0.0
C812 C 0.61987 0.26651 0.61952 0.0
C813 C 0.62604 0.28591 0.598 0.0
H814 H 0.63226 0.2416 0.65863 0.0
H815 H 0.69819 0.43523 0.46432 0.0
H816 H 0.98938 0.1039 0.1131 0.0
H817 H 0.00901 0.13126 0.15413 0.0
H818 H 0.07096 0.0836 0.15836 0.0
H819 H 0.05044 0.05559 0.1195 0.0
H820 H 0.0569 0.09427 0.22034 0.0
H821 H 0.07268 0.14018 0.11861 0.0
H822 H 0.06221 0.16022 0.06346 0.0
H823 H 0.0152 0.20921 0.11756 0.0
H824 H 0.02508 0.18912 0.17288 0.0
H825 H 0.12439 0.16706 0.33047 0.0
H826 H 0.11322 0.14875 0.27511 0.0
H827 H 0.04651 0.18949 0.27484 0.0
H828 H 0.05788 0.20824 0.33006 0.0
H829 H 0.06516 0.18336 0.20878 0.0
H830 H 0.04707 0.13468 0.30905 0.0
H831 H 0.05659 0.11351 0.36363 0.0
H832 H 0.1085 0.06904 0.31066 0.0
H833 H 0.0996 0.09028 0.25585 0.0
C834 C 0.00722 0.09934 0.1228 0.0
C835 C 0.01852 0.07762 0.11306 0.0
C836 C 0.01857 0.11514 0.14583 0.0
C837 C 0.04161 0.10963 0.15901 0.0
C838 C 0.05323 0.08829 0.14838 0.0
C839 C 0.04168 0.07239 0.12577 0.0
C840 C 0.05263 0.1249 0.18624 0.0
C841 C 0.05926 0.11367 0.21741 0.0
C842 C 0.05499 0.15032 0.1828 0.0
C843 C 0.04942 0.16292 0.14978 0.0
C844 C 0.05995 0.15506 0.11862 0.0
C845 C 0.05409 0.1664 0.08735 0.0
C846 C 0.0379 0.18585 0.08697 0.0
C847 C 0.02766 0.19407 0.11789 0.0
C848 C 0.0334 0.18271 0.14921 0.0
C849 C 0.10756 0.17242 0.31822 0.0
C850 C 0.09176 0.1887 0.33463 0.0
C851 C 0.10124 0.16203 0.28664 0.0
C852 C 0.07884 0.16743 0.27135 0.0
C853 C 0.06385 0.18508 0.28635 0.0
C854 C 0.07031 0.1957 0.31784 0.0
C855 C 0.06983 0.15258 0.24229 0.0
C856 C 0.06331 0.1639 0.21113 0.0
C857 C 0.06763 0.12716 0.24554 0.0
C858 C 0.07287 0.11426 0.27845 0.0
C859 C 0.06066 0.12053 0.3091 0.0
C860 C 0.06593 0.10851 0.34007 0.0
C861 C 0.08319 0.08999 0.34063 0.0
C862 C 0.09518 0.08342 0.3102 0.0
C863 C 0.09003 0.09545 0.27918 0.0
H864 H 0.08723 0.08069 0.36463 0.0
H865 H 0.03344 0.19466 0.06276 0.0
H866 H 0.91623 0.02823 0.09758 0.0
H867 H 0.89456 0.0492 0.14395 0.0
H868 H 0.93731 0.01084 0.21985 0.0
H869 H 0.95903 0.98992 0.17314 0.0
H870 H 0.89009 0.00903 0.2351 0.0
H871 H 0.94649 0.0744 0.2085 0.0
H872 H 0.96762 0.10248 0.16937 0.0
H873 H 0.89943 0.12846 0.13079 0.0
H874 H 0.87784 0.10083 0.17053 0.0
H875 H 0.86538 0.07419 0.38648 0.0
H876 H 0.88345 0.05536 0.33575 0.0
H877 H 0.83806 0.09885 0.26926 0.0
H878 H 0.82056 0.11868 0.32018 0.0
H879 H 0.88307 0.09831 0.24573 0.0
H880 H 0.82687 0.03822 0.28146 0.0
H881 H 0.80591 0.0105 0.3215 0.0
H882 H 0.87266 0.97291 0.34088 0.0
H883 H 0.89411 0.00064 0.30135 0.0
C884 C 0.92164 0.02514 0.12409 0.0
C885 C 0.93977 0.00824 0.13191 0.0
C886 C 0.9091 0.03687 0.15059 0.0
C887 C 0.9146 0.03193 0.18537 0.0
C888 C 0.93288 0.01506 0.19319 0.0
C889 C 0.94534 0.00325 0.16662 0.0
C890 C 0.90048 0.04345 0.21355 0.0
C891 C 0.8888 0.02854 0.23775 0.0
C892 C 0.89789 0.06886 0.21606 0.0
C893 C 0.91062 0.0855 0.19223 0.0
C894 C 0.93603 0.08606 0.19157 0.0
C895 C 0.94808 0.10191 0.1693 0.0
C896 C 0.93491 0.1171 0.14727 0.0
C897 C 0.90961 0.11665 0.14779 0.0
C898 C 0.89745 0.10102 0.17037 0.0
C899 C 0.85936 0.07997 0.3611 0.0
C900 C 0.84161 0.09808 0.35741 0.0
C901 C 0.86948 0.06892 0.33208 0.0
C902 C 0.86186 0.07542 0.29869 0.0
C903 C 0.84412 0.09346 0.29481 0.0
C904 C 0.83402 0.10465 0.32392 0.0
C905 C 0.87317 0.06389 0.268 0.0
C906 C 0.88418 0.07877 0.2431 0.0
C907 C 0.87497 0.0384 0.26476 0.0
C908 C 0.86214 0.02166 0.28862 0.0
C909 C 0.83713 0.02417 0.29447 0.0
C910 C 0.82515 0.00843 0.31705 0.0
C911 C 0.83795 0.98999 0.33379 0.0
C912 C 0.86276 0.98722 0.32792 0.0
C913 C 0.87484 0.00293 0.3054 0.0
H914 H 0.82864 0.97782 0.35125 0.0
H915 H 0.94431 0.12929 0.12993 0.0
H916 H 0.97826 0.90725 0.09801 0.0
H917 H 0.9587 0.89193 0.15035 0.0
H918 H 0.99906 0.94328 0.2117 0.0
H919 H 0.01837 0.95882 0.15886 0.0
H920 H 0.00189 0.89857 0.23757 0.0
H921 H 0.93763 0.95036 0.19876 0.0
H922 H 0.90789 0.96718 0.15745 0.0
H923 H 0.87485 0.89735 0.14696 0.0
H924 H 0.90457 0.87991 0.18763 0.0
H925 H 0.93864 0.8662 0.39162 0.0
H926 H 0.95626 0.88833 0.34289 0.0
H927 H 0.91757 0.84237 0.27151 0.0
H928 H 0.89968 0.82039 0.32019 0.0
H929 H 0.91335 0.88831 0.25316 0.0
H930 H 0.97864 0.83579 0.28728 0.0
H931 H 0.00871 0.81766 0.32677 0.0
H932 H 0.04025 0.88764 0.34416 0.0
H933 H 0.01009 0.90626 0.30522 0.0
C934 C 0.98211 0.91584 0.12253 0.0
C935 C 0.99895 0.9347 0.12456 0.0
C936 C 0.97118 0.90698 0.15242 0.0
C937 C 0.97701 0.91687 0.1848 0.0
C938 C 0.99411 0.93563 0.18688 0.0
C939 C 0.00509 0.94446 0.15687 0.0
C940 C 0.96657 0.90626 0.21657 0.0
C941 C 0.98251 0.89677 0.2414 0.0
C942 C 0.9413 0.90335 0.22087 0.0
C943 C 0.9235 0.91378 0.19609 0.0
C944 C 0.9242 0.93851 0.18735 0.0
C945 C 0.90737 0.94815 0.16404 0.0
C946 C 0.88968 0.93329 0.14937 0.0
C947 C 0.88867 0.90879 0.15816 0.0
C948 C 0.90549 0.89902 0.18137 0.0
C949 C 0.93415 0.86065 0.36551 0.0
C950 C 0.91787 0.84156 0.35961 0.0
C951 C 0.94418 0.87331 0.33773 0.0
C952 C 0.93836 0.86686 0.3036 0.0
C953 C 0.92223 0.84769 0.29767 0.0
C954 C 0.91205 0.83515 0.32543 0.0
C955 C 0.94869 0.88035 0.27397 0.0
C956 C 0.93272 0.89037 0.24954 0.0
C957 C 0.97394 0.88361 0.26988 0.0
C958 C 0.99188 0.87247 0.29369 0.0
C959 C 0.9918 0.84736 0.29983 0.0
C960 C 0.0089 0.83698 0.32206 0.0
C961 C 0.02632 0.8515 0.33807 0.0
C962 C 0.0267 0.87642 0.33183 0.0
C963 C 0.0096 0.8869 0.30969 0.0
H964 H 0.03957 0.84343 0.35522 0.0
H965 H 0.87668 0.9408 0.13134 0.0
H966 H 0.09933 0.96172 0.08298 0.0
H967 H 0.11248 0.93641 0.13174 0.0
H968 H 0.0678 0.97868 0.20074 0.0
H969 H 0.05507 0.00411 0.15208 0.0
H970 H 0.1118 0.97375 0.22589 0.0
H971 H 0.05234 0.91808 0.17694 0.0
H972 H 0.03497 0.89477 0.12842 0.0
H973 H 0.10281 0.85813 0.114 0.0
H974 H 0.12056 0.88115 0.16251 0.0
H975 H 0.11838 0.90696 0.37808 0.0
H976 H 0.10214 0.92464 0.32489 0.0
H977 H 0.14923 0.87888 0.26431 0.0
H978 H 0.16505 0.8606 0.31774 0.0
H979 H 0.10618 0.88419 0.23253 0.0
H980 H 0.16517 0.93681 0.28236 0.0
H981 H 0.18478 0.96099 0.32806 0.0
H982 H 0.12097 0.005 0.33721 0.0
H983 H 0.10081 0.98081 0.29196 0.0
C984 C 0.09195 0.96511 0.10845 0.0
C985 C 0.076 0.98449 0.11391 0.0
C986 C 0.09947 0.95075 0.13628 0.0
C987 C 0.09086 0.95544 0.16985 0.0
C988 C 0.07467 0.97471 0.17509 0.0
C989 C 0.06743 0.98922 0.14739 0.0
C990 C 0.09979 0.9414 0.20001 0.0
C991 C 0.1102 0.9542 0.22757 0.0
C992 C 0.09868 0.91582 0.20152 0.0
C993 C 0.08778 0.90139 0.17321 0.0
C994 C 0.06353 0.90506 0.16339 0.0
C995 C 0.05363 0.89191 0.13591 0.0
C996 C 0.06781 0.87508 0.11805 0.0
C997 C 0.09186 0.87118 0.12785 0.0
C998 C 0.10181 0.88419 0.15542 0.0
C999 C 0.12508 0.90054 0.35338 0.0
C1000 C 0.14317 0.88268 0.35192 0.0
C1001 C 0.11583 0.91063 0.32304 0.0
C1002 C 0.12488 0.90347 0.29065 0.0
C1003 C 0.14207 0.88474 0.28903 0.0
C1004 C 0.15111 0.87436 0.31949 0.0
C1005 C 0.11745 0.91668 0.2589 0.0
C1006 C 0.10761 0.90374 0.23094 0.0
C1007 C 0.11931 0.94222 0.25675 0.0
C1008 C 0.1314 0.95683 0.28399 0.0
C1009 C 0.15524 0.95151 0.29432 0.0
C1010 C 0.16647 0.96523 0.32012 0.0
C1011 C 0.15411 0.98447 0.33559 0.0
C1012 C 0.13051 0.99006 0.32525 0.0
C1013 C 0.11918 0.97635 0.29951 0.0
H1014 H 0.16284 0.99509 0.35554 0.0
H1015 H 0.06014 0.86501 0.09667 0.0
H1016 H 0.07741 0.03841 0.86327 0.0
H1017 H 0.09398 0.0194 0.81133 0.0
H1018 H 0.13956 0.97409 0.87507 0.0
H1019 H 0.1237 0.99379 0.92696 0.0
H1020 H 0.16349 0.98873 0.81892 0.0
H1021 H 0.08513 0.95538 0.84337 0.0
H1022 H 0.04164 0.95955 0.85562 0.0
H1023 H 0.02988 0.98903 0.75412 0.0
H1024 H 0.07367 0.98626 0.74187 0.0
H1025 H 0.18749 0.89333 0.70089 0.0
H1026 H 0.1736 0.91725 0.75036 0.0
H1027 H 0.13078 0.96187 0.682 0.0
H1028 H 0.14408 0.93766 0.63257 0.0
H1029 H 0.10542 0.94915 0.73893 0.0
H1030 H 0.1835 0.98286 0.71454 0.0
H1031 H 0.22754 0.98236 0.70413 0.0
H1032 H 0.23938 0.95233 0.80532 0.0
H1033 H 0.19536 0.95234 0.81616 0.0
C1034 C 0.09109 0.02455 0.86613 0.0
C1035 C 0.09912 0.01754 0.89912 0.0
C1036 C 0.10053 0.01366 0.83647 0.0
C1037 C 0.11773 0.99503 0.83933 0.0
C1038 C 0.12628 0.98842 0.87224 0.0
C1039 C 0.11709 -0.0004 0.90189 0.0
C1040 C 0.12592 0.98154 0.80827 0.0
C1041 C 0.15083 0.97984 0.80163 0.0
C1042 C 0.10929 0.9704 0.78532 0.0
C1043 C 0.08276 0.97079 0.7918 0.0
C1044 C 0.07332 0.96284 0.82367 0.0
C1045 C 0.04859 0.96498 0.83064 0.0
C1046 C 0.03294 0.97436 0.80558 0.0
C1047 C 0.04203 0.98172 0.7735 0.0
C1048 C 0.06684 0.97998 0.76658 0.0
C1049 C 0.17501 0.90815 0.69643 0.0
C1050 C 0.16696 0.91365 0.66278 0.0
C1051 C 0.16724 0.92193 0.72467 0.0
C1052 C 0.15133 0.9415 0.71981 0.0
C1053 C 0.14311 0.9469 0.68632 0.0
C1054 C 0.15091 0.93318 0.65807 0.0
C1055 C 0.14306 0.95618 0.74971 0.0
C1056 C 0.1181 0.95808 0.75615 0.0
C1057 C 0.15962 0.96749 0.77251 0.0
C1058 C 0.1861 0.96737 0.76602 0.0
C1059 C 0.19547 0.97595 0.73445 0.0
C1060 C 0.22044 0.97579 0.7285 0.0
C1061 C 0.23624 0.96726 0.754 0.0
C1062 C 0.22711 0.9589 0.78556 0.0
C1063 C 0.20216 0.959 0.79164 0.0
H1064 H 0.25556 0.96717 0.74935 0.0
H1065 H 0.01379 0.97597 0.81108 0.0
H1066 H 0.0279 0.02245 0.87632 0.0
H1067 H 0.04467 0.03939 0.82261 0.0
H1068 H 0.99365 0.09839 0.82776 0.0
H1069 H 0.97645 0.08154 0.88056 0.0
H1070 H 0.99878 0.07845 0.76178 0.0
H1071 H 0.04674 0.10559 0.85757 0.0
H1072 H 0.07403 0.10318 0.90785 0.0
H1073 H 0.12923 0.07123 0.84437 0.0
H1074 H 0.10188 0.07242 0.79395 0.0
H1075 H 0.04695 0.17462 0.66276 0.0
H1076 H 0.03159 0.14923 0.70983 0.0
H1077 H 0.08963 0.09827 0.69286 0.0
H1078 H 0.10527 0.12376 0.64599 0.0
H1079 H 0.08298 0.10965 0.7619 0.0
H1080 H 0.03487 0.08412 0.66556 0.0
H1081 H 0.00799 0.08947 0.61516 0.0
H1082 H 0.9539 0.12174 0.68029 0.0
H1083 H 0.98061 0.11694 0.73102 0.0
C1084 C 0.02021 0.03899 0.86593 0.0
C1085 C 0.00104 0.05085 0.88294 0.0
C1086 C 0.02991 0.04866 0.83545 0.0
C1087 C 0.02071 0.07036 0.82184 0.0
C1088 C 0.00107 0.08169 0.83806 0.0
C1089 C 0.99134 0.07207 0.86834 0.0
C1090 C 0.03175 0.08185 0.79115 0.0
C1091 C 0.01719 0.08531 0.7618 0.0
C1092 C 0.05593 0.09038 0.79117 0.0
C1093 C 0.07198 0.0886 0.82201 0.0
C1094 C 0.06446 0.0975 0.85442 0.0
C1095 C 0.08001 0.09646 0.88296 0.0
C1096 C 0.10333 0.08701 0.87933 0.0
C1097 C 0.11116 0.07857 0.84715 0.0
C1098 C 0.09557 0.07926 0.81863 0.0
C1099 C 0.05651 0.15809 0.66923 0.0
C1100 C 0.07726 0.15111 0.65072 0.0
C1101 C 0.04762 0.14351 0.69587 0.0
C1102 C 0.05934 0.12176 0.70445 0.0
C1103 C 0.08028 0.11493 0.68641 0.0
C1104 C 0.08909 0.12942 0.65961 0.0
C1105 C 0.04994 0.10643 0.73279 0.0
C1106 C 0.06476 0.10232 0.76168 0.0
C1107 C 0.02598 0.09744 0.73253 0.0
C1108 C 0.00985 0.10034 0.70206 0.0
C1109 C 0.01733 0.09255 0.6691 0.0
C1110 C 0.00211 0.09545 0.64047 0.0
C1111 C 0.97927 0.10599 0.6445 0.0
C1112 C 0.9716 0.11361 0.67719 0.0
C1113 C 0.98677 0.11078 0.7059 0.0
H1114 H 0.96751 0.10821 0.62231 0.0
H1115 H 0.11535 0.08625 0.90145 0.0
H1116 H 0.93934 0.0283 0.90523 0.0
H1117 H 0.91718 0.04592 0.85682 0.0
H1118 H 0.8789 0.97861 0.84242 0.0
H1119 H 0.90142 0.96068 0.89064 0.0
H1120 H 0.89471 0.99684 0.7817 0.0
H1121 H 0.85031 0.0258 0.87865 0.0
H1122 H 0.84411 0.0449 0.93564 0.0
H1123 H 0.87307 0.11174 0.89694 0.0
H1124 H 0.87981 0.09296 0.83979 0.0
H1125 H 0.80954 0.0521 0.66471 0.0
H1126 H 0.82602 0.03115 0.71566 0.0
H1127 H 0.8745 0.09099 0.73388 0.0
H1128 H 0.85822 0.1119 0.683 0.0
H1129 H 0.84991 0.07434 0.79378 0.0
H1130 H 0.89593 0.04323 0.69708 0.0
H1131 H 0.90165 0.02306 0.64076 0.0
H1132 H 0.86791 0.9587 0.68026 0.0
H1133 H 0.86159 0.97865 0.73666 0.0
C1134 C 0.92629 0.01722 0.89176 0.0
C1135 C 0.92221 0.99311 0.90174 0.0
C1136 C 0.91347 0.02737 0.86426 0.0
C1137 C 0.89616 0.01366 0.84636 0.0
C1138 C 0.8921 0.98952 0.85605 0.0
C1139 C 0.90495 0.97934 0.88364 0.0
C1140 C 0.88275 0.02451 0.81706 0.0
C1141 C 0.8845 0.01353 0.78444 0.0
C1142 C 0.86976 0.04646 0.82067 0.0
C1143 C 0.86575 0.05789 0.85499 0.0
C1144 C 0.85556 0.04451 0.88235 0.0
C1145 C 0.85194 0.05528 0.91467 0.0
C1146 C 0.85828 0.07947 0.91988 0.0
C1147 C 0.86822 0.09298 0.89282 0.0
C1148 C 0.87192 0.08229 0.86045 0.0
C1149 C 0.82358 0.06081 0.6798 0.0
C1150 C 0.8327 0.08354 0.66997 0.0
C1151 C 0.83304 0.0488 0.70869 0.0
C1152 C 0.85154 0.05951 0.7283 0.0
C1153 C 0.86024 0.08246 0.71899 0.0
C1154 C 0.85103 0.0943 0.68991 0.0
C1155 C 0.86212 0.04681 0.75841 0.0
C1156 C 0.85986 0.05748 0.79117 0.0
C1157 C 0.87441 0.02445 0.75498 0.0
C1158 C 0.87794 0.01257 0.72092 0.0
C1159 C 0.88944 0.02489 0.69362 0.0
C1160 C 0.89285 0.01347 0.66171 0.0
C1161 C 0.88505 0.98965 0.65688 0.0
C1162 C 0.87386 0.97718 0.68399 0.0
C1163 C 0.87035 0.98854 0.71592 0.0
H1164 H 0.88774 0.98083 0.63217 0.0
H1165 H 0.85532 0.08779 0.94483 0.0
H1166 H 0.01425 0.92738 0.86367 0.0
H1167 H 0.98767 0.9157 0.81623 0.0
H1168 H 0.92838 0.90748 0.88805 0.0
H1169 H 0.95517 0.91845 0.93579 0.0
H1170 H 0.93065 0.87013 0.84807 0.0
H1171 H 0.93 0.95458 0.82942 0.0
H1172 H 0.94667 0.99573 0.82246 0.0
H1173 H 0.98397 0.9734 0.73043 0.0
H1174 H 0.96786 0.93204 0.73716 0.0
H1175 H 0.86874 0.87515 0.66499 0.0
H1176 H 0.88171 0.89549 0.71822 0.0
H1177 H 0.93312 0.83814 0.73741 0.0
H1178 H 0.91984 0.81746 0.68495 0.0
H1179 H 0.92534 0.91336 0.73563 0.0
H1180 H 0.9379 0.82767 0.82218 0.0
H1181 H 0.91852 0.78791 0.83076 0.0
H1182 H 0.85169 0.81583 0.79019 0.0
H1183 H 0.87055 0.85586 0.78185 0.0
C1184 C 0.9955 0.92346 0.86933 0.0
C1185 C 0.98672 0.9243 0.90343 0.0
C1186 C 0.98026 0.91688 0.84214 0.0
C1187 C 0.9559 0.91117 0.8485 0.0
C1188 C 0.94707 0.912 0.88252 0.0
C1189 C 0.96238 0.91838 0.90976 0.0
C1190 C 0.94033 0.90244 0.81996 0.0
C1191 C 0.9293 0.8797 0.8236 0.0
C1192 C 0.93806 0.91523 0.78833 0.0
C1193 C 0.94774 0.94016 0.78392 0.0
C1194 C 0.94183 0.95844 0.80781 0.0
C1195 C 0.95115 0.9818 0.80387 0.0
C1196 C 0.9663 0.9872 0.77598 0.0
C1197 C 0.97216 0.96922 0.75197 0.0
C1198 C 0.96292 0.9458 0.75582 0.0
C1199 C 0.88255 0.86673 0.68088 0.0
C1200 C 0.89326 0.84469 0.6709 0.0
C1201 C 0.89005 0.87845 0.71107 0.0
C1202 C 0.90818 0.86819 0.73186 0.0
C1203 C 0.91884 0.84618 0.72196 0.0
C1204 C 0.9114 0.8345 0.69184 0.0
C1205 C 0.91669 0.88066 0.76344 0.0
C1206 C 0.92637 0.90404 0.76033 0.0
C1207 C 0.91731 0.86872 0.79582 0.0
C1208 C 0.90572 0.84474 0.80119 0.0
C1209 C 0.91903 0.82538 0.81528 0.0
C1210 C 0.90814 0.80278 0.82006 0.0
C1211 C 0.8839 0.79933 0.81096 0.0
C1212 C 0.87048 0.8185 0.79714 0.0
C1213 C 0.88128 0.84114 0.79233 0.0
H1214 H 0.87551 0.78182 0.81465 0.0
H1215 H 0.97355 0.00528 0.77302 0.0
H1216 H 0.54728 0.57647 0.60682 0.0
H1217 H 0.56389 0.60147 0.653 0.0
H1218 H 0.5005 0.58725 0.71509 0.0
H1219 H 0.48357 0.56285 0.66836 0.0
H1220 H 0.50961 0.63309 0.71609 0.0
H1221 H 0.55823 0.56135 0.73172 0.0
H1222 H 0.58681 0.52874 0.71635 0.0
H1223 H 0.6407 0.58157 0.68973 0.0
H1224 H 0.61235 0.6145 0.70459 0.0
H1225 H 0.55188 0.66384 0.88366 0.0
H1226 H 0.53707 0.64465 0.8307 0.0
H1227 H 0.59742 0.67433 0.77394 0.0
H1228 H 0.61231 0.6937 0.8271 0.0
H1229 H 0.59175 0.62419 0.7664 0.0
H1230 H 0.54351 0.69564 0.75683 0.0
H1231 H 0.51541 0.72742 0.77672 0.0
H1232 H 0.46051 0.67391 0.79489 0.0
H1233 H 0.4884 0.64173 0.77559 0.0
C1234 C 0.53712 0.57829 0.63045 0.0
C1235 C 0.51421 0.56761 0.6339 0.0
C1236 C 0.54662 0.59262 0.65694 0.0
C1237 C 0.53354 0.59614 0.6877 0.0
C1238 C 0.5109 0.5849 0.69155 0.0
C1239 C 0.50129 0.57088 0.66488 0.0
C1240 C 0.54276 0.61242 0.71522 0.0
C1241 C 0.52748 0.63092 0.72734 0.0
C1242 C 0.56638 0.61019 0.72911 0.0
C1243 C 0.58309 0.59039 0.71897 0.0
C1244 C 0.57608 0.56601 0.72221 0.0
C1245 C 0.59226 0.54747 0.71369 0.0
C1246 C 0.61556 0.5531 0.70209 0.0
C1247 C 0.62265 0.57725 0.69874 0.0
C1248 C 0.60655 0.59585 0.70722 0.0
C1249 C 0.56178 0.66652 0.85976 0.0
C1250 C 0.58324 0.68014 0.85934 0.0
C1251 C 0.55326 0.65568 0.82955 0.0
C1252 C 0.56613 0.65817 0.79846 0.0
C1253 C 0.58724 0.6723 0.79772 0.0
C1254 C 0.59562 0.68342 0.82794 0.0
C1255 C 0.55842 0.64437 0.7676 0.0
C1256 C 0.57398 0.62641 0.75483 0.0
C1257 C 0.53499 0.64693 0.75337 0.0
C1258 C 0.51814 0.66624 0.76501 0.0
C1259 C 0.52552 0.69061 0.76535 0.0
C1260 C 0.50961 0.7087 0.77646 0.0
C1261 C 0.48621 0.70268 0.78713 0.0
C1262 C 0.47865 0.67855 0.78664 0.0
C1263 C 0.4945 0.66037 0.77557 0.0
H1264 H 0.47392 0.71672 0.79571 0.0
H1265 H 0.62818 0.53878 0.69584 0.0
H1266 H 0.39205 0.50901 0.6039 0.0
H1267 H 0.37442 0.53267 0.65159 0.0
H1268 H 0.44536 0.54051 0.69706 0.0
H1269 H 0.46298 0.51731 0.6491 0.0
H1270 H 0.41051 0.5195 0.74067 0.0
H1271 H 0.42178 0.58799 0.67045 0.0
H1272 H 0.42022 0.61559 0.62042 0.0
H1273 H 0.34263 0.61723 0.62621 0.0
H1274 H 0.34362 0.58904 0.67579 0.0
H1275 H 0.3732 0.59743 0.87867 0.0
H1276 H 0.3935 0.58464 0.82564 0.0
H1277 H 0.3249 0.56392 0.78161 0.0
H1278 H 0.30442 0.57526 0.83528 0.0
H1279 H 0.36059 0.59424 0.73757 0.0
H1280 H 0.35198 0.5208 0.80646 0.0
H1281 H 0.35652 0.49643 0.8596 0.0
H1282 H 0.43342 0.50777 0.85756 0.0
H1283 H 0.42926 0.53253 0.80465 0.0
C1284 C 0.40381 0.51634 0.62375 0.0
C1285 C 0.42875 0.51171 0.62306 0.0
C1286 C 0.39382 0.52986 0.65076 0.0
C1287 C 0.40866 0.53838 0.67763 0.0
C1288 C 0.43371 0.53422 0.67637 0.0
C1289 C 0.44372 0.5211 0.64906 0.0
C1290 C 0.39767 0.54898 0.70896 0.0
C1291 C 0.39989 0.53604 0.74005 0.0
C1292 C 0.38363 0.5704 0.70791 0.0
C1293 C 0.38277 0.58613 0.67671 0.0
C1294 C 0.40434 0.59382 0.66071 0.0
C1295 C 0.40357 0.6097 0.63253 0.0
C1296 C 0.38135 0.61825 0.62031 0.0
C1297 C 0.35983 0.61066 0.63586 0.0
C1298 C 0.36048 0.59467 0.66395 0.0
C1299 C 0.36236 0.58987 0.85798 0.0
C1300 C 0.33713 0.58715 0.86155 0.0
C1301 C 0.37401 0.58285 0.82756 0.0
C1302 C 0.36063 0.57341 0.79993 0.0
C1303 C 0.33543 0.57137 0.80273 0.0
C1304 C 0.32378 0.57796 0.8334 0.0
C1305 C 0.37316 0.56449 0.76877 0.0
C1306 C 0.37123 0.57772 0.73789 0.0
C1307 C 0.38779 0.54353 0.76999 0.0
C1308 C 0.39027 0.52878 0.8019 0.0
C1309 C 0.36982 0.51834 0.81758 0.0
C1310 C 0.37233 0.50439 0.84759 0.0
C1311 C 0.39523 0.50062 0.86202 0.0
C1312 C 0.41568 0.51075 0.84641 0.0
C1313 C 0.41326 0.52473 0.8164 0.0
H1314 H 0.39715 0.4898 0.88523 0.0
H1315 H 0.38082 0.63075 0.59875 0.0
H1316 H 0.49225 0.46743 0.67899 0.0
H1317 H 0.46991 0.45308 0.72964 0.0
H1318 H 0.43389 0.39974 0.66641 0.0
H1319 H 0.45593 0.41445 0.61549 0.0
H1320 H 0.40483 0.41735 0.72175 0.0
H1321 H 0.48547 0.38413 0.70278 0.0
H1322 H 0.52908 0.38938 0.6912 0.0
H1323 H 0.53682 0.42972 0.78553 0.0
H1324 H 0.4932 0.42483 0.79751 0.0
H1325 H 0.38467 0.32517 0.84696 0.0
H1326 H 0.39577 0.34912 0.79603 0.0
H1327 H 0.44145 0.39418 0.85979 0.0
H1328 H 0.43095 0.36978 0.91046 0.0
H1329 H 0.4645 0.38282 0.8044 0.0
H1330 H 0.38509 0.41384 0.82687 0.0
H1331 H 0.34114 0.41179 0.83762 0.0
H1332 H 0.3304 0.37856 0.73835 0.0
H1333 H 0.37435 0.38013 0.72719 0.0
C1334 C 0.47905 0.4531 0.67579 0.0
C1335 C 0.47588 0.4418 0.64359 0.0
C1336 C 0.46628 0.44498 0.70464 0.0
C1337 C 0.45069 0.42504 0.7018 0.0
C1338 C 0.44589 0.41514 0.66906 0.0
C1339 C 0.45843 0.42354 0.64002 0.0
C1340 C 0.44259 0.41226 0.73335 0.0
C1341 C 0.41777 0.40961 0.73979 0.0
C1342 C 0.4596 0.40258 0.75703 0.0
C1343 C 0.48608 0.40424 0.75092 0.0
C1344 C 0.4965 0.39407 0.72107 0.0
C1345 C 0.5212 0.397 0.71442 0.0
C1346 C 0.53571 0.4099 0.73759 0.0
C1347 C 0.52558 0.41969 0.76763 0.0
C1348 C 0.50088 0.41681 0.7744 0.0
C1349 C 0.39697 0.34028 0.85002 0.0
C1350 C 0.40703 0.34563 0.88251 0.0
C1351 C 0.40319 0.35404 0.821 0.0
C1352 C 0.41918 0.37369 0.82415 0.0
C1353 C 0.42909 0.37911 0.85671 0.0
C1354 C 0.42315 0.36515 0.8856 0.0
C1355 C 0.42654 0.3879 0.79329 0.0
C1356 C 0.45138 0.39067 0.78674 0.0
C1357 C 0.40948 0.39781 0.76975 0.0
C1358 C 0.38304 0.3969 0.77634 0.0
C1359 C 0.37338 0.40593 0.80745 0.0
C1360 C 0.34846 0.40489 0.81359 0.0
C1361 C 0.33299 0.39499 0.78873 0.0
C1362 C 0.3424 0.38619 0.75761 0.0
C1363 C 0.36731 0.38718 0.75134 0.0
H1364 H 0.31371 0.3942 0.79354 0.0
H1365 H 0.55479 0.41231 0.73222 0.0
H1366 H 0.60987 0.51757 0.64165 0.0
H1367 H 0.63367 0.494 0.68336 0.0
H1368 H 0.57857 0.4387 0.68393 0.0
H1369 H 0.5548 0.46232 0.64296 0.0
H1370 H 0.59144 0.45107 0.74832 0.0
H1371 H 0.63148 0.42902 0.64401 0.0
H1372 H 0.65202 0.43609 0.58824 0.0
H1373 H 0.70973 0.47297 0.64072 0.0
H1374 H 0.68918 0.46669 0.69671 0.0
H1375 H 0.65586 0.36942 0.85209 0.0
H1376 H 0.63652 0.38569 0.80032 0.0
H1377 H 0.68908 0.44335 0.79668 0.0
H1378 H 0.70933 0.42651 0.84764 0.0
H1379 H 0.67737 0.42734 0.73178 0.0
H1380 H 0.63425 0.45337 0.83477 0.0
H1381 H 0.61295 0.44679 0.89014 0.0
H1382 H 0.56102 0.40143 0.83887 0.0
H1383 H 0.58231 0.40742 0.78336 0.0
C1384 C 0.60285 0.5004 0.65075 0.0
C1385 C 0.58034 0.49181 0.63913 0.0
C1386 C 0.61653 0.48688 0.67431 0.0
C1387 C 0.60792 0.46455 0.68657 0.0
C1388 C 0.58556 0.45588 0.67478 0.0
C1389 C 0.57199 0.46935 0.6512 0.0
C1390 C 0.62163 0.45078 0.71298 0.0
C1391 C 0.61011 0.44556 0.74445 0.0
C1392 C 0.64609 0.44394 0.7081 0.0
C1393 C 0.65865 0.44758 0.67452 0.0
C1394 C 0.64843 0.43882 0.64361 0.0
C1395 C 0.6601 0.44265 0.61197 0.0
C1396 C 0.68217 0.45495 0.61095 0.0
C1397 C 0.69262 0.46345 0.64156 0.0
C1398 C 0.68096 0.45977 0.67326 0.0
C1399 C 0.66375 0.38519 0.83982 0.0
C1400 C 0.68404 0.3968 0.85424 0.0
C1401 C 0.6525 0.3946 0.8104 0.0
C1402 C 0.6611 0.41598 0.7951 0.0
C1403 C 0.68208 0.42691 0.80826 0.0
C1404 C 0.69346 0.41741 0.83758 0.0
C1405 C 0.6472 0.42789 0.76708 0.0
C1406 C 0.65866 0.43277 0.73542 0.0
C1407 C 0.62263 0.43441 0.77164 0.0
C1408 C 0.60986 0.43081 0.80499 0.0
C1409 C 0.61835 0.44191 0.83538 0.0
C1410 C 0.6063 0.43827 0.86678 0.0
C1411 C 0.58565 0.42369 0.86803 0.0
C1412 C 0.57701 0.41272 0.83788 0.0
C1413 C 0.58904 0.41626 0.80644 0.0
H1414 H 0.57633 0.42091 0.89235 0.0
H1415 H 0.6912 0.45791 0.58646 0.0
H1416 H 0.54505 0.5119 0.37447 0.0
H1417 H 0.5605 0.4965 0.31913 0.0
H1418 H 0.60704 0.44678 0.37388 0.0
H1419 H 0.59164 0.46169 0.42901 0.0
H1420 H 0.63093 0.47966 0.3279 0.0
H1421 H 0.5656 0.42154 0.32967 0.0
H1422 H 0.52385 0.40572 0.33017 0.0
H1423 H 0.50664 0.44847 0.24056 0.0
H1424 H 0.54839 0.46441 0.23938 0.0
H1425 H 0.6822 0.39954 0.20687 0.0
H1426 H 0.65995 0.41844 0.25446 0.0
H1427 H 0.61812 0.46008 0.18118 0.0
H1428 H 0.64037 0.44112 0.13328 0.0
H1429 H 0.59 0.4363 0.23196 0.0
H1430 H 0.65767 0.48976 0.22634 0.0
H1431 H 0.70084 0.50082 0.22292 0.0
H1432 H 0.71413 0.46548 0.32017 0.0
H1433 H 0.67108 0.45392 0.32395 0.0
C1434 C 0.55822 0.49735 0.37468 0.0
C1435 C 0.5674 0.48826 0.40612 0.0
C1436 C 0.56694 0.48854 0.34307 0.0
C1437 C 0.58497 0.47063 0.34257 0.0
C1438 C 0.59317 0.46068 0.37384 0.0
C1439 C 0.58436 0.46927 0.40531 0.0
C1440 C 0.59741 0.46415 0.31003 0.0
C1441 C 0.62202 0.47005 0.30698 0.0
C1442 C 0.58553 0.45238 0.28238 0.0
C1443 C 0.55999 0.44441 0.28473 0.0
C1444 C 0.5528 0.42787 0.31042 0.0
C1445 C 0.52921 0.41873 0.31065 0.0
C1446 C 0.51262 0.42611 0.28541 0.0
C1447 C 0.51953 0.44277 0.26006 0.0
C1448 C 0.54316 0.45182 0.25955 0.0
C1449 C 0.66831 0.41277 0.20093 0.0
C1450 C 0.66297 0.41888 0.16647 0.0
C1451 C 0.65573 0.42364 0.22808 0.0
C1452 C 0.63752 0.44073 0.22125 0.0
C1453 C 0.63218 0.44697 0.18689 0.0
C1454 C 0.64496 0.43626 0.15966 0.0
C1455 C 0.62362 0.45129 0.25025 0.0
C1456 C 0.59878 0.44629 0.25261 0.0
C1457 C 0.63527 0.46386 0.27738 0.0
C1458 C 0.66118 0.47081 0.27529 0.0
C1459 C 0.66983 0.48418 0.24686 0.0
C1460 C 0.69428 0.49057 0.24489 0.0
C1461 C 0.71023 0.48381 0.27128 0.0
C1462 C 0.70175 0.47069 0.29974 0.0
C1463 C 0.67733 0.46424 0.30184 0.0
H1464 H 0.72915 0.48878 0.2697 0.0
H1465 H 0.49444 0.41887 0.28541 0.0
H1466 H 0.53675 0.59603 0.44605 0.0
H1467 H 0.56064 0.61218 0.3983 0.0
H1468 H 0.52474 0.56346 0.32768 0.0
H1469 H 0.50174 0.54624 0.37574 0.0
H1470 H 0.57076 0.56762 0.31076 0.0
H1471 H 0.50618 0.62382 0.33889 0.0
H1472 H 0.48282 0.65019 0.37815 0.0
H1473 H 0.54671 0.69183 0.39953 0.0
H1474 H 0.5705 0.66554 0.36063 0.0
H1475 H 0.57492 0.63277 0.15233 0.0
H1476 H 0.56412 0.61153 0.20554 0.0
H1477 H 0.60971 0.65975 0.26426 0.0
H1478 H 0.62121 0.68074 0.21099 0.0
H1479 H 0.56382 0.6561 0.29044 0.0
H1480 H 0.62671 0.60301 0.25412 0.0
H1481 H 0.64976 0.57598 0.21555 0.0
H1482 H 0.5889 0.5279 0.20905 0.0
H1483 H 0.56526 0.5549 0.247 0.0
C1484 C 0.53425 0.58842 0.42049 0.0
C1485 C 0.5173 0.56992 0.41463 0.0
C1486 C 0.54779 0.59782 0.39316 0.0
C1487 C 0.5441 0.58937 0.35933 0.0
C1488 C 0.5278 0.57031 0.35358 0.0
C1489 C 0.51454 0.56062 0.38103 0.0
C1490 C 0.55613 0.60127 0.32963 0.0
C1491 C 0.56908 0.58693 0.30606 0.0
C1492 C 0.5545 0.62657 0.32416 0.0
C1493 C 0.54014 0.6426 0.34712 0.0
C1494 C 0.51525 0.63854 0.35209 0.0
C1495 C 0.50194 0.65347 0.37426 0.0
C1496 C 0.51328 0.67264 0.39138 0.0
C1497 C 0.53795 0.67697 0.38627 0.0
C1498 C 0.55135 0.66208 0.36414 0.0
C1499 C 0.58304 0.63859 0.17643 0.0
C1500 C 0.59891 0.6585 0.17739 0.0
C1501 C 0.57684 0.62642 0.20681 0.0
C1502 C 0.58632 0.63395 0.2387 0.0
C1503 C 0.60227 0.65367 0.23981 0.0
C1504 C 0.60864 0.66575 0.2094 0.0
C1505 C 0.57804 0.62239 0.27109 0.0
C1506 C 0.56575 0.63682 0.2952 0.0
C1507 C 0.58014 0.59716 0.27681 0.0
C1508 C 0.5941 0.58117 0.25317 0.0
C1509 C 0.6181 0.58686 0.24411 0.0
C1510 C 0.63131 0.57149 0.22241 0.0
C1511 C 0.62079 0.55026 0.20979 0.0
C1512 C 0.59702 0.54437 0.21879 0.0
C1513 C 0.5837 0.55971 0.24039 0.0
H1514 H 0.63108 0.53834 0.19311 0.0
H1515 H 0.50295 0.68416 0.40856 0.0
H1516 H 0.38042 0.51485 0.45946 0.0
H1517 H 0.35989 0.53843 0.4145 0.0
H1518 H 0.41411 0.51639 0.34048 0.0
H1519 H 0.43448 0.49268 0.385 0.0
H1520 H 0.40141 0.55999 0.32701 0.0
H1521 H 0.35856 0.48578 0.35309 0.0
H1522 H 0.33658 0.45712 0.39052 0.0
H1523 H 0.28209 0.51091 0.40995 0.0
H1524 H 0.30409 0.54009 0.37312 0.0
H1525 H 0.34371 0.54802 0.16622 0.0
H1526 H 0.36045 0.53808 0.22295 0.0
H1527 H 0.30856 0.58535 0.27171 0.0
H1528 H 0.29225 0.59633 0.21484 0.0
H1529 H 0.31639 0.53609 0.30331 0.0
H1530 H 0.35891 0.60792 0.26725 0.0
H1531 H 0.38166 0.63307 0.22574 0.0
H1532 H 0.43759 0.57912 0.22083 0.0
H1533 H 0.41498 0.55346 0.26189 0.0
C1534 C 0.388 0.51515 0.4336 0.0
C1535 C 0.40866 0.5014 0.42542 0.0
C1536 C 0.37625 0.52862 0.40797 0.0
C1537 C 0.385 0.52848 0.37385 0.0
C1538 C 0.40671 0.51633 0.36645 0.0
C1539 C 0.41829 0.50267 0.39187 0.0
C1540 C 0.37088 0.53925 0.34506 0.0
C1541 C 0.38282 0.55477 0.32191 0.0
C1542 C 0.34644 0.53276 0.33866 0.0
C1543 C 0.33317 0.51523 0.36075 0.0
C1544 C 0.34203 0.49157 0.36558 0.0
C1545 C 0.32956 0.47523 0.38669 0.0
C1546 C 0.308 0.48223 0.40275 0.0
C1547 C 0.29885 0.50556 0.39762 0.0
C1548 C 0.31133 0.52202 0.37667 0.0
C1549 C 0.3359 0.55646 0.18891 0.0
C1550 C 0.31681 0.57322 0.18588 0.0
C1551 C 0.34539 0.55063 0.22129 0.0
C1552 C 0.33585 0.56121 0.25129 0.0
C1553 C 0.31611 0.57706 0.24871 0.0
C1554 C 0.30676 0.58317 0.21621 0.0
C1555 C 0.34724 0.55613 0.28507 0.0
C1556 C 0.33478 0.54172 0.30901 0.0
C1557 C 0.37136 0.56317 0.29187 0.0
C1558 C 0.38515 0.5787 0.26748 0.0
C1559 C 0.37597 0.60134 0.25712 0.0
C1560 C 0.38886 0.6157 0.2337 0.0
C1561 C 0.41104 0.60768 0.22061 0.0
C1562 C 0.42041 0.58531 0.23098 0.0
C1563 C 0.40757 0.57086 0.25436 0.0
H1564 H 0.42099 0.61882 0.20247 0.0
H1565 H 0.29836 0.46955 0.41906 0.0
H1566 H 0.5015 0.45534 0.3973 0.0
H1567 H 0.4843 0.43585 0.34615 0.0
H1568 H 0.45935 0.37647 0.40939 0.0
H1569 H 0.47574 0.39625 0.46081 0.0
H1570 H 0.48827 0.36087 0.35845 0.0
H1571 H 0.41916 0.41311 0.36727 0.0
H1572 H 0.39334 0.4496 0.36855 0.0
H1573 H 0.42385 0.47346 0.27219 0.0
H1574 H 0.45007 0.43733 0.2705 0.0
H1575 H 0.41985 0.29795 0.22919 0.0
H1576 H 0.43444 0.31978 0.28032 0.0
H1577 H 0.46663 0.37396 0.21436 0.0
H1578 H 0.45218 0.35214 0.16313 0.0
H1579 H 0.43498 0.39229 0.26539 0.0
H1580 H 0.50317 0.33919 0.25643 0.0
H1581 H 0.52395 0.29984 0.25109 0.0
H1582 H 0.49293 0.27654 0.34742 0.0
H1583 H 0.47167 0.31565 0.35309 0.0
C1584 C 0.49198 0.43832 0.40035 0.0
C1585 C 0.49036 0.42706 0.43289 0.0
C1586 C 0.48211 0.42723 0.37111 0.0
C1587 C 0.47097 0.40448 0.37387 0.0
C1588 C 0.46809 0.39393 0.40667 0.0
C1589 C 0.47749 0.40524 0.436 0.0
C1590 C 0.46514 0.39033 0.34243 0.0
C1591 C 0.47628 0.36761 0.33837 0.0
C1592 C 0.45023 0.39947 0.31568 0.0
C1593 C 0.43666 0.42254 0.31885 0.0
C1594 C 0.42072 0.42637 0.3467 0.0
C1595 C 0.40589 0.4469 0.34737 0.0
C1596 C 0.40682 0.46365 0.32026 0.0
C1597 C 0.42306 0.46035 0.29301 0.0
C1598 C 0.43792 0.43988 0.29221 0.0
C1599 C 0.43035 0.31433 0.22568 0.0
C1600 C 0.4349 0.32342 0.19234 0.0
C1601 C 0.43874 0.32669 0.2548 0.0
C1602 C 0.4516 0.34842 0.25098 0.0
C1603 C 0.45677 0.35717 0.21771 0.0
C1604 C 0.44866 0.34465 0.18856 0.0
C1605 C 0.4579 0.36294 0.28175 0.0
C1606 C 0.44697 0.38569 0.28557 0.0
C1607 C 0.47289 0.35381 0.30833 0.0
C1608 C 0.48563 0.33027 0.305 0.0
C1609 C 0.50059 0.32559 0.27631 0.0
C1610 C 0.5125 0.30335 0.27326 0.0
C1611 C 0.50971 0.28567 0.29886 0.0
C1612 C 0.49505 0.29023 0.3276 0.0
C1613 C 0.48309 0.31245 0.33076 0.0
H1614 H 0.51896 0.26846 0.29646 0.0
H1615 H 0.39483 0.47912 0.32014 0.0
loop_
_geom_bond_atom_site_label_1
_geom_bond_atom_site_label_2
_geom_bond_distance
_geom_bond_site_symmetry_2
_ccdc_geom_bond_type
Zn0 O2 1.933 1_556 S
Zn0 O20 1.985 . S
Zn0 O31 1.955 . S
Zn1 O2 1.911 . S
Zn1 O21 1.970 . S
Zn1 O37 1.945 . S
Zn1 O44 1.981 . S
O2 Zn0 1.933 1_554 S
O2 Zn1 1.911 . S
O2 H3 0.841 1_655 S
H3 O2 0.841 1_455 S
C4 O5 1.246 . S
C4 O33 1.276 1_545 S
O5 C4 1.246 . S
Zn6 O8 1.911 . S
Zn6 O23 1.970 . S
Zn6 O40 1.945 . S
Zn6 O47 1.981 . S
Zn7 O8 1.933 1_556 S
Zn7 O22 1.985 . S
Zn7 O29 1.955 . S
O8 Zn6 1.911 . S
O8 Zn7 1.933 1_554 S
O8 H9 0.841 1_455 S
H9 O8 0.841 1_655 S
Zn10 O11 1.933 1_556 S
Zn10 O24 1.985 . S
Zn10 O33 1.955 . S
O11 Zn10 1.933 1_554 S
O11 Zn12 1.911 . S
O11 H13 0.841 1_565 S
Zn12 O11 1.911 . S
Zn12 O25 1.970 . S
Zn12 O41 1.981 . S
Zn12 O43 1.945 . S
H13 O11 0.841 1_545 S
Zn14 O15 1.933 1_556 S
Zn14 O27 1.985 . S
Zn14 O35 1.955 . S
O15 Zn14 1.933 1_554 S
O15 H16 0.841 1_545 S
O15 Zn17 1.911 . S
H16 O15 0.841 1_565 S
Zn17 O15 1.911 . S
Zn17 O28 1.970 . S
Zn17 O38 1.981 . S
Zn17 O46 1.945 . S
C18 O19 1.246 . S
C18 O35 1.276 1_565 S
O19 C18 1.246 . S
O20 Zn0 1.985 . S
O20 C30 1.245 1_556 S
O21 Zn1 1.970 . S
O21 C30 1.263 . S
O22 Zn7 1.985 . S
O22 C34 1.245 1_556 S
O23 Zn6 1.970 . S
O23 C34 1.263 . S
O24 Zn10 1.985 . S
O24 C39 1.245 1_556 S
O25 Zn12 1.970 . S
O25 C39 1.263 . S
C26 O37 1.262 1_455 S
C26 O38 1.245 . S
O27 Zn14 1.985 . S
O27 C45 1.245 1_556 S
O28 Zn17 1.970 . S
O28 C45 1.263 . S
O29 Zn7 1.955 . S
O29 C48 1.276 1_455 S
C30 O20 1.245 1_554 S
C30 O21 1.263 . S
O31 Zn0 1.955 . S
O31 C50 1.276 1_655 S
C32 O40 1.262 1_655 S
C32 O41 1.245 . S
O33 C4 1.276 1_565 S
O33 Zn10 1.955 . S
C34 O22 1.245 1_554 S
C34 O23 1.263 . S
O35 Zn14 1.955 . S
O35 C18 1.276 1_545 S
C36 O43 1.262 1_545 S
C36 O44 1.245 . S
O37 Zn1 1.945 . S
O37 C26 1.262 1_655 S
O38 Zn17 1.981 . S
O38 C26 1.245 . S
C39 O24 1.245 1_554 S
C39 O25 1.263 . S
O40 Zn6 1.945 . S
O40 C32 1.262 1_455 S
O41 Zn12 1.981 . S
O41 C32 1.245 . S
C42 O46 1.262 1_565 S
C42 O47 1.245 . S
O43 Zn12 1.945 . S
O43 C36 1.262 1_565 S
O44 Zn1 1.981 . S
O44 C36 1.245 . S
C45 O27 1.245 1_554 S
C45 O28 1.263 . S
O46 Zn17 1.945 . S
O46 C42 1.262 1_545 S
O47 Zn6 1.981 . S
O47 C42 1.245 . S
C48 O29 1.276 1_655 S
C48 O49 1.246 . S
O49 C48 1.246 . S
C50 O31 1.276 1_455 S
C50 O51 1.246 . S
O51 C50 1.246 . S
Zn52 O54 1.933 . S
Zn52 O72 1.985 . S
Zn52 O83 1.955 . S
Zn53 O54 1.911 . S
Zn53 O73 1.970 . S
Zn53 O89 1.945 . S
Zn53 O96 1.981 . S
O54 Zn52 1.933 . S
O54 Zn53 1.911 . S
O54 H55 0.841 . S
H55 O54 0.841 . S
C56 O57 1.246 . S
C56 O85 1.276 . S
O57 C56 1.246 . S
Zn58 O60 1.911 . S
Zn58 O75 1.970 . S
Zn58 O92 1.945 . S
Zn58 O99 1.981 . S
Zn59 O60 1.933 . S
Zn59 O74 1.985 . S
Zn59 O81 1.955 . S
O60 Zn58 1.911 . S
O60 Zn59 1.933 . S
O60 H61 0.841 . S
H61 O60 0.841 . S
Zn62 O63 1.933 . S
Zn62 O76 1.985 . S
Zn62 O85 1.955 . S
O63 Zn62 1.933 . S
O63 Zn64 1.911 . S
O63 H65 0.841 . S
Zn64 O63 1.911 . S
Zn64 O77 1.970 . S
Zn64 O93 1.981 . S
Zn64 O95 1.945 . S
H65 O63 0.841 . S
Zn66 O67 1.933 . S
Zn66 O79 1.985 . S
Zn66 O87 1.955 . S
O67 Zn66 1.933 . S
O67 H68 0.841 . S
O67 Zn69 1.911 . S
H68 O67 0.841 . S
Zn69 O67 1.911 . S
Zn69 O80 1.970 . S
Zn69 O90 1.981 . S
Zn69 O98 1.945 . S
C70 O71 1.246 . S
C70 O87 1.276 . S
O71 C70 1.246 . S
O72 Zn52 1.985 . S
O72 C82 1.245 . S
O73 Zn53 1.970 . S
O73 C82 1.263 . S
O74 Zn59 1.985 . S
O74 C86 1.245 . S
O75 Zn58 1.970 . S
O75 C86 1.263 . S
O76 Zn62 1.985 . S
O76 C91 1.245 . S
O77 Zn64 1.970 . S
O77 C91 1.263 . S
C78 O89 1.262 . S
C78 O90 1.245 . S
O79 Zn66 1.985 . S
O79 C97 1.245 . S
O80 Zn69 1.970 . S
O80 C97 1.263 . S
O81 Zn59 1.955 . S
O81 C100 1.276 . S
C82 O72 1.245 . S
C82 O73 1.263 . S
O83 Zn52 1.955 . S
O83 C102 1.276 . S
C84 O92 1.262 . S
C84 O93 1.245 . S
O85 C56 1.276 . S
O85 Zn62 1.955 . S
C86 O74 1.245 . S
C86 O75 1.263 . S
O87 Zn66 1.955 . S
O87 C70 1.276 . S
C88 O95 1.262 . S
C88 O96 1.245 . S
O89 Zn53 1.945 . S
O89 C78 1.262 . S
O90 Zn69 1.981 . S
O90 C78 1.245 . S
C91 O76 1.245 . S
C91 O77 1.263 . S
O92 Zn58 1.945 . S
O92 C84 1.262 . S
O93 Zn64 1.981 . S
O93 C84 1.245 . S
C94 O98 1.262 . S
C94 O99 1.245 . S
O95 Zn64 1.945 . S
O95 C88 1.262 . S
O96 Zn53 1.981 . S
O96 C88 1.245 . S
C97 O79 1.245 . S
C97 O80 1.263 . S
O98 Zn69 1.945 . S
O98 C94 1.262 . S
O99 Zn58 1.981 . S
O99 C94 1.245 . S
C100 O81 1.276 . S
C100 O101 1.246 . S
O101 C100 1.246 . S
C102 O83 1.276 . S
C102 O103 1.246 . S
O103 C102 1.246 . S
C104 C105 1.386 . S
C104 C106 1.397 . S
C104 H128 0.931 . S
C105 C104 1.386 . S
C105 C109 1.397 . S
C106 C104 1.397 . S
C106 C107 1.384 . S
C106 H129 0.930 . S
C107 C106 1.384 . S
C107 C108 1.377 . S
C107 C110 1.481 . S
C108 C107 1.377 . S
C108 C109 1.389 . S
C108 H130 0.929 . S
C109 C105 1.397 . S
C109 C108 1.389 . S
C109 H131 0.931 . S
C110 C107 1.481 . S
C110 C111 1.387 . S
C110 C115 1.390 1_556 S
C111 C110 1.387 . S
C111 C112 1.401 1_556 S
C111 H132 0.930 . S
C112 C111 1.401 1_554 S
C112 C113 1.376 . S
C112 C121 1.511 . S
C113 C112 1.376 . S
C113 C114 1.392 . S
C113 H134 0.931 . S
C114 C113 1.392 . S
C114 C115 1.361 . S
C114 C116 1.500 . S
C115 C110 1.390 1_554 S
C115 C114 1.361 . S
C115 H133 0.931 . S
C116 C114 1.500 . S
C116 C117 1.371 . S
C116 C118 1.365 . S
C117 C116 1.371 . S
C117 C127 1.386 . S
C117 H135 0.931 . S
C118 C116 1.365 . S
C118 C119 1.409 . S
C118 H136 0.929 . S
C119 C118 1.409 . S
C119 C120 1.380 . S
C119 H137 0.930 . S
C120 C119 1.380 . S
C120 C127 1.357 . S
C121 C112 1.511 . S
C121 C122 1.341 1_554 S
C121 C123 1.371 . S
C122 C121 1.341 1_556 S
C122 C126 1.394 . S
C122 H138 0.930 . S
C123 C121 1.371 . S
C123 C124 1.392 . S
C123 H139 0.931 . S
C124 C123 1.392 . S
C124 C125 1.331 . S
C124 H142 0.932 . S
C125 C124 1.331 . S
C125 C126 1.336 1_554 S
C126 C122 1.394 . S
C126 C125 1.336 1_556 S
C126 H141 0.929 . S
C127 C117 1.386 . S
C127 C120 1.357 . S
C127 H140 0.928 . S
H128 C104 0.931 . S
H129 C106 0.930 . S
H130 C108 0.929 . S
H131 C109 0.931 . S
H132 C111 0.930 . S
H133 C115 0.931 . S
H134 C113 0.931 . S
H135 C117 0.931 . S
H136 C118 0.929 . S
H137 C119 0.930 . S
H138 C122 0.930 . S
H139 C123 0.931 . S
H140 C127 0.928 . S
H141 C126 0.929 . S
H142 C124 0.932 . S
C143 C144 1.386 . S
C143 C145 1.397 . S
C143 H167 0.931 . S
C144 C143 1.386 . S
C144 C148 1.397 . S
C145 C143 1.397 . S
C145 C146 1.384 . S
C145 H168 0.930 . S
C146 C145 1.384 . S
C146 C147 1.377 . S
C146 C149 1.481 . S
C147 C146 1.377 . S
C147 C148 1.389 . S
C147 H169 0.929 . S
C148 C144 1.397 . S
C148 C147 1.389 . S
C148 H170 0.931 . S
C149 C146 1.481 . S
C149 C150 1.387 . S
C149 C154 1.390 1_556 S
C150 C149 1.387 . S
C150 C151 1.401 1_556 S
C150 H171 0.930 . S
C151 C150 1.401 1_554 S
C151 C152 1.376 . S
C151 C160 1.511 . S
C152 C151 1.376 . S
C152 C153 1.392 . S
C152 H173 0.931 . S
C153 C152 1.392 . S
C153 C154 1.361 . S
C153 C155 1.500 . S
C154 C149 1.390 1_554 S
C154 C153 1.361 . S
C154 H172 0.931 . S
C155 C153 1.500 . S
C155 C156 1.371 . S
C155 C157 1.365 . S
C156 C155 1.371 . S
C156 C166 1.386 . S
C156 H174 0.931 . S
C157 C155 1.365 . S
C157 C158 1.409 . S
C157 H175 0.929 . S
C158 C157 1.409 . S
C158 C159 1.380 . S
C158 H176 0.930 . S
C159 C158 1.380 . S
C159 C166 1.357 . S
C160 C151 1.511 . S
C160 C161 1.341 1_554 S
C160 C162 1.371 . S
C161 C160 1.341 1_556 S
C161 C165 1.394 . S
C161 H177 0.930 . S
C162 C160 1.371 . S
C162 C163 1.392 . S
C162 H178 0.931 . S
C163 C162 1.392 . S
C163 C164 1.331 . S
C163 H181 0.932 . S
C164 C163 1.331 . S
C164 C165 1.336 1_554 S
C165 C161 1.394 . S
C165 C164 1.336 1_556 S
C165 H180 0.929 . S
C166 C156 1.386 . S
C166 C159 1.357 . S
C166 H179 0.928 . S
H167 C143 0.931 . S
H168 C145 0.930 . S
H169 C147 0.929 . S
H170 C148 0.931 . S
H171 C150 0.930 . S
H172 C154 0.931 . S
H173 C152 0.931 . S
H174 C156 0.931 . S
H175 C157 0.929 . S
H176 C158 0.930 . S
H177 C161 0.930 . S
H178 C162 0.931 . S
H179 C166 0.928 . S
H180 C165 0.929 . S
H181 C163 0.932 . S
C182 C183 1.386 . S
C182 C184 1.397 . S
C182 H206 0.931 . S
C183 C182 1.386 . S
C183 C187 1.397 . S
C184 C182 1.397 . S
C184 C185 1.384 . S
C184 H207 0.930 . S
C185 C184 1.384 . S
C185 C186 1.377 . S
C185 C188 1.481 . S
C186 C185 1.377 . S
C186 C187 1.389 . S
C186 H208 0.929 . S
C187 C183 1.397 . S
C187 C186 1.389 . S
C187 H209 0.931 . S
C188 C185 1.481 . S
C188 C189 1.387 . S
C188 C193 1.390 . S
C189 C188 1.387 . S
C189 C190 1.401 . S
C189 H210 0.930 . S
C190 C189 1.401 . S
C190 C191 1.376 1_554 S
C190 C199 1.511 . S
C191 C190 1.376 1_556 S
C191 C192 1.392 . S
C191 H212 0.931 . S
C192 C191 1.392 . S
C192 C193 1.361 1_556 S
C192 C194 1.500 . S
C193 C188 1.390 . S
C193 C192 1.361 1_554 S
C193 H211 0.931 . S
C194 C192 1.500 . S
C194 C195 1.371 . S
C194 C196 1.365 . S
C195 C194 1.371 . S
C195 C205 1.386 . S
C195 H213 0.931 . S
C196 C194 1.365 . S
C196 C197 1.409 . S
C196 H214 0.929 . S
C197 C196 1.409 . S
C197 C198 1.380 . S
C197 H215 0.930 . S
C198 C197 1.380 . S
C198 C205 1.357 . S
C199 C190 1.511 . S
C199 C200 1.341 . S
C199 C201 1.371 1_554 S
C200 C199 1.341 . S
C200 C204 1.394 . S
C200 H216 0.930 . S
C201 C199 1.371 1_556 S
C201 C202 1.392 . S
C201 H217 0.931 . S
C202 C201 1.392 . S
C202 C203 1.331 1_556 S
C202 H220 0.932 . S
C203 C202 1.331 1_554 S
C203 C204 1.336 . S
C204 C200 1.394 . S
C204 C203 1.336 . S
C204 H219 0.929 . S
C205 C195 1.386 . S
C205 C198 1.357 . S
C205 H218 0.928 . S
H206 C182 0.931 . S
H207 C184 0.930 . S
H208 C186 0.929 . S
H209 C187 0.931 . S
H210 C189 0.930 . S
H211 C193 0.931 . S
H212 C191 0.931 . S
H213 C195 0.931 . S
H214 C196 0.929 . S
H215 C197 0.930 . S
H216 C200 0.930 . S
H217 C201 0.931 . S
H218 C205 0.928 . S
H219 C204 0.929 . S
H220 C202 0.932 . S
C221 C222 1.386 . S
C221 C223 1.397 . S
C221 H245 0.931 . S
C222 C221 1.386 . S
C222 C226 1.397 . S
C223 C221 1.397 . S
C223 C224 1.384 . S
C223 H246 0.930 . S
C224 C223 1.384 . S
C224 C225 1.377 . S
C224 C227 1.481 . S
C225 C224 1.377 . S
C225 C226 1.389 . S
C225 H247 0.929 . S
C226 C222 1.397 . S
C226 C225 1.389 . S
C226 H248 0.931 . S
C227 C224 1.481 . S
C227 C228 1.387 . S
C227 C232 1.390 . S
C228 C227 1.387 . S
C228 C229 1.401 . S
C228 H249 0.930 . S
C229 C228 1.401 . S
C229 C230 1.376 1_554 S
C229 C238 1.511 . S
C230 C229 1.376 1_556 S
C230 C231 1.392 . S
C230 H251 0.931 . S
C231 C230 1.392 . S
C231 C232 1.361 1_556 S
C231 C233 1.500 . S
C232 C227 1.390 . S
C232 C231 1.361 1_554 S
C232 H250 0.931 . S
C233 C231 1.500 . S
C233 C234 1.371 . S
C233 C235 1.365 . S
C234 C233 1.371 . S
C234 C244 1.386 . S
C234 H252 0.931 . S
C235 C233 1.365 . S
C235 C236 1.409 . S
C235 H253 0.929 . S
C236 C235 1.409 . S
C236 C237 1.380 . S
C236 H254 0.930 . S
C237 C236 1.380 . S
C237 C244 1.357 . S
C238 C229 1.511 . S
C238 C239 1.341 . S
C238 C240 1.371 1_554 S
C239 C238 1.341 . S
C239 C243 1.394 . S
C239 H255 0.930 . S
C240 C238 1.371 1_556 S
C240 C241 1.392 . S
C240 H256 0.931 . S
C241 C240 1.392 . S
C241 C242 1.331 1_556 S
C241 H259 0.932 . S
C242 C241 1.331 1_554 S
C242 C243 1.336 . S
C243 C239 1.394 . S
C243 C242 1.336 . S
C243 H258 0.929 . S
C244 C234 1.386 . S
C244 C237 1.357 . S
C244 H257 0.928 . S
H245 C221 0.931 . S
H246 C223 0.930 . S
H247 C225 0.929 . S
H248 C226 0.931 . S
H249 C228 0.930 . S
H250 C232 0.931 . S
H251 C230 0.931 . S
H252 C234 0.931 . S
H253 C235 0.929 . S
H254 C236 0.930 . S
H255 C239 0.930 . S
H256 C240 0.931 . S
H257 C244 0.928 . S
H258 C243 0.929 . S
H259 C241 0.932 . S
C260 C261 1.386 . S
C260 C262 1.397 . S
C260 H284 0.931 . S
C261 C260 1.386 . S
C261 C265 1.397 . S
C262 C260 1.397 . S
C262 C263 1.384 . S
C262 H285 0.930 . S
C263 C262 1.384 . S
C263 C264 1.377 . S
C263 C266 1.481 . S
C264 C263 1.377 . S
C264 C265 1.389 . S
C264 H286 0.929 . S
C265 C261 1.397 . S
C265 C264 1.389 . S
C265 H287 0.931 . S
C266 C263 1.481 . S
C266 C267 1.387 . S
C266 C271 1.390 . S
C267 C266 1.387 . S
C267 C268 1.401 . S
C267 H288 0.930 . S
C268 C267 1.401 . S
C268 C269 1.376 . S
C268 C277 1.511 . S
C269 C268 1.376 . S
C269 C270 1.392 . S
C269 H290 0.931 . S
C270 C269 1.392 . S
C270 C271 1.361 . S
C270 C272 1.500 . S
C271 C266 1.390 . S
C271 C270 1.361 . S
C271 H289 0.931 . S
C272 C270 1.500 . S
C272 C273 1.371 . S
C272 C274 1.365 . S
C273 C272 1.371 . S
C273 C283 1.386 . S
C273 H291 0.931 . S
C274 C272 1.365 . S
C274 C275 1.409 . S
C274 H292 0.929 . S
C275 C274 1.409 . S
C275 C276 1.380 . S
C275 H293 0.930 . S
C276 C275 1.380 . S
C276 C283 1.357 . S
C277 C268 1.511 . S
C277 C278 1.341 . S
C277 C279 1.371 . S
C278 C277 1.341 . S
C278 C282 1.394 . S
C278 H294 0.930 . S
C279 C277 1.371 . S
C279 C280 1.392 . S
C279 H295 0.931 . S
C280 C279 1.392 . S
C280 C281 1.331 . S
C280 H298 0.932 . S
C281 C280 1.331 . S
C281 C282 1.336 . S
C282 C278 1.394 . S
C282 C281 1.336 . S
C282 H297 0.929 . S
C283 C273 1.386 . S
C283 C276 1.357 . S
C283 H296 0.928 . S
H284 C260 0.931 . S
H285 C262 0.930 . S
H286 C264 0.929 . S
H287 C265 0.931 . S
H288 C267 0.930 . S
H289 C271 0.931 . S
H290 C269 0.931 . S
H291 C273 0.931 . S
H292 C274 0.929 . S
H293 C275 0.930 . S
H294 C278 0.930 . S
H295 C279 0.931 . S
H296 C283 0.928 . S
H297 C282 0.929 . S
H298 C280 0.932 . S
C299 C300 1.386 . S
C299 C301 1.397 . S
C299 H323 0.931 . S
C300 C299 1.386 . S
C300 C304 1.397 . S
C301 C299 1.397 . S
C301 C302 1.384 . S
C301 H324 0.930 . S
C302 C301 1.384 . S
C302 C303 1.377 . S
C302 C305 1.481 . S
C303 C302 1.377 . S
C303 C304 1.389 . S
C303 H325 0.929 . S
C304 C300 1.397 . S
C304 C303 1.389 . S
C304 H326 0.931 . S
C305 C302 1.481 . S
C305 C306 1.387 . S
C305 C310 1.390 . S
C306 C305 1.387 . S
C306 C307 1.401 . S
C306 H327 0.930 . S
C307 C306 1.401 . S
C307 C308 1.376 . S
C307 C316 1.511 . S
C308 C307 1.376 . S
C308 C309 1.392 . S
C308 H329 0.931 . S
C309 C308 1.392 . S
C309 C310 1.361 . S
C309 C311 1.500 . S
C310 C305 1.390 . S
C310 C309 1.361 . S
C310 H328 0.931 . S
C311 C309 1.500 . S
C311 C312 1.371 . S
C311 C313 1.365 . S
C312 C311 1.371 . S
C312 C322 1.386 . S
C312 H330 0.931 . S
C313 C311 1.365 . S
C313 C314 1.409 . S
C313 H331 0.929 . S
C314 C313 1.409 . S
C314 C315 1.380 . S
C314 H332 0.930 . S
C315 C314 1.380 . S
C315 C322 1.357 . S
C316 C307 1.511 . S
C316 C317 1.341 . S
C316 C318 1.371 . S
C317 C316 1.341 . S
C317 C321 1.394 . S
C317 H333 0.930 . S
C318 C316 1.371 . S
C318 C319 1.392 . S
C318 H334 0.931 . S
C319 C318 1.392 . S
C319 C320 1.331 . S
C319 H337 0.932 . S
C320 C319 1.331 . S
C320 C321 1.336 . S
C321 C317 1.394 . S
C321 C320 1.336 . S
C321 H336 0.929 . S
C322 C312 1.386 . S
C322 C315 1.357 . S
C322 H335 0.928 . S
H323 C299 0.931 . S
H324 C301 0.930 . S
H325 C303 0.929 . S
H326 C304 0.931 . S
H327 C306 0.930 . S
H328 C310 0.931 . S
H329 C308 0.931 . S
H330 C312 0.931 . S
H331 C313 0.929 . S
H332 C314 0.930 . S
H333 C317 0.930 . S
H334 C318 0.931 . S
H335 C322 0.928 . S
H336 C321 0.929 . S
H337 C319 0.932 . S
C338 C339 1.386 . S
C338 C340 1.397 . S
C338 H362 0.931 . S
C339 C338 1.386 . S
C339 C343 1.397 . S
C340 C338 1.397 . S
C340 C341 1.384 . S
C340 H363 0.930 . S
C341 C340 1.384 . S
C341 C342 1.377 . S
C341 C344 1.481 . S
C342 C341 1.377 . S
C342 C343 1.389 . S
C342 H364 0.929 . S
C343 C339 1.397 . S
C343 C342 1.389 . S
C343 H365 0.931 . S
C344 C341 1.481 . S
C344 C345 1.387 . S
C344 C349 1.390 . S
C345 C344 1.387 . S
C345 C346 1.401 . S
C345 H366 0.930 . S
C346 C345 1.401 . S
C346 C347 1.376 . S
C346 C355 1.511 . S
C347 C346 1.376 . S
C347 C348 1.392 . S
C347 H368 0.931 . S
C348 C347 1.392 . S
C348 C349 1.361 . S
C348 C350 1.500 . S
C349 C344 1.390 . S
C349 C348 1.361 . S
C349 H367 0.931 . S
C350 C348 1.500 . S
C350 C351 1.371 . S
C350 C352 1.365 . S
C351 C350 1.371 . S
C351 C361 1.386 . S
C351 H369 0.931 . S
C352 C350 1.365 . S
C352 C353 1.409 . S
C352 H370 0.929 . S
C353 C352 1.409 . S
C353 C354 1.380 . S
C353 H371 0.930 . S
C354 C353 1.380 . S
C354 C361 1.357 . S
C355 C346 1.511 . S
C355 C356 1.341 . S
C355 C357 1.371 . S
C356 C355 1.341 . S
C356 C360 1.394 . S
C356 H372 0.930 . S
C357 C355 1.371 . S
C357 C358 1.392 . S
C357 H373 0.931 . S
C358 C357 1.392 . S
C358 C359 1.331 . S
C358 H376 0.932 . S
C359 C358 1.331 . S
C359 C360 1.336 . S
C360 C356 1.394 . S
C360 C359 1.336 . S
C360 H375 0.929 . S
C361 C351 1.386 . S
C361 C354 1.357 . S
C361 H374 0.928 . S
H362 C338 0.931 . S
H363 C340 0.930 . S
H364 C342 0.929 . S
H365 C343 0.931 . S
H366 C345 0.930 . S
H367 C349 0.931 . S
H368 C347 0.931 . S
H369 C351 0.931 . S
H370 C352 0.929 . S
H371 C353 0.930 . S
H372 C356 0.930 . S
H373 C357 0.931 . S
H374 C361 0.928 . S
H375 C360 0.929 . S
H376 C358 0.932 . S
C377 C378 1.386 . S
C377 C379 1.397 . S
C377 H401 0.931 . S
C378 C377 1.386 . S
C378 C382 1.397 . S
C379 C377 1.397 . S
C379 C380 1.384 . S
C379 H402 0.930 . S
C380 C379 1.384 . S
C380 C381 1.377 . S
C380 C383 1.481 . S
C381 C380 1.377 . S
C381 C382 1.389 . S
C381 H403 0.929 . S
C382 C378 1.397 . S
C382 C381 1.389 . S
C382 H404 0.931 . S
C383 C380 1.481 . S
C383 C384 1.387 . S
C383 C388 1.390 . S
C384 C383 1.387 . S
C384 C385 1.401 . S
C384 H405 0.930 . S
C385 C384 1.401 . S
C385 C386 1.376 . S
C385 C394 1.511 . S
C386 C385 1.376 . S
C386 C387 1.392 . S
C386 H407 0.931 . S
C387 C386 1.392 . S
C387 C388 1.361 . S
C387 C389 1.500 . S
C388 C383 1.390 . S
C388 C387 1.361 . S
C388 H406 0.931 . S
C389 C387 1.500 . S
C389 C390 1.371 . S
C389 C391 1.365 . S
C390 C389 1.371 . S
C390 C400 1.386 . S
C390 H408 0.931 . S
C391 C389 1.365 . S
C391 C392 1.409 . S
C391 H409 0.929 . S
C392 C391 1.409 . S
C392 C393 1.380 . S
C392 H410 0.930 . S
C393 C392 1.380 . S
C393 C400 1.357 . S
C394 C385 1.511 . S
C394 C395 1.341 . S
C394 C396 1.371 . S
C395 C394 1.341 . S
C395 C399 1.394 . S
C395 H411 0.930 . S
C396 C394 1.371 . S
C396 C397 1.392 . S
C396 H412 0.931 . S
C397 C396 1.392 . S
C397 C398 1.331 . S
C397 H415 0.932 . S
C398 C397 1.331 . S
C398 C399 1.336 . S
C399 C395 1.394 . S
C399 C398 1.336 . S
C399 H414 0.929 . S
C400 C390 1.386 . S
C400 C393 1.357 . S
C400 H413 0.928 . S
H401 C377 0.931 . S
H402 C379 0.930 . S
H403 C381 0.929 . S
H404 C382 0.931 . S
H405 C384 0.930 . S
H406 C388 0.931 . S
H407 C386 0.931 . S
H408 C390 0.931 . S
H409 C391 0.929 . S
H410 C392 0.930 . S
H411 C395 0.930 . S
H412 C396 0.931 . S
H413 C400 0.928 . S
H414 C399 0.929 . S
H415 C397 0.932 . S
H416 C434 0.951 . S
H417 C436 0.951 . S
H418 C438 0.928 1_556 S
H419 C439 0.950 1_556 S
H420 C441 0.950 . S
H421 C444 0.950 . S
H422 C445 0.950 . S
H423 C447 0.950 . S
H424 C448 0.950 . S
H425 C449 0.956 . S
H426 C451 0.963 . S
H427 C453 0.950 . S
H428 C454 0.950 . S
H429 C456 0.950 . S
H430 C459 0.950 . S
H431 C460 0.950 . S
H432 C462 0.950 . S
H433 C463 0.950 . S
C434 H416 0.951 . S
C434 C435 1.366 . S
C434 C436 1.388 . S
C435 C434 1.366 . S
C435 C439 1.385 . S
C436 H417 0.951 . S
C436 C434 1.388 . S
C436 C437 1.366 . S
C437 C436 1.366 . S
C437 C438 1.436 . S
C437 C440 1.499 . S
C438 H418 0.928 1_554 S
C438 C437 1.436 . S
C438 C439 1.374 . S
C439 H419 0.950 1_554 S
C439 C435 1.385 . S
C439 C438 1.374 . S
C440 C437 1.499 . S
C440 C441 1.373 1_554 S
C440 C442 1.389 . S
C441 H420 0.950 . S
C441 C440 1.373 1_556 S
C441 C457 1.377 . S
C442 C440 1.389 . S
C442 C443 1.524 . S
C442 C456 1.377 . S
C443 C442 1.524 . S
C443 C444 1.397 . S
C443 C448 1.363 . S
C444 H421 0.950 . S
C444 C443 1.397 . S
C444 C445 1.334 . S
C445 H422 0.950 . S
C445 C444 1.334 . S
C445 C446 1.287 . S
C446 C445 1.287 . S
C446 C447 1.524 . S
C446 H465 0.913 . S
C447 H423 0.950 . S
C447 C446 1.524 . S
C447 C448 1.415 . S
C448 H424 0.950 . S
C448 C443 1.363 . S
C448 C447 1.415 . S
C449 H425 0.956 . S
C449 C450 1.361 1_556 S
C449 C451 1.388 . S
C450 C449 1.361 1_554 S
C450 C454 1.385 . S
C451 H426 0.963 . S
C451 C449 1.388 . S
C451 C452 1.354 1_556 S
C452 C451 1.354 1_554 S
C452 C453 1.414 . S
C452 C455 1.499 . S
C453 H427 0.950 . S
C453 C452 1.414 . S
C453 C454 1.374 . S
C454 H428 0.950 . S
C454 C450 1.385 . S
C454 C453 1.374 . S
C455 C452 1.499 . S
C455 C456 1.373 . S
C455 C457 1.389 1_554 S
C456 H429 0.950 . S
C456 C442 1.377 . S
C456 C455 1.373 . S
C457 C441 1.377 . S
C457 C455 1.389 1_556 S
C457 C458 1.524 . S
C458 C457 1.524 . S
C458 C459 1.397 . S
C458 C463 1.363 . S
C459 H430 0.950 . S
C459 C458 1.397 . S
C459 C460 1.334 . S
C460 H431 0.950 . S
C460 C459 1.334 . S
C460 C461 1.287 . S
C461 C460 1.287 . S
C461 C462 1.524 . S
C461 H464 0.999 . S
C462 H432 0.950 . S
C462 C461 1.524 . S
C462 C463 1.415 . S
C463 H433 0.950 . S
C463 C458 1.363 . S
C463 C462 1.415 . S
H464 C461 0.999 . S
H465 C446 0.913 . S
H466 C484 0.951 . S
H467 C486 0.951 . S
H468 C488 0.950 . S
H469 C489 0.950 . S
H470 C491 0.950 . S
H471 C494 0.950 . S
H472 C495 0.950 . S
H473 C497 0.950 . S
H474 C498 0.950 1_554 S
H475 C499 0.951 . S
H476 C501 0.951 . S
H477 C503 0.950 . S
H478 C504 0.950 . S
H479 C506 0.950 . S
H480 C509 0.950 . S
H481 C510 0.950 . S
H482 C512 0.950 . S
H483 C513 0.950 . S
C484 H466 0.951 . S
C484 C485 1.366 . S
C484 C486 1.388 . S
C485 C484 1.366 . S
C485 C489 1.385 . S
C486 H467 0.951 . S
C486 C484 1.388 . S
C486 C487 1.366 . S
C487 C486 1.366 . S
C487 C488 1.414 . S
C487 C490 1.499 . S
C488 H468 0.950 . S
C488 C487 1.414 . S
C488 C489 1.374 . S
C489 H469 0.950 . S
C489 C485 1.385 . S
C489 C488 1.374 . S
C490 C487 1.499 . S
C490 C491 1.373 . S
C490 C492 1.389 . S
C491 H470 0.950 . S
C491 C490 1.373 . S
C491 C507 1.377 . S
C492 C490 1.389 . S
C492 C493 1.524 1_554 S
C492 C506 1.377 . S
C493 C492 1.524 1_556 S
C493 C494 1.397 . S
C493 C498 1.363 . S
C494 H471 0.950 . S
C494 C493 1.397 . S
C494 C495 1.334 . S
C495 H472 0.950 . S
C495 C494 1.334 . S
C495 C496 1.287 . S
C496 C495 1.287 . S
C496 C497 1.524 . S
C496 H515 0.913 . S
C497 H473 0.950 . S
C497 C496 1.524 . S
C497 C498 1.415 . S
C498 H474 0.950 1_556 S
C498 C493 1.363 . S
C498 C497 1.415 . S
C499 H475 0.951 . S
C499 C500 1.366 . S
C499 C501 1.388 . S
C500 C499 1.366 . S
C500 C504 1.385 . S
C501 H476 0.951 . S
C501 C499 1.388 . S
C501 C502 1.366 . S
C502 C501 1.366 . S
C502 C503 1.414 . S
C502 C505 1.499 . S
C503 H477 0.950 . S
C503 C502 1.414 . S
C503 C504 1.374 . S
C504 H478 0.950 . S
C504 C500 1.385 . S
C504 C503 1.374 . S
C505 C502 1.499 . S
C505 C506 1.373 . S
C505 C507 1.389 . S
C506 H479 0.950 . S
C506 C492 1.377 . S
C506 C505 1.373 . S
C507 C491 1.377 . S
C507 C505 1.389 . S
C507 C508 1.524 . S
C508 C507 1.524 . S
C508 C509 1.397 . S
C508 C513 1.363 . S
C509 H480 0.950 . S
C509 C508 1.397 . S
C509 C510 1.334 . S
C510 H481 0.950 . S
C510 C509 1.334 . S
C510 C511 1.287 . S
C511 C510 1.287 . S
C511 C512 1.524 . S
C511 H514 0.999 . S
C512 H482 0.950 . S
C512 C511 1.524 . S
C512 C513 1.415 . S
C513 H483 0.950 . S
C513 C508 1.363 . S
C513 C512 1.415 . S
H514 C511 0.999 . S
H515 C496 0.913 . S
H516 C534 0.951 1_556 S
H517 C536 0.951 1_556 S
H518 C538 0.950 . S
H519 C539 0.950 . S
H520 C541 0.950 . S
H521 C544 0.950 . S
H522 C545 0.950 . S
H523 C547 0.950 . S
H524 C548 0.950 . S
H525 C549 0.951 . S
H526 C551 0.951 . S
H527 C553 0.950 1_556 S
H528 C554 0.950 1_556 S
H529 C556 0.950 . S
H530 C559 0.950 . S
H531 C560 0.950 . S
H532 C562 0.950 . S
H533 C563 0.950 . S
C534 H516 0.951 1_554 S
C534 C535 1.366 . S
C534 C536 1.388 . S
C535 C534 1.366 . S
C535 C539 1.385 . S
C536 H517 0.951 1_554 S
C536 C534 1.388 . S
C536 C537 1.366 . S
C537 C536 1.366 . S
C537 C538 1.414 . S
C537 C540 1.499 . S
C538 H518 0.950 . S
C538 C537 1.414 . S
C538 C539 1.374 . S
C539 H519 0.950 . S
C539 C535 1.385 . S
C539 C538 1.374 . S
C540 C537 1.499 . S
C540 C541 1.373 . S
C540 C542 1.389 . S
C541 H520 0.950 . S
C541 C540 1.373 . S
C541 C557 1.377 . S
C542 C540 1.389 . S
C542 C543 1.524 . S
C542 C556 1.377 . S
C543 C542 1.524 . S
C543 C544 1.397 . S
C543 C548 1.363 . S
C544 H521 0.950 . S
C544 C543 1.397 . S
C544 C545 1.334 . S
C545 H522 0.950 . S
C545 C544 1.334 . S
C545 C546 1.287 . S
C546 C545 1.287 . S
C546 C547 1.524 . S
C546 H565 0.913 . S
C547 H523 0.950 . S
C547 C546 1.524 . S
C547 C548 1.415 . S
C548 H524 0.950 . S
C548 C543 1.363 . S
C548 C547 1.415 . S
C549 H525 0.951 . S
C549 C550 1.366 . S
C549 C551 1.388 . S
C550 C549 1.366 . S
C550 C554 1.385 . S
C551 H526 0.951 . S
C551 C549 1.388 . S
C551 C552 1.366 . S
C552 C551 1.366 . S
C552 C553 1.414 . S
C552 C555 1.499 . S
C553 H527 0.950 1_554 S
C553 C552 1.414 . S
C553 C554 1.374 . S
C554 H528 0.950 1_554 S
C554 C550 1.385 . S
C554 C553 1.374 . S
C555 C552 1.499 . S
C555 C556 1.373 . S
C555 C557 1.389 . S
C556 H529 0.950 . S
C556 C542 1.377 . S
C556 C555 1.373 . S
C557 C541 1.377 . S
C557 C555 1.389 . S
C557 C558 1.524 . S
C558 C557 1.524 . S
C558 C559 1.397 1_554 S
C558 C563 1.363 . S
C559 H530 0.950 . S
C559 C558 1.397 1_556 S
C559 C560 1.334 . S
C560 H531 0.950 . S
C560 C559 1.334 . S
C560 C561 1.287 . S
C561 C560 1.287 . S
C561 C562 1.524 1_556 S
C561 H564 0.999 . S
C562 H532 0.950 . S
C562 C561 1.524 1_554 S
C562 C563 1.415 . S
C563 H533 0.950 . S
C563 C558 1.363 . S
C563 C562 1.415 . S
H564 C561 0.999 . S
H565 C546 0.913 . S
H566 C584 0.951 . S
H567 C586 0.951 . S
H568 C588 0.950 . S
H569 C589 0.950 . S
H570 C591 0.950 . S
H571 C594 0.950 . S
H572 C595 0.950 . S
H573 C597 0.950 . S
H574 C598 0.950 . S
H575 C599 0.951 . S
H576 C601 0.951 . S
H577 C603 0.950 . S
H578 C604 0.950 . S
H579 C606 0.950 1_556 S
H580 C609 0.950 . S
H581 C610 0.950 . S
H582 C612 0.950 . S
H583 C613 0.950 . S
C584 H566 0.951 . S
C584 C585 1.366 . S
C584 C586 1.388 . S
C585 C584 1.366 . S
C585 C589 1.385 . S
C586 H567 0.951 . S
C586 C584 1.388 . S
C586 C587 1.366 . S
C587 C586 1.366 . S
C587 C588 1.414 . S
C587 C590 1.499 . S
C588 H568 0.950 . S
C588 C587 1.414 . S
C588 C589 1.374 . S
C589 H569 0.950 . S
C589 C585 1.385 . S
C589 C588 1.374 . S
C590 C587 1.499 . S
C590 C591 1.373 . S
C590 C592 1.389 . S
C591 H570 0.950 . S
C591 C590 1.373 . S
C591 C607 1.377 . S
C592 C590 1.389 . S
C592 C593 1.524 1_554 S
C592 C606 1.377 . S
C593 C592 1.524 1_556 S
C593 C594 1.397 . S
C593 C598 1.363 . S
C594 H571 0.950 . S
C594 C593 1.397 . S
C594 C595 1.334 . S
C595 H572 0.950 . S
C595 C594 1.334 . S
C595 C596 1.287 . S
C596 C595 1.287 . S
C596 C597 1.524 . S
C596 H615 0.913 . S
C597 H573 0.950 . S
C597 C596 1.524 . S
C597 C598 1.415 . S
C598 H574 0.950 . S
C598 C593 1.363 . S
C598 C597 1.415 . S
C599 H575 0.951 . S
C599 C600 1.366 . S
C599 C601 1.388 . S
C600 C599 1.366 . S
C600 C604 1.385 . S
C601 H576 0.951 . S
C601 C599 1.388 . S
C601 C602 1.366 . S
C602 C601 1.366 . S
C602 C603 1.414 . S
C602 C605 1.499 . S
C603 H577 0.950 . S
C603 C602 1.414 . S
C603 C604 1.374 . S
C604 H578 0.950 . S
C604 C600 1.385 . S
C604 C603 1.374 . S
C605 C602 1.499 . S
C605 C606 1.373 . S
C605 C607 1.389 . S
C606 H579 0.950 1_554 S
C606 C592 1.377 . S
C606 C605 1.373 . S
C607 C591 1.377 . S
C607 C605 1.389 . S
C607 C608 1.524 . S
C608 C607 1.524 . S
C608 C609 1.397 . S
C608 C613 1.363 . S
C609 H580 0.950 . S
C609 C608 1.397 . S
C609 C610 1.334 . S
C610 H581 0.950 . S
C610 C609 1.334 . S
C610 C611 1.287 . S
C611 C610 1.287 . S
C611 C612 1.524 . S
C611 H614 0.999 . S
C612 H582 0.950 . S
C612 C611 1.524 . S
C612 C613 1.415 . S
C613 H583 0.950 . S
C613 C608 1.363 . S
C613 C612 1.415 . S
H614 C611 0.999 . S
H615 C596 0.913 . S
H616 C634 0.951 . S
H617 C636 0.951 . S
H618 C638 0.950 . S
H619 C639 0.950 . S
H620 C641 0.950 . S
H621 C644 0.950 . S
H622 C645 0.950 . S
H623 C647 0.950 . S
H624 C648 0.950 . S
H625 C649 0.951 . S
H626 C651 0.951 . S
H627 C653 0.950 . S
H628 C654 0.950 . S
H629 C656 0.950 . S
H630 C659 0.950 . S
H631 C660 0.950 . S
H632 C662 0.950 . S
H633 C663 0.950 . S
C634 H616 0.951 . S
C634 C635 1.366 . S
C634 C636 1.388 . S
C635 C634 1.366 . S
C635 C639 1.385 . S
C636 H617 0.951 . S
C636 C634 1.388 . S
C636 C637 1.366 . S
C637 C636 1.366 . S
C637 C638 1.414 . S
C637 C640 1.499 . S
C638 H618 0.950 . S
C638 C637 1.414 . S
C638 C639 1.374 . S
C639 H619 0.950 . S
C639 C635 1.385 . S
C639 C638 1.374 . S
C640 C637 1.499 . S
C640 C641 1.373 . S
C640 C642 1.389 . S
C641 H620 0.950 . S
C641 C640 1.373 . S
C641 C657 1.377 . S
C642 C640 1.389 . S
C642 C643 1.524 . S
C642 C656 1.377 . S
C643 C642 1.524 . S
C643 C644 1.397 . S
C643 C648 1.363 . S
C644 H621 0.950 . S
C644 C643 1.397 . S
C644 C645 1.334 . S
C645 H622 0.950 . S
C645 C644 1.334 . S
C645 C646 1.287 . S
C646 C645 1.287 . S
C646 C647 1.524 . S
C646 H665 0.913 . S
C647 H623 0.950 . S
C647 C646 1.524 . S
C647 C648 1.415 . S
C648 H624 0.950 . S
C648 C643 1.363 . S
C648 C647 1.415 . S
C649 H625 0.951 . S
C649 C650 1.366 . S
C649 C651 1.388 . S
C650 C649 1.366 . S
C650 C654 1.385 . S
C651 H626 0.951 . S
C651 C649 1.388 . S
C651 C652 1.366 . S
C652 C651 1.366 . S
C652 C653 1.414 . S
C652 C655 1.499 . S
C653 H627 0.950 . S
C653 C652 1.414 . S
C653 C654 1.374 . S
C654 H628 0.950 . S
C654 C650 1.385 . S
C654 C653 1.374 . S
C655 C652 1.499 . S
C655 C656 1.373 . S
C655 C657 1.389 . S
C656 H629 0.950 . S
C656 C642 1.377 . S
C656 C655 1.373 . S
C657 C641 1.377 . S
C657 C655 1.389 . S
C657 C658 1.524 . S
C658 C657 1.524 . S
C658 C659 1.397 . S
C658 C663 1.363 . S
C659 H630 0.950 . S
C659 C658 1.397 . S
C659 C660 1.334 . S
C660 H631 0.950 . S
C660 C659 1.334 . S
C660 C661 1.287 . S
C661 C660 1.287 . S
C661 C662 1.524 . S
C661 H664 0.999 . S
C662 H632 0.950 . S
C662 C661 1.524 . S
C662 C663 1.415 . S
C663 H633 0.950 . S
C663 C658 1.363 . S
C663 C662 1.415 . S
H664 C661 0.999 . S
H665 C646 0.913 . S
H666 C684 0.951 . S
H667 C686 0.951 . S
H668 C688 0.950 . S
H669 C689 0.950 . S
H670 C691 0.950 . S
H671 C694 0.950 . S
H672 C695 0.950 . S
H673 C697 0.950 . S
H674 C698 0.950 . S
H675 C699 0.951 . S
H676 C701 0.951 . S
H677 C703 0.950 . S
H678 C704 0.950 . S
H679 C706 0.950 . S
H680 C709 0.950 . S
H681 C710 0.950 . S
H682 C712 0.950 . S
H683 C713 0.950 . S
C684 H666 0.951 . S
C684 C685 1.366 . S
C684 C686 1.388 . S
C685 C684 1.366 . S
C685 C689 1.385 . S
C686 H667 0.951 . S
C686 C684 1.388 . S
C686 C687 1.366 . S
C687 C686 1.366 . S
C687 C688 1.414 . S
C687 C690 1.499 . S
C688 H668 0.950 . S
C688 C687 1.414 . S
C688 C689 1.374 . S
C689 H669 0.950 . S
C689 C685 1.385 . S
C689 C688 1.374 . S
C690 C687 1.499 . S
C690 C691 1.373 . S
C690 C692 1.389 . S
C691 H670 0.950 . S
C691 C690 1.373 . S
C691 C707 1.377 . S
C692 C690 1.389 . S
C692 C693 1.524 . S
C692 C706 1.377 . S
C693 C692 1.524 . S
C693 C694 1.397 . S
C693 C698 1.363 . S
C694 H671 0.950 . S
C694 C693 1.397 . S
C694 C695 1.334 . S
C695 H672 0.950 . S
C695 C694 1.334 . S
C695 C696 1.287 . S
C696 C695 1.287 . S
C696 C697 1.524 . S
C696 H715 0.913 . S
C697 H673 0.950 . S
C697 C696 1.524 . S
C697 C698 1.415 . S
C698 H674 0.950 . S
C698 C693 1.363 . S
C698 C697 1.415 . S
C699 H675 0.951 . S
C699 C700 1.366 . S
C699 C701 1.388 . S
C700 C699 1.366 . S
C700 C704 1.385 . S
C701 H676 0.951 . S
C701 C699 1.388 . S
C701 C702 1.366 . S
C702 C701 1.366 . S
C702 C703 1.414 . S
C702 C705 1.499 . S
C703 H677 0.950 . S
C703 C702 1.414 . S
C703 C704 1.374 . S
C704 H678 0.950 . S
C704 C700 1.385 . S
C704 C703 1.374 . S
C705 C702 1.499 . S
C705 C706 1.373 . S
C705 C707 1.389 . S
C706 H679 0.950 . S
C706 C692 1.377 . S
C706 C705 1.373 . S
C707 C691 1.377 . S
C707 C705 1.389 . S
C707 C708 1.524 . S
C708 C707 1.524 . S
C708 C709 1.397 . S
C708 C713 1.363 . S
C709 H680 0.950 . S
C709 C708 1.397 . S
C709 C710 1.334 . S
C710 H681 0.950 . S
C710 C709 1.334 . S
C710 C711 1.287 . S
C711 C710 1.287 . S
C711 C712 1.524 . S
C711 H714 0.999 . S
C712 H682 0.950 . S
C712 C711 1.524 . S
C712 C713 1.415 . S
C713 H683 0.950 . S
C713 C708 1.363 . S
C713 C712 1.415 . S
H714 C711 0.999 . S
H715 C696 0.913 . S
H716 C734 0.951 . S
H717 C736 0.951 . S
H718 C738 0.950 . S
H719 C739 0.950 . S
H720 C741 0.950 . S
H721 C744 0.950 . S
H722 C745 0.950 . S
H723 C747 0.950 . S
H724 C748 0.950 . S
H725 C749 0.951 . S
H726 C751 0.951 . S
H727 C753 0.950 . S
H728 C754 0.950 . S
H729 C756 0.950 . S
H730 C759 0.950 . S
H731 C760 0.950 . S
H732 C762 0.950 . S
H733 C763 0.950 . S
C734 H716 0.951 . S
C734 C735 1.366 . S
C734 C736 1.388 . S
C735 C734 1.366 . S
C735 C739 1.385 . S
C736 H717 0.951 . S
C736 C734 1.388 . S
C736 C737 1.366 . S
C737 C736 1.366 . S
C737 C738 1.414 . S
C737 C740 1.499 . S
C738 H718 0.950 . S
C738 C737 1.414 . S
C738 C739 1.374 . S
C739 H719 0.950 . S
C739 C735 1.385 . S
C739 C738 1.374 . S
C740 C737 1.499 . S
C740 C741 1.373 . S
C740 C742 1.389 . S
C741 H720 0.950 . S
C741 C740 1.373 . S
C741 C757 1.377 . S
C742 C740 1.389 . S
C742 C743 1.524 . S
C742 C756 1.377 . S
C743 C742 1.524 . S
C743 C744 1.397 . S
C743 C748 1.363 . S
C744 H721 0.950 . S
C744 C743 1.397 . S
C744 C745 1.334 . S
C745 H722 0.950 . S
C745 C744 1.334 . S
C745 C746 1.287 . S
C746 C745 1.287 . S
C746 C747 1.524 . S
C746 H765 0.913 . S
C747 H723 0.950 . S
C747 C746 1.524 . S
C747 C748 1.415 . S
C748 H724 0.950 . S
C748 C743 1.363 . S
C748 C747 1.415 . S
C749 H725 0.951 . S
C749 C750 1.366 . S
C749 C751 1.388 . S
C750 C749 1.366 . S
C750 C754 1.385 . S
C751 H726 0.951 . S
C751 C749 1.388 . S
C751 C752 1.366 . S
C752 C751 1.366 . S
C752 C753 1.414 . S
C752 C755 1.499 . S
C753 H727 0.950 . S
C753 C752 1.414 . S
C753 C754 1.374 . S
C754 H728 0.950 . S
C754 C750 1.385 . S
C754 C753 1.374 . S
C755 C752 1.499 . S
C755 C756 1.373 . S
C755 C757 1.389 . S
C756 H729 0.950 . S
C756 C742 1.377 . S
C756 C755 1.373 . S
C757 C741 1.377 . S
C757 C755 1.389 . S
C757 C758 1.524 . S
C758 C757 1.524 . S
C758 C759 1.397 . S
C758 C763 1.363 . S
C759 H730 0.950 . S
C759 C758 1.397 . S
C759 C760 1.334 . S
C760 H731 0.950 . S
C760 C759 1.334 . S
C760 C761 1.287 . S
C761 C760 1.287 . S
C761 C762 1.524 . S
C761 H764 0.999 . S
C762 H732 0.950 . S
C762 C761 1.524 . S
C762 C763 1.415 . S
C763 H733 0.950 . S
C763 C758 1.363 . S
C763 C762 1.415 . S
H764 C761 0.999 . S
H765 C746 0.913 . S
H766 C784 0.951 . S
H767 C786 0.951 . S
H768 C788 0.950 . S
H769 C789 0.950 . S
H770 C791 0.950 . S
H771 C794 0.950 . S
H772 C795 0.950 . S
H773 C797 0.950 . S
H774 C798 0.950 . S
H775 C799 0.951 . S
H776 C801 0.951 . S
H777 C803 0.950 . S
H778 C804 0.950 . S
H779 C806 0.950 . S
H780 C809 0.950 . S
H781 C810 0.950 . S
H782 C812 0.950 . S
H783 C813 0.950 . S
C784 H766 0.951 . S
C784 C785 1.366 . S
C784 C786 1.388 . S
C785 C784 1.366 . S
C785 C789 1.385 . S
C786 H767 0.951 . S
C786 C784 1.388 . S
C786 C787 1.366 . S
C787 C786 1.366 . S
C787 C788 1.414 . S
C787 C790 1.499 . S
C788 H768 0.950 . S
C788 C787 1.414 . S
C788 C789 1.374 . S
C789 H769 0.950 . S
C789 C785 1.385 . S
C789 C788 1.374 . S
C790 C787 1.499 . S
C790 C791 1.373 . S
C790 C792 1.389 . S
C791 H770 0.950 . S
C791 C790 1.373 . S
C791 C807 1.377 . S
C792 C790 1.389 . S
C792 C793 1.524 . S
C792 C806 1.377 . S
C793 C792 1.524 . S
C793 C794 1.397 . S
C793 C798 1.363 . S
C794 H771 0.950 . S
C794 C793 1.397 . S
C794 C795 1.334 . S
C795 H772 0.950 . S
C795 C794 1.334 . S
C795 C796 1.287 . S
C796 C795 1.287 . S
C796 C797 1.524 . S
C796 H815 0.913 . S
C797 H773 0.950 . S
C797 C796 1.524 . S
C797 C798 1.415 . S
C798 H774 0.950 . S
C798 C793 1.363 . S
C798 C797 1.415 . S
C799 H775 0.951 . S
C799 C800 1.366 . S
C799 C801 1.388 . S
C800 C799 1.366 . S
C800 C804 1.385 . S
C801 H776 0.951 . S
C801 C799 1.388 . S
C801 C802 1.366 . S
C802 C801 1.366 . S
C802 C803 1.414 . S
C802 C805 1.499 . S
C803 H777 0.950 . S
C803 C802 1.414 . S
C803 C804 1.374 . S
C804 H778 0.950 . S
C804 C800 1.385 . S
C804 C803 1.374 . S
C805 C802 1.499 . S
C805 C806 1.373 . S
C805 C807 1.389 . S
C806 H779 0.950 . S
C806 C792 1.377 . S
C806 C805 1.373 . S
C807 C791 1.377 . S
C807 C805 1.389 . S
C807 C808 1.524 . S
C808 C807 1.524 . S
C808 C809 1.397 . S
C808 C813 1.363 . S
C809 H780 0.950 . S
C809 C808 1.397 . S
C809 C810 1.334 . S
C810 H781 0.950 . S
C810 C809 1.334 . S
C810 C811 1.287 . S
C811 C810 1.287 . S
C811 C812 1.524 . S
C811 H814 0.999 . S
C812 H782 0.950 . S
C812 C811 1.524 . S
C812 C813 1.415 . S
C813 H783 0.950 . S
C813 C808 1.363 . S
C813 C812 1.415 . S
H814 C811 0.999 . S
H815 C796 0.913 . S
H816 C834 0.951 1_655 S
H817 C836 0.963 . S
H818 C838 0.950 . S
H819 C839 0.950 . S
H820 C841 0.950 . S
H821 C844 0.950 . S
H822 C845 0.950 . S
H823 C847 0.950 . S
H824 C848 0.950 . S
H825 C849 0.951 . S
H826 C851 0.951 . S
H827 C853 0.950 . S
H828 C854 0.950 . S
H829 C856 0.950 . S
H830 C859 0.950 . S
H831 C860 0.950 . S
H832 C862 0.950 . S
H833 C863 0.950 . S
C834 H816 0.951 1_455 S
C834 C835 1.366 . S
C834 C836 1.388 . S
C835 C834 1.366 . S
C835 C839 1.385 . S
C836 H817 0.963 . S
C836 C834 1.388 . S
C836 C837 1.366 . S
C837 C836 1.366 . S
C837 C838 1.414 . S
C837 C840 1.499 . S
C838 H818 0.950 . S
C838 C837 1.414 . S
C838 C839 1.374 . S
C839 H819 0.950 . S
C839 C835 1.385 . S
C839 C838 1.374 . S
C840 C837 1.499 . S
C840 C841 1.373 . S
C840 C842 1.389 . S
C841 H820 0.950 . S
C841 C840 1.373 . S
C841 C857 1.377 . S
C842 C840 1.389 . S
C842 C843 1.524 . S
C842 C856 1.377 . S
C843 C842 1.524 . S
C843 C844 1.397 . S
C843 C848 1.363 1_455 S
C844 H821 0.950 . S
C844 C843 1.397 . S
C844 C845 1.334 . S
C845 H822 0.950 . S
C845 C844 1.334 . S
C845 C846 1.287 1_455 S
C846 C845 1.287 1_655 S
C846 C847 1.524 . S
C846 H865 0.913 . S
C847 H823 0.950 . S
C847 C846 1.524 . S
C847 C848 1.415 . S
C848 H824 0.950 . S
C848 C843 1.363 1_655 S
C848 C847 1.415 . S
C849 H825 0.951 . S
C849 C850 1.366 . S
C849 C851 1.388 . S
C850 C849 1.366 . S
C850 C854 1.385 . S
C851 H826 0.951 . S
C851 C849 1.388 . S
C851 C852 1.366 . S
C852 C851 1.366 . S
C852 C853 1.414 . S
C852 C855 1.499 . S
C853 H827 0.950 . S
C853 C852 1.414 . S
C853 C854 1.374 . S
C854 H828 0.950 . S
C854 C850 1.385 . S
C854 C853 1.374 . S
C855 C852 1.499 . S
C855 C856 1.373 . S
C855 C857 1.389 . S
C856 H829 0.950 . S
C856 C842 1.377 . S
C856 C855 1.373 . S
C857 C841 1.377 . S
C857 C855 1.389 . S
C857 C858 1.524 . S
C858 C857 1.524 . S
C858 C859 1.397 . S
C858 C863 1.363 . S
C859 H830 0.950 . S
C859 C858 1.397 . S
C859 C860 1.334 . S
C860 H831 0.950 . S
C860 C859 1.334 . S
C860 C861 1.287 . S
C861 C860 1.287 . S
C861 C862 1.524 . S
C861 H864 0.999 . S
C862 H832 0.950 . S
C862 C861 1.524 . S
C862 C863 1.415 . S
C863 H833 0.950 . S
C863 C858 1.363 . S
C863 C862 1.415 . S
H864 C861 0.999 . S
H865 C846 0.913 . S
H866 C884 0.951 . S
H867 C886 0.951 . S
H868 C888 0.950 . S
H869 C889 0.950 1_565 S
H870 C891 0.950 . S
H871 C894 0.950 . S
H872 C895 0.950 . S
H873 C897 0.950 . S
H874 C898 0.950 . S
H875 C899 0.951 . S
H876 C901 0.951 . S
H877 C903 0.950 . S
H878 C904 0.950 . S
H879 C906 0.950 . S
H880 C909 0.950 . S
H881 C910 0.950 . S
H882 C912 0.950 . S
H883 C913 0.950 . S
C884 H866 0.951 . S
C884 C885 1.366 . S
C884 C886 1.388 . S
C885 C884 1.366 . S
C885 C889 1.385 . S
C886 H867 0.951 . S
C886 C884 1.388 . S
C886 C887 1.366 . S
C887 C886 1.366 . S
C887 C888 1.414 . S
C887 C890 1.499 . S
C888 H868 0.950 . S
C888 C887 1.414 . S
C888 C889 1.374 . S
C889 H869 0.950 1_545 S
C889 C885 1.385 . S
C889 C888 1.374 . S
C890 C887 1.499 . S
C890 C891 1.373 . S
C890 C892 1.389 . S
C891 H870 0.950 . S
C891 C890 1.373 . S
C891 C907 1.377 . S
C892 C890 1.389 . S
C892 C893 1.524 . S
C892 C906 1.377 . S
C893 C892 1.524 . S
C893 C894 1.397 . S
C893 C898 1.363 . S
C894 H871 0.950 . S
C894 C893 1.397 . S
C894 C895 1.334 . S
C895 H872 0.950 . S
C895 C894 1.334 . S
C895 C896 1.287 . S
C896 C895 1.287 . S
C896 C897 1.524 . S
C896 H915 0.913 . S
C897 H873 0.950 . S
C897 C896 1.524 . S
C897 C898 1.415 . S
C898 H874 0.950 . S
C898 C893 1.363 . S
C898 C897 1.415 . S
C899 H875 0.951 . S
C899 C900 1.366 . S
C899 C901 1.388 . S
C900 C899 1.366 . S
C900 C904 1.385 . S
C901 H876 0.951 . S
C901 C899 1.388 . S
C901 C902 1.366 . S
C902 C901 1.366 . S
C902 C903 1.414 . S
C902 C905 1.499 . S
C903 H877 0.950 . S
C903 C902 1.414 . S
C903 C904 1.374 . S
C904 H878 0.950 . S
C904 C900 1.385 . S
C904 C903 1.374 . S
C905 C902 1.499 . S
C905 C906 1.373 . S
C905 C907 1.389 . S
C906 H879 0.950 . S
C906 C892 1.377 . S
C906 C905 1.373 . S
C907 C891 1.377 . S
C907 C905 1.389 . S
C907 C908 1.524 . S
C908 C907 1.524 . S
C908 C909 1.397 . S
C908 C913 1.363 1_545 S
C909 H880 0.950 . S
C909 C908 1.397 . S
C909 C910 1.334 1_545 S
C910 H881 0.950 . S
C910 C909 1.334 1_565 S
C910 C911 1.287 . S
C911 C910 1.287 . S
C911 C912 1.524 . S
C911 H914 0.999 . S
C912 H882 0.950 . S
C912 C911 1.524 . S
C912 C913 1.415 . S
C913 H883 0.950 . S
C913 C908 1.363 1_565 S
C913 C912 1.415 . S
H914 C911 0.999 . S
H915 C896 0.913 . S
H916 C934 0.951 . S
H917 C936 0.951 . S
H918 C938 0.950 . S
H919 C939 0.950 . S
H920 C941 0.950 . S
H921 C944 0.950 . S
H922 C945 0.950 . S
H923 C947 0.950 . S
H924 C948 0.950 . S
H925 C949 0.951 . S
H926 C951 0.951 . S
H927 C953 0.950 . S
H928 C954 0.950 . S
H929 C956 0.950 . S
H930 C959 0.973 . S
H931 C960 0.950 . S
H932 C962 0.950 . S
H933 C963 0.950 . S
C934 H916 0.951 . S
C934 C935 1.366 . S
C934 C936 1.388 . S
C935 C934 1.366 . S
C935 C939 1.385 . S
C936 H917 0.951 . S
C936 C934 1.388 . S
C936 C937 1.366 . S
C937 C936 1.366 . S
C937 C938 1.414 . S
C937 C940 1.499 . S
C938 H918 0.950 . S
C938 C937 1.414 . S
C938 C939 1.374 . S
C939 H919 0.950 . S
C939 C935 1.385 . S
C939 C938 1.374 . S
C940 C937 1.499 . S
C940 C941 1.373 . S
C940 C942 1.389 . S
C941 H920 0.950 . S
C941 C940 1.373 . S
C941 C957 1.377 . S
C942 C940 1.389 . S
C942 C943 1.524 . S
C942 C956 1.377 . S
C943 C942 1.524 . S
C943 C944 1.397 . S
C943 C948 1.363 . S
C944 H921 0.950 . S
C944 C943 1.397 . S
C944 C945 1.334 . S
C945 H922 0.950 . S
C945 C944 1.334 . S
C945 C946 1.287 . S
C946 C945 1.287 . S
C946 C947 1.524 . S
C946 H965 0.913 . S
C947 H923 0.950 . S
C947 C946 1.524 . S
C947 C948 1.415 . S
C948 H924 0.950 . S
C948 C943 1.363 . S
C948 C947 1.415 . S
C949 H925 0.951 . S
C949 C950 1.366 . S
C949 C951 1.388 . S
C950 C949 1.366 . S
C950 C954 1.385 . S
C951 H926 0.951 . S
C951 C949 1.388 . S
C951 C952 1.366 . S
C952 C951 1.366 . S
C952 C953 1.414 . S
C952 C955 1.499 . S
C953 H927 0.950 . S
C953 C952 1.414 . S
C953 C954 1.374 . S
C954 H928 0.950 . S
C954 C950 1.385 . S
C954 C953 1.374 . S
C955 C952 1.499 . S
C955 C956 1.373 . S
C955 C957 1.389 . S
C956 H929 0.950 . S
C956 C942 1.377 . S
C956 C955 1.373 . S
C957 C941 1.377 . S
C957 C955 1.389 . S
C957 C958 1.524 . S
C958 C957 1.524 . S
C958 C959 1.404 . S
C958 C963 1.363 1_655 S
C959 H930 0.973 . S
C959 C958 1.404 . S
C959 C960 1.304 1_655 S
C960 H931 0.950 . S
C960 C959 1.304 1_455 S
C960 C961 1.287 . S
C961 C960 1.287 . S
C961 C962 1.524 . S
C961 H964 0.999 . S
C962 H932 0.950 . S
C962 C961 1.524 . S
C962 C963 1.415 . S
C963 H933 0.950 . S
C963 C958 1.363 1_455 S
C963 C962 1.415 . S
H964 C961 0.999 . S
H965 C946 0.913 . S
H966 C984 0.951 . S
H967 C986 0.951 . S
H968 C988 0.950 . S
H969 C989 0.950 . S
H970 C991 0.950 . S
H971 C994 0.950 . S
H972 C995 0.950 . S
H973 C997 0.950 . S
H974 C998 0.950 . S
H975 C999 0.951 . S
H976 C1001 0.951 . S
H977 C1003 0.950 . S
H978 C1004 0.950 . S
H979 C1006 0.950 . S
H980 C1009 0.927 1_565 S
H981 C1010 0.950 . S
H982 C1012 0.950 . S
H983 C1013 0.950 1_565 S
C984 H966 0.951 . S
C984 C985 1.366 . S
C984 C986 1.388 . S
C985 C984 1.366 . S
C985 C989 1.385 . S
C986 H967 0.951 . S
C986 C984 1.388 . S
C986 C987 1.366 . S
C987 C986 1.366 . S
C987 C988 1.414 . S
C987 C990 1.499 . S
C988 H968 0.950 . S
C988 C987 1.414 . S
C988 C989 1.374 . S
C989 H969 0.950 . S
C989 C985 1.385 . S
C989 C988 1.374 . S
C990 C987 1.499 . S
C990 C991 1.373 . S
C990 C992 1.389 . S
C991 H970 0.950 . S
C991 C990 1.373 . S
C991 C1007 1.377 . S
C992 C990 1.389 . S
C992 C993 1.524 . S
C992 C1006 1.377 . S
C993 C992 1.524 . S
C993 C994 1.397 . S
C993 C998 1.363 . S
C994 H971 0.950 . S
C994 C993 1.397 . S
C994 C995 1.334 . S
C995 H972 0.950 . S
C995 C994 1.334 . S
C995 C996 1.287 . S
C996 C995 1.287 . S
C996 C997 1.524 . S
C996 H1015 0.913 . S
C997 H973 0.950 . S
C997 C996 1.524 . S
C997 C998 1.415 . S
C998 H974 0.950 . S
C998 C993 1.363 . S
C998 C997 1.415 . S
C999 H975 0.951 . S
C999 C1000 1.366 . S
C999 C1001 1.388 . S
C1000 C999 1.366 . S
C1000 C1004 1.385 . S
C1001 H976 0.951 . S
C1001 C999 1.388 . S
C1001 C1002 1.366 . S
C1002 C1001 1.366 . S
C1002 C1003 1.414 . S
C1002 C1005 1.499 . S
C1003 H977 0.950 . S
C1003 C1002 1.414 . S
C1003 C1004 1.374 . S
C1004 H978 0.950 . S
C1004 C1000 1.385 . S
C1004 C1003 1.374 . S
C1005 C1002 1.499 . S
C1005 C1006 1.373 . S
C1005 C1007 1.389 . S
C1006 H979 0.950 . S
C1006 C992 1.377 . S
C1006 C1005 1.373 . S
C1007 C991 1.377 . S
C1007 C1005 1.389 . S
C1007 C1008 1.524 . S
C1008 C1007 1.524 . S
C1008 C1009 1.381 1_565 S
C1008 C1013 1.363 1_565 S
C1009 H980 0.927 1_545 S
C1009 C1008 1.381 1_545 S
C1009 C1010 1.373 . S
C1010 H981 0.950 . S
C1010 C1009 1.373 . S
C1010 C1011 1.287 . S
C1011 C1010 1.287 . S
C1011 C1012 1.524 . S
C1011 H1014 0.999 . S
C1012 H982 0.950 . S
C1012 C1011 1.524 . S
C1012 C1013 1.415 . S
C1013 H983 0.950 1_545 S
C1013 C1008 1.363 1_545 S
C1013 C1012 1.415 . S
H1014 C1011 0.999 . S
H1015 C996 0.913 . S
H1016 C1034 0.951 . S
H1017 C1036 0.951 . S
H1018 C1038 0.950 . S
H1019 C1039 0.950 . S
H1020 C1041 0.950 . S
H1021 C1044 0.950 . S
H1022 C1045 0.950 . S
H1023 C1047 0.950 . S
H1024 C1048 0.950 . S
H1025 C1049 0.951 . S
H1026 C1051 0.951 . S
H1027 C1053 0.950 . S
H1028 C1054 0.950 . S
H1029 C1056 0.950 . S
H1030 C1059 0.950 . S
H1031 C1060 0.950 . S
H1032 C1062 0.950 . S
H1033 C1063 0.950 . S
C1034 H1016 0.951 . S
C1034 C1035 1.366 . S
C1034 C1036 1.388 . S
C1035 C1034 1.366 . S
C1035 C1039 1.385 . S
C1036 H1017 0.951 . S
C1036 C1034 1.388 . S
C1036 C1037 1.366 . S
C1037 C1036 1.366 . S
C1037 C1038 1.414 . S
C1037 C1040 1.499 . S
C1038 H1018 0.950 . S
C1038 C1037 1.414 . S
C1038 C1039 1.374 . S
C1039 H1019 0.950 . S
C1039 C1035 1.385 . S
C1039 C1038 1.374 . S
C1040 C1037 1.499 . S
C1040 C1041 1.373 . S
C1040 C1042 1.389 . S
C1041 H1020 0.950 . S
C1041 C1040 1.373 . S
C1041 C1057 1.377 . S
C1042 C1040 1.389 . S
C1042 C1043 1.524 . S
C1042 C1056 1.377 . S
C1043 C1042 1.524 . S
C1043 C1044 1.397 . S
C1043 C1048 1.363 . S
C1044 H1021 0.950 . S
C1044 C1043 1.397 . S
C1044 C1045 1.334 . S
C1045 H1022 0.950 . S
C1045 C1044 1.334 . S
C1045 C1046 1.287 . S
C1046 C1045 1.287 . S
C1046 C1047 1.524 . S
C1046 H1065 0.913 . S
C1047 H1023 0.950 . S
C1047 C1046 1.524 . S
C1047 C1048 1.415 . S
C1048 H1024 0.950 . S
C1048 C1043 1.363 . S
C1048 C1047 1.415 . S
C1049 H1025 0.951 . S
C1049 C1050 1.366 . S
C1049 C1051 1.388 . S
C1050 C1049 1.366 . S
C1050 C1054 1.385 . S
C1051 H1026 0.951 . S
C1051 C1049 1.388 . S
C1051 C1052 1.366 . S
C1052 C1051 1.366 . S
C1052 C1053 1.414 . S
C1052 C1055 1.499 . S
C1053 H1027 0.950 . S
C1053 C1052 1.414 . S
C1053 C1054 1.374 . S
C1054 H1028 0.950 . S
C1054 C1050 1.385 . S
C1054 C1053 1.374 . S
C1055 C1052 1.499 . S
C1055 C1056 1.373 . S
C1055 C1057 1.389 . S
C1056 H1029 0.950 . S
C1056 C1042 1.377 . S
C1056 C1055 1.373 . S
C1057 C1041 1.377 . S
C1057 C1055 1.389 . S
C1057 C1058 1.524 . S
C1058 C1057 1.524 . S
C1058 C1059 1.397 . S
C1058 C1063 1.363 . S
C1059 H1030 0.950 . S
C1059 C1058 1.397 . S
C1059 C1060 1.334 1_565 S
C1060 H1031 0.950 . S
C1060 C1059 1.334 1_545 S
C1060 C1061 1.287 . S
C1061 C1060 1.287 . S
C1061 C1062 1.520 1_545 S
C1061 H1064 1.002 . S
C1062 H1032 0.950 . S
C1062 C1061 1.520 1_565 S
C1062 C1063 1.415 . S
C1063 H1033 0.950 . S
C1063 C1058 1.363 . S
C1063 C1062 1.415 . S
H1064 C1061 1.002 . S
H1065 C1046 0.913 . S
H1066 C1084 0.951 . S
H1067 C1086 0.951 . S
H1068 C1088 0.950 . S
H1069 C1089 0.950 . S
H1070 C1091 0.950 . S
H1071 C1094 0.950 . S
H1072 C1095 0.950 . S
H1073 C1097 0.950 . S
H1074 C1098 0.950 . S
H1075 C1099 0.951 . S
H1076 C1101 0.951 . S
H1077 C1103 0.950 . S
H1078 C1104 0.950 . S
H1079 C1106 0.950 . S
H1080 C1109 0.950 . S
H1081 C1110 0.950 . S
H1082 C1112 0.950 . S
H1083 C1113 0.950 . S
C1084 H1066 0.951 . S
C1084 C1085 1.366 . S
C1084 C1086 1.388 . S
C1085 C1084 1.366 . S
C1085 C1089 1.385 . S
C1086 H1067 0.951 . S
C1086 C1084 1.388 . S
C1086 C1087 1.366 . S
C1087 C1086 1.366 . S
C1087 C1088 1.414 . S
C1087 C1090 1.499 . S
C1088 H1068 0.950 . S
C1088 C1087 1.414 . S
C1088 C1089 1.374 . S
C1089 H1069 0.950 . S
C1089 C1085 1.385 . S
C1089 C1088 1.374 . S
C1090 C1087 1.499 . S
C1090 C1091 1.373 . S
C1090 C1092 1.389 . S
C1091 H1070 0.950 . S
C1091 C1090 1.373 . S
C1091 C1107 1.377 . S
C1092 C1090 1.389 . S
C1092 C1093 1.524 . S
C1092 C1106 1.377 . S
C1093 C1092 1.524 . S
C1093 C1094 1.397 . S
C1093 C1098 1.363 . S
C1094 H1071 0.950 . S
C1094 C1093 1.397 . S
C1094 C1095 1.334 . S
C1095 H1072 0.950 . S
C1095 C1094 1.334 . S
C1095 C1096 1.287 . S
C1096 C1095 1.287 . S
C1096 C1097 1.524 . S
C1096 H1115 0.913 . S
C1097 H1073 0.950 . S
C1097 C1096 1.524 . S
C1097 C1098 1.415 . S
C1098 H1074 0.950 . S
C1098 C1093 1.363 . S
C1098 C1097 1.415 . S
C1099 H1075 0.951 . S
C1099 C1100 1.366 . S
C1099 C1101 1.388 . S
C1100 C1099 1.366 . S
C1100 C1104 1.385 . S
C1101 H1076 0.951 . S
C1101 C1099 1.388 . S
C1101 C1102 1.366 . S
C1102 C1101 1.366 . S
C1102 C1103 1.414 . S
C1102 C1105 1.499 . S
C1103 H1077 0.950 . S
C1103 C1102 1.414 . S
C1103 C1104 1.374 . S
C1104 H1078 0.950 . S
C1104 C1100 1.385 . S
C1104 C1103 1.374 . S
C1105 C1102 1.499 . S
C1105 C1106 1.373 . S
C1105 C1107 1.389 . S
C1106 H1079 0.950 . S
C1106 C1092 1.377 . S
C1106 C1105 1.373 . S
C1107 C1091 1.377 . S
C1107 C1105 1.389 . S
C1107 C1108 1.524 . S
C1108 C1107 1.524 . S
C1108 C1109 1.397 . S
C1108 C1113 1.363 1_455 S
C1109 H1080 0.950 . S
C1109 C1108 1.397 . S
C1109 C1110 1.334 1_455 S
C1110 H1081 0.950 . S
C1110 C1109 1.334 1_655 S
C1110 C1111 1.287 . S
C1111 C1110 1.287 . S
C1111 C1112 1.524 . S
C1111 H1114 0.999 . S
C1112 H1082 0.950 . S
C1112 C1111 1.524 . S
C1112 C1113 1.415 . S
C1113 H1083 0.950 . S
C1113 C1108 1.363 1_655 S
C1113 C1112 1.415 . S
H1114 C1111 0.999 . S
H1115 C1096 0.913 . S
H1116 C1134 0.951 . S
H1117 C1136 0.951 . S
H1118 C1138 0.950 . S
H1119 C1139 0.950 1_565 S
H1120 C1141 0.950 . S
H1121 C1144 0.950 . S
H1122 C1145 0.950 . S
H1123 C1147 0.950 . S
H1124 C1148 0.950 . S
H1125 C1149 0.951 . S
H1126 C1151 0.951 . S
H1127 C1153 0.950 . S
H1128 C1154 0.950 . S
H1129 C1156 0.950 . S
H1130 C1159 0.950 . S
H1131 C1160 0.950 . S
H1132 C1162 0.950 . S
H1133 C1163 0.950 . S
C1134 H1116 0.951 . S
C1134 C1135 1.366 . S
C1134 C1136 1.388 . S
C1135 C1134 1.366 . S
C1135 C1139 1.385 . S
C1136 H1117 0.951 . S
C1136 C1134 1.388 . S
C1136 C1137 1.366 . S
C1137 C1136 1.366 . S
C1137 C1138 1.414 . S
C1137 C1140 1.499 . S
C1138 H1118 0.950 . S
C1138 C1137 1.414 . S
C1138 C1139 1.374 . S
C1139 H1119 0.950 1_545 S
C1139 C1135 1.385 . S
C1139 C1138 1.374 . S
C1140 C1137 1.499 . S
C1140 C1141 1.373 . S
C1140 C1142 1.389 . S
C1141 H1120 0.950 . S
C1141 C1140 1.373 . S
C1141 C1157 1.377 . S
C1142 C1140 1.389 . S
C1142 C1143 1.524 . S
C1142 C1156 1.377 . S
C1143 C1142 1.524 . S
C1143 C1144 1.397 . S
C1143 C1148 1.363 . S
C1144 H1121 0.950 . S
C1144 C1143 1.397 . S
C1144 C1145 1.334 . S
C1145 H1122 0.950 . S
C1145 C1144 1.334 . S
C1145 C1146 1.287 . S
C1146 C1145 1.287 . S
C1146 C1147 1.524 . S
C1146 H1165 0.913 . S
C1147 H1123 0.950 . S
C1147 C1146 1.524 . S
C1147 C1148 1.415 . S
C1148 H1124 0.950 . S
C1148 C1143 1.363 . S
C1148 C1147 1.415 . S
C1149 H1125 0.951 . S
C1149 C1150 1.366 . S
C1149 C1151 1.388 . S
C1150 C1149 1.366 . S
C1150 C1154 1.385 . S
C1151 H1126 0.951 . S
C1151 C1149 1.388 . S
C1151 C1152 1.366 . S
C1152 C1151 1.366 . S
C1152 C1153 1.414 . S
C1152 C1155 1.499 . S
C1153 H1127 0.950 . S
C1153 C1152 1.414 . S
C1153 C1154 1.374 . S
C1154 H1128 0.950 . S
C1154 C1150 1.385 . S
C1154 C1153 1.374 . S
C1155 C1152 1.499 . S
C1155 C1156 1.373 . S
C1155 C1157 1.389 . S
C1156 H1129 0.950 . S
C1156 C1142 1.377 . S
C1156 C1155 1.373 . S
C1157 C1141 1.377 . S
C1157 C1155 1.389 . S
C1157 C1158 1.524 . S
C1158 C1157 1.524 . S
C1158 C1159 1.397 . S
C1158 C1163 1.363 1_545 S
C1159 H1130 0.950 . S
C1159 C1158 1.397 . S
C1159 C1160 1.334 . S
C1160 H1131 0.950 . S
C1160 C1159 1.334 . S
C1160 C1161 1.287 1_545 S
C1161 C1160 1.287 1_565 S
C1161 C1162 1.524 . S
C1161 H1164 0.999 . S
C1162 H1132 0.950 . S
C1162 C1161 1.524 . S
C1162 C1163 1.415 . S
C1163 H1133 0.950 . S
C1163 C1158 1.363 1_565 S
C1163 C1162 1.415 . S
H1164 C1161 0.999 . S
H1165 C1146 0.913 . S
H1166 C1184 0.951 1_455 S
H1167 C1186 0.951 . S
H1168 C1188 0.950 . S
H1169 C1189 0.950 . S
H1170 C1191 0.950 . S
H1171 C1194 0.950 . S
H1172 C1195 0.950 . S
H1173 C1197 0.950 . S
H1174 C1198 0.950 . S
H1175 C1199 0.951 . S
H1176 C1201 0.951 . S
H1177 C1203 0.950 . S
H1178 C1204 0.950 . S
H1179 C1206 0.950 . S
H1180 C1209 0.950 . S
H1181 C1210 0.950 . S
H1182 C1212 0.950 . S
H1183 C1213 0.950 . S
C1184 H1166 0.951 1_655 S
C1184 C1185 1.366 . S
C1184 C1186 1.388 . S
C1185 C1184 1.366 . S
C1185 C1189 1.385 . S
C1186 H1167 0.951 . S
C1186 C1184 1.388 . S
C1186 C1187 1.366 . S
C1187 C1186 1.366 . S
C1187 C1188 1.414 . S
C1187 C1190 1.499 . S
C1188 H1168 0.950 . S
C1188 C1187 1.414 . S
C1188 C1189 1.374 . S
C1189 H1169 0.950 . S
C1189 C1185 1.385 . S
C1189 C1188 1.374 . S
C1190 C1187 1.499 . S
C1190 C1191 1.373 . S
C1190 C1192 1.389 . S
C1191 H1170 0.950 . S
C1191 C1190 1.373 . S
C1191 C1207 1.377 . S
C1192 C1190 1.389 . S
C1192 C1193 1.524 . S
C1192 C1206 1.377 . S
C1193 C1192 1.524 . S
C1193 C1194 1.397 . S
C1193 C1198 1.363 1_655 S
C1194 H1171 0.950 . S
C1194 C1193 1.397 . S
C1194 C1195 1.334 . S
C1195 H1172 0.950 . S
C1195 C1194 1.334 . S
C1195 C1196 1.287 1_655 S
C1196 C1195 1.287 1_455 S
C1196 C1197 1.524 . S
C1196 H1215 0.913 . S
C1197 H1173 0.950 . S
C1197 C1196 1.524 . S
C1197 C1198 1.415 . S
C1198 H1174 0.950 . S
C1198 C1193 1.363 1_455 S
C1198 C1197 1.415 . S
C1199 H1175 0.951 . S
C1199 C1200 1.366 . S
C1199 C1201 1.388 . S
C1200 C1199 1.366 . S
C1200 C1204 1.385 . S
C1201 H1176 0.951 . S
C1201 C1199 1.388 . S
C1201 C1202 1.366 . S
C1202 C1201 1.366 . S
C1202 C1203 1.414 . S
C1202 C1205 1.499 . S
C1203 H1177 0.950 . S
C1203 C1202 1.414 . S
C1203 C1204 1.374 . S
C1204 H1178 0.950 . S
C1204 C1200 1.385 . S
C1204 C1203 1.374 . S
C1205 C1202 1.499 . S
C1205 C1206 1.373 . S
C1205 C1207 1.389 . S
C1206 H1179 0.950 . S
C1206 C1192 1.377 . S
C1206 C1205 1.373 . S
C1207 C1191 1.377 . S
C1207 C1205 1.389 . S
C1207 C1208 1.524 . S
C1208 C1207 1.524 . S
C1208 C1209 1.397 . S
C1208 C1213 1.363 . S
C1209 H1180 0.950 . S
C1209 C1208 1.397 . S
C1209 C1210 1.334 . S
C1210 H1181 0.950 . S
C1210 C1209 1.334 . S
C1210 C1211 1.287 . S
C1211 C1210 1.287 . S
C1211 C1212 1.524 . S
C1211 H1214 0.999 . S
C1212 H1182 0.950 . S
C1212 C1211 1.524 . S
C1212 C1213 1.415 . S
C1213 H1183 0.950 . S
C1213 C1208 1.363 . S
C1213 C1212 1.415 . S
H1214 C1211 0.999 . S
H1215 C1196 0.913 . S
H1216 C1234 0.951 . S
H1217 C1236 0.951 . S
H1218 C1238 0.950 . S
H1219 C1239 0.950 . S
H1220 C1241 0.950 . S
H1221 C1244 0.950 . S
H1222 C1245 0.950 . S
H1223 C1247 0.950 . S
H1224 C1248 0.950 . S
H1225 C1249 0.951 . S
H1226 C1251 0.951 . S
H1227 C1253 0.950 . S
H1228 C1254 0.950 . S
H1229 C1256 0.950 . S
H1230 C1259 0.950 . S
H1231 C1260 0.950 . S
H1232 C1262 0.950 . S
H1233 C1263 0.950 . S
C1234 H1216 0.951 . S
C1234 C1235 1.366 . S
C1234 C1236 1.388 . S
C1235 C1234 1.366 . S
C1235 C1239 1.385 . S
C1236 H1217 0.951 . S
C1236 C1234 1.388 . S
C1236 C1237 1.366 . S
C1237 C1236 1.366 . S
C1237 C1238 1.414 . S
C1237 C1240 1.499 . S
C1238 H1218 0.950 . S
C1238 C1237 1.414 . S
C1238 C1239 1.374 . S
C1239 H1219 0.950 . S
C1239 C1235 1.385 . S
C1239 C1238 1.374 . S
C1240 C1237 1.499 . S
C1240 C1241 1.373 . S
C1240 C1242 1.389 . S
C1241 H1220 0.950 . S
C1241 C1240 1.373 . S
C1241 C1257 1.377 . S
C1242 C1240 1.389 . S
C1242 C1243 1.524 . S
C1242 C1256 1.377 . S
C1243 C1242 1.524 . S
C1243 C1244 1.397 . S
C1243 C1248 1.363 . S
C1244 H1221 0.950 . S
C1244 C1243 1.397 . S
C1244 C1245 1.334 . S
C1245 H1222 0.950 . S
C1245 C1244 1.334 . S
C1245 C1246 1.287 . S
C1246 C1245 1.287 . S
C1246 C1247 1.524 . S
C1246 H1265 0.913 . S
C1247 H1223 0.950 . S
C1247 C1246 1.524 . S
C1247 C1248 1.415 . S
C1248 H1224 0.950 . S
C1248 C1243 1.363 . S
C1248 C1247 1.415 . S
C1249 H1225 0.951 . S
C1249 C1250 1.366 . S
C1249 C1251 1.388 . S
C1250 C1249 1.366 . S
C1250 C1254 1.385 . S
C1251 H1226 0.951 . S
C1251 C1249 1.388 . S
C1251 C1252 1.366 . S
C1252 C1251 1.366 . S
C1252 C1253 1.414 . S
C1252 C1255 1.499 . S
C1253 H1227 0.950 . S
C1253 C1252 1.414 . S
C1253 C1254 1.374 . S
C1254 H1228 0.950 . S
C1254 C1250 1.385 . S
C1254 C1253 1.374 . S
C1255 C1252 1.499 . S
C1255 C1256 1.373 . S
C1255 C1257 1.389 . S
C1256 H1229 0.950 . S
C1256 C1242 1.377 . S
C1256 C1255 1.373 . S
C1257 C1241 1.377 . S
C1257 C1255 1.389 . S
C1257 C1258 1.524 . S
C1258 C1257 1.524 . S
C1258 C1259 1.397 . S
C1258 C1263 1.363 . S
C1259 H1230 0.950 . S
C1259 C1258 1.397 . S
C1259 C1260 1.334 . S
C1260 H1231 0.950 . S
C1260 C1259 1.334 . S
C1260 C1261 1.287 . S
C1261 C1260 1.287 . S
C1261 C1262 1.524 . S
C1261 H1264 0.999 . S
C1262 H1232 0.950 . S
C1262 C1261 1.524 . S
C1262 C1263 1.415 . S
C1263 H1233 0.950 . S
C1263 C1258 1.363 . S
C1263 C1262 1.415 . S
H1264 C1261 0.999 . S
H1265 C1246 0.913 . S
H1266 C1284 0.951 . S
H1267 C1286 0.951 . S
H1268 C1288 0.950 . S
H1269 C1289 0.950 . S
H1270 C1291 0.950 . S
H1271 C1294 0.950 . S
H1272 C1295 0.950 . S
H1273 C1297 0.950 . S
H1274 C1298 0.950 . S
H1275 C1299 0.951 . S
H1276 C1301 0.951 . S
H1277 C1303 0.950 . S
H1278 C1304 0.950 . S
H1279 C1306 0.950 . S
H1280 C1309 0.950 . S
H1281 C1310 0.950 . S
H1282 C1312 0.950 . S
H1283 C1313 0.950 . S
C1284 H1266 0.951 . S
C1284 C1285 1.366 . S
C1284 C1286 1.388 . S
C1285 C1284 1.366 . S
C1285 C1289 1.385 . S
C1286 H1267 0.951 . S
C1286 C1284 1.388 . S
C1286 C1287 1.366 . S
C1287 C1286 1.366 . S
C1287 C1288 1.414 . S
C1287 C1290 1.499 . S
C1288 H1268 0.950 . S
C1288 C1287 1.414 . S
C1288 C1289 1.374 . S
C1289 H1269 0.950 . S
C1289 C1285 1.385 . S
C1289 C1288 1.374 . S
C1290 C1287 1.499 . S
C1290 C1291 1.373 . S
C1290 C1292 1.389 . S
C1291 H1270 0.950 . S
C1291 C1290 1.373 . S
C1291 C1307 1.377 . S
C1292 C1290 1.389 . S
C1292 C1293 1.524 . S
C1292 C1306 1.377 . S
C1293 C1292 1.524 . S
C1293 C1294 1.397 . S
C1293 C1298 1.363 . S
C1294 H1271 0.950 . S
C1294 C1293 1.397 . S
C1294 C1295 1.334 . S
C1295 H1272 0.950 . S
C1295 C1294 1.334 . S
C1295 C1296 1.287 . S
C1296 C1295 1.287 . S
C1296 C1297 1.524 . S
C1296 H1315 0.913 . S
C1297 H1273 0.950 . S
C1297 C1296 1.524 . S
C1297 C1298 1.415 . S
C1298 H1274 0.950 . S
C1298 C1293 1.363 . S
C1298 C1297 1.415 . S
C1299 H1275 0.951 . S
C1299 C1300 1.366 . S
C1299 C1301 1.388 . S
C1300 C1299 1.366 . S
C1300 C1304 1.385 . S
C1301 H1276 0.951 . S
C1301 C1299 1.388 . S
C1301 C1302 1.366 . S
C1302 C1301 1.366 . S
C1302 C1303 1.414 . S
C1302 C1305 1.499 . S
C1303 H1277 0.950 . S
C1303 C1302 1.414 . S
C1303 C1304 1.374 . S
C1304 H1278 0.950 . S
C1304 C1300 1.385 . S
C1304 C1303 1.374 . S
C1305 C1302 1.499 . S
C1305 C1306 1.373 . S
C1305 C1307 1.389 . S
C1306 H1279 0.950 . S
C1306 C1292 1.377 . S
C1306 C1305 1.373 . S
C1307 C1291 1.377 . S
C1307 C1305 1.389 . S
C1307 C1308 1.524 . S
C1308 C1307 1.524 . S
C1308 C1309 1.397 . S
C1308 C1313 1.363 . S
C1309 H1280 0.950 . S
C1309 C1308 1.397 . S
C1309 C1310 1.334 . S
C1310 H1281 0.950 . S
C1310 C1309 1.334 . S
C1310 C1311 1.287 . S
C1311 C1310 1.287 . S
C1311 C1312 1.524 . S
C1311 H1314 0.999 . S
C1312 H1282 0.950 . S
C1312 C1311 1.524 . S
C1312 C1313 1.415 . S
C1313 H1283 0.950 . S
C1313 C1308 1.363 . S
C1313 C1312 1.415 . S
H1314 C1311 0.999 . S
H1315 C1296 0.913 . S
H1316 C1334 0.951 . S
H1317 C1336 0.951 . S
H1318 C1338 0.950 . S
H1319 C1339 0.950 . S
H1320 C1341 0.950 . S
H1321 C1344 0.950 . S
H1322 C1345 0.950 . S
H1323 C1347 0.950 . S
H1324 C1348 0.950 . S
H1325 C1349 0.951 . S
H1326 C1351 0.951 . S
H1327 C1353 0.950 . S
H1328 C1354 0.950 . S
H1329 C1356 0.950 . S
H1330 C1359 0.950 . S
H1331 C1360 0.950 . S
H1332 C1362 0.950 . S
H1333 C1363 0.950 . S
C1334 H1316 0.951 . S
C1334 C1335 1.366 . S
C1334 C1336 1.388 . S
C1335 C1334 1.366 . S
C1335 C1339 1.385 . S
C1336 H1317 0.951 . S
C1336 C1334 1.388 . S
C1336 C1337 1.366 . S
C1337 C1336 1.366 . S
C1337 C1338 1.414 . S
C1337 C1340 1.499 . S
C1338 H1318 0.950 . S
C1338 C1337 1.414 . S
C1338 C1339 1.374 . S
C1339 H1319 0.950 . S
C1339 C1335 1.385 . S
C1339 C1338 1.374 . S
C1340 C1337 1.499 . S
C1340 C1341 1.373 . S
C1340 C1342 1.389 . S
C1341 H1320 0.950 . S
C1341 C1340 1.373 . S
C1341 C1357 1.377 . S
C1342 C1340 1.389 . S
C1342 C1343 1.524 . S
C1342 C1356 1.377 . S
C1343 C1342 1.524 . S
C1343 C1344 1.397 . S
C1343 C1348 1.363 . S
C1344 H1321 0.950 . S
C1344 C1343 1.397 . S
C1344 C1345 1.334 . S
C1345 H1322 0.950 . S
C1345 C1344 1.334 . S
C1345 C1346 1.287 . S
C1346 C1345 1.287 . S
C1346 C1347 1.524 . S
C1346 H1365 0.913 . S
C1347 H1323 0.950 . S
C1347 C1346 1.524 . S
C1347 C1348 1.415 . S
C1348 H1324 0.950 . S
C1348 C1343 1.363 . S
C1348 C1347 1.415 . S
C1349 H1325 0.951 . S
C1349 C1350 1.366 . S
C1349 C1351 1.388 . S
C1350 C1349 1.366 . S
C1350 C1354 1.385 . S
C1351 H1326 0.951 . S
C1351 C1349 1.388 . S
C1351 C1352 1.366 . S
C1352 C1351 1.366 . S
C1352 C1353 1.414 . S
C1352 C1355 1.499 . S
C1353 H1327 0.950 . S
C1353 C1352 1.414 . S
C1353 C1354 1.374 . S
C1354 H1328 0.950 . S
C1354 C1350 1.385 . S
C1354 C1353 1.374 . S
C1355 C1352 1.499 . S
C1355 C1356 1.373 . S
C1355 C1357 1.389 . S
C1356 H1329 0.950 . S
C1356 C1342 1.377 . S
C1356 C1355 1.373 . S
C1357 C1341 1.377 . S
C1357 C1355 1.389 . S
C1357 C1358 1.524 . S
C1358 C1357 1.524 . S
C1358 C1359 1.397 . S
C1358 C1363 1.363 . S
C1359 H1330 0.950 . S
C1359 C1358 1.397 . S
C1359 C1360 1.334 . S
C1360 H1331 0.950 . S
C1360 C1359 1.334 . S
C1360 C1361 1.287 . S
C1361 C1360 1.287 . S
C1361 C1362 1.524 . S
C1361 H1364 0.999 . S
C1362 H1332 0.950 . S
C1362 C1361 1.524 . S
C1362 C1363 1.415 . S
C1363 H1333 0.950 . S
C1363 C1358 1.363 . S
C1363 C1362 1.415 . S
H1364 C1361 0.999 . S
H1365 C1346 0.913 . S
H1366 C1384 0.951 . S
H1367 C1386 0.951 . S
H1368 C1388 0.950 . S
H1369 C1389 0.950 . S
H1370 C1391 0.950 . S
H1371 C1394 0.950 . S
H1372 C1395 0.950 . S
H1373 C1397 0.950 . S
H1374 C1398 0.950 . S
H1375 C1399 0.951 . S
H1376 C1401 0.951 . S
H1377 C1403 0.950 . S
H1378 C1404 0.950 . S
H1379 C1406 0.950 . S
H1380 C1409 0.950 . S
H1381 C1410 0.950 . S
H1382 C1412 0.950 . S
H1383 C1413 0.950 . S
C1384 H1366 0.951 . S
C1384 C1385 1.366 . S
C1384 C1386 1.388 . S
C1385 C1384 1.366 . S
C1385 C1389 1.385 . S
C1386 H1367 0.951 . S
C1386 C1384 1.388 . S
C1386 C1387 1.366 . S
C1387 C1386 1.366 . S
C1387 C1388 1.414 . S
C1387 C1390 1.499 . S
C1388 H1368 0.950 . S
C1388 C1387 1.414 . S
C1388 C1389 1.374 . S
C1389 H1369 0.950 . S
C1389 C1385 1.385 . S
C1389 C1388 1.374 . S
C1390 C1387 1.499 . S
C1390 C1391 1.373 . S
C1390 C1392 1.389 . S
C1391 H1370 0.950 . S
C1391 C1390 1.373 . S
C1391 C1407 1.377 . S
C1392 C1390 1.389 . S
C1392 C1393 1.524 . S
C1392 C1406 1.377 . S
C1393 C1392 1.524 . S
C1393 C1394 1.397 . S
C1393 C1398 1.363 . S
C1394 H1371 0.950 . S
C1394 C1393 1.397 . S
C1394 C1395 1.334 . S
C1395 H1372 0.950 . S
C1395 C1394 1.334 . S
C1395 C1396 1.287 . S
C1396 C1395 1.287 . S
C1396 C1397 1.524 . S
C1396 H1415 0.913 . S
C1397 H1373 0.950 . S
C1397 C1396 1.524 . S
C1397 C1398 1.415 . S
C1398 H1374 0.950 . S
C1398 C1393 1.363 . S
C1398 C1397 1.415 . S
C1399 H1375 0.951 . S
C1399 C1400 1.366 . S
C1399 C1401 1.388 . S
C1400 C1399 1.366 . S
C1400 C1404 1.385 . S
C1401 H1376 0.951 . S
C1401 C1399 1.388 . S
C1401 C1402 1.366 . S
C1402 C1401 1.366 . S
C1402 C1403 1.414 . S
C1402 C1405 1.499 . S
C1403 H1377 0.950 . S
C1403 C1402 1.414 . S
C1403 C1404 1.374 . S
C1404 H1378 0.950 . S
C1404 C1400 1.385 . S
C1404 C1403 1.374 . S
C1405 C1402 1.499 . S
C1405 C1406 1.373 . S
C1405 C1407 1.389 . S
C1406 H1379 0.950 . S
C1406 C1392 1.377 . S
C1406 C1405 1.373 . S
C1407 C1391 1.377 . S
C1407 C1405 1.389 . S
C1407 C1408 1.524 . S
C1408 C1407 1.524 . S
C1408 C1409 1.397 . S
C1408 C1413 1.363 . S
C1409 H1380 0.950 . S
C1409 C1408 1.397 . S
C1409 C1410 1.334 . S
C1410 H1381 0.950 . S
C1410 C1409 1.334 . S
C1410 C1411 1.287 . S
C1411 C1410 1.287 . S
C1411 C1412 1.524 . S
C1411 H1414 0.999 . S
C1412 H1382 0.950 . S
C1412 C1411 1.524 . S
C1412 C1413 1.415 . S
C1413 H1383 0.950 . S
C1413 C1408 1.363 . S
C1413 C1412 1.415 . S
H1414 C1411 0.999 . S
H1415 C1396 0.913 . S
H1416 C1434 0.951 . S
H1417 C1436 0.951 . S
H1418 C1438 0.950 . S
H1419 C1439 0.950 . S
H1420 C1441 0.950 . S
H1421 C1444 0.950 . S
H1422 C1445 0.950 . S
H1423 C1447 0.950 . S
H1424 C1448 0.950 . S
H1425 C1449 0.951 . S
H1426 C1451 0.951 . S
H1427 C1453 0.950 . S
H1428 C1454 0.950 . S
H1429 C1456 0.950 . S
H1430 C1459 0.950 . S
H1431 C1460 0.950 . S
H1432 C1462 0.950 . S
H1433 C1463 0.950 . S
C1434 H1416 0.951 . S
C1434 C1435 1.366 . S
C1434 C1436 1.388 . S
C1435 C1434 1.366 . S
C1435 C1439 1.385 . S
C1436 H1417 0.951 . S
C1436 C1434 1.388 . S
C1436 C1437 1.366 . S
C1437 C1436 1.366 . S
C1437 C1438 1.414 . S
C1437 C1440 1.499 . S
C1438 H1418 0.950 . S
C1438 C1437 1.414 . S
C1438 C1439 1.374 . S
C1439 H1419 0.950 . S
C1439 C1435 1.385 . S
C1439 C1438 1.374 . S
C1440 C1437 1.499 . S
C1440 C1441 1.373 . S
C1440 C1442 1.389 . S
C1441 H1420 0.950 . S
C1441 C1440 1.373 . S
C1441 C1457 1.377 . S
C1442 C1440 1.389 . S
C1442 C1443 1.524 . S
C1442 C1456 1.377 . S
C1443 C1442 1.524 . S
C1443 C1444 1.397 . S
C1443 C1448 1.363 . S
C1444 H1421 0.950 . S
C1444 C1443 1.397 . S
C1444 C1445 1.334 . S
C1445 H1422 0.950 . S
C1445 C1444 1.334 . S
C1445 C1446 1.287 . S
C1446 C1445 1.287 . S
C1446 C1447 1.524 . S
C1446 H1465 0.913 . S
C1447 H1423 0.950 . S
C1447 C1446 1.524 . S
C1447 C1448 1.415 . S
C1448 H1424 0.950 . S
C1448 C1443 1.363 . S
C1448 C1447 1.415 . S
C1449 H1425 0.951 . S
C1449 C1450 1.366 . S
C1449 C1451 1.388 . S
C1450 C1449 1.366 . S
C1450 C1454 1.385 . S
C1451 H1426 0.951 . S
C1451 C1449 1.388 . S
C1451 C1452 1.366 . S
C1452 C1451 1.366 . S
C1452 C1453 1.414 . S
C1452 C1455 1.499 . S
C1453 H1427 0.950 . S
C1453 C1452 1.414 . S
C1453 C1454 1.374 . S
C1454 H1428 0.950 . S
C1454 C1450 1.385 . S
C1454 C1453 1.374 . S
C1455 C1452 1.499 . S
C1455 C1456 1.373 . S
C1455 C1457 1.389 . S
C1456 H1429 0.950 . S
C1456 C1442 1.377 . S
C1456 C1455 1.373 . S
C1457 C1441 1.377 . S
C1457 C1455 1.389 . S
C1457 C1458 1.524 . S
C1458 C1457 1.524 . S
C1458 C1459 1.397 . S
C1458 C1463 1.363 . S
C1459 H1430 0.950 . S
C1459 C1458 1.397 . S
C1459 C1460 1.334 . S
C1460 H1431 0.950 . S
C1460 C1459 1.334 . S
C1460 C1461 1.287 . S
C1461 C1460 1.287 . S
C1461 C1462 1.524 . S
C1461 H1464 0.999 . S
C1462 H1432 0.950 . S
C1462 C1461 1.524 . S
C1462 C1463 1.415 . S
C1463 H1433 0.950 . S
C1463 C1458 1.363 . S
C1463 C1462 1.415 . S
H1464 C1461 0.999 . S
H1465 C1446 0.913 . S
H1466 C1484 0.951 . S
H1467 C1486 0.951 . S
H1468 C1488 0.950 . S
H1469 C1489 0.950 . S
H1470 C1491 0.950 . S
H1471 C1494 0.950 . S
H1472 C1495 0.950 . S
H1473 C1497 0.950 . S
H1474 C1498 0.950 . S
H1475 C1499 0.951 . S
H1476 C1501 0.951 . S
H1477 C1503 0.950 . S
H1478 C1504 0.950 . S
H1479 C1506 0.950 . S
H1480 C1509 0.950 . S
H1481 C1510 0.950 . S
H1482 C1512 0.950 . S
H1483 C1513 0.950 . S
C1484 H1466 0.951 . S
C1484 C1485 1.366 . S
C1484 C1486 1.388 . S
C1485 C1484 1.366 . S
C1485 C1489 1.385 . S
C1486 H1467 0.951 . S
C1486 C1484 1.388 . S
C1486 C1487 1.366 . S
C1487 C1486 1.366 . S
C1487 C1488 1.414 . S
C1487 C1490 1.499 . S
C1488 H1468 0.950 . S
C1488 C1487 1.414 . S
C1488 C1489 1.374 . S
C1489 H1469 0.950 . S
C1489 C1485 1.385 . S
C1489 C1488 1.374 . S
C1490 C1487 1.499 . S
C1490 C1491 1.373 . S
C1490 C1492 1.389 . S
C1491 H1470 0.950 . S
C1491 C1490 1.373 . S
C1491 C1507 1.377 . S
C1492 C1490 1.389 . S
C1492 C1493 1.524 . S
C1492 C1506 1.377 . S
C1493 C1492 1.524 . S
C1493 C1494 1.397 . S
C1493 C1498 1.363 . S
C1494 H1471 0.950 . S
C1494 C1493 1.397 . S
C1494 C1495 1.334 . S
C1495 H1472 0.950 . S
C1495 C1494 1.334 . S
C1495 C1496 1.287 . S
C1496 C1495 1.287 . S
C1496 C1497 1.524 . S
C1496 H1515 0.913 . S
C1497 H1473 0.950 . S
C1497 C1496 1.524 . S
C1497 C1498 1.415 . S
C1498 H1474 0.950 . S
C1498 C1493 1.363 . S
C1498 C1497 1.415 . S
C1499 H1475 0.951 . S
C1499 C1500 1.366 . S
C1499 C1501 1.388 . S
C1500 C1499 1.366 . S
C1500 C1504 1.385 . S
C1501 H1476 0.951 . S
C1501 C1499 1.388 . S
C1501 C1502 1.366 . S
C1502 C1501 1.366 . S
C1502 C1503 1.414 . S
C1502 C1505 1.499 . S
C1503 H1477 0.950 . S
C1503 C1502 1.414 . S
C1503 C1504 1.374 . S
C1504 H1478 0.950 . S
C1504 C1500 1.385 . S
C1504 C1503 1.374 . S
C1505 C1502 1.499 . S
C1505 C1506 1.373 . S
C1505 C1507 1.389 . S
C1506 H1479 0.950 . S
C1506 C1492 1.377 . S
C1506 C1505 1.373 . S
C1507 C1491 1.377 . S
C1507 C1505 1.389 . S
C1507 C1508 1.524 . S
C1508 C1507 1.524 . S
C1508 C1509 1.397 . S
C1508 C1513 1.363 . S
C1509 H1480 0.950 . S
C1509 C1508 1.397 . S
C1509 C1510 1.334 . S
C1510 H1481 0.950 . S
C1510 C1509 1.334 . S
C1510 C1511 1.287 . S
C1511 C1510 1.287 . S
C1511 C1512 1.524 . S
C1511 H1514 0.999 . S
C1512 H1482 0.950 . S
C1512 C1511 1.524 . S
C1512 C1513 1.415 . S
C1513 H1483 0.950 . S
C1513 C1508 1.363 . S
C1513 C1512 1.415 . S
H1514 C1511 0.999 . S
H1515 C1496 0.913 . S
H1516 C1534 0.951 . S
H1517 C1536 0.951 . S
H1518 C1538 0.950 . S
H1519 C1539 0.950 . S
H1520 C1541 0.950 . S
H1521 C1544 0.950 . S
H1522 C1545 0.950 . S
H1523 C1547 0.950 . S
H1524 C1548 0.950 . S
H1525 C1549 0.951 . S
H1526 C1551 0.951 . S
H1527 C1553 0.950 . S
H1528 C1554 0.950 . S
H1529 C1556 0.950 . S
H1530 C1559 0.950 . S
H1531 C1560 0.950 . S
H1532 C1562 0.950 . S
H1533 C1563 0.950 . S
C1534 H1516 0.951 . S
C1534 C1535 1.366 . S
C1534 C1536 1.388 . S
C1535 C1534 1.366 . S
C1535 C1539 1.385 . S
C1536 H1517 0.951 . S
C1536 C1534 1.388 . S
C1536 C1537 1.366 . S
C1537 C1536 1.366 . S
C1537 C1538 1.414 . S
C1537 C1540 1.499 . S
C1538 H1518 0.950 . S
C1538 C1537 1.414 . S
C1538 C1539 1.374 . S
C1539 H1519 0.950 . S
C1539 C1535 1.385 . S
C1539 C1538 1.374 . S
C1540 C1537 1.499 . S
C1540 C1541 1.373 . S
C1540 C1542 1.389 . S
C1541 H1520 0.950 . S
C1541 C1540 1.373 . S
C1541 C1557 1.377 . S
C1542 C1540 1.389 . S
C1542 C1543 1.524 . S
C1542 C1556 1.377 . S
C1543 C1542 1.524 . S
C1543 C1544 1.397 . S
C1543 C1548 1.363 . S
C1544 H1521 0.950 . S
C1544 C1543 1.397 . S
C1544 C1545 1.334 . S
C1545 H1522 0.950 . S
C1545 C1544 1.334 . S
C1545 C1546 1.287 . S
C1546 C1545 1.287 . S
C1546 C1547 1.524 . S
C1546 H1565 0.913 . S
C1547 H1523 0.950 . S
C1547 C1546 1.524 . S
C1547 C1548 1.415 . S
C1548 H1524 0.950 . S
C1548 C1543 1.363 . S
C1548 C1547 1.415 . S
C1549 H1525 0.951 . S
C1549 C1550 1.366 . S
C1549 C1551 1.388 . S
C1550 C1549 1.366 . S
C1550 C1554 1.385 . S
C1551 H1526 0.951 . S
C1551 C1549 1.388 . S
C1551 C1552 1.366 . S
C1552 C1551 1.366 . S
C1552 C1553 1.414 . S
C1552 C1555 1.499 . S
C1553 H1527 0.950 . S
C1553 C1552 1.414 . S
C1553 C1554 1.374 . S
C1554 H1528 0.950 . S
C1554 C1550 1.385 . S
C1554 C1553 1.374 . S
C1555 C1552 1.499 . S
C1555 C1556 1.373 . S
C1555 C1557 1.389 . S
C1556 H1529 0.950 . S
C1556 C1542 1.377 . S
C1556 C1555 1.373 . S
C1557 C1541 1.377 . S
C1557 C1555 1.389 . S
C1557 C1558 1.524 . S
C1558 C1557 1.524 . S
C1558 C1559 1.397 . S
C1558 C1563 1.363 . S
C1559 H1530 0.950 . S
C1559 C1558 1.397 . S
C1559 C1560 1.334 . S
C1560 H1531 0.950 . S
C1560 C1559 1.334 . S
C1560 C1561 1.287 . S
C1561 C1560 1.287 . S
C1561 C1562 1.524 . S
C1561 H1564 0.999 . S
C1562 H1532 0.950 . S
C1562 C1561 1.524 . S
C1562 C1563 1.415 . S
C1563 H1533 0.950 . S
C1563 C1558 1.363 . S
C1563 C1562 1.415 . S
H1564 C1561 0.999 . S
H1565 C1546 0.913 . S
H1566 C1584 0.951 . S
H1567 C1586 0.951 . S
H1568 C1588 0.950 . S
H1569 C1589 0.950 . S
H1570 C1591 0.950 . S
H1571 C1594 0.950 . S
H1572 C1595 0.950 . S
H1573 C1597 0.950 . S
H1574 C1598 0.950 . S
H1575 C1599 0.951 . S
H1576 C1601 0.951 . S
H1577 C1603 0.950 . S
H1578 C1604 0.950 . S
H1579 C1606 0.950 . S
H1580 C1609 0.950 . S
H1581 C1610 0.950 . S
H1582 C1612 0.950 . S
H1583 C1613 0.950 . S
C1584 H1566 0.951 . S
C1584 C1585 1.366 . S
C1584 C1586 1.388 . S
C1585 C1584 1.366 . S
C1585 C1589 1.385 . S
C1586 H1567 0.951 . S
C1586 C1584 1.388 . S
C1586 C1587 1.366 . S
C1587 C1586 1.366 . S
C1587 C1588 1.414 . S
C1587 C1590 1.499 . S
C1588 H1568 0.950 . S
C1588 C1587 1.414 . S
C1588 C1589 1.374 . S
C1589 H1569 0.950 . S
C1589 C1585 1.385 . S
C1589 C1588 1.374 . S
C1590 C1587 1.499 . S
C1590 C1591 1.373 . S
C1590 C1592 1.389 . S
C1591 H1570 0.950 . S
C1591 C1590 1.373 . S
C1591 C1607 1.377 . S
C1592 C1590 1.389 . S
C1592 C1593 1.524 . S
C1592 C1606 1.377 . S
C1593 C1592 1.524 . S
C1593 C1594 1.397 . S
C1593 C1598 1.363 . S
C1594 H1571 0.950 . S
C1594 C1593 1.397 . S
C1594 C1595 1.334 . S
C1595 H1572 0.950 . S
C1595 C1594 1.334 . S
C1595 C1596 1.287 . S
C1596 C1595 1.287 . S
C1596 C1597 1.524 . S
C1596 H1615 0.913 . S
C1597 H1573 0.950 . S
C1597 C1596 1.524 . S
C1597 C1598 1.415 . S
C1598 H1574 0.950 . S
C1598 C1593 1.363 . S
C1598 C1597 1.415 . S
C1599 H1575 0.951 . S
C1599 C1600 1.366 . S
C1599 C1601 1.388 . S
C1600 C1599 1.366 . S
C1600 C1604 1.385 . S
C1601 H1576 0.951 . S
C1601 C1599 1.388 . S
C1601 C1602 1.366 . S
C1602 C1601 1.366 . S
C1602 C1603 1.414 . S
C1602 C1605 1.499 . S
C1603 H1577 0.950 . S
C1603 C1602 1.414 . S
C1603 C1604 1.374 . S
C1604 H1578 0.950 . S
C1604 C1600 1.385 . S
C1604 C1603 1.374 . S
C1605 C1602 1.499 . S
C1605 C1606 1.373 . S
C1605 C1607 1.389 . S
C1606 H1579 0.950 . S
C1606 C1592 1.377 . S
C1606 C1605 1.373 . S
C1607 C1591 1.377 . S
C1607 C1605 1.389 . S
C1607 C1608 1.524 . S
C1608 C1607 1.524 . S
C1608 C1609 1.397 . S
C1608 C1613 1.363 . S
C1609 H1580 0.950 . S
C1609 C1608 1.397 . S
C1609 C1610 1.334 . S
C1610 H1581 0.950 . S
C1610 C1609 1.334 . S
C1610 C1611 1.287 . S
C1611 C1610 1.287 . S
C1611 C1612 1.524 . S
C1611 H1614 0.999 . S
C1612 H1582 0.950 . S
C1612 C1611 1.524 . S
C1612 C1613 1.415 . S
C1613 H1583 0.950 . S
C1613 C1608 1.363 . S
C1613 C1612 1.415 . S
H1614 C1611 0.999 . S
H1615 C1596 0.913 . S
C435 C45 1.636 . S
C450 C125 1.638 . S
C485 C30 1.636 . S
C500 C164 1.644 . S
C535 C39 1.636 . S
C550 C203 1.655 . S
C600 C242 1.651 . S
C585 C34 1.633 . S
C635 C97 1.636 . S
C650 C281 1.641 . S
C700 C320 1.641 . S
C685 C82 1.636 . S
C750 C359 1.652 . S
C735 C91 1.636 . S
C800 C398 1.651 . S
C785 C86 1.636 . S
C850 C354 1.523 . S
C835 C26 1.477 . S
C900 C393 1.522 . S
C885 C36 1.479 . S
C950 C261 1.524 . S
C935 C32 1.481 . S
C1000 C300 1.524 . S
C985 C42 1.477 . S
C1035 C18 1.565 . S
C1050 C315 1.627 . S
C1100 C339 1.632 . S
C1085 C50 1.566 . S
C1135 C4 1.567 . S
C1150 C378 1.635 . S
C1185 C48 1.565 . S
C1200 C276 1.630 . S
C1250 C198 1.523 . S
C1235 C78 1.477 . S
C1285 C88 1.478 . S
C1300 C237 1.523 . S
C1350 C105 1.524 . S
C1335 C84 1.480 . S
C1400 C144 1.524 . S
C1385 C94 1.480 . S
C1450 C159 1.629 . S
C1435 C70 1.565 . S
C1500 C183 1.633 . S
C1485 C102 1.568 . S
C1535 C56 1.568 . S
C1550 C222 1.633 . S
C1585 C100 1.565 . S
C1600 C120 1.629 . S
