# Generated by pormake.
# Topology zzz, (3,6)-cn, num edge types: 1
# Building blocks:
#     Node 0, Type 0, BuildingBlock: BELTOD_clean_linker_0, # of connection points: 3
#     Node 1, Type 0, BuildingBlock: BELTOD_clean_linker_0, # of connection points: 3
#     Node 2, Type 0, BuildingBlock: BELTOD_clean_linker_0, # of connection points: 3
#     Node 3, Type 0, BuildingBlock: BELTOD_clean_linker_0, # of connection points: 3
#     Node 4, Type 0, BuildingBlock: BELTOD_clean_linker_0, # of connection points: 3
#     Node 5, Type 0, BuildingBlock: BELTOD_clean_linker_0, # of connection points: 3
#     Node 6, Type 0, BuildingBlock: BELTOD_clean_linker_0, # of connection points: 3
#     Node 7, Type 0, BuildingBlock: BELTOD_clean_linker_0, # of connection points: 3
#     Node 8, Type 1, BuildingBlock: NUHQIS_clean_sbu_0, # of connection points: 6
#     Node 9, Type 1, BuildingBlock: NUHQIS_clean_sbu_0, # of connection points: 6
#     Node 10, Type 1, BuildingBlock: NUHQIS_clean_sbu_0, # of connection points: 6
#     Node 11, Type 1, BuildingBlock: NUHQIS_clean_sbu_0, # of connection points: 6
#     Edge 12, Type (0, 1), BuildingBlock: KIFKEQ_clean_linker_1, # of connection points: 2
#     Edge 13, Type (0, 1), BuildingBlock: KIFKEQ_clean_linker_1, # of connection points: 2
#     Edge 14, Type (0, 1), BuildingBlock: KIFKEQ_clean_linker_1, # of connection points: 2
#     Edge 15, Type (0, 1), BuildingBlock: KIFKEQ_clean_linker_1, # of connection points: 2
#     Edge 16, Type (0, 1), BuildingBlock: KIFKEQ_clean_linker_1, # of connection points: 2
#     Edge 17, Type (0, 1), BuildingBlock: KIFKEQ_clean_linker_1, # of connection points: 2
#     Edge 18, Type (0, 1), BuildingBlock: KIFKEQ_clean_linker_1, # of connection points: 2
#     Edge 19, Type (0, 1), BuildingBlock: KIFKEQ_clean_linker_1, # of connection points: 2
#     Edge 20, Type (0, 1), BuildingBlock: KIFKEQ_clean_linker_1, # of connection points: 2
#     Edge 21, Type (0, 1), BuildingBlock: KIFKEQ_clean_linker_1, # of connection points: 2
#     Edge 22, Type (0, 1), BuildingBlock: KIFKEQ_clean_linker_1, # of connection points: 2
#     Edge 23, Type (0, 1), BuildingBlock: KIFKEQ_clean_linker_1, # of connection points: 2
#     Edge 24, Type (0, 1), BuildingBlock: KIFKEQ_clean_linker_1, # of connection points: 2
#     Edge 25, Type (0, 1), BuildingBlock: KIFKEQ_clean_linker_1, # of connection points: 2
#     Edge 26, Type (0, 1), BuildingBlock: KIFKEQ_clean_linker_1, # of connection points: 2
#     Edge 27, Type (0, 1), BuildingBlock: KIFKEQ_clean_linker_1, # of connection points: 2
#     Edge 28, Type (0, 1), BuildingBlock: KIFKEQ_clean_linker_1, # of connection points: 2
#     Edge 29, Type (0, 1), BuildingBlock: KIFKEQ_clean_linker_1, # of connection points: 2
#     Edge 30, Type (0, 1), BuildingBlock: KIFKEQ_clean_linker_1, # of connection points: 2
#     Edge 31, Type (0, 1), BuildingBlock: KIFKEQ_clean_linker_1, # of connection points: 2
#     Edge 32, Type (0, 1), BuildingBlock: KIFKEQ_clean_linker_1, # of connection points: 2
#     Edge 33, Type (0, 1), BuildingBlock: KIFKEQ_clean_linker_1, # of connection points: 2
#     Edge 34, Type (0, 1), BuildingBlock: KIFKEQ_clean_linker_1, # of connection points: 2
#     Edge 35, Type (0, 1), BuildingBlock: KIFKEQ_clean_linker_1, # of connection points: 2
# Relax obj value: 0.406
# Max RMSD: 0.242
# Mean RMSD: 0.223
data_MOF--net-zzz--node1-NUHQIS_clean_sbu_0--node2-BELTOD_clean_linker_0--edge1-KIFKEQ_clean_linker_1
_symmetry_space_group_name_H-M    P1
_symmetry_Int_Tables_number       1
_symmetry_cell_setting            triclinic
loop_
_symmetry_equiv_pos_as_xyz
'x, y, z'
_cell_length_a     55.636358
_cell_length_b     55.515661
_cell_length_c     18.166339
_cell_angle_alpha  90.019488
_cell_angle_beta   89.824303
_cell_angle_gamma 89.900817
loop_
_atom_site_label
_atom_site_type_symbol
_atom_site_fract_x
_atom_site_fract_y
_atom_site_fract_z
_atom_type_partial_charge
P0 P 0.72408 0.4893 0.39215 0.0
H1 H 0.74072 0.49737 0.54291 0.0
H2 H 0.77974 0.50979 0.58893 0.0
H3 H 0.79964 0.53368 0.37075 0.0
H4 H 0.76081 0.52021 0.3245 0.0
H5 H 0.67546 0.47406 0.3624 0.0
H6 H 0.64506 0.4874 0.27571 0.0
H7 H 0.68989 0.54771 0.21471 0.0
H8 H 0.72049 0.53405 0.30228 0.0
H9 H 0.75511 0.44866 0.4254 0.0
H10 H 0.73092 0.48643 0.23176 0.0
O11 O 0.71152 0.47343 0.46011 0.0
H12 H 0.78594 0.42826 0.35197 0.0
H13 H 0.76169 0.4665 0.15876 0.0
C14 C 0.74757 0.50802 0.43018 0.0
C15 C 0.75307 0.5061 0.50529 0.0
C16 C 0.77558 0.5132 0.5317 0.0
C17 C 0.79317 0.52239 0.48346 0.0
C18 C 0.7868 0.52621 0.40935 0.0
C19 C 0.76429 0.51899 0.38297 0.0
C20 C 0.70017 0.50319 0.33984 0.0
C21 C 0.67853 0.49056 0.33206 0.0
C22 C 0.66107 0.49826 0.28224 0.0
C23 C 0.66492 0.51868 0.23806 0.0
C24 C 0.68638 0.5318 0.2475 0.0
C25 C 0.70385 0.52412 0.29803 0.0
C26 C 0.74051 0.46885 0.33405 0.0
C27 C 0.75582 0.45188 0.36663 0.0
C28 C 0.77358 0.44043 0.32479 0.0
C29 C 0.77637 0.44591 0.2497 0.0
C30 C 0.75984 0.46162 0.21622 0.0
C31 C 0.74217 0.47311 0.25815 0.0
P32 P 0.0387 0.73223 0.36944 0.0
H33 H 0.03617 0.74853 0.52215 0.0
H34 H 0.02448 0.78675 0.57499 0.0
H35 H 0.99145 0.80704 0.36877 0.0
H36 H 1.00509 0.76927 0.31461 0.0
H37 H 0.04766 0.68076 0.35776 0.0
H38 H 0.03371 0.64993 0.27313 0.0
H39 H 0.98364 0.70058 0.17855 0.0
H40 H 0.99729 0.73148 0.26541 0.0
H41 H 0.08042 0.76191 0.39932 0.0
H42 H 0.03953 0.74061 0.20878 0.0
O43 O 0.05575 0.71893 0.43312 0.0
H44 H 0.10182 0.79166 0.32481 0.0
H45 H 0.06014 0.77049 0.13516 0.0
C46 C 0.02123 0.75559 0.41438 0.0
C47 C 0.02577 0.76081 0.48862 0.0
C48 C 0.01897 0.78295 0.51913 0.0
C49 C 1.00718 0.80051 0.47637 0.0
C50 C 1.001 0.79441 0.40339 0.0
C51 C 1.00824 0.77237 0.37255 0.0
C52 C 0.02349 0.70857 0.31876 0.0
C53 C 0.03313 0.68519 0.32067 0.0
C54 C 0.02515 0.66747 0.27192 0.0
C55 C 1.00765 0.6728 0.21882 0.0
C56 C 0.99726 0.69596 0.21865 0.0
C57 C 1.00493 0.71361 0.26876 0.0
C58 C 0.05849 0.74884 0.30974 0.0
C59 C 0.07652 0.76312 0.34105 0.0
C60 C 0.08857 0.78028 0.29859 0.0
C61 C 0.08259 0.78358 0.22412 0.0
C62 C 0.06548 0.76823 0.19202 0.0
C63 C 0.05349 0.7511 0.23451 0.0
P64 P 0.80258 0.04321 0.38292 0.0
H65 H 0.78652 0.03576 0.53514 0.0
H66 H 0.74806 0.02226 0.58391 0.0
H67 H 0.72825 0.99652 0.36794 0.0
H68 H 0.76638 1.01112 0.31895 0.0
H69 H 0.85262 0.05653 0.3645 0.0
H70 H 0.88375 0.04316 0.27979 0.0
H71 H 0.83799 0.98491 0.20816 0.0
H72 H 0.80662 0.99874 0.29303 0.0
H73 H 0.76134 0.07461 0.40154 0.0
H74 H 0.80767 0.05253 0.22278 0.0
O75 O 0.81382 0.06105 0.44826 0.0
H76 H 0.7335 0.09238 0.31371 0.0
H77 H 0.7804 0.07102 0.13495 0.0
C78 C 0.77957 0.02433 0.42331 0.0
C79 C 0.77431 0.02646 0.49863 0.0
C80 C 0.75214 0.01871 0.52661 0.0
C81 C 0.73473 1.00865 0.47973 0.0
C82 C 0.74096 1.00465 0.40548 0.0
C83 C 0.76308 1.01252 0.37755 0.0
C84 C 0.82732 0.02849 0.33612 0.0
C85 C 0.8495 0.0404 0.33245 0.0
C86 C 0.86739 0.03269 0.28366 0.0
C87 C 0.86345 1.01297 0.2366 0.0
C88 C 0.84158 1.00033 0.24292 0.0
C89 C 0.82366 1.00807 0.29211 0.0
C90 C 0.78639 0.0619 0.31894 0.0
C91 C 0.7659 0.07425 0.34354 0.0
C92 C 0.75003 0.08453 0.29311 0.0
C93 C 0.75452 0.08283 0.21703 0.0
C94 C 0.77613 0.07216 0.19305 0.0
C95 C 0.79187 0.06166 0.24353 0.0
P96 P 0.48843 0.79656 0.37715 0.0
H97 H 0.50823 0.7872 0.52395 0.0
H98 H 0.52327 0.75004 0.57868 0.0
H99 H 0.52599 0.71729 0.36284 0.0
H100 H 0.51221 0.75491 0.3085 0.0
H101 H 0.46877 0.84278 0.33855 0.0
H102 H 0.48038 0.87365 0.25122 0.0
H103 H 0.5459 0.83451 0.20351 0.0
H104 H 0.53339 0.80289 0.29024 0.0
H105 H 0.44893 0.76498 0.41749 0.0
H106 H 0.48241 0.79034 0.21762 0.0
O107 O 0.47369 0.8088 0.44811 0.0
H108 H 0.42672 0.73487 0.3468 0.0
H109 H 0.46065 0.76029 0.1472 0.0
C110 C 0.50869 0.77379 0.41218 0.0
C111 C 0.51295 0.77234 0.48806 0.0
C112 C 0.52121 0.75084 0.51949 0.0
C113 C 0.5251 0.73022 0.47572 0.0
C114 C 0.52318 0.73261 0.39872 0.0
C115 C 0.51525 0.75426 0.36731 0.0
C116 C 0.50046 0.82082 0.32224 0.0
C117 C 0.48592 0.84107 0.31062 0.0
C118 C 0.49268 0.85884 0.26047 0.0
C119 C 0.51427 0.85689 0.22034 0.0
C120 C 0.52908 0.83663 0.23297 0.0
C121 C 0.52214 0.81865 0.28322 0.0
C122 C 0.46708 0.78009 0.32283 0.0
C123 C 0.45084 0.76465 0.35815 0.0
C124 C 0.43834 0.74732 0.3178 0.0
C125 C 0.44204 0.74511 0.24149 0.0
C126 C 0.45711 0.76174 0.2057 0.0
C127 C 0.46964 0.77898 0.24611 0.0
P128 P 0.28524 0.46043 0.11102 0.0
H129 H 0.27233 0.44492 0.9618 0.0
H130 H 0.2391 0.45662 0.88222 0.0
H131 H 0.2239 0.51703 0.02539 0.0
H132 H 0.25806 0.50594 0.10191 0.0
H133 H 0.33053 0.43461 0.12825 0.0
H134 H 0.36756 0.44618 0.18878 0.0
H135 H 0.34431 0.52044 0.18953 0.0
H136 H 0.30688 0.50857 0.12819 0.0
H137 H 0.23477 0.45512 0.15075 0.0
H138 H 0.30018 0.47601 0.26102 0.0
O139 O 0.28557 0.43074 0.09636 0.0
H140 H 0.21132 0.47082 0.25403 0.0
H141 H 0.27679 0.49214 0.36298 0.0
C142 C 0.26751 0.47427 0.0387 0.0
C143 C 0.26239 0.46118 0.97464 0.0
C144 C 0.243 0.4677 0.92972 0.0
C145 C 0.22804 0.48733 0.94835 0.0
C146 C 0.23477 0.50177 0.00878 0.0
C147 C 0.25445 0.49544 0.05292 0.0
C148 C 0.31585 0.4707 0.12319 0.0
C149 C 0.33372 0.45355 0.13823 0.0
C150 C 0.35501 0.46022 0.17342 0.0
C151 C 0.35883 0.4842 0.19526 0.0
C152 C 0.3418 0.50174 0.17438 0.0
C153 C 0.32056 0.49506 0.13811 0.0
C154 C 0.26915 0.46551 0.19603 0.0
C155 C 0.24413 0.46268 0.19754 0.0
C156 C 0.23075 0.47155 0.25677 0.0
C157 C 0.24229 0.48319 0.31555 0.0
C158 C 0.26748 0.48375 0.31738 0.0
C159 C 0.28084 0.4747 0.25844 0.0
P160 P 0.0715 0.29577 0.05026 0.0
H161 H 0.08506 0.28286 0.89937 0.0
H162 H 0.072 0.24844 0.82696 0.0
H163 H 1.0096 0.24093 0.96671 0.0
H164 H 0.02255 0.27583 0.03832 0.0
H165 H 0.09921 0.33161 0.12693 0.0
H166 H 0.08874 0.36614 0.2018 0.0
H167 H 1.01407 0.35747 0.14239 0.0
H168 H 0.02491 0.32204 0.06776 0.0
H169 H 0.09182 0.2479 0.05901 0.0
H170 H 0.04406 0.29224 0.18898 0.0
O171 O 0.10036 0.29772 0.02548 0.0
H172 H 0.07636 0.21201 0.12063 0.0
H173 H 0.02876 0.25656 0.25064 0.0
C174 C 0.055 0.282 0.97518 0.0
C175 C 0.06794 0.27467 0.91258 0.0
C176 C 0.06064 0.25459 0.87172 0.0
C177 C 0.04016 0.24134 0.8924 0.0
C178 C 0.02553 0.25057 0.94925 0.0
C179 C 0.03282 0.27081 0.98995 0.0
C180 C 0.06297 0.32448 0.09009 0.0
C181 C 0.08063 0.33746 0.128 0.0
C182 C 0.07457 0.35737 0.17116 0.0
C183 C 0.05052 0.36491 0.17825 0.0
C184 C 0.03277 0.35218 0.13871 0.0
C185 C 0.03895 0.33208 0.09513 0.0
C186 C 0.06914 0.27277 0.11926 0.0
C187 C 0.07893 0.25007 0.10334 0.0
C188 C 0.06986 0.22955 0.13778 0.0
C189 C 0.0511 0.23158 0.18924 0.0
C190 C 0.04326 0.25454 0.21115 0.0
C191 C 0.05212 0.27503 0.17597 0.0
P192 P 0.2366 0.07645 0.06922 0.0
H193 H 0.25096 0.08574 0.91608 0.0
H194 H 0.28606 0.07223 0.84677 0.0
H195 H 0.30029 0.01859 0.01348 0.0
H196 H 0.2646 0.03162 0.08074 0.0
H197 H 0.18976 0.09861 0.09239 0.0
H198 H 0.15509 0.08596 0.16388 0.0
H199 H 0.18548 1.0146 0.1835 0.0
H200 H 0.22049 0.02758 0.11135 0.0
H201 H 0.28613 0.09132 0.09013 0.0
H202 H 0.22797 0.06641 0.22825 0.0
O203 O 0.23249 0.1043 0.03702 0.0
H204 H 0.31483 0.08019 0.18507 0.0
H205 H 0.25658 0.05535 0.32316 0.0
C206 C 0.25506 0.05982 0.00403 0.0
C207 C 0.26103 0.07043 0.93633 0.0
C208 C 0.28148 0.06292 0.89726 0.0
C209 C 0.29663 0.04476 0.92536 0.0
C210 C 0.28922 0.03261 0.98967 0.0
C211 C 0.26857 0.03996 0.02822 0.0
C212 C 0.20773 0.06402 0.09547 0.0
C213 C 0.18863 0.07994 0.10926 0.0
C214 C 0.16872 0.07267 0.15073 0.0
C215 C 0.16751 0.0493 0.18036 0.0
C216 C 0.18594 0.03283 0.16232 0.0
C217 C 0.20582 0.0401 0.11996 0.0
C218 C 0.25505 0.07855 0.15029 0.0
C219 C 0.27942 0.08428 0.14186 0.0
C220 C 0.29584 0.07796 0.19643 0.0
C221 C 0.28796 0.06616 0.26052 0.0
C222 C 0.26317 0.06373 0.2732 0.0
C223 C 0.24679 0.06998 0.21848 0.0
P224 P 0.46208 0.23031 0.05378 0.0
H225 H 0.44832 0.24602 0.90574 0.0
H226 H 0.45995 0.2817 0.83623 0.0
H227 H 0.51959 0.2929 0.98355 0.0
H228 H 0.50781 0.25711 0.05327 0.0
H229 H 0.44342 0.18142 0.06795 0.0
H230 H 0.45645 0.14759 0.14269 0.0
H231 H 0.52368 0.18368 0.18508 0.0
H232 H 0.51043 0.21775 0.10952 0.0
H233 H 0.44819 0.28059 0.0679 0.0
H234 H 0.46911 0.22321 0.21493 0.0
O235 O 0.43428 0.22449 0.02448 0.0
H236 H 0.4557 0.30989 0.16431 0.0
H237 H 0.47654 0.25252 0.31186 0.0
C238 C 0.47719 0.24862 0.98494 0.0
C239 C 0.46449 0.25547 0.92162 0.0
C240 C 0.47098 0.27617 0.88229 0.0
C241 C 0.4904 0.29051 0.90517 0.0
C242 C 0.50457 0.28229 0.9642 0.0
C243 C 0.49798 0.26156 0.00378 0.0
C244 C 0.47593 0.20225 0.08253 0.0
C245 C 0.46137 0.18179 0.09067 0.0
C246 C 0.46884 0.16234 0.13394 0.0
C247 C 0.49099 0.163 0.17096 0.0
C248 C 0.50637 0.18272 0.15814 0.0
C249 C 0.49898 0.20209 0.11386 0.0
C250 C 0.45942 0.24985 0.13261 0.0
C251 C 0.45387 0.2742 0.12143 0.0
C252 C 0.458 0.29097 0.177 0.0
C253 C 0.46738 0.28355 0.24513 0.0
C254 C 0.47003 0.2588 0.2591 0.0
C255 C 0.4659 0.24202 0.2033 0.0
Tb256 Tb 0.03339 1.01351 0.75025 0.0
Eu257 Eu 0.9884 0.02627 0.6407 0.0
C258 C 0.04299 0.02722 0.58489 0.0
C259 C 0.0168 0.06765 0.72853 0.0
C260 C 0.0759 0.97918 0.86716 0.0
C261 C 0.08497 0.9364 0.86044 0.0
C262 C 0.0785 0.9579 0.82596 0.0
C263 C 0.08021 0.97864 0.94313 0.0
C264 C 0.08646 0.95706 0.97781 0.0
C265 C 0.08868 0.93562 0.93695 0.0
C266 C 0.06808 1.00182 0.83222 0.0
O267 O 1.00122 1.00168 0.80997 0.0
O268 O 0.97309 0.02587 0.7549 0.0
O269 O 0.98674 0.98627 0.65961 0.0
O270 O 0.0263 0.98027 0.68958 0.0
C271 C 0.97998 1.0122 0.8098 0.0
O272 O 0.95831 0.04919 0.60822 0.0
O273 O 0.96618 0.01681 0.5464 0.0
O274 O 0.02091 0.02112 0.56839 0.0
O275 O 0.04939 0.03077 0.65365 0.0
O276 O 0.02464 0.05103 0.77424 0.0
O277 O 1.00646 0.06186 0.66593 0.0
C278 C 1.00547 0.97207 0.66651 0.0
O279 O 0.0693 1.00266 0.76066 0.0
O280 O 0.04806 1.01107 0.85673 0.0
C281 C 0.95571 0.0516 0.48025 0.0
C282 C 0.96325 0.08707 0.37236 0.0
C283 C 0.94109 0.08565 0.40972 0.0
C284 C 0.93738 0.06803 0.46357 0.0
C285 C 0.97705 0.05181 0.43891 0.0
C286 C 0.98076 0.0693 0.38538 0.0
C287 C 0.95447 0.03717 0.54772 0.0
H288 H 0.08688 0.92033 0.82708 0.0
H289 H 0.07527 0.95773 0.76719 0.0
H290 H 0.07826 0.99484 0.97593 0.0
H291 H 0.08882 0.95708 0.03695 0.0
H292 H 0.92717 0.09895 0.40023 0.0
H293 H 0.92083 0.06817 0.49517 0.0
H294 H 0.99158 0.03947 0.45132 0.0
H295 H 0.99817 0.07 0.35867 0.0
Tb296 Tb 0.52279 0.03284 0.75337 0.0
Eu297 Eu 0.50672 0.98885 0.64442 0.0
C298 C 0.50878 0.04268 0.589 0.0
C299 C 0.46801 0.01843 0.74158 0.0
C300 C 0.55962 0.07487 0.86419 0.0
C301 C 0.58334 0.10199 0.9393 0.0
C302 C 0.56117 0.09512 0.90994 0.0
C303 C 0.58046 0.06187 0.84669 0.0
C304 C 0.60258 0.06868 0.87587 0.0
C305 C 0.60426 0.08867 0.9232 0.0
C306 C 0.53618 0.06672 0.83735 0.0
O307 O 0.51691 1.00117 0.82268 0.0
O308 O 0.52563 0.97153 0.73956 0.0
O309 O 0.54532 0.99676 0.61594 0.0
O310 O 0.55681 0.01566 0.72285 0.0
C311 C 0.52314 0.97884 0.80769 0.0
O312 O 0.49206 0.95279 0.62914 0.0
O313 O 0.50267 0.97382 0.53412 0.0
O314 O 0.49497 0.02359 0.5911 0.0
O315 O 0.52496 0.04617 0.64036 0.0
O316 O 0.48365 0.0361 0.74775 0.0
O317 O 0.4743 0.99736 0.71475 0.0
C318 C 0.56211 1.0051 0.65985 0.0
O319 O 0.53245 0.0692 0.76717 0.0
O320 O 0.52954 0.04556 0.86014 0.0
C321 C 0.466 0.95351 0.52704 0.0
C322 C 0.42134 0.96513 0.46441 0.0
C323 C 0.44076 0.95812 0.41936 0.0
C324 C 0.46298 0.9524 0.45053 0.0
C325 C 0.44593 0.958 0.5722 0.0
C326 C 0.42381 0.96376 0.54119 0.0
C327 C 0.49032 0.95541 0.55793 0.0
H328 H 0.58408 0.11758 0.97508 0.0
H329 H 0.54519 0.10536 0.92389 0.0
H330 H 0.57951 0.04611 0.81184 0.0
H331 H 0.61822 0.05775 0.86337 0.0
H332 H 0.43921 0.95857 0.35996 0.0
H333 H 0.47822 0.94899 0.41473 0.0
H334 H 0.44769 0.95904 0.63146 0.0
H335 H 0.40932 0.96919 0.57756 0.0
Tb336 Tb 0.49553 0.5179 0.75458 0.0
Eu337 Eu 0.54042 0.50419 0.64554 0.0
C338 C 0.48584 0.50359 0.59046 0.0
C339 C 0.51149 0.46359 0.7348 0.0
C340 C 0.45388 0.55219 0.87431 0.0
C341 C 0.4247 0.57548 0.94382 0.0
C342 C 0.43131 0.55416 0.90809 0.0
C343 C 0.4698 0.57171 0.87612 0.0
C344 C 0.46325 0.59299 0.91188 0.0
C345 C 0.44061 0.59514 0.94611 0.0
C346 C 0.46052 0.53003 0.83555 0.0
O347 O 0.52742 0.53026 0.81392 0.0
O348 O 0.55562 0.50584 0.75956 0.0
O349 O 0.5429 0.54434 0.66043 0.0
O350 O 0.50335 0.55048 0.69126 0.0
C351 C 0.54875 0.51993 0.81365 0.0
O352 O 0.57221 0.48233 0.62304 0.0
O353 O 0.56066 0.50878 0.54322 0.0
O354 O 0.50796 0.50957 0.57357 0.0
O355 O 0.47942 0.50021 0.65935 0.0
O356 O 0.50396 0.48043 0.78032 0.0
O357 O 0.52164 0.46912 0.67167 0.0
C358 C 0.52423 0.55864 0.66781 0.0
O359 O 0.46048 0.53154 0.76407 0.0
O360 O 0.47964 0.519 0.85957 0.0
C361 C 0.57023 0.46963 0.50092 0.0
C362 C 0.55334 0.42631 0.44088 0.0
C363 C 0.57523 0.42672 0.47905 0.0
C364 C 0.58363 0.44832 0.50904 0.0
C365 C 0.54986 0.46953 0.45523 0.0
C366 C 0.54147 0.44803 0.4257 0.0
C367 C 0.57329 0.48928 0.55453 0.0
H368 H 0.40707 0.57665 0.96902 0.0
H369 H 0.41877 0.53925 0.90656 0.0
H370 H 0.48729 0.57046 0.84997 0.0
H371 H 0.47609 0.60761 0.9137 0.0
H372 H 0.58471 0.41012 0.491 0.0
H373 H 0.5993 0.44794 0.54431 0.0
H374 H 0.53908 0.4856 0.44766 0.0
H375 H 0.52477 0.44813 0.39517 0.0
Tb376 Tb 1.00528 0.4952 0.75241 0.0
Eu377 Eu 0.02055 0.54108 0.64986 0.0
C378 C 0.02272 0.48708 0.58723 0.0
C379 C 0.05944 0.5107 0.74282 0.0
C380 C 0.97058 0.45609 0.87893 0.0
C381 C 0.9462 0.42851 0.95069 0.0
C382 C 0.9672 0.43342 0.91106 0.0
C383 C 0.95297 0.47396 0.8874 0.0
C384 C 0.93198 0.46908 0.92689 0.0
C385 C 0.92825 0.44623 0.95837 0.0
C386 C 0.99177 0.46056 0.83296 0.0
O387 O 1.00921 0.52619 0.82593 0.0
O388 O 0.99908 0.55577 0.74493 0.0
O389 O 0.98306 0.5314 0.61503 0.0
O390 O 0.97142 0.51274 0.72213 0.0
C391 C 1.002 0.54831 0.81266 0.0
O392 O 0.03037 0.57905 0.64544 0.0
O393 O 0.02901 0.55834 0.54479 0.0
O394 O 0.03294 0.50838 0.58621 0.0
O395 O 1.00857 0.48044 0.64157 0.0
O396 O 0.04435 0.49249 0.74431 0.0
O397 O 0.05256 0.53217 0.721 0.0
C398 C 0.96619 0.52273 0.65828 0.0
O399 O 0.98747 0.46213 0.76284 0.0
O400 O 1.00612 0.47759 0.85491 0.0
C401 C 0.06248 0.58349 0.56141 0.0
C402 C 0.11201 0.57883 0.53382 0.0
C403 C 0.10363 0.58247 0.60586 0.0
C404 C 0.07908 0.58476 0.61962 0.0
C405 C 0.07106 0.58266 0.48878 0.0
C406 C 0.09567 0.58034 0.47502 0.0
C407 C 0.03706 0.57779 0.57668 0.0
H408 H 0.94376 0.4107 0.9738 0.0
H409 H 0.98061 0.4194 0.90443 0.0
H410 H 0.95533 0.49156 0.86268 0.0
H411 H 0.9187 0.48324 0.93287 0.0
H412 H 0.11589 0.58176 0.65204 0.0
H413 H 0.07313 0.58554 0.6764 0.0
H414 H 0.05863 0.58167 0.44307 0.0
H415 H 0.10162 0.57751 0.41884 0.0
H416 H 0.17219 0.02411 0.30944 0.0
H417 H 0.11955 0.06128 0.1771 0.0
H418 H 0.14205 0.01786 0.40532 0.0
H419 H 0.08963 0.05578 0.27402 0.0
H420 H 0.0357 0.02313 0.43617 0.0
H421 H 0.06516 0.02652 0.33733 0.0
H422 H 0.12058 0.04128 0.49701 0.0
H423 H 0.09115 0.03747 0.59619 0.0
C424 C 0.15411 0.03067 0.30024 0.0
C425 C 0.14837 0.04321 0.23528 0.0
C426 C 0.13688 0.0274 0.35585 0.0
C427 C 0.1134 0.03651 0.34802 0.0
C428 C 0.10745 0.04838 0.28203 0.0
C429 C 0.12469 0.0517 0.22654 0.0
C430 C 0.05415 0.02714 0.45041 0.0
C431 C 0.06096 0.03005 0.52446 0.0
C432 C 0.07107 0.02918 0.39348 0.0
C433 C 0.09534 0.03413 0.40888 0.0
C434 C 0.10215 0.0371 0.48296 0.0
C435 C 0.08519 0.03511 0.53995 0.0
H436 H 0.50959 0.17033 0.30837 0.0
H437 H 0.48428 0.11395 0.1647 0.0
H438 H 0.51436 0.14124 0.40742 0.0
H439 H 0.48949 0.0846 0.26344 0.0
H440 H 0.47501 0.04402 0.47898 0.0
H441 H 0.47218 0.07242 0.37698 0.0
H442 H 0.53636 0.10823 0.4533 0.0
H443 H 0.53866 0.08039 0.55645 0.0
C444 C 0.50557 0.15159 0.29733 0.0
C445 C 0.49659 0.14453 0.22833 0.0
C446 C 0.50827 0.13483 0.35438 0.0
C447 C 0.5022 0.11043 0.34408 0.0
C448 C 0.49388 0.10325 0.27426 0.0
C449 C 0.49104 0.12007 0.21732 0.0
C450 C 0.4885 0.05798 0.47407 0.0
C451 C 0.507 0.05992 0.52635 0.0
C452 C 0.487 0.07421 0.41505 0.0
C453 C 0.50405 0.09276 0.40632 0.0
C454 C 0.52264 0.09452 0.45849 0.0
C455 C 0.52404 0.07841 0.51771 0.0
H456 H 0.40557 0.46796 0.19144 0.0
H457 H 0.35732 0.51295 0.31771 0.0
H458 H 0.43642 0.4729 0.28558 0.0
H459 H 0.38835 0.51842 0.41076 0.0
H460 H 0.43716 0.49696 0.60372 0.0
H461 H 0.40747 0.49389 0.50562 0.0
H462 H 0.46375 0.50163 0.34316 0.0
H463 H 0.4935 0.50439 0.44118 0.0
C464 C 0.40164 0.47917 0.2388 0.0
C465 C 0.3789 0.49003 0.24683 0.0
C466 C 0.4194 0.48212 0.29266 0.0
C467 C 0.41485 0.49589 0.3563 0.0
C468 C 0.39239 0.50739 0.36311 0.0
C469 C 0.37469 0.50455 0.30907 0.0
C470 C 0.44325 0.49791 0.54712 0.0
C471 C 0.46778 0.50092 0.5306 0.0
C472 C 0.42617 0.49637 0.49075 0.0
C473 C 0.43314 0.49766 0.41627 0.0
C474 C 0.45771 0.50039 0.39976 0.0
C475 C 0.47479 0.50208 0.45613 0.0
H476 H 1.0111 0.36897 0.26978 0.0
H477 H 0.07594 0.40638 0.20634 0.0
H478 H 1.0033 0.39944 0.36334 0.0
H479 H 0.06905 0.43585 0.30288 0.0
H480 H 0.04227 0.49635 0.45083 0.0
H481 H 0.04688 0.46861 0.34751 0.0
H482 H 0.01694 0.41125 0.47973 0.0
H483 H 1.01149 0.43916 0.58143 0.0
C484 C 0.02362 0.38378 0.27515 0.0
C485 C 0.04429 0.38494 0.23047 0.0
C486 C 0.01935 0.40112 0.32992 0.0
C487 C 0.03571 0.42009 0.34207 0.0
C488 C 0.0559 0.42172 0.29546 0.0
C489 C 0.06004 0.40452 0.24038 0.0
C490 C 0.03669 0.47781 0.45781 0.0
C491 C 0.0265 0.47006 0.52466 0.0
C492 C 0.03941 0.4618 0.39848 0.0
C493 C 0.03223 0.43751 0.40453 0.0
C494 C 0.02222 0.42983 0.47182 0.0
C495 C 0.01928 0.44586 0.53073 0.0
H496 H 0.854 1.00005 0.09401 0.0
H497 H 0.91292 1.01373 0.24257 0.0
H498 H 0.88228 0.99603 0.99235 0.0
H499 H 0.94118 1.01072 0.13993 0.0
H500 H 0.98796 0.98903 0.94185 0.0
H501 H 0.96012 0.98521 0.04595 0.0
H502 H 0.90622 0.02436 0.9239 0.0
H503 H 0.93358 0.02781 0.82042 0.0
C504 C 0.87301 1.0018 0.10541 0.0
C505 C 0.88109 1.00738 0.17671 0.0
C506 C 0.88925 0.99981 0.04674 0.0
C507 C 0.91402 1.00341 0.05755 0.0
C508 C 0.92226 1.00777 0.12947 0.0
C509 C 0.906 1.00974 0.18828 0.0
C510 C 0.97009 0.99663 0.93711 0.0
C511 C 0.96308 1.00874 0.87259 0.0
C512 C 0.95417 0.99455 0.99694 0.0
C513 C 0.93084 1.00439 0.99336 0.0
C514 C 0.92384 0.01617 0.92837 0.0
C515 C 0.93969 0.01832 0.86899 0.0
H516 H 0.50584 0.90566 0.22484 0.0
H517 H 0.53627 0.8503 0.08553 0.0
H518 H 0.50998 0.93463 0.12618 0.0
H519 H 0.54236 0.87986 0.98847 0.0
H520 H 0.52011 0.92979 0.79956 0.0
H521 H 0.52094 0.90093 0.90007 0.0
H522 H 0.53388 0.95893 0.05396 0.0
H523 H 0.53164 0.98786 0.95339 0.0
C524 C 0.51368 0.89966 0.17338 0.0
C525 C 0.52028 0.87538 0.16319 0.0
C526 C 0.51645 0.91649 0.11677 0.0
C527 C 0.52636 0.90976 0.04838 0.0
C528 C 0.53415 0.88574 0.03949 0.0
C529 C 0.53103 0.86878 0.0959 0.0
C530 C 0.52327 0.93635 0.85485 0.0
C531 C 0.52561 0.96116 0.8685 0.0
C532 C 0.52394 0.91973 0.91276 0.0
C533 C 0.52739 0.9274 0.98592 0.0
C534 C 0.5306 0.95223 0.99894 0.0
C535 C 0.52948 0.96889 0.94113 0.0
H536 H 0.61555 0.51755 0.24377 0.0
H537 H 0.67467 0.53315 0.09681 0.0
H538 H 0.58749 0.52119 0.14145 0.0
H539 H 0.64654 0.5377 0.99518 0.0
H540 H 0.5956 0.50566 0.82204 0.0
H541 H 0.62301 0.50947 0.92478 0.0
H542 H 0.5684 0.5471 0.04942 0.0
H543 H 0.54053 0.54293 0.94603 0.0
C544 C 0.62254 0.5221 0.18985 0.0
C545 C 0.64745 0.52477 0.17855 0.0
C546 C 0.6064 0.52444 0.13125 0.0
C547 C 0.61473 0.52947 0.05973 0.0
C548 C 0.6395 0.53341 0.04925 0.0
C549 C 0.65564 0.5311 0.10784 0.0
C550 C 0.58935 0.5149 0.87103 0.0
C551 C 0.56572 0.52388 0.87565 0.0
C552 C 0.60524 0.51728 0.92996 0.0
C553 C 0.59802 0.52867 0.99553 0.0
C554 C 0.57451 0.53805 -5e-05 0.0
C555 C 0.55856 0.53577 0.94055 0.0
H556 H 1.00566 0.67993 0.07017 0.0
H557 H 0.99759 0.62482 0.23564 0.0
H558 H 1.00195 0.64966 0.97382 0.0
H559 H 0.99289 0.5945 0.13957 0.0
H560 H 0.01707 0.54343 0.95524 0.0
H561 H 0.0157 0.57331 0.05307 0.0
H562 H 0.97822 0.62241 0.9085 0.0
H563 H 0.98061 0.59281 0.80971 0.0
C564 C 1.00246 0.66138 0.0859 0.0
C565 C 1.00198 0.65478 0.16055 0.0
C566 C 1.00029 0.64393 0.03055 0.0
C567 C 0.99729 0.6194 0.04834 0.0
C568 C 0.99577 0.61303 0.1233 0.0
C569 C 0.99826 0.63045 0.17858 0.0
C570 C 1.00836 0.56053 0.94447 0.0
C571 C 0.99907 0.56572 0.87437 0.0
C572 C 1.00743 0.57772 0.00093 0.0
C573 C 0.9969 0.60051 0.98923 0.0
C574 C 0.98692 0.60535 0.91957 0.0
C575 C 0.98812 0.58825 0.86286 0.0
H576 H 0.03715 0.21871 0.32793 0.0
H577 H 0.03332 0.1967 0.10031 0.0
H578 H 1.01215 0.18448 0.36298 0.0
H579 H 1.00777 0.16288 0.13462 0.0
H580 H 0.98951 0.08963 0.24469 0.0
H581 H 1.00967 0.12515 0.19651 0.0
H582 H 0.97196 0.16953 0.35486 0.0
H583 H 0.953 0.13387 0.406 0.0
C584 C 0.03092 0.20651 0.28556 0.0
C585 C 0.0374 0.21007 0.21176 0.0
C586 C 0.01639 0.18708 0.30531 0.0
C587 C 1.00778 0.17105 0.25143 0.0
C588 C 0.01432 0.1747 0.17754 0.0
C589 C 0.02904 0.19397 0.15795 0.0
C590 C 0.98529 0.10703 0.26853 0.0
C591 C 0.96999 0.10885 0.33 0.0
C592 C 0.99673 0.12743 0.2406 0.0
C593 C 0.99285 0.1501 0.27305 0.0
C594 C 0.97584 0.15221 0.33003 0.0
C595 C 0.96459 0.13178 0.35843 0.0
H596 H 0.28365 0.02023 0.31024 0.0
H597 H 0.33201 0.08105 0.30999 0.0
H598 H 0.31497 0.99498 0.36224 0.0
H599 H 0.36346 0.05572 0.36296 0.0
H600 H 0.42108 0.9982 0.35394 0.0
H601 H 0.38769 0.02299 0.31332 0.0
H602 H 0.34067 0.98676 0.46717 0.0
H603 H 0.37399 0.96103 0.50559 0.0
C604 C 0.30075 0.02842 0.32356 0.0
C605 C 0.30541 0.05264 0.30592 0.0
C606 C 0.31875 1.01388 0.35305 0.0
C607 C 0.34178 0.02326 0.36555 0.0
C608 C 0.34601 0.04785 0.3522 0.0
C609 C 0.32801 0.0624 0.32244 0.0
C610 C 0.4035 0.99502 0.37778 0.0
C611 C 0.40017 0.97755 0.43279 0.0
C612 C 0.38447 1.00961 0.3556 0.0
C613 C 0.36168 1.00716 0.38814 0.0
C614 C 0.35806 0.98911 0.44122 0.0
C615 C 0.37713 0.97443 0.46332 0.0
H616 H 0.44852 0.32732 0.28414 0.0
H617 H 0.51 0.28103 0.3184 0.0
H618 H 0.46975 0.36035 0.34291 0.0
H619 H 0.53081 0.31373 0.38048 0.0
H620 H 0.57105 0.38711 0.36725 0.0
H621 H 0.54927 0.35028 0.33568 0.0
H622 H 0.48678 0.37687 0.45255 0.0
H623 H 0.50836 0.41379 0.48176 0.0
C624 C 0.46633 0.32405 0.30589 0.0
C625 C 0.47766 0.30167 0.29586 0.0
C626 C 0.47846 0.34292 0.34014 0.0
C627 C 0.50213 0.33974 0.36547 0.0
C628 C 0.51277 0.31685 0.36029 0.0
C629 C 0.50067 0.298 0.32574 0.0
C630 C 0.55273 0.38488 0.38633 0.0
C631 C 0.54114 0.40334 0.4253 0.0
C632 C 0.54029 0.36378 0.36895 0.0
C633 C 0.5162 0.36075 0.39119 0.0
C634 C 0.50511 0.37886 0.43329 0.0
C635 C 0.51743 0.39997 0.44989 0.0
H636 H 0.24976 0.52952 0.35747 0.0
H637 H 0.20228 0.46905 0.3914 0.0
H638 H 0.22237 0.55536 0.42739 0.0
H639 H 0.17485 0.4949 0.46108 0.0
H640 H 0.1343 0.54331 0.61064 0.0
H641 H 0.17035 0.52121 0.57504 0.0
H642 H 0.18028 0.56915 0.39033 0.0
H643 H 0.14427 0.59156 0.42648 0.0
C644 C 0.23381 0.52161 0.38174 0.0
C645 C 0.22803 0.49732 0.36901 0.0
C646 C 0.2181 0.53644 0.42118 0.0
C647 C 0.19652 0.52713 0.44926 0.0
C648 C 0.19151 0.50248 0.44056 0.0
C649 C 0.20707 0.48773 0.40037 0.0
C650 C 0.14463 0.54969 0.56396 0.0
C651 C 0.13644 0.56912 0.52104 0.0
C652 C 0.16513 0.53687 0.54329 0.0
C653 C 0.17792 0.54336 0.4797 0.0
C654 C 0.17081 0.56388 0.43993 0.0
C655 C 0.15015 0.5766 0.46024 0.0
H656 H 0.0965 0.78566 0.07919 0.0
H657 H 0.08836 0.82956 0.27427 0.0
H658 H 0.10331 0.82194 0.00602 0.0
H659 H 0.09549 0.86557 0.20148 0.0
H660 H 0.11891 0.92672 0.05333 0.0
H661 H 0.12359 0.88903 0.12138 0.0
H662 H 0.07408 0.85422 0.97301 0.0
H663 H 0.06894 0.89172 0.9063 0.0
C664 C 0.09658 0.80298 0.10665 0.0
C665 C 0.09162 0.80472 0.1824 0.0
C666 C 0.1005 0.82371 0.0648 0.0
C667 C 0.09968 0.84657 0.09795 0.0
C668 C 0.09646 0.84819 0.17449 0.0
C669 C 0.09242 0.82749 0.21627 0.0
C670 C 0.10906 0.91101 0.03519 0.0
C671 C 0.09346 0.91232 0.97448 0.0
C672 C 0.11186 0.88942 0.07392 0.0
C673 C 0.09928 0.86868 0.05232 0.0
C674 C 0.08438 0.86977 0.99014 0.0
C675 C 0.08144 0.89133 0.95186 0.0
H676 H 0.72342 0.12143 0.22133 0.0
H677 H 0.74191 0.05855 0.09245 0.0
H678 H 0.68822 0.12801 0.14358 0.0
H679 H 0.70722 0.06536 0.0148 0.0
H680 H 0.64925 0.08839 0.8616 0.0
H681 H 0.68766 0.09206 0.92511 0.0
H682 H 0.65014 0.10538 0.12966 0.0
H683 H 0.61181 0.10158 0.06648 0.0
C684 C 0.72019 0.10921 0.17595 0.0
C685 C 0.73547 0.0894 0.16343 0.0
C686 C 0.70007 0.11301 0.13143 0.0
C687 C 0.69491 0.09716 0.07325 0.0
C688 C 0.71088 0.07813 0.05844 0.0
C689 C 0.73086 0.07426 0.10303 0.0
C690 C 0.64922 0.09231 0.92001 0.0
C691 C 0.62748 0.09442 0.95916 0.0
C692 C 0.67121 0.09447 0.95629 0.0
C693 C 0.67192 0.09883 0.03244 0.0
C694 C 0.65021 0.10231 0.07077 0.0
C695 C 0.62821 0.10011 0.03453 0.0
H696 H 0.42254 0.74297 0.10303 0.0
H697 H 0.44287 0.69856 0.28793 0.0
H698 H 0.41583 0.70678 0.02928 0.0
H699 H 0.43646 0.66265 0.21468 0.0
H700 H 0.41716 0.59955 0.07822 0.0
H701 H 0.41004 0.63626 0.14872 0.0
H702 H 0.44328 0.67806 0.97557 0.0
H703 H 0.44926 0.64158 0.9037 0.0
C704 C 0.42517 0.72548 0.12823 0.0
C705 C 0.43335 0.72362 0.20112 0.0
C706 C 0.42141 0.70478 0.08602 0.0
C707 C 0.42585 0.68182 0.11582 0.0
C708 C 0.43253 0.67999 0.19016 0.0
C709 C 0.43621 0.70064 0.23233 0.0
C710 C 0.42239 0.61664 0.05442 0.0
C711 C 0.43406 0.61762 0.98574 0.0
C712 C 0.41851 0.63766 0.09513 0.0
C713 C 0.42628 0.66008 0.06815 0.0
C714 C 0.43685 0.66115 0.99783 0.0
C715 C 0.44064 0.64017 0.95706 0.0
H716 H 0.82249 0.44593 0.29928 0.0
H717 H 0.77979 0.42964 0.10743 0.0
H718 H 0.85898 0.44103 0.2272 0.0
H719 H 0.81652 0.42455 0.03491 0.0
H720 H 0.88262 0.45894 0.91947 0.0
H721 H 0.8458 0.45334 0.98982 0.0
H722 H 0.88557 0.41503 0.15708 0.0
H723 H 0.92268 0.42154 0.08785 0.0
C724 C 0.8209 0.44051 0.24222 0.0
C725 C 0.79823 0.43829 0.20893 0.0
C726 C 0.84187 0.43773 0.20077 0.0
C727 C 0.84066 0.43265 0.1251 0.0
C728 C 0.81802 0.42891 0.09283 0.0
C729 C 0.79701 0.43175 0.13432 0.0
C730 C 0.88352 0.44935 0.97132 0.0
C731 C 0.90561 0.44097 0.99858 0.0
C732 C 0.86235 0.4458 0.01112 0.0
C733 C 0.86274 0.43373 0.07911 0.0
C734 C 0.88471 0.42459 0.10518 0.0
C735 C 0.90593 0.42815 0.06529 0.0
H736 H 0.07362 0.20632 0.8667 0.0
H737 H 0.99739 0.21994 0.85066 0.0
H738 H 0.06752 0.16526 0.82401 0.0
H739 H 0.99124 0.17838 0.80835 0.0
H740 H 0.99599 0.10774 0.6652 0.0
H741 H 1.00081 0.15003 0.70144 0.0
H742 H 0.04893 0.12834 0.87518 0.0
H743 H 0.04417 0.08636 0.83946 0.0
C744 C 0.05554 0.20069 0.85301 0.0
C745 C 0.03603 0.21665 0.86158 0.0
C746 C 0.05202 0.17697 0.82932 0.0
C747 C 0.02888 0.16841 0.81299 0.0
C748 C 1.00933 0.18442 0.82001 0.0
C749 C 1.01283 0.2082 0.84466 0.0
C750 C 1.00764 0.11201 0.71103 0.0
C751 C 0.01974 0.09354 0.74916 0.0
C752 C 1.01027 0.13625 0.73209 0.0
C753 C 0.02534 0.14265 0.79108 0.0
C754 C 0.03741 0.12415 0.82896 0.0
C755 C 0.03457 0.1 0.80858 0.0
H756 H 0.32151 1.00174 0.91255 0.0
H757 H 0.32761 0.07766 0.86398 0.0
H758 H 0.36245 0.99546 0.86812 0.0
H759 H 0.36785 0.07117 0.81597 0.0
H760 H 0.44873 0.05733 0.81441 0.0
H761 H 0.40745 0.0631 0.856 0.0
H762 H 0.388 0.99427 0.76268 0.0
H763 H 0.42944 0.98821 0.72313 0.0
C764 C 0.33143 0.01709 0.89193 0.0
C765 C 0.32098 0.04022 0.89206 0.0
C766 C 0.35492 1.01344 0.86558 0.0
C767 C 0.36871 0.03281 0.83849 0.0
C768 C 0.35807 0.05582 0.83733 0.0
C769 C 0.33468 0.05948 0.86385 0.0
C770 C 0.43567 0.04343 0.80259 0.0
C771 C 0.44257 0.02229 0.76538 0.0
C772 C 0.41185 0.04679 0.82613 0.0
C773 C 0.39415 0.02919 0.81281 0.0
C774 C 0.40107 1.00811 0.77511 0.0
C775 C 0.42491 1.00469 0.75191 0.0
H776 H 0.45612 0.32434 0.87593 0.0
H777 H 0.53278 0.31276 0.86438 0.0
H778 H 0.46144 0.3654 0.83143 0.0
H779 H 0.53812 0.35417 0.81973 0.0
H780 H 0.53228 0.42349 0.6716 0.0
H781 H 0.52781 0.38131 0.70912 0.0
H782 H 0.47956 0.40314 0.88329 0.0
H783 H 0.48408 0.44511 0.84654 0.0
C784 C 0.47412 0.33043 0.86287 0.0
C785 C 0.49401 0.31511 0.87336 0.0
C786 C 0.47718 0.3541 0.83805 0.0
C787 C 0.50021 0.36315 0.82223 0.0
C788 C 0.52012 0.34772 0.83101 0.0
C789 C 0.51708 0.32405 0.85697 0.0
C790 C 0.52068 0.4193 0.71784 0.0
C791 C 0.50853 0.43779 0.75597 0.0
C792 C 0.51825 0.39512 0.73958 0.0
C793 C 0.50329 0.38882 0.79915 0.0
C794 C 0.49104 0.4073 0.83676 0.0
C795 C 0.49373 0.43143 0.8158 0.0
H796 H 0.20434 0.53024 0.91931 0.0
H797 H 0.19762 0.45327 0.89039 0.0
H798 H 0.16429 0.53576 0.86823 0.0
H799 H 0.15854 0.45894 0.8347 0.0
H800 H 0.0781 0.47289 0.82109 0.0
H801 H 0.11889 0.46782 0.86632 0.0
H802 H 0.13935 0.535 0.76362 0.0
H803 H 0.09817 0.54048 0.72112 0.0
C804 C 0.19452 0.51447 0.90155 0.0
C805 C 0.2045 0.49128 0.90962 0.0
C806 C 0.17154 0.51768 0.87119 0.0
C807 C 0.15784 0.4978 0.84748 0.0
C808 C 0.16816 0.47472 0.85346 0.0
C809 C 0.19097 0.4715 0.88437 0.0
C810 C 0.0913 0.48655 0.80789 0.0
C811 C 0.08474 0.50712 0.76753 0.0
C812 C 0.11486 0.48359 0.83351 0.0
C813 C 0.13272 0.50095 0.81878 0.0
C814 C 0.12617 0.52139 0.77741 0.0
C815 C 0.1025 0.52448 0.7525 0.0
H816 H 0.99866 0.81501 0.62018 0.0
H817 H 1.00759 0.84355 0.40009 0.0
H818 H 0.99751 0.85598 0.66871 0.0
H819 H 1.00476 0.88427 0.44894 0.0
H820 H 0.97391 0.95261 0.56814 0.0
H821 H 0.97233 0.91103 0.52346 0.0
H822 H 0.03063 0.8919 0.66815 0.0
H823 H 0.03274 0.93367 0.71164 0.0
C824 C 1.00029 0.82983 0.58183 0.0
C825 C 1.00342 0.82558 0.50578 0.0
C826 C 0.99947 0.85335 0.6099 0.0
C827 C 1.00111 0.87328 0.56263 0.0
C828 C 1.00327 0.86922 0.48661 0.0
C829 C 1.00466 0.84573 0.45862 0.0
C830 C 0.98628 0.93951 0.59091 0.0
C831 C 1.00346 0.94646 0.64347 0.0
C832 C 0.98542 0.91575 0.56502 0.0
C833 C 1.00133 0.89826 0.59238 0.0
C834 C 0.01806 0.905 0.64645 0.0
C835 C 0.01931 0.92891 0.67109 0.0
H836 H 0.69289 0.0173 0.40508 0.0
H837 H 0.71915 0.9922 0.61517 0.0
H838 H 0.65186 1.01445 0.45002 0.0
H839 H 0.67782 0.98964 0.66055 0.0
H840 H 0.60277 0.01791 0.73644 0.0
H841 H 0.6444 0.0167 0.69378 0.0
H842 H 0.62119 0.9859 0.48763 0.0
H843 H 0.57964 0.98753 0.52946 0.0
C844 C 0.68997 1.01068 0.46043 0.0
C845 C 0.70951 1.00485 0.50618 0.0
C846 C 0.66633 1.00914 0.48637 0.0
C847 C 0.66146 1.00182 0.559 0.0
C848 C 0.68092 0.99565 0.60462 0.0
C849 C 0.70463 0.99709 0.57851 0.0
C850 C 0.60651 1.01084 0.6821 0.0
C851 C 0.58771 1.00303 0.6363 0.0
C852 C 0.63045 1.00996 0.65781 0.0
C853 C 0.63619 1.00131 0.58704 0.0
C854 C 0.61743 0.99301 0.542 0.0
C855 C 0.59355 0.99383 0.56628 0.0
H856 H 0.50441 0.71312 0.60255 0.0
H857 H 0.55254 0.69173 0.42701 0.0
H858 H 0.50643 0.67287 0.65374 0.0
H859 H 0.55336 0.65085 0.47614 0.0
H860 H 0.56384 0.58277 0.61466 0.0
H861 H 0.5662 0.62458 0.5735 0.0
H862 H 0.49102 0.63427 0.62613 0.0
H863 H 0.48885 0.59293 0.66907 0.0
C864 C 0.51573 0.69998 0.57518 0.0
C865 C 0.52834 0.70593 0.51035 0.0
C866 C 0.51653 0.67664 0.60404 0.0
C867 C 0.52978 0.65836 0.56873 0.0
C868 C 0.54304 0.66441 0.50522 0.0
C869 C 0.54235 0.68787 0.47648 0.0
C870 C 0.54786 0.59388 0.61796 0.0
C871 C 0.52615 0.58438 0.6453 0.0
C872 C 0.54918 0.61786 0.59383 0.0
C873 C 0.52882 0.63296 0.59637 0.0
C874 C 0.50721 0.62344 0.62439 0.0
C875 C 0.50592 0.59956 0.64866 0.0
H876 H 0.80967 0.53874 0.61769 0.0
H877 H 0.83454 0.51222 0.40708 0.0
H878 H 0.85116 0.53999 0.66132 0.0
H879 H 0.87579 0.5139 0.45028 0.0
H880 H 0.94887 0.54004 0.52767 0.0
H881 H 0.90731 0.54208 0.48667 0.0
H882 H 0.88383 0.51147 0.69313 0.0
H883 H 0.92552 0.5096 0.73478 0.0
C884 C 0.82391 0.53326 0.58053 0.0
C885 C 0.81859 0.52547 0.5086 0.0
C886 C 0.84772 0.53396 0.60565 0.0
C887 C 0.86685 0.52703 0.55939 0.0
C888 C 0.86158 0.51972 0.4871 0.0
C889 C 0.83782 0.51889 0.46215 0.0
C890 C 0.9349 0.53382 0.56466 0.0
C891 C 0.94065 0.5246 0.63459 0.0
C892 C 0.91102 0.53489 0.54088 0.0
C893 C 0.89218 0.52688 0.58642 0.0
C894 C 0.89786 0.51803 0.65689 0.0
C895 C 0.9218 0.51683 0.68061 0.0
loop_
_geom_bond_atom_site_label_1
_geom_bond_atom_site_label_2
_geom_bond_distance
_geom_bond_site_symmetry_2
_ccdc_geom_bond_type
P0 O11 1.490 . S
P0 C14 1.812 . S
P0 C20 1.803 . S
P0 C26 1.819 . S
H1 C15 0.941 . S
H2 C16 0.939 . S
H3 C18 0.940 . S
H4 C19 0.940 . S
H5 C21 0.939 . S
H6 C22 0.942 . S
H7 C24 0.940 . S
H8 C25 0.939 . S
H9 C27 0.941 . S
H10 C31 0.939 . S
O11 P0 1.490 . S
H12 C28 0.939 . S
H13 C30 0.940 . S
C14 P0 1.812 . S
C14 C15 1.389 . S
C14 C19 1.391 . S
C15 H1 0.941 . S
C15 C14 1.389 . S
C15 C16 1.397 . S
C16 H2 0.939 . S
C16 C15 1.397 . S
C16 C17 1.378 . S
C17 C16 1.378 . S
C17 C18 1.378 . S
C18 H3 0.940 . S
C18 C17 1.378 . S
C18 C19 1.396 . S
C19 H4 0.940 . S
C19 C14 1.391 . S
C19 C18 1.396 . S
C20 P0 1.803 . S
C20 C21 1.378 . S
C20 C25 1.400 . S
C21 H5 0.939 . S
C21 C20 1.378 . S
C21 C22 1.361 . S
C22 H6 0.942 . S
C22 C21 1.361 . S
C22 C23 1.369 . S
C23 C22 1.369 . S
C23 C24 1.404 . S
C24 H7 0.940 . S
C24 C23 1.404 . S
C24 C25 1.389 . S
C25 H8 0.939 . S
C25 C20 1.400 . S
C25 C24 1.389 . S
C26 P0 1.819 . S
C26 C27 1.391 . S
C26 C31 1.391 . S
C27 H9 0.941 . S
C27 C26 1.391 . S
C27 C28 1.396 . S
C28 H12 0.939 . S
C28 C27 1.396 . S
C28 C29 1.397 . S
C29 C28 1.397 . S
C29 C30 1.385 . S
C30 H13 0.940 . S
C30 C29 1.385 . S
C30 C31 1.388 . S
C31 H10 0.939 . S
C31 C26 1.391 . S
C31 C30 1.388 . S
P32 O43 1.490 . S
P32 C46 1.812 . S
P32 C52 1.803 . S
P32 C58 1.819 . S
H33 C47 0.941 . S
H34 C48 0.939 . S
H35 C50 0.940 . S
H36 C51 0.950 . S
H37 C53 0.939 . S
H38 C54 0.942 . S
H39 C56 0.940 . S
H40 C57 0.959 . S
H41 C59 0.941 . S
H42 C63 0.929 1_655 S
O43 P32 1.490 . S
H44 C60 0.939 . S
H45 C62 0.940 . S
C46 P32 1.812 . S
C46 C47 1.389 . S
C46 C51 1.375 1_455 S
C47 H33 0.941 . S
C47 C46 1.389 . S
C47 C48 1.397 . S
C48 H34 0.939 . S
C48 C47 1.397 . S
C48 C49 1.378 . S
C49 C48 1.378 . S
C49 C50 1.378 1_455 S
C50 H35 0.940 . S
C50 C49 1.378 1_655 S
C50 C51 1.403 . S
C51 H36 0.950 . S
C51 C46 1.375 1_655 S
C51 C50 1.403 . S
C52 P32 1.803 . S
C52 C53 1.378 . S
C52 C57 1.368 1_455 S
C53 H37 0.939 . S
C53 C52 1.378 . S
C53 C54 1.361 . S
C54 H38 0.942 . S
C54 C53 1.361 . S
C54 C55 1.369 . S
C55 C54 1.369 . S
C55 C56 1.404 1_455 S
C56 H39 0.940 . S
C56 C55 1.404 1_655 S
C56 C57 1.402 . S
C57 H40 0.959 . S
C57 C52 1.368 1_655 S
C57 C56 1.402 . S
C58 P32 1.819 . S
C58 C59 1.391 . S
C58 C63 1.391 . S
C59 H41 0.941 . S
C59 C58 1.391 . S
C59 C60 1.396 . S
C60 H44 0.939 . S
C60 C59 1.396 . S
C60 C61 1.397 . S
C61 C60 1.397 . S
C61 C62 1.385 1_455 S
C62 H45 0.940 . S
C62 C61 1.385 1_655 S
C62 C63 1.388 1_655 S
C63 H42 0.929 1_455 S
C63 C58 1.391 . S
C63 C62 1.388 1_455 S
P64 O75 1.490 . S
P64 C78 1.812 . S
P64 C84 1.803 . S
P64 C90 1.819 . S
H65 C79 0.941 . S
H66 C80 0.939 . S
H67 C82 0.940 . S
H68 C83 0.950 . S
H69 C85 0.939 . S
H70 C86 0.942 . S
H71 C88 0.940 . S
H72 C89 0.959 . S
H73 C91 0.941 . S
H74 C95 0.929 1_565 S
O75 P64 1.490 . S
H76 C92 0.939 . S
H77 C94 0.940 . S
C78 P64 1.812 . S
C78 C79 1.389 . S
C78 C83 1.375 1_545 S
C79 H65 0.941 . S
C79 C78 1.389 . S
C79 C80 1.397 . S
C80 H66 0.939 . S
C80 C79 1.397 . S
C80 C81 1.378 . S
C81 C80 1.378 . S
C81 C82 1.378 1_545 S
C82 H67 0.940 . S
C82 C81 1.378 1_565 S
C82 C83 1.403 . S
C83 H68 0.950 . S
C83 C78 1.375 1_565 S
C83 C82 1.403 . S
C84 P64 1.803 . S
C84 C85 1.378 . S
C84 C89 1.368 1_545 S
C85 H69 0.939 . S
C85 C84 1.378 . S
C85 C86 1.361 . S
C86 H70 0.942 . S
C86 C85 1.361 . S
C86 C87 1.369 . S
C87 C86 1.369 . S
C87 C88 1.404 1_545 S
C88 H71 0.940 . S
C88 C87 1.404 1_565 S
C88 C89 1.402 . S
C89 H72 0.959 . S
C89 C84 1.368 1_565 S
C89 C88 1.402 . S
C90 P64 1.819 . S
C90 C91 1.391 . S
C90 C95 1.391 . S
C91 H73 0.941 . S
C91 C90 1.391 . S
C91 C92 1.396 . S
C92 H76 0.939 . S
C92 C91 1.396 . S
C92 C93 1.397 . S
C93 C92 1.397 . S
C93 C94 1.385 1_545 S
C94 H77 0.940 . S
C94 C93 1.385 1_565 S
C94 C95 1.388 1_565 S
C95 H74 0.929 1_545 S
C95 C90 1.391 . S
C95 C94 1.388 1_545 S
P96 O107 1.490 . S
P96 C110 1.812 . S
P96 C116 1.803 . S
P96 C122 1.819 . S
H97 C111 0.941 . S
H98 C112 0.939 . S
H99 C114 0.940 . S
H100 C115 0.940 . S
H101 C117 0.939 . S
H102 C118 0.942 . S
H103 C120 0.940 . S
H104 C121 0.939 . S
H105 C123 0.941 . S
H106 C127 0.939 . S
O107 P96 1.490 . S
H108 C124 0.939 . S
H109 C126 0.940 . S
C110 P96 1.812 . S
C110 C111 1.389 . S
C110 C115 1.391 . S
C111 H97 0.941 . S
C111 C110 1.389 . S
C111 C112 1.397 . S
C112 H98 0.939 . S
C112 C111 1.397 . S
C112 C113 1.378 . S
C113 C112 1.378 . S
C113 C114 1.378 . S
C114 H99 0.940 . S
C114 C113 1.378 . S
C114 C115 1.396 . S
C115 H100 0.940 . S
C115 C110 1.391 . S
C115 C114 1.396 . S
C116 P96 1.803 . S
C116 C117 1.378 . S
C116 C121 1.400 . S
C117 H101 0.939 . S
C117 C116 1.378 . S
C117 C118 1.361 . S
C118 H102 0.942 . S
C118 C117 1.361 . S
C118 C119 1.369 . S
C119 C118 1.369 . S
C119 C120 1.404 . S
C120 H103 0.940 . S
C120 C119 1.404 . S
C120 C121 1.389 . S
C121 H104 0.939 . S
C121 C116 1.400 . S
C121 C120 1.389 . S
C122 P96 1.819 . S
C122 C123 1.391 . S
C122 C127 1.391 . S
C123 H105 0.941 . S
C123 C122 1.391 . S
C123 C124 1.396 . S
C124 H108 0.939 . S
C124 C123 1.396 . S
C124 C125 1.397 . S
C125 C124 1.397 . S
C125 C126 1.385 . S
C126 H109 0.940 . S
C126 C125 1.385 . S
C126 C127 1.388 . S
C127 H106 0.939 . S
C127 C122 1.391 . S
C127 C126 1.388 . S
P128 O139 1.490 . S
P128 C142 1.812 1_554 S
P128 C148 1.803 . S
P128 C154 1.819 . S
H129 C143 0.941 . S
H130 C144 0.939 . S
H131 C146 0.940 . S
H132 C147 0.940 1_554 S
H133 C149 0.939 . S
H134 C150 0.942 . S
H135 C152 0.940 . S
H136 C153 0.939 . S
H137 C155 0.941 . S
H138 C159 0.939 . S
O139 P128 1.490 . S
H140 C156 0.939 . S
H141 C158 0.940 . S
C142 P128 1.812 1_556 S
C142 C143 1.389 . S
C142 C147 1.391 . S
C143 H129 0.941 . S
C143 C142 1.389 . S
C143 C144 1.397 . S
C144 H130 0.939 . S
C144 C143 1.397 . S
C144 C145 1.378 . S
C145 C144 1.378 . S
C145 C146 1.378 . S
C146 H131 0.940 . S
C146 C145 1.378 . S
C146 C147 1.396 . S
C147 H132 0.940 1_556 S
C147 C142 1.391 . S
C147 C146 1.396 . S
C148 P128 1.803 . S
C148 C149 1.378 . S
C148 C153 1.400 . S
C149 H133 0.939 . S
C149 C148 1.378 . S
C149 C150 1.361 . S
C150 H134 0.942 . S
C150 C149 1.361 . S
C150 C151 1.369 . S
C151 C150 1.369 . S
C151 C152 1.404 . S
C152 H135 0.940 . S
C152 C151 1.404 . S
C152 C153 1.389 . S
C153 H136 0.939 . S
C153 C148 1.400 . S
C153 C152 1.389 . S
C154 P128 1.819 . S
C154 C155 1.391 . S
C154 C159 1.391 . S
C155 H137 0.941 . S
C155 C154 1.391 . S
C155 C156 1.396 . S
C156 H140 0.939 . S
C156 C155 1.396 . S
C156 C157 1.397 . S
C157 C156 1.397 . S
C157 C158 1.385 . S
C158 H141 0.940 . S
C158 C157 1.385 . S
C158 C159 1.388 . S
C159 H138 0.939 . S
C159 C154 1.391 . S
C159 C158 1.388 . S
P160 O171 1.490 . S
P160 C174 1.812 1_554 S
P160 C180 1.803 . S
P160 C186 1.819 . S
H161 C175 0.941 . S
H162 C176 0.939 . S
H163 C178 0.940 . S
H164 C179 0.944 1_554 S
H165 C181 0.939 . S
H166 C182 0.942 . S
H167 C184 0.940 . S
H168 C185 0.952 . S
H169 C187 0.941 . S
H170 C191 0.933 1_655 S
O171 P160 1.490 . S
H172 C188 0.939 . S
H173 C190 0.940 . S
C174 P160 1.812 1_556 S
C174 C175 1.389 . S
C174 C179 1.385 1_455 S
C175 H161 0.941 . S
C175 C174 1.389 . S
C175 C176 1.397 . S
C176 H162 0.939 . S
C176 C175 1.397 . S
C176 C177 1.378 . S
C177 C176 1.378 . S
C177 C178 1.378 1_455 S
C178 H163 0.940 . S
C178 C177 1.378 1_655 S
C178 C179 1.399 . S
C179 H164 0.944 1_556 S
C179 C174 1.385 1_655 S
C179 C178 1.399 . S
C180 P160 1.803 . S
C180 C181 1.378 . S
C180 C185 1.379 1_455 S
C181 H165 0.939 . S
C181 C180 1.378 . S
C181 C182 1.361 . S
C182 H166 0.942 . S
C182 C181 1.361 . S
C182 C183 1.369 . S
C183 C182 1.369 . S
C183 C184 1.404 1_455 S
C184 H167 0.940 . S
C184 C183 1.404 1_655 S
C184 C185 1.398 . S
C185 H168 0.952 . S
C185 C180 1.379 1_655 S
C185 C184 1.398 . S
C186 P160 1.819 . S
C186 C187 1.391 . S
C186 C191 1.391 . S
C187 H169 0.941 . S
C187 C186 1.391 . S
C187 C188 1.396 . S
C188 H172 0.939 . S
C188 C187 1.396 . S
C188 C189 1.397 . S
C189 C188 1.397 . S
C189 C190 1.385 1_455 S
C190 H173 0.940 . S
C190 C189 1.385 1_655 S
C190 C191 1.388 1_655 S
C191 H170 0.933 1_455 S
C191 C186 1.391 . S
C191 C190 1.388 1_455 S
P192 O203 1.490 . S
P192 C206 1.812 1_554 S
P192 C212 1.803 . S
P192 C218 1.819 . S
H193 C207 0.941 . S
H194 C208 0.939 . S
H195 C210 0.940 . S
H196 C211 0.944 1_554 S
H197 C213 0.939 . S
H198 C214 0.942 . S
H199 C216 0.940 . S
H200 C217 0.953 . S
H201 C219 0.941 . S
H202 C223 0.933 1_565 S
O203 P192 1.490 . S
H204 C220 0.939 . S
H205 C222 0.940 . S
C206 P192 1.812 1_556 S
C206 C207 1.389 . S
C206 C211 1.385 1_545 S
C207 H193 0.941 . S
C207 C206 1.389 . S
C207 C208 1.397 . S
C208 H194 0.939 . S
C208 C207 1.397 . S
C208 C209 1.378 . S
C209 C208 1.378 . S
C209 C210 1.378 1_545 S
C210 H195 0.940 . S
C210 C209 1.378 1_565 S
C210 C211 1.399 . S
C211 H196 0.944 1_556 S
C211 C206 1.385 1_565 S
C211 C210 1.399 . S
C212 P192 1.803 . S
C212 C213 1.378 . S
C212 C217 1.379 1_545 S
C213 H197 0.939 . S
C213 C212 1.378 . S
C213 C214 1.361 . S
C214 H198 0.942 . S
C214 C213 1.361 . S
C214 C215 1.369 . S
C215 C214 1.369 . S
C215 C216 1.404 1_545 S
C216 H199 0.940 . S
C216 C215 1.404 1_565 S
C216 C217 1.397 . S
C217 H200 0.953 . S
C217 C212 1.379 1_565 S
C217 C216 1.397 . S
C218 P192 1.819 . S
C218 C219 1.391 . S
C218 C223 1.391 . S
C219 H201 0.941 . S
C219 C218 1.391 . S
C219 C220 1.396 . S
C220 H204 0.939 . S
C220 C219 1.396 . S
C220 C221 1.397 . S
C221 C220 1.397 . S
C221 C222 1.385 1_545 S
C222 H205 0.940 . S
C222 C221 1.385 1_565 S
C222 C223 1.388 1_565 S
C223 H202 0.933 1_545 S
C223 C218 1.391 . S
C223 C222 1.388 1_545 S
P224 O235 1.490 . S
P224 C238 1.812 1_554 S
P224 C244 1.803 . S
P224 C250 1.819 . S
H225 C239 0.941 . S
H226 C240 0.939 . S
H227 C242 0.940 . S
H228 C243 0.940 1_554 S
H229 C245 0.939 . S
H230 C246 0.942 . S
H231 C248 0.940 . S
H232 C249 0.939 . S
H233 C251 0.941 . S
H234 C255 0.939 . S
O235 P224 1.490 . S
H236 C252 0.939 . S
H237 C254 0.940 . S
C238 P224 1.812 1_556 S
C238 C239 1.389 . S
C238 C243 1.391 . S
C239 H225 0.941 . S
C239 C238 1.389 . S
C239 C240 1.397 . S
C240 H226 0.939 . S
C240 C239 1.397 . S
C240 C241 1.378 . S
C241 C240 1.378 . S
C241 C242 1.378 . S
C242 H227 0.940 . S
C242 C241 1.378 . S
C242 C243 1.396 . S
C243 H228 0.940 1_556 S
C243 C238 1.391 . S
C243 C242 1.396 . S
C244 P224 1.803 . S
C244 C245 1.378 . S
C244 C249 1.400 . S
C245 H229 0.939 . S
C245 C244 1.378 . S
C245 C246 1.361 . S
C246 H230 0.942 . S
C246 C245 1.361 . S
C246 C247 1.369 . S
C247 C246 1.369 . S
C247 C248 1.404 . S
C248 H231 0.940 . S
C248 C247 1.404 . S
C248 C249 1.389 . S
C249 H232 0.939 . S
C249 C244 1.400 . S
C249 C248 1.389 . S
C250 P224 1.819 . S
C250 C251 1.391 . S
C250 C255 1.391 . S
C251 H233 0.941 . S
C251 C250 1.391 . S
C251 C252 1.396 . S
C252 H236 0.939 . S
C252 C251 1.396 . S
C252 C253 1.397 . S
C253 C252 1.397 . S
C253 C254 1.385 . S
C254 H237 0.940 . S
C254 C253 1.385 . S
C254 C255 1.388 . S
C255 H234 0.939 . S
C255 C250 1.391 . S
C255 C254 1.388 . S
Tb256 C266 2.825 . S
Tb256 O267 2.347 1_455 S
Tb256 O270 2.366 . S
Tb256 O275 2.418 . S
Tb256 O276 2.384 1_565 S
Tb256 O279 2.479 . S
Tb256 O280 2.471 . S
Eu257 O268 2.418 . S
Eu257 O269 2.384 1_545 S
Eu257 O272 2.479 . S
Eu257 O273 2.471 . S
Eu257 O274 2.347 1_655 S
Eu257 O277 2.366 . S
Eu257 C287 2.825 . S
C258 O274 1.259 1_565 S
C258 O275 1.265 . S
C259 O276 1.255 . S
C259 O277 1.265 1_455 S
C260 C262 1.380 . S
C260 C263 1.374 . S
C260 C266 1.507 . S
C261 C262 1.384 . S
C261 C265 1.387 . S
C261 H288 0.930 . S
C262 C260 1.380 . S
C262 C261 1.384 . S
C262 H289 0.931 . S
C263 C260 1.374 . S
C263 C264 1.390 . S
C263 H290 0.930 1_455 S
C264 C263 1.390 . S
C264 C265 1.391 . S
C264 H291 0.930 1_455 S
C265 C261 1.387 . S
C265 C264 1.391 . S
C266 Tb256 2.825 . S
C266 C260 1.507 . S
C266 O279 1.238 . S
C266 O280 1.247 . S
O267 Tb256 2.347 1_655 S
O267 C271 1.259 1_565 S
O268 Eu257 2.418 . S
O268 C271 1.265 . S
O269 Eu257 2.384 1_565 S
O269 C278 1.255 . S
O270 Tb256 2.366 . S
O270 C278 1.265 1_455 S
C271 O267 1.259 1_545 S
C271 O268 1.265 . S
O272 Eu257 2.479 . S
O272 C287 1.238 . S
O273 Eu257 2.471 . S
O273 C287 1.247 . S
O274 Eu257 2.347 1_455 S
O274 C258 1.259 1_545 S
O275 Tb256 2.418 . S
O275 C258 1.265 . S
O276 Tb256 2.384 1_545 S
O276 C259 1.255 . S
O277 Eu257 2.366 . S
O277 C259 1.265 1_655 S
C278 O269 1.255 . S
C278 O270 1.265 1_655 S
O279 Tb256 2.479 . S
O279 C266 1.238 . S
O280 Tb256 2.471 . S
O280 C266 1.247 . S
C281 C284 1.380 . S
C281 C285 1.374 . S
C281 C287 1.507 . S
C282 C283 1.387 . S
C282 C286 1.391 . S
C283 C282 1.387 . S
C283 C284 1.384 . S
C283 H292 0.930 . S
C284 C281 1.380 . S
C284 C283 1.384 . S
C284 H293 0.931 . S
C285 C281 1.374 . S
C285 C286 1.390 . S
C285 H294 0.930 1_655 S
C286 C282 1.391 . S
C286 C285 1.390 . S
C286 H295 0.930 1_655 S
C287 Eu257 2.825 . S
C287 O272 1.238 . S
C287 O273 1.247 . S
C287 C281 1.507 . S
H288 C261 0.930 . S
H289 C262 0.931 . S
H290 C263 0.930 1_655 S
H291 C264 0.930 1_655 S
H292 C283 0.930 . S
H293 C284 0.931 . S
H294 C285 0.930 1_455 S
H295 C286 0.930 1_455 S
Tb296 C306 2.825 . S
Tb296 O307 2.347 1_545 S
Tb296 O310 2.366 . S
Tb296 O315 2.418 . S
Tb296 O316 2.384 . S
Tb296 O319 2.479 . S
Tb296 O320 2.471 . S
Eu297 O308 2.418 . S
Eu297 O309 2.384 . S
Eu297 O312 2.479 . S
Eu297 O313 2.471 . S
Eu297 O314 2.347 1_565 S
Eu297 O317 2.366 . S
Eu297 C327 2.825 . S
C298 O314 1.259 . S
C298 O315 1.265 . S
C299 O316 1.255 . S
C299 O317 1.265 1_545 S
C300 C302 1.380 . S
C300 C303 1.374 . S
C300 C306 1.507 . S
C301 C302 1.384 . S
C301 C305 1.387 . S
C301 H328 0.930 . S
C302 C300 1.380 . S
C302 C301 1.384 . S
C302 H329 0.931 . S
C303 C300 1.374 . S
C303 C304 1.390 . S
C303 H330 0.930 1_545 S
C304 C303 1.390 . S
C304 C305 1.391 . S
C304 H331 0.930 1_545 S
C305 C301 1.387 . S
C305 C304 1.391 . S
C306 Tb296 2.825 . S
C306 C300 1.507 . S
C306 O319 1.238 . S
C306 O320 1.247 . S
O307 Tb296 2.347 1_565 S
O307 C311 1.259 . S
O308 Eu297 2.418 . S
O308 C311 1.265 . S
O309 Eu297 2.384 . S
O309 C318 1.255 . S
O310 Tb296 2.366 . S
O310 C318 1.265 1_545 S
C311 O307 1.259 . S
C311 O308 1.265 . S
O312 Eu297 2.479 . S
O312 C327 1.238 . S
O313 Eu297 2.471 . S
O313 C327 1.247 . S
O314 Eu297 2.347 1_545 S
O314 C298 1.259 . S
O315 Tb296 2.418 . S
O315 C298 1.265 . S
O316 Tb296 2.384 . S
O316 C299 1.255 . S
O317 Eu297 2.366 . S
O317 C299 1.265 1_565 S
C318 O309 1.255 . S
C318 O310 1.265 1_565 S
O319 Tb296 2.479 . S
O319 C306 1.238 . S
O320 Tb296 2.471 . S
O320 C306 1.247 . S
C321 C324 1.380 . S
C321 C325 1.374 . S
C321 C327 1.507 . S
C322 C323 1.387 . S
C322 C326 1.391 . S
C323 C322 1.387 . S
C323 C324 1.384 . S
C323 H332 0.930 . S
C324 C321 1.380 . S
C324 C323 1.384 . S
C324 H333 0.931 . S
C325 C321 1.374 . S
C325 C326 1.390 . S
C325 H334 0.930 1_565 S
C326 C322 1.391 . S
C326 C325 1.390 . S
C326 H335 0.930 1_565 S
C327 Eu297 2.825 . S
C327 O312 1.238 . S
C327 O313 1.247 . S
C327 C321 1.507 . S
H328 C301 0.930 . S
H329 C302 0.931 . S
H330 C303 0.930 1_565 S
H331 C304 0.930 1_565 S
H332 C323 0.930 . S
H333 C324 0.931 . S
H334 C325 0.930 1_545 S
H335 C326 0.930 1_545 S
Tb336 C346 2.825 . S
Tb336 O347 2.347 . S
Tb336 O350 2.366 . S
Tb336 O355 2.418 . S
Tb336 O356 2.384 . S
Tb336 O359 2.479 . S
Tb336 O360 2.471 . S
Eu337 O348 2.418 . S
Eu337 O349 2.384 . S
Eu337 O352 2.479 . S
Eu337 O353 2.471 . S
Eu337 O354 2.347 . S
Eu337 O357 2.366 . S
Eu337 C367 2.825 . S
C338 O354 1.259 . S
C338 O355 1.265 . S
C339 O356 1.255 . S
C339 O357 1.265 . S
C340 C342 1.380 . S
C340 C343 1.374 . S
C340 C346 1.507 . S
C341 C342 1.384 . S
C341 C345 1.387 . S
C341 H368 0.930 . S
C342 C340 1.380 . S
C342 C341 1.384 . S
C342 H369 0.931 . S
C343 C340 1.374 . S
C343 C344 1.390 . S
C343 H370 0.930 . S
C344 C343 1.390 . S
C344 C345 1.391 . S
C344 H371 0.930 . S
C345 C341 1.387 . S
C345 C344 1.391 . S
C346 Tb336 2.825 . S
C346 C340 1.507 . S
C346 O359 1.238 . S
C346 O360 1.247 . S
O347 Tb336 2.347 . S
O347 C351 1.259 . S
O348 Eu337 2.418 . S
O348 C351 1.265 . S
O349 Eu337 2.384 . S
O349 C358 1.255 . S
O350 Tb336 2.366 . S
O350 C358 1.265 . S
C351 O347 1.259 . S
C351 O348 1.265 . S
O352 Eu337 2.479 . S
O352 C367 1.238 . S
O353 Eu337 2.471 . S
O353 C367 1.247 . S
O354 Eu337 2.347 . S
O354 C338 1.259 . S
O355 Tb336 2.418 . S
O355 C338 1.265 . S
O356 Tb336 2.384 . S
O356 C339 1.255 . S
O357 Eu337 2.366 . S
O357 C339 1.265 . S
C358 O349 1.255 . S
C358 O350 1.265 . S
O359 Tb336 2.479 . S
O359 C346 1.238 . S
O360 Tb336 2.471 . S
O360 C346 1.247 . S
C361 C364 1.380 . S
C361 C365 1.374 . S
C361 C367 1.507 . S
C362 C363 1.387 . S
C362 C366 1.391 . S
C363 C362 1.387 . S
C363 C364 1.384 . S
C363 H372 0.930 . S
C364 C361 1.380 . S
C364 C363 1.384 . S
C364 H373 0.931 . S
C365 C361 1.374 . S
C365 C366 1.390 . S
C365 H374 0.930 . S
C366 C362 1.391 . S
C366 C365 1.390 . S
C366 H375 0.930 . S
C367 Eu337 2.825 . S
C367 O352 1.238 . S
C367 O353 1.247 . S
C367 C361 1.507 . S
H368 C341 0.930 . S
H369 C342 0.931 . S
H370 C343 0.930 . S
H371 C344 0.930 . S
H372 C363 0.930 . S
H373 C364 0.931 . S
H374 C365 0.930 . S
H375 C366 0.930 . S
Tb376 C386 2.825 . S
Tb376 O387 2.347 . S
Tb376 O390 2.366 . S
Tb376 O395 2.418 . S
Tb376 O396 2.384 1_655 S
Tb376 O399 2.479 . S
Tb376 O400 2.471 . S
Eu377 O388 2.418 . S
Eu377 O389 2.384 1_455 S
Eu377 O392 2.479 . S
Eu377 O393 2.471 . S
Eu377 O394 2.347 . S
Eu377 O397 2.366 . S
Eu377 C407 2.825 . S
C378 O394 1.259 1_655 S
C378 O395 1.265 . S
C379 O396 1.255 . S
C379 O397 1.265 . S
C380 C382 1.380 . S
C380 C383 1.374 . S
C380 C386 1.507 . S
C381 C382 1.384 . S
C381 C385 1.387 . S
C381 H408 0.930 . S
C382 C380 1.380 . S
C382 C381 1.384 . S
C382 H409 0.931 . S
C383 C380 1.374 . S
C383 C384 1.390 . S
C383 H410 0.930 . S
C384 C383 1.390 . S
C384 C385 1.391 . S
C384 H411 0.930 . S
C385 C381 1.387 . S
C385 C384 1.391 . S
C386 Tb376 2.825 . S
C386 C380 1.507 . S
C386 O399 1.238 . S
C386 O400 1.247 . S
O387 Tb376 2.347 . S
O387 C391 1.259 1_655 S
O388 Eu377 2.418 . S
O388 C391 1.265 . S
O389 Eu377 2.384 1_655 S
O389 C398 1.255 . S
O390 Tb376 2.366 . S
O390 C398 1.265 . S
C391 O387 1.259 1_455 S
C391 O388 1.265 . S
O392 Eu377 2.479 . S
O392 C407 1.238 . S
O393 Eu377 2.471 . S
O393 C407 1.247 . S
O394 Eu377 2.347 . S
O394 C378 1.259 1_455 S
O395 Tb376 2.418 . S
O395 C378 1.265 . S
O396 Tb376 2.384 1_455 S
O396 C379 1.255 . S
O397 Eu377 2.366 . S
O397 C379 1.265 . S
C398 O389 1.255 . S
C398 O390 1.265 . S
O399 Tb376 2.479 . S
O399 C386 1.238 . S
O400 Tb376 2.471 . S
O400 C386 1.247 . S
C401 C404 1.380 . S
C401 C405 1.374 . S
C401 C407 1.507 . S
C402 C403 1.387 . S
C402 C406 1.391 . S
C403 C402 1.387 . S
C403 C404 1.384 . S
C403 H412 0.930 . S
C404 C401 1.380 . S
C404 C403 1.384 . S
C404 H413 0.931 . S
C405 C401 1.374 . S
C405 C406 1.390 . S
C405 H414 0.930 . S
C406 C402 1.391 . S
C406 C405 1.390 . S
C406 H415 0.930 . S
C407 Eu377 2.825 . S
C407 O392 1.238 . S
C407 O393 1.247 . S
C407 C401 1.507 . S
H408 C381 0.930 . S
H409 C382 0.931 . S
H410 C383 0.930 . S
H411 C384 0.930 . S
H412 C403 0.930 . S
H413 C404 0.931 . S
H414 C405 0.930 . S
H415 C406 0.930 . S
H416 C424 0.950 . S
H417 C429 0.950 . S
H418 C426 0.950 . S
H419 C428 0.950 . S
H420 C430 0.950 . S
H421 C432 0.950 . S
H422 C434 0.950 . S
H423 C435 0.950 . S
C424 H416 0.950 . S
C424 C425 1.407 . S
C424 C426 1.391 . S
C425 C424 1.407 . S
C425 C429 1.373 1_545 S
C426 H418 0.950 . S
C426 C424 1.391 . S
C426 C427 1.416 . S
C427 C426 1.416 . S
C427 C428 1.383 1_545 S
C427 C433 1.490 . S
C428 H419 0.950 . S
C428 C427 1.383 1_565 S
C428 C429 1.391 . S
C429 H417 0.950 . S
C429 C425 1.373 1_565 S
C429 C428 1.391 . S
C430 H420 0.950 . S
C430 C431 1.385 . S
C430 C432 1.391 . S
C431 C430 1.385 . S
C431 C435 1.393 1_565 S
C432 H421 0.950 . S
C432 C430 1.391 . S
C432 C433 1.402 1_565 S
C433 C427 1.490 . S
C433 C432 1.402 1_545 S
C433 C434 1.397 . S
C434 H422 0.950 . S
C434 C433 1.397 . S
C434 C435 1.391 . S
C435 H423 0.950 . S
C435 C431 1.393 1_545 S
C435 C434 1.391 . S
H436 C444 0.950 . S
H437 C449 0.950 . S
H438 C446 0.950 . S
H439 C448 0.950 . S
H440 C450 0.950 . S
H441 C452 0.950 . S
H442 C454 0.950 . S
H443 C455 0.950 . S
C444 H436 0.950 . S
C444 C445 1.386 . S
C444 C446 1.391 . S
C445 C444 1.386 . S
C445 C449 1.393 . S
C446 H438 0.950 . S
C446 C444 1.391 . S
C446 C447 1.400 . S
C447 C446 1.400 . S
C447 C448 1.398 . S
C447 C453 1.491 . S
C448 H439 0.950 . S
C448 C447 1.398 . S
C448 C449 1.391 . S
C449 H437 0.950 . S
C449 C445 1.393 . S
C449 C448 1.391 . S
C450 H440 0.950 . S
C450 C451 1.386 . S
C450 C452 1.391 . S
C451 C450 1.386 . S
C451 C455 1.393 . S
C452 H441 0.950 . S
C452 C450 1.391 . S
C452 C453 1.400 . S
C453 C447 1.491 . S
C453 C452 1.400 . S
C453 C454 1.398 . S
C454 H442 0.950 . S
C454 C453 1.398 . S
C454 C455 1.391 . S
C455 H443 0.950 . S
C455 C451 1.393 . S
C455 C454 1.391 . S
H456 C464 0.950 . S
H457 C469 0.950 . S
H458 C466 0.950 . S
H459 C468 0.950 . S
H460 C470 0.950 . S
H461 C472 0.950 . S
H462 C474 0.950 . S
H463 C475 0.950 . S
C464 H456 0.950 . S
C464 C465 1.386 . S
C464 C466 1.391 . S
C465 C464 1.386 . S
C465 C469 1.393 . S
C466 H458 0.950 . S
C466 C464 1.391 . S
C466 C467 1.400 . S
C467 C466 1.400 . S
C467 C468 1.398 . S
C467 C473 1.491 . S
C468 H459 0.950 . S
C468 C467 1.398 . S
C468 C469 1.391 . S
C469 H457 0.950 . S
C469 C465 1.393 . S
C469 C468 1.391 . S
C470 H460 0.950 . S
C470 C471 1.386 . S
C470 C472 1.391 . S
C471 C470 1.386 . S
C471 C475 1.393 . S
C472 H461 0.950 . S
C472 C470 1.391 . S
C472 C473 1.400 . S
C473 C467 1.491 . S
C473 C472 1.400 . S
C473 C474 1.398 . S
C474 H462 0.950 . S
C474 C473 1.398 . S
C474 C475 1.391 . S
C475 H463 0.950 . S
C475 C471 1.393 . S
C475 C474 1.391 . S
H476 C484 0.950 . S
H477 C489 0.950 . S
H478 C486 0.950 . S
H479 C488 0.950 . S
H480 C490 0.950 . S
H481 C492 0.950 . S
H482 C494 0.950 . S
H483 C495 0.950 . S
C484 H476 0.950 . S
C484 C485 1.386 . S
C484 C486 1.391 . S
C485 C484 1.386 . S
C485 C489 1.393 1_455 S
C486 H478 0.950 . S
C486 C484 1.391 . S
C486 C487 1.417 . S
C487 C486 1.417 . S
C487 C488 1.384 1_455 S
C487 C493 1.490 . S
C488 H479 0.950 . S
C488 C487 1.384 1_655 S
C488 C489 1.391 . S
C489 H477 0.950 . S
C489 C485 1.393 1_655 S
C489 C488 1.391 . S
C490 H480 0.950 . S
C490 C491 1.381 1_655 S
C490 C492 1.391 . S
C491 C490 1.381 1_455 S
C491 C495 1.397 . S
C492 H481 0.950 . S
C492 C490 1.391 . S
C492 C493 1.395 1_655 S
C493 C487 1.490 . S
C493 C492 1.395 1_455 S
C493 C494 1.403 . S
C494 H482 0.950 . S
C494 C493 1.403 . S
C494 C495 1.391 . S
C495 H483 0.950 . S
C495 C491 1.397 . S
C495 C494 1.391 . S
H496 C504 0.950 . S
H497 C509 0.950 . S
H498 C506 0.950 . S
H499 C508 0.950 . S
H500 C510 0.950 . S
H501 C512 0.950 . S
H502 C514 0.950 . S
H503 C515 0.950 . S
C504 H496 0.950 . S
C504 C505 1.365 1_565 S
C504 C506 1.391 . S
C505 C504 1.365 1_545 S
C505 C509 1.414 . S
C506 H498 0.950 . S
C506 C504 1.391 . S
C506 C507 1.394 1_565 S
C507 C506 1.394 1_545 S
C507 C508 1.405 . S
C507 C513 1.490 1_545 S
C508 H499 0.950 . S
C508 C507 1.405 . S
C508 C509 1.391 . S
C509 H497 0.950 . S
C509 C505 1.414 . S
C509 C508 1.391 . S
C510 H500 0.950 . S
C510 C511 1.358 1_545 S
C510 C512 1.391 1_556 S
C511 C510 1.358 1_565 S
C511 C515 1.421 . S
C512 H501 0.950 . S
C512 C510 1.391 1_554 S
C512 C513 1.388 1_545 S
C513 C507 1.490 1_565 S
C513 C512 1.388 1_565 S
C513 C514 1.412 1_554 S
C514 H502 0.950 . S
C514 C513 1.412 1_556 S
C514 C515 1.391 . S
C515 H503 0.950 . S
C515 C511 1.421 . S
C515 C514 1.391 . S
H516 C524 0.950 . S
H517 C529 0.950 . S
H518 C526 0.950 . S
H519 C528 0.950 . S
H520 C530 0.950 . S
H521 C532 0.950 . S
H522 C534 0.950 . S
H523 C535 0.950 . S
C524 H516 0.950 . S
C524 C525 1.386 . S
C524 C526 1.391 . S
C525 C524 1.386 . S
C525 C529 1.393 . S
C526 H518 0.950 . S
C526 C524 1.391 . S
C526 C527 1.400 . S
C527 C526 1.400 . S
C527 C528 1.398 . S
C527 C533 1.491 . S
C528 H519 0.950 . S
C528 C527 1.398 . S
C528 C529 1.391 . S
C529 H517 0.950 . S
C529 C525 1.393 . S
C529 C528 1.391 . S
C530 H520 0.950 . S
C530 C531 1.386 . S
C530 C532 1.391 . S
C531 C530 1.386 . S
C531 C535 1.393 . S
C532 H521 0.950 . S
C532 C530 1.391 . S
C532 C533 1.400 1_556 S
C533 C527 1.491 . S
C533 C532 1.400 1_554 S
C533 C534 1.398 . S
C534 H522 0.950 . S
C534 C533 1.398 . S
C534 C535 1.391 1_554 S
C535 H523 0.950 . S
C535 C531 1.393 . S
C535 C534 1.391 1_556 S
H536 C544 0.950 . S
H537 C549 0.950 . S
H538 C546 0.950 . S
H539 C548 0.950 . S
H540 C550 0.950 . S
H541 C552 0.950 . S
H542 C554 0.950 . S
H543 C555 0.950 . S
C544 H536 0.950 . S
C544 C545 1.386 . S
C544 C546 1.391 . S
C545 C544 1.386 . S
C545 C549 1.393 . S
C546 H538 0.950 . S
C546 C544 1.391 . S
C546 C547 1.400 . S
C547 C546 1.400 . S
C547 C548 1.398 . S
C547 C553 1.491 . S
C548 H539 0.950 . S
C548 C547 1.398 . S
C548 C549 1.391 . S
C549 H537 0.950 . S
C549 C545 1.393 . S
C549 C548 1.391 . S
C550 H540 0.950 . S
C550 C551 1.386 . S
C550 C552 1.391 . S
C551 C550 1.386 . S
C551 C555 1.393 . S
C552 H541 0.950 . S
C552 C550 1.391 . S
C552 C553 1.400 1_556 S
C553 C547 1.491 . S
C553 C552 1.400 1_554 S
C553 C554 1.398 . S
C554 H542 0.950 . S
C554 C553 1.398 . S
C554 C555 1.391 1_554 S
C555 H543 0.950 . S
C555 C551 1.393 . S
C555 C554 1.391 1_556 S
H556 C564 0.950 . S
H557 C569 0.950 . S
H558 C566 0.950 . S
H559 C568 0.950 . S
H560 C570 0.950 . S
H561 C572 0.950 . S
H562 C574 0.950 . S
H563 C575 0.950 . S
C564 H556 0.950 . S
C564 C565 1.376 1_655 S
C564 C566 1.391 . S
C565 C564 1.376 1_455 S
C565 C569 1.403 . S
C566 H558 0.950 . S
C566 C564 1.391 . S
C566 C567 1.406 . S
C567 C566 1.406 . S
C567 C568 1.392 1_655 S
C567 C573 1.491 . S
C568 H559 0.950 . S
C568 C567 1.392 1_455 S
C568 C569 1.391 . S
C569 H557 0.950 . S
C569 C565 1.403 . S
C569 C568 1.391 . S
C570 H560 0.950 . S
C570 C571 1.386 1_455 S
C570 C572 1.391 1_556 S
C571 C570 1.386 1_655 S
C571 C575 1.393 . S
C572 H561 0.950 . S
C572 C570 1.391 1_554 S
C572 C573 1.400 1_455 S
C573 C567 1.491 . S
C573 C572 1.400 1_655 S
C573 C574 1.398 1_554 S
C574 H562 0.950 . S
C574 C573 1.398 1_556 S
C574 C575 1.391 . S
C575 H563 0.950 . S
C575 C571 1.393 . S
C575 C574 1.391 . S
H576 C584 0.950 . S
H577 C589 0.950 . S
H578 C586 0.950 . S
H579 C588 0.950 . S
H580 C590 0.950 . S
H581 C592 0.950 . S
H582 C594 0.950 . S
H583 C595 0.950 . S
C584 H576 0.950 . S
C584 C585 1.386 1_655 S
C584 C586 1.391 . S
C585 C584 1.386 1_455 S
C585 C589 1.393 . S
C586 H578 0.950 . S
C586 C584 1.391 . S
C586 C587 1.400 . S
C587 C586 1.400 . S
C587 C588 1.398 . S
C587 C593 1.491 . S
C588 H579 0.950 . S
C588 C587 1.398 . S
C588 C589 1.391 1_655 S
C589 H577 0.950 . S
C589 C585 1.393 . S
C589 C588 1.391 1_455 S
C590 H580 0.950 . S
C590 C591 1.386 . S
C590 C592 1.391 . S
C591 C590 1.386 . S
C591 C595 1.393 . S
C592 H581 0.950 . S
C592 C590 1.391 . S
C592 C593 1.400 . S
C593 C587 1.491 . S
C593 C592 1.400 . S
C593 C594 1.398 . S
C594 H582 0.950 . S
C594 C593 1.398 . S
C594 C595 1.391 . S
C595 H583 0.950 . S
C595 C591 1.393 . S
C595 C594 1.391 . S
H596 C604 0.950 . S
H597 C609 0.950 . S
H598 C606 0.950 . S
H599 C608 0.950 . S
H600 C610 0.950 . S
H601 C612 0.950 1_545 S
H602 C614 0.950 . S
H603 C615 0.950 . S
C604 H596 0.950 . S
C604 C605 1.386 1_565 S
C604 C606 1.391 . S
C605 C604 1.386 1_545 S
C605 C609 1.393 . S
C606 H598 0.950 . S
C606 C604 1.391 . S
C606 C607 1.400 . S
C607 C606 1.400 . S
C607 C608 1.398 1_565 S
C607 C613 1.491 . S
C608 H599 0.950 . S
C608 C607 1.398 1_545 S
C608 C609 1.391 . S
C609 H597 0.950 . S
C609 C605 1.393 . S
C609 C608 1.391 . S
C610 H600 0.950 . S
C610 C611 1.386 . S
C610 C612 1.391 . S
C611 C610 1.386 . S
C611 C615 1.393 . S
C612 H601 0.950 1_565 S
C612 C610 1.391 . S
C612 C613 1.400 . S
C613 C607 1.491 . S
C613 C612 1.400 . S
C613 C614 1.398 . S
C614 H602 0.950 . S
C614 C613 1.398 . S
C614 C615 1.391 . S
C615 H603 0.950 . S
C615 C611 1.393 . S
C615 C614 1.391 . S
H616 C624 0.950 . S
H617 C629 0.950 . S
H618 C626 0.950 . S
H619 C628 0.950 . S
H620 C630 0.950 . S
H621 C632 0.950 . S
H622 C634 0.950 . S
H623 C635 0.950 . S
C624 H616 0.950 . S
C624 C625 1.386 . S
C624 C626 1.391 . S
C625 C624 1.386 . S
C625 C629 1.393 . S
C626 H618 0.950 . S
C626 C624 1.391 . S
C626 C627 1.400 . S
C627 C626 1.400 . S
C627 C628 1.398 . S
C627 C633 1.491 . S
C628 H619 0.950 . S
C628 C627 1.398 . S
C628 C629 1.391 . S
C629 H617 0.950 . S
C629 C625 1.393 . S
C629 C628 1.391 . S
C630 H620 0.950 . S
C630 C631 1.386 . S
C630 C632 1.391 . S
C631 C630 1.386 . S
C631 C635 1.393 . S
C632 H621 0.950 . S
C632 C630 1.391 . S
C632 C633 1.400 . S
C633 C627 1.491 . S
C633 C632 1.400 . S
C633 C634 1.398 . S
C634 H622 0.950 . S
C634 C633 1.398 . S
C634 C635 1.391 . S
C635 H623 0.950 . S
C635 C631 1.393 . S
C635 C634 1.391 . S
H636 C644 0.950 . S
H637 C649 0.950 . S
H638 C646 0.950 . S
H639 C648 0.950 . S
H640 C650 0.950 . S
H641 C652 0.950 . S
H642 C654 0.950 . S
H643 C655 0.950 . S
C644 H636 0.950 . S
C644 C645 1.386 . S
C644 C646 1.391 . S
C645 C644 1.386 . S
C645 C649 1.393 . S
C646 H638 0.950 . S
C646 C644 1.391 . S
C646 C647 1.400 . S
C647 C646 1.400 . S
C647 C648 1.398 . S
C647 C653 1.491 . S
C648 H639 0.950 . S
C648 C647 1.398 . S
C648 C649 1.391 . S
C649 H637 0.950 . S
C649 C645 1.393 . S
C649 C648 1.391 . S
C650 H640 0.950 . S
C650 C651 1.386 . S
C650 C652 1.391 . S
C651 C650 1.386 . S
C651 C655 1.393 . S
C652 H641 0.950 . S
C652 C650 1.391 . S
C652 C653 1.400 . S
C653 C647 1.491 . S
C653 C652 1.400 . S
C653 C654 1.398 . S
C654 H642 0.950 . S
C654 C653 1.398 . S
C654 C655 1.391 . S
C655 H643 0.950 . S
C655 C651 1.393 . S
C655 C654 1.391 . S
H656 C664 0.950 . S
H657 C669 0.950 . S
H658 C666 0.950 . S
H659 C668 0.950 . S
H660 C670 0.950 . S
H661 C672 0.950 . S
H662 C674 0.950 . S
H663 C675 0.950 . S
C664 H656 0.950 . S
C664 C665 1.386 1_455 S
C664 C666 1.391 . S
C665 C664 1.386 1_655 S
C665 C669 1.393 . S
C666 H658 0.950 . S
C666 C664 1.391 . S
C666 C667 1.400 . S
C667 C666 1.400 . S
C667 C668 1.398 1_455 S
C667 C673 1.491 . S
C668 H659 0.950 . S
C668 C667 1.398 1_655 S
C668 C669 1.391 . S
C669 H657 0.950 . S
C669 C665 1.393 . S
C669 C668 1.391 . S
C670 H660 0.950 . S
C670 C671 1.386 1_554 S
C670 C672 1.391 . S
C671 C670 1.386 1_556 S
C671 C675 1.393 . S
C672 H661 0.950 . S
C672 C670 1.391 . S
C672 C673 1.400 . S
C673 C667 1.491 . S
C673 C672 1.400 . S
C673 C674 1.398 1_554 S
C674 H662 0.950 . S
C674 C673 1.398 1_556 S
C674 C675 1.391 . S
C675 H663 0.950 . S
C675 C671 1.393 . S
C675 C674 1.391 . S
H676 C684 0.950 . S
H677 C689 0.950 . S
H678 C686 0.950 . S
H679 C688 0.950 . S
H680 C690 0.950 . S
H681 C692 0.951 1_565 S
H682 C694 0.950 . S
H683 C695 0.950 . S
C684 H676 0.950 . S
C684 C685 1.386 1_545 S
C684 C686 1.391 . S
C685 C684 1.386 1_565 S
C685 C689 1.393 . S
C686 H678 0.950 . S
C686 C684 1.391 . S
C686 C687 1.400 . S
C687 C686 1.400 . S
C687 C688 1.398 1_545 S
C687 C693 1.491 . S
C688 H679 0.950 . S
C688 C687 1.398 1_565 S
C688 C689 1.391 . S
C689 H677 0.950 . S
C689 C685 1.393 . S
C689 C688 1.391 . S
C690 H680 0.950 . S
C690 C691 1.386 . S
C690 C692 1.394 . S
C691 C690 1.386 . S
C691 C695 1.393 1_556 S
C692 H681 0.951 1_545 S
C692 C690 1.394 . S
C692 C693 1.396 1_556 S
C693 C687 1.491 . S
C693 C692 1.396 1_554 S
C693 C694 1.398 . S
C694 H682 0.950 . S
C694 C693 1.398 . S
C694 C695 1.391 . S
C695 H683 0.950 . S
C695 C691 1.393 1_554 S
C695 C694 1.391 . S
H696 C704 0.950 . S
H697 C709 0.950 . S
H698 C706 0.950 . S
H699 C708 0.950 . S
H700 C710 0.950 . S
H701 C712 0.950 . S
H702 C714 0.950 . S
H703 C715 0.950 . S
C704 H696 0.950 . S
C704 C705 1.386 . S
C704 C706 1.391 . S
C705 C704 1.386 . S
C705 C709 1.393 . S
C706 H698 0.950 . S
C706 C704 1.391 . S
C706 C707 1.400 . S
C707 C706 1.400 . S
C707 C708 1.398 . S
C707 C713 1.491 . S
C708 H699 0.950 . S
C708 C707 1.398 . S
C708 C709 1.391 . S
C709 H697 0.950 . S
C709 C705 1.393 . S
C709 C708 1.391 . S
C710 H700 0.950 . S
C710 C711 1.386 1_554 S
C710 C712 1.391 . S
C711 C710 1.386 1_556 S
C711 C715 1.393 . S
C712 H701 0.950 . S
C712 C710 1.391 . S
C712 C713 1.400 . S
C713 C707 1.491 . S
C713 C712 1.400 . S
C713 C714 1.398 1_554 S
C714 H702 0.950 . S
C714 C713 1.398 1_556 S
C714 C715 1.391 . S
C715 H703 0.950 . S
C715 C711 1.393 . S
C715 C714 1.391 . S
H716 C724 0.950 . S
H717 C729 0.950 . S
H718 C726 0.950 . S
H719 C728 0.950 . S
H720 C730 0.950 . S
H721 C732 0.950 . S
H722 C734 0.950 . S
H723 C735 0.950 . S
C724 H716 0.950 . S
C724 C725 1.386 . S
C724 C726 1.391 . S
C725 C724 1.386 . S
C725 C729 1.393 . S
C726 H718 0.950 . S
C726 C724 1.391 . S
C726 C727 1.400 . S
C727 C726 1.400 . S
C727 C728 1.398 . S
C727 C733 1.491 . S
C728 H719 0.950 . S
C728 C727 1.398 . S
C728 C729 1.391 . S
C729 H717 0.950 . S
C729 C725 1.393 . S
C729 C728 1.391 . S
C730 H720 0.950 . S
C730 C731 1.386 . S
C730 C732 1.391 . S
C731 C730 1.386 . S
C731 C735 1.393 1_556 S
C732 H721 0.950 . S
C732 C730 1.391 . S
C732 C733 1.400 1_556 S
C733 C727 1.491 . S
C733 C732 1.400 1_554 S
C733 C734 1.398 . S
C734 H722 0.950 . S
C734 C733 1.398 . S
C734 C735 1.391 . S
C735 H723 0.950 . S
C735 C731 1.393 1_554 S
C735 C734 1.391 . S
H736 C744 0.950 . S
H737 C749 0.950 . S
H738 C746 0.950 . S
H739 C748 0.950 . S
H740 C750 0.950 . S
H741 C752 0.950 . S
H742 C754 0.950 . S
H743 C755 0.950 . S
C744 H736 0.950 . S
C744 C745 1.386 . S
C744 C746 1.391 . S
C745 C744 1.386 . S
C745 C749 1.393 1_455 S
C746 H738 0.950 . S
C746 C744 1.391 . S
C746 C747 1.400 . S
C747 C746 1.400 . S
C747 C748 1.398 1_455 S
C747 C753 1.491 . S
C748 H739 0.950 . S
C748 C747 1.398 1_655 S
C748 C749 1.391 . S
C749 H737 0.950 . S
C749 C745 1.393 1_655 S
C749 C748 1.391 . S
C750 H740 0.950 . S
C750 C751 1.386 1_655 S
C750 C752 1.391 . S
C751 C750 1.386 1_455 S
C751 C755 1.393 . S
C752 H741 0.950 . S
C752 C750 1.391 . S
C752 C753 1.400 1_655 S
C753 C747 1.491 . S
C753 C752 1.400 1_455 S
C753 C754 1.398 . S
C754 H742 0.950 . S
C754 C753 1.398 . S
C754 C755 1.391 . S
C755 H743 0.950 . S
C755 C751 1.393 . S
C755 C754 1.391 . S
H756 C764 0.950 . S
H757 C769 0.950 . S
H758 C766 0.950 . S
H759 C768 0.950 . S
H760 C770 0.950 . S
H761 C772 0.950 . S
H762 C774 0.950 . S
H763 C775 0.950 . S
C764 H756 0.950 . S
C764 C765 1.386 1_565 S
C764 C766 1.391 . S
C765 C764 1.386 1_545 S
C765 C769 1.393 . S
C766 H758 0.950 . S
C766 C764 1.391 . S
C766 C767 1.400 1_565 S
C767 C766 1.400 1_545 S
C767 C768 1.398 . S
C767 C773 1.491 . S
C768 H759 0.950 . S
C768 C767 1.398 . S
C768 C769 1.391 . S
C769 H757 0.950 . S
C769 C765 1.393 . S
C769 C768 1.391 . S
C770 H760 0.950 . S
C770 C771 1.386 . S
C770 C772 1.391 . S
C771 C770 1.386 . S
C771 C775 1.393 1_545 S
C772 H761 0.950 . S
C772 C770 1.391 . S
C772 C773 1.400 . S
C773 C767 1.491 . S
C773 C772 1.400 . S
C773 C774 1.398 1_545 S
C774 H762 0.950 . S
C774 C773 1.398 1_565 S
C774 C775 1.391 . S
C775 H763 0.950 . S
C775 C771 1.393 1_565 S
C775 C774 1.391 . S
H776 C784 0.950 . S
H777 C789 0.950 . S
H778 C786 0.950 . S
H779 C788 0.950 . S
H780 C790 0.950 . S
H781 C792 0.950 . S
H782 C794 0.950 . S
H783 C795 0.950 . S
C784 H776 0.950 . S
C784 C785 1.386 . S
C784 C786 1.391 . S
C785 C784 1.386 . S
C785 C789 1.393 . S
C786 H778 0.950 . S
C786 C784 1.391 . S
C786 C787 1.400 . S
C787 C786 1.400 . S
C787 C788 1.398 . S
C787 C793 1.491 . S
C788 H779 0.950 . S
C788 C787 1.398 . S
C788 C789 1.391 . S
C789 H777 0.950 . S
C789 C785 1.393 . S
C789 C788 1.391 . S
C790 H780 0.950 . S
C790 C791 1.386 . S
C790 C792 1.391 . S
C791 C790 1.386 . S
C791 C795 1.393 . S
C792 H781 0.950 . S
C792 C790 1.391 . S
C792 C793 1.400 . S
C793 C787 1.491 . S
C793 C792 1.400 . S
C793 C794 1.398 . S
C794 H782 0.950 . S
C794 C793 1.398 . S
C794 C795 1.391 . S
C795 H783 0.950 . S
C795 C791 1.393 . S
C795 C794 1.391 . S
H796 C804 0.950 . S
H797 C809 0.950 . S
H798 C806 0.950 . S
H799 C808 0.950 . S
H800 C810 0.950 . S
H801 C812 0.950 . S
H802 C814 0.950 . S
H803 C815 0.950 . S
C804 H796 0.950 . S
C804 C805 1.386 . S
C804 C806 1.391 . S
C805 C804 1.386 . S
C805 C809 1.393 . S
C806 H798 0.950 . S
C806 C804 1.391 . S
C806 C807 1.400 . S
C807 C806 1.400 . S
C807 C808 1.398 . S
C807 C813 1.491 . S
C808 H799 0.950 . S
C808 C807 1.398 . S
C808 C809 1.391 . S
C809 H797 0.950 . S
C809 C805 1.393 . S
C809 C808 1.391 . S
C810 H800 0.950 . S
C810 C811 1.386 . S
C810 C812 1.391 . S
C811 C810 1.386 . S
C811 C815 1.393 . S
C812 H801 0.950 . S
C812 C810 1.391 . S
C812 C813 1.400 . S
C813 C807 1.491 . S
C813 C812 1.400 . S
C813 C814 1.398 . S
C814 H802 0.950 . S
C814 C813 1.398 . S
C814 C815 1.391 . S
C815 H803 0.950 . S
C815 C811 1.393 . S
C815 C814 1.391 . S
H816 C824 0.950 . S
H817 C829 0.950 . S
H818 C826 0.950 . S
H819 C828 0.950 . S
H820 C830 0.950 . S
H821 C832 0.950 . S
H822 C834 0.950 . S
H823 C835 0.951 . S
C824 H816 0.950 . S
C824 C825 1.386 1_455 S
C824 C826 1.391 . S
C825 C824 1.386 1_655 S
C825 C829 1.393 . S
C826 H818 0.950 . S
C826 C824 1.391 . S
C826 C827 1.400 1_455 S
C827 C826 1.400 1_655 S
C827 C828 1.398 . S
C827 C833 1.491 . S
C828 H819 0.950 . S
C828 C827 1.398 . S
C828 C829 1.391 . S
C829 H817 0.950 . S
C829 C825 1.393 . S
C829 C828 1.391 . S
C830 H820 0.950 . S
C830 C831 1.386 . S
C830 C832 1.391 . S
C831 C830 1.386 . S
C831 C835 1.391 1_655 S
C832 H821 0.950 . S
C832 C830 1.391 . S
C832 C833 1.400 . S
C833 C827 1.491 . S
C833 C832 1.400 . S
C833 C834 1.398 1_655 S
C834 H822 0.950 . S
C834 C833 1.398 1_455 S
C834 C835 1.391 . S
C835 H823 0.951 . S
C835 C831 1.391 1_455 S
C835 C834 1.391 . S
H836 C844 0.947 1_545 S
H837 C849 0.950 . S
H838 C846 0.950 . S
H839 C848 0.950 . S
H840 C850 0.950 . S
H841 C852 0.950 . S
H842 C854 0.954 . S
H843 C855 0.950 . S
C844 H836 0.947 1_565 S
C844 C845 1.386 . S
C844 C846 1.391 . S
C845 C844 1.386 . S
C845 C849 1.393 . S
C846 H838 0.950 . S
C846 C844 1.391 . S
C846 C847 1.400 . S
C847 C846 1.400 . S
C847 C848 1.398 . S
C847 C853 1.491 . S
C848 H839 0.950 . S
C848 C847 1.398 . S
C848 C849 1.391 . S
C849 H837 0.950 . S
C849 C845 1.393 . S
C849 C848 1.391 . S
C850 H840 0.950 . S
C850 C851 1.386 . S
C850 C852 1.391 . S
C851 C850 1.386 . S
C851 C855 1.393 . S
C852 H841 0.950 . S
C852 C850 1.391 . S
C852 C853 1.400 . S
C853 C847 1.491 . S
C853 C852 1.400 . S
C853 C854 1.398 . S
C854 H842 0.954 . S
C854 C853 1.398 . S
C854 C855 1.391 . S
C855 H843 0.950 . S
C855 C851 1.393 . S
C855 C854 1.391 . S
H856 C864 0.950 . S
H857 C869 0.950 . S
H858 C866 0.950 . S
H859 C868 0.950 . S
H860 C870 0.950 . S
H861 C872 0.950 . S
H862 C874 0.950 . S
H863 C875 0.950 . S
C864 H856 0.950 . S
C864 C865 1.386 . S
C864 C866 1.391 . S
C865 C864 1.386 . S
C865 C869 1.393 . S
C866 H858 0.950 . S
C866 C864 1.391 . S
C866 C867 1.400 . S
C867 C866 1.400 . S
C867 C868 1.398 . S
C867 C873 1.491 . S
C868 H859 0.950 . S
C868 C867 1.398 . S
C868 C869 1.391 . S
C869 H857 0.950 . S
C869 C865 1.393 . S
C869 C868 1.391 . S
C870 H860 0.950 . S
C870 C871 1.386 . S
C870 C872 1.391 . S
C871 C870 1.386 . S
C871 C875 1.393 . S
C872 H861 0.950 . S
C872 C870 1.391 . S
C872 C873 1.400 . S
C873 C867 1.491 . S
C873 C872 1.400 . S
C873 C874 1.398 . S
C874 H862 0.950 . S
C874 C873 1.398 . S
C874 C875 1.391 . S
C875 H863 0.950 . S
C875 C871 1.393 . S
C875 C874 1.391 . S
H876 C884 0.950 . S
H877 C889 0.950 . S
H878 C886 0.950 . S
H879 C888 0.950 . S
H880 C890 0.950 . S
H881 C892 0.950 . S
H882 C894 0.950 . S
H883 C895 0.950 . S
C884 H876 0.950 . S
C884 C885 1.386 . S
C884 C886 1.391 . S
C885 C884 1.386 . S
C885 C889 1.393 . S
C886 H878 0.950 . S
C886 C884 1.391 . S
C886 C887 1.400 . S
C887 C886 1.400 . S
C887 C888 1.398 . S
C887 C893 1.491 . S
C888 H879 0.950 . S
C888 C887 1.398 . S
C888 C889 1.391 . S
C889 H877 0.950 . S
C889 C885 1.393 . S
C889 C888 1.391 . S
C890 H880 0.950 . S
C890 C891 1.386 . S
C890 C892 1.391 . S
C891 C890 1.386 . S
C891 C895 1.393 . S
C892 H881 0.950 . S
C892 C890 1.391 . S
C892 C893 1.400 . S
C893 C887 1.491 . S
C893 C892 1.400 . S
C893 C894 1.398 . S
C894 H882 0.950 . S
C894 C893 1.398 . S
C894 C895 1.391 . S
C895 H883 0.950 . S
C895 C891 1.393 . S
C895 C894 1.391 . S
C425 C215 2.023 . S
C431 C258 2.176 . S
C451 C298 2.188 . S
C445 C247 2.002 . S
C471 C338 2.197 . S
C465 C151 2.025 . S
C491 C378 2.182 1_455 S
C485 C183 2.019 . S
C511 C271 2.178 1_565 S
C505 C87 2.010 . S
C525 C119 2.028 . S
C531 C311 2.191 . S
C545 C23 2.039 . S
C551 C351 2.191 . S
C565 C55 2.010 . S
C571 C391 2.185 1_655 S
C591 C282 0.374 . S
C585 C189 0.364 . S
C611 C322 0.404 . S
C605 C221 0.367 . S
C631 C362 0.374 . S
C625 C253 0.404 . S
C645 C157 0.351 . S
C651 C402 0.404 . S
C665 C61 0.562 1_655 S
C671 C265 0.423 . S
C691 C305 0.383 . S
C685 C93 0.501 1_565 S
C711 C345 0.430 . S
C705 C125 0.548 . S
C725 C29 0.460 . S
C731 C385 0.369 . S
C745 C177 2.480 . S
C751 C259 2.801 . S
C765 C209 2.475 . S
C771 C299 2.783 . S
C791 C339 2.765 . S
C785 C241 2.430 . S
C811 C379 2.797 . S
C805 C145 2.473 . S
C825 C49 2.504 1_655 S
C831 C278 2.816 . S
C851 C318 2.778 . S
C845 C81 2.490 1_565 S
C871 C358 2.763 . S
C865 C113 2.471 . S
C885 C17 2.499 . S
C891 C398 2.803 . S
