# Generated by pormake.
# Topology ctn, (3,4)-cn, num edge types: 1
# Building blocks:
#     Node 0, Type 0, BuildingBlock: QEWDON_clean_linker_0, # of connection points: 3
#     Node 1, Type 0, BuildingBlock: QEWDON_clean_linker_0, # of connection points: 3
#     Node 2, Type 0, BuildingBlock: QEWDON_clean_linker_0, # of connection points: 3
#     Node 3, Type 0, BuildingBlock: QEWDON_clean_linker_0, # of connection points: 3
#     Node 4, Type 0, BuildingBlock: QEWDON_clean_linker_0, # of connection points: 3
#     Node 5, Type 0, BuildingBlock: QEWDON_clean_linker_0, # of connection points: 3
#     Node 6, Type 0, BuildingBlock: QEWDON_clean_linker_0, # of connection points: 3
#     Node 7, Type 0, BuildingBlock: QEWDON_clean_linker_0, # of connection points: 3
#     Node 8, Type 0, BuildingBlock: QEWDON_clean_linker_0, # of connection points: 3
#     Node 9, Type 0, BuildingBlock: QEWDON_clean_linker_0, # of connection points: 3
#     Node 10, Type 0, BuildingBlock: QEWDON_clean_linker_0, # of connection points: 3
#     Node 11, Type 0, BuildingBlock: QEWDON_clean_linker_0, # of connection points: 3
#     Node 12, Type 0, BuildingBlock: QEWDON_clean_linker_0, # of connection points: 3
#     Node 13, Type 0, BuildingBlock: QEWDON_clean_linker_0, # of connection points: 3
#     Node 14, Type 0, BuildingBlock: QEWDON_clean_linker_0, # of connection points: 3
#     Node 15, Type 0, BuildingBlock: QEWDON_clean_linker_0, # of connection points: 3
#     Node 16, Type 1, BuildingBlock: NAHDIM_clean_sbu_0, # of connection points: 4
#     Node 17, Type 1, BuildingBlock: NAHDIM_clean_sbu_0, # of connection points: 4
#     Node 18, Type 1, BuildingBlock: NAHDIM_clean_sbu_0, # of connection points: 4
#     Node 19, Type 1, BuildingBlock: NAHDIM_clean_sbu_0, # of connection points: 4
#     Node 20, Type 1, BuildingBlock: NAHDIM_clean_sbu_0, # of connection points: 4
#     Node 21, Type 1, BuildingBlock: NAHDIM_clean_sbu_0, # of connection points: 4
#     Node 22, Type 1, BuildingBlock: NAHDIM_clean_sbu_0, # of connection points: 4
#     Node 23, Type 1, BuildingBlock: NAHDIM_clean_sbu_0, # of connection points: 4
#     Node 24, Type 1, BuildingBlock: NAHDIM_clean_sbu_0, # of connection points: 4
#     Node 25, Type 1, BuildingBlock: NAHDIM_clean_sbu_0, # of connection points: 4
#     Node 26, Type 1, BuildingBlock: NAHDIM_clean_sbu_0, # of connection points: 4
#     Node 27, Type 1, BuildingBlock: NAHDIM_clean_sbu_0, # of connection points: 4
#     Edge 28, Type (0, 1), BuildingBlock: KIFKEQ_clean_linker_1, # of connection points: 2
#     Edge 29, Type (0, 1), BuildingBlock: KIFKEQ_clean_linker_1, # of connection points: 2
#     Edge 30, Type (0, 1), BuildingBlock: KIFKEQ_clean_linker_1, # of connection points: 2
#     Edge 31, Type (0, 1), BuildingBlock: KIFKEQ_clean_linker_1, # of connection points: 2
#     Edge 32, Type (0, 1), BuildingBlock: KIFKEQ_clean_linker_1, # of connection points: 2
#     Edge 33, Type (0, 1), BuildingBlock: KIFKEQ_clean_linker_1, # of connection points: 2
#     Edge 34, Type (0, 1), BuildingBlock: KIFKEQ_clean_linker_1, # of connection points: 2
#     Edge 35, Type (0, 1), BuildingBlock: KIFKEQ_clean_linker_1, # of connection points: 2
#     Edge 36, Type (0, 1), BuildingBlock: KIFKEQ_clean_linker_1, # of connection points: 2
#     Edge 37, Type (0, 1), BuildingBlock: KIFKEQ_clean_linker_1, # of connection points: 2
#     Edge 38, Type (0, 1), BuildingBlock: KIFKEQ_clean_linker_1, # of connection points: 2
#     Edge 39, Type (0, 1), BuildingBlock: KIFKEQ_clean_linker_1, # of connection points: 2
#     Edge 40, Type (0, 1), BuildingBlock: KIFKEQ_clean_linker_1, # of connection points: 2
#     Edge 41, Type (0, 1), BuildingBlock: KIFKEQ_clean_linker_1, # of connection points: 2
#     Edge 42, Type (0, 1), BuildingBlock: KIFKEQ_clean_linker_1, # of connection points: 2
#     Edge 43, Type (0, 1), BuildingBlock: KIFKEQ_clean_linker_1, # of connection points: 2
#     Edge 44, Type (0, 1), BuildingBlock: KIFKEQ_clean_linker_1, # of connection points: 2
#     Edge 45, Type (0, 1), BuildingBlock: KIFKEQ_clean_linker_1, # of connection points: 2
#     Edge 46, Type (0, 1), BuildingBlock: KIFKEQ_clean_linker_1, # of connection points: 2
#     Edge 47, Type (0, 1), BuildingBlock: KIFKEQ_clean_linker_1, # of connection points: 2
#     Edge 48, Type (0, 1), BuildingBlock: KIFKEQ_clean_linker_1, # of connection points: 2
#     Edge 49, Type (0, 1), BuildingBlock: KIFKEQ_clean_linker_1, # of connection points: 2
#     Edge 50, Type (0, 1), BuildingBlock: KIFKEQ_clean_linker_1, # of connection points: 2
#     Edge 51, Type (0, 1), BuildingBlock: KIFKEQ_clean_linker_1, # of connection points: 2
#     Edge 52, Type (0, 1), BuildingBlock: KIFKEQ_clean_linker_1, # of connection points: 2
#     Edge 53, Type (0, 1), BuildingBlock: KIFKEQ_clean_linker_1, # of connection points: 2
#     Edge 54, Type (0, 1), BuildingBlock: KIFKEQ_clean_linker_1, # of connection points: 2
#     Edge 55, Type (0, 1), BuildingBlock: KIFKEQ_clean_linker_1, # of connection points: 2
#     Edge 56, Type (0, 1), BuildingBlock: KIFKEQ_clean_linker_1, # of connection points: 2
#     Edge 57, Type (0, 1), BuildingBlock: KIFKEQ_clean_linker_1, # of connection points: 2
#     Edge 58, Type (0, 1), BuildingBlock: KIFKEQ_clean_linker_1, # of connection points: 2
#     Edge 59, Type (0, 1), BuildingBlock: KIFKEQ_clean_linker_1, # of connection points: 2
#     Edge 60, Type (0, 1), BuildingBlock: KIFKEQ_clean_linker_1, # of connection points: 2
#     Edge 61, Type (0, 1), BuildingBlock: KIFKEQ_clean_linker_1, # of connection points: 2
#     Edge 62, Type (0, 1), BuildingBlock: KIFKEQ_clean_linker_1, # of connection points: 2
#     Edge 63, Type (0, 1), BuildingBlock: KIFKEQ_clean_linker_1, # of connection points: 2
#     Edge 64, Type (0, 1), BuildingBlock: KIFKEQ_clean_linker_1, # of connection points: 2
#     Edge 65, Type (0, 1), BuildingBlock: KIFKEQ_clean_linker_1, # of connection points: 2
#     Edge 66, Type (0, 1), BuildingBlock: KIFKEQ_clean_linker_1, # of connection points: 2
#     Edge 67, Type (0, 1), BuildingBlock: KIFKEQ_clean_linker_1, # of connection points: 2
#     Edge 68, Type (0, 1), BuildingBlock: KIFKEQ_clean_linker_1, # of connection points: 2
#     Edge 69, Type (0, 1), BuildingBlock: KIFKEQ_clean_linker_1, # of connection points: 2
#     Edge 70, Type (0, 1), BuildingBlock: KIFKEQ_clean_linker_1, # of connection points: 2
#     Edge 71, Type (0, 1), BuildingBlock: KIFKEQ_clean_linker_1, # of connection points: 2
#     Edge 72, Type (0, 1), BuildingBlock: KIFKEQ_clean_linker_1, # of connection points: 2
#     Edge 73, Type (0, 1), BuildingBlock: KIFKEQ_clean_linker_1, # of connection points: 2
#     Edge 74, Type (0, 1), BuildingBlock: KIFKEQ_clean_linker_1, # of connection points: 2
#     Edge 75, Type (0, 1), BuildingBlock: KIFKEQ_clean_linker_1, # of connection points: 2
# Relax obj value: 0.115
# Max RMSD: 0.275
# Mean RMSD: 0.157
data_MOF--net-ctn--node1-NAHDIM_clean_sbu_0--node2-QEWDON_clean_linker_0--edge1-KIFKEQ_clean_linker_1
_symmetry_space_group_name_H-M    P1
_symmetry_Int_Tables_number       1
_symmetry_cell_setting            triclinic
loop_
_symmetry_equiv_pos_as_xyz
'x, y, z'
_cell_length_a     53.438898
_cell_length_b     56.032282
_cell_length_c     59.218138
_cell_angle_alpha  99.4082
_cell_angle_beta   92.030255
_cell_angle_gamma 97.717199
loop_
_atom_site_label
_atom_site_type_symbol
_atom_site_fract_x
_atom_site_fract_y
_atom_site_fract_z
_atom_type_partial_charge
H0 H 0.10997 0.04396 0.06062 0.0
C1 C 0.09712 0.04088 0.07395 0.0
C2 C 0.09469 0.01856 0.08226 0.0
C3 C 0.08457 0.06002 0.08398 0.0
H4 H 0.07655 0.9983 0.10677 0.0
C5 C 0.07882 0.01548 0.1004 0.0
C6 C 0.06578 0.03444 0.11036 0.0
C7 C 0.06892 0.05666 0.10203 0.0
C8 C 0.09029 0.08457 0.07772 0.0
H9 H 0.05986 0.07179 0.11013 0.0
C10 C 0.08326 0.08909 0.05582 0.0
C11 C 0.08892 0.11274 0.05038 0.0
C12 C 0.10299 0.10374 0.09406 0.0
H13 H 0.10854 0.10058 0.11098 0.0
C14 C 0.10886 0.12706 0.08867 0.0
H15 H 0.07336 0.07433 0.0432 0.0
C16 C 0.1019 0.13158 0.06702 0.0
H17 H 0.10622 0.15 0.06345 0.0
H18 H 0.11869 0.14173 0.10137 0.0
H19 H 0.34783 0.7553 0.25404 0.0
C20 C 0.33441 0.73865 0.25046 0.0
C21 C 0.3397 0.71757 0.25867 0.0
C22 C 0.31145 0.73871 0.23826 0.0
H23 H 0.32499 0.68051 0.26158 0.0
C24 C 0.32163 0.69641 0.25431 0.0
C25 C 0.2984 0.69625 0.24226 0.0
C26 C 0.29364 0.71749 0.23402 0.0
C27 C 0.30436 0.76201 0.23342 0.0
H28 H 0.27568 0.71788 0.22508 0.0
C29 C 0.30505 0.76807 0.21127 0.0
C30 C 0.2981 0.79054 0.20724 0.0
C31 C 0.29658 0.77831 0.25148 0.0
H32 H 0.29592 0.77386 0.26861 0.0
C33 C 0.28929 0.80028 0.24757 0.0
H34 H 0.31142 0.75555 0.19745 0.0
C35 C 0.28994 0.80636 0.22567 0.0
H36 H 0.28374 0.82341 0.22316 0.0
H37 H 0.28303 0.81264 0.26155 0.0
H38 H 0.03584 0.47077 0.04652 0.0
C39 C 0.02016 0.48085 0.04457 0.0
C40 C 0.00974 0.49272 0.06408 0.0
C41 C 0.01147 0.48307 0.02252 0.0
H42 H 0.98165 0.51559 0.07609 0.0
C43 C 0.98996 0.50652 0.0612 0.0
C44 C 0.9804 0.50795 0.03906 0.0
C45 C 0.99152 0.4964 0.01991 0.0
C46 C 0.02398 0.47263 1.00208 0.0
H47 H 0.98478 0.498 1.0028 0.0
C48 C 0.02525 0.44742 0.99697 0.0
C49 C 0.03583 0.43756 0.97667 0.0
C50 C 0.03396 0.48801 0.98712 0.0
H51 H 0.03322 0.50748 0.99082 0.0
C52 C 0.04508 0.47842 0.96735 0.0
H53 H 0.01708 0.43546 0.00826 0.0
C54 C 0.04594 0.45337 0.96207 0.0
H55 H 0.05457 0.44635 0.94653 0.0
H56 H 0.05286 0.49041 0.95597 0.0
H57 H 0.78747 0.80661 0.24852 0.0
C58 C 0.78569 0.79755 0.23079 0.0
C59 C 0.79399 0.81044 0.2133 0.0
C60 C 0.77665 0.77247 0.22568 0.0
H61 H 0.79885 0.8076 0.17695 0.0
C62 C 0.79242 0.7979 0.19053 0.0
C63 C 0.78367 0.77272 0.18525 0.0
C64 C 0.77569 0.7602 0.20301 0.0
C65 C 0.77096 0.75832 0.24424 0.0
H66 H 0.76904 0.74073 0.19931 0.0
C67 C 0.74795 0.7585 0.25501 0.0
C68 C 0.74235 0.74395 0.27202 0.0
C69 C 0.78851 0.74378 0.2506 0.0
H70 H 0.80626 0.74338 0.24235 0.0
C71 C 0.78323 0.72958 0.26756 0.0
H72 H 0.73446 0.76979 0.25003 0.0
C73 C 0.76033 0.72956 0.27815 0.0
H74 H 0.75649 0.71784 0.29083 0.0
H75 H 0.79682 0.71833 0.27233 0.0
H76 H 0.11336 0.95403 0.47979 0.0
C77 C 0.09944 0.95956 0.46869 0.0
C78 C 0.10414 0.98238 0.46138 0.0
C79 C 0.07781 0.94291 0.46012 0.0
H80 H 0.08944 0.0062 0.44055 0.0
C81 C 0.08635 0.98857 0.44605 0.0
C82 C 0.06483 0.97205 0.43718 0.0
C83 C 0.06056 0.94933 0.44446 0.0
C84 C 0.07535 0.9174 0.46432 0.0
H85 H 0.04449 0.93608 0.43706 0.0
C86 C 0.07155 0.9115 0.48632 0.0
C87 C 0.06946 0.88692 0.48963 0.0
C88 C 0.07705 0.89868 0.44578 0.0
H89 H 0.08003 0.90287 0.42877 0.0
C90 C 0.07521 0.87446 0.44903 0.0
H91 H 0.07014 0.92588 0.50068 0.0
C92 C 0.07145 0.86858 0.47074 0.0
H93 H 0.06959 0.84953 0.47267 0.0
H94 H 0.07657 0.86016 0.43462 0.0
H95 H 0.27921 0.69163 0.78228 0.0
C96 C 0.27353 0.7007 0.7985 0.0
C97 C 0.28024 0.69283 0.81896 0.0
C98 C 0.26019 0.72068 0.79871 0.0
H99 H 0.27882 0.69986 0.85584 0.0
C100 C 0.27344 0.70545 0.8399 0.0
C101 C 0.26036 0.72574 0.84044 0.0
C102 C 0.2535 0.73299 0.8197 0.0
C103 C 0.25506 0.72969 0.77706 0.0
H104 H 0.24359 0.74869 0.81992 0.0
C105 C 0.23045 0.7331 0.77016 0.0
C106 C 0.22582 0.74083 0.74907 0.0
C107 C 0.27506 0.73463 0.76299 0.0
H108 H 0.29417 0.73235 0.76804 0.0
C109 C 0.27069 0.74282 0.74242 0.0
H110 H 0.2149 0.72891 0.78078 0.0
C111 C 0.2463 0.74588 0.73545 0.0
H112 H 0.2435 0.75235 0.71942 0.0
H113 H 0.28627 0.74676 0.73178 0.0
H114 H 0.97448 0.58631 0.46438 0.0
C115 C 0.96356 0.57088 0.47009 0.0
C116 C 0.95832 0.57214 0.49334 0.0
C117 C 0.95311 0.55054 0.45385 0.0
H118 H 0.93939 0.55312 0.51817 0.0
C119 C 0.94313 0.55239 0.50022 0.0
C120 C 0.93258 0.53183 0.48415 0.0
C121 C 0.93772 0.53113 0.46094 0.0
C122 C 0.95481 0.55116 0.42912 0.0
H123 H 0.92884 0.51599 0.44815 0.0
C124 C 0.97656 0.54602 0.41757 0.0
C125 C 0.9772 0.5459 0.39372 0.0
C126 C 0.93391 0.55652 0.41689 0.0
H127 H 0.91704 0.56049 0.42555 0.0
C128 C 0.93462 0.55689 0.39347 0.0
H129 H 0.99255 0.54153 0.427 0.0
C130 C 0.95604 0.55163 0.38194 0.0
H131 H 0.95609 0.55226 0.36376 0.0
H132 H 0.91847 0.56122 0.38418 0.0
H133 H 0.84664 0.81756 0.7952 0.0
C134 C 0.84204 0.80355 0.80561 0.0
C135 C 0.85283 0.78173 0.80152 0.0
C136 C 0.82697 0.80826 0.82432 0.0
H137 H 0.85586 0.74757 0.8132 0.0
C138 C 0.84757 0.76434 0.8161 0.0
C139 C 0.83256 0.76885 0.83497 0.0
C140 C 0.82228 0.79087 0.83881 0.0
C141 C 0.8195 0.83278 0.83121 0.0
H142 H 0.81095 0.79482 0.85343 0.0
C143 C 0.8004 0.84128 0.81887 0.0
C144 C 0.79251 0.86397 0.82727 0.0
C145 C 0.83111 0.84742 0.85135 0.0
H146 H 0.84583 0.8412 0.86101 0.0
C147 C 0.8238 0.87009 0.85928 0.0
H148 H 0.79111 0.82995 0.80348 0.0
C149 C 0.80454 0.87826 0.84746 0.0
H150 H 0.79895 0.89583 0.85412 0.0
H151 H 0.83288 0.88125 0.87482 0.0
H152 H 0.3375 0.31963 0.29976 0.0
C153 C 0.33316 0.3056 0.3102 0.0
C154 C 0.3438 0.28372 0.30578 0.0
C155 C 0.31843 0.31034 0.32915 0.0
H156 H 0.34606 0.24905 0.3167 0.0
C157 C 0.33865 0.26625 0.3203 0.0
C158 C 0.32397 0.27073 0.33941 0.0
C159 C 0.314 0.29291 0.34364 0.0
C160 C 0.31008 0.33463 0.33547 0.0
H161 H 0.30334 0.29705 0.35868 0.0
C162 C 0.29453 0.34404 0.32032 0.0
C163 C 0.28702 0.36729 0.32684 0.0
C164 C 0.31802 0.34862 0.35704 0.0
H165 H 0.33005 0.34179 0.36889 0.0
C166 C 0.3108 0.37164 0.36344 0.0
H167 H 0.28827 0.33331 0.30367 0.0
C168 C 0.29544 0.38094 0.34851 0.0
H169 H 0.28974 0.3987 0.35411 0.0
H170 H 0.31705 0.38228 0.38011 0.0
H171 H 0.54236 0.97804 0.54191 0.0
C172 C 0.52599 0.98738 0.54066 0.0
C173 C 0.51528 0.9978 0.56068 0.0
C174 C 0.51614 0.98949 0.51895 0.0
H175 H 0.4856 0.01816 0.57378 0.0
C176 C 0.49396 0.00986 0.55857 0.0
C177 C 0.48356 0.01147 0.53678 0.0
C178 C 0.49492 1.00137 0.51715 0.0
C179 C 0.52883 0.98071 0.49804 0.0
H180 H 0.48746 1.00311 0.50031 0.0
C181 C 0.53205 0.95599 0.49215 0.0
C182 C 0.54332 0.94775 0.47169 0.0
C183 C 0.53725 0.99722 0.48355 0.0
H184 H 0.53497 0.01633 0.48782 0.0
C185 C 0.54877 0.98926 0.46349 0.0
H186 H 0.52548 0.94323 0.50331 0.0
C187 C 0.55173 0.96472 0.45752 0.0
H188 H 0.56008 0.95895 0.44149 0.0
H189 H 0.55517 1.0021 0.45239 0.0
H190 H 0.28517 0.31042 0.7501 0.0
C191 C 0.28316 0.30109 0.73246 0.0
C192 C 0.29074 0.31374 0.7146 0.0
C193 C 0.27439 0.27597 0.72787 0.0
H194 H 0.29483 0.31021 0.67808 0.0
C195 C 0.28894 0.30076 0.69198 0.0
C196 C 0.28061 0.27547 0.68723 0.0
C197 C 0.27317 0.26327 0.70535 0.0
C198 C 0.26919 0.26235 0.74686 0.0
H199 H 0.2668 0.24375 0.70206 0.0
C200 C 0.24563 0.26121 0.75677 0.0
C201 C 0.24077 0.24765 0.77461 0.0
C202 C 0.28794 0.25001 0.75482 0.0
H203 H 0.30615 0.25067 0.74727 0.0
C204 C 0.28332 0.23669 0.77253 0.0
H205 H 0.23123 0.27086 0.75059 0.0
C206 C 0.25993 0.23545 0.78236 0.0
H207 H 0.2567 0.22454 0.79576 0.0
H208 H 0.29785 0.22713 0.77856 0.0
H209 H 0.84767 0.24457 0.75086 0.0
C210 C 0.83374 0.22831 0.74678 0.0
C211 C 0.83818 0.2068 0.75458 0.0
C212 C 0.81118 0.2293 0.73426 0.0
H213 H 0.82261 0.16971 0.75629 0.0
C214 C 0.81983 0.18597 0.74936 0.0
C215 C 0.79704 0.18657 0.73692 0.0
C216 C 0.79304 0.2083 0.72913 0.0
C217 C 0.80547 0.25315 0.7292 0.0
H218 H 0.77539 0.20919 0.71992 0.0
C219 C 0.79807 0.25624 0.70687 0.0
C220 C 0.79268 0.2792 0.70273 0.0
C221 C 0.80733 0.27311 0.74724 0.0
H222 H 0.81279 0.27114 0.76457 0.0
C223 C 0.80188 0.29572 0.74323 0.0
H224 H 0.79662 0.24095 0.69285 0.0
C225 C 0.79463 0.29879 0.72118 0.0
H226 H 0.79096 0.3167 0.71849 0.0
H227 H 0.80338 0.31097 0.75726 0.0
H228 H 0.60214 0.54417 0.55733 0.0
C229 C 0.58936 0.54026 0.57049 0.0
C230 C 0.58726 0.51742 0.57785 0.0
C231 C 0.5765 0.55882 0.58128 0.0
H232 H 0.56952 0.49574 0.60153 0.0
C233 C 0.57129 0.5132 0.59569 0.0
C234 C 0.55828 0.53169 0.60659 0.0
C235 C 0.56107 0.55442 0.59924 0.0
C236 C 0.58129 0.5838 0.57587 0.0
H237 H 0.55136 0.56893 0.60764 0.0
C238 C 0.57252 0.58926 0.55484 0.0
C239 C 0.57545 0.61367 0.55107 0.0
C240 C 0.59369 0.60268 0.59268 0.0
H241 H 0.60053 0.5988 0.60896 0.0
C242 C 0.59725 0.6267 0.58872 0.0
H243 H 0.56256 0.57479 0.54197 0.0
C244 C 0.58809 0.63222 0.56814 0.0
H245 H 0.59087 0.65108 0.56555 0.0
H246 H 0.60689 0.64114 0.60176 0.0
H247 H 0.61374 0.45883 0.98345 0.0
C248 C 0.59874 0.4636 0.97296 0.0
C249 C 0.60185 0.48606 0.96493 0.0
C250 C 0.5772 0.44632 0.96605 0.0
H251 H 0.58507 0.50821 0.94373 0.0
C252 C 0.58268 0.49112 0.95022 0.0
C253 C 0.56108 0.47389 0.9429 0.0
C254 C 0.55846 0.45157 0.95117 0.0
C255 C 0.57639 0.42123 0.97097 0.0
H256 H 0.54217 0.43786 0.94556 0.0
C257 C 0.57004 0.41531 0.99248 0.0
C258 C 0.56989 0.39117 0.9966 0.0
C259 C 0.58239 0.40299 0.95366 0.0
H260 H 0.5873 0.40727 0.93703 0.0
C261 C 0.58233 0.37918 0.95769 0.0
H262 H 0.56537 0.42938 0.00587 0.0
C263 C 0.57617 0.37327 0.97897 0.0
H264 H 0.57587 0.35453 0.98151 0.0
H265 H 0.587 0.36522 0.94424 0.0
H266 H 0.77667 0.18509 0.27897 0.0
C267 C 0.77303 0.19693 0.29454 0.0
C268 C 0.78337 0.19355 0.31572 0.0
C269 C 0.7586 0.21582 0.29303 0.0
H270 H 0.7879 0.2076 0.35194 0.0
C271 C 0.77933 0.20969 0.33566 0.0
C272 C 0.76471 0.22874 0.3346 0.0
C273 C 0.75404 0.23128 0.31314 0.0
C274 C 0.74994 0.22017 0.27014 0.0
H275 H 0.74273 0.24573 0.31189 0.0
C276 C 0.7246 0.22294 0.26514 0.0
C277 C 0.71659 0.22549 0.24282 0.0
C278 C 0.76727 0.22092 0.25286 0.0
H279 H 0.78693 0.2192 0.25634 0.0
C280 C 0.75949 0.22398 0.23094 0.0
H281 H 0.71101 0.22212 0.27825 0.0
C282 C 0.73431 0.22609 0.22587 0.0
H283 H 0.72867 0.22831 0.20867 0.0
H284 H 0.77301 0.22455 0.21778 0.0
H285 H 0.47998 0.09672 0.97083 0.0
C286 C 0.47 0.08022 0.97544 0.0
C287 C 0.46497 0.07924 0.99847 0.0
C288 C 0.46095 0.06052 0.95802 0.0
H289 H 0.44647 0.05713 0.02134 0.0
C290 C 0.45074 0.05802 1.00374 0.0
C291 C 0.44101 0.03833 0.98637 0.0
C292 C 0.44652 0.03967 0.96352 0.0
C293 C 0.46333 0.06323 0.93379 0.0
H294 H 0.43896 0.02483 0.94987 0.0
C295 C 0.48265 0.05402 0.92093 0.0
C296 C 0.48434 0.05676 0.89772 0.0
C297 C 0.44582 0.07525 0.92348 0.0
H298 H 0.43087 0.08245 0.93319 0.0
C299 C 0.44741 0.07803 0.9006 0.0
H300 H 0.4961 0.04464 0.9289 0.0
C301 C 0.46649 0.0689 0.88779 0.0
H302 H 0.4675 0.07169 0.87016 0.0
H303 H 0.43386 0.08739 0.89278 0.0
C304 C 0.21259 0.89858 0.02206 0.0
O305 O 0.20701 0.88257 1.00313 0.0
O306 O 0.25041 0.85237 0.99614 0.0
Zn307 Zn 0.26067 0.87767 0.02492 0.0
O308 O 0.29205 0.89901 0.01783 0.0
C309 C 0.28471 0.84873 0.05516 0.0
O310 O 0.29919 0.84312 0.03818 0.0
O311 O 0.23361 0.89936 0.03314 0.0
C312 C 0.30548 0.91489 0.03278 0.0
O313 O 0.29918 0.91757 0.0542 0.0
C314 C 0.24796 0.82929 0.99504 0.0
O315 O 0.25034 0.8202 0.01395 0.0
O316 O 0.2679 0.86237 0.05282 0.0
C317 C 0.15863 0.4564 0.26172 0.0
O318 O 0.13625 0.45425 0.27027 0.0
O319 O 0.11994 0.50454 0.27455 0.0
Zn320 Zn 0.14429 0.50159 0.2489 0.0
O321 O 0.16919 0.53262 0.251 0.0
C322 C 0.10281 0.48404 0.21346 0.0
O323 O 0.09282 0.47136 0.22854 0.0
O324 O 0.16522 0.47425 0.25138 0.0
C325 C 0.16408 0.55046 0.24171 0.0
O326 O 0.14165 0.54916 0.23138 0.0
C327 C 0.12137 0.52304 0.29044 0.0
O328 O 0.13968 0.54129 0.29081 0.0
O329 O 0.12441 0.4969 0.21825 0.0
C330 C 0.8459 0.60282 0.98998 0.0
O331 O 0.83505 0.59575 0.96926 0.0
O332 O 0.81721 0.65676 0.96864 0.0
Zn333 Zn 0.80894 0.63706 0.99425 0.0
O334 O 0.77788 0.61148 0.98553 0.0
C335 C 0.80631 0.68273 0.02674 0.0
O336 O 0.81695 0.6943 0.01119 0.0
O337 O 0.83829 0.62033 1.00315 0.0
C338 C 0.76416 0.60521 1.00132 0.0
O339 O 0.77075 0.61517 0.02272 0.0
C340 C 0.80418 0.653 0.94963 0.0
O341 O 0.78506 0.6352 0.9459 0.0
O342 O 0.80156 0.65954 0.02274 0.0
C343 C 0.8973 0.06214 0.30397 0.0
O344 O 0.90763 0.05573 0.32212 0.0
O345 O 0.94247 0.01979 0.30653 0.0
Zn346 Zn 0.92065 0.02212 0.2785 0.0
O347 O 0.89605 0.99084 0.27142 0.0
C348 C 0.96557 0.03241 0.25212 0.0
O349 O 0.97727 0.04056 0.27235 0.0
O350 O 0.90072 0.05073 0.28415 0.0
C351 C 0.88701 0.98248 0.25109 0.0
O352 O 0.89333 0.99486 0.23463 0.0
C353 C 0.95636 1.00291 0.3048 0.0
O354 O 0.95645 0.98845 0.28496 0.0
O355 O 0.94203 0.02441 0.2509 0.0
C356 C 0.34511 0.10442 0.49286 0.0
O357 O 0.3338 0.09746 0.47232 0.0
O358 O 0.31453 0.15675 0.47178 0.0
Zn359 Zn 0.30739 0.13743 0.49782 0.0
O360 O 0.27738 0.11071 0.4891 0.0
C361 C 0.30338 0.18299 0.52975 0.0
O362 O 0.31342 0.19444 0.51386 0.0
O363 O 0.33753 0.12165 0.50642 0.0
C364 C 0.26327 0.10414 0.50451 0.0
O365 O 0.26851 0.1148 0.52593 0.0
C366 C 0.29682 0.15861 0.45747 0.0
O367 O 0.27397 0.14744 0.45946 0.0
O368 O 0.2994 0.15977 0.5262 0.0
C369 C 0.39139 0.55879 0.80483 0.0
O370 O 0.3966 0.54822 0.82233 0.0
O371 O 0.44163 0.52153 0.80888 0.0
Zn372 Zn 0.42026 0.52314 0.78015 0.0
O373 O 0.39591 0.49172 0.77263 0.0
C374 C 0.44871 0.50851 0.73985 0.0
O375 O 0.44007 0.48633 0.7431 0.0
O376 O 0.3998 0.55139 0.78547 0.0
C377 C 0.38292 0.48584 0.75365 0.0
O378 O 0.38518 0.50071 0.7386 0.0
C379 C 0.45429 0.50379 0.80841 0.0
O380 O 0.45333 0.48776 0.78945 0.0
O381 O 0.44279 0.52678 0.75336 0.0
C382 C 0.71581 0.40817 0.52095 0.0
O383 O 0.73249 0.41607 0.50711 0.0
O384 O 0.74773 0.34857 0.49597 0.0
Zn385 Zn 0.75125 0.37387 0.52527 0.0
O386 O 0.78023 0.4006 0.52313 0.0
C387 C 0.76339 0.33658 0.55219 0.0
O388 O 0.76513 0.32308 0.53213 0.0
O389 O 0.71936 0.38977 0.53011 0.0
C390 C 0.80316 0.39697 0.52177 0.0
O391 O 0.80882 0.37498 0.52246 0.0
C392 C 0.7564 0.35429 0.47752 0.0
O393 O 0.76655 0.37696 0.47743 0.0
O394 O 0.75802 0.35817 0.55305 0.0
C395 C 0.67314 0.96912 0.77266 0.0
O396 O 0.67189 0.9891 0.78743 0.0
O397 O 0.61782 0.99985 0.77401 0.0
Zn398 Zn 0.6416 0.99404 0.74814 0.0
O399 O 0.66727 0.02422 0.7479 0.0
C400 C 0.59976 0.99419 0.71571 0.0
O401 O 0.59081 0.00562 0.73418 0.0
O402 O 0.66107 0.96625 0.75326 0.0
C403 C 0.66186 0.04231 0.73914 0.0
O404 O 0.63874 0.04183 0.73062 0.0
C405 C 0.62133 0.01809 0.79026 0.0
O406 O 0.64165 0.03431 0.791 0.0
O407 O 0.62108 0.98661 0.71743 0.0
C408 C 0.03069 0.18905 0.91979 0.0
O409 O 0.01148 0.20124 0.92356 0.0
O410 O 0.00807 0.20659 0.86033 0.0
Zn411 Zn 0.03851 0.21752 0.88295 0.0
O412 O 0.0329 0.24912 0.90249 0.0
C413 C 0.07339 0.21445 0.84592 0.0
O414 O 0.05562 0.1975 0.83517 0.0
O415 O 0.04428 0.19255 0.90311 0.0
C416 C 0.04844 0.26079 0.91853 0.0
O417 O 0.06902 0.25169 0.92336 0.0
C418 C 0.98649 0.21126 0.86666 0.0
O419 O 0.98444 0.22143 0.888 0.0
O420 O 0.07005 0.22499 0.86606 0.0
C421 C 0.52711 0.69022 0.41723 0.0
O422 O 0.50585 0.69948 0.41649 0.0
O423 O 0.51085 0.71485 0.36251 0.0
Zn424 Zn 0.54208 0.72256 0.38448 0.0
O425 O 0.54126 0.75533 0.40443 0.0
C426 C 0.57526 0.71827 0.34577 0.0
O427 O 0.55514 0.70584 0.33383 0.0
O428 O 0.54466 0.69689 0.40467 0.0
C429 C 0.54581 0.77409 0.39492 0.0
O430 O 0.55045 0.77108 0.37307 0.0
C431 C 0.49065 0.7232 0.36854 0.0
O432 O 0.49016 0.73559 0.38933 0.0
O433 O 0.57381 0.72625 0.36699 0.0
C434 C 0.01237 0.79925 0.61727 0.0
O435 O 0.98843 0.78958 0.61571 0.0
O436 O 0.9896 0.77146 0.66958 0.0
Zn437 Zn 0.017 0.7638 0.64763 0.0
O438 O 1.0043 0.73316 0.62467 0.0
C439 C 0.05869 0.7715 0.68252 0.0
O440 O 0.05009 0.79222 0.68942 0.0
O441 O 0.02778 0.79167 0.6304 0.0
C442 C 0.01457 0.72877 0.60565 0.0
O443 O 0.03318 0.74467 0.60086 0.0
C444 C 0.98175 0.75533 0.68152 0.0
O445 O 0.99164 0.73488 0.67896 0.0
O446 O 0.04756 0.75686 0.66531 0.0
C447 C 0.50649 0.30327 0.12229 0.0
O448 O 0.48372 0.29071 0.11834 0.0
O449 O 0.48231 0.27689 0.17584 0.0
Zn450 Zn 0.51104 0.27042 0.15497 0.0
O451 O 0.50031 0.23995 0.13123 0.0
C452 C 0.54487 0.24525 0.17945 0.0
O453 O 0.5275 0.22629 0.1725 0.0
O454 O 0.52117 0.29843 0.13779 0.0
C455 C 0.5168 0.22988 0.11959 0.0
O456 O 0.54072 0.2394 0.1233 0.0
C457 C 0.47034 0.25899 0.18357 0.0
O458 O 0.47648 0.23707 0.1772 0.0
O459 O 0.54178 0.26584 0.1742 0.0
H460 H 0.26953 0.77522 0.85322 0.0
H461 H 0.24042 0.70931 0.87806 0.0
H462 H 0.26387 0.79937 0.89021 0.0
H463 H 0.23384 0.73352 0.91503 0.0
H464 H 0.25543 0.78145 0.98566 0.0
H465 H 0.25626 0.75615 0.94826 0.0
H466 H 0.23503 0.81474 0.91568 0.0
H467 H 0.23535 0.84039 0.95315 0.0
C468 C 0.26145 0.76594 0.86651 0.0
C469 C 0.2554 0.74037 0.86272 0.0
C470 C 0.25808 0.77981 0.88776 0.0
C471 C 0.2483 0.76851 0.90576 0.0
C472 C 0.2418 0.74289 0.90178 0.0
C473 C 0.24547 0.72899 0.88056 0.0
C474 C 0.25069 0.78885 0.97052 0.0
C475 C 0.24552 0.81302 0.9724 0.0
C476 C 0.25104 0.77427 0.949 0.0
C477 C 0.24592 0.78336 0.92877 0.0
C478 C 0.23967 0.80723 0.93077 0.0
C479 C 0.23965 0.82192 0.95229 0.0
H480 H 0.02767 0.56051 0.40639 0.0
H481 H 0.97733 0.51736 0.35169 0.0
H482 H 0.06387 0.55295 0.38346 0.0
H483 H 0.01312 0.51074 0.3285 0.0
H484 H 0.08286 0.48758 0.2966 0.0
H485 H 0.04969 0.49087 0.32368 0.0
H486 H 0.08224 0.56552 0.35003 0.0
H487 H 0.1158 0.56197 0.32344 0.0
C488 C 0.02434 0.54925 0.38958 0.0
C489 C 0.99957 0.53977 0.3808 0.0
C490 C 0.04506 0.54513 0.37631 0.0
C491 C 0.04147 0.53137 0.35401 0.0
C492 C 0.01673 0.52122 0.34563 0.0
C493 C 0.99611 0.5253 0.35885 0.0
C494 C 0.08305 0.50464 0.30829 0.0
C495 C 0.10192 0.52456 0.30771 0.0
C496 C 0.06394 0.50657 0.32377 0.0
C497 C 0.06311 0.52853 0.339 0.0
C498 C 0.08239 0.54823 0.3388 0.0
C499 C 0.10157 0.54625 0.3234 0.0
H500 H 0.83443 0.77934 0.88189 0.0
H501 H 0.8228 0.71868 0.82555 0.0
H502 H 0.82818 0.75104 0.90898 0.0
H503 H 0.81745 0.69022 0.85276 0.0
H504 H 0.78016 0.6495 0.90739 0.0
H505 H 0.78756 0.67697 0.87964 0.0
H506 H 0.84815 0.72049 0.92457 0.0
H507 H 0.84043 0.69323 0.95257 0.0
C508 C 0.83045 0.75995 0.87525 0.0
C509 C 0.82892 0.75134 0.85148 0.0
C510 C 0.82721 0.74367 0.89084 0.0
C511 C 0.82235 0.71829 0.88312 0.0
C512 C 0.82092 0.70965 0.85934 0.0
C513 C 0.82422 0.72595 0.84373 0.0
C514 C 0.79514 0.66487 0.91135 0.0
C515 C 0.80964 0.66916 0.93229 0.0
C516 C 0.79948 0.68056 0.89534 0.0
C517 C 0.81842 0.70102 0.89983 0.0
C518 C 0.83316 0.70512 0.92065 0.0
C519 C 0.82885 0.68938 0.93666 0.0
H520 H 0.07967 0.9888 0.3985 0.0
H521 H 0.013 0.96763 0.43368 0.0
H522 H 0.05313 0.99706 0.36709 0.0
H523 H 0.9863 0.97604 0.40209 0.0
H524 H 0.9524 0.0207 0.35033 0.0
H525 H 0.97809 0.01363 0.38309 0.0
H526 H 0.02147 0.96996 0.3369 0.0
H527 H 0.99578 0.97672 0.30429 0.0
C528 C 0.05932 0.98615 0.3996 0.0
C529 C 0.04838 0.97767 0.41857 0.0
C530 C 0.04415 0.99071 0.38155 0.0
C531 C 0.01768 0.98716 0.38216 0.0
C532 C 0.00667 0.97906 0.40128 0.0
C533 C 0.02189 0.97412 0.41924 0.0
C534 C 0.96745 0.00964 0.3472 0.0
C535 C 0.97209 0.99929 0.32472 0.0
C536 C 0.98202 0.00548 0.36594 0.0
C537 C 1.00176 0.99128 0.3625 0.0
C538 C 0.00649 0.98112 0.34003 0.0
C539 C 0.99171 0.98493 0.32137 0.0
H540 H 0.29703 0.23131 0.67497 0.0
H541 H 0.26688 0.2883 0.64617 0.0
H542 H 0.30065 0.20923 0.63659 0.0
H543 H 0.27069 0.26616 0.60758 0.0
H544 H 0.31143 0.23259 0.5443 0.0
H545 H 0.30414 0.25485 0.58197 0.0
H546 H 0.27475 0.18685 0.60318 0.0
H547 H 0.28237 0.16459 0.56579 0.0
C548 C 0.29077 0.23895 0.66045 0.0
C549 C 0.28155 0.26154 0.66368 0.0
C550 C 0.2929 0.22629 0.63841 0.0
C551 C 0.28592 0.2359 0.619 0.0
C552 C 0.27651 0.25841 0.62218 0.0
C553 C 0.27431 0.27107 0.64428 0.0
C554 C 0.30329 0.22241 0.55697 0.0
C555 C 0.29768 0.19679 0.55208 0.0
C556 C 0.29898 0.23518 0.57851 0.0
C557 C 0.289 0.22261 0.59562 0.0
C558 C 0.28284 0.19705 0.59051 0.0
C559 C 0.28711 0.1843 0.56901 0.0
H560 H 0.55834 0.56222 0.64756 0.0
H561 H 0.52301 0.49244 0.61029 0.0
H562 H 0.53234 0.55658 0.67974 0.0
H563 H 0.49642 0.48694 0.64227 0.0
H564 H 0.46999 0.47382 0.71207 0.0
H565 H 0.4968 0.47917 0.68041 0.0
H566 H 0.49044 0.55625 0.69155 0.0
H567 H 0.46432 0.55099 0.7238 0.0
C568 C 0.5448 0.54575 0.64618 0.0
C569 C 0.54264 0.52782 0.62633 0.0
C570 C 0.5298 0.54253 0.66462 0.0
C571 C 0.51208 0.52136 0.66366 0.0
C572 C 0.51007 0.50333 0.64382 0.0
C573 C 0.52526 0.50648 0.62543 0.0
C574 C 0.47433 0.49194 0.7078 0.0
C575 C 0.46501 0.51199 0.72052 0.0
C576 C 0.4896 0.49498 0.68949 0.0
C577 C 0.49583 0.51814 0.68327 0.0
C578 C 0.48643 0.5382 0.69601 0.0
C579 C 0.4713 0.53518 0.71446 0.0
H580 H 0.75435 0.30258 0.68989 0.0
H581 H 0.81558 0.26581 0.66279 0.0
H582 H 0.7464 0.31476 0.65295 0.0
H583 H 0.80788 0.2783 0.62572 0.0
H584 H 0.77365 0.29084 0.55671 0.0
H585 H 0.77897 0.27444 0.59208 0.0
H586 H 0.76752 0.34368 0.63155 0.0
H587 H 0.7617 0.35985 0.59634 0.0
C588 C 0.76604 0.297 0.67595 0.0
C589 C 0.78575 0.28344 0.67931 0.0
C590 C 0.76158 0.30409 0.6548 0.0
C591 C 0.77678 0.29791 0.63644 0.0
C592 C 0.79573 0.2833 0.63944 0.0
C593 C 0.80014 0.2761 0.66066 0.0
C594 C 0.77224 0.30255 0.57294 0.0
C595 C 0.76715 0.32665 0.57365 0.0
C596 C 0.77541 0.29317 0.59323 0.0
C597 C 0.7735 0.30765 0.6147 0.0
C598 C 0.76862 0.33181 0.61534 0.0
C599 C 0.76546 0.34117 0.59511 0.0
H600 H 0.56559 1.00493 0.5741 0.0
H601 H 0.49152 0.98803 0.59922 0.0
H602 H 0.58506 1.0023 0.61121 0.0
H603 H 0.51105 0.98524 0.63647 0.0
H604 H 0.55512 0.01042 0.70661 0.0
H605 H 0.53434 0.0105 0.66942 0.0
H606 H 0.59253 0.97362 0.63607 0.0
H607 H 0.61372 0.97407 0.67338 0.0
C608 C 0.55344 1.00039 0.58749 0.0
C609 C 0.52697 0.99658 0.58362 0.0
C610 C 0.56464 0.99882 0.6088 0.0
C611 C 0.54968 0.99339 0.62686 0.0
C612 C 0.52317 0.98971 0.62304 0.0
C613 C 0.51195 0.99132 0.60169 0.0
C614 C 0.56345 1.00217 0.69138 0.0
C615 C 0.58619 0.99234 0.69302 0.0
C616 C 0.55141 1.0021 0.67 0.0
C617 C 0.56177 0.99217 0.64967 0.0
C618 C 0.58421 0.98179 0.65134 0.0
C619 C 0.59628 0.98187 0.67275 0.0
H620 H 0.85804 0.24194 0.79054 0.0
H621 H 0.86923 0.17139 0.75368 0.0
H622 H 0.89394 0.24149 0.81683 0.0
H623 H 0.90498 0.17066 0.78052 0.0
H624 H 0.98433 0.19384 0.82033 0.0
H625 H 0.94878 0.19187 0.79255 0.0
H626 H 0.90338 0.21876 0.8474 0.0
H627 H 0.93874 0.22096 0.87501 0.0
C628 C 0.86832 0.22642 0.78791 0.0
C629 C 0.86083 0.20674 0.76994 0.0
C630 C 0.88871 0.22601 0.80318 0.0
C631 C 0.90219 0.20594 0.80089 0.0
C632 C 0.89504 0.18642 0.78268 0.0
C633 C 0.87448 0.18677 0.76743 0.0
C634 C 0.96668 0.19911 0.82646 0.0
C635 C 0.96446 0.20773 0.84989 0.0
C636 C 0.9463 0.19793 0.81055 0.0
C637 C 0.92336 0.20545 0.81774 0.0
C638 C 0.92095 0.21329 0.84124 0.0
C639 C 0.94121 0.2144 0.8571 0.0
H640 H 0.50803 0.90802 0.47408 0.0
H641 H 0.58323 0.92795 0.45245 0.0
H642 H 0.50958 0.86534 0.45756 0.0
H643 H 0.58462 0.88544 0.43577 0.0
H644 H 0.56117 0.8173 0.38082 0.0
H645 H 0.56167 0.85842 0.40191 0.0
H646 H 0.53182 0.82878 0.45993 0.0
H647 H 0.5312 0.78731 0.43869 0.0
C648 C 0.52507 0.90324 0.46621 0.0
C649 C 0.54539 0.92144 0.46433 0.0
C650 C 0.52593 0.8788 0.45672 0.0
C651 C 0.54708 0.87211 0.4451 0.0
C652 C 0.56785 0.89012 0.44421 0.0
C653 C 0.56704 0.91447 0.45375 0.0
C654 C 0.55474 0.81946 0.39809 0.0
C655 C 0.54616 0.79901 0.40807 0.0
C656 C 0.55521 0.84306 0.41024 0.0
C657 C 0.54696 0.84684 0.43264 0.0
C658 C 0.53822 0.82641 0.44266 0.0
C659 C 0.53795 0.8027 0.43053 0.0
H660 H 0.19366 0.24096 0.75263 0.0
H661 H 0.2312 0.2495 0.81987 0.0
H662 H 0.15266 0.23497 0.76941 0.0
H663 H 0.19041 0.24254 0.83647 0.0
H664 H 0.11293 0.24991 0.86277 0.0
H665 H 0.15251 0.26019 0.84508 0.0
H666 H 0.12772 0.20394 0.7866 0.0
H667 H 0.08784 0.19402 0.80405 0.0
C668 C 0.19317 0.24177 0.77101 0.0
C669 C 0.21572 0.2456 0.78489 0.0
C670 C 0.16968 0.23804 0.78059 0.0
C671 C 0.16821 0.23812 0.80428 0.0
C672 C 0.19077 0.24257 0.8182 0.0
C673 C 0.2142 0.24629 0.80864 0.0
C674 C 0.11586 0.23978 0.84609 0.0
C675 C 0.09723 0.22105 0.83488 0.0
C676 C 0.13863 0.24562 0.83599 0.0
C677 C 0.14339 0.23284 0.81444 0.0
C678 C 0.12458 0.21436 0.80307 0.0
C679 C 0.10177 0.20855 0.81316 0.0
H680 H 0.54578 0.64886 0.54816 0.0
H681 H 0.58126 0.59394 0.5063 0.0
H682 H 0.53191 0.66353 0.51397 0.0
H683 H 0.56712 0.60854 0.47173 0.0
H684 H 0.56942 0.66896 0.42433 0.0
H685 H 0.57833 0.64656 0.45506 0.0
H686 H 0.50371 0.65253 0.47908 0.0
H687 H 0.49485 0.67514 0.44857 0.0
C688 C 0.55037 0.63976 0.53156 0.0
C689 C 0.56476 0.62039 0.52988 0.0
C690 C 0.54224 0.64802 0.51194 0.0
C691 C 0.54844 0.63724 0.4901 0.0
C692 C 0.56221 0.61734 0.48833 0.0
C693 C 0.57014 0.60886 0.50805 0.0
C694 C 0.55479 0.66524 0.43598 0.0
C695 C 0.53153 0.67414 0.43414 0.0
C696 C 0.55985 0.65224 0.45351 0.0
C697 C 0.54181 0.64793 0.46964 0.0
C698 C 0.51814 0.65586 0.46713 0.0
C699 C 0.51304 0.66876 0.44958 0.0
H700 H 0.89726 0.76278 0.80404 0.0
H701 H 0.85046 0.7926 0.75784 0.0
H702 H 0.92754 0.7567 0.77472 0.0
H703 H 0.88108 0.78664 0.72839 0.0
H704 H 0.95632 0.79505 0.69112 0.0
H705 H 0.92473 0.80161 0.71959 0.0
H706 H 0.9309 0.73108 0.73801 0.0
H707 H 0.96253 0.72468 0.70998 0.0
C708 C 0.89321 0.76774 0.78751 0.0
C709 C 0.87118 0.77791 0.78327 0.0
C710 C 0.91067 0.76431 0.77067 0.0
C711 C 0.90671 0.77102 0.74911 0.0
C712 C 0.88484 0.78146 0.74488 0.0
C713 C 0.86727 0.78485 0.76176 0.0
C714 C 0.9509 0.78095 0.70124 0.0
C715 C 0.96209 0.75939 0.69832 0.0
C716 C 0.93268 0.78465 0.71747 0.0
C717 C 0.92535 0.76693 0.73119 0.0
C718 C 0.93636 0.74529 0.72802 0.0
C719 C 0.95445 0.74157 0.71181 0.0
H720 H 0.03363 0.90108 0.51902 0.0
H721 H 0.09318 0.85596 0.51108 0.0
H722 H 0.02093 0.88398 0.5531 0.0
H723 H 0.0803 0.83854 0.54464 0.0
H724 H 0.06124 0.81978 0.61335 0.0
H725 H 0.07681 0.84552 0.5859 0.0
H726 H 1.00022 0.84396 0.55922 0.0
H727 H 0.98462 0.81858 0.58687 0.0
C728 C 0.04431 0.88789 0.52483 0.0
C729 C 0.06428 0.87973 0.51229 0.0
C730 C 0.03688 0.87789 0.54419 0.0
C731 C 0.04944 0.85971 0.55152 0.0
C732 C 0.0703 0.85262 0.53966 0.0
C733 C 0.07758 0.86247 0.52029 0.0
C734 C 0.04768 0.82518 0.60184 0.0
C735 C 0.02167 0.8169 0.60221 0.0
C736 C 0.05663 0.83987 0.58602 0.0
C737 C 0.0398 0.84671 0.57023 0.0
C738 C 0.01371 0.83928 0.57127 0.0
C739 C 1.00477 0.82455 0.58704 0.0
H740 H 0.2041 0.72652 0.70573 0.0
H741 H 0.18864 0.76069 0.77361 0.0
H742 H 0.16301 0.73314 0.69111 0.0
H743 H 0.14682 0.76652 0.75909 0.0
H744 H 0.08949 0.80026 0.7173 0.0
H745 H 0.12854 0.79141 0.73465 0.0
H746 H 0.11848 0.72027 0.69168 0.0
H747 H 0.07983 0.72934 0.67396 0.0
C748 C 0.19185 0.73537 0.71758 0.0
C749 C 0.1998 0.74331 0.7408 0.0
C750 C 0.16811 0.7389 0.70924 0.0
C751 C 0.15154 0.75039 0.7239 0.0
C752 C 0.15922 0.75786 0.74727 0.0
C753 C 0.18306 0.75429 0.75565 0.0
C754 C 0.09554 0.78268 0.71163 0.0
C755 C 0.08162 0.76561 0.69408 0.0
C756 C 0.11787 0.77753 0.72171 0.0
C757 C 0.12678 0.75517 0.7145 0.0
C758 C 0.11244 0.73785 0.69739 0.0
C759 C 0.09018 0.74301 0.68728 0.0
H760 H 1.00532 0.59961 0.4991 0.0
H761 H 0.93083 0.59604 0.52535 0.0
H762 H 0.01917 0.63707 0.52649 0.0
H763 H 0.94432 0.63367 0.55227 0.0
H764 H 0.98239 0.68868 0.61272 0.0
H765 H 0.96966 0.65057 0.58613 0.0
H766 H 0.01457 0.67912 0.53466 0.0
H767 H 0.02798 0.71683 0.56156 0.0
C768 C 0.99189 0.60692 0.51065 0.0
C769 C 0.96705 0.59478 0.51017 0.0
C770 C 0.99976 0.62845 0.5263 0.0
C771 C 0.98289 0.63849 0.54169 0.0
C772 C 0.95802 0.6263 0.54107 0.0
C773 C 0.95024 0.6047 0.52558 0.0
C774 C 0.98953 0.68682 0.59572 0.0
C775 C 0.00621 0.70581 0.58929 0.0
C776 C 0.98213 0.66498 0.58039 0.0
C777 C 0.99105 0.66166 0.55815 0.0
C778 C 0.00764 0.68077 0.55173 0.0
C779 C 0.0152 0.70252 0.56712 0.0
H780 H 0.78041 0.84758 0.24489 0.0
H781 H 0.83545 0.83214 0.19471 0.0
H782 H 0.80122 0.88992 0.25431 0.0
H783 H 0.85561 0.87433 0.2037 0.0
H784 H 0.87011 0.95676 0.20888 0.0
H785 H 0.84593 0.91594 0.19986 0.0
H786 H 0.84334 0.91262 0.27209 0.0
H787 H 0.86751 0.95357 0.28121 0.0
C788 C 0.79689 0.85316 0.23587 0.0
C789 C 0.80606 0.83643 0.21887 0.0
C790 C 0.80876 0.87741 0.24124 0.0
C791 C 0.82991 0.88547 0.2296 0.0
C792 C 0.83904 0.86879 0.21264 0.0
C793 C 0.82738 0.84458 0.20743 0.0
C794 C 0.86424 0.94744 0.22287 0.0
C795 C 0.87089 0.95837 0.24576 0.0
C796 C 0.85049 0.92401 0.21769 0.0
C797 C 0.84288 0.91104 0.23527 0.0
C798 C 0.8488 0.92225 0.25819 0.0
C799 C 0.86277 0.94564 0.26339 0.0
H800 H 0.82858 0.19557 0.34013 0.0
H801 H 0.77406 0.14651 0.29279 0.0
H802 H 0.85617 0.16391 0.33823 0.0
H803 H 0.80162 0.11505 0.29078 0.0
H804 H 0.86995 0.0772 0.27036 0.0
H805 H 0.84232 0.10867 0.27467 0.0
H806 H 0.85974 0.12299 0.34782 0.0
H807 H 0.88767 0.09161 0.34351 0.0
C808 C 0.82229 0.17793 0.32961 0.0
C809 C 0.79919 0.17367 0.31646 0.0
C810 C 0.83814 0.1598 0.32847 0.0
C811 C 0.83125 0.13705 0.31412 0.0
C812 C 0.80777 0.13255 0.30161 0.0
C813 C 0.79194 0.15058 0.30279 0.0
C814 C 0.86798 0.08707 0.28737 0.0
C815 C 0.88102 0.0818 0.30659 0.0
C816 C 0.85198 0.10502 0.28987 0.0
C817 C 0.84866 0.11824 0.31162 0.0
C818 C 0.86199 0.11325 0.33081 0.0
C819 C 0.87792 0.09518 0.32834 0.0
H820 H 0.3968 0.01595 0.96298 0.0
H821 H 0.44467 0.01401 0.02279 0.0
H822 H 0.36573 0.98462 0.97389 0.0
H823 H 0.41346 0.98258 0.03376 0.0
H824 H 0.33708 0.95181 0.05994 0.0
H825 H 0.37122 0.97971 0.04813 0.0
H826 H 0.35757 0.94205 0.97817 0.0
H827 H 0.32312 0.91444 0.98989 0.0
C828 C 0.40095 0.00848 0.97822 0.0
C829 C 0.42326 0.01753 0.992 0.0
C830 C 0.38308 0.99051 0.98451 0.0
C831 C 0.38702 0.98112 0.00477 0.0
C832 C 0.40963 0.9897 0.01825 0.0
C833 C 0.42754 0.00768 0.01194 0.0
C834 C 0.34144 0.94938 0.04206 0.0
C835 C 0.32723 0.93097 0.02586 0.0
C836 C 0.36115 0.9653 0.0353 0.0
C837 C 0.36713 0.96319 0.01217 0.0
C838 C 0.35325 0.94442 0.99606 0.0
C839 C 0.33356 0.92851 1.00282 0.0
H840 H 0.29236 0.41317 0.31624 0.0
H841 H 0.24247 0.34455 0.30392 0.0
H842 H 0.26133 0.43207 0.29683 0.0
H843 H 0.21137 0.36338 0.28397 0.0
H844 H 0.15146 0.41755 0.28466 0.0
H845 H 0.18308 0.39362 0.29615 0.0
H846 H 0.23925 0.43367 0.26064 0.0
H847 H 0.20773 0.45789 0.24942 0.0
C848 C 0.27488 0.40202 0.30902 0.0
C849 C 0.26978 0.37743 0.31177 0.0
C850 C 0.25714 0.41281 0.29772 0.0
C851 C 0.23374 0.3993 0.28893 0.0
C852 C 0.22908 0.37437 0.29078 0.0
C853 C 0.24698 0.36351 0.30198 0.0
C854 C 0.17046 0.42107 0.27904 0.0
C855 C 0.17707 0.43986 0.26631 0.0
C856 C 0.18859 0.40721 0.28552 0.0
C857 C 0.21379 0.41181 0.27947 0.0
C858 C 0.22011 0.42988 0.26589 0.0
C859 C 0.20198 0.4437 0.25936 0.0
H860 H 0.13104 0.9928 0.50323 0.0
H861 H 0.13263 0.00941 0.43452 0.0
H862 H 0.17062 0.02037 0.51374 0.0
H863 H 0.1709 0.03802 0.44535 0.0
H864 H 0.25145 0.07244 0.46406 0.0
H865 H 0.21442 0.04144 0.45423 0.0
H866 H 0.18703 0.06248 0.5214 0.0
H867 H 0.22457 0.09268 0.53148 0.0
C868 C 0.13976 1.00234 0.49039 0.0
C869 C 0.12839 0.99904 0.46811 0.0
C870 C 0.16232 0.01839 0.49648 0.0
C871 C 0.17403 0.03159 0.48045 0.0
C872 C 0.16275 0.02802 0.45813 0.0
C873 C 0.14042 0.01187 0.45201 0.0
C874 C 0.23755 0.07036 0.47674 0.0
C875 C 0.24093 0.08508 0.49851 0.0
C876 C 0.21621 0.05265 0.47108 0.0
C877 C 0.19753 0.04945 0.48696 0.0
C878 C 0.20111 0.06408 0.50883 0.0
C879 C 0.2226 0.08158 0.51457 0.0
H880 H 0.74649 0.18693 0.74269 0.0
H881 H 0.80149 0.13795 0.72568 0.0
H882 H 0.71382 0.15204 0.74229 0.0
H883 H 0.76875 0.10299 0.72523 0.0
H884 H 0.71157 0.0493 0.75494 0.0
H885 H 0.74379 0.08391 0.7527 0.0
H886 H 0.68899 0.11741 0.71789 0.0
H887 H 0.65666 0.08306 0.72051 0.0
C888 C 0.75151 0.1687 0.73839 0.0
C889 C 0.77663 0.16525 0.73423 0.0
C890 C 0.73277 0.14867 0.73823 0.0
C891 C 0.73867 0.12468 0.73389 0.0
C892 C 0.76364 0.12122 0.72907 0.0
C893 C 0.78239 0.14125 0.72923 0.0
C894 C 0.70637 0.06405 0.74683 0.0
C895 C 0.68149 0.0634 0.73796 0.0
C896 C 0.72491 0.08382 0.74538 0.0
C897 C 0.71902 0.10343 0.73504 0.0
C898 C 0.69413 0.10276 0.72618 0.0
C899 C 0.6756 0.08299 0.72762 0.0
H900 H 0.44047 0.9942 0.5101 0.0
H901 H 0.47695 0.05778 0.55651 0.0
H902 H 0.40651 0.01663 0.50096 0.0
H903 H 0.44331 0.08072 0.54688 0.0
H904 H 0.36764 0.10923 0.53606 0.0
H905 H 0.39965 0.0863 0.54879 0.0
H906 H 0.40117 0.04786 0.47946 0.0
H907 H 0.36871 0.07014 0.46698 0.0
C908 C 0.44109 0.013 0.51844 0.0
C909 C 0.46138 0.0243 0.53392 0.0
C910 C 0.42176 0.02596 0.51306 0.0
C911 C 0.42234 0.05069 0.52281 0.0
C912 C 0.44212 0.06169 0.53911 0.0
C913 C 0.4614 0.04858 0.54467 0.0
C914 C 0.37486 0.0959 0.52354 0.0
C915 C 0.36551 0.09146 0.5005 0.0
C916 C 0.3933 0.0828 0.53083 0.0
C917 C 0.40291 0.06501 0.51523 0.0
C918 C 0.39383 0.06096 0.49211 0.0
C919 C 0.37532 0.07392 0.48488 0.0
H920 H 0.59807 0.50391 0.53293 0.0
H921 H 0.61329 0.48917 0.60104 0.0
H922 H 0.62685 0.47565 0.51777 0.0
H923 H 0.64204 0.46109 0.58598 0.0
H924 H 0.67868 0.3981 0.55028 0.0
H925 H 0.64538 0.42232 0.56258 0.0
H926 H 0.67167 0.47385 0.51875 0.0
H927 H 0.70451 0.4494 0.50609 0.0
C928 C 0.60751 0.49462 0.54466 0.0
C929 C 0.60332 0.49883 0.56821 0.0
C930 C 0.62405 0.47843 0.53599 0.0
C931 C 0.63687 0.46608 0.55064 0.0
C932 C 0.63222 0.46992 0.5741 0.0
C933 C 0.61568 0.48606 0.58276 0.0
C934 C 0.6772 0.41447 0.5431 0.0
C935 C 0.69438 0.42183 0.52726 0.0
C936 C 0.65819 0.42846 0.55027 0.0
C937 C 0.65587 0.45016 0.54178 0.0
C938 C 0.67264 0.45712 0.52547 0.0
C939 C 0.69162 0.44314 0.5183 0.0
H940 H 0.76391 0.27808 0.3382 0.0
H941 H 0.7589 0.22038 0.37887 0.0
H942 H 0.75963 0.30751 0.37216 0.0
H943 H 0.75656 0.25028 0.41328 0.0
H944 H 0.73109 0.30739 0.46878 0.0
H945 H 0.73146 0.27689 0.43425 0.0
H946 H 0.78313 0.32826 0.40517 0.0
H947 H 0.78184 0.35881 0.43906 0.0
C948 C 0.76176 0.27156 0.35435 0.0
C949 C 0.76169 0.24669 0.35562 0.0
C950 C 0.75975 0.28862 0.37401 0.0
C951 C 0.758 0.28144 0.39565 0.0
C952 C 0.75765 0.25653 0.39694 0.0
C953 C 0.75937 0.23938 0.37719 0.0
C954 C 0.7424 0.31215 0.45492 0.0
C955 C 0.7563 0.33559 0.45664 0.0
C956 C 0.74277 0.29461 0.43516 0.0
C957 C 0.75725 0.30003 0.41674 0.0
C958 C 0.77127 0.32348 0.41866 0.0
C959 C 0.77067 0.34103 0.43824 0.0
H960 H 0.47997 0.03258 0.8535 0.0
H961 H 0.53489 0.06032 0.91011 0.0
H962 H 0.51366 0.02172 0.82895 0.0
H963 H 0.56873 0.04864 0.88567 0.0
H964 H 0.62216 0.05578 0.82623 0.0
H965 H 0.58969 0.06263 0.85348 0.0
H966 H 0.54497 0.99474 0.8214 0.0
H967 H 0.5772 0.98815 0.79381 0.0
C968 C 0.49926 0.03615 0.86077 0.0
C969 C 0.50475 0.04756 0.88371 0.0
C970 C 0.5186 0.02967 0.84674 0.0
C971 C 0.54398 0.03439 0.85527 0.0
C972 C 0.54942 0.04503 0.87846 0.0
C973 C 0.53001 0.05148 0.89254 0.0
C974 C 0.60547 0.04223 0.82504 0.0
C975 C 0.60223 0.0215 0.8077 0.0
C976 C 0.58691 0.04608 0.84081 0.0
C977 C 0.56463 0.02928 0.83964 0.0
C978 C 0.5617 0.00824 0.82262 0.0
C979 C 0.58025 1.0044 0.80685 0.0
H980 H 0.35804 0.24349 0.35481 0.0
H981 H 0.28086 0.25761 0.36094 0.0
H982 H 0.3518 0.21531 0.38209 0.0
H983 H 0.275 0.23043 0.38902 0.0
H984 H 0.26398 0.16295 0.42245 0.0
H985 H 0.27077 0.18856 0.39316 0.0
H986 H 0.34671 0.21492 0.42216 0.0
H987 H 0.34011 0.18869 0.45116 0.0
C988 C 0.33968 0.2405 0.36185 0.0
C989 C 0.31995 0.25286 0.35558 0.0
C990 C 0.3362 0.22457 0.37778 0.0
C991 C 0.31291 0.22057 0.3879 0.0
C992 C 0.29312 0.23276 0.38144 0.0
C993 C 0.29658 0.24863 0.3655 0.0
C994 C 0.28218 0.17413 0.42256 0.0
C995 C 0.30147 0.17378 0.43924 0.0
C996 C 0.28603 0.18897 0.4058 0.0
C997 C 0.30924 0.20401 0.40529 0.0
C998 C 0.32868 0.2034 0.4218 0.0
C999 C 0.32486 0.18844 0.43854 0.0
H1000 H 0.53695 0.44086 0.90684 0.0
H1001 H 0.54375 0.51701 0.93785 0.0
H1002 H 0.50968 0.44837 0.87597 0.0
H1003 H 0.51784 0.52489 0.90592 0.0
H1004 H 0.4532 0.5267 0.85306 0.0
H1005 H 0.47695 0.51932 0.88672 0.0
H1006 H 0.51401 0.46676 0.84317 0.0
H1007 H 0.48971 0.47344 0.80998 0.0
C1008 C 0.53246 0.4592 0.90727 0.0
C1009 C 0.54271 0.47832 0.92494 0.0
C1010 C 0.51713 0.46362 0.88924 0.0
C1011 C 0.51184 0.48735 0.88813 0.0
C1012 C 0.52139 0.50636 0.90617 0.0
C1013 C 0.53655 0.50188 0.92438 0.0
C1014 C 0.46646 0.5136 0.85076 0.0
C1015 C 0.46944 0.50055 0.82887 0.0
C1016 C 0.48015 0.50942 0.87003 0.0
C1017 C 0.49727 0.49222 0.86779 0.0
C1018 C 0.50055 0.47964 0.84575 0.0
C1019 C 0.48673 0.48363 0.82662 0.0
H1020 H 0.77097 0.78685 0.14455 0.0
H1021 H 0.79927 0.72829 0.17229 0.0
H1022 H 0.7749 0.76541 0.10571 0.0
H1023 H 0.80297 0.70689 0.13364 0.0
H1024 H 0.78432 0.66396 0.06216 0.0
H1025 H 0.77686 0.6857 0.09979 0.0
H1026 H 0.80851 0.7539 0.08022 0.0
H1027 H 0.81568 0.73215 0.04228 0.0
C1028 C 0.77802 0.76942 0.14237 0.0
C1029 C 0.78469 0.75925 0.16155 0.0
C1030 C 0.78028 0.75716 0.12013 0.0
C1031 C 0.78919 0.73442 0.11659 0.0
C1032 C 0.79562 0.72417 0.13576 0.0
C1033 C 0.79343 0.73643 0.15794 0.0
C1034 C 0.7896 0.6836 0.06579 0.0
C1035 C 0.80076 0.69629 0.04923 0.0
C1036 C 0.78542 0.69606 0.08743 0.0
C1037 C 0.79226 0.7215 0.09307 0.0
C1038 C 0.80284 0.73431 0.07634 0.0
C1039 C 0.80707 0.72182 0.05464 0.0
H1040 H 0.0191 0.04825 0.11747 0.0
H1041 H 0.07688 0.01493 0.14842 0.0
H1042 H 0.99469 0.04701 0.15143 0.0
H1043 H 0.05219 0.01321 0.18223 0.0
H1044 H 0.0166 0.04377 0.24891 0.0
H1045 H 0.04008 0.04267 0.21427 0.0
H1046 H 0.97041 0.01837 0.17278 0.0
H1047 H 0.94684 0.01965 0.20744 0.0
C1048 C 0.0265 0.04051 0.13148 0.0
C1049 C 0.04997 0.03175 0.13026 0.0
C1050 C 0.01242 0.03962 0.15087 0.0
C1051 C 0.02153 0.0301 0.16961 0.0
C1052 C 0.04477 0.02091 0.16821 0.0
C1053 C 0.05878 0.02164 0.14873 0.0
C1054 C 0.00625 0.03821 0.23242 0.0
C1055 C 0.97981 0.03187 0.23099 0.0
C1056 C 0.01976 0.0374 0.21255 0.0
C1057 C 0.00715 0.03037 0.19074 0.0
C1058 C 0.98069 0.02407 0.1893 0.0
C1059 C 0.96719 0.02472 0.20918 0.0
H1060 H 0.286 0.76163 0.16485 0.0
H1061 H 0.31274 0.83609 0.19705 0.0
H1062 H 0.28433 0.77487 0.12745 0.0
H1063 H 0.31013 0.84922 0.15997 0.0
H1064 H 0.26689 0.86543 0.0965 0.0
H1065 H 0.27198 0.85036 0.13252 0.0
H1066 H 0.31407 0.79536 0.09928 0.0
H1067 H 0.30926 0.81064 0.06307 0.0
C1068 C 0.2918 0.78072 0.16399 0.0
C1069 C 0.29911 0.79783 0.1841 0.0
C1070 C 0.29075 0.78828 0.14257 0.0
C1071 C 0.29675 0.81312 0.14089 0.0
C1072 C 0.30492 0.83003 0.16082 0.0
C1073 C 0.30629 0.82247 0.18209 0.0
C1074 C 0.27723 0.85012 0.09681 0.0
C1075 C 0.28774 0.83928 0.07692 0.0
C1076 C 0.28024 0.84157 0.11748 0.0
C1077 C 0.2935 0.82175 0.1187 0.0
C1078 C 0.30369 0.81061 0.09878 0.0
C1079 C 0.30104 0.81945 0.07812 0.0
H1080 H 0.02431 0.53009 0.09991 0.0
H1081 H 0.01966 0.45189 0.08036 0.0
H1082 H 0.04579 0.52788 0.1366 0.0
H1083 H 0.04116 0.44967 0.11693 0.0
H1084 H 0.05966 0.45432 0.19465 0.0
H1085 H 0.03525 0.45648 0.15948 0.0
H1086 H 0.0886 0.51782 0.14824 0.0
H1087 H 0.11304 0.51567 0.18326 0.0
C1088 C 0.02755 0.51241 0.10361 0.0
C1089 C 0.02037 0.49118 0.08726 0.0
C1090 C 0.04005 0.51116 0.12449 0.0
C1091 C 0.04531 0.48861 0.12959 0.0
C1092 C 0.03728 0.46729 0.11357 0.0
C1093 C 0.0251 0.46858 0.09259 0.0
C1094 C 0.06621 0.46823 0.18465 0.0
C1095 C 0.08835 0.48476 0.19175 0.0
C1096 C 0.05225 0.46943 0.16449 0.0
C1097 C 0.05992 0.4874 0.15115 0.0
C1098 C 0.08202 0.50396 0.15829 0.0
C1099 C 0.09614 0.50257 0.17827 0.0
H1100 H 0.37067 0.68217 0.25856 0.0
H1101 H 0.36119 0.75435 0.29278 0.0
H1102 H 0.40703 0.68237 0.28485 0.0
H1103 H 0.39798 0.75495 0.31831 0.0
H1104 H 0.44461 0.73744 0.37703 0.0
H1105 H 0.40884 0.73542 0.34995 0.0
H1106 H 0.45067 0.7016 0.29542 0.0
H1107 H 0.48648 0.70317 0.32276 0.0
C1108 C 0.37643 0.69813 0.27158 0.0
C1109 C 0.36297 0.71824 0.27353 0.0
C1110 C 0.39741 0.69833 0.28652 0.0
C1111 C 0.40535 0.71861 0.3038 0.0
C1112 C 0.39217 0.73887 0.30543 0.0
C1113 C 0.37125 0.73867 0.29054 0.0
C1114 C 0.4462 0.72945 0.3593 0.0
C1115 C 0.46848 0.72056 0.35207 0.0
C1116 C 0.42571 0.72846 0.34371 0.0
C1117 C 0.42695 0.71861 0.32043 0.0
C1118 C 0.44902 0.70917 0.31325 0.0
C1119 C 0.46958 0.71014 0.32891 0.0
H1120 H 0.02276 0.4097 0.93476 0.0
H1121 H 0.04826 0.40499 1.0037 0.0
H1122 H 0.0243 0.36628 0.92298 0.0
H1123 H 0.04927 0.3611 0.99197 0.0
H1124 H 0.07959 0.29263 0.95106 0.0
H1125 H 0.07469 0.33466 0.96705 0.0
H1126 H 1.00306 0.32638 0.92843 0.0
H1127 H 0.00806 0.2846 0.91221 0.0
C1128 C 0.02865 0.39933 0.94742 0.0
C1129 C 0.03561 0.41079 0.9701 0.0
C1130 C 0.02925 0.37438 0.94073 0.0
C1131 C 0.03685 0.36022 0.95655 0.0
C1132 C 0.04349 0.37157 0.97936 0.0
C1133 C 0.04273 0.39662 0.98611 0.0
C1134 C 0.06267 0.2997 0.94617 0.0
C1135 C 0.04437 0.28535 0.93014 0.0
C1136 C 0.05981 0.32374 0.95544 0.0
C1137 C 0.0386 0.33392 0.94883 0.0
C1138 C 0.01982 0.31921 0.93356 0.0
C1139 C 0.02265 0.29521 0.92433 0.0
H1140 H 0.73361 0.74272 0.31708 0.0
H1141 H 0.69511 0.74279 0.25171 0.0
H1142 H 0.69313 0.73717 0.33437 0.0
H1143 H 0.65449 0.73848 0.26931 0.0
H1144 H 0.5869 0.70009 0.3022 0.0
H1145 H 0.62693 0.70804 0.28436 0.0
H1146 H 0.65784 0.75684 0.34614 0.0
H1147 H 0.61816 0.74832 0.36416 0.0
C1148 C 0.71649 0.74172 0.30641 0.0
C1149 C 0.71764 0.743 0.28295 0.0
C1150 C 0.69323 0.73883 0.31641 0.0
C1151 C 0.67046 0.7373 0.30325 0.0
C1152 C 0.67162 0.73924 0.2799 0.0
C1153 C 0.69494 0.74205 0.26986 0.0
C1154 C 0.60225 0.71252 0.31196 0.0
C1155 C 0.59937 0.72341 0.33467 0.0
C1156 C 0.62516 0.71724 0.30167 0.0
C1157 C 0.6457 0.73306 0.3138 0.0
C1158 C 0.64262 0.74424 0.3364 0.0
C1159 C 0.61979 0.73941 0.34672 0.0
H1160 H 0.11669 0.13898 0.02263 0.0
H1161 H 0.04232 0.09989 0.0276 0.0
H1162 H 0.10165 0.15367 0.98882 0.0
H1163 H 0.02728 0.11424 0.99335 0.0
H1164 H 1.00527 0.17702 0.95655 0.0
H1165 H 0.01899 0.1544 0.98543 0.0
H1166 H 0.08578 0.14228 0.94868 0.0
H1167 H 0.07223 0.16519 0.91989 0.0
C1168 C 0.09719 0.13323 0.01626 0.0
C1169 C 0.08063 0.11846 0.02788 0.0
C1170 C 0.08861 0.14149 0.99676 0.0
C1171 C 0.06321 0.13526 0.98844 0.0
C1172 C 0.04689 0.11958 0.99948 0.0
C1173 C 0.05555 0.11117 0.01895 0.0
C1174 C 0.02275 0.16932 0.95446 0.0
C1175 C 0.03775 0.17314 0.936 0.0
C1176 C 0.03053 0.15618 0.97096 0.0
C1177 C 0.05355 0.14661 0.96944 0.0
C1178 C 0.0681 0.14967 0.95051 0.0
C1179 C 0.06026 0.16272 0.93395 0.0
H1180 H 0.34143 0.29692 0.26292 0.0
H1181 H 0.38683 0.26198 0.30601 0.0
H1182 H 0.37144 0.29149 0.23291 0.0
H1183 H 0.41614 0.25597 0.2758 0.0
H1184 H 0.44721 0.22574 0.20775 0.0
H1185 H 0.41601 0.23167 0.23636 0.0
H1186 H 0.41737 0.30639 0.22627 0.0
H1187 H 0.44881 0.30051 0.19748 0.0
C1188 C 0.35776 0.28813 0.26607 0.0
C1189 C 0.3615 0.27976 0.28695 0.0
C1190 C 0.37493 0.28501 0.24883 0.0
C1191 C 0.39609 0.2732 0.25194 0.0
C1192 C 0.3998 0.26478 0.27272 0.0
C1193 C 0.38285 0.26813 0.29002 0.0
C1194 C 0.44084 0.24344 0.21151 0.0
C1195 C 0.45062 0.26268 0.20035 0.0
C1196 C 0.42302 0.24685 0.22802 0.0
C1197 C 0.41431 0.26952 0.23367 0.0
C1198 C 0.42362 0.28866 0.22218 0.0
C1199 C 0.44171 0.28533 0.20578 0.0
H1200 H 0.59417 0.364 0.02211 0.0
H1201 H 0.52884 0.40154 0.02095 0.0
H1202 H 0.57906 0.3466 0.05504 0.0
H1203 H 0.5138 0.38444 0.05437 0.0
H1204 H 0.47998 0.31778 0.08778 0.0
H1205 H 0.49625 0.34326 0.06045 0.0
H1206 H 0.57025 0.35463 0.09546 0.0
H1207 H 0.55406 0.32883 0.12266 0.0
C1208 C 0.57675 0.36884 0.02916 0.0
C1209 C 0.56258 0.38396 0.01881 0.0
C1210 C 0.56817 0.35902 0.04818 0.0
C1211 C 0.54511 0.36398 0.05731 0.0
C1212 C 0.53149 0.38003 0.0476 0.0
C1213 C 0.54021 0.39002 0.02861 0.0
C1214 C 0.49966 0.32593 0.08985 0.0
C1215 C 0.51575 0.32103 0.10731 0.0
C1216 C 0.50895 0.34072 0.07424 0.0
C1217 C 0.53461 0.35091 0.07565 0.0
C1218 C 0.55047 0.34681 0.09369 0.0
C1219 C 0.54115 0.33209 0.10935 0.0
H1220 H 0.68565 0.25605 0.26458 0.0
H1221 H 0.68725 0.19832 0.2069 0.0
H1222 H 0.64257 0.26065 0.25178 0.0
H1223 H 0.64453 0.20286 0.19414 0.0
H1224 H 0.56 0.20271 0.18783 0.0
H1225 H 0.60002 0.19722 0.20596 0.0
H1226 H 0.62339 0.27524 0.21742 0.0
H1227 H 0.58326 0.28084 0.19928 0.0
C1228 C 0.67664 0.24416 0.24938 0.0
C1229 C 0.68975 0.22692 0.23665 0.0
C1230 C 0.65213 0.2469 0.24196 0.0
C1231 C 0.6402 0.23214 0.22193 0.0
C1232 C 0.65309 0.21435 0.20973 0.0
C1233 C 0.6776 0.21186 0.21694 0.0
C1234 C 0.57354 0.21875 0.19437 0.0
C1235 C 0.56849 0.24221 0.19193 0.0
C1236 C 0.59651 0.21557 0.20471 0.0
C1237 C 0.61489 0.23578 0.21302 0.0
C1238 C 0.60951 0.25933 0.21134 0.0
C1239 C 0.58659 0.26251 0.2008 0.0
H1240 H 0.50918 0.11144 1.00289 0.0
H1241 H 0.43898 0.09658 0.03544 0.0
H1242 H 0.52133 0.14788 0.03164 0.0
H1243 H 0.45193 0.13188 0.06507 0.0
H1244 H 0.46929 0.2108 0.10102 0.0
H1245 H 0.45714 0.17472 0.07178 0.0
H1246 H 0.53514 0.16194 0.07025 0.0
H1247 H 0.54732 0.19863 0.09873 0.0
C1248 C 0.49638 0.11583 0.01623 0.0
C1249 C 0.47309 0.10092 0.01675 0.0
C1250 C 0.50351 0.13661 0.03296 0.0
C1251 C 0.48766 0.14295 0.05081 0.0
C1252 C 0.46451 0.12788 0.05146 0.0
C1253 C 0.45726 0.10728 0.03461 0.0
C1254 C 0.48382 0.20027 0.09442 0.0
C1255 C 0.50927 0.20762 0.10217 0.0
C1256 C 0.47685 0.17944 0.07773 0.0
C1257 C 0.49512 0.16524 0.06857 0.0
C1258 C 0.52057 0.17257 0.07652 0.0
C1259 C 0.52756 0.19357 0.093 0.0
H1260 H 0.33042 0.3365 0.69426 0.0
H1261 H 0.27762 0.35049 0.7469 0.0
H1262 H 0.3501 0.37889 0.70326 0.0
H1263 H 0.29825 0.39283 0.75647 0.0
H1264 H 0.36705 0.4546 0.78288 0.0
H1265 H 0.34267 0.41378 0.77307 0.0
H1266 H 0.33855 0.42163 0.70178 0.0
H1267 H 0.36272 0.46252 0.71153 0.0
C1268 C 0.3227 0.34863 0.70751 0.0
C1269 C 0.30223 0.33996 0.71973 0.0
C1270 C 0.33412 0.37293 0.71273 0.0
C1271 C 0.32567 0.38913 0.73053 0.0
C1272 C 0.30525 0.38064 0.74277 0.0
C1273 C 0.29353 0.35637 0.73733 0.0
C1274 C 0.36077 0.4477 0.76514 0.0
C1275 C 0.36689 0.46175 0.74796 0.0
C1276 C 0.3467 0.4244 0.75956 0.0
C1277 C 0.3388 0.41456 0.73667 0.0
C1278 C 0.34456 0.42874 0.71955 0.0
C1279 C 0.3583 0.45217 0.72516 0.0
H1280 H 0.32016 0.68902 0.84809 0.0
H1281 H 0.27492 0.65002 0.78812 0.0
H1282 H 0.34672 0.65657 0.84525 0.0
H1283 H 0.30169 0.61782 0.78513 0.0
H1284 H 0.37272 0.58111 0.77133 0.0
H1285 H 0.34547 0.61296 0.77559 0.0
H1286 H 0.34589 0.61297 0.84852 0.0
H1287 H 0.37335 0.58122 0.84433 0.0
C1288 C 0.31563 0.67339 0.8345 0.0
C1289 C 0.29542 0.67224 0.81828 0.0
C1290 C 0.33093 0.65481 0.83283 0.0
C1291 C 0.32648 0.6347 0.81485 0.0
C1292 C 0.30595 0.63329 0.79894 0.0
C1293 C 0.29059 0.65177 0.80067 0.0
C1294 C 0.36707 0.58792 0.7883 0.0
C1295 C 0.37524 0.57856 0.80748 0.0
C1296 C 0.35129 0.60608 0.79071 0.0
C1297 C 0.34339 0.61545 0.81239 0.0
C1298 C 0.35178 0.60629 0.83162 0.0
C1299 C 0.36743 0.588 0.82918 0.0
H1300 H 0.9292 0.48238 0.46945 0.0
H1301 H 0.89559 0.5361 0.51486 0.0
H1302 H 0.89848 0.45003 0.47945 0.0
H1303 H 0.86566 0.50372 0.52559 0.0
H1304 H 0.79713 0.44359 0.51687 0.0
H1305 H 0.82907 0.47583 0.50876 0.0
H1306 H 0.88604 0.42811 0.51021 0.0
H1307 H 0.85391 0.39559 0.51783 0.0
C1308 C 0.91536 0.48728 0.48166 0.0
C1309 C 0.91488 0.51188 0.4913 0.0
C1310 C 0.89792 0.4687 0.4876 0.0
C1311 C 0.87953 0.47424 0.50331 0.0
C1312 C 0.87934 0.4988 0.51323 0.0
C1313 C 0.89675 0.51736 0.50729 0.0
C1314 C 0.81648 0.43997 0.51558 0.0
C1315 C 0.82292 0.41696 0.51798 0.0
C1316 C 0.83486 0.45854 0.51104 0.0
C1317 C 0.86017 0.45461 0.50883 0.0
C1318 C 0.86667 0.43168 0.5115 0.0
C1319 C 0.84827 0.41307 0.51602 0.0
H1320 H 0.74962 0.87578 0.84634 0.0
H1321 H 0.78787 0.87326 0.78329 0.0
H1322 H 0.71841 0.89798 0.83131 0.0
H1323 H 0.75678 0.89615 0.76819 0.0
H1324 H 0.68527 0.92789 0.74527 0.0
H1325 H 0.71162 0.89846 0.75627 0.0
H1326 H 0.72249 0.93993 0.82494 0.0
H1327 H 0.6963 0.96882 0.81418 0.0
C1328 C 0.75106 0.87969 0.82907 0.0
C1329 C 0.77123 0.87301 0.81604 0.0
C1330 C 0.73331 0.89256 0.8205 0.0
C1331 C 0.73539 0.89934 0.79873 0.0
C1332 C 0.75461 0.89121 0.78501 0.0
C1333 C 0.77239 0.8781 0.79361 0.0
C1334 C 0.69321 0.93058 0.76273 0.0
C1335 C 0.68859 0.95071 0.77884 0.0
C1336 C 0.70838 0.91379 0.769 0.0
C1337 C 0.71898 0.91667 0.79155 0.0
C1338 C 0.71425 0.9368 0.80755 0.0
C1339 C 0.69933 0.95354 0.8013 0.0
H1340 H 0.62774 0.51357 0.93661 0.0
H1341 H 0.63082 0.49767 0.00557 0.0
H1342 H 0.66636 0.54228 0.94554 0.0
H1343 H 0.67059 0.52513 0.01402 0.0
H1344 H 0.72651 0.5953 0.02973 0.0
H1345 H 0.68764 0.56675 0.02099 0.0
H1346 H 0.71037 0.54531 0.95211 0.0
H1347 H 0.74884 0.57477 0.96066 0.0
C1348 C 0.63657 0.51623 0.95375 0.0
C1349 C 0.62585 0.50344 0.97045 0.0
C1350 C 0.65908 0.53243 0.95874 0.0
C1351 C 0.67178 0.5361 0.98051 0.0
C1352 C 0.66122 0.52311 0.99716 0.0
C1353 C 0.63852 0.50708 0.99223 0.0
C1354 C 0.72323 0.58449 0.01271 0.0
C1355 C 0.74077 0.58736 0.99587 0.0
C1356 C 0.70096 0.56794 0.00773 0.0
C1357 C 0.69573 0.55357 0.98584 0.0
C1358 C 0.71346 0.55632 0.96905 0.0
C1359 C 0.73563 0.57311 0.97397 0.0
H1360 H 0.2478 0.69605 0.2482 0.0
H1361 H 0.3036 0.64766 0.23237 0.0
H1362 H 0.21539 0.66095 0.24757 0.0
H1363 H 0.27111 0.61246 0.23184 0.0
H1364 H 0.21293 0.55822 0.25987 0.0
H1365 H 0.24511 0.59325 0.25894 0.0
H1366 H 0.19164 0.62619 0.22196 0.0
H1367 H 0.15934 0.59138 0.2232 0.0
C1368 C 0.25309 0.67791 0.24418 0.0
C1369 C 0.27833 0.6747 0.24026 0.0
C1370 C 0.23449 0.65776 0.24389 0.0
C1371 C 0.24065 0.63388 0.23975 0.0
C1372 C 0.2658 0.63062 0.23546 0.0
C1373 C 0.28441 0.65079 0.23571 0.0
C1374 C 0.208 0.57296 0.25159 0.0
C1375 C 0.18352 0.57199 0.24164 0.0
C1376 C 0.22652 0.59296 0.2509 0.0
C1377 C 0.22099 0.6125 0.2403 0.0
C1378 C 0.19647 0.61158 0.23047 0.0
C1379 C 0.17797 0.59156 0.23111 0.0
H1380 H 0.93755 0.49124 0.01198 0.0
H1381 H 0.97515 0.55519 0.05723 0.0
H1382 H 0.90474 0.51431 1.0015 0.0
H1383 H 0.9426 0.57876 0.04626 0.0
H1384 H 0.8678 0.60847 0.03352 0.0
H1385 H 0.89906 0.58541 0.04737 0.0
H1386 H 0.90086 0.54498 0.97888 0.0
H1387 H 0.86916 0.56743 0.96527 0.0
C1388 C 0.93869 0.51029 0.01975 0.0
C1389 C 0.95897 0.52148 0.03529 0.0
C1390 C 0.92 0.5236 0.01361 0.0
C1391 C 0.92121 0.54859 0.02264 0.0
C1392 C 0.94096 0.55955 0.039 0.0
C1393 C 0.95961 0.54608 0.04532 0.0
C1394 C 0.87492 0.59468 0.02142 0.0
C1395 C 0.86585 0.58973 0.99828 0.0
C1396 C 0.89294 0.58151 0.02936 0.0
C1397 C 0.90239 0.56312 0.01434 0.0
C1398 C 0.89363 0.55857 0.99111 0.0
C1399 C 0.87555 0.57161 0.98322 0.0
H1400 H 0.10454 1.00314 0.03743 0.0
H1401 H 0.12015 0.99051 0.10623 0.0
H1402 H 0.13246 0.97381 0.02279 0.0
H1403 H 0.14733 0.96063 0.09152 0.0
H1404 H 0.21783 0.93286 0.06117 0.0
H1405 H 0.18843 0.96071 0.07529 0.0
H1406 H 0.13678 0.93039 0.01676 0.0
H1407 H 0.16643 0.9027 1.0024 0.0
C1408 C 0.11379 0.994 0.04941 0.0
C1409 C 0.11011 0.99925 0.07302 0.0
C1410 C 0.12963 0.977 0.04099 0.0
C1411 C 0.14226 0.96491 0.05598 0.0
C1412 C 0.13817 0.96982 0.07952 0.0
C1413 C 0.1223 0.98675 0.08792 0.0
C1414 C 0.20022 0.93208 0.05128 0.0
C1415 C 0.19454 0.9155 0.03062 0.0
C1416 C 0.18325 0.94797 0.05948 0.0
C1417 C 0.16015 0.94775 0.04723 0.0
C1418 C 0.15449 0.93122 0.02653 0.0
C1419 C 0.17145 0.91525 0.01834 0.0
loop_
_geom_bond_atom_site_label_1
_geom_bond_atom_site_label_2
_geom_bond_distance
_geom_bond_site_symmetry_2
_ccdc_geom_bond_type
H0 C1 0.949 . S
C1 H0 0.949 . S
C1 C2 1.395 . S
C1 C3 1.391 . S
C2 C1 1.395 . S
C2 C5 1.390 . S
C3 C1 1.391 . S
C3 C7 1.387 . S
C3 C8 1.491 . S
H4 C5 0.952 . S
C5 C2 1.390 . S
C5 H4 0.952 . S
C5 C6 1.378 . S
C6 C5 1.378 . S
C6 C7 1.409 . S
C7 C3 1.387 . S
C7 C6 1.409 . S
C7 H9 0.951 . S
C8 C3 1.491 . S
C8 C10 1.382 . S
C8 C12 1.404 . S
H9 C7 0.951 . S
C10 C8 1.382 . S
C10 C11 1.390 . S
C10 H15 0.949 . S
C11 C10 1.390 . S
C11 C16 1.399 . S
C12 C8 1.404 . S
C12 H13 0.950 . S
C12 C14 1.375 . S
H13 C12 0.950 . S
C14 C12 1.375 . S
C14 C16 1.382 . S
C14 H18 0.950 . S
H15 C10 0.949 . S
C16 C11 1.399 . S
C16 C14 1.382 . S
C16 H17 0.952 . S
H17 C16 0.952 . S
H18 C14 0.950 . S
H19 C20 0.949 . S
C20 H19 0.949 . S
C20 C21 1.395 . S
C20 C22 1.391 . S
C21 C20 1.395 . S
C21 C24 1.390 . S
C22 C20 1.391 . S
C22 C26 1.387 . S
C22 C27 1.491 . S
H23 C24 0.950 . S
C24 C21 1.390 . S
C24 H23 0.950 . S
C24 C25 1.378 . S
C25 C24 1.378 . S
C25 C26 1.409 . S
C26 C22 1.387 . S
C26 C25 1.409 . S
C26 H28 0.951 . S
C27 C22 1.491 . S
C27 C29 1.382 . S
C27 C31 1.404 . S
H28 C26 0.951 . S
C29 C27 1.382 . S
C29 C30 1.390 . S
C29 H34 0.949 . S
C30 C29 1.390 . S
C30 C35 1.399 . S
C31 C27 1.404 . S
C31 H32 0.950 . S
C31 C33 1.375 . S
H32 C31 0.950 . S
C33 C31 1.375 . S
C33 C35 1.382 . S
C33 H37 0.950 . S
H34 C29 0.949 . S
C35 C30 1.399 . S
C35 C33 1.382 . S
C35 H36 0.952 . S
H36 C35 0.952 . S
H37 C33 0.950 . S
H38 C39 0.949 . S
C39 H38 0.949 . S
C39 C40 1.395 . S
C39 C41 1.391 1_455 S
C40 C39 1.395 . S
C40 C43 1.390 1_455 S
C41 C39 1.391 1_655 S
C41 C45 1.387 . S
C41 C46 1.487 1_654 S
H42 C43 0.950 . S
C43 C40 1.390 1_655 S
C43 H42 0.950 . S
C43 C44 1.378 . S
C44 C43 1.378 . S
C44 C45 1.409 . S
C45 C41 1.387 . S
C45 C44 1.409 . S
C45 H47 0.951 1_554 S
C46 C41 1.487 1_456 S
C46 C48 1.386 . S
C46 C50 1.404 . S
H47 C45 0.951 1_556 S
C48 C46 1.386 . S
C48 C49 1.390 . S
C48 H53 0.949 1_556 S
C49 C48 1.390 . S
C49 C54 1.399 . S
C50 C46 1.404 . S
C50 H51 0.948 1_455 S
C50 C52 1.375 . S
H51 C50 0.948 1_655 S
C52 C50 1.375 . S
C52 C54 1.382 . S
C52 H56 0.950 . S
H53 C48 0.949 1_554 S
C54 C49 1.399 . S
C54 C52 1.382 . S
C54 H55 0.952 . S
H55 C54 0.952 . S
H56 C52 0.950 . S
H57 C58 0.949 . S
C58 H57 0.949 . S
C58 C59 1.395 . S
C58 C60 1.391 . S
C59 C58 1.395 . S
C59 C62 1.390 . S
C60 C58 1.391 . S
C60 C64 1.387 . S
C60 C65 1.491 . S
H61 C62 0.950 . S
C62 C59 1.390 . S
C62 H61 0.950 . S
C62 C63 1.378 . S
C63 C62 1.378 . S
C63 C64 1.409 . S
C64 C60 1.387 . S
C64 C63 1.409 . S
C64 H66 0.951 . S
C65 C60 1.491 . S
C65 C67 1.382 . S
C65 C69 1.404 . S
H66 C64 0.951 . S
C67 C65 1.382 . S
C67 C68 1.390 . S
C67 H72 0.949 . S
C68 C67 1.390 . S
C68 C73 1.399 . S
C69 C65 1.404 . S
C69 H70 0.950 . S
C69 C71 1.375 . S
H70 C69 0.950 . S
C71 C69 1.375 . S
C71 C73 1.382 . S
C71 H75 0.950 . S
H72 C67 0.949 . S
C73 C68 1.399 . S
C73 C71 1.382 . S
C73 H74 0.952 . S
H74 C73 0.952 . S
H75 C71 0.950 . S
H76 C77 0.949 . S
C77 H76 0.949 . S
C77 C78 1.395 . S
C77 C79 1.391 . S
C78 C77 1.395 . S
C78 C81 1.390 . S
C79 C77 1.391 . S
C79 C83 1.387 . S
C79 C84 1.491 . S
H80 C81 0.950 1_545 S
C81 C78 1.390 . S
C81 H80 0.950 1_565 S
C81 C82 1.378 . S
C82 C81 1.378 . S
C82 C83 1.409 . S
C83 C79 1.387 . S
C83 C82 1.409 . S
C83 H85 0.951 . S
C84 C79 1.491 . S
C84 C86 1.382 . S
C84 C88 1.404 . S
H85 C83 0.951 . S
C86 C84 1.382 . S
C86 C87 1.390 . S
C86 H91 0.949 . S
C87 C86 1.390 . S
C87 C92 1.399 . S
C88 C84 1.404 . S
C88 H89 0.950 . S
C88 C90 1.375 . S
H89 C88 0.950 . S
C90 C88 1.375 . S
C90 C92 1.382 . S
C90 H94 0.950 . S
H91 C86 0.949 . S
C92 C87 1.399 . S
C92 C90 1.382 . S
C92 H93 0.952 . S
H93 C92 0.952 . S
H94 C90 0.950 . S
H95 C96 0.949 . S
C96 H95 0.949 . S
C96 C97 1.395 . S
C96 C98 1.391 . S
C97 C96 1.395 . S
C97 C100 1.390 . S
C98 C96 1.391 . S
C98 C102 1.387 . S
C98 C103 1.491 . S
H99 C100 0.950 . S
C100 C97 1.390 . S
C100 H99 0.950 . S
C100 C101 1.378 . S
C101 C100 1.378 . S
C101 C102 1.409 . S
C102 C98 1.387 . S
C102 C101 1.409 . S
C102 H104 0.951 . S
C103 C98 1.491 . S
C103 C105 1.382 . S
C103 C107 1.404 . S
H104 C102 0.951 . S
C105 C103 1.382 . S
C105 C106 1.390 . S
C105 H110 0.949 . S
C106 C105 1.390 . S
C106 C111 1.399 . S
C107 C103 1.404 . S
C107 H108 0.950 . S
C107 C109 1.375 . S
H108 C107 0.950 . S
C109 C107 1.375 . S
C109 C111 1.382 . S
C109 H113 0.950 . S
H110 C105 0.949 . S
C111 C106 1.399 . S
C111 C109 1.382 . S
C111 H112 0.952 . S
H112 C111 0.952 . S
H113 C109 0.950 . S
H114 C115 0.949 . S
C115 H114 0.949 . S
C115 C116 1.395 . S
C115 C117 1.391 . S
C116 C115 1.395 . S
C116 C119 1.390 . S
C117 C115 1.391 . S
C117 C121 1.387 . S
C117 C122 1.491 . S
H118 C119 0.950 . S
C119 C116 1.390 . S
C119 H118 0.950 . S
C119 C120 1.378 . S
C120 C119 1.378 . S
C120 C121 1.409 . S
C121 C117 1.387 . S
C121 C120 1.409 . S
C121 H123 0.951 . S
C122 C117 1.491 . S
C122 C124 1.382 . S
C122 C126 1.404 . S
H123 C121 0.951 . S
C124 C122 1.382 . S
C124 C125 1.390 1_655 S
C124 H129 0.949 1_655 S
C125 C124 1.390 1_455 S
C125 C130 1.399 1_455 S
C126 C122 1.404 . S
C126 H127 0.950 . S
C126 C128 1.375 . S
H127 C126 0.950 . S
C128 C126 1.375 . S
C128 C130 1.382 . S
C128 H132 0.950 . S
H129 C124 0.949 1_455 S
C130 C125 1.399 1_655 S
C130 C128 1.382 . S
C130 H131 0.952 . S
H131 C130 0.952 . S
H132 C128 0.950 . S
H133 C134 0.949 . S
C134 H133 0.949 . S
C134 C135 1.395 . S
C134 C136 1.391 . S
C135 C134 1.395 . S
C135 C138 1.390 . S
C136 C134 1.391 . S
C136 C140 1.387 . S
C136 C141 1.491 . S
H137 C138 0.950 . S
C138 C135 1.390 . S
C138 H137 0.950 . S
C138 C139 1.378 . S
C139 C138 1.378 . S
C139 C140 1.409 . S
C140 C136 1.387 . S
C140 C139 1.409 . S
C140 H142 0.951 . S
C141 C136 1.491 . S
C141 C143 1.382 . S
C141 C145 1.404 . S
H142 C140 0.951 . S
C143 C141 1.382 . S
C143 C144 1.390 . S
C143 H148 0.949 . S
C144 C143 1.390 . S
C144 C149 1.399 . S
C145 C141 1.404 . S
C145 H146 0.950 . S
C145 C147 1.375 . S
H146 C145 0.950 . S
C147 C145 1.375 . S
C147 C149 1.382 . S
C147 H151 0.950 . S
H148 C143 0.949 . S
C149 C144 1.399 . S
C149 C147 1.382 . S
C149 H150 0.952 . S
H150 C149 0.952 . S
H151 C147 0.950 . S
H152 C153 0.949 . S
C153 H152 0.949 . S
C153 C154 1.395 . S
C153 C155 1.391 . S
C154 C153 1.395 . S
C154 C157 1.390 . S
C155 C153 1.391 . S
C155 C159 1.387 . S
C155 C160 1.491 . S
H156 C157 0.950 . S
C157 C154 1.390 . S
C157 H156 0.950 . S
C157 C158 1.378 . S
C158 C157 1.378 . S
C158 C159 1.409 . S
C159 C155 1.387 . S
C159 C158 1.409 . S
C159 H161 0.951 . S
C160 C155 1.491 . S
C160 C162 1.382 . S
C160 C164 1.404 . S
H161 C159 0.951 . S
C162 C160 1.382 . S
C162 C163 1.390 . S
C162 H167 0.949 . S
C163 C162 1.390 . S
C163 C168 1.399 . S
C164 C160 1.404 . S
C164 H165 0.950 . S
C164 C166 1.375 . S
H165 C164 0.950 . S
C166 C164 1.375 . S
C166 C168 1.382 . S
C166 H170 0.950 . S
H167 C162 0.949 . S
C168 C163 1.399 . S
C168 C166 1.382 . S
C168 H169 0.952 . S
H169 C168 0.952 . S
H170 C166 0.950 . S
H171 C172 0.949 . S
C172 H171 0.949 . S
C172 C173 1.395 . S
C172 C174 1.391 . S
C173 C172 1.395 . S
C173 C176 1.390 . S
C174 C172 1.391 . S
C174 C178 1.387 . S
C174 C179 1.491 . S
H175 C176 0.950 1_545 S
C176 C173 1.390 . S
C176 H175 0.950 1_565 S
C176 C177 1.378 . S
C177 C176 1.378 . S
C177 C178 1.409 . S
C178 C174 1.387 . S
C178 C177 1.409 . S
C178 H180 0.951 . S
C179 C174 1.491 . S
C179 C181 1.382 . S
C179 C183 1.404 . S
H180 C178 0.951 . S
C181 C179 1.382 . S
C181 C182 1.390 . S
C181 H186 0.949 . S
C182 C181 1.390 . S
C182 C187 1.399 . S
C183 C179 1.404 . S
C183 H184 0.950 . S
C183 C185 1.375 . S
H184 C183 0.950 . S
C185 C183 1.375 . S
C185 C187 1.382 . S
C185 H189 0.950 . S
H186 C181 0.949 . S
C187 C182 1.399 . S
C187 C185 1.382 . S
C187 H188 0.952 . S
H188 C187 0.952 . S
H189 C185 0.950 . S
H190 C191 0.949 . S
C191 H190 0.949 . S
C191 C192 1.395 . S
C191 C193 1.391 . S
C192 C191 1.395 . S
C192 C195 1.390 . S
C193 C191 1.391 . S
C193 C197 1.387 . S
C193 C198 1.491 . S
H194 C195 0.950 . S
C195 C192 1.390 . S
C195 H194 0.950 . S
C195 C196 1.378 . S
C196 C195 1.378 . S
C196 C197 1.409 . S
C197 C193 1.387 . S
C197 C196 1.409 . S
C197 H199 0.951 . S
C198 C193 1.491 . S
C198 C200 1.382 . S
C198 C202 1.404 . S
H199 C197 0.951 . S
C200 C198 1.382 . S
C200 C201 1.390 . S
C200 H205 0.949 . S
C201 C200 1.390 . S
C201 C206 1.399 . S
C202 C198 1.404 . S
C202 H203 0.950 . S
C202 C204 1.375 . S
H203 C202 0.950 . S
C204 C202 1.375 . S
C204 C206 1.382 . S
C204 H208 0.950 . S
H205 C200 0.949 . S
C206 C201 1.399 . S
C206 C204 1.382 . S
C206 H207 0.952 . S
H207 C206 0.952 . S
H208 C204 0.950 . S
H209 C210 0.949 . S
C210 H209 0.949 . S
C210 C211 1.395 . S
C210 C212 1.391 . S
C211 C210 1.395 . S
C211 C214 1.390 . S
C212 C210 1.391 . S
C212 C216 1.387 . S
C212 C217 1.491 . S
H213 C214 0.950 . S
C214 C211 1.390 . S
C214 H213 0.950 . S
C214 C215 1.378 . S
C215 C214 1.378 . S
C215 C216 1.409 . S
C216 C212 1.387 . S
C216 C215 1.409 . S
C216 H218 0.951 . S
C217 C212 1.491 . S
C217 C219 1.382 . S
C217 C221 1.404 . S
H218 C216 0.951 . S
C219 C217 1.382 . S
C219 C220 1.390 . S
C219 H224 0.949 . S
C220 C219 1.390 . S
C220 C225 1.399 . S
C221 C217 1.404 . S
C221 H222 0.950 . S
C221 C223 1.375 . S
H222 C221 0.950 . S
C223 C221 1.375 . S
C223 C225 1.382 . S
C223 H227 0.950 . S
H224 C219 0.949 . S
C225 C220 1.399 . S
C225 C223 1.382 . S
C225 H226 0.952 . S
H226 C225 0.952 . S
H227 C223 0.950 . S
H228 C229 0.949 . S
C229 H228 0.949 . S
C229 C230 1.395 . S
C229 C231 1.391 . S
C230 C229 1.395 . S
C230 C233 1.390 . S
C231 C229 1.391 . S
C231 C235 1.387 . S
C231 C236 1.491 . S
H232 C233 0.950 . S
C233 C230 1.390 . S
C233 H232 0.950 . S
C233 C234 1.378 . S
C234 C233 1.378 . S
C234 C235 1.409 . S
C235 C231 1.387 . S
C235 C234 1.409 . S
C235 H237 0.951 . S
C236 C231 1.491 . S
C236 C238 1.382 . S
C236 C240 1.404 . S
H237 C235 0.951 . S
C238 C236 1.382 . S
C238 C239 1.390 . S
C238 H243 0.949 . S
C239 C238 1.390 . S
C239 C244 1.399 . S
C240 C236 1.404 . S
C240 H241 0.950 . S
C240 C242 1.375 . S
H241 C240 0.950 . S
C242 C240 1.375 . S
C242 C244 1.382 . S
C242 H246 0.950 . S
H243 C238 0.949 . S
C244 C239 1.399 . S
C244 C242 1.382 . S
C244 H245 0.952 . S
H245 C244 0.952 . S
H246 C242 0.950 . S
H247 C248 0.949 1_554 S
C248 H247 0.949 1_556 S
C248 C249 1.395 . S
C248 C250 1.391 . S
C249 C248 1.395 . S
C249 C252 1.390 . S
C250 C248 1.391 . S
C250 C254 1.387 . S
C250 C255 1.491 . S
H251 C252 0.950 . S
C252 C249 1.390 . S
C252 H251 0.950 . S
C252 C253 1.378 . S
C253 C252 1.378 . S
C253 C254 1.409 . S
C254 C250 1.387 . S
C254 C253 1.409 . S
C254 H256 0.951 . S
C255 C250 1.491 . S
C255 C257 1.382 1_556 S
C255 C259 1.404 . S
H256 C254 0.951 . S
C257 C255 1.382 1_554 S
C257 C258 1.390 . S
C257 H262 0.949 . S
C258 C257 1.390 . S
C258 C263 1.399 . S
C259 C255 1.404 . S
C259 H260 0.950 . S
C259 C261 1.375 . S
H260 C259 0.950 . S
C261 C259 1.375 . S
C261 C263 1.382 1_556 S
C261 H265 0.950 . S
H262 C257 0.949 . S
C263 C258 1.399 . S
C263 C261 1.382 1_554 S
C263 H264 0.952 . S
H264 C263 0.952 . S
H265 C261 0.950 . S
H266 C267 0.949 . S
C267 H266 0.949 . S
C267 C268 1.395 . S
C267 C269 1.391 . S
C268 C267 1.395 . S
C268 C271 1.390 . S
C269 C267 1.391 . S
C269 C273 1.387 . S
C269 C274 1.491 . S
H270 C271 0.950 . S
C271 C268 1.390 . S
C271 H270 0.950 . S
C271 C272 1.378 . S
C272 C271 1.378 . S
C272 C273 1.409 . S
C273 C269 1.387 . S
C273 C272 1.409 . S
C273 H275 0.951 . S
C274 C269 1.491 . S
C274 C276 1.382 . S
C274 C278 1.404 . S
H275 C273 0.951 . S
C276 C274 1.382 . S
C276 C277 1.390 . S
C276 H281 0.949 . S
C277 C276 1.390 . S
C277 C282 1.399 . S
C278 C274 1.404 . S
C278 H279 0.950 . S
C278 C280 1.375 . S
H279 C278 0.950 . S
C280 C278 1.375 . S
C280 C282 1.382 . S
C280 H284 0.950 . S
H281 C276 0.949 . S
C282 C277 1.399 . S
C282 C280 1.382 . S
C282 H283 0.952 . S
H283 C282 0.952 . S
H284 C280 0.950 . S
H285 C286 0.949 . S
C286 H285 0.949 . S
C286 C287 1.395 . S
C286 C288 1.391 . S
C287 C286 1.395 . S
C287 C290 1.390 . S
C288 C286 1.391 . S
C288 C292 1.387 . S
C288 C293 1.491 . S
H289 C290 0.950 1_554 S
C290 C287 1.390 . S
C290 H289 0.950 1_556 S
C290 C291 1.378 . S
C291 C290 1.378 . S
C291 C292 1.409 . S
C292 C288 1.387 . S
C292 C291 1.409 . S
C292 H294 0.951 . S
C293 C288 1.491 . S
C293 C295 1.382 . S
C293 C297 1.404 . S
H294 C292 0.951 . S
C295 C293 1.382 . S
C295 C296 1.390 . S
C295 H300 0.949 . S
C296 C295 1.390 . S
C296 C301 1.399 . S
C297 C293 1.404 . S
C297 H298 0.950 . S
C297 C299 1.375 . S
H298 C297 0.950 . S
C299 C297 1.375 . S
C299 C301 1.382 . S
C299 H303 0.950 . S
H300 C295 0.949 . S
C301 C296 1.399 . S
C301 C299 1.382 . S
C301 H302 0.952 . S
H302 C301 0.952 . S
H303 C299 0.950 . S
C304 O305 1.160 . S
C304 O311 1.185 . S
O305 C304 1.160 . S
O306 Zn307 1.899 . S
O306 C314 1.284 . S
Zn307 O306 1.899 . S
Zn307 O308 2.032 . S
Zn307 O311 2.086 . S
Zn307 O316 1.977 . S
O308 Zn307 2.032 . S
O308 C312 1.278 . S
C309 O310 1.203 . S
C309 O316 1.267 . S
O310 C309 1.203 . S
O311 C304 1.185 . S
O311 Zn307 2.086 . S
C312 O308 1.278 . S
C312 O313 1.211 . S
O313 C312 1.211 . S
C314 O306 1.284 . S
C314 O315 1.273 . S
O315 C314 1.273 . S
O316 Zn307 1.977 . S
O316 C309 1.267 . S
C317 O318 1.160 . S
C317 O324 1.185 . S
O318 C317 1.160 . S
O319 Zn320 1.899 . S
O319 C327 1.284 . S
Zn320 O319 1.899 . S
Zn320 O321 2.032 . S
Zn320 O324 2.086 . S
Zn320 O329 1.977 . S
O321 Zn320 2.032 . S
O321 C325 1.278 . S
C322 O323 1.203 . S
C322 O329 1.267 . S
O323 C322 1.203 . S
O324 C317 1.185 . S
O324 Zn320 2.086 . S
C325 O321 1.278 . S
C325 O326 1.211 . S
O326 C325 1.211 . S
C327 O319 1.284 . S
C327 O328 1.273 . S
O328 C327 1.273 . S
O329 Zn320 1.977 . S
O329 C322 1.267 . S
C330 O331 1.160 . S
C330 O337 1.185 1_556 S
O331 C330 1.160 . S
O332 Zn333 1.899 1_556 S
O332 C340 1.284 . S
Zn333 O332 1.899 1_554 S
Zn333 O334 2.032 1_554 S
Zn333 O337 2.086 . S
Zn333 O342 1.977 . S
O334 Zn333 2.032 1_556 S
O334 C338 1.278 . S
C335 O336 1.203 . S
C335 O342 1.267 . S
O336 C335 1.203 . S
O337 C330 1.185 1_554 S
O337 Zn333 2.086 . S
C338 O334 1.278 . S
C338 O339 1.211 1_556 S
O339 C338 1.211 1_554 S
C340 O332 1.284 . S
C340 O341 1.273 . S
O341 C340 1.273 . S
O342 Zn333 1.977 . S
O342 C335 1.267 . S
C343 O344 1.160 . S
C343 O350 1.185 . S
O344 C343 1.160 . S
O345 Zn346 1.899 . S
O345 C353 1.284 . S
Zn346 O345 1.899 . S
Zn346 O347 2.032 . S
Zn346 O350 2.086 . S
Zn346 O355 1.977 . S
O347 Zn346 2.032 . S
O347 C351 1.278 1_545 S
C348 O349 1.203 . S
C348 O355 1.267 . S
O349 C348 1.203 . S
O350 C343 1.185 . S
O350 Zn346 2.086 . S
C351 O347 1.278 1_565 S
C351 O352 1.211 . S
O352 C351 1.211 . S
C353 O345 1.284 . S
C353 O354 1.273 1_545 S
O354 C353 1.273 1_565 S
O355 Zn346 1.977 . S
O355 C348 1.267 . S
C356 O357 1.160 . S
C356 O363 1.185 . S
O357 C356 1.160 . S
O358 Zn359 1.899 . S
O358 C366 1.284 . S
Zn359 O358 1.899 . S
Zn359 O360 2.032 . S
Zn359 O363 2.086 . S
Zn359 O368 1.977 . S
O360 Zn359 2.032 . S
O360 C364 1.278 . S
C361 O362 1.203 . S
C361 O368 1.267 . S
O362 C361 1.203 . S
O363 C356 1.185 . S
O363 Zn359 2.086 . S
C364 O360 1.278 . S
C364 O365 1.211 . S
O365 C364 1.211 . S
C366 O358 1.284 . S
C366 O367 1.273 . S
O367 C366 1.273 . S
O368 Zn359 1.977 . S
O368 C361 1.267 . S
C369 O370 1.160 . S
C369 O376 1.185 . S
O370 C369 1.160 . S
O371 Zn372 1.899 . S
O371 C379 1.284 . S
Zn372 O371 1.899 . S
Zn372 O373 2.032 . S
Zn372 O376 2.086 . S
Zn372 O381 1.977 . S
O373 Zn372 2.032 . S
O373 C377 1.278 . S
C374 O375 1.203 . S
C374 O381 1.267 . S
O375 C374 1.203 . S
O376 C369 1.185 . S
O376 Zn372 2.086 . S
C377 O373 1.278 . S
C377 O378 1.211 . S
O378 C377 1.211 . S
C379 O371 1.284 . S
C379 O380 1.273 . S
O380 C379 1.273 . S
O381 Zn372 1.977 . S
O381 C374 1.267 . S
C382 O383 1.160 . S
C382 O389 1.185 . S
O383 C382 1.160 . S
O384 Zn385 1.899 . S
O384 C392 1.284 . S
Zn385 O384 1.899 . S
Zn385 O386 2.032 . S
Zn385 O389 2.086 . S
Zn385 O394 1.977 . S
O386 Zn385 2.032 . S
O386 C390 1.278 . S
C387 O388 1.203 . S
C387 O394 1.267 . S
O388 C387 1.203 . S
O389 C382 1.185 . S
O389 Zn385 2.086 . S
C390 O386 1.278 . S
C390 O391 1.211 . S
O391 C390 1.211 . S
C392 O384 1.284 . S
C392 O393 1.273 . S
O393 C392 1.273 . S
O394 Zn385 1.977 . S
O394 C387 1.267 . S
C395 O396 1.160 . S
C395 O402 1.185 . S
O396 C395 1.160 . S
O397 Zn398 1.899 . S
O397 C405 1.284 . S
Zn398 O397 1.899 . S
Zn398 O399 2.032 . S
Zn398 O402 2.086 1_545 S
Zn398 O407 1.977 1_545 S
O399 Zn398 2.032 . S
O399 C403 1.278 . S
C400 O401 1.203 . S
C400 O407 1.267 1_545 S
O401 C400 1.203 . S
O402 C395 1.185 . S
O402 Zn398 2.086 1_565 S
C403 O399 1.278 . S
C403 O404 1.211 . S
O404 C403 1.211 . S
C405 O397 1.284 . S
C405 O406 1.273 . S
O406 C405 1.273 . S
O407 Zn398 1.977 1_565 S
O407 C400 1.267 1_565 S
C408 O409 1.160 1_455 S
C408 O415 1.185 . S
O409 C408 1.160 1_655 S
O410 Zn411 1.899 1_655 S
O410 C418 1.284 . S
Zn411 O410 1.899 1_455 S
Zn411 O412 2.032 . S
Zn411 O415 2.086 . S
Zn411 O420 1.977 . S
O412 Zn411 2.032 . S
O412 C416 1.278 . S
C413 O414 1.203 . S
C413 O420 1.267 . S
O414 C413 1.203 . S
O415 C408 1.185 . S
O415 Zn411 2.086 . S
C416 O412 1.278 . S
C416 O417 1.211 . S
O417 C416 1.211 . S
C418 O410 1.284 . S
C418 O419 1.273 . S
O419 C418 1.273 . S
O420 Zn411 1.977 . S
O420 C413 1.267 . S
C421 O422 1.160 . S
C421 O428 1.185 . S
O422 C421 1.160 . S
O423 Zn424 1.899 . S
O423 C431 1.284 . S
Zn424 O423 1.899 . S
Zn424 O425 2.032 . S
Zn424 O428 2.086 . S
Zn424 O433 1.977 . S
O425 Zn424 2.032 . S
O425 C429 1.278 . S
C426 O427 1.203 . S
C426 O433 1.267 . S
O427 C426 1.203 . S
O428 C421 1.185 . S
O428 Zn424 2.086 . S
C429 O425 1.278 . S
C429 O430 1.211 . S
O430 C429 1.211 . S
C431 O423 1.284 . S
C431 O432 1.273 . S
O432 C431 1.273 . S
O433 Zn424 1.977 . S
O433 C426 1.267 . S
C434 O435 1.160 1_455 S
C434 O441 1.185 . S
O435 C434 1.160 1_655 S
O436 Zn437 1.899 1_655 S
O436 C444 1.284 . S
Zn437 O436 1.899 1_455 S
Zn437 O438 2.032 1_455 S
Zn437 O441 2.086 . S
Zn437 O446 1.977 . S
O438 Zn437 2.032 1_655 S
O438 C442 1.278 . S
C439 O440 1.203 . S
C439 O446 1.267 . S
O440 C439 1.203 . S
O441 C434 1.185 . S
O441 Zn437 2.086 . S
C442 O438 1.278 . S
C442 O443 1.211 1_655 S
O443 C442 1.211 1_455 S
C444 O436 1.284 . S
C444 O445 1.273 . S
O445 C444 1.273 . S
O446 Zn437 1.977 . S
O446 C439 1.267 . S
C447 O448 1.160 . S
C447 O454 1.185 . S
O448 C447 1.160 . S
O449 Zn450 1.899 . S
O449 C457 1.284 . S
Zn450 O449 1.899 . S
Zn450 O451 2.032 . S
Zn450 O454 2.086 . S
Zn450 O459 1.977 . S
O451 Zn450 2.032 . S
O451 C455 1.278 . S
C452 O453 1.203 . S
C452 O459 1.267 . S
O453 C452 1.203 . S
O454 C447 1.185 . S
O454 Zn450 2.086 . S
C455 O451 1.278 . S
C455 O456 1.211 . S
O456 C455 1.211 . S
C457 O449 1.284 . S
C457 O458 1.273 . S
O458 C457 1.273 . S
O459 Zn450 1.977 . S
O459 C452 1.267 . S
H460 C468 0.950 . S
H461 C473 0.950 . S
H462 C470 0.950 . S
H463 C472 0.950 . S
H464 C474 0.950 . S
H465 C476 0.950 . S
H466 C478 0.950 . S
H467 C479 0.950 . S
C468 H460 0.950 . S
C468 C469 1.386 . S
C468 C470 1.391 . S
C469 C468 1.386 . S
C469 C473 1.393 . S
C470 H462 0.950 . S
C470 C468 1.391 . S
C470 C471 1.400 . S
C471 C470 1.400 . S
C471 C472 1.398 . S
C471 C477 1.491 . S
C472 H463 0.950 . S
C472 C471 1.398 . S
C472 C473 1.391 . S
C473 H461 0.950 . S
C473 C469 1.393 . S
C473 C472 1.391 . S
C474 H464 0.950 . S
C474 C475 1.386 . S
C474 C476 1.391 . S
C475 C474 1.386 . S
C475 C479 1.393 . S
C476 H465 0.950 . S
C476 C474 1.391 . S
C476 C477 1.400 . S
C477 C471 1.491 . S
C477 C476 1.400 . S
C477 C478 1.398 . S
C478 H466 0.950 . S
C478 C477 1.398 . S
C478 C479 1.391 . S
C479 H467 0.950 . S
C479 C475 1.393 . S
C479 C478 1.391 . S
H480 C488 0.950 . S
H481 C493 0.950 . S
H482 C490 0.950 . S
H483 C492 0.950 . S
H484 C494 0.950 . S
H485 C496 0.950 . S
H486 C498 0.950 . S
H487 C499 0.950 . S
C488 H480 0.950 . S
C488 C489 1.386 . S
C488 C490 1.391 . S
C489 C488 1.386 . S
C489 C493 1.393 . S
C490 H482 0.950 . S
C490 C488 1.391 . S
C490 C491 1.400 . S
C491 C490 1.400 . S
C491 C492 1.398 . S
C491 C497 1.491 . S
C492 H483 0.950 . S
C492 C491 1.398 . S
C492 C493 1.391 . S
C493 H481 0.950 . S
C493 C489 1.393 . S
C493 C492 1.391 . S
C494 H484 0.950 . S
C494 C495 1.386 . S
C494 C496 1.391 . S
C495 C494 1.386 . S
C495 C499 1.393 . S
C496 H485 0.950 . S
C496 C494 1.391 . S
C496 C497 1.400 . S
C497 C491 1.491 . S
C497 C496 1.400 . S
C497 C498 1.398 . S
C498 H486 0.950 . S
C498 C497 1.398 . S
C498 C499 1.391 . S
C499 H487 0.950 . S
C499 C495 1.393 . S
C499 C498 1.391 . S
H500 C508 0.950 . S
H501 C513 0.950 . S
H502 C510 0.950 . S
H503 C512 0.950 . S
H504 C514 0.950 . S
H505 C516 0.950 . S
H506 C518 0.950 . S
H507 C519 0.950 . S
C508 H500 0.950 . S
C508 C509 1.386 . S
C508 C510 1.391 . S
C509 C508 1.386 . S
C509 C513 1.393 . S
C510 H502 0.950 . S
C510 C508 1.391 . S
C510 C511 1.400 . S
C511 C510 1.400 . S
C511 C512 1.398 . S
C511 C517 1.491 . S
C512 H503 0.950 . S
C512 C511 1.398 . S
C512 C513 1.391 . S
C513 H501 0.950 . S
C513 C509 1.393 . S
C513 C512 1.391 . S
C514 H504 0.950 . S
C514 C515 1.386 . S
C514 C516 1.391 . S
C515 C514 1.386 . S
C515 C519 1.393 . S
C516 H505 0.950 . S
C516 C514 1.391 . S
C516 C517 1.400 . S
C517 C511 1.491 . S
C517 C516 1.400 . S
C517 C518 1.398 . S
C518 H506 0.950 . S
C518 C517 1.398 . S
C518 C519 1.391 . S
C519 H507 0.950 . S
C519 C515 1.393 . S
C519 C518 1.391 . S
H520 C528 0.950 . S
H521 C533 0.950 . S
H522 C530 0.950 . S
H523 C532 0.950 . S
H524 C534 0.950 . S
H525 C536 0.950 . S
H526 C538 0.950 1_565 S
H527 C539 0.950 . S
C528 H520 0.950 . S
C528 C529 1.386 . S
C528 C530 1.391 . S
C529 C528 1.386 . S
C529 C533 1.393 . S
C530 H522 0.950 . S
C530 C528 1.391 . S
C530 C531 1.405 . S
C531 C530 1.405 . S
C531 C532 1.398 1_565 S
C531 C537 1.486 1_565 S
C532 H523 0.950 . S
C532 C531 1.398 1_545 S
C532 C533 1.391 1_545 S
C533 H521 0.950 . S
C533 C529 1.393 . S
C533 C532 1.391 1_565 S
C534 H524 0.950 . S
C534 C535 1.386 . S
C534 C536 1.391 . S
C535 C534 1.386 . S
C535 C539 1.393 1_655 S
C536 H525 0.950 . S
C536 C534 1.391 . S
C536 C537 1.400 1_655 S
C537 C531 1.486 1_545 S
C537 C536 1.400 1_455 S
C537 C538 1.398 . S
C538 H526 0.950 1_545 S
C538 C537 1.398 . S
C538 C539 1.391 . S
C539 H527 0.950 . S
C539 C535 1.393 1_455 S
C539 C538 1.391 . S
H540 C548 0.950 . S
H541 C553 0.950 . S
H542 C550 0.950 . S
H543 C552 0.950 . S
H544 C554 0.950 . S
H545 C556 0.950 . S
H546 C558 0.950 . S
H547 C559 0.950 . S
C548 H540 0.950 . S
C548 C549 1.386 . S
C548 C550 1.391 . S
C549 C548 1.386 . S
C549 C553 1.393 . S
C550 H542 0.950 . S
C550 C548 1.391 . S
C550 C551 1.400 . S
C551 C550 1.400 . S
C551 C552 1.398 . S
C551 C557 1.491 . S
C552 H543 0.950 . S
C552 C551 1.398 . S
C552 C553 1.391 . S
C553 H541 0.950 . S
C553 C549 1.393 . S
C553 C552 1.391 . S
C554 H544 0.950 . S
C554 C555 1.386 . S
C554 C556 1.391 . S
C555 C554 1.386 . S
C555 C559 1.393 . S
C556 H545 0.950 . S
C556 C554 1.391 . S
C556 C557 1.400 . S
C557 C551 1.491 . S
C557 C556 1.400 . S
C557 C558 1.398 . S
C558 H546 0.950 . S
C558 C557 1.398 . S
C558 C559 1.391 . S
C559 H547 0.950 . S
C559 C555 1.393 . S
C559 C558 1.391 . S
H560 C568 0.950 . S
H561 C573 0.950 . S
H562 C570 0.950 . S
H563 C572 0.950 . S
H564 C574 0.950 . S
H565 C576 0.950 . S
H566 C578 0.950 . S
H567 C579 0.950 . S
C568 H560 0.950 . S
C568 C569 1.386 . S
C568 C570 1.391 . S
C569 C568 1.386 . S
C569 C573 1.393 . S
C570 H562 0.950 . S
C570 C568 1.391 . S
C570 C571 1.400 . S
C571 C570 1.400 . S
C571 C572 1.398 . S
C571 C577 1.491 . S
C572 H563 0.950 . S
C572 C571 1.398 . S
C572 C573 1.391 . S
C573 H561 0.950 . S
C573 C569 1.393 . S
C573 C572 1.391 . S
C574 H564 0.950 . S
C574 C575 1.386 . S
C574 C576 1.391 . S
C575 C574 1.386 . S
C575 C579 1.393 . S
C576 H565 0.950 . S
C576 C574 1.391 . S
C576 C577 1.400 . S
C577 C571 1.491 . S
C577 C576 1.400 . S
C577 C578 1.398 . S
C578 H566 0.950 . S
C578 C577 1.398 . S
C578 C579 1.391 . S
C579 H567 0.950 . S
C579 C575 1.393 . S
C579 C578 1.391 . S
H580 C588 0.950 . S
H581 C593 0.950 . S
H582 C590 0.950 . S
H583 C592 0.950 . S
H584 C594 0.950 . S
H585 C596 0.950 . S
H586 C598 0.950 . S
H587 C599 0.950 . S
C588 H580 0.950 . S
C588 C589 1.386 . S
C588 C590 1.391 . S
C589 C588 1.386 . S
C589 C593 1.393 . S
C590 H582 0.950 . S
C590 C588 1.391 . S
C590 C591 1.400 . S
C591 C590 1.400 . S
C591 C592 1.398 . S
C591 C597 1.491 . S
C592 H583 0.950 . S
C592 C591 1.398 . S
C592 C593 1.391 . S
C593 H581 0.950 . S
C593 C589 1.393 . S
C593 C592 1.391 . S
C594 H584 0.950 . S
C594 C595 1.386 . S
C594 C596 1.391 . S
C595 C594 1.386 . S
C595 C599 1.393 . S
C596 H585 0.950 . S
C596 C594 1.391 . S
C596 C597 1.400 . S
C597 C591 1.491 . S
C597 C596 1.400 . S
C597 C598 1.398 . S
C598 H586 0.950 . S
C598 C597 1.398 . S
C598 C599 1.391 . S
C599 H587 0.950 . S
C599 C595 1.393 . S
C599 C598 1.391 . S
H600 C608 0.950 . S
H601 C613 0.950 . S
H602 C610 0.950 . S
H603 C612 0.950 1_545 S
H604 C614 0.950 . S
H605 C616 0.950 . S
H606 C618 0.950 . S
H607 C619 0.950 . S
C608 H600 0.950 . S
C608 C609 1.386 . S
C608 C610 1.391 . S
C609 C608 1.386 . S
C609 C613 1.393 . S
C610 H602 0.950 . S
C610 C608 1.391 . S
C610 C611 1.400 . S
C611 C610 1.400 . S
C611 C612 1.398 . S
C611 C617 1.491 . S
C612 H603 0.950 1_565 S
C612 C611 1.398 . S
C612 C613 1.391 . S
C613 H601 0.950 . S
C613 C609 1.393 . S
C613 C612 1.391 . S
C614 H604 0.950 . S
C614 C615 1.386 1_545 S
C614 C616 1.391 . S
C615 C614 1.386 1_565 S
C615 C619 1.393 . S
C616 H605 0.950 . S
C616 C614 1.391 . S
C616 C617 1.400 1_545 S
C617 C611 1.491 . S
C617 C616 1.400 1_565 S
C617 C618 1.398 . S
C618 H606 0.950 . S
C618 C617 1.398 . S
C618 C619 1.391 . S
C619 H607 0.950 . S
C619 C615 1.393 . S
C619 C618 1.391 . S
H620 C628 0.950 . S
H621 C633 0.950 . S
H622 C630 0.950 . S
H623 C632 0.950 . S
H624 C634 0.950 . S
H625 C636 0.950 . S
H626 C638 0.950 . S
H627 C639 0.950 . S
C628 H620 0.950 . S
C628 C629 1.386 . S
C628 C630 1.391 . S
C629 C628 1.386 . S
C629 C633 1.393 . S
C630 H622 0.950 . S
C630 C628 1.391 . S
C630 C631 1.400 . S
C631 C630 1.400 . S
C631 C632 1.398 . S
C631 C637 1.491 . S
C632 H623 0.950 . S
C632 C631 1.398 . S
C632 C633 1.391 . S
C633 H621 0.950 . S
C633 C629 1.393 . S
C633 C632 1.391 . S
C634 H624 0.950 . S
C634 C635 1.386 . S
C634 C636 1.391 . S
C635 C634 1.386 . S
C635 C639 1.393 . S
C636 H625 0.950 . S
C636 C634 1.391 . S
C636 C637 1.400 . S
C637 C631 1.491 . S
C637 C636 1.400 . S
C637 C638 1.398 . S
C638 H626 0.950 . S
C638 C637 1.398 . S
C638 C639 1.391 . S
C639 H627 0.950 . S
C639 C635 1.393 . S
C639 C638 1.391 . S
H640 C648 0.950 . S
H641 C653 0.950 . S
H642 C650 0.950 . S
H643 C652 0.950 . S
H644 C654 0.950 . S
H645 C656 0.950 . S
H646 C658 0.950 . S
H647 C659 0.950 . S
C648 H640 0.950 . S
C648 C649 1.386 . S
C648 C650 1.391 . S
C649 C648 1.386 . S
C649 C653 1.393 . S
C650 H642 0.950 . S
C650 C648 1.391 . S
C650 C651 1.400 . S
C651 C650 1.400 . S
C651 C652 1.398 . S
C651 C657 1.491 . S
C652 H643 0.950 . S
C652 C651 1.398 . S
C652 C653 1.391 . S
C653 H641 0.950 . S
C653 C649 1.393 . S
C653 C652 1.391 . S
C654 H644 0.950 . S
C654 C655 1.386 . S
C654 C656 1.391 . S
C655 C654 1.386 . S
C655 C659 1.393 . S
C656 H645 0.950 . S
C656 C654 1.391 . S
C656 C657 1.400 . S
C657 C651 1.491 . S
C657 C656 1.400 . S
C657 C658 1.398 . S
C658 H646 0.950 . S
C658 C657 1.398 . S
C658 C659 1.391 . S
C659 H647 0.950 . S
C659 C655 1.393 . S
C659 C658 1.391 . S
H660 C668 0.950 . S
H661 C673 0.950 . S
H662 C670 0.950 . S
H663 C672 0.950 . S
H664 C674 0.950 . S
H665 C676 0.950 . S
H666 C678 0.950 . S
H667 C679 0.950 . S
C668 H660 0.950 . S
C668 C669 1.386 . S
C668 C670 1.391 . S
C669 C668 1.386 . S
C669 C673 1.393 . S
C670 H662 0.950 . S
C670 C668 1.391 . S
C670 C671 1.400 . S
C671 C670 1.400 . S
C671 C672 1.398 . S
C671 C677 1.491 . S
C672 H663 0.950 . S
C672 C671 1.398 . S
C672 C673 1.391 . S
C673 H661 0.950 . S
C673 C669 1.393 . S
C673 C672 1.391 . S
C674 H664 0.950 . S
C674 C675 1.386 . S
C674 C676 1.391 . S
C675 C674 1.386 . S
C675 C679 1.393 . S
C676 H665 0.950 . S
C676 C674 1.391 . S
C676 C677 1.400 . S
C677 C671 1.491 . S
C677 C676 1.400 . S
C677 C678 1.398 . S
C678 H666 0.950 . S
C678 C677 1.398 . S
C678 C679 1.391 . S
C679 H667 0.950 . S
C679 C675 1.393 . S
C679 C678 1.391 . S
H680 C688 0.950 . S
H681 C693 0.950 . S
H682 C690 0.950 . S
H683 C692 0.950 . S
H684 C694 0.950 . S
H685 C696 0.950 . S
H686 C698 0.950 . S
H687 C699 0.950 . S
C688 H680 0.950 . S
C688 C689 1.386 . S
C688 C690 1.391 . S
C689 C688 1.386 . S
C689 C693 1.393 . S
C690 H682 0.950 . S
C690 C688 1.391 . S
C690 C691 1.400 . S
C691 C690 1.400 . S
C691 C692 1.398 . S
C691 C697 1.491 . S
C692 H683 0.950 . S
C692 C691 1.398 . S
C692 C693 1.391 . S
C693 H681 0.950 . S
C693 C689 1.393 . S
C693 C692 1.391 . S
C694 H684 0.950 . S
C694 C695 1.386 . S
C694 C696 1.391 . S
C695 C694 1.386 . S
C695 C699 1.393 . S
C696 H685 0.950 . S
C696 C694 1.391 . S
C696 C697 1.400 . S
C697 C691 1.491 . S
C697 C696 1.400 . S
C697 C698 1.398 . S
C698 H686 0.950 . S
C698 C697 1.398 . S
C698 C699 1.391 . S
C699 H687 0.950 . S
C699 C695 1.393 . S
C699 C698 1.391 . S
H700 C708 0.950 . S
H701 C713 0.950 . S
H702 C710 0.950 . S
H703 C712 0.950 . S
H704 C714 0.950 . S
H705 C716 0.950 . S
H706 C718 0.950 . S
H707 C719 0.950 . S
C708 H700 0.950 . S
C708 C709 1.386 . S
C708 C710 1.391 . S
C709 C708 1.386 . S
C709 C713 1.393 . S
C710 H702 0.950 . S
C710 C708 1.391 . S
C710 C711 1.400 . S
C711 C710 1.400 . S
C711 C712 1.398 . S
C711 C717 1.491 . S
C712 H703 0.950 . S
C712 C711 1.398 . S
C712 C713 1.391 . S
C713 H701 0.950 . S
C713 C709 1.393 . S
C713 C712 1.391 . S
C714 H704 0.950 . S
C714 C715 1.386 . S
C714 C716 1.391 . S
C715 C714 1.386 . S
C715 C719 1.393 . S
C716 H705 0.950 . S
C716 C714 1.391 . S
C716 C717 1.400 . S
C717 C711 1.491 . S
C717 C716 1.400 . S
C717 C718 1.398 . S
C718 H706 0.950 . S
C718 C717 1.398 . S
C718 C719 1.391 . S
C719 H707 0.950 . S
C719 C715 1.393 . S
C719 C718 1.391 . S
H720 C728 0.950 . S
H721 C733 0.950 . S
H722 C730 0.950 . S
H723 C732 0.950 . S
H724 C734 0.950 . S
H725 C736 0.950 . S
H726 C738 0.950 . S
H727 C739 0.950 . S
C728 H720 0.950 . S
C728 C729 1.386 . S
C728 C730 1.391 . S
C729 C728 1.386 . S
C729 C733 1.393 . S
C730 H722 0.950 . S
C730 C728 1.391 . S
C730 C731 1.400 . S
C731 C730 1.400 . S
C731 C732 1.398 . S
C731 C737 1.491 . S
C732 H723 0.950 . S
C732 C731 1.398 . S
C732 C733 1.391 . S
C733 H721 0.950 . S
C733 C729 1.393 . S
C733 C732 1.391 . S
C734 H724 0.950 . S
C734 C735 1.386 . S
C734 C736 1.391 . S
C735 C734 1.386 . S
C735 C739 1.393 . S
C736 H725 0.950 . S
C736 C734 1.391 . S
C736 C737 1.400 . S
C737 C731 1.491 . S
C737 C736 1.400 . S
C737 C738 1.398 . S
C738 H726 0.950 . S
C738 C737 1.398 . S
C738 C739 1.391 . S
C739 H727 0.950 . S
C739 C735 1.393 . S
C739 C738 1.391 . S
H740 C748 0.950 . S
H741 C753 0.950 . S
H742 C750 0.950 . S
H743 C752 0.950 . S
H744 C754 0.950 . S
H745 C756 0.950 . S
H746 C758 0.950 . S
H747 C759 0.950 . S
C748 H740 0.950 . S
C748 C749 1.386 . S
C748 C750 1.391 . S
C749 C748 1.386 . S
C749 C753 1.393 . S
C750 H742 0.950 . S
C750 C748 1.391 . S
C750 C751 1.400 . S
C751 C750 1.400 . S
C751 C752 1.398 . S
C751 C757 1.491 . S
C752 H743 0.950 . S
C752 C751 1.398 . S
C752 C753 1.391 . S
C753 H741 0.950 . S
C753 C749 1.393 . S
C753 C752 1.391 . S
C754 H744 0.950 . S
C754 C755 1.386 . S
C754 C756 1.391 . S
C755 C754 1.386 . S
C755 C759 1.393 . S
C756 H745 0.950 . S
C756 C754 1.391 . S
C756 C757 1.400 . S
C757 C751 1.491 . S
C757 C756 1.400 . S
C757 C758 1.398 . S
C758 H746 0.950 . S
C758 C757 1.398 . S
C758 C759 1.391 . S
C759 H747 0.950 . S
C759 C755 1.393 . S
C759 C758 1.391 . S
H760 C768 0.950 1_455 S
H761 C773 0.950 . S
H762 C770 0.981 . S
H763 C772 0.950 . S
H764 C774 0.950 . S
H765 C776 0.950 . S
H766 C778 0.950 . S
H767 C779 0.950 . S
C768 H760 0.950 1_655 S
C768 C769 1.386 . S
C768 C770 1.392 1_655 S
C769 C768 1.386 . S
C769 C773 1.393 . S
C770 H762 0.981 . S
C770 C768 1.392 1_455 S
C770 C771 1.369 1_455 S
C771 C770 1.369 1_655 S
C771 C772 1.398 . S
C771 C777 1.491 . S
C772 H763 0.950 . S
C772 C771 1.398 . S
C772 C773 1.391 . S
C773 H761 0.950 . S
C773 C769 1.393 . S
C773 C772 1.391 . S
C774 H764 0.950 . S
C774 C775 1.386 . S
C774 C776 1.391 . S
C775 C774 1.386 . S
C775 C779 1.393 1_655 S
C776 H765 0.950 . S
C776 C774 1.391 . S
C776 C777 1.400 . S
C777 C771 1.491 . S
C777 C776 1.400 . S
C777 C778 1.398 1_655 S
C778 H766 0.950 . S
C778 C777 1.398 1_455 S
C778 C779 1.391 . S
C779 H767 0.950 . S
C779 C775 1.393 1_455 S
C779 C778 1.391 . S
H780 C788 0.950 . S
H781 C793 0.950 . S
H782 C790 0.950 . S
H783 C792 0.950 . S
H784 C794 0.950 . S
H785 C796 0.950 . S
H786 C798 0.950 . S
H787 C799 0.950 . S
C788 H780 0.950 . S
C788 C789 1.386 . S
C788 C790 1.391 . S
C789 C788 1.386 . S
C789 C793 1.393 . S
C790 H782 0.950 . S
C790 C788 1.391 . S
C790 C791 1.400 . S
C791 C790 1.400 . S
C791 C792 1.398 . S
C791 C797 1.491 . S
C792 H783 0.950 . S
C792 C791 1.398 . S
C792 C793 1.391 . S
C793 H781 0.950 . S
C793 C789 1.393 . S
C793 C792 1.391 . S
C794 H784 0.950 . S
C794 C795 1.386 . S
C794 C796 1.391 . S
C795 C794 1.386 . S
C795 C799 1.393 . S
C796 H785 0.950 . S
C796 C794 1.391 . S
C796 C797 1.400 . S
C797 C791 1.491 . S
C797 C796 1.400 . S
C797 C798 1.398 . S
C798 H786 0.950 . S
C798 C797 1.398 . S
C798 C799 1.391 . S
C799 H787 0.950 . S
C799 C795 1.393 . S
C799 C798 1.391 . S
H800 C808 0.950 . S
H801 C813 0.950 . S
H802 C810 0.950 . S
H803 C812 0.950 . S
H804 C814 0.950 . S
H805 C816 0.950 . S
H806 C818 0.950 . S
H807 C819 0.950 . S
C808 H800 0.950 . S
C808 C809 1.386 . S
C808 C810 1.391 . S
C809 C808 1.386 . S
C809 C813 1.393 . S
C810 H802 0.950 . S
C810 C808 1.391 . S
C810 C811 1.400 . S
C811 C810 1.400 . S
C811 C812 1.398 . S
C811 C817 1.491 . S
C812 H803 0.950 . S
C812 C811 1.398 . S
C812 C813 1.391 . S
C813 H801 0.950 . S
C813 C809 1.393 . S
C813 C812 1.391 . S
C814 H804 0.950 . S
C814 C815 1.386 . S
C814 C816 1.391 . S
C815 C814 1.386 . S
C815 C819 1.393 . S
C816 H805 0.950 . S
C816 C814 1.391 . S
C816 C817 1.400 . S
C817 C811 1.491 . S
C817 C816 1.400 . S
C817 C818 1.398 . S
C818 H806 0.950 . S
C818 C817 1.398 . S
C818 C819 1.391 . S
C819 H807 0.950 . S
C819 C815 1.393 . S
C819 C818 1.391 . S
H820 C828 0.950 . S
H821 C833 0.950 . S
H822 C830 0.950 . S
H823 C832 0.950 . S
H824 C834 0.950 . S
H825 C836 0.950 . S
H826 C838 0.999 . S
H827 C839 0.950 1_556 S
C828 H820 0.950 . S
C828 C829 1.386 1_565 S
C828 C830 1.391 . S
C829 C828 1.386 1_545 S
C829 C833 1.393 1_556 S
C830 H822 0.950 . S
C830 C828 1.391 . S
C830 C831 1.400 1_556 S
C831 C830 1.400 1_554 S
C831 C832 1.398 . S
C831 C837 1.491 . S
C832 H823 0.950 . S
C832 C831 1.398 . S
C832 C833 1.391 1_565 S
C833 H821 0.950 . S
C833 C829 1.393 1_554 S
C833 C832 1.391 1_545 S
C834 H824 0.950 . S
C834 C835 1.386 . S
C834 C836 1.391 . S
C835 C834 1.386 . S
C835 C839 1.393 . S
C836 H825 0.950 . S
C836 C834 1.391 . S
C836 C837 1.400 . S
C837 C831 1.491 . S
C837 C836 1.400 . S
C837 C838 1.377 1_554 S
C838 H826 0.999 . S
C838 C837 1.377 1_556 S
C838 C839 1.366 1_556 S
C839 H827 0.950 1_554 S
C839 C835 1.393 . S
C839 C838 1.366 1_554 S
H840 C848 0.950 . S
H841 C853 0.950 . S
H842 C850 0.950 . S
H843 C852 0.950 . S
H844 C854 0.950 . S
H845 C856 0.950 . S
H846 C858 0.950 . S
H847 C859 0.950 . S
C848 H840 0.950 . S
C848 C849 1.386 . S
C848 C850 1.391 . S
C849 C848 1.386 . S
C849 C853 1.393 . S
C850 H842 0.950 . S
C850 C848 1.391 . S
C850 C851 1.400 . S
C851 C850 1.400 . S
C851 C852 1.398 . S
C851 C857 1.491 . S
C852 H843 0.950 . S
C852 C851 1.398 . S
C852 C853 1.391 . S
C853 H841 0.950 . S
C853 C849 1.393 . S
C853 C852 1.391 . S
C854 H844 0.950 . S
C854 C855 1.386 . S
C854 C856 1.391 . S
C855 C854 1.386 . S
C855 C859 1.393 . S
C856 H845 0.950 . S
C856 C854 1.391 . S
C856 C857 1.400 . S
C857 C851 1.491 . S
C857 C856 1.400 . S
C857 C858 1.398 . S
C858 H846 0.950 . S
C858 C857 1.398 . S
C858 C859 1.391 . S
C859 H847 0.950 . S
C859 C855 1.393 . S
C859 C858 1.391 . S
H860 C868 0.950 . S
H861 C873 0.950 1_565 S
H862 C870 0.950 . S
H863 C872 0.950 . S
H864 C874 0.950 . S
H865 C876 0.950 . S
H866 C878 0.950 . S
H867 C879 0.950 . S
C868 H860 0.950 . S
C868 C869 1.386 . S
C868 C870 1.391 . S
C869 C868 1.386 . S
C869 C873 1.393 . S
C870 H862 0.950 . S
C870 C868 1.391 . S
C870 C871 1.400 . S
C871 C870 1.400 . S
C871 C872 1.398 . S
C871 C877 1.491 . S
C872 H863 0.950 . S
C872 C871 1.398 . S
C872 C873 1.391 . S
C873 H861 0.950 1_545 S
C873 C869 1.393 . S
C873 C872 1.391 . S
C874 H864 0.950 . S
C874 C875 1.386 . S
C874 C876 1.391 . S
C875 C874 1.386 . S
C875 C879 1.393 . S
C876 H865 0.950 . S
C876 C874 1.391 . S
C876 C877 1.400 . S
C877 C871 1.491 . S
C877 C876 1.400 . S
C877 C878 1.398 . S
C878 H866 0.950 . S
C878 C877 1.398 . S
C878 C879 1.391 . S
C879 H867 0.950 . S
C879 C875 1.393 . S
C879 C878 1.391 . S
H880 C888 0.950 . S
H881 C893 0.950 . S
H882 C890 0.950 . S
H883 C892 0.950 . S
H884 C894 0.950 . S
H885 C896 0.950 . S
H886 C898 0.950 . S
H887 C899 0.950 . S
C888 H880 0.950 . S
C888 C889 1.386 . S
C888 C890 1.391 . S
C889 C888 1.386 . S
C889 C893 1.393 . S
C890 H882 0.950 . S
C890 C888 1.391 . S
C890 C891 1.400 . S
C891 C890 1.400 . S
C891 C892 1.398 . S
C891 C897 1.491 . S
C892 H883 0.950 . S
C892 C891 1.398 . S
C892 C893 1.391 . S
C893 H881 0.950 . S
C893 C889 1.393 . S
C893 C892 1.391 . S
C894 H884 0.950 . S
C894 C895 1.386 . S
C894 C896 1.391 . S
C895 C894 1.386 . S
C895 C899 1.393 . S
C896 H885 0.950 . S
C896 C894 1.391 . S
C896 C897 1.400 . S
C897 C891 1.491 . S
C897 C896 1.400 . S
C897 C898 1.398 . S
C898 H886 0.950 . S
C898 C897 1.398 . S
C898 C899 1.391 . S
C899 H887 0.950 . S
C899 C895 1.393 . S
C899 C898 1.391 . S
H900 C908 0.950 1_565 S
H901 C913 0.950 . S
H902 C910 0.950 . S
H903 C912 0.950 . S
H904 C914 0.950 . S
H905 C916 0.950 . S
H906 C918 0.950 . S
H907 C919 0.950 . S
C908 H900 0.950 1_545 S
C908 C909 1.386 . S
C908 C910 1.391 . S
C909 C908 1.386 . S
C909 C913 1.393 . S
C910 H902 0.950 . S
C910 C908 1.391 . S
C910 C911 1.400 . S
C911 C910 1.400 . S
C911 C912 1.398 . S
C911 C917 1.491 . S
C912 H903 0.950 . S
C912 C911 1.398 . S
C912 C913 1.391 . S
C913 H901 0.950 . S
C913 C909 1.393 . S
C913 C912 1.391 . S
C914 H904 0.950 . S
C914 C915 1.386 . S
C914 C916 1.391 . S
C915 C914 1.386 . S
C915 C919 1.393 . S
C916 H905 0.950 . S
C916 C914 1.391 . S
C916 C917 1.400 . S
C917 C911 1.491 . S
C917 C916 1.400 . S
C917 C918 1.398 . S
C918 H906 0.950 . S
C918 C917 1.398 . S
C918 C919 1.391 . S
C919 H907 0.950 . S
C919 C915 1.393 . S
C919 C918 1.391 . S
H920 C928 0.950 . S
H921 C933 0.950 . S
H922 C930 0.950 . S
H923 C932 0.950 . S
H924 C934 0.950 . S
H925 C936 0.950 . S
H926 C938 0.950 . S
H927 C939 0.950 . S
C928 H920 0.950 . S
C928 C929 1.386 . S
C928 C930 1.391 . S
C929 C928 1.386 . S
C929 C933 1.393 . S
C930 H922 0.950 . S
C930 C928 1.391 . S
C930 C931 1.400 . S
C931 C930 1.400 . S
C931 C932 1.398 . S
C931 C937 1.491 . S
C932 H923 0.950 . S
C932 C931 1.398 . S
C932 C933 1.391 . S
C933 H921 0.950 . S
C933 C929 1.393 . S
C933 C932 1.391 . S
C934 H924 0.950 . S
C934 C935 1.386 . S
C934 C936 1.391 . S
C935 C934 1.386 . S
C935 C939 1.393 . S
C936 H925 0.950 . S
C936 C934 1.391 . S
C936 C937 1.400 . S
C937 C931 1.491 . S
C937 C936 1.400 . S
C937 C938 1.398 . S
C938 H926 0.950 . S
C938 C937 1.398 . S
C938 C939 1.391 . S
C939 H927 0.950 . S
C939 C935 1.393 . S
C939 C938 1.391 . S
H940 C948 0.950 . S
H941 C953 0.950 . S
H942 C950 0.950 . S
H943 C952 0.950 . S
H944 C954 0.950 . S
H945 C956 0.950 . S
H946 C958 0.950 . S
H947 C959 0.950 . S
C948 H940 0.950 . S
C948 C949 1.386 . S
C948 C950 1.391 . S
C949 C948 1.386 . S
C949 C953 1.393 . S
C950 H942 0.950 . S
C950 C948 1.391 . S
C950 C951 1.400 . S
C951 C950 1.400 . S
C951 C952 1.398 . S
C951 C957 1.491 . S
C952 H943 0.950 . S
C952 C951 1.398 . S
C952 C953 1.391 . S
C953 H941 0.950 . S
C953 C949 1.393 . S
C953 C952 1.391 . S
C954 H944 0.950 . S
C954 C955 1.386 . S
C954 C956 1.391 . S
C955 C954 1.386 . S
C955 C959 1.393 . S
C956 H945 0.950 . S
C956 C954 1.391 . S
C956 C957 1.400 . S
C957 C951 1.491 . S
C957 C956 1.400 . S
C957 C958 1.398 . S
C958 H946 0.950 . S
C958 C957 1.398 . S
C958 C959 1.391 . S
C959 H947 0.950 . S
C959 C955 1.393 . S
C959 C958 1.391 . S
H960 C968 0.950 . S
H961 C973 0.950 . S
H962 C970 0.950 . S
H963 C972 0.950 . S
H964 C974 0.950 . S
H965 C976 0.950 . S
H966 C978 0.950 . S
H967 C979 0.950 1_565 S
C968 H960 0.950 . S
C968 C969 1.386 . S
C968 C970 1.391 . S
C969 C968 1.386 . S
C969 C973 1.393 . S
C970 H962 0.950 . S
C970 C968 1.391 . S
C970 C971 1.400 . S
C971 C970 1.400 . S
C971 C972 1.398 . S
C971 C977 1.491 . S
C972 H963 0.950 . S
C972 C971 1.398 . S
C972 C973 1.391 . S
C973 H961 0.950 . S
C973 C969 1.393 . S
C973 C972 1.391 . S
C974 H964 0.950 . S
C974 C975 1.386 . S
C974 C976 1.391 . S
C975 C974 1.386 . S
C975 C979 1.393 . S
C976 H965 0.950 . S
C976 C974 1.391 . S
C976 C977 1.400 . S
C977 C971 1.491 . S
C977 C976 1.400 . S
C977 C978 1.398 . S
C978 H966 0.950 . S
C978 C977 1.398 . S
C978 C979 1.391 . S
C979 H967 0.950 1_545 S
C979 C975 1.393 . S
C979 C978 1.391 . S
H980 C988 0.950 . S
H981 C993 0.950 . S
H982 C990 0.950 . S
H983 C992 0.950 . S
H984 C994 0.950 . S
H985 C996 0.950 . S
H986 C998 0.950 . S
H987 C999 0.950 . S
C988 H980 0.950 . S
C988 C989 1.386 . S
C988 C990 1.391 . S
C989 C988 1.386 . S
C989 C993 1.393 . S
C990 H982 0.950 . S
C990 C988 1.391 . S
C990 C991 1.400 . S
C991 C990 1.400 . S
C991 C992 1.398 . S
C991 C997 1.491 . S
C992 H983 0.950 . S
C992 C991 1.398 . S
C992 C993 1.391 . S
C993 H981 0.950 . S
C993 C989 1.393 . S
C993 C992 1.391 . S
C994 H984 0.950 . S
C994 C995 1.386 . S
C994 C996 1.391 . S
C995 C994 1.386 . S
C995 C999 1.393 . S
C996 H985 0.950 . S
C996 C994 1.391 . S
C996 C997 1.400 . S
C997 C991 1.491 . S
C997 C996 1.400 . S
C997 C998 1.398 . S
C998 H986 0.950 . S
C998 C997 1.398 . S
C998 C999 1.391 . S
C999 H987 0.950 . S
C999 C995 1.393 . S
C999 C998 1.391 . S
H1000 C1008 0.950 . S
H1001 C1013 0.950 . S
H1002 C1010 0.950 . S
H1003 C1012 0.950 . S
H1004 C1014 0.950 . S
H1005 C1016 0.950 . S
H1006 C1018 0.950 . S
H1007 C1019 0.950 . S
C1008 H1000 0.950 . S
C1008 C1009 1.386 . S
C1008 C1010 1.391 . S
C1009 C1008 1.386 . S
C1009 C1013 1.393 . S
C1010 H1002 0.950 . S
C1010 C1008 1.391 . S
C1010 C1011 1.400 . S
C1011 C1010 1.400 . S
C1011 C1012 1.398 . S
C1011 C1017 1.491 . S
C1012 H1003 0.950 . S
C1012 C1011 1.398 . S
C1012 C1013 1.391 . S
C1013 H1001 0.950 . S
C1013 C1009 1.393 . S
C1013 C1012 1.391 . S
C1014 H1004 0.950 . S
C1014 C1015 1.386 . S
C1014 C1016 1.391 . S
C1015 C1014 1.386 . S
C1015 C1019 1.393 . S
C1016 H1005 0.950 . S
C1016 C1014 1.391 . S
C1016 C1017 1.400 . S
C1017 C1011 1.491 . S
C1017 C1016 1.400 . S
C1017 C1018 1.398 . S
C1018 H1006 0.950 . S
C1018 C1017 1.398 . S
C1018 C1019 1.391 . S
C1019 H1007 0.950 . S
C1019 C1015 1.393 . S
C1019 C1018 1.391 . S
H1020 C1028 0.950 . S
H1021 C1033 0.950 . S
H1022 C1030 0.950 . S
H1023 C1032 0.950 . S
H1024 C1034 0.950 . S
H1025 C1036 0.950 . S
H1026 C1038 0.950 . S
H1027 C1039 0.950 . S
C1028 H1020 0.950 . S
C1028 C1029 1.386 . S
C1028 C1030 1.391 . S
C1029 C1028 1.386 . S
C1029 C1033 1.393 . S
C1030 H1022 0.950 . S
C1030 C1028 1.391 . S
C1030 C1031 1.400 . S
C1031 C1030 1.400 . S
C1031 C1032 1.398 . S
C1031 C1037 1.491 . S
C1032 H1023 0.950 . S
C1032 C1031 1.398 . S
C1032 C1033 1.391 . S
C1033 H1021 0.950 . S
C1033 C1029 1.393 . S
C1033 C1032 1.391 . S
C1034 H1024 0.950 . S
C1034 C1035 1.386 . S
C1034 C1036 1.391 . S
C1035 C1034 1.386 . S
C1035 C1039 1.393 . S
C1036 H1025 0.950 . S
C1036 C1034 1.391 . S
C1036 C1037 1.400 . S
C1037 C1031 1.491 . S
C1037 C1036 1.400 . S
C1037 C1038 1.398 . S
C1038 H1026 0.950 . S
C1038 C1037 1.398 . S
C1038 C1039 1.391 . S
C1039 H1027 0.950 . S
C1039 C1035 1.393 . S
C1039 C1038 1.391 . S
H1040 C1048 0.950 1_655 S
H1041 C1053 0.950 . S
H1042 C1050 0.950 . S
H1043 C1052 0.950 . S
H1044 C1054 0.950 . S
H1045 C1056 0.950 . S
H1046 C1058 0.950 . S
H1047 C1059 0.950 . S
C1048 H1040 0.950 1_455 S
C1048 C1049 1.386 . S
C1048 C1050 1.391 1_455 S
C1049 C1048 1.386 . S
C1049 C1053 1.393 . S
C1050 H1042 0.950 . S
C1050 C1048 1.391 1_655 S
C1050 C1051 1.400 1_655 S
C1051 C1050 1.400 1_455 S
C1051 C1052 1.398 . S
C1051 C1057 1.491 . S
C1052 H1043 0.950 . S
C1052 C1051 1.398 . S
C1052 C1053 1.391 . S
C1053 H1041 0.950 . S
C1053 C1049 1.393 . S
C1053 C1052 1.391 . S
C1054 H1044 0.950 . S
C1054 C1055 1.386 1_455 S
C1054 C1056 1.391 . S
C1055 C1054 1.386 1_655 S
C1055 C1059 1.393 . S
C1056 H1045 0.950 . S
C1056 C1054 1.391 . S
C1056 C1057 1.400 . S
C1057 C1051 1.491 . S
C1057 C1056 1.400 . S
C1057 C1058 1.398 1_455 S
C1058 H1046 0.950 . S
C1058 C1057 1.398 1_655 S
C1058 C1059 1.391 . S
C1059 H1047 0.950 . S
C1059 C1055 1.393 . S
C1059 C1058 1.391 . S
H1060 C1068 0.950 . S
H1061 C1073 0.950 . S
H1062 C1070 0.950 . S
H1063 C1072 0.950 . S
H1064 C1074 0.950 . S
H1065 C1076 0.950 . S
H1066 C1078 0.950 . S
H1067 C1079 0.950 . S
C1068 H1060 0.950 . S
C1068 C1069 1.386 . S
C1068 C1070 1.391 . S
C1069 C1068 1.386 . S
C1069 C1073 1.393 . S
C1070 H1062 0.950 . S
C1070 C1068 1.391 . S
C1070 C1071 1.400 . S
C1071 C1070 1.400 . S
C1071 C1072 1.398 . S
C1071 C1077 1.491 . S
C1072 H1063 0.950 . S
C1072 C1071 1.398 . S
C1072 C1073 1.391 . S
C1073 H1061 0.950 . S
C1073 C1069 1.393 . S
C1073 C1072 1.391 . S
C1074 H1064 0.950 . S
C1074 C1075 1.386 . S
C1074 C1076 1.391 . S
C1075 C1074 1.386 . S
C1075 C1079 1.393 . S
C1076 H1065 0.950 . S
C1076 C1074 1.391 . S
C1076 C1077 1.400 . S
C1077 C1071 1.491 . S
C1077 C1076 1.400 . S
C1077 C1078 1.398 . S
C1078 H1066 0.950 . S
C1078 C1077 1.398 . S
C1078 C1079 1.391 . S
C1079 H1067 0.950 . S
C1079 C1075 1.393 . S
C1079 C1078 1.391 . S
H1080 C1088 0.950 . S
H1081 C1093 0.950 . S
H1082 C1090 0.950 . S
H1083 C1092 0.950 . S
H1084 C1094 0.950 . S
H1085 C1096 0.950 . S
H1086 C1098 0.950 . S
H1087 C1099 0.950 . S
C1088 H1080 0.950 . S
C1088 C1089 1.386 . S
C1088 C1090 1.391 . S
C1089 C1088 1.386 . S
C1089 C1093 1.393 . S
C1090 H1082 0.950 . S
C1090 C1088 1.391 . S
C1090 C1091 1.400 . S
C1091 C1090 1.400 . S
C1091 C1092 1.398 . S
C1091 C1097 1.491 . S
C1092 H1083 0.950 . S
C1092 C1091 1.398 . S
C1092 C1093 1.391 . S
C1093 H1081 0.950 . S
C1093 C1089 1.393 . S
C1093 C1092 1.391 . S
C1094 H1084 0.950 . S
C1094 C1095 1.386 . S
C1094 C1096 1.391 . S
C1095 C1094 1.386 . S
C1095 C1099 1.393 . S
C1096 H1085 0.950 . S
C1096 C1094 1.391 . S
C1096 C1097 1.400 . S
C1097 C1091 1.491 . S
C1097 C1096 1.400 . S
C1097 C1098 1.398 . S
C1098 H1086 0.950 . S
C1098 C1097 1.398 . S
C1098 C1099 1.391 . S
C1099 H1087 0.950 . S
C1099 C1095 1.393 . S
C1099 C1098 1.391 . S
H1100 C1108 0.950 . S
H1101 C1113 0.950 . S
H1102 C1110 0.950 . S
H1103 C1112 0.950 . S
H1104 C1114 0.950 . S
H1105 C1116 0.950 . S
H1106 C1118 0.950 . S
H1107 C1119 0.950 . S
C1108 H1100 0.950 . S
C1108 C1109 1.386 . S
C1108 C1110 1.391 . S
C1109 C1108 1.386 . S
C1109 C1113 1.393 . S
C1110 H1102 0.950 . S
C1110 C1108 1.391 . S
C1110 C1111 1.400 . S
C1111 C1110 1.400 . S
C1111 C1112 1.398 . S
C1111 C1117 1.491 . S
C1112 H1103 0.950 . S
C1112 C1111 1.398 . S
C1112 C1113 1.391 . S
C1113 H1101 0.950 . S
C1113 C1109 1.393 . S
C1113 C1112 1.391 . S
C1114 H1104 0.950 . S
C1114 C1115 1.386 . S
C1114 C1116 1.391 . S
C1115 C1114 1.386 . S
C1115 C1119 1.393 . S
C1116 H1105 0.950 . S
C1116 C1114 1.391 . S
C1116 C1117 1.400 . S
C1117 C1111 1.491 . S
C1117 C1116 1.400 . S
C1117 C1118 1.398 . S
C1118 H1106 0.950 . S
C1118 C1117 1.398 . S
C1118 C1119 1.391 . S
C1119 H1107 0.950 . S
C1119 C1115 1.393 . S
C1119 C1118 1.391 . S
H1120 C1128 0.950 . S
H1121 C1133 0.950 . S
H1122 C1130 0.950 . S
H1123 C1132 0.950 . S
H1124 C1134 0.950 . S
H1125 C1136 0.950 . S
H1126 C1138 0.950 . S
H1127 C1139 0.950 . S
C1128 H1120 0.950 . S
C1128 C1129 1.386 1_655 S
C1128 C1130 1.391 . S
C1129 C1128 1.386 1_455 S
C1129 C1133 1.393 . S
C1130 H1122 0.950 . S
C1130 C1128 1.391 . S
C1130 C1131 1.400 1_655 S
C1131 C1130 1.400 1_455 S
C1131 C1132 1.398 . S
C1131 C1137 1.491 . S
C1132 H1123 0.950 . S
C1132 C1131 1.398 . S
C1132 C1133 1.391 . S
C1133 H1121 0.950 . S
C1133 C1129 1.393 . S
C1133 C1132 1.391 . S
C1134 H1124 0.950 . S
C1134 C1135 1.386 . S
C1134 C1136 1.391 . S
C1135 C1134 1.386 . S
C1135 C1139 1.393 1_455 S
C1136 H1125 0.950 . S
C1136 C1134 1.391 . S
C1136 C1137 1.400 . S
C1137 C1131 1.491 . S
C1137 C1136 1.400 . S
C1137 C1138 1.398 1_455 S
C1138 H1126 0.950 . S
C1138 C1137 1.398 1_655 S
C1138 C1139 1.391 . S
C1139 H1127 0.950 . S
C1139 C1135 1.393 1_655 S
C1139 C1138 1.391 . S
H1140 C1148 0.950 . S
H1141 C1153 0.950 . S
H1142 C1150 0.950 . S
H1143 C1152 0.950 . S
H1144 C1154 0.950 . S
H1145 C1156 0.950 . S
H1146 C1158 0.950 . S
H1147 C1159 0.950 . S
C1148 H1140 0.950 . S
C1148 C1149 1.386 . S
C1148 C1150 1.391 . S
C1149 C1148 1.386 . S
C1149 C1153 1.393 . S
C1150 H1142 0.950 . S
C1150 C1148 1.391 . S
C1150 C1151 1.400 . S
C1151 C1150 1.400 . S
C1151 C1152 1.398 . S
C1151 C1157 1.491 . S
C1152 H1143 0.950 . S
C1152 C1151 1.398 . S
C1152 C1153 1.391 . S
C1153 H1141 0.950 . S
C1153 C1149 1.393 . S
C1153 C1152 1.391 . S
C1154 H1144 0.950 . S
C1154 C1155 1.386 . S
C1154 C1156 1.391 . S
C1155 C1154 1.386 . S
C1155 C1159 1.393 . S
C1156 H1145 0.950 . S
C1156 C1154 1.391 . S
C1156 C1157 1.400 . S
C1157 C1151 1.491 . S
C1157 C1156 1.400 . S
C1157 C1158 1.398 . S
C1158 H1146 0.950 . S
C1158 C1157 1.398 . S
C1158 C1159 1.391 . S
C1159 H1147 0.950 . S
C1159 C1155 1.393 . S
C1159 C1158 1.391 . S
H1160 C1168 0.950 . S
H1161 C1173 0.950 . S
H1162 C1170 0.950 . S
H1163 C1172 0.950 1_655 S
H1164 C1174 0.950 . S
H1165 C1176 0.956 . S
H1166 C1178 0.950 . S
H1167 C1179 0.950 . S
C1168 H1160 0.950 . S
C1168 C1169 1.386 . S
C1168 C1170 1.391 . S
C1169 C1168 1.386 . S
C1169 C1173 1.393 . S
C1170 H1162 0.950 . S
C1170 C1168 1.391 . S
C1170 C1171 1.400 . S
C1171 C1170 1.400 . S
C1171 C1172 1.398 . S
C1171 C1177 1.491 . S
C1172 H1163 0.950 1_455 S
C1172 C1171 1.398 . S
C1172 C1173 1.391 . S
C1173 H1161 0.950 . S
C1173 C1169 1.393 . S
C1173 C1172 1.391 . S
C1174 H1164 0.950 . S
C1174 C1175 1.386 1_655 S
C1174 C1176 1.393 . S
C1175 C1174 1.386 1_455 S
C1175 C1179 1.393 . S
C1176 H1165 0.956 . S
C1176 C1174 1.393 . S
C1176 C1177 1.392 1_655 S
C1177 C1171 1.491 . S
C1177 C1176 1.392 1_455 S
C1177 C1178 1.398 . S
C1178 H1166 0.950 . S
C1178 C1177 1.398 . S
C1178 C1179 1.391 . S
C1179 H1167 0.950 . S
C1179 C1175 1.393 . S
C1179 C1178 1.391 . S
H1180 C1188 0.950 . S
H1181 C1193 0.950 . S
H1182 C1190 0.950 . S
H1183 C1192 0.950 . S
H1184 C1194 0.950 . S
H1185 C1196 0.950 . S
H1186 C1198 0.950 . S
H1187 C1199 0.950 . S
C1188 H1180 0.950 . S
C1188 C1189 1.386 . S
C1188 C1190 1.391 . S
C1189 C1188 1.386 . S
C1189 C1193 1.393 . S
C1190 H1182 0.950 . S
C1190 C1188 1.391 . S
C1190 C1191 1.400 . S
C1191 C1190 1.400 . S
C1191 C1192 1.398 . S
C1191 C1197 1.491 . S
C1192 H1183 0.950 . S
C1192 C1191 1.398 . S
C1192 C1193 1.391 . S
C1193 H1181 0.950 . S
C1193 C1189 1.393 . S
C1193 C1192 1.391 . S
C1194 H1184 0.950 . S
C1194 C1195 1.386 . S
C1194 C1196 1.391 . S
C1195 C1194 1.386 . S
C1195 C1199 1.393 . S
C1196 H1185 0.950 . S
C1196 C1194 1.391 . S
C1196 C1197 1.400 . S
C1197 C1191 1.491 . S
C1197 C1196 1.400 . S
C1197 C1198 1.398 . S
C1198 H1186 0.950 . S
C1198 C1197 1.398 . S
C1198 C1199 1.391 . S
C1199 H1187 0.950 . S
C1199 C1195 1.393 . S
C1199 C1198 1.391 . S
H1200 C1208 0.950 . S
H1201 C1213 0.950 . S
H1202 C1210 0.950 . S
H1203 C1212 0.950 . S
H1204 C1214 0.950 . S
H1205 C1216 0.950 . S
H1206 C1218 0.950 . S
H1207 C1219 0.950 . S
C1208 H1200 0.950 . S
C1208 C1209 1.386 . S
C1208 C1210 1.391 . S
C1209 C1208 1.386 . S
C1209 C1213 1.393 . S
C1210 H1202 0.950 . S
C1210 C1208 1.391 . S
C1210 C1211 1.400 . S
C1211 C1210 1.400 . S
C1211 C1212 1.398 . S
C1211 C1217 1.491 . S
C1212 H1203 0.950 . S
C1212 C1211 1.398 . S
C1212 C1213 1.391 . S
C1213 H1201 0.950 . S
C1213 C1209 1.393 . S
C1213 C1212 1.391 . S
C1214 H1204 0.950 . S
C1214 C1215 1.386 . S
C1214 C1216 1.391 . S
C1215 C1214 1.386 . S
C1215 C1219 1.393 . S
C1216 H1205 0.950 . S
C1216 C1214 1.391 . S
C1216 C1217 1.400 . S
C1217 C1211 1.491 . S
C1217 C1216 1.400 . S
C1217 C1218 1.398 . S
C1218 H1206 0.950 . S
C1218 C1217 1.398 . S
C1218 C1219 1.391 . S
C1219 H1207 0.950 . S
C1219 C1215 1.393 . S
C1219 C1218 1.391 . S
H1220 C1228 0.950 . S
H1221 C1233 0.950 . S
H1222 C1230 0.950 . S
H1223 C1232 0.950 . S
H1224 C1234 0.950 . S
H1225 C1236 0.950 . S
H1226 C1238 0.950 . S
H1227 C1239 0.950 . S
C1228 H1220 0.950 . S
C1228 C1229 1.386 . S
C1228 C1230 1.391 . S
C1229 C1228 1.386 . S
C1229 C1233 1.393 . S
C1230 H1222 0.950 . S
C1230 C1228 1.391 . S
C1230 C1231 1.400 . S
C1231 C1230 1.400 . S
C1231 C1232 1.398 . S
C1231 C1237 1.491 . S
C1232 H1223 0.950 . S
C1232 C1231 1.398 . S
C1232 C1233 1.391 . S
C1233 H1221 0.950 . S
C1233 C1229 1.393 . S
C1233 C1232 1.391 . S
C1234 H1224 0.950 . S
C1234 C1235 1.386 . S
C1234 C1236 1.391 . S
C1235 C1234 1.386 . S
C1235 C1239 1.393 . S
C1236 H1225 0.950 . S
C1236 C1234 1.391 . S
C1236 C1237 1.400 . S
C1237 C1231 1.491 . S
C1237 C1236 1.400 . S
C1237 C1238 1.398 . S
C1238 H1226 0.950 . S
C1238 C1237 1.398 . S
C1238 C1239 1.391 . S
C1239 H1227 0.950 . S
C1239 C1235 1.393 . S
C1239 C1238 1.391 . S
H1240 C1248 0.950 . S
H1241 C1253 0.931 1_556 S
H1242 C1250 0.950 . S
H1243 C1252 0.950 . S
H1244 C1254 0.950 . S
H1245 C1256 0.950 . S
H1246 C1258 0.950 . S
H1247 C1259 0.950 . S
C1248 H1240 0.950 . S
C1248 C1249 1.386 1_554 S
C1248 C1250 1.391 . S
C1249 C1248 1.386 1_556 S
C1249 C1253 1.394 1_556 S
C1250 H1242 0.950 . S
C1250 C1248 1.391 . S
C1250 C1251 1.400 . S
C1251 C1250 1.400 . S
C1251 C1252 1.398 . S
C1251 C1257 1.491 . S
C1252 H1243 0.950 . S
C1252 C1251 1.398 . S
C1252 C1253 1.409 . S
C1253 H1241 0.931 1_554 S
C1253 C1249 1.394 1_554 S
C1253 C1252 1.409 . S
C1254 H1244 0.950 . S
C1254 C1255 1.386 . S
C1254 C1256 1.391 . S
C1255 C1254 1.386 . S
C1255 C1259 1.393 . S
C1256 H1245 0.950 . S
C1256 C1254 1.391 . S
C1256 C1257 1.400 . S
C1257 C1251 1.491 . S
C1257 C1256 1.400 . S
C1257 C1258 1.398 . S
C1258 H1246 0.950 . S
C1258 C1257 1.398 . S
C1258 C1259 1.391 . S
C1259 H1247 0.950 . S
C1259 C1255 1.393 . S
C1259 C1258 1.391 . S
H1260 C1268 0.950 . S
H1261 C1273 0.950 . S
H1262 C1270 0.950 . S
H1263 C1272 0.950 . S
H1264 C1274 0.950 . S
H1265 C1276 0.950 . S
H1266 C1278 0.950 . S
H1267 C1279 0.950 . S
C1268 H1260 0.950 . S
C1268 C1269 1.386 . S
C1268 C1270 1.391 . S
C1269 C1268 1.386 . S
C1269 C1273 1.393 . S
C1270 H1262 0.950 . S
C1270 C1268 1.391 . S
C1270 C1271 1.400 . S
C1271 C1270 1.400 . S
C1271 C1272 1.398 . S
C1271 C1277 1.491 . S
C1272 H1263 0.950 . S
C1272 C1271 1.398 . S
C1272 C1273 1.391 . S
C1273 H1261 0.950 . S
C1273 C1269 1.393 . S
C1273 C1272 1.391 . S
C1274 H1264 0.950 . S
C1274 C1275 1.386 . S
C1274 C1276 1.391 . S
C1275 C1274 1.386 . S
C1275 C1279 1.393 . S
C1276 H1265 0.950 . S
C1276 C1274 1.391 . S
C1276 C1277 1.400 . S
C1277 C1271 1.491 . S
C1277 C1276 1.400 . S
C1277 C1278 1.398 . S
C1278 H1266 0.950 . S
C1278 C1277 1.398 . S
C1278 C1279 1.391 . S
C1279 H1267 0.950 . S
C1279 C1275 1.393 . S
C1279 C1278 1.391 . S
H1280 C1288 0.950 . S
H1281 C1293 0.950 . S
H1282 C1290 0.950 . S
H1283 C1292 0.950 . S
H1284 C1294 0.950 . S
H1285 C1296 0.950 . S
H1286 C1298 0.950 . S
H1287 C1299 0.950 . S
C1288 H1280 0.950 . S
C1288 C1289 1.386 . S
C1288 C1290 1.391 . S
C1289 C1288 1.386 . S
C1289 C1293 1.393 . S
C1290 H1282 0.950 . S
C1290 C1288 1.391 . S
C1290 C1291 1.400 . S
C1291 C1290 1.400 . S
C1291 C1292 1.398 . S
C1291 C1297 1.491 . S
C1292 H1283 0.950 . S
C1292 C1291 1.398 . S
C1292 C1293 1.391 . S
C1293 H1281 0.950 . S
C1293 C1289 1.393 . S
C1293 C1292 1.391 . S
C1294 H1284 0.950 . S
C1294 C1295 1.386 . S
C1294 C1296 1.391 . S
C1295 C1294 1.386 . S
C1295 C1299 1.393 . S
C1296 H1285 0.950 . S
C1296 C1294 1.391 . S
C1296 C1297 1.400 . S
C1297 C1291 1.491 . S
C1297 C1296 1.400 . S
C1297 C1298 1.398 . S
C1298 H1286 0.950 . S
C1298 C1297 1.398 . S
C1298 C1299 1.391 . S
C1299 H1287 0.950 . S
C1299 C1295 1.393 . S
C1299 C1298 1.391 . S
H1300 C1308 0.950 . S
H1301 C1313 0.950 . S
H1302 C1310 0.950 . S
H1303 C1312 0.950 . S
H1304 C1314 0.950 . S
H1305 C1316 0.950 . S
H1306 C1318 0.950 . S
H1307 C1319 0.950 . S
C1308 H1300 0.950 . S
C1308 C1309 1.386 . S
C1308 C1310 1.391 . S
C1309 C1308 1.386 . S
C1309 C1313 1.393 . S
C1310 H1302 0.950 . S
C1310 C1308 1.391 . S
C1310 C1311 1.400 . S
C1311 C1310 1.400 . S
C1311 C1312 1.398 . S
C1311 C1317 1.491 . S
C1312 H1303 0.950 . S
C1312 C1311 1.398 . S
C1312 C1313 1.391 . S
C1313 H1301 0.950 . S
C1313 C1309 1.393 . S
C1313 C1312 1.391 . S
C1314 H1304 0.950 . S
C1314 C1315 1.386 . S
C1314 C1316 1.391 . S
C1315 C1314 1.386 . S
C1315 C1319 1.393 . S
C1316 H1305 0.950 . S
C1316 C1314 1.391 . S
C1316 C1317 1.400 . S
C1317 C1311 1.491 . S
C1317 C1316 1.400 . S
C1317 C1318 1.398 . S
C1318 H1306 0.950 . S
C1318 C1317 1.398 . S
C1318 C1319 1.391 . S
C1319 H1307 0.950 . S
C1319 C1315 1.393 . S
C1319 C1318 1.391 . S
H1320 C1328 0.950 . S
H1321 C1333 0.950 . S
H1322 C1330 0.950 . S
H1323 C1332 0.950 . S
H1324 C1334 0.950 . S
H1325 C1336 0.950 . S
H1326 C1338 0.950 . S
H1327 C1339 0.950 . S
C1328 H1320 0.950 . S
C1328 C1329 1.386 . S
C1328 C1330 1.391 . S
C1329 C1328 1.386 . S
C1329 C1333 1.393 . S
C1330 H1322 0.950 . S
C1330 C1328 1.391 . S
C1330 C1331 1.400 . S
C1331 C1330 1.400 . S
C1331 C1332 1.398 . S
C1331 C1337 1.491 . S
C1332 H1323 0.950 . S
C1332 C1331 1.398 . S
C1332 C1333 1.391 . S
C1333 H1321 0.950 . S
C1333 C1329 1.393 . S
C1333 C1332 1.391 . S
C1334 H1324 0.950 . S
C1334 C1335 1.386 . S
C1334 C1336 1.391 . S
C1335 C1334 1.386 . S
C1335 C1339 1.393 . S
C1336 H1325 0.950 . S
C1336 C1334 1.391 . S
C1336 C1337 1.400 . S
C1337 C1331 1.491 . S
C1337 C1336 1.400 . S
C1337 C1338 1.398 . S
C1338 H1326 0.950 . S
C1338 C1337 1.398 . S
C1338 C1339 1.391 . S
C1339 H1327 0.950 . S
C1339 C1335 1.393 . S
C1339 C1338 1.391 . S
H1340 C1348 0.950 . S
H1341 C1353 0.950 . S
H1342 C1350 0.950 . S
H1343 C1352 0.950 . S
H1344 C1354 0.950 . S
H1345 C1356 0.950 . S
H1346 C1358 0.950 . S
H1347 C1359 0.950 . S
C1348 H1340 0.950 . S
C1348 C1349 1.386 . S
C1348 C1350 1.391 . S
C1349 C1348 1.386 . S
C1349 C1353 1.393 1_556 S
C1350 H1342 0.950 . S
C1350 C1348 1.391 . S
C1350 C1351 1.400 . S
C1351 C1350 1.400 . S
C1351 C1352 1.398 1_556 S
C1351 C1357 1.491 . S
C1352 H1343 0.950 . S
C1352 C1351 1.398 1_554 S
C1352 C1353 1.391 . S
C1353 H1341 0.950 . S
C1353 C1349 1.393 1_554 S
C1353 C1352 1.391 . S
C1354 H1344 0.950 . S
C1354 C1355 1.386 1_554 S
C1354 C1356 1.391 . S
C1355 C1354 1.386 1_556 S
C1355 C1359 1.393 . S
C1356 H1345 0.950 . S
C1356 C1354 1.391 . S
C1356 C1357 1.400 1_554 S
C1357 C1351 1.491 . S
C1357 C1356 1.400 1_556 S
C1357 C1358 1.398 . S
C1358 H1346 0.950 . S
C1358 C1357 1.398 . S
C1358 C1359 1.391 . S
C1359 H1347 0.950 . S
C1359 C1355 1.393 . S
C1359 C1358 1.391 . S
H1360 C1368 0.950 . S
H1361 C1373 0.950 . S
H1362 C1370 0.950 . S
H1363 C1372 0.950 . S
H1364 C1374 0.950 . S
H1365 C1376 0.950 . S
H1366 C1378 0.950 . S
H1367 C1379 0.950 . S
C1368 H1360 0.950 . S
C1368 C1369 1.386 . S
C1368 C1370 1.391 . S
C1369 C1368 1.386 . S
C1369 C1373 1.393 . S
C1370 H1362 0.950 . S
C1370 C1368 1.391 . S
C1370 C1371 1.400 . S
C1371 C1370 1.400 . S
C1371 C1372 1.398 . S
C1371 C1377 1.491 . S
C1372 H1363 0.950 . S
C1372 C1371 1.398 . S
C1372 C1373 1.391 . S
C1373 H1361 0.950 . S
C1373 C1369 1.393 . S
C1373 C1372 1.391 . S
C1374 H1364 0.950 . S
C1374 C1375 1.386 . S
C1374 C1376 1.391 . S
C1375 C1374 1.386 . S
C1375 C1379 1.393 . S
C1376 H1365 0.950 . S
C1376 C1374 1.391 . S
C1376 C1377 1.400 . S
C1377 C1371 1.491 . S
C1377 C1376 1.400 . S
C1377 C1378 1.398 . S
C1378 H1366 0.950 . S
C1378 C1377 1.398 . S
C1378 C1379 1.391 . S
C1379 H1367 0.950 . S
C1379 C1375 1.393 . S
C1379 C1378 1.391 . S
H1380 C1388 0.950 1_556 S
H1381 C1393 0.950 . S
H1382 C1390 0.950 1_556 S
H1383 C1392 0.950 . S
H1384 C1394 0.950 . S
H1385 C1396 0.950 . S
H1386 C1398 0.950 . S
H1387 C1399 0.950 . S
C1388 H1380 0.950 1_554 S
C1388 C1389 1.386 . S
C1388 C1390 1.391 . S
C1389 C1388 1.386 . S
C1389 C1393 1.393 . S
C1390 H1382 0.950 1_554 S
C1390 C1388 1.391 . S
C1390 C1391 1.400 . S
C1391 C1390 1.400 . S
C1391 C1392 1.398 . S
C1391 C1397 1.491 . S
C1392 H1383 0.950 . S
C1392 C1391 1.398 . S
C1392 C1393 1.391 . S
C1393 H1381 0.950 . S
C1393 C1389 1.393 . S
C1393 C1392 1.391 . S
C1394 H1384 0.950 . S
C1394 C1395 1.386 . S
C1394 C1396 1.391 . S
C1395 C1394 1.386 . S
C1395 C1399 1.393 1_554 S
C1396 H1385 0.950 . S
C1396 C1394 1.391 . S
C1396 C1397 1.400 . S
C1397 C1391 1.491 . S
C1397 C1396 1.400 . S
C1397 C1398 1.398 1_554 S
C1398 H1386 0.950 . S
C1398 C1397 1.398 1_556 S
C1398 C1399 1.391 . S
C1399 H1387 0.950 . S
C1399 C1395 1.393 1_556 S
C1399 C1398 1.391 . S
H1400 C1408 0.950 . S
H1401 C1413 0.950 . S
H1402 C1410 0.950 . S
H1403 C1412 0.950 1_545 S
H1404 C1414 0.950 . S
H1405 C1416 0.950 . S
H1406 C1418 0.950 . S
H1407 C1419 0.950 . S
C1408 H1400 0.950 . S
C1408 C1409 1.370 1_565 S
C1408 C1410 1.391 . S
C1409 C1408 1.370 1_545 S
C1409 C1413 1.395 . S
C1410 H1402 0.950 . S
C1410 C1408 1.391 . S
C1410 C1411 1.400 . S
C1411 C1410 1.400 . S
C1411 C1412 1.398 . S
C1411 C1417 1.491 . S
C1412 H1403 0.950 1_565 S
C1412 C1411 1.398 . S
C1412 C1413 1.391 1_565 S
C1413 H1401 0.950 . S
C1413 C1409 1.395 . S
C1413 C1412 1.391 1_545 S
C1414 H1404 0.950 . S
C1414 C1415 1.386 . S
C1414 C1416 1.391 . S
C1415 C1414 1.386 . S
C1415 C1419 1.393 . S
C1416 H1405 0.950 . S
C1416 C1414 1.391 . S
C1416 C1417 1.400 . S
C1417 C1411 1.491 . S
C1417 C1416 1.400 . S
C1417 C1418 1.398 . S
C1418 H1406 0.950 . S
C1418 C1417 1.398 . S
C1418 C1419 1.391 . S
C1419 H1407 0.950 . S
C1419 C1415 1.393 . S
C1419 C1418 1.391 . S
C475 C314 1.820 1_556 S
C469 C101 1.834 . S
C495 C327 1.192 . S
C489 C125 1.135 . S
C509 C139 1.974 . S
C515 C340 1.937 . S
C535 C353 1.773 . S
C529 C82 1.811 . S
C555 C361 1.530 . S
C549 C196 1.549 . S
C575 C374 1.756 . S
C569 C234 1.778 . S
C589 C220 0.846 . S
C595 C387 0.877 . S
C615 C400 1.666 1_565 S
C609 C173 1.672 . S
C629 C211 1.070 . S
C635 C418 1.035 . S
C655 C429 1.089 . S
C649 C182 1.029 . S
C669 C201 1.230 . S
C675 C413 1.343 . S
C695 C421 1.342 . S
C689 C239 1.226 . S
C709 C135 1.646 . S
C715 C444 1.652 . S
C729 C87 1.768 . S
C735 C434 1.899 . S
C749 C106 1.205 . S
C755 C439 1.333 . S
C769 C116 1.283 . S
C775 C442 1.272 . S
C789 C59 1.840 . S
C795 C351 1.812 . S
C809 C268 2.155 . S
C815 C343 2.162 . S
C835 C312 1.289 . S
C829 C291 1.286 . S
C855 C317 1.432 . S
C849 C163 1.368 . S
C869 C78 2.076 1_545 S
C875 C364 2.044 . S
C895 C403 1.198 . S
C889 C215 1.208 . S
C915 C356 1.612 . S
C909 C177 1.617 1_545 S
C935 C382 1.723 . S
C929 C230 1.772 . S
C955 C392 1.820 . S
C949 C272 1.832 . S
C969 C296 1.091 . S
C975 C405 1.178 . S
C989 C158 1.972 . S
C995 C366 1.929 . S
C1015 C379 1.771 . S
C1009 C253 1.812 . S
C1029 C63 1.549 . S
C1035 C335 1.511 . S
C1055 C348 1.761 . S
C1049 C6 1.777 . S
C1075 C309 0.906 . S
C1069 C30 0.847 . S
C1095 C322 1.668 . S
C1089 C40 1.671 . S
C1109 C21 1.077 . S
C1115 C431 1.067 . S
C1129 C49 1.029 . S
C1135 C416 1.092 . S
C1149 C68 1.256 . S
C1155 C426 1.363 . S
C1169 C11 1.264 1_556 S
C1175 C408 1.342 . S
C1195 C457 1.646 . S
C1189 C154 1.647 . S
C1215 C447 1.910 . S
C1209 C258 1.782 . S
C1235 C452 1.314 . S
C1229 C277 1.176 . S
C1249 C287 1.286 . S
C1255 C455 1.279 . S
C1269 C192 1.839 . S
C1275 C377 1.818 . S
C1295 C369 2.162 . S
C1289 C97 2.156 . S
C1315 C390 1.284 . S
C1309 C120 1.284 . S
C1335 C395 1.422 . S
C1329 C144 1.350 . S
C1349 C249 2.068 . S
C1355 C338 2.051 . S
C1375 C325 1.200 . S
C1369 C25 1.208 . S
C1389 C44 1.617 . S
C1395 C330 1.608 1_554 S
C1415 C304 1.731 . S
C1409 C2 1.790 . S
