# Generated by pormake.
# Topology pyr, (3,6)-cn, num edge types: 1
# Building blocks:
#     Node 0, Type 0, BuildingBlock: BELTOD_clean_linker_0, # of connection points: 3
#     Node 1, Type 0, BuildingBlock: BELTOD_clean_linker_0, # of connection points: 3
#     Node 2, Type 0, BuildingBlock: BELTOD_clean_linker_0, # of connection points: 3
#     Node 3, Type 0, BuildingBlock: BELTOD_clean_linker_0, # of connection points: 3
#     Node 4, Type 0, BuildingBlock: BELTOD_clean_linker_0, # of connection points: 3
#     Node 5, Type 0, BuildingBlock: BELTOD_clean_linker_0, # of connection points: 3
#     Node 6, Type 0, BuildingBlock: BELTOD_clean_linker_0, # of connection points: 3
#     Node 7, Type 0, BuildingBlock: BELTOD_clean_linker_0, # of connection points: 3
#     Node 8, Type 1, BuildingBlock: VOLQOD_clean_sbu_1, # of connection points: 6
#     Node 9, Type 1, BuildingBlock: VOLQOD_clean_sbu_1, # of connection points: 6
#     Node 10, Type 1, BuildingBlock: VOLQOD_clean_sbu_1, # of connection points: 6
#     Node 11, Type 1, BuildingBlock: VOLQOD_clean_sbu_1, # of connection points: 6
#     Edge 12, Type (0, 1), BuildingBlock: XUDNAN_clean_linker_2, # of connection points: 2
#     Edge 13, Type (0, 1), BuildingBlock: XUDNAN_clean_linker_2, # of connection points: 2
#     Edge 14, Type (0, 1), BuildingBlock: XUDNAN_clean_linker_2, # of connection points: 2
#     Edge 15, Type (0, 1), BuildingBlock: XUDNAN_clean_linker_2, # of connection points: 2
#     Edge 16, Type (0, 1), BuildingBlock: XUDNAN_clean_linker_2, # of connection points: 2
#     Edge 17, Type (0, 1), BuildingBlock: XUDNAN_clean_linker_2, # of connection points: 2
#     Edge 18, Type (0, 1), BuildingBlock: XUDNAN_clean_linker_2, # of connection points: 2
#     Edge 19, Type (0, 1), BuildingBlock: XUDNAN_clean_linker_2, # of connection points: 2
#     Edge 20, Type (0, 1), BuildingBlock: XUDNAN_clean_linker_2, # of connection points: 2
#     Edge 21, Type (0, 1), BuildingBlock: XUDNAN_clean_linker_2, # of connection points: 2
#     Edge 22, Type (0, 1), BuildingBlock: XUDNAN_clean_linker_2, # of connection points: 2
#     Edge 23, Type (0, 1), BuildingBlock: XUDNAN_clean_linker_2, # of connection points: 2
#     Edge 24, Type (0, 1), BuildingBlock: XUDNAN_clean_linker_2, # of connection points: 2
#     Edge 25, Type (0, 1), BuildingBlock: XUDNAN_clean_linker_2, # of connection points: 2
#     Edge 26, Type (0, 1), BuildingBlock: XUDNAN_clean_linker_2, # of connection points: 2
#     Edge 27, Type (0, 1), BuildingBlock: XUDNAN_clean_linker_2, # of connection points: 2
#     Edge 28, Type (0, 1), BuildingBlock: XUDNAN_clean_linker_2, # of connection points: 2
#     Edge 29, Type (0, 1), BuildingBlock: XUDNAN_clean_linker_2, # of connection points: 2
#     Edge 30, Type (0, 1), BuildingBlock: XUDNAN_clean_linker_2, # of connection points: 2
#     Edge 31, Type (0, 1), BuildingBlock: XUDNAN_clean_linker_2, # of connection points: 2
#     Edge 32, Type (0, 1), BuildingBlock: XUDNAN_clean_linker_2, # of connection points: 2
#     Edge 33, Type (0, 1), BuildingBlock: XUDNAN_clean_linker_2, # of connection points: 2
#     Edge 34, Type (0, 1), BuildingBlock: XUDNAN_clean_linker_2, # of connection points: 2
#     Edge 35, Type (0, 1), BuildingBlock: XUDNAN_clean_linker_2, # of connection points: 2
# Relax obj value: 0.036
# Max RMSD: 0.117
# Mean RMSD: 0.050
data_MOF--net-pry--node1-VOLQOD_clean_sbu_1--node2-BELTOD_clean_linker_0--edge1-XUDNAN_clean_linker_2
_symmetry_space_group_name_H-M    P1
_symmetry_Int_Tables_number       1
_symmetry_cell_setting            triclinic
loop_
_symmetry_equiv_pos_as_xyz
'x, y, z'
_cell_length_a     42.149089
_cell_length_b     42.450998
_cell_length_c     42.008624
_cell_angle_alpha  90.008668
_cell_angle_beta   90.169113
_cell_angle_gamma 90.130395
loop_
_atom_site_label
_atom_site_type_symbol
_atom_site_fract_x
_atom_site_fract_y
_atom_site_fract_z
_atom_type_partial_charge
P0 P 0.16419 0.18653 0.18061 0.0
H1 H 0.23203 0.18604 0.16718 0.0
H2 H 0.26587 0.15055 0.13684 0.0
H3 H 0.18452 0.09312 0.11331 0.0
H4 H 0.15057 0.12821 0.14497 0.0
H5 H 0.14228 0.25118 0.18615 0.0
H6 H 0.11273 0.28585 0.1506 0.0
H7 H 0.10411 0.21029 0.08221 0.0
H8 H 0.13373 0.17567 0.11787 0.0
H9 H 0.16765 0.124 0.21067 0.0
H10 H 0.10879 0.20686 0.21634 0.0
O11 O 0.18814 0.21029 0.20137 0.0
H12 H 0.14131 0.10231 0.25761 0.0
H13 H 0.08299 0.18549 0.26364 0.0
C14 C 0.18875 0.15976 0.15836 0.0
C15 C 0.22136 0.16571 0.15582 0.0
C16 C 0.24073 0.14543 0.13851 0.0
C17 C 0.22772 0.11917 0.12289 0.0
C18 C 0.195 0.11332 0.12512 0.0
C19 C 0.17567 0.13333 0.14308 0.0
C20 C 0.1408 0.21096 0.15451 0.0
C21 C 0.13397 0.24198 0.16357 0.0
C22 C 0.11682 0.26172 0.14333 0.0
C23 C 0.10616 0.2508 0.11357 0.0
C24 C 0.11235 0.21944 0.10486 0.0
C25 C 0.12931 0.1996 0.1253 0.0
C26 C 0.13975 0.16682 0.20948 0.0
C27 C 0.14834 0.13707 0.22122 0.0
C28 C 0.13334 0.12468 0.24813 0.0
C29 C 0.11019 0.14228 0.26415 0.0
C30 C 0.10078 0.17148 0.25164 0.0
C31 C 0.11542 0.18361 0.2245 0.0
P32 P 0.42772 0.91518 0.59376 0.0
H33 H 0.47245 0.95068 0.63415 0.0
H34 H 0.47748 0.95575 0.69223 0.0
H35 H 0.39583 0.89532 0.7042 0.0
H36 H 0.39076 0.89055 0.6465 0.0
H37 H 0.4394 0.88826 0.53127 0.0
H38 H 0.44746 0.83406 0.51326 0.0
H39 H 0.45122 0.80303 0.61116 0.0
H40 H 0.44408 0.85703 0.62889 0.0
H41 H 0.38548 0.96939 0.59431 0.0
H42 H 0.37818 0.86982 0.57483 0.0
O43 O 0.44839 0.94294 0.57477 0.0
H44 H 0.32774 0.97417 0.58978 0.0
H45 H 0.32113 0.87461 0.56909 0.0
C46 C 0.43121 0.92028 0.63612 0.0
C47 C 0.4555 0.93879 0.64931 0.0
C48 C 0.45827 0.94179 0.6824 0.0
C49 C 0.43706 0.92587 0.70257 0.0
C50 C 0.41259 0.90767 0.68916 0.0
C51 C 0.40962 0.90502 0.65623 0.0
C52 C 0.44113 0.8768 0.58137 0.0
C53 C 0.44285 0.86988 0.54882 0.0
C54 C 0.4471 0.83885 0.53858 0.0
C55 C 0.44961 0.81416 0.56079 0.0
C56 C 0.44961 0.82147 0.59342 0.0
C57 C 0.44533 0.8525 0.60361 0.0
C58 C 0.38625 0.91942 0.58444 0.0
C59 C 0.37156 0.94876 0.58821 0.0
C60 C 0.33858 0.95144 0.58559 0.0
C61 C 0.3198 0.92471 0.5793 0.0
C62 C 0.33482 0.89557 0.57449 0.0
C63 C 0.36766 0.89289 0.57734 0.0
P64 P 0.66547 0.33947 0.85576 0.0
H65 H 0.72868 0.33305 0.8825 0.0
H66 H 0.76277 0.36852 0.91274 0.0
H67 H 0.68635 0.43607 0.91808 0.0
H68 H 0.65276 0.40085 0.88686 0.0
H69 H 0.65918 0.27153 0.848 0.0
H70 H 0.62797 0.23168 0.87576 0.0
H71 H 0.59151 0.30297 0.93902 0.0
H72 H 0.624 0.3429 0.9119 0.0
H73 H 0.66595 0.35348 0.78767 0.0
H74 H 0.60587 0.3738 0.86813 0.0
O75 O 0.69122 0.32079 0.83226 0.0
H76 H 0.63003 0.38286 0.75304 0.0
H77 H 0.57047 0.40419 0.83353 0.0
C78 C 0.68842 0.36456 0.88166 0.0
C79 C 0.71918 0.35544 0.89029 0.0
C80 C 0.73859 0.37567 0.90792 0.0
C81 C 0.72743 0.40535 0.91767 0.0
C82 C 0.69592 0.41368 0.91041 0.0
C83 C 0.67658 0.39343 0.89259 0.0
C84 C 0.64394 0.3102 0.8779 0.0
C85 C 0.64491 0.27865 0.86811 0.0
C86 C 0.62708 0.25586 0.88397 0.0
C87 C 0.60743 0.26435 0.90946 0.0
C88 C 0.60644 0.29596 0.91932 0.0
C89 C 0.62489 0.31871 0.90382 0.0
C90 C 0.63871 0.36139 0.8306 0.0
C91 C 0.64511 0.36422 0.79799 0.0
C92 C 0.62456 0.38096 0.77816 0.0
C93 C 0.59755 0.39567 0.79071 0.0
C94 C 0.59124 0.3931 0.82339 0.0
C95 C 0.61148 0.37574 0.84312 0.0
P96 P 0.83164 0.66346 0.36012 0.0
H97 H 0.84987 0.72488 0.33606 0.0
H98 H 0.89018 0.76283 0.35253 0.0
H99 H 0.91679 0.70198 0.43062 0.0
H100 H 0.87587 0.6641 0.41407 0.0
H101 H 0.83925 0.66337 0.29145 0.0
H102 H 0.87165 0.63184 0.2555 0.0
H103 H 0.90636 0.57766 0.33525 0.0
H104 H 0.87427 0.60998 0.37149 0.0
H105 H 0.80476 0.68512 0.4198 0.0
H106 H 0.81349 0.59718 0.36925 0.0
O107 O 0.80332 0.6817 0.33932 0.0
H108 H 0.7698 0.65994 0.45837 0.0
H109 H 0.78051 0.5713 0.40877 0.0
C110 C 0.85939 0.6922 0.3744 0.0
C111 C 0.86408 0.71989 0.35698 0.0
C112 C 0.88743 0.74135 0.36617 0.0
C113 C 0.90677 0.73529 0.39278 0.0
C114 C 0.90205 0.70738 0.41019 0.0
C115 C 0.87866 0.68583 0.40086 0.0
C116 C 0.85358 0.63826 0.33395 0.0
C117 C 0.85352 0.64451 0.30123 0.0
C118 C 0.87225 0.6267 0.28076 0.0
C119 C 0.89136 0.60235 0.2927 0.0
C120 C 0.89154 0.59614 0.32553 0.0
C121 C 0.87315 0.61441 0.34612 0.0
C122 C 0.81227 0.64293 0.39203 0.0
C123 C 0.80011 0.6601 0.4177 0.0
C124 C 0.78022 0.64558 0.43986 0.0
C125 C 0.77216 0.61354 0.43669 0.0
C126 C 0.78577 0.59611 0.41172 0.0
C127 C 0.80514 0.61081 0.38929 0.0
P128 P 0.91015 0.93077 0.93918 0.0
H129 H 0.87206 0.95369 0.9922 0.0
H130 H 0.8147 0.95398 0.00194 0.0
H131 H 0.7986 0.91648 0.90765 0.0
H132 H 0.85549 0.91609 0.89817 0.0
H133 H 0.97217 0.90878 0.96039 0.0
H134 H 0.991 0.85771 0.97978 0.0
H135 H 0.89514 0.82157 0.97559 0.0
H136 H 0.8767 0.87224 0.95574 0.0
H137 H 0.93122 0.9792 0.89415 0.0
H138 H 0.90955 0.8799 0.89239 0.0
O139 O 0.92893 0.96085 0.95659 0.0
H140 H 0.94425 0.9774 0.83744 0.0
H141 H 0.92131 0.87806 0.83574 0.0
C142 C 0.86805 0.93531 0.94434 0.0
C143 C 0.85609 0.94611 0.97345 0.0
C144 C 0.82337 0.94625 0.97899 0.0
C145 C 0.80224 0.93509 0.9556 0.0
C146 C 0.81435 0.92487 0.92625 0.0
C147 C 0.84695 0.92491 0.9207 0.0
C148 C 0.923 0.89451 0.95719 0.0
C149 C 0.95519 0.88997 0.96416 0.0
C150 C 0.96589 0.8608 0.97525 0.0
C151 C 0.94455 0.83558 0.97922 0.0
C152 C 0.91223 0.84041 0.9725 0.0
C153 C 0.90159 0.86955 0.96146 0.0
C154 C 0.92011 0.92956 0.89758 0.0
C155 C 0.92933 0.95701 0.88155 0.0
C156 C 0.93644 0.95599 0.84906 0.0
C157 C 0.93405 0.92752 0.832 0.0
C158 C 0.92415 0.90023 0.8482 0.0
C159 C 0.91733 0.90125 0.88065 0.0
P160 P 0.668 0.15653 0.3606 0.0
H161 H 0.65874 0.22414 0.35664 0.0
H162 H 0.628 0.26126 0.38773 0.0
H163 H 0.59656 0.18537 0.44878 0.0
H164 H 0.62638 0.14788 0.41609 0.0
H165 H 0.70153 0.10071 0.34062 0.0
H166 H 0.73772 0.06506 0.36754 0.0
H167 H 0.72155 0.11435 0.45618 0.0
H168 H 0.6869 0.15121 0.4284 0.0
H169 H 0.6441 0.17338 0.29791 0.0
H170 H 0.63197 0.0974 0.36489 0.0
O171 O 0.69395 0.17713 0.339 0.0
H172 H 0.61041 0.1458 0.25957 0.0
H173 H 0.59893 0.06908 0.32627 0.0
C174 C 0.64568 0.18345 0.38474 0.0
C175 C 0.64547 0.21546 0.37685 0.0
C176 C 0.62795 0.23675 0.39486 0.0
C177 C 0.61032 0.22651 0.42132 0.0
C178 C 0.60988 0.19413 0.42864 0.0
C179 C 0.62716 0.17271 0.41021 0.0
C180 C 0.69085 0.12811 0.3826 0.0
C181 C 0.70537 0.10352 0.36597 0.0
C182 C 0.72596 0.08295 0.38154 0.0
C183 C 0.73246 0.08649 0.41424 0.0
C184 C 0.71735 0.11097 0.43097 0.0
C185 C 0.69707 0.13187 0.41517 0.0
C186 C 0.64122 0.13696 0.33377 0.0
C187 C 0.63425 0.15066 0.30428 0.0
C188 C 0.61509 0.1348 0.28236 0.0
C189 C 0.60247 0.10495 0.28963 0.0
C190 C 0.60827 0.09201 0.31992 0.0
C191 C 0.62736 0.10803 0.34192 0.0
P192 P 0.41911 0.57883 0.10177 0.0
H193 H 0.38041 0.60848 0.05302 0.0
H194 H 0.32605 0.60008 0.03482 0.0
H195 H 0.3132 0.52851 0.10659 0.0
H196 H 0.36822 0.53625 0.12429 0.0
H197 H 0.45912 0.61145 0.05566 0.0
H198 H 0.46531 0.6671 0.04265 0.0
H199 H 0.40587 0.69198 0.12232 0.0
H200 H 0.39984 0.63594 0.1354 0.0
H201 H 0.47621 0.55282 0.12974 0.0
H202 H 0.38369 0.58135 0.16216 0.0
O203 O 0.44053 0.55692 0.07684 0.0
H204 H 0.49017 0.53644 0.18346 0.0
H205 H 0.39671 0.56327 0.21588 0.0
C206 C 0.37809 0.57381 0.0908 0.0
C207 C 0.36587 0.5913 0.06526 0.0
C208 C 0.33487 0.5864 0.05473 0.0
C209 C 0.3155 0.56391 0.06957 0.0
C210 C 0.32762 0.54638 0.09519 0.0
C211 C 0.35896 0.55091 0.10538 0.0
C212 C 0.42914 0.61963 0.09657 0.0
C213 C 0.44801 0.62882 0.07081 0.0
C214 C 0.45136 0.66063 0.06327 0.0
C215 C 0.43577 0.68377 0.0813 0.0
C216 C 0.41828 0.67462 0.10818 0.0
C217 C 0.41484 0.64267 0.11564 0.0
C218 C 0.42853 0.56716 0.14178 0.0
C219 C 0.45868 0.55505 0.14839 0.0
C220 C 0.46656 0.54552 0.17916 0.0
C221 C 0.44434 0.54783 0.20397 0.0
C222 C 0.41443 0.56111 0.19741 0.0
C223 C 0.40677 0.57109 0.16661 0.0
P224 P 0.13001 0.3734 0.65964 0.0
H225 H 0.14205 0.32611 0.61116 0.0
H226 H 0.11284 0.27946 0.59427 0.0
H227 H 0.0369 0.30368 0.65877 0.0
H228 H 0.06545 0.35134 0.674 0.0
H229 H 0.18274 0.41622 0.66629 0.0
H230 H 0.21928 0.43936 0.62797 0.0
H231 H 0.16204 0.40291 0.55075 0.0
H232 H 0.12502 0.38027 0.58946 0.0
H233 H 0.11818 0.37363 0.72752 0.0
H234 H 0.09222 0.43014 0.64621 0.0
O235 O 0.15689 0.3554 0.68247 0.0
H236 H 0.09121 0.41044 0.76261 0.0
H237 H 0.06486 0.4675 0.68166 0.0
C238 C 0.1056 0.34269 0.64315 0.0
C239 C 0.11861 0.32198 0.6208 0.0
C240 C 0.10208 0.29497 0.6116 0.0
C241 C 0.07262 0.28755 0.62543 0.0
C242 C 0.05929 0.30882 0.64729 0.0
C243 C 0.07568 0.33614 0.6561 0.0
C244 C 0.15191 0.39563 0.63069 0.0
C245 C 0.17766 0.41379 0.64111 0.0
C246 C 0.19839 0.42722 0.61916 0.0
C247 C 0.19368 0.42261 0.58636 0.0
C248 C 0.16641 0.40643 0.57593 0.0
C249 C 0.1454 0.39332 0.59802 0.0
C250 C 0.10787 0.3997 0.68447 0.0
C251 C 0.10671 0.39405 0.71723 0.0
C252 C 0.09131 0.4151 0.73725 0.0
C253 C 0.07656 0.4421 0.72482 0.0
C254 C 0.07628 0.44695 0.69175 0.0
C255 C 0.09195 0.42579 0.67161 0.0
O256 O 0.98925 0.05597 0.56878 0.0
Zn257 Zn 0.97784 0.01173 0.5557 0.0
O258 O 0.0116 0.99316 0.52997 0.0
Zn259 Zn 0.99774 0.98763 0.48606 0.0
Zn260 Zn 0.0485 0.02075 0.53102 0.0
Zn261 Zn 0.0226 0.95205 0.54691 0.0
O262 O 0.00426 0.94328 0.47122 0.0
O263 O 0.01145 0.91702 0.51642 0.0
O264 O 0.93691 0.01349 0.53077 0.0
O265 O 0.95078 0.99556 0.48297 0.0
O266 O 0.02045 0.01716 0.45597 0.0
O267 O 0.05589 0.03973 0.48794 0.0
O268 O 0.08806 0.99751 0.54457 0.0
O269 O 0.971 0.98658 0.59619 0.0
O270 O 0.06942 0.94967 0.55514 0.0
O271 O 0.00118 0.94445 0.58864 0.0
C272 C 0.01581 0.07024 0.57048 0.0
C273 C 0.00714 0.91751 0.48641 0.0
C274 C 0.04312 0.0365 0.46064 0.0
C275 C 0.92997 0.00586 0.50225 0.0
C276 C 0.09238 0.96912 0.55342 0.0
C277 C 0.98188 0.96016 0.60561 0.0
O278 O 0.04106 0.058 0.55945 0.0
O279 O 0.48513 0.05691 0.97833 0.0
Zn280 Zn 0.46575 0.01368 0.98426 0.0
O281 O 0.49207 0.98826 0.01335 0.0
Zn282 Zn 0.50523 0.95054 0.99149 0.0
Zn283 Zn 0.53021 0.01158 0.02554 0.0
Zn284 Zn 0.46806 0.97601 0.05159 0.0
O285 O 0.48569 0.91276 0.01069 0.0
O286 O 0.46032 0.9285 0.05409 0.0
O287 O 0.46119 0.99337 0.94042 0.0
O288 O 0.48994 0.9501 0.9469 0.0
O289 O 0.55233 0.94512 0.99092 0.0
O290 O 0.57049 0.98905 0.01296 0.0
O291 O 0.53147 0.01773 0.07294 0.0
O292 O 0.42208 0.01986 0.00294 0.0
O293 O 0.49012 0.99102 0.0916 0.0
O294 O 0.42531 0.99706 0.05056 0.0
C295 C 0.51117 0.0693 0.9875 0.0
C296 C 0.46875 0.90685 0.03488 0.0
C297 C 0.57533 0.9625 -0.00025 0.0
C298 C 0.47261 0.9677 0.92973 0.0
C299 C 0.51467 0.00803 0.09615 0.0
C300 C 0.40997 0.01279 0.02979 0.0
O301 O 0.53073 0.05431 0.00497 0.0
O302 O 0.50633 0.5133 0.59371 0.0
Zn303 Zn 0.50833 0.53068 0.54899 0.0
O304 O 0.48887 0.50101 0.51869 0.0
Zn305 Zn 0.52058 0.48646 0.48861 0.0
Zn306 Zn 0.47214 0.46404 0.54068 0.0
Zn307 Zn 0.45472 0.52237 0.49572 0.0
O308 O 0.50629 0.4935 0.44371 0.0
O309 O 0.461 0.51971 0.44817 0.0
O310 O 0.55466 0.5379 0.53845 0.0
O311 O 0.56157 0.50915 0.49489 0.0
O312 O 0.52913 0.44021 0.49263 0.0
O313 O 0.49114 0.42336 0.52479 0.0
O314 O 0.42492 0.46068 0.53461 0.0
O315 O 0.48762 0.57374 0.5468 0.0
O316 O 0.4123 0.50276 0.50558 0.0
O317 O 0.45285 0.56809 0.50742 0.0
C318 C 0.49632 0.48721 0.60494 0.0
C319 C 0.48249 0.50712 0.43118 0.0
C320 C 0.51467 0.41793 0.50674 0.0
C321 C 0.57211 0.52824 0.51575 0.0
C322 C 0.40453 0.47789 0.52057 0.0
C323 C 0.46664 0.58516 0.52821 0.0
O324 O 0.48307 0.46657 0.58729 0.0
O325 O 0.97365 0.50594 0.08194 0.0
Zn326 Zn 0.97646 0.49417 0.03573 0.0
O327 O 0.00216 0.52486 0.01257 0.0
Zn328 Zn 0.97528 0.54865 0.9829 0.0
Zn329 Zn 0.02318 0.55351 0.04255 0.0
Zn330 Zn 0.03423 0.50228 0.98886 0.0
O331 O 0.989 0.5425 0.93702 0.0
O332 O 0.02928 0.50929 0.9424 0.0
O333 O 0.93201 0.49218 0.01766 0.0
O334 O 0.93008 0.53339 0.98507 0.0
O335 O 0.97705 0.59523 0.99262 0.0
O336 O 0.01224 0.59847 0.03199 0.0
O337 O 0.07125 0.54957 0.04142 0.0
O338 O 0.99566 0.45082 0.03402 0.0
O339 O 0.07754 0.51747 0.00022 0.0
O340 O 0.03373 0.45576 0.99801 0.0
C341 C 0.98755 0.52664 0.09896 0.0
C342 C 0.01105 0.52586 0.92505 0.0
C343 C 0.99332 0.61151 0.01231 0.0
C344 C 0.91674 0.51004 0.99865 0.0
C345 C 0.08906 0.5351 0.02182 0.0
C346 C 0.01782 0.43898 0.01736 0.0
O347 O 0.00738 0.54599 0.08706 0.0
H348 H 0.08419 0.08519 0.28123 0.0
H349 H 0.11172 0.17656 0.31854 0.0
H350 H 0.09698 0.15942 0.37267 0.0
H351 H 0.01554 0.0749 0.33364 0.0
H352 H 0.02157 0.0331 0.33803 0.0
H353 H 0.03375 0.0527 0.30202 0.0
H354 H 0.09075 0.03119 0.30961 0.0
H355 H 0.07881 0.0117 0.34573 0.0
H356 H 0.11164 0.03897 0.3463 0.0
H357 H 0.08351 0.13145 0.42277 0.0
H358 H 0.06653 0.09591 0.46596 0.0
H359 H 0.04393 0.02352 0.39646 0.0
C360 C 0.0868 0.10157 0.30084 0.0
C361 C 0.09893 0.13221 0.29586 0.0
C362 C 0.10209 0.15312 0.32193 0.0
C363 C 0.09396 0.14355 0.35272 0.0
C364 C 0.08231 0.11314 0.35694 0.0
C365 C 0.07822 0.09257 0.33174 0.0
C366 C 0.06487 0.0613 0.34298 0.0
C367 C 0.03197 0.05515 0.3283 0.0
C368 C 0.0879 0.0342 0.33572 0.0
C369 C 0.06261 0.0674 0.37847 0.0
C370 C 0.07311 0.09737 0.38595 0.0
C371 C 0.07485 0.10806 0.41723 0.0
C372 C 0.06533 0.08766 0.44158 0.0
C373 C 0.05378 0.0571 0.43447 0.0
C374 C 0.05231 0.04692 0.40248 0.0
H375 H 0.44474 0.97774 0.74122 0.0
H376 H 0.43887 0.87568 0.74248 0.0
H377 H 0.44548 0.87595 0.80083 0.0
H378 H 0.50377 0.98561 0.80262 0.0
H379 H 0.4864 0.02029 0.82008 0.0
H380 H 0.48095 0.0123 0.77831 0.0
H381 H 0.41999 0.01503 0.78553 0.0
H382 H 0.42525 0.02292 0.82737 0.0
H383 H 0.40111 0.99012 0.81466 0.0
H384 H 0.45488 0.88659 0.85773 0.0
H385 H 0.4652 0.90711 0.91155 0.0
H386 H 0.46274 0.00281 0.87518 0.0
C387 C 0.44493 0.95553 0.75389 0.0
C388 C 0.44124 0.92665 0.73751 0.0
C389 C 0.44136 0.89801 0.75473 0.0
C390 C 0.44517 0.89793 0.7878 0.0
C391 C 0.44855 0.92673 0.8033 0.0
C392 C 0.44832 0.95504 0.78709 0.0
C393 C 0.45233 0.98257 0.80982 0.0
C394 C 0.48267 0.00129 0.80225 0.0
C395 C 0.42291 0.00391 0.80931 0.0
C396 C 0.45525 0.9652 0.84124 0.0
C397 C 0.45308 0.933 0.83673 0.0
C398 C 0.45637 0.91174 0.86167 0.0
C399 C 0.46232 0.92364 0.89211 0.0
C400 C 0.46462 0.95651 0.89746 0.0
C401 C 0.46064 0.9776 0.87175 0.0
H402 H 0.5691 0.37538 0.73618 0.0
H403 H 0.57928 0.457 0.79731 0.0
H404 H 0.54873 0.48901 0.75857 0.0
H405 H 0.57969 0.41334 0.66428 0.0
H406 H 0.55074 0.39061 0.64244 0.0
H407 H 0.57016 0.37374 0.67654 0.0
H408 H 0.5155 0.3624 0.70233 0.0
H409 H 0.49586 0.37926 0.6682 0.0
H410 H 0.48762 0.39413 0.70751 0.0
H411 H 0.5243 0.5134 0.70938 0.0
H412 H 0.50466 0.52731 0.65556 0.0
H413 H 0.50721 0.4287 0.62874 0.0
C414 C 0.56433 0.39986 0.7416 0.0
C415 C 0.5764 0.41388 0.76955 0.0
C416 C 0.5699 0.44592 0.77603 0.0
C417 C 0.55265 0.4642 0.7542 0.0
C418 C 0.54156 0.44982 0.72644 0.0
C419 C 0.54671 0.41821 0.72038 0.0
C420 C 0.53369 0.40868 0.68821 0.0
C421 C 0.56015 0.39586 0.66661 0.0
C422 C 0.50655 0.3847 0.69179 0.0
C423 C 0.5215 0.4401 0.67651 0.0
C424 C 0.52616 0.46358 0.69886 0.0
C425 C 0.51977 0.49509 0.69201 0.0
C426 C 0.50871 0.5028 0.66141 0.0
C427 C 0.50386 0.47901 0.63826 0.0
C428 C 0.50976 0.44727 0.64626 0.0
H429 H 0.93256 0.62451 0.24832 0.0
H430 H 0.89286 0.5383 0.28664 0.0
H431 H 0.91949 0.50772 0.24421 0.0
H432 H 0.9215 0.60741 0.1697 0.0
H433 H 0.95785 0.62487 0.15556 0.0
H434 H 0.94004 0.63904 0.19162 0.0
H435 H 0.99226 0.62834 0.22248 0.0
H436 H 0.01037 0.61426 0.18637 0.0
H437 H 0.0097 0.58962 0.2213 0.0
H438 H 0.9425 0.48837 0.19268 0.0
H439 H 0.96322 0.48113 0.13815 0.0
H440 H 0.99006 0.57978 0.13518 0.0
C441 C 0.93017 0.5991 0.24815 0.0
C442 C 0.9108 0.58361 0.27056 0.0
C443 C 0.90793 0.55042 0.26974 0.0
C444 C 0.92292 0.53295 0.24576 0.0
C445 C 0.94112 0.54907 0.22334 0.0
C446 C 0.94525 0.58137 0.2247 0.0
C447 C 0.96396 0.5934 0.19654 0.0
C448 C 0.94468 0.61759 0.17722 0.0
C449 C 0.99598 0.60721 0.20733 0.0
C450 C 0.96843 0.56307 0.17828 0.0
C451 C 0.95532 0.53769 0.19419 0.0
C452 C 0.95358 0.50788 0.18037 0.0
C453 C 0.96524 0.50402 0.14937 0.0
C454 C 0.97858 0.52981 0.1327 0.0
C455 C 0.98075 0.55948 0.14769 0.0
H456 H 0.28123 0.08948 0.14313 0.0
H457 H 0.2215 0.10321 0.06019 0.0
H458 H 0.26017 0.07384 0.02721 0.0
H459 H 0.35394 0.10038 0.10607 0.0
H460 H 0.37475 0.07047 0.12824 0.0
H461 H 0.34107 0.08986 0.14557 0.0
H462 H 0.31377 0.03584 0.15475 0.0
H463 H 0.34753 0.01623 0.13761 0.0
H464 H 0.30838 0.00928 0.12167 0.0
H465 H 0.30886 0.04918 0.00248 0.0
H466 H 0.36128 0.02677 0.98878 0.0
H467 H 0.38715 0.02646 0.08879 0.0
C468 C 0.2761 0.08575 0.11813 0.0
C469 C 0.24856 0.09845 0.10404 0.0
C470 C 0.24245 0.09332 0.07132 0.0
C471 C 0.26428 0.0768 0.05247 0.0
C472 C 0.29167 0.06514 0.06696 0.0
C473 C 0.29732 0.06892 0.09918 0.0
C474 C 0.32893 0.05506 0.10885 0.0
C475 C 0.35096 0.08046 0.123 0.0
C476 C 0.32437 0.02746 0.13209 0.0
C477 C 0.34071 0.04375 0.07688 0.0
C478 C 0.31895 0.04979 0.05297 0.0
C479 C 0.32579 0.04372 0.02109 0.0
C480 C 0.35562 0.03115 0.01352 0.0
C481 C 0.37802 0.02451 0.03777 0.0
C482 C 0.37021 0.03062 0.06983 0.0
H483 H 0.28202 0.97154 0.55416 0.0
H484 H 0.27797 0.88251 0.60496 0.0
H485 H 0.21961 0.8848 0.60444 0.0
H486 H 0.21561 0.00774 0.5952 0.0
H487 H 0.20143 0.02789 0.56019 0.0
H488 H 0.24309 0.01944 0.56457 0.0
H489 H 0.2426 0.99018 0.51042 0.0
H490 H 0.20096 0.99851 0.50589 0.0
H491 H 0.21482 0.95841 0.50407 0.0
H492 H 0.16208 0.89568 0.59729 0.0
H493 H 0.10845 0.91509 0.58477 0.0
H494 H 0.14935 0.99813 0.54033 0.0
C495 C 0.26888 0.95268 0.56544 0.0
C496 C 0.28463 0.92668 0.57931 0.0
C497 C 0.26648 0.90234 0.59357 0.0
C498 C 0.23331 0.90353 0.59365 0.0
C499 C 0.21857 0.92933 0.57959 0.0
C500 C 0.23568 0.95355 0.56587 0.0
C501 C 0.21385 0.97847 0.55219 0.0
C502 C 0.21879 0.01026 0.56905 0.0
C503 C 0.21833 0.98156 0.516 0.0
C504 C 0.18183 0.96429 0.56019 0.0
C505 C 0.18517 0.93594 0.57598 0.0
C506 C 0.15911 0.91794 0.5851 0.0
C507 C 0.12874 0.92915 0.5778 0.0
C508 C 0.12466 0.95818 0.56165 0.0
C509 C 0.15166 0.97601 0.55295 0.0
H510 H 0.77394 0.39331 0.96222 0.0
H511 H 0.73146 0.46897 0.90727 0.0
H512 H 0.77175 0.50583 0.92797 0.0
H513 H 0.8003 0.44193 0.03119 0.0
H514 H 0.83673 0.42014 0.03534 0.0
H515 H 0.80157 0.40085 0.02037 0.0
H516 H 0.83228 0.38377 0.96989 0.0
H517 H 0.86741 0.40302 0.98463 0.0
H518 H 0.85178 0.41328 0.94602 0.0
H519 H 0.82048 0.53266 0.94849 0.0
H520 H 0.87367 0.54762 0.96799 0.0
H521 H 0.88504 0.45449 0.00915 0.0
C522 C 0.77279 0.41773 0.9549 0.0
C523 C 0.74933 0.42821 0.93324 0.0
C524 C 0.74871 0.46042 0.92433 0.0
C525 C 0.77162 0.48156 0.93586 0.0
C526 C 0.7949 0.47022 0.95645 0.0
C527 C 0.79553 0.43911 0.9661 0.0
C528 C 0.82463 0.43228 0.98616 0.0
C529 C 0.81523 0.42327 0.02029 0.0
C530 C 0.84523 0.40658 0.97074 0.0
C531 C 0.84088 0.46412 0.98528 0.0
C532 C 0.82314 0.48578 0.96836 0.0
C533 C 0.83434 0.51608 0.96226 0.0
C534 C 0.86464 0.52431 0.97334 0.0
C535 C 0.88348 0.50231 0.99027 0.0
C536 C 0.87105 0.47204 0.99678 0.0
H537 H 0.72602 0.57195 0.41828 0.0
H538 H 0.76033 0.62395 0.50054 0.0
H539 H 0.71425 0.60508 0.53152 0.0
H540 H 0.64666 0.58715 0.42775 0.0
H541 H 0.63305 0.5488 0.41525 0.0
H542 H 0.67014 0.56395 0.40071 0.0
H543 H 0.69936 0.51445 0.42178 0.0
H544 H 0.66224 0.49891 0.43612 0.0
H545 H 0.69534 0.50342 0.46302 0.0
H546 H 0.66107 0.58462 0.55146 0.0
H547 H 0.60728 0.56235 0.5592 0.0
H548 H 0.61072 0.52214 0.46424 0.0
C549 C 0.72464 0.57861 0.44311 0.0
C550 C 0.747 0.59937 0.45694 0.0
C551 C 0.74339 0.60828 0.48927 0.0
C552 C 0.71741 0.59752 0.50713 0.0
C553 C 0.69551 0.57756 0.49244 0.0
C554 C 0.69918 0.56789 0.46126 0.0
C555 C 0.67171 0.54769 0.45028 0.0
C556 C 0.65438 0.56282 0.42184 0.0
C557 C 0.68284 0.51412 0.44235 0.0
C558 C 0.65151 0.54812 0.47988 0.0
C559 C 0.66555 0.56535 0.50405 0.0
C560 C 0.65012 0.57064 0.53288 0.0
C561 C 0.61955 0.55802 0.53702 0.0
C562 C 0.60487 0.54031 0.51243 0.0
C563 C 0.62138 0.53515 0.48372 0.0
H564 H 0.05949 0.29352 0.12716 0.0
H565 H 0.11745 0.25818 0.04991 0.0
H566 H 0.09547 0.29897 0.01422 0.0
H567 H 0.98998 0.31715 0.07736 0.0
H568 H 0.98295 0.35171 0.10122 0.0
H569 H -0.00031 0.31693 0.11919 0.0
H570 H 0.04746 0.34987 0.13961 0.0
H571 H 0.03094 0.38463 0.1217 0.0
H572 H 0.07058 0.37241 0.11162 0.0
H573 H 0.07357 0.3482 0.98964 0.0
H574 H 0.05174 0.40082 0.97744 0.0
H575 H 0.00691 0.40321 0.07026 0.0
C576 C 0.0671 0.29403 0.10256 0.0
C577 C 0.09009 0.27266 0.09124 0.0
C578 C 0.09952 0.27404 0.05893 0.0
C579 C 0.08722 0.29717 0.03852 0.0
C580 C 0.0652 0.31842 0.05068 0.0
C581 C 0.05492 0.3168 0.08186 0.0
C582 C 0.03292 0.3438 0.08976 0.0
C583 C -0.00061 0.33166 0.09732 0.0
C584 C 0.04629 0.36386 0.11728 0.0
C585 C 0.03347 0.36162 0.05858 0.0
C586 C 0.05199 0.34647 0.03622 0.0
C587 C 0.05844 0.35994 0.00668 0.0
C588 C 0.04604 0.38986 0.0 0.0
C589 C 0.02733 0.40592 0.02275 0.0
C590 C 0.02048 0.3912 0.05209 0.0
H591 H 0.62653 0.20836 0.93476 0.0
H592 H 0.54326 0.26569 0.91772 0.0
H593 H 0.50904 0.22254 0.93784 0.0
H594 H 0.59436 0.13599 0.91088 0.0
H595 H 0.61377 0.11295 0.94122 0.0
H596 H 0.63162 0.14901 0.92753 0.0
H597 H 0.63329 0.17025 0.98537 0.0
H598 H 0.61567 0.13411 -0.0007 0.0
H599 H 0.59729 0.17132 0.00841 0.0
H600 H 0.48399 0.17087 0.95434 0.0
H601 H 0.47019 0.11671 0.9713 0.0
H602 H 0.57028 0.0947 0.98045 0.0
C603 C 0.60111 0.2119 0.93573 0.0
C604 C 0.58737 0.24017 0.92478 0.0
C605 C 0.5541 0.24419 0.92633 0.0
C606 C 0.53455 0.21981 0.93756 0.0
C607 C 0.54881 0.1919 0.94761 0.0
C608 C 0.58137 0.18807 0.94734 0.0
C609 C 0.59079 0.1557 0.95903 0.0
C610 C 0.60868 0.13734 0.93312 0.0
C611 C 0.61041 0.15799 0.98987 0.0
C612 C 0.5584 0.14159 0.96518 0.0
C613 C 0.53446 0.16274 0.95832 0.0
C614 C 0.50254 0.15429 0.9603 0.0
C615 C 0.49494 0.12347 0.96977 0.0
C616 C 0.51917 0.10169 0.97747 0.0
C617 C 0.55125 0.11103 0.97524 0.0
H618 H 0.91998 0.75647 0.45297 0.0
H619 H 0.94801 0.76717 0.35426 0.0
H620 H 0.98346 0.81104 0.36931 0.0
H621 H 0.9144 0.83449 0.47038 0.0
H622 H 0.92999 0.83238 0.51032 0.0
H623 H 0.91112 0.79849 0.49293 0.0
H624 H 0.96153 0.76522 0.50352 0.0
H625 H 0.98057 0.79907 0.52118 0.0
H626 H -0.00069 0.77862 0.48869 0.0
H627 H 0.00814 0.85862 0.39305 0.0
H628 H 0.02219 0.90579 0.42453 0.0
H629 H 0.98066 0.86307 0.50845 0.0
C630 C 0.93443 0.76733 0.43472 0.0
C631 C 0.93124 0.75851 0.40246 0.0
C632 C 0.94988 0.77382 0.37909 0.0
C633 C 0.97029 0.79854 0.38744 0.0
C634 C 0.97213 0.80737 0.41932 0.0
C635 C 0.95503 0.792 0.44269 0.0
C636 C 0.95892 0.80807 0.47466 0.0
C637 C 0.9267 0.81901 0.48781 0.0
C638 C 0.97612 0.78645 0.49841 0.0
C639 C 0.97961 0.83573 0.46527 0.0
C640 C 0.98727 0.83465 0.4333 0.0
C641 C 0.00308 0.85935 0.41828 0.0
C642 C 0.01082 0.88607 0.43627 0.0
C643 C 0.00288 0.88775 0.46892 0.0
C644 C 0.98779 0.86194 0.48372 0.0
H645 H 0.48483 0.76459 0.58432 0.0
H646 H 0.41317 0.78802 0.51376 0.0
H647 H 0.40986 0.73218 0.49804 0.0
H648 H 0.52427 0.70412 0.53803 0.0
H649 H 0.53164 0.67924 0.57201 0.0
H650 H 0.52925 0.72132 0.57698 0.0
H651 H 0.48523 0.71381 0.61926 0.0
H652 H 0.48733 0.67173 0.61426 0.0
H653 H 0.45001 0.69177 0.60911 0.0
H654 H 0.41269 0.67393 0.49124 0.0
H655 H 0.42342 0.61697 0.49175 0.0
H656 H 0.49302 0.63074 0.56705 0.0
C657 C 0.4685 0.75798 0.56551 0.0
C658 C 0.44942 0.78077 0.55012 0.0
C659 C 0.42848 0.77114 0.52549 0.0
C660 C 0.42621 0.73942 0.51657 0.0
C661 C 0.44505 0.71757 0.53247 0.0
C662 C 0.46595 0.72638 0.55626 0.0
C663 C 0.48335 0.69806 0.56961 0.0
C664 C 0.51926 0.70086 0.5638 0.0
C665 C 0.47603 0.69358 0.60517 0.0
C666 C 0.46878 0.67196 0.5497 0.0
C667 C 0.44672 0.68378 0.52849 0.0
C668 C 0.42999 0.66436 0.50766 0.0
C669 C 0.43624 0.63198 0.50822 0.0
C670 C 0.45909 0.61925 0.52944 0.0
C671 C 0.47537 0.63963 0.55059 0.0
H672 H 0.92164 0.97161 0.78535 0.0
H673 H 0.96533 0.88025 0.80077 0.0
H674 H 0.97859 0.87725 0.74381 0.0
H675 H 0.88936 0.95565 0.7069 0.0
H676 H 0.89807 0.9945 0.69191 0.0
H677 H 0.89017 0.98886 0.73365 0.0
H678 H 0.94399 0.01499 0.74792 0.0
H679 H 0.95196 0.02088 0.70626 0.0
H680 H 0.97997 -0.00022 0.7307 0.0
H681 H 0.9888 0.88466 0.68598 0.0
H682 H 0.99754 0.90302 0.63114 0.0
H683 H 0.94869 0.99038 0.65308 0.0
C684 C 0.93409 0.95101 0.77682 0.0
C685 C 0.94214 0.92602 0.7976 0.0
C686 C 0.95826 0.8994 0.78529 0.0
C687 C 0.96604 0.89752 0.75297 0.0
C688 C 0.95767 0.92248 0.7332 0.0
C689 C 0.94221 0.94879 0.74461 0.0
C690 C 0.93713 0.97288 0.71846 0.0
C691 C 0.90157 0.97828 0.71238 0.0
C692 C 0.9543 0.00396 0.72631 0.0
C693 C 0.95254 0.95611 0.69068 0.0
C694 C 0.96397 0.92696 0.69971 0.0
C695 C 0.97986 0.90738 0.67856 0.0
C696 C 0.9847 0.91807 0.64742 0.0
C697 C 0.9738 0.94817 0.6377 0.0
C698 C 0.95711 0.96718 0.65963 0.0
H699 H 0.61626 0.09992 0.2263 0.0
H700 H 0.5485 0.06907 0.29745 0.0
H701 H 0.51936 0.03908 0.25609 0.0
H702 H 0.56008 0.11155 0.16355 0.0
H703 H 0.58663 0.09798 0.13293 0.0
H704 H 0.60237 0.11596 0.16845 0.0
H705 H 0.63689 0.06648 0.17875 0.0
H706 H 0.62114 0.0483 0.14332 0.0
H707 H 0.61818 0.02832 0.18106 0.0
H708 H 0.49709 0.01339 0.20609 0.0
H709 H 0.4833 0.99482 0.15199 0.0
H710 H 0.56576 0.04367 0.11443 0.0
C711 C 0.59512 0.08712 0.23323 0.0
C712 C 0.58458 0.08695 0.26511 0.0
C713 C 0.55717 0.06932 0.27321 0.0
C714 C 0.54042 0.05232 0.24988 0.0
C715 C 0.55146 0.05316 0.21863 0.0
C716 C 0.57819 0.07015 0.21034 0.0
C717 C 0.58502 0.06768 0.17513 0.0
C718 C 0.58341 0.10023 0.15908 0.0
C719 C 0.61721 0.05174 0.16924 0.0
C720 C 0.55781 0.04682 0.16475 0.0
C721 C 0.53874 0.03854 0.19012 0.0
C722 C 0.51192 0.01967 0.18608 0.0
C723 C 0.50431 0.00922 0.15525 0.0
C724 C 0.52343 0.01774 0.12889 0.0
C725 C 0.55062 0.03663 0.13398 0.0
H726 H 0.42747 0.5732 0.26201 0.0
H727 H 0.47926 0.49555 0.21941 0.0
H728 H 0.49463 0.47706 0.27277 0.0
H729 H 0.48048 0.58833 0.32612 0.0
H730 H 0.44973 0.59628 0.35474 0.0
H731 H 0.44279 0.60375 0.31311 0.0
H732 H 0.39304 0.56778 0.31446 0.0
H733 H 0.39975 0.56031 0.35615 0.0
H734 H 0.39667 0.52786 0.32862 0.0
H735 H 0.50625 0.46813 0.33028 0.0
H736 H 0.51062 0.46737 0.38884 0.0
H737 H 0.44832 0.5485 0.39444 0.0
C738 C 0.44168 0.55207 0.26382 0.0
C739 C 0.45243 0.5361 0.23634 0.0
C740 C 0.47133 0.50871 0.23996 0.0
C741 C 0.48 0.49783 0.27021 0.0
C742 C 0.46925 0.51431 0.29667 0.0
C743 C 0.45024 0.54062 0.29386 0.0
C744 C 0.44168 0.55378 0.32623 0.0
C745 C 0.45444 0.58753 0.33027 0.0
C746 C 0.40564 0.55233 0.33168 0.0
C747 C 0.4591 0.53087 0.34763 0.0
C748 C 0.475 0.50842 0.33004 0.0
C749 C 0.49369 0.4854 0.34436 0.0
C750 C 0.49612 0.48525 0.3776 0.0
C751 C 0.47968 0.50777 0.39615 0.0
C752 C 0.46085 0.53077 0.38088 0.0
H753 H 0.10505 0.46718 0.77659 0.0
H754 H 0.01674 0.46786 0.72368 0.0
H755 H 0.99162 0.49897 0.7668 0.0
H756 H 0.07322 0.45097 0.84778 0.0
H757 H 0.10006 0.47461 0.87127 0.0
H758 H 0.1126 0.45952 0.83347 0.0
H759 H 0.12601 0.51611 0.81443 0.0
H760 H 0.11367 0.53145 0.85244 0.0
H761 H 0.09612 0.54636 0.81629 0.0
H762 H 0.97428 0.5218 0.82007 0.0
H763 H 0.96648 0.53287 0.87752 0.0
H764 H 0.06634 0.5153 0.89461 0.0
C765 C 0.08066 0.47468 0.77371 0.0
C766 C 0.06273 0.46524 0.74703 0.0
C767 C 0.03088 0.47524 0.74393 0.0
C768 C 0.0165 0.49288 0.76828 0.0
C769 C 0.03455 0.5006 0.79512 0.0
C770 C 0.06612 0.49205 0.79767 0.0
C771 C 0.07949 0.49933 0.83021 0.0
C772 C 0.09204 0.46933 0.84663 0.0
C773 C 0.10534 0.52484 0.82821 0.0
C774 C 0.05012 0.51168 0.84632 0.0
C775 C 0.02455 0.51309 0.82566 0.0
C776 C 0.9943 0.52138 0.83625 0.0
C777 C 0.99006 0.52762 0.86885 0.0
C778 C 0.01583 0.52481 0.89034 0.0
C779 C 0.04625 0.51765 0.87865 0.0
H780 H 0.76354 0.97952 0.98297 0.0
H781 H 0.76326 0.88532 0.94279 0.0
H782 H 0.70559 0.88145 0.95187 0.0
H783 H 0.70412 0.96466 0.04437 0.0
H784 H 0.68612 0.00292 0.04017 0.0
H785 H 0.72771 0.99787 0.03184 0.0
H786 H 0.71935 0.02119 0.97544 0.0
H787 H 0.67777 0.02628 0.98358 0.0
H788 H 0.69009 0.00384 0.94936 0.0
H789 H 0.64821 0.88823 0.96343 0.0
H790 H 0.59399 0.90548 0.97614 0.0
H791 H 0.63102 0.99541 0.00912 0.0
C792 C 0.75135 0.95797 0.97647 0.0
C793 C 0.76779 0.93275 0.96207 0.0
C794 C 0.75101 0.90506 0.95347 0.0
C795 C 0.71833 0.90255 0.95874 0.0
C796 C 0.70278 0.92791 0.97267 0.0
C797 C 0.71864 0.9551 0.98144 0.0
C798 C 0.69596 0.97928 0.99495 0.0
C799 C 0.70396 0.9866 0.02991 0.0
C800 C 0.69579 0.00942 0.97461 0.0
C801 C 0.66487 0.96151 0.99205 0.0
C802 C 0.66943 0.93188 0.97931 0.0
C803 C 0.6443 0.91132 0.97358 0.0
C804 C 0.61356 0.9214 0.98085 0.0
C805 C 0.60817 0.95181 0.99367 0.0
C806 C 0.63431 0.97197 -0.00046 0.0
H807 H 0.77571 0.10326 0.46052 0.0
H808 H 0.74462 0.02371 0.40318 0.0
H809 H 0.78988 0.99271 0.423 0.0
H810 H 0.85547 0.09545 0.44956 0.0
H811 H 0.86733 0.10535 0.48959 0.0
H812 H 0.83069 0.12035 0.47374 0.0
H813 H 0.79972 0.09591 0.52089 0.0
H814 H 0.83639 0.08112 0.53719 0.0
H815 H 0.80387 0.05451 0.52947 0.0
H816 H 0.84276 0.97367 0.44209 0.0
H817 H 0.89665 0.96575 0.46421 0.0
H818 H 0.89034 0.05522 0.51347 0.0
C819 C 0.77763 0.07899 0.4529 0.0
C820 C 0.75663 0.06616 0.42994 0.0
C821 C 0.7607 0.03443 0.42018 0.0
C822 C 0.78619 0.01647 0.43153 0.0
C823 C 0.80698 0.03025 0.45328 0.0
C824 C 0.80257 0.06053 0.46445 0.0
C825 C 0.82913 0.0703 0.48675 0.0
C826 C 0.84668 0.09958 0.47414 0.0
C827 C 0.81652 0.07578 0.52059 0.0
C828 C 0.84985 0.04127 0.48529 0.0
C829 C 0.83665 0.01843 0.46583 0.0
C830 C 0.85294 0.99095 0.45808 0.0
C831 C 0.88353 0.98673 0.47056 0.0
C832 C 0.89718 0.00965 0.49087 0.0
C833 C 0.87995 0.037 0.49867 0.0
H834 H 0.25915 0.56531 0.10211 0.0
H835 H 0.29963 0.54921 0.00874 0.0
H836 H 0.24598 0.54015 0.98666 0.0
H837 H 0.19592 0.50768 0.09664 0.0
H838 H 0.16734 0.53192 0.11695 0.0
H839 H 0.209 0.53616 0.12572 0.0
H840 H 0.20577 0.59567 0.11243 0.0
H841 H 0.16413 0.59159 0.10349 0.0
H842 H 0.19066 0.60787 0.07418 0.0
H843 H 0.1889 0.532 0.97493 0.0
H844 H 0.13071 0.52716 0.97329 0.0
H845 H 0.12605 0.55126 0.07365 0.0
C846 C 0.25657 0.55963 0.0771 0.0
C847 C 0.28332 0.5578 0.05703 0.0
C848 C 0.27928 0.55077 0.02435 0.0
C849 C 0.24899 0.54555 0.01167 0.0
C850 C 0.22303 0.54777 0.03196 0.0
C851 C 0.22639 0.55482 0.06391 0.0
C852 C 0.19435 0.55668 0.08015 0.0
C853 C 0.19149 0.53161 0.10642 0.0
C854 C 0.18838 0.58993 0.09333 0.0
C855 C 0.17254 0.5494 0.05233 0.0
C856 C 0.18971 0.54414 0.02487 0.0
C857 C 0.17514 0.5362 0.99621 0.0
C858 C 0.14209 0.53345 0.99557 0.0
C859 C 0.12387 0.53894 0.02332 0.0
C860 C 0.13935 0.54725 0.05202 0.0
H861 H 0.22844 0.47726 0.58366 0.0
H862 H 0.2185 0.38504 0.5403 0.0
H863 H 0.26914 0.39274 0.5122 0.0
H864 H 0.27126 0.51591 0.51387 0.0
H865 H 0.29597 0.53845 0.5406 0.0
H866 H 0.25586 0.52861 0.55174 0.0
H867 H 0.27695 0.50312 0.60364 0.0
H868 H 0.31704 0.5123 0.59251 0.0
H869 H 0.30606 0.47216 0.60121 0.0
H870 H 0.32529 0.40461 0.49951 0.0
H871 H 0.38085 0.42344 0.49695 0.0
H872 H 0.35416 0.5093 0.54558 0.0
C873 C 0.23643 0.45924 0.56731 0.0
C874 C 0.21952 0.43066 0.56397 0.0
C875 C 0.23078 0.40736 0.54274 0.0
C876 C 0.25963 0.41146 0.5268 0.0
C877 C 0.27656 0.43922 0.53188 0.0
C878 C 0.26505 0.46312 0.55098 0.0
C879 C 0.28925 0.48931 0.55485 0.0
C880 C 0.27737 0.51988 0.53933 0.0
C881 C 0.29782 0.49449 0.59013 0.0
C882 C 0.31681 0.47554 0.53653 0.0
C883 C 0.3089 0.4467 0.52331 0.0
C884 C 0.33149 0.42761 0.50876 0.0
C885 C 0.36293 0.43831 0.50762 0.0
C886 C 0.37126 0.4679 0.52059 0.0
C887 C 0.34792 0.48695 0.53478 0.0
H888 H 0.92687 0.77811 0.95524 0.0
H889 H 0.98829 0.82181 0.02571 0.0
H890 H 0.00762 0.76921 0.04188 0.0
H891 H 0.90479 0.71074 0.00247 0.0
H892 H 0.90459 0.6841 0.96905 0.0
H893 H 0.89579 0.72519 0.96313 0.0
H894 H 0.94065 0.72893 0.9212 0.0
H895 H 0.94964 0.68788 0.92704 0.0
H896 H 0.98033 0.71713 0.93193 0.0
H897 H 0.01995 0.71174 0.05039 0.0
H898 H 0.02486 0.65385 0.05037 0.0
H899 H 0.95489 0.64804 0.97442 0.0
C900 C 0.94413 0.77664 0.97432 0.0
C901 C 0.95601 0.80407 0.9893 0.0
C902 C 0.97907 0.80113 0.01372 0.0
C903 C 0.99006 0.77137 0.02316 0.0
C904 C 0.97779 0.74483 0.00789 0.0
C905 C 0.95535 0.7472 0.98398 0.0
C906 C 0.94616 0.71511 0.97118 0.0
C907 C 0.91073 0.7084 0.97681 0.0
C908 C 0.95471 0.7121 0.93574 0.0
C909 C 0.9669 0.69425 0.99167 0.0
C910 C 0.98495 0.71183 0.0127 0.0
C911 C 0.00593 0.69774 0.03402 0.0
C912 C 0.00854 0.6648 0.03381 0.0
C913 C 0.99028 0.64629 0.01239 0.0
C914 C 0.96921 0.6614 0.9911 0.0
H915 H 0.44679 0.73798 0.11601 0.0
H916 H 0.42382 0.70391 0.02125 0.0
H917 H 0.42477 0.75827 0.00095 0.0
H918 H 0.40094 0.81228 0.11064 0.0
H919 H 0.4303 0.8347 0.13225 0.0
H920 H 0.42513 0.79331 0.14042 0.0
H921 H 0.48475 0.78377 0.12925 0.0
H922 H 0.4901 0.82506 0.12112 0.0
H923 H 0.50133 0.79621 0.09177 0.0
H924 H 0.43242 0.81419 0.98965 0.0
H925 H 0.44721 0.8702 0.9874 0.0
H926 H 0.46435 0.87038 0.08931 0.0
C927 C 0.44151 0.74216 0.09112 0.0
C928 C 0.43543 0.71681 0.0701 0.0
C929 C 0.42898 0.72299 0.03761 0.0
C930 C 0.42916 0.75378 0.02593 0.0
C931 C 0.43567 0.77819 0.04706 0.0
C932 C 0.44171 0.77293 0.07896 0.0
C933 C 0.44999 0.8035 0.09589 0.0
C934 C 0.4251 0.81141 0.1213 0.0
C935 C 0.48354 0.80204 0.11035 0.0
C936 C 0.44847 0.82651 0.06827 0.0
C937 C 0.43983 0.81123 0.04047 0.0
C938 C 0.43877 0.82657 0.01127 0.0
C939 C 0.44732 0.85832 0.01024 0.0
C940 C 0.45668 0.87448 0.03821 0.0
C941 C 0.45666 0.8586 0.06775 0.0
H942 H 0.10147 0.2304 0.61704 0.0
H943 H 0.00871 0.27472 0.61898 0.0
H944 H 0.98357 0.22293 0.60922 0.0
H945 H 0.08438 0.17854 0.55247 0.0
H946 H 0.10803 0.14687 0.56834 0.0
H947 H 0.11815 0.18707 0.57748 0.0
H948 H 0.11546 0.17426 0.63778 0.0
H949 H 0.105 0.13405 0.62881 0.0
H950 H 0.07971 0.15737 0.65403 0.0
H951 H 0.96884 0.16605 0.59807 0.0
H952 H 0.96593 0.10989 0.58276 0.0
H953 H 0.06876 0.10435 0.58596 0.0
C954 C 0.07587 0.22946 0.61508 0.0
C955 C 0.05711 0.25676 0.61875 0.0
C956 C 0.02362 0.25412 0.61666 0.0
C957 C 0.00912 0.22482 0.61104 0.0
C958 C 0.02844 0.19845 0.60751 0.0
C959 C 0.0611 0.20061 0.60922 0.0
C960 C 0.07671 0.16915 0.60325 0.0
C961 C 0.09806 0.1705 0.57362 0.0
C962 C 0.09531 0.15806 0.63273 0.0
C963 C 0.04773 0.14891 0.59755 0.0
C964 C 0.02007 0.16607 0.60048 0.0
C965 C 0.99035 0.15237 0.59577 0.0
C966 C 0.98895 0.12043 0.5872 0.0
C967 C 0.01713 0.10273 0.58312 0.0
C968 C 0.04678 0.11719 0.58887 0.0
H969 H 0.62833 0.28664 0.43701 0.0
H970 H 0.55149 0.21943 0.44913 0.0
H971 H 0.52052 0.25988 0.47765 0.0
H972 H 0.61825 0.3297 0.51182 0.0
H973 H 0.62697 0.36709 0.49347 0.0
H974 H 0.64466 0.33158 0.4782 0.0
H975 H 0.62192 0.34391 0.42215 0.0
H976 H 0.60417 0.37936 0.43723 0.0
H977 H 0.57988 0.35027 0.41749 0.0
H978 H 0.49634 0.30934 0.5013 0.0
H979 H 0.48037 0.36358 0.51565 0.0
H980 H 0.57203 0.39831 0.48433 0.0
C981 C 0.60503 0.28025 0.44569 0.0
C982 C 0.59241 0.24976 0.44073 0.0
C983 C 0.56196 0.24243 0.45301 0.0
C984 C 0.54412 0.26531 0.46914 0.0
C985 C 0.55705 0.29536 0.47282 0.0
C986 C 0.58684 0.3028 0.46139 0.0
C987 C 0.59446 0.33732 0.46595 0.0
C988 C 0.62276 0.34167 0.48872 0.0
C989 C 0.60044 0.35367 0.43379 0.0
C990 C 0.56395 0.34843 0.48098 0.0
C991 C 0.54285 0.32385 0.48535 0.0
C992 C 0.51277 0.32871 0.49816 0.0
C993 C 0.50392 0.35957 0.50626 0.0
C994 C 0.52492 0.38514 0.50099 0.0
C995 C 0.55541 0.37927 0.48856 0.0
loop_
_geom_bond_atom_site_label_1
_geom_bond_atom_site_label_2
_geom_bond_distance
_geom_bond_site_symmetry_2
_ccdc_geom_bond_type
P0 O11 1.490 . S
P0 C14 1.812 . S
P0 C20 1.803 . S
P0 C26 1.819 . S
H1 C15 0.941 . S
H2 C16 0.939 . S
H3 C18 0.940 . S
H4 C19 0.940 . S
H5 C21 0.939 . S
H6 C22 0.942 . S
H7 C24 0.940 . S
H8 C25 0.939 . S
H9 C27 0.941 . S
H10 C31 0.939 . S
O11 P0 1.490 . S
H12 C28 0.939 . S
H13 C30 0.940 . S
C14 P0 1.812 . S
C14 C15 1.389 . S
C14 C19 1.391 . S
C15 H1 0.941 . S
C15 C14 1.389 . S
C15 C16 1.397 . S
C16 H2 0.939 . S
C16 C15 1.397 . S
C16 C17 1.378 . S
C17 C16 1.378 . S
C17 C18 1.378 . S
C18 H3 0.940 . S
C18 C17 1.378 . S
C18 C19 1.396 . S
C19 H4 0.940 . S
C19 C14 1.391 . S
C19 C18 1.396 . S
C20 P0 1.803 . S
C20 C21 1.378 . S
C20 C25 1.400 . S
C21 H5 0.939 . S
C21 C20 1.378 . S
C21 C22 1.361 . S
C22 H6 0.942 . S
C22 C21 1.361 . S
C22 C23 1.369 . S
C23 C22 1.369 . S
C23 C24 1.404 . S
C24 H7 0.940 . S
C24 C23 1.404 . S
C24 C25 1.389 . S
C25 H8 0.939 . S
C25 C20 1.400 . S
C25 C24 1.389 . S
C26 P0 1.819 . S
C26 C27 1.391 . S
C26 C31 1.391 . S
C27 H9 0.941 . S
C27 C26 1.391 . S
C27 C28 1.396 . S
C28 H12 0.939 . S
C28 C27 1.396 . S
C28 C29 1.397 . S
C29 C28 1.397 . S
C29 C30 1.385 . S
C30 H13 0.940 . S
C30 C29 1.385 . S
C30 C31 1.388 . S
C31 H10 0.939 . S
C31 C26 1.391 . S
C31 C30 1.388 . S
P32 O43 1.490 . S
P32 C46 1.812 . S
P32 C52 1.803 . S
P32 C58 1.819 . S
H33 C47 0.941 . S
H34 C48 0.939 . S
H35 C50 0.940 . S
H36 C51 0.940 . S
H37 C53 0.939 . S
H38 C54 0.942 . S
H39 C56 0.940 . S
H40 C57 0.939 . S
H41 C59 0.941 . S
H42 C63 0.939 . S
O43 P32 1.490 . S
H44 C60 0.939 . S
H45 C62 0.940 . S
C46 P32 1.812 . S
C46 C47 1.389 . S
C46 C51 1.391 . S
C47 H33 0.941 . S
C47 C46 1.389 . S
C47 C48 1.397 . S
C48 H34 0.939 . S
C48 C47 1.397 . S
C48 C49 1.378 . S
C49 C48 1.378 . S
C49 C50 1.378 . S
C50 H35 0.940 . S
C50 C49 1.378 . S
C50 C51 1.396 . S
C51 H36 0.940 . S
C51 C46 1.391 . S
C51 C50 1.396 . S
C52 P32 1.803 . S
C52 C53 1.378 . S
C52 C57 1.400 . S
C53 H37 0.939 . S
C53 C52 1.378 . S
C53 C54 1.361 . S
C54 H38 0.942 . S
C54 C53 1.361 . S
C54 C55 1.369 . S
C55 C54 1.369 . S
C55 C56 1.404 . S
C56 H39 0.940 . S
C56 C55 1.404 . S
C56 C57 1.389 . S
C57 H40 0.939 . S
C57 C52 1.400 . S
C57 C56 1.389 . S
C58 P32 1.819 . S
C58 C59 1.391 . S
C58 C63 1.391 . S
C59 H41 0.941 . S
C59 C58 1.391 . S
C59 C60 1.396 . S
C60 H44 0.939 . S
C60 C59 1.396 . S
C60 C61 1.397 . S
C61 C60 1.397 . S
C61 C62 1.385 . S
C62 H45 0.940 . S
C62 C61 1.385 . S
C62 C63 1.388 . S
C63 H42 0.939 . S
C63 C58 1.391 . S
C63 C62 1.388 . S
P64 O75 1.490 . S
P64 C78 1.812 . S
P64 C84 1.803 . S
P64 C90 1.819 . S
H65 C79 0.941 . S
H66 C80 0.939 . S
H67 C82 0.940 . S
H68 C83 0.940 . S
H69 C85 0.939 . S
H70 C86 0.942 . S
H71 C88 0.940 . S
H72 C89 0.939 . S
H73 C91 0.941 . S
H74 C95 0.939 . S
O75 P64 1.490 . S
H76 C92 0.939 . S
H77 C94 0.940 . S
C78 P64 1.812 . S
C78 C79 1.389 . S
C78 C83 1.391 . S
C79 H65 0.941 . S
C79 C78 1.389 . S
C79 C80 1.397 . S
C80 H66 0.939 . S
C80 C79 1.397 . S
C80 C81 1.378 . S
C81 C80 1.378 . S
C81 C82 1.378 . S
C82 H67 0.940 . S
C82 C81 1.378 . S
C82 C83 1.396 . S
C83 H68 0.940 . S
C83 C78 1.391 . S
C83 C82 1.396 . S
C84 P64 1.803 . S
C84 C85 1.378 . S
C84 C89 1.400 . S
C85 H69 0.939 . S
C85 C84 1.378 . S
C85 C86 1.361 . S
C86 H70 0.942 . S
C86 C85 1.361 . S
C86 C87 1.369 . S
C87 C86 1.369 . S
C87 C88 1.404 . S
C88 H71 0.940 . S
C88 C87 1.404 . S
C88 C89 1.389 . S
C89 H72 0.939 . S
C89 C84 1.400 . S
C89 C88 1.389 . S
C90 P64 1.819 . S
C90 C91 1.391 . S
C90 C95 1.391 . S
C91 H73 0.941 . S
C91 C90 1.391 . S
C91 C92 1.396 . S
C92 H76 0.939 . S
C92 C91 1.396 . S
C92 C93 1.397 . S
C93 C92 1.397 . S
C93 C94 1.385 . S
C94 H77 0.940 . S
C94 C93 1.385 . S
C94 C95 1.388 . S
C95 H74 0.939 . S
C95 C90 1.391 . S
C95 C94 1.388 . S
P96 O107 1.490 . S
P96 C110 1.812 . S
P96 C116 1.803 . S
P96 C122 1.819 . S
H97 C111 0.941 . S
H98 C112 0.939 . S
H99 C114 0.940 . S
H100 C115 0.940 . S
H101 C117 0.939 . S
H102 C118 0.942 . S
H103 C120 0.940 . S
H104 C121 0.939 . S
H105 C123 0.941 . S
H106 C127 0.939 . S
O107 P96 1.490 . S
H108 C124 0.939 . S
H109 C126 0.940 . S
C110 P96 1.812 . S
C110 C111 1.389 . S
C110 C115 1.391 . S
C111 H97 0.941 . S
C111 C110 1.389 . S
C111 C112 1.397 . S
C112 H98 0.939 . S
C112 C111 1.397 . S
C112 C113 1.378 . S
C113 C112 1.378 . S
C113 C114 1.378 . S
C114 H99 0.940 . S
C114 C113 1.378 . S
C114 C115 1.396 . S
C115 H100 0.940 . S
C115 C110 1.391 . S
C115 C114 1.396 . S
C116 P96 1.803 . S
C116 C117 1.378 . S
C116 C121 1.400 . S
C117 H101 0.939 . S
C117 C116 1.378 . S
C117 C118 1.361 . S
C118 H102 0.942 . S
C118 C117 1.361 . S
C118 C119 1.369 . S
C119 C118 1.369 . S
C119 C120 1.404 . S
C120 H103 0.940 . S
C120 C119 1.404 . S
C120 C121 1.389 . S
C121 H104 0.939 . S
C121 C116 1.400 . S
C121 C120 1.389 . S
C122 P96 1.819 . S
C122 C123 1.391 . S
C122 C127 1.391 . S
C123 H105 0.941 . S
C123 C122 1.391 . S
C123 C124 1.396 . S
C124 H108 0.939 . S
C124 C123 1.396 . S
C124 C125 1.397 . S
C125 C124 1.397 . S
C125 C126 1.385 . S
C126 H109 0.940 . S
C126 C125 1.385 . S
C126 C127 1.388 . S
C127 H106 0.939 . S
C127 C122 1.391 . S
C127 C126 1.388 . S
P128 O139 1.490 . S
P128 C142 1.812 . S
P128 C148 1.803 . S
P128 C154 1.819 . S
H129 C143 0.943 . S
H130 C144 0.939 1_554 S
H131 C146 0.940 . S
H132 C147 0.940 . S
H133 C149 0.939 . S
H134 C150 0.942 . S
H135 C152 0.940 . S
H136 C153 0.939 . S
H137 C155 0.941 1_545 S
H138 C159 0.939 . S
O139 P128 1.490 . S
H140 C156 0.939 1_545 S
H141 C158 0.940 . S
C142 P128 1.812 . S
C142 C143 1.389 . S
C142 C147 1.391 . S
C143 H129 0.943 . S
C143 C142 1.389 . S
C143 C144 1.397 . S
C144 H130 0.939 1_556 S
C144 C143 1.397 . S
C144 C145 1.378 . S
C145 C144 1.378 . S
C145 C146 1.378 . S
C146 H131 0.940 . S
C146 C145 1.378 . S
C146 C147 1.396 . S
C147 H132 0.940 . S
C147 C142 1.391 . S
C147 C146 1.396 . S
C148 P128 1.803 . S
C148 C149 1.378 . S
C148 C153 1.400 . S
C149 H133 0.939 . S
C149 C148 1.378 . S
C149 C150 1.361 . S
C150 H134 0.942 . S
C150 C149 1.361 . S
C150 C151 1.369 . S
C151 C150 1.369 . S
C151 C152 1.404 . S
C152 H135 0.940 . S
C152 C151 1.404 . S
C152 C153 1.389 . S
C153 H136 0.939 . S
C153 C148 1.400 . S
C153 C152 1.389 . S
C154 P128 1.819 . S
C154 C155 1.391 . S
C154 C159 1.391 . S
C155 H137 0.941 1_565 S
C155 C154 1.391 . S
C155 C156 1.396 . S
C156 H140 0.939 1_565 S
C156 C155 1.396 . S
C156 C157 1.397 . S
C157 C156 1.397 . S
C157 C158 1.385 . S
C158 H141 0.940 . S
C158 C157 1.385 . S
C158 C159 1.388 . S
C159 H138 0.939 . S
C159 C154 1.391 . S
C159 C158 1.388 . S
P160 O171 1.490 . S
P160 C174 1.812 . S
P160 C180 1.803 . S
P160 C186 1.819 . S
H161 C175 0.941 . S
H162 C176 0.939 . S
H163 C178 0.940 . S
H164 C179 0.940 . S
H165 C181 0.939 . S
H166 C182 0.942 . S
H167 C184 0.940 . S
H168 C185 0.939 . S
H169 C187 0.941 . S
H170 C191 0.939 . S
O171 P160 1.490 . S
H172 C188 0.939 . S
H173 C190 0.940 . S
C174 P160 1.812 . S
C174 C175 1.389 . S
C174 C179 1.391 . S
C175 H161 0.941 . S
C175 C174 1.389 . S
C175 C176 1.397 . S
C176 H162 0.939 . S
C176 C175 1.397 . S
C176 C177 1.378 . S
C177 C176 1.378 . S
C177 C178 1.378 . S
C178 H163 0.940 . S
C178 C177 1.378 . S
C178 C179 1.396 . S
C179 H164 0.940 . S
C179 C174 1.391 . S
C179 C178 1.396 . S
C180 P160 1.803 . S
C180 C181 1.378 . S
C180 C185 1.400 . S
C181 H165 0.939 . S
C181 C180 1.378 . S
C181 C182 1.361 . S
C182 H166 0.942 . S
C182 C181 1.361 . S
C182 C183 1.369 . S
C183 C182 1.369 . S
C183 C184 1.404 . S
C184 H167 0.940 . S
C184 C183 1.404 . S
C184 C185 1.389 . S
C185 H168 0.939 . S
C185 C180 1.400 . S
C185 C184 1.389 . S
C186 P160 1.819 . S
C186 C187 1.391 . S
C186 C191 1.391 . S
C187 H169 0.941 . S
C187 C186 1.391 . S
C187 C188 1.396 . S
C188 H172 0.939 . S
C188 C187 1.396 . S
C188 C189 1.397 . S
C189 C188 1.397 . S
C189 C190 1.385 . S
C190 H173 0.940 . S
C190 C189 1.385 . S
C190 C191 1.388 . S
C191 H170 0.939 . S
C191 C186 1.391 . S
C191 C190 1.388 . S
P192 O203 1.490 . S
P192 C206 1.812 . S
P192 C212 1.803 . S
P192 C218 1.819 . S
H193 C207 0.941 . S
H194 C208 0.939 . S
H195 C210 0.940 . S
H196 C211 0.940 . S
H197 C213 0.939 . S
H198 C214 0.942 . S
H199 C216 0.940 . S
H200 C217 0.939 . S
H201 C219 0.941 . S
H202 C223 0.939 . S
O203 P192 1.490 . S
H204 C220 0.939 . S
H205 C222 0.940 . S
C206 P192 1.812 . S
C206 C207 1.389 . S
C206 C211 1.391 . S
C207 H193 0.941 . S
C207 C206 1.389 . S
C207 C208 1.397 . S
C208 H194 0.939 . S
C208 C207 1.397 . S
C208 C209 1.378 . S
C209 C208 1.378 . S
C209 C210 1.378 . S
C210 H195 0.940 . S
C210 C209 1.378 . S
C210 C211 1.396 . S
C211 H196 0.940 . S
C211 C206 1.391 . S
C211 C210 1.396 . S
C212 P192 1.803 . S
C212 C213 1.378 . S
C212 C217 1.400 . S
C213 H197 0.939 . S
C213 C212 1.378 . S
C213 C214 1.361 . S
C214 H198 0.942 . S
C214 C213 1.361 . S
C214 C215 1.369 . S
C215 C214 1.369 . S
C215 C216 1.404 . S
C216 H199 0.940 . S
C216 C215 1.404 . S
C216 C217 1.389 . S
C217 H200 0.939 . S
C217 C212 1.400 . S
C217 C216 1.389 . S
C218 P192 1.819 . S
C218 C219 1.391 . S
C218 C223 1.391 . S
C219 H201 0.941 . S
C219 C218 1.391 . S
C219 C220 1.396 . S
C220 H204 0.939 . S
C220 C219 1.396 . S
C220 C221 1.397 . S
C221 C220 1.397 . S
C221 C222 1.385 . S
C222 H205 0.940 . S
C222 C221 1.385 . S
C222 C223 1.388 . S
C223 H202 0.939 . S
C223 C218 1.391 . S
C223 C222 1.388 . S
P224 O235 1.490 . S
P224 C238 1.812 . S
P224 C244 1.803 . S
P224 C250 1.819 . S
H225 C239 0.941 . S
H226 C240 0.939 . S
H227 C242 0.940 . S
H228 C243 0.940 . S
H229 C245 0.939 . S
H230 C246 0.942 . S
H231 C248 0.940 . S
H232 C249 0.939 . S
H233 C251 0.941 . S
H234 C255 0.939 . S
O235 P224 1.490 . S
H236 C252 0.939 . S
H237 C254 0.940 . S
C238 P224 1.812 . S
C238 C239 1.389 . S
C238 C243 1.391 . S
C239 H225 0.941 . S
C239 C238 1.389 . S
C239 C240 1.397 . S
C240 H226 0.939 . S
C240 C239 1.397 . S
C240 C241 1.378 . S
C241 C240 1.378 . S
C241 C242 1.378 . S
C242 H227 0.940 . S
C242 C241 1.378 . S
C242 C243 1.396 . S
C243 H228 0.940 . S
C243 C238 1.391 . S
C243 C242 1.396 . S
C244 P224 1.803 . S
C244 C245 1.378 . S
C244 C249 1.400 . S
C245 H229 0.939 . S
C245 C244 1.378 . S
C245 C246 1.361 . S
C246 H230 0.942 . S
C246 C245 1.361 . S
C246 C247 1.369 . S
C247 C246 1.369 . S
C247 C248 1.404 . S
C248 H231 0.940 . S
C248 C247 1.404 . S
C248 C249 1.389 . S
C249 H232 0.939 . S
C249 C244 1.400 . S
C249 C248 1.389 . S
C250 P224 1.819 . S
C250 C251 1.391 . S
C250 C255 1.391 . S
C251 H233 0.941 . S
C251 C250 1.391 . S
C251 C252 1.396 . S
C252 H236 0.939 . S
C252 C251 1.396 . S
C252 C253 1.397 . S
C253 C252 1.397 . S
C253 C254 1.385 . S
C254 H237 0.940 . S
C254 C253 1.385 . S
C254 C255 1.388 . S
C255 H234 0.939 . S
C255 C250 1.391 . S
C255 C254 1.388 . S
O256 Zn257 1.953 . S
O256 C272 1.225 1_655 S
Zn257 O256 1.953 . S
Zn257 O258 1.949 1_655 S
Zn257 O264 1.919 . S
Zn257 O269 1.924 . S
O258 Zn257 1.949 1_455 S
O258 Zn259 1.923 1_445 S
O258 Zn260 1.950 . S
O258 Zn261 1.945 1_545 S
Zn259 O258 1.923 1_665 S
Zn259 O262 1.933 . S
Zn259 O265 1.941 1_565 S
Zn259 O266 1.965 1_665 S
Zn260 O258 1.950 . S
Zn260 O267 1.938 . S
Zn260 O268 1.906 1_545 S
Zn260 O278 1.953 . S
Zn261 O258 1.945 1_565 S
Zn261 O263 1.932 1_455 S
Zn261 O270 1.977 . S
Zn261 O271 1.910 1_455 S
O262 Zn259 1.933 . S
O262 C273 1.226 . S
O263 Zn261 1.932 1_655 S
O263 C273 1.307 . S
O264 Zn257 1.919 . S
O264 C275 1.253 . S
O265 Zn259 1.941 1_545 S
O265 C275 1.283 . S
O266 Zn259 1.965 1_445 S
O266 C274 1.303 . S
O267 Zn260 1.938 . S
O267 C274 1.247 . S
O268 Zn260 1.906 1_565 S
O268 C276 1.304 . S
O269 Zn257 1.924 . S
O269 C277 1.311 1_545 S
O270 Zn261 1.977 . S
O270 C276 1.272 . S
O271 Zn261 1.910 1_655 S
O271 C277 1.231 . S
C272 O256 1.225 1_455 S
C272 O278 1.298 . S
C273 O262 1.226 . S
C273 O263 1.307 . S
C274 O266 1.303 . S
C274 O267 1.247 . S
C275 O264 1.253 . S
C275 O265 1.283 . S
C276 O268 1.304 . S
C276 O270 1.272 . S
C277 O269 1.311 1_565 S
C277 O271 1.231 . S
O278 Zn260 1.953 . S
O278 C272 1.298 . S
O279 Zn280 1.953 . S
O279 C295 1.225 . S
Zn280 O279 1.953 . S
Zn280 O281 1.949 1_556 S
Zn280 O287 1.919 . S
Zn280 O292 1.924 1_556 S
O281 Zn280 1.949 1_554 S
O281 Zn282 1.923 1_545 S
O281 Zn283 1.950 . S
O281 Zn284 1.945 1_545 S
Zn282 O281 1.923 1_565 S
Zn282 O285 1.933 . S
Zn282 O288 1.941 1_554 S
Zn282 O289 1.965 . S
Zn283 O281 1.950 . S
Zn283 O290 1.938 . S
Zn283 O291 1.906 . S
Zn283 O301 1.953 . S
Zn284 O281 1.945 1_565 S
Zn284 O286 1.932 . S
Zn284 O293 1.977 1_565 S
Zn284 O294 1.910 1_565 S
O285 Zn282 1.933 . S
O285 C296 1.226 . S
O286 Zn284 1.932 . S
O286 C296 1.307 . S
O287 Zn280 1.919 . S
O287 C298 1.253 1_545 S
O288 Zn282 1.941 1_556 S
O288 C298 1.283 . S
O289 Zn282 1.965 . S
O289 C297 1.303 . S
O290 Zn283 1.938 . S
O290 C297 1.247 1_545 S
O291 Zn283 1.906 . S
O291 C299 1.304 . S
O292 Zn280 1.924 1_554 S
O292 C300 1.311 . S
O293 Zn284 1.977 1_545 S
O293 C299 1.272 . S
O294 Zn284 1.910 1_545 S
O294 C300 1.231 . S
C295 O279 1.225 . S
C295 O301 1.298 1_556 S
C296 O285 1.226 . S
C296 O286 1.307 . S
C297 O289 1.303 . S
C297 O290 1.247 1_565 S
C298 O287 1.253 1_565 S
C298 O288 1.283 . S
C299 O291 1.304 . S
C299 O293 1.272 . S
C300 O292 1.311 . S
C300 O294 1.231 . S
O301 Zn283 1.953 . S
O301 C295 1.298 1_554 S
O302 Zn303 1.953 . S
O302 C318 1.225 . S
Zn303 O302 1.953 . S
Zn303 O304 1.949 . S
Zn303 O310 1.919 . S
Zn303 O315 1.924 . S
O304 Zn303 1.949 . S
O304 Zn305 1.923 . S
O304 Zn306 1.950 . S
O304 Zn307 1.945 . S
Zn305 O304 1.923 . S
Zn305 O308 1.933 . S
Zn305 O311 1.941 . S
Zn305 O312 1.965 . S
Zn306 O304 1.950 . S
Zn306 O313 1.938 . S
Zn306 O314 1.906 . S
Zn306 O324 1.953 . S
Zn307 O304 1.945 . S
Zn307 O309 1.932 . S
Zn307 O316 1.977 . S
Zn307 O317 1.910 . S
O308 Zn305 1.933 . S
O308 C319 1.226 . S
O309 Zn307 1.932 . S
O309 C319 1.307 . S
O310 Zn303 1.919 . S
O310 C321 1.253 . S
O311 Zn305 1.941 . S
O311 C321 1.283 . S
O312 Zn305 1.965 . S
O312 C320 1.303 . S
O313 Zn306 1.938 . S
O313 C320 1.247 . S
O314 Zn306 1.906 . S
O314 C322 1.304 . S
O315 Zn303 1.924 . S
O315 C323 1.311 . S
O316 Zn307 1.977 . S
O316 C322 1.272 . S
O317 Zn307 1.910 . S
O317 C323 1.231 . S
C318 O302 1.225 . S
C318 O324 1.298 . S
C319 O308 1.226 . S
C319 O309 1.307 . S
C320 O312 1.303 . S
C320 O313 1.247 . S
C321 O310 1.253 . S
C321 O311 1.283 . S
C322 O314 1.304 . S
C322 O316 1.272 . S
C323 O315 1.311 . S
C323 O317 1.231 . S
O324 Zn306 1.953 . S
O324 C318 1.298 . S
O325 Zn326 1.953 . S
O325 C341 1.225 . S
Zn326 O325 1.953 . S
Zn326 O327 1.949 1_655 S
Zn326 O333 1.919 . S
Zn326 O338 1.924 . S
O327 Zn326 1.949 1_455 S
O327 Zn328 1.923 1_454 S
O327 Zn329 1.950 . S
O327 Zn330 1.945 1_554 S
Zn328 O327 1.923 1_656 S
Zn328 O331 1.933 1_655 S
Zn328 O334 1.941 . S
Zn328 O335 1.965 . S
Zn329 O327 1.950 . S
Zn329 O336 1.938 . S
Zn329 O337 1.906 . S
Zn329 O347 1.953 . S
Zn330 O327 1.945 1_556 S
Zn330 O332 1.932 . S
Zn330 O339 1.977 1_556 S
Zn330 O340 1.910 1_556 S
O331 Zn328 1.933 1_455 S
O331 C342 1.226 . S
O332 Zn330 1.932 . S
O332 C342 1.307 . S
O333 Zn326 1.919 . S
O333 C344 1.253 1_554 S
O334 Zn328 1.941 . S
O334 C344 1.283 . S
O335 Zn328 1.965 . S
O335 C343 1.303 . S
O336 Zn329 1.938 . S
O336 C343 1.247 1_454 S
O337 Zn329 1.906 . S
O337 C345 1.304 . S
O338 Zn326 1.924 . S
O338 C346 1.311 1_655 S
O339 Zn330 1.977 1_554 S
O339 C345 1.272 . S
O340 Zn330 1.910 1_554 S
O340 C346 1.231 . S
C341 O325 1.225 . S
C341 O347 1.298 1_655 S
C342 O331 1.226 . S
C342 O332 1.307 . S
C343 O335 1.303 . S
C343 O336 1.247 1_656 S
C344 O333 1.253 1_556 S
C344 O334 1.283 . S
C345 O337 1.304 . S
C345 O339 1.272 . S
C346 O338 1.311 1_455 S
C346 O340 1.231 . S
O347 Zn329 1.953 . S
O347 C341 1.298 1_455 S
H348 C360 0.930 . S
H349 C362 0.930 . S
H350 C363 0.930 . S
H351 C367 0.959 . S
H352 C367 0.959 . S
H353 C367 0.961 . S
H354 C368 0.960 . S
H355 C368 0.961 1_565 S
H356 C368 0.959 . S
H357 C371 0.929 . S
H358 C372 0.931 . S
H359 C374 0.930 . S
C360 H348 0.930 . S
C360 C361 1.399 . S
C360 C365 1.399 . S
C361 C360 1.399 . S
C361 C362 1.376 . S
C362 H349 0.930 . S
C362 C361 1.376 . S
C362 C363 1.388 . S
C363 H350 0.930 . S
C363 C362 1.388 . S
C363 C364 1.390 . S
C364 C363 1.390 . S
C364 C365 1.394 . S
C364 C370 1.465 . S
C365 C360 1.399 . S
C365 C364 1.394 . S
C365 C366 1.516 . S
C366 C365 1.516 . S
C366 C367 1.502 . S
C366 C368 1.561 . S
C366 C369 1.526 . S
C367 H351 0.959 . S
C367 H352 0.959 . S
C367 H353 0.961 . S
C367 C366 1.502 . S
C368 H354 0.960 . S
C368 H355 0.961 1_545 S
C368 H356 0.959 . S
C368 C366 1.561 . S
C369 C366 1.526 . S
C369 C370 1.396 . S
C369 C374 1.390 . S
C370 C364 1.465 . S
C370 C369 1.396 . S
C370 C371 1.399 . S
C371 H357 0.929 . S
C371 C370 1.399 . S
C371 C372 1.385 . S
C372 H358 0.931 . S
C372 C371 1.385 . S
C372 C373 1.389 . S
C373 C372 1.389 . S
C373 C374 1.387 . S
C374 H359 0.930 . S
C374 C369 1.390 . S
C374 C373 1.387 . S
H375 C387 0.930 . S
H376 C389 0.930 . S
H377 C390 0.930 . S
H378 C394 0.959 . S
H379 C394 0.959 1_545 S
H380 C394 0.961 1_545 S
H381 C395 0.960 . S
H382 C395 0.961 1_545 S
H383 C395 0.959 . S
H384 C398 0.929 . S
H385 C399 0.931 . S
H386 C401 0.930 . S
C387 H375 0.930 . S
C387 C388 1.399 . S
C387 C392 1.399 . S
C388 C387 1.399 . S
C388 C389 1.376 . S
C389 H376 0.930 . S
C389 C388 1.376 . S
C389 C390 1.388 . S
C390 H377 0.930 . S
C390 C389 1.388 . S
C390 C391 1.390 . S
C391 C390 1.390 . S
C391 C392 1.394 . S
C391 C397 1.465 . S
C392 C387 1.399 . S
C392 C391 1.394 . S
C392 C393 1.516 . S
C393 C392 1.516 . S
C393 C394 1.502 . S
C393 C395 1.561 . S
C393 C396 1.526 . S
C394 H378 0.959 . S
C394 H379 0.959 1_565 S
C394 H380 0.961 1_565 S
C394 C393 1.502 . S
C395 H381 0.960 . S
C395 H382 0.961 1_565 S
C395 H383 0.959 . S
C395 C393 1.561 . S
C396 C393 1.526 . S
C396 C397 1.396 . S
C396 C401 1.390 . S
C397 C391 1.465 . S
C397 C396 1.396 . S
C397 C398 1.399 . S
C398 H384 0.929 . S
C398 C397 1.399 . S
C398 C399 1.385 . S
C399 H385 0.931 . S
C399 C398 1.385 . S
C399 C400 1.389 . S
C400 C399 1.389 . S
C400 C401 1.387 . S
C401 H386 0.930 . S
C401 C396 1.390 . S
C401 C400 1.387 . S
H402 C414 0.930 . S
H403 C416 0.930 . S
H404 C417 0.930 . S
H405 C421 0.959 . S
H406 C421 0.959 . S
H407 C421 0.961 . S
H408 C422 0.960 . S
H409 C422 0.961 . S
H410 C422 0.959 . S
H411 C425 0.929 . S
H412 C426 0.931 . S
H413 C428 0.930 . S
C414 H402 0.930 . S
C414 C415 1.399 . S
C414 C419 1.399 . S
C415 C414 1.399 . S
C415 C416 1.376 . S
C416 H403 0.930 . S
C416 C415 1.376 . S
C416 C417 1.388 . S
C417 H404 0.930 . S
C417 C416 1.388 . S
C417 C418 1.390 . S
C418 C417 1.390 . S
C418 C419 1.394 . S
C418 C424 1.465 . S
C419 C414 1.399 . S
C419 C418 1.394 . S
C419 C420 1.516 . S
C420 C419 1.516 . S
C420 C421 1.502 . S
C420 C422 1.561 . S
C420 C423 1.526 . S
C421 H405 0.959 . S
C421 H406 0.959 . S
C421 H407 0.961 . S
C421 C420 1.502 . S
C422 H408 0.960 . S
C422 H409 0.961 . S
C422 H410 0.959 . S
C422 C420 1.561 . S
C423 C420 1.526 . S
C423 C424 1.396 . S
C423 C428 1.390 . S
C424 C418 1.465 . S
C424 C423 1.396 . S
C424 C425 1.399 . S
C425 H411 0.929 . S
C425 C424 1.399 . S
C425 C426 1.385 . S
C426 H412 0.931 . S
C426 C425 1.385 . S
C426 C427 1.389 . S
C427 C426 1.389 . S
C427 C428 1.387 . S
C428 H413 0.930 . S
C428 C423 1.390 . S
C428 C427 1.387 . S
H429 C441 0.930 . S
H430 C443 0.930 . S
H431 C444 0.930 . S
H432 C448 0.959 . S
H433 C448 0.959 . S
H434 C448 0.961 . S
H435 C449 0.960 . S
H436 C449 0.961 . S
H437 C449 0.959 1_455 S
H438 C452 0.929 . S
H439 C453 0.931 . S
H440 C455 0.930 . S
C441 H429 0.930 . S
C441 C442 1.399 . S
C441 C446 1.399 . S
C442 C441 1.399 . S
C442 C443 1.376 . S
C443 H430 0.930 . S
C443 C442 1.376 . S
C443 C444 1.388 . S
C444 H431 0.930 . S
C444 C443 1.388 . S
C444 C445 1.390 . S
C445 C444 1.390 . S
C445 C446 1.394 . S
C445 C451 1.465 . S
C446 C441 1.399 . S
C446 C445 1.394 . S
C446 C447 1.516 . S
C447 C446 1.516 . S
C447 C448 1.502 . S
C447 C449 1.561 . S
C447 C450 1.526 . S
C448 H432 0.959 . S
C448 H433 0.959 . S
C448 H434 0.961 . S
C448 C447 1.502 . S
C449 H435 0.960 . S
C449 H436 0.961 . S
C449 H437 0.959 1_655 S
C449 C447 1.561 . S
C450 C447 1.526 . S
C450 C451 1.396 . S
C450 C455 1.390 . S
C451 C445 1.465 . S
C451 C450 1.396 . S
C451 C452 1.399 . S
C452 H438 0.929 . S
C452 C451 1.399 . S
C452 C453 1.385 . S
C453 H439 0.931 . S
C453 C452 1.385 . S
C453 C454 1.389 . S
C454 C453 1.389 . S
C454 C455 1.387 . S
C455 H440 0.930 . S
C455 C450 1.390 . S
C455 C454 1.387 . S
H456 C468 0.930 . S
H457 C470 0.930 . S
H458 C471 0.930 . S
H459 C475 0.959 . S
H460 C475 0.959 . S
H461 C475 0.961 . S
H462 C476 0.960 . S
H463 C476 0.961 . S
H464 C476 0.959 . S
H465 C479 0.929 . S
H466 C480 0.931 . S
H467 C482 0.930 . S
C468 H456 0.930 . S
C468 C469 1.399 . S
C468 C473 1.399 . S
C469 C468 1.399 . S
C469 C470 1.376 . S
C470 H457 0.930 . S
C470 C469 1.376 . S
C470 C471 1.388 . S
C471 H458 0.930 . S
C471 C470 1.388 . S
C471 C472 1.390 . S
C472 C471 1.390 . S
C472 C473 1.394 . S
C472 C478 1.465 . S
C473 C468 1.399 . S
C473 C472 1.394 . S
C473 C474 1.516 . S
C474 C473 1.516 . S
C474 C475 1.502 . S
C474 C476 1.561 . S
C474 C477 1.526 . S
C475 H459 0.959 . S
C475 H460 0.959 . S
C475 H461 0.961 . S
C475 C474 1.502 . S
C476 H462 0.960 . S
C476 H463 0.961 . S
C476 H464 0.959 . S
C476 C474 1.561 . S
C477 C474 1.526 . S
C477 C478 1.396 . S
C477 C482 1.390 . S
C478 C472 1.465 . S
C478 C477 1.396 . S
C478 C479 1.399 . S
C479 H465 0.929 . S
C479 C478 1.399 . S
C479 C480 1.385 . S
C480 H466 0.931 . S
C480 C479 1.385 . S
C480 C481 1.389 . S
C481 C480 1.389 . S
C481 C482 1.387 . S
C482 H467 0.930 . S
C482 C477 1.390 . S
C482 C481 1.387 . S
H483 C495 0.930 . S
H484 C497 0.930 . S
H485 C498 0.930 . S
H486 C502 0.959 . S
H487 C502 0.959 . S
H488 C502 0.961 . S
H489 C503 0.960 . S
H490 C503 0.961 . S
H491 C503 0.959 . S
H492 C506 0.929 . S
H493 C507 0.931 . S
H494 C509 0.930 . S
C495 H483 0.930 . S
C495 C496 1.399 . S
C495 C500 1.399 . S
C496 C495 1.399 . S
C496 C497 1.376 . S
C497 H484 0.930 . S
C497 C496 1.376 . S
C497 C498 1.388 . S
C498 H485 0.930 . S
C498 C497 1.388 . S
C498 C499 1.390 . S
C499 C498 1.390 . S
C499 C500 1.394 . S
C499 C505 1.465 . S
C500 C495 1.399 . S
C500 C499 1.394 . S
C500 C501 1.516 . S
C501 C500 1.516 . S
C501 C502 1.502 . S
C501 C503 1.561 . S
C501 C504 1.526 . S
C502 H486 0.959 . S
C502 H487 0.959 . S
C502 H488 0.961 . S
C502 C501 1.502 . S
C503 H489 0.960 . S
C503 H490 0.961 . S
C503 H491 0.959 . S
C503 C501 1.561 . S
C504 C501 1.526 . S
C504 C505 1.396 . S
C504 C509 1.390 . S
C505 C499 1.465 . S
C505 C504 1.396 . S
C505 C506 1.399 . S
C506 H492 0.929 . S
C506 C505 1.399 . S
C506 C507 1.385 . S
C507 H493 0.931 . S
C507 C506 1.385 . S
C507 C508 1.389 . S
C508 C507 1.389 . S
C508 C509 1.387 . S
C509 H494 0.930 . S
C509 C504 1.390 . S
C509 C508 1.387 . S
H510 C522 0.930 . S
H511 C524 0.930 . S
H512 C525 0.930 . S
H513 C529 0.959 . S
H514 C529 0.959 . S
H515 C529 0.961 . S
H516 C530 0.960 . S
H517 C530 0.961 1_554 S
H518 C530 0.959 . S
H519 C533 0.929 . S
H520 C534 0.931 . S
H521 C536 0.929 . S
C522 H510 0.930 . S
C522 C523 1.399 . S
C522 C527 1.399 . S
C523 C522 1.399 . S
C523 C524 1.376 . S
C524 H511 0.930 . S
C524 C523 1.376 . S
C524 C525 1.388 . S
C525 H512 0.930 . S
C525 C524 1.388 . S
C525 C526 1.390 . S
C526 C525 1.390 . S
C526 C527 1.394 . S
C526 C532 1.465 . S
C527 C522 1.399 . S
C527 C526 1.394 . S
C527 C528 1.516 . S
C528 C527 1.516 . S
C528 C529 1.502 1_556 S
C528 C530 1.561 . S
C528 C531 1.526 . S
C529 H513 0.959 . S
C529 H514 0.959 . S
C529 H515 0.961 . S
C529 C528 1.502 1_554 S
C530 H516 0.960 . S
C530 H517 0.961 1_556 S
C530 H518 0.959 . S
C530 C528 1.561 . S
C531 C528 1.526 . S
C531 C532 1.396 . S
C531 C536 1.390 . S
C532 C526 1.465 . S
C532 C531 1.396 . S
C532 C533 1.399 . S
C533 H519 0.929 . S
C533 C532 1.399 . S
C533 C534 1.385 . S
C534 H520 0.931 . S
C534 C533 1.385 . S
C534 C535 1.389 . S
C535 C534 1.389 . S
C535 C536 1.387 . S
C536 H521 0.929 . S
C536 C531 1.390 . S
C536 C535 1.387 . S
H537 C549 0.930 . S
H538 C551 0.930 . S
H539 C552 0.930 . S
H540 C556 0.959 . S
H541 C556 0.959 . S
H542 C556 0.961 . S
H543 C557 0.960 . S
H544 C557 0.961 . S
H545 C557 0.959 . S
H546 C560 0.929 . S
H547 C561 0.931 . S
H548 C563 0.930 . S
C549 H537 0.930 . S
C549 C550 1.399 . S
C549 C554 1.399 . S
C550 C549 1.399 . S
C550 C551 1.376 . S
C551 H538 0.930 . S
C551 C550 1.376 . S
C551 C552 1.388 . S
C552 H539 0.930 . S
C552 C551 1.388 . S
C552 C553 1.390 . S
C553 C552 1.390 . S
C553 C554 1.394 . S
C553 C559 1.465 . S
C554 C549 1.399 . S
C554 C553 1.394 . S
C554 C555 1.516 . S
C555 C554 1.516 . S
C555 C556 1.502 . S
C555 C557 1.561 . S
C555 C558 1.526 . S
C556 H540 0.959 . S
C556 H541 0.959 . S
C556 H542 0.961 . S
C556 C555 1.502 . S
C557 H543 0.960 . S
C557 H544 0.961 . S
C557 H545 0.959 . S
C557 C555 1.561 . S
C558 C555 1.526 . S
C558 C559 1.396 . S
C558 C563 1.390 . S
C559 C553 1.465 . S
C559 C558 1.396 . S
C559 C560 1.399 . S
C560 H546 0.929 . S
C560 C559 1.399 . S
C560 C561 1.385 . S
C561 H547 0.931 . S
C561 C560 1.385 . S
C561 C562 1.389 . S
C562 C561 1.389 . S
C562 C563 1.387 . S
C563 H548 0.930 . S
C563 C558 1.390 . S
C563 C562 1.387 . S
H564 C576 0.930 . S
H565 C578 0.930 . S
H566 C579 0.930 . S
H567 C583 0.959 1_655 S
H568 C583 0.959 1_655 S
H569 C583 0.961 . S
H570 C584 0.960 . S
H571 C584 0.961 . S
H572 C584 0.959 . S
H573 C587 0.929 . S
H574 C588 0.931 . S
H575 C590 0.930 . S
C576 H564 0.930 . S
C576 C577 1.399 . S
C576 C581 1.399 . S
C577 C576 1.399 . S
C577 C578 1.376 . S
C578 H565 0.930 . S
C578 C577 1.376 . S
C578 C579 1.388 . S
C579 H566 0.930 . S
C579 C578 1.388 . S
C579 C580 1.390 . S
C580 C579 1.390 . S
C580 C581 1.394 . S
C580 C586 1.465 . S
C581 C576 1.399 . S
C581 C580 1.394 . S
C581 C582 1.516 . S
C582 C581 1.516 . S
C582 C583 1.502 . S
C582 C584 1.561 . S
C582 C585 1.526 . S
C583 H567 0.959 1_455 S
C583 H568 0.959 1_455 S
C583 H569 0.961 . S
C583 C582 1.502 . S
C584 H570 0.960 . S
C584 H571 0.961 . S
C584 H572 0.959 . S
C584 C582 1.561 . S
C585 C582 1.526 . S
C585 C586 1.396 . S
C585 C590 1.390 . S
C586 C580 1.465 . S
C586 C585 1.396 . S
C586 C587 1.399 . S
C587 H573 0.929 . S
C587 C586 1.399 . S
C587 C588 1.385 . S
C588 H574 0.931 . S
C588 C587 1.385 . S
C588 C589 1.389 . S
C589 C588 1.389 . S
C589 C590 1.387 . S
C590 H575 0.930 . S
C590 C585 1.390 . S
C590 C589 1.387 . S
H591 C603 0.930 . S
H592 C605 0.930 . S
H593 C606 0.954 . S
H594 C610 0.959 . S
H595 C610 0.959 . S
H596 C610 0.961 . S
H597 C611 0.960 . S
H598 C611 0.961 . S
H599 C611 0.959 . S
H600 C614 0.929 . S
H601 C615 0.931 . S
H602 C617 0.930 . S
C603 H591 0.930 . S
C603 C604 1.399 . S
C603 C608 1.399 . S
C604 C603 1.399 . S
C604 C605 1.376 . S
C605 H592 0.930 . S
C605 C604 1.376 . S
C605 C606 1.388 . S
C606 H593 0.954 . S
C606 C605 1.388 . S
C606 C607 1.390 . S
C607 C606 1.390 . S
C607 C608 1.394 . S
C607 C613 1.465 . S
C608 C603 1.399 . S
C608 C607 1.394 . S
C608 C609 1.516 . S
C609 C608 1.516 . S
C609 C610 1.502 . S
C609 C611 1.561 . S
C609 C612 1.526 . S
C610 H594 0.959 . S
C610 H595 0.959 . S
C610 H596 0.961 . S
C610 C609 1.502 . S
C611 H597 0.960 . S
C611 H598 0.961 . S
C611 H599 0.959 . S
C611 C609 1.561 . S
C612 C609 1.526 . S
C612 C613 1.396 . S
C612 C617 1.390 . S
C613 C607 1.465 . S
C613 C612 1.396 . S
C613 C614 1.399 1_556 S
C614 H600 0.929 . S
C614 C613 1.399 1_554 S
C614 C615 1.385 . S
C615 H601 0.931 . S
C615 C614 1.385 . S
C615 C616 1.389 1_554 S
C616 C615 1.389 1_556 S
C616 C617 1.387 . S
C617 H602 0.930 . S
C617 C612 1.390 . S
C617 C616 1.387 . S
H618 C630 0.930 . S
H619 C632 0.930 . S
H620 C633 0.930 . S
H621 C637 0.959 . S
H622 C637 0.959 . S
H623 C637 0.961 . S
H624 C638 0.960 . S
H625 C638 0.961 . S
H626 C638 0.959 . S
H627 C641 0.929 . S
H628 C642 0.931 . S
H629 C644 0.930 . S
C630 H618 0.930 . S
C630 C631 1.399 . S
C630 C635 1.399 . S
C631 C630 1.399 . S
C631 C632 1.376 . S
C632 H619 0.930 . S
C632 C631 1.376 . S
C632 C633 1.388 . S
C633 H620 0.930 . S
C633 C632 1.388 . S
C633 C634 1.390 . S
C634 C633 1.390 . S
C634 C635 1.394 . S
C634 C640 1.465 . S
C635 C630 1.399 . S
C635 C634 1.394 . S
C635 C636 1.516 . S
C636 C635 1.516 . S
C636 C637 1.502 . S
C636 C638 1.561 . S
C636 C639 1.526 . S
C637 H621 0.959 . S
C637 H622 0.959 . S
C637 H623 0.961 . S
C637 C636 1.502 . S
C638 H624 0.960 . S
C638 H625 0.961 . S
C638 H626 0.959 . S
C638 C636 1.561 . S
C639 C636 1.526 . S
C639 C640 1.396 . S
C639 C644 1.390 . S
C640 C634 1.465 . S
C640 C639 1.396 . S
C640 C641 1.399 . S
C641 H627 0.929 . S
C641 C640 1.399 . S
C641 C642 1.385 . S
C642 H628 0.931 . S
C642 C641 1.385 . S
C642 C643 1.389 . S
C643 C642 1.389 . S
C643 C644 1.387 . S
C644 H629 0.930 . S
C644 C639 1.390 . S
C644 C643 1.387 . S
H645 C657 0.930 . S
H646 C659 0.930 . S
H647 C660 0.930 . S
H648 C664 0.959 . S
H649 C664 0.959 . S
H650 C664 0.961 . S
H651 C665 0.960 . S
H652 C665 0.961 . S
H653 C665 0.959 . S
H654 C668 0.929 . S
H655 C669 0.931 . S
H656 C671 0.930 . S
C657 H645 0.930 . S
C657 C658 1.399 . S
C657 C662 1.399 . S
C658 C657 1.399 . S
C658 C659 1.376 . S
C659 H646 0.930 . S
C659 C658 1.376 . S
C659 C660 1.388 . S
C660 H647 0.930 . S
C660 C659 1.388 . S
C660 C661 1.390 . S
C661 C660 1.390 . S
C661 C662 1.394 . S
C661 C667 1.465 . S
C662 C657 1.399 . S
C662 C661 1.394 . S
C662 C663 1.516 . S
C663 C662 1.516 . S
C663 C664 1.502 . S
C663 C665 1.561 . S
C663 C666 1.526 . S
C664 H648 0.959 . S
C664 H649 0.959 . S
C664 H650 0.961 . S
C664 C663 1.502 . S
C665 H651 0.960 . S
C665 H652 0.961 . S
C665 H653 0.959 . S
C665 C663 1.561 . S
C666 C663 1.526 . S
C666 C667 1.396 . S
C666 C671 1.390 . S
C667 C661 1.465 . S
C667 C666 1.396 . S
C667 C668 1.399 . S
C668 H654 0.929 . S
C668 C667 1.399 . S
C668 C669 1.385 . S
C669 H655 0.931 . S
C669 C668 1.385 . S
C669 C670 1.389 . S
C670 C669 1.389 . S
C670 C671 1.387 . S
C671 H656 0.930 . S
C671 C666 1.390 . S
C671 C670 1.387 . S
H672 C684 0.910 1_545 S
H673 C686 0.930 . S
H674 C687 0.930 . S
H675 C691 0.959 . S
H676 C691 0.959 . S
H677 C691 0.961 . S
H678 C692 0.960 . S
H679 C692 0.961 . S
H680 C692 0.959 . S
H681 C695 0.929 . S
H682 C696 0.931 . S
H683 C698 0.930 . S
C684 H672 0.910 1_565 S
C684 C685 1.418 . S
C684 C689 1.400 . S
C685 C684 1.418 . S
C685 C686 1.376 . S
C686 H673 0.930 . S
C686 C685 1.376 . S
C686 C687 1.388 . S
C687 H674 0.930 . S
C687 C686 1.388 . S
C687 C688 1.390 . S
C688 C687 1.390 . S
C688 C689 1.394 . S
C688 C694 1.465 . S
C689 C684 1.400 . S
C689 C688 1.394 . S
C689 C690 1.516 1_565 S
C690 C689 1.516 1_545 S
C690 C691 1.502 . S
C690 C692 1.561 . S
C690 C693 1.526 . S
C691 H675 0.959 . S
C691 H676 0.959 . S
C691 H677 0.961 . S
C691 C690 1.502 . S
C692 H678 0.960 . S
C692 H679 0.961 . S
C692 H680 0.959 . S
C692 C690 1.561 . S
C693 C690 1.526 . S
C693 C694 1.396 1_545 S
C693 C698 1.390 . S
C694 C688 1.465 . S
C694 C693 1.396 1_565 S
C694 C695 1.399 . S
C695 H681 0.929 . S
C695 C694 1.399 . S
C695 C696 1.385 . S
C696 H682 0.931 . S
C696 C695 1.385 . S
C696 C697 1.389 . S
C697 C696 1.389 . S
C697 C698 1.387 1_565 S
C698 H683 0.930 . S
C698 C693 1.390 . S
C698 C697 1.387 1_545 S
H699 C711 0.925 1_565 S
H700 C713 0.930 . S
H701 C714 0.930 . S
H702 C718 0.959 . S
H703 C718 0.959 . S
H704 C718 0.961 . S
H705 C719 0.960 . S
H706 C719 0.961 . S
H707 C719 0.959 . S
H708 C722 0.929 . S
H709 C723 0.931 . S
H710 C725 0.900 1_565 S
C711 H699 0.925 1_545 S
C711 C712 1.399 . S
C711 C716 1.399 . S
C712 C711 1.399 . S
C712 C713 1.376 . S
C713 H700 0.930 . S
C713 C712 1.376 . S
C713 C714 1.388 . S
C714 H701 0.930 . S
C714 C713 1.388 . S
C714 C715 1.390 . S
C715 C714 1.390 . S
C715 C716 1.394 . S
C715 C721 1.465 . S
C716 C711 1.399 . S
C716 C715 1.394 . S
C716 C717 1.516 1_545 S
C717 C716 1.516 1_565 S
C717 C718 1.502 . S
C717 C719 1.561 . S
C717 C720 1.526 1_565 S
C718 H702 0.959 . S
C718 H703 0.959 . S
C718 H704 0.961 . S
C718 C717 1.502 . S
C719 H705 0.960 . S
C719 H706 0.961 . S
C719 H707 0.959 . S
C719 C717 1.561 . S
C720 C717 1.526 1_545 S
C720 C721 1.396 . S
C720 C725 1.400 . S
C721 C715 1.465 . S
C721 C720 1.396 . S
C721 C722 1.399 . S
C722 H708 0.929 . S
C722 C721 1.399 . S
C722 C723 1.385 . S
C723 H709 0.931 . S
C723 C722 1.385 . S
C723 C724 1.389 . S
C724 C723 1.389 . S
C724 C725 1.407 . S
C725 H710 0.900 1_545 S
C725 C720 1.400 . S
C725 C724 1.407 . S
H726 C738 0.930 . S
H727 C740 0.930 . S
H728 C741 0.930 . S
H729 C745 0.959 . S
H730 C745 0.959 . S
H731 C745 0.961 . S
H732 C746 0.960 . S
H733 C746 0.961 . S
H734 C746 0.959 . S
H735 C749 0.929 . S
H736 C750 0.931 . S
H737 C752 0.930 . S
C738 H726 0.930 . S
C738 C739 1.399 . S
C738 C743 1.399 . S
C739 C738 1.399 . S
C739 C740 1.376 . S
C740 H727 0.930 . S
C740 C739 1.376 . S
C740 C741 1.388 . S
C741 H728 0.930 . S
C741 C740 1.388 . S
C741 C742 1.390 . S
C742 C741 1.390 . S
C742 C743 1.394 . S
C742 C748 1.465 . S
C743 C738 1.399 . S
C743 C742 1.394 . S
C743 C744 1.516 . S
C744 C743 1.516 . S
C744 C745 1.502 . S
C744 C746 1.561 . S
C744 C747 1.526 . S
C745 H729 0.959 . S
C745 H730 0.959 . S
C745 H731 0.961 . S
C745 C744 1.502 . S
C746 H732 0.960 . S
C746 H733 0.961 . S
C746 H734 0.959 . S
C746 C744 1.561 . S
C747 C744 1.526 . S
C747 C748 1.396 . S
C747 C752 1.390 . S
C748 C742 1.465 . S
C748 C747 1.396 . S
C748 C749 1.399 . S
C749 H735 0.929 . S
C749 C748 1.399 . S
C749 C750 1.385 . S
C750 H736 0.931 . S
C750 C749 1.385 . S
C750 C751 1.389 . S
C751 C750 1.389 . S
C751 C752 1.387 . S
C752 H737 0.930 . S
C752 C747 1.390 . S
C752 C751 1.387 . S
H753 C765 0.930 . S
H754 C767 0.930 . S
H755 C768 0.930 . S
H756 C772 0.959 . S
H757 C772 0.959 . S
H758 C772 0.961 . S
H759 C773 0.960 . S
H760 C773 0.961 . S
H761 C773 0.959 . S
H762 C776 0.929 . S
H763 C777 0.931 . S
H764 C779 0.930 . S
C765 H753 0.930 . S
C765 C766 1.399 . S
C765 C770 1.399 . S
C766 C765 1.399 . S
C766 C767 1.376 . S
C767 H754 0.930 . S
C767 C766 1.376 . S
C767 C768 1.388 . S
C768 H755 0.930 . S
C768 C767 1.388 . S
C768 C769 1.390 . S
C769 C768 1.390 . S
C769 C770 1.394 . S
C769 C775 1.465 . S
C770 C765 1.399 . S
C770 C769 1.394 . S
C770 C771 1.516 . S
C771 C770 1.516 . S
C771 C772 1.502 . S
C771 C773 1.561 . S
C771 C774 1.526 . S
C772 H756 0.959 . S
C772 H757 0.959 . S
C772 H758 0.961 . S
C772 C771 1.502 . S
C773 H759 0.960 . S
C773 H760 0.961 . S
C773 H761 0.959 . S
C773 C771 1.561 . S
C774 C771 1.526 . S
C774 C775 1.396 . S
C774 C779 1.390 . S
C775 C769 1.465 . S
C775 C774 1.396 . S
C775 C776 1.399 . S
C776 H762 0.929 . S
C776 C775 1.399 . S
C776 C777 1.385 . S
C777 H763 0.931 . S
C777 C776 1.385 . S
C777 C778 1.389 . S
C778 C777 1.389 . S
C778 C779 1.387 . S
C779 H764 0.930 . S
C779 C774 1.390 . S
C779 C778 1.387 . S
H780 C792 0.913 1_545 S
H781 C794 0.930 . S
H782 C795 0.930 . S
H783 C799 0.959 1_554 S
H784 C799 0.959 . S
H785 C799 0.961 . S
H786 C800 0.960 . S
H787 C800 0.961 . S
H788 C800 0.959 . S
H789 C803 0.929 . S
H790 C804 0.931 1_554 S
H791 C806 0.930 . S
C792 H780 0.913 1_565 S
C792 C793 1.414 . S
C792 C797 1.401 . S
C793 C792 1.414 . S
C793 C794 1.376 . S
C794 H781 0.930 . S
C794 C793 1.376 . S
C794 C795 1.388 . S
C795 H782 0.930 . S
C795 C794 1.388 . S
C795 C796 1.390 . S
C796 C795 1.390 . S
C796 C797 1.394 . S
C796 C802 1.465 . S
C797 C792 1.401 . S
C797 C796 1.394 . S
C797 C798 1.516 1_565 S
C798 C797 1.516 1_545 S
C798 C799 1.502 . S
C798 C800 1.561 . S
C798 C801 1.526 . S
C799 H783 0.959 1_556 S
C799 H784 0.959 . S
C799 H785 0.961 . S
C799 C798 1.502 . S
C800 H786 0.960 . S
C800 H787 0.961 . S
C800 H788 0.959 . S
C800 C798 1.561 . S
C801 C798 1.526 . S
C801 C802 1.396 1_545 S
C801 C806 1.390 . S
C802 C796 1.465 . S
C802 C801 1.396 1_565 S
C802 C803 1.399 . S
C803 H789 0.929 . S
C803 C802 1.399 . S
C803 C804 1.385 . S
C804 H790 0.931 1_556 S
C804 C803 1.385 . S
C804 C805 1.389 . S
C805 C804 1.389 . S
C805 C806 1.387 1_565 S
C806 H791 0.930 . S
C806 C801 1.390 . S
C806 C805 1.387 1_545 S
H807 C819 0.930 . S
H808 C821 0.930 1_565 S
H809 C822 0.930 . S
H810 C826 0.959 . S
H811 C826 0.959 . S
H812 C826 0.961 . S
H813 C827 0.960 . S
H814 C827 0.961 . S
H815 C827 0.959 . S
H816 C830 0.929 . S
H817 C831 0.931 . S
H818 C833 0.930 . S
C819 H807 0.930 . S
C819 C820 1.399 . S
C819 C824 1.399 . S
C820 C819 1.399 . S
C820 C821 1.376 . S
C821 H808 0.930 1_545 S
C821 C820 1.376 . S
C821 C822 1.388 1_545 S
C822 H809 0.930 . S
C822 C821 1.388 1_565 S
C822 C823 1.390 1_565 S
C823 C822 1.390 1_545 S
C823 C824 1.394 . S
C823 C829 1.465 . S
C824 C819 1.399 . S
C824 C823 1.394 . S
C824 C825 1.516 . S
C825 C824 1.516 . S
C825 C826 1.502 . S
C825 C827 1.561 . S
C825 C828 1.526 . S
C826 H810 0.959 . S
C826 H811 0.959 . S
C826 H812 0.961 . S
C826 C825 1.502 . S
C827 H813 0.960 . S
C827 H814 0.961 . S
C827 H815 0.959 . S
C827 C825 1.561 . S
C828 C825 1.526 . S
C828 C829 1.396 . S
C828 C833 1.390 . S
C829 C823 1.465 . S
C829 C828 1.396 . S
C829 C830 1.399 1_545 S
C830 H816 0.929 . S
C830 C829 1.399 1_565 S
C830 C831 1.385 . S
C831 H817 0.931 . S
C831 C830 1.385 . S
C831 C832 1.389 1_565 S
C832 C831 1.389 1_545 S
C832 C833 1.387 . S
C833 H818 0.930 . S
C833 C828 1.390 . S
C833 C832 1.387 . S
H834 C846 0.930 . S
H835 C848 0.930 . S
H836 C849 0.930 . S
H837 C853 0.959 . S
H838 C853 0.959 . S
H839 C853 0.961 . S
H840 C854 0.960 . S
H841 C854 0.961 . S
H842 C854 0.959 . S
H843 C857 0.929 . S
H844 C858 0.931 . S
H845 C860 0.930 . S
C846 H834 0.930 . S
C846 C847 1.399 . S
C846 C851 1.399 . S
C847 C846 1.399 . S
C847 C848 1.376 . S
C848 H835 0.930 . S
C848 C847 1.376 . S
C848 C849 1.388 . S
C849 H836 0.930 . S
C849 C848 1.388 . S
C849 C850 1.390 . S
C850 C849 1.390 . S
C850 C851 1.394 . S
C850 C856 1.465 . S
C851 C846 1.399 . S
C851 C850 1.394 . S
C851 C852 1.516 . S
C852 C851 1.516 . S
C852 C853 1.502 . S
C852 C854 1.561 1_554 S
C852 C855 1.526 . S
C853 H837 0.959 . S
C853 H838 0.959 . S
C853 H839 0.961 . S
C853 C852 1.502 . S
C854 H840 0.960 . S
C854 H841 0.961 . S
C854 H842 0.959 . S
C854 C852 1.561 1_556 S
C855 C852 1.526 . S
C855 C856 1.396 . S
C855 C860 1.390 . S
C856 C850 1.465 . S
C856 C855 1.396 . S
C856 C857 1.399 . S
C857 H843 0.929 . S
C857 C856 1.399 . S
C857 C858 1.385 . S
C858 H844 0.931 . S
C858 C857 1.385 . S
C858 C859 1.389 . S
C859 C858 1.389 . S
C859 C860 1.387 . S
C860 H845 0.930 . S
C860 C855 1.390 . S
C860 C859 1.387 . S
H861 C873 0.930 . S
H862 C875 0.930 . S
H863 C876 0.930 . S
H864 C880 0.959 . S
H865 C880 0.959 . S
H866 C880 0.961 . S
H867 C881 0.960 . S
H868 C881 0.961 . S
H869 C881 0.959 . S
H870 C884 0.929 . S
H871 C885 0.931 . S
H872 C887 0.930 . S
C873 H861 0.930 . S
C873 C874 1.399 . S
C873 C878 1.399 . S
C874 C873 1.399 . S
C874 C875 1.376 . S
C875 H862 0.930 . S
C875 C874 1.376 . S
C875 C876 1.388 . S
C876 H863 0.930 . S
C876 C875 1.388 . S
C876 C877 1.390 . S
C877 C876 1.390 . S
C877 C878 1.394 . S
C877 C883 1.465 . S
C878 C873 1.399 . S
C878 C877 1.394 . S
C878 C879 1.516 . S
C879 C878 1.516 . S
C879 C880 1.502 . S
C879 C881 1.561 . S
C879 C882 1.526 . S
C880 H864 0.959 . S
C880 H865 0.959 . S
C880 H866 0.961 . S
C880 C879 1.502 . S
C881 H867 0.960 . S
C881 H868 0.961 . S
C881 H869 0.959 . S
C881 C879 1.561 . S
C882 C879 1.526 . S
C882 C883 1.396 . S
C882 C887 1.390 . S
C883 C877 1.465 . S
C883 C882 1.396 . S
C883 C884 1.399 . S
C884 H870 0.929 . S
C884 C883 1.399 . S
C884 C885 1.385 . S
C885 H871 0.931 . S
C885 C884 1.385 . S
C885 C886 1.389 . S
C886 C885 1.389 . S
C886 C887 1.387 . S
C887 H872 0.930 . S
C887 C882 1.390 . S
C887 C886 1.387 . S
H888 C900 0.930 . S
H889 C902 0.930 . S
H890 C903 0.930 . S
H891 C907 0.959 . S
H892 C907 0.959 . S
H893 C907 0.961 . S
H894 C908 0.960 . S
H895 C908 0.961 . S
H896 C908 0.959 1_455 S
H897 C911 0.929 . S
H898 C912 0.931 . S
H899 C914 0.930 . S
C900 H888 0.930 . S
C900 C901 1.399 . S
C900 C905 1.399 . S
C901 C900 1.399 . S
C901 C902 1.376 1_556 S
C902 H889 0.930 . S
C902 C901 1.376 1_554 S
C902 C903 1.388 . S
C903 H890 0.930 . S
C903 C902 1.388 . S
C903 C904 1.390 1_554 S
C904 C903 1.390 1_556 S
C904 C905 1.394 . S
C904 C910 1.465 . S
C905 C900 1.399 . S
C905 C904 1.394 . S
C905 C906 1.516 . S
C906 C905 1.516 . S
C906 C907 1.502 . S
C906 C908 1.561 . S
C906 C909 1.526 . S
C907 H891 0.959 . S
C907 H892 0.959 . S
C907 H893 0.961 . S
C907 C906 1.502 . S
C908 H894 0.960 . S
C908 H895 0.961 . S
C908 H896 0.959 1_655 S
C908 C906 1.561 . S
C909 C906 1.526 . S
C909 C910 1.396 . S
C909 C914 1.390 . S
C910 C904 1.465 . S
C910 C909 1.396 . S
C910 C911 1.399 1_556 S
C911 H897 0.929 . S
C911 C910 1.399 1_554 S
C911 C912 1.385 . S
C912 H898 0.931 . S
C912 C911 1.385 . S
C912 C913 1.389 1_554 S
C913 C912 1.389 1_556 S
C913 C914 1.387 . S
C914 H899 0.930 . S
C914 C909 1.390 . S
C914 C913 1.387 . S
H915 C927 0.930 . S
H916 C929 0.930 . S
H917 C930 0.931 1_556 S
H918 C934 0.959 . S
H919 C934 0.959 . S
H920 C934 0.961 . S
H921 C935 0.960 . S
H922 C935 0.961 . S
H923 C935 0.959 . S
H924 C938 0.929 1_556 S
H925 C939 0.931 . S
H926 C941 0.930 . S
C927 H915 0.930 . S
C927 C928 1.399 . S
C927 C932 1.399 . S
C928 C927 1.399 . S
C928 C929 1.376 . S
C929 H916 0.930 . S
C929 C928 1.376 . S
C929 C930 1.388 . S
C930 H917 0.931 1_554 S
C930 C929 1.388 . S
C930 C931 1.390 . S
C931 C930 1.390 . S
C931 C932 1.394 . S
C931 C937 1.465 . S
C932 C927 1.399 . S
C932 C931 1.394 . S
C932 C933 1.516 . S
C933 C932 1.516 . S
C933 C934 1.502 . S
C933 C935 1.561 . S
C933 C936 1.526 . S
C934 H918 0.959 . S
C934 H919 0.959 . S
C934 H920 0.961 . S
C934 C933 1.502 . S
C935 H921 0.960 . S
C935 H922 0.961 . S
C935 H923 0.959 . S
C935 C933 1.561 . S
C936 C933 1.526 . S
C936 C937 1.396 . S
C936 C941 1.390 . S
C937 C931 1.465 . S
C937 C936 1.396 . S
C937 C938 1.399 . S
C938 H924 0.929 1_554 S
C938 C937 1.399 . S
C938 C939 1.385 . S
C939 H925 0.931 . S
C939 C938 1.385 . S
C939 C940 1.389 . S
C940 C939 1.389 . S
C940 C941 1.387 . S
C941 H926 0.930 . S
C941 C936 1.390 . S
C941 C940 1.387 . S
H942 C954 0.930 . S
H943 C956 0.930 . S
H944 C957 0.930 . S
H945 C961 0.959 . S
H946 C961 0.959 . S
H947 C961 0.961 . S
H948 C962 0.960 . S
H949 C962 0.961 . S
H950 C962 0.959 . S
H951 C965 0.929 1_655 S
H952 C966 0.931 1_655 S
H953 C968 0.930 . S
C954 H942 0.930 . S
C954 C955 1.399 . S
C954 C959 1.399 . S
C955 C954 1.399 . S
C955 C956 1.376 . S
C956 H943 0.930 . S
C956 C955 1.376 . S
C956 C957 1.388 . S
C957 H944 0.930 . S
C957 C956 1.388 . S
C957 C958 1.390 . S
C958 C957 1.390 . S
C958 C959 1.394 . S
C958 C964 1.465 . S
C959 C954 1.399 . S
C959 C958 1.394 . S
C959 C960 1.516 . S
C960 C959 1.516 . S
C960 C961 1.502 . S
C960 C962 1.561 . S
C960 C963 1.526 . S
C961 H945 0.959 . S
C961 H946 0.959 . S
C961 H947 0.961 . S
C961 C960 1.502 . S
C962 H948 0.960 . S
C962 H949 0.961 . S
C962 H950 0.959 . S
C962 C960 1.561 . S
C963 C960 1.526 . S
C963 C964 1.396 . S
C963 C968 1.390 . S
C964 C958 1.465 . S
C964 C963 1.396 . S
C964 C965 1.399 . S
C965 H951 0.929 1_455 S
C965 C964 1.399 . S
C965 C966 1.385 . S
C966 H952 0.931 1_455 S
C966 C965 1.385 . S
C966 C967 1.389 . S
C967 C966 1.389 . S
C967 C968 1.387 . S
C968 H953 0.930 . S
C968 C963 1.390 . S
C968 C967 1.387 . S
H969 C981 0.930 . S
H970 C983 0.930 . S
H971 C984 0.930 . S
H972 C988 0.959 . S
H973 C988 0.959 . S
H974 C988 0.961 . S
H975 C989 0.960 . S
H976 C989 0.961 . S
H977 C989 0.959 . S
H978 C992 0.929 . S
H979 C993 0.931 . S
H980 C995 0.930 . S
C981 H969 0.930 . S
C981 C982 1.399 . S
C981 C986 1.399 . S
C982 C981 1.399 . S
C982 C983 1.376 . S
C983 H970 0.930 . S
C983 C982 1.376 . S
C983 C984 1.388 . S
C984 H971 0.930 . S
C984 C983 1.388 . S
C984 C985 1.390 . S
C985 C984 1.390 . S
C985 C986 1.394 . S
C985 C991 1.465 . S
C986 C981 1.399 . S
C986 C985 1.394 . S
C986 C987 1.516 . S
C987 C986 1.516 . S
C987 C988 1.502 . S
C987 C989 1.561 . S
C987 C990 1.526 . S
C988 H972 0.959 . S
C988 H973 0.959 . S
C988 H974 0.961 . S
C988 C987 1.502 . S
C989 H975 0.960 . S
C989 H976 0.961 . S
C989 H977 0.959 . S
C989 C987 1.561 . S
C990 C987 1.526 . S
C990 C991 1.396 . S
C990 C995 1.390 . S
C991 C985 1.465 . S
C991 C990 1.396 . S
C991 C992 1.399 . S
C992 H978 0.929 . S
C992 C991 1.399 . S
C992 C993 1.385 . S
C993 H979 0.931 . S
C993 C992 1.385 . S
C993 C994 1.389 . S
C994 C993 1.389 . S
C994 C995 1.387 . S
C995 H980 0.930 . S
C995 C990 1.390 . S
C995 C994 1.387 . S
C361 C29 1.526 . S
C373 C274 1.620 . S
C388 C49 1.554 . S
C400 C298 1.535 . S
C427 C318 1.445 . S
C415 C93 1.414 . S
C442 C119 1.369 . S
C454 C341 1.386 . S
C481 C300 1.610 . S
C469 C17 1.656 . S
C508 C276 1.642 . S
C496 C61 1.717 . S
C535 C344 1.560 . S
C523 C81 1.471 . S
C562 C321 1.550 . S
C550 C125 1.573 . S
C577 C23 1.312 . S
C589 C346 1.309 . S
C616 C295 1.598 . S
C604 C87 1.556 . S
C631 C113 1.563 . S
C643 C273 1.647 . S
C658 C55 1.392 . S
C670 C323 1.314 . S
C697 C277 1.622 . S
C685 C157 1.637 . S
C712 C189 1.509 . S
C724 C299 1.577 . S
C739 C221 1.772 . S
C751 C319 1.760 . S
C766 C253 1.654 . S
C778 C342 1.774 . S
C793 C145 1.616 . S
C805 C297 1.566 1_556 S
C832 C275 1.560 . S
C820 C183 1.479 . S
C859 C345 1.475 . S
C847 C209 1.542 . S
C886 C322 1.503 . S
C874 C247 1.382 . S
C901 C151 1.889 . S
C913 C343 1.822 . S
C940 C296 1.540 . S
C928 C215 1.569 . S
C967 C272 1.576 . S
C955 C241 1.535 . S
C982 C177 1.720 . S
C994 C320 1.839 . S
