# Generated by pormake.
# Topology zzz, (3,6)-cn, num edge types: 1
# Building blocks:
#     Node 0, Type 0, BuildingBlock: VETTIZ_charged_linker_0, # of connection points: 3
#     Node 1, Type 0, BuildingBlock: VETTIZ_charged_linker_0, # of connection points: 3
#     Node 2, Type 0, BuildingBlock: VETTIZ_charged_linker_0, # of connection points: 3
#     Node 3, Type 0, BuildingBlock: VETTIZ_charged_linker_0, # of connection points: 3
#     Node 4, Type 0, BuildingBlock: VETTIZ_charged_linker_0, # of connection points: 3
#     Node 5, Type 0, BuildingBlock: VETTIZ_charged_linker_0, # of connection points: 3
#     Node 6, Type 0, BuildingBlock: VETTIZ_charged_linker_0, # of connection points: 3
#     Node 7, Type 0, BuildingBlock: VETTIZ_charged_linker_0, # of connection points: 3
#     Node 8, Type 1, BuildingBlock: KUMJIN_clean_sbu_1, # of connection points: 6
#     Node 9, Type 1, BuildingBlock: KUMJIN_clean_sbu_1, # of connection points: 6
#     Node 10, Type 1, BuildingBlock: KUMJIN_clean_sbu_1, # of connection points: 6
#     Node 11, Type 1, BuildingBlock: KUMJIN_clean_sbu_1, # of connection points: 6
#     Edge 12, Type (0, 1), BuildingBlock: OJICUG_clean_linker_0, # of connection points: 2
#     Edge 13, Type (0, 1), BuildingBlock: OJICUG_clean_linker_0, # of connection points: 2
#     Edge 14, Type (0, 1), BuildingBlock: OJICUG_clean_linker_0, # of connection points: 2
#     Edge 15, Type (0, 1), BuildingBlock: OJICUG_clean_linker_0, # of connection points: 2
#     Edge 16, Type (0, 1), BuildingBlock: OJICUG_clean_linker_0, # of connection points: 2
#     Edge 17, Type (0, 1), BuildingBlock: OJICUG_clean_linker_0, # of connection points: 2
#     Edge 18, Type (0, 1), BuildingBlock: OJICUG_clean_linker_0, # of connection points: 2
#     Edge 19, Type (0, 1), BuildingBlock: OJICUG_clean_linker_0, # of connection points: 2
#     Edge 20, Type (0, 1), BuildingBlock: OJICUG_clean_linker_0, # of connection points: 2
#     Edge 21, Type (0, 1), BuildingBlock: OJICUG_clean_linker_0, # of connection points: 2
#     Edge 22, Type (0, 1), BuildingBlock: OJICUG_clean_linker_0, # of connection points: 2
#     Edge 23, Type (0, 1), BuildingBlock: OJICUG_clean_linker_0, # of connection points: 2
#     Edge 24, Type (0, 1), BuildingBlock: OJICUG_clean_linker_0, # of connection points: 2
#     Edge 25, Type (0, 1), BuildingBlock: OJICUG_clean_linker_0, # of connection points: 2
#     Edge 26, Type (0, 1), BuildingBlock: OJICUG_clean_linker_0, # of connection points: 2
#     Edge 27, Type (0, 1), BuildingBlock: OJICUG_clean_linker_0, # of connection points: 2
#     Edge 28, Type (0, 1), BuildingBlock: OJICUG_clean_linker_0, # of connection points: 2
#     Edge 29, Type (0, 1), BuildingBlock: OJICUG_clean_linker_0, # of connection points: 2
#     Edge 30, Type (0, 1), BuildingBlock: OJICUG_clean_linker_0, # of connection points: 2
#     Edge 31, Type (0, 1), BuildingBlock: OJICUG_clean_linker_0, # of connection points: 2
#     Edge 32, Type (0, 1), BuildingBlock: OJICUG_clean_linker_0, # of connection points: 2
#     Edge 33, Type (0, 1), BuildingBlock: OJICUG_clean_linker_0, # of connection points: 2
#     Edge 34, Type (0, 1), BuildingBlock: OJICUG_clean_linker_0, # of connection points: 2
#     Edge 35, Type (0, 1), BuildingBlock: OJICUG_clean_linker_0, # of connection points: 2
# Relax obj value: 0.362
# Max RMSD: 0.207
# Mean RMSD: 0.187
data_MOF--net-zzz--node1-KUMJIN_clean_sbu_1--node2-VETTIZ_charged_linker_0--edge1-OJICUG_clean_linker_0
_symmetry_space_group_name_H-M    P1
_symmetry_Int_Tables_number       1
_symmetry_cell_setting            triclinic
loop_
_symmetry_equiv_pos_as_xyz
'x, y, z'
_cell_length_a     43.344686
_cell_length_b     43.485015
_cell_length_c     16.32758
_cell_angle_alpha  90.074619
_cell_angle_beta   90.097801
_cell_angle_gamma 90.155313
loop_
_atom_site_label
_atom_site_type_symbol
_atom_site_fract_x
_atom_site_fract_y
_atom_site_fract_z
_atom_type_partial_charge
C0 C 0.83845 0.54744 0.36882 0.0
C1 C 0.86659 0.56184 0.3964 0.0
C2 C 0.87507 0.58975 0.35888 0.0
C3 C 0.8311 0.58796 0.26748 0.0
C4 C 0.82055 0.56149 0.30447 0.0
C5 C 0.78899 0.55262 0.26663 0.0
H6 H 0.67531 0.59799 0.98352 0.0
C7 C 0.80941 0.59785 0.20328 0.0
C8 C 0.78313 0.57861 0.20349 0.0
H9 H 0.67224 0.51349 0.12062 0.0
H10 H 0.7213 0.52754 0.18924 0.0
H11 H 0.70347 0.64418 0.12044 0.0
H12 H 0.72899 0.591 0.91965 0.0
H13 H 0.76538 0.60737 0.93703 0.0
H14 H 0.73271 0.63128 0.91032 0.0
H15 H 0.69835 0.65154 1.01285 0.0
H16 H 0.73162 0.66575 0.06794 0.0
C17 C 0.76412 0.55229 0.33355 0.0
C18 C 0.79198 0.52119 0.22419 0.0
C19 C 0.8484 0.65277 0.95686 0.0
C20 C 0.8321 0.6586 0.88369 0.0
C21 C 0.80132 0.66869 0.88982 0.0
C22 C 0.78504 0.66425 0.96288 0.0
C23 C 0.79989 0.64933 0.02806 0.0
C24 C 0.83157 0.64759 0.02885 0.0
C25 C 0.84324 0.6344 0.10834 0.0
C26 C 0.81316 0.62113 0.14331 0.0
C27 C 0.7881 0.62937 0.09413 0.0
C28 C 0.85624 0.66161 0.15988 0.0
C29 C 0.86758 0.60919 0.09106 0.0
C30 C 0.68435 0.58256 0.02971 0.0
C31 C 0.66901 0.55494 0.04688 0.0
C32 C 0.68318 0.53515 0.10544 0.0
C33 C 0.71166 0.54322 0.1452 0.0
C34 C 0.72693 0.57094 0.1247 0.0
C35 C 0.71292 0.58949 0.06633 0.0
C36 C 0.73279 0.6157 0.04045 0.0
C37 C 0.76064 0.61148 0.09565 0.0
C38 C 0.75785 0.58536 0.14723 0.0
C39 C 0.7157 0.64601 0.06077 0.0
C40 C 0.74043 0.6114 0.94754 0.0
H41 H 0.86456 0.62471 0.27483 0.0
H42 H 0.83045 0.52644 0.39734 0.0
H43 H 0.8111 0.52164 0.17887 0.0
H44 H 0.77063 0.51488 0.19106 0.0
H45 H 0.79698 0.50291 0.26979 0.0
H46 H 0.76326 0.57491 0.36529 0.0
H47 H 0.76916 0.53427 0.37984 0.0
H48 H 0.741 0.54767 0.30728 0.0
H49 H 0.87266 0.6471 0.95515 0.0
H50 H 0.78866 0.67534 0.83541 0.0
H51 H 0.76098 0.66981 0.96353 0.0
H52 H 0.84176 0.66616 0.21466 0.0
H53 H 0.85706 0.68359 0.12517 0.0
H54 H 0.88034 0.65729 0.17996 0.0
H55 H 0.85827 0.59179 0.04751 0.0
H56 H 0.87477 0.59694 0.14699 0.0
H57 H 0.88887 0.61929 0.0646 0.0
H58 H 0.89589 0.60177 0.37718 0.0
C59 C 0.85729 0.60296 0.29736 0.0
C60 C 0.90312 0.80694 0.93161 0.0
C61 C 0.89899 0.83905 0.93424 0.0
C62 C 0.88458 0.85149 1.00423 0.0
C63 C 0.89825 0.80577 0.07848 0.0
C64 C 0.90332 0.79063 1.00561 0.0
C65 C 0.91564 0.75877 1.0194 0.0
H66 H 0.02481 0.67798 0.13669 0.0
C67 C 0.91457 0.78902 0.14386 0.0
C68 C 0.92249 0.76029 0.11182 0.0
H69 H 0.93907 0.64556 0.02815 0.0
H70 H 0.91265 0.68996 0.08577 0.0
H71 H 0.01928 0.75869 0.1232 0.0
H72 H 0.01626 0.70275 0.30173 0.0
H73 H 0.97545 0.70674 0.31914 0.0
H74 H 1.00125 0.73721 0.34725 0.0
H75 H 0.04221 0.73339 0.18592 0.0
H76 H 0.02813 0.76908 0.22729 0.0
C77 C 0.94518 0.75364 0.96773 0.0
C78 C 0.88996 0.7356 0.99591 0.0
C79 C 0.95968 0.85807 0.36395 0.0
C80 C 0.98551 0.85797 0.41617 0.0
C81 C 1.00429 0.83106 0.41379 0.0
C82 C 0.99759 0.80583 0.35957 0.0
C83 C 0.97174 0.80711 0.30672 0.0
C84 C 0.95367 0.8334 0.31017 0.0
C85 C 0.9283 0.83328 0.24804 0.0
C86 C 0.93204 0.80153 0.21018 0.0
C87 C 0.95781 0.78552 0.24313 0.0
C88 C 0.93454 0.86002 0.18648 0.0
C89 C 0.89704 0.83598 0.29311 0.0
C90 C 1.00059 0.68091 0.12272 0.0
C91 C 0.98456 0.65865 0.07248 0.0
C92 C 0.95245 0.66235 0.06216 0.0
C93 C 0.93729 0.68829 0.09189 0.0
C94 C 0.95423 0.71152 0.12979 0.0
C95 C 0.98408 0.70704 0.15413 0.0
C96 C 0.99291 0.73317 0.21484 0.0
C97 C 0.96452 0.75495 0.21092 0.0
C98 C 0.9438 0.74187 0.15439 0.0
C99 C 0.02239 0.74955 0.18624 0.0
C100 C 0.99674 0.71927 0.30077 0.0
H101 H 0.87578 0.84569 0.13191 0.0
H102 H 0.91149 0.79594 0.87669 0.0
H103 H 0.87594 0.74417 0.94361 0.0
H104 H 0.87404 0.73147 0.04806 0.0
H105 H 0.89955 0.71346 0.97425 0.0
H106 H 0.96285 0.77145 0.98208 0.0
H107 H 0.94002 0.75437 0.90118 0.0
H108 H 0.95548 0.73079 0.97861 0.0
H109 H 0.94412 0.8775 0.36363 0.0
H110 H 0.02454 0.82975 0.45248 0.0
H111 H 0.01286 0.78635 0.3589 0.0
H112 H 0.9533 0.87579 0.20677 0.0
H113 H 0.91413 0.87506 0.17864 0.0
H114 H 0.94206 0.85131 0.12576 0.0
H115 H 0.89676 0.82126 0.3488 0.0
H116 H 0.87749 0.82804 0.25491 0.0
H117 H 0.89267 0.86008 0.31244 0.0
H118 H 0.87835 0.8755 1.00585 0.0
C119 C 0.88424 0.83475 0.07748 0.0
C120 C 0.85062 0.99441 0.08938 0.0
C121 C 0.87337 0.97573 0.04868 0.0
C122 C 0.87007 0.94345 0.05496 0.0
C123 C 0.81981 0.94905 0.11448 0.0
C124 C 0.82418 0.97992 0.12561 0.0
C125 C 0.79788 0.99202 0.18074 0.0
H126 H 0.64814 0.95622 0.31663 0.0
C127 C 0.78846 0.94055 0.13656 0.0
C128 C 0.77512 0.96434 0.183 0.0
H129 H 0.70368 0.02909 0.41938 0.0
H130 H 0.74587 0.01593 0.32378 0.0
H131 H 0.66122 0.97128 0.14649 0.0
H132 H 0.69743 0.9035 0.30589 0.0
H133 H 0.69066 0.88569 0.2101 0.0
H134 H 0.6594 0.90461 0.26193 0.0
H135 H 0.64767 0.9327 0.13972 0.0
H136 H 0.67887 0.94647 0.07602 0.0
C137 C 0.78283 0.02064 0.14317 0.0
C138 C 0.81163 0.99878 0.26587 0.0
C139 C 0.73541 0.8814 0.91408 0.0
C140 C 0.70396 0.88347 0.89392 0.0
C141 C 0.68249 0.88398 0.95881 0.0
C142 C 0.69233 0.88976 0.03905 0.0
C143 C 0.72352 0.8968 0.05309 0.0
C144 C 0.74489 0.8905 0.99271 0.0
C145 C 0.77658 0.90207 1.01473 0.0
C146 C 0.76978 0.91856 0.09598 0.0
C147 C 0.73856 0.9162 0.11616 0.0
C148 C 0.78759 0.9247 0.94717 0.0
C149 C 0.79833 0.87409 0.02363 0.0
C150 C 0.66951 0.96909 0.32116 0.0
C151 C 0.67241 0.99307 0.37833 0.0
C152 C 0.70052 1.01012 0.37717 0.0
C153 C 0.72518 1.00229 0.32267 0.0
C154 C 0.72192 0.97719 0.26829 0.0
C155 C 0.69396 0.96156 0.26845 0.0
C156 C 0.69253 0.9368 0.2051 0.0
C157 C 0.72548 0.93682 0.17415 0.0
C158 C 0.74315 0.96118 0.20825 0.0
C159 C 0.6689 0.94706 0.13846 0.0
C160 C 0.6844 0.90594 0.2475 0.0
H161 H 0.84245 0.90562 0.09602 0.0
H162 H 0.85334 0.01913 0.09236 0.0
H163 H 0.82964 0.01696 0.26165 0.0
H164 H 0.82247 0.97779 0.29184 0.0
H165 H 0.794 1.00669 0.30953 0.0
H166 H 0.77389 0.0154 0.08083 0.0
H167 H 0.79982 0.03973 0.13839 0.0
H168 H 0.76328 0.02854 0.18157 0.0
H169 H 0.75229 0.87872 0.86589 0.0
H170 H 0.65795 0.88447 0.94689 0.0
H171 H 0.67494 0.89164 0.08525 0.0
H172 H 0.7708 0.94378 0.93945 0.0
H173 H 0.79034 0.91285 0.88744 0.0
H174 H 0.81033 0.93495 0.96025 0.0
H175 H 0.78967 0.85364 0.98955 0.0
H176 H 0.801 0.86721 0.08879 0.0
H177 H 0.82135 0.87889 0.99712 0.0
H178 H 0.88708 0.92811 0.02927 0.0
C179 C 0.84389 0.93018 0.08976 0.0
C180 C 0.5375 0.70049 0.36473 0.0
C181 C 0.5557 0.67525 0.39582 0.0
C182 C 0.58578 0.67183 0.36372 0.0
C183 C 0.57761 0.7125 0.26612 0.0
C184 C 0.54962 0.71964 0.30019 0.0
C185 C 0.53792 0.74998 0.26078 0.0
H186 H 0.57046 0.85862 0.95094 0.0
C187 C 0.58491 0.73365 0.19984 0.0
C188 C 0.56348 0.75782 0.19729 0.0
H189 H 0.491 0.8628 0.108 0.0
H190 H 0.50938 0.81656 0.18282 0.0
H191 H 0.62071 0.84084 0.08887 0.0
H192 H 0.57093 0.80555 0.89751 0.0
H193 H 0.58492 0.76923 0.92703 0.0
H194 H 0.61086 0.79921 0.89199 0.0
H195 H 0.62655 0.8417 0.97995 0.0
H196 H 0.64451 0.81282 0.04321 0.0
C197 C 0.53553 0.77504 0.32688 0.0
C198 C 0.50677 0.74417 0.21844 0.0
C199 C 0.6311 0.69266 0.9424 0.0
C200 C 0.63829 0.7087 0.86978 0.0
C201 C 0.64979 0.73897 0.8765 0.0
C202 C 0.64663 0.75506 0.9504 0.0
C203 C 0.63108 0.74076 1.01525 0.0
C204 C 0.62717 0.70939 1.01487 0.0
C205 C 0.61307 0.69816 0.09348 0.0
C206 C 0.60624 0.72898 0.13605 0.0
C207 C 0.61323 0.75344 0.08396 0.0
C208 C 0.63705 0.67764 0.13674 0.0
C209 C 0.58303 0.68003 0.07593 0.0
C210 C 0.55684 0.84995 1.00159 0.0
C211 C 0.52925 0.86452 0.02232 0.0
C212 C 0.5125 0.85219 0.08984 0.0
C213 C 0.52302 0.82537 0.13296 0.0
C214 C 0.5506 0.81061 0.10867 0.0
C215 C 0.56666 0.82348 0.0435 0.0
C216 C 0.59453 0.80552 0.02032 0.0
C217 C 0.59363 0.77968 0.08286 0.0
C218 C 0.56782 0.78197 0.13633 0.0
C219 C 0.62322 0.82625 0.03323 0.0
C220 C 0.59032 0.79418 0.93009 0.0
H221 H 0.62105 0.68995 0.28675 0.0
H222 H 0.51508 0.70536 0.39063 0.0
H223 H 0.50891 0.72543 0.1724 0.0
H224 H 0.49859 0.76504 0.1864 0.0
H225 H 0.48903 0.73729 0.26398 0.0
H226 H 0.55806 0.77807 0.35857 0.0
H227 H 0.51794 0.76869 0.37337 0.0
H228 H 0.52901 0.79745 0.29995 0.0
H229 H 0.62371 0.66888 0.94039 0.0
H230 H 0.65708 0.75139 0.82239 0.0
H231 H 0.65351 0.77878 0.95231 0.0
H232 H 0.65466 0.69173 0.16923 0.0
H233 H 0.6492 0.66278 0.09181 0.0
H234 H 0.62597 0.66123 0.17947 0.0
H235 H 0.56664 0.69417 0.03958 0.0
H236 H 0.57149 0.67329 0.13382 0.0
H237 H 0.58782 0.6585 0.04164 0.0
H238 H 0.60109 0.65405 0.38585 0.0
C239 C 0.597 0.69105 0.30242 0.0
C240 C 0.35273 0.49289 0.31718 0.0
C241 C 0.3738 0.47602 0.36914 0.0
C242 C 0.36817 0.4442 0.37917 0.0
C243 C 0.31986 0.44805 0.30813 0.0
C244 C 0.3259 0.47755 0.28432 0.0
C245 C 0.30053 0.48707 0.22186 0.0
H246 H 0.15223 0.446 0.0785 0.0
C247 C 0.28908 0.4389 0.28323 0.0
C248 C 0.27717 0.45977 0.22583 0.0
H249 H 0.20837 0.51736 0.97044 0.0
H250 H 0.2496 0.5062 0.07038 0.0
H251 H 0.20621 0.39504 0.09329 0.0
H252 H 0.15516 0.45501 0.23337 0.0
H253 H 0.17949 0.44333 0.31465 0.0
H254 H 0.15413 0.41619 0.26411 0.0
H255 H 0.16712 0.39347 0.12997 0.0
H256 H 0.19834 0.37703 0.18813 0.0
C257 C 0.31538 0.48957 0.13665 0.0
C258 C 0.28541 0.5174 0.24795 0.0
C259 C 0.22393 0.40011 0.51092 0.0
C260 C 0.19179 0.39572 0.51171 0.0
C261 C 0.17822 0.38237 0.44143 0.0
C262 C 0.19346 0.38401 0.36582 0.0
C263 C 0.22272 0.39771 0.36329 0.0
C264 C 0.23897 0.40158 0.43516 0.0
C265 C 0.2712 0.41275 0.41994 0.0
C266 C 0.26942 0.41923 0.32745 0.0
C267 C 0.24002 0.41281 0.29676 0.0
C268 C 0.29358 0.38658 0.44375 0.0
C269 C 0.27743 0.44233 0.47059 0.0
C270 C 0.17338 0.45907 0.07313 0.0
C271 C 0.17633 0.48223 1.01326 0.0
C272 C 0.20463 0.49919 1.01454 0.0
C273 C 0.22884 0.49259 0.07198 0.0
C274 C 0.22527 0.46864 0.12954 0.0
C275 C 0.19748 0.45266 0.12875 0.0
C276 C 0.19623 0.42794 0.19248 0.0
C277 C 0.22838 0.4302 0.22953 0.0
C278 C 0.24605 0.45444 0.19433 0.0
C279 C 0.19155 0.39661 0.14901 0.0
C280 C 0.17009 0.43584 0.2545 0.0
H281 H 0.33926 0.40564 0.35148 0.0
H282 H 0.35708 0.51679 0.3029 0.0
H283 H 0.27548 0.51523 0.31042 0.0
H284 H 0.26656 0.52366 0.2051 0.0
H285 H 0.30265 0.53636 0.24855 0.0
H286 H 0.32671 0.46756 0.11964 0.0
H287 H 0.33319 0.50802 0.13611 0.0
H288 H 0.29813 0.49488 0.08894 0.0
H289 H 0.23601 0.4074 0.5655 0.0
H290 H 0.15435 0.37533 0.44272 0.0
H291 H 0.18144 0.37655 0.31178 0.0
H292 H 0.28444 0.37266 0.49546 0.0
H293 H 0.31595 0.39564 0.46644 0.0
H294 H 0.29753 0.3707 0.39141 0.0
H295 H 0.26021 0.4604 0.4556 0.0
H296 H 0.30071 0.45184 0.45931 0.0
H297 H 0.27648 0.43766 0.53732 0.0
H298 H 0.38352 0.42995 0.41496 0.0
C299 C 0.34201 0.43018 0.34667 0.0
C300 C 0.15009 0.23328 0.50239 0.0
C301 C 0.14589 0.20207 0.5219 0.0
C302 C 0.14581 0.1808 0.45632 0.0
C303 C 0.13619 0.22236 0.3616 0.0
C304 C 0.14238 0.24327 0.42328 0.0
C305 C 0.132 0.27524 0.40152 0.0
H306 H 0.01694 0.35424 0.3198 0.0
C307 C 0.11811 0.23816 0.29719 0.0
C308 C 0.11611 0.2692 0.31889 0.0
H309 H 0.10829 0.38696 0.38627 0.0
H310 H 0.13058 0.34171 0.32249 0.0
H311 H 0.02028 0.33132 0.14947 0.0
H312 H 0.01941 0.27438 0.32692 0.0
H313 H 1.00705 0.2646 0.2247 0.0
H314 H 0.99584 0.30081 0.26935 0.0
H315 H 0.02997 0.29582 0.10059 0.0
H316 H 0.05959 0.32359 0.12065 0.0
C317 C 0.16079 0.29621 0.39511 0.0
C318 C 0.10903 0.28663 0.46788 0.0
C319 C 0.06954 0.1724 0.07596 0.0
C320 C 0.04588 0.17565 1.0178 0.0
C321 C 0.02848 0.20341 0.02097 0.0
C322 C 0.03552 0.22737 0.07861 0.0
C323 C 0.06005 0.22372 0.13482 0.0
C324 C 0.07599 0.19603 0.13275 0.0
C325 C 0.09909 0.19357 0.20043 0.0
C326 C 0.09842 0.22593 0.23533 0.0
C327 C 0.07477 0.2441 0.19988 0.0
C328 C 0.13106 0.1859 0.16341 0.0
C329 C 0.08682 0.16907 0.26208 0.0
C330 C 0.04165 0.3512 0.32407 0.0
C331 C 0.0605 0.37367 0.36634 0.0
C332 C 0.09282 0.36995 0.36092 0.0
C333 C 0.10591 0.34352 0.32714 0.0
C334 C 0.08674 0.31976 0.30082 0.0
C335 C 0.056 0.32467 0.28757 0.0
C336 C 0.04404 0.29882 0.22997 0.0
C337 C 0.0715 0.27578 0.22797 0.0
C338 C 0.0949 0.28844 0.27765 0.0
C339 C 0.03811 0.31306 0.14523 0.0
C340 C 0.01482 0.28377 0.2648 0.0
H341 H 0.14021 0.17389 0.32863 0.0
H342 H 0.15335 0.24998 0.5508 0.0
H343 H 0.08924 0.27045 0.47365 0.0
H344 H 0.09971 0.30965 0.45504 0.0
H345 H 0.12043 0.28879 0.5285 0.0
H346 H 0.18052 0.2872 0.43144 0.0
H347 H 0.15628 0.31934 0.4207 0.0
H348 H 0.16867 0.29851 0.33066 0.0
H349 H 0.0826 0.15122 0.07874 0.0
H350 H 1.0097 0.20678 0.97812 0.0
H351 H 0.02156 0.24776 0.07895 0.0
H352 H 0.13552 0.20022 0.10823 0.0
H353 H 0.13234 0.16135 0.14485 0.0
H354 H 0.15027 0.19074 0.20619 0.0
H355 H 0.06266 0.16184 0.24893 0.0
H356 H 0.086 0.17799 0.32567 0.0
H357 H 0.10093 0.14779 0.26066 0.0
H358 H 0.14476 0.15628 0.46707 0.0
C359 C 0.14175 0.19101 0.37567 0.0
C360 C 0.32219 0.02318 1.00018 0.0
C361 C 0.33897 0.03896 0.937 0.0
C362 C 0.32702 0.06712 0.90806 0.0
C363 C 0.29065 0.06823 1.01891 0.0
C364 C 0.29664 0.03828 0.0385 0.0
C365 C 0.27478 0.02866 0.1085 0.0
H366 H 0.17689 0.08437 0.41274 0.0
C367 C 0.27279 0.08244 0.08402 0.0
C368 C 0.25779 0.05922 0.12873 0.0
H369 H 0.15674 1.00112 0.27836 0.0
H370 H 0.20008 1.01235 0.18469 0.0
H371 H 0.24381 0.07941 0.42616 0.0
H372 H 0.18734 0.12706 0.2574 0.0
H373 H 0.21822 0.15152 0.28665 0.0
H374 H 0.19354 0.13545 0.36403 0.0
H375 H 0.24001 0.12 0.43439 0.0
H376 H 0.27142 0.10291 0.37782 0.0
C377 C 0.29361 0.0175 0.18263 0.0
C378 C 0.25278 1.00339 0.07776 0.0
C379 C 0.3363 0.16311 0.2221 0.0
C380 C 0.33786 0.16642 0.30763 0.0
C381 C 0.30956 0.16863 0.34989 0.0
C382 C 0.28245 0.1573 0.31347 0.0
C383 C 0.2843 0.14366 0.23555 0.0
C384 C 0.31029 0.14864 0.18845 0.0
C385 C 0.31071 0.12894 0.11258 0.0
C386 C 0.28087 0.11031 0.12407 0.0
C387 C 0.26654 0.11816 0.19819 0.0
C388 C 0.34004 0.10835 0.11512 0.0
C389 C 0.31025 0.15008 0.03661 0.0
C390 C 0.18165 0.06806 0.36422 0.0
C391 C 0.16302 0.04176 0.3543 0.0
C392 C 0.17086 0.02126 0.28954 0.0
C393 C 0.19623 0.02731 0.23619 0.0
C394 C 0.21481 0.05348 0.24903 0.0
C395 C 0.20662 0.07363 0.3112 0.0
C396 C 0.22639 0.10199 0.31215 0.0
C397 C 0.24529 0.09739 0.23476 0.0
C398 C 0.24034 0.06803 0.20025 0.0
C399 C 0.24641 0.10126 0.39142 0.0
C400 C 0.20537 0.13066 0.30509 0.0
H401 H 0.29416 0.10356 0.92693 0.0
H402 H 0.32971 1.00088 0.02155 0.0
H403 H 0.23527 1.01302 0.03517 0.0
H404 H 0.24099 0.99193 0.12951 0.0
H405 H 0.26583 0.98523 0.0448 0.0
H406 H 0.31023 0.03553 0.20272 0.0
H407 H 0.30674 0.99639 0.16699 0.0
H408 H 0.27809 1.01216 0.23486 0.0
H409 H 0.35693 0.16472 0.18544 0.0
H410 H 0.30922 0.17432 0.41448 0.0
H411 H 0.26197 0.15675 0.35005 0.0
H412 H 0.34019 0.09388 0.17124 0.0
H413 H 0.36151 0.12226 0.114 0.0
H414 H 0.34225 0.09306 0.06187 0.0
H415 H 0.32273 0.17201 0.04854 0.0
H416 H 0.28623 0.15587 1.01843 0.0
H417 H 0.32235 0.13955 0.98401 0.0
H418 H 0.33801 0.07892 0.85744 0.0
C419 C 0.30255 0.08164 0.94822 0.0
C420 C 0.49559 0.33755 1.01421 0.0
C421 C 0.47958 0.36393 0.98162 0.0
C422 C 0.44844 0.36787 1.0036 0.0
C423 C 0.45201 0.32672 0.10204 0.0
C424 C 0.48043 0.31825 0.07345 0.0
C425 C 0.4894 0.28729 0.11439 0.0
H426 H 0.44811 0.18565 0.43349 0.0
C427 C 0.44326 0.30755 0.17135 0.0
C428 C 0.4631 0.2821 0.17764 0.0
H429 H 0.52156 0.16818 0.26245 0.0
H430 H 0.50921 0.21678 0.19005 0.0
H431 H 0.46204 0.24083 0.47941 0.0
H432 H 0.39564 0.21656 0.30369 0.0
H433 H 0.38064 0.24416 0.37012 0.0
H434 H 0.39685 0.20971 0.41301 0.0
H435 H 0.42325 0.24997 0.50026 0.0
H436 H 0.44916 0.27791 0.45444 0.0
C437 C 0.52088 0.29022 0.15698 0.0
C438 C 0.48949 0.26193 0.04875 0.0
C439 C 0.41189 0.36326 0.42187 0.0
C440 C 0.41072 0.35108 0.50192 0.0
C441 C 0.39665 0.32211 0.51233 0.0
C442 C 0.3932 0.30251 0.44485 0.0
C443 C 0.40443 0.31224 0.36854 0.0
C444 C 0.40956 0.34307 0.35534 0.0
C445 C 0.41947 0.34941 0.26865 0.0
C446 C 0.42457 0.31642 0.23785 0.0
C447 C 0.41811 0.29512 0.29952 0.0
C448 C 0.44963 0.36868 0.26802 0.0
C449 C 0.3929 0.36649 0.22505 0.0
C450 C 0.46168 0.19172 0.38021 0.0
C451 C 0.486 0.17266 0.3553 0.0
C452 C 0.50255 0.18207 0.2841 0.0
C453 C 0.49542 0.2102 0.24196 0.0
C454 C 0.47125 0.22926 0.27024 0.0
C455 C 0.45506 0.21932 0.33871 0.0
C456 C 0.43188 0.24227 0.36741 0.0
C457 C 0.43467 0.26691 0.30213 0.0
C458 C 0.45789 0.26004 0.24354 0.0
C459 C 0.44182 0.25344 0.4545 0.0
C460 C 0.39951 0.22736 0.36438 0.0
H461 H 0.41024 0.3514 0.07432 0.0
H462 H 0.51886 0.33244 0.99474 0.0
H463 H 0.46677 0.2608 1.01717 0.0
H464 H 0.49403 0.2391 0.07575 0.0
H465 H 0.50753 0.26663 1.00206 0.0
H466 H 0.52046 0.30918 0.20272 0.0
H467 H 0.53928 0.29524 0.11159 0.0
H468 H 0.52688 0.26863 0.18932 0.0
H469 H 0.42009 0.38634 0.4111 0.0
H470 H 0.39269 0.31297 0.5731 0.0
H471 H 0.3848 0.27973 0.45589 0.0
H472 H 0.46802 0.35703 0.30395 0.0
H473 H 0.44586 0.39197 0.29394 0.0
H474 H 0.45833 0.37246 0.20521 0.0
H475 H 0.38048 0.38188 0.26809 0.0
H476 H 0.37581 0.35008 0.19891 0.0
H477 H 0.40155 0.38199 0.17638 0.0
H478 H 0.43496 0.38622 0.97659 0.0
C479 C 0.4345 0.34897 0.062 0.0
Eu480 Eu 0.99046 0.04618 0.63692 0.0
C481 C 0.10198 0.03468 0.86055 0.0
N482 N 0.09629 0.02087 0.78707 0.0
C483 C 0.14764 0.03267 0.74232 0.0
C484 C 0.13056 0.04925 0.87597 0.0
C485 C 0.11901 0.0186 0.72964 0.0
C486 C 0.15334 0.04836 0.81539 0.0
C487 C 0.08418 0.04968 0.99594 0.0
C488 C 0.07901 0.03466 0.92035 0.0
C489 C 0.11249 0.06446 1.01077 0.0
C490 C 0.13561 0.06418 0.95111 0.0
Eu491 Eu 0.04726 0.99762 0.77234 0.0
N492 N 0.05145 0.0207 0.90398 0.0
C493 C 0.06066 0.04964 0.05443 0.0
C494 C 0.02882 0.01993 0.96204 0.0
C495 C 0.03296 0.03455 0.03755 0.0
H496 H 0.11554 1.00534 0.67467 0.0
H497 H 0.01479 0.03402 0.08292 0.0
H498 H 0.92247 0.06321 0.72253 0.0
H499 H 1.0122 0.01951 0.3154 0.0
H500 H 1.00759 1.00791 0.95157 0.0
H501 H 0.06373 0.061 0.11301 0.0
H502 H 0.0249 0.03717 0.45552 0.0
H503 H 0.16542 0.03111 0.69605 0.0
H504 H 0.11674 0.07616 0.06836 0.0
H505 H 0.15737 0.07558 0.96373 0.0
H506 H 0.8669 0.05329 0.69902 0.0
H507 H 0.17558 0.05924 0.82501 0.0
H508 H 0.9587 1.00395 0.28131 0.0
N509 N 0.93666 0.0407 0.61374 0.0
C510 C 0.92764 0.02853 0.54106 0.0
C511 C 0.88376 0.04575 0.65452 0.0
C512 C 0.89618 0.0235 0.52307 0.0
C513 C 0.91522 0.05075 0.66859 0.0
C514 C 0.8742 0.03156 0.58196 0.0
N515 N 0.9795 0.03032 0.50086 0.0
C516 C 1.00162 0.03012 0.44133 0.0
C517 C 0.94132 0.01353 0.40301 0.0
C518 C 0.94979 0.02351 0.48217 0.0
C519 C 0.96423 1.01147 0.34292 0.0
C520 C 0.99445 0.02025 0.36191 0.0
H521 H 0.84979 0.02809 0.57061 0.0
H522 H 0.86364 1.00759 0.4311 0.0
H523 H 0.90325 0.99892 0.32568 0.0
O524 O 0.96735 0.0908 0.62254 0.0
O525 O 0.99939 0.99744 0.58644 0.0
O526 O 1.01185 0.96865 0.69967 0.0
O527 O 0.01445 0.08506 0.5836 0.0
O528 O 0.04271 0.04796 0.61012 0.0
O529 O 0.06139 1.0002 0.63812 0.0
O530 O 0.05784 0.96429 0.86789 0.0
O531 O 0.04885 0.05106 0.77382 0.0
O532 O 0.99812 0.06202 0.76842 0.0
O533 O 0.07813 0.95893 0.74819 0.0
O534 O 0.99741 0.99118 0.81571 0.0
O535 O 0.96746 0.02968 0.75722 0.0
C536 C 1.00374 0.97045 0.62171 0.0
C537 C 1.00322 0.13102 0.65263 0.0
C538 C 0.04595 0.163 0.70217 0.0
C539 C 0.02556 0.17799 0.75574 0.0
C540 C 0.98315 0.14636 0.70628 0.0
C541 C 0.99433 0.16977 0.75728 0.0
C542 C 0.03439 0.13984 0.6505 0.0
C543 C 0.06165 0.02515 0.59299 0.0
C544 C 0.99289 0.10463 0.60205 0.0
C545 C 0.88766 1.01186 0.44588 0.0
C546 C 0.91021 1.00695 0.38583 0.0
C547 C 0.0257 0.06894 0.79556 0.0
C548 C 0.0586 0.91464 0.81116 0.0
C549 C 0.01299 0.88145 0.81117 0.0
C550 C 0.03137 0.85697 0.78326 0.0
C551 C 0.07657 0.89002 0.78354 0.0
C552 C 0.02689 0.91018 0.82483 0.0
C553 C 0.06295 0.86129 0.76972 0.0
C554 C 0.97161 1.00735 0.81151 0.0
C555 C 0.07185 0.94572 0.81771 0.0
H556 H 0.03368 0.19616 0.79579 0.0
H557 H 0.959 0.14005 0.70963 0.0
H558 H 0.97878 0.18141 0.79877 0.0
H559 H 0.0497 0.12897 0.60681 0.0
H560 H 0.02151 0.83436 0.77334 0.0
H561 H 0.10094 0.89315 0.77141 0.0
H562 H 0.01273 0.92941 0.84369 0.0
H563 H 0.07689 0.84232 0.74829 0.0
Eu564 Eu 0.53148 0.0407 0.75236 0.0
C565 C 0.5076 0.93367 0.48083 0.0
N566 N 0.51183 0.96453 0.48571 0.0
C567 C 0.54076 0.96383 0.36061 0.0
C568 C 0.52052 0.91643 0.41628 0.0
C569 C 0.52725 0.97994 0.42543 0.0
C570 C 0.53768 0.93188 0.35645 0.0
C571 C 0.48258 0.8878 0.53304 0.0
C572 C 0.48886 0.91957 0.53821 0.0
C573 C 0.49634 0.87026 0.47072 0.0
C574 C 0.51526 0.88455 0.41241 0.0
Eu575 Eu 0.49019 0.98952 0.60084 0.0
N576 N 0.4755 0.93726 0.59663 0.0
C577 C 0.46208 0.87479 0.58953 0.0
C578 C 0.45459 0.92502 0.64986 0.0
C579 C 0.44781 0.89356 0.64772 0.0
H580 H 0.52968 1.00463 0.42806 0.0
H581 H 0.43161 0.8838 0.69091 0.0
H582 H 0.50237 0.02511 0.93939 0.0
H583 H 0.5827 0.14704 0.63879 0.0
H584 H 0.4436 0.93946 0.69506 0.0
H585 H 0.45668 0.85046 0.58774 0.0
H586 H 0.56827 0.0922 0.63555 0.0
H587 H 0.55352 0.97607 0.3139 0.0
H588 H 0.49198 0.84578 0.46604 0.0
H589 H 0.52517 0.87086 0.36361 0.0
H590 H 0.49011 0.05224 0.0673 0.0
H591 H 0.54803 0.91948 0.30591 0.0
H592 H 0.57022 0.17877 0.76016 0.0
N593 N 0.52034 0.06478 0.87955 0.0
C594 C 0.52686 0.09519 0.88617 0.0
C595 C 0.50047 0.06463 1.01684 0.0
C596 C 0.5202 0.1117 0.95848 0.0
C597 C 0.50761 0.04927 0.94397 0.0
C598 C 0.50668 0.09602 0.02408 0.0
N599 N 0.54748 0.09278 0.75348 0.0
C600 C 0.56271 0.10571 0.68895 0.0
C601 C 0.54878 0.14111 0.8257 0.0
C602 C 0.54088 0.10967 0.82096 0.0
C603 C 0.56379 0.15468 0.75902 0.0
C604 C 0.57092 0.13684 0.69049 0.0
H605 H 0.50117 0.10785 0.08064 0.0
H606 H 0.52246 0.15624 1.0181 0.0
H607 H 0.54754 0.18204 0.90163 0.0
O608 O 0.56162 1.00112 0.75881 0.0
O609 O 0.50834 0.0688 0.64983 0.0
O610 O 0.50605 0.03533 0.54128 0.0
O611 O 0.57648 0.045 0.81192 0.0
O612 O 0.5567 0.03704 0.62825 0.0
O613 O 0.54295 0.98832 0.5915 0.0
O614 O 0.45355 0.02313 0.58465 0.0
O615 O 0.50264 0.96147 0.71594 0.0
O616 O 0.51442 0.9966 0.81797 0.0
O617 O 0.45346 0.98061 0.51293 0.0
O618 O 0.46024 0.99616 0.71557 0.0
O619 O 0.4797 0.03901 0.7825 0.0
C620 C 0.50509 0.06373 0.57048 0.0
C621 C 0.61417 1.01224 0.75042 0.0
C622 C 0.65386 0.9758 0.70798 0.0
C623 C 0.66797 0.99924 0.66183 0.0
C624 C 0.62884 0.03553 0.70549 0.0
C625 C 0.65568 0.02896 0.6615 0.0
C626 C 0.62686 0.98271 0.75181 0.0
C627 C 0.56254 1.01145 0.58779 0.0
C628 C 0.58433 0.01691 0.79105 0.0
C629 C 0.5275 0.14315 0.96322 0.0
C630 C 0.54177 0.15784 0.89692 0.0
C631 C 0.50901 0.96797 0.79343 0.0
C632 C 0.43982 0.02696 0.44535 0.0
C633 C 0.42488 0.07504 0.37895 0.0
C634 C 0.43693 0.06373 0.30465 0.0
C635 C 0.45178 0.01629 0.37058 0.0
C636 C 0.42681 0.05645 0.44926 0.0
C637 C 0.45043 0.03469 0.3009 0.0
C638 C 0.45724 0.01893 0.76875 0.0
C639 C 0.44244 1.0085 0.52075 0.0
H640 H 0.68873 0.99477 0.62703 0.0
H641 H 0.61921 0.05846 0.70269 0.0
H642 H 0.66681 0.04687 0.62622 0.0
H643 H 0.61582 0.9653 0.7892 0.0
H644 H 0.43519 0.07683 0.24853 0.0
H645 H 0.46236 0.99383 0.36578 0.0
H646 H 0.41835 0.06488 0.50749 0.0
H647 H 0.45957 0.02628 0.24344 0.0
Eu648 Eu 0.54983 0.502 0.64202 0.0
C649 C 0.4307 0.51877 0.86369 0.0
N650 N 0.43823 0.53408 0.79421 0.0
C651 C 0.38549 0.53155 0.74951 0.0
C652 C 0.4004 0.50807 0.87749 0.0
C653 C 0.4158 0.54203 0.73953 0.0
C654 C 0.37787 0.51395 0.8181 0.0
C655 C 0.44553 0.50266 1.00004 0.0
C656 C 0.45278 0.51617 0.924 0.0
C657 C 0.4159 0.49036 1.01262 0.0
C658 C 0.39335 0.49307 0.95139 0.0
Eu659 Eu 0.49088 0.54805 0.7766 0.0
N660 N 0.48095 0.52862 0.90985 0.0
C661 C 0.46794 0.50293 0.06192 0.0
C662 C 0.50217 0.53081 0.97165 0.0
C663 C 0.49621 0.51755 0.04807 0.0
H664 H 0.42119 0.55697 0.68888 0.0
H665 H 0.51339 0.5186 0.09618 0.0
H666 H 0.61603 0.52663 0.72884 0.0
H667 H 0.51392 0.5108 0.3199 0.0
H668 H 0.52404 0.54205 0.96107 0.0
H669 H 0.4633 0.49279 0.12124 0.0
H670 H 0.51415 0.48909 0.4585 0.0
H671 H 0.36797 0.53743 0.70496 0.0
H672 H 0.40992 0.47961 0.07032 0.0
H673 H 0.37028 0.48443 0.96286 0.0
H674 H 0.65921 0.56147 0.697 0.0
H675 H 0.35431 0.50616 0.82629 0.0
H676 H 0.55265 0.55002 0.2815 0.0
N677 N 0.59334 0.53348 0.61488 0.0
C678 C 0.59556 0.54531 0.53793 0.0
C679 C 0.64125 0.55746 0.65207 0.0
C680 C 0.62008 0.56515 0.51668 0.0
C681 C 0.61643 0.53808 0.6705 0.0
C682 C 0.64287 0.57141 0.57524 0.0
N683 N 0.5499 0.51816 0.50265 0.0
C684 C 0.52986 0.50741 0.44469 0.0
C685 C 0.5744 0.55028 0.40099 0.0
C686 C 0.57289 0.53795 0.48088 0.0
C687 C 0.55227 0.5411 0.34344 0.0
C688 C 0.53028 0.51912 0.365 0.0
H689 H 0.66206 0.58654 0.5613 0.0
H690 H 0.63947 0.59377 0.42103 0.0
H691 H 0.5995 0.58075 0.31972 0.0
O692 O 0.56912 0.46794 0.55836 0.0
O693 O 0.55024 0.55519 0.64776 0.0
O694 O 0.49952 0.56565 0.64688 0.0
O695 O 0.5813 0.46629 0.6859 0.0
O696 O 0.49984 0.4935 0.59823 0.0
O697 O 0.47069 0.53379 0.64989 0.0
O698 O 0.5096 0.58864 0.83595 0.0
O699 O 0.50526 0.5006 0.82559 0.0
O700 O 0.51111 0.4747 0.70615 0.0
O701 O 0.46265 0.58956 0.79344 0.0
O702 O 0.54275 0.55302 0.80908 0.0
O703 O 0.56503 0.50695 0.77562 0.0
C704 C 0.52729 0.57232 0.62129 0.0
C705 C 0.57235 0.41947 0.61873 0.0
C706 C 0.52973 0.38237 0.61693 0.0
C707 C 0.55166 0.35845 0.61338 0.0
C708 C 0.59373 0.39552 0.61573 0.0
C709 C 0.58334 0.36505 0.61378 0.0
C710 C 0.54083 0.4127 0.6214 0.0
C711 C 0.47466 0.51083 0.59719 0.0
C712 C 0.58197 0.45185 0.61612 0.0
C713 C 0.62104 0.57817 0.43808 0.0
C714 C 0.59822 0.57082 0.38048 0.0
C715 C 0.50667 0.47438 0.78592 0.0
C716 C 0.49471 0.63293 0.76483 0.0
C717 C 0.53578 0.6661 0.71172 0.0
C718 C 0.51502 0.67833 0.65433 0.0
C719 C 0.47429 0.64524 0.7066 0.0
C720 C 0.52509 0.64416 0.76795 0.0
C721 C 0.48441 0.668 0.65221 0.0
C722 C 0.56393 0.53168 0.82211 0.0
C723 C 0.48642 0.60595 0.81575 0.0
H724 H 0.54468 0.33466 0.60761 0.0
H725 H 0.61825 0.40036 0.6139 0.0
H726 H 0.59987 0.34648 0.61056 0.0
H727 H 0.52511 0.43163 0.62477 0.0
H728 H 0.52251 0.69554 0.61075 0.0
H729 H 0.4508 0.63688 0.70192 0.0
H730 H 0.54072 0.63544 0.81426 0.0
H731 H 0.46862 0.67725 0.60718 0.0
Eu732 Eu 0.0376 0.54869 0.64435 0.0
C733 C 0.98986 0.41838 0.83285 0.0
N734 N 0.97862 0.43655 0.7726 0.0
C735 C 0.95377 0.39312 0.71018 0.0
C736 C 0.98387 0.38649 0.83368 0.0
C737 C 0.96032 0.42464 0.71235 0.0
C738 C 0.96581 0.37389 0.77078 0.0
C739 C 0.01748 0.41415 0.96122 0.0
C740 C 1.00637 0.43199 0.89539 0.0
C741 C 1.01242 0.38222 0.96142 0.0
C742 C 0.99563 0.3684 0.89773 0.0
Eu743 Eu 0.99241 0.48909 0.77456 0.0
N744 N 1.01057 0.46289 0.89328 0.0
C745 C 0.03284 0.42902 0.02552 0.0
C746 C 0.02447 0.47764 0.95765 0.0
C747 C 0.03609 0.46095 0.02401 0.0
H748 H 0.95104 0.43951 0.66539 0.0
H749 H 0.04765 0.47273 0.07384 0.0
H750 H 0.03611 0.62171 0.71682 0.0
H751 H 0.9993 0.50678 0.34285 0.0
H752 H 0.02756 0.50224 0.95733 0.0
H753 H 0.04181 0.41615 0.07709 0.0
H754 H 0.02833 0.50524 0.47121 0.0
H755 H 0.93952 0.38369 0.66176 0.0
H756 H 0.02097 0.3681 1.01113 0.0
H757 H 0.99146 0.34383 0.89925 0.0
H758 H 1.01109 0.67085 0.68476 0.0
H759 H 0.96068 0.3495 0.76911 0.0
H760 H 0.96985 0.55334 0.30598 0.0
N761 N 0.01698 0.59798 0.61447 0.0
C762 C 1.00087 0.6007 0.54333 0.0
C763 C 1.00769 0.65121 0.64494 0.0
C764 C 0.98644 0.62866 0.52201 0.0
C765 C 0.02149 0.62306 0.66358 0.0
C766 C 0.98972 0.65393 0.57441 0.0
N767 N 0.01388 0.54913 0.51227 0.0
C768 C 0.01482 0.52511 0.45854 0.0
C769 C 0.98281 0.57788 0.41627 0.0
C770 C 0.99924 0.57561 0.49086 0.0
C771 C 0.98227 0.55254 0.36359 0.0
C772 C 0.99873 0.5262 0.38435 0.0
H773 H 0.97907 0.67579 0.56007 0.0
H774 H 0.95819 0.65194 0.43174 0.0
H775 H 0.95492 0.60742 0.33929 0.0
O776 O 0.07333 0.55295 0.55093 0.0
O777 O 0.98458 0.55014 0.65021 0.0
O778 O 0.97387 0.49944 0.64579 0.0
O779 O 0.07627 0.58067 0.66012 0.0
O780 O 0.04667 0.49723 0.61064 0.0
O781 O 1.00319 0.47011 0.64738 0.0
O782 O 0.96109 0.52598 0.80642 0.0
O783 O 0.04478 0.48472 0.79623 0.0
O784 O 0.06568 0.53099 0.75423 0.0
O785 O 0.94629 0.47839 0.82123 0.0
O786 O 1.00573 0.53244 0.84948 0.0
O787 O 0.02675 0.57067 0.76776 0.0
C788 C 0.9667 0.5276 0.62429 0.0
C789 C 0.12121 0.5555 0.61881 0.0
C790 C 0.1519 0.50903 0.63963 0.0
C791 C 0.17694 0.52751 0.66436 0.0
C792 C 0.14636 0.57361 0.64321 0.0
C793 C 0.17401 0.55958 0.66682 0.0
C794 C 0.1239 0.52337 0.62031 0.0
C795 C 0.02863 0.47255 0.60391 0.0
C796 C 0.09122 0.56937 0.59821 0.0
C797 C 0.96957 0.63072 0.44875 0.0
C798 C 0.96773 0.60538 0.39609 0.0
C799 C 0.06758 0.50503 0.79567 0.0
C800 C 0.90986 0.51525 0.77204 0.0
C801 C 0.87531 0.55585 0.72446 0.0
C802 C 0.86098 0.53462 0.67151 0.0
C803 C 0.89537 0.49436 0.71864 0.0
C804 C 0.8994 0.54567 0.77529 0.0
C805 C 0.87093 0.50406 0.66904 0.0
C806 C 0.01574 0.56102 0.83838 0.0
C807 C 0.9379 0.50729 0.81859 0.0
H808 H 0.19909 0.51739 0.67875 0.0
H809 H 0.14452 0.59845 0.64468 0.0
H810 H 0.19345 0.57363 0.68545 0.0
H811 H 0.10413 0.50931 0.60477 0.0
H812 H 0.84232 0.54167 0.63161 0.0
H813 H 0.90325 0.47083 0.7139 0.0
H814 H 0.91028 0.56146 0.81798 0.0
H815 H 0.85998 0.48795 0.6275 0.0
C816 C 0.11744 0.0619 0.4377 0.0
C817 C 0.13554 0.0368 0.41086 0.0
H818 H 0.08049 0.07814 0.51411 0.0
C819 C 0.12796 1.00754 0.44231 0.0
H820 H 0.12191 0.0848 0.41453 0.0
C821 C 0.10398 1.00375 0.50021 0.0
C822 C 0.08644 0.02901 0.52835 0.0
H823 H 0.1412 0.9876 0.42407 0.0
H824 H 0.09939 0.98091 0.52368 0.0
C825 C 0.09336 0.05807 0.49494 0.0
C826 C 0.49361 0.14694 0.49424 0.0
C827 C 0.49385 0.14454 0.40785 0.0
H828 H 0.49686 0.12459 0.61106 0.0
C829 C 0.49908 0.1149 0.37497 0.0
H830 H 0.49005 0.1691 0.523 0.0
C831 C 0.50286 0.08876 0.42664 0.0
C832 C 0.50188 0.09131 0.51316 0.0
H833 H 0.49919 0.11168 0.3092 0.0
H834 H 0.50624 0.06645 0.39859 0.0
C835 C 0.4976 0.1211 0.54541 0.0
C836 C 0.40001 0.51604 0.46369 0.0
C837 C 0.4016 0.48918 0.41529 0.0
H838 H 0.42155 0.54459 0.55544 0.0
C839 C 0.42872 0.47136 0.4232 0.0
H840 H 0.37977 0.53053 0.46032 0.0
C841 C 0.45176 0.47841 0.48119 0.0
C842 C 0.44977 0.50434 0.53267 0.0
H843 H 0.43167 0.4508 0.38653 0.0
H844 H 0.471 0.46288 0.48622 0.0
C845 C 0.42383 0.52366 0.52047 0.0
C846 C 0.02442 0.39708 0.47529 0.0
C847 C 0.04872 0.40052 0.41859 0.0
H848 H 0.99924 0.41618 0.57688 0.0
C849 C 0.0653 0.42868 0.42205 0.0
H850 H 1.0112 0.37593 0.47637 0.0
C851 C 0.05917 0.45139 0.48179 0.0
C852 C 0.03551 0.4477 0.54001 0.0
H853 H 0.0838 0.43312 0.37916 0.0
H854 H 0.07298 0.47214 0.48176 0.0
C855 C 0.01787 0.42023 0.53436 0.0
C856 C 0.89626 1.01188 0.94009 0.0
C857 C 0.90002 0.98779 0.99691 0.0
H858 H 0.91522 0.03723 0.83921 0.0
C859 C 0.92836 0.97169 0.99434 0.0
H860 H 0.87496 0.02483 0.93898 0.0
C861 C 0.95087 0.97785 0.93448 0.0
C862 C 0.9468 1.00114 0.87553 0.0
H863 H 0.93298 0.95344 0.03765 0.0
H864 H 0.97159 0.964 0.93449 0.0
C865 C 0.91932 0.01857 0.88105 0.0
C866 C 0.51872 0.92183 0.99581 0.0
C867 C 0.51866 0.89103 0.96842 0.0
H868 H 0.51604 0.96991 0.96383 0.0
C869 C 0.51373 0.88607 0.88391 0.0
H870 H 0.52317 0.9268 0.05976 0.0
C871 C 0.50959 0.91073 0.82871 0.0
C872 C 0.51065 0.94166 0.85512 0.0
H873 H 0.5141 0.86286 0.85977 0.0
H874 H 0.50664 0.90541 0.76438 0.0
C875 C 0.51489 0.94668 0.94018 0.0
C876 C 0.63495 0.51828 0.96206 0.0
C877 C 0.63974 0.54732 0.99861 0.0
H878 H 0.60807 0.49064 0.87852 0.0
C879 C 0.61792 0.57051 0.98002 0.0
H880 H 0.65112 0.49984 0.97345 0.0
C881 C 0.59317 0.5653 0.92516 0.0
C882 C 0.58914 0.53668 0.88588 0.0
H883 H 0.62034 0.59319 1.00684 0.0
H884 H 0.57761 0.58411 0.91193 0.0
C885 C 0.61024 0.51311 0.90661 0.0
C886 C 0.02078 0.63666 0.96389 0.0
C887 C 0.99912 0.63182 0.02689 0.0
H888 H 0.04352 0.61856 0.85715 0.0
C889 C 0.98583 0.60211 0.0321 0.0
H890 H 0.03116 0.65916 0.95635 0.0
C891 C 0.99248 0.57885 0.97418 0.0
C892 C 1.01254 0.58429 0.9078 0.0
H893 H 0.96874 0.59736 0.0788 0.0
H894 H 0.98051 0.55704 0.97918 0.0
C895 C 0.02738 0.61335 0.9056 0.0
C896 C 0.12746 0.16296 0.62541 0.0
C897 C 0.12979 0.19382 0.60011 0.0
H898 H 0.09866 0.12863 0.68051 0.0
C899 C 0.10922 0.21528 0.63535 0.0
H900 H 0.14363 0.14588 0.60366 0.0
C901 C 0.08358 0.20537 0.67941 0.0
C902 C 0.0781 0.1739 0.68996 0.0
H903 H 0.11006 0.23946 0.62022 0.0
H904 H 0.0662 0.22217 0.69557 0.0
C905 C 0.10168 0.15304 0.66973 0.0
C906 C 0.39428 0.15196 0.31014 0.0
C907 C 0.36529 0.15249 0.34934 0.0
H908 H 0.43634 0.12769 0.29039 0.0
C909 C 0.36036 0.13162 0.4141 0.0
H910 H 0.39969 0.16769 0.26104 0.0
C911 C 0.38111 0.10779 0.42869 0.0
C912 C 0.40778 0.1047 0.38061 0.0
H913 H 0.33873 0.13091 0.44701 0.0
H914 H 0.37442 0.09021 0.47207 0.0
C915 C 0.4153 0.12847 0.32596 0.0
C916 C 0.45286 0.34004 0.60289 0.0
C917 C 0.43444 0.36186 0.56174 0.0
H918 H 0.49666 0.32951 0.65551 0.0
C919 C 0.44519 0.39223 0.55771 0.0
H920 H 0.44546 0.31638 0.60929 0.0
C921 C 0.4757 0.39901 0.57751 0.0
C922 C 0.49572 0.37628 0.60877 0.0
H923 H 0.43126 0.41009 0.53015 0.0
H924 H 0.48363 0.42178 0.56294 0.0
C925 C 0.48298 0.34731 0.62707 0.0
C926 C 0.1845 0.42795 0.6392 0.0
C927 C 0.17316 0.41706 0.56343 0.0
H928 H 0.1867 0.46583 0.72365 0.0
C929 C 0.14947 0.43381 0.52503 0.0
H930 H 0.20204 0.41529 0.67213 0.0
C931 C 0.14139 0.46279 0.55322 0.0
C932 C 0.15575 0.47559 0.62259 0.0
H933 H 0.13982 0.42675 0.46678 0.0
H934 H 0.12611 0.47625 0.51519 0.0
C935 C 0.176 0.45709 0.66829 0.0
C936 C 0.93814 0.88106 0.92862 0.0
C937 C 0.92104 0.85838 0.88648 0.0
H938 H 0.9808 0.90501 0.93981 0.0
C939 C 0.93182 0.84857 0.80941 0.0
H940 H 0.93102 0.88947 0.98807 0.0
C941 C 0.96107 0.8575 0.78181 0.0
C942 C 0.97977 0.87682 0.83009 0.0
H943 H 0.91892 0.83186 0.7739 0.0
H944 H 0.96968 0.84799 0.72495 0.0
C945 C 0.96719 0.88993 0.90113 0.0
C946 C 0.6645 0.89521 0.78508 0.0
C947 C 0.69497 0.8976 0.81413 0.0
H948 H 0.62732 0.91824 0.72457 0.0
C949 C 0.71389 0.9211 0.7818 0.0
H950 H 0.64958 0.87678 0.80571 0.0
C951 C 0.70107 0.94503 0.73671 0.0
C952 C 0.66921 0.94569 0.72186 0.0
H953 H 0.73768 0.92379 0.80068 0.0
H954 H 0.71553 0.96472 0.72325 0.0
C955 C 0.65171 0.91912 0.73901 0.0
C956 C 0.60123 0.71963 0.75792 0.0
C957 C 0.62219 0.69886 0.79382 0.0
H958 H 0.55667 0.72531 0.70389 0.0
C959 C 0.61884 0.66738 0.7767 0.0
H960 H 0.60315 0.74413 0.76895 0.0
C961 C 0.5918 0.65659 0.74003 0.0
C962 C 0.56809 0.67719 0.7187 0.0
H963 H 0.63495 0.65087 0.80185 0.0
H964 H 0.58808 0.63198 0.73703 0.0
C965 C 0.57423 0.70884 0.72093 0.0
C966 C 0.8212 0.6201 0.77519 0.0
C967 C 0.84202 0.64158 0.80929 0.0
H968 H 0.81554 0.57551 0.72274 0.0
C969 C 0.87352 0.63867 0.79089 0.0
H970 H 0.79668 0.62154 0.78721 0.0
C971 C 0.88437 0.612 0.75284 0.0
C972 C 0.86386 0.58786 0.73339 0.0
H973 H 0.89007 0.65518 0.81451 0.0
H974 H 0.90905 0.60901 0.74626 0.0
C975 C 0.83205 0.59332 0.73822 0.0
C976 C 0.06497 0.13443 0.91804 0.0
C977 C 0.04005 0.14964 0.95654 0.0
H978 H 0.08027 0.09842 0.83725 0.0
C979 C 1.0102 0.13816 0.93979 0.0
H980 H 0.08836 0.14239 0.92825 0.0
C981 C 1.00561 0.11226 0.88803 0.0
C982 C 0.03062 0.09695 0.85028 0.0
H983 H 0.99035 0.14877 0.9682 0.0
H984 H 0.98228 0.1041 0.87799 0.0
C985 C 0.06035 0.10886 0.86574 0.0
C986 C 0.39572 0.0493 0.91791 0.0
C987 C 0.37029 0.02955 0.9048 0.0
H988 H 0.44219 0.0617 0.88697 0.0
C989 C 0.37428 1.00501 0.84944 0.0
H990 H 0.39345 0.06877 0.95894 0.0
C991 C 0.40254 1.001 0.80693 0.0
C992 C 0.42768 0.02149 0.81817 0.0
H993 H 0.35513 0.98974 0.83616 0.0
H994 H 0.40434 0.9823 0.76337 0.0
C995 C 0.42379 0.04533 0.87582 0.0
C996 C 0.48507 0.39063 0.84336 0.0
C997 C 0.49332 0.3887 0.927 0.0
H998 H 0.48221 0.41874 0.73479 0.0
C999 C 0.50699 0.41507 0.96234 0.0
H1000 H 0.47314 0.37156 0.81449 0.0
C1001 C 0.5118 0.44232 0.91646 0.0
C1002 C 0.50319 0.44438 0.83312 0.0
H1003 H 0.51246 0.41521 0.02709 0.0
H1004 H 0.52177 0.4621 0.94703 0.0
C1005 C 0.49015 0.41784 0.79734 0.0
C1006 C 0.14441 0.51702 0.91535 0.0
C1007 C 0.14969 0.48805 0.9523 0.0
H1008 H 0.11542 0.54507 0.83815 0.0
C1009 C 0.12813 0.46453 0.93231 0.0
H1010 H 0.15986 0.53605 0.92778 0.0
C1011 C 0.1021 0.46995 0.88197 0.0
C1012 C 0.09642 0.49902 0.84715 0.0
H1013 H 0.13117 0.44143 0.95529 0.0
H1014 H 0.08632 0.45109 0.87036 0.0
C1015 C 0.11849 0.52232 0.86373 0.0
C1016 C 0.98471 0.91625 0.44038 0.0
C1017 C 0.99215 0.88646 0.46926 0.0
H1018 H 0.98195 0.96465 0.46358 0.0
C1019 C 1.00435 0.88483 0.54955 0.0
H1020 H 0.9761 0.91936 0.37868 0.0
C1021 C 1.00806 0.91166 0.59879 0.0
C1022 C 0.99967 0.94123 0.57032 0.0
H1023 H 1.01054 0.86274 0.5752 0.0
H1024 H 0.01777 0.90924 0.65913 0.0
C1025 C 0.98826 0.94276 0.48956 0.0
C1026 C 0.62923 0.97388 0.47062 0.0
C1027 C 0.64589 0.99894 0.43759 0.0
H1028 H 0.59082 0.95805 0.54185 0.0
C1029 C 0.63529 0.02873 0.45751 0.0
H1030 H 0.6366 0.95053 0.45868 0.0
C1031 C 0.60858 0.03309 0.50654 0.0
C1032 C 0.59168 1.0078 0.53754 0.0
H1033 H 0.64713 0.04871 0.43341 0.0
H1034 H 0.60094 0.05629 0.51934 0.0
C1035 C 0.60273 0.97819 0.51891 0.0
C1036 C 0.51645 0.63792 0.46247 0.0
C1037 C 0.54578 0.65217 0.46163 0.0
H1038 H 0.48747 0.602 0.51274 0.0
C1039 C 0.56779 0.64079 0.51828 0.0
H1040 H 0.49877 0.6455 0.42021 0.0
C1041 C 0.56171 0.61525 0.56876 0.0
C1042 C 0.53294 0.60036 0.56787 0.0
H1043 H 0.59042 0.65125 0.52265 0.0
H1044 H 0.57979 0.60713 0.60891 0.0
C1045 C 0.51008 0.61261 0.51518 0.0
C1046 C 0.90088 0.57166 0.52008 0.0
C1047 C 0.88803 0.55029 0.46399 0.0
H1048 H 0.93514 0.58173 0.61138 0.0
C1049 C 0.90016 0.52018 0.46565 0.0
H1050 H 0.89226 0.595 0.5224 0.0
C1051 C 0.925 0.51234 0.51886 0.0
C1052 C 0.93872 0.53445 0.57136 0.0
H1053 H 0.89147 0.50306 0.42324 0.0
H1054 H 0.93416 0.48922 0.51676 0.0
C1055 C 0.9258 0.56407 0.5715 0.0
loop_
_geom_bond_atom_site_label_1
_geom_bond_atom_site_label_2
_geom_bond_distance
_geom_bond_site_symmetry_2
_ccdc_geom_bond_type
C0 C1 1.391 . S
C0 C4 1.391 . S
C0 H42 0.948 . S
C1 C0 1.391 . S
C1 C2 1.391 . S
C2 C1 1.391 . S
C2 H58 0.947 . S
C2 C59 1.392 . S
C3 C4 1.391 . S
C3 C7 1.397 . S
C3 C59 1.419 . S
C4 C0 1.391 . S
C4 C3 1.391 . S
C4 C5 1.399 . S
C5 C4 1.399 . S
C5 C8 1.396 . S
C5 C17 1.453 . S
C5 C18 1.684 . S
H6 C30 0.948 . S
C7 C3 1.397 . S
C7 C8 1.394 . S
C7 C26 1.723 . S
C8 C5 1.396 . S
C8 C7 1.394 . S
C8 C38 1.723 . S
H9 C32 0.947 . S
H10 C33 0.948 . S
H11 C39 0.982 . S
H12 C40 0.979 . S
H13 C40 0.980 . S
H14 C40 0.983 . S
H15 C39 0.979 . S
H16 C39 0.977 . S
C17 C5 1.453 . S
C17 H46 0.982 . S
C17 H47 0.979 . S
C17 H48 0.977 . S
C18 C5 1.684 . S
C18 H43 0.979 . S
C18 H44 0.980 . S
C18 H45 0.983 . S
C19 C20 1.391 . S
C19 C24 1.391 . S
C19 H49 0.948 . S
C20 C19 1.391 . S
C20 C21 1.391 . S
C21 C20 1.391 . S
C21 C22 1.392 . S
C21 H50 0.947 1_554 S
C22 C21 1.392 . S
C22 C23 1.419 . S
C22 H51 0.948 . S
C23 C22 1.419 . S
C23 C24 1.391 . S
C23 C27 1.397 . S
C24 C19 1.391 . S
C24 C23 1.391 . S
C24 C25 1.399 . S
C25 C24 1.399 . S
C25 C26 1.396 . S
C25 C28 1.453 . S
C25 C29 1.684 . S
C26 C7 1.723 . S
C26 C25 1.396 . S
C26 C27 1.394 . S
C27 C23 1.397 . S
C27 C26 1.394 . S
C27 C37 1.723 . S
C28 C25 1.453 . S
C28 H52 0.982 . S
C28 H53 0.979 . S
C28 H54 0.977 . S
C29 C25 1.684 . S
C29 H55 0.979 . S
C29 H56 0.980 . S
C29 H57 0.983 . S
C30 H6 0.948 . S
C30 C31 1.391 . S
C30 C35 1.391 . S
C31 C30 1.391 . S
C31 C32 1.391 . S
C32 H9 0.947 . S
C32 C31 1.391 . S
C32 C33 1.392 . S
C33 H10 0.948 . S
C33 C32 1.392 . S
C33 C34 1.419 . S
C34 C33 1.419 . S
C34 C35 1.391 . S
C34 C38 1.397 . S
C35 C30 1.391 . S
C35 C34 1.391 . S
C35 C36 1.399 . S
C36 C35 1.399 . S
C36 C37 1.396 . S
C36 C39 1.453 . S
C36 C40 1.684 . S
C37 C27 1.723 . S
C37 C36 1.396 . S
C37 C38 1.394 . S
C38 C8 1.723 . S
C38 C34 1.397 . S
C38 C37 1.394 . S
C39 H11 0.982 . S
C39 H15 0.979 . S
C39 H16 0.977 . S
C39 C36 1.453 . S
C40 H12 0.979 . S
C40 H13 0.980 . S
C40 H14 0.983 . S
C40 C36 1.684 . S
H41 C59 0.948 . S
H42 C0 0.948 . S
H43 C18 0.979 . S
H44 C18 0.980 . S
H45 C18 0.983 . S
H46 C17 0.982 . S
H47 C17 0.979 . S
H48 C17 0.977 . S
H49 C19 0.948 . S
H50 C21 0.947 1_556 S
H51 C22 0.948 . S
H52 C28 0.982 . S
H53 C28 0.979 . S
H54 C28 0.977 . S
H55 C29 0.979 . S
H56 C29 0.980 . S
H57 C29 0.983 . S
H58 C2 0.947 . S
C59 C2 1.392 . S
C59 C3 1.419 . S
C59 H41 0.948 . S
C60 C61 1.391 . S
C60 C64 1.391 . S
C60 H102 0.948 . S
C61 C60 1.391 . S
C61 C62 1.391 . S
C62 C61 1.391 . S
C62 H118 0.947 . S
C62 C119 1.392 . S
C63 C64 1.391 . S
C63 C67 1.397 . S
C63 C119 1.419 . S
C64 C60 1.391 . S
C64 C63 1.391 . S
C64 C65 1.399 . S
C65 C64 1.399 . S
C65 C68 1.396 . S
C65 C77 1.453 . S
C65 C78 1.684 . S
H66 C90 0.948 . S
C67 C63 1.397 . S
C67 C68 1.394 . S
C67 C86 1.723 . S
C68 C65 1.396 . S
C68 C67 1.394 . S
C68 C98 1.723 . S
H69 C92 0.947 . S
H70 C93 0.948 . S
H71 C99 0.982 1_455 S
H72 C100 0.979 . S
H73 C100 0.980 . S
H74 C100 0.983 . S
H75 C99 0.979 . S
H76 C99 0.977 . S
C77 C65 1.453 . S
C77 H106 0.982 1_655 S
C77 H107 0.979 . S
C77 H108 0.977 . S
C78 C65 1.684 . S
C78 H103 0.979 . S
C78 H104 0.980 . S
C78 H105 0.983 . S
C79 C80 1.391 . S
C79 C84 1.391 . S
C79 H109 0.948 . S
C80 C79 1.391 . S
C80 C81 1.391 . S
C81 C80 1.391 . S
C81 C82 1.392 . S
C81 H110 0.947 . S
C82 C81 1.392 . S
C82 C83 1.419 . S
C82 H111 0.948 . S
C83 C82 1.419 . S
C83 C84 1.391 . S
C83 C87 1.397 . S
C84 C79 1.391 . S
C84 C83 1.391 . S
C84 C85 1.399 . S
C85 C84 1.399 . S
C85 C86 1.396 . S
C85 C88 1.453 . S
C85 C89 1.684 . S
C86 C67 1.723 . S
C86 C85 1.396 . S
C86 C87 1.394 . S
C87 C83 1.397 . S
C87 C86 1.394 . S
C87 C97 1.723 . S
C88 C85 1.453 . S
C88 H112 0.982 1_655 S
C88 H113 0.979 . S
C88 H114 0.977 . S
C89 C85 1.684 . S
C89 H115 0.979 . S
C89 H116 0.980 . S
C89 H117 0.983 . S
C90 H66 0.948 . S
C90 C91 1.391 . S
C90 C95 1.391 . S
C91 C90 1.391 . S
C91 C92 1.391 . S
C92 H69 0.947 . S
C92 C91 1.391 . S
C92 C93 1.392 . S
C93 H70 0.948 . S
C93 C92 1.392 . S
C93 C94 1.419 . S
C94 C93 1.419 . S
C94 C95 1.391 . S
C94 C98 1.397 . S
C95 C90 1.391 . S
C95 C94 1.391 . S
C95 C96 1.399 . S
C96 C95 1.399 . S
C96 C97 1.396 . S
C96 C99 1.453 . S
C96 C100 1.684 . S
C97 C87 1.723 . S
C97 C96 1.396 . S
C97 C98 1.394 . S
C98 C68 1.723 . S
C98 C94 1.397 . S
C98 C97 1.394 . S
C99 H71 0.982 1_655 S
C99 H75 0.979 . S
C99 H76 0.977 . S
C99 C96 1.453 . S
C100 H72 0.979 . S
C100 H73 0.980 . S
C100 H74 0.983 . S
C100 C96 1.684 . S
H101 C119 0.948 . S
H102 C60 0.948 . S
H103 C78 0.979 . S
H104 C78 0.980 . S
H105 C78 0.983 . S
H106 C77 0.982 1_455 S
H107 C77 0.979 . S
H108 C77 0.977 . S
H109 C79 0.948 . S
H110 C81 0.947 . S
H111 C82 0.948 . S
H112 C88 0.982 1_455 S
H113 C88 0.979 . S
H114 C88 0.977 . S
H115 C89 0.979 . S
H116 C89 0.980 . S
H117 C89 0.983 . S
H118 C62 0.947 . S
C119 C62 1.392 . S
C119 C63 1.419 . S
C119 H101 0.948 . S
C120 C121 1.391 . S
C120 C124 1.391 . S
C120 H162 0.948 . S
C121 C120 1.391 . S
C121 C122 1.391 . S
C122 C121 1.391 . S
C122 H178 0.947 . S
C122 C179 1.392 . S
C123 C124 1.391 . S
C123 C127 1.397 . S
C123 C179 1.419 . S
C124 C120 1.391 . S
C124 C123 1.391 . S
C124 C125 1.399 . S
C125 C124 1.399 . S
C125 C128 1.396 . S
C125 C137 1.453 . S
C125 C138 1.684 . S
H126 C150 0.948 . S
C127 C123 1.397 . S
C127 C128 1.394 . S
C127 C146 1.723 . S
C128 C125 1.396 . S
C128 C127 1.394 . S
C128 C158 1.723 . S
H129 C152 0.947 . S
H130 C153 0.948 . S
H131 C159 0.982 1_545 S
H132 C160 0.979 . S
H133 C160 0.980 . S
H134 C160 0.983 . S
H135 C159 0.979 . S
H136 C159 0.977 . S
C137 C125 1.453 . S
C137 H166 0.982 1_565 S
C137 H167 0.979 . S
C137 H168 0.977 . S
C138 C125 1.684 . S
C138 H163 0.979 . S
C138 H164 0.980 . S
C138 H165 0.983 . S
C139 C140 1.391 . S
C139 C144 1.391 . S
C139 H169 0.948 . S
C140 C139 1.391 . S
C140 C141 1.391 . S
C141 C140 1.391 . S
C141 C142 1.392 . S
C141 H170 0.947 . S
C142 C141 1.392 . S
C142 C143 1.419 . S
C142 H171 0.948 . S
C143 C142 1.419 . S
C143 C144 1.391 . S
C143 C147 1.397 . S
C144 C139 1.391 . S
C144 C143 1.391 . S
C144 C145 1.399 . S
C145 C144 1.399 . S
C145 C146 1.396 . S
C145 C148 1.453 . S
C145 C149 1.684 . S
C146 C127 1.723 . S
C146 C145 1.396 . S
C146 C147 1.394 . S
C147 C143 1.397 . S
C147 C146 1.394 . S
C147 C157 1.723 . S
C148 C145 1.453 . S
C148 H172 0.982 1_565 S
C148 H173 0.979 . S
C148 H174 0.977 . S
C149 C145 1.684 . S
C149 H175 0.979 . S
C149 H176 0.980 . S
C149 H177 0.983 . S
C150 H126 0.948 . S
C150 C151 1.391 . S
C150 C155 1.391 . S
C151 C150 1.391 . S
C151 C152 1.391 . S
C152 H129 0.947 . S
C152 C151 1.391 . S
C152 C153 1.392 . S
C153 H130 0.948 . S
C153 C152 1.392 . S
C153 C154 1.419 . S
C154 C153 1.419 . S
C154 C155 1.391 . S
C154 C158 1.397 . S
C155 C150 1.391 . S
C155 C154 1.391 . S
C155 C156 1.399 . S
C156 C155 1.399 . S
C156 C157 1.396 . S
C156 C159 1.453 . S
C156 C160 1.684 . S
C157 C147 1.723 . S
C157 C156 1.396 . S
C157 C158 1.394 . S
C158 C128 1.723 . S
C158 C154 1.397 . S
C158 C157 1.394 . S
C159 H131 0.982 1_565 S
C159 H135 0.979 . S
C159 H136 0.977 . S
C159 C156 1.453 . S
C160 H132 0.979 . S
C160 H133 0.980 . S
C160 H134 0.983 . S
C160 C156 1.684 . S
H161 C179 0.948 . S
H162 C120 0.948 . S
H163 C138 0.979 . S
H164 C138 0.980 . S
H165 C138 0.983 . S
H166 C137 0.982 1_545 S
H167 C137 0.979 . S
H168 C137 0.977 . S
H169 C139 0.948 . S
H170 C141 0.947 . S
H171 C142 0.948 . S
H172 C148 0.982 1_545 S
H173 C148 0.979 . S
H174 C148 0.977 . S
H175 C149 0.979 . S
H176 C149 0.980 . S
H177 C149 0.983 . S
H178 C122 0.947 . S
C179 C122 1.392 . S
C179 C123 1.419 . S
C179 H161 0.948 . S
C180 C181 1.391 . S
C180 C184 1.391 . S
C180 H222 0.948 . S
C181 C180 1.391 . S
C181 C182 1.391 . S
C182 C181 1.391 . S
C182 H238 0.947 . S
C182 C239 1.392 . S
C183 C184 1.391 . S
C183 C187 1.397 . S
C183 C239 1.419 . S
C184 C180 1.391 . S
C184 C183 1.391 . S
C184 C185 1.399 . S
C185 C184 1.399 . S
C185 C188 1.396 . S
C185 C197 1.453 . S
C185 C198 1.684 . S
H186 C210 0.948 . S
C187 C183 1.397 . S
C187 C188 1.394 . S
C187 C206 1.723 . S
C188 C185 1.396 . S
C188 C187 1.394 . S
C188 C218 1.723 . S
H189 C212 0.947 . S
H190 C213 0.948 . S
H191 C219 0.982 . S
H192 C220 0.979 . S
H193 C220 0.980 . S
H194 C220 0.983 . S
H195 C219 0.979 . S
H196 C219 0.977 . S
C197 C185 1.453 . S
C197 H226 0.982 . S
C197 H227 0.979 . S
C197 H228 0.977 . S
C198 C185 1.684 . S
C198 H223 0.979 . S
C198 H224 0.980 . S
C198 H225 0.983 . S
C199 C200 1.391 . S
C199 C204 1.391 . S
C199 H229 0.948 . S
C200 C199 1.391 . S
C200 C201 1.391 . S
C201 C200 1.391 . S
C201 C202 1.392 . S
C201 H230 0.947 1_554 S
C202 C201 1.392 . S
C202 C203 1.419 . S
C202 H231 0.948 . S
C203 C202 1.419 . S
C203 C204 1.391 . S
C203 C207 1.397 . S
C204 C199 1.391 . S
C204 C203 1.391 . S
C204 C205 1.399 . S
C205 C204 1.399 . S
C205 C206 1.396 . S
C205 C208 1.453 . S
C205 C209 1.684 . S
C206 C187 1.723 . S
C206 C205 1.396 . S
C206 C207 1.394 . S
C207 C203 1.397 . S
C207 C206 1.394 . S
C207 C217 1.723 . S
C208 C205 1.453 . S
C208 H232 0.982 . S
C208 H233 0.979 . S
C208 H234 0.977 . S
C209 C205 1.684 . S
C209 H235 0.979 . S
C209 H236 0.980 . S
C209 H237 0.983 . S
C210 H186 0.948 . S
C210 C211 1.391 . S
C210 C215 1.391 . S
C211 C210 1.391 . S
C211 C212 1.391 . S
C212 H189 0.947 . S
C212 C211 1.391 . S
C212 C213 1.392 . S
C213 H190 0.948 . S
C213 C212 1.392 . S
C213 C214 1.419 . S
C214 C213 1.419 . S
C214 C215 1.391 . S
C214 C218 1.397 . S
C215 C210 1.391 . S
C215 C214 1.391 . S
C215 C216 1.399 . S
C216 C215 1.399 . S
C216 C217 1.396 . S
C216 C219 1.453 . S
C216 C220 1.684 . S
C217 C207 1.723 . S
C217 C216 1.396 . S
C217 C218 1.394 . S
C218 C188 1.723 . S
C218 C214 1.397 . S
C218 C217 1.394 . S
C219 H191 0.982 . S
C219 H195 0.979 . S
C219 H196 0.977 . S
C219 C216 1.453 . S
C220 H192 0.979 . S
C220 H193 0.980 . S
C220 H194 0.983 . S
C220 C216 1.684 . S
H221 C239 0.948 . S
H222 C180 0.948 . S
H223 C198 0.979 . S
H224 C198 0.980 . S
H225 C198 0.983 . S
H226 C197 0.982 . S
H227 C197 0.979 . S
H228 C197 0.977 . S
H229 C199 0.948 . S
H230 C201 0.947 1_556 S
H231 C202 0.948 . S
H232 C208 0.982 . S
H233 C208 0.979 . S
H234 C208 0.977 . S
H235 C209 0.979 . S
H236 C209 0.980 . S
H237 C209 0.983 . S
H238 C182 0.947 . S
C239 C182 1.392 . S
C239 C183 1.419 . S
C239 H221 0.948 . S
C240 C241 1.391 . S
C240 C244 1.391 . S
C240 H282 0.948 . S
C241 C240 1.391 . S
C241 C242 1.391 . S
C242 C241 1.391 . S
C242 H298 0.947 . S
C242 C299 1.392 . S
C243 C244 1.391 . S
C243 C247 1.397 . S
C243 C299 1.419 . S
C244 C240 1.391 . S
C244 C243 1.391 . S
C244 C245 1.399 1_554 S
C245 C244 1.399 1_556 S
C245 C248 1.396 . S
C245 C257 1.453 . S
C245 C258 1.684 . S
H246 C270 0.948 . S
C247 C243 1.397 . S
C247 C248 1.394 1_554 S
C247 C266 1.723 . S
C248 C245 1.396 . S
C248 C247 1.394 1_556 S
C248 C278 1.723 . S
H249 C272 0.947 . S
H250 C273 0.948 . S
H251 C279 0.982 . S
H252 C280 0.979 . S
H253 C280 0.980 . S
H254 C280 0.983 . S
H255 C279 0.979 . S
H256 C279 0.977 . S
C257 C245 1.453 . S
C257 H286 0.982 . S
C257 H287 0.979 . S
C257 H288 0.977 . S
C258 C245 1.684 . S
C258 H283 0.979 . S
C258 H284 0.980 . S
C258 H285 0.983 . S
C259 C260 1.391 . S
C259 C264 1.391 . S
C259 H289 0.948 . S
C260 C259 1.391 . S
C260 C261 1.391 . S
C261 C260 1.391 . S
C261 C262 1.392 . S
C261 H290 0.947 . S
C262 C261 1.392 . S
C262 C263 1.419 . S
C262 H291 0.948 . S
C263 C262 1.419 . S
C263 C264 1.391 . S
C263 C267 1.397 . S
C264 C259 1.391 . S
C264 C263 1.391 . S
C264 C265 1.399 . S
C265 C264 1.399 . S
C265 C266 1.396 . S
C265 C268 1.453 . S
C265 C269 1.684 . S
C266 C247 1.723 . S
C266 C265 1.396 . S
C266 C267 1.394 . S
C267 C263 1.397 . S
C267 C266 1.394 . S
C267 C277 1.723 1_554 S
C268 C265 1.453 . S
C268 H292 0.982 . S
C268 H293 0.979 . S
C268 H294 0.977 . S
C269 C265 1.684 . S
C269 H295 0.979 . S
C269 H296 0.980 . S
C269 H297 0.983 . S
C270 H246 0.948 . S
C270 C271 1.391 . S
C270 C275 1.391 . S
C271 C270 1.391 . S
C271 C272 1.391 . S
C272 H249 0.947 . S
C272 C271 1.391 . S
C272 C273 1.392 . S
C273 H250 0.948 . S
C273 C272 1.392 . S
C273 C274 1.419 . S
C274 C273 1.419 . S
C274 C275 1.391 . S
C274 C278 1.397 . S
C275 C270 1.391 . S
C275 C274 1.391 . S
C275 C276 1.399 . S
C276 C275 1.399 . S
C276 C277 1.396 . S
C276 C279 1.453 . S
C276 C280 1.684 . S
C277 C267 1.723 1_556 S
C277 C276 1.396 . S
C277 C278 1.394 . S
C278 C248 1.723 . S
C278 C274 1.397 . S
C278 C277 1.394 . S
C279 H251 0.982 . S
C279 H255 0.979 . S
C279 H256 0.977 . S
C279 C276 1.453 . S
C280 H252 0.979 . S
C280 H253 0.980 . S
C280 H254 0.983 . S
C280 C276 1.684 . S
H281 C299 0.948 . S
H282 C240 0.948 . S
H283 C258 0.979 . S
H284 C258 0.980 . S
H285 C258 0.983 . S
H286 C257 0.982 . S
H287 C257 0.979 . S
H288 C257 0.977 . S
H289 C259 0.948 . S
H290 C261 0.947 . S
H291 C262 0.948 . S
H292 C268 0.982 . S
H293 C268 0.979 . S
H294 C268 0.977 . S
H295 C269 0.979 . S
H296 C269 0.980 . S
H297 C269 0.983 . S
H298 C242 0.947 . S
C299 C242 1.392 . S
C299 C243 1.419 . S
C299 H281 0.948 . S
C300 C301 1.391 . S
C300 C304 1.391 . S
C300 H342 0.948 . S
C301 C300 1.391 . S
C301 C302 1.391 . S
C302 C301 1.391 . S
C302 H358 0.947 . S
C302 C359 1.392 . S
C303 C304 1.391 . S
C303 C307 1.397 . S
C303 C359 1.419 . S
C304 C300 1.391 . S
C304 C303 1.391 . S
C304 C305 1.399 . S
C305 C304 1.399 . S
C305 C308 1.396 . S
C305 C317 1.453 . S
C305 C318 1.684 . S
H306 C330 0.948 . S
C307 C303 1.397 . S
C307 C308 1.394 . S
C307 C326 1.723 1_554 S
C308 C305 1.396 . S
C308 C307 1.394 . S
C308 C338 1.723 . S
H309 C332 0.947 . S
H310 C333 0.948 . S
H311 C339 0.982 . S
H312 C340 0.979 1_655 S
H313 C340 0.980 . S
H314 C340 0.983 . S
H315 C339 0.979 . S
H316 C339 0.977 . S
C317 C305 1.453 . S
C317 H346 0.982 . S
C317 H347 0.979 . S
C317 H348 0.977 . S
C318 C305 1.684 . S
C318 H343 0.979 1_455 S
C318 H344 0.980 . S
C318 H345 0.983 . S
C319 C320 1.391 . S
C319 C324 1.391 . S
C319 H349 0.948 . S
C320 C319 1.391 . S
C320 C321 1.391 . S
C321 C320 1.391 . S
C321 C322 1.392 . S
C321 H350 0.947 . S
C322 C321 1.392 . S
C322 C323 1.419 . S
C322 H351 0.948 . S
C323 C322 1.419 . S
C323 C324 1.391 . S
C323 C327 1.397 . S
C324 C319 1.391 . S
C324 C323 1.391 . S
C324 C325 1.399 . S
C325 C324 1.399 . S
C325 C326 1.396 . S
C325 C328 1.453 . S
C325 C329 1.684 . S
C326 C307 1.723 1_556 S
C326 C325 1.396 . S
C326 C327 1.394 . S
C327 C323 1.397 . S
C327 C326 1.394 . S
C327 C337 1.723 . S
C328 C325 1.453 . S
C328 H352 0.982 . S
C328 H353 0.979 . S
C328 H354 0.972 1_556 S
C329 C325 1.684 . S
C329 H355 0.979 1_455 S
C329 H356 0.980 . S
C329 H357 0.983 . S
C330 H306 0.948 . S
C330 C331 1.391 . S
C330 C335 1.391 . S
C331 C330 1.391 . S
C331 C332 1.391 . S
C332 H309 0.947 . S
C332 C331 1.391 . S
C332 C333 1.392 . S
C333 H310 0.948 . S
C333 C332 1.392 . S
C333 C334 1.419 . S
C334 C333 1.419 . S
C334 C335 1.391 . S
C334 C338 1.397 . S
C335 C330 1.391 . S
C335 C334 1.391 . S
C335 C336 1.399 1_554 S
C336 C335 1.399 1_556 S
C336 C337 1.396 . S
C336 C339 1.453 . S
C336 C340 1.684 . S
C337 C327 1.723 . S
C337 C336 1.396 . S
C337 C338 1.394 1_556 S
C338 C308 1.723 . S
C338 C334 1.397 . S
C338 C337 1.394 1_554 S
C339 H311 0.982 . S
C339 H315 0.979 . S
C339 H316 0.977 . S
C339 C336 1.453 . S
C340 H312 0.979 1_455 S
C340 H313 0.980 . S
C340 H314 0.983 . S
C340 C336 1.684 . S
H341 C359 0.948 . S
H342 C300 0.948 . S
H343 C318 0.979 1_655 S
H344 C318 0.980 . S
H345 C318 0.983 . S
H346 C317 0.982 . S
H347 C317 0.979 . S
H348 C317 0.977 . S
H349 C319 0.948 . S
H350 C321 0.947 . S
H351 C322 0.948 . S
H352 C328 0.982 . S
H353 C328 0.979 . S
H354 C328 0.972 1_554 S
H355 C329 0.979 1_655 S
H356 C329 0.980 . S
H357 C329 0.983 . S
H358 C302 0.947 . S
C359 C302 1.392 . S
C359 C303 1.419 . S
C359 H341 0.948 . S
C360 C361 1.391 . S
C360 C364 1.391 . S
C360 H402 0.948 . S
C361 C360 1.391 . S
C361 C362 1.391 . S
C362 C361 1.391 . S
C362 H418 0.947 . S
C362 C419 1.392 . S
C363 C364 1.391 . S
C363 C367 1.397 . S
C363 C419 1.419 . S
C364 C360 1.391 . S
C364 C363 1.391 . S
C364 C365 1.399 . S
C365 C364 1.399 . S
C365 C368 1.396 . S
C365 C377 1.453 . S
C365 C378 1.684 . S
H366 C390 0.948 . S
C367 C363 1.397 . S
C367 C368 1.394 . S
C367 C386 1.723 1_556 S
C368 C365 1.396 . S
C368 C367 1.394 . S
C368 C398 1.723 1_556 S
H369 C392 0.947 1_556 S
H370 C393 0.948 . S
H371 C399 1.001 . S
H372 C400 0.979 . S
H373 C400 0.980 . S
H374 C400 0.983 . S
H375 C399 0.979 . S
H376 C399 0.977 . S
C377 C365 1.453 . S
C377 H406 1.001 . S
C377 H407 0.979 . S
C377 H408 0.977 . S
C378 C365 1.684 . S
C378 H403 0.979 . S
C378 H404 0.980 . S
C378 H405 0.983 . S
C379 C380 1.391 . S
C379 C384 1.391 . S
C379 H409 0.948 . S
C380 C379 1.391 . S
C380 C381 1.391 . S
C381 C380 1.391 . S
C381 C382 1.392 . S
C381 H410 0.947 . S
C382 C381 1.392 . S
C382 C383 1.419 . S
C382 H411 0.948 . S
C383 C382 1.419 . S
C383 C384 1.391 . S
C383 C387 1.397 . S
C384 C379 1.391 . S
C384 C383 1.391 . S
C384 C385 1.399 . S
C385 C384 1.399 . S
C385 C386 1.396 . S
C385 C388 1.453 . S
C385 C389 1.684 . S
C386 C367 1.723 1_554 S
C386 C385 1.396 . S
C386 C387 1.394 . S
C387 C383 1.397 . S
C387 C386 1.394 . S
C387 C397 1.723 . S
C388 C385 1.453 . S
C388 H412 1.001 . S
C388 H413 0.979 . S
C388 H414 0.977 1_554 S
C389 C385 1.684 . S
C389 H415 0.979 . S
C389 H416 0.980 1_554 S
C389 H417 0.983 . S
C390 H366 0.948 . S
C390 C391 1.391 . S
C390 C395 1.391 . S
C391 C390 1.391 . S
C391 C392 1.391 . S
C392 H369 0.947 1_554 S
C392 C391 1.391 . S
C392 C393 1.392 1_554 S
C393 H370 0.948 . S
C393 C392 1.392 1_556 S
C393 C394 1.419 1_556 S
C394 C393 1.419 1_554 S
C394 C395 1.391 . S
C394 C398 1.397 . S
C395 C390 1.391 . S
C395 C394 1.391 . S
C395 C396 1.399 . S
C396 C395 1.399 . S
C396 C397 1.396 . S
C396 C399 1.453 . S
C396 C400 1.684 . S
C397 C387 1.723 . S
C397 C396 1.396 . S
C397 C398 1.394 . S
C398 C368 1.723 1_554 S
C398 C394 1.397 . S
C398 C397 1.394 . S
C399 H371 1.001 . S
C399 H375 0.979 . S
C399 H376 0.977 . S
C399 C396 1.453 . S
C400 H372 0.979 . S
C400 H373 0.980 . S
C400 H374 0.983 . S
C400 C396 1.684 . S
H401 C419 0.948 . S
H402 C360 0.948 . S
H403 C378 0.979 . S
H404 C378 0.980 . S
H405 C378 0.983 . S
H406 C377 1.001 . S
H407 C377 0.979 . S
H408 C377 0.977 . S
H409 C379 0.948 . S
H410 C381 0.947 . S
H411 C382 0.948 . S
H412 C388 1.001 . S
H413 C388 0.979 . S
H414 C388 0.977 1_556 S
H415 C389 0.979 . S
H416 C389 0.980 1_556 S
H417 C389 0.983 . S
H418 C362 0.947 . S
C419 C362 1.392 . S
C419 C363 1.419 . S
C419 H401 0.948 . S
C420 C421 1.391 . S
C420 C424 1.391 . S
C420 H462 0.948 . S
C421 C420 1.391 . S
C421 C422 1.391 . S
C422 C421 1.391 . S
C422 H478 0.947 . S
C422 C479 1.392 . S
C423 C424 1.391 . S
C423 C427 1.397 . S
C423 C479 1.419 . S
C424 C420 1.391 . S
C424 C423 1.391 . S
C424 C425 1.399 . S
C425 C424 1.399 . S
C425 C428 1.396 . S
C425 C437 1.453 . S
C425 C438 1.684 . S
H426 C450 0.948 . S
C427 C423 1.397 . S
C427 C428 1.394 . S
C427 C446 1.723 1_556 S
C428 C425 1.396 . S
C428 C427 1.394 . S
C428 C458 1.723 1_556 S
H429 C452 0.947 1_556 S
H430 C453 0.948 . S
H431 C459 0.982 . S
H432 C460 0.979 . S
H433 C460 0.980 . S
H434 C460 0.983 . S
H435 C459 0.979 . S
H436 C459 0.977 . S
C437 C425 1.453 . S
C437 H466 0.982 . S
C437 H467 0.979 . S
C437 H468 0.977 . S
C438 C425 1.684 . S
C438 H463 0.979 . S
C438 H464 0.980 . S
C438 H465 0.983 . S
C439 C440 1.391 . S
C439 C444 1.391 . S
C439 H469 0.948 . S
C440 C439 1.391 . S
C440 C441 1.391 . S
C441 C440 1.391 . S
C441 C442 1.392 . S
C441 H470 0.947 . S
C442 C441 1.392 . S
C442 C443 1.419 . S
C442 H471 0.948 . S
C443 C442 1.419 . S
C443 C444 1.391 . S
C443 C447 1.397 . S
C444 C439 1.391 . S
C444 C443 1.391 . S
C444 C445 1.399 . S
C445 C444 1.399 . S
C445 C446 1.396 . S
C445 C448 1.453 . S
C445 C449 1.684 . S
C446 C427 1.723 1_554 S
C446 C445 1.396 . S
C446 C447 1.394 . S
C447 C443 1.397 . S
C447 C446 1.394 . S
C447 C457 1.723 . S
C448 C445 1.453 . S
C448 H472 0.982 . S
C448 H473 0.979 . S
C448 H474 0.977 1_554 S
C449 C445 1.684 . S
C449 H475 0.979 . S
C449 H476 0.980 1_554 S
C449 H477 0.983 . S
C450 H426 0.948 . S
C450 C451 1.391 . S
C450 C455 1.391 . S
C451 C450 1.391 . S
C451 C452 1.391 . S
C452 H429 0.947 1_554 S
C452 C451 1.391 . S
C452 C453 1.392 1_554 S
C453 H430 0.948 . S
C453 C452 1.392 1_556 S
C453 C454 1.419 1_556 S
C454 C453 1.419 1_554 S
C454 C455 1.391 . S
C454 C458 1.397 . S
C455 C450 1.391 . S
C455 C454 1.391 . S
C455 C456 1.399 . S
C456 C455 1.399 . S
C456 C457 1.396 . S
C456 C459 1.453 . S
C456 C460 1.684 . S
C457 C447 1.723 . S
C457 C456 1.396 . S
C457 C458 1.394 . S
C458 C428 1.723 1_554 S
C458 C454 1.397 . S
C458 C457 1.394 . S
C459 H431 0.982 . S
C459 H435 0.979 . S
C459 H436 0.977 . S
C459 C456 1.453 . S
C460 H432 0.979 . S
C460 H433 0.980 . S
C460 H434 0.983 . S
C460 C456 1.684 . S
H461 C479 0.948 . S
H462 C420 0.948 . S
H463 C438 0.979 . S
H464 C438 0.980 . S
H465 C438 0.983 . S
H466 C437 0.982 . S
H467 C437 0.979 . S
H468 C437 0.977 . S
H469 C439 0.948 . S
H470 C441 0.947 . S
H471 C442 0.948 . S
H472 C448 0.982 . S
H473 C448 0.979 . S
H474 C448 0.977 1_556 S
H475 C449 0.979 . S
H476 C449 0.980 1_556 S
H477 C449 0.983 . S
H478 C422 0.947 . S
C479 C422 1.392 . S
C479 C423 1.419 . S
C479 H461 0.948 . S
Eu480 N509 2.600 . S
Eu480 N515 2.562 . S
Eu480 O524 2.462 . S
Eu480 O525 2.373 1_545 S
Eu480 O527 2.432 . S
Eu480 O528 2.291 1_655 S
Eu480 O532 2.335 1_655 S
Eu480 O535 2.372 . S
Eu480 C544 2.787 . S
C481 N482 1.382 . S
C481 C484 1.405 . S
C481 C488 1.448 . S
N482 C481 1.382 . S
N482 C485 1.315 1_545 S
N482 Eu491 2.592 1_545 S
C483 C485 1.397 1_545 S
C483 C486 1.367 . S
C483 H503 0.931 . S
C484 C481 1.405 . S
C484 C486 1.403 . S
C484 C490 1.439 . S
C485 N482 1.315 1_565 S
C485 C483 1.397 1_565 S
C485 H496 0.930 . S
C486 C483 1.367 . S
C486 C484 1.403 . S
C486 H507 0.929 . S
C487 C488 1.430 . S
C487 C489 1.387 1_556 S
C487 C493 1.404 1_556 S
C488 C481 1.448 . S
C488 C487 1.430 . S
C488 N492 1.351 . S
C489 C487 1.387 1_554 S
C489 C490 1.374 1_554 S
C489 H504 0.931 . S
C490 C484 1.439 . S
C490 C489 1.374 1_556 S
C490 H505 0.931 . S
Eu491 N482 2.592 1_565 S
Eu491 N492 2.562 1_565 S
Eu491 O526 2.335 . S
Eu491 O529 2.372 . S
Eu491 O530 2.462 . S
Eu491 O531 2.373 1_565 S
Eu491 O533 2.432 . S
Eu491 O534 2.289 1_465 S
Eu491 C555 2.787 . S
N492 C488 1.351 . S
N492 Eu491 2.562 1_545 S
N492 C494 1.325 . S
C493 C487 1.404 1_554 S
C493 C495 1.366 . S
C493 H501 0.930 . S
C494 N492 1.325 . S
C494 C495 1.416 1_556 S
C494 H500 0.929 . S
C495 C493 1.366 . S
C495 C494 1.416 1_554 S
C495 H497 0.930 . S
H496 C485 0.930 . S
H497 C495 0.930 . S
H498 C513 0.930 . S
H499 C520 0.930 1_455 S
H500 C494 0.929 . S
H501 C493 0.930 . S
H502 C516 0.929 1_455 S
H503 C483 0.931 . S
H504 C489 0.931 . S
H505 C490 0.931 . S
H506 C511 0.931 . S
H507 C486 0.929 . S
H508 C519 0.930 . S
N509 Eu480 2.600 . S
N509 C510 1.352 1_545 S
N509 C513 1.319 . S
C510 N509 1.352 1_565 S
C510 C512 1.416 . S
C510 C518 1.451 . S
C511 H506 0.931 . S
C511 C513 1.397 . S
C511 C514 1.367 1_545 S
C512 C510 1.416 . S
C512 C514 1.403 . S
C512 C545 1.439 . S
C513 H498 0.930 . S
C513 N509 1.319 . S
C513 C511 1.397 . S
C514 C511 1.367 1_565 S
C514 C512 1.403 . S
C514 H521 0.929 . S
N515 Eu480 2.562 . S
N515 C516 1.325 . S
N515 C518 1.351 1_545 S
C516 H502 0.929 1_655 S
C516 N515 1.325 . S
C516 C520 1.416 1_545 S
C517 C518 1.430 . S
C517 C519 1.404 . S
C517 C546 1.387 . S
C518 C510 1.451 . S
C518 N515 1.351 1_565 S
C518 C517 1.430 . S
C519 H508 0.930 . S
C519 C517 1.404 . S
C519 C520 1.366 . S
C520 H499 0.930 1_655 S
C520 C516 1.416 1_565 S
C520 C519 1.366 . S
H521 C514 0.929 . S
H522 C545 0.931 . S
H523 C546 0.931 . S
O524 Eu480 2.462 . S
O524 C544 1.252 . S
O525 Eu480 2.373 1_565 S
O525 C536 1.249 . S
O526 Eu491 2.335 . S
O526 C536 1.264 1_455 S
O527 Eu480 2.432 . S
O527 C544 1.268 . S
O528 Eu480 2.291 1_455 S
O528 C543 1.255 . S
O529 Eu491 2.372 . S
O529 C543 1.257 1_565 S
O530 Eu491 2.462 . S
O530 C555 1.252 . S
O531 Eu491 2.373 1_545 S
O531 C547 1.249 . S
O532 Eu480 2.335 1_455 S
O532 C547 1.264 . S
O533 Eu491 2.432 . S
O533 C555 1.268 . S
O534 Eu491 2.289 1_645 S
O534 C554 1.257 . S
O535 Eu480 2.372 . S
O535 C554 1.257 . S
C536 O525 1.249 . S
C536 O526 1.264 1_655 S
C537 C540 1.382 . S
C537 C542 1.390 . S
C537 C544 1.506 . S
C538 C539 1.398 . S
C538 C542 1.392 . S
C539 C538 1.398 . S
C539 C541 1.372 . S
C539 H556 0.931 . S
C540 C537 1.382 . S
C540 C541 1.390 . S
C540 H557 0.931 . S
C541 C539 1.372 . S
C541 C540 1.390 . S
C541 H558 0.929 . S
C542 C537 1.390 . S
C542 C538 1.392 . S
C542 H559 0.930 1_655 S
C543 O528 1.255 . S
C543 O529 1.257 1_545 S
C544 Eu480 2.787 . S
C544 O524 1.252 . S
C544 O527 1.268 . S
C544 C537 1.506 . S
C545 C512 1.439 . S
C545 H522 0.931 . S
C545 C546 1.374 . S
C546 C517 1.387 . S
C546 H523 0.931 . S
C546 C545 1.374 . S
C547 O531 1.249 . S
C547 O532 1.264 . S
C548 C551 1.382 . S
C548 C552 1.390 . S
C548 C555 1.506 . S
C549 C550 1.398 . S
C549 C552 1.392 . S
C550 C549 1.398 . S
C550 C553 1.372 . S
C550 H560 0.931 . S
C551 C548 1.382 . S
C551 C553 1.390 . S
C551 H561 0.931 . S
C552 C548 1.390 . S
C552 C549 1.392 . S
C552 H562 0.930 . S
C553 C550 1.372 . S
C553 C551 1.390 . S
C553 H563 0.929 . S
C554 O534 1.257 . S
C554 O535 1.257 . S
C555 Eu491 2.787 . S
C555 O530 1.252 . S
C555 O533 1.268 . S
C555 C548 1.506 . S
H556 C539 0.931 . S
H557 C540 0.931 . S
H558 C541 0.929 . S
H559 C542 0.930 1_455 S
H560 C550 0.931 . S
H561 C551 0.931 . S
H562 C552 0.930 . S
H563 C553 0.929 . S
Eu564 N593 2.600 . S
Eu564 N599 2.562 . S
Eu564 O608 2.462 . S
Eu564 O609 2.373 . S
Eu564 O611 2.432 . S
Eu564 O612 2.291 . S
Eu564 O616 2.335 1_545 S
Eu564 O619 2.372 . S
Eu564 C628 2.787 . S
C565 N566 1.365 . S
C565 C568 1.405 . S
C565 C572 1.448 . S
N566 C565 1.365 . S
N566 C569 1.319 . S
N566 Eu575 2.600 . S
C567 C569 1.397 . S
C567 C570 1.367 . S
C567 H587 0.931 . S
C568 C565 1.405 . S
C568 C570 1.403 . S
C568 C574 1.439 . S
C569 N566 1.319 . S
C569 C567 1.397 . S
C569 H580 0.930 . S
C570 C567 1.367 . S
C570 C568 1.403 . S
C570 H591 0.929 . S
C571 C572 1.430 . S
C571 C573 1.387 . S
C571 C577 1.404 . S
C572 C565 1.448 . S
C572 C571 1.430 . S
C572 N576 1.351 . S
C573 C571 1.387 . S
C573 C574 1.374 . S
C573 H588 0.931 . S
C574 C568 1.439 . S
C574 C573 1.374 . S
C574 H589 0.931 . S
Eu575 N566 2.600 . S
Eu575 N576 2.562 . S
Eu575 O610 2.335 1_565 S
Eu575 O613 2.372 . S
Eu575 O614 2.462 . S
Eu575 O615 2.373 . S
Eu575 O617 2.432 . S
Eu575 O618 2.278 1_565 S
Eu575 C639 2.787 . S
N576 C572 1.351 . S
N576 Eu575 2.562 . S
N576 C578 1.325 . S
C577 C571 1.404 . S
C577 C579 1.366 . S
C577 H585 0.930 . S
C578 N576 1.325 . S
C578 C579 1.416 . S
C578 H584 0.929 . S
C579 C577 1.366 . S
C579 C578 1.416 . S
C579 H581 0.930 . S
H580 C569 0.930 . S
H581 C579 0.930 . S
H582 C597 0.930 . S
H583 C604 0.930 . S
H584 C578 0.929 . S
H585 C577 0.930 . S
H586 C600 0.929 . S
H587 C567 0.931 . S
H588 C573 0.931 . S
H589 C574 0.931 . S
H590 C595 0.931 . S
H591 C570 0.929 . S
H592 C603 0.930 . S
N593 Eu564 2.600 . S
N593 C594 1.365 . S
N593 C597 1.319 . S
C594 N593 1.365 . S
C594 C596 1.405 . S
C594 C602 1.448 . S
C595 H590 0.931 . S
C595 C597 1.397 . S
C595 C598 1.367 . S
C596 C594 1.405 . S
C596 C598 1.403 . S
C596 C629 1.439 . S
C597 H582 0.930 . S
C597 N593 1.319 . S
C597 C595 1.397 . S
C598 C595 1.367 . S
C598 C596 1.403 . S
C598 H605 0.929 . S
N599 Eu564 2.562 . S
N599 C600 1.325 . S
N599 C602 1.351 . S
C600 H586 0.929 . S
C600 N599 1.325 . S
C600 C604 1.416 . S
C601 C602 1.430 . S
C601 C603 1.404 . S
C601 C630 1.387 . S
C602 C594 1.448 . S
C602 N599 1.351 . S
C602 C601 1.430 . S
C603 H592 0.930 . S
C603 C601 1.404 . S
C603 C604 1.366 . S
C604 H583 0.930 . S
C604 C600 1.416 . S
C604 C603 1.366 . S
H605 C598 0.929 . S
H606 C629 0.931 . S
H607 C630 0.931 . S
O608 Eu564 2.462 . S
O608 C628 1.252 . S
O609 Eu564 2.373 . S
O609 C620 1.249 . S
O610 Eu575 2.335 1_545 S
O610 C620 1.264 . S
O611 Eu564 2.432 . S
O611 C628 1.268 . S
O612 Eu564 2.291 . S
O612 C627 1.255 1_545 S
O613 Eu575 2.372 . S
O613 C627 1.257 . S
O614 Eu575 2.462 . S
O614 C639 1.252 . S
O615 Eu575 2.373 . S
O615 C631 1.249 . S
O616 Eu564 2.335 1_565 S
O616 C631 1.264 . S
O617 Eu575 2.432 . S
O617 C639 1.268 . S
O618 Eu575 2.278 1_545 S
O618 C638 1.275 . S
O619 Eu564 2.372 . S
O619 C638 1.257 . S
C620 O609 1.249 . S
C620 O610 1.264 . S
C621 C624 1.382 1_556 S
C621 C626 1.390 . S
C621 C628 1.506 . S
C622 C623 1.398 1_556 S
C622 C626 1.392 . S
C623 C622 1.398 1_554 S
C623 C625 1.372 . S
C623 H640 0.931 . S
C624 C621 1.382 1_554 S
C624 C625 1.390 . S
C624 H641 0.931 . S
C625 C623 1.372 . S
C625 C624 1.390 . S
C625 H642 0.929 . S
C626 C621 1.390 . S
C626 C622 1.392 . S
C626 H643 0.930 . S
C627 O612 1.255 1_565 S
C627 O613 1.257 . S
C628 Eu564 2.787 . S
C628 O608 1.252 . S
C628 O611 1.268 . S
C628 C621 1.506 . S
C629 C596 1.439 . S
C629 H606 0.931 . S
C629 C630 1.374 . S
C630 C601 1.387 . S
C630 H607 0.931 . S
C630 C629 1.374 . S
C631 O615 1.249 . S
C631 O616 1.264 . S
C632 C635 1.382 . S
C632 C636 1.390 . S
C632 C639 1.506 . S
C633 C634 1.398 . S
C633 C636 1.392 . S
C634 C633 1.398 . S
C634 C637 1.372 . S
C634 H644 0.931 . S
C635 C632 1.382 . S
C635 C637 1.390 . S
C635 H645 0.931 . S
C636 C632 1.390 . S
C636 C633 1.392 . S
C636 H646 0.930 . S
C637 C634 1.372 . S
C637 C635 1.390 . S
C637 H647 0.929 . S
C638 O618 1.275 . S
C638 O619 1.257 . S
C639 Eu575 2.787 . S
C639 O614 1.252 . S
C639 O617 1.268 . S
C639 C632 1.506 . S
H640 C623 0.931 . S
H641 C624 0.931 . S
H642 C625 0.929 . S
H643 C626 0.930 . S
H644 C634 0.931 . S
H645 C635 0.931 . S
H646 C636 0.930 . S
H647 C637 0.929 . S
Eu648 N677 2.600 . S
Eu648 N683 2.562 . S
Eu648 O692 2.462 . S
Eu648 O693 2.373 . S
Eu648 O695 2.432 . S
Eu648 O696 2.291 . S
Eu648 O700 2.335 . S
Eu648 O703 2.372 . S
Eu648 C712 2.787 . S
C649 N650 1.365 . S
C649 C652 1.405 . S
C649 C656 1.448 . S
N650 C649 1.365 . S
N650 C653 1.319 . S
N650 Eu659 2.600 . S
C651 C653 1.397 . S
C651 C654 1.367 . S
C651 H671 0.931 . S
C652 C649 1.405 . S
C652 C654 1.403 . S
C652 C658 1.439 . S
C653 N650 1.319 . S
C653 C651 1.397 . S
C653 H664 0.930 . S
C654 C651 1.367 . S
C654 C652 1.403 . S
C654 H675 0.929 . S
C655 C656 1.430 . S
C655 C657 1.387 1_556 S
C655 C661 1.404 1_556 S
C656 C649 1.448 . S
C656 C655 1.430 . S
C656 N660 1.351 . S
C657 C655 1.387 1_554 S
C657 C658 1.374 1_554 S
C657 H672 0.931 . S
C658 C652 1.439 . S
C658 C657 1.374 1_556 S
C658 H673 0.931 . S
Eu659 N650 2.600 . S
Eu659 N660 2.562 . S
Eu659 O694 2.335 . S
Eu659 O697 2.372 . S
Eu659 O698 2.462 . S
Eu659 O699 2.373 . S
Eu659 O701 2.432 . S
Eu659 O702 2.291 . S
Eu659 C723 2.787 . S
N660 C656 1.351 . S
N660 Eu659 2.562 . S
N660 C662 1.325 . S
C661 C655 1.404 1_554 S
C661 C663 1.366 . S
C661 H669 0.930 . S
C662 N660 1.325 . S
C662 C663 1.416 1_556 S
C662 H668 0.929 . S
C663 C661 1.366 . S
C663 C662 1.416 1_554 S
C663 H665 0.930 . S
H664 C653 0.930 . S
H665 C663 0.930 . S
H666 C681 0.930 . S
H667 C688 0.930 . S
H668 C662 0.929 . S
H669 C661 0.930 . S
H670 C684 0.929 . S
H671 C651 0.931 . S
H672 C657 0.931 . S
H673 C658 0.931 . S
H674 C679 0.931 . S
H675 C654 0.929 . S
H676 C687 0.930 . S
N677 Eu648 2.600 . S
N677 C678 1.365 . S
N677 C681 1.319 . S
C678 N677 1.365 . S
C678 C680 1.405 . S
C678 C686 1.448 . S
C679 H674 0.931 . S
C679 C681 1.397 . S
C679 C682 1.367 . S
C680 C678 1.405 . S
C680 C682 1.403 . S
C680 C713 1.439 . S
C681 H666 0.930 . S
C681 N677 1.319 . S
C681 C679 1.397 . S
C682 C679 1.367 . S
C682 C680 1.403 . S
C682 H689 0.929 . S
N683 Eu648 2.562 . S
N683 C684 1.325 . S
N683 C686 1.351 . S
C684 H670 0.929 . S
C684 N683 1.325 . S
C684 C688 1.416 . S
C685 C686 1.430 . S
C685 C687 1.404 . S
C685 C714 1.387 . S
C686 C678 1.448 . S
C686 N683 1.351 . S
C686 C685 1.430 . S
C687 H676 0.930 . S
C687 C685 1.404 . S
C687 C688 1.366 . S
C688 H667 0.930 . S
C688 C684 1.416 . S
C688 C687 1.366 . S
H689 C682 0.929 . S
H690 C713 0.931 . S
H691 C714 0.931 . S
O692 Eu648 2.462 . S
O692 C712 1.252 . S
O693 Eu648 2.373 . S
O693 C704 1.249 . S
O694 Eu659 2.335 . S
O694 C704 1.264 . S
O695 Eu648 2.432 . S
O695 C712 1.268 . S
O696 Eu648 2.291 . S
O696 C711 1.255 . S
O697 Eu659 2.372 . S
O697 C711 1.257 . S
O698 Eu659 2.462 . S
O698 C723 1.252 . S
O699 Eu659 2.373 . S
O699 C715 1.249 . S
O700 Eu648 2.335 . S
O700 C715 1.264 . S
O701 Eu659 2.432 . S
O701 C723 1.268 . S
O702 Eu659 2.291 . S
O702 C722 1.255 . S
O703 Eu648 2.372 . S
O703 C722 1.257 . S
C704 O693 1.249 . S
C704 O694 1.264 . S
C705 C708 1.382 . S
C705 C710 1.390 . S
C705 C712 1.506 . S
C706 C707 1.398 . S
C706 C710 1.392 . S
C707 C706 1.398 . S
C707 C709 1.372 . S
C707 H724 0.931 . S
C708 C705 1.382 . S
C708 C709 1.390 . S
C708 H725 0.931 . S
C709 C707 1.372 . S
C709 C708 1.390 . S
C709 H726 0.929 . S
C710 C705 1.390 . S
C710 C706 1.392 . S
C710 H727 0.930 . S
C711 O696 1.255 . S
C711 O697 1.257 . S
C712 Eu648 2.787 . S
C712 O692 1.252 . S
C712 O695 1.268 . S
C712 C705 1.506 . S
C713 C680 1.439 . S
C713 H690 0.931 . S
C713 C714 1.374 . S
C714 C685 1.387 . S
C714 H691 0.931 . S
C714 C713 1.374 . S
C715 O699 1.249 . S
C715 O700 1.264 . S
C716 C719 1.382 . S
C716 C720 1.390 . S
C716 C723 1.506 . S
C717 C718 1.398 . S
C717 C720 1.392 . S
C718 C717 1.398 . S
C718 C721 1.372 . S
C718 H728 0.931 . S
C719 C716 1.382 . S
C719 C721 1.390 . S
C719 H729 0.931 . S
C720 C716 1.390 . S
C720 C717 1.392 . S
C720 H730 0.930 . S
C721 C718 1.372 . S
C721 C719 1.390 . S
C721 H731 0.929 . S
C722 O702 1.255 . S
C722 O703 1.257 . S
C723 Eu659 2.787 . S
C723 O698 1.252 . S
C723 O701 1.268 . S
C723 C716 1.506 . S
H724 C707 0.931 . S
H725 C708 0.931 . S
H726 C709 0.929 . S
H727 C710 0.930 . S
H728 C718 0.931 . S
H729 C719 0.931 . S
H730 C720 0.930 . S
H731 C721 0.929 . S
Eu732 N761 2.600 . S
Eu732 N767 2.562 . S
Eu732 O776 2.462 . S
Eu732 O777 2.373 1_455 S
Eu732 O779 2.432 . S
Eu732 O780 2.291 . S
Eu732 O784 2.335 . S
Eu732 O787 2.372 . S
Eu732 C796 2.787 . S
C733 N734 1.365 1_455 S
C733 C736 1.405 . S
C733 C740 1.448 . S
N734 C733 1.365 1_655 S
N734 C737 1.319 . S
N734 Eu743 2.600 . S
C735 C737 1.397 1_455 S
C735 C738 1.367 . S
C735 H755 0.931 . S
C736 C733 1.405 . S
C736 C738 1.403 . S
C736 C742 1.439 . S
C737 N734 1.319 . S
C737 C735 1.397 1_655 S
C737 H748 0.930 . S
C738 C735 1.367 . S
C738 C736 1.403 . S
C738 H759 0.929 . S
C739 C740 1.430 . S
C739 C741 1.387 1_556 S
C739 C745 1.404 1_556 S
C740 C733 1.448 . S
C740 C739 1.430 . S
C740 N744 1.351 . S
C741 C739 1.387 1_554 S
C741 C742 1.374 1_554 S
C741 H756 0.931 . S
C742 C736 1.439 . S
C742 C741 1.374 1_556 S
C742 H757 0.931 . S
Eu743 N734 2.600 . S
Eu743 N744 2.562 1_655 S
Eu743 O778 2.335 . S
Eu743 O781 2.372 . S
Eu743 O782 2.462 . S
Eu743 O783 2.373 1_655 S
Eu743 O785 2.432 . S
Eu743 O786 2.291 . S
Eu743 C807 2.787 . S
N744 C740 1.351 . S
N744 Eu743 2.562 1_455 S
N744 C746 1.325 . S
C745 C739 1.404 1_554 S
C745 C747 1.366 . S
C745 H753 0.930 . S
C746 N744 1.325 . S
C746 C747 1.416 1_556 S
C746 H752 0.930 1_455 S
C747 C745 1.366 . S
C747 C746 1.416 1_554 S
C747 H749 0.930 . S
H748 C737 0.930 . S
H749 C747 0.930 . S
H750 C765 0.930 . S
H751 C772 0.930 . S
H752 C746 0.930 1_655 S
H753 C745 0.930 . S
H754 C768 0.929 . S
H755 C735 0.931 . S
H756 C741 0.931 . S
H757 C742 0.931 . S
H758 C763 0.931 . S
H759 C738 0.929 . S
H760 C771 0.930 . S
N761 Eu732 2.600 . S
N761 C762 1.365 1_455 S
N761 C765 1.319 . S
C762 N761 1.365 1_655 S
C762 C764 1.405 . S
C762 C770 1.448 . S
C763 H758 0.931 . S
C763 C765 1.397 . S
C763 C766 1.367 1_455 S
C764 C762 1.405 . S
C764 C766 1.403 . S
C764 C797 1.439 . S
C765 H750 0.930 . S
C765 N761 1.319 . S
C765 C763 1.397 . S
C766 C763 1.367 1_655 S
C766 C764 1.403 . S
C766 H773 0.929 . S
N767 Eu732 2.562 . S
N767 C768 1.325 . S
N767 C770 1.351 1_455 S
C768 H754 0.929 . S
C768 N767 1.325 . S
C768 C772 1.416 1_455 S
C769 C770 1.430 . S
C769 C771 1.404 . S
C769 C798 1.387 . S
C770 C762 1.448 . S
C770 N767 1.351 1_655 S
C770 C769 1.430 . S
C771 H760 0.930 . S
C771 C769 1.404 . S
C771 C772 1.366 . S
C772 H751 0.930 . S
C772 C768 1.416 1_655 S
C772 C771 1.366 . S
H773 C766 0.929 . S
H774 C797 0.931 . S
H775 C798 0.931 . S
O776 Eu732 2.462 . S
O776 C796 1.252 . S
O777 Eu732 2.373 1_655 S
O777 C788 1.249 . S
O778 Eu743 2.335 . S
O778 C788 1.264 . S
O779 Eu732 2.432 . S
O779 C796 1.268 . S
O780 Eu732 2.291 . S
O780 C795 1.255 . S
O781 Eu743 2.372 . S
O781 C795 1.257 1_655 S
O782 Eu743 2.462 . S
O782 C807 1.252 . S
O783 Eu743 2.373 1_455 S
O783 C799 1.249 . S
O784 Eu732 2.335 . S
O784 C799 1.264 . S
O785 Eu743 2.432 . S
O785 C807 1.268 . S
O786 Eu743 2.291 . S
O786 C806 1.255 1_655 S
O787 Eu732 2.372 . S
O787 C806 1.257 . S
C788 O777 1.249 . S
C788 O778 1.264 . S
C789 C792 1.382 . S
C789 C794 1.390 . S
C789 C796 1.506 . S
C790 C791 1.398 . S
C790 C794 1.392 . S
C791 C790 1.398 . S
C791 C793 1.372 . S
C791 H808 0.931 . S
C792 C789 1.382 . S
C792 C793 1.390 . S
C792 H809 0.931 . S
C793 C791 1.372 . S
C793 C792 1.390 . S
C793 H810 0.929 . S
C794 C789 1.390 . S
C794 C790 1.392 . S
C794 H811 0.930 . S
C795 O780 1.255 . S
C795 O781 1.257 1_455 S
C796 Eu732 2.787 . S
C796 O776 1.252 . S
C796 O779 1.268 . S
C796 C789 1.506 . S
C797 C764 1.439 . S
C797 H774 0.931 . S
C797 C798 1.374 . S
C798 C769 1.387 . S
C798 H775 0.931 . S
C798 C797 1.374 . S
C799 O783 1.249 . S
C799 O784 1.264 . S
C800 C803 1.382 . S
C800 C804 1.390 . S
C800 C807 1.506 . S
C801 C802 1.398 . S
C801 C804 1.392 . S
C802 C801 1.398 . S
C802 C805 1.372 . S
C802 H812 0.931 . S
C803 C800 1.382 . S
C803 C805 1.390 . S
C803 H813 0.931 . S
C804 C800 1.390 . S
C804 C801 1.392 . S
C804 H814 0.930 . S
C805 C802 1.372 . S
C805 C803 1.390 . S
C805 H815 0.929 . S
C806 O786 1.255 1_455 S
C806 O787 1.257 . S
C807 Eu743 2.787 . S
C807 O782 1.252 . S
C807 O785 1.268 . S
C807 C800 1.506 . S
H808 C791 0.931 . S
H809 C792 0.931 . S
H810 C793 0.929 . S
H811 C794 0.930 . S
H812 C802 0.931 . S
H813 C803 0.931 . S
H814 C804 0.930 . S
H815 C805 0.929 . S
C816 C817 1.387 . S
C816 H820 0.950 . S
C816 C825 1.390 . S
C817 C816 1.387 . S
C817 C819 1.387 . S
H818 C825 0.950 . S
C819 C817 1.387 . S
C819 C821 1.391 . S
C819 H823 0.950 1_545 S
H820 C816 0.950 . S
C821 C819 1.391 . S
C821 C822 1.391 . S
C821 H824 0.946 1_545 S
C822 C821 1.391 . S
C822 C825 1.387 . S
H823 C819 0.950 1_565 S
H824 C821 0.946 1_565 S
C825 C816 1.390 . S
C825 H818 0.950 . S
C825 C822 1.387 . S
C826 C827 1.387 . S
C826 H830 0.950 . S
C826 C835 1.390 . S
C827 C826 1.387 . S
C827 C829 1.387 . S
H828 C835 0.950 . S
C829 C827 1.387 . S
C829 C831 1.390 . S
C829 H833 0.950 . S
H830 C826 0.950 . S
C831 C829 1.390 . S
C831 C832 1.387 . S
C831 H834 0.950 . S
C832 C831 1.387 . S
C832 C835 1.387 . S
H833 C829 0.950 . S
H834 C831 0.950 . S
C835 C826 1.390 . S
C835 H828 0.950 . S
C835 C832 1.387 . S
C836 C837 1.387 . S
C836 H840 0.950 . S
C836 C845 1.390 . S
C837 C836 1.387 . S
C837 C839 1.387 . S
H838 C845 0.950 . S
C839 C837 1.387 . S
C839 C841 1.390 . S
C839 H843 0.950 . S
H840 C836 0.950 . S
C841 C839 1.390 . S
C841 C842 1.387 . S
C841 H844 0.950 . S
C842 C841 1.387 . S
C842 C845 1.387 . S
H843 C839 0.950 . S
H844 C841 0.950 . S
C845 C836 1.390 . S
C845 H838 0.950 . S
C845 C842 1.387 . S
C846 C847 1.387 . S
C846 H850 0.950 . S
C846 C855 1.390 . S
C847 C846 1.387 . S
C847 C849 1.387 . S
H848 C855 0.950 . S
C849 C847 1.387 . S
C849 C851 1.390 . S
C849 H853 0.950 . S
H850 C846 0.950 . S
C851 C849 1.390 . S
C851 C852 1.387 . S
C851 H854 0.950 . S
C852 C851 1.387 . S
C852 C855 1.387 . S
H853 C849 0.950 . S
H854 C851 0.950 . S
C855 C846 1.390 . S
C855 H848 0.950 . S
C855 C852 1.387 . S
C856 C857 1.389 . S
C856 H860 0.948 1_565 S
C856 C865 1.390 1_564 S
C857 C856 1.389 . S
C857 C859 1.387 . S
H858 C865 0.950 . S
C859 C857 1.387 . S
C859 C861 1.390 1_554 S
C859 H863 0.950 . S
H860 C856 0.948 1_545 S
C861 C859 1.390 1_556 S
C861 C862 1.387 . S
C861 H864 0.950 . S
C862 C861 1.387 . S
C862 C865 1.387 1_565 S
H863 C859 0.950 . S
H864 C861 0.950 . S
C865 C856 1.390 1_546 S
C865 H858 0.950 . S
C865 C862 1.387 1_545 S
C866 C867 1.387 . S
C866 H870 0.950 . S
C866 C875 1.390 1_554 S
C867 C866 1.387 . S
C867 C869 1.387 . S
H868 C875 0.950 . S
C869 C867 1.387 . S
C869 C871 1.390 1_554 S
C869 H873 0.950 . S
H870 C866 0.950 . S
C871 C869 1.390 1_556 S
C871 C872 1.387 . S
C871 H874 0.950 . S
C872 C871 1.387 . S
C872 C875 1.387 . S
H873 C869 0.950 . S
H874 C871 0.950 . S
C875 C866 1.390 1_556 S
C875 H868 0.950 . S
C875 C872 1.387 . S
C876 C877 1.387 . S
C876 H880 0.950 . S
C876 C885 1.390 1_554 S
C877 C876 1.387 . S
C877 C879 1.387 . S
H878 C885 0.950 . S
C879 C877 1.387 . S
C879 C881 1.390 1_554 S
C879 H883 0.950 . S
H880 C876 0.950 . S
C881 C879 1.390 1_556 S
C881 C882 1.387 . S
C881 H884 0.950 . S
C882 C881 1.387 . S
C882 C885 1.387 . S
H883 C879 0.950 . S
H884 C881 0.950 . S
C885 C876 1.390 1_556 S
C885 H878 0.950 . S
C885 C882 1.387 . S
C886 C887 1.387 . S
C886 H890 0.950 . S
C886 C895 1.390 1_554 S
C887 C886 1.387 . S
C887 C889 1.387 . S
H888 C895 0.950 . S
C889 C887 1.387 . S
C889 C891 1.390 1_554 S
C889 H893 0.950 . S
H890 C886 0.950 . S
C891 C889 1.390 1_556 S
C891 C892 1.387 . S
C891 H894 0.950 . S
C892 C891 1.387 . S
C892 C895 1.387 . S
H893 C889 0.950 . S
H894 C891 0.950 . S
C895 C886 1.390 1_556 S
C895 H888 0.950 . S
C895 C892 1.387 . S
C896 C897 1.387 . S
C896 H900 0.950 . S
C896 C905 1.390 . S
C897 C896 1.387 . S
C897 C899 1.387 . S
H898 C905 0.950 . S
C899 C897 1.387 . S
C899 C901 1.390 1_455 S
C899 H903 0.950 . S
H900 C896 0.950 . S
C901 C899 1.390 1_655 S
C901 C902 1.387 . S
C901 H904 0.950 . S
C902 C901 1.387 . S
C902 C905 1.387 1_655 S
H903 C899 0.950 . S
H904 C901 0.950 . S
C905 C896 1.390 . S
C905 H898 0.950 . S
C905 C902 1.387 1_455 S
C906 C907 1.387 . S
C906 H910 0.950 . S
C906 C915 1.390 . S
C907 C906 1.387 . S
C907 C909 1.387 . S
H908 C915 0.950 . S
C909 C907 1.387 . S
C909 C911 1.390 1_545 S
C909 H913 0.950 . S
H910 C906 0.950 . S
C911 C909 1.390 1_565 S
C911 C912 1.387 . S
C911 H914 0.950 . S
C912 C911 1.387 . S
C912 C915 1.387 1_565 S
H913 C909 0.950 . S
H914 C911 0.950 . S
C915 C906 1.390 . S
C915 H908 0.950 . S
C915 C912 1.387 1_545 S
C916 C917 1.387 . S
C916 H920 0.950 . S
C916 C925 1.390 . S
C917 C916 1.387 . S
C917 C919 1.387 . S
H918 C925 0.950 . S
C919 C917 1.387 . S
C919 C921 1.390 . S
C919 H923 0.950 . S
H920 C916 0.950 . S
C921 C919 1.390 . S
C921 C922 1.387 . S
C921 H924 0.950 . S
C922 C921 1.387 . S
C922 C925 1.387 . S
H923 C919 0.950 . S
H924 C921 0.950 . S
C925 C916 1.390 . S
C925 H918 0.950 . S
C925 C922 1.387 . S
C926 C927 1.387 . S
C926 H930 0.950 . S
C926 C935 1.390 . S
C927 C926 1.387 . S
C927 C929 1.387 . S
H928 C935 0.950 . S
C929 C927 1.387 . S
C929 C931 1.390 . S
C929 H933 0.950 . S
H930 C926 0.950 . S
C931 C929 1.390 . S
C931 C932 1.387 . S
C931 H934 0.950 . S
C932 C931 1.387 . S
C932 C935 1.387 . S
H933 C929 0.950 . S
H934 C931 0.950 . S
C935 C926 1.390 . S
C935 H928 0.950 . S
C935 C932 1.387 . S
C936 C937 1.387 . S
C936 H940 0.950 . S
C936 C945 1.390 . S
C937 C936 1.387 . S
C937 C939 1.416 1_554 S
H938 C945 0.950 . S
C939 C937 1.416 1_556 S
C939 C941 1.366 1_655 S
C939 H943 0.946 1_655 S
H940 C936 0.950 . S
C941 C939 1.366 1_455 S
C941 C942 1.387 . S
C941 H944 0.950 . S
C942 C941 1.387 . S
C942 C945 1.387 1_456 S
H943 C939 0.946 1_455 S
H944 C941 0.950 . S
C945 C936 1.390 . S
C945 H938 0.950 . S
C945 C942 1.387 1_654 S
C946 C947 1.387 1_556 S
C946 H950 0.950 . S
C946 C955 1.390 . S
C947 C946 1.387 1_554 S
C947 C949 1.408 . S
H948 C955 0.950 . S
C949 C947 1.408 . S
C949 C951 1.372 1_565 S
C949 H953 0.948 1_565 S
H950 C946 0.950 . S
C951 C949 1.372 1_545 S
C951 C952 1.387 1_554 S
C951 H954 0.950 . S
C952 C951 1.387 1_556 S
C952 C955 1.387 1_545 S
H953 C949 0.948 1_545 S
H954 C951 0.950 . S
C955 C946 1.390 . S
C955 H948 0.950 . S
C955 C952 1.387 1_565 S
C956 C957 1.387 1_556 S
C956 H960 0.950 . S
C956 C965 1.390 . S
C957 C956 1.387 1_554 S
C957 C959 1.387 . S
H958 C965 0.950 . S
C959 C957 1.387 . S
C959 C961 1.390 . S
C959 H963 0.950 . S
H960 C956 0.950 . S
C961 C959 1.390 . S
C961 C962 1.387 1_554 S
C961 H964 0.950 . S
C962 C961 1.387 1_556 S
C962 C965 1.387 . S
H963 C959 0.950 . S
H964 C961 0.950 . S
C965 C956 1.390 . S
C965 H958 0.950 . S
C965 C962 1.387 . S
C966 C967 1.387 1_556 S
C966 H970 0.950 . S
C966 C975 1.390 . S
C967 C966 1.387 1_554 S
C967 C969 1.387 . S
H968 C975 0.950 . S
C969 C967 1.387 . S
C969 C971 1.390 . S
C969 H973 0.950 . S
H970 C966 0.950 . S
C971 C969 1.390 . S
C971 C972 1.387 1_554 S
C971 H974 0.950 . S
C972 C971 1.387 1_556 S
C972 C975 1.387 . S
H973 C969 0.950 . S
H974 C971 0.950 . S
C975 C966 1.390 . S
C975 H968 0.950 . S
C975 C972 1.387 . S
C976 C977 1.387 . S
C976 H980 0.950 . S
C976 C985 1.390 . S
C977 C976 1.387 . S
C977 C979 1.387 . S
H978 C985 0.950 . S
C979 C977 1.387 . S
C979 C981 1.390 . S
C979 H983 0.950 1_455 S
H980 C976 0.950 . S
C981 C979 1.390 . S
C981 C982 1.387 . S
C981 H984 0.950 1_455 S
C982 C981 1.387 . S
C982 C985 1.387 . S
H983 C979 0.950 1_655 S
H984 C981 0.950 1_655 S
C985 C976 1.390 . S
C985 H978 0.950 . S
C985 C982 1.387 . S
C986 C987 1.387 . S
C986 H990 0.950 . S
C986 C995 1.390 . S
C987 C986 1.387 . S
C987 C989 1.387 . S
H988 C995 0.950 . S
C989 C987 1.387 . S
C989 C991 1.390 . S
C989 H993 0.950 . S
H990 C986 0.950 . S
C991 C989 1.390 . S
C991 C992 1.387 . S
C991 H994 0.950 . S
C992 C991 1.387 . S
C992 C995 1.387 . S
H993 C989 0.950 . S
H994 C991 0.950 . S
C995 C986 1.390 . S
C995 H988 0.950 . S
C995 C992 1.387 . S
C996 C997 1.387 . S
C996 H1000 0.950 . S
C996 C1005 1.390 . S
C997 C996 1.387 . S
C997 C999 1.387 . S
H998 C1005 0.950 . S
C999 C997 1.387 . S
C999 C1001 1.390 . S
C999 H1003 0.950 . S
H1000 C996 0.950 . S
C1001 C999 1.390 . S
C1001 C1002 1.387 . S
C1001 H1004 0.950 . S
C1002 C1001 1.387 . S
C1002 C1005 1.387 . S
H1003 C999 0.950 . S
H1004 C1001 0.950 . S
C1005 C996 1.390 . S
C1005 H998 0.950 . S
C1005 C1002 1.387 . S
C1006 C1007 1.387 . S
C1006 H1010 0.950 . S
C1006 C1015 1.390 . S
C1007 C1006 1.387 . S
C1007 C1009 1.387 . S
H1008 C1015 0.950 . S
C1009 C1007 1.387 . S
C1009 C1011 1.390 . S
C1009 H1013 0.950 . S
H1010 C1006 0.950 . S
C1011 C1009 1.390 . S
C1011 C1012 1.387 . S
C1011 H1014 0.950 . S
C1012 C1011 1.387 . S
C1012 C1015 1.387 . S
H1013 C1009 0.950 . S
H1014 C1011 0.950 . S
C1015 C1006 1.390 . S
C1015 H1008 0.950 . S
C1015 C1012 1.387 . S
C1016 C1017 1.387 . S
C1016 H1020 0.950 . S
C1016 C1025 1.390 . S
C1017 C1016 1.387 . S
C1017 C1019 1.387 . S
H1018 C1025 0.950 . S
C1019 C1017 1.387 . S
C1019 C1021 1.390 . S
C1019 H1023 0.950 . S
H1020 C1016 0.950 . S
C1021 C1019 1.390 . S
C1021 C1022 1.387 . S
C1021 H1024 0.950 . S
C1022 C1021 1.387 . S
C1022 C1025 1.387 . S
H1023 C1019 0.950 . S
H1024 C1021 0.950 . S
C1025 C1016 1.390 . S
C1025 H1018 0.950 . S
C1025 C1022 1.387 . S
C1026 C1027 1.387 . S
C1026 H1030 0.950 . S
C1026 C1035 1.390 . S
C1027 C1026 1.387 . S
C1027 C1029 1.387 1_565 S
H1028 C1035 0.950 . S
C1029 C1027 1.387 1_545 S
C1029 C1031 1.390 . S
C1029 H1033 0.950 . S
H1030 C1026 0.950 . S
C1031 C1029 1.390 . S
C1031 C1032 1.387 1_545 S
C1031 H1034 0.950 . S
C1032 C1031 1.387 1_565 S
C1032 C1035 1.387 . S
H1033 C1029 0.950 . S
H1034 C1031 0.950 . S
C1035 C1026 1.390 . S
C1035 H1028 0.950 . S
C1035 C1032 1.387 . S
C1036 C1037 1.387 . S
C1036 H1040 0.950 . S
C1036 C1045 1.390 . S
C1037 C1036 1.387 . S
C1037 C1039 1.387 . S
H1038 C1045 0.950 . S
C1039 C1037 1.387 . S
C1039 C1041 1.390 . S
C1039 H1043 0.950 . S
H1040 C1036 0.950 . S
C1041 C1039 1.390 . S
C1041 C1042 1.387 . S
C1041 H1044 0.950 . S
C1042 C1041 1.387 . S
C1042 C1045 1.387 . S
H1043 C1039 0.950 . S
H1044 C1041 0.950 . S
C1045 C1036 1.390 . S
C1045 H1038 0.950 . S
C1045 C1042 1.387 . S
C1046 C1047 1.387 . S
C1046 H1050 0.950 . S
C1046 C1055 1.390 . S
C1047 C1046 1.387 . S
C1047 C1049 1.387 . S
H1048 C1055 0.950 . S
C1049 C1047 1.387 . S
C1049 C1051 1.390 . S
C1049 H1053 0.950 . S
H1050 C1046 0.950 . S
C1051 C1049 1.390 . S
C1051 C1052 1.387 . S
C1051 H1054 0.950 . S
C1052 C1051 1.387 . S
C1052 C1055 1.387 . S
H1053 C1049 0.950 . S
H1054 C1051 0.950 . S
C1055 C1046 1.390 . S
C1055 H1048 0.950 . S
C1055 C1052 1.387 . S
C817 C391 2.754 . S
C822 C543 2.845 . S
C832 C620 2.842 . S
C827 C451 2.759 . S
C842 C711 2.853 . S
C837 C241 2.359 . S
C852 C795 2.830 . S
C847 C331 2.341 . S
C862 C554 2.845 1_565 S
C857 C121 2.392 . S
C867 C211 2.725 . S
C872 C631 2.843 . S
C877 C31 2.727 . S
C882 C722 2.851 . S
C887 C91 2.378 . S
C892 C806 2.829 1_655 S
C902 C538 0.778 . S
C897 C301 0.758 . S
C912 C633 0.769 . S
C907 C380 0.769 . S
C922 C706 0.794 . S
C917 C440 0.792 . S
C927 C260 0.759 . S
C932 C790 0.767 . S
C937 C61 0.775 . S
C942 C549 0.780 . S
C952 C622 0.762 . S
C947 C140 0.764 . S
C962 C717 0.795 . S
C957 C200 0.773 . S
C967 C20 0.757 . S
C972 C801 0.770 . S
C977 C320 3.071 . S
C982 C547 3.307 . S
C987 C361 2.688 . S
C992 C638 3.413 . S
C1002 C715 3.324 . S
C997 C421 2.693 . S
C1012 C799 3.327 . S
C1007 C271 3.089 . S
C1017 C80 3.089 . S
C1022 C536 3.306 . S
C1032 C627 3.413 . S
C1027 C151 3.098 . S
C1042 C704 3.325 . S
C1037 C181 2.671 . S
C1047 C1 2.674 . S
C1052 C788 3.326 . S
