# Generated by pormake.
# Topology pyr, (3,6)-cn, num edge types: 1
# Building blocks:
#     Node 0, Type 0, BuildingBlock: CUQRIR_clean_linker_1, # of connection points: 3
#     Node 1, Type 0, BuildingBlock: CUQRIR_clean_linker_1, # of connection points: 3
#     Node 2, Type 0, BuildingBlock: CUQRIR_clean_linker_1, # of connection points: 3
#     Node 3, Type 0, BuildingBlock: CUQRIR_clean_linker_1, # of connection points: 3
#     Node 4, Type 0, BuildingBlock: CUQRIR_clean_linker_1, # of connection points: 3
#     Node 5, Type 0, BuildingBlock: CUQRIR_clean_linker_1, # of connection points: 3
#     Node 6, Type 0, BuildingBlock: CUQRIR_clean_linker_1, # of connection points: 3
#     Node 7, Type 0, BuildingBlock: CUQRIR_clean_linker_1, # of connection points: 3
#     Node 8, Type 1, BuildingBlock: INOVEN_clean_sbu_0, # of connection points: 6
#     Node 9, Type 1, BuildingBlock: INOVEN_clean_sbu_0, # of connection points: 6
#     Node 10, Type 1, BuildingBlock: INOVEN_clean_sbu_0, # of connection points: 6
#     Node 11, Type 1, BuildingBlock: INOVEN_clean_sbu_0, # of connection points: 6
#     Edge 12, Type (0, 1), BuildingBlock: OJICUG_clean_linker_0, # of connection points: 2
#     Edge 13, Type (0, 1), BuildingBlock: OJICUG_clean_linker_0, # of connection points: 2
#     Edge 14, Type (0, 1), BuildingBlock: OJICUG_clean_linker_0, # of connection points: 2
#     Edge 15, Type (0, 1), BuildingBlock: OJICUG_clean_linker_0, # of connection points: 2
#     Edge 16, Type (0, 1), BuildingBlock: OJICUG_clean_linker_0, # of connection points: 2
#     Edge 17, Type (0, 1), BuildingBlock: OJICUG_clean_linker_0, # of connection points: 2
#     Edge 18, Type (0, 1), BuildingBlock: OJICUG_clean_linker_0, # of connection points: 2
#     Edge 19, Type (0, 1), BuildingBlock: OJICUG_clean_linker_0, # of connection points: 2
#     Edge 20, Type (0, 1), BuildingBlock: OJICUG_clean_linker_0, # of connection points: 2
#     Edge 21, Type (0, 1), BuildingBlock: OJICUG_clean_linker_0, # of connection points: 2
#     Edge 22, Type (0, 1), BuildingBlock: OJICUG_clean_linker_0, # of connection points: 2
#     Edge 23, Type (0, 1), BuildingBlock: OJICUG_clean_linker_0, # of connection points: 2
#     Edge 24, Type (0, 1), BuildingBlock: OJICUG_clean_linker_0, # of connection points: 2
#     Edge 25, Type (0, 1), BuildingBlock: OJICUG_clean_linker_0, # of connection points: 2
#     Edge 26, Type (0, 1), BuildingBlock: OJICUG_clean_linker_0, # of connection points: 2
#     Edge 27, Type (0, 1), BuildingBlock: OJICUG_clean_linker_0, # of connection points: 2
#     Edge 28, Type (0, 1), BuildingBlock: OJICUG_clean_linker_0, # of connection points: 2
#     Edge 29, Type (0, 1), BuildingBlock: OJICUG_clean_linker_0, # of connection points: 2
#     Edge 30, Type (0, 1), BuildingBlock: OJICUG_clean_linker_0, # of connection points: 2
#     Edge 31, Type (0, 1), BuildingBlock: OJICUG_clean_linker_0, # of connection points: 2
#     Edge 32, Type (0, 1), BuildingBlock: OJICUG_clean_linker_0, # of connection points: 2
#     Edge 33, Type (0, 1), BuildingBlock: OJICUG_clean_linker_0, # of connection points: 2
#     Edge 34, Type (0, 1), BuildingBlock: OJICUG_clean_linker_0, # of connection points: 2
#     Edge 35, Type (0, 1), BuildingBlock: OJICUG_clean_linker_0, # of connection points: 2
# Relax obj value: 0.295
# Max RMSD: 0.273
# Mean RMSD: 0.177
data_MOF--net-pyr--node1-INOVEN_clean_sbu_0--node2-CUQRIR_clean_linker_1--edge1-OJICUG_clean_linker_0
_symmetry_space_group_name_H-M    P1
_symmetry_Int_Tables_number       1
_symmetry_cell_setting            triclinic
loop_
_symmetry_equiv_pos_as_xyz
'x, y, z'
_cell_length_a     25.722086
_cell_length_b     25.833671
_cell_length_c     22.973298
_cell_angle_alpha  89.670814
_cell_angle_beta   89.421375
_cell_angle_gamma 111.05493
loop_
_atom_site_label
_atom_site_type_symbol
_atom_site_fract_x
_atom_site_fract_y
_atom_site_fract_z
_atom_type_partial_charge
C0 C 0.42923 0.48976 0.26788 0.0
N1 N 0.45152 0.45028 0.27805 0.0
N2 N 0.42908 0.50126 0.21029 0.0
C3 C 0.39532 0.50722 0.31255 0.0
C4 C 0.45729 0.47105 0.18624 0.0
N5 N 0.47263 0.44168 0.22753 0.0
C6 C 0.46384 0.46547 0.12187 0.0
H7 H 0.39109 0.54701 0.30023 0.0
H8 H 0.41545 0.51265 0.35564 0.0
H9 H 0.35307 0.47483 0.31646 0.0
H10 H 0.46698 0.50454 0.09915 0.0
H11 H 0.42657 0.43176 0.10546 0.0
H12 H 0.50126 0.45507 0.11199 0.0
C13 C 0.19321 0.93709 0.68001 0.0
N14 N 0.18362 0.98022 0.70516 0.0
N15 N 0.19274 0.89851 0.72026 0.0
C16 C 0.2148 0.93761 0.61841 0.0
C17 C 0.17733 0.91758 0.76969 0.0
N18 N 0.17613 0.96928 0.76212 0.0
C19 C 0.1779 0.89155 0.82862 0.0
H20 H 0.17905 0.92019 0.58883 0.0
H21 H 0.24037 0.91125 0.61381 0.0
H22 H 0.23989 0.98046 0.60387 0.0
H23 H 0.1685 0.84632 0.82469 0.0
H24 H 0.14657 0.8982 0.85819 0.0
H25 H 0.21971 0.91085 0.84812 0.0
C26 C 0.6444 0.46255 0.90498 0.0
N27 N 0.67453 0.45696 0.95159 0.0
N28 N 0.66596 0.51429 0.88106 0.0
C29 C 0.59059 0.41873 0.88674 0.0
C30 C 0.71047 0.54015 0.91526 0.0
N31 N 0.71576 0.50596 0.95863 0.0
C32 C 0.75039 0.59844 0.90406 0.0
H33 H 0.59486 0.37748 0.8868 0.0
H34 H 0.57742 0.42733 0.84315 0.0
H35 H 0.55744 0.41701 0.9188 0.0
H36 H 0.73708 0.6277 0.93002 0.0
H37 H 0.75058 0.60989 0.8574 0.0
H38 H 0.79331 0.60298 0.91672 0.0
C39 C 0.85614 0.77029 0.41932 0.0
N40 N 0.90771 0.80722 0.40343 0.0
N41 N 0.82964 0.79296 0.45699 0.0
C42 C 0.83193 0.71109 0.39922 0.0
C43 C 0.86574 0.84545 0.46293 0.0
N44 N 0.91348 0.85505 0.43126 0.0
C45 C 0.8546 0.88737 0.50187 0.0
H46 H 0.8418 0.70829 0.35247 0.0
H47 H 0.78616 0.69339 0.40576 0.0
H48 H 0.85045 0.68556 0.42467 0.0
H49 H 0.87606 0.88909 0.54387 0.0
H50 H 0.8094 0.87613 0.51084 0.0
H51 H 0.87055 0.92933 0.48182 0.0
C52 C 0.61658 0.87925 0.98039 0.0
N53 N 0.65335 0.8604 0.95348 0.0
N54 N 0.60604 0.91772 0.94697 0.0
C55 C 0.59661 0.86602 1.04233 0.0
C56 C 0.63662 0.92004 0.89801 0.0
N57 N 0.66627 0.88639 0.90228 0.0
C58 C 0.64534 0.96259 0.85031 0.0
H59 H 0.55228 0.86198 1.04608 0.0
H60 H 0.62114 0.90067 1.07065 0.0
H61 H 0.60112 0.82705 1.05764 0.0
H62 H 0.68417 0.99846 0.8584 0.0
H63 H 0.60982 0.97735 0.84861 0.0
H64 H 0.65023 0.94457 0.80777 0.0
C65 C 0.85766 0.37048 0.60568 0.0
N66 N 0.88098 0.34158 0.5716 0.0
N67 N 0.83967 0.40422 0.57265 0.0
C68 C 0.85269 0.36694 0.67086 0.0
C69 C 0.85264 0.39478 0.51756 0.0
N70 N 0.87782 0.35708 0.5169 0.0
C71 C 0.83214 0.41569 0.46418 0.0
H72 H 0.81276 0.33382 0.68348 0.0
H73 H 0.85238 0.40664 0.68878 0.0
H74 H 0.8876 0.35716 0.68991 0.0
H75 H 0.8513 0.46159 0.46216 0.0
H76 H 0.78631 0.40455 0.46745 0.0
H77 H 0.84221 0.39894 0.4231 0.0
C78 C 0.36358 0.8048 0.32599 0.0
N79 N 0.41368 0.84106 0.34449 0.0
N80 N 0.34332 0.82646 0.28149 0.0
C81 C 0.33373 0.74818 0.35227 0.0
C82 C 0.38279 0.87714 0.27281 0.0
N83 N 0.42527 0.88709 0.3111 0.0
C84 C 0.38167 0.91579 0.22359 0.0
H85 H 0.34895 0.71791 0.33069 0.0
H86 H 0.2881 0.7348 0.34593 0.0
H87 H 0.34214 0.74775 0.39949 0.0
H88 H 0.36301 0.94571 0.23972 0.0
H89 H 0.35652 0.89266 0.18678 0.0
H90 H 0.42425 0.9396 0.20692 0.0
C91 C 0.13947 0.48945 0.83003 0.0
N92 N 0.17322 0.48108 0.78748 0.0
N93 N 0.16088 0.54174 0.85234 0.0
C94 C 0.08357 0.44746 0.84703 0.0
C95 C 0.20949 0.56477 0.82127 0.0
N96 N 0.21707 0.52854 0.78186 0.0
C97 C 0.24997 0.62314 0.82957 0.0
H98 H 0.0647 0.41976 0.81015 0.0
H99 H 0.05472 0.46816 0.86157 0.0
H100 H 0.08905 0.42158 0.88346 0.0
H101 H 0.29341 0.62704 0.81976 0.0
H102 H 0.24794 0.63704 0.87484 0.0
H103 H 0.23924 0.65133 0.79934 0.0
Gd104 Gd 0.07466 0.19825 0.54645 0.0
Gd105 Gd 0.04876 0.13547 0.65884 0.0
C106 C 0.101 0.26775 0.66724 0.0
C107 C 0.10241 0.26787 0.46173 0.0
C108 C 0.15766 0.28669 0.43385 0.0
C109 C 0.18113 0.24762 0.41655 0.0
C110 C 0.19161 0.34291 0.4366 0.0
C111 C 0.27168 0.32054 0.40627 0.0
C112 C 0.24827 0.35972 0.423 0.0
C113 C 0.23761 0.26446 0.40277 0.0
C114 C 0.15555 0.16267 0.58638 0.0
C115 C 1.02159 1.06653 0.53338 0.0
C116 C 0.03841 1.06533 0.74247 0.0
C117 C 0.98936 1.0177 0.76 0.0
C118 C 0.94313 1.00022 0.72324 0.0
C119 C 0.98464 0.9962 0.81662 0.0
C120 C 0.88506 0.94851 0.80321 0.0
C121 C 0.93275 0.9614 0.83805 0.0
C122 C 0.89131 0.96569 0.74465 0.0
C123 C 0.96613 0.1704 0.62495 0.0
O124 O 0.08148 0.26537 0.61375 0.0
O125 O 0.10159 0.22147 0.69239 0.0
O126 O 0.07082 0.21593 0.45437 0.0
O127 O 0.10332 0.28335 0.51571 0.0
O128 O 0.14337 0.16372 0.53217 0.0
O129 O 0.12664 0.18344 0.61501 0.0
O130 O 1.0312 1.06613 0.59025 0.0
O131 O 1.02708 0.11402 0.5069 0.0
O132 O 1.0328 0.11319 0.74989 0.0
O133 O 0.06019 1.06153 0.69177 0.0
O134 O 0.97567 0.16164 0.67856 0.0
O135 O 0.99584 0.15335 0.59193 0.0
H136 H 0.15632 0.20377 0.41523 0.0
H137 H 0.17463 0.37351 0.45106 0.0
H138 H 0.27348 0.40351 0.42405 0.0
H139 H 0.25467 0.23378 0.38876 0.0
H140 H 0.94612 1.0168 0.67937 0.0
H141 H 1.02004 1.00932 0.84541 0.0
H142 H 0.92916 0.94786 0.88313 0.0
H143 H 0.85543 0.9568 0.71686 0.0
Gd144 Gd 0.61526 0.19069 0.1532 0.0
Gd145 Gd 0.49835 0.15531 0.13324 0.0
C146 C 0.54141 0.25356 0.21376 0.0
C147 C 0.72121 0.24427 0.16428 0.0
C148 C 0.76616 0.24741 0.20394 0.0
C149 C 0.80726 0.29927 0.21337 0.0
C150 C 0.76494 0.2015 0.23753 0.0
C151 C 0.83832 0.26227 0.29808 0.0
C152 C 0.80147 0.20878 0.28391 0.0
C153 C 0.84307 0.30679 0.2601 0.0
C154 C 0.55875 1.09795 0.21951 0.0
C155 C 0.56841 1.09826 1.05968 0.0
C156 C 0.39229 1.1069 0.1165 0.0
C157 C 0.35685 1.0902 1.06489 0.0
C158 C 0.37131 1.06221 1.01902 0.0
C159 C 0.30979 1.10531 1.05977 0.0
C160 C 0.29315 1.0663 0.96258 0.0
C161 C 0.27811 1.09343 1.00902 0.0
C162 C 0.33958 1.05004 0.96869 0.0
C163 C 0.55917 0.2478 1.0678 0.0
O164 O 0.58927 0.26055 0.18745 0.0
O165 O 0.50218 0.20424 0.21318 0.0
O166 O 0.70057 0.19922 0.13388 0.0
O167 O 0.683 0.26133 0.18552 0.0
O168 O 0.60755 0.10953 0.19641 0.0
O169 O 0.54263 0.13859 0.21072 0.0
O170 O 0.51975 1.0905 1.08402 0.0
O171 O 0.61143 0.14332 1.07104 0.0
O172 O 0.41651 0.16017 0.12325 0.0
O173 O 0.42549 1.07991 0.12749 0.0
O174 O 0.51023 0.23802 0.08961 0.0
O175 O 0.57207 0.20565 1.07685 0.0
H176 H 0.8088 0.33499 0.18742 0.0
H177 H 0.73359 0.16092 0.23033 0.0
H178 H 0.79765 0.17341 0.31146 0.0
H179 H 0.87038 0.34871 0.26946 0.0
H180 H 0.40749 1.05023 1.02164 0.0
H181 H 0.29817 0.12724 0.09464 0.0
H182 H 0.24268 1.1065 1.00568 0.0
H183 H 0.35152 1.0277 0.93447 0.0
Gd184 Gd 0.51324 0.61991 0.5758 0.0
Gd185 Gd 0.5324 0.70958 0.65459 0.0
C186 C 0.57134 0.61573 0.70292 0.0
C187 C 0.53022 0.54214 0.51823 0.0
C188 C 0.57722 0.5234 0.52803 0.0
C189 C 0.57131 0.46776 0.52107 0.0
C190 C 0.62686 0.56068 0.5511 0.0
C191 C 0.66415 0.487 0.56097 0.0
C192 C 0.66951 0.54268 0.56783 0.0
C193 C 0.61457 0.44975 0.53699 0.0
C194 C 0.41769 0.61012 0.63629 0.0
C195 C 0.48659 0.72362 0.52475 0.0
C196 C 0.51862 0.78144 0.72409 0.0
C197 C 0.46814 0.79362 0.73222 0.0
C198 C 0.46729 0.83654 0.76837 0.0
C199 C 0.41985 0.76126 0.70301 0.0
C200 C 0.37118 0.81831 0.74125 0.0
C201 C 0.37166 0.77353 0.70742 0.0
C202 C 0.41884 0.84872 0.7731 0.0
C203 C 0.6271 0.71622 0.59516 0.0
O204 O 0.56504 0.59924 0.64805 0.0
O205 O 0.55597 0.65681 0.71872 0.0
O206 O 0.49434 0.53196 0.56127 0.0
O207 O 0.54368 0.59262 0.49775 0.0
O208 O 0.41968 0.59981 0.58114 0.0
O209 O 0.46658 0.6253 0.65643 0.0
O210 O 0.48739 0.73673 0.58067 0.0
O211 O 0.49886 0.67976 0.50989 0.0
O212 O 0.54276 0.79495 0.67304 0.0
O213 O 0.5133 0.73144 0.74053 0.0
O214 O 0.62608 0.73055 0.64901 0.0
O215 O 0.5788 0.70275 0.57493 0.0
H216 H 0.53313 0.43823 0.50395 0.0
H217 H 0.63228 0.60378 0.55759 0.0
H218 H 0.70641 0.57247 0.5869 0.0
H219 H 0.6093 0.40677 0.52993 0.0
H220 H 0.50415 0.86112 0.79185 0.0
H221 H 0.41988 0.72726 0.67563 0.0
H222 H 0.33584 0.74975 0.68208 0.0
H223 H 0.41911 0.88296 0.80027 0.0
Gd224 Gd 1.02658 0.62285 0.16116 0.0
Gd225 Gd 1.02561 0.71465 0.09293 0.0
C226 C 0.13795 0.73004 0.15556 0.0
C227 C 0.06268 0.54981 0.2053 0.0
C228 C 0.11792 0.54343 0.19861 0.0
C229 C 0.16355 0.57461 0.23261 0.0
C230 C 0.12635 0.50792 0.1563 0.0
C231 C 0.2246 0.53523 0.18192 0.0
C232 C 0.1789 0.5039 0.14805 0.0
C233 C 0.21607 0.57067 0.2243 0.0
C234 C 0.98477 0.69171 0.22454 0.0
C235 C 0.91361 0.60226 0.09645 0.0
C236 C 0.99663 0.79076 1.04485 0.0
C237 C 0.94142 0.79488 1.03633 0.0
C238 C 0.92714 0.80933 0.98143 0.0
C239 C 0.90166 0.78202 1.08189 0.0
C240 C 0.83496 0.79962 1.01818 0.0
C241 C 0.84914 0.78502 1.07304 0.0
C242 C 0.87424 0.81142 0.97232 0.0
C243 C 0.07602 0.6537 1.03246 0.0
O244 O 0.11771 0.67569 0.1529 0.0
O245 O 0.10673 0.75825 0.13921 0.0
O246 O 1.03136 0.54046 0.15927 0.0
O247 O 0.06168 0.59296 0.23395 0.0
O248 O 0.96677 0.63776 0.22825 0.0
O249 O 1.02553 0.70635 0.18884 0.0
O250 O 0.93407 0.65707 0.093 0.0
O251 O 0.94427 0.57587 0.11867 0.0
O252 O 1.00645 0.75232 1.01514 0.0
O253 O 1.01381 0.79339 0.09842 0.0
O254 O 0.09233 0.70747 1.03216 0.0
O255 O 1.03235 0.63417 1.06451 0.0
H256 H 0.1589 0.60242 0.26566 0.0
H257 H 0.09233 0.48339 0.12916 0.0
H258 H 0.18377 0.47641 0.11478 0.0
H259 H 0.24976 0.59469 0.25208 0.0
H260 H 0.9569 0.81892 0.94559 0.0
H261 H 0.91102 0.76951 0.12436 0.0
H262 H 0.81946 0.77565 0.10894 0.0
H263 H 0.8644 0.82348 0.92977 0.0
C264 C 0.42035 0.41172 0.37639 0.0
C265 C 0.42135 0.40452 0.31593 0.0
H266 H 0.36937 0.39074 0.45396 0.0
C267 C 0.37933 0.35946 0.29075 0.0
H268 H 0.45229 0.44623 0.39665 0.0
C269 C 0.33398 0.32656 0.32336 0.0
C270 C 0.32829 0.33977 0.38132 0.0
H271 H 0.37669 0.35471 0.24417 0.0
H272 H 0.29979 0.29613 0.30087 0.0
C273 C 0.37306 0.38026 0.40891 0.0
C274 C 0.2601 1.03476 0.80468 0.0
C275 C 0.20179 1.0095 0.80614 0.0
H276 H 0.3343 1.07505 0.85199 0.0
C277 C 0.1728 1.01126 0.85772 0.0
H278 H 0.28328 1.03334 0.76552 0.0
C279 C 0.20221 1.03314 0.90846 0.0
C280 C 0.26093 1.05396 0.90781 0.0
H281 H 0.12795 0.99092 0.86 0.0
H282 H 0.17916 1.02981 0.94887 0.0
C283 C 0.28923 1.05765 0.85451 0.0
C284 C 0.63523 0.51887 0.77836 0.0
C285 C 0.64259 0.53914 0.83577 0.0
H286 H 0.60736 0.52654 0.69151 0.0
C287 C 0.62733 0.58498 0.84832 0.0
H288 H 0.64722 0.48406 0.76703 0.0
C289 C 0.60471 0.60942 0.80531 0.0
C290 C 0.59666 0.58912 0.74783 0.0
H291 H 0.63248 0.60166 0.8919 0.0
H292 H 0.59334 0.64443 0.81744 0.0
C293 C 0.61257 0.54346 0.735 0.0
C294 C 0.94862 0.80847 0.30311 0.0
C295 C 0.94473 0.79246 0.36251 0.0
H296 H 0.96534 0.79127 0.21403 0.0
C297 C 0.95995 0.74615 0.37548 0.0
H298 H 0.93555 0.84226 0.29025 0.0
C299 C 0.97356 0.71466 0.3314 0.0
C300 C 0.97494 0.72904 0.2719 0.0
H301 H 0.95632 0.73111 0.41999 0.0
H302 H 0.98165 0.67783 0.34402 0.0
C303 C 0.96453 0.77811 0.25891 0.0
C304 C 0.5401 0.39657 0.25109 0.0
C305 C 0.49405 0.39749 0.21908 0.0
H306 H 0.59276 0.35077 0.27341 0.0
C307 C 0.46423 0.35087 0.1863 0.0
H308 H 0.56324 0.43188 0.2773 0.0
C309 C 0.47788 0.30327 0.18832 0.0
C310 C 0.52435 0.30236 0.21947 0.0
H311 H 0.42825 0.35002 0.16178 0.0
H312 H 0.4524 0.26739 0.16432 0.0
C313 C 0.55629 0.35003 0.24977 0.0
C314 C 0.15339 1.02051 0.62022 0.0
C315 C 0.17974 1.02798 0.67461 0.0
H316 H 0.13023 1.05807 0.54673 0.0
C317 C 0.20187 1.0822 0.69687 0.0
H318 H 0.13293 0.9795 0.60289 0.0
C319 C 0.19685 0.12683 0.66618 0.0
C320 C 0.17146 0.11872 0.61181 0.0
H321 H 0.22276 1.09164 0.73769 0.0
H322 H 0.2117 0.16763 0.68557 0.0
C323 C 0.15129 1.06555 0.58812 0.0
C324 C 0.76833 0.57215 1.03422 0.0
C325 C 0.75791 0.52208 1.00405 0.0
H326 H 0.82505 0.6368 0.08559 0.0
C327 C 0.79595 0.4947 1.01138 0.0
H328 H 0.73976 0.59414 1.03023 0.0
C329 C 0.84473 0.51868 1.0447 0.0
C330 C 0.85726 0.57118 1.07071 0.0
H331 H 0.78983 0.45657 0.98834 0.0
H332 H 0.87438 0.49777 1.04691 0.0
C333 C 0.81743 0.5967 1.06608 0.0
C334 C 0.72641 0.74844 0.46386 0.0
C335 C 0.77873 0.76658 0.49061 0.0
H336 H 0.63736 0.7176 0.47578 0.0
C337 C 0.78057 0.76469 0.55173 0.0
H338 H 0.72385 0.75028 0.41693 0.0
C339 C 0.73139 0.74708 0.58548 0.0
C340 C 0.67899 0.73056 0.55895 0.0
H341 H 0.82037 0.77869 0.57338 0.0
H342 H 0.73446 0.74754 0.63248 0.0
C343 C 0.67704 0.73019 0.49764 0.0
C344 C 0.38123 0.56612 0.18713 0.0
C345 C 0.38319 0.51258 0.18457 0.0
H346 H 0.32977 0.61562 0.18798 0.0
C347 C 0.33394 0.46788 0.1725 0.0
H348 H 0.41847 0.60102 0.1974 0.0
C349 C 0.283 0.47575 0.16816 0.0
C350 C 0.28 0.52864 0.17591 0.0
H351 H 0.33417 0.42604 0.17185 0.0
H352 H 0.24549 0.43961 0.16312 0.0
C353 C 0.3302 0.57411 0.18295 0.0
C354 C 0.61149 0.40244 1.02951 0.0
C355 C 0.65647 0.40942 0.99121 0.0
H356 H 0.54577 0.34677 1.08236 0.0
C357 C 0.6722 0.36316 0.98132 0.0
H358 H 0.59722 0.4366 1.0366 0.0
C359 C 0.64268 0.31103 1.00789 0.0
C360 C 0.59561 0.30354 1.04361 0.0
H361 H 0.70542 0.36664 0.95049 0.0
H362 H 0.65494 0.27604 0.9981 0.0
C363 C 0.58144 0.35048 1.05497 0.0
C364 C 0.98821 0.91195 0.49532 0.0
C365 C 0.96168 0.90588 0.44079 0.0
H366 H 1.02508 0.96475 0.56757 0.0
C367 C 0.96314 0.95564 0.41343 0.0
H368 H 0.98661 0.87511 0.51915 0.0
C369 C 0.98446 1.00773 0.44187 0.0
C370 C 1.00505 1.01235 0.49923 0.0
H371 H 0.94168 0.95329 0.37268 0.0
H372 H 0.98135 1.0438 0.42019 0.0
C373 C 1.00873 0.96365 0.52416 0.0
C374 C 0.29163 0.91339 0.72276 0.0
C375 C 0.23628 0.87622 0.72207 0.0
H376 H 0.37722 0.92411 0.72865 0.0
C377 C 0.22461 0.81933 0.72934 0.0
H378 H 0.30117 0.95756 0.71804 0.0
C379 C 0.26839 0.7999 0.73682 0.0
C380 C 0.32391 0.83749 0.73736 0.0
H381 H 0.18194 0.79047 0.73005 0.0
H382 H 0.25892 0.7558 0.74261 0.0
C383 C 0.33495 0.89429 0.72992 0.0
C384 C 0.76619 0.93815 0.90476 0.0
C385 C 0.7206 0.90042 0.87621 0.0
H386 H 0.85377 0.98204 0.90457 0.0
C387 C 0.72892 0.87548 0.82479 0.0
H388 H 0.75995 0.95753 0.94458 0.0
C389 C 0.78288 0.8891 0.80167 0.0
C390 C 0.82877 0.9274 0.83024 0.0
H391 H 0.69385 0.84585 0.80281 0.0
H392 H 0.78872 0.87026 0.76134 0.0
C393 C 0.81972 0.95133 0.88228 0.0
C394 C 0.83497 0.27373 0.45979 0.0
C395 C 0.87871 0.32427 0.46718 0.0
H396 H 0.78788 0.21345 0.39973 0.0
C397 C 0.9177 0.34624 0.42225 0.0
H398 H 0.80489 0.25648 0.49462 0.0
C399 C 0.90921 0.32095 0.36789 0.0
C400 C 0.8606 0.27461 0.35776 0.0
H401 H 0.95207 0.38506 0.42811 0.0
H402 H 0.93773 0.34075 0.33255 0.0
C403 C 0.82579 0.24897 0.40541 0.0
C404 C 0.46981 0.78508 0.37467 0.0
C405 C 0.44697 0.82585 0.38834 0.0
H406 H 0.49891 0.72127 0.40487 0.0
C407 C 0.43976 0.8343 0.44813 0.0
H408 H 0.47373 0.77528 0.32945 0.0
C409 C 0.45355 0.8025 0.49208 0.0
C410 C 0.47395 0.75987 0.47806 0.0
H411 H 0.41992 0.86311 0.46083 0.0
H412 H 0.44599 0.80988 0.53718 0.0
C413 C 0.48296 0.75289 0.41831 0.0
C414 C 0.11417 0.54098 0.95025 0.0
C415 C 0.13696 0.56796 0.89698 0.0
H416 H 0.07645 0.54553 1.03392 0.0
C417 C 0.13684 0.6221 0.88883 0.0
H418 H 0.11373 0.49963 0.95898 0.0
C419 C 0.11718 0.64898 0.93252 0.0
C420 C 0.0948 0.62242 0.98582 0.0
H421 H 0.15217 0.64409 0.84832 0.0
H422 H 0.11912 0.69094 0.92414 0.0
C423 C 0.0929 0.56749 0.9936 0.0
C424 C 0.54074 0.95903 0.98791 0.0
C425 C 0.59461 0.96419 0.9701 0.0
H426 H 0.48973 0.99808 1.0297 0.0
C427 C 0.63885 1.01463 0.97838 0.0
H428 H 0.5063 0.92025 0.98209 0.0
C429 C 0.62973 1.05907 1.0048 0.0
C430 C 0.57617 1.0538 1.02435 0.0
H431 H 0.68092 1.01893 0.96589 0.0
H432 H 0.66514 1.09683 1.01181 0.0
C433 C 0.5315 1.00357 1.01484 0.0
C434 C 0.87604 0.25809 0.62968 0.0
C435 C 0.90267 0.29908 0.58763 0.0
H436 H 0.87644 0.18543 0.67545 0.0
C437 C 0.94846 0.29522 0.55651 0.0
H438 H 0.83938 0.2583 0.65287 0.0
C439 C 0.96571 0.25053 0.56514 0.0
C440 C 0.94101 0.21129 0.60884 0.0
H441 H 0.97063 0.3266 0.52467 0.0
H442 H 0.99977 0.24789 0.53909 0.0
C443 C 0.89623 0.2155 0.64144 0.0
C444 C 0.25592 0.83183 0.24185 0.0
C445 C 0.29187 0.80219 0.24971 0.0
H446 H 0.18006 0.83326 0.20483 0.0
C447 C 0.27814 0.75001 0.2237 0.0
H448 H 0.26535 0.87202 0.26171 0.0
C449 C 0.22925 0.72768 0.19133 0.0
C450 C 0.19305 0.75718 0.18364 0.0
H451 H 0.30544 0.72667 0.22814 0.0
H452 H 0.2196 0.68696 0.1726 0.0
C453 C 0.20732 0.80981 0.2089 0.0
C454 C 0.26306 0.55444 0.68407 0.0
C455 C 0.26547 0.54032 0.74304 0.0
H456 H 0.30844 0.58686 0.6043 0.0
C457 C 0.31839 0.5483 0.76599 0.0
H458 H 0.22344 0.5507 0.66539 0.0
C459 C 0.3674 0.5713 0.73182 0.0
C460 C 0.36519 0.58602 0.67295 0.0
H461 H 0.32192 0.53903 0.81148 0.0
H462 H 0.40721 0.57775 0.75172 0.0
C463 C 0.31205 0.57616 0.64934 0.0
C464 C 0.70026 0.79289 0.94862 0.0
C465 C 0.6876 0.8334 0.98009 0.0
H466 H 0.75778 0.75091 0.93547 0.0
C467 C 0.71939 0.85678 1.02915 0.0
H468 H 0.67678 0.77505 0.91017 0.0
C469 C 0.7652 0.84267 1.04399 0.0
C470 C 0.78067 0.80589 1.00928 0.0
H471 H 0.71201 0.88959 1.05286 0.0
H472 H 0.79103 0.86375 1.07988 0.0
C473 C 0.74679 0.77967 0.96263 0.0
C474 C 0.45742 0.98841 0.32263 0.0
C475 C 0.47093 0.94067 0.31193 0.0
H476 H 0.47142 1.07384 0.3004 0.0
C477 C 0.51859 0.94836 0.27728 0.0
H478 H 0.42 0.98399 0.3474 0.0
C479 C 0.54813 1.00005 0.25009 0.0
C480 C 0.53061 1.04587 0.25563 0.0
H481 H 0.52939 0.9128 0.26605 0.0
H482 H 0.58263 1.0029 0.22123 0.0
C483 C 0.48595 1.03976 0.29417 0.0
C484 C 0.15901 0.3801 0.78471 0.0
C485 C 0.16251 0.42945 0.75538 0.0
H486 H 0.1378 0.29145 0.78093 0.0
C487 C 0.14654 0.42505 0.69666 0.0
H488 H 0.1697 0.38165 0.83029 0.0
C489 C 0.12732 0.37312 0.6684 0.0
C490 C 0.12321 0.32344 0.69779 0.0
H491 H 0.14672 0.46153 0.67319 0.0
H492 H 0.11476 0.37192 0.62343 0.0
C493 C 0.14018 0.32816 0.75639 0.0
C494 C 0.7451 0.39517 0.60303 0.0
C495 C 0.79958 0.42913 0.58728 0.0
H496 H 0.65931 0.38696 0.60801 0.0
C497 C 0.81033 0.48439 0.57109 0.0
H498 H 0.7359 0.35213 0.61483 0.0
C499 C 0.76664 0.50394 0.5651 0.0
C500 C 0.71117 0.46868 0.57601 0.0
H501 H 0.85208 0.51089 0.55816 0.0
H502 H 0.77622 0.54552 0.54802 0.0
C503 C 0.70124 0.41481 0.59768 0.0
loop_
_geom_bond_atom_site_label_1
_geom_bond_atom_site_label_2
_geom_bond_distance
_geom_bond_site_symmetry_2
_ccdc_geom_bond_type
C0 N1 1.317 . S
C0 N2 1.348 . S
C0 C3 1.485 . S
N1 C0 1.317 . S
N1 N5 1.370 . S
N2 C0 1.348 . S
N2 C4 1.346 . S
C3 C0 1.485 . S
C3 H7 0.960 . S
C3 H8 0.961 . S
C3 H9 0.960 . S
C4 N2 1.346 . S
C4 N5 1.307 . S
C4 C6 1.486 . S
N5 N1 1.370 . S
N5 C4 1.307 . S
C6 C4 1.486 . S
C6 H10 0.960 . S
C6 H11 0.960 . S
C6 H12 0.959 . S
H7 C3 0.960 . S
H8 C3 0.961 . S
H9 C3 0.960 . S
H10 C6 0.960 . S
H11 C6 0.960 . S
H12 C6 0.959 . S
C13 N14 1.317 . S
C13 N15 1.348 . S
C13 C16 1.485 . S
N14 C13 1.317 . S
N14 N18 1.370 . S
N15 C13 1.348 . S
N15 C17 1.346 . S
C16 C13 1.485 . S
C16 H20 0.960 . S
C16 H21 0.961 . S
C16 H22 0.960 . S
C17 N15 1.346 . S
C17 N18 1.307 . S
C17 C19 1.486 . S
N18 N14 1.370 . S
N18 C17 1.307 . S
C19 C17 1.486 . S
C19 H23 0.960 . S
C19 H24 0.960 . S
C19 H25 0.959 . S
H20 C16 0.960 . S
H21 C16 0.961 . S
H22 C16 0.960 . S
H23 C19 0.960 . S
H24 C19 0.960 . S
H25 C19 0.959 . S
C26 N27 1.317 . S
C26 N28 1.348 . S
C26 C29 1.485 . S
N27 C26 1.317 . S
N27 N31 1.370 . S
N28 C26 1.348 . S
N28 C30 1.346 . S
C29 C26 1.485 . S
C29 H33 0.960 . S
C29 H34 0.961 . S
C29 H35 0.960 . S
C30 N28 1.346 . S
C30 N31 1.307 . S
C30 C32 1.486 . S
N31 N27 1.370 . S
N31 C30 1.307 . S
C32 C30 1.486 . S
C32 H36 0.960 . S
C32 H37 0.960 . S
C32 H38 0.959 . S
H33 C29 0.960 . S
H34 C29 0.961 . S
H35 C29 0.960 . S
H36 C32 0.960 . S
H37 C32 0.960 . S
H38 C32 0.959 . S
C39 N40 1.317 . S
C39 N41 1.348 . S
C39 C42 1.485 . S
N40 C39 1.317 . S
N40 N44 1.370 . S
N41 C39 1.348 . S
N41 C43 1.346 . S
C42 C39 1.485 . S
C42 H46 0.960 . S
C42 H47 0.961 . S
C42 H48 0.960 . S
C43 N41 1.346 . S
C43 N44 1.307 . S
C43 C45 1.486 . S
N44 N40 1.370 . S
N44 C43 1.307 . S
C45 C43 1.486 . S
C45 H49 0.960 . S
C45 H50 0.960 . S
C45 H51 0.959 . S
H46 C42 0.960 . S
H47 C42 0.961 . S
H48 C42 0.960 . S
H49 C45 0.960 . S
H50 C45 0.960 . S
H51 C45 0.959 . S
C52 N53 1.317 . S
C52 N54 1.348 . S
C52 C55 1.485 . S
N53 C52 1.317 . S
N53 N57 1.370 . S
N54 C52 1.348 . S
N54 C56 1.346 . S
C55 C52 1.485 . S
C55 H59 0.960 . S
C55 H60 0.961 . S
C55 H61 0.960 . S
C56 N54 1.346 . S
C56 N57 1.307 . S
C56 C58 1.486 . S
N57 N53 1.370 . S
N57 C56 1.307 . S
C58 C56 1.486 . S
C58 H62 0.960 . S
C58 H63 0.960 . S
C58 H64 0.959 . S
H59 C55 0.960 . S
H60 C55 0.961 . S
H61 C55 0.960 . S
H62 C58 0.960 . S
H63 C58 0.960 . S
H64 C58 0.959 . S
C65 N66 1.317 . S
C65 N67 1.348 . S
C65 C68 1.485 . S
N66 C65 1.317 . S
N66 N70 1.370 . S
N67 C65 1.348 . S
N67 C69 1.346 . S
C68 C65 1.485 . S
C68 H72 0.960 . S
C68 H73 0.961 . S
C68 H74 0.960 . S
C69 N67 1.346 . S
C69 N70 1.307 . S
C69 C71 1.486 . S
N70 N66 1.370 . S
N70 C69 1.307 . S
C71 C69 1.486 . S
C71 H75 0.960 . S
C71 H76 0.960 . S
C71 H77 0.959 . S
H72 C68 0.960 . S
H73 C68 0.961 . S
H74 C68 0.960 . S
H75 C71 0.960 . S
H76 C71 0.960 . S
H77 C71 0.959 . S
C78 N79 1.317 . S
C78 N80 1.348 . S
C78 C81 1.485 . S
N79 C78 1.317 . S
N79 N83 1.370 . S
N80 C78 1.348 . S
N80 C82 1.346 . S
C81 C78 1.485 . S
C81 H85 0.960 . S
C81 H86 0.961 . S
C81 H87 0.960 . S
C82 N80 1.346 . S
C82 N83 1.307 . S
C82 C84 1.486 . S
N83 N79 1.370 . S
N83 C82 1.307 . S
C84 C82 1.486 . S
C84 H88 0.960 . S
C84 H89 0.960 . S
C84 H90 0.959 . S
H85 C81 0.960 . S
H86 C81 0.961 . S
H87 C81 0.960 . S
H88 C84 0.960 . S
H89 C84 0.960 . S
H90 C84 0.959 . S
C91 N92 1.317 . S
C91 N93 1.348 . S
C91 C94 1.485 . S
N92 C91 1.317 . S
N92 N96 1.370 . S
N93 C91 1.348 . S
N93 C95 1.346 . S
C94 C91 1.485 . S
C94 H98 0.960 . S
C94 H99 0.961 . S
C94 H100 0.960 . S
C95 N93 1.346 . S
C95 N96 1.307 . S
C95 C97 1.486 . S
N96 N92 1.370 . S
N96 C95 1.307 . S
C97 C95 1.486 . S
C97 H101 0.960 . S
C97 H102 0.960 . S
C97 H103 0.959 . S
H98 C94 0.960 . S
H99 C94 0.961 . S
H100 C94 0.960 . S
H101 C97 0.960 . S
H102 C97 0.960 . S
H103 C97 0.959 . S
Gd104 C107 2.818 . S
Gd104 O124 2.377 . S
Gd104 O126 2.448 . S
Gd104 O127 2.506 . S
Gd104 O128 2.435 . S
Gd104 O129 2.717 . S
Gd104 O131 2.395 1_545 S
Gd104 O135 2.327 . S
Gd105 C116 2.818 1_545 S
Gd105 O125 2.395 1_655 S
Gd105 O129 2.327 1_655 S
Gd105 O130 2.377 1_545 S
Gd105 O132 2.448 1_545 S
Gd105 O133 2.506 1_545 S
Gd105 O134 2.435 . S
Gd105 O135 2.717 1_655 S
C106 O124 1.240 . S
C106 O125 1.240 . S
C107 Gd104 2.818 . S
C107 C108 1.510 . S
C107 O126 1.249 . S
C107 O127 1.252 . S
C108 C107 1.510 . S
C108 C109 1.404 . S
C108 C110 1.352 . S
C109 C108 1.404 . S
C109 C113 1.389 . S
C109 H136 0.930 . S
C110 C108 1.352 . S
C110 C112 1.374 . S
C110 H137 0.931 . S
C111 C112 1.359 . S
C111 C113 1.364 . S
C112 C110 1.374 . S
C112 C111 1.359 . S
C112 H138 0.931 . S
C113 C109 1.389 . S
C113 C111 1.364 . S
C113 H139 0.931 . S
C114 O128 1.256 1_565 S
C114 O129 1.257 1_565 S
C115 O130 1.240 . S
C115 O131 1.240 1_655 S
C116 Gd105 2.818 1_565 S
C116 C117 1.510 . S
C116 O132 1.249 . S
C116 O133 1.252 . S
C117 C116 1.510 . S
C117 C118 1.404 . S
C117 C119 1.352 . S
C118 C117 1.404 . S
C118 C122 1.389 . S
C118 H140 0.930 . S
C119 C117 1.352 . S
C119 C121 1.374 . S
C119 H141 0.931 . S
C120 C121 1.359 . S
C120 C122 1.364 . S
C121 C119 1.374 . S
C121 C120 1.359 . S
C121 H142 0.931 . S
C122 C118 1.389 . S
C122 C120 1.364 . S
C122 H143 0.931 . S
C123 O134 1.256 . S
C123 O135 1.257 1_655 S
O124 Gd104 2.377 . S
O124 C106 1.240 . S
O125 Gd105 2.395 1_455 S
O125 C106 1.240 . S
O126 Gd104 2.448 . S
O126 C107 1.249 . S
O127 Gd104 2.506 . S
O127 C107 1.252 . S
O128 Gd104 2.435 . S
O128 C114 1.256 1_545 S
O129 Gd104 2.717 . S
O129 Gd105 2.327 1_455 S
O129 C114 1.257 1_545 S
O130 Gd105 2.377 1_565 S
O130 C115 1.240 . S
O131 Gd104 2.395 1_565 S
O131 C115 1.240 1_455 S
O132 Gd105 2.448 1_565 S
O132 C116 1.249 . S
O133 Gd105 2.506 1_565 S
O133 C116 1.252 . S
O134 Gd105 2.435 . S
O134 C123 1.256 . S
O135 Gd104 2.327 . S
O135 Gd105 2.717 1_455 S
O135 C123 1.257 1_455 S
H136 C109 0.930 . S
H137 C110 0.931 . S
H138 C112 0.931 . S
H139 C113 0.931 . S
H140 C118 0.930 . S
H141 C119 0.931 . S
H142 C121 0.931 . S
H143 C122 0.931 . S
Gd144 C147 2.818 . S
Gd144 O164 2.377 . S
Gd144 O166 2.448 . S
Gd144 O167 2.506 . S
Gd144 O168 2.435 1_545 S
Gd144 O169 2.717 . S
Gd144 O171 2.395 . S
Gd144 O175 2.327 . S
Gd145 C156 2.818 1_554 S
Gd145 O165 2.395 . S
Gd145 O169 2.327 . S
Gd145 O170 2.377 1_554 S
Gd145 O172 2.448 1_554 S
Gd145 O173 2.506 1_544 S
Gd145 O174 2.435 1_554 S
Gd145 O175 2.717 . S
C146 O164 1.240 . S
C146 O165 1.240 . S
C147 Gd144 2.818 . S
C147 C148 1.510 . S
C147 O166 1.249 . S
C147 O167 1.252 . S
C148 C147 1.510 . S
C148 C149 1.404 . S
C148 C150 1.352 . S
C149 C148 1.404 . S
C149 C153 1.389 . S
C149 H176 0.930 . S
C150 C148 1.352 . S
C150 C152 1.374 . S
C150 H177 0.931 . S
C151 C152 1.359 . S
C151 C153 1.364 . S
C152 C150 1.374 . S
C152 C151 1.359 . S
C152 H178 0.931 . S
C153 C149 1.389 . S
C153 C151 1.364 . S
C153 H179 0.931 . S
C154 O168 1.256 . S
C154 O169 1.257 1_565 S
C155 O170 1.255 . S
C155 O171 1.241 1_556 S
C156 Gd145 2.818 1_556 S
C156 C157 1.510 1_545 S
C156 O172 1.249 . S
C156 O173 1.252 1_545 S
C157 C156 1.510 1_565 S
C157 C158 1.404 . S
C157 C159 1.352 . S
C158 C157 1.404 . S
C158 C162 1.389 . S
C158 H180 0.930 1_565 S
C159 C157 1.352 . S
C159 C161 1.374 . S
C159 H181 0.931 . S
C160 C161 1.359 . S
C160 C162 1.364 . S
C161 C159 1.374 . S
C161 C160 1.359 . S
C161 H182 0.931 . S
C162 C158 1.389 . S
C162 C160 1.364 . S
C162 H183 0.931 . S
C163 O174 1.256 1_554 S
C163 O175 1.257 . S
O164 Gd144 2.377 . S
O164 C146 1.240 . S
O165 Gd145 2.395 . S
O165 C146 1.240 . S
O166 Gd144 2.448 . S
O166 C147 1.249 . S
O167 Gd144 2.506 . S
O167 C147 1.252 . S
O168 Gd144 2.435 1_565 S
O168 C154 1.256 . S
O169 Gd144 2.717 . S
O169 Gd145 2.327 . S
O169 C154 1.257 1_545 S
O170 Gd145 2.377 1_556 S
O170 C155 1.255 . S
O171 Gd144 2.395 . S
O171 C155 1.241 1_554 S
O172 Gd145 2.448 1_556 S
O172 C156 1.249 . S
O173 Gd145 2.506 1_566 S
O173 C156 1.252 1_565 S
O174 Gd145 2.435 1_556 S
O174 C163 1.256 1_556 S
O175 Gd144 2.327 . S
O175 Gd145 2.717 . S
O175 C163 1.257 . S
H176 C149 0.930 . S
H177 C150 0.931 . S
H178 C152 0.931 . S
H179 C153 0.931 . S
H180 C158 0.930 1_545 S
H181 C159 0.931 . S
H182 C161 0.931 . S
H183 C162 0.931 . S
Gd184 C187 2.818 . S
Gd184 O204 2.377 . S
Gd184 O206 2.448 . S
Gd184 O207 2.506 . S
Gd184 O208 2.435 . S
Gd184 O209 2.717 . S
Gd184 O211 2.395 . S
Gd184 O215 2.327 . S
Gd185 C196 2.818 . S
Gd185 O205 2.395 . S
Gd185 O209 2.327 . S
Gd185 O210 2.377 . S
Gd185 O212 2.448 . S
Gd185 O213 2.506 . S
Gd185 O214 2.435 . S
Gd185 O215 2.717 . S
C186 O204 1.240 . S
C186 O205 1.240 . S
C187 Gd184 2.818 . S
C187 C188 1.510 . S
C187 O206 1.249 . S
C187 O207 1.252 . S
C188 C187 1.510 . S
C188 C189 1.404 . S
C188 C190 1.352 . S
C189 C188 1.404 . S
C189 C193 1.389 . S
C189 H216 0.930 . S
C190 C188 1.352 . S
C190 C192 1.374 . S
C190 H217 0.931 . S
C191 C192 1.359 . S
C191 C193 1.364 . S
C192 C190 1.374 . S
C192 C191 1.359 . S
C192 H218 0.931 . S
C193 C189 1.389 . S
C193 C191 1.364 . S
C193 H219 0.931 . S
C194 O208 1.256 . S
C194 O209 1.257 . S
C195 O210 1.240 . S
C195 O211 1.240 . S
C196 Gd185 2.818 . S
C196 C197 1.510 . S
C196 O212 1.249 . S
C196 O213 1.252 . S
C197 C196 1.510 . S
C197 C198 1.404 . S
C197 C199 1.352 . S
C198 C197 1.404 . S
C198 C202 1.389 . S
C198 H220 0.930 . S
C199 C197 1.352 . S
C199 C201 1.374 . S
C199 H221 0.931 . S
C200 C201 1.359 . S
C200 C202 1.364 . S
C201 C199 1.374 . S
C201 C200 1.359 . S
C201 H222 0.931 . S
C202 C198 1.389 . S
C202 C200 1.364 . S
C202 H223 0.931 . S
C203 O214 1.256 . S
C203 O215 1.257 . S
O204 Gd184 2.377 . S
O204 C186 1.240 . S
O205 Gd185 2.395 . S
O205 C186 1.240 . S
O206 Gd184 2.448 . S
O206 C187 1.249 . S
O207 Gd184 2.506 . S
O207 C187 1.252 . S
O208 Gd184 2.435 . S
O208 C194 1.256 . S
O209 Gd184 2.717 . S
O209 Gd185 2.327 . S
O209 C194 1.257 . S
O210 Gd185 2.377 . S
O210 C195 1.240 . S
O211 Gd184 2.395 . S
O211 C195 1.240 . S
O212 Gd185 2.448 . S
O212 C196 1.249 . S
O213 Gd185 2.506 . S
O213 C196 1.252 . S
O214 Gd185 2.435 . S
O214 C203 1.256 . S
O215 Gd184 2.327 . S
O215 Gd185 2.717 . S
O215 C203 1.257 . S
H216 C189 0.930 . S
H217 C190 0.931 . S
H218 C192 0.931 . S
H219 C193 0.931 . S
H220 C198 0.930 . S
H221 C199 0.931 . S
H222 C201 0.931 . S
H223 C202 0.931 . S
Gd224 C227 2.818 . S
Gd224 O244 2.377 . S
Gd224 O246 2.448 . S
Gd224 O247 2.506 . S
Gd224 O248 2.435 1_455 S
Gd224 O249 2.717 1_455 S
Gd224 O251 2.395 1_455 S
Gd224 O255 2.327 1_554 S
Gd225 C236 2.818 1_455 S
Gd225 O245 2.395 1_556 S
Gd225 O249 2.327 1_456 S
Gd225 O250 2.377 1_455 S
Gd225 O252 2.448 1_455 S
Gd225 O253 2.506 1_455 S
Gd225 O254 2.435 . S
Gd225 O255 2.717 . S
C226 O244 1.240 . S
C226 O245 1.240 . S
C227 Gd224 2.818 . S
C227 C228 1.510 . S
C227 O246 1.249 . S
C227 O247 1.252 . S
C228 C227 1.510 . S
C228 C229 1.404 . S
C228 C230 1.352 . S
C229 C228 1.404 . S
C229 C233 1.389 . S
C229 H256 0.930 . S
C230 C228 1.352 . S
C230 C232 1.374 . S
C230 H257 0.931 . S
C231 C232 1.359 . S
C231 C233 1.364 . S
C232 C230 1.374 . S
C232 C231 1.359 . S
C232 H258 0.931 . S
C233 C229 1.389 . S
C233 C231 1.364 . S
C233 H259 0.931 . S
C234 O248 1.256 . S
C234 O249 1.257 . S
C235 O250 1.240 . S
C235 O251 1.240 1_556 S
C236 Gd225 2.818 1_655 S
C236 C237 1.510 . S
C236 O252 1.249 . S
C236 O253 1.252 . S
C237 C236 1.510 . S
C237 C238 1.404 . S
C237 C239 1.352 . S
C238 C237 1.404 . S
C238 C242 1.389 . S
C238 H260 0.930 . S
C239 C237 1.352 . S
C239 C241 1.374 . S
C239 H261 0.931 . S
C240 C241 1.359 . S
C240 C242 1.364 . S
C241 C239 1.374 . S
C241 C240 1.359 . S
C241 H262 0.931 . S
C242 C238 1.389 . S
C242 C240 1.364 . S
C242 H263 0.931 . S
C243 O254 1.256 . S
C243 O255 1.257 . S
O244 Gd224 2.377 . S
O244 C226 1.240 . S
O245 Gd225 2.395 1_554 S
O245 C226 1.240 . S
O246 Gd224 2.448 . S
O246 C227 1.249 . S
O247 Gd224 2.506 . S
O247 C227 1.252 . S
O248 Gd224 2.435 1_655 S
O248 C234 1.256 . S
O249 Gd224 2.717 1_655 S
O249 Gd225 2.327 1_654 S
O249 C234 1.257 . S
O250 Gd225 2.377 1_655 S
O250 C235 1.240 . S
O251 Gd224 2.395 1_655 S
O251 C235 1.240 1_554 S
O252 Gd225 2.448 1_655 S
O252 C236 1.249 . S
O253 Gd225 2.506 1_655 S
O253 C236 1.252 . S
O254 Gd225 2.435 . S
O254 C243 1.256 . S
O255 Gd224 2.327 1_556 S
O255 Gd225 2.717 . S
O255 C243 1.257 . S
H256 C229 0.930 . S
H257 C230 0.931 . S
H258 C232 0.931 . S
H259 C233 0.931 . S
H260 C238 0.930 . S
H261 C239 0.931 . S
H262 C241 0.931 . S
H263 C242 0.931 . S
C264 C265 1.387 . S
C264 H268 0.950 . S
C264 C273 1.390 . S
C265 C264 1.387 . S
C265 C267 1.387 . S
H266 C273 0.950 . S
C267 C265 1.387 . S
C267 C269 1.390 . S
C267 H271 0.950 . S
H268 C264 0.950 . S
C269 C267 1.390 . S
C269 C270 1.387 . S
C269 H272 0.950 . S
C270 C269 1.387 . S
C270 C273 1.387 . S
H271 C267 0.950 . S
H272 C269 0.950 . S
C273 C264 1.390 . S
C273 H266 0.950 . S
C273 C270 1.387 . S
C274 C275 1.387 . S
C274 H278 0.950 . S
C274 C283 1.390 . S
C275 C274 1.387 . S
C275 C277 1.387 . S
H276 C283 0.950 . S
C277 C275 1.387 . S
C277 C279 1.390 . S
C277 H281 0.950 . S
H278 C274 0.950 . S
C279 C277 1.390 . S
C279 C280 1.387 . S
C279 H282 0.950 . S
C280 C279 1.387 . S
C280 C283 1.387 . S
H281 C277 0.950 . S
H282 C279 0.950 . S
C283 C274 1.390 . S
C283 H276 0.950 . S
C283 C280 1.387 . S
C284 C285 1.387 . S
C284 H288 0.950 . S
C284 C293 1.390 . S
C285 C284 1.387 . S
C285 C287 1.387 . S
H286 C293 0.950 . S
C287 C285 1.387 . S
C287 C289 1.390 . S
C287 H291 0.950 . S
H288 C284 0.950 . S
C289 C287 1.390 . S
C289 C290 1.387 . S
C289 H292 0.950 . S
C290 C289 1.387 . S
C290 C293 1.387 . S
H291 C287 0.950 . S
H292 C289 0.950 . S
C293 C284 1.390 . S
C293 H286 0.950 . S
C293 C290 1.387 . S
C294 C295 1.387 . S
C294 H298 0.950 . S
C294 C303 1.390 . S
C295 C294 1.387 . S
C295 C297 1.387 . S
H296 C303 0.950 . S
C297 C295 1.387 . S
C297 C299 1.390 . S
C297 H301 0.950 . S
H298 C294 0.950 . S
C299 C297 1.390 . S
C299 C300 1.387 . S
C299 H302 0.950 . S
C300 C299 1.387 . S
C300 C303 1.387 . S
H301 C297 0.950 . S
H302 C299 0.950 . S
C303 C294 1.390 . S
C303 H296 0.950 . S
C303 C300 1.387 . S
C304 C305 1.387 . S
C304 H308 0.950 . S
C304 C313 1.390 . S
C305 C304 1.387 . S
C305 C307 1.387 . S
H306 C313 0.950 . S
C307 C305 1.387 . S
C307 C309 1.390 . S
C307 H311 0.950 . S
H308 C304 0.950 . S
C309 C307 1.390 . S
C309 C310 1.387 . S
C309 H312 0.950 . S
C310 C309 1.387 . S
C310 C313 1.387 . S
H311 C307 0.950 . S
H312 C309 0.950 . S
C313 C304 1.390 . S
C313 H306 0.950 . S
C313 C310 1.387 . S
C314 C315 1.387 . S
C314 H318 0.950 . S
C314 C323 1.390 . S
C315 C314 1.387 . S
C315 C317 1.387 . S
H316 C323 0.950 . S
C317 C315 1.387 . S
C317 C319 1.390 . S
C317 H321 0.950 . S
H318 C314 0.950 . S
C319 C317 1.390 . S
C319 C320 1.387 . S
C319 H322 0.950 1_565 S
C320 C319 1.387 . S
C320 C323 1.387 . S
H321 C317 0.950 . S
H322 C319 0.950 1_545 S
C323 C314 1.390 . S
C323 H316 0.950 . S
C323 C320 1.387 . S
C324 C325 1.387 . S
C324 H328 0.950 . S
C324 C333 1.390 . S
C325 C324 1.387 . S
C325 C327 1.387 . S
H326 C333 0.950 . S
C327 C325 1.387 . S
C327 C329 1.390 . S
C327 H331 0.950 . S
H328 C324 0.950 . S
C329 C327 1.390 . S
C329 C330 1.387 . S
C329 H332 0.950 . S
C330 C329 1.387 . S
C330 C333 1.387 . S
H331 C327 0.950 . S
H332 C329 0.950 . S
C333 C324 1.390 . S
C333 H326 0.950 . S
C333 C330 1.387 . S
C334 C335 1.387 . S
C334 H338 0.950 . S
C334 C343 1.390 . S
C335 C334 1.387 . S
C335 C337 1.387 . S
H336 C343 0.950 . S
C337 C335 1.387 . S
C337 C339 1.390 . S
C337 H341 0.950 . S
H338 C334 0.950 . S
C339 C337 1.390 . S
C339 C340 1.387 . S
C339 H342 0.950 . S
C340 C339 1.387 . S
C340 C343 1.387 . S
H341 C337 0.950 . S
H342 C339 0.950 . S
C343 C334 1.390 . S
C343 H336 0.950 . S
C343 C340 1.387 . S
C344 C345 1.387 . S
C344 H348 0.950 . S
C344 C353 1.390 . S
C345 C344 1.387 . S
C345 C347 1.387 . S
H346 C353 0.950 . S
C347 C345 1.387 . S
C347 C349 1.390 . S
C347 H351 0.950 . S
H348 C344 0.950 . S
C349 C347 1.390 . S
C349 C350 1.387 . S
C349 H352 0.950 . S
C350 C349 1.387 . S
C350 C353 1.387 . S
H351 C347 0.950 . S
H352 C349 0.950 . S
C353 C344 1.390 . S
C353 H346 0.950 . S
C353 C350 1.387 . S
C354 C355 1.387 . S
C354 H358 0.950 . S
C354 C363 1.390 . S
C355 C354 1.387 . S
C355 C357 1.387 . S
H356 C363 0.950 1_554 S
C357 C355 1.387 . S
C357 C359 1.390 . S
C357 H361 0.950 . S
H358 C354 0.950 . S
C359 C357 1.390 . S
C359 C360 1.387 . S
C359 H362 0.950 . S
C360 C359 1.387 . S
C360 C363 1.387 . S
H361 C357 0.950 . S
H362 C359 0.950 . S
C363 C354 1.390 . S
C363 H356 0.950 1_556 S
C363 C360 1.387 . S
C364 C365 1.387 . S
C364 H368 0.950 . S
C364 C373 1.390 . S
C365 C364 1.387 . S
C365 C367 1.387 . S
H366 C373 0.950 . S
C367 C365 1.387 . S
C367 C369 1.390 . S
C367 H371 0.950 . S
H368 C364 0.950 . S
C369 C367 1.390 . S
C369 C370 1.387 . S
C369 H372 0.950 . S
C370 C369 1.387 . S
C370 C373 1.387 . S
H371 C367 0.950 . S
H372 C369 0.950 . S
C373 C364 1.390 . S
C373 H366 0.950 . S
C373 C370 1.387 . S
C374 C375 1.387 . S
C374 H378 0.950 . S
C374 C383 1.390 . S
C375 C374 1.387 . S
C375 C377 1.387 . S
H376 C383 0.950 . S
C377 C375 1.387 . S
C377 C379 1.390 . S
C377 H381 0.950 . S
H378 C374 0.950 . S
C379 C377 1.390 . S
C379 C380 1.387 . S
C379 H382 0.950 . S
C380 C379 1.387 . S
C380 C383 1.387 . S
H381 C377 0.950 . S
H382 C379 0.950 . S
C383 C374 1.390 . S
C383 H376 0.950 . S
C383 C380 1.387 . S
C384 C385 1.387 . S
C384 H388 0.950 . S
C384 C393 1.390 . S
C385 C384 1.387 . S
C385 C387 1.387 . S
H386 C393 0.950 . S
C387 C385 1.387 . S
C387 C389 1.390 . S
C387 H391 0.950 . S
H388 C384 0.950 . S
C389 C387 1.390 . S
C389 C390 1.387 . S
C389 H392 0.950 . S
C390 C389 1.387 . S
C390 C393 1.387 . S
H391 C387 0.950 . S
H392 C389 0.950 . S
C393 C384 1.390 . S
C393 H386 0.950 . S
C393 C390 1.387 . S
C394 C395 1.387 . S
C394 H398 0.950 . S
C394 C403 1.390 . S
C395 C394 1.387 . S
C395 C397 1.387 . S
H396 C403 0.950 . S
C397 C395 1.387 . S
C397 C399 1.390 . S
C397 H401 0.950 . S
H398 C394 0.950 . S
C399 C397 1.390 . S
C399 C400 1.387 . S
C399 H402 0.950 . S
C400 C399 1.387 . S
C400 C403 1.387 . S
H401 C397 0.950 . S
H402 C399 0.950 . S
C403 C394 1.390 . S
C403 H396 0.950 . S
C403 C400 1.387 . S
C404 C405 1.387 . S
C404 H408 0.950 . S
C404 C413 1.390 . S
C405 C404 1.387 . S
C405 C407 1.387 . S
H406 C413 0.950 . S
C407 C405 1.387 . S
C407 C409 1.390 . S
C407 H411 0.950 . S
H408 C404 0.950 . S
C409 C407 1.390 . S
C409 C410 1.387 . S
C409 H412 0.950 . S
C410 C409 1.387 . S
C410 C413 1.387 . S
H411 C407 0.950 . S
H412 C409 0.950 . S
C413 C404 1.390 . S
C413 H406 0.950 . S
C413 C410 1.387 . S
C414 C415 1.387 . S
C414 H418 0.950 . S
C414 C423 1.390 . S
C415 C414 1.387 . S
C415 C417 1.387 . S
H416 C423 0.950 . S
C417 C415 1.387 . S
C417 C419 1.390 . S
C417 H421 0.950 . S
H418 C414 0.950 . S
C419 C417 1.390 . S
C419 C420 1.387 . S
C419 H422 0.950 . S
C420 C419 1.387 . S
C420 C423 1.387 . S
H421 C417 0.950 . S
H422 C419 0.950 . S
C423 C414 1.390 . S
C423 H416 0.950 . S
C423 C420 1.387 . S
C424 C425 1.387 . S
C424 H428 0.950 . S
C424 C433 1.390 . S
C425 C424 1.387 . S
C425 C427 1.387 . S
H426 C433 0.950 . S
C427 C425 1.387 . S
C427 C429 1.390 . S
C427 H431 0.950 . S
H428 C424 0.950 . S
C429 C427 1.390 . S
C429 C430 1.387 . S
C429 H432 0.950 . S
C430 C429 1.387 . S
C430 C433 1.387 . S
H431 C427 0.950 . S
H432 C429 0.950 . S
C433 C424 1.390 . S
C433 H426 0.950 . S
C433 C430 1.387 . S
C434 C435 1.387 . S
C434 H438 0.950 . S
C434 C443 1.390 . S
C435 C434 1.387 . S
C435 C437 1.387 . S
H436 C443 0.950 . S
C437 C435 1.387 . S
C437 C439 1.390 . S
C437 H441 0.950 . S
H438 C434 0.950 . S
C439 C437 1.390 . S
C439 C440 1.387 . S
C439 H442 0.950 . S
C440 C439 1.387 . S
C440 C443 1.387 . S
H441 C437 0.950 . S
H442 C439 0.950 . S
C443 C434 1.390 . S
C443 H436 0.950 . S
C443 C440 1.387 . S
C444 C445 1.387 . S
C444 H448 0.950 . S
C444 C453 1.390 . S
C445 C444 1.387 . S
C445 C447 1.387 . S
H446 C453 0.950 . S
C447 C445 1.387 . S
C447 C449 1.390 . S
C447 H451 0.950 . S
H448 C444 0.950 . S
C449 C447 1.390 . S
C449 C450 1.387 . S
C449 H452 0.950 . S
C450 C449 1.387 . S
C450 C453 1.387 . S
H451 C447 0.950 . S
H452 C449 0.950 . S
C453 C444 1.390 . S
C453 H446 0.950 . S
C453 C450 1.387 . S
C454 C455 1.387 . S
C454 H458 0.950 . S
C454 C463 1.390 . S
C455 C454 1.387 . S
C455 C457 1.387 . S
H456 C463 0.950 . S
C457 C455 1.387 . S
C457 C459 1.390 . S
C457 H461 0.950 . S
H458 C454 0.950 . S
C459 C457 1.390 . S
C459 C460 1.387 . S
C459 H462 0.950 . S
C460 C459 1.387 . S
C460 C463 1.387 . S
H461 C457 0.950 . S
H462 C459 0.950 . S
C463 C454 1.390 . S
C463 H456 0.950 . S
C463 C460 1.387 . S
C464 C465 1.387 . S
C464 H468 0.950 . S
C464 C473 1.390 . S
C465 C464 1.387 . S
C465 C467 1.387 . S
H466 C473 0.950 . S
C467 C465 1.387 . S
C467 C469 1.390 . S
C467 H471 0.950 . S
H468 C464 0.950 . S
C469 C467 1.390 . S
C469 C470 1.387 . S
C469 H472 0.950 . S
C470 C469 1.387 . S
C470 C473 1.387 . S
H471 C467 0.950 . S
H472 C469 0.950 . S
C473 C464 1.390 . S
C473 H466 0.950 . S
C473 C470 1.387 . S
C474 C475 1.387 . S
C474 H478 0.950 . S
C474 C483 1.390 . S
C475 C474 1.387 . S
C475 C477 1.387 . S
H476 C483 0.950 . S
C477 C475 1.387 . S
C477 C479 1.390 . S
C477 H481 0.950 . S
H478 C474 0.950 . S
C479 C477 1.390 . S
C479 C480 1.387 . S
C479 H482 0.950 . S
C480 C479 1.387 . S
C480 C483 1.387 . S
H481 C477 0.950 . S
H482 C479 0.950 . S
C483 C474 1.390 . S
C483 H476 0.950 . S
C483 C480 1.387 . S
C484 C485 1.387 . S
C484 H488 0.950 . S
C484 C493 1.390 . S
C485 C484 1.387 . S
C485 C487 1.387 . S
H486 C493 0.950 . S
C487 C485 1.387 . S
C487 C489 1.390 . S
C487 H491 0.950 . S
H488 C484 0.950 . S
C489 C487 1.390 . S
C489 C490 1.387 . S
C489 H492 0.950 . S
C490 C489 1.387 . S
C490 C493 1.387 . S
H491 C487 0.950 . S
H492 C489 0.950 . S
C493 C484 1.390 . S
C493 H486 0.950 . S
C493 C490 1.387 . S
C494 C495 1.387 . S
C494 H498 0.950 . S
C494 C503 1.390 . S
C495 C494 1.387 . S
C495 C497 1.387 . S
H496 C503 0.950 . S
C497 C495 1.387 . S
C497 C499 1.390 . S
C497 H501 0.950 . S
H498 C494 0.950 . S
C499 C497 1.390 . S
C499 C500 1.387 . S
C499 H502 0.950 . S
C500 C499 1.387 . S
C500 C503 1.387 . S
H501 C497 0.950 . S
H502 C499 0.950 . S
C503 C494 1.390 . S
C503 H496 0.950 . S
C503 C500 1.387 . S
C265 N1 0.979 . S
C270 C111 1.007 . S
C275 N18 1.115 . S
C280 C160 1.184 . S
C290 C186 2.181 . S
C285 N28 2.226 . S
C295 N40 2.666 . S
C300 C234 2.677 . S
C310 C146 2.257 . S
C305 N5 2.171 . S
C320 C114 0.641 . S
C315 N14 0.628 . S
C330 C235 2.058 . S
C325 N31 2.049 . S
C340 C203 1.580 . S
C335 N41 1.595 . S
C345 N2 1.322 . S
C350 C231 1.367 . S
C360 C163 2.476 1_556 S
C355 N27 2.540 . S
C365 N44 2.429 . S
C370 C115 2.497 . S
C375 N15 1.008 . S
C380 C200 1.009 . S
C390 C120 1.494 . S
C385 N57 1.553 . S
C395 N70 1.003 . S
C400 C151 1.095 . S
C405 N79 2.361 . S
C410 C195 2.407 . S
C415 N93 2.499 . S
C420 C243 2.478 . S
C425 N54 1.855 . S
C430 C155 2.021 1_565 S
C440 C123 1.395 . S
C435 N66 1.476 . S
C450 C226 1.601 . S
C445 N80 1.660 . S
C460 C194 1.813 . S
C455 N96 1.818 . S
C465 N53 1.536 . S
C470 C240 1.541 . S
C480 C154 2.199 . S
C475 N83 2.196 . S
C490 C106 2.639 . S
C485 N92 2.645 . S
C495 N67 1.202 . S
C500 C191 1.240 . S
