# Generated by pormake.
# Topology cml, (3,6)-cn, num edge types: 1
# Building blocks:
#     Node 0, Type 0, BuildingBlock: BETDIP_clean_linker_0, # of connection points: 3
#     Node 1, Type 0, BuildingBlock: BETDIP_clean_linker_0, # of connection points: 3
#     Node 2, Type 0, BuildingBlock: BETDIP_clean_linker_0, # of connection points: 3
#     Node 3, Type 0, BuildingBlock: BETDIP_clean_linker_0, # of connection points: 3
#     Node 4, Type 0, BuildingBlock: BETDIP_clean_linker_0, # of connection points: 3
#     Node 5, Type 0, BuildingBlock: BETDIP_clean_linker_0, # of connection points: 3
#     Node 6, Type 0, BuildingBlock: BETDIP_clean_linker_0, # of connection points: 3
#     Node 7, Type 0, BuildingBlock: BETDIP_clean_linker_0, # of connection points: 3
#     Node 8, Type 1, BuildingBlock: IZENUY_clean_sbu_0, # of connection points: 6
#     Node 9, Type 1, BuildingBlock: IZENUY_clean_sbu_0, # of connection points: 6
#     Node 10, Type 1, BuildingBlock: IZENUY_clean_sbu_0, # of connection points: 6
#     Node 11, Type 1, BuildingBlock: IZENUY_clean_sbu_0, # of connection points: 6
#     Edge 12, Type (0, 1), BuildingBlock: OJICUG_clean_linker_0, # of connection points: 2
#     Edge 13, Type (0, 1), BuildingBlock: OJICUG_clean_linker_0, # of connection points: 2
#     Edge 14, Type (0, 1), BuildingBlock: OJICUG_clean_linker_0, # of connection points: 2
#     Edge 15, Type (0, 1), BuildingBlock: OJICUG_clean_linker_0, # of connection points: 2
#     Edge 16, Type (0, 1), BuildingBlock: OJICUG_clean_linker_0, # of connection points: 2
#     Edge 17, Type (0, 1), BuildingBlock: OJICUG_clean_linker_0, # of connection points: 2
#     Edge 18, Type (0, 1), BuildingBlock: OJICUG_clean_linker_0, # of connection points: 2
#     Edge 19, Type (0, 1), BuildingBlock: OJICUG_clean_linker_0, # of connection points: 2
#     Edge 20, Type (0, 1), BuildingBlock: OJICUG_clean_linker_0, # of connection points: 2
#     Edge 21, Type (0, 1), BuildingBlock: OJICUG_clean_linker_0, # of connection points: 2
#     Edge 22, Type (0, 1), BuildingBlock: OJICUG_clean_linker_0, # of connection points: 2
#     Edge 23, Type (0, 1), BuildingBlock: OJICUG_clean_linker_0, # of connection points: 2
#     Edge 24, Type (0, 1), BuildingBlock: OJICUG_clean_linker_0, # of connection points: 2
#     Edge 25, Type (0, 1), BuildingBlock: OJICUG_clean_linker_0, # of connection points: 2
#     Edge 26, Type (0, 1), BuildingBlock: OJICUG_clean_linker_0, # of connection points: 2
#     Edge 27, Type (0, 1), BuildingBlock: OJICUG_clean_linker_0, # of connection points: 2
#     Edge 28, Type (0, 1), BuildingBlock: OJICUG_clean_linker_0, # of connection points: 2
#     Edge 29, Type (0, 1), BuildingBlock: OJICUG_clean_linker_0, # of connection points: 2
#     Edge 30, Type (0, 1), BuildingBlock: OJICUG_clean_linker_0, # of connection points: 2
#     Edge 31, Type (0, 1), BuildingBlock: OJICUG_clean_linker_0, # of connection points: 2
#     Edge 32, Type (0, 1), BuildingBlock: OJICUG_clean_linker_0, # of connection points: 2
#     Edge 33, Type (0, 1), BuildingBlock: OJICUG_clean_linker_0, # of connection points: 2
#     Edge 34, Type (0, 1), BuildingBlock: OJICUG_clean_linker_0, # of connection points: 2
#     Edge 35, Type (0, 1), BuildingBlock: OJICUG_clean_linker_0, # of connection points: 2
# Relax obj value: 0.003
# Max RMSD: 0.063
# Mean RMSD: 0.051
data_MOF--net-cml--node1-IZENUY_clean_sbu_0--node2-BETDIP_clean_linker_0--edge1-OJICUG_clean_linker_0
_symmetry_space_group_name_H-M    P1
_symmetry_Int_Tables_number       1
_symmetry_cell_setting            triclinic
loop_
_symmetry_equiv_pos_as_xyz
'x, y, z'
_cell_length_a     27.173587
_cell_length_b     29.586089
_cell_length_c     26.938692
_cell_angle_alpha  89.995505
_cell_angle_beta   89.931938
_cell_angle_gamma 90.040912
loop_
_atom_site_label
_atom_site_type_symbol
_atom_site_fract_x
_atom_site_fract_y
_atom_site_fract_z
_atom_type_partial_charge
H0 H 0.28225 0.34726 0.06921 0.0
H1 H 0.29765 0.42002 0.93154 0.0
H2 H 0.38157 0.45965 0.05929 0.0
H3 H 0.25912 0.36136 0.89867 0.0
C4 C 0.23697 0.34551 0.92733 0.0
C5 C 0.29892 0.37432 0.04788 0.0
C6 C 0.33382 0.40268 0.07009 0.0
C7 C 0.2853 0.38037 -0.00186 0.0
C8 C 0.30737 0.41521 0.97003 0.0
C9 C 0.34284 0.44375 0.99167 0.0
C10 C 0.35474 0.43765 0.04198 0.0
N11 N 0.24899 0.35088 0.97832 0.0
H12 H 0.73844 0.67274 0.57295 0.0
H13 H 0.73855 0.59505 0.43757 0.0
H14 H 0.6476 0.55444 0.55971 0.0
H15 H 0.80034 0.63688 0.41526 0.0
C16 C 0.80405 0.6665 0.43862 0.0
C17 C 0.72598 0.64379 0.55173 0.0
C18 C 0.69167 0.61374 0.5725 0.0
C19 C 0.74414 0.63719 0.50353 0.0
C20 C 0.72667 0.6002 0.47541 0.0
C21 C 0.69238 0.56973 0.49589 0.0
C22 C 0.67571 0.57655 0.54459 0.0
N23 N 0.77837 0.66944 0.48457 0.0
H24 H 0.73823 0.35772 0.07373 0.0
H25 H 0.74013 0.43601 0.93882 0.0
H26 H 0.64731 0.47582 0.05984 0.0
H27 H 0.80494 0.39655 0.91916 0.0
C28 C 0.80695 0.36589 0.9411 0.0
C29 C 0.726 0.38673 0.05251 0.0
C30 C 0.6913 0.41658 0.07296 0.0
C31 C 0.74493 0.39371 0.00466 0.0
C32 C 0.72774 0.43074 0.97648 0.0
C33 C 0.69304 0.46096 0.99659 0.0
C34 C 0.67567 0.45386 0.04501 0.0
N35 N 0.77952 0.36173 0.98591 0.0
H36 H 0.28405 0.68019 0.56848 0.0
H37 H 0.2846 0.60023 0.43497 0.0
H38 H 0.38229 0.56716 0.55463 0.0
H39 H 0.25499 0.66354 0.40029 0.0
C40 C 0.23289 0.67973 0.42877 0.0
C41 C 0.29856 0.65209 0.5472 0.0
C42 C 0.33445 0.6238 0.56795 0.0
C43 C 0.28117 0.64459 0.49891 0.0
C44 C 0.29912 0.60752 0.47145 0.0
C45 C 0.3352 0.5789 0.49165 0.0
C46 C 0.35282 0.58771 0.53966 0.0
N47 N 0.24494 0.6745 0.47979 0.0
H48 H 0.78415 0.84857 0.06877 0.0
H49 H 0.78436 0.92861 0.93531 0.0
H50 H 0.8822 0.96187 0.0548 0.0
H51 H 0.75519 0.86509 0.90062 0.0
C52 C 0.73295 0.84896 0.92906 0.0
C53 C 0.79858 0.87671 0.04748 0.0
C54 C 0.83447 0.9051 0.06819 0.0
C55 C 0.78112 0.8842 -0.00078 0.0
C56 C 0.79895 0.92133 0.97176 0.0
C57 C 0.83502 0.95003 0.9919 0.0
C58 C 0.85274 0.94125 0.03988 0.0
N59 N 0.74492 0.85422 0.9801 0.0
H60 H 0.23839 0.1715 0.57423 0.0
H61 H 0.24043 0.09328 0.43929 0.0
H62 H 0.14731 0.05339 0.56009 0.0
H63 H 0.30595 0.13216 0.42031 0.0
C64 C 0.30764 0.16305 0.44189 0.0
C65 C 0.22615 0.14249 0.55297 0.0
C66 C 0.19136 0.11264 0.57333 0.0
C67 C 0.2452 0.13551 0.50517 0.0
C68 C 0.228 0.09851 0.47694 0.0
C69 C 0.1932 0.06829 0.49695 0.0
C70 C 0.17573 0.07537 0.54533 0.0
N71 N 0.27989 0.16747 0.48646 0.0
H72 H 0.23836 0.85654 0.07251 0.0
H73 H 0.23831 0.93429 0.93715 0.0
H74 H 0.14763 0.9748 0.05948 0.0
H75 H 0.29878 0.89145 0.91383 0.0
C76 C 0.30313 0.86228 0.93774 0.0
C77 C 0.22589 0.88549 0.05131 0.0
C78 C 0.19166 0.91553 0.07217 0.0
C79 C 0.24391 0.89207 0.00306 0.0
C80 C 0.22646 0.92909 0.97498 0.0
C81 C 0.19225 0.95955 0.99555 0.0
C82 C 0.17568 0.95271 0.04429 0.0
N83 N 0.27805 0.85979 0.98406 0.0
H84 H 0.78223 0.18154 0.56888 0.0
H85 H 0.79793 0.10889 0.43119 0.0
H86 H 0.88163 0.06933 0.5591 0.0
H87 H 0.75892 0.16725 0.39833 0.0
C88 C 0.73695 0.18322 0.42702 0.0
C89 C 0.79896 0.15452 0.54757 0.0
C90 C 0.83384 0.12621 0.56983 0.0
C91 C 0.78541 0.14846 0.49781 0.0
C92 C 0.80757 0.11369 0.46971 0.0
C93 C 0.84303 0.08521 0.49139 0.0
C94 C 0.85483 0.0913 0.54174 0.0
N95 N 0.74909 0.1779 0.47799 0.0
Fe96 Fe 0.01012 0.82625 0.29714 0.0
Fe97 Fe 0.01125 0.86792 0.40169 0.0
O98 O 0.01016 0.87454 0.33624 0.0
Fe99 Fe 0.00956 0.92943 0.31006 0.0
O100 O 0.97236 0.91363 0.25631 0.0
O101 O 0.95236 0.8424 0.26815 0.0
O102 O 0.97403 0.79117 0.34006 0.0
C103 C 0.94611 0.80131 0.37611 0.0
C104 C 0.07371 0.88713 0.24695 0.0
O105 O 0.9534 0.83687 0.40106 0.0
C106 C 0.0759 0.93822 0.39077 0.0
O107 O 0.068 0.80669 0.32279 0.0
O108 O 0.04726 0.81549 0.40095 0.0
O109 O 0.06651 0.91923 0.27686 0.0
O110 O 0.04612 0.85264 0.24728 0.0
C111 C 0.94787 0.9434 0.388 0.0
O112 O 0.06916 0.89854 0.40679 0.0
O113 O 0.04699 0.95521 0.35903 0.0
C114 C 0.07568 0.79933 0.36822 0.0
O115 O 0.976 0.91946 0.41461 0.0
O116 O 0.95244 0.94385 0.34147 0.0
C117 C 0.94475 0.88011 0.24765 0.0
Fe118 Fe 0.00987 0.16156 0.90248 0.0
Fe119 Fe 1.00794 0.10012 0.81054 0.0
O120 O 1.009 0.15496 0.83702 0.0
Fe121 Fe 0.00968 0.20328 0.79787 0.0
O122 O 0.06803 0.22189 0.82315 0.0
O123 O 0.04796 0.21289 0.9016 0.0
O124 O 0.0667 0.12945 0.90825 0.0
C125 C 0.07317 0.08993 0.89182 0.0
C126 C 0.94676 0.22983 0.87697 0.0
O127 O 0.04459 0.07357 0.85945 0.0
C128 C 0.94314 0.15021 0.74908 0.0
O129 O 0.97211 0.11134 0.91509 0.0
O130 O 0.9508 0.0859 0.84151 0.0
O131 O 0.97474 0.23931 0.84079 0.0
O132 O 0.95314 0.19409 0.90172 0.0
C133 C 0.07241 0.14192 0.74752 0.0
O134 O 0.97094 0.11663 0.75684 0.0
O135 O 0.95139 0.18783 0.76954 0.0
C136 C 0.94428 0.08762 0.8878 0.0
O137 O 0.06518 0.11005 0.7777 0.0
O138 O 0.04481 0.17637 0.74767 0.0
C139 C 0.07634 0.22878 0.86856 0.0
Fe140 Fe 0.51 0.32581 0.29789 0.0
Fe141 Fe 0.51031 0.36757 0.40246 0.0
O142 O 0.50941 0.37415 0.337 0.0
Fe143 Fe 0.50838 0.42897 0.31049 0.0
O144 O 0.47132 0.41241 0.25682 0.0
O145 O 0.45169 0.34121 0.26963 0.0
O146 O 0.4751 0.28976 0.34088 0.0
C147 C 0.44716 0.29924 0.37708 0.0
C148 C 0.57274 0.38718 0.24743 0.0
O149 O 0.45357 0.33501 0.40177 0.0
C150 C 0.57363 0.43925 0.39176 0.0
O151 O 0.56836 0.30724 0.32311 0.0
O152 O 0.54839 0.31626 0.40158 0.0
O153 O 0.56559 0.41905 0.27762 0.0
O154 O 0.5451 0.35272 0.24763 0.0
C155 C 0.44476 0.44147 0.38777 0.0
O156 O 0.56715 0.39972 0.40819 0.0
O157 O 0.54508 0.45557 0.35935 0.0
C158 C 0.57671 0.30035 0.36852 0.0
O159 O 0.47258 0.41777 0.41507 0.0
O160 O 0.45127 0.44318 0.34148 0.0
C161 C 0.44346 0.37882 0.24914 0.0
Fe162 Fe 0.51079 0.66122 0.90171 0.0
Fe163 Fe 0.50911 0.59968 0.8101 0.0
O164 O 0.50973 0.65459 0.83626 0.0
Fe165 Fe 0.50975 0.70286 0.79713 0.0
O166 O 0.56762 0.72248 0.82283 0.0
O167 O 0.54681 0.71368 0.90097 0.0
O168 O 0.5687 0.63065 0.90685 0.0
C169 C 0.57544 0.59098 0.89082 0.0
C170 C 0.44566 0.72775 0.87601 0.0
O171 O 0.54651 0.57395 0.8591 0.0
C172 C 0.4444 0.64894 0.74761 0.0
O173 O 0.47554 0.60966 0.91463 0.0
O174 O 0.45197 0.58523 0.84151 0.0
O175 O 0.47363 0.73792 0.83999 0.0
O176 O 0.45296 0.69222 0.90103 0.0
C177 C 0.57336 0.64202 0.74703 0.0
O178 O 0.47196 0.61543 0.75633 0.0
O179 O 0.45202 0.68666 0.76809 0.0
C180 C 0.44741 0.58569 0.88803 0.0
O181 O 0.56609 0.60992 0.77693 0.0
O182 O 0.5458 0.6765 0.74732 0.0
C183 C 0.57528 0.72983 0.86826 0.0
C184 C 0.18624 0.30796 0.86204 0.0
C185 C 0.19592 0.31557 0.9125 0.0
H186 H 0.141 0.27446 0.80836 0.0
C187 C 0.16619 0.29444 0.94836 0.0
H188 H 0.20867 0.32386 0.83371 0.0
C189 C 0.12748 0.26629 0.93401 0.0
C190 C 0.11761 0.25859 0.88347 0.0
H191 H 0.17265 0.29962 0.98761 0.0
H192 H 0.10533 0.25054 0.96264 0.0
C193 C 0.14752 0.27968 0.84761 0.0
C194 C 0.84676 0.74146 0.45137 0.0
C195 C 0.83888 0.70232 0.42281 0.0
H196 H 0.88665 0.80371 0.45901 0.0
C197 C 0.86515 0.69686 0.37839 0.0
H198 H 0.8269 0.74673 0.48576 0.0
C199 C 0.89925 0.72934 0.3631 0.0
C200 C 0.90796 0.76825 0.39186 0.0
H201 H 0.85964 0.66712 0.35558 0.0
H202 H 0.9191 0.72366 0.32877 0.0
C203 C 0.88094 0.77416 0.43599 0.0
C204 C 0.84739 0.28973 0.95196 0.0
C205 C 0.84139 0.32995 0.92483 0.0
H206 H 0.88521 0.22636 0.95814 0.0
C207 C 0.86913 0.33633 0.88145 0.0
H208 H 0.8264 0.28373 0.98552 0.0
C209 C 0.90273 0.30358 0.86575 0.0
C210 C 0.90946 0.26352 0.89309 0.0
H211 H 0.8651 0.36694 0.85975 0.0
H212 H 0.92373 0.30993 0.83225 0.0
C213 C 0.88108 0.25681 0.93622 0.0
C214 C 0.18362 0.71801 0.36293 0.0
C215 C 0.19262 0.71032 0.41352 0.0
H216 H 0.13975 0.75228 0.30871 0.0
C217 C 0.16307 0.73203 0.44903 0.0
H218 H 0.20596 0.70165 0.33486 0.0
C219 C 0.12519 0.76088 0.4342 0.0
C220 C 0.11602 0.7687 0.38354 0.0
H221 H 0.16903 0.72678 0.48835 0.0
H222 H 0.10314 0.77709 0.46258 0.0
C223 C 0.14575 0.747 0.34803 0.0
C224 C 0.68361 0.81085 0.86314 0.0
C225 C 0.69257 0.81851 0.91375 0.0
H226 H 0.63965 0.77672 0.80885 0.0
C227 C 0.66284 0.79689 0.94921 0.0
H228 H 0.70608 0.82715 0.83511 0.0
C229 C 0.62484 0.76816 0.93432 0.0
C230 C 0.61572 0.76038 0.88364 0.0
H231 H 0.66876 0.80211 0.98854 0.0
H232 H 0.60266 0.75201 0.96267 0.0
C233 C 0.64561 0.78199 0.84817 0.0
C234 C 0.36992 0.19244 0.38222 0.0
C235 C 0.34201 0.19901 0.42544 0.0
H236 H 0.42459 0.21872 0.33298 0.0
C237 C 0.34776 0.23946 0.45224 0.0
H238 H 0.36609 0.16165 0.36078 0.0
C239 C 0.38138 0.2724 0.43633 0.0
C240 C 0.40993 0.2655 0.39335 0.0
H241 H 0.32662 0.2456 0.48566 0.0
H242 H 0.38532 0.30302 0.45798 0.0
C243 C 0.40345 0.22523 0.36634 0.0
C244 C 0.36398 0.83164 0.87746 0.0
C245 C 0.33809 0.82652 0.92215 0.0
H246 H 0.41775 0.80465 0.8278 0.0
C247 C 0.34647 0.78777 0.9512 0.0
H248 H 0.3581 0.86107 0.85427 0.0
C249 C 0.38075 0.75512 0.93601 0.0
C250 C 0.4074 0.76072 0.8916 0.0
H251 H 0.32691 0.78276 0.98581 0.0
H252 H 0.38683 0.72589 0.95941 0.0
C253 C 0.39821 0.79923 0.86236 0.0
C254 C 0.66648 0.23453 0.44817 0.0
C255 C 0.696 0.21328 0.41226 0.0
H256 H 0.60586 0.27861 0.46255 0.0
C257 C 0.68623 0.22088 0.36182 0.0
H258 H 0.67301 0.22936 0.48742 0.0
C259 C 0.64762 0.24927 0.34746 0.0
C260 C 0.6179 0.27047 0.38337 0.0
H261 H 0.70851 0.20489 0.33345 0.0
H262 H 0.64103 0.25447 0.30821 0.0
C263 C 0.62787 0.26279 0.43389 0.0
C264 C 0.41919 0.48798 0.97231 0.0
C265 C 0.36932 0.47896 0.96223 0.0
H266 H 0.48199 0.5293 0.95752 0.0
C267 C 0.34553 0.50453 0.92516 0.0
H268 H 0.43959 0.468 -0.00107 0.0
C269 C 0.37084 0.53902 0.89994 0.0
C270 C 0.41979 0.54906 0.91234 0.0
H271 H 0.30719 0.49867 0.91641 0.0
H272 H 0.35189 0.55857 0.87186 0.0
C273 C 0.44376 0.52299 0.94834 0.0
C274 C 0.66128 0.49021 0.48588 0.0
C275 C 0.66953 0.53339 0.46556 0.0
H276 H 0.62499 0.42624 0.47836 0.0
C277 C 0.65044 0.54329 0.41841 0.0
H278 H 0.67594 0.48152 0.52202 0.0
C279 C 0.62111 0.51179 0.39354 0.0
C280 C 0.6104 0.46957 0.41514 0.0
H281 H 0.6558 0.57633 0.40194 0.0
H282 H 0.60535 0.52124 0.35812 0.0
C283 C 0.6322 0.45852 0.46083 0.0
C284 C 0.65244 0.48748 0.91845 0.0
C285 C 0.67055 0.4973 0.96602 0.0
H286 H 0.60843 0.5095 0.85736 0.0
C287 C 0.66177 0.5404 0.98631 0.0
H288 H 0.65822 0.45451 0.90197 0.0
C289 C 0.63309 0.57205 0.96077 0.0
C290 C 0.61224 0.56103 0.91461 0.0
H291 H 0.67566 0.54903 0.02278 0.0
H292 H 0.62534 0.60423 0.97827 0.0
C293 C 0.62352 0.51892 0.8931 0.0
C294 C 0.36918 0.50012 0.4863 0.0
C295 C 0.35649 0.54083 0.46254 0.0
H296 H 0.40679 0.43679 0.48125 0.0
C297 C 0.36806 0.54607 0.41196 0.0
H298 H 0.35971 0.49442 0.52487 0.0
C299 C 0.39435 0.51253 0.38665 0.0
C300 C 0.41001 0.47332 0.41157 0.0
H301 H 0.35908 0.57703 0.39254 0.0
H302 H 0.40464 0.51848 0.34834 0.0
C303 C 0.39592 0.46693 0.46124 0.0
C304 C 0.86885 0.02889 0.98645 0.0
C305 C 0.85621 0.98814 0.96274 0.0
H306 H 0.90635 0.09232 0.98129 0.0
C307 C 0.86772 0.98289 0.91215 0.0
H308 H 0.85943 0.03458 0.02502 0.0
C309 C 0.89392 0.01648 0.88677 0.0
C310 C 0.90954 0.05574 0.91164 0.0
H311 H 0.85877 0.95189 0.89277 0.0
H312 H 0.90418 1.01053 0.84846 0.0
C313 C 0.8955 0.06213 0.96132 0.0
C314 C 0.15274 0.04183 0.41871 0.0
C315 C 0.17075 0.03197 0.4663 0.0
H316 H 0.10888 0.01981 0.35749 0.0
C317 C 0.16196 0.98884 0.48652 0.0
H318 H 0.15853 0.07484 0.4023 0.0
C319 C 0.13337 0.95717 0.46086 0.0
C320 C 0.11262 0.96821 0.41467 0.0
H321 H 0.17578 0.98019 0.523 0.0
H322 H 0.12562 0.92495 0.4783 0.0
C323 C 0.1239 1.01037 0.39325 0.0
C324 C 0.16112 0.03905 0.98567 0.0
C325 C 0.16935 0.9959 0.96529 0.0
H326 H 0.12473 0.10295 0.97832 0.0
C327 C 0.15015 0.98602 0.91818 0.0
H328 H 0.17585 0.04773 0.02179 0.0
C329 C 0.12073 0.01748 0.89343 0.0
C330 C 0.11001 0.05965 0.9151 0.0
H331 H 0.1555 0.953 0.90166 0.0
H332 H 0.10488 1.00804 0.85803 0.0
C333 C 0.13193 0.0707 0.96074 0.0
C334 C 0.91943 0.04104 0.47225 0.0
C335 C 0.8696 0.05003 0.46202 0.0
H336 H 0.98225 0.99977 0.45766 0.0
C337 C 0.84592 0.02445 0.42487 0.0
H338 H 0.93976 0.06104 0.49893 0.0
C339 C 0.87129 0.98999 0.39972 0.0
C340 C 0.92019 0.97997 0.41228 0.0
H341 H 0.8076 0.03028 0.41599 0.0
H342 H 0.85241 0.97043 0.37157 0.0
C343 C 0.94405 1.00605 0.44836 0.0
C344 C 0.36643 0.351 0.13636 0.0
C345 C 0.35188 0.39453 0.12132 0.0
H346 H 0.40682 0.31161 0.18936 0.0
C347 C 0.36103 0.43128 0.15301 0.0
H348 H 0.36002 0.32205 0.11262 0.0
C349 C 0.38824 0.42542 0.19635 0.0
C350 C 0.4064 0.38259 0.2093 0.0
H351 H 0.34932 0.46505 0.14296 0.0
H352 H 0.39698 0.45485 0.21861 0.0
C353 C 0.39337 0.34504 0.18019 0.0
C354 C 0.64868 0.66573 0.63158 0.0
C355 C 0.66847 0.62291 0.62131 0.0
H356 H 0.6031 0.7054 0.67948 0.0
C357 C 0.66099 0.58766 0.65547 0.0
H358 H 0.65356 0.69342 0.60573 0.0
C359 C 0.63205 0.59442 0.69772 0.0
C360 C 0.60961 0.6365 0.7064 0.0
H361 H 0.67623 0.5544 0.64863 0.0
H362 H 0.62561 0.56611 0.72237 0.0
C363 C 0.61944 0.67243 0.67364 0.0
C364 C 0.6479 0.36429 0.1316 0.0
C365 C 0.66762 0.40722 0.12153 0.0
H366 H 0.60243 0.32426 0.17934 0.0
C367 C 0.65992 0.44233 0.1558 0.0
H368 H 0.65295 0.3367 0.10566 0.0
C369 C 0.63098 0.43529 0.19802 0.0
C370 C 0.60874 0.39307 0.20658 0.0
H371 H 0.67509 0.47566 0.14913 0.0
H372 H 0.62447 0.46349 0.22281 0.0
C373 C 0.61863 0.35732 0.17362 0.0
C374 C 0.36437 0.59549 0.64997 0.0
C375 C 0.35471 0.63216 0.61833 0.0
H376 H 0.39981 0.57232 0.71594 0.0
C377 C 0.36881 0.67583 0.63338 0.0
H378 H 0.35293 0.56159 0.64 0.0
C379 C 0.3953 0.6821 0.67747 0.0
C380 C 0.4083 0.64474 0.70689 0.0
H381 H 0.36193 0.70475 0.60974 0.0
H382 H 0.40817 0.71569 0.68684 0.0
C383 C 0.39104 0.60167 0.69357 0.0
C384 C 0.86454 0.93345 0.15014 0.0
C385 C 0.85482 0.89677 0.11853 0.0
H386 H 0.90012 0.95666 0.21605 0.0
C387 C 0.86897 0.85312 0.13356 0.0
H388 H 0.85307 0.96733 0.14021 0.0
C389 C 0.89555 0.84688 0.1776 0.0
C390 C 0.9086 0.88427 0.20699 0.0
H391 H 0.86205 0.82419 0.10993 0.0
H392 H 0.90844 0.81331 0.18694 0.0
C393 C 0.89131 0.92731 0.1937 0.0
C394 C 0.15975 0.08685 0.65608 0.0
C395 C 0.16758 0.12198 0.62185 0.0
H396 H 0.12411 0.06565 0.72299 0.0
C397 C 0.14788 0.16489 0.63188 0.0
H398 H 0.1749 0.05353 0.64944 0.0
C399 C 0.11851 0.17183 0.67382 0.0
C400 C 0.1085 0.13606 0.70675 0.0
H401 H 0.15302 0.1925 0.60597 0.0
H402 H 0.10232 0.20488 0.67952 0.0
C403 C 0.13072 0.09385 0.69823 0.0
C404 C 0.16118 0.94158 0.1552 0.0
C405 C 0.16856 0.90634 0.12103 0.0
H406 H 0.12595 0.9631 0.22218 0.0
C407 C 0.14879 0.8635 0.13135 0.0
H408 H 0.17642 0.97485 0.14832 0.0
C409 C 0.11964 0.85677 0.17348 0.0
C410 C 0.1099 0.89269 0.20625 0.0
H411 H 0.15359 0.83581 0.1055 0.0
H412 H 0.1033 0.82378 0.17936 0.0
C413 C 0.13234 0.93479 0.19752 0.0
C414 C 0.86633 0.17793 0.63615 0.0
C415 C 0.85181 0.13439 0.62109 0.0
H416 H 0.90661 0.21738 0.68922 0.0
C417 C 0.86089 0.09765 0.6528 0.0
H418 H 0.85996 0.20688 0.61239 0.0
C419 C 0.888 0.10355 0.6962 0.0
C420 C 0.90614 0.1464 0.70918 0.0
H421 H 0.8492 0.06386 0.64273 0.0
H422 H 0.89669 0.07412 0.71847 0.0
C423 C 0.89317 0.18393 0.68003 0.0
loop_
_geom_bond_atom_site_label_1
_geom_bond_atom_site_label_2
_geom_bond_distance
_geom_bond_site_symmetry_2
_ccdc_geom_bond_type
H0 C5 0.930 . S
H1 C8 0.930 . S
H2 C10 0.930 . S
H3 C4 1.016 . S
C4 H3 1.016 . S
C4 N11 1.286 . S
C5 H0 0.930 . S
C5 C6 1.397 . S
C5 C7 1.361 . S
C6 C5 1.397 . S
C6 C10 1.390 . S
C7 C5 1.361 . S
C7 C8 1.393 1_554 S
C7 N11 1.413 1_554 S
C8 H1 0.930 . S
C8 C7 1.393 1_556 S
C8 C9 1.399 . S
C9 C8 1.399 . S
C9 C10 1.381 1_556 S
C10 H2 0.930 . S
C10 C6 1.390 . S
C10 C9 1.381 1_554 S
N11 C4 1.286 . S
N11 C7 1.413 1_556 S
H12 C17 0.930 . S
H13 C20 0.930 . S
H14 C22 0.930 . S
H15 C16 1.016 . S
C16 H15 1.016 . S
C16 N23 1.286 . S
C17 H12 0.930 . S
C17 C18 1.397 . S
C17 C19 1.361 . S
C18 C17 1.397 . S
C18 C22 1.390 . S
C19 C17 1.361 . S
C19 C20 1.393 . S
C19 N23 1.413 . S
C20 H13 0.930 . S
C20 C19 1.393 . S
C20 C21 1.399 . S
C21 C20 1.399 . S
C21 C22 1.381 . S
C22 H14 0.930 . S
C22 C18 1.390 . S
C22 C21 1.381 . S
N23 C16 1.286 . S
N23 C19 1.413 . S
H24 C29 0.930 . S
H25 C32 0.930 . S
H26 C34 0.930 . S
H27 C28 1.016 . S
C28 H27 1.016 . S
C28 N35 1.286 1_556 S
C29 H24 0.930 . S
C29 C30 1.397 . S
C29 C31 1.361 . S
C30 C29 1.397 . S
C30 C34 1.390 . S
C31 C29 1.361 . S
C31 C32 1.393 1_554 S
C31 N35 1.413 . S
C32 H25 0.930 . S
C32 C31 1.393 1_556 S
C32 C33 1.399 . S
C33 C32 1.399 . S
C33 C34 1.381 1_556 S
C34 H26 0.930 . S
C34 C30 1.390 . S
C34 C33 1.381 1_554 S
N35 C28 1.286 1_554 S
N35 C31 1.413 . S
H36 C41 0.930 . S
H37 C44 0.930 . S
H38 C46 0.930 . S
H39 C40 1.016 . S
C40 H39 1.016 . S
C40 N47 1.286 . S
C41 H36 0.930 . S
C41 C42 1.397 . S
C41 C43 1.361 . S
C42 C41 1.397 . S
C42 C46 1.390 . S
C43 C41 1.361 . S
C43 C44 1.393 . S
C43 N47 1.413 . S
C44 H37 0.930 . S
C44 C43 1.393 . S
C44 C45 1.399 . S
C45 C44 1.399 . S
C45 C46 1.381 . S
C46 H38 0.930 . S
C46 C42 1.390 . S
C46 C45 1.381 . S
N47 C40 1.286 . S
N47 C43 1.413 . S
H48 C53 0.930 . S
H49 C56 0.930 . S
H50 C58 0.930 . S
H51 C52 1.016 . S
C52 H51 1.016 . S
C52 N59 1.286 . S
C53 H48 0.930 . S
C53 C54 1.397 . S
C53 C55 1.361 . S
C54 C53 1.397 . S
C54 C58 1.390 . S
C55 C53 1.361 . S
C55 C56 1.393 1_554 S
C55 N59 1.413 1_554 S
C56 H49 0.930 . S
C56 C55 1.393 1_556 S
C56 C57 1.399 . S
C57 C56 1.399 . S
C57 C58 1.381 1_556 S
C58 H50 0.930 . S
C58 C54 1.390 . S
C58 C57 1.381 1_554 S
N59 C52 1.286 . S
N59 C55 1.413 1_556 S
H60 C65 0.930 . S
H61 C68 0.930 . S
H62 C70 0.930 . S
H63 C64 1.016 . S
C64 H63 1.016 . S
C64 N71 1.286 . S
C65 H60 0.930 . S
C65 C66 1.397 . S
C65 C67 1.361 . S
C66 C65 1.397 . S
C66 C70 1.390 . S
C67 C65 1.361 . S
C67 C68 1.393 . S
C67 N71 1.413 . S
C68 H61 0.930 . S
C68 C67 1.393 . S
C68 C69 1.399 . S
C69 C68 1.399 . S
C69 C70 1.381 . S
C70 H62 0.930 . S
C70 C66 1.390 . S
C70 C69 1.381 . S
N71 C64 1.286 . S
N71 C67 1.413 . S
H72 C77 0.930 . S
H73 C80 0.930 . S
H74 C82 0.930 . S
H75 C76 1.016 . S
C76 H75 1.016 . S
C76 N83 1.286 1_556 S
C77 H72 0.930 . S
C77 C78 1.397 . S
C77 C79 1.361 . S
C78 C77 1.397 . S
C78 C82 1.390 . S
C79 C77 1.361 . S
C79 C80 1.393 1_554 S
C79 N83 1.413 . S
C80 H73 0.930 . S
C80 C79 1.393 1_556 S
C80 C81 1.399 . S
C81 C80 1.399 . S
C81 C82 1.381 1_556 S
C82 H74 0.930 . S
C82 C78 1.390 . S
C82 C81 1.381 1_554 S
N83 C76 1.286 1_554 S
N83 C79 1.413 . S
H84 C89 0.930 . S
H85 C92 0.930 . S
H86 C94 0.930 . S
H87 C88 1.016 . S
C88 H87 1.016 . S
C88 N95 1.286 . S
C89 H84 0.930 . S
C89 C90 1.397 . S
C89 C91 1.361 . S
C90 C89 1.397 . S
C90 C94 1.390 . S
C91 C89 1.361 . S
C91 C92 1.393 . S
C91 N95 1.413 . S
C92 H85 0.930 . S
C92 C91 1.393 . S
C92 C93 1.399 . S
C93 C92 1.399 . S
C93 C94 1.381 . S
C94 H86 0.930 . S
C94 C90 1.390 . S
C94 C93 1.381 . S
N95 C88 1.286 . S
N95 C91 1.413 . S
Fe96 O98 1.918 . S
Fe96 O101 1.997 1_455 S
Fe96 O102 2.002 1_455 S
Fe96 O107 1.976 . S
Fe96 O110 1.996 . S
Fe97 O98 1.918 . S
Fe97 O105 1.997 1_455 S
Fe97 O108 1.996 . S
Fe97 O112 1.976 . S
Fe97 O115 2.002 1_455 S
O98 Fe96 1.918 . S
O98 Fe97 1.918 . S
O98 Fe99 1.918 . S
Fe99 O98 1.918 . S
Fe99 O100 2.002 1_455 S
Fe99 O109 1.976 . S
Fe99 O113 1.996 . S
Fe99 O116 1.997 1_455 S
O100 Fe99 2.002 1_655 S
O100 C117 1.295 . S
O101 Fe96 1.997 1_655 S
O101 C117 1.235 . S
O102 Fe96 2.002 1_655 S
O102 C103 1.295 . S
C103 O102 1.295 . S
C103 O105 1.235 . S
C104 O109 1.287 . S
C104 O110 1.255 . S
O105 Fe97 1.997 1_655 S
O105 C103 1.235 . S
C106 O112 1.287 . S
C106 O113 1.255 . S
O107 Fe96 1.976 . S
O107 C114 1.287 . S
O108 Fe97 1.996 . S
O108 C114 1.255 . S
O109 Fe99 1.976 . S
O109 C104 1.287 . S
O110 Fe96 1.996 . S
O110 C104 1.255 . S
C111 O115 1.295 . S
C111 O116 1.235 . S
O112 Fe97 1.976 . S
O112 C106 1.287 . S
O113 Fe99 1.996 . S
O113 C106 1.255 . S
C114 O107 1.287 . S
C114 O108 1.255 . S
O115 Fe97 2.002 1_655 S
O115 C111 1.295 . S
O116 Fe99 1.997 1_655 S
O116 C111 1.235 . S
C117 O100 1.295 . S
C117 O101 1.235 . S
Fe118 O120 1.918 1_455 S
Fe118 O123 2.009 . S
Fe118 O124 2.015 . S
Fe118 O129 1.963 1_455 S
Fe118 O132 1.983 1_455 S
Fe119 O120 1.918 1_455 S
Fe119 O127 2.009 . S
Fe119 O130 1.983 1_455 S
Fe119 O134 1.963 1_455 S
Fe119 O137 2.015 . S
O120 Fe118 1.918 1_655 S
O120 Fe119 1.918 1_655 S
O120 Fe121 1.918 1_655 S
Fe121 O120 1.918 1_455 S
Fe121 O122 2.015 . S
Fe121 O131 1.963 1_455 S
Fe121 O135 1.983 1_455 S
Fe121 O138 2.009 . S
O122 Fe121 2.015 . S
O122 C139 1.295 . S
O123 Fe118 2.009 . S
O123 C139 1.235 . S
O124 Fe118 2.015 . S
O124 C125 1.295 . S
C125 O124 1.295 . S
C125 O127 1.235 . S
C126 O131 1.287 . S
C126 O132 1.255 . S
O127 Fe119 2.009 . S
O127 C125 1.235 . S
C128 O134 1.287 . S
C128 O135 1.255 . S
O129 Fe118 1.963 1_655 S
O129 C136 1.287 . S
O130 Fe119 1.983 1_655 S
O130 C136 1.255 . S
O131 Fe121 1.963 1_655 S
O131 C126 1.287 . S
O132 Fe118 1.983 1_655 S
O132 C126 1.255 . S
C133 O137 1.295 . S
C133 O138 1.235 . S
O134 Fe119 1.963 1_655 S
O134 C128 1.287 . S
O135 Fe121 1.983 1_655 S
O135 C128 1.255 . S
C136 O129 1.287 . S
C136 O130 1.255 . S
O137 Fe119 2.015 . S
O137 C133 1.295 . S
O138 Fe121 2.009 . S
O138 C133 1.235 . S
C139 O122 1.295 . S
C139 O123 1.235 . S
Fe140 O142 1.918 . S
Fe140 O145 1.997 . S
Fe140 O146 2.002 . S
Fe140 O151 1.976 . S
Fe140 O154 1.996 . S
Fe141 O142 1.918 . S
Fe141 O149 1.997 . S
Fe141 O152 1.996 . S
Fe141 O156 1.976 . S
Fe141 O159 2.002 . S
O142 Fe140 1.918 . S
O142 Fe141 1.918 . S
O142 Fe143 1.918 . S
Fe143 O142 1.918 . S
Fe143 O144 2.002 . S
Fe143 O153 1.976 . S
Fe143 O157 1.996 . S
Fe143 O160 1.997 . S
O144 Fe143 2.002 . S
O144 C161 1.295 . S
O145 Fe140 1.997 . S
O145 C161 1.235 . S
O146 Fe140 2.002 . S
O146 C147 1.295 . S
C147 O146 1.295 . S
C147 O149 1.235 . S
C148 O153 1.287 . S
C148 O154 1.255 . S
O149 Fe141 1.997 . S
O149 C147 1.235 . S
C150 O156 1.287 . S
C150 O157 1.255 . S
O151 Fe140 1.976 . S
O151 C158 1.287 . S
O152 Fe141 1.996 . S
O152 C158 1.255 . S
O153 Fe143 1.976 . S
O153 C148 1.287 . S
O154 Fe140 1.996 . S
O154 C148 1.255 . S
C155 O159 1.295 . S
C155 O160 1.235 . S
O156 Fe141 1.976 . S
O156 C150 1.287 . S
O157 Fe143 1.996 . S
O157 C150 1.255 . S
C158 O151 1.287 . S
C158 O152 1.255 . S
O159 Fe141 2.002 . S
O159 C155 1.295 . S
O160 Fe143 1.997 . S
O160 C155 1.235 . S
C161 O144 1.295 . S
C161 O145 1.235 . S
Fe162 O164 1.918 . S
Fe162 O167 1.997 . S
Fe162 O168 2.002 . S
Fe162 O173 1.976 . S
Fe162 O176 1.996 . S
Fe163 O164 1.918 . S
Fe163 O171 1.997 . S
Fe163 O174 1.996 . S
Fe163 O178 1.976 . S
Fe163 O181 2.002 . S
O164 Fe162 1.918 . S
O164 Fe163 1.918 . S
O164 Fe165 1.918 . S
Fe165 O164 1.918 . S
Fe165 O166 2.002 . S
Fe165 O175 1.976 . S
Fe165 O179 1.996 . S
Fe165 O182 1.997 . S
O166 Fe165 2.002 . S
O166 C183 1.295 . S
O167 Fe162 1.997 . S
O167 C183 1.235 . S
O168 Fe162 2.002 . S
O168 C169 1.295 . S
C169 O168 1.295 . S
C169 O171 1.235 . S
C170 O175 1.287 . S
C170 O176 1.255 . S
O171 Fe163 1.997 . S
O171 C169 1.235 . S
C172 O178 1.287 . S
C172 O179 1.255 . S
O173 Fe162 1.976 . S
O173 C180 1.287 . S
O174 Fe163 1.996 . S
O174 C180 1.255 . S
O175 Fe165 1.976 . S
O175 C170 1.287 . S
O176 Fe162 1.996 . S
O176 C170 1.255 . S
C177 O181 1.295 . S
C177 O182 1.235 . S
O178 Fe163 1.976 . S
O178 C172 1.287 . S
O179 Fe165 1.996 . S
O179 C172 1.255 . S
C180 O173 1.287 . S
C180 O174 1.255 . S
O181 Fe163 2.002 . S
O181 C177 1.295 . S
O182 Fe165 1.997 . S
O182 C177 1.235 . S
C183 O166 1.295 . S
C183 O167 1.235 . S
C184 C185 1.387 . S
C184 H188 0.950 . S
C184 C193 1.390 . S
C185 C184 1.387 . S
C185 C187 1.387 . S
H186 C193 0.950 . S
C187 C185 1.387 . S
C187 C189 1.390 . S
C187 H191 0.950 1_556 S
H188 C184 0.950 . S
C189 C187 1.390 . S
C189 C190 1.387 . S
C189 H192 0.950 . S
C190 C189 1.387 . S
C190 C193 1.387 . S
H191 C187 0.950 1_554 S
H192 C189 0.950 . S
C193 C184 1.390 . S
C193 H186 0.950 . S
C193 C190 1.387 . S
C194 C195 1.387 . S
C194 H198 0.950 . S
C194 C203 1.390 . S
C195 C194 1.387 . S
C195 C197 1.387 . S
H196 C203 0.950 . S
C197 C195 1.387 . S
C197 C199 1.390 . S
C197 H201 0.950 . S
H198 C194 0.950 . S
C199 C197 1.390 . S
C199 C200 1.387 . S
C199 H202 0.950 . S
C200 C199 1.387 . S
C200 C203 1.387 . S
H201 C197 0.950 . S
H202 C199 0.950 . S
C203 C194 1.390 . S
C203 H196 0.950 . S
C203 C200 1.387 . S
C204 C205 1.387 . S
C204 H208 0.950 1_556 S
C204 C213 1.390 . S
C205 C204 1.387 . S
C205 C207 1.387 . S
H206 C213 0.950 . S
C207 C205 1.387 . S
C207 C209 1.390 . S
C207 H211 0.950 . S
H208 C204 0.950 1_554 S
C209 C207 1.390 . S
C209 C210 1.387 . S
C209 H212 0.950 . S
C210 C209 1.387 . S
C210 C213 1.387 . S
H211 C207 0.950 . S
H212 C209 0.950 . S
C213 C204 1.390 . S
C213 H206 0.950 . S
C213 C210 1.387 . S
C214 C215 1.387 . S
C214 H218 0.950 . S
C214 C223 1.390 . S
C215 C214 1.387 . S
C215 C217 1.387 . S
H216 C223 0.950 . S
C217 C215 1.387 . S
C217 C219 1.390 . S
C217 H221 0.950 . S
H218 C214 0.950 . S
C219 C217 1.390 . S
C219 C220 1.387 . S
C219 H222 0.950 . S
C220 C219 1.387 . S
C220 C223 1.387 . S
H221 C217 0.950 . S
H222 C219 0.950 . S
C223 C214 1.390 . S
C223 H216 0.950 . S
C223 C220 1.387 . S
C224 C225 1.387 . S
C224 H228 0.950 . S
C224 C233 1.390 . S
C225 C224 1.387 . S
C225 C227 1.387 . S
H226 C233 0.950 . S
C227 C225 1.387 . S
C227 C229 1.390 . S
C227 H231 0.950 1_556 S
H228 C224 0.950 . S
C229 C227 1.390 . S
C229 C230 1.387 . S
C229 H232 0.950 . S
C230 C229 1.387 . S
C230 C233 1.387 . S
H231 C227 0.950 1_554 S
H232 C229 0.950 . S
C233 C224 1.390 . S
C233 H226 0.950 . S
C233 C230 1.387 . S
C234 C235 1.387 . S
C234 H238 0.950 . S
C234 C243 1.390 . S
C235 C234 1.387 . S
C235 C237 1.387 . S
H236 C243 0.950 . S
C237 C235 1.387 . S
C237 C239 1.390 . S
C237 H241 0.950 . S
H238 C234 0.950 . S
C239 C237 1.390 . S
C239 C240 1.387 . S
C239 H242 0.950 . S
C240 C239 1.387 . S
C240 C243 1.387 . S
H241 C237 0.950 . S
H242 C239 0.950 . S
C243 C234 1.390 . S
C243 H236 0.950 . S
C243 C240 1.387 . S
C244 C245 1.387 . S
C244 H248 0.950 . S
C244 C253 1.390 . S
C245 C244 1.387 . S
C245 C247 1.387 . S
H246 C253 0.950 . S
C247 C245 1.387 . S
C247 C249 1.390 . S
C247 H251 0.950 1_556 S
H248 C244 0.950 . S
C249 C247 1.390 . S
C249 C250 1.387 . S
C249 H252 0.950 . S
C250 C249 1.387 . S
C250 C253 1.387 . S
H251 C247 0.950 1_554 S
H252 C249 0.950 . S
C253 C244 1.390 . S
C253 H246 0.950 . S
C253 C250 1.387 . S
C254 C255 1.387 . S
C254 H258 0.950 . S
C254 C263 1.390 . S
C255 C254 1.387 . S
C255 C257 1.387 . S
H256 C263 0.950 . S
C257 C255 1.387 . S
C257 C259 1.390 . S
C257 H261 0.950 . S
H258 C254 0.950 . S
C259 C257 1.390 . S
C259 C260 1.387 . S
C259 H262 0.950 . S
C260 C259 1.387 . S
C260 C263 1.387 . S
H261 C257 0.950 . S
H262 C259 0.950 . S
C263 C254 1.390 . S
C263 H256 0.950 . S
C263 C260 1.387 . S
C264 C265 1.387 . S
C264 H268 0.950 1_556 S
C264 C273 1.390 . S
C265 C264 1.387 . S
C265 C267 1.387 . S
H266 C273 0.950 . S
C267 C265 1.387 . S
C267 C269 1.390 . S
C267 H271 0.950 . S
H268 C264 0.950 1_554 S
C269 C267 1.390 . S
C269 C270 1.387 . S
C269 H272 0.950 . S
C270 C269 1.387 . S
C270 C273 1.387 . S
H271 C267 0.950 . S
H272 C269 0.950 . S
C273 C264 1.390 . S
C273 H266 0.950 . S
C273 C270 1.387 . S
C274 C275 1.387 . S
C274 H278 0.950 . S
C274 C283 1.390 . S
C275 C274 1.387 . S
C275 C277 1.387 . S
H276 C283 0.950 . S
C277 C275 1.387 . S
C277 C279 1.390 . S
C277 H281 0.950 . S
H278 C274 0.950 . S
C279 C277 1.390 . S
C279 C280 1.387 . S
C279 H282 0.950 . S
C280 C279 1.387 . S
C280 C283 1.387 . S
H281 C277 0.950 . S
H282 C279 0.950 . S
C283 C274 1.390 . S
C283 H276 0.950 . S
C283 C280 1.387 . S
C284 C285 1.387 . S
C284 H288 0.950 . S
C284 C293 1.390 . S
C285 C284 1.387 . S
C285 C287 1.387 . S
H286 C293 0.950 . S
C287 C285 1.387 . S
C287 C289 1.390 . S
C287 H291 0.950 . S
H288 C284 0.950 . S
C289 C287 1.390 . S
C289 C290 1.387 . S
C289 H292 0.950 . S
C290 C289 1.387 . S
C290 C293 1.387 . S
H291 C287 0.950 . S
H292 C289 0.950 . S
C293 C284 1.390 . S
C293 H286 0.950 . S
C293 C290 1.387 . S
C294 C295 1.387 . S
C294 H298 0.950 . S
C294 C303 1.390 . S
C295 C294 1.387 . S
C295 C297 1.387 . S
H296 C303 0.950 . S
C297 C295 1.387 . S
C297 C299 1.390 . S
C297 H301 0.950 . S
H298 C294 0.950 . S
C299 C297 1.390 . S
C299 C300 1.387 . S
C299 H302 0.950 . S
C300 C299 1.387 . S
C300 C303 1.387 . S
H301 C297 0.950 . S
H302 C299 0.950 . S
C303 C294 1.390 . S
C303 H296 0.950 . S
C303 C300 1.387 . S
C304 C305 1.387 . S
C304 H308 0.950 1_566 S
C304 C313 1.390 1_565 S
C305 C304 1.387 . S
C305 C307 1.387 . S
H306 C313 0.950 . S
C307 C305 1.387 . S
C307 C309 1.390 . S
C307 H311 0.950 . S
H308 C304 0.950 1_544 S
C309 C307 1.390 . S
C309 C310 1.387 1_565 S
C309 H312 0.950 . S
C310 C309 1.387 1_545 S
C310 C313 1.387 . S
H311 C307 0.950 . S
H312 C309 0.950 . S
C313 C304 1.390 1_545 S
C313 H306 0.950 . S
C313 C310 1.387 . S
C314 C315 1.387 . S
C314 H318 0.950 . S
C314 C323 1.390 . S
C315 C314 1.387 . S
C315 C317 1.387 1_545 S
H316 C323 0.950 . S
C317 C315 1.387 1_565 S
C317 C319 1.390 . S
C317 H321 0.950 . S
H318 C314 0.950 . S
C319 C317 1.390 . S
C319 C320 1.387 . S
C319 H322 0.950 . S
C320 C319 1.387 . S
C320 C323 1.387 1_565 S
H321 C317 0.950 . S
H322 C319 0.950 . S
C323 C314 1.390 . S
C323 H316 0.950 . S
C323 C320 1.387 1_545 S
C324 C325 1.387 . S
C324 H328 0.950 1_566 S
C324 C333 1.390 1_565 S
C325 C324 1.387 . S
C325 C327 1.387 . S
H326 C333 0.950 . S
C327 C325 1.387 . S
C327 C329 1.390 . S
C327 H331 0.950 . S
H328 C324 0.950 1_544 S
C329 C327 1.390 . S
C329 C330 1.387 1_565 S
C329 H332 0.950 . S
C330 C329 1.387 1_545 S
C330 C333 1.387 . S
H331 C327 0.950 . S
H332 C329 0.950 . S
C333 C324 1.390 1_545 S
C333 H326 0.950 . S
C333 C330 1.387 . S
C334 C335 1.387 . S
C334 H338 0.950 . S
C334 C343 1.390 . S
C335 C334 1.387 . S
C335 C337 1.387 1_545 S
H336 C343 0.950 . S
C337 C335 1.387 1_565 S
C337 C339 1.390 . S
C337 H341 0.950 . S
H338 C334 0.950 . S
C339 C337 1.390 . S
C339 C340 1.387 . S
C339 H342 0.950 . S
C340 C339 1.387 . S
C340 C343 1.387 1_565 S
H341 C337 0.950 . S
H342 C339 0.950 . S
C343 C334 1.390 . S
C343 H336 0.950 . S
C343 C340 1.387 1_545 S
C344 C345 1.387 . S
C344 H348 0.950 . S
C344 C353 1.390 . S
C345 C344 1.387 . S
C345 C347 1.387 . S
H346 C353 0.950 . S
C347 C345 1.387 . S
C347 C349 1.390 . S
C347 H351 0.950 . S
H348 C344 0.950 . S
C349 C347 1.390 . S
C349 C350 1.387 . S
C349 H352 0.950 . S
C350 C349 1.387 . S
C350 C353 1.387 . S
H351 C347 0.950 . S
H352 C349 0.950 . S
C353 C344 1.390 . S
C353 H346 0.950 . S
C353 C350 1.387 . S
C354 C355 1.387 . S
C354 H358 0.950 . S
C354 C363 1.390 . S
C355 C354 1.387 . S
C355 C357 1.387 . S
H356 C363 0.950 . S
C357 C355 1.387 . S
C357 C359 1.390 . S
C357 H361 0.950 . S
H358 C354 0.950 . S
C359 C357 1.390 . S
C359 C360 1.387 . S
C359 H362 0.950 . S
C360 C359 1.387 . S
C360 C363 1.387 . S
H361 C357 0.950 . S
H362 C359 0.950 . S
C363 C354 1.390 . S
C363 H356 0.950 . S
C363 C360 1.387 . S
C364 C365 1.387 . S
C364 H368 0.950 . S
C364 C373 1.390 . S
C365 C364 1.387 . S
C365 C367 1.387 . S
H366 C373 0.950 . S
C367 C365 1.387 . S
C367 C369 1.390 . S
C367 H371 0.950 . S
H368 C364 0.950 . S
C369 C367 1.390 . S
C369 C370 1.387 . S
C369 H372 0.950 . S
C370 C369 1.387 . S
C370 C373 1.387 . S
H371 C367 0.950 . S
H372 C369 0.950 . S
C373 C364 1.390 . S
C373 H366 0.950 . S
C373 C370 1.387 . S
C374 C375 1.387 . S
C374 H378 0.950 . S
C374 C383 1.390 . S
C375 C374 1.387 . S
C375 C377 1.387 . S
H376 C383 0.950 . S
C377 C375 1.387 . S
C377 C379 1.390 . S
C377 H381 0.950 . S
H378 C374 0.950 . S
C379 C377 1.390 . S
C379 C380 1.387 . S
C379 H382 0.950 . S
C380 C379 1.387 . S
C380 C383 1.387 . S
H381 C377 0.950 . S
H382 C379 0.950 . S
C383 C374 1.390 . S
C383 H376 0.950 . S
C383 C380 1.387 . S
C384 C385 1.387 . S
C384 H388 0.950 . S
C384 C393 1.390 . S
C385 C384 1.387 . S
C385 C387 1.387 . S
H386 C393 0.950 . S
C387 C385 1.387 . S
C387 C389 1.390 . S
C387 H391 0.950 . S
H388 C384 0.950 . S
C389 C387 1.390 . S
C389 C390 1.387 . S
C389 H392 0.950 . S
C390 C389 1.387 . S
C390 C393 1.387 . S
H391 C387 0.950 . S
H392 C389 0.950 . S
C393 C384 1.390 . S
C393 H386 0.950 . S
C393 C390 1.387 . S
C394 C395 1.387 . S
C394 H398 0.950 . S
C394 C403 1.390 . S
C395 C394 1.387 . S
C395 C397 1.387 . S
H396 C403 0.950 . S
C397 C395 1.387 . S
C397 C399 1.390 . S
C397 H401 0.950 . S
H398 C394 0.950 . S
C399 C397 1.390 . S
C399 C400 1.387 . S
C399 H402 0.950 . S
C400 C399 1.387 . S
C400 C403 1.387 . S
H401 C397 0.950 . S
H402 C399 0.950 . S
C403 C394 1.390 . S
C403 H396 0.950 . S
C403 C400 1.387 . S
C404 C405 1.387 . S
C404 H408 0.950 . S
C404 C413 1.390 . S
C405 C404 1.387 . S
C405 C407 1.387 . S
H406 C413 0.950 . S
C407 C405 1.387 . S
C407 C409 1.390 . S
C407 H411 0.950 . S
H408 C404 0.950 . S
C409 C407 1.390 . S
C409 C410 1.387 . S
C409 H412 0.950 . S
C410 C409 1.387 . S
C410 C413 1.387 . S
H411 C407 0.950 . S
H412 C409 0.950 . S
C413 C404 1.390 . S
C413 H406 0.950 . S
C413 C410 1.387 . S
C414 C415 1.387 . S
C414 H418 0.950 . S
C414 C423 1.390 . S
C415 C414 1.387 . S
C415 C417 1.387 . S
H416 C423 0.950 . S
C417 C415 1.387 . S
C417 C419 1.390 . S
C417 H421 0.950 . S
H418 C414 0.950 . S
C419 C417 1.390 . S
C419 C420 1.387 . S
C419 H422 0.950 . S
C420 C419 1.387 . S
C420 C423 1.387 . S
H421 C417 0.950 . S
H422 C419 0.950 . S
C423 C414 1.390 . S
C423 H416 0.950 . S
C423 C420 1.387 . S
C185 C4 1.544 . S
C190 C139 1.533 . S
C200 C103 1.531 . S
C195 C16 1.544 . S
C210 C126 1.541 . S
C205 C28 1.529 . S
C220 C114 1.540 . S
C215 C40 1.528 . S
C230 C183 1.533 . S
C225 C52 1.545 . S
C240 C147 1.533 . S
C235 C64 1.545 . S
C245 C76 1.527 . S
C250 C170 1.540 . S
C260 C158 1.541 . S
C255 C88 1.528 . S
C265 C9 1.501 . S
C270 C180 1.538 . S
C280 C150 1.538 . S
C275 C21 1.502 . S
C285 C33 1.528 . S
C290 C169 1.550 . S
C295 C45 1.526 . S
C300 C155 1.551 . S
C310 C136 1.538 . S
C305 C57 1.502 . S
C315 C69 1.499 . S
C320 C106 1.538 . S
C330 C125 1.551 . S
C325 C81 1.526 . S
C340 C111 1.550 . S
C335 C93 1.528 . S
C350 C161 1.520 . S
C345 C6 1.512 . S
C360 C177 1.520 . S
C355 C18 1.512 . S
C365 C30 1.496 . S
C370 C148 1.505 . S
C380 C172 1.505 . S
C375 C42 1.498 . S
C390 C117 1.522 . S
C385 C54 1.510 . S
C395 C66 1.510 . S
C400 C133 1.522 . S
C405 C78 1.498 . S
C410 C104 1.505 . S
C415 C90 1.496 . S
C420 C128 1.505 . S
