# Generated by pormake.
# Topology tsx, (6,3)-cn, num edge types: 1
# Building blocks:
#     Node 0, Type 0, BuildingBlock: LEVNOQ01_clean_sbu_1, # of connection points: 6
#     Node 1, Type 0, BuildingBlock: LEVNOQ01_clean_sbu_1, # of connection points: 6
#     Node 2, Type 1, BuildingBlock: VETTIZ_charged_linker_0, # of connection points: 3
#     Node 3, Type 1, BuildingBlock: VETTIZ_charged_linker_0, # of connection points: 3
#     Node 4, Type 1, BuildingBlock: VETTIZ_charged_linker_0, # of connection points: 3
#     Node 5, Type 1, BuildingBlock: VETTIZ_charged_linker_0, # of connection points: 3
#     Edge 6, Type (0, 1), BuildingBlock: CIFDUS_clean_linker_0, # of connection points: 2
#     Edge 7, Type (0, 1), BuildingBlock: CIFDUS_clean_linker_0, # of connection points: 2
#     Edge 8, Type (0, 1), BuildingBlock: CIFDUS_clean_linker_0, # of connection points: 2
#     Edge 9, Type (0, 1), BuildingBlock: CIFDUS_clean_linker_0, # of connection points: 2
#     Edge 10, Type (0, 1), BuildingBlock: CIFDUS_clean_linker_0, # of connection points: 2
#     Edge 11, Type (0, 1), BuildingBlock: CIFDUS_clean_linker_0, # of connection points: 2
#     Edge 12, Type (0, 1), BuildingBlock: CIFDUS_clean_linker_0, # of connection points: 2
#     Edge 13, Type (0, 1), BuildingBlock: CIFDUS_clean_linker_0, # of connection points: 2
#     Edge 14, Type (0, 1), BuildingBlock: CIFDUS_clean_linker_0, # of connection points: 2
#     Edge 15, Type (0, 1), BuildingBlock: CIFDUS_clean_linker_0, # of connection points: 2
#     Edge 16, Type (0, 1), BuildingBlock: CIFDUS_clean_linker_0, # of connection points: 2
#     Edge 17, Type (0, 1), BuildingBlock: CIFDUS_clean_linker_0, # of connection points: 2
# Relax obj value: 0.135
# Max RMSD: 0.160
# Mean RMSD: 0.123
data_MOF--net-tsx--node1-LEVNOQ01_clean_sbu_1--node2-VETTIZ_charged_linker_0--edge1-CIFDUS_clean_linker_0
_symmetry_space_group_name_H-M    P1
_symmetry_Int_Tables_number       1
_symmetry_cell_setting            triclinic
loop_
_symmetry_equiv_pos_as_xyz
'x, y, z'
_cell_length_a     19.82922
_cell_length_b     23.879236
_cell_length_c     41.944875
_cell_angle_alpha  96.840162
_cell_angle_beta   90.362599
_cell_angle_gamma 91.082839
loop_
_atom_site_label
_atom_site_type_symbol
_atom_site_fract_x
_atom_site_fract_y
_atom_site_fract_z
_atom_type_partial_charge
O0 O 0.1677 0.04314 0.05329 0.0
Mg1 Mg 0.215 0.05054 0.009 0.0
O2 O 0.06214 0.03092 0.0349 0.0
Mg3 Mg 0.06818 0.03496 -0.01985 0.0
O4 O 0.1551 0.10156 -0.01382 0.0
O5 O 0.26095 0.12538 0.00099 0.0
O6 O 0.08062 0.03787 0.92581 0.0
O7 O 0.00579 0.12312 -0.01448 0.0
Mg8 Mg 0.96167 0.03617 0.9682 0.0
O9 O 0.98148 0.9568 0.97396 0.0
O10 O 0.97983 0.07148 0.92431 0.0
O11 O 0.9285 0.08459 0.01112 0.0
O12 O 0.88388 0.98453 0.95409 0.0
C13 C 0.19406 0.93826 0.97403 0.0
C14 C 0.10524 0.03455 0.05789 0.0
C15 C 0.20381 0.13899 -0.01045 0.0
C16 C 0.03508 0.06014 0.91053 0.0
C17 C 0.95084 0.1286 0.00101 0.0
C18 C 0.9199 0.94539 0.96352 0.0
O19 O 0.24083 0.97376 -0.01736 0.0
O20 O 0.13285 0.95362 0.97393 0.0
O21 O 0.65543 0.52912 0.55654 0.0
Mg22 Mg 0.70111 0.54923 0.5147 0.0
O23 O 0.55377 0.52216 0.53457 0.0
Mg24 Mg 0.56863 0.53326 0.48114 0.0
O25 O 0.64842 0.60388 0.48861 0.0
O26 O 0.74045 0.62798 0.5194 0.0
O27 O 0.5876 0.552 0.42701 0.0
O28 O 0.49479 0.60821 0.48925 0.0
Mg29 Mg 0.48307 0.50594 0.43837 0.0
O30 O 0.47837 0.46473 0.47773 0.0
O31 O 0.5496 0.47317 0.40249 0.0
O32 O 0.44409 0.58956 0.44246 0.0
O33 O 0.40378 0.45291 0.4367 0.0
C34 C 0.70237 0.44183 0.47718 0.0
C35 C 0.59278 0.51973 0.55848 0.0
C36 C 0.69603 0.63954 0.4986 0.0
C37 C 0.58188 0.5185 0.40119 0.0
C38 C 0.45328 0.62185 0.46842 0.0
C39 C 0.4245 0.44028 0.46408 0.0
O40 O 0.7457 0.47879 0.48835 0.0
O41 O 0.6404 0.45466 0.47465 0.0
C42 C 0.14758 0.88372 0.44923 0.0
C43 C 0.19872 0.84681 0.43728 0.0
C44 C 0.20314 0.83082 0.40403 0.0
C45 C 0.11257 0.89294 0.39439 0.0
C46 C 0.10451 0.9061 0.42714 0.0
C47 C 0.04858 0.94794 0.43439 0.0
H48 H 0.85698 0.1483 0.37669 0.0
C49 C 0.06617 0.9272 0.37758 0.0
C50 C 0.02722 0.95935 0.40076 0.0
H51 H 0.87865 0.11974 0.47477 0.0
H52 H 0.93586 0.02992 0.45826 0.0
H53 H 0.99853 0.12991 0.36 0.0
H54 H 0.82479 0.02118 0.34861 0.0
H55 H 0.87448 0.99607 0.31576 0.0
H56 H 0.84589 0.0681 0.31976 0.0
H57 H 0.93671 0.13265 0.32888 0.0
H58 H 0.01071 0.09029 0.32288 0.0
C59 C 0.07815 0.00104 0.45453 0.0
C60 C 0.99146 0.91878 0.45125 0.0
C61 C 0.09839 0.94197 0.25826 0.0
C62 C 0.0654 0.97505 0.23761 0.0
C63 C 0.00964 0.00689 0.24838 0.0
C64 C 0.98787 0.00777 0.27974 0.0
C65 C 0.0223 0.97661 0.30075 0.0
C66 C 0.07502 0.94281 0.28985 0.0
C67 C 0.10329 0.91169 0.31605 0.0
C68 C 0.06114 0.93543 0.34466 0.0
C69 C 0.01464 0.97355 0.33522 0.0
C70 C 0.17918 0.92801 0.32036 0.0
C71 C 0.08864 0.84781 0.30676 0.0
C72 C 0.87347 0.12266 0.39482 0.0
C73 C 0.86481 0.14095 0.42733 0.0
C74 C 0.88543 0.10574 0.44993 0.0
C75 C 0.91991 0.05532 0.44041 0.0
C76 C 0.93572 0.04149 0.40801 0.0
C77 C 0.90949 0.07378 0.38585 0.0
C78 C 0.93047 0.05445 0.35252 0.0
C79 C 0.97523 0.00591 0.35811 0.0
C80 C 0.97985 -0.00155 0.39073 0.0
C81 C 0.97078 0.10406 0.34008 0.0
C82 C 0.86588 0.03421 0.33293 0.0
H83 H 0.16786 0.84059 0.35756 0.0
H84 H 0.14269 0.896 0.4748 0.0
H85 H 0.9814 0.87558 0.43882 0.0
H86 H 0.94323 0.94091 0.45079 0.0
H87 H 0.00554 0.91517 0.4766 0.0
H88 H 0.04785 0.03846 0.4522 0.0
H89 H 0.12944 0.01149 0.44612 0.0
H90 H 0.08213 0.99473 0.48029 0.0
H91 H 0.14142 0.91701 0.25016 0.0
H92 H 0.98427 0.03288 0.23269 0.0
H93 H 0.9468 0.0348 0.28652 0.0
H94 H 0.18806 0.97314 0.31717 0.0
H95 H 0.21024 0.9023 0.30239 0.0
H96 H 0.1991 0.92395 0.34453 0.0
H97 H 0.041 0.84056 0.29257 0.0
H98 H 0.08046 0.82497 0.3279 0.0
H99 H 0.12981 0.82765 0.29197 0.0
H100 H 0.24148 0.80179 0.39452 0.0
C101 C 0.16035 0.85338 0.38261 0.0
C102 C 0.09104 0.21991 0.52628 0.0
C103 C 0.14528 0.2535 0.54024 0.0
C104 C 0.15429 0.25808 0.57389 0.0
C105 C 0.06218 0.19166 0.57823 0.0
C106 C 0.04993 0.18994 0.54574 0.0
C107 C 0.99237 0.15011 0.53487 0.0
H108 H 0.88065 0.88929 0.54958 0.0
C109 C 0.01918 0.14808 0.59049 0.0
C110 C 0.97939 0.12174 0.56492 0.0
H111 H 0.80309 0.9925 0.48072 0.0
H112 H 0.85148 0.07659 0.51377 0.0
H113 H 0.02618 0.94684 0.57659 0.0
H114 H 0.81773 0.97312 0.59835 0.0
H115 H 0.85981 0.00661 0.63251 0.0
H116 H 0.86786 0.93138 0.62159 0.0
H117 H 0.96851 0.89802 0.59222 0.0
H118 H 0.01326 0.95079 0.61867 0.0
C119 C 0.0159 0.10854 0.50662 0.0
C120 C 0.93204 0.18587 0.52671 0.0
C121 C 0.03336 0.11143 0.70694 0.0
C122 C 0.00397 0.06862 0.72284 0.0
C123 C 0.97412 0.02093 0.70493 0.0
C124 C 0.97001 0.01712 0.6716 0.0
C125 C 0.99485 0.06188 0.6561 0.0
C126 C 0.02778 0.10732 0.6734 0.0
C127 C 0.05315 0.14937 0.65197 0.0
C128 C 0.02108 0.12529 0.62012 0.0
C129 C 0.98858 0.07362 0.62276 0.0
C130 C 0.13142 0.14708 0.65121 0.0
C131 C 0.02558 0.20828 0.66388 0.0
C132 C 0.87825 0.92943 0.54002 0.0
C133 C 0.84372 0.93387 0.51119 0.0
C134 C 0.83384 0.9877 0.50161 0.0
C135 C 0.86409 0.0357 0.51936 0.0
C136 C 0.90666 0.02911 0.54541 0.0
C137 C 0.90696 0.97773 0.55719 0.0
C138 C 0.92886 0.98341 0.59165 0.0
C139 C 0.95286 0.04462 0.59641 0.0
C140 C 0.94315 0.07061 0.56857 0.0
C141 C 0.98725 0.94249 0.59517 0.0
C142 C 0.86578 0.9729 0.6122 0.0
H143 H 0.12356 0.23182 0.61813 0.0
H144 H 0.082 0.21533 0.50064 0.0
H145 H 0.88383 0.16214 0.52649 0.0
H146 H 0.93915 0.202 0.50314 0.0
H147 H 0.92636 0.22296 0.54517 0.0
H148 H 0.06577 0.09118 0.51205 0.0
H149 H 0.02041 0.1293 0.48437 0.0
H150 H 0.9808 0.0726 0.50199 0.0
H151 H 0.05743 0.14806 0.72035 0.0
H152 H 0.95288 0.98693 0.71688 0.0
H153 H 0.94751 0.97956 0.65927 0.0
H154 H 0.15085 0.10934 0.66123 0.0
H155 H 0.15494 0.18469 0.66545 0.0
H156 H 0.15113 0.1437 0.6264 0.0
H157 H 0.97073 0.20527 0.66895 0.0
H158 H 0.03102 0.23829 0.6459 0.0
H159 H 0.05174 0.22666 0.68631 0.0
H160 H 0.19318 0.28552 0.5858 0.0
C161 C 0.11347 0.22714 0.59283 0.0
C162 C 0.63524 0.37104 0.94897 0.0
C163 C 0.69116 0.33884 0.93817 0.0
C164 C 0.71179 0.33804 0.90606 0.0
C165 C 0.62207 0.40029 0.89576 0.0
C166 C 0.60165 0.40193 0.92727 0.0
C167 C 0.54426 0.4421 0.93435 0.0
H168 H 0.36877 0.66006 0.88233 0.0
C169 C 0.58117 0.43957 0.87985 0.0
C170 C 0.53732 0.46695 0.90256 0.0
H171 H 0.35643 0.60497 0.97474 0.0
H172 H 0.4339 0.52569 0.95844 0.0
H173 H 0.51798 0.64814 0.87237 0.0
H174 H 0.34875 0.5399 0.84532 0.0
H175 H 0.40618 0.52012 0.81484 0.0
H176 H 0.37712 0.59178 0.82073 0.0
H177 H 0.46257 0.65692 0.83944 0.0
H178 H 0.53787 0.61558 0.83394 0.0
C179 C 0.56342 0.48659 0.96282 0.0
C180 C 0.48069 0.40782 0.94078 0.0
C181 C 0.58802 0.43685 0.75892 0.0
C182 C 0.55741 0.47117 0.73806 0.0
C183 C 0.52363 0.51987 0.75124 0.0
C184 C 0.51656 0.53217 0.78422 0.0
C185 C 0.54406 0.49592 0.80451 0.0
C186 C 0.5817 0.45074 0.79208 0.0
C187 C 0.61344 0.42134 0.81808 0.0
C188 C 0.58037 0.45186 0.84767 0.0
C189 C 0.5401 0.49512 0.83923 0.0
C190 C 0.69086 0.43284 0.81785 0.0
C191 C 0.59286 0.35808 0.81263 0.0
C192 C 0.38092 0.62998 0.89882 0.0
C193 C 0.35891 0.63788 0.93037 0.0
C194 C 0.37601 0.59849 0.95109 0.0
C195 C 0.41983 0.55377 0.94155 0.0
C196 C 0.44531 0.54854 0.91036 0.0
C197 C 0.42349 0.58524 0.88941 0.0
C198 C 0.45287 0.57325 0.85695 0.0
C199 C 0.49789 0.52465 0.86193 0.0
C200 C 0.49466 0.51009 0.89333 0.0
C201 C 0.49468 0.62612 0.84997 0.0
C202 C 0.39368 0.55568 0.83305 0.0
H203 H 0.69627 0.36624 0.86096 0.0
H204 H 0.61861 0.37247 0.9736 0.0
H205 H 0.47067 0.37335 0.92095 0.0
H206 H 0.43697 0.4357 0.94233 0.0
H207 H 0.48552 0.38888 0.96364 0.0
H208 H 0.56841 0.52901 0.95475 0.0
H209 H 0.6124 0.47846 0.97427 0.0
H210 H 0.52539 0.48706 -0.01787 0.0
H211 H 0.616 0.4 0.7498 0.0
H212 H 0.50313 0.54923 0.73613 0.0
H213 H 0.48951 0.56941 0.79248 0.0
H214 H 0.7049 0.46697 0.80309 0.0
H215 H 0.71836 0.39465 0.80791 0.0
H216 H 0.71102 0.44764 0.84221 0.0
H217 H 0.5375 0.35306 0.80849 0.0
H218 H 0.60468 0.33544 0.83333 0.0
H219 H 0.61869 0.33645 0.79132 0.0
H220 H 0.75524 0.31414 0.89733 0.0
C221 C 0.67775 0.36854 0.88493 0.0
C222 C 0.63166 0.70856 0.02974 0.0
C223 C 0.68403 0.74103 0.0465 0.0
C224 C 0.68095 0.75039 0.08034 0.0
C225 C 0.58459 0.68697 0.08033 0.0
C226 C 0.58199 0.68237 0.04725 0.0
C227 C 0.52266 0.64553 0.03444 0.0
H228 H 0.3793 0.39189 0.0483 0.0
C229 C 0.53624 0.64567 0.0912 0.0
C230 C 0.50106 0.61892 0.06428 0.0
H231 H 0.3004 0.50772 -0.01285 0.0
H232 H 0.36619 0.58446 0.02038 0.0
H233 H 0.5362 0.44335 0.07869 0.0
H234 H 0.32641 0.47702 0.0947 0.0
H235 H 0.36676 0.50941 0.1294 0.0
H236 H 0.3712 0.43371 0.1192 0.0
H237 H 0.47278 0.39566 0.091 0.0
H238 H 0.51484 0.44605 0.12006 0.0
C239 C 0.54432 0.60196 0.00715 0.0
C240 C 0.46835 0.68417 0.02329 0.0
C241 C 0.53023 0.61296 0.20816 0.0
C242 C 0.50062 0.57001 0.22377 0.0
C243 C 0.47041 0.52271 0.20552 0.0
C244 C 0.46901 0.51844 0.17205 0.0
C245 C 0.49619 0.56268 0.15679 0.0
C246 C 0.52703 0.60857 0.17466 0.0
C247 C 0.55719 0.64938 0.15384 0.0
C248 C 0.53148 0.62388 0.12106 0.0
C249 C 0.49714 0.57262 0.123 0.0
C250 C 0.63524 0.64719 0.15693 0.0
C251 C 0.52764 0.70843 0.16356 0.0
C252 C 0.38185 0.4322 0.03889 0.0
C253 C 0.34077 0.44204 0.01277 0.0
C254 C 0.33709 0.4976 0.00471 0.0
C255 C 0.37754 0.54114 0.02138 0.0
C256 C 0.4256 0.52858 0.04362 0.0
C257 C 0.42041 0.47685 0.05508 0.0
C258 C 0.43867 0.4825 0.09021 0.0
C259 C 0.4663 0.54287 0.09543 0.0
C260 C 0.46284 0.5683 0.06719 0.0
C261 C 0.49355 0.43946 0.09545 0.0
C262 C 0.37288 0.47502 0.10949 0.0
H263 H 0.63355 0.73147 0.1229 0.0
H264 H 0.63072 0.70217 0.00379 0.0
H265 H 0.42405 0.65993 0.01292 0.0
H266 H 0.48913 0.70869 0.00458 0.0
H267 H 0.45109 0.71458 0.04361 0.0
H268 H 0.58272 0.57373 0.0157 0.0
H269 H 0.56533 0.62233 -0.01318 0.0
H270 H 0.49963 0.57692 -0.00202 0.0
H271 H 0.55503 0.64909 0.22173 0.0
H272 H 0.44925 0.48836 0.2172 0.0
H273 H 0.44803 0.4805 0.15937 0.0
H274 H 0.65187 0.60893 0.16734 0.0
H275 H 0.65586 0.68435 0.17267 0.0
H276 H 0.6605 0.64448 0.13335 0.0
H277 H 0.47213 0.70514 0.16682 0.0
H278 H 0.53534 0.73722 0.14508 0.0
H279 H 0.55024 0.72844 0.18652 0.0
H280 H 0.71722 0.77809 0.09406 0.0
C281 C 0.63206 0.72342 0.09722 0.0
H282 H 0.25709 0.20438 0.94705 0.0
H283 H 0.13128 0.20842 0.03051 0.0
H284 H 0.15591 0.30925 0.04396 0.0
H285 H 0.23491 0.38922 0.03837 0.0
H286 H 0.34745 0.38928 0.95125 0.0
H287 H 0.30699 0.29406 0.93261 0.0
C288 C 0.23232 0.22809 0.96719 0.0
C289 C 0.19277 0.19928 -0.01211 0.0
C290 C 0.2466 0.28614 0.97472 0.0
C291 C 0.1614 0.23005 0.01411 0.0
C292 C 0.17638 0.28752 0.0221 0.0
C293 C 0.24865 0.36907 0.01482 0.0
C294 C 0.29757 0.39494 -0.00302 0.0
C295 C 0.22221 0.31508 0.00361 0.0
C296 C 0.3134 0.36912 0.96621 0.0
C297 C 0.28945 0.31469 0.95539 0.0
H298 H 0.31601 0.89198 -0.02071 0.0
H299 H 0.10996 0.84896 0.95123 0.0
H300 H 0.14077 0.75009 0.93744 0.0
H301 H 0.2293 0.67659 0.93051 0.0
H302 H 0.43442 0.72384 0.95718 0.0
H303 H 0.40095 0.82017 0.97496 0.0
C304 C 0.27761 0.86121 0.97006 0.0
C305 C 0.2111 0.87816 0.96572 0.0
C306 C 0.29559 0.80494 0.96224 0.0
C307 C 0.16188 0.83723 0.95435 0.0
C308 C 0.17941 0.78065 0.94655 0.0
C309 C 0.26599 0.70811 0.94064 0.0
C310 C 0.33395 0.69354 0.94335 0.0
C311 C 0.24645 0.76411 0.94998 0.0
C312 C 0.38166 0.73431 0.95597 0.0
C313 C 0.36267 0.78937 0.96569 0.0
H314 H 0.94287 0.87364 0.00811 0.0
H315 H 0.81555 0.89759 0.92735 0.0
H316 H 0.73216 0.83094 0.94407 0.0
H317 H 0.68612 0.78095 -0.01263 0.0
H318 H 0.81548 0.75381 0.06713 0.0
H319 H 0.90617 0.80702 0.04532 0.0
C320 C 0.89814 0.86256 -0.00648 0.0
C321 C 0.88481 0.8913 0.96695 0.0
C322 C 0.84925 0.82522 0.00377 0.0
C323 C 0.82652 0.87652 0.94824 0.0
C324 C 0.77839 0.83879 0.95795 0.0
C325 C 0.73449 0.78533 -0.00033 0.0
C326 C 0.7423 0.76527 0.02971 0.0
C327 C 0.78753 0.81529 -0.01332 0.0
C328 C 0.80626 0.77112 0.04483 0.0
C329 C 0.85884 0.80103 0.03217 0.0
H330 H 0.91046 0.23686 0.02338 0.0
H331 H 0.87044 0.09525 0.95141 0.0
H332 H 0.78165 0.14518 0.92821 0.0
H333 H 0.71774 0.22952 0.92631 0.0
H334 H 0.75245 0.37409 -0.00356 0.0
H335 H 0.83759 0.32211 0.02353 0.0
C336 C 0.88236 0.21756 0.00254 0.0
C337 C 0.89887 0.16328 -0.01171 0.0
C338 C 0.82912 0.24647 -0.01051 0.0
C339 C 0.86087 0.1378 0.96192 0.0
C340 C 0.80908 0.16596 0.94889 0.0
C341 C 0.74336 0.24937 0.94781 0.0
C342 C 0.72975 0.30539 0.95922 0.0
C343 C 0.7932 0.22029 0.96224 0.0
C344 C 0.76228 0.33068 -0.01268 0.0
C345 C 0.81153 0.30125 0.00248 0.0
H346 H 0.80155 0.68039 0.47213 0.0
H347 H 0.59813 0.72143 0.49951 0.0
H348 H 0.62305 0.82217 0.49639 0.0
H349 H 0.71269 0.89802 0.50078 0.0
H350 H 0.91877 0.84967 0.48416 0.0
H351 H 0.8837 0.75349 0.46703 0.0
C352 C 0.76231 0.71146 0.47645 0.0
C353 C 0.69964 0.69476 0.48697 0.0
C354 C 0.7782 0.76845 0.47666 0.0
C355 C 0.64766 0.73415 0.49189 0.0
C356 C 0.66211 0.79163 0.4904 0.0
C357 C 0.74909 0.86662 0.49204 0.0
C358 C 0.81823 0.88132 0.49257 0.0
C359 C 0.72879 0.80952 0.48514 0.0
C360 C 0.86543 0.84018 0.48224 0.0
C361 C 0.84538 0.78467 0.47318 0.0
H362 H 0.80892 0.40151 0.44287 0.0
H363 H 0.64327 0.35014 0.49924 0.0
H364 H 0.68228 0.25242 0.49219 0.0
H365 H 0.76194 0.18038 0.46736 0.0
H366 H 0.92289 0.23387 0.40852 0.0
H367 H 0.8875 0.33131 0.41891 0.0
C368 C 0.78112 0.36869 0.45328 0.0
C369 C 0.72278 0.38244 0.47087 0.0
C370 C 0.80301 0.31278 0.44858 0.0
C371 C 0.68744 0.33994 0.48477 0.0
C372 C 0.71005 0.28425 0.48098 0.0
C373 C 0.78925 0.21362 0.4571 0.0
C374 C 0.84439 0.19998 0.43687 0.0
C375 C 0.7675 0.26993 0.46257 0.0
C376 C 0.87969 0.24333 0.42379 0.0
C377 C 0.85956 0.29907 0.42971 0.0
H378 H 0.29928 0.4006 0.44767 0.0
H379 H 0.45933 0.38889 0.51671 0.0
H380 H 0.38883 0.32508 0.54449 0.0
H381 H 0.28014 0.27678 0.55035 0.0
H382 H 0.11687 0.29841 0.48427 0.0
H383 H 0.19177 0.35215 0.45327 0.0
C384 C 0.31915 0.38383 0.46866 0.0
C385 C 0.38437 0.39954 0.48019 0.0
C386 C 0.27794 0.34863 0.48488 0.0
C387 C 0.40913 0.3776 0.50748 0.0
C388 C 0.36887 0.34114 0.52332 0.0
C389 C 0.26025 0.29392 0.52951 0.0
C390 C 0.19213 0.2839 0.52018 0.0
C391 C 0.30274 0.32724 0.51253 0.0
C392 C 0.16881 0.30467 0.49215 0.0
C393 C 0.21151 0.33606 0.47448 0.0
H394 H 0.46672 0.73548 0.46531 0.0
H395 H 0.32815 0.60602 0.48901 0.0
H396 H 0.23444 0.67101 0.48939 0.0
H397 H 0.18942 0.75727 0.47114 0.0
H398 H 0.3267 0.88629 0.44603 0.0
H399 H 0.42313 0.83037 0.4589 0.0
C400 C 0.41632 0.72242 0.4716 0.0
C401 C 0.40373 0.66619 0.47684 0.0
C402 C 0.36225 0.75996 0.47121 0.0
C403 C 0.33847 0.64927 0.48481 0.0
C404 C 0.28488 0.68631 0.48488 0.0
C405 C 0.24043 0.77416 0.47008 0.0
C406 C 0.25122 0.82565 0.45774 0.0
C407 C 0.29559 0.74082 0.4765 0.0
C408 C 0.31748 0.84687 0.45581 0.0
C409 C 0.37261 0.8145 0.4627 0.0
H410 H 0.17119 0.06576 0.11372 0.0
H411 H 0.99471 0.97389 0.07363 0.0
H412 H 0.97159 0.9411 0.12562 0.0
H413 H 1.00217 0.93855 0.18232 0.0
H414 H 0.17788 0.03073 0.2222 0.0
H415 H 0.20213 0.06261 0.16997 0.0
C416 C 0.12743 0.0388 0.11641 0.0
C417 C 0.08475 0.02217 0.08998 0.0
C418 C 0.11542 0.01926 0.14599 0.0
C419 C 0.02784 0.98776 0.09379 0.0
C420 C 0.01513 0.96842 0.12333 0.0
C421 C 0.04685 0.96416 0.17908 0.0
C422 C 0.08955 0.98109 0.20535 0.0
C423 C 0.0591 0.98334 0.14941 0.0
C424 C 0.14608 0.01577 0.20172 0.0
C425 C 0.15906 0.03474 0.17215 0.0
H426 H 0.93527 0.06269 0.86762 0.0
H427 H 0.15186 0.07475 0.87724 0.0
H428 H 0.16154 0.08434 0.81975 0.0
H429 H 0.10741 0.08344 0.76612 0.0
H430 H 0.89107 0.06462 0.75768 0.0
H431 H 0.882 0.06361 0.81556 0.0
C432 C 0.98465 0.06798 0.85724 0.0
C433 C 0.04274 0.06818 0.87648 0.0
C434 C 0.98969 0.07195 0.82442 0.0
C435 C 0.10646 0.07424 0.86271 0.0
C436 C 0.11193 0.0798 0.82995 0.0
C437 C 0.05849 0.07997 0.77723 0.0
C438 C 0.99996 0.07406 0.75802 0.0
C439 C 0.05383 0.07796 0.81048 0.0
C440 C 0.93664 0.06898 0.77225 0.0
C441 C 0.93146 0.06835 0.80522 0.0
H442 H 0.65916 0.45998 0.59774 0.0
H443 H 0.46811 0.53832 0.58538 0.0
H444 H 0.43413 0.51897 0.63929 0.0
H445 H 0.46645 0.49151 0.69183 0.0
H446 H 0.66487 0.42458 0.70458 0.0
H447 H 0.68637 0.42413 0.64781 0.0
C448 C 0.60987 0.47256 0.60681 0.0
C449 C 0.56689 0.50203 0.58839 0.0
C450 C 0.59179 0.46255 0.63765 0.0
C451 C 0.50225 0.51633 0.59962 0.0
C452 C 0.48303 0.50534 0.63032 0.0
C453 C 0.5146 0.47705 0.68228 0.0
C454 C 0.56474 0.45984 0.70282 0.0
C455 C 0.52867 0.48049 0.64995 0.0
C456 C 0.62523 0.43827 0.68963 0.0
C457 C 0.63809 0.43869 0.65713 0.0
H458 H 0.47162 0.53194 0.36759 0.0
H459 H 0.68727 0.55664 0.36637 0.0
H460 H 0.67963 0.58281 0.31135 0.0
H461 H 0.61175 0.58687 0.26185 0.0
H462 H 0.39663 0.55713 0.26385 0.0
H463 H 0.4034 0.54507 0.32078 0.0
C464 C 0.51689 0.54357 0.35529 0.0
C465 C 0.58 0.54151 0.37034 0.0
C466 C 0.51194 0.55731 0.32399 0.0
C467 C 0.63835 0.55758 0.35483 0.0
C468 C 0.63385 0.57229 0.3235 0.0
C469 C 0.5664 0.57896 0.27507 0.0
C470 C 0.50389 0.57223 0.25893 0.0
C471 C 0.57103 0.57065 0.30756 0.0
C472 C 0.44524 0.56174 0.27594 0.0
C473 C 0.44913 0.55482 0.30835 0.0
loop_
_geom_bond_atom_site_label_1
_geom_bond_atom_site_label_2
_geom_bond_distance
_geom_bond_site_symmetry_2
_ccdc_geom_bond_type
O0 Mg1 1.990 . S
O0 C14 1.253 . S
Mg1 O0 1.990 . S
Mg1 O4 2.180 . S
Mg1 O5 2.117 . S
Mg1 O19 2.030 1_545 S
O2 Mg3 2.072 1_554 S
O2 C14 1.260 . S
Mg3 O2 2.072 1_556 S
Mg3 O4 2.099 1_556 S
Mg3 O6 2.079 . S
Mg3 O7 2.072 1_556 S
Mg3 O9 2.099 1_445 S
Mg3 O20 2.079 1_545 S
O4 Mg1 2.180 . S
O4 Mg3 2.099 1_554 S
O4 C15 1.279 . S
O5 Mg1 2.117 . S
O5 C15 1.250 . S
O6 Mg3 2.079 . S
O6 C16 1.264 . S
O7 Mg3 2.072 1_554 S
O7 C17 1.260 1_454 S
Mg8 O9 2.180 1_545 S
Mg8 O10 2.030 . S
Mg8 O11 1.990 . S
Mg8 O12 2.117 1_545 S
O9 Mg3 2.099 1_665 S
O9 Mg8 2.180 1_565 S
O9 C18 1.279 . S
O10 Mg8 2.030 . S
O10 C16 1.248 1_655 S
O11 Mg8 1.990 . S
O11 C17 1.253 . S
O12 Mg8 2.117 1_565 S
O12 C18 1.250 . S
C13 O19 1.248 . S
C13 O20 1.264 1_554 S
C14 O0 1.253 . S
C14 O2 1.260 . S
C15 O4 1.279 . S
C15 O5 1.250 . S
C16 O6 1.264 . S
C16 O10 1.248 1_455 S
C17 O7 1.260 1_656 S
C17 O11 1.253 . S
C18 O9 1.279 . S
C18 O12 1.250 . S
O19 Mg1 2.030 1_565 S
O19 C13 1.248 . S
O20 Mg3 2.079 1_565 S
O20 C13 1.264 1_556 S
O21 Mg22 1.990 . S
O21 C35 1.253 . S
Mg22 O21 1.990 . S
Mg22 O25 2.180 . S
Mg22 O26 2.117 . S
Mg22 O40 2.030 . S
O23 Mg24 2.072 . S
O23 C35 1.260 . S
Mg24 O23 2.072 . S
Mg24 O25 2.099 . S
Mg24 O27 2.079 . S
Mg24 O28 2.072 . S
Mg24 O30 2.099 . S
Mg24 O41 2.079 . S
O25 Mg22 2.180 . S
O25 Mg24 2.099 . S
O25 C36 1.279 . S
O26 Mg22 2.117 . S
O26 C36 1.250 . S
O27 Mg24 2.079 . S
O27 C37 1.264 . S
O28 Mg24 2.072 . S
O28 C38 1.260 . S
Mg29 O30 2.180 . S
Mg29 O31 2.030 . S
Mg29 O32 1.990 . S
Mg29 O33 2.117 . S
O30 Mg24 2.099 . S
O30 Mg29 2.180 . S
O30 C39 1.279 . S
O31 Mg29 2.030 . S
O31 C37 1.248 . S
O32 Mg29 1.990 . S
O32 C38 1.253 . S
O33 Mg29 2.117 . S
O33 C39 1.250 . S
C34 O40 1.248 . S
C34 O41 1.264 . S
C35 O21 1.253 . S
C35 O23 1.260 . S
C36 O25 1.279 . S
C36 O26 1.250 . S
C37 O27 1.264 . S
C37 O31 1.248 . S
C38 O28 1.260 . S
C38 O32 1.253 . S
C39 O30 1.279 . S
C39 O33 1.250 . S
O40 Mg22 2.030 . S
O40 C34 1.248 . S
O41 Mg24 2.079 . S
O41 C34 1.264 . S
C42 C43 1.391 . S
C42 C46 1.391 . S
C42 H84 0.948 . S
C43 C42 1.391 . S
C43 C44 1.391 . S
C44 C43 1.391 . S
C44 H100 0.947 . S
C44 C101 1.392 . S
C45 C46 1.391 . S
C45 C49 1.397 . S
C45 C101 1.419 . S
C46 C42 1.391 . S
C46 C45 1.391 . S
C46 C47 1.399 . S
C47 C46 1.399 . S
C47 C50 1.396 . S
C47 C59 1.453 1_565 S
C47 C60 1.684 . S
H48 C72 0.948 . S
C49 C45 1.397 . S
C49 C50 1.394 . S
C49 C68 1.723 . S
C50 C47 1.396 . S
C50 C49 1.394 . S
C50 C80 1.723 1_565 S
H51 C74 0.947 . S
H52 C75 0.948 . S
H53 C81 0.982 1_455 S
H54 C82 0.979 . S
H55 C82 0.980 . S
H56 C82 0.983 . S
H57 C81 0.979 . S
H58 C81 0.977 . S
C59 C47 1.453 1_545 S
C59 H88 0.982 . S
C59 H89 0.979 1_545 S
C59 H90 0.977 . S
C60 C47 1.684 . S
C60 H85 0.979 1_455 S
C60 H86 0.980 1_455 S
C60 H87 0.983 . S
C61 C62 1.391 . S
C61 C66 1.391 . S
C61 H91 0.948 . S
C62 C61 1.391 . S
C62 C63 1.391 1_565 S
C63 C62 1.391 1_545 S
C63 C64 1.392 1_455 S
C63 H92 0.947 1_455 S
C64 C63 1.392 1_655 S
C64 C65 1.419 1_655 S
C64 H93 0.948 . S
C65 C64 1.419 1_455 S
C65 C66 1.391 1_545 S
C65 C69 1.397 . S
C66 C61 1.391 . S
C66 C65 1.391 1_565 S
C66 C67 1.399 . S
C67 C66 1.399 . S
C67 C68 1.396 . S
C67 C70 1.453 . S
C67 C71 1.684 . S
C68 C49 1.723 . S
C68 C67 1.396 . S
C68 C69 1.394 1_565 S
C69 C65 1.397 . S
C69 C68 1.394 1_545 S
C69 C79 1.723 1_455 S
C70 C67 1.453 . S
C70 H94 0.982 . S
C70 H95 0.979 . S
C70 H96 0.977 . S
C71 C67 1.684 . S
C71 H97 0.979 . S
C71 H98 0.980 . S
C71 H99 0.983 . S
C72 H48 0.948 . S
C72 C73 1.391 . S
C72 C77 1.391 . S
C73 C72 1.391 . S
C73 C74 1.391 . S
C74 H51 0.947 . S
C74 C73 1.391 . S
C74 C75 1.392 . S
C75 H52 0.948 . S
C75 C74 1.392 . S
C75 C76 1.419 . S
C76 C75 1.419 . S
C76 C77 1.391 . S
C76 C80 1.397 1_655 S
C77 C72 1.391 . S
C77 C76 1.391 . S
C77 C78 1.399 . S
C78 C77 1.399 . S
C78 C79 1.396 . S
C78 C81 1.453 . S
C78 C82 1.684 . S
C79 C69 1.723 1_655 S
C79 C78 1.396 . S
C79 C80 1.394 1_655 S
C80 C50 1.723 1_545 S
C80 C76 1.397 1_455 S
C80 C79 1.394 1_455 S
C81 H53 0.982 1_655 S
C81 H57 0.979 . S
C81 H58 0.977 . S
C81 C78 1.453 . S
C82 H54 0.979 . S
C82 H55 0.980 . S
C82 H56 0.983 . S
C82 C78 1.684 . S
H83 C101 0.948 . S
H84 C42 0.948 . S
H85 C60 0.979 1_655 S
H86 C60 0.980 1_655 S
H87 C60 0.983 . S
H88 C59 0.982 . S
H89 C59 0.979 1_565 S
H90 C59 0.977 . S
H91 C61 0.948 . S
H92 C63 0.947 1_655 S
H93 C64 0.948 . S
H94 C70 0.982 . S
H95 C70 0.979 . S
H96 C70 0.977 . S
H97 C71 0.979 . S
H98 C71 0.980 . S
H99 C71 0.983 . S
H100 C44 0.947 . S
C101 C44 1.392 . S
C101 C45 1.419 . S
C101 H83 0.948 . S
C102 C103 1.391 . S
C102 C106 1.391 . S
C102 H144 0.948 . S
C103 C102 1.391 . S
C103 C104 1.391 . S
C104 C103 1.391 . S
C104 H160 0.947 . S
C104 C161 1.392 . S
C105 C106 1.391 . S
C105 C109 1.397 . S
C105 C161 1.419 . S
C106 C102 1.391 . S
C106 C105 1.391 . S
C106 C107 1.399 . S
C107 C106 1.399 . S
C107 C110 1.396 . S
C107 C119 1.453 . S
C107 C120 1.684 1_455 S
H108 C132 0.948 . S
C109 C105 1.397 . S
C109 C110 1.394 . S
C109 C128 1.723 . S
C110 C107 1.396 . S
C110 C109 1.394 . S
C110 C140 1.723 1_455 S
H111 C134 0.947 . S
H112 C135 0.948 . S
H113 C141 0.982 . S
H114 C142 0.979 1_545 S
H115 C142 0.980 . S
H116 C142 0.983 . S
H117 C141 0.979 . S
H118 C141 0.977 . S
C119 C107 1.453 . S
C119 H148 0.982 . S
C119 H149 0.979 . S
C119 H150 0.977 . S
C120 C107 1.684 1_655 S
C120 H145 0.979 . S
C120 H146 0.980 . S
C120 H147 0.983 . S
C121 C122 1.391 1_455 S
C121 C126 1.391 . S
C121 H151 0.948 . S
C122 C121 1.391 1_655 S
C122 C123 1.391 . S
C123 C122 1.391 . S
C123 C124 1.392 . S
C123 H152 0.947 . S
C124 C123 1.392 . S
C124 C125 1.419 . S
C124 H153 0.948 . S
C125 C124 1.419 . S
C125 C126 1.391 1_655 S
C125 C129 1.397 . S
C126 C121 1.391 . S
C126 C125 1.391 1_455 S
C126 C127 1.399 . S
C127 C126 1.399 . S
C127 C128 1.396 . S
C127 C130 1.453 . S
C127 C131 1.684 . S
C128 C109 1.723 . S
C128 C127 1.396 . S
C128 C129 1.394 1_455 S
C129 C125 1.397 . S
C129 C128 1.394 1_655 S
C129 C139 1.723 . S
C130 C127 1.453 . S
C130 H154 0.982 . S
C130 H155 0.979 . S
C130 H156 0.977 . S
C131 C127 1.684 . S
C131 H157 0.979 . S
C131 H158 0.980 . S
C131 H159 0.983 . S
C132 H108 0.948 . S
C132 C133 1.391 . S
C132 C137 1.391 . S
C133 C132 1.391 . S
C133 C134 1.391 . S
C134 H111 0.947 . S
C134 C133 1.391 . S
C134 C135 1.392 1_565 S
C135 H112 0.948 . S
C135 C134 1.392 1_545 S
C135 C136 1.419 . S
C136 C135 1.419 . S
C136 C137 1.391 1_545 S
C136 C140 1.397 . S
C137 C132 1.391 . S
C137 C136 1.391 1_565 S
C137 C138 1.399 . S
C138 C137 1.399 . S
C138 C139 1.396 1_565 S
C138 C141 1.453 . S
C138 C142 1.684 . S
C139 C129 1.723 . S
C139 C138 1.396 1_545 S
C139 C140 1.394 . S
C140 C110 1.723 1_655 S
C140 C136 1.397 . S
C140 C139 1.394 . S
C141 H113 0.982 . S
C141 H117 0.979 . S
C141 H118 0.977 . S
C141 C138 1.453 . S
C142 H114 0.979 1_565 S
C142 H115 0.980 . S
C142 H116 0.983 . S
C142 C138 1.684 . S
H143 C161 0.948 . S
H144 C102 0.948 . S
H145 C120 0.979 . S
H146 C120 0.980 . S
H147 C120 0.983 . S
H148 C119 0.982 . S
H149 C119 0.979 . S
H150 C119 0.977 . S
H151 C121 0.948 . S
H152 C123 0.947 . S
H153 C124 0.948 . S
H154 C130 0.982 . S
H155 C130 0.979 . S
H156 C130 0.977 . S
H157 C131 0.979 . S
H158 C131 0.980 . S
H159 C131 0.983 . S
H160 C104 0.947 . S
C161 C104 1.392 . S
C161 C105 1.419 . S
C161 H143 0.948 . S
C162 C163 1.391 . S
C162 C166 1.391 . S
C162 H204 0.948 1_556 S
C163 C162 1.391 . S
C163 C164 1.391 . S
C164 C163 1.391 . S
C164 H220 0.947 . S
C164 C221 1.392 . S
C165 C166 1.391 . S
C165 C169 1.397 . S
C165 C221 1.419 . S
C166 C162 1.391 . S
C166 C165 1.391 . S
C166 C167 1.399 . S
C167 C166 1.399 . S
C167 C170 1.396 . S
C167 C179 1.453 1_556 S
C167 C180 1.684 1_556 S
H168 C192 0.948 . S
C169 C165 1.397 . S
C169 C170 1.394 . S
C169 C188 1.723 . S
C170 C167 1.396 . S
C170 C169 1.394 . S
C170 C200 1.723 . S
H171 C194 0.947 . S
H172 C195 0.948 1_554 S
H173 C201 0.982 . S
H174 C202 0.979 . S
H175 C202 0.980 . S
H176 C202 0.983 . S
H177 C201 0.979 . S
H178 C201 0.977 . S
C179 C167 1.453 1_554 S
C179 H208 0.982 1_554 S
C179 H209 0.979 . S
C179 H210 0.977 . S
C180 C167 1.684 1_554 S
C180 H205 0.975 1_554 S
C180 H206 0.980 . S
C180 H207 0.983 . S
C181 C182 1.391 . S
C181 C186 1.391 . S
C181 H211 0.948 . S
C182 C181 1.391 . S
C182 C183 1.391 . S
C183 C182 1.391 . S
C183 C184 1.392 . S
C183 H212 0.947 . S
C184 C183 1.392 . S
C184 C185 1.419 . S
C184 H213 0.948 . S
C185 C184 1.419 . S
C185 C186 1.391 . S
C185 C189 1.397 . S
C186 C181 1.391 . S
C186 C185 1.391 . S
C186 C187 1.399 . S
C187 C186 1.399 . S
C187 C188 1.396 . S
C187 C190 1.453 . S
C187 C191 1.684 . S
C188 C169 1.723 . S
C188 C187 1.396 . S
C188 C189 1.394 . S
C189 C185 1.397 . S
C189 C188 1.394 . S
C189 C199 1.723 . S
C190 C187 1.453 . S
C190 H214 0.982 . S
C190 H215 0.979 . S
C190 H216 0.977 . S
C191 C187 1.684 . S
C191 H217 0.979 . S
C191 H218 0.980 . S
C191 H219 0.983 . S
C192 H168 0.948 . S
C192 C193 1.391 . S
C192 C197 1.391 . S
C193 C192 1.391 . S
C193 C194 1.391 1_556 S
C194 H171 0.947 . S
C194 C193 1.391 1_554 S
C194 C195 1.392 1_554 S
C195 H172 0.948 1_556 S
C195 C194 1.392 1_556 S
C195 C196 1.419 . S
C196 C195 1.419 . S
C196 C197 1.391 . S
C196 C200 1.397 . S
C197 C192 1.391 . S
C197 C196 1.391 . S
C197 C198 1.399 . S
C198 C197 1.399 . S
C198 C199 1.396 . S
C198 C201 1.453 . S
C198 C202 1.684 . S
C199 C189 1.723 . S
C199 C198 1.396 . S
C199 C200 1.394 . S
C200 C170 1.723 . S
C200 C196 1.397 . S
C200 C199 1.394 . S
C201 H173 0.982 . S
C201 H177 0.979 . S
C201 H178 0.977 . S
C201 C198 1.453 . S
C202 H174 0.979 . S
C202 H175 0.980 . S
C202 H176 0.983 . S
C202 C198 1.684 . S
H203 C221 0.948 . S
H204 C162 0.948 1_554 S
H205 C180 0.975 1_556 S
H206 C180 0.980 . S
H207 C180 0.983 . S
H208 C179 0.982 1_556 S
H209 C179 0.979 . S
H210 C179 0.977 . S
H211 C181 0.948 . S
H212 C183 0.947 . S
H213 C184 0.948 . S
H214 C190 0.982 . S
H215 C190 0.979 . S
H216 C190 0.977 . S
H217 C191 0.979 . S
H218 C191 0.980 . S
H219 C191 0.983 . S
H220 C164 0.947 . S
C221 C164 1.392 . S
C221 C165 1.419 . S
C221 H203 0.948 . S
C222 C223 1.391 . S
C222 C226 1.391 . S
C222 H264 0.948 1_554 S
C223 C222 1.391 . S
C223 C224 1.391 . S
C224 C223 1.391 . S
C224 H280 0.947 . S
C224 C281 1.392 . S
C225 C226 1.391 . S
C225 C229 1.397 . S
C225 C281 1.419 . S
C226 C222 1.391 . S
C226 C225 1.391 . S
C226 C227 1.399 . S
C227 C226 1.399 . S
C227 C230 1.396 . S
C227 C239 1.453 . S
C227 C240 1.684 1_554 S
H228 C252 0.948 . S
C229 C225 1.397 . S
C229 C230 1.394 . S
C229 C248 1.723 . S
C230 C227 1.396 . S
C230 C229 1.394 . S
C230 C260 1.723 . S
H231 C254 0.947 . S
H232 C255 0.960 . S
H233 C261 0.982 . S
H234 C262 0.979 . S
H235 C262 0.980 . S
H236 C262 0.983 . S
H237 C261 0.979 . S
H238 C261 0.977 . S
C239 C227 1.453 . S
C239 H268 0.982 . S
C239 H269 0.979 1_554 S
C239 H270 0.974 1_554 S
C240 C227 1.684 1_556 S
C240 H265 0.979 1_556 S
C240 H266 0.980 . S
C240 H267 0.983 . S
C241 C242 1.391 . S
C241 C246 1.391 . S
C241 H271 0.948 . S
C242 C241 1.391 . S
C242 C243 1.391 . S
C243 C242 1.391 . S
C243 C244 1.392 . S
C243 H272 0.947 . S
C244 C243 1.392 . S
C244 C245 1.419 . S
C244 H273 0.948 . S
C245 C244 1.419 . S
C245 C246 1.391 . S
C245 C249 1.397 . S
C246 C241 1.391 . S
C246 C245 1.391 . S
C246 C247 1.399 . S
C247 C246 1.399 . S
C247 C248 1.396 . S
C247 C250 1.453 . S
C247 C251 1.684 . S
C248 C229 1.723 . S
C248 C247 1.396 . S
C248 C249 1.394 . S
C249 C245 1.397 . S
C249 C248 1.394 . S
C249 C259 1.723 . S
C250 C247 1.453 . S
C250 H274 0.982 . S
C250 H275 0.979 . S
C250 H276 0.977 . S
C251 C247 1.684 . S
C251 H277 0.979 . S
C251 H278 0.980 . S
C251 H279 0.983 . S
C252 H228 0.948 . S
C252 C253 1.391 . S
C252 C257 1.391 . S
C253 C252 1.391 . S
C253 C254 1.391 1_554 S
C254 H231 0.947 . S
C254 C253 1.391 1_556 S
C254 C255 1.392 1_556 S
C255 H232 0.960 . S
C255 C254 1.392 1_554 S
C255 C256 1.419 . S
C256 C255 1.419 . S
C256 C257 1.391 . S
C256 C260 1.397 . S
C257 C252 1.391 . S
C257 C256 1.391 . S
C257 C258 1.399 . S
C258 C257 1.399 . S
C258 C259 1.396 . S
C258 C261 1.453 . S
C258 C262 1.684 . S
C259 C249 1.723 . S
C259 C258 1.396 . S
C259 C260 1.394 . S
C260 C230 1.723 . S
C260 C256 1.397 . S
C260 C259 1.394 . S
C261 H233 0.982 . S
C261 H237 0.979 . S
C261 H238 0.977 . S
C261 C258 1.453 . S
C262 H234 0.979 . S
C262 H235 0.980 . S
C262 H236 0.983 . S
C262 C258 1.684 . S
H263 C281 0.948 . S
H264 C222 0.948 1_556 S
H265 C240 0.979 1_554 S
H266 C240 0.980 . S
H267 C240 0.983 . S
H268 C239 0.982 . S
H269 C239 0.979 1_556 S
H270 C239 0.974 1_556 S
H271 C241 0.948 . S
H272 C243 0.947 . S
H273 C244 0.948 . S
H274 C250 0.982 . S
H275 C250 0.979 . S
H276 C250 0.977 . S
H277 C251 0.979 . S
H278 C251 0.980 . S
H279 C251 0.983 . S
H280 C224 0.947 . S
C281 C224 1.392 . S
C281 C225 1.419 . S
C281 H263 0.948 . S
H282 C288 0.930 . S
H283 C291 0.930 . S
H284 C292 0.930 . S
H285 C293 0.930 . S
H286 C296 0.930 . S
H287 C297 0.930 . S
C288 H282 0.930 . S
C288 C289 1.355 1_556 S
C288 C290 1.415 . S
C289 C288 1.355 1_554 S
C289 C291 1.419 . S
C290 C288 1.415 . S
C290 C295 1.425 1_556 S
C290 C297 1.409 . S
C291 H283 0.930 . S
C291 C289 1.419 . S
C291 C292 1.362 . S
C292 H284 0.930 . S
C292 C291 1.362 . S
C292 C295 1.409 . S
C293 H285 0.930 . S
C293 C294 1.355 . S
C293 C295 1.415 . S
C294 C293 1.355 . S
C294 C296 1.419 1_554 S
C295 C290 1.425 1_554 S
C295 C292 1.409 . S
C295 C293 1.415 . S
C296 H286 0.930 . S
C296 C294 1.419 1_556 S
C296 C297 1.362 . S
C297 H287 0.930 . S
C297 C290 1.409 . S
C297 C296 1.362 . S
H298 C304 0.930 . S
H299 C307 0.930 . S
H300 C308 0.930 . S
H301 C309 0.930 . S
H302 C312 0.930 . S
H303 C313 0.930 . S
C304 H298 0.930 . S
C304 C305 1.346 1_554 S
C304 C306 1.415 . S
C305 C304 1.346 1_556 S
C305 C307 1.428 . S
C306 C304 1.415 . S
C306 C311 1.425 1_554 S
C306 C313 1.409 . S
C307 H299 0.930 . S
C307 C305 1.428 . S
C307 C308 1.362 . S
C308 H300 0.930 . S
C308 C307 1.362 . S
C308 C311 1.409 . S
C309 H301 0.930 . S
C309 C310 1.358 . S
C309 C311 1.415 . S
C310 C309 1.358 . S
C310 C312 1.416 1_556 S
C311 C306 1.425 1_556 S
C311 C308 1.409 . S
C311 C309 1.415 . S
C312 H302 0.930 . S
C312 C310 1.416 1_554 S
C312 C313 1.362 . S
C313 H303 0.930 . S
C313 C306 1.409 . S
C313 C312 1.362 . S
H314 C320 0.930 . S
H315 C323 0.930 . S
H316 C324 0.930 . S
H317 C325 0.915 1_556 S
H318 C328 0.930 . S
H319 C329 0.930 . S
C320 H314 0.930 . S
C320 C321 1.355 . S
C320 C322 1.415 . S
C321 C320 1.355 . S
C321 C323 1.419 1_554 S
C322 C320 1.415 . S
C322 C327 1.425 . S
C322 C329 1.409 . S
C323 H315 0.930 . S
C323 C321 1.419 1_556 S
C323 C324 1.362 . S
C324 H316 0.930 . S
C324 C323 1.362 . S
C324 C327 1.409 1_556 S
C325 H317 0.915 1_554 S
C325 C326 1.369 . S
C325 C327 1.414 . S
C326 C325 1.369 . S
C326 C328 1.419 . S
C327 C322 1.425 . S
C327 C324 1.409 1_554 S
C327 C325 1.414 . S
C328 H318 0.930 . S
C328 C326 1.419 . S
C328 C329 1.362 . S
C329 H319 0.930 . S
C329 C322 1.409 . S
C329 C328 1.362 . S
H330 C336 0.930 . S
H331 C339 0.930 . S
H332 C340 0.930 . S
H333 C341 0.930 . S
H334 C344 0.930 . S
H335 C345 0.930 . S
C336 H330 0.930 . S
C336 C337 1.355 1_554 S
C336 C338 1.415 . S
C337 C336 1.355 1_556 S
C337 C339 1.419 . S
C338 C336 1.415 . S
C338 C343 1.425 1_554 S
C338 C345 1.409 . S
C339 H331 0.930 . S
C339 C337 1.419 . S
C339 C340 1.362 . S
C340 H332 0.930 . S
C340 C339 1.362 . S
C340 C343 1.409 . S
C341 H333 0.930 . S
C341 C342 1.355 . S
C341 C343 1.415 . S
C342 C341 1.355 . S
C342 C344 1.419 1_556 S
C343 C338 1.425 1_556 S
C343 C340 1.409 . S
C343 C341 1.415 . S
C344 H334 0.930 . S
C344 C342 1.419 1_554 S
C344 C345 1.362 . S
C345 H335 0.930 . S
C345 C338 1.409 . S
C345 C344 1.362 . S
H346 C352 0.930 . S
H347 C355 0.930 . S
H348 C356 0.930 . S
H349 C357 0.930 . S
H350 C360 0.930 . S
H351 C361 0.930 . S
C352 H346 0.930 . S
C352 C353 1.355 . S
C352 C354 1.415 . S
C353 C352 1.355 . S
C353 C355 1.419 . S
C354 C352 1.415 . S
C354 C359 1.425 . S
C354 C361 1.409 . S
C355 H347 0.930 . S
C355 C353 1.419 . S
C355 C356 1.362 . S
C356 H348 0.930 . S
C356 C355 1.362 . S
C356 C359 1.409 . S
C357 H349 0.930 . S
C357 C358 1.355 . S
C357 C359 1.415 . S
C358 C357 1.355 . S
C358 C360 1.419 . S
C359 C354 1.425 . S
C359 C356 1.409 . S
C359 C357 1.415 . S
C360 H350 0.930 . S
C360 C358 1.419 . S
C360 C361 1.362 . S
C361 H351 0.930 . S
C361 C354 1.409 . S
C361 C360 1.362 . S
H362 C368 0.930 . S
H363 C371 0.930 . S
H364 C372 0.930 . S
H365 C373 0.930 . S
H366 C376 0.930 . S
H367 C377 0.930 . S
C368 H362 0.930 . S
C368 C369 1.355 . S
C368 C370 1.415 . S
C369 C368 1.355 . S
C369 C371 1.419 . S
C370 C368 1.415 . S
C370 C375 1.425 . S
C370 C377 1.409 . S
C371 H363 0.930 . S
C371 C369 1.419 . S
C371 C372 1.362 . S
C372 H364 0.930 . S
C372 C371 1.362 . S
C372 C375 1.409 . S
C373 H365 0.930 . S
C373 C374 1.355 . S
C373 C375 1.415 . S
C374 C373 1.355 . S
C374 C376 1.419 . S
C375 C370 1.425 . S
C375 C372 1.409 . S
C375 C373 1.415 . S
C376 H366 0.930 . S
C376 C374 1.419 . S
C376 C377 1.362 . S
C377 H367 0.930 . S
C377 C370 1.409 . S
C377 C376 1.362 . S
H378 C384 0.930 . S
H379 C387 0.930 . S
H380 C388 0.930 . S
H381 C389 0.930 . S
H382 C392 0.930 . S
H383 C393 0.930 . S
C384 H378 0.930 . S
C384 C385 1.355 . S
C384 C386 1.415 . S
C385 C384 1.355 . S
C385 C387 1.419 . S
C386 C384 1.415 . S
C386 C391 1.425 . S
C386 C393 1.409 . S
C387 H379 0.930 . S
C387 C385 1.419 . S
C387 C388 1.362 . S
C388 H380 0.930 . S
C388 C387 1.362 . S
C388 C391 1.409 . S
C389 H381 0.930 . S
C389 C390 1.355 . S
C389 C391 1.415 . S
C390 C389 1.355 . S
C390 C392 1.419 . S
C391 C386 1.425 . S
C391 C388 1.409 . S
C391 C389 1.415 . S
C392 H382 0.930 . S
C392 C390 1.419 . S
C392 C393 1.362 . S
C393 H383 0.930 . S
C393 C386 1.409 . S
C393 C392 1.362 . S
H394 C400 0.930 . S
H395 C403 0.930 . S
H396 C404 0.930 . S
H397 C405 0.930 . S
H398 C408 0.930 . S
H399 C409 0.930 . S
C400 H394 0.930 . S
C400 C401 1.355 . S
C400 C402 1.415 . S
C401 C400 1.355 . S
C401 C403 1.419 . S
C402 C400 1.415 . S
C402 C407 1.425 . S
C402 C409 1.409 . S
C403 H395 0.930 . S
C403 C401 1.419 . S
C403 C404 1.362 . S
C404 H396 0.930 . S
C404 C403 1.362 . S
C404 C407 1.409 . S
C405 H397 0.930 . S
C405 C406 1.355 . S
C405 C407 1.415 . S
C406 C405 1.355 . S
C406 C408 1.419 . S
C407 C402 1.425 . S
C407 C404 1.409 . S
C407 C405 1.415 . S
C408 H398 0.930 . S
C408 C406 1.419 . S
C408 C409 1.362 . S
C409 H399 0.930 . S
C409 C402 1.409 . S
C409 C408 1.362 . S
H410 C416 0.930 . S
H411 C419 0.930 1_655 S
H412 C420 0.930 1_655 S
H413 C421 0.930 1_655 S
H414 C424 0.930 . S
H415 C425 0.930 . S
C416 H410 0.930 . S
C416 C417 1.355 . S
C416 C418 1.415 . S
C417 C416 1.355 . S
C417 C419 1.419 1_545 S
C418 C416 1.415 . S
C418 C423 1.425 1_545 S
C418 C425 1.409 . S
C419 H411 0.930 1_455 S
C419 C417 1.419 1_565 S
C419 C420 1.362 . S
C420 H412 0.930 1_455 S
C420 C419 1.362 . S
C420 C423 1.409 . S
C421 H413 0.930 1_455 S
C421 C422 1.355 . S
C421 C423 1.415 . S
C422 C421 1.355 . S
C422 C424 1.419 1_565 S
C423 C418 1.425 1_565 S
C423 C420 1.409 . S
C423 C421 1.415 . S
C424 H414 0.930 . S
C424 C422 1.419 1_545 S
C424 C425 1.362 . S
C425 H415 0.930 . S
C425 C418 1.409 . S
C425 C424 1.362 . S
H426 C432 0.933 . S
H427 C435 0.930 . S
H428 C436 0.930 . S
H429 C437 0.930 . S
H430 C440 0.930 . S
H431 C441 0.930 . S
C432 H426 0.933 . S
C432 C433 1.352 1_655 S
C432 C434 1.415 1_655 S
C433 C432 1.352 1_455 S
C433 C435 1.419 . S
C434 C432 1.415 1_455 S
C434 C439 1.435 . S
C434 C441 1.400 1_455 S
C435 H427 0.930 . S
C435 C433 1.419 . S
C435 C436 1.362 . S
C436 H428 0.930 . S
C436 C435 1.362 . S
C436 C439 1.409 . S
C437 H429 0.930 . S
C437 C438 1.355 . S
C437 C439 1.415 . S
C438 C437 1.355 . S
C438 C440 1.419 1_455 S
C439 C434 1.435 . S
C439 C436 1.409 . S
C439 C437 1.415 . S
C440 H430 0.930 . S
C440 C438 1.419 1_655 S
C440 C441 1.362 . S
C441 H431 0.930 . S
C441 C434 1.400 1_655 S
C441 C440 1.362 . S
H442 C448 0.930 . S
H443 C451 0.930 . S
H444 C452 0.930 . S
H445 C453 0.930 . S
H446 C456 0.930 . S
H447 C457 0.930 . S
C448 H442 0.930 . S
C448 C449 1.355 . S
C448 C450 1.415 . S
C449 C448 1.355 . S
C449 C451 1.419 . S
C450 C448 1.415 . S
C450 C455 1.425 . S
C450 C457 1.409 . S
C451 H443 0.930 . S
C451 C449 1.419 . S
C451 C452 1.362 . S
C452 H444 0.930 . S
C452 C451 1.362 . S
C452 C455 1.409 . S
C453 H445 0.930 . S
C453 C454 1.355 . S
C453 C455 1.415 . S
C454 C453 1.355 . S
C454 C456 1.419 . S
C455 C450 1.425 . S
C455 C452 1.409 . S
C455 C453 1.415 . S
C456 H446 0.930 . S
C456 C454 1.419 . S
C456 C457 1.362 . S
C457 H447 0.930 . S
C457 C450 1.409 . S
C457 C456 1.362 . S
H458 C464 0.930 . S
H459 C467 0.930 . S
H460 C468 0.930 . S
H461 C469 0.930 . S
H462 C472 0.930 . S
H463 C473 0.930 . S
C464 H458 0.930 . S
C464 C465 1.355 . S
C464 C466 1.415 . S
C465 C464 1.355 . S
C465 C467 1.419 . S
C466 C464 1.415 . S
C466 C471 1.425 . S
C466 C473 1.409 . S
C467 H459 0.930 . S
C467 C465 1.419 . S
C467 C468 1.362 . S
C468 H460 0.930 . S
C468 C467 1.362 . S
C468 C471 1.409 . S
C469 H461 0.930 . S
C469 C470 1.355 . S
C469 C471 1.415 . S
C470 C469 1.355 . S
C470 C472 1.419 . S
C471 C466 1.425 . S
C471 C468 1.409 . S
C471 C469 1.415 . S
C472 H462 0.930 . S
C472 C470 1.419 . S
C472 C473 1.362 . S
C473 H463 0.930 . S
C473 C466 1.409 . S
C473 C472 1.362 . S
C294 C253 1.568 . S
C289 C15 1.383 . S
C305 C13 1.583 1_556 S
C310 C193 1.595 . S
C321 C18 1.246 1_554 S
C326 C223 1.399 . S
C337 C17 1.326 . S
C342 C163 1.381 . S
C353 C36 1.452 . S
C358 C133 1.551 . S
C369 C34 1.562 . S
C374 C73 1.573 . S
C390 C103 1.485 . S
C385 C39 1.366 . S
C406 C43 1.329 . S
C401 C38 1.341 . S
C417 C14 1.534 . S
C422 C62 1.513 . S
C433 C16 1.425 . S
C438 C122 1.390 1_455 S
C454 C182 1.546 . S
C449 C35 1.535 . S
C465 C37 1.427 . S
C470 C242 1.394 . S
