# Generated by pormake.
# Topology pts, (4,4)-cn, num edge types: 1
# Building blocks:
#     Node 0, Type 0, BuildingBlock: GIZVER_clean_linker_0, # of connection points: 4
#     Node 1, Type 0, BuildingBlock: GIZVER_clean_linker_0, # of connection points: 4
#     Node 2, Type 1, BuildingBlock: QUQFOY_clean_sbu_1, # of connection points: 4
#     Node 3, Type 1, BuildingBlock: QUQFOY_clean_sbu_1, # of connection points: 4
#     Edge 4, Type (0, 1), BuildingBlock: FUNLAD_clean_linker_1, # of connection points: 2
#     Edge 5, Type (0, 1), BuildingBlock: FUNLAD_clean_linker_1, # of connection points: 2
#     Edge 6, Type (0, 1), BuildingBlock: FUNLAD_clean_linker_1, # of connection points: 2
#     Edge 7, Type (0, 1), BuildingBlock: FUNLAD_clean_linker_1, # of connection points: 2
#     Edge 8, Type (0, 1), BuildingBlock: FUNLAD_clean_linker_1, # of connection points: 2
#     Edge 9, Type (0, 1), BuildingBlock: FUNLAD_clean_linker_1, # of connection points: 2
#     Edge 10, Type (0, 1), BuildingBlock: FUNLAD_clean_linker_1, # of connection points: 2
#     Edge 11, Type (0, 1), BuildingBlock: FUNLAD_clean_linker_1, # of connection points: 2
# Relax obj value: 0.105
# Max RMSD: 0.276
# Mean RMSD: 0.184
data_MOF--net-pts--node1-QUQFOY_clean_sbu_1--node2-GIZVER_clean_linker_0--edge1-FUNLAD_clean_linker_1
_symmetry_space_group_name_H-M    P1
_symmetry_Int_Tables_number       1
_symmetry_cell_setting            triclinic
loop_
_symmetry_equiv_pos_as_xyz
'x, y, z'
_cell_length_a     25.724333
_cell_length_b     28.457261
_cell_length_c     37.780101
_cell_angle_alpha  90.309578
_cell_angle_beta   89.729348
_cell_angle_gamma 89.710163
loop_
_atom_site_label
_atom_site_type_symbol
_atom_site_fract_x
_atom_site_fract_y
_atom_site_fract_z
_atom_type_partial_charge
H0 H 0.56879 0.05893 0.05729 0.0
H1 H 0.56247 0.07159 0.9438 0.0
H2 H 0.67995 0.98545 0.99195 0.0
H3 H 0.51703 0.12062 0.03077 0.0
H4 H 0.52028 0.13084 0.98427 0.0
H5 H 0.44954 0.07186 0.05555 0.0
H6 H 0.32623 0.02616 0.98773 0.0
H7 H 0.46464 0.0861 0.9427 0.0
C8 C 0.58348 0.04937 0.03129 0.0
C9 C 0.6272 0.01981 0.02808 0.0
C10 C 0.5594 0.06763 0.00091 0.0
C11 C 0.57955 0.05619 0.96724 0.0
C12 C 0.6237 0.02743 0.96389 0.0
C13 C 0.64603 1.00805 -0.00564 0.0
C14 C 0.51565 0.10284 0.00448 0.0
C15 C 0.46347 0.07976 -0.00036 0.0
C16 C 0.43408 0.06602 0.02931 0.0
C17 C 0.38393 0.04753 0.02493 0.0
C18 C 0.36427 0.04172 0.99069 0.0
C19 C 0.39238 0.05648 0.96079 0.0
C20 C 0.44258 0.07442 0.9655 0.0
H21 H 0.07039 0.57456 0.4378 0.0
H22 H 0.07426 0.57622 0.55169 0.0
H23 H 0.01095 0.69357 0.49533 0.0
H24 H 0.13423 0.52682 0.471 0.0
H25 H 0.13291 0.52529 0.51806 0.0
H26 H 0.07905 0.47532 0.436 0.0
H27 H 0.0114 0.35825 0.49051 0.0
H28 H 0.07033 0.47517 0.54987 0.0
C29 C 0.05989 0.59113 0.46275 0.0
C30 C 0.03555 0.6354 0.46276 0.0
C31 C 0.07372 0.5694 0.49474 0.0
C32 C 0.0621 0.5921 0.52703 0.0
C33 C 0.03792 0.63645 0.52759 0.0
C34 C 0.02502 0.65775 0.4953 0.0
C35 C 0.10756 0.52586 0.49427 0.0
C36 C 0.07621 0.48114 0.49301 0.0
C37 C 0.06635 0.4589 0.46037 0.0
C38 C 0.04259 0.4146 0.45908 0.0
C39 C 0.02861 0.39278 0.491 0.0
C40 C 0.03936 0.41386 0.52385 0.0
C41 C 0.06151 0.45881 0.52463 0.0
O42 O 0.9408 0.98782 0.21637 0.0
Cd43 Cd 0.00619 0.97171 0.24592 0.0
Cd44 Cd 0.01712 0.0716 0.24373 0.0
O45 O 0.94905 0.06517 0.21575 0.0
O46 O 0.99963 0.9038 0.25776 0.0
O47 O 0.99983 0.96031 0.29828 0.0
C48 C 0.99789 0.91607 0.29063 0.0
C49 C 0.01869 0.12968 0.28746 0.0
C50 C 0.92442 0.02825 0.20733 0.0
C51 C 0.10487 0.01235 0.21445 0.0
O52 O 0.08655 0.05341 0.21956 0.0
O53 O 0.07944 0.9762 0.22349 0.0
O54 O 0.02273 0.1401 0.2544 0.0
O55 O 0.01417 0.08596 0.29588 0.0
O56 O 0.94569 0.06891 0.77301 0.0
Cd57 Cd 0.01259 0.0758 0.74288 0.0
Cd58 Cd 0.00675 0.97705 0.7454 0.0
O59 O 0.93681 0.99177 0.76997 0.0
O60 O 0.01455 0.14396 0.73099 0.0
O61 O 0.00863 0.08775 0.6905 0.0
C62 C 0.01129 0.13195 0.69815 0.0
C63 C 0.00739 0.9201 0.70085 0.0
C64 C 0.92024 0.03189 0.77987 0.0
C65 C 0.10043 0.02367 0.77778 0.0
O66 O 0.07454 0.98614 0.77382 0.0
O67 O 0.08352 0.06261 0.76609 0.0
O68 O 0.00491 0.90865 0.73378 0.0
O69 O 0.00936 0.96418 0.69304 0.0
H70 H 0.30658 0.03833 0.04867 0.0
C71 C 0.34787 0.03863 0.05491 0.0
H72 H 0.4022 0.0316 0.09659 0.0
H73 H 0.23198 0.10168 0.20834 0.0
H74 H 0.30192 0.1573 0.21714 0.0
H75 H 0.38074 0.15431 0.17973 0.0
H76 H 0.39045 0.09523 0.13365 0.0
C77 C 0.3617 0.03155 0.08876 0.0
C78 C 0.32022 0.02703 0.11633 0.0
C79 C 0.31527 0.06167 0.14319 0.0
C80 C 0.26926 0.06402 0.16423 0.0
C81 C 0.26554 0.09884 0.19108 0.0
C82 C 0.3055 0.13091 0.19652 0.0
C83 C 0.3499 0.12919 0.17548 0.0
C84 C 0.35492 0.09512 0.14906 0.0
H85 H 0.17505 0.97183 0.19948 0.0
C86 C 0.15599 1.00586 0.19723 0.0
H87 H 0.15864 0.07349 0.17492 0.0
H88 H 0.32463 0.94807 0.07511 0.0
H89 H 0.25413 0.89329 0.06439 0.0
H90 H 0.16918 0.90398 0.09403 0.0
H91 H 0.15487 0.96788 0.13534 0.0
C92 C 0.17746 0.03933 0.17701 0.0
C93 C 0.22781 0.03235 0.15785 0.0
C94 C 0.2339 0.99625 0.13195 0.0
C95 C 0.28127 0.99227 0.1126 0.0
C96 C 0.28822 0.95395 0.08897 0.0
C97 C 0.24828 0.92218 0.08276 0.0
C98 C 0.2006 0.92805 0.0996 0.0
C99 C 0.19315 0.9647 0.12373 0.0
H100 H 0.02208 0.40774 0.58145 0.0
C101 C 0.03063 0.38792 0.55743 0.0
H102 H 0.04706 0.32048 0.53592 0.0
H103 H 0.0976 0.25213 0.69465 0.0
H104 H 0.17404 0.30118 0.68983 0.0
H105 H 0.18415 0.35638 0.64018 0.0
H106 H 0.11776 0.36295 0.59509 0.0
C107 C 0.03615 0.34088 0.55917 0.0
C108 C 0.02669 0.31379 0.59201 0.0
C109 C 0.06551 0.31091 0.61839 0.0
C110 C 0.05965 0.279 0.64699 0.0
C111 C 0.09969 0.276 0.67252 0.0
C112 C 0.1439 0.30388 0.67002 0.0
C113 C 0.14961 0.33496 0.64207 0.0
C114 C 0.11113 0.33843 0.61639 0.0
H115 H 0.01193 0.1558 0.64259 0.0
C116 C 0.01135 0.16766 0.66999 0.0
H117 H 0.01193 0.22609 0.70474 0.0
H118 H 0.94363 0.31341 0.54714 0.0
H119 H 0.8652 0.26698 0.5532 0.0
H120 H 0.85351 0.21371 0.6039 0.0
H121 H 0.92039 0.20606 0.64856 0.0
C122 C 0.01132 0.21398 0.67741 0.0
C123 C 0.01508 0.2499 0.64898 0.0
C124 C 0.97484 0.2549 0.6237 0.0
C125 C 0.98103 0.28643 0.59493 0.0
C126 C 0.94087 0.28998 0.56954 0.0
C127 C 0.89558 0.2637 0.57277 0.0
C128 C 0.88904 0.23366 0.60129 0.0
C129 C 0.92796 0.2293 0.6266 0.0
H130 H 0.68028 0.97178 0.05619 0.0
C131 C 0.65781 1.00411 0.05898 0.0
H132 H 0.64997 0.06716 0.08848 0.0
H133 H 0.77923 0.9595 0.21246 0.0
H134 H 0.69316 0.93613 0.232 0.0
H135 H 0.61605 0.95224 0.19532 0.0
H136 H 0.62451 0.99215 0.13885 0.0
C137 C 0.66843 0.03286 0.08626 0.0
C138 C 0.71449 0.02333 0.10877 0.0
C139 C 0.70898 0.99983 0.14146 0.0
C140 C 0.75357 0.99026 0.16246 0.0
C141 C 0.74679 0.96733 0.19531 0.0
C142 C 0.6976 0.95377 0.20685 0.0
C143 C 0.65416 0.96285 0.1862 0.0
C144 C 0.65953 0.9857 0.15388 0.0
H145 H 0.86441 0.06885 0.17941 0.0
C146 C 0.87684 0.03341 0.18607 0.0
H147 H 0.86068 0.96097 0.18053 0.0
H148 H 0.73835 0.07025 0.04764 0.0
H149 H 0.82456 0.08939 0.02623 0.0
H150 H 0.90241 0.06775 0.06049 0.0
H151 H 0.89439 0.02756 0.11657 0.0
C152 C 0.8498 0.99666 0.17354 0.0
C153 C 0.80357 1.0041 0.15055 0.0
C154 C 0.8092 0.02597 0.11705 0.0
C155 C 0.7645 0.03666 0.0966 0.0
C156 C 0.77103 0.06027 0.06393 0.0
C157 C 0.82033 0.07157 0.05132 0.0
C158 C 0.86412 0.05952 0.07065 0.0
C159 C 0.85889 0.03685 0.10304 0.0
H160 H 0.06067 0.6543 0.58262 0.0
C161 C 0.03379 0.66314 0.56152 0.0
H162 H 0.97169 0.70801 0.54667 0.0
H163 H 0.9238 0.7976 0.69533 0.0
H164 H 0.85174 0.74336 0.69069 0.0
H165 H 0.84964 0.68343 0.6433 0.0
H166 H 0.91959 0.67754 0.60011 0.0
C167 C 1.00158 0.7002 0.56597 0.0
C168 C 0.0059 0.73292 0.59665 0.0
C169 C 0.96524 0.73548 0.622 0.0
C170 C 0.96687 0.76962 0.64961 0.0
C171 C 0.92502 0.77198 0.67409 0.0
C172 C 0.8833 0.74111 0.67169 0.0
C173 C 0.88208 0.70741 0.64498 0.0
C174 C 0.92242 0.70448 0.62033 0.0
H175 H 0.00776 0.89519 0.64535 0.0
C176 C 0.00812 0.88385 0.67278 0.0
H177 H 0.00901 0.82605 0.70764 0.0
H178 H 0.08848 0.74065 0.55061 0.0
H179 H 0.16264 0.79185 0.55704 0.0
H180 H 0.16928 0.846 0.608 0.0
H181 H 0.10098 0.85003 0.65231 0.0
C182 C 0.00983 0.83768 0.68029 0.0
C183 C 0.00941 0.80102 0.65196 0.0
C184 C 0.05116 0.79722 0.62739 0.0
C185 C 0.04871 0.76408 0.59912 0.0
C186 C 0.08918 0.76354 0.57351 0.0
C187 C 0.13197 0.79301 0.57675 0.0
C188 C 0.13559 0.82362 0.60534 0.0
C189 C 0.09585 0.82583 0.63046 0.0
H190 H 0.39478 0.05769 0.90186 0.0
C191 C 0.36908 0.05563 0.92473 0.0
H192 H 0.29074 0.05826 0.94188 0.0
H193 H 0.16845 0.14169 0.82024 0.0
H194 H 0.17299 0.20865 0.85974 0.0
H195 H 0.23341 0.20904 0.91024 0.0
H196 H 0.28932 0.14193 0.92166 0.0
C197 C 0.31729 0.05569 0.91958 0.0
C198 C 0.29275 0.05955 0.88416 0.0
C199 C 0.26191 0.09973 0.87687 0.0
C200 C 0.22809 0.09991 0.84724 0.0
C201 C 0.1957 0.13969 0.84186 0.0
C202 C 0.1978 0.1785 0.86442 0.0
C203 C 0.23173 0.17869 0.89288 0.0
C204 C 0.26341 0.13986 0.89922 0.0
H205 H 0.1536 0.99341 0.81713 0.0
C206 C 0.14847 0.02241 0.79883 0.0
H207 H 0.17875 0.08578 0.77918 0.0
H208 H 0.34933 0.97774 0.88899 0.0
H209 H 0.35177 0.91422 0.84605 0.0
H210 H 0.29924 0.918 0.79165 0.0
H211 H 0.24281 0.98497 0.78043 0.0
C212 C 0.1839 0.05697 0.79761 0.0
C213 C 0.22604 0.06013 0.8245 0.0
C214 C 0.26139 0.02229 0.82949 0.0
C215 C 0.29377 0.02132 0.85993 0.0
C216 C 0.32536 0.98125 0.86576 0.0
C217 C 0.32701 0.9444 0.84133 0.0
C218 C 0.2973 0.94644 0.81076 0.0
C219 C 0.2648 0.98485 0.80478 0.0
H220 H 0.06788 0.39731 0.4043 0.0
C221 C 0.03984 0.38857 0.42483 0.0
H222 H 0.97704 0.344 0.43826 0.0
H223 H 0.94055 0.25517 0.288 0.0
H224 H 0.86947 0.31147 0.28957 0.0
H225 H 0.86424 0.37203 0.33644 0.0
H226 H 0.93009 0.37654 0.38217 0.0
C227 C 0.00796 0.35179 0.4196 0.0
C228 C 0.01459 0.31888 0.38917 0.0
C229 C 0.97634 0.3171 0.36238 0.0
C230 C 0.97977 0.28252 0.33511 0.0
C231 C 0.94031 0.28102 0.3091 0.0
C232 C 0.89919 0.31308 0.30972 0.0
C233 C 0.89621 0.34714 0.33614 0.0
C234 C 0.93418 0.34928 0.36225 0.0
H235 H 0.01465 0.15622 0.34247 0.0
C236 C 0.01881 0.16667 0.31498 0.0
H237 H 0.02619 0.22335 0.27941 0.0
H238 H 0.09303 0.31015 0.43791 0.0
H239 H 0.16635 0.2567 0.43464 0.0
H240 H 0.17596 0.20108 0.38471 0.0
H241 H 0.1115 0.19793 0.3382 0.0
C242 C 0.02359 0.21246 0.30689 0.0
C243 C 0.0216 0.24984 0.33465 0.0
C244 C 0.06108 0.25287 0.36065 0.0
C245 C 0.0569 0.28663 0.38846 0.0
C246 C 0.09511 0.28666 0.41538 0.0
C247 C 0.13738 0.25593 0.41395 0.0
C248 C 0.14269 0.2245 0.38593 0.0
C249 C 0.10516 0.22284 0.35952 0.0
H250 H 0.62458 0.01579 0.90558 0.0
C251 C 0.64878 0.02048 0.92883 0.0
H252 H 0.72482 0.02855 0.94853 0.0
H253 H 0.86071 0.92443 0.83915 0.0
H254 H 0.86015 0.86808 0.88686 0.0
H255 H 0.79871 0.87646 0.93684 0.0
H256 H 0.73775 0.94167 0.93947 0.0
C257 C 0.7008 0.02258 0.92536 0.0
C258 C 0.72882 0.01301 0.89157 0.0
C259 C 0.76297 0.9738 0.88971 0.0
C260 C 0.79754 0.96842 0.86049 0.0
C261 C 0.83286 0.93 0.86028 0.0
C262 C 0.83307 0.89732 0.88759 0.0
C263 C 0.79855 0.90207 0.91576 0.0
C264 C 0.76391 0.9398 0.91698 0.0
H265 H 0.86695 0.06805 0.81688 0.0
C266 C 0.87295 0.03574 0.80189 0.0
H267 H 0.84502 0.96784 0.7905 0.0
H268 H 0.66776 0.09213 0.88631 0.0
H269 H 0.66265 0.14443 0.83607 0.0
H270 H 0.7167 0.1306 0.78287 0.0
H271 H 0.77726 0.0649 0.78009 0.0
C272 C 0.83903 1.00024 0.80535 0.0
C273 C 0.79724 1.00195 0.83284 0.0
C274 C 0.75962 0.03863 0.8331 0.0
C275 C 0.72638 0.04504 0.86298 0.0
C276 C 0.69237 0.08432 0.86377 0.0
C277 C 0.68922 0.11482 0.83513 0.0
C278 C 0.71979 0.10715 0.80523 0.0
C279 C 0.75466 0.06956 0.80409 0.0
H280 H 0.05559 0.65305 0.40724 0.0
C281 C 0.02899 0.6612 0.4289 0.0
H282 H 0.9658 0.70426 0.44537 0.0
H283 H 0.08795 0.85263 0.34221 0.0
H284 H 0.15352 0.85275 0.38797 0.0
H285 H 0.14778 0.79832 0.43841 0.0
H286 H 0.07724 0.74271 0.44285 0.0
C287 C 0.9951 0.69706 0.42527 0.0
C288 C 0.99821 0.73027 0.39509 0.0
C289 C 0.03868 0.76395 0.39376 0.0
C290 C 0.04042 0.79711 0.36574 0.0
C291 C 0.08314 0.82826 0.36381 0.0
C292 C 0.12138 0.82845 0.38977 0.0
C293 C 0.11828 0.79768 0.41808 0.0
C294 C 0.07758 0.76573 0.42018 0.0
H295 H 0.99195 0.89246 0.34613 0.0
C296 C 0.99548 0.8805 0.31885 0.0
H297 H 1.00278 0.82197 0.28449 0.0
H298 H 0.91635 0.66996 0.38967 0.0
H299 H 0.84893 0.67133 0.34488 0.0
H300 H 0.84966 0.73096 0.29772 0.0
H301 H 0.91779 0.78945 0.29491 0.0
C302 C 1.0001 0.83426 0.31173 0.0
C303 C 1.00007 0.79826 0.34023 0.0
C304 C 0.95981 0.76439 0.34151 0.0
C305 C 0.95898 0.73032 0.36894 0.0
C306 C 0.91847 0.69685 0.36957 0.0
C307 C 0.87962 0.69719 0.34401 0.0
C308 C 0.88006 0.73074 0.31743 0.0
C309 C 0.91951 0.76407 0.31609 0.0
loop_
_geom_bond_atom_site_label_1
_geom_bond_atom_site_label_2
_geom_bond_distance
_geom_bond_site_symmetry_2
_ccdc_geom_bond_type
H0 C8 0.930 . S
H1 C11 0.930 . S
H2 C13 0.930 1_565 S
H3 C14 0.970 . S
H4 C14 0.970 1_556 S
H5 C16 0.930 . S
H6 C18 0.930 1_565 S
H7 C20 0.930 . S
C8 H0 0.930 . S
C8 C9 1.382 . S
C8 C10 1.426 . S
C9 C8 1.382 . S
C9 C13 1.389 . S
C10 C8 1.426 . S
C10 C11 1.375 1_554 S
C10 C14 1.532 . S
C11 H1 0.930 . S
C11 C10 1.375 1_556 S
C11 C12 1.416 . S
C12 C11 1.416 . S
C12 C13 1.371 1_556 S
C13 H2 0.930 1_545 S
C13 C9 1.389 . S
C13 C12 1.371 1_554 S
C14 H3 0.970 . S
C14 H4 0.970 1_554 S
C14 C10 1.532 . S
C14 C15 1.499 . S
C15 C14 1.499 . S
C15 C16 1.370 . S
C15 C20 1.415 1_554 S
C16 H5 0.930 . S
C16 C15 1.370 . S
C16 C17 1.407 . S
C17 C16 1.407 . S
C17 C18 1.365 . S
C18 H6 0.930 1_545 S
C18 C17 1.365 . S
C18 C19 1.393 1_554 S
C19 C18 1.393 1_556 S
C19 C20 1.387 . S
C20 H7 0.930 . S
C20 C15 1.415 1_556 S
C20 C19 1.387 . S
H21 C29 0.930 . S
H22 C32 0.930 . S
H23 C34 0.930 1_655 S
H24 C35 0.970 . S
H25 C35 0.970 . S
H26 C37 0.930 . S
H27 C39 0.930 1_655 S
H28 C41 0.930 . S
C29 H21 0.930 . S
C29 C30 1.382 . S
C29 C31 1.426 . S
C30 C29 1.382 . S
C30 C34 1.389 . S
C31 C29 1.426 . S
C31 C32 1.375 . S
C31 C35 1.532 . S
C32 H22 0.930 . S
C32 C31 1.375 . S
C32 C33 1.416 . S
C33 C32 1.416 . S
C33 C34 1.371 . S
C34 H23 0.930 1_455 S
C34 C30 1.389 . S
C34 C33 1.371 . S
C35 H24 0.970 . S
C35 H25 0.970 . S
C35 C31 1.532 . S
C35 C36 1.499 . S
C36 C35 1.499 . S
C36 C37 1.370 . S
C36 C41 1.415 . S
C37 H26 0.930 . S
C37 C36 1.370 . S
C37 C38 1.407 . S
C38 C37 1.407 . S
C38 C39 1.365 . S
C39 H27 0.930 1_455 S
C39 C38 1.365 . S
C39 C40 1.393 . S
C40 C39 1.393 . S
C40 C41 1.387 . S
C41 H28 0.930 . S
C41 C36 1.415 . S
C41 C40 1.387 . S
O42 Cd43 2.223 1_655 S
O42 C50 1.315 . S
Cd43 O42 2.223 1_455 S
Cd43 O46 2.297 1_455 S
Cd43 O47 2.439 1_455 S
Cd43 O53 2.240 1_565 S
Cd44 O45 2.240 . S
Cd44 O52 2.223 1_655 S
Cd44 O54 2.297 1_655 S
Cd44 O55 2.439 1_655 S
O45 Cd44 2.240 . S
O45 C50 1.279 1_545 S
O46 Cd43 2.297 1_655 S
O46 C48 1.247 . S
O47 Cd43 2.439 1_655 S
O47 C48 1.208 . S
C48 O46 1.247 . S
C48 O47 1.208 . S
C49 O54 1.247 . S
C49 O55 1.208 . S
C50 O42 1.315 . S
C50 O45 1.279 1_565 S
C51 O52 1.315 . S
C51 O53 1.279 . S
O52 Cd44 2.223 1_455 S
O52 C51 1.315 . S
O53 Cd43 2.240 1_545 S
O53 C51 1.279 . S
O54 Cd44 2.297 1_455 S
O54 C49 1.247 . S
O55 Cd44 2.439 1_455 S
O55 C49 1.208 . S
O56 Cd57 2.223 1_655 S
O56 C64 1.315 . S
Cd57 O56 2.223 1_455 S
Cd57 O60 2.297 1_455 S
Cd57 O61 2.439 1_455 S
Cd57 O67 2.240 . S
Cd58 O59 2.240 1_565 S
Cd58 O66 2.223 1_655 S
Cd58 O68 2.297 1_655 S
Cd58 O69 2.439 1_655 S
O59 Cd58 2.240 1_545 S
O59 C64 1.279 . S
O60 Cd57 2.297 1_655 S
O60 C62 1.247 . S
O61 Cd57 2.439 1_655 S
O61 C62 1.208 . S
C62 O60 1.247 . S
C62 O61 1.208 . S
C63 O68 1.247 . S
C63 O69 1.208 . S
C64 O56 1.315 . S
C64 O59 1.279 . S
C65 O66 1.315 . S
C65 O67 1.279 1_565 S
O66 Cd58 2.223 1_455 S
O66 C65 1.315 . S
O67 Cd57 2.240 . S
O67 C65 1.279 1_545 S
O68 Cd58 2.297 1_455 S
O68 C63 1.247 . S
O69 Cd58 2.439 1_455 S
O69 C63 1.208 . S
H70 C71 0.951 . S
C71 H70 0.951 . S
C71 C77 1.265 . S
H72 C77 0.950 . S
H73 C81 0.949 . S
H74 C82 0.950 . S
H75 C83 0.951 . S
H76 C84 0.951 . S
C77 C71 1.265 . S
C77 H72 0.950 . S
C77 C78 1.478 . S
C78 C77 1.478 . S
C78 C79 1.397 . S
C78 C95 1.394 1_545 S
C79 C78 1.397 . S
C79 C80 1.438 . S
C79 C84 1.429 . S
C80 C79 1.438 . S
C80 C81 1.428 . S
C80 C93 1.394 . S
C81 H73 0.949 . S
C81 C80 1.428 . S
C81 C82 1.345 . S
C82 H74 0.950 . S
C82 C81 1.345 . S
C82 C83 1.424 . S
C83 H75 0.951 . S
C83 C82 1.424 . S
C83 C84 1.347 . S
C84 H76 0.951 . S
C84 C79 1.429 . S
C84 C83 1.347 . S
H85 C86 0.951 . S
C86 H85 0.951 . S
C86 C92 1.265 . S
H87 C92 0.950 . S
H88 C96 0.949 . S
H89 C97 0.950 . S
H90 C98 0.951 . S
H91 C99 0.951 . S
C92 C86 1.265 . S
C92 H87 0.950 . S
C92 C93 1.478 . S
C93 C80 1.394 . S
C93 C92 1.478 . S
C93 C94 1.397 1_545 S
C94 C93 1.397 1_565 S
C94 C95 1.438 . S
C94 C99 1.429 . S
C95 C78 1.394 1_565 S
C95 C94 1.438 . S
C95 C96 1.428 . S
C96 H88 0.949 . S
C96 C95 1.428 . S
C96 C97 1.345 . S
C97 H89 0.950 . S
C97 C96 1.345 . S
C97 C98 1.424 . S
C98 H90 0.951 . S
C98 C97 1.424 . S
C98 C99 1.347 . S
C99 H91 0.951 . S
C99 C94 1.429 . S
C99 C98 1.347 . S
H100 C101 0.951 1_655 S
C101 H100 0.951 1_455 S
C101 C107 1.265 . S
H102 C107 0.950 . S
H103 C111 0.949 . S
H104 C112 0.950 . S
H105 C113 0.951 . S
H106 C114 0.951 . S
C107 C101 1.265 . S
C107 H102 0.950 . S
C107 C108 1.478 . S
C108 C107 1.478 . S
C108 C109 1.397 . S
C108 C125 1.394 1_455 S
C109 C108 1.397 . S
C109 C110 1.438 . S
C109 C114 1.429 . S
C110 C109 1.438 . S
C110 C111 1.428 . S
C110 C123 1.394 1_455 S
C111 H103 0.949 . S
C111 C110 1.428 . S
C111 C112 1.345 . S
C112 H104 0.950 . S
C112 C111 1.345 . S
C112 C113 1.424 . S
C113 H105 0.951 . S
C113 C112 1.424 . S
C113 C114 1.347 . S
C114 H106 0.951 . S
C114 C109 1.429 . S
C114 C113 1.347 . S
H115 C116 0.951 1_455 S
C116 H115 0.951 1_655 S
C116 C122 1.265 . S
H117 C122 0.950 . S
H118 C126 0.949 . S
H119 C127 0.950 . S
H120 C128 0.951 . S
H121 C129 0.951 . S
C122 C116 1.265 . S
C122 H117 0.950 . S
C122 C123 1.478 . S
C123 C110 1.394 1_655 S
C123 C122 1.478 . S
C123 C124 1.397 . S
C124 C123 1.397 . S
C124 C125 1.438 . S
C124 C129 1.429 . S
C125 C108 1.394 1_655 S
C125 C124 1.438 . S
C125 C126 1.428 . S
C126 H118 0.949 . S
C126 C125 1.428 . S
C126 C127 1.345 . S
C127 H119 0.950 . S
C127 C126 1.345 . S
C127 C128 1.424 . S
C128 H120 0.951 . S
C128 C127 1.424 . S
C128 C129 1.347 . S
C129 H121 0.951 . S
C129 C124 1.429 . S
C129 C128 1.347 . S
H130 C131 0.951 . S
C131 H130 0.951 . S
C131 C137 1.265 . S
H132 C137 0.950 . S
H133 C141 0.949 . S
H134 C142 0.950 . S
H135 C143 0.951 . S
H136 C144 0.951 . S
C137 C131 1.265 . S
C137 H132 0.950 . S
C137 C138 1.478 . S
C138 C137 1.478 . S
C138 C139 1.397 1_545 S
C138 C155 1.394 . S
C139 C138 1.397 1_565 S
C139 C140 1.438 . S
C139 C144 1.429 . S
C140 C139 1.438 . S
C140 C141 1.428 . S
C140 C153 1.394 1_565 S
C141 H133 0.949 . S
C141 C140 1.428 . S
C141 C142 1.345 . S
C142 H134 0.950 . S
C142 C141 1.345 . S
C142 C143 1.424 . S
C143 H135 0.951 . S
C143 C142 1.424 . S
C143 C144 1.347 . S
C144 H136 0.951 . S
C144 C139 1.429 . S
C144 C143 1.347 . S
H145 C146 0.951 . S
C146 H145 0.951 . S
C146 C152 1.265 . S
H147 C152 0.950 . S
H148 C156 0.949 . S
H149 C157 0.950 . S
H150 C158 0.951 . S
H151 C159 0.951 . S
C152 C146 1.265 . S
C152 H147 0.950 . S
C152 C153 1.478 1_565 S
C153 C140 1.394 1_545 S
C153 C152 1.478 1_545 S
C153 C154 1.397 . S
C154 C153 1.397 . S
C154 C155 1.438 . S
C154 C159 1.429 . S
C155 C138 1.394 . S
C155 C154 1.438 . S
C155 C156 1.428 . S
C156 H148 0.949 . S
C156 C155 1.428 . S
C156 C157 1.345 . S
C157 H149 0.950 . S
C157 C156 1.345 . S
C157 C158 1.424 . S
C158 H150 0.951 . S
C158 C157 1.424 . S
C158 C159 1.347 . S
C159 H151 0.951 . S
C159 C154 1.429 . S
C159 C158 1.347 . S
H160 C161 0.951 . S
C161 H160 0.951 . S
C161 C167 1.265 1_455 S
H162 C167 0.950 . S
H163 C171 0.949 . S
H164 C172 0.950 . S
H165 C173 0.951 . S
H166 C174 0.951 . S
C167 C161 1.265 1_655 S
C167 H162 0.950 . S
C167 C168 1.478 1_655 S
C168 C167 1.478 1_455 S
C168 C169 1.397 1_455 S
C168 C185 1.394 . S
C169 C168 1.397 1_655 S
C169 C170 1.438 . S
C169 C174 1.429 . S
C170 C169 1.438 . S
C170 C171 1.428 . S
C170 C183 1.394 1_655 S
C171 H163 0.949 . S
C171 C170 1.428 . S
C171 C172 1.345 . S
C172 H164 0.950 . S
C172 C171 1.345 . S
C172 C173 1.424 . S
C173 H165 0.951 . S
C173 C172 1.424 . S
C173 C174 1.347 . S
C174 H166 0.951 . S
C174 C169 1.429 . S
C174 C173 1.347 . S
H175 C176 0.951 . S
C176 H175 0.951 . S
C176 C182 1.265 . S
H177 C182 0.950 . S
H178 C186 0.949 . S
H179 C187 0.950 . S
H180 C188 0.951 . S
H181 C189 0.951 . S
C182 C176 1.265 . S
C182 H177 0.950 . S
C182 C183 1.478 . S
C183 C170 1.394 1_455 S
C183 C182 1.478 . S
C183 C184 1.397 . S
C184 C183 1.397 . S
C184 C185 1.438 . S
C184 C189 1.429 . S
C185 C168 1.394 . S
C185 C184 1.438 . S
C185 C186 1.428 . S
C186 H178 0.949 . S
C186 C185 1.428 . S
C186 C187 1.345 . S
C187 H179 0.950 . S
C187 C186 1.345 . S
C187 C188 1.424 . S
C188 H180 0.951 . S
C188 C187 1.424 . S
C188 C189 1.347 . S
C189 H181 0.951 . S
C189 C184 1.429 . S
C189 C188 1.347 . S
H190 C191 0.951 . S
C191 H190 0.951 . S
C191 C197 1.265 . S
H192 C197 0.950 . S
H193 C201 0.949 . S
H194 C202 0.950 . S
H195 C203 0.951 . S
H196 C204 0.951 . S
C197 C191 1.265 . S
C197 H192 0.950 . S
C197 C198 1.478 . S
C198 C197 1.478 . S
C198 C199 1.397 . S
C198 C215 1.394 1_545 S
C199 C198 1.397 . S
C199 C200 1.438 . S
C199 C204 1.429 . S
C200 C199 1.438 . S
C200 C201 1.428 . S
C200 C213 1.394 1_545 S
C201 H193 0.949 . S
C201 C200 1.428 . S
C201 C202 1.345 . S
C202 H194 0.950 . S
C202 C201 1.345 . S
C202 C203 1.424 . S
C203 H195 0.951 . S
C203 C202 1.424 . S
C203 C204 1.347 . S
C204 H196 0.951 . S
C204 C199 1.429 . S
C204 C203 1.347 . S
H205 C206 0.951 . S
C206 H205 0.951 . S
C206 C212 1.265 . S
H207 C212 0.950 . S
H208 C216 0.949 . S
H209 C217 0.950 . S
H210 C218 0.951 . S
H211 C219 0.951 . S
C212 C206 1.265 . S
C212 H207 0.950 . S
C212 C213 1.478 . S
C213 C200 1.394 1_565 S
C213 C212 1.478 . S
C213 C214 1.397 . S
C214 C213 1.397 . S
C214 C215 1.438 . S
C214 C219 1.429 . S
C215 C198 1.394 1_565 S
C215 C214 1.438 . S
C215 C216 1.428 . S
C216 H208 0.949 . S
C216 C215 1.428 . S
C216 C217 1.345 . S
C217 H209 0.950 . S
C217 C216 1.345 . S
C217 C218 1.424 . S
C218 H210 0.951 . S
C218 C217 1.424 . S
C218 C219 1.347 . S
C219 H211 0.951 . S
C219 C214 1.429 . S
C219 C218 1.347 . S
H220 C221 0.951 . S
C221 H220 0.951 . S
C221 C227 1.265 1_455 S
H222 C227 0.950 . S
H223 C231 0.949 . S
H224 C232 0.950 . S
H225 C233 0.951 . S
H226 C234 0.951 . S
C227 C221 1.265 1_655 S
C227 H222 0.950 . S
C227 C228 1.478 1_655 S
C228 C227 1.478 1_455 S
C228 C229 1.397 1_455 S
C228 C245 1.394 . S
C229 C228 1.397 1_655 S
C229 C230 1.438 1_655 S
C229 C234 1.429 . S
C230 C229 1.438 1_455 S
C230 C231 1.428 1_455 S
C230 C243 1.394 . S
C231 H223 0.949 . S
C231 C230 1.428 1_655 S
C231 C232 1.345 . S
C232 H224 0.950 . S
C232 C231 1.345 . S
C232 C233 1.424 . S
C233 H225 0.951 . S
C233 C232 1.424 . S
C233 C234 1.347 . S
C234 H226 0.951 . S
C234 C229 1.429 . S
C234 C233 1.347 . S
H235 C236 0.961 . S
C236 H235 0.961 . S
C236 C242 1.265 . S
H237 C242 0.950 . S
H238 C246 0.949 . S
H239 C247 0.950 . S
H240 C248 0.951 . S
H241 C249 0.951 . S
C242 C236 1.265 . S
C242 H237 0.950 . S
C242 C243 1.478 . S
C243 C230 1.394 . S
C243 C242 1.478 . S
C243 C244 1.397 . S
C244 C243 1.397 . S
C244 C245 1.438 . S
C244 C249 1.429 . S
C245 C228 1.394 . S
C245 C244 1.438 . S
C245 C246 1.428 . S
C246 H238 0.949 . S
C246 C245 1.428 . S
C246 C247 1.345 . S
C247 H239 0.950 . S
C247 C246 1.345 . S
C247 C248 1.424 . S
C248 H240 0.951 . S
C248 C247 1.424 . S
C248 C249 1.347 . S
C249 H241 0.951 . S
C249 C244 1.429 . S
C249 C248 1.347 . S
H250 C251 0.951 . S
C251 H250 0.951 . S
C251 C257 1.265 . S
H252 C257 0.950 . S
H253 C261 0.949 . S
H254 C262 0.950 . S
H255 C263 0.951 . S
H256 C264 0.951 . S
C257 C251 1.265 . S
C257 H252 0.950 . S
C257 C258 1.478 . S
C258 C257 1.478 . S
C258 C259 1.397 1_545 S
C258 C275 1.394 . S
C259 C258 1.397 1_565 S
C259 C260 1.438 . S
C259 C264 1.429 . S
C260 C259 1.438 . S
C260 C261 1.428 . S
C260 C273 1.394 1_565 S
C261 H253 0.949 . S
C261 C260 1.428 . S
C261 C262 1.345 . S
C262 H254 0.950 . S
C262 C261 1.345 . S
C262 C263 1.424 . S
C263 H255 0.951 . S
C263 C262 1.424 . S
C263 C264 1.347 . S
C264 H256 0.951 . S
C264 C259 1.429 . S
C264 C263 1.347 . S
H265 C266 0.951 . S
C266 H265 0.951 . S
C266 C272 1.265 . S
H267 C272 0.950 . S
H268 C276 0.949 . S
H269 C277 0.950 . S
H270 C278 0.951 . S
H271 C279 0.951 . S
C272 C266 1.265 . S
C272 H267 0.950 . S
C272 C273 1.478 . S
C273 C260 1.394 1_545 S
C273 C272 1.478 . S
C273 C274 1.397 . S
C274 C273 1.397 . S
C274 C275 1.438 . S
C274 C279 1.429 . S
C275 C258 1.394 . S
C275 C274 1.438 . S
C275 C276 1.428 . S
C276 H268 0.949 . S
C276 C275 1.428 . S
C276 C277 1.345 . S
C277 H269 0.950 . S
C277 C276 1.345 . S
C277 C278 1.424 . S
C278 H270 0.951 . S
C278 C277 1.424 . S
C278 C279 1.347 . S
C279 H271 0.951 . S
C279 C274 1.429 . S
C279 C278 1.347 . S
H280 C281 0.951 . S
C281 H280 0.951 . S
C281 C287 1.265 1_455 S
H282 C287 0.950 . S
H283 C291 0.949 . S
H284 C292 0.950 . S
H285 C293 0.951 . S
H286 C294 0.951 . S
C287 C281 1.265 1_655 S
C287 H282 0.950 . S
C287 C288 1.478 . S
C288 C287 1.478 . S
C288 C289 1.397 1_655 S
C288 C305 1.394 . S
C289 C288 1.397 1_455 S
C289 C290 1.438 . S
C289 C294 1.429 . S
C290 C289 1.438 . S
C290 C291 1.428 . S
C290 C303 1.394 1_455 S
C291 H283 0.949 . S
C291 C290 1.428 . S
C291 C292 1.345 . S
C292 H284 0.950 . S
C292 C291 1.345 . S
C292 C293 1.424 . S
C293 H285 0.951 . S
C293 C292 1.424 . S
C293 C294 1.347 . S
C294 H286 0.951 . S
C294 C289 1.429 . S
C294 C293 1.347 . S
H295 C296 0.951 . S
C296 H295 0.951 . S
C296 C302 1.265 . S
H297 C302 0.950 1_455 S
H298 C306 0.949 . S
H299 C307 0.950 . S
H300 C308 0.951 . S
H301 C309 0.951 . S
C302 C296 1.265 . S
C302 H297 0.950 1_655 S
C302 C303 1.478 . S
C303 C290 1.394 1_655 S
C303 C302 1.478 . S
C303 C304 1.397 . S
C304 C303 1.397 . S
C304 C305 1.438 . S
C304 C309 1.429 . S
C305 C288 1.394 . S
C305 C304 1.438 . S
C305 C306 1.428 . S
C306 H298 0.949 . S
C306 C305 1.428 . S
C306 C307 1.345 . S
C307 H299 0.950 . S
C307 C306 1.345 . S
C307 C308 1.424 . S
C308 H300 0.951 . S
C308 C307 1.424 . S
C308 C309 1.347 . S
C309 H301 0.951 . S
C309 C304 1.429 . S
C309 C308 1.347 . S
C86 C51 1.654 . S
C71 C17 1.538 . S
C116 C62 1.528 . S
C101 C40 1.602 . S
C146 C50 1.654 . S
C131 C9 1.570 . S
C176 C63 1.544 . S
C161 C33 1.511 . S
C206 C65 1.667 . S
C191 C19 1.647 . S
C236 C49 1.538 . S
C221 C38 1.518 . S
C266 C64 1.674 . S
C251 C12 1.596 . S
C281 C30 1.601 . S
C296 C48 1.615 . S
