# Generated by pormake.
# Topology rtl, (3,6)-cn, num edge types: 1
# Building blocks:
#     Node 0, Type 0, BuildingBlock: KAKCAD_clean_linker_0, # of connection points: 3
#     Node 1, Type 0, BuildingBlock: KAKCAD_clean_linker_0, # of connection points: 3
#     Node 2, Type 0, BuildingBlock: KAKCAD_clean_linker_0, # of connection points: 3
#     Node 3, Type 0, BuildingBlock: KAKCAD_clean_linker_0, # of connection points: 3
#     Node 4, Type 1, BuildingBlock: FUNLAD_clean_sbu_0, # of connection points: 6
#     Node 5, Type 1, BuildingBlock: FUNLAD_clean_sbu_0, # of connection points: 6
#     Edge 6, Type (0, 1), BuildingBlock: CIFDUS_clean_linker_0, # of connection points: 2
#     Edge 7, Type (0, 1), BuildingBlock: CIFDUS_clean_linker_0, # of connection points: 2
#     Edge 8, Type (0, 1), BuildingBlock: CIFDUS_clean_linker_0, # of connection points: 2
#     Edge 9, Type (0, 1), BuildingBlock: CIFDUS_clean_linker_0, # of connection points: 2
#     Edge 10, Type (0, 1), BuildingBlock: CIFDUS_clean_linker_0, # of connection points: 2
#     Edge 11, Type (0, 1), BuildingBlock: CIFDUS_clean_linker_0, # of connection points: 2
#     Edge 12, Type (0, 1), BuildingBlock: CIFDUS_clean_linker_0, # of connection points: 2
#     Edge 13, Type (0, 1), BuildingBlock: CIFDUS_clean_linker_0, # of connection points: 2
#     Edge 14, Type (0, 1), BuildingBlock: CIFDUS_clean_linker_0, # of connection points: 2
#     Edge 15, Type (0, 1), BuildingBlock: CIFDUS_clean_linker_0, # of connection points: 2
#     Edge 16, Type (0, 1), BuildingBlock: CIFDUS_clean_linker_0, # of connection points: 2
#     Edge 17, Type (0, 1), BuildingBlock: CIFDUS_clean_linker_0, # of connection points: 2
# Relax obj value: 0.026
# Max RMSD: 0.097
# Mean RMSD: 0.082
data_MOF--net-rtl--node1-FUNLAD_clean_sbu_0--node2-KAKCAD_clean_linker_0--edge1-CIFDUS_clean_linker_0
_symmetry_space_group_name_H-M    P1
_symmetry_Int_Tables_number       1
_symmetry_cell_setting            triclinic
loop_
_symmetry_equiv_pos_as_xyz
'x, y, z'
_cell_length_a     44.818082
_cell_length_b     36.363699
_cell_length_c     25.486961
_cell_angle_alpha  89.825359
_cell_angle_beta   90.753945
_cell_angle_gamma 90.50137
loop_
_atom_site_label
_atom_site_type_symbol
_atom_site_fract_x
_atom_site_fract_y
_atom_site_fract_z
_atom_type_partial_charge
C0 C 0.1001 0.81162 0.83685 0.0
C1 C 0.10412 0.84995 0.83355 0.0
C2 C 0.10757 0.79275 0.88306 0.0
C3 C 0.1187 0.81205 0.92686 0.0
C4 C 0.12308 0.85026 0.92321 0.0
C5 C 0.11597 0.86899 0.877 0.0
C6 C 0.12558 0.79283 0.97674 0.0
C7 C 0.14402 0.76186 0.97766 0.0
C8 C 0.15343 0.74649 0.02569 0.0
C9 C 0.14324 0.76144 0.07293 0.0
C10 C 0.12446 0.79209 0.07236 0.0
C11 C 0.11564 0.80747 0.02416 0.0
C12 C 0.11595 0.81019 0.1218 0.0
C13 C 0.10372 0.78992 0.16344 0.0
C14 C 0.11988 0.84835 0.12716 0.0
C15 C 0.11156 0.86602 0.17304 0.0
C16 C 0.09894 0.84597 0.21449 0.0
C17 C 0.17698 0.71826 0.02636 0.0
C18 C 0.17463 0.68685 0.99449 0.0
C19 C 0.20326 0.72441 0.05576 0.0
C20 C 0.22721 0.70041 0.05183 0.0
C21 C 0.22511 0.66953 0.01915 0.0
C22 C 0.19848 0.66239 0.99134 0.0
C23 C 0.09502 0.80775 0.20933 0.0
H24 H 0.09112 0.79631 0.80376 0.0
H25 H 0.10403 0.76327 0.88498 0.0
H26 H 0.132 0.8657 0.95624 0.0
H27 H 0.11904 0.89856 0.87571 0.0
H28 H 0.1527 0.75135 0.94119 0.0
H29 H 0.10129 0.83133 0.02356 0.0
H30 H 0.15097 0.75021 0.11011 0.0
H31 H 0.10044 0.76047 0.16011 0.0
H32 H 0.12954 0.86455 0.09583 0.0
H33 H 0.11456 0.89555 0.17577 0.0
H34 H 0.15457 0.68164 0.97141 0.0
H35 H 0.20577 0.74867 0.08006 0.0
H36 H 0.08544 0.79169 0.24087 0.0
H37 H 0.19658 0.63873 0.96574 0.0
H38 H 0.24764 0.70633 0.0735 0.0
C39 C 0.57606 0.72636 0.69887 0.0
C40 C 0.57127 0.68826 0.70333 0.0
C41 C 0.58659 0.74141 0.65187 0.0
C42 C 0.59173 0.71858 0.60858 0.0
C43 C 0.58637 0.68062 0.61304 0.0
C44 C 0.57637 0.66561 0.65997 0.0
C45 C 0.60374 0.73344 0.55904 0.0
C46 C 0.63036 0.75395 0.55923 0.0
C47 C 0.64438 0.76324 0.51185 0.0
C48 C 0.63107 0.75186 0.46416 0.0
C49 C 0.60465 0.73074 0.46341 0.0
C50 C 0.59068 0.7228 0.51114 0.0
C51 C 0.5936 0.71345 0.4138 0.0
C52 C 0.59685 0.73124 0.36497 0.0
C53 C 0.5815 0.67756 0.41471 0.0
C54 C 0.57311 0.65992 0.36832 0.0
C55 C 0.57725 0.67732 0.31987 0.0
C56 C 0.67416 0.7818 0.51238 0.0
C57 C 0.68166 0.80811 0.55081 0.0
C58 C 0.69579 0.77237 0.47534 0.0
C59 C 0.72395 0.78893 0.47641 0.0
C60 C 0.73171 0.81466 0.51543 0.0
C61 C 0.71015 0.82406 0.55263 0.0
C62 C 0.58907 0.71312 0.31835 0.0
H63 H 0.57227 0.74426 0.73197 0.0
H64 H 0.59062 0.77077 0.64923 0.0
H65 H 0.5905 0.66237 0.58044 0.0
H66 H 0.5726 0.63618 0.66242 0.0
H67 H 0.64106 0.76051 0.59644 0.0
H68 H 0.57003 0.70709 0.51145 0.0
H69 H 0.64201 0.75815 0.42759 0.0
H70 H 0.60563 0.75901 0.36262 0.0
H71 H 0.5794 0.66238 0.45108 0.0
H72 H 0.56429 0.63211 0.37015 0.0
H73 H 0.66556 0.8164 0.57968 0.0
H74 H 0.6913 0.75165 0.44583 0.0
H75 H 0.59226 0.72699 0.28114 0.0
H76 H 0.7153 0.84335 0.58378 0.0
H77 H 0.73962 0.78143 0.44638 0.0
C78 C 0.90683 0.19315 0.20571 0.0
C79 C 0.93734 0.18453 0.20698 0.0
C80 C 0.89378 0.2086 0.16094 0.0
C81 C 0.91097 0.21631 0.11641 0.0
C82 C 0.94183 0.20953 0.11868 0.0
C83 C 0.95487 0.19372 0.16345 0.0
C84 C 0.8962 0.22864 0.06682 0.0
C85 C 0.87159 0.25225 0.06809 0.0
C86 C 0.85469 0.25971 0.0225 0.0
C87 C 0.86392 0.24503 0.9744 0.0
C88 C 0.88901 0.22213 0.97196 0.0
C89 C 0.9048 0.21393 0.0185 0.0
C90 C 0.89759 0.20444 0.92178 0.0
C91 C 0.87568 0.19105 0.88656 0.0
C92 C 0.92781 0.19908 0.91002 0.0
C93 C 0.9359 0.17962 0.8653 0.0
C94 C 0.91398 0.16536 0.8308 0.0
C95 C 0.82614 0.28019 0.02603 0.0
C96 C 0.80733 0.27459 0.06915 0.0
C97 C 0.81674 0.30408 0.9857 0.0
C98 C 0.789 0.32134 0.98802 0.0
C99 C 0.7701 0.31537 0.03094 0.0
C100 C 0.77984 0.29214 0.07176 0.0
C101 C 0.88378 0.17195 0.84151 0.0
H102 H 0.89279 0.18708 0.23895 0.0
H103 H 0.86992 0.21301 0.16062 0.0
H104 H 0.95582 0.21565 0.08539 0.0
H105 H 0.97843 0.18736 0.16307 0.0
H106 H 0.8652 0.26432 0.10504 0.0
H107 H 0.92288 0.19437 0.01752 0.0
H108 H 0.85107 0.25053 0.93903 0.0
H109 H 0.85218 0.19425 0.8945 0.0
H110 H 0.9453 0.20947 0.93584 0.0
H111 H 0.95937 0.17483 0.85875 0.0
H112 H 0.81346 0.25592 0.10058 0.0
H113 H 0.83073 0.30937 0.95215 0.0
H114 H 0.86629 0.16195 0.81541 0.0
H115 H 0.76618 0.28734 0.10587 0.0
H116 H 0.78216 0.33875 0.95558 0.0
C117 C 0.41637 0.34511 0.34564 0.0
C118 C 0.42807 0.32264 0.30636 0.0
C119 C 0.40609 0.32981 0.39222 0.0
C120 C 0.40711 0.29167 0.40051 0.0
C121 C 0.41835 0.26896 0.36104 0.0
C122 C 0.42906 0.2844 0.31442 0.0
C123 C 0.39658 0.27629 0.45081 0.0
C124 C 0.37449 0.24873 0.45172 0.0
C125 C 0.36154 0.23788 0.49944 0.0
C126 C 0.37196 0.25404 0.54643 0.0
C127 C 0.39445 0.28114 0.54607 0.0
C128 C 0.40665 0.29198 0.49805 0.0
C129 C 0.40351 0.30049 0.59504 0.0
C130 C 0.38192 0.31147 0.63117 0.0
C131 C 0.43355 0.31009 0.60446 0.0
C132 C 0.44169 0.33119 0.64811 0.0
C133 C 0.41998 0.34303 0.68345 0.0
C134 C 0.33517 0.21271 0.50028 0.0
C135 C 0.31268 0.2154 0.4614 0.0
C136 C 0.33089 0.1882 0.54245 0.0
C137 C 0.30413 0.16858 0.54721 0.0
C138 C 0.28136 0.17246 0.50936 0.0
C139 C 0.28614 0.19526 0.46573 0.0
C140 C 0.39008 0.33239 0.67495 0.0
H141 H 0.41565 0.37469 0.34073 0.0
H142 H 0.39725 0.34786 0.42186 0.0
H143 H 0.41935 0.23946 0.3667 0.0
H144 H 0.43792 0.26653 0.2846 0.0
H145 H 0.36656 0.23695 0.41505 0.0
H146 H 0.42326 0.31382 0.49706 0.0
H147 H 0.36183 0.24653 0.58333 0.0
H148 H 0.35854 0.30494 0.6248 0.0
H149 H 0.45074 0.30173 0.57762 0.0
H150 H 0.46488 0.33915 0.65324 0.0
H151 H 0.31488 0.23437 0.42883 0.0
H152 H 0.34794 0.1848 0.57252 0.0
H153 H 0.37288 0.3406 0.70185 0.0
H154 H 0.26878 0.19886 0.43623 0.0
H155 H 0.30103 0.15075 0.58087 0.0
C156 C 0.02008 0.95294 0.44608 0.0
N157 N 0.06626 0.04142 0.51421 0.0
C158 C 0.09009 0.01901 0.50754 0.0
C159 C 0.11861 0.03385 0.50135 0.0
C160 C 0.12271 0.07203 0.50333 0.0
C161 C 0.09801 0.09459 0.51159 0.0
C162 C 0.0697 0.07862 0.51642 0.0
Zn163 Zn 0.02485 0.01784 0.51885 0.0
C164 C 0.98203 0.04864 0.44165 0.0
N165 N 0.93992 0.96464 0.52639 0.0
C166 C 0.9373 0.92798 0.53617 0.0
C167 C 0.91539 0.986 0.51972 0.0
C168 C 0.88686 0.97051 0.52179 0.0
C169 C 0.88336 0.93272 0.53211 0.0
C170 C 0.90917 0.9115 0.53984 0.0
Zn171 Zn 0.98118 0.98853 0.52213 0.0
O172 O 0.03683 0.97925 0.46137 0.0
C173 C 0.02396 0.95729 0.59872 0.0
O174 O 0.99421 0.94942 0.46536 0.0
H175 H 0.91789 0.01516 0.51249 0.0
H176 H 0.08701 0.9895 0.5066 0.0
H177 H 0.95705 0.91144 0.54133 0.0
O178 O 0.0407 0.98194 0.5789 0.0
O179 O 0.99718 0.95408 0.58243 0.0
H180 H 0.05046 0.09594 0.52146 0.0
O181 O 0.96855 0.02775 0.57904 0.0
O182 O 0.01194 0.05608 0.57643 0.0
O183 O 0.96601 0.0233 0.46137 0.0
O184 O 0.00857 0.05339 0.45869 0.0
C185 C 0.98587 0.05332 0.59515 0.0
H186 H 0.13732 0.01572 0.4955 0.0
H187 H 0.10052 0.12423 0.51317 0.0
H188 H 0.86783 0.98802 0.51458 0.0
H189 H 0.9078 0.88246 0.54901 0.0
C190 C 0.4874 0.45957 0.92285 0.0
N191 N 0.56398 0.46614 0.01887 0.0
C192 C 0.56622 0.42917 0.01225 0.0
C193 C 0.59415 0.41242 0.01294 0.0
C194 C 0.62009 0.43383 0.02115 0.0
C195 C 0.61693 0.47179 0.02939 0.0
C196 C 0.58863 0.48745 0.02768 0.0
Zn197 Zn 0.52348 0.49117 0.01094 0.0
C198 C 0.52732 0.55457 0.9369 0.0
N199 N 0.43996 0.54523 0.99146 0.0
C200 C 0.41458 0.52559 0.98115 0.0
C201 C 0.43932 0.58234 0.99746 0.0
C202 C 0.41238 0.6011 0.99416 0.0
C203 C 0.38572 0.58164 0.98378 0.0
C204 C 0.38712 0.54334 0.97687 0.0
Zn205 Zn 0.47998 0.51942 0.0001 0.0
O206 O 0.51179 0.45553 0.94812 0.0
C207 C 0.47607 0.45589 0.07396 0.0
O208 O 0.4698 0.48507 0.93584 0.0
H209 H 0.45973 0.59747 0.00555 0.0
H210 H 0.54636 0.41272 0.0052 0.0
H211 H 0.4156 0.49607 0.97653 0.0
O212 O 0.50384 0.4538 0.06478 0.0
O213 O 0.4607 0.4807 0.05142 0.0
H214 H 0.58644 0.51683 0.03252 0.0
O215 O 0.49043 0.55307 0.06488 0.0
O216 O 0.53443 0.52756 0.07355 0.0
O217 O 0.50003 0.55802 0.94869 0.0
O218 O 0.54229 0.52849 0.95707 0.0
C219 C 0.51549 0.55103 0.08835 0.0
H220 H 0.59538 0.38316 0.00566 0.0
H221 H 0.63613 0.48937 0.03687 0.0
H222 H 0.41248 0.63049 0.00082 0.0
H223 H 0.36726 0.52722 0.96811 0.0
H224 H 0.25049 0.12957 0.44033 0.0
H225 H 0.2465 0.17608 0.59542 0.0
H226 H 0.19657 0.14983 0.60699 0.0
H227 H 0.15365 0.11437 0.57223 0.0
H228 H 0.15867 0.06492 0.41926 0.0
H229 H 0.20852 0.09164 0.40722 0.0
C230 C 0.23861 0.1338 0.47661 0.0
C231 C 0.25196 0.15466 0.51695 0.0
C232 C 0.21012 0.11827 0.48316 0.0
C233 C 0.23664 0.15981 0.56405 0.0
C234 C 0.20808 0.14501 0.57055 0.0
C235 C 0.16575 0.10965 0.53631 0.0
C236 C 0.1527 0.08814 0.49646 0.0
C237 C 0.19454 0.12437 0.53027 0.0
C238 C 0.1685 0.08154 0.4503 0.0
C239 C 0.19689 0.09678 0.44346 0.0
H240 H 0.27673 0.69042 0.97568 0.0
H241 H 0.23228 0.5975 0.04599 0.0
H242 H 0.27804 0.56115 0.0396 0.0
H243 H 0.33145 0.55768 0.0189 0.0
H244 H 0.37459 0.65005 0.94333 0.0
H245 H 0.3286 0.68494 0.94733 0.0
C246 C 0.27716 0.6621 0.98921 0.0
C247 C 0.25158 0.64652 0.01164 0.0
C248 C 0.30327 0.64152 0.98489 0.0
C249 C 0.25193 0.60982 0.02865 0.0
C250 C 0.27803 0.5892 0.02511 0.0
C251 C 0.33071 0.58515 0.00234 0.0
C252 C 0.35674 0.60132 0.98164 0.0
C253 C 0.30397 0.60496 0.00388 0.0
C254 C 0.35524 0.63717 0.96084 0.0
C255 C 0.32886 0.65713 0.96273 0.0
H256 H 0.74781 0.88447 0.54504 0.0
H257 H 0.78473 0.78224 0.49047 0.0
H258 H 0.8342 0.81009 0.489 0.0
H259 H 0.86686 0.86342 0.50157 0.0
H260 H 0.83125 0.96317 0.56694 0.0
H261 H 0.78141 0.93605 0.56575 0.0
C262 C 0.76666 0.86794 0.53371 0.0
C263 C 0.7622 0.83134 0.51722 0.0
C264 C 0.79536 0.8837 0.53457 0.0
C265 C 0.7871 0.81077 0.50194 0.0
C266 C 0.81556 0.82655 0.50155 0.0
C267 C 0.84843 0.87915 0.51665 0.0
C268 C 0.85307 0.91553 0.53389 0.0
C269 C 0.81992 0.86303 0.51755 0.0
C270 C 0.82849 0.93547 0.55214 0.0
C271 C 0.79991 0.91986 0.55197 0.0
H272 H 0.75428 0.38432 -0.00141 0.0
H273 H 0.71817 0.28509 0.06749 0.0
H274 H 0.66926 0.3134 0.07254 0.0
H275 H 0.63661 0.36608 0.05732 0.0
H276 H 0.67164 0.46339 0.98153 0.0
H277 H 0.721 0.436 0.97951 0.0
C278 C 0.73568 0.36866 0.01413 0.0
C279 C 0.74013 0.33266 0.03294 0.0
C280 C 0.70735 0.3848 0.01596 0.0
C281 C 0.7157 0.31311 0.05369 0.0
C282 C 0.68759 0.32916 0.05625 0.0
C283 C 0.65489 0.38121 0.03972 0.0
C284 C 0.65024 0.4169 0.01989 0.0
C285 C 0.68315 0.36498 0.03749 0.0
C286 C 0.67451 0.4362 -0.00186 0.0
C287 C 0.70278 0.42042 0.9965 0.0
H288 H 0.04593 0.83983 0.2648 0.0
H289 H 0.13103 0.89613 0.27086 0.0
H290 H 0.11438 0.9331 0.3445 0.0
H291 H 0.07504 0.95165 0.40365 0.0
H292 H 0.9893 0.89664 0.39776 0.0
H293 H 0.0069 0.85665 0.32776 0.0
C294 C 0.06091 0.85982 0.28287 0.0
C295 C 0.08958 0.86545 0.26237 0.0
C296 C 0.05104 0.88133 0.32484 0.0
C297 C 0.10874 0.89165 0.28568 0.0
C298 C 0.09926 0.91274 0.32775 0.0
C299 C 0.06015 0.93085 0.38727 0.0
C300 C 0.03081 0.92735 0.40563 0.0
C301 C 0.07031 0.90824 0.34701 0.0
C302 C 0.01197 0.90002 0.38418 0.0
C303 C 0.02201 0.87716 0.34415 0.0
H304 H 0.59784 0.63316 0.75617 0.0
H305 H 0.52232 0.70553 0.76064 0.0
H306 H 0.5025 0.67157 0.8361 0.0
H307 H 0.5049 0.61805 0.89573 0.0
H308 H 0.58118 0.54639 0.89061 0.0
H309 H 0.60252 0.58341 0.8205 0.0
C310 C 0.57718 0.64162 0.77411 0.0
C311 C 0.56132 0.67138 0.75291 0.0
C312 C 0.56599 0.62196 0.81696 0.0
C313 C 0.53484 0.68263 0.77661 0.0
C314 C 0.52346 0.66311 0.81941 0.0
C315 C 0.52629 0.61072 0.87951 0.0
C316 C 0.54122 0.57923 0.89791 0.0
C317 C 0.53854 0.63221 0.83914 0.0
C318 C 0.56912 0.57035 0.877 0.0
C319 C 0.58135 0.59146 0.83682 0.0
H320 H 0.91177 0.12757 0.25871 0.0
H321 H 0.99198 0.19401 0.25576 0.0
H322 H 0.01312 0.1578 0.32815 0.0
H323 H 0.00866 0.10691 0.39213 0.0
H324 H 0.92742 0.04207 0.39479 0.0
H325 H 0.90671 0.07857 0.32326 0.0
C326 C 0.93369 0.13464 0.2744 0.0
C327 C 0.95015 0.16366 0.25204 0.0
C328 C 0.94554 0.11397 0.31602 0.0
C329 C 0.97888 0.17166 0.27201 0.0
C330 C 0.99093 0.15107 0.31354 0.0
C331 C 0.98641 0.10084 0.3771 0.0
C332 C 0.96969 0.07172 0.39881 0.0
C333 C 0.97447 0.12206 0.33577 0.0
C334 C 0.94086 0.06427 0.37891 0.0
C335 C 0.92893 0.08512 0.33792 0.0
H336 H 0.46915 0.33913 0.74733 0.0
H337 H 0.38953 0.40254 0.71881 0.0
H338 H 0.40322 0.44372 0.7906 0.0
H339 H 0.43801 0.46234 0.86043 0.0
H340 H 0.51847 0.40029 0.88779 0.0
H341 H 0.50445 0.35836 0.81675 0.0
C342 C 0.45492 0.36212 0.75655 0.0
C343 C 0.42829 0.36758 0.72782 0.0
C344 C 0.46313 0.38607 0.79743 0.0
C345 C 0.40988 0.39725 0.74082 0.0
C346 C 0.41781 0.42103 0.7816 0.0
C347 C 0.45254 0.43969 0.85087 0.0
C348 C 0.47925 0.4345 0.87935 0.0
C349 C 0.44439 0.41574 0.81006 0.0
C350 C 0.49779 0.40497 0.86641 0.0
C351 C 0.48978 0.38094 0.82586 0.0
H352 H 0.52337 0.65152 0.28885 0.0
H353 H 0.6155 0.65769 0.24344 0.0
H354 H 0.60478 0.61817 0.16755 0.0
H355 H 0.56927 0.57995 0.11635 0.0
H356 H 0.47644 0.57747 0.15886 0.0
H357 H 0.48721 0.61739 0.23387 0.0
C358 C 0.54092 0.64441 0.26186 0.0
C359 C 0.5701 0.65718 0.27126 0.0
C360 C 0.53449 0.62217 0.2183 0.0
C361 C 0.59283 0.64817 0.23636 0.0
C362 C 0.58674 0.62547 0.19335 0.0
C363 C 0.55149 0.58819 0.14218 0.0
C364 C 0.52222 0.57559 0.13274 0.0
C365 C 0.55771 0.61192 0.18433 0.0
C366 C 0.49917 0.58687 0.16565 0.0
C367 C 0.5053 0.60964 0.20846 0.0
H368 H 0.96192 0.17426 0.76643 0.0
H369 H 0.88545 0.10385 0.79318 0.0
H370 H 0.90011 0.06443 0.72112 0.0
H371 H 0.93562 0.04824 0.65304 0.0
H372 H 0.01373 0.11625 0.62923 0.0
H373 H 0.99769 0.15785 0.6983 0.0
C374 C 0.94854 0.15016 0.75683 0.0
C375 C 0.92253 0.14225 0.78534 0.0
C376 C 0.9575 0.12696 0.71607 0.0
C377 C 0.90526 0.11116 0.7715 0.0
C378 C 0.91378 0.08831 0.73053 0.0
C379 C 0.9491 0.07224 0.66275 0.0
C380 C 0.97585 0.07907 0.63603 0.0
C381 C 0.93996 0.09578 0.70286 0.0
C382 C 0.99309 0.11025 0.64931 0.0
C383 C 0.98392 0.13409 0.68877 0.0
H384 H 0.40073 0.37322 0.24512 0.0
H385 H 0.48167 0.31066 0.25979 0.0
H386 H 0.50338 0.34512 0.18665 0.0
H387 H 0.5006 0.39652 0.12347 0.0
H388 H 0.41929 0.45901 0.11019 0.0
H389 H 0.39654 0.42116 0.17798 0.0
C390 C 0.42306 0.36702 0.232 0.0
C391 C 0.43973 0.33979 0.25796 0.0
C392 C 0.43541 0.38714 0.19057 0.0
C393 C 0.46841 0.33147 0.24018 0.0
C394 C 0.48088 0.35134 0.19869 0.0
C395 C 0.47784 0.40169 0.13518 0.0
C396 C 0.46183 0.43085 0.11218 0.0
C397 C 0.46481 0.3798 0.17435 0.0
C398 C 0.43223 0.43692 0.12741 0.0
C399 C 0.41916 0.41531 0.16623 0.0
H400 H 0.05173 0.84367 0.78001 0.0
H401 H 0.13548 0.90299 0.78151 0.0
H402 H 0.11838 0.9409 0.70781 0.0
H403 H 0.07885 0.95879 0.64555 0.0
H404 H 0.99463 0.90014 0.64548 0.0
H405 H 0.01278 0.86023 0.7158 0.0
C406 C 0.06638 0.86452 0.7636 0.0
C407 C 0.09478 0.87058 0.78603 0.0
C408 C 0.05625 0.88649 0.7218 0.0
C409 C 0.11341 0.89805 0.76503 0.0
C410 C 0.10366 0.91968 0.72294 0.0
C411 C 0.06449 0.9372 0.66078 0.0
C412 C 0.03538 0.93262 0.64044 0.0
C413 C 0.07497 0.91447 0.70149 0.0
C414 C 0.01709 0.90444 0.66058 0.0
C415 C 0.02745 0.88153 0.70077 0.0
loop_
_geom_bond_atom_site_label_1
_geom_bond_atom_site_label_2
_geom_bond_distance
_geom_bond_site_symmetry_2
_ccdc_geom_bond_type
C0 C1 1.386 . S
C0 C2 1.397 . S
C0 H24 0.931 . S
C1 C0 1.386 . S
C1 C5 1.397 . S
C2 C0 1.397 . S
C2 C3 1.384 . S
C2 H25 0.930 . S
C3 C2 1.384 . S
C3 C4 1.377 . S
C3 C6 1.481 . S
C4 C3 1.377 . S
C4 C5 1.389 . S
C4 H26 0.929 . S
C5 C1 1.397 . S
C5 C4 1.389 . S
C5 H27 0.931 . S
C6 C3 1.481 . S
C6 C7 1.387 . S
C6 C11 1.390 1_556 S
C7 C6 1.387 . S
C7 C8 1.401 1_556 S
C7 H28 0.930 . S
C8 C7 1.401 1_554 S
C8 C9 1.376 . S
C8 C17 1.511 . S
C9 C8 1.376 . S
C9 C10 1.392 . S
C9 H30 0.931 . S
C10 C9 1.392 . S
C10 C11 1.361 . S
C10 C12 1.500 . S
C11 C6 1.390 1_554 S
C11 C10 1.361 . S
C11 H29 0.931 . S
C12 C10 1.500 . S
C12 C13 1.371 . S
C12 C14 1.365 . S
C13 C12 1.371 . S
C13 C23 1.386 . S
C13 H31 0.931 . S
C14 C12 1.365 . S
C14 C15 1.409 . S
C14 H32 0.929 . S
C15 C14 1.409 . S
C15 C16 1.380 . S
C15 H33 0.930 . S
C16 C15 1.380 . S
C16 C23 1.357 . S
C17 C8 1.511 . S
C17 C18 1.341 1_554 S
C17 C19 1.371 . S
C18 C17 1.341 1_556 S
C18 C22 1.394 . S
C18 H34 0.930 . S
C19 C17 1.371 . S
C19 C20 1.392 . S
C19 H35 0.931 . S
C20 C19 1.392 . S
C20 C21 1.331 . S
C20 H38 0.932 . S
C21 C20 1.331 . S
C21 C22 1.336 1_554 S
C22 C18 1.394 . S
C22 C21 1.336 1_556 S
C22 H37 0.929 . S
C23 C13 1.386 . S
C23 C16 1.357 . S
C23 H36 0.928 . S
H24 C0 0.931 . S
H25 C2 0.930 . S
H26 C4 0.929 . S
H27 C5 0.931 . S
H28 C7 0.930 . S
H29 C11 0.931 . S
H30 C9 0.931 . S
H31 C13 0.931 . S
H32 C14 0.929 . S
H33 C15 0.930 . S
H34 C18 0.930 . S
H35 C19 0.931 . S
H36 C23 0.928 . S
H37 C22 0.929 . S
H38 C20 0.932 . S
C39 C40 1.386 . S
C39 C41 1.397 . S
C39 H63 0.931 . S
C40 C39 1.386 . S
C40 C44 1.397 . S
C41 C39 1.397 . S
C41 C42 1.384 . S
C41 H64 0.930 . S
C42 C41 1.384 . S
C42 C43 1.377 . S
C42 C45 1.481 . S
C43 C42 1.377 . S
C43 C44 1.389 . S
C43 H65 0.929 . S
C44 C40 1.397 . S
C44 C43 1.389 . S
C44 H66 0.931 . S
C45 C42 1.481 . S
C45 C46 1.387 . S
C45 C50 1.390 . S
C46 C45 1.387 . S
C46 C47 1.401 . S
C46 H67 0.930 . S
C47 C46 1.401 . S
C47 C48 1.376 . S
C47 C56 1.511 . S
C48 C47 1.376 . S
C48 C49 1.392 . S
C48 H69 0.931 . S
C49 C48 1.392 . S
C49 C50 1.361 . S
C49 C51 1.500 . S
C50 C45 1.390 . S
C50 C49 1.361 . S
C50 H68 0.931 . S
C51 C49 1.500 . S
C51 C52 1.371 . S
C51 C53 1.365 . S
C52 C51 1.371 . S
C52 C62 1.386 . S
C52 H70 0.931 . S
C53 C51 1.365 . S
C53 C54 1.409 . S
C53 H71 0.929 . S
C54 C53 1.409 . S
C54 C55 1.380 . S
C54 H72 0.930 . S
C55 C54 1.380 . S
C55 C62 1.357 . S
C56 C47 1.511 . S
C56 C57 1.341 . S
C56 C58 1.371 . S
C57 C56 1.341 . S
C57 C61 1.394 . S
C57 H73 0.930 . S
C58 C56 1.371 . S
C58 C59 1.392 . S
C58 H74 0.931 . S
C59 C58 1.392 . S
C59 C60 1.331 . S
C59 H77 0.932 . S
C60 C59 1.331 . S
C60 C61 1.336 . S
C61 C57 1.394 . S
C61 C60 1.336 . S
C61 H76 0.929 . S
C62 C52 1.386 . S
C62 C55 1.357 . S
C62 H75 0.928 . S
H63 C39 0.931 . S
H64 C41 0.930 . S
H65 C43 0.929 . S
H66 C44 0.931 . S
H67 C46 0.930 . S
H68 C50 0.931 . S
H69 C48 0.931 . S
H70 C52 0.931 . S
H71 C53 0.929 . S
H72 C54 0.930 . S
H73 C57 0.930 . S
H74 C58 0.931 . S
H75 C62 0.928 . S
H76 C61 0.929 . S
H77 C59 0.932 . S
C78 C79 1.386 . S
C78 C80 1.397 . S
C78 H102 0.931 . S
C79 C78 1.386 . S
C79 C83 1.397 . S
C80 C78 1.397 . S
C80 C81 1.384 . S
C80 H103 0.930 . S
C81 C80 1.384 . S
C81 C82 1.377 . S
C81 C84 1.481 . S
C82 C81 1.377 . S
C82 C83 1.389 . S
C82 H104 0.929 . S
C83 C79 1.397 . S
C83 C82 1.389 . S
C83 H105 0.931 . S
C84 C81 1.481 . S
C84 C85 1.387 . S
C84 C89 1.390 . S
C85 C84 1.387 . S
C85 C86 1.401 . S
C85 H106 0.930 . S
C86 C85 1.401 . S
C86 C87 1.376 1_554 S
C86 C95 1.511 . S
C87 C86 1.376 1_556 S
C87 C88 1.392 . S
C87 H108 0.931 . S
C88 C87 1.392 . S
C88 C89 1.361 1_556 S
C88 C90 1.500 . S
C89 C84 1.390 . S
C89 C88 1.361 1_554 S
C89 H107 0.931 . S
C90 C88 1.500 . S
C90 C91 1.371 . S
C90 C92 1.365 . S
C91 C90 1.371 . S
C91 C101 1.386 . S
C91 H109 0.931 . S
C92 C90 1.365 . S
C92 C93 1.409 . S
C92 H110 0.929 . S
C93 C92 1.409 . S
C93 C94 1.380 . S
C93 H111 0.930 . S
C94 C93 1.380 . S
C94 C101 1.357 . S
C95 C86 1.511 . S
C95 C96 1.341 . S
C95 C97 1.371 1_554 S
C96 C95 1.341 . S
C96 C100 1.394 . S
C96 H112 0.930 . S
C97 C95 1.371 1_556 S
C97 C98 1.392 . S
C97 H113 0.931 . S
C98 C97 1.392 . S
C98 C99 1.331 1_556 S
C98 H116 0.932 . S
C99 C98 1.331 1_554 S
C99 C100 1.336 . S
C100 C96 1.394 . S
C100 C99 1.336 . S
C100 H115 0.929 . S
C101 C91 1.386 . S
C101 C94 1.357 . S
C101 H114 0.928 . S
H102 C78 0.931 . S
H103 C80 0.930 . S
H104 C82 0.929 . S
H105 C83 0.931 . S
H106 C85 0.930 . S
H107 C89 0.931 . S
H108 C87 0.931 . S
H109 C91 0.931 . S
H110 C92 0.929 . S
H111 C93 0.930 . S
H112 C96 0.930 . S
H113 C97 0.931 . S
H114 C101 0.928 . S
H115 C100 0.929 . S
H116 C98 0.932 . S
C117 C118 1.386 . S
C117 C119 1.397 . S
C117 H141 0.931 . S
C118 C117 1.386 . S
C118 C122 1.397 . S
C119 C117 1.397 . S
C119 C120 1.384 . S
C119 H142 0.930 . S
C120 C119 1.384 . S
C120 C121 1.377 . S
C120 C123 1.481 . S
C121 C120 1.377 . S
C121 C122 1.389 . S
C121 H143 0.929 . S
C122 C118 1.397 . S
C122 C121 1.389 . S
C122 H144 0.931 . S
C123 C120 1.481 . S
C123 C124 1.387 . S
C123 C128 1.390 . S
C124 C123 1.387 . S
C124 C125 1.401 . S
C124 H145 0.930 . S
C125 C124 1.401 . S
C125 C126 1.376 . S
C125 C134 1.511 . S
C126 C125 1.376 . S
C126 C127 1.392 . S
C126 H147 0.931 . S
C127 C126 1.392 . S
C127 C128 1.361 . S
C127 C129 1.500 . S
C128 C123 1.390 . S
C128 C127 1.361 . S
C128 H146 0.931 . S
C129 C127 1.500 . S
C129 C130 1.371 . S
C129 C131 1.365 . S
C130 C129 1.371 . S
C130 C140 1.386 . S
C130 H148 0.931 . S
C131 C129 1.365 . S
C131 C132 1.409 . S
C131 H149 0.929 . S
C132 C131 1.409 . S
C132 C133 1.380 . S
C132 H150 0.930 . S
C133 C132 1.380 . S
C133 C140 1.357 . S
C134 C125 1.511 . S
C134 C135 1.341 . S
C134 C136 1.371 . S
C135 C134 1.341 . S
C135 C139 1.394 . S
C135 H151 0.930 . S
C136 C134 1.371 . S
C136 C137 1.392 . S
C136 H152 0.931 . S
C137 C136 1.392 . S
C137 C138 1.331 . S
C137 H155 0.932 . S
C138 C137 1.331 . S
C138 C139 1.336 . S
C139 C135 1.394 . S
C139 C138 1.336 . S
C139 H154 0.929 . S
C140 C130 1.386 . S
C140 C133 1.357 . S
C140 H153 0.928 . S
H141 C117 0.931 . S
H142 C119 0.930 . S
H143 C121 0.929 . S
H144 C122 0.931 . S
H145 C124 0.930 . S
H146 C128 0.931 . S
H147 C126 0.931 . S
H148 C130 0.931 . S
H149 C131 0.929 . S
H150 C132 0.930 . S
H151 C135 0.930 . S
H152 C136 0.931 . S
H153 C140 0.928 . S
H154 C139 0.929 . S
H155 C137 0.932 . S
C156 O172 1.251 . S
C156 O174 1.254 1_455 S
N157 C158 1.333 . S
N157 C162 1.307 . S
N157 Zn163 2.020 . S
C158 N157 1.333 . S
C158 C159 1.379 . S
C158 H176 0.952 . S
C159 C158 1.379 . S
C159 C160 1.390 . S
C159 H186 0.949 . S
C160 C159 1.390 . S
C160 C161 1.357 . S
C161 C160 1.357 . S
C161 C162 1.370 . S
C161 H187 0.950 . S
C162 N157 1.307 . S
C162 C161 1.370 . S
C162 H180 0.948 . S
Zn163 N157 2.020 . S
Zn163 O172 2.039 1_545 S
Zn163 O178 2.034 1_545 S
Zn163 O182 2.025 . S
Zn163 O184 2.024 . S
C164 O183 1.246 . S
C164 O184 1.249 1_655 S
N165 C166 1.307 . S
N165 C167 1.333 . S
N165 Zn171 2.020 . S
C166 N165 1.307 . S
C166 C170 1.370 . S
C166 H177 0.948 . S
C167 N165 1.333 . S
C167 C168 1.379 . S
C167 H175 0.952 1_565 S
C168 C167 1.379 . S
C168 C169 1.390 . S
C168 H188 0.949 . S
C169 C168 1.390 . S
C169 C170 1.357 . S
C170 C166 1.370 . S
C170 C169 1.357 . S
C170 H189 0.950 . S
Zn171 N165 2.020 . S
Zn171 O174 2.025 . S
Zn171 O179 2.024 . S
Zn171 O181 2.039 1_565 S
Zn171 O183 2.034 1_565 S
O172 C156 1.251 . S
O172 Zn163 2.039 1_565 S
C173 O178 1.246 . S
C173 O179 1.249 1_455 S
O174 C156 1.254 1_655 S
O174 Zn171 2.025 . S
H175 C167 0.952 1_545 S
H176 C158 0.952 . S
H177 C166 0.948 . S
O178 Zn163 2.034 1_565 S
O178 C173 1.246 . S
O179 Zn171 2.024 . S
O179 C173 1.249 1_655 S
H180 C162 0.948 . S
O181 Zn171 2.039 1_545 S
O181 C185 1.251 . S
O182 Zn163 2.025 . S
O182 C185 1.254 1_455 S
O183 C164 1.246 . S
O183 Zn171 2.034 1_545 S
O184 Zn163 2.024 . S
O184 C164 1.249 1_455 S
C185 O181 1.251 . S
C185 O182 1.254 1_655 S
H186 C159 0.949 . S
H187 C161 0.950 . S
H188 C168 0.949 . S
H189 C170 0.950 . S
C190 O206 1.251 . S
C190 O208 1.254 . S
N191 C192 1.335 . S
N191 C196 1.307 . S
N191 Zn197 2.020 . S
C192 N191 1.335 . S
C192 C193 1.379 1_554 S
C192 H210 0.949 1_554 S
C193 C192 1.379 1_556 S
C193 C194 1.384 1_556 S
C193 H220 0.956 . S
C194 C193 1.384 1_554 S
C194 C195 1.357 . S
C195 C194 1.357 . S
C195 C196 1.370 . S
C195 H221 0.950 . S
C196 N191 1.307 . S
C196 C195 1.370 . S
C196 H214 0.948 . S
Zn197 N191 2.020 . S
Zn197 O206 2.039 1_554 S
Zn197 O212 2.034 . S
Zn197 O216 2.025 . S
Zn197 O218 2.024 1_554 S
C198 O217 1.246 . S
C198 O218 1.249 . S
N199 C200 1.307 . S
N199 C201 1.333 . S
N199 Zn205 2.020 . S
C200 N199 1.307 . S
C200 C204 1.370 . S
C200 H211 0.948 1_554 S
C201 N199 1.333 . S
C201 C202 1.379 . S
C201 H209 0.952 . S
C202 C201 1.379 . S
C202 C203 1.390 . S
C202 H222 0.949 . S
C203 C202 1.390 . S
C203 C204 1.357 . S
C204 C200 1.370 . S
C204 C203 1.357 . S
C204 H223 0.950 1_554 S
Zn205 N199 2.020 . S
Zn205 O208 2.025 1_554 S
Zn205 O213 2.024 . S
Zn205 O215 2.039 . S
Zn205 O217 2.034 1_554 S
O206 C190 1.251 . S
O206 Zn197 2.039 1_556 S
C207 O212 1.246 . S
C207 O213 1.249 . S
O208 C190 1.254 . S
O208 Zn205 2.025 1_556 S
H209 C201 0.952 . S
H210 C192 0.949 1_556 S
H211 C200 0.948 1_556 S
O212 Zn197 2.034 . S
O212 C207 1.246 . S
O213 Zn205 2.024 . S
O213 C207 1.249 . S
H214 C196 0.948 . S
O215 Zn205 2.039 . S
O215 C219 1.251 . S
O216 Zn197 2.025 . S
O216 C219 1.254 . S
O217 C198 1.246 . S
O217 Zn205 2.034 1_556 S
O218 Zn197 2.024 1_556 S
O218 C198 1.249 . S
C219 O215 1.251 . S
C219 O216 1.254 . S
H220 C193 0.956 . S
H221 C195 0.950 . S
H222 C202 0.949 . S
H223 C204 0.950 1_556 S
H224 C230 0.930 . S
H225 C233 0.930 . S
H226 C234 0.930 . S
H227 C235 0.930 . S
H228 C238 0.930 . S
H229 C239 0.930 . S
C230 H224 0.930 . S
C230 C231 1.355 . S
C230 C232 1.415 . S
C231 C230 1.355 . S
C231 C233 1.419 . S
C232 C230 1.415 . S
C232 C237 1.425 . S
C232 C239 1.409 . S
C233 H225 0.930 . S
C233 C231 1.419 . S
C233 C234 1.362 . S
C234 H226 0.930 . S
C234 C233 1.362 . S
C234 C237 1.409 . S
C235 H227 0.930 . S
C235 C236 1.355 . S
C235 C237 1.415 . S
C236 C235 1.355 . S
C236 C238 1.419 . S
C237 C232 1.425 . S
C237 C234 1.409 . S
C237 C235 1.415 . S
C238 H228 0.930 . S
C238 C236 1.419 . S
C238 C239 1.362 . S
C239 H229 0.930 . S
C239 C232 1.409 . S
C239 C238 1.362 . S
H240 C246 0.930 1_556 S
H241 C249 0.930 . S
H242 C250 0.930 . S
H243 C251 0.930 . S
H244 C254 0.930 1_556 S
H245 C255 0.930 1_556 S
C246 H240 0.930 1_554 S
C246 C247 1.355 . S
C246 C248 1.415 . S
C247 C246 1.355 . S
C247 C249 1.419 . S
C248 C246 1.415 . S
C248 C253 1.425 . S
C248 C255 1.409 . S
C249 H241 0.930 . S
C249 C247 1.419 . S
C249 C250 1.362 . S
C250 H242 0.930 . S
C250 C249 1.362 . S
C250 C253 1.409 . S
C251 H243 0.930 . S
C251 C252 1.355 . S
C251 C253 1.415 . S
C252 C251 1.355 . S
C252 C254 1.419 . S
C253 C248 1.425 . S
C253 C250 1.409 . S
C253 C251 1.415 . S
C254 H244 0.930 1_554 S
C254 C252 1.419 . S
C254 C255 1.362 . S
C255 H245 0.930 1_554 S
C255 C248 1.409 . S
C255 C254 1.362 . S
H256 C262 0.930 . S
H257 C265 0.930 . S
H258 C266 0.930 . S
H259 C267 0.930 . S
H260 C270 0.930 . S
H261 C271 0.930 . S
C262 H256 0.930 . S
C262 C263 1.355 . S
C262 C264 1.415 . S
C263 C262 1.355 . S
C263 C265 1.419 . S
C264 C262 1.415 . S
C264 C269 1.425 . S
C264 C271 1.409 . S
C265 H257 0.930 . S
C265 C263 1.419 . S
C265 C266 1.362 . S
C266 H258 0.930 . S
C266 C265 1.362 . S
C266 C269 1.409 . S
C267 H259 0.930 . S
C267 C268 1.355 . S
C267 C269 1.415 . S
C268 C267 1.355 . S
C268 C270 1.419 . S
C269 C264 1.425 . S
C269 C266 1.409 . S
C269 C267 1.415 . S
C270 H260 0.930 . S
C270 C268 1.419 . S
C270 C271 1.362 . S
C271 H261 0.930 . S
C271 C264 1.409 . S
C271 C270 1.362 . S
H272 C278 0.923 1_556 S
H273 C281 0.930 . S
H274 C282 0.930 . S
H275 C283 0.930 . S
H276 C286 0.930 . S
H277 C287 0.930 . S
C278 H272 0.923 1_554 S
C278 C279 1.360 . S
C278 C280 1.416 . S
C279 C278 1.360 . S
C279 C281 1.419 . S
C280 C278 1.416 . S
C280 C285 1.425 . S
C280 C287 1.409 1_554 S
C281 H273 0.930 . S
C281 C279 1.419 . S
C281 C282 1.362 . S
C282 H274 0.930 . S
C282 C281 1.362 . S
C282 C285 1.409 . S
C283 H275 0.930 . S
C283 C284 1.355 . S
C283 C285 1.415 . S
C284 C283 1.355 . S
C284 C286 1.419 1_554 S
C285 C280 1.425 . S
C285 C282 1.409 . S
C285 C283 1.415 . S
C286 H276 0.930 . S
C286 C284 1.419 1_556 S
C286 C287 1.362 . S
C287 H277 0.930 . S
C287 C280 1.409 1_556 S
C287 C286 1.362 . S
H288 C294 0.930 . S
H289 C297 0.930 . S
H290 C298 0.930 . S
H291 C299 0.930 . S
H292 C302 0.930 . S
H293 C303 0.930 . S
C294 H288 0.930 . S
C294 C295 1.355 . S
C294 C296 1.415 . S
C295 C294 1.355 . S
C295 C297 1.419 . S
C296 C294 1.415 . S
C296 C301 1.425 . S
C296 C303 1.409 . S
C297 H289 0.930 . S
C297 C295 1.419 . S
C297 C298 1.362 . S
C298 H290 0.930 . S
C298 C297 1.362 . S
C298 C301 1.409 . S
C299 H291 0.930 . S
C299 C300 1.355 . S
C299 C301 1.415 . S
C300 C299 1.355 . S
C300 C302 1.419 . S
C301 C296 1.425 . S
C301 C298 1.409 . S
C301 C299 1.415 . S
C302 H292 0.930 . S
C302 C300 1.419 . S
C302 C303 1.362 . S
C303 H293 0.930 . S
C303 C296 1.409 . S
C303 C302 1.362 . S
H304 C310 0.930 . S
H305 C313 0.930 . S
H306 C314 0.930 . S
H307 C315 0.930 . S
H308 C318 0.930 . S
H309 C319 0.930 . S
C310 H304 0.930 . S
C310 C311 1.355 . S
C310 C312 1.415 . S
C311 C310 1.355 . S
C311 C313 1.419 . S
C312 C310 1.415 . S
C312 C317 1.425 . S
C312 C319 1.409 . S
C313 H305 0.930 . S
C313 C311 1.419 . S
C313 C314 1.362 . S
C314 H306 0.930 . S
C314 C313 1.362 . S
C314 C317 1.409 . S
C315 H307 0.930 . S
C315 C316 1.355 . S
C315 C317 1.415 . S
C316 C315 1.355 . S
C316 C318 1.419 . S
C317 C312 1.425 . S
C317 C314 1.409 . S
C317 C315 1.415 . S
C318 H308 0.930 . S
C318 C316 1.419 . S
C318 C319 1.362 . S
C319 H309 0.930 . S
C319 C312 1.409 . S
C319 C318 1.362 . S
H320 C326 0.930 . S
H321 C329 0.907 1_455 S
H322 C330 0.912 1_455 S
H323 C331 0.930 1_455 S
H324 C334 0.930 . S
H325 C335 0.930 . S
C326 H320 0.930 . S
C326 C327 1.355 . S
C326 C328 1.415 . S
C327 C326 1.355 . S
C327 C329 1.419 . S
C328 C326 1.415 . S
C328 C333 1.425 . S
C328 C335 1.409 . S
C329 H321 0.907 1_655 S
C329 C327 1.419 . S
C329 C330 1.369 . S
C330 H322 0.912 1_655 S
C330 C329 1.369 . S
C330 C333 1.420 . S
C331 H323 0.930 1_655 S
C331 C332 1.355 . S
C331 C333 1.415 . S
C332 C331 1.355 . S
C332 C334 1.419 . S
C333 C328 1.425 . S
C333 C330 1.420 . S
C333 C331 1.415 . S
C334 H324 0.930 . S
C334 C332 1.419 . S
C334 C335 1.362 . S
C335 H325 0.930 . S
C335 C328 1.409 . S
C335 C334 1.362 . S
H336 C342 0.930 . S
H337 C345 0.930 . S
H338 C346 0.930 . S
H339 C347 0.930 . S
H340 C350 0.930 . S
H341 C351 0.930 . S
C342 H336 0.930 . S
C342 C343 1.355 . S
C342 C344 1.415 . S
C343 C342 1.355 . S
C343 C345 1.419 . S
C344 C342 1.415 . S
C344 C349 1.425 . S
C344 C351 1.409 . S
C345 H337 0.930 . S
C345 C343 1.419 . S
C345 C346 1.362 . S
C346 H338 0.930 . S
C346 C345 1.362 . S
C346 C349 1.409 . S
C347 H339 0.930 . S
C347 C348 1.355 . S
C347 C349 1.415 . S
C348 C347 1.355 . S
C348 C350 1.419 . S
C349 C344 1.425 . S
C349 C346 1.409 . S
C349 C347 1.415 . S
C350 H340 0.930 . S
C350 C348 1.419 . S
C350 C351 1.362 . S
C351 H341 0.930 . S
C351 C344 1.409 . S
C351 C350 1.362 . S
H352 C358 0.930 . S
H353 C361 0.930 . S
H354 C362 0.930 . S
H355 C363 0.930 . S
H356 C366 0.930 . S
H357 C367 0.930 . S
C358 H352 0.930 . S
C358 C359 1.355 . S
C358 C360 1.415 . S
C359 C358 1.355 . S
C359 C361 1.419 . S
C360 C358 1.415 . S
C360 C365 1.425 . S
C360 C367 1.409 . S
C361 H353 0.930 . S
C361 C359 1.419 . S
C361 C362 1.362 . S
C362 H354 0.930 . S
C362 C361 1.362 . S
C362 C365 1.409 . S
C363 H355 0.930 . S
C363 C364 1.355 . S
C363 C365 1.415 . S
C364 C363 1.355 . S
C364 C366 1.419 . S
C365 C360 1.425 . S
C365 C362 1.409 . S
C365 C363 1.415 . S
C366 H356 0.930 . S
C366 C364 1.419 . S
C366 C367 1.362 . S
C367 H357 0.930 . S
C367 C360 1.409 . S
C367 C366 1.362 . S
H368 C374 0.930 . S
H369 C377 0.930 . S
H370 C378 0.930 . S
H371 C379 0.930 . S
H372 C382 0.930 . S
H373 C383 0.930 . S
C374 H368 0.930 . S
C374 C375 1.355 . S
C374 C376 1.415 . S
C375 C374 1.355 . S
C375 C377 1.419 . S
C376 C374 1.415 . S
C376 C381 1.425 . S
C376 C383 1.409 1_655 S
C377 H369 0.930 . S
C377 C375 1.419 . S
C377 C378 1.362 . S
C378 H370 0.930 . S
C378 C377 1.362 . S
C378 C381 1.409 . S
C379 H371 0.930 . S
C379 C380 1.355 . S
C379 C381 1.415 . S
C380 C379 1.355 . S
C380 C382 1.419 1_655 S
C381 C376 1.425 . S
C381 C378 1.409 . S
C381 C379 1.415 . S
C382 H372 0.930 . S
C382 C380 1.419 1_455 S
C382 C383 1.362 . S
C383 H373 0.930 . S
C383 C376 1.409 1_455 S
C383 C382 1.362 . S
H384 C390 0.930 . S
H385 C393 0.930 . S
H386 C394 0.930 . S
H387 C395 0.930 . S
H388 C398 0.930 . S
H389 C399 0.930 . S
C390 H384 0.930 . S
C390 C391 1.355 . S
C390 C392 1.415 . S
C391 C390 1.355 . S
C391 C393 1.419 . S
C392 C390 1.415 . S
C392 C397 1.425 . S
C392 C399 1.409 . S
C393 H385 0.930 . S
C393 C391 1.419 . S
C393 C394 1.362 . S
C394 H386 0.930 . S
C394 C393 1.362 . S
C394 C397 1.409 . S
C395 H387 0.930 . S
C395 C396 1.355 . S
C395 C397 1.415 . S
C396 C395 1.355 . S
C396 C398 1.419 . S
C397 C392 1.425 . S
C397 C394 1.409 . S
C397 C395 1.415 . S
C398 H388 0.930 . S
C398 C396 1.419 . S
C398 C399 1.362 . S
C399 H389 0.930 . S
C399 C392 1.409 . S
C399 C398 1.362 . S
H400 C406 0.930 . S
H401 C409 0.930 . S
H402 C410 0.930 . S
H403 C411 0.930 . S
H404 C414 0.930 . S
H405 C415 0.930 . S
C406 H400 0.930 . S
C406 C407 1.355 . S
C406 C408 1.415 . S
C407 C406 1.355 . S
C407 C409 1.419 . S
C408 C406 1.415 . S
C408 C413 1.425 . S
C408 C415 1.409 . S
C409 H401 0.930 . S
C409 C407 1.419 . S
C409 C410 1.362 . S
C410 H402 0.930 . S
C410 C409 1.362 . S
C410 C413 1.409 . S
C411 H403 0.930 . S
C411 C412 1.355 . S
C411 C413 1.415 . S
C412 C411 1.355 . S
C412 C414 1.419 . S
C413 C408 1.425 . S
C413 C410 1.409 . S
C413 C411 1.415 . S
C414 H404 0.930 . S
C414 C412 1.419 . S
C414 C415 1.362 . S
C415 H405 0.930 . S
C415 C408 1.409 . S
C415 C414 1.362 . S
C236 C160 1.646 . S
C231 C138 1.585 . S
C247 C21 1.587 . S
C252 C203 1.589 . S
C263 C60 1.619 . S
C268 C169 1.656 . S
C279 C99 1.536 . S
C284 C194 1.565 . S
C300 C156 1.643 . S
C295 C16 1.610 . S
C316 C198 1.751 . S
C311 C40 1.721 . S
C327 C79 1.627 . S
C332 C164 1.646 . S
C343 C133 1.686 . S
C348 C190 1.734 . S
C364 C219 1.728 . S
C359 C55 1.665 . S
C380 C185 1.641 . S
C375 C94 1.610 . S
C396 C207 1.732 . S
C391 C118 1.673 . S
C407 C1 1.630 . S
C412 C173 1.645 . S
