# Generated by pormake.
# Topology nom, (4,4)-cn, num edge types: 1
# Building blocks:
#     Node 0, Type 0, BuildingBlock: AZAVOO_clean_linker_0, # of connection points: 4
#     Node 1, Type 0, BuildingBlock: AZAVOO_clean_linker_0, # of connection points: 4
#     Node 2, Type 0, BuildingBlock: AZAVOO_clean_linker_0, # of connection points: 4
#     Node 3, Type 0, BuildingBlock: AZAVOO_clean_linker_0, # of connection points: 4
#     Node 4, Type 0, BuildingBlock: AZAVOO_clean_linker_0, # of connection points: 4
#     Node 5, Type 0, BuildingBlock: AZAVOO_clean_linker_0, # of connection points: 4
#     Node 6, Type 1, BuildingBlock: AZAVOO_clean_sbu_0, # of connection points: 4
#     Node 7, Type 1, BuildingBlock: AZAVOO_clean_sbu_0, # of connection points: 4
#     Node 8, Type 1, BuildingBlock: AZAVOO_clean_sbu_0, # of connection points: 4
#     Node 9, Type 1, BuildingBlock: AZAVOO_clean_sbu_0, # of connection points: 4
#     Node 10, Type 1, BuildingBlock: AZAVOO_clean_sbu_0, # of connection points: 4
#     Node 11, Type 1, BuildingBlock: AZAVOO_clean_sbu_0, # of connection points: 4
#     Edge 12, Type (0, 1), BuildingBlock: EZIPEK_clean_linker_0, # of connection points: 2
#     Edge 13, Type (0, 1), BuildingBlock: EZIPEK_clean_linker_0, # of connection points: 2
#     Edge 14, Type (0, 1), BuildingBlock: EZIPEK_clean_linker_0, # of connection points: 2
#     Edge 15, Type (0, 1), BuildingBlock: EZIPEK_clean_linker_0, # of connection points: 2
#     Edge 16, Type (0, 1), BuildingBlock: EZIPEK_clean_linker_0, # of connection points: 2
#     Edge 17, Type (0, 1), BuildingBlock: EZIPEK_clean_linker_0, # of connection points: 2
#     Edge 18, Type (0, 1), BuildingBlock: EZIPEK_clean_linker_0, # of connection points: 2
#     Edge 19, Type (0, 1), BuildingBlock: EZIPEK_clean_linker_0, # of connection points: 2
#     Edge 20, Type (0, 1), BuildingBlock: EZIPEK_clean_linker_0, # of connection points: 2
#     Edge 21, Type (0, 1), BuildingBlock: EZIPEK_clean_linker_0, # of connection points: 2
#     Edge 22, Type (0, 1), BuildingBlock: EZIPEK_clean_linker_0, # of connection points: 2
#     Edge 23, Type (0, 1), BuildingBlock: EZIPEK_clean_linker_0, # of connection points: 2
#     Edge 24, Type (0, 1), BuildingBlock: EZIPEK_clean_linker_0, # of connection points: 2
#     Edge 25, Type (0, 1), BuildingBlock: EZIPEK_clean_linker_0, # of connection points: 2
#     Edge 26, Type (0, 1), BuildingBlock: EZIPEK_clean_linker_0, # of connection points: 2
#     Edge 27, Type (0, 1), BuildingBlock: EZIPEK_clean_linker_0, # of connection points: 2
#     Edge 28, Type (0, 1), BuildingBlock: EZIPEK_clean_linker_0, # of connection points: 2
#     Edge 29, Type (0, 1), BuildingBlock: EZIPEK_clean_linker_0, # of connection points: 2
#     Edge 30, Type (0, 1), BuildingBlock: EZIPEK_clean_linker_0, # of connection points: 2
#     Edge 31, Type (0, 1), BuildingBlock: EZIPEK_clean_linker_0, # of connection points: 2
#     Edge 32, Type (0, 1), BuildingBlock: EZIPEK_clean_linker_0, # of connection points: 2
#     Edge 33, Type (0, 1), BuildingBlock: EZIPEK_clean_linker_0, # of connection points: 2
#     Edge 34, Type (0, 1), BuildingBlock: EZIPEK_clean_linker_0, # of connection points: 2
#     Edge 35, Type (0, 1), BuildingBlock: EZIPEK_clean_linker_0, # of connection points: 2
# Relax obj value: 0.206
# Max RMSD: 0.234
# Mean RMSD: 0.192
data_MOF--net-nom--node1-AZAVOO_clean_sbu_0--node2-AZAVOO_clean_linker_0--edge1-EZIPEK_clean_linker_0
_symmetry_space_group_name_H-M    P1
_symmetry_Int_Tables_number       1
_symmetry_cell_setting            triclinic
loop_
_symmetry_equiv_pos_as_xyz
'x, y, z'
_cell_length_a     37.232305
_cell_length_b     38.85142
_cell_length_c     44.601726
_cell_angle_alpha  91.014481
_cell_angle_beta   90.905221
_cell_angle_gamma 121.08695
loop_
_atom_site_label
_atom_site_type_symbol
_atom_site_fract_x
_atom_site_fract_y
_atom_site_fract_z
_atom_type_partial_charge
H0 H 0.07819 0.44199 0.11542 0.0
H1 H 0.30499 0.65137 0.40106 0.0
H2 H 0.98979 0.39527 0.2664 0.0
H3 H 0.93904 0.36456 0.22432 0.0
H4 H 0.90904 0.45754 0.23304 0.0
H5 H 0.96189 0.48981 0.27413 0.0
H6 H 0.07971 0.43764 0.24655 0.0
H7 H 0.08295 0.4313 0.19206 0.0
H8 H 0.04472 0.51821 0.18038 0.0
H9 H 0.04036 0.52329 0.23481 0.0
H10 H 0.16444 0.49732 0.29305 0.0
H11 H 0.23531 0.54825 0.27759 0.0
H12 H 0.18712 0.62077 0.24457 0.0
H13 H 0.11739 0.57152 0.2617 0.0
H14 H 0.13722 0.47818 0.35292 0.0
H15 H 0.20561 0.51423 0.37932 0.0
H16 H 0.21285 0.62698 0.36299 0.0
H17 H 0.14426 0.59049 0.33686 0.0
H18 H 0.06359 0.44834 0.38121 0.0
H19 H 0.09499 0.47027 0.43177 0.0
H20 H 0.0868 0.57659 0.42536 0.0
H21 H 0.05867 0.55627 0.37368 0.0
H22 H 0.94793 0.40648 0.33851 0.0
H23 H 0.8797 0.39844 0.35107 0.0
H24 H 0.9343 0.52678 0.3476 0.0
H25 H 0.00199 0.53478 0.33536 0.0
O26 O 0.07697 0.44509 0.13689 0.0
O27 O 0.0562 0.48914 0.13215 0.0
O28 O 0.27197 0.57747 0.39964 0.0
O29 O 0.27782 0.63631 0.39089 0.0
C30 C 0.01913 0.46896 0.292 0.0
C31 C 0.05796 0.48467 0.2776 0.0
C32 C 0.09591 0.50638 0.29433 0.0
C33 C 0.09539 0.50991 0.32579 0.0
C34 C 0.05693 0.49541 0.34039 0.0
C35 C 0.01876 0.4767 0.32323 0.0
C36 C 0.97975 0.44489 0.27343 0.0
C37 C 0.97147 0.40848 0.25987 0.0
C38 C 0.94266 0.39104 0.23578 0.0
C39 C 0.92079 0.40911 0.22526 0.0
C40 C 0.92582 0.44328 0.24074 0.0
C41 C 0.95567 0.46146 0.26437 0.0
C42 C 0.05933 0.48053 0.24453 0.0
C43 C 0.07176 0.45502 0.23213 0.0
C44 C 0.07367 0.45155 0.20103 0.0
C45 C 0.06376 0.47402 0.18184 0.0
C46 C 0.05218 0.5002 0.19448 0.0
C47 C 0.04956 0.5031 0.22554 0.0
C48 C 0.13592 0.53097 0.27875 0.0
C49 C 0.16911 0.52386 0.28199 0.0
C50 C 0.20931 0.55266 0.27306 0.0
C51 C 0.21619 0.58814 0.26006 0.0
C52 C 0.18222 0.59345 0.25448 0.0
C53 C 0.14248 0.5653 0.26408 0.0
C54 C 0.13577 0.53177 0.34322 0.0
C55 C 0.15349 0.51065 0.35534 0.0
C56 C 0.19264 0.53132 0.37023 0.0
C57 C 0.21485 0.57354 0.37304 0.0
C58 C 0.19676 0.59451 0.36097 0.0
C59 C 0.15749 0.57377 0.34625 0.0
C60 C 0.05846 0.50046 0.37365 0.0
C61 C 0.06702 0.47562 0.39105 0.0
C62 C 0.08543 0.48838 0.41977 0.0
C63 C 0.09427 0.52558 0.43202 0.0
C64 C 0.08078 0.54804 0.41615 0.0
C65 C 0.06397 0.53607 0.38684 0.0
C66 C 0.98001 0.47127 0.33642 0.0
C67 C 0.94542 0.43288 0.34146 0.0
C68 C 0.90667 0.42833 0.3486 0.0
C69 C 0.90219 0.4621 0.35024 0.0
C70 C 0.93731 0.5005 0.34664 0.0
C71 C 0.97591 0.50504 0.33983 0.0
C72 C 0.0654 0.47002 0.14881 0.0
C73 C 0.25658 0.59572 0.38865 0.0
H74 H 0.55143 0.097 0.30126 0.0
H75 H 0.55305 0.27689 0.59257 0.0
H76 H 0.56343 0.01421 0.4569 0.0
H77 H 0.55973 0.9709 0.41487 0.0
H78 H 0.42463 0.90963 0.41407 0.0
H79 H 0.42842 0.95366 0.45602 0.0
H80 H 0.57757 0.0885 0.42994 0.0
H81 H 0.57933 0.09701 0.37562 0.0
H82 H 0.44416 0.03999 0.37214 0.0
H83 H 0.44291 0.03128 0.42645 0.0
H84 H 0.59507 0.15624 0.47426 0.0
H85 H 0.61141 0.21599 0.44562 0.0
H86 H 0.47928 0.16775 0.42866 0.0
H87 H 0.46296 0.10799 0.4573 0.0
H88 H 0.59524 0.13922 0.54164 0.0
H89 H 0.61778 0.20272 0.56899 0.0
H90 H 0.49462 0.18583 0.55369 0.0
H91 H 0.47268 0.12262 0.52619 0.0
H92 H 0.56734 0.04305 0.55788 0.0
H93 H 0.59113 0.06213 0.6105 0.0
H94 H 0.49121 0.08526 0.62516 0.0
H95 H 0.46685 0.06537 0.5727 0.0
H96 H 0.52006 0.96012 0.51002 0.0
H97 H 0.47812 0.89052 0.52666 0.0
H98 H 0.38513 0.91497 0.55985 0.0
H99 H 0.42585 0.98377 0.54201 0.0
O100 O 0.55 0.09306 0.32268 0.0
O101 O 0.48043 0.06293 0.32201 0.0
O102 O 0.60661 0.25743 0.59151 0.0
O103 O 0.54485 0.25169 0.5822 0.0
C104 C 0.49986 0.02019 0.47884 0.0
C105 C 0.5094 0.05636 0.46512 0.0
C106 C 0.51814 0.09032 0.48276 0.0
C107 C 0.5194 0.08896 0.51425 0.0
C108 C 0.50904 0.05256 0.52828 0.0
C109 C 0.49699 0.01737 0.51048 0.0
C110 C 0.49619 0.98703 0.45946 0.0
C111 C 0.53297 0.99049 0.44838 0.0
C112 C 0.53089 0.96582 0.42447 0.0
C113 C 0.49196 0.93721 0.41138 0.0
C114 C 0.45493 0.93142 0.42407 0.0
C115 C 0.45705 0.95643 0.44793 0.0
C116 C 0.5101 0.05899 0.43196 0.0
C117 C 0.54838 0.07753 0.41731 0.0
C118 C 0.54928 0.0825 0.38633 0.0
C119 C 0.51188 0.06923 0.36953 0.0
C120 C 0.47353 0.05058 0.3844 0.0
C121 C 0.47267 0.04535 0.41535 0.0
C122 C 0.52786 0.12798 0.46788 0.0
C123 C 0.56967 0.15888 0.46473 0.0
C124 C 0.57895 0.19275 0.44842 0.0
C125 C 0.54649 0.19609 0.43515 0.0
C126 C 0.50463 0.16563 0.43888 0.0
C127 C 0.49537 0.13171 0.45515 0.0
C128 C 0.53226 0.12625 0.53223 0.0
C129 C 0.57314 0.14919 0.54444 0.0
C130 C 0.58592 0.18545 0.55997 0.0
C131 C 0.55793 0.19927 0.56365 0.0
C132 C 0.51693 0.17604 0.55137 0.0
C133 C 0.50426 0.13989 0.53573 0.0
C134 C 0.51555 0.05313 0.56134 0.0
C135 C 0.54957 0.05073 0.57269 0.0
C136 C 0.56332 0.06185 0.60261 0.0
C137 C 0.54324 0.0756 0.62151 0.0
C138 C 0.50718 0.07488 0.61085 0.0
C139 C 0.49326 0.06348 0.581 0.0
C140 C 0.47591 0.97715 0.5244 0.0
C141 C 0.49066 0.95055 0.52083 0.0
C142 C 0.46682 0.91091 0.53039 0.0
C143 C 0.42832 0.89749 0.54425 0.0
C144 C 0.4146 0.92462 0.54907 0.0
C145 C 0.43805 0.96396 0.53912 0.0
C146 C 0.51298 0.07481 0.33666 0.0
C147 C 0.57141 0.23786 0.58 0.0
H148 H 0.65054 0.55449 0.81268 0.0
H149 H 0.58667 0.33313 0.52142 0.0
H150 H 0.62173 0.62905 0.64929 0.0
H151 H 0.62373 0.67188 0.69138 0.0
H152 H 0.49761 0.58099 0.71299 0.0
H153 H 0.49542 0.53848 0.67072 0.0
H154 H 0.64996 0.56862 0.6823 0.0
H155 H 0.66293 0.57014 0.73646 0.0
H156 H 0.52981 0.49127 0.74858 0.0
H157 H 0.51745 0.4896 0.69435 0.0
H158 H 0.65691 0.50625 0.64286 0.0
H159 H 0.67059 0.45845 0.6688 0.0
H160 H 0.53829 0.38248 0.6842 0.0
H161 H 0.52467 0.42999 0.65816 0.0
H162 H 0.65164 0.51664 0.57898 0.0
H163 H 0.66678 0.47041 0.55175 0.0
H164 H 0.53772 0.37485 0.56013 0.0
H165 H 0.5233 0.42123 0.58777 0.0
H166 H 0.62244 0.58992 0.5594 0.0
H167 H 0.6459 0.58973 0.50836 0.0
H168 H 0.5437 0.46758 0.49386 0.0
H169 H 0.51841 0.46878 0.54414 0.0
H170 H 0.5728 0.61479 0.57334 0.0
H171 H 0.52289 0.63536 0.55721 0.0
H172 H 0.4223 0.53055 0.5977 0.0
H173 H 0.47137 0.50954 0.61281 0.0
O174 O 0.64474 0.55342 0.79135 0.0
O175 O 0.576 0.51304 0.79638 0.0
O176 O 0.64709 0.40268 0.52721 0.0
O177 O 0.58159 0.352 0.53218 0.0
C178 C 0.56205 0.55127 0.6379 0.0
C179 C 0.57539 0.52716 0.65161 0.0
C180 C 0.58121 0.50018 0.63405 0.0
C181 C 0.57764 0.49979 0.60263 0.0
C182 C 0.56523 0.52467 0.58862 0.0
C183 C 0.55436 0.5482 0.60652 0.0
C184 C 0.55829 0.58086 0.65686 0.0
C185 C 0.59393 0.61913 0.66235 0.0
C186 C 0.59526 0.64331 0.68644 0.0
C187 C 0.56101 0.62921 0.70535 0.0
C188 C 0.52433 0.59217 0.6986 0.0
C189 C 0.52291 0.56815 0.6744 0.0
C190 C 0.58277 0.52943 0.68457 0.0
C191 C 0.62369 0.55188 0.69676 0.0
C192 C 0.63098 0.55257 0.72766 0.0
C193 C 0.5974 0.53085 0.74686 0.0
C194 C 0.55637 0.50839 0.73445 0.0
C195 C 0.54918 0.50756 0.70354 0.0
C196 C 0.58986 0.47137 0.6488 0.0
C197 C 0.63097 0.47913 0.65167 0.0
C198 C 0.63871 0.45204 0.66634 0.0
C199 C 0.60536 0.41719 0.67828 0.0
C200 C 0.56425 0.40927 0.67502 0.0
C201 C 0.55654 0.43625 0.66033 0.0
C202 C 0.58625 0.47239 0.58477 0.0
C203 C 0.62666 0.48579 0.57466 0.0
C204 C 0.6352 0.45931 0.5592 0.0
C205 C 0.60333 0.41902 0.55349 0.0
C206 C 0.5629 0.40571 0.56394 0.0
C207 C 0.55453 0.43214 0.57961 0.0
C208 C 0.56898 0.52917 0.55567 0.0
C209 C 0.60368 0.5639 0.54468 0.0
C210 C 0.6174 0.56364 0.51573 0.0
C211 C 0.59724 0.52822 0.49785 0.0
C212 C 0.56002 0.49495 0.50761 0.0
C213 C 0.54551 0.49571 0.53619 0.0
C214 C 0.52566 0.56062 0.59422 0.0
C215 C 0.53988 0.59594 0.57816 0.0
C216 C 0.51152 0.60768 0.56906 0.0
C217 C 0.46899 0.58453 0.57649 0.0
C218 C 0.45493 0.54882 0.59184 0.0
C219 C 0.48292 0.53692 0.60047 0.0
C220 C 0.60522 0.53177 0.77968 0.0
C221 C 0.61216 0.39088 0.53683 0.0
H222 H 0.09857 0.44089 0.03063 0.0
H223 H 0.31121 0.51817 0.74006 0.0
H224 H 0.0119 0.46949 0.87707 0.0
H225 H 0.96277 0.45075 0.91824 0.0
H226 H 0.93027 0.32734 0.90742 0.0
H227 H 0.9791 0.34607 0.86573 0.0
H228 H 0.10007 0.48923 0.90695 0.0
H229 H 0.10463 0.48095 0.96092 0.0
H230 H 0.05875 0.35462 0.94466 0.0
H231 H 0.05451 0.36344 0.89074 0.0
H232 H 0.17843 0.52047 0.86028 0.0
H233 H 0.24952 0.53408 0.87037 0.0
H234 H 0.20173 0.4067 0.8733 0.0
H235 H 0.13073 0.39301 0.86098 0.0
H236 H 0.16048 0.53576 0.80422 0.0
H237 H 0.2298 0.56718 0.78214 0.0
H238 H 0.2129 0.4496 0.76568 0.0
H239 H 0.14388 0.41865 0.78821 0.0
H240 H 0.08031 0.51878 0.7865 0.0
H241 H 0.10603 0.55216 0.73884 0.0
H242 H 0.08614 0.44159 0.69888 0.0
H243 H 0.06241 0.40866 0.74725 0.0
H244 H 0.97348 0.45028 0.82043 0.0
H245 H 0.89882 0.40754 0.80574 0.0
H246 H 0.92308 0.31926 0.76707 0.0
H247 H 0.99743 0.36164 0.78201 0.0
O248 O 0.09709 0.44361 0.00918 0.0
O249 O 0.07421 0.37904 0.99959 0.0
O250 O 0.29193 0.56634 0.75929 0.0
O251 O 0.28367 0.50652 0.74849 0.0
C252 C 0.03507 0.42245 0.84884 0.0
C253 C 0.07374 0.43214 0.86246 0.0
C254 C 0.1098 0.44792 0.84528 0.0
C255 C 0.10802 0.45648 0.81482 0.0
C256 C 0.06941 0.44712 0.80108 0.0
C257 C 0.03245 0.42819 0.81777 0.0
C258 C 0.99855 0.40902 0.86824 0.0
C259 C 0.99315 0.43819 0.88291 0.0
C260 C 0.96559 0.42763 0.90652 0.0
C261 C 0.94346 0.38784 0.91592 0.0
C262 C 0.94737 0.35822 0.90043 0.0
C263 C 0.97474 0.36877 0.87657 0.0
C264 C 0.07685 0.42691 0.89509 0.0
C265 C 0.09114 0.45985 0.91514 0.0
C266 C 0.0937 0.45501 0.94592 0.0
C267 C 0.08208 0.41712 0.95711 0.0
C268 C 0.06799 0.38421 0.9368 0.0
C269 C 0.06545 0.38912 0.90603 0.0
C270 C 0.14989 0.45584 0.85902 0.0
C271 C 0.18319 0.49551 0.86346 0.0
C272 C 0.22354 0.50321 0.86934 0.0
C273 C 0.23071 0.47129 0.87175 0.0
C274 C 0.19662 0.43157 0.87103 0.0
C275 C 0.15633 0.42384 0.86412 0.0
C276 C 0.14707 0.47495 0.7975 0.0
C277 C 0.17154 0.51685 0.79535 0.0
C278 C 0.21131 0.53472 0.78308 0.0
C279 C 0.2271 0.5109 0.77247 0.0
C280 C 0.20184 0.46882 0.77383 0.0
C281 C 0.16224 0.45103 0.7864 0.0
C282 C 0.06954 0.46132 0.77037 0.0
C283 C 0.07976 0.50122 0.76716 0.0
C284 C 0.09452 0.5203 0.74 0.0
C285 C 0.09839 0.49946 0.71547 0.0
C286 C 0.08323 0.4581 0.71756 0.0
C287 C 0.0696 0.43929 0.74509 0.0
C288 C 0.99075 0.40893 0.80241 0.0
C289 C 0.96293 0.42234 0.80796 0.0
C290 C 0.92051 0.39808 0.79954 0.0
C291 C 0.90567 0.36033 0.78539 0.0
C292 C 0.93411 0.34843 0.77775 0.0
C293 C 0.97644 0.37262 0.78622 0.0
C294 C 0.08422 0.41196 0.98986 0.0
C295 C 0.26954 0.52973 0.75975 0.0
H296 H 0.36763 0.92611 0.79626 0.0
H297 H 0.36253 0.74936 0.10047 0.0
H298 H 0.4086 0.03218 0.94645 0.0
H299 H 0.43691 0.08238 0.90701 0.0
H300 H 0.55856 0.09598 0.92081 0.0
H301 H 0.53042 0.04601 0.96001 0.0
H302 H 0.3568 0.93407 0.92671 0.0
H303 H 0.34867 0.92623 0.87198 0.0
H304 H 0.48136 0.97085 0.86575 0.0
H305 H 0.48896 0.97839 0.92043 0.0
H306 H 0.34257 0.8542 0.96419 0.0
H307 H 0.33858 0.79539 0.93815 0.0
H308 H 0.47338 0.86128 0.93211 0.0
H309 H 0.47734 0.91909 0.958 0.0
H310 H 0.34618 0.89752 0.04142 0.0
H311 H 0.31817 0.83895 0.07325 0.0
H312 H 0.42144 0.82342 0.0502 0.0
H313 H 0.44917 0.88209 0.01861 0.0
H314 H 0.40501 0.99521 0.06592 0.0
H315 H 0.40615 0.9866 0.12052 0.0
H316 H 0.48872 0.94063 0.10859 0.0
H317 H 0.48912 0.95095 0.05467 0.0
H318 H 0.45321 0.07026 0.02403 0.0
H319 H 0.51263 0.13497 0.04397 0.0
H320 H 0.5939 0.08667 0.03838 0.0
H321 H 0.53487 0.02234 0.01942 0.0
O322 O 0.37148 0.92925 0.81786 0.0
O323 O 0.43998 0.95288 0.81589 0.0
O324 O 0.31826 0.77948 0.09683 0.0
O325 O 0.37257 0.77223 0.08767 0.0
C326 C 0.44898 5e-05 0.97502 0.0
C327 C 0.42803 0.96161 0.96068 0.0
C328 C 0.41478 0.92708 0.9777 0.0
C329 C 0.41692 0.93034 0.00925 0.0
C330 C 0.4382 0.96883 0.0236 0.0
C331 C 0.45632 0.00362 0.00638 0.0
C332 C 0.46765 0.03598 0.95632 0.0
C333 C 0.44163 0.04692 0.94154 0.0
C334 C 0.45758 0.07515 0.919 0.0
C335 C 0.49956 0.09226 0.91094 0.0
C336 C 0.52605 0.08284 0.92677 0.0
C337 C 0.51017 0.05481 0.94933 0.0
C338 C 0.42353 0.95737 0.92744 0.0
C339 C 0.38405 0.94225 0.91344 0.0
C340 C 0.37952 0.93776 0.8822 0.0
C341 C 0.41441 0.94809 0.86447 0.0
C342 C 0.45388 0.96277 0.87871 0.0
C343 C 0.45836 0.96734 0.90991 0.0
C344 C 0.41021 0.89079 0.96266 0.0
C345 C 0.37105 0.85569 0.95721 0.0
C346 C 0.36882 0.82242 0.94246 0.0
C347 C 0.40575 0.82442 0.93319 0.0
C348 C 0.44466 0.85941 0.93902 0.0
C349 C 0.44687 0.89227 0.95367 0.0
C350 C 0.39929 0.89365 0.02735 0.0
C351 C 0.36246 0.88118 0.04307 0.0
C352 C 0.3466 0.84779 0.06127 0.0
C353 C 0.36754 0.82645 0.06423 0.0
C354 C 0.40448 0.83909 0.04839 0.0
C355 C 0.42023 0.87242 0.03013 0.0
C356 C 0.44585 0.97234 0.05646 0.0
C357 C 0.42443 0.98459 0.07532 0.0
C358 C 0.42523 0.9799 0.10632 0.0
C359 C 0.4467 0.96209 0.11824 0.0
C360 C 0.47159 0.95396 0.09964 0.0
C361 C 0.47152 0.95945 0.06894 0.0
C362 C 0.49004 0.04196 0.02015 0.0
C363 C 0.48374 0.07364 0.02757 0.0
C364 C 0.51735 0.11021 0.03902 0.0
C365 C 0.55747 0.11535 0.04244 0.0
C366 C 0.56317 0.08314 0.03589 0.0
C367 C 0.52965 0.04665 0.02501 0.0
C368 C 0.40957 0.94359 0.83129 0.0
C369 C 0.35116 0.79133 0.08389 0.0
H370 H 0.60822 0.52263 0.93555 0.0
H371 H 0.65098 0.43032 0.24777 0.0
H372 H 0.51261 0.56841 0.07815 0.0
H373 H 0.49884 0.58745 0.02927 0.0
H374 H 0.62026 0.69657 0.03458 0.0
H375 H 0.63497 0.67619 0.08301 0.0
H376 H 0.54827 0.51829 0.05666 0.0
H377 H 0.56183 0.51009 0.00427 0.0
H378 H 0.68506 0.61713 0.01427 0.0
H379 H 0.67067 0.62533 0.06648 0.0
H380 H 0.57143 0.47221 0.1051 0.0
H381 H 0.60788 0.43712 0.08966 0.0
H382 H 0.72601 0.54989 0.09394 0.0
H383 H 0.68976 0.58468 0.10974 0.0
H384 H 0.53552 0.47825 0.16286 0.0
H385 H 0.54036 0.43158 0.19644 0.0
H386 H 0.67241 0.51787 0.21219 0.0
H387 H 0.66675 0.56491 0.17932 0.0
H388 H 0.52055 0.5289 0.19268 0.0
H389 H 0.52768 0.5162 0.24429 0.0
H390 H 0.64818 0.62818 0.25025 0.0
H391 H 0.64179 0.63725 0.1979 0.0
H392 H 0.51348 0.60027 0.16433 0.0
H393 H 0.50849 0.65549 0.18779 0.0
H394 H 0.63557 0.74006 0.16342 0.0
H395 H 0.64059 0.68499 0.14007 0.0
O396 O 0.60342 0.52658 0.95626 0.0
O397 O 0.66661 0.58155 0.96263 0.0
O398 O 0.57842 0.41257 0.23524 0.0
O399 O 0.64811 0.4486 0.23489 0.0
C400 C 0.58726 0.60193 0.10729 0.0
C401 C 0.60087 0.57594 0.09733 0.0
C402 C 0.60721 0.55253 0.11794 0.0
C403 C 0.59728 0.55269 0.14814 0.0
C404 C 0.58553 0.57996 0.1586 0.0
C405 C 0.58211 0.6058 0.13831 0.0
C406 C 0.57461 0.62107 0.08432 0.0
C407 C 0.53565 0.59719 0.06938 0.0
C408 C 0.52797 0.60788 0.04136 0.0
C409 C 0.55885 0.64303 0.02802 0.0
C410 C 0.5962 0.66913 0.04438 0.0
C411 C 0.60436 0.65782 0.07217 0.0
C412 C 0.60834 0.5726 0.06513 0.0
C413 C 0.57797 0.54013 0.04734 0.0
C414 C 0.5859 0.53544 0.0175 0.0
C415 C 0.62456 0.56293 0.00508 0.0
C416 C 0.65498 0.59541 0.02313 0.0
C417 C 0.64678 0.60032 0.05287 0.0
C418 C 0.62813 0.53082 0.1084 0.0
C419 C 0.60514 0.48917 0.10274 0.0
C420 C 0.62579 0.46933 0.09397 0.0
C421 C 0.66945 0.49115 0.09073 0.0
C422 C 0.6923 0.53278 0.09638 0.0
C423 C 0.67173 0.5525 0.10527 0.0
C424 C 0.60068 0.525 0.16894 0.0
C425 C 0.56535 0.48715 0.17385 0.0
C426 C 0.56821 0.46058 0.19301 0.0
C427 C 0.60677 0.47106 0.20703 0.0
C428 C 0.64225 0.50895 0.2018 0.0
C429 C 0.63914 0.53584 0.18306 0.0
C430 C 0.58124 0.58319 0.19135 0.0
C431 C 0.54781 0.5513 0.20567 0.0
C432 C 0.55217 0.54431 0.23571 0.0
C433 C 0.58964 0.57001 0.25254 0.0
C434 C 0.61971 0.60587 0.2389 0.0
C435 C 0.61582 0.612 0.20856 0.0
C436 C 0.57708 0.63885 0.14998 0.0
C437 C 0.54003 0.63076 0.1638 0.0
C438 C 0.53736 0.66204 0.17738 0.0
C439 C 0.57179 0.7016 0.17741 0.0
C440 C 0.60883 0.70964 0.16365 0.0
C441 C 0.61144 0.67843 0.15002 0.0
C442 C 0.63297 0.55772 0.97342 0.0
C443 C 0.61008 0.4423 0.22663 0.0
Mg444 Mg 0.64826 0.42403 0.3436 0.0
O445 O 0.64806 0.46066 0.38422 0.0
O446 O 0.69092 0.52605 0.37547 0.0
Mg447 Mg 0.71903 0.53091 0.32947 0.0
C448 C 0.66487 0.49776 0.39177 0.0
C449 C 0.59156 0.33326 0.36148 0.0
O450 O 0.57656 0.32928 0.33395 0.0
O451 O 0.71328 0.43541 0.35529 0.0
O452 O 0.75502 0.49968 0.34328 0.0
O453 O 0.5962 0.42954 0.32323 0.0
O454 O 0.66249 0.47252 0.31645 0.0
C455 C 0.74961 0.46632 0.35225 0.0
C456 C 0.62418 0.46275 0.31158 0.0
O457 O 0.61951 0.36779 0.37173 0.0
Mg458 Mg 0.27059 0.64163 0.58884 0.0
O459 O 0.22505 0.60915 0.54831 0.0
O460 O 0.20061 0.54333 0.55274 0.0
Mg461 Mg 0.22707 0.53323 0.59636 0.0
C462 C 0.20207 0.57256 0.53895 0.0
C463 C 0.32109 0.73412 0.58417 0.0
O464 O 0.3189 0.72929 0.61331 0.0
O465 O 0.32095 0.6306 0.5703 0.0
O466 O 0.29533 0.56589 0.58051 0.0
O467 O 0.21712 0.63506 0.61691 0.0
O468 O 0.23678 0.59058 0.61383 0.0
C469 C 0.32472 0.59979 0.57165 0.0
C470 C 0.21173 0.60074 0.62459 0.0
O471 O 0.30191 0.70319 0.56674 0.0
Mg472 Mg 0.6353 0.24039 0.77612 0.0
O473 O 0.61371 0.19051 0.73986 0.0
O474 O 0.62336 0.14242 0.75781 0.0
Mg475 Mg 0.6476 0.16058 0.80672 0.0
C476 C 0.61169 0.15682 0.73688 0.0
C477 C 0.61902 0.30217 0.74945 0.0
O478 O 0.60175 0.29599 0.7758 0.0
O479 O 0.70387 0.26186 0.76955 0.0
O480 O 0.71086 0.21477 0.79259 0.0
O481 O 0.57119 0.21107 0.79463 0.0
O482 O 0.62115 0.19992 0.80987 0.0
C483 C 0.72639 0.24828 0.77938 0.0
C484 C 0.58339 0.19246 0.81198 0.0
O485 O 0.63668 0.28302 0.74171 0.0
Mg486 Mg 0.46331 0.65436 0.8489 0.0
O487 O 0.50164 0.66046 0.89125 0.0
O488 O 0.51797 0.61279 0.88739 0.0
Mg489 Mg 0.50191 0.5859 0.83928 0.0
C490 C 0.51667 0.6404 0.90241 0.0
C491 C 0.44473 0.7208 0.86778 0.0
O492 O 0.47037 0.73906 0.84586 0.0
O493 O 0.41113 0.59399 0.86329 0.0
O494 O 0.43242 0.55097 0.8518 0.0
O495 O 0.51934 0.70154 0.82541 0.0
O496 O 0.49666 0.63675 0.82288 0.0
C497 C 0.40477 0.55851 0.86094 0.0
C498 C 0.52301 0.67249 0.81439 0.0
O499 O 0.43503 0.68539 0.87409 0.0
Mg500 Mg 0.783 0.34917 0.05117 0.0
O501 O 0.81822 0.35993 0.09605 0.0
O502 O 0.8368 0.31389 0.09894 0.0
Mg503 Mg 0.81996 0.27946 0.05328 0.0
C504 C 0.83473 0.34317 0.11028 0.0
C505 C 0.75837 0.41315 0.05371 0.0
O506 O 0.77995 0.42301 0.02907 0.0
O507 O 0.72682 0.29145 0.06596 0.0
O508 O 0.74845 0.24775 0.05984 0.0
O509 O 0.84132 0.39306 0.02887 0.0
O510 O 0.81716 0.32776 0.02944 0.0
C511 C 0.71979 0.2557 0.06502 0.0
C512 C 0.84496 0.36287 0.0207 0.0
O513 O 0.75483 0.38432 0.06889 0.0
Mg514 Mg 0.447 0.8133 0.23595 0.0
O515 O 0.4675 0.84243 0.28282 0.0
O516 O 0.52638 0.90153 0.27731 0.0
Mg517 Mg 0.54332 0.90836 0.22764 0.0
C518 C 0.49762 0.87562 0.29361 0.0
C519 C 0.3737 0.7304 0.2358 0.0
O520 O 0.37733 0.74161 0.20785 0.0
O521 O 0.49592 0.79614 0.23356 0.0
O522 O 0.55412 0.85471 0.2245 0.0
O523 O 0.41143 0.84382 0.23003 0.0
O524 O 0.47621 0.86794 0.21442 0.0
C525 C 0.53441 0.81651 0.2269 0.0
C526 C 0.44354 0.8712 0.21612 0.0
O527 O 0.40064 0.75409 0.25544 0.0
C528 C 0.27394 0.6573 0.27484 0.0
C529 C 0.25928 0.62247 0.25609 0.0
C530 C 0.32471 0.65611 0.22886 0.0
C531 C 0.33604 0.69269 0.24445 0.0
N532 N 0.31713 0.72955 0.27862 0.0
N533 N 0.26854 0.58925 0.21335 0.0
C534 C 0.30979 0.69371 0.26672 0.0
C535 C 0.28419 0.62183 0.23266 0.0
N536 N 0.25363 0.65552 0.30052 0.0
N537 N 0.35305 0.65394 0.21104 0.0
H538 H 0.23907 0.56352 0.21562 0.0
H539 H 0.28341 0.58891 0.19386 0.0
H540 H 0.38335 0.67828 0.20832 0.0
H541 H 0.34799 0.62715 0.20134 0.0
H542 H 0.26556 0.67881 0.31666 0.0
H543 H 0.22696 0.62931 0.30706 0.0
H544 H 0.29615 0.73187 0.29246 0.0
H545 H 0.34176 0.75743 0.27237 0.0
C546 C 0.56891 0.23059 0.38614 0.0
C547 C 0.55653 0.23067 0.41604 0.0
C548 C 0.56171 0.29549 0.40871 0.0
C549 C 0.57833 0.29739 0.37992 0.0
N550 N 0.60533 0.27024 0.34353 0.0
N551 N 0.54628 0.26504 0.45749 0.0
C552 C 0.58379 0.26578 0.36914 0.0
C553 C 0.55435 0.26366 0.42783 0.0
N554 N 0.56578 0.19662 0.37382 0.0
N555 N 0.55146 0.32322 0.41733 0.0
H556 H 0.54004 0.24194 0.47202 0.0
H557 H 0.54895 0.2903 0.46825 0.0
H558 H 0.55561 0.3465 0.40373 0.0
H559 H 0.53532 0.32111 0.43673 0.0
H560 H 0.56986 0.19326 0.35113 0.0
H561 H 0.55553 0.17038 0.38568 0.0
H562 H 0.61422 0.2501 0.33642 0.0
H563 H 0.61801 0.296 0.33081 0.0
C564 C 0.40819 0.5784 0.54627 0.0
C565 C 0.43856 0.59766 0.56998 0.0
C566 C 0.39801 0.62527 0.59128 0.0
C567 C 0.36676 0.60475 0.56819 0.0
N568 N 0.34584 0.56969 0.52033 0.0
N569 N 0.46808 0.64696 0.61063 0.0
C570 C 0.3732 0.58391 0.5445 0.0
C571 C 0.43547 0.62391 0.59084 0.0
N572 N 0.41219 0.55369 0.52618 0.0
N573 N 0.39056 0.64349 0.6149 0.0
H574 H 0.49529 0.64559 0.61175 0.0
H575 H 0.46985 0.66988 0.62422 0.0
H576 H 0.3639 0.64568 0.61621 0.0
H577 H 0.4094 0.65422 0.63434 0.0
H578 H 0.389 0.53496 0.51043 0.0
H579 H 0.4386 0.55088 0.52601 0.0
H580 H 0.35018 0.55697 0.50104 0.0
H581 H 0.32022 0.57368 0.51861 0.0
C582 C 0.83795 0.3212 0.75502 0.0
C583 C 0.85995 0.33072 0.78308 0.0
C584 C 0.79431 0.28802 0.80847 0.0
C585 C 0.77257 0.27556 0.78021 0.0
N586 N 0.77427 0.27545 0.72622 0.0
N587 N 0.86081 0.31601 0.83539 0.0
C588 C 0.79456 0.29083 0.75331 0.0
C589 C 0.83865 0.3119 0.80946 0.0
N590 N 0.85827 0.34186 0.73026 0.0
N591 N 0.77262 0.27917 0.83447 0.0
H592 H 0.89346 0.33335 0.83724 0.0
H593 H 0.84703 0.29914 0.85425 0.0
H594 H 0.73997 0.26317 0.83506 0.0
H595 H 0.78697 0.29138 0.85537 0.0
H596 H 0.84306 0.33935 0.70983 0.0
H597 H 0.89011 0.36387 0.73077 0.0
H598 H 0.78942 0.28242 0.70585 0.0
H599 H 0.74265 0.25299 0.72428 0.0
C600 C 0.39906 0.78593 0.88571 0.0
C601 C 0.40517 0.79042 0.9173 0.0
C602 C 0.43439 0.7467 0.91698 0.0
C603 C 0.4279 0.74177 0.88531 0.0
N604 N 0.39356 0.7472 0.84087 0.0
N605 N 0.41767 0.76738 0.96379 0.0
C606 C 0.40689 0.75843 0.87007 0.0
C607 C 0.41893 0.76791 0.93318 0.0
N608 N 0.38774 0.80931 0.87054 0.0
N609 N 0.45785 0.73381 0.93137 0.0
H610 H 0.40664 0.78296 0.97614 0.0
H611 H 0.42358 0.74859 0.97659 0.0
H612 H 0.47128 0.71947 0.9204 0.0
H613 H 0.4673 0.7405 0.95387 0.0
H614 H 0.38796 0.81104 0.84726 0.0
H615 H 0.38051 0.82893 0.88133 0.0
H616 H 0.37464 0.75543 0.82946 0.0
H617 H 0.39788 0.72633 0.82895 0.0
C618 C 0.71707 0.46536 0.10247 0.0
C619 C 0.69162 0.47057 0.08129 0.0
C620 C 0.70707 0.43505 0.04268 0.0
C621 C 0.73613 0.43374 0.06294 0.0
N622 N 0.77475 0.45431 0.11035 0.0
N623 N 0.66807 0.46718 0.03001 0.0
C624 C 0.74278 0.45068 0.09241 0.0
C625 C 0.68826 0.45742 0.05099 0.0
N626 N 0.71589 0.4735 0.13228 0.0
N627 N 0.6957 0.41327 0.01619 0.0
H628 H 0.65371 0.48347 0.03523 0.0
H629 H 0.66872 0.46217 0.00705 0.0
H630 H 0.7075 0.39521 0.00961 0.0
H631 H 0.67141 0.40986 0.00213 0.0
H632 H 0.73038 0.46623 0.14908 0.0
H633 H 0.69727 0.48421 0.14051 0.0
H634 H 0.78368 0.4701 0.13087 0.0
H635 H 0.79511 0.44496 0.10349 0.0
C636 C 0.36207 0.82935 0.53861 0.0
C637 C 0.4017 0.85482 0.55324 0.0
C638 C 0.39117 0.79846 0.58354 0.0
C639 C 0.34914 0.7749 0.57219 0.0
N640 N 0.29248 0.77048 0.54189 0.0
N641 N 0.45099 0.86536 0.5933 0.0
C642 C 0.33401 0.79092 0.55037 0.0
C643 C 0.41548 0.83985 0.57672 0.0
N644 N 0.35166 0.8414 0.51298 0.0
N645 N 0.40865 0.78095 0.59975 0.0
H646 H 0.46943 0.89602 0.58935 0.0
H647 H 0.45994 0.85683 0.61272 0.0
H648 H 0.39275 0.75028 0.60395 0.0
H649 H 0.44035 0.79587 0.60607 0.0
H650 H 0.32509 0.82249 0.49969 0.0
H651 H 0.37166 0.86898 0.50338 0.0
H652 H 0.27895 0.78275 0.52852 0.0
H653 H 0.27066 0.74274 0.55041 0.0
C654 C 0.60252 0.3517 0.68202 0.0
C655 C 0.61324 0.38935 0.69529 0.0
C656 C 0.63601 0.3724 0.74151 0.0
C657 C 0.61949 0.33266 0.72986 0.0
N658 N 0.58228 0.28263 0.69021 0.0
N659 N 0.6354 0.43425 0.73878 0.0
C660 C 0.60182 0.32181 0.70028 0.0
C661 C 0.62888 0.39949 0.72532 0.0
N662 N 0.59345 0.34476 0.65191 0.0
N663 N 0.65978 0.3847 0.76753 0.0
H664 H 0.63086 0.45516 0.72765 0.0
H665 H 0.64208 0.44084 0.76166 0.0
H666 H 0.66687 0.36606 0.77956 0.0
H667 H 0.67606 0.41445 0.7755 0.0
H668 H 0.58976 0.31954 0.64038 0.0
H669 H 0.59344 0.36602 0.63792 0.0
H670 H 0.56493 0.27232 0.67009 0.0
H671 H 0.58023 0.25954 0.70304 0.0
C672 C 0.29175 0.47893 0.84393 0.0
C673 C 0.27457 0.48057 0.8717 0.0
C674 C 0.34508 0.52001 0.89459 0.0
C675 C 0.36177 0.52505 0.86561 0.0
N676 N 0.35217 0.50965 0.81234 0.0
N677 N 0.28318 0.49864 0.92426 0.0
C678 C 0.3356 0.50368 0.84027 0.0
C679 C 0.30083 0.4993 0.89748 0.0
N680 N 0.26606 0.45462 0.82084 0.0
N681 N 0.3718 0.5354 0.91908 0.0
H682 H 0.25081 0.48182 0.9271 0.0
H683 H 0.30014 0.51534 0.94332 0.0
H684 H 0.40434 0.5503 0.91721 0.0
H685 H 0.36208 0.53079 0.94114 0.0
H686 H 0.277 0.44899 0.80112 0.0
H687 H 0.2336 0.43708 0.82223 0.0
H688 H 0.33416 0.49932 0.79253 0.0
H689 H 0.3842 0.52702 0.80857 0.0
C690 C 0.61392 0.16267 0.0794 0.0
C691 C 0.59498 0.15511 0.05023 0.0
C692 C 0.65661 0.21525 0.03186 0.0
C693 C 0.67574 0.2227 0.06097 0.0
N694 N 0.67132 0.20873 0.11349 0.0
N695 N 0.59408 0.17721 1.00013 0.0
C696 C 0.65389 0.19801 0.08515 0.0
C697 C 0.61491 0.1826 0.02699 0.0
N698 N 0.59406 0.13535 0.10122 0.0
N699 N 0.67922 0.23815 0.00846 0.0
H700 H 0.56438 0.15249 0.99496 0.0
H701 H 0.60472 0.1986 0.98359 0.0
H702 H 0.70957 0.26303 0.01097 0.0
H703 H 0.66925 0.23119 0.98607 0.0
H704 H 0.60783 0.13638 0.12196 0.0
H705 H 0.56385 0.11039 0.0981 0.0
H706 H 0.65578 0.19418 0.13268 0.0
H707 H 0.70076 0.23425 0.11806 0.0
C708 C 0.57081 0.74147 0.22202 0.0
C709 C 0.56816 0.73499 0.19045 0.0
C710 C 0.556 0.79059 0.18349 0.0
C711 C 0.55311 0.79358 0.21512 0.0
N712 N 0.55653 0.77189 0.26472 0.0
N713 N 0.55461 0.75028 0.14089 0.0
C714 C 0.56048 0.76917 0.23449 0.0
C715 C 0.56039 0.7591 0.17108 0.0
N716 N 0.58377 0.72149 0.23993 0.0
N717 N 0.55376 0.81733 0.16515 0.0
H718 H 0.55786 0.72768 0.13076 0.0
H719 H 0.54342 0.76315 0.12599 0.0
H720 H 0.54763 0.83925 0.17263 0.0
H721 H 0.56112 0.81987 0.14256 0.0
H722 H 0.59017 0.72743 0.26285 0.0
H723 H 0.59126 0.70084 0.23141 0.0
H724 H 0.55647 0.75183 0.2799 0.0
H725 H 0.55147 0.79355 0.27457 0.0
C726 C 0.84609 0.46437 0.37956 0.0
C727 C 0.86013 0.4576 0.35187 0.0
C728 C 0.80041 0.45441 0.32504 0.0
C729 C 0.78627 0.46106 0.35273 0.0
N730 N 0.79065 0.46597 0.40664 0.0
N731 N 0.84799 0.43978 0.29902 0.0
C732 C 0.80755 0.46394 0.38015 0.0
C733 C 0.83631 0.45049 0.32485 0.0
N734 N 0.87031 0.47229 0.40505 0.0
N735 N 0.78012 0.45304 0.29876 0.0
H736 H 0.87502 0.43823 0.29759 0.0
H737 H 0.8296 0.42966 0.27938 0.0
H738 H 0.75232 0.45344 0.29791 0.0
H739 H 0.79176 0.45367 0.27759 0.0
H740 H 0.86462 0.48186 0.42539 0.0
H741 H 0.89763 0.47102 0.40553 0.0
H742 H 0.80223 0.46441 0.42763 0.0
H743 H 0.76301 0.4666 0.4076 0.0
C744 C 0.16377 0.57183 0.45886 0.0
C745 C 0.12051 0.54176 0.4603 0.0
C746 C 0.12983 0.53741 0.51451 0.0
C747 C 0.17397 0.56314 0.51204 0.0
N748 N 0.23368 0.60045 0.4809 0.0
N749 N 0.06222 0.49452 0.48923 0.0
C750 C 0.19113 0.5795 0.48402 0.0
C751 C 0.10351 0.52417 0.48811 0.0
N752 N 0.17886 0.59347 0.43356 0.0
N753 N 0.11285 0.52692 0.54222 0.0
H754 H 0.04132 0.48616 0.4709 0.0
H755 H 0.04915 0.47681 0.50781 0.0
H756 H 0.1309 0.53637 0.56208 0.0
H757 H 0.08074 0.51189 0.5458 0.0
H758 H 0.20871 0.61897 0.43258 0.0
H759 H 0.1604 0.58837 0.41437 0.0
H760 H 0.24792 0.60897 0.46024 0.0
H761 H 0.25488 0.60616 0.49858 0.0
C762 C 0.54437 0.07433 0.67797 0.0
C763 C 0.56246 0.09488 0.6513 0.0
C764 C 0.6169 0.15267 0.68113 0.0
C765 C 0.59593 0.13419 0.70772 0.0
N766 N 0.53701 0.07906 0.73156 0.0
N767 N 0.61288 0.15556 0.62712 0.0
C768 C 0.55908 0.09526 0.70623 0.0
C769 C 0.598 0.13455 0.65278 0.0
N770 N 0.51366 0.03457 0.67627 0.0
N771 N 0.65573 0.18687 0.68301 0.0
H772 H 0.60068 0.14316 0.60582 0.0
H773 H 0.63516 0.18618 0.62704 0.0
H774 H 0.67098 0.2006 0.7034 0.0
H775 H 0.67458 0.19942 0.66459 0.0
H776 H 0.50222 0.01664 0.69492 0.0
H777 H 0.50201 0.01853 0.65592 0.0
H778 H 0.50739 0.0531 0.73139 0.0
H779 H 0.54682 0.0931 0.75269 0.0
C780 C 0.55016 0.67893 0.73429 0.0
C781 C 0.56424 0.65134 0.73368 0.0
C782 C 0.57022 0.6545 0.78861 0.0
C783 C 0.55087 0.67771 0.78912 0.0
N784 N 0.54134 0.72692 0.76378 0.0
N785 N 0.59782 0.62057 0.75892 0.0
C786 C 0.54715 0.695 0.76237 0.0
C787 C 0.57808 0.64199 0.76052 0.0
N788 N 0.53792 0.68831 0.70816 0.0
N789 N 0.57991 0.64391 0.81524 0.0
H790 H 0.60368 0.61099 0.73858 0.0
H791 H 0.61047 0.61399 0.77731 0.0
H792 H 0.57681 0.65544 0.83573 0.0
H793 H 0.59074 0.62416 0.81732 0.0
H794 H 0.52235 0.70415 0.70738 0.0
H795 H 0.54133 0.67829 0.68714 0.0
H796 H 0.54111 0.74241 0.74504 0.0
H797 H 0.54249 0.74145 0.7839 0.0
C798 C 0.93628 0.38307 0.97184 0.0
C799 C 0.91741 0.37787 0.94284 0.0
C800 C 0.85113 0.36196 0.96517 0.0
C801 C 0.86972 0.36632 0.99417 0.0
N802 N 0.92672 0.37429 0.0256 0.0
N803 N 0.85597 0.35639 0.91127 0.0
C804 C 0.91138 0.37482 0.99766 0.0
C805 C 0.87446 0.36538 0.93934 0.0
N806 N 0.97825 0.3969 0.97459 0.0
N807 N 0.81155 0.35586 0.96237 0.0
H808 H 0.87255 0.3601 0.89177 0.0
H809 H 0.82378 0.34263 0.90722 0.0
H810 H 0.79261 0.35159 0.98059 0.0
H811 H 0.79815 0.35738 0.94216 0.0
H812 H 0.99511 0.40565 0.99492 0.0
H813 H 0.99699 0.40179 0.95614 0.0
H814 H 0.95544 0.37647 0.02959 0.0
H815 H 0.90915 0.36867 0.04484 0.0
C816 C 0.46988 0.96292 0.17136 0.0
C817 C 0.43825 0.94501 0.14846 0.0
C818 C 0.40693 0.88016 0.1722 0.0
C819 C 0.43855 0.89774 0.19536 0.0
N820 N 0.49464 0.95701 0.22063 0.0
N821 N 0.36954 0.89085 0.13227 0.0
C822 C 0.46819 0.93968 0.19621 0.0
C823 C 0.40402 0.90527 0.15101 0.0
N824 N 0.50234 0.00152 0.16851 0.0
N825 N 0.38246 0.83926 0.16829 0.0
H826 H 0.36662 0.90792 0.11575 0.0
H827 H 0.34204 0.86334 0.13517 0.0
H828 H 0.38501 0.8188 0.18153 0.0
H829 H 0.36255 0.82531 0.14965 0.0
H830 H 0.5291 0.01507 0.18244 0.0
H831 H 0.5029 0.01955 0.15122 0.0
H832 H 0.51463 0.98791 0.22382 0.0
H833 H 0.49417 0.94047 0.23893 0.0
C834 C 0.56791 0.52024 0.29398 0.0
C835 C 0.60023 0.55437 0.28018 0.0
C836 C 0.64688 0.52872 0.2866 0.0
C837 C 0.6138 0.49191 0.29777 0.0
N838 N 0.53821 0.4499 0.30341 0.0
N839 N 0.67415 0.5997 0.28873 0.0
C840 C 0.57298 0.48696 0.29978 0.0
C841 C 0.64113 0.56159 0.2839 0.0
N842 N 0.53255 0.52021 0.30151 0.0
N843 N 0.68286 0.53217 0.27629 0.0
H844 H 0.6694 0.62348 0.29328 0.0
H845 H 0.70453 0.60586 0.2933 0.0
H846 H 0.68685 0.50775 0.27325 0.0
H847 H 0.70612 0.55845 0.26668 0.0
H848 H 0.50901 0.49807 0.31426 0.0
H849 H 0.52947 0.54495 0.29728 0.0
H850 H 0.50788 0.44484 0.30332 0.0
H851 H 0.5383 0.42328 0.30123 0.0
C852 C 0.48066 0.93293 0.3556 0.0
C853 C 0.49064 0.91862 0.38161 0.0
C854 C 0.50631 0.87583 0.34989 0.0
C855 C 0.49376 0.88848 0.32422 0.0
N856 N 0.4589 0.92082 0.30325 0.0
N857 N 0.50698 0.87234 0.40429 0.0
C858 C 0.47784 0.9145 0.32729 0.0
C859 C 0.50172 0.88877 0.37899 0.0
N860 N 0.47588 0.96549 0.35766 0.0
N861 N 0.52348 0.85234 0.34634 0.0
H862 H 0.5038 0.88127 0.4258 0.0
H863 H 0.51125 0.8479 0.40401 0.0
H864 H 0.52623 0.84174 0.32535 0.0
H865 H 0.53729 0.84542 0.36384 0.0
H866 H 0.47347 0.98004 0.33903 0.0
H867 H 0.47829 0.98044 0.37788 0.0
H868 H 0.44282 0.93612 0.30494 0.0
H869 H 0.45542 0.90724 0.28217 0.0
C870 C 0.60132 0.52567 0.44168 0.0
C871 C 0.6172 0.52421 0.47044 0.0
C872 C 0.66456 0.50545 0.44754 0.0
C873 C 0.6498 0.50833 0.41882 0.0
N874 N 0.60803 0.52539 0.38758 0.0
N875 N 0.66885 0.51982 0.50092 0.0
C876 C 0.61942 0.51987 0.41561 0.0
C877 C 0.65037 0.51629 0.47341 0.0
N878 N 0.56834 0.53177 0.43941 0.0
N879 N 0.69141 0.49139 0.45009 0.0
H880 H 0.65894 0.52678 0.52057 0.0
H881 H 0.69614 0.519 0.50414 0.0
H882 H 0.70393 0.48489 0.43158 0.0
H883 H 0.6992 0.48363 0.47034 0.0
H884 H 0.55181 0.52848 0.41949 0.0
H885 H 0.55592 0.53832 0.45795 0.0
H886 H 0.5896 0.53791 0.38362 0.0
H887 H 0.619 0.51959 0.3679 0.0
C888 C 0.11036 0.53744 0.66743 0.0
C889 C 0.12554 0.52289 0.69038 0.0
C890 C 0.19694 0.56421 0.67241 0.0
C891 C 0.1815 0.57564 0.64762 0.0
N892 N 0.12267 0.5694 0.61921 0.0
N893 N 0.1821 0.51617 0.71075 0.0
C894 C 0.13792 0.56139 0.6445 0.0
C895 C 0.16837 0.53419 0.69151 0.0
N896 N 0.06979 0.52861 0.66772 0.0
N897 N 0.23911 0.5839 0.67898 0.0
H898 H 0.16313 0.49535 0.72634 0.0
H899 H 0.21151 0.51925 0.70922 0.0
H900 H 0.26133 0.60788 0.66672 0.0
H901 H 0.25169 0.57967 0.69863 0.0
H902 H 0.05798 0.54183 0.65371 0.0
H903 H 0.04843 0.50958 0.68329 0.0
H904 H 0.0908 0.55634 0.61406 0.0
H905 H 0.14191 0.58689 0.60215 0.0
C906 C 0.54428 0.16058 0.89048 0.0
C907 C 0.51597 0.11893 0.88508 0.0
C908 C 0.52474 0.12781 0.83084 0.0
C909 C 0.55732 0.16806 0.83662 0.0
N910 N 0.5994 0.22361 0.87138 0.0
N911 N 0.48073 0.06152 0.85075 0.0
C912 C 0.5673 0.18479 0.8663 0.0
C913 C 0.50614 0.10216 0.85537 0.0
N914 N 0.54844 0.17695 0.91866 0.0
N915 N 0.51164 0.11425 0.80193 0.0
H916 H 0.46597 0.04181 0.86808 0.0
H917 H 0.47634 0.0469 0.83004 0.0
H918 H 0.52511 0.13237 0.78355 0.0
H919 H 0.48537 0.08635 0.79623 0.0
H920 H 0.56549 0.2077 0.92366 0.0
H921 H 0.53183 0.1599 0.93682 0.0
H922 H 0.6118 0.23601 0.89262 0.0
H923 H 0.61528 0.24316 0.85415 0.0
C924 C 0.57813 0.64786 0.97342 0.0
C925 C 0.5527 0.64994 0.99601 0.0
C926 C 0.50375 0.64687 0.95719 0.0
C927 C 0.5306 0.64739 0.93456 0.0
N928 N 0.599 0.66009 0.92171 0.0
N929 N 0.49809 0.66281 0.00902 0.0
C930 C 0.56964 0.65166 0.94288 0.0
C931 C 0.51782 0.65337 0.9877 0.0
N932 N 0.6088 0.63986 0.98072 0.0
N933 N 0.4637 0.63726 0.95005 0.0
H934 H 0.50802 0.66818 0.03154 0.0
H935 H 0.47494 0.66941 0.00383 0.0
H936 H 0.45069 0.62979 0.92837 0.0
H937 H 0.44175 0.63246 0.96617 0.0
H938 H 0.62487 0.63354 0.96474 0.0
H939 H 0.61568 0.63592 0.00262 0.0
H940 H 0.62948 0.66719 0.92703 0.0
H941 H 0.59436 0.66432 0.89926 0.0
C942 C 0.91475 0.41459 0.16948 0.0
C943 C 0.89623 0.39423 0.19626 0.0
C944 C 0.83499 0.34228 0.16674 0.0
C945 C 0.85545 0.3607 0.13996 0.0
N946 N 0.91644 0.41154 0.11517 0.0
N947 N 0.83994 0.33799 0.22086 0.0
C948 C 0.89568 0.39623 0.14117 0.0
C949 C 0.85658 0.35786 0.19501 0.0
N950 N 0.95045 0.45176 0.17109 0.0
N951 N 0.79454 0.31053 0.1651 0.0
H952 H 0.85363 0.34979 0.24202 0.0
H953 H 0.81374 0.30911 0.22139 0.0
H954 H 0.77822 0.29812 0.14476 0.0
H955 H 0.77607 0.29812 0.18369 0.0
H956 H 0.96291 0.47018 0.1528 0.0
H957 H 0.96607 0.46588 0.19121 0.0
H958 H 0.94786 0.43422 0.11452 0.0
H959 H 0.90323 0.39954 0.09395 0.0
loop_
_geom_bond_atom_site_label_1
_geom_bond_atom_site_label_2
_geom_bond_distance
_geom_bond_site_symmetry_2
_ccdc_geom_bond_type
H0 O26 0.856 . S
H1 O29 0.854 . S
H2 C37 0.930 1_455 S
H3 C38 0.930 . S
H4 C40 0.930 . S
H5 C41 0.930 . S
H6 C43 0.931 . S
H7 C44 0.930 . S
H8 C46 0.930 . S
H9 C47 0.929 . S
H10 C49 0.930 . S
H11 C50 0.931 . S
H12 C52 0.930 . S
H13 C53 0.929 . S
H14 C55 0.931 . S
H15 C56 0.930 . S
H16 C58 0.930 . S
H17 C59 0.932 . S
H18 C61 0.930 . S
H19 C62 0.929 . S
H20 C64 0.931 . S
H21 C65 0.930 . S
H22 C67 0.929 . S
H23 C68 0.931 . S
H24 C70 0.930 . S
H25 C71 0.929 . S
O26 H0 0.856 . S
O26 C72 1.300 . S
O27 C72 1.209 . S
O28 C73 1.199 . S
O29 H1 0.854 . S
O29 C73 1.297 . S
C30 C31 1.404 . S
C30 C35 1.397 . S
C30 C36 1.487 1_455 S
C31 C30 1.404 . S
C31 C32 1.396 . S
C31 C42 1.492 . S
C32 C31 1.396 . S
C32 C33 1.397 . S
C32 C48 1.509 . S
C33 C32 1.397 . S
C33 C34 1.412 . S
C33 C54 1.485 . S
C34 C33 1.412 . S
C34 C35 1.388 . S
C34 C60 1.490 . S
C35 C30 1.397 . S
C35 C34 1.388 . S
C35 C66 1.519 1_455 S
C36 C30 1.487 1_655 S
C36 C37 1.361 . S
C36 C41 1.397 . S
C37 H2 0.930 1_655 S
C37 C36 1.361 . S
C37 C38 1.372 . S
C38 H3 0.930 . S
C38 C37 1.372 . S
C38 C39 1.383 . S
C39 C38 1.383 . S
C39 C40 1.395 . S
C40 H4 0.930 . S
C40 C39 1.395 . S
C40 C41 1.362 . S
C41 H5 0.930 . S
C41 C36 1.397 . S
C41 C40 1.362 . S
C42 C31 1.492 . S
C42 C43 1.377 . S
C42 C47 1.397 . S
C43 H6 0.931 . S
C43 C42 1.377 . S
C43 C44 1.376 . S
C44 H7 0.930 . S
C44 C43 1.376 . S
C44 C45 1.376 . S
C45 C44 1.376 . S
C45 C46 1.378 . S
C45 C72 1.486 . S
C46 H8 0.930 . S
C46 C45 1.378 . S
C46 C47 1.376 . S
C47 H9 0.929 . S
C47 C42 1.397 . S
C47 C46 1.376 . S
C48 C32 1.509 . S
C48 C49 1.391 . S
C48 C53 1.386 . S
C49 H10 0.930 . S
C49 C48 1.391 . S
C49 C50 1.375 . S
C50 H11 0.931 . S
C50 C49 1.375 . S
C50 C51 1.375 . S
C51 C50 1.375 . S
C51 C52 1.361 . S
C52 H12 0.930 . S
C52 C51 1.361 . S
C52 C53 1.399 . S
C53 H13 0.929 . S
C53 C48 1.386 . S
C53 C52 1.399 . S
C54 C33 1.485 . S
C54 C55 1.394 . S
C54 C59 1.360 . S
C55 H14 0.931 . S
C55 C54 1.394 . S
C55 C56 1.372 . S
C56 H15 0.930 . S
C56 C55 1.372 . S
C56 C57 1.397 . S
C57 C56 1.397 . S
C57 C58 1.390 . S
C57 C73 1.476 . S
C58 H16 0.930 . S
C58 C57 1.390 . S
C58 C59 1.366 . S
C59 H17 0.932 . S
C59 C54 1.360 . S
C59 C58 1.366 . S
C60 C34 1.490 . S
C60 C61 1.380 . S
C60 C65 1.386 . S
C61 H18 0.930 . S
C61 C60 1.380 . S
C61 C62 1.381 . S
C62 H19 0.929 . S
C62 C61 1.381 . S
C62 C63 1.371 . S
C63 C62 1.371 . S
C63 C64 1.380 . S
C64 H20 0.931 . S
C64 C63 1.380 . S
C64 C65 1.387 . S
C65 H21 0.930 . S
C65 C60 1.386 . S
C65 C64 1.387 . S
C66 C35 1.519 1_655 S
C66 C67 1.377 . S
C66 C71 1.361 . S
C67 H22 0.929 . S
C67 C66 1.377 . S
C67 C68 1.386 . S
C68 H23 0.931 . S
C68 C67 1.386 . S
C68 C69 1.363 . S
C69 C68 1.363 . S
C69 C70 1.385 . S
C70 H24 0.930 . S
C70 C69 1.385 . S
C70 C71 1.396 . S
C71 H25 0.929 . S
C71 C66 1.361 . S
C71 C70 1.396 . S
C72 O26 1.300 . S
C72 O27 1.209 . S
C72 C45 1.486 . S
C73 O28 1.199 . S
C73 O29 1.297 . S
C73 C57 1.476 . S
H74 O100 0.856 . S
H75 O103 0.854 . S
H76 C111 0.930 1_545 S
H77 C112 0.930 . S
H78 C114 0.930 . S
H79 C115 0.930 . S
H80 C117 0.931 . S
H81 C118 0.930 . S
H82 C120 0.930 . S
H83 C121 0.929 . S
H84 C123 0.930 . S
H85 C124 0.931 . S
H86 C126 0.930 . S
H87 C127 0.929 . S
H88 C129 0.931 . S
H89 C130 0.930 . S
H90 C132 0.930 . S
H91 C133 0.932 . S
H92 C135 0.930 . S
H93 C136 0.929 . S
H94 C138 0.931 . S
H95 C139 0.930 . S
H96 C141 0.929 . S
H97 C142 0.931 . S
H98 C144 0.930 . S
H99 C145 0.929 . S
O100 H74 0.856 . S
O100 C146 1.300 . S
O101 C146 1.209 . S
O102 C147 1.199 . S
O103 H75 0.854 . S
O103 C147 1.297 . S
C104 C105 1.404 . S
C104 C109 1.397 . S
C104 C110 1.492 1_545 S
C105 C104 1.404 . S
C105 C106 1.396 . S
C105 C116 1.492 . S
C106 C105 1.396 . S
C106 C107 1.397 . S
C106 C122 1.509 . S
C107 C106 1.397 . S
C107 C108 1.412 . S
C107 C128 1.485 . S
C108 C107 1.412 . S
C108 C109 1.388 . S
C108 C134 1.490 . S
C109 C104 1.397 . S
C109 C108 1.388 . S
C109 C140 1.519 1_545 S
C110 C104 1.492 1_565 S
C110 C111 1.363 . S
C110 C115 1.390 . S
C111 H76 0.930 1_565 S
C111 C110 1.363 . S
C111 C112 1.372 . S
C112 H77 0.930 . S
C112 C111 1.372 . S
C112 C113 1.383 . S
C113 C112 1.383 . S
C113 C114 1.395 . S
C114 H78 0.930 . S
C114 C113 1.395 . S
C114 C115 1.362 . S
C115 H79 0.930 . S
C115 C110 1.390 . S
C115 C114 1.362 . S
C116 C105 1.492 . S
C116 C117 1.377 . S
C116 C121 1.397 . S
C117 H80 0.931 . S
C117 C116 1.377 . S
C117 C118 1.376 . S
C118 H81 0.930 . S
C118 C117 1.376 . S
C118 C119 1.376 . S
C119 C118 1.376 . S
C119 C120 1.378 . S
C119 C146 1.486 . S
C120 H82 0.930 . S
C120 C119 1.378 . S
C120 C121 1.376 . S
C121 H83 0.929 . S
C121 C116 1.397 . S
C121 C120 1.376 . S
C122 C106 1.509 . S
C122 C123 1.391 . S
C122 C127 1.386 . S
C123 H84 0.930 . S
C123 C122 1.391 . S
C123 C124 1.375 . S
C124 H85 0.931 . S
C124 C123 1.375 . S
C124 C125 1.375 . S
C125 C124 1.375 . S
C125 C126 1.361 . S
C126 H86 0.930 . S
C126 C125 1.361 . S
C126 C127 1.399 . S
C127 H87 0.929 . S
C127 C122 1.386 . S
C127 C126 1.399 . S
C128 C107 1.485 . S
C128 C129 1.394 . S
C128 C133 1.360 . S
C129 H88 0.931 . S
C129 C128 1.394 . S
C129 C130 1.372 . S
C130 H89 0.930 . S
C130 C129 1.372 . S
C130 C131 1.397 . S
C131 C130 1.397 . S
C131 C132 1.390 . S
C131 C147 1.476 . S
C132 H90 0.930 . S
C132 C131 1.390 . S
C132 C133 1.366 . S
C133 H91 0.932 . S
C133 C128 1.360 . S
C133 C132 1.366 . S
C134 C108 1.490 . S
C134 C135 1.380 . S
C134 C139 1.386 . S
C135 H92 0.930 . S
C135 C134 1.380 . S
C135 C136 1.381 . S
C136 H93 0.929 . S
C136 C135 1.381 . S
C136 C137 1.371 . S
C137 C136 1.371 . S
C137 C138 1.380 . S
C138 H94 0.931 . S
C138 C137 1.380 . S
C138 C139 1.387 . S
C139 H95 0.930 . S
C139 C134 1.386 . S
C139 C138 1.387 . S
C140 C109 1.519 1_565 S
C140 C141 1.377 . S
C140 C145 1.361 . S
C141 H96 0.929 . S
C141 C140 1.377 . S
C141 C142 1.386 . S
C142 H97 0.931 . S
C142 C141 1.386 . S
C142 C143 1.363 . S
C143 C142 1.363 . S
C143 C144 1.385 . S
C144 H98 0.930 . S
C144 C143 1.385 . S
C144 C145 1.396 . S
C145 H99 0.929 . S
C145 C140 1.361 . S
C145 C144 1.396 . S
C146 O100 1.300 . S
C146 O101 1.209 . S
C146 C119 1.486 . S
C147 O102 1.199 . S
C147 O103 1.297 . S
C147 C131 1.476 . S
H148 O174 0.856 . S
H149 O177 0.854 . S
H150 C185 0.930 . S
H151 C186 0.930 . S
H152 C188 0.930 . S
H153 C189 0.930 . S
H154 C191 0.931 . S
H155 C192 0.930 . S
H156 C194 0.930 . S
H157 C195 0.929 . S
H158 C197 0.930 . S
H159 C198 0.931 . S
H160 C200 0.930 . S
H161 C201 0.929 . S
H162 C203 0.931 . S
H163 C204 0.930 . S
H164 C206 0.930 . S
H165 C207 0.932 . S
H166 C209 0.930 . S
H167 C210 0.929 . S
H168 C212 0.931 . S
H169 C213 0.930 . S
H170 C215 0.929 . S
H171 C216 0.931 . S
H172 C218 0.930 . S
H173 C219 0.929 . S
O174 H148 0.856 . S
O174 C220 1.300 . S
O175 C220 1.209 . S
O176 C221 1.199 . S
O177 H149 0.854 . S
O177 C221 1.297 . S
C178 C179 1.404 . S
C178 C183 1.397 . S
C178 C184 1.492 . S
C179 C178 1.404 . S
C179 C180 1.396 . S
C179 C190 1.492 . S
C180 C179 1.396 . S
C180 C181 1.397 . S
C180 C196 1.509 . S
C181 C180 1.397 . S
C181 C182 1.412 . S
C181 C202 1.485 . S
C182 C181 1.412 . S
C182 C183 1.388 . S
C182 C208 1.490 . S
C183 C178 1.397 . S
C183 C182 1.388 . S
C183 C214 1.519 . S
C184 C178 1.492 . S
C184 C185 1.363 . S
C184 C189 1.390 . S
C185 H150 0.930 . S
C185 C184 1.363 . S
C185 C186 1.372 . S
C186 H151 0.930 . S
C186 C185 1.372 . S
C186 C187 1.383 . S
C187 C186 1.383 . S
C187 C188 1.395 . S
C188 H152 0.930 . S
C188 C187 1.395 . S
C188 C189 1.362 . S
C189 H153 0.930 . S
C189 C184 1.390 . S
C189 C188 1.362 . S
C190 C179 1.492 . S
C190 C191 1.377 . S
C190 C195 1.397 . S
C191 H154 0.931 . S
C191 C190 1.377 . S
C191 C192 1.376 . S
C192 H155 0.930 . S
C192 C191 1.376 . S
C192 C193 1.376 . S
C193 C192 1.376 . S
C193 C194 1.378 . S
C193 C220 1.486 . S
C194 H156 0.930 . S
C194 C193 1.378 . S
C194 C195 1.376 . S
C195 H157 0.929 . S
C195 C190 1.397 . S
C195 C194 1.376 . S
C196 C180 1.509 . S
C196 C197 1.391 . S
C196 C201 1.386 . S
C197 H158 0.930 . S
C197 C196 1.391 . S
C197 C198 1.375 . S
C198 H159 0.931 . S
C198 C197 1.375 . S
C198 C199 1.375 . S
C199 C198 1.375 . S
C199 C200 1.361 . S
C200 H160 0.930 . S
C200 C199 1.361 . S
C200 C201 1.399 . S
C201 H161 0.929 . S
C201 C196 1.386 . S
C201 C200 1.399 . S
C202 C181 1.485 . S
C202 C203 1.394 . S
C202 C207 1.360 . S
C203 H162 0.931 . S
C203 C202 1.394 . S
C203 C204 1.372 . S
C204 H163 0.930 . S
C204 C203 1.372 . S
C204 C205 1.397 . S
C205 C204 1.397 . S
C205 C206 1.390 . S
C205 C221 1.476 . S
C206 H164 0.930 . S
C206 C205 1.390 . S
C206 C207 1.366 . S
C207 H165 0.932 . S
C207 C202 1.360 . S
C207 C206 1.366 . S
C208 C182 1.490 . S
C208 C209 1.380 . S
C208 C213 1.386 . S
C209 H166 0.930 . S
C209 C208 1.380 . S
C209 C210 1.381 . S
C210 H167 0.929 . S
C210 C209 1.381 . S
C210 C211 1.371 . S
C211 C210 1.371 . S
C211 C212 1.380 . S
C212 H168 0.931 . S
C212 C211 1.380 . S
C212 C213 1.387 . S
C213 H169 0.930 . S
C213 C208 1.386 . S
C213 C212 1.387 . S
C214 C183 1.519 . S
C214 C215 1.377 . S
C214 C219 1.361 . S
C215 H170 0.929 . S
C215 C214 1.377 . S
C215 C216 1.386 . S
C216 H171 0.931 . S
C216 C215 1.386 . S
C216 C217 1.363 . S
C217 C216 1.363 . S
C217 C218 1.385 . S
C218 H172 0.930 . S
C218 C217 1.385 . S
C218 C219 1.396 . S
C219 H173 0.929 . S
C219 C214 1.361 . S
C219 C218 1.396 . S
C220 O174 1.300 . S
C220 O175 1.209 . S
C220 C193 1.486 . S
C221 O176 1.199 . S
C221 O177 1.297 . S
C221 C205 1.476 . S
H222 O248 0.856 1_554 S
H223 O251 0.854 . S
H224 C259 0.930 1_455 S
H225 C260 0.930 . S
H226 C262 0.930 . S
H227 C263 0.930 . S
H228 C265 0.931 . S
H229 C266 0.930 . S
H230 C268 0.930 . S
H231 C269 0.929 . S
H232 C271 0.930 . S
H233 C272 0.931 . S
H234 C274 0.930 . S
H235 C275 0.929 . S
H236 C277 0.931 . S
H237 C278 0.930 . S
H238 C280 0.930 . S
H239 C281 0.932 . S
H240 C283 0.930 . S
H241 C284 0.929 . S
H242 C286 0.931 . S
H243 C287 0.930 . S
H244 C289 0.929 . S
H245 C290 0.931 . S
H246 C292 0.930 . S
H247 C293 0.929 . S
O248 H222 0.856 1_556 S
O248 C294 1.300 . S
O249 C294 1.209 . S
O250 C295 1.199 . S
O251 H223 0.854 . S
O251 C295 1.297 . S
C252 C253 1.404 . S
C252 C257 1.397 . S
C252 C258 1.492 1_455 S
C253 C252 1.404 . S
C253 C254 1.396 . S
C253 C264 1.492 . S
C254 C253 1.396 . S
C254 C255 1.397 . S
C254 C270 1.509 . S
C255 C254 1.397 . S
C255 C256 1.412 . S
C255 C276 1.485 . S
C256 C255 1.412 . S
C256 C257 1.388 . S
C256 C282 1.490 . S
C257 C252 1.397 . S
C257 C256 1.388 . S
C257 C288 1.519 1_455 S
C258 C252 1.492 1_655 S
C258 C259 1.363 . S
C258 C263 1.390 . S
C259 H224 0.930 1_655 S
C259 C258 1.363 . S
C259 C260 1.372 . S
C260 H225 0.930 . S
C260 C259 1.372 . S
C260 C261 1.383 . S
C261 C260 1.383 . S
C261 C262 1.395 . S
C262 H226 0.930 . S
C262 C261 1.395 . S
C262 C263 1.362 . S
C263 H227 0.930 . S
C263 C258 1.390 . S
C263 C262 1.362 . S
C264 C253 1.492 . S
C264 C265 1.377 . S
C264 C269 1.397 . S
C265 H228 0.931 . S
C265 C264 1.377 . S
C265 C266 1.376 . S
C266 H229 0.930 . S
C266 C265 1.376 . S
C266 C267 1.376 . S
C267 C266 1.376 . S
C267 C268 1.378 . S
C267 C294 1.486 . S
C268 H230 0.930 . S
C268 C267 1.378 . S
C268 C269 1.376 . S
C269 H231 0.929 . S
C269 C264 1.397 . S
C269 C268 1.376 . S
C270 C254 1.509 . S
C270 C271 1.391 . S
C270 C275 1.386 . S
C271 H232 0.930 . S
C271 C270 1.391 . S
C271 C272 1.375 . S
C272 H233 0.931 . S
C272 C271 1.375 . S
C272 C273 1.375 . S
C273 C272 1.375 . S
C273 C274 1.361 . S
C274 H234 0.930 . S
C274 C273 1.361 . S
C274 C275 1.399 . S
C275 H235 0.929 . S
C275 C270 1.386 . S
C275 C274 1.399 . S
C276 C255 1.485 . S
C276 C277 1.394 . S
C276 C281 1.360 . S
C277 H236 0.931 . S
C277 C276 1.394 . S
C277 C278 1.372 . S
C278 H237 0.930 . S
C278 C277 1.372 . S
C278 C279 1.397 . S
C279 C278 1.397 . S
C279 C280 1.390 . S
C279 C295 1.476 . S
C280 H238 0.930 . S
C280 C279 1.390 . S
C280 C281 1.366 . S
C281 H239 0.932 . S
C281 C276 1.360 . S
C281 C280 1.366 . S
C282 C256 1.490 . S
C282 C283 1.380 . S
C282 C287 1.386 . S
C283 H240 0.930 . S
C283 C282 1.380 . S
C283 C284 1.381 . S
C284 H241 0.929 . S
C284 C283 1.381 . S
C284 C285 1.371 . S
C285 C284 1.371 . S
C285 C286 1.380 . S
C286 H242 0.931 . S
C286 C285 1.380 . S
C286 C287 1.387 . S
C287 H243 0.930 . S
C287 C282 1.386 . S
C287 C286 1.387 . S
C288 C257 1.519 1_655 S
C288 C289 1.377 . S
C288 C293 1.361 . S
C289 H244 0.929 . S
C289 C288 1.377 . S
C289 C290 1.386 . S
C290 H245 0.931 . S
C290 C289 1.386 . S
C290 C291 1.363 . S
C291 C290 1.363 . S
C291 C292 1.385 . S
C292 H246 0.930 . S
C292 C291 1.385 . S
C292 C293 1.396 . S
C293 H247 0.929 . S
C293 C288 1.361 . S
C293 C292 1.396 . S
C294 O248 1.300 . S
C294 O249 1.209 . S
C294 C267 1.486 . S
C295 O250 1.199 . S
C295 O251 1.297 . S
C295 C279 1.476 . S
H296 O322 0.856 . S
H297 O325 0.854 . S
H298 C333 0.930 . S
H299 C334 0.930 . S
H300 C336 0.930 . S
H301 C337 0.930 . S
H302 C339 0.931 . S
H303 C340 0.930 . S
H304 C342 0.930 . S
H305 C343 0.929 . S
H306 C345 0.930 . S
H307 C346 0.931 . S
H308 C348 0.930 . S
H309 C349 0.929 . S
H310 C351 0.931 . S
H311 C352 0.930 . S
H312 C354 0.930 . S
H313 C355 0.932 . S
H314 C357 0.923 1_545 S
H315 C358 0.929 . S
H316 C360 0.931 . S
H317 C361 0.930 . S
H318 C363 0.929 1_556 S
H319 C364 0.931 . S
H320 C366 0.930 . S
H321 C367 0.929 . S
O322 H296 0.856 . S
O322 C368 1.300 . S
O323 C368 1.209 . S
O324 C369 1.199 . S
O325 H297 0.854 . S
O325 C369 1.297 . S
C326 C327 1.404 1_545 S
C326 C331 1.397 . S
C326 C332 1.492 . S
C327 C326 1.404 1_565 S
C327 C328 1.396 . S
C327 C338 1.492 . S
C328 C327 1.396 . S
C328 C329 1.397 . S
C328 C344 1.509 . S
C329 C328 1.397 . S
C329 C330 1.412 1_556 S
C329 C350 1.485 1_556 S
C330 C329 1.412 1_554 S
C330 C331 1.388 1_564 S
C330 C356 1.490 . S
C331 C326 1.397 . S
C331 C330 1.388 1_546 S
C331 C362 1.519 1_556 S
C332 C326 1.492 . S
C332 C333 1.363 . S
C332 C337 1.390 . S
C333 H298 0.930 . S
C333 C332 1.363 . S
C333 C334 1.372 . S
C334 H299 0.930 . S
C334 C333 1.372 . S
C334 C335 1.383 . S
C335 C334 1.383 . S
C335 C336 1.395 . S
C336 H300 0.930 . S
C336 C335 1.395 . S
C336 C337 1.362 . S
C337 H301 0.930 . S
C337 C332 1.390 . S
C337 C336 1.362 . S
C338 C327 1.492 . S
C338 C339 1.377 . S
C338 C343 1.397 . S
C339 H302 0.931 . S
C339 C338 1.377 . S
C339 C340 1.376 . S
C340 H303 0.930 . S
C340 C339 1.376 . S
C340 C341 1.376 . S
C341 C340 1.376 . S
C341 C342 1.378 . S
C341 C368 1.486 . S
C342 H304 0.930 . S
C342 C341 1.378 . S
C342 C343 1.376 . S
C343 H305 0.929 . S
C343 C338 1.397 . S
C343 C342 1.376 . S
C344 C328 1.509 . S
C344 C345 1.391 . S
C344 C349 1.386 . S
C345 H306 0.930 . S
C345 C344 1.391 . S
C345 C346 1.375 . S
C346 H307 0.931 . S
C346 C345 1.375 . S
C346 C347 1.375 . S
C347 C346 1.375 . S
C347 C348 1.361 . S
C348 H308 0.930 . S
C348 C347 1.361 . S
C348 C349 1.399 . S
C349 H309 0.929 . S
C349 C344 1.386 . S
C349 C348 1.399 . S
C350 C329 1.485 1_554 S
C350 C351 1.394 . S
C350 C355 1.360 . S
C351 H310 0.931 . S
C351 C350 1.394 . S
C351 C352 1.372 . S
C352 H311 0.930 . S
C352 C351 1.372 . S
C352 C353 1.397 . S
C353 C352 1.397 . S
C353 C354 1.390 . S
C353 C369 1.476 . S
C354 H312 0.930 . S
C354 C353 1.390 . S
C354 C355 1.366 . S
C355 H313 0.932 . S
C355 C350 1.360 . S
C355 C354 1.366 . S
C356 C330 1.490 . S
C356 C357 1.380 . S
C356 C361 1.386 . S
C357 H314 0.923 1_565 S
C357 C356 1.380 . S
C357 C358 1.381 1_565 S
C358 H315 0.929 . S
C358 C357 1.381 1_545 S
C358 C359 1.371 1_545 S
C359 C358 1.371 1_565 S
C359 C360 1.380 . S
C360 H316 0.931 . S
C360 C359 1.380 . S
C360 C361 1.387 . S
C361 H317 0.930 . S
C361 C356 1.386 . S
C361 C360 1.387 . S
C362 C331 1.519 1_554 S
C362 C363 1.377 . S
C362 C367 1.361 . S
C363 H318 0.929 1_554 S
C363 C362 1.377 . S
C363 C364 1.386 . S
C364 H319 0.931 . S
C364 C363 1.386 . S
C364 C365 1.363 . S
C365 C364 1.363 . S
C365 C366 1.385 . S
C366 H320 0.930 . S
C366 C365 1.385 . S
C366 C367 1.396 . S
C367 H321 0.929 . S
C367 C362 1.361 . S
C367 C366 1.396 . S
C368 O322 1.300 . S
C368 O323 1.209 . S
C368 C341 1.486 . S
C369 O324 1.199 . S
C369 O325 1.297 . S
C369 C353 1.476 . S
H370 O396 0.856 . S
H371 O399 0.854 . S
H372 C407 0.930 . S
H373 C408 0.930 . S
H374 C410 0.930 . S
H375 C411 0.930 . S
H376 C413 0.931 . S
H377 C414 0.930 . S
H378 C416 0.930 . S
H379 C417 0.929 . S
H380 C419 0.930 . S
H381 C420 0.931 . S
H382 C422 0.930 . S
H383 C423 0.929 . S
H384 C425 0.931 . S
H385 C426 0.930 . S
H386 C428 0.930 . S
H387 C429 0.932 . S
H388 C431 0.930 . S
H389 C432 0.929 . S
H390 C434 0.931 . S
H391 C435 0.930 . S
H392 C437 0.929 . S
H393 C438 0.931 . S
H394 C440 0.930 . S
H395 C441 0.929 . S
O396 H370 0.856 . S
O396 C442 1.300 . S
O397 C442 1.209 . S
O398 C443 1.199 . S
O399 H371 0.854 . S
O399 C443 1.297 . S
C400 C401 1.404 . S
C400 C405 1.397 . S
C400 C406 1.492 . S
C401 C400 1.404 . S
C401 C402 1.396 . S
C401 C412 1.492 . S
C402 C401 1.396 . S
C402 C403 1.397 . S
C402 C418 1.509 . S
C403 C402 1.397 . S
C403 C404 1.412 . S
C403 C424 1.485 . S
C404 C403 1.412 . S
C404 C405 1.388 . S
C404 C430 1.490 . S
C405 C400 1.397 . S
C405 C404 1.388 . S
C405 C436 1.519 . S
C406 C400 1.492 . S
C406 C407 1.363 . S
C406 C411 1.390 . S
C407 H372 0.930 . S
C407 C406 1.363 . S
C407 C408 1.372 . S
C408 H373 0.930 . S
C408 C407 1.372 . S
C408 C409 1.383 . S
C409 C408 1.383 . S
C409 C410 1.395 . S
C410 H374 0.930 . S
C410 C409 1.395 . S
C410 C411 1.362 . S
C411 H375 0.930 . S
C411 C406 1.390 . S
C411 C410 1.362 . S
C412 C401 1.492 . S
C412 C413 1.377 . S
C412 C417 1.397 . S
C413 H376 0.931 . S
C413 C412 1.377 . S
C413 C414 1.376 . S
C414 H377 0.930 . S
C414 C413 1.376 . S
C414 C415 1.376 . S
C415 C414 1.376 . S
C415 C416 1.378 . S
C415 C442 1.486 1_554 S
C416 H378 0.930 . S
C416 C415 1.378 . S
C416 C417 1.376 . S
C417 H379 0.929 . S
C417 C412 1.397 . S
C417 C416 1.376 . S
C418 C402 1.509 . S
C418 C419 1.391 . S
C418 C423 1.386 . S
C419 H380 0.930 . S
C419 C418 1.391 . S
C419 C420 1.375 . S
C420 H381 0.931 . S
C420 C419 1.375 . S
C420 C421 1.375 . S
C421 C420 1.375 . S
C421 C422 1.361 . S
C422 H382 0.930 . S
C422 C421 1.361 . S
C422 C423 1.399 . S
C423 H383 0.929 . S
C423 C418 1.386 . S
C423 C422 1.399 . S
C424 C403 1.485 . S
C424 C425 1.394 . S
C424 C429 1.360 . S
C425 H384 0.931 . S
C425 C424 1.394 . S
C425 C426 1.372 . S
C426 H385 0.930 . S
C426 C425 1.372 . S
C426 C427 1.397 . S
C427 C426 1.397 . S
C427 C428 1.390 . S
C427 C443 1.476 . S
C428 H386 0.930 . S
C428 C427 1.390 . S
C428 C429 1.366 . S
C429 H387 0.932 . S
C429 C424 1.360 . S
C429 C428 1.366 . S
C430 C404 1.490 . S
C430 C431 1.380 . S
C430 C435 1.386 . S
C431 H388 0.930 . S
C431 C430 1.380 . S
C431 C432 1.381 . S
C432 H389 0.929 . S
C432 C431 1.381 . S
C432 C433 1.371 . S
C433 C432 1.371 . S
C433 C434 1.380 . S
C434 H390 0.931 . S
C434 C433 1.380 . S
C434 C435 1.387 . S
C435 H391 0.930 . S
C435 C430 1.386 . S
C435 C434 1.387 . S
C436 C405 1.519 . S
C436 C437 1.377 . S
C436 C441 1.361 . S
C437 H392 0.929 . S
C437 C436 1.377 . S
C437 C438 1.386 . S
C438 H393 0.931 . S
C438 C437 1.386 . S
C438 C439 1.363 . S
C439 C438 1.363 . S
C439 C440 1.385 . S
C440 H394 0.930 . S
C440 C439 1.385 . S
C440 C441 1.396 . S
C441 H395 0.929 . S
C441 C436 1.361 . S
C441 C440 1.396 . S
C442 O396 1.300 . S
C442 O397 1.209 . S
C442 C415 1.486 1_556 S
C443 O398 1.199 . S
C443 O399 1.297 . S
C443 C427 1.476 . S
Mg444 O445 2.028 . S
Mg444 O451 1.986 . S
Mg444 O453 2.114 . S
Mg444 O454 2.251 . S
Mg444 O457 2.010 . S
O445 Mg444 2.028 . S
O445 C448 1.250 . S
O446 Mg447 2.028 . S
O446 C448 1.248 . S
Mg447 O446 2.028 . S
Mg447 O452 2.032 . S
Mg447 O454 2.079 . S
C448 O445 1.250 . S
C448 O446 1.248 . S
C449 O450 1.264 . S
C449 O457 1.249 . S
O450 C449 1.264 . S
O451 Mg444 1.986 . S
O451 C455 1.246 . S
O452 Mg447 2.032 . S
O452 C455 1.259 . S
O453 Mg444 2.114 . S
O453 C456 1.252 . S
O454 Mg444 2.251 . S
O454 Mg447 2.079 . S
O454 C456 1.273 . S
C455 O451 1.246 . S
C455 O452 1.259 . S
C456 O453 1.252 . S
C456 O454 1.273 . S
O457 Mg444 2.010 . S
O457 C449 1.249 . S
Mg458 O459 2.028 . S
Mg458 O465 1.986 . S
Mg458 O467 2.114 . S
Mg458 O468 2.251 . S
Mg458 O471 2.010 . S
O459 Mg458 2.028 . S
O459 C462 1.250 . S
O460 Mg461 2.028 . S
O460 C462 1.248 . S
Mg461 O460 2.028 . S
Mg461 O466 2.032 . S
Mg461 O468 2.079 . S
C462 O459 1.250 . S
C462 O460 1.248 . S
C463 O464 1.264 . S
C463 O471 1.249 . S
O464 C463 1.264 . S
O465 Mg458 1.986 . S
O465 C469 1.246 . S
O466 Mg461 2.032 . S
O466 C469 1.259 . S
O467 Mg458 2.114 . S
O467 C470 1.252 . S
O468 Mg458 2.251 . S
O468 Mg461 2.079 . S
O468 C470 1.273 . S
C469 O465 1.246 . S
C469 O466 1.259 . S
C470 O467 1.252 . S
C470 O468 1.273 . S
O471 Mg458 2.010 . S
O471 C463 1.249 . S
Mg472 O473 2.028 . S
Mg472 O479 1.986 . S
Mg472 O481 2.114 . S
Mg472 O482 2.251 . S
Mg472 O485 2.010 . S
O473 Mg472 2.028 . S
O473 C476 1.250 . S
O474 Mg475 2.028 . S
O474 C476 1.248 . S
Mg475 O474 2.028 . S
Mg475 O480 2.032 . S
Mg475 O482 2.079 . S
C476 O473 1.250 . S
C476 O474 1.248 . S
C477 O478 1.264 . S
C477 O485 1.249 . S
O478 C477 1.264 . S
O479 Mg472 1.986 . S
O479 C483 1.246 . S
O480 Mg475 2.032 . S
O480 C483 1.259 . S
O481 Mg472 2.114 . S
O481 C484 1.252 . S
O482 Mg472 2.251 . S
O482 Mg475 2.079 . S
O482 C484 1.273 . S
C483 O479 1.246 . S
C483 O480 1.259 . S
C484 O481 1.252 . S
C484 O482 1.273 . S
O485 Mg472 2.010 . S
O485 C477 1.249 . S
Mg486 O487 2.028 . S
Mg486 O493 1.986 . S
Mg486 O495 2.114 . S
Mg486 O496 2.251 . S
Mg486 O499 2.010 . S
O487 Mg486 2.028 . S
O487 C490 1.250 . S
O488 Mg489 2.028 . S
O488 C490 1.248 . S
Mg489 O488 2.028 . S
Mg489 O494 2.032 . S
Mg489 O496 2.079 . S
C490 O487 1.250 . S
C490 O488 1.248 . S
C491 O492 1.264 . S
C491 O499 1.249 . S
O492 C491 1.264 . S
O493 Mg486 1.986 . S
O493 C497 1.246 . S
O494 Mg489 2.032 . S
O494 C497 1.259 . S
O495 Mg486 2.114 . S
O495 C498 1.252 . S
O496 Mg486 2.251 . S
O496 Mg489 2.079 . S
O496 C498 1.273 . S
C497 O493 1.246 . S
C497 O494 1.259 . S
C498 O495 1.252 . S
C498 O496 1.273 . S
O499 Mg486 2.010 . S
O499 C491 1.249 . S
Mg500 O501 2.028 . S
Mg500 O507 1.986 . S
Mg500 O509 2.114 . S
Mg500 O510 2.251 . S
Mg500 O513 2.010 . S
O501 Mg500 2.028 . S
O501 C504 1.250 . S
O502 Mg503 2.028 . S
O502 C504 1.248 . S
Mg503 O502 2.028 . S
Mg503 O508 2.032 . S
Mg503 O510 2.079 . S
C504 O501 1.250 . S
C504 O502 1.248 . S
C505 O506 1.264 . S
C505 O513 1.249 . S
O506 C505 1.264 . S
O507 Mg500 1.986 . S
O507 C511 1.246 . S
O508 Mg503 2.032 . S
O508 C511 1.259 . S
O509 Mg500 2.114 . S
O509 C512 1.252 . S
O510 Mg500 2.251 . S
O510 Mg503 2.079 . S
O510 C512 1.273 . S
C511 O507 1.246 . S
C511 O508 1.259 . S
C512 O509 1.252 . S
C512 O510 1.273 . S
O513 Mg500 2.010 . S
O513 C505 1.249 . S
Mg514 O515 2.028 . S
Mg514 O521 1.986 . S
Mg514 O523 2.114 . S
Mg514 O524 2.251 . S
Mg514 O527 2.010 . S
O515 Mg514 2.028 . S
O515 C518 1.250 . S
O516 Mg517 2.028 . S
O516 C518 1.248 . S
Mg517 O516 2.028 . S
Mg517 O522 2.032 . S
Mg517 O524 2.079 . S
C518 O515 1.250 . S
C518 O516 1.248 . S
C519 O520 1.264 . S
C519 O527 1.249 . S
O520 C519 1.264 . S
O521 Mg514 1.986 . S
O521 C525 1.246 . S
O522 Mg517 2.032 . S
O522 C525 1.259 . S
O523 Mg514 2.114 . S
O523 C526 1.252 . S
O524 Mg514 2.251 . S
O524 Mg517 2.079 . S
O524 C526 1.273 . S
C525 O521 1.246 . S
C525 O522 1.259 . S
C526 O523 1.252 . S
C526 O524 1.273 . S
O527 Mg514 2.010 . S
O527 C519 1.249 . S
C528 C529 1.363 . S
C528 C534 1.379 . S
C528 N536 1.356 . S
C529 C528 1.363 . S
C529 C535 1.363 . S
C530 C531 1.363 . S
C530 C535 1.379 . S
C530 N537 1.356 . S
C531 C530 1.363 . S
C531 C534 1.363 . S
N532 C534 1.356 . S
N532 H544 0.984 . S
N532 H545 0.985 . S
N533 C535 1.356 . S
N533 H538 0.984 . S
N533 H539 0.985 . S
C534 C528 1.379 . S
C534 C531 1.363 . S
C534 N532 1.356 . S
C535 C529 1.363 . S
C535 C530 1.379 . S
C535 N533 1.356 . S
N536 C528 1.356 . S
N536 H542 0.984 . S
N536 H543 0.984 . S
N537 C530 1.356 . S
N537 H540 0.984 . S
N537 H541 0.985 . S
H538 N533 0.984 . S
H539 N533 0.985 . S
H540 N537 0.984 . S
H541 N537 0.985 . S
H542 N536 0.984 . S
H543 N536 0.984 . S
H544 N532 0.984 . S
H545 N532 0.985 . S
C546 C547 1.363 . S
C546 C552 1.379 . S
C546 N554 1.356 . S
C547 C546 1.363 . S
C547 C553 1.363 . S
C548 C549 1.363 . S
C548 C553 1.379 . S
C548 N555 1.356 . S
C549 C548 1.363 . S
C549 C552 1.363 . S
N550 C552 1.356 . S
N550 H562 0.984 . S
N550 H563 0.985 . S
N551 C553 1.356 . S
N551 H556 0.984 . S
N551 H557 0.985 . S
C552 C546 1.379 . S
C552 C549 1.363 . S
C552 N550 1.356 . S
C553 C547 1.363 . S
C553 C548 1.379 . S
C553 N551 1.356 . S
N554 C546 1.356 . S
N554 H560 0.984 . S
N554 H561 0.984 . S
N555 C548 1.356 . S
N555 H558 0.984 . S
N555 H559 0.985 . S
H556 N551 0.984 . S
H557 N551 0.985 . S
H558 N555 0.984 . S
H559 N555 0.985 . S
H560 N554 0.984 . S
H561 N554 0.984 . S
H562 N550 0.984 . S
H563 N550 0.985 . S
C564 C565 1.363 . S
C564 C570 1.379 . S
C564 N572 1.356 . S
C565 C564 1.363 . S
C565 C571 1.363 . S
C566 C567 1.363 . S
C566 C571 1.379 . S
C566 N573 1.356 . S
C567 C566 1.363 . S
C567 C570 1.363 . S
N568 C570 1.356 . S
N568 H580 0.984 . S
N568 H581 0.985 . S
N569 C571 1.356 . S
N569 H574 0.984 . S
N569 H575 0.985 . S
C570 C564 1.379 . S
C570 C567 1.363 . S
C570 N568 1.356 . S
C571 C565 1.363 . S
C571 C566 1.379 . S
C571 N569 1.356 . S
N572 C564 1.356 . S
N572 H578 0.984 . S
N572 H579 0.984 . S
N573 C566 1.356 . S
N573 H576 0.984 . S
N573 H577 0.985 . S
H574 N569 0.984 . S
H575 N569 0.985 . S
H576 N573 0.984 . S
H577 N573 0.985 . S
H578 N572 0.984 . S
H579 N572 0.984 . S
H580 N568 0.984 . S
H581 N568 0.985 . S
C582 C583 1.363 . S
C582 C588 1.379 . S
C582 N590 1.356 . S
C583 C582 1.363 . S
C583 C589 1.363 . S
C584 C585 1.363 . S
C584 C589 1.379 . S
C584 N591 1.356 . S
C585 C584 1.363 . S
C585 C588 1.363 . S
N586 C588 1.356 . S
N586 H598 0.984 . S
N586 H599 0.985 . S
N587 C589 1.356 . S
N587 H592 0.984 . S
N587 H593 0.985 . S
C588 C582 1.379 . S
C588 C585 1.363 . S
C588 N586 1.356 . S
C589 C583 1.363 . S
C589 C584 1.379 . S
C589 N587 1.356 . S
N590 C582 1.356 . S
N590 H596 0.984 . S
N590 H597 0.984 . S
N591 C584 1.356 . S
N591 H594 0.984 . S
N591 H595 0.985 . S
H592 N587 0.984 . S
H593 N587 0.985 . S
H594 N591 0.984 . S
H595 N591 0.985 . S
H596 N590 0.984 . S
H597 N590 0.984 . S
H598 N586 0.984 . S
H599 N586 0.985 . S
C600 C601 1.363 . S
C600 C606 1.379 . S
C600 N608 1.356 . S
C601 C600 1.363 . S
C601 C607 1.363 . S
C602 C603 1.363 . S
C602 C607 1.379 . S
C602 N609 1.356 . S
C603 C602 1.363 . S
C603 C606 1.363 . S
N604 C606 1.356 . S
N604 H616 0.984 . S
N604 H617 0.985 . S
N605 C607 1.356 . S
N605 H610 0.984 . S
N605 H611 0.985 . S
C606 C600 1.379 . S
C606 C603 1.363 . S
C606 N604 1.356 . S
C607 C601 1.363 . S
C607 C602 1.379 . S
C607 N605 1.356 . S
N608 C600 1.356 . S
N608 H614 0.984 . S
N608 H615 0.984 . S
N609 C602 1.356 . S
N609 H612 0.984 . S
N609 H613 0.985 . S
H610 N605 0.984 . S
H611 N605 0.985 . S
H612 N609 0.984 . S
H613 N609 0.985 . S
H614 N608 0.984 . S
H615 N608 0.984 . S
H616 N604 0.984 . S
H617 N604 0.985 . S
C618 C619 1.363 . S
C618 C624 1.379 . S
C618 N626 1.356 . S
C619 C618 1.363 . S
C619 C625 1.363 . S
C620 C621 1.363 . S
C620 C625 1.379 . S
C620 N627 1.356 . S
C621 C620 1.363 . S
C621 C624 1.363 . S
N622 C624 1.356 . S
N622 H634 0.984 . S
N622 H635 0.985 . S
N623 C625 1.356 . S
N623 H628 0.984 . S
N623 H629 0.985 . S
C624 C618 1.379 . S
C624 C621 1.363 . S
C624 N622 1.356 . S
C625 C619 1.363 . S
C625 C620 1.379 . S
C625 N623 1.356 . S
N626 C618 1.356 . S
N626 H632 0.984 . S
N626 H633 0.984 . S
N627 C620 1.356 . S
N627 H630 0.984 . S
N627 H631 0.985 . S
H628 N623 0.984 . S
H629 N623 0.985 . S
H630 N627 0.984 . S
H631 N627 0.985 . S
H632 N626 0.984 . S
H633 N626 0.984 . S
H634 N622 0.984 . S
H635 N622 0.985 . S
C636 C637 1.363 . S
C636 C642 1.379 . S
C636 N644 1.356 . S
C637 C636 1.363 . S
C637 C643 1.363 . S
C638 C639 1.363 . S
C638 C643 1.379 . S
C638 N645 1.356 . S
C639 C638 1.363 . S
C639 C642 1.363 . S
N640 C642 1.356 . S
N640 H652 0.984 . S
N640 H653 0.985 . S
N641 C643 1.356 . S
N641 H646 0.984 . S
N641 H647 0.985 . S
C642 C636 1.379 . S
C642 C639 1.363 . S
C642 N640 1.356 . S
C643 C637 1.363 . S
C643 C638 1.379 . S
C643 N641 1.356 . S
N644 C636 1.356 . S
N644 H650 0.984 . S
N644 H651 0.984 . S
N645 C638 1.356 . S
N645 H648 0.984 . S
N645 H649 0.985 . S
H646 N641 0.984 . S
H647 N641 0.985 . S
H648 N645 0.984 . S
H649 N645 0.985 . S
H650 N644 0.984 . S
H651 N644 0.984 . S
H652 N640 0.984 . S
H653 N640 0.985 . S
C654 C655 1.363 . S
C654 C660 1.379 . S
C654 N662 1.356 . S
C655 C654 1.363 . S
C655 C661 1.363 . S
C656 C657 1.363 . S
C656 C661 1.379 . S
C656 N663 1.356 . S
C657 C656 1.363 . S
C657 C660 1.363 . S
N658 C660 1.356 . S
N658 H670 0.984 . S
N658 H671 0.985 . S
N659 C661 1.356 . S
N659 H664 0.984 . S
N659 H665 0.985 . S
C660 C654 1.379 . S
C660 C657 1.363 . S
C660 N658 1.356 . S
C661 C655 1.363 . S
C661 C656 1.379 . S
C661 N659 1.356 . S
N662 C654 1.356 . S
N662 H668 0.984 . S
N662 H669 0.984 . S
N663 C656 1.356 . S
N663 H666 0.984 . S
N663 H667 0.985 . S
H664 N659 0.984 . S
H665 N659 0.985 . S
H666 N663 0.984 . S
H667 N663 0.985 . S
H668 N662 0.984 . S
H669 N662 0.984 . S
H670 N658 0.984 . S
H671 N658 0.985 . S
C672 C673 1.363 . S
C672 C678 1.379 . S
C672 N680 1.356 . S
C673 C672 1.363 . S
C673 C679 1.363 . S
C674 C675 1.363 . S
C674 C679 1.379 . S
C674 N681 1.356 . S
C675 C674 1.363 . S
C675 C678 1.363 . S
N676 C678 1.356 . S
N676 H688 0.984 . S
N676 H689 0.985 . S
N677 C679 1.356 . S
N677 H682 0.984 . S
N677 H683 0.985 . S
C678 C672 1.379 . S
C678 C675 1.363 . S
C678 N676 1.356 . S
C679 C673 1.363 . S
C679 C674 1.379 . S
C679 N677 1.356 . S
N680 C672 1.356 . S
N680 H686 0.984 . S
N680 H687 0.984 . S
N681 C674 1.356 . S
N681 H684 0.984 . S
N681 H685 0.985 . S
H682 N677 0.984 . S
H683 N677 0.985 . S
H684 N681 0.984 . S
H685 N681 0.985 . S
H686 N680 0.984 . S
H687 N680 0.984 . S
H688 N676 0.984 . S
H689 N676 0.985 . S
C690 C691 1.363 . S
C690 C696 1.379 . S
C690 N698 1.356 . S
C691 C690 1.363 . S
C691 C697 1.363 . S
C692 C693 1.363 . S
C692 C697 1.379 . S
C692 N699 1.356 . S
C693 C692 1.363 . S
C693 C696 1.363 . S
N694 C696 1.356 . S
N694 H706 0.984 . S
N694 H707 0.985 . S
N695 C697 1.356 1_556 S
N695 H700 0.985 . S
N695 H701 0.985 . S
C696 C690 1.379 . S
C696 C693 1.363 . S
C696 N694 1.356 . S
C697 C691 1.363 . S
C697 C692 1.379 . S
C697 N695 1.356 1_554 S
N698 C690 1.356 . S
N698 H704 0.984 . S
N698 H705 0.984 . S
N699 C692 1.356 . S
N699 H702 0.984 . S
N699 H703 0.985 1_554 S
H700 N695 0.985 . S
H701 N695 0.985 . S
H702 N699 0.984 . S
H703 N699 0.985 1_556 S
H704 N698 0.984 . S
H705 N698 0.984 . S
H706 N694 0.984 . S
H707 N694 0.985 . S
C708 C709 1.363 . S
C708 C714 1.379 . S
C708 N716 1.356 . S
C709 C708 1.363 . S
C709 C715 1.363 . S
C710 C711 1.363 . S
C710 C715 1.379 . S
C710 N717 1.356 . S
C711 C710 1.363 . S
C711 C714 1.363 . S
N712 C714 1.356 . S
N712 H724 0.984 . S
N712 H725 0.985 . S
N713 C715 1.356 . S
N713 H718 0.984 . S
N713 H719 0.985 . S
C714 C708 1.379 . S
C714 C711 1.363 . S
C714 N712 1.356 . S
C715 C709 1.363 . S
C715 C710 1.379 . S
C715 N713 1.356 . S
N716 C708 1.356 . S
N716 H722 0.984 . S
N716 H723 0.984 . S
N717 C710 1.356 . S
N717 H720 0.984 . S
N717 H721 0.985 . S
H718 N713 0.984 . S
H719 N713 0.985 . S
H720 N717 0.984 . S
H721 N717 0.985 . S
H722 N716 0.984 . S
H723 N716 0.984 . S
H724 N712 0.984 . S
H725 N712 0.985 . S
C726 C727 1.363 . S
C726 C732 1.379 . S
C726 N734 1.356 . S
C727 C726 1.363 . S
C727 C733 1.363 . S
C728 C729 1.363 . S
C728 C733 1.379 . S
C728 N735 1.356 . S
C729 C728 1.363 . S
C729 C732 1.363 . S
N730 C732 1.356 . S
N730 H742 0.984 . S
N730 H743 0.985 . S
N731 C733 1.356 . S
N731 H736 0.984 . S
N731 H737 0.985 . S
C732 C726 1.379 . S
C732 C729 1.363 . S
C732 N730 1.356 . S
C733 C727 1.363 . S
C733 C728 1.379 . S
C733 N731 1.356 . S
N734 C726 1.356 . S
N734 H740 0.984 . S
N734 H741 0.984 . S
N735 C728 1.356 . S
N735 H738 0.984 . S
N735 H739 0.985 . S
H736 N731 0.984 . S
H737 N731 0.985 . S
H738 N735 0.984 . S
H739 N735 0.985 . S
H740 N734 0.984 . S
H741 N734 0.984 . S
H742 N730 0.984 . S
H743 N730 0.985 . S
C744 C745 1.363 . S
C744 C750 1.379 . S
C744 N752 1.356 . S
C745 C744 1.363 . S
C745 C751 1.363 . S
C746 C747 1.363 . S
C746 C751 1.379 . S
C746 N753 1.356 . S
C747 C746 1.363 . S
C747 C750 1.363 . S
N748 C750 1.356 . S
N748 H760 0.984 . S
N748 H761 0.985 . S
N749 C751 1.356 . S
N749 H754 0.984 . S
N749 H755 0.985 . S
C750 C744 1.379 . S
C750 C747 1.363 . S
C750 N748 1.356 . S
C751 C745 1.363 . S
C751 C746 1.379 . S
C751 N749 1.356 . S
N752 C744 1.356 . S
N752 H758 0.984 . S
N752 H759 0.984 . S
N753 C746 1.356 . S
N753 H756 0.984 . S
N753 H757 0.985 . S
H754 N749 0.984 . S
H755 N749 0.985 . S
H756 N753 0.984 . S
H757 N753 0.985 . S
H758 N752 0.984 . S
H759 N752 0.984 . S
H760 N748 0.984 . S
H761 N748 0.985 . S
C762 C763 1.363 . S
C762 C768 1.379 . S
C762 N770 1.356 . S
C763 C762 1.363 . S
C763 C769 1.363 . S
C764 C765 1.363 . S
C764 C769 1.379 . S
C764 N771 1.356 . S
C765 C764 1.363 . S
C765 C768 1.363 . S
N766 C768 1.356 . S
N766 H778 0.984 . S
N766 H779 0.985 . S
N767 C769 1.356 . S
N767 H772 0.984 . S
N767 H773 0.985 . S
C768 C762 1.379 . S
C768 C765 1.363 . S
C768 N766 1.356 . S
C769 C763 1.363 . S
C769 C764 1.379 . S
C769 N767 1.356 . S
N770 C762 1.356 . S
N770 H776 0.984 . S
N770 H777 0.984 . S
N771 C764 1.356 . S
N771 H774 0.984 . S
N771 H775 0.985 . S
H772 N767 0.984 . S
H773 N767 0.985 . S
H774 N771 0.984 . S
H775 N771 0.985 . S
H776 N770 0.984 . S
H777 N770 0.984 . S
H778 N766 0.984 . S
H779 N766 0.985 . S
C780 C781 1.363 . S
C780 C786 1.379 . S
C780 N788 1.356 . S
C781 C780 1.363 . S
C781 C787 1.363 . S
C782 C783 1.363 . S
C782 C787 1.379 . S
C782 N789 1.356 . S
C783 C782 1.363 . S
C783 C786 1.363 . S
N784 C786 1.356 . S
N784 H796 0.984 . S
N784 H797 0.985 . S
N785 C787 1.356 . S
N785 H790 0.984 . S
N785 H791 0.985 . S
C786 C780 1.379 . S
C786 C783 1.363 . S
C786 N784 1.356 . S
C787 C781 1.363 . S
C787 C782 1.379 . S
C787 N785 1.356 . S
N788 C780 1.356 . S
N788 H794 0.984 . S
N788 H795 0.984 . S
N789 C782 1.356 . S
N789 H792 0.984 . S
N789 H793 0.985 . S
H790 N785 0.984 . S
H791 N785 0.985 . S
H792 N789 0.984 . S
H793 N789 0.985 . S
H794 N788 0.984 . S
H795 N788 0.984 . S
H796 N784 0.984 . S
H797 N784 0.985 . S
C798 C799 1.363 . S
C798 C804 1.379 . S
C798 N806 1.356 . S
C799 C798 1.363 . S
C799 C805 1.363 . S
C800 C801 1.363 . S
C800 C805 1.379 . S
C800 N807 1.356 . S
C801 C800 1.363 . S
C801 C804 1.363 . S
N802 C804 1.356 . S
N802 H814 0.984 . S
N802 H815 0.985 1_556 S
N803 C805 1.356 . S
N803 H808 0.984 . S
N803 H809 0.985 . S
C804 C798 1.379 . S
C804 C801 1.363 . S
C804 N802 1.356 . S
C805 C799 1.363 . S
C805 C800 1.379 . S
C805 N803 1.356 . S
N806 C798 1.356 . S
N806 H812 0.984 . S
N806 H813 0.984 . S
N807 C800 1.356 . S
N807 H810 0.984 1_556 S
N807 H811 0.985 . S
H808 N803 0.984 . S
H809 N803 0.985 . S
H810 N807 0.984 1_554 S
H811 N807 0.985 . S
H812 N806 0.984 . S
H813 N806 0.984 . S
H814 N802 0.984 . S
H815 N802 0.985 1_554 S
C816 C817 1.363 . S
C816 C822 1.379 . S
C816 N824 1.356 1_565 S
C817 C816 1.363 . S
C817 C823 1.363 . S
C818 C819 1.363 . S
C818 C823 1.379 . S
C818 N825 1.356 . S
C819 C818 1.363 . S
C819 C822 1.363 . S
N820 C822 1.356 . S
N820 H832 0.984 . S
N820 H833 0.985 . S
N821 C823 1.356 . S
N821 H826 0.984 . S
N821 H827 0.985 . S
C822 C816 1.379 . S
C822 C819 1.363 . S
C822 N820 1.356 . S
C823 C817 1.363 . S
C823 C818 1.379 . S
C823 N821 1.356 . S
N824 C816 1.356 1_545 S
N824 H830 0.984 . S
N824 H831 0.984 . S
N825 C818 1.356 . S
N825 H828 0.984 . S
N825 H829 0.985 . S
H826 N821 0.984 . S
H827 N821 0.985 . S
H828 N825 0.984 . S
H829 N825 0.985 . S
H830 N824 0.984 . S
H831 N824 0.984 . S
H832 N820 0.984 . S
H833 N820 0.985 . S
C834 C835 1.363 . S
C834 C840 1.379 . S
C834 N842 1.356 . S
C835 C834 1.363 . S
C835 C841 1.363 . S
C836 C837 1.363 . S
C836 C841 1.379 . S
C836 N843 1.356 . S
C837 C836 1.363 . S
C837 C840 1.363 . S
N838 C840 1.356 . S
N838 H850 0.984 . S
N838 H851 0.985 . S
N839 C841 1.356 . S
N839 H844 0.984 . S
N839 H845 0.985 . S
C840 C834 1.379 . S
C840 C837 1.363 . S
C840 N838 1.356 . S
C841 C835 1.363 . S
C841 C836 1.379 . S
C841 N839 1.356 . S
N842 C834 1.356 . S
N842 H848 0.984 . S
N842 H849 0.984 . S
N843 C836 1.356 . S
N843 H846 0.984 . S
N843 H847 0.985 . S
H844 N839 0.984 . S
H845 N839 0.985 . S
H846 N843 0.984 . S
H847 N843 0.985 . S
H848 N842 0.984 . S
H849 N842 0.984 . S
H850 N838 0.984 . S
H851 N838 0.985 . S
C852 C853 1.363 . S
C852 C858 1.379 . S
C852 N860 1.356 . S
C853 C852 1.363 . S
C853 C859 1.363 . S
C854 C855 1.363 . S
C854 C859 1.379 . S
C854 N861 1.356 . S
C855 C854 1.363 . S
C855 C858 1.363 . S
N856 C858 1.356 . S
N856 H868 0.984 . S
N856 H869 0.985 . S
N857 C859 1.356 . S
N857 H862 0.984 . S
N857 H863 0.985 . S
C858 C852 1.379 . S
C858 C855 1.363 . S
C858 N856 1.356 . S
C859 C853 1.363 . S
C859 C854 1.379 . S
C859 N857 1.356 . S
N860 C852 1.356 . S
N860 H866 0.984 . S
N860 H867 0.984 . S
N861 C854 1.356 . S
N861 H864 0.984 . S
N861 H865 0.985 . S
H862 N857 0.984 . S
H863 N857 0.985 . S
H864 N861 0.984 . S
H865 N861 0.985 . S
H866 N860 0.984 . S
H867 N860 0.984 . S
H868 N856 0.984 . S
H869 N856 0.985 . S
C870 C871 1.363 . S
C870 C876 1.379 . S
C870 N878 1.356 . S
C871 C870 1.363 . S
C871 C877 1.363 . S
C872 C873 1.363 . S
C872 C877 1.379 . S
C872 N879 1.356 . S
C873 C872 1.363 . S
C873 C876 1.363 . S
N874 C876 1.356 . S
N874 H886 0.984 . S
N874 H887 0.985 . S
N875 C877 1.356 . S
N875 H880 0.984 . S
N875 H881 0.985 . S
C876 C870 1.379 . S
C876 C873 1.363 . S
C876 N874 1.356 . S
C877 C871 1.363 . S
C877 C872 1.379 . S
C877 N875 1.356 . S
N878 C870 1.356 . S
N878 H884 0.984 . S
N878 H885 0.984 . S
N879 C872 1.356 . S
N879 H882 0.984 . S
N879 H883 0.985 . S
H880 N875 0.984 . S
H881 N875 0.985 . S
H882 N879 0.984 . S
H883 N879 0.985 . S
H884 N878 0.984 . S
H885 N878 0.984 . S
H886 N874 0.984 . S
H887 N874 0.985 . S
C888 C889 1.363 . S
C888 C894 1.379 . S
C888 N896 1.356 . S
C889 C888 1.363 . S
C889 C895 1.363 . S
C890 C891 1.363 . S
C890 C895 1.379 . S
C890 N897 1.356 . S
C891 C890 1.363 . S
C891 C894 1.363 . S
N892 C894 1.356 . S
N892 H904 0.984 . S
N892 H905 0.985 . S
N893 C895 1.356 . S
N893 H898 0.984 . S
N893 H899 0.985 . S
C894 C888 1.379 . S
C894 C891 1.363 . S
C894 N892 1.356 . S
C895 C889 1.363 . S
C895 C890 1.379 . S
C895 N893 1.356 . S
N896 C888 1.356 . S
N896 H902 0.984 . S
N896 H903 0.984 . S
N897 C890 1.356 . S
N897 H900 0.984 . S
N897 H901 0.985 . S
H898 N893 0.984 . S
H899 N893 0.985 . S
H900 N897 0.984 . S
H901 N897 0.985 . S
H902 N896 0.984 . S
H903 N896 0.984 . S
H904 N892 0.984 . S
H905 N892 0.985 . S
C906 C907 1.363 . S
C906 C912 1.379 . S
C906 N914 1.356 . S
C907 C906 1.363 . S
C907 C913 1.363 . S
C908 C909 1.363 . S
C908 C913 1.379 . S
C908 N915 1.356 . S
C909 C908 1.363 . S
C909 C912 1.363 . S
N910 C912 1.356 . S
N910 H922 0.984 . S
N910 H923 0.985 . S
N911 C913 1.356 . S
N911 H916 0.984 . S
N911 H917 0.985 . S
C912 C906 1.379 . S
C912 C909 1.363 . S
C912 N910 1.356 . S
C913 C907 1.363 . S
C913 C908 1.379 . S
C913 N911 1.356 . S
N914 C906 1.356 . S
N914 H920 0.984 . S
N914 H921 0.984 . S
N915 C908 1.356 . S
N915 H918 0.984 . S
N915 H919 0.985 . S
H916 N911 0.984 . S
H917 N911 0.985 . S
H918 N915 0.984 . S
H919 N915 0.985 . S
H920 N914 0.984 . S
H921 N914 0.984 . S
H922 N910 0.984 . S
H923 N910 0.985 . S
C924 C925 1.363 . S
C924 C930 1.379 1_554 S
C924 N932 1.356 . S
C925 C924 1.363 . S
C925 C931 1.363 . S
C926 C927 1.363 . S
C926 C931 1.379 1_556 S
C926 N933 1.356 . S
C927 C926 1.363 . S
C927 C930 1.363 . S
N928 C930 1.356 . S
N928 H940 0.984 . S
N928 H941 0.985 . S
N929 C931 1.356 . S
N929 H934 0.984 . S
N929 H935 0.985 . S
C930 C924 1.379 1_556 S
C930 C927 1.363 . S
C930 N928 1.356 . S
C931 C925 1.363 . S
C931 C926 1.379 1_554 S
C931 N929 1.356 . S
N932 C924 1.356 . S
N932 H938 0.984 . S
N932 H939 0.984 . S
N933 C926 1.356 . S
N933 H936 0.984 . S
N933 H937 0.985 . S
H934 N929 0.984 . S
H935 N929 0.985 . S
H936 N933 0.984 . S
H937 N933 0.985 . S
H938 N932 0.984 . S
H939 N932 0.984 . S
H940 N928 0.984 . S
H941 N928 0.985 . S
C942 C943 1.363 . S
C942 C948 1.379 . S
C942 N950 1.356 . S
C943 C942 1.363 . S
C943 C949 1.363 . S
C944 C945 1.363 . S
C944 C949 1.379 . S
C944 N951 1.356 . S
C945 C944 1.363 . S
C945 C948 1.363 . S
N946 C948 1.356 . S
N946 H958 0.984 . S
N946 H959 0.985 . S
N947 C949 1.356 . S
N947 H952 0.984 . S
N947 H953 0.985 . S
C948 C942 1.379 . S
C948 C945 1.363 . S
C948 N946 1.356 . S
C949 C943 1.363 . S
C949 C944 1.379 . S
C949 N947 1.356 . S
N950 C942 1.356 . S
N950 H956 0.984 . S
N950 H957 0.984 . S
N951 C944 1.356 . S
N951 H954 0.984 . S
N951 H955 0.985 . S
H952 N947 0.984 . S
H953 N947 0.985 . S
H954 N951 0.984 . S
H955 N951 0.985 . S
H956 N950 0.984 . S
H957 N950 0.984 . S
H958 N946 0.984 . S
H959 N946 0.985 . S
C531 C519 1.041 . S
C529 C51 1.375 . S
C547 C125 1.532 . S
C549 C449 1.189 . S
C565 C217 2.484 . S
C567 C469 2.558 . S
C583 C291 1.497 . S
C585 C483 1.507 . S
C603 C491 0.849 . S
C601 C347 1.072 . S
C619 C421 0.977 . S
C621 C505 0.833 . S
C637 C143 2.259 . S
C639 C463 1.910 . S
C655 C199 1.547 . S
C657 C477 1.244 . S
C673 C273 0.649 . S
C675 C497 0.642 . S
C693 C511 1.704 . S
C691 C365 1.630 . S
C711 C525 1.909 . S
C709 C439 1.919 . S
C729 C455 2.443 . S
C727 C69 2.368 . S
C745 C63 1.515 . S
C747 C462 1.653 . S
C763 C137 1.612 . S
C765 C476 1.733 . S
C783 C498 1.390 . S
C781 C187 1.335 . S
C799 C261 1.499 . S
C801 C512 1.536 1_556 S
C819 C526 1.680 . S
C817 C359 1.450 . S
C837 C456 1.325 . S
C835 C433 1.198 . S
C855 C518 1.776 . S
C853 C113 1.685 . S
C871 C211 1.390 . S
C873 C448 1.513 . S
C891 C470 1.827 . S
C889 C285 1.663 . S
C907 C335 1.389 . S
C909 C484 1.482 . S
C925 C409 1.354 . S
C927 C490 1.455 . S
C943 C39 1.648 . S
C945 C504 1.720 . S
