# Generated by pormake.
# Topology tsx, (6,3)-cn, num edge types: 1
# Building blocks:
#     Node 0, Type 0, BuildingBlock: FUNLAD_clean_sbu_0, # of connection points: 6
#     Node 1, Type 0, BuildingBlock: FUNLAD_clean_sbu_0, # of connection points: 6
#     Node 2, Type 1, BuildingBlock: PAMTOO_clean_linker_0, # of connection points: 3
#     Node 3, Type 1, BuildingBlock: PAMTOO_clean_linker_0, # of connection points: 3
#     Node 4, Type 1, BuildingBlock: PAMTOO_clean_linker_0, # of connection points: 3
#     Node 5, Type 1, BuildingBlock: PAMTOO_clean_linker_0, # of connection points: 3
#     Edge 6, Type (0, 1), BuildingBlock: XUDNAN_clean_linker_2, # of connection points: 2
#     Edge 7, Type (0, 1), BuildingBlock: XUDNAN_clean_linker_2, # of connection points: 2
#     Edge 8, Type (0, 1), BuildingBlock: XUDNAN_clean_linker_2, # of connection points: 2
#     Edge 9, Type (0, 1), BuildingBlock: XUDNAN_clean_linker_2, # of connection points: 2
#     Edge 10, Type (0, 1), BuildingBlock: XUDNAN_clean_linker_2, # of connection points: 2
#     Edge 11, Type (0, 1), BuildingBlock: XUDNAN_clean_linker_2, # of connection points: 2
#     Edge 12, Type (0, 1), BuildingBlock: XUDNAN_clean_linker_2, # of connection points: 2
#     Edge 13, Type (0, 1), BuildingBlock: XUDNAN_clean_linker_2, # of connection points: 2
#     Edge 14, Type (0, 1), BuildingBlock: XUDNAN_clean_linker_2, # of connection points: 2
#     Edge 15, Type (0, 1), BuildingBlock: XUDNAN_clean_linker_2, # of connection points: 2
#     Edge 16, Type (0, 1), BuildingBlock: XUDNAN_clean_linker_2, # of connection points: 2
#     Edge 17, Type (0, 1), BuildingBlock: XUDNAN_clean_linker_2, # of connection points: 2
# Relax obj value: 0.126
# Max RMSD: 0.131
# Mean RMSD: 0.120
data_MOF--net-tsx--node1-FUNLAD_clean_sbu_0--node2-PAMTOO_clean_linker_0--edge1-XUDNAN_clean_linker_2
_symmetry_space_group_name_H-M    P1
_symmetry_Int_Tables_number       1
_symmetry_cell_setting            triclinic
loop_
_symmetry_equiv_pos_as_xyz
'x, y, z'
_cell_length_a     19.230029
_cell_length_b     21.343925
_cell_length_c     39.844679
_cell_angle_alpha  82.324994
_cell_angle_beta   92.368209
_cell_angle_gamma 89.828428
loop_
_atom_site_label
_atom_site_type_symbol
_atom_site_fract_x
_atom_site_fract_y
_atom_site_fract_z
_atom_type_partial_charge
C0 C 0.90296 0.93518 -0.0095 0.0
N1 N 1.00438 0.97138 0.0802 0.0
C2 C 0.94261 0.96406 0.09572 0.0
C3 C 0.94157 0.9493 0.1309 0.0
C4 C 1.00465 0.9433 0.14998 0.0
C5 C 0.06748 0.94953 0.13335 0.0
C6 C 0.06616 0.96302 0.09818 0.0
Zn7 Zn 0.0066 0.99935 0.02949 0.0
C8 C 0.10319 0.91484 -0.0026 0.0
N9 N 0.01863 0.05644 0.92353 0.0
C10 C 0.95728 0.07631 0.90725 0.0
C11 C 0.07833 0.05509 0.90644 0.0
C12 C 0.07742 0.07357 0.87143 0.0
C13 C 0.01479 0.09469 0.85423 0.0
C14 C 0.95435 0.09639 0.87251 0.0
Zn15 Zn 0.01762 0.02791 0.97436 0.0
O16 O 0.92267 0.94085 0.0207 0.0
C17 C 0.91912 0.1106 0.00695 0.0
O18 O 0.93381 0.96546 0.96587 0.0
H19 H 0.12652 0.03927 0.91991 0.0
H20 H 0.89415 0.97118 0.08092 0.0
H21 H 0.91016 0.07607 0.92114 0.0
O22 O 0.9355 0.07341 0.03368 0.0
O23 O 0.94614 0.10253 0.97925 0.0
H24 H 0.11462 0.9683 0.08531 0.0
O25 O 0.10123 0.08914 0.98313 0.0
O26 O 0.09118 0.05977 0.03757 0.0
O27 O 0.08899 0.95311 0.9707 0.0
O28 O 0.07628 0.92382 0.025 0.0
C29 C 0.12154 0.09255 0.01359 0.0
H30 H 0.89225 0.94516 0.14317 0.0
H31 H 0.11699 0.94488 0.14749 0.0
H32 H 0.12502 0.07171 0.85796 0.0
H33 H 0.90497 0.11155 0.8599 0.0
C34 C 0.44952 0.43983 0.49224 0.0
N35 N 0.57974 0.48755 0.57175 0.0
C36 C 0.52331 0.48304 0.59136 0.0
C37 C 0.53181 0.48036 0.6264 0.0
C38 C 0.59903 0.48259 0.64131 0.0
C39 C 0.65652 0.48275 0.6207 0.0
C40 C 0.64561 0.48514 0.58572 0.0
Zn41 Zn 0.56366 0.51244 0.52105 0.0
C42 C 0.65149 0.44279 0.47992 0.0
N43 N 0.52681 0.57232 0.41578 0.0
C44 C 0.46083 0.58192 0.40227 0.0
C45 C 0.58274 0.57654 0.3958 0.0
C46 C 0.57327 0.58825 0.36067 0.0
C47 C 0.50577 0.59688 0.3461 0.0
C48 C 0.4491 0.59498 0.36721 0.0
Zn49 Zn 0.54298 0.54581 0.4665 0.0
O50 O 0.48291 0.44612 0.51977 0.0
C51 C 0.45616 0.61618 0.50726 0.0
O52 O 0.4649 0.47464 0.46515 0.0
H53 H 0.63474 0.5693 0.40707 0.0
H54 H 0.47143 0.48553 0.57969 0.0
H55 H 0.41711 0.5779 0.41862 0.0
O56 O 0.4908 0.58315 0.53113 0.0
O57 O 0.46655 0.60951 0.47673 0.0
H58 H 0.6897 0.48867 0.56959 0.0
O59 O 0.62078 0.61781 0.46872 0.0
O60 O 0.64382 0.57827 0.5217 0.0
O61 O 0.62012 0.48067 0.4569 0.0
O62 O 0.63672 0.44355 0.51067 0.0
C63 C 0.65663 0.6182 0.49625 0.0
H64 H 0.48603 0.48084 0.64132 0.0
H65 H 0.70919 0.48362 0.63135 0.0
H66 H 0.61812 0.5899 0.345 0.0
H67 H 0.39632 0.60111 0.35666 0.0
H68 H 0.12686 0.88519 0.40767 0.0
H69 H 0.01265 0.05935 0.38383 0.0
H70 H 0.10064 0.00733 0.48443 0.0
H71 H 0.95789 0.06147 0.48155 0.0
C72 C 0.95676 0.08665 0.45548 0.0
O73 O 0.02384 0.09063 0.44456 0.0
H74 H 0.92362 0.05872 0.43941 0.0
C75 C 0.10608 0.92769 0.41582 0.0
C76 C 0.1192 0.94057 0.44924 0.0
C77 C 0.06779 0.97005 0.39223 0.0
C78 C 0.04343 0.02663 0.40171 0.0
C79 C 0.0548 0.03957 0.43493 0.0
C80 C 0.09305 0.99703 0.45865 0.0
H81 H 0.07257 0.20259 0.59775 0.0
H82 H 0.95096 0.03335 0.60966 0.0
H83 H 0.04934 0.0906 0.51585 0.0
H84 H 0.87813 0.03712 0.51974 0.0
C85 C 0.89586 1.00082 0.54091 0.0
O86 O 0.96625 0.00705 0.54827 0.0
H87 H 0.86561 0.00777 0.56334 0.0
C88 C 0.05026 0.1626 0.58711 0.0
C89 C 0.06645 0.15187 0.55428 0.0
C90 C 0.00927 0.11991 0.60725 0.0
C91 C 0.98175 0.06726 0.59403 0.0
C92 C 0.99306 0.05838 0.56051 0.0
C93 C 0.03623 0.10022 0.54078 0.0
H94 H 0.6314 0.43479 0.89077 0.0
H95 H 0.48014 0.58458 0.88069 0.0
H96 H 0.52115 0.47352 0.97772 0.0
H97 H 0.36164 0.50779 0.94939 0.0
C98 C 0.37522 0.55676 0.93868 0.0
O99 O 0.44553 0.56661 0.94399 0.0
H100 H 0.36165 0.56223 0.91101 0.0
C101 C 0.59453 0.46269 0.90252 0.0
C102 C 0.58387 0.4498 0.93742 0.0
C103 C 0.55763 0.51099 0.8822 0.0
C104 C 0.50872 0.54693 0.89641 0.0
C105 C 0.49438 0.53257 0.93073 0.0
C106 C 0.5316 0.48378 0.95117 0.0
H107 H 0.57115 0.66593 0.09143 0.0
H108 H 0.46417 0.48922 0.10691 0.0
H109 H 0.54615 0.55233 0.01 0.0
H110 H 0.41493 0.48227 0.00425 0.0
C111 C 0.41329 0.46076 0.03107 0.0
O112 O 0.47931 0.4619 0.04579 0.0
H113 H 0.37647 0.48892 0.04405 0.0
C114 C 0.55097 0.62488 0.08111 0.0
C115 C 0.56382 0.61553 0.04756 0.0
C116 C 0.5145 0.58011 0.10241 0.0
C117 C 0.4922 0.52435 0.09062 0.0
C118 C 0.50392 0.51452 0.05736 0.0
C119 C 0.53899 0.56007 0.03585 0.0
H120 H 0.1807 0.1864 0.97023 0.0
H121 H 0.18822 0.09807 0.07501 0.0
H122 H 0.27486 0.17612 0.08952 0.0
H123 H 0.36697 0.23198 0.96687 0.0
H124 H 0.34708 0.306 0.94076 0.0
H125 H 0.29245 0.23836 0.9376 0.0
H126 H 0.18466 0.30355 0.94989 0.0
H127 H 0.23886 0.37118 0.9531 0.0
H128 H 0.18543 0.34143 0.98772 0.0
H129 H 0.35049 0.26995 0.09405 0.0
H130 H 0.40896 0.37384 0.08799 0.0
H131 H 0.35291 0.40077 0.98055 0.0
C132 C 0.20173 0.18262 -0.00393 0.0
C133 C 0.17791 0.13597 0.02145 0.0
C134 C 0.20574 0.13334 0.05511 0.0
C135 C 0.25523 0.1773 0.0636 0.0
C136 C 0.27662 0.22344 0.03813 0.0
C137 C 0.25098 0.22631 0.00501 0.0
C138 C 0.27825 0.28365 0.98304 0.0
C139 C 0.32391 0.26379 0.95544 0.0
C140 C 0.21822 0.32753 0.96755 0.0
C141 C 0.32139 0.31356 0.0092 0.0
C142 C 0.32057 0.27765 0.04073 0.0
C143 C 0.35275 0.29784 0.06937 0.0
C144 C 0.38586 0.35667 0.06573 0.0
C145 C 0.3866 0.39433 0.03372 0.0
C146 C 0.3545 0.37213 0.00513 0.0
H147 H 0.19251 0.89143 0.94809 0.0
H148 H 0.11058 0.80873 0.0438 0.0
H149 H 0.17446 0.70974 0.0402 0.0
H150 H 0.18461 0.75547 0.907 0.0
H151 H 0.26558 0.76885 0.88605 0.0
H152 H 0.21652 0.83479 0.89679 0.0
H153 H 0.32392 0.87071 0.93053 0.0
H154 H 0.37352 0.80504 0.91969 0.0
H155 H 0.36596 0.81576 0.96351 0.0
H156 H 0.23693 0.61655 0.02358 0.0
H157 H 0.30293 0.53796 -0.00279 0.0
H158 H 0.35295 0.68222 0.91481 0.0
C159 C 0.18867 0.8527 0.96845 0.0
C160 C 0.14642 0.85777 -0.00381 0.0
C161 C 0.14284 0.80609 0.02237 0.0
C162 C 0.17881 0.74957 0.02054 0.0
C163 C 0.21915 0.74574 -0.00734 0.0
C164 C 0.2253 0.79617 0.96734 0.0
C165 C 0.27193 0.77926 0.94005 0.0
C166 C 0.23227 0.78492 0.90543 0.0
C167 C 0.33774 0.82012 0.93836 0.0
C168 C 0.28919 0.71093 0.95351 0.0
C169 C 0.25811 0.69259 0.98388 0.0
C170 C 0.26288 0.6307 0.00022 0.0
C171 C 0.3008 0.58645 0.98521 0.0
C172 C 0.33412 0.60445 0.95447 0.0
C173 C 0.32845 0.66759 0.93855 0.0
H174 H 0.77774 0.92908 0.01906 0.0
H175 H 0.90365 0.84151 0.95036 0.0
H176 H 0.81799 0.75498 0.94992 0.0
H177 H 0.73283 0.79892 0.06937 0.0
H178 H 0.6441 0.8209 0.07542 0.0
H179 H 0.70766 0.88114 0.06528 0.0
H180 H 0.63152 0.92949 0.01296 0.0
H181 H 0.56692 0.86967 0.0232 0.0
H182 H 0.60294 0.88015 0.98179 0.0
H183 H 0.734 0.66799 0.96789 0.0
H184 H 0.65339 0.59307 -0.0022 0.0
H185 H 0.5718 0.74434 0.04834 0.0
C186 C 0.78567 0.89275 0.003 0.0
C187 C 0.8465 0.89147 0.98464 0.0
C188 C 0.85651 0.84325 0.96419 0.0
C189 C 0.80825 0.79409 0.96385 0.0
C190 C 0.74953 0.79542 0.98321 0.0
C191 C 0.73707 0.8446 0.00161 0.0
C192 C 0.67305 0.83284 0.02224 0.0
C193 C 0.69052 0.83346 0.06031 0.0
C194 C 0.61517 0.88089 0.00926 0.0
C195 C 0.65436 0.76734 0.01461 0.0
C196 C 0.69857 0.74663 -0.00815 0.0
C197 C 0.6974 0.68444 0.98477 0.0
C198 C 0.65094 0.64212 0.0019 0.0
C199 C 0.60571 0.66224 0.02573 0.0
C200 C 0.606 0.72655 0.03084 0.0
H201 H 0.91388 0.22499 0.9677 0.0
H202 H 0.80582 0.10911 0.04645 0.0
H203 H 0.71079 0.18904 0.04178 0.0
H204 H 0.86336 0.37932 -0.0061 0.0
H205 H 0.85659 0.41674 0.95057 0.0
H206 H 0.91808 0.35306 0.96277 0.0
H207 H 0.86354 0.29195 0.91628 0.0
H208 H 0.80174 0.35506 0.9041 0.0
H209 H 0.77159 0.27563 0.91599 0.0
H210 H 0.62004 0.2757 0.022 0.0
H211 H 0.54706 0.36298 -0.00819 0.0
H212 H 0.72202 0.42602 0.93086 0.0
C213 C 0.8708 0.21706 0.98439 0.0
C214 C 0.86681 0.16111 0.00736 0.0
C215 C 0.80984 0.15212 0.02885 0.0
C216 C 0.7557 0.19716 0.02633 0.0
C217 C 0.76048 0.25149 0.00284 0.0
C218 C 0.81746 0.26207 0.98279 0.0
C219 C 0.80962 0.32292 0.95878 0.0
C220 C 0.86521 0.37085 0.96701 0.0
C221 C 0.81172 0.31061 0.92161 0.0
C222 C 0.73796 0.34361 0.96727 0.0
C223 C 0.71019 0.3022 -0.00723 0.0
C224 C 0.64193 0.30918 0.00252 0.0
C225 C 0.60087 0.35908 0.9853 0.0
C226 C 0.62838 0.40127 0.95867 0.0
C227 C 0.69864 0.39416 0.95061 0.0
H228 H 0.66171 0.74115 0.46521 0.0
H229 H 0.77296 0.60194 0.53719 0.0
H230 H 0.85643 0.6832 0.55068 0.0
H231 H 0.81767 0.83883 0.43744 0.0
H232 H 0.76917 0.91173 0.43536 0.0
H233 H 0.72569 0.84064 0.42652 0.0
H234 H 0.6376 0.8541 0.47258 0.0
H235 H 0.68096 0.9248 0.4817 0.0
H236 H 0.66943 0.8605 0.51518 0.0
H237 H 0.91673 0.78033 0.5627 0.0
H238 H 0.95125 0.88821 0.57195 0.0
H239 H 0.80182 0.9665 0.49286 0.0
C240 C 0.70514 0.72756 0.48288 0.0
C241 C 0.71151 0.66526 0.4999 0.0
C242 C 0.76749 0.64942 0.52377 0.0
C243 C 0.81532 0.69517 0.5315 0.0
C244 C 0.80648 0.75668 0.51519 0.0
C245 C 0.75308 0.77307 0.49123 0.0
C246 C 0.75093 0.84395 0.48033 0.0
C247 C 0.76682 0.8597 0.44267 0.0
C248 C 0.68057 0.87248 0.48792 0.0
C249 C 0.80956 0.86481 0.50286 0.0
C250 C 0.84161 0.81353 0.52232 0.0
C251 C 0.89338 0.82084 0.54698 0.0
C252 C 0.91271 0.88221 0.55206 0.0
C253 C 0.88069 0.93547 0.5324 0.0
C254 C 0.8286 0.92648 0.50746 0.0
H255 H 0.72442 0.34991 0.52173 0.0
H256 H 0.69878 0.43624 0.41683 0.0
H257 H 0.78471 0.36153 0.40034 0.0
H258 H 0.913 0.31395 0.52002 0.0
H259 H 0.90554 0.23946 0.5468 0.0
H260 H 0.84746 0.304 0.55133 0.0
H261 H 0.74124 0.23253 0.54236 0.0
H262 H 0.79912 0.16802 0.53799 0.0
H263 H 0.73446 0.19357 0.50491 0.0
H264 H 0.86521 0.27248 0.39415 0.0
H265 H 0.9322 0.17212 0.39899 0.0
H266 H 0.90681 0.14472 0.5075 0.0
C267 C 0.73761 0.35365 0.49538 0.0
C268 C 0.70489 0.39898 0.4706 0.0
C269 C 0.72308 0.40192 0.4363 0.0
C270 C 0.77218 0.35993 0.42667 0.0
C271 C 0.80303 0.31551 0.45163 0.0
C272 C 0.78666 0.31206 0.4853 0.0
C273 C 0.82382 0.25695 0.50666 0.0
C274 C 0.87552 0.28 0.53274 0.0
C275 C 0.77153 0.21 0.52398 0.0
C276 C 0.86161 0.22894 0.47952 0.0
C277 C 0.8498 0.26394 0.44803 0.0
C278 C 0.87575 0.24517 0.41874 0.0
C279 C 0.91367 0.18838 0.42167 0.0
C280 C 0.92483 0.15124 0.45357 0.0
C281 C 0.89963 0.17249 0.48287 0.0
H282 H 0.41123 0.3544 0.54524 0.0
H283 H 0.3556 0.42295 0.44006 0.0
H284 H 0.25394 0.35159 0.44266 0.0
H285 H 0.35948 0.19053 0.54308 0.0
H286 H 0.32773 0.18304 0.58535 0.0
H287 H 0.39824 0.23596 0.5739 0.0
H288 H 0.32845 0.32853 0.5927 0.0
H289 H 0.25768 0.27605 0.60403 0.0
H290 H 0.24223 0.34672 0.57442 0.0
H291 H 0.15282 0.27585 0.45882 0.0
H292 H 0.06419 0.2049 0.48701 0.0
H293 H 0.19038 0.18755 0.58059 0.0
C294 C 0.37832 0.35402 0.52254 0.0
C295 C 0.39151 0.39421 0.49243 0.0
C296 C 0.34674 0.39231 0.4634 0.0
C297 C 0.28886 0.35194 0.46464 0.0
C298 C 0.27687 0.31355 0.49501 0.0
C299 C 0.32083 0.31417 0.52333 0.0
C300 C 0.29574 0.27071 0.55336 0.0
C301 C 0.34844 0.21687 0.56457 0.0
C302 C 0.28009 0.30773 0.58285 0.0
C303 C 0.22992 0.24635 0.53787 0.0
C304 C 0.21972 0.27093 0.50414 0.0
C305 C 0.16071 0.25608 0.48517 0.0
C306 C 0.11075 0.21571 0.50129 0.0
C307 C 0.12008 0.19136 0.53605 0.0
C308 C 0.18114 0.20625 0.55414 0.0
H309 H 0.32179 0.62182 0.48532 0.0
H310 H 0.47521 0.71517 0.54331 0.0
H311 H 0.39281 0.80441 0.5447 0.0
H312 H 0.26436 0.74638 0.43302 0.0
H313 H 0.17334 0.72653 0.43142 0.0
H314 H 0.23756 0.6651 0.44158 0.0
H315 H 0.17814 0.6268 0.4978 0.0
H316 H 0.11298 0.6881 0.48767 0.0
H317 H 0.16278 0.68191 0.52731 0.0
H318 H 0.30552 0.89224 0.52748 0.0
H319 H 0.21957 0.96714 0.49651 0.0
H320 H 0.11693 0.81157 0.45548 0.0
C321 C 0.33665 0.66006 0.49942 0.0
C322 C 0.40397 0.66218 0.51437 0.0
C323 C 0.42308 0.71287 0.53216 0.0
C324 C 0.37666 0.76351 0.53307 0.0
C325 C 0.31097 0.76125 0.51697 0.0
C326 C 0.29037 0.70984 0.50128 0.0
C327 C 0.22018 0.72116 0.48296 0.0
C328 C 0.22419 0.71444 0.44503 0.0
C329 C 0.16527 0.67686 0.49996 0.0
C330 C 0.207 0.78883 0.48835 0.0
C331 C 0.25918 0.81105 0.50847 0.0
C332 C 0.26312 0.87484 0.51268 0.0
C333 C 0.21392 0.91712 0.49502 0.0
C334 C 0.16171 0.8953 0.47337 0.0
C335 C 0.15654 0.82987 0.47156 0.0
H336 H 0.06143 0.02258 0.19087 0.0
H337 H 0.94886 0.84677 0.19228 0.0
H338 H 0.95338 0.83336 0.25522 0.0
H339 H 0.17483 0.97724 0.26333 0.0
H340 H 0.17096 0.05322 0.27825 0.0
H341 H 0.15946 0.04786 0.23365 0.0
H342 H 0.04066 0.10625 0.23203 0.0
H343 H 0.05185 0.1119 0.27662 0.0
H344 H 0.97498 0.07563 0.26068 0.0
H345 H 0.97532 0.83788 0.31783 0.0
H346 H 1.00409 0.86406 0.37553 0.0
H347 H 0.0957 0.04027 0.3322 0.0
C348 C 0.03797 0.98123 0.20456 0.0
C349 C 1.00541 0.93526 0.1872 0.0
C350 C 0.97411 0.8822 0.20551 0.0
C351 C 0.97663 0.87425 0.24108 0.0
C352 C 0.00963 0.92041 0.25756 0.0
C353 C 0.03894 0.97324 0.23986 0.0
C354 C 0.06943 0.01692 0.26339 0.0
C355 C 0.14835 0.0242 0.25941 0.0
C356 C 0.03197 0.08149 0.25784 0.0
C357 C 0.0534 0.98018 0.2972 0.0
C358 C 0.01945 0.92437 0.29337 0.0
C359 C 1.00133 0.88166 0.32114 0.0
C360 C 0.01802 0.89672 0.35368 0.0
C361 C 0.05157 0.95421 0.35795 0.0
C362 C 0.06931 0.99637 0.3294 0.0
H363 H 0.0568 0.02407 0.80664 0.0
H364 H 0.96262 0.20404 0.81867 0.0
H365 H 0.95023 0.23082 0.75624 0.0
H366 H 0.15188 0.07757 0.73164 0.0
H367 H 0.13557 0.00636 0.71295 0.0
H368 H 0.14014 1.0036 0.75836 0.0
H369 H 0.01762 0.95324 0.7614 0.0
H370 H 0.01237 0.95646 0.71597 0.0
H371 H 0.94546 0.99332 0.73717 0.0
H372 H 0.94939 0.23772 0.69251 0.0
H373 H 0.95691 0.22268 0.63208 0.0
H374 H 0.045 0.03558 0.6625 0.0
C375 C 0.03456 0.06946 0.79602 0.0
C376 C 0.01129 0.11242 0.81715 0.0
C377 C 0.9809 0.17079 0.80264 0.0
C378 C 0.97372 0.1863 0.76734 0.0
C379 C 0.99646 0.14251 0.74713 0.0
C380 C 0.026 0.08518 0.76094 0.0
C381 C 0.04369 0.04538 0.73376 0.0
C382 C 0.1225 0.0325 0.73421 0.0
C383 C 1.0023 0.98345 0.7373 0.0
C384 C 0.01963 0.08926 0.70246 0.0
C385 C 0.99306 0.14529 0.71064 0.0
C386 C 0.96962 0.19389 0.6858 0.0
C387 C 0.97398 0.18502 0.6517 0.0
C388 C 1.00059 0.12775 0.643 0.0
C389 C 0.02321 0.07928 0.66868 0.0
H390 H 0.52981 0.42282 0.69514 0.0
H391 H 0.68698 0.56438 0.66867 0.0
H392 H 0.69235 0.58873 0.72756 0.0
H393 H 0.43765 0.50939 0.74894 0.0
H394 H 0.41859 0.44171 0.7792 0.0
H395 H 0.43021 0.43218 0.73555 0.0
H396 H 0.52726 0.34845 0.75372 0.0
H397 H 0.51513 0.35694 0.79747 0.0
H398 H 0.60012 0.36793 0.78024 0.0
H399 H 0.67591 0.60163 0.78862 0.0
H400 H 0.64539 0.59505 0.84896 0.0
H401 H 0.49847 0.44656 0.83475 0.0
C402 C 0.56576 0.45857 0.70182 0.0
C403 C 0.60816 0.49152 0.67742 0.0
C404 C 0.65485 0.53778 0.68713 0.0
C405 C 0.65779 0.5524 0.72041 0.0
C406 C 0.61386 0.5202 0.74359 0.0
C407 C 0.56936 0.47371 0.73485 0.0
C408 C 0.52708 0.44653 0.76441 0.0
C409 C 0.44875 0.45818 0.75654 0.0
C410 C 0.54341 0.37577 0.77456 0.0
C411 C 0.5543 0.48537 0.79107 0.0
C412 C 0.60418 0.52779 0.77859 0.0
C413 C 0.63692 0.56866 0.79868 0.0
C414 C 0.61907 0.56505 0.83266 0.0
C415 C 0.56912 0.52107 0.84579 0.0
C416 C 0.53607 0.48117 0.8248 0.0
H417 H 0.5506 0.51781 0.30346 0.0
H418 H 0.43583 0.69218 0.3056 0.0
H419 H 0.42164 0.7057 0.24284 0.0
H420 H 0.64283 0.56553 0.22952 0.0
H421 H 0.63678 0.49013 0.21397 0.0
H422 H 0.63595 0.49395 0.2588 0.0
H423 H 0.51885 0.43394 0.26189 0.0
H424 H 0.51933 0.42989 0.21703 0.0
H425 H 0.44583 0.4644 0.23468 0.0
H426 H 0.42831 0.70337 0.17983 0.0
H427 H 0.44781 0.6817 0.12134 0.0
H428 H 0.55192 0.50549 0.16128 0.0
C429 C 0.5224 0.55873 0.29061 0.0
C430 C 0.49471 0.60434 0.30898 0.0
C431 C 0.45729 0.65691 0.29168 0.0
C432 C 0.44914 0.6649 0.25619 0.0
C433 C 0.47771 0.61923 0.23873 0.0
C434 C 0.5128 0.56677 0.25541 0.0
C435 C 0.53836 0.52442 0.2309 0.0
C436 C 0.61821 0.51818 0.23345 0.0
C437 C 0.50349 0.45931 0.23646 0.0
C438 C 0.51349 0.56183 0.19768 0.0
C439 C 0.47884 0.61651 0.20268 0.0
C440 C 0.45445 0.66031 0.17563 0.0
C441 C 0.46588 0.64779 0.14263 0.0
C442 C 0.5006 0.59173 0.13715 0.0
C443 C 0.52415 0.54811 0.16498 0.0
loop_
_geom_bond_atom_site_label_1
_geom_bond_atom_site_label_2
_geom_bond_distance
_geom_bond_site_symmetry_2
_ccdc_geom_bond_type
C0 O16 1.251 . S
C0 O18 1.254 1_554 S
N1 C2 1.333 1_445 S
N1 C6 1.307 . S
N1 Zn7 2.020 . S
C2 N1 1.333 1_665 S
C2 C3 1.379 . S
C2 H20 0.952 . S
C3 C2 1.379 . S
C3 C4 1.390 1_665 S
C3 H30 0.949 . S
C4 C3 1.390 1_445 S
C4 C5 1.357 . S
C5 C4 1.357 . S
C5 C6 1.370 . S
C5 H31 0.950 . S
C6 N1 1.307 . S
C6 C5 1.370 . S
C6 H24 0.948 . S
Zn7 N1 2.020 . S
Zn7 O16 2.039 1_445 S
Zn7 O22 2.034 1_455 S
Zn7 O26 2.025 . S
Zn7 O28 2.024 1_545 S
C8 O27 1.246 1_554 S
C8 O28 1.249 . S
N9 C10 1.307 1_455 S
N9 C11 1.333 . S
N9 Zn15 2.020 . S
C10 N9 1.307 1_655 S
C10 C14 1.370 . S
C10 H21 0.948 . S
C11 N9 1.333 . S
C11 C12 1.379 . S
C11 H19 0.952 . S
C12 C11 1.379 . S
C12 C13 1.390 . S
C12 H32 0.949 . S
C13 C12 1.390 . S
C13 C14 1.357 1_455 S
C14 C10 1.370 . S
C14 C13 1.357 1_655 S
C14 H33 0.950 . S
Zn15 N9 2.020 . S
Zn15 O18 2.025 1_445 S
Zn15 O23 2.024 1_455 S
Zn15 O25 2.039 . S
Zn15 O27 2.034 1_545 S
O16 C0 1.251 . S
O16 Zn7 2.039 1_665 S
C17 O22 1.246 . S
C17 O23 1.249 1_554 S
O18 C0 1.254 1_556 S
O18 Zn15 2.025 1_665 S
H19 C11 0.952 . S
H20 C2 0.952 . S
H21 C10 0.948 . S
O22 Zn7 2.034 1_655 S
O22 C17 1.246 . S
O23 Zn15 2.024 1_655 S
O23 C17 1.249 1_556 S
H24 C6 0.948 . S
O25 Zn15 2.039 . S
O25 C29 1.251 1_556 S
O26 Zn7 2.025 . S
O26 C29 1.254 . S
O27 C8 1.246 1_556 S
O27 Zn15 2.034 1_565 S
O28 Zn7 2.024 1_565 S
O28 C8 1.249 . S
C29 O25 1.251 1_554 S
C29 O26 1.254 . S
H30 C3 0.949 . S
H31 C5 0.950 . S
H32 C12 0.949 . S
H33 C14 0.950 . S
C34 O50 1.251 . S
C34 O52 1.254 . S
N35 C36 1.333 . S
N35 C40 1.307 . S
N35 Zn41 2.020 . S
C36 N35 1.333 . S
C36 C37 1.379 . S
C36 H54 0.952 . S
C37 C36 1.379 . S
C37 C38 1.390 . S
C37 H64 0.949 . S
C38 C37 1.390 . S
C38 C39 1.357 . S
C39 C38 1.357 . S
C39 C40 1.370 . S
C39 H65 0.950 . S
C40 N35 1.307 . S
C40 C39 1.370 . S
C40 H58 0.948 . S
Zn41 N35 2.020 . S
Zn41 O50 2.039 . S
Zn41 O56 2.034 . S
Zn41 O60 2.025 . S
Zn41 O62 2.024 . S
C42 O61 1.246 . S
C42 O62 1.249 . S
N43 C44 1.307 . S
N43 C45 1.333 . S
N43 Zn49 2.020 . S
C44 N43 1.307 . S
C44 C48 1.370 . S
C44 H55 0.948 . S
C45 N43 1.333 . S
C45 C46 1.379 . S
C45 H53 0.952 . S
C46 C45 1.379 . S
C46 C47 1.390 . S
C46 H66 0.949 . S
C47 C46 1.390 . S
C47 C48 1.357 . S
C48 C44 1.370 . S
C48 C47 1.357 . S
C48 H67 0.950 . S
Zn49 N43 2.020 . S
Zn49 O52 2.025 . S
Zn49 O57 2.024 . S
Zn49 O59 2.039 . S
Zn49 O61 2.034 . S
O50 C34 1.251 . S
O50 Zn41 2.039 . S
C51 O56 1.246 . S
C51 O57 1.249 . S
O52 C34 1.254 . S
O52 Zn49 2.025 . S
H53 C45 0.952 . S
H54 C36 0.952 . S
H55 C44 0.948 . S
O56 Zn41 2.034 . S
O56 C51 1.246 . S
O57 Zn49 2.024 . S
O57 C51 1.249 . S
H58 C40 0.948 . S
O59 Zn49 2.039 . S
O59 C63 1.251 . S
O60 Zn41 2.025 . S
O60 C63 1.254 . S
O61 C42 1.246 . S
O61 Zn49 2.034 . S
O62 Zn41 2.024 . S
O62 C42 1.249 . S
C63 O59 1.251 . S
C63 O60 1.254 . S
H64 C37 0.949 . S
H65 C39 0.950 . S
H66 C46 0.949 . S
H67 C48 0.950 . S
H68 C75 0.929 . S
H69 C78 0.930 . S
H70 C80 0.929 . S
H71 C72 0.969 . S
C72 H71 0.969 . S
C72 O73 1.550 . S
C72 H74 0.973 . S
O73 C72 1.550 . S
O73 C79 1.412 . S
H74 C72 0.973 . S
C75 H68 0.929 . S
C75 C76 1.400 . S
C75 C77 1.364 . S
C76 C75 1.400 . S
C76 C80 1.377 . S
C77 C75 1.364 . S
C77 C78 1.374 1_465 S
C78 H69 0.930 . S
C78 C77 1.374 1_645 S
C78 C79 1.383 . S
C79 O73 1.412 . S
C79 C78 1.383 . S
C79 C80 1.394 1_645 S
C80 H70 0.929 . S
C80 C76 1.377 . S
C80 C79 1.394 1_465 S
H81 C88 0.929 . S
H82 C91 0.930 1_565 S
H83 C93 0.929 . S
H84 C85 0.969 . S
C85 H84 0.969 . S
C85 O86 1.550 . S
C85 H87 0.973 . S
O86 C85 1.550 . S
O86 C92 1.412 1_565 S
H87 C85 0.973 . S
C88 H81 0.929 . S
C88 C89 1.400 . S
C88 C90 1.364 . S
C89 C88 1.400 . S
C89 C93 1.377 . S
C90 C88 1.364 . S
C90 C91 1.374 1_455 S
C91 H82 0.930 1_545 S
C91 C90 1.374 1_655 S
C91 C92 1.383 . S
C92 O86 1.412 1_545 S
C92 C91 1.383 . S
C92 C93 1.394 1_655 S
C93 H83 0.929 . S
C93 C89 1.377 . S
C93 C92 1.394 1_455 S
H94 C101 0.929 . S
H95 C104 0.930 . S
H96 C106 0.929 1_554 S
H97 C98 0.969 . S
C98 H97 0.969 . S
C98 O99 1.547 1_556 S
C98 H100 0.973 . S
O99 C98 1.547 1_554 S
O99 C105 1.404 1_554 S
H100 C98 0.973 . S
C101 H94 0.929 . S
C101 C102 1.400 . S
C101 C103 1.364 . S
C102 C101 1.400 . S
C102 C106 1.377 . S
C103 C101 1.364 . S
C103 C104 1.374 . S
C104 H95 0.930 . S
C104 C103 1.374 . S
C104 C105 1.383 . S
C105 O99 1.404 1_556 S
C105 C104 1.383 . S
C105 C106 1.394 . S
C106 H96 0.929 1_556 S
C106 C102 1.377 . S
C106 C105 1.394 . S
H107 C114 0.929 . S
H108 C117 0.930 . S
H109 C119 0.929 1_556 S
H110 C111 0.969 . S
C111 H110 0.969 . S
C111 O112 1.550 . S
C111 H113 0.973 . S
O112 C111 1.550 . S
O112 C118 1.412 . S
H113 C111 0.973 . S
C114 H107 0.929 . S
C114 C115 1.400 . S
C114 C116 1.364 . S
C115 C114 1.400 . S
C115 C119 1.377 . S
C116 C114 1.364 . S
C116 C117 1.374 . S
C117 H108 0.930 . S
C117 C116 1.374 . S
C117 C118 1.383 . S
C118 O112 1.412 . S
C118 C117 1.383 . S
C118 C119 1.394 . S
C119 H109 0.929 1_554 S
C119 C115 1.377 . S
C119 C118 1.394 . S
H120 C132 0.930 . S
H121 C134 0.930 . S
H122 C135 0.930 . S
H123 C139 0.959 . S
H124 C139 0.959 . S
H125 C139 0.961 . S
H126 C140 0.960 . S
H127 C140 0.961 . S
H128 C140 0.959 . S
H129 C143 0.929 . S
H130 C144 0.931 . S
H131 C146 0.930 . S
C132 H120 0.930 . S
C132 C133 1.399 1_556 S
C132 C137 1.399 . S
C133 C132 1.399 1_554 S
C133 C134 1.376 . S
C134 H121 0.930 . S
C134 C133 1.376 . S
C134 C135 1.388 . S
C135 H122 0.930 . S
C135 C134 1.388 . S
C135 C136 1.390 . S
C136 C135 1.390 . S
C136 C137 1.394 1_554 S
C136 C142 1.465 . S
C137 C132 1.399 . S
C137 C136 1.394 1_556 S
C137 C138 1.516 . S
C138 C137 1.516 . S
C138 C139 1.502 . S
C138 C140 1.561 . S
C138 C141 1.526 . S
C139 H123 0.959 . S
C139 H124 0.959 . S
C139 H125 0.961 . S
C139 C138 1.502 . S
C140 H126 0.960 . S
C140 H127 0.961 . S
C140 H128 0.959 . S
C140 C138 1.561 . S
C141 C138 1.526 . S
C141 C142 1.396 1_556 S
C141 C146 1.390 . S
C142 C136 1.465 . S
C142 C141 1.396 1_554 S
C142 C143 1.399 . S
C143 H129 0.929 . S
C143 C142 1.399 . S
C143 C144 1.385 . S
C144 H130 0.931 . S
C144 C143 1.385 . S
C144 C145 1.389 . S
C145 C144 1.389 . S
C145 C146 1.387 1_554 S
C146 H131 0.930 . S
C146 C141 1.390 . S
C146 C145 1.387 1_556 S
H147 C159 0.930 . S
H148 C161 0.930 1_556 S
H149 C162 0.930 . S
H150 C166 0.959 1_556 S
H151 C166 0.959 . S
H152 C166 0.961 . S
H153 C167 0.960 . S
H154 C167 0.961 . S
H155 C167 0.959 . S
H156 C170 0.929 . S
H157 C171 0.931 . S
H158 C173 0.930 . S
C159 H147 0.930 . S
C159 C160 1.399 . S
C159 C164 1.399 . S
C160 C159 1.399 . S
C160 C161 1.378 . S
C161 H148 0.930 1_554 S
C161 C160 1.378 . S
C161 C162 1.387 1_554 S
C162 H149 0.930 . S
C162 C161 1.387 1_556 S
C162 C163 1.390 1_556 S
C163 C162 1.390 1_554 S
C163 C164 1.394 . S
C163 C169 1.465 . S
C164 C159 1.399 . S
C164 C163 1.394 . S
C164 C165 1.516 . S
C165 C164 1.516 . S
C165 C166 1.502 . S
C165 C167 1.561 . S
C165 C168 1.526 . S
C166 H150 0.959 1_554 S
C166 H151 0.959 . S
C166 H152 0.961 . S
C166 C165 1.502 . S
C167 H153 0.960 . S
C167 H154 0.961 . S
C167 H155 0.959 . S
C167 C165 1.561 . S
C168 C165 1.526 . S
C168 C169 1.396 . S
C168 C173 1.390 . S
C169 C163 1.465 . S
C169 C168 1.396 . S
C169 C170 1.399 1_554 S
C170 H156 0.929 . S
C170 C169 1.399 1_556 S
C170 C171 1.385 . S
C171 H157 0.931 . S
C171 C170 1.385 . S
C171 C172 1.386 1_556 S
C172 C171 1.386 1_554 S
C172 C173 1.392 . S
C173 H158 0.930 . S
C173 C168 1.390 . S
C173 C172 1.392 . S
H174 C186 0.930 . S
H175 C188 0.930 . S
H176 C189 0.930 . S
H177 C193 0.959 . S
H178 C193 0.959 . S
H179 C193 0.961 . S
H180 C194 0.960 . S
H181 C194 0.961 . S
H182 C194 0.959 . S
H183 C197 0.929 . S
H184 C198 0.931 . S
H185 C200 0.930 1_556 S
C186 H174 0.930 . S
C186 C187 1.399 1_556 S
C186 C191 1.399 1_556 S
C187 C186 1.399 1_554 S
C187 C188 1.376 . S
C188 H175 0.930 . S
C188 C187 1.376 . S
C188 C189 1.388 . S
C189 H176 0.930 . S
C189 C188 1.388 . S
C189 C190 1.390 . S
C190 C189 1.390 . S
C190 C191 1.394 . S
C190 C196 1.465 . S
C191 C186 1.399 1_554 S
C191 C190 1.394 . S
C191 C192 1.516 1_554 S
C192 C191 1.516 1_556 S
C192 C193 1.502 . S
C192 C194 1.561 . S
C192 C195 1.526 1_556 S
C193 H177 0.959 . S
C193 H178 0.959 . S
C193 H179 0.961 . S
C193 C192 1.502 . S
C194 H180 0.960 . S
C194 H181 0.961 . S
C194 H182 0.959 . S
C194 C192 1.561 . S
C195 C192 1.526 1_554 S
C195 C196 1.396 . S
C195 C200 1.390 . S
C196 C190 1.465 . S
C196 C195 1.396 . S
C196 C197 1.399 . S
C197 H183 0.929 . S
C197 C196 1.399 . S
C197 C198 1.385 . S
C198 H184 0.931 . S
C198 C197 1.385 . S
C198 C199 1.389 . S
C199 C198 1.389 . S
C199 C200 1.387 . S
C200 H185 0.930 1_554 S
C200 C195 1.390 . S
C200 C199 1.387 . S
H201 C213 0.930 . S
H202 C215 0.930 . S
H203 C216 0.930 . S
H204 C220 0.959 . S
H205 C220 0.959 . S
H206 C220 0.961 . S
H207 C221 0.960 . S
H208 C221 0.961 . S
H209 C221 0.959 . S
H210 C224 0.929 . S
H211 C225 0.931 . S
H212 C227 0.930 . S
C213 H201 0.930 . S
C213 C214 1.399 1_556 S
C213 C218 1.399 . S
C214 C213 1.399 1_554 S
C214 C215 1.376 . S
C215 H202 0.930 . S
C215 C214 1.376 . S
C215 C216 1.388 . S
C216 H203 0.930 . S
C216 C215 1.388 . S
C216 C217 1.390 . S
C217 C216 1.390 . S
C217 C218 1.394 1_554 S
C217 C223 1.465 . S
C218 C213 1.399 . S
C218 C217 1.394 1_556 S
C218 C219 1.516 . S
C219 C218 1.516 . S
C219 C220 1.502 . S
C219 C221 1.561 . S
C219 C222 1.526 . S
C220 H204 0.959 . S
C220 H205 0.959 . S
C220 H206 0.961 . S
C220 C219 1.502 . S
C221 H207 0.960 . S
C221 H208 0.961 . S
C221 H209 0.959 . S
C221 C219 1.561 . S
C222 C219 1.526 . S
C222 C223 1.396 1_556 S
C222 C227 1.390 . S
C223 C217 1.465 . S
C223 C222 1.396 1_554 S
C223 C224 1.399 . S
C224 H210 0.929 . S
C224 C223 1.399 . S
C224 C225 1.385 . S
C225 H211 0.931 . S
C225 C224 1.385 . S
C225 C226 1.389 1_554 S
C226 C225 1.389 1_556 S
C226 C227 1.387 . S
C227 H212 0.930 . S
C227 C222 1.390 . S
C227 C226 1.387 . S
H228 C240 0.930 . S
H229 C242 0.930 . S
H230 C243 0.930 . S
H231 C247 0.959 . S
H232 C247 0.959 . S
H233 C247 0.961 . S
H234 C248 0.960 . S
H235 C248 0.961 . S
H236 C248 0.959 . S
H237 C251 0.929 . S
H238 C252 0.931 . S
H239 C254 0.930 . S
C240 H228 0.930 . S
C240 C241 1.399 . S
C240 C245 1.399 . S
C241 C240 1.399 . S
C241 C242 1.376 . S
C242 H229 0.930 . S
C242 C241 1.376 . S
C242 C243 1.388 . S
C243 H230 0.930 . S
C243 C242 1.388 . S
C243 C244 1.390 . S
C244 C243 1.390 . S
C244 C245 1.394 . S
C244 C250 1.465 . S
C245 C240 1.399 . S
C245 C244 1.394 . S
C245 C246 1.516 . S
C246 C245 1.516 . S
C246 C247 1.502 . S
C246 C248 1.561 . S
C246 C249 1.526 . S
C247 H231 0.959 . S
C247 H232 0.959 . S
C247 H233 0.961 . S
C247 C246 1.502 . S
C248 H234 0.960 . S
C248 H235 0.961 . S
C248 H236 0.959 . S
C248 C246 1.561 . S
C249 C246 1.526 . S
C249 C250 1.396 . S
C249 C254 1.390 . S
C250 C244 1.465 . S
C250 C249 1.396 . S
C250 C251 1.399 . S
C251 H237 0.929 . S
C251 C250 1.399 . S
C251 C252 1.385 . S
C252 H238 0.931 . S
C252 C251 1.385 . S
C252 C253 1.389 . S
C253 C252 1.389 . S
C253 C254 1.387 . S
C254 H239 0.930 . S
C254 C249 1.390 . S
C254 C253 1.387 . S
H255 C267 0.930 . S
H256 C269 0.930 . S
H257 C270 0.930 . S
H258 C274 0.959 . S
H259 C274 0.959 . S
H260 C274 0.961 . S
H261 C275 0.960 . S
H262 C275 0.961 . S
H263 C275 0.959 . S
H264 C278 0.929 . S
H265 C279 0.931 . S
H266 C281 0.930 . S
C267 H255 0.930 . S
C267 C268 1.399 . S
C267 C272 1.399 . S
C268 C267 1.399 . S
C268 C269 1.376 . S
C269 H256 0.930 . S
C269 C268 1.376 . S
C269 C270 1.388 . S
C270 H257 0.930 . S
C270 C269 1.388 . S
C270 C271 1.390 . S
C271 C270 1.390 . S
C271 C272 1.394 . S
C271 C277 1.465 . S
C272 C267 1.399 . S
C272 C271 1.394 . S
C272 C273 1.516 . S
C273 C272 1.516 . S
C273 C274 1.502 . S
C273 C275 1.561 . S
C273 C276 1.526 . S
C274 H258 0.959 . S
C274 H259 0.959 . S
C274 H260 0.961 . S
C274 C273 1.502 . S
C275 H261 0.960 . S
C275 H262 0.961 . S
C275 H263 0.959 . S
C275 C273 1.561 . S
C276 C273 1.526 . S
C276 C277 1.396 . S
C276 C281 1.390 . S
C277 C271 1.465 . S
C277 C276 1.396 . S
C277 C278 1.399 . S
C278 H264 0.929 . S
C278 C277 1.399 . S
C278 C279 1.385 . S
C279 H265 0.931 . S
C279 C278 1.385 . S
C279 C280 1.389 . S
C280 C279 1.389 . S
C280 C281 1.387 . S
C281 H266 0.930 . S
C281 C276 1.390 . S
C281 C280 1.387 . S
H282 C294 0.930 . S
H283 C296 0.930 . S
H284 C297 0.930 . S
H285 C301 0.959 . S
H286 C301 0.959 . S
H287 C301 0.961 . S
H288 C302 0.960 . S
H289 C302 0.961 . S
H290 C302 0.959 . S
H291 C305 0.929 . S
H292 C306 0.931 . S
H293 C308 0.930 . S
C294 H282 0.930 . S
C294 C295 1.399 . S
C294 C299 1.399 . S
C295 C294 1.399 . S
C295 C296 1.376 . S
C296 H283 0.930 . S
C296 C295 1.376 . S
C296 C297 1.388 . S
C297 H284 0.930 . S
C297 C296 1.388 . S
C297 C298 1.390 . S
C298 C297 1.390 . S
C298 C299 1.394 . S
C298 C304 1.465 . S
C299 C294 1.399 . S
C299 C298 1.394 . S
C299 C300 1.516 . S
C300 C299 1.516 . S
C300 C301 1.502 . S
C300 C302 1.561 . S
C300 C303 1.526 . S
C301 H285 0.959 . S
C301 H286 0.959 . S
C301 H287 0.961 . S
C301 C300 1.502 . S
C302 H288 0.960 . S
C302 H289 0.961 . S
C302 H290 0.959 . S
C302 C300 1.561 . S
C303 C300 1.526 . S
C303 C304 1.396 . S
C303 C308 1.390 . S
C304 C298 1.465 . S
C304 C303 1.396 . S
C304 C305 1.399 . S
C305 H291 0.929 . S
C305 C304 1.399 . S
C305 C306 1.385 . S
C306 H292 0.931 . S
C306 C305 1.385 . S
C306 C307 1.389 . S
C307 C306 1.389 . S
C307 C308 1.387 . S
C308 H293 0.930 . S
C308 C303 1.390 . S
C308 C307 1.387 . S
H309 C321 0.930 . S
H310 C323 0.930 . S
H311 C324 0.930 . S
H312 C328 0.959 . S
H313 C328 0.959 . S
H314 C328 0.961 . S
H315 C329 0.960 . S
H316 C329 0.961 . S
H317 C329 0.959 . S
H318 C332 0.929 . S
H319 C333 0.931 . S
H320 C335 0.930 . S
C321 H309 0.930 . S
C321 C322 1.399 . S
C321 C326 1.399 . S
C322 C321 1.399 . S
C322 C323 1.376 . S
C323 H310 0.930 . S
C323 C322 1.376 . S
C323 C324 1.388 . S
C324 H311 0.930 . S
C324 C323 1.388 . S
C324 C325 1.390 . S
C325 C324 1.390 . S
C325 C326 1.394 . S
C325 C331 1.465 . S
C326 C321 1.399 . S
C326 C325 1.394 . S
C326 C327 1.516 . S
C327 C326 1.516 . S
C327 C328 1.502 . S
C327 C329 1.561 . S
C327 C330 1.526 . S
C328 H312 0.959 . S
C328 H313 0.959 . S
C328 H314 0.961 . S
C328 C327 1.502 . S
C329 H315 0.960 . S
C329 H316 0.961 . S
C329 H317 0.959 . S
C329 C327 1.561 . S
C330 C327 1.526 . S
C330 C331 1.396 . S
C330 C335 1.390 . S
C331 C325 1.465 . S
C331 C330 1.396 . S
C331 C332 1.399 . S
C332 H318 0.929 . S
C332 C331 1.399 . S
C332 C333 1.385 . S
C333 H319 0.931 . S
C333 C332 1.385 . S
C333 C334 1.389 . S
C334 C333 1.389 . S
C334 C335 1.387 . S
C335 H320 0.930 . S
C335 C330 1.390 . S
C335 C334 1.387 . S
H336 C348 0.930 . S
H337 C350 0.930 . S
H338 C351 0.930 . S
H339 C355 0.959 . S
H340 C355 0.959 . S
H341 C355 0.961 . S
H342 C356 0.960 . S
H343 C356 0.961 . S
H344 C356 0.959 . S
H345 C359 0.929 . S
H346 C360 0.931 . S
H347 C362 0.930 . S
C348 H336 0.930 . S
C348 C349 1.399 1_545 S
C348 C353 1.399 . S
C349 C348 1.399 1_565 S
C349 C350 1.376 1_455 S
C350 H337 0.930 . S
C350 C349 1.376 1_655 S
C350 C351 1.388 . S
C351 H338 0.930 . S
C351 C350 1.388 . S
C351 C352 1.390 1_655 S
C352 C351 1.390 1_455 S
C352 C353 1.394 1_565 S
C352 C358 1.466 . S
C353 C348 1.399 . S
C353 C352 1.394 1_545 S
C353 C354 1.516 . S
C354 C353 1.516 . S
C354 C355 1.502 . S
C354 C356 1.561 1_455 S
C354 C357 1.526 . S
C355 H339 0.959 . S
C355 H340 0.959 . S
C355 H341 0.961 . S
C355 C354 1.502 . S
C356 H342 0.960 . S
C356 H343 0.961 . S
C356 H344 0.959 . S
C356 C354 1.561 1_655 S
C357 C354 1.526 . S
C357 C358 1.399 1_545 S
C357 C362 1.390 . S
C358 C352 1.466 . S
C358 C357 1.399 1_565 S
C358 C359 1.396 1_455 S
C359 H345 0.929 . S
C359 C358 1.396 1_655 S
C359 C360 1.385 . S
C360 H346 0.931 . S
C360 C359 1.385 . S
C360 C361 1.389 1_655 S
C361 C360 1.389 1_455 S
C361 C362 1.387 1_565 S
C362 H347 0.930 . S
C362 C357 1.390 . S
C362 C361 1.387 1_545 S
H363 C375 0.930 1_565 S
H364 C377 0.930 1_655 S
H365 C378 0.930 . S
H366 C382 0.959 . S
H367 C382 0.959 . S
H368 C382 0.961 . S
H369 C383 0.961 . S
H370 C383 0.961 1_455 S
H371 C383 0.959 . S
H372 C386 0.929 . S
H373 C387 0.931 . S
H374 C389 0.930 1_565 S
C375 H363 0.930 1_545 S
C375 C376 1.399 . S
C375 C380 1.399 . S
C376 C375 1.399 . S
C376 C377 1.376 . S
C377 H364 0.930 1_455 S
C377 C376 1.376 . S
C377 C378 1.388 1_455 S
C378 H365 0.930 . S
C378 C377 1.388 1_655 S
C378 C379 1.390 1_655 S
C379 C378 1.390 1_455 S
C379 C380 1.394 . S
C379 C385 1.465 . S
C380 C375 1.399 . S
C380 C379 1.394 . S
C380 C381 1.516 1_545 S
C381 C380 1.516 1_565 S
C381 C382 1.502 . S
C381 C383 1.561 1_455 S
C381 C384 1.526 1_565 S
C382 H366 0.959 . S
C382 H367 0.959 . S
C382 H368 0.961 . S
C382 C381 1.502 . S
C383 H369 0.961 . S
C383 H370 0.961 1_655 S
C383 H371 0.959 . S
C383 C381 1.561 1_655 S
C384 C381 1.526 1_545 S
C384 C385 1.396 . S
C384 C389 1.390 . S
C385 C379 1.465 . S
C385 C384 1.396 . S
C385 C386 1.399 1_455 S
C386 H372 0.929 . S
C386 C385 1.399 1_655 S
C386 C387 1.385 . S
C387 H373 0.931 . S
C387 C386 1.385 . S
C387 C388 1.390 1_655 S
C388 C387 1.390 1_455 S
C388 C389 1.387 . S
C389 H374 0.930 1_545 S
C389 C384 1.390 . S
C389 C388 1.387 . S
H390 C402 0.930 . S
H391 C404 0.930 . S
H392 C405 0.930 . S
H393 C409 0.959 . S
H394 C409 0.959 . S
H395 C409 0.961 . S
H396 C410 0.960 . S
H397 C410 0.961 . S
H398 C410 0.959 . S
H399 C413 0.929 . S
H400 C414 0.931 . S
H401 C416 0.930 . S
C402 H390 0.930 . S
C402 C403 1.399 . S
C402 C407 1.399 . S
C403 C402 1.399 . S
C403 C404 1.376 . S
C404 H391 0.930 . S
C404 C403 1.376 . S
C404 C405 1.388 . S
C405 H392 0.930 . S
C405 C404 1.388 . S
C405 C406 1.390 . S
C406 C405 1.390 . S
C406 C407 1.394 . S
C406 C412 1.465 . S
C407 C402 1.399 . S
C407 C406 1.394 . S
C407 C408 1.516 . S
C408 C407 1.516 . S
C408 C409 1.502 . S
C408 C410 1.561 . S
C408 C411 1.526 . S
C409 H393 0.959 . S
C409 H394 0.959 . S
C409 H395 0.961 . S
C409 C408 1.502 . S
C410 H396 0.960 . S
C410 H397 0.961 . S
C410 H398 0.959 . S
C410 C408 1.561 . S
C411 C408 1.526 . S
C411 C412 1.396 . S
C411 C416 1.390 . S
C412 C406 1.465 . S
C412 C411 1.396 . S
C412 C413 1.399 . S
C413 H399 0.929 . S
C413 C412 1.399 . S
C413 C414 1.385 . S
C414 H400 0.931 . S
C414 C413 1.385 . S
C414 C415 1.389 . S
C415 C414 1.389 . S
C415 C416 1.387 . S
C416 H401 0.930 . S
C416 C411 1.390 . S
C416 C415 1.387 . S
H417 C429 0.930 . S
H418 C431 0.930 . S
H419 C432 0.930 . S
H420 C436 0.959 . S
H421 C436 0.959 . S
H422 C436 0.961 . S
H423 C437 0.960 . S
H424 C437 0.961 . S
H425 C437 0.959 . S
H426 C440 0.929 . S
H427 C441 0.931 . S
H428 C443 0.930 . S
C429 H417 0.930 . S
C429 C430 1.399 . S
C429 C434 1.399 . S
C430 C429 1.399 . S
C430 C431 1.376 . S
C431 H418 0.930 . S
C431 C430 1.376 . S
C431 C432 1.388 . S
C432 H419 0.930 . S
C432 C431 1.388 . S
C432 C433 1.390 . S
C433 C432 1.390 . S
C433 C434 1.394 . S
C433 C439 1.465 . S
C434 C429 1.399 . S
C434 C433 1.394 . S
C434 C435 1.516 . S
C435 C434 1.516 . S
C435 C436 1.502 . S
C435 C437 1.561 . S
C435 C438 1.526 . S
C436 H420 0.959 . S
C436 H421 0.959 . S
C436 H422 0.961 . S
C436 C435 1.502 . S
C437 H423 0.960 . S
C437 H424 0.961 . S
C437 H425 0.959 . S
C437 C435 1.561 . S
C438 C435 1.526 . S
C438 C439 1.396 . S
C438 C443 1.390 . S
C439 C433 1.465 . S
C439 C438 1.396 . S
C439 C440 1.399 . S
C440 H426 0.929 . S
C440 C439 1.399 . S
C440 C441 1.385 . S
C441 H427 0.931 . S
C441 C440 1.385 . S
C441 C442 1.389 . S
C442 C441 1.389 . S
C442 C443 1.387 . S
C443 H428 0.930 . S
C443 C438 1.390 . S
C443 C442 1.387 . S
C145 C111 1.211 . S
C133 C29 1.396 . S
C160 C8 1.419 . S
C172 C98 1.255 1_554 S
C187 C0 1.500 . S
C199 C115 1.450 . S
C214 C17 1.481 . S
C226 C102 1.494 . S
C241 C63 1.395 . S
C253 C85 1.211 . S
C268 C42 1.417 . S
C280 C72 1.247 . S
C307 C89 1.497 . S
C295 C34 1.493 . S
C334 C76 1.493 . S
C322 C51 1.491 . S
C349 C4 1.518 1_565 S
C361 C77 1.502 . S
C376 C13 1.521 . S
C388 C90 1.517 . S
C415 C103 1.509 . S
C403 C38 1.495 . S
C430 C47 1.517 . S
C442 C116 1.520 . S
