# Generated by pormake.
# Topology zzz, (3,6)-cn, num edge types: 1
# Building blocks:
#     Node 0, Type 0, BuildingBlock: ESEHIV_clean_linker_0, # of connection points: 3
#     Node 1, Type 0, BuildingBlock: ESEHIV_clean_linker_0, # of connection points: 3
#     Node 2, Type 0, BuildingBlock: ESEHIV_clean_linker_0, # of connection points: 3
#     Node 3, Type 0, BuildingBlock: ESEHIV_clean_linker_0, # of connection points: 3
#     Node 4, Type 0, BuildingBlock: ESEHIV_clean_linker_0, # of connection points: 3
#     Node 5, Type 0, BuildingBlock: ESEHIV_clean_linker_0, # of connection points: 3
#     Node 6, Type 0, BuildingBlock: ESEHIV_clean_linker_0, # of connection points: 3
#     Node 7, Type 0, BuildingBlock: ESEHIV_clean_linker_0, # of connection points: 3
#     Node 8, Type 1, BuildingBlock: HISSIN_clean_sbu_0, # of connection points: 6
#     Node 9, Type 1, BuildingBlock: HISSIN_clean_sbu_0, # of connection points: 6
#     Node 10, Type 1, BuildingBlock: HISSIN_clean_sbu_0, # of connection points: 6
#     Node 11, Type 1, BuildingBlock: HISSIN_clean_sbu_0, # of connection points: 6
#     Edge 12, Type (0, 1), BuildingBlock: TEMPAE_clean_linker_10, # of connection points: 2
#     Edge 13, Type (0, 1), BuildingBlock: TEMPAE_clean_linker_10, # of connection points: 2
#     Edge 14, Type (0, 1), BuildingBlock: TEMPAE_clean_linker_10, # of connection points: 2
#     Edge 15, Type (0, 1), BuildingBlock: TEMPAE_clean_linker_10, # of connection points: 2
#     Edge 16, Type (0, 1), BuildingBlock: TEMPAE_clean_linker_10, # of connection points: 2
#     Edge 17, Type (0, 1), BuildingBlock: TEMPAE_clean_linker_10, # of connection points: 2
#     Edge 18, Type (0, 1), BuildingBlock: TEMPAE_clean_linker_10, # of connection points: 2
#     Edge 19, Type (0, 1), BuildingBlock: TEMPAE_clean_linker_10, # of connection points: 2
#     Edge 20, Type (0, 1), BuildingBlock: TEMPAE_clean_linker_10, # of connection points: 2
#     Edge 21, Type (0, 1), BuildingBlock: TEMPAE_clean_linker_10, # of connection points: 2
#     Edge 22, Type (0, 1), BuildingBlock: TEMPAE_clean_linker_10, # of connection points: 2
#     Edge 23, Type (0, 1), BuildingBlock: TEMPAE_clean_linker_10, # of connection points: 2
#     Edge 24, Type (0, 1), BuildingBlock: TEMPAE_clean_linker_10, # of connection points: 2
#     Edge 25, Type (0, 1), BuildingBlock: TEMPAE_clean_linker_10, # of connection points: 2
#     Edge 26, Type (0, 1), BuildingBlock: TEMPAE_clean_linker_10, # of connection points: 2
#     Edge 27, Type (0, 1), BuildingBlock: TEMPAE_clean_linker_10, # of connection points: 2
#     Edge 28, Type (0, 1), BuildingBlock: TEMPAE_clean_linker_10, # of connection points: 2
#     Edge 29, Type (0, 1), BuildingBlock: TEMPAE_clean_linker_10, # of connection points: 2
#     Edge 30, Type (0, 1), BuildingBlock: TEMPAE_clean_linker_10, # of connection points: 2
#     Edge 31, Type (0, 1), BuildingBlock: TEMPAE_clean_linker_10, # of connection points: 2
#     Edge 32, Type (0, 1), BuildingBlock: TEMPAE_clean_linker_10, # of connection points: 2
#     Edge 33, Type (0, 1), BuildingBlock: TEMPAE_clean_linker_10, # of connection points: 2
#     Edge 34, Type (0, 1), BuildingBlock: TEMPAE_clean_linker_10, # of connection points: 2
#     Edge 35, Type (0, 1), BuildingBlock: TEMPAE_clean_linker_10, # of connection points: 2
# Relax obj value: 0.453
# Max RMSD: 0.241
# Mean RMSD: 0.195
data_MOF--net-zzz--node1-HISSIN_clean_sbu_0--node2-ESEHIV_clean_linker_0--edge1-TEMPAE_clean_linker_10
_symmetry_space_group_name_H-M    P1
_symmetry_Int_Tables_number       1
_symmetry_cell_setting            triclinic
loop_
_symmetry_equiv_pos_as_xyz
'x, y, z'
_cell_length_a     43.361144
_cell_length_b     43.417476
_cell_length_c     16.612353
_cell_angle_alpha  89.920789
_cell_angle_beta   91.122236
_cell_angle_gamma 91.661036
loop_
_atom_site_label
_atom_site_type_symbol
_atom_site_fract_x
_atom_site_fract_y
_atom_site_fract_z
_atom_type_partial_charge
H0 H 0.80301 0.4325 0.31761 0.0
H1 H 0.73303 0.44427 0.13696 0.0
H2 H 0.7402 0.50753 0.33673 0.0
C3 C 0.78265 0.4444 0.29704 0.0
C4 C 0.77297 0.47054 0.33857 0.0
C5 C 0.7684 0.43514 0.22467 0.0
C6 C 0.74337 0.45119 0.19441 0.0
C7 C 0.73218 0.47662 0.2355 0.0
C8 C 0.74783 0.48713 0.30638 0.0
H9 H 0.07839 0.82185 0.24782 0.0
H10 H 0.08622 0.73224 0.14298 0.0
H11 H 0.0263 0.74504 0.34307 0.0
C12 C 0.0733 0.79732 0.24813 0.0
C13 C 0.0535 0.78549 0.30741 0.0
C14 C 0.08583 0.77853 0.189 0.0
C15 C 0.07679 0.74732 0.18742 0.0
C16 C 0.05452 0.7352 0.24006 0.0
C17 C 0.04284 0.75437 0.30085 0.0
H18 H 0.75899 0.11277 0.36197 0.0
H19 H 0.83504 0.1139 0.20085 0.0
H20 H 0.80439 0.02851 0.31067 0.0
C21 C 0.77785 0.1011 0.33428 0.0
C22 C 0.77999 0.06923 0.34528 0.0
C23 C 0.797 0.11726 0.28083 0.0
C24 C 0.82052 0.10154 0.24323 0.0
C25 C 0.82385 0.06964 0.2539 0.0
C26 C 0.80302 0.05327 0.30438 0.0
H27 H 0.48677 0.74327 0.26704 0.0
H28 H 0.5458 0.81822 0.35378 0.0
H29 H 0.50273 0.82248 0.11789 0.0
C30 C 0.4974 0.76592 0.25863 0.0
C31 C 0.4926 0.78125 0.18543 0.0
C32 C 0.51651 0.77862 0.32006 0.0
C33 C 0.53074 0.80805 0.30765 0.0
C34 C 0.52505 0.82423 0.23484 0.0
C35 C 0.50613 0.81052 0.17463 0.0
H36 H 0.23406 0.47612 0.07509 0.0
H37 H 0.29965 0.46802 0.26892 0.0
H38 H 0.32894 0.50223 0.03715 0.0
C39 C 0.25787 0.47686 0.09677 0.0
C40 C 0.28051 0.48906 0.04635 0.0
C41 C 0.26431 0.4703 0.17733 0.0
C42 C 0.29487 0.47257 0.20577 0.0
C43 C 0.31888 0.48286 0.15527 0.0
C44 C 0.31133 0.49231 0.07544 0.0
H45 H 0.92718 0.2545 0.0991 0.0
H46 H 0.93898 0.32784 0.26877 0.0
H47 H 1.00778 0.3152 0.08909 0.0
C48 C 0.93993 0.2751 0.11862 0.0
C49 C 0.96816 0.28329 0.0826 0.0
C50 C 0.92948 0.29094 0.18556 0.0
C51 C 0.94666 0.31627 0.2152 0.0
C52 C 0.97454 0.32572 0.18013 0.0
C53 C 0.98581 0.30861 0.1149 0.0
H54 H 0.31144 0.97697 0.15571 0.0
H55 H 0.23293 0.98892 0.30358 0.0
H56 H 0.23894 0.03669 0.0765 0.0
C57 C 0.28924 0.98713 0.16477 0.0
C58 C 0.27733 1.00721 0.10611 0.0
C59 C 0.27363 0.98058 0.23609 0.0
C60 C 0.24498 0.99353 0.24803 0.0
C61 C 0.23208 1.0135 0.19108 0.0
C62 C 0.24855 0.02094 0.12022 0.0
H63 H 0.61459 0.31632 0.13837 0.0
H64 H 0.5427 0.2464 0.10565 0.0
H65 H 0.61538 0.23561 0.2846 0.0
C66 C 0.60471 0.2937 0.15202 0.0
C67 C 0.61826 0.27644 0.21343 0.0
C68 C 0.5774 0.28343 0.11252 0.0
C69 C 0.56419 0.25433 0.13397 0.0
C70 C 0.57835 0.23625 0.19507 0.0
C71 C 0.60548 0.24778 0.23368 0.0
Eu72 Eu 0.98788 0.04714 0.62247 0.0
Eu73 Eu 0.04258 0.0277 0.75325 0.0
C74 C 1.01547 0.09781 0.74826 0.0
C75 C 0.91385 0.07803 0.52191 0.0
C76 C 0.91455 0.10743 0.55708 0.0
C77 C 0.86756 0.0908 0.44661 0.0
C78 C 0.89285 0.12901 0.53313 0.0
C79 C 0.88925 0.06928 0.47022 0.0
C80 C 0.87041 0.12137 0.47372 0.0
C81 C 0.94059 0.05812 0.52815 0.0
O82 O 0.99924 0.01757 0.82267 0.0
O83 O 0.96582 0.0458 0.74545 0.0
C84 C 0.97258 0.03076 0.81206 0.0
O85 O 0.99747 0.99705 0.59493 0.0
O86 O 0.06293 1.00375 0.85538 0.0
O87 O 0.09004 0.03855 0.79261 0.0
O88 O 0.03105 0.98172 0.6955 0.0
C89 C 1.01395 0.97583 0.6309 0.0
O90 O 0.03001 0.05159 0.54502 0.0
O91 O 0.06625 0.03256 0.63325 0.0
O92 O 0.02872 0.07563 0.78893 0.0
O93 O 0.96766 0.07175 0.52158 0.0
O94 O 0.94018 0.03675 0.58343 0.0
O95 O 1.00267 0.09322 0.67668 0.0
C96 C 0.1143 0.99323 0.83353 0.0
C97 C 0.11398 0.97559 0.7627 0.0
C98 C 0.14777 0.95656 0.89781 0.0
C99 C 0.12859 0.9474 0.76162 0.0
C100 C 0.13282 0.98462 0.89923 0.0
C101 C 0.14366 0.93673 0.83134 0.0
C102 C 0.0904 0.01591 0.8443 0.0
C103 C 0.05815 0.04275 0.56154 0.0
H104 H 0.93329 0.1145 0.5977 0.0
H105 H 0.85049 0.08448 0.40101 0.0
H106 H 0.89578 0.15255 0.55421 0.0
H107 H 0.88823 0.0466 0.44295 0.0
H108 H 0.09973 0.98196 0.71136 0.0
H109 H 0.15894 0.9486 0.95263 0.0
H110 H 0.12488 0.93234 0.71016 0.0
H111 H 0.13323 0.99797 0.95432 0.0
Eu112 Eu 0.53929 0.06783 0.79185 0.0
Eu113 Eu 0.52062 1.00852 0.67709 0.0
C114 C 0.5399 0.99984 0.86302 0.0
C115 C 0.57556 0.12941 0.93501 0.0
C116 C 0.60105 0.11186 0.9558 0.0
C117 C 0.59653 0.17169 1.01716 0.0
C118 C 0.62402 0.12401 1.00732 0.0
C119 C 0.57338 0.15939 0.96562 0.0
C120 C 0.62191 0.15394 0.03897 0.0
C121 C 0.55106 0.11652 0.88213 0.0
O122 O 0.47404 0.02604 0.71402 0.0
O123 O 0.49053 0.05365 0.82506 0.0
C124 C 0.46834 0.0399 0.78235 0.0
O125 O 0.51718 0.08656 0.67769 0.0
O126 O 0.5249 0.95921 0.65686 0.0
O127 O 0.49776 0.9865 0.57365 0.0
O128 O 0.5291 0.04797 0.59133 0.0
C129 C 0.52246 0.07678 0.60442 0.0
O130 O 0.583 0.06037 0.72234 0.0
O131 O 0.57272 1.01203 0.66992 0.0
O132 O 0.51919 0.99339 0.80655 0.0
O133 O 0.55717 0.11514 0.80581 0.0
O134 O 0.53712 0.09144 0.9073 0.0
O135 O 0.5563 0.02584 0.86019 0.0
C136 C 0.47959 0.93646 0.59974 0.0
C137 C 0.46999 0.92102 0.52955 0.0
C138 C 0.43273 0.91884 0.66525 0.0
C139 C 0.44116 0.90601 0.52561 0.0
C140 C 0.46154 0.93413 0.66885 0.0
C141 C 0.42138 0.90629 0.59202 0.0
C142 C 0.50541 0.95886 0.59597 0.0
C143 C 0.59151 0.03602 0.68201 0.0
H144 H 0.60313 0.08875 0.93229 0.0
H145 H 0.5944 0.19476 0.04076 0.0
H146 H 0.64366 0.11003 1.02193 0.0
H147 H 0.55374 0.17321 0.94991 0.0
H148 H 0.48367 0.92267 0.4757 0.0
H149 H 0.41838 0.91905 0.71786 0.0
H150 H 0.43334 0.89701 0.46775 0.0
H151 H 0.46871 0.94596 0.7238 0.0
Eu152 Eu 0.50814 0.5293 0.73634 0.0
Eu153 Eu 0.56567 0.51374 0.61917 0.0
C154 C 0.57762 0.52744 0.8103 0.0
C155 C 0.43971 0.56925 0.81836 0.0
C156 C 0.42595 0.57824 0.88959 0.0
C157 C 0.42573 0.61764 0.7561 0.0
C158 C 0.41364 0.60743 0.8956 0.0
C159 C 0.43832 0.58847 0.75043 0.0
C160 C 0.41495 0.62818 0.83024 0.0
C161 C 0.46023 0.54304 0.82026 0.0
O162 O 0.56191 0.47245 0.70206 0.0
O163 O 0.51198 0.47723 0.74276 0.0
C164 C 0.53732 0.46131 0.73851 0.0
O165 O 0.48936 0.53142 0.609 0.0
O166 O 0.61183 0.52573 0.57521 0.0
O167 O 0.58554 0.48703 0.52389 0.0
O168 O 0.5223 0.49889 0.54912 0.0
C169 C 0.49606 0.5133 0.54918 0.0
O170 O 0.52778 0.57612 0.69857 0.0
O171 O 0.55007 0.56103 0.58182 0.0
O172 O 0.58842 0.52909 0.73687 0.0
O173 O 0.45872 0.52455 0.75838 0.0
O174 O 0.4886 0.55004 0.84222 0.0
O175 O 0.548 0.52388 0.82383 0.0
C176 C 0.63956 0.48321 0.52849 0.0
C177 C 0.6396 0.45516 0.57043 0.0
C178 C 0.68758 0.47011 0.46618 0.0
C179 C 0.66241 0.4339 0.55619 0.0
C180 C 0.6645 0.49123 0.47961 0.0
C181 C 0.6857 0.44041 0.50006 0.0
C182 C 0.612 0.50214 0.52675 0.0
C183 C 0.53929 0.58271 0.62768 0.0
H184 H 0.42701 0.56372 0.94266 0.0
H185 H 0.42665 0.63277 0.70427 0.0
H186 H 0.40596 0.61463 0.95409 0.0
H187 H 0.44897 0.58186 0.69479 0.0
H188 H 0.62072 0.4487 0.60937 0.0
H189 H 0.70548 0.47612 0.42426 0.0
H190 H 0.65987 0.4113 0.5833 0.0
H191 H 0.66507 0.513 0.44758 0.0
Eu192 Eu 0.02823 0.54818 0.67796 0.0
Eu193 Eu 1.01281 0.49046 0.80166 0.0
C194 C 0.08411 0.51628 0.77914 0.0
C195 C 0.04498 0.5888 0.48804 0.0
C196 C 0.07144 0.60411 0.4589 0.0
C197 C 0.04893 0.55013 0.38411 0.0
C198 C 0.08808 0.59081 0.39742 0.0
C199 C 0.03234 0.56332 0.44547 0.0
C200 C 0.07823 0.56223 0.36535 0.0
C201 C 0.03772 0.59219 0.57345 0.0
O202 O 0.02197 0.53144 0.88347 0.0
O203 O 1.01293 0.57037 0.79326 0.0
C204 C 1.01719 0.56058 0.86755 0.0
O205 O 0.98226 0.52742 0.63795 0.0
O206 O 0.99007 0.47073 0.90611 0.0
O207 O 0.01973 0.44242 0.83519 0.0
O208 O 0.96597 0.50649 0.75671 0.0
C209 C 0.96022 0.51587 0.68271 0.0
O210 O 0.03931 0.50563 0.60567 0.0
O211 O 1.01048 0.4701 0.67652 0.0
O212 O 0.06501 0.49436 0.80421 0.0
O213 O 1.01023 0.58296 0.59519 0.0
O214 O 0.05907 0.58199 0.62196 0.0
O215 O 0.07474 0.53973 0.73597 0.0
C216 C 0.9775 0.41761 0.8982 0.0
C217 C 0.94807 0.42017 0.86284 0.0
C218 C 0.96109 0.36945 0.96038 0.0
C219 C 0.9248 0.39833 0.87984 0.0
C220 C 0.98429 0.39144 0.94393 0.0
C221 C 0.93068 0.37358 0.93233 0.0
C222 C 1.00034 0.44315 0.89405 0.0
C223 C 0.02563 0.47824 0.61169 0.0
H224 H 0.08152 0.62379 0.49087 0.0
H225 H 0.0408 0.52828 0.35914 0.0
H226 H 0.11065 0.60054 0.38341 0.0
H227 H 1.01189 0.55108 0.46643 0.0
H228 H 0.94254 0.44007 0.82644 0.0
H229 H 0.96637 0.35049 1.0 0.0
H230 H 0.90162 0.4025 0.85779 0.0
H231 H 1.00705 0.38891 0.97078 0.0
C232 C 0.17574 1.00577 0.21121 0.0
C233 C 0.20158 0.02599 0.21138 0.0
C234 C 0.14995 1.01151 0.25867 0.0
C235 C 0.14991 0.03816 0.30797 0.0
C236 C 0.17478 0.06002 0.30261 0.0
C237 C 0.20039 0.05358 0.25483 0.0
C238 C 0.12418 0.98745 0.26197 0.0
C239 C 0.17573 0.08892 0.35301 0.0
C240 C 0.07588 0.05591 0.42048 0.0
C241 C 0.08175 0.04291 0.49668 0.0
C242 C 0.0979 0.05511 0.35887 0.0
C243 C 0.12646 0.04071 0.37313 0.0
C244 C 0.13252 0.02773 0.45001 0.0
C245 C 0.11031 0.02911 0.51049 0.0
C246 C 0.09052 0.06945 0.27826 0.0
C247 C 0.16243 1.01189 0.46829 0.0
H248 H 0.17687 0.98405 0.17938 0.0
H249 H 0.2206 0.06889 0.25695 0.0
H250 H 0.12581 0.97474 0.31984 0.0
H251 H 0.10137 0.99837 0.25939 0.0
H252 H 0.12527 0.97058 0.21196 0.0
H253 H 0.15295 0.09993 0.35164 0.0
H254 H 0.18116 0.0829 0.41656 0.0
H255 H 0.19353 0.10587 0.33217 0.0
H256 H 0.05401 0.06668 0.40876 0.0
H257 H 0.11527 0.01882 0.56862 0.0
H258 H 0.0901 0.05152 0.23072 0.0
H259 H 0.10878 0.08674 0.26262 0.0
H260 H 0.06791 0.08084 0.27746 0.0
H261 H 0.16495 0.99222 0.42655 0.0
H262 H 0.16375 1.00312 0.53108 0.0
H263 H 0.18227 0.0281 0.45876 0.0
C264 C 0.53318 0.20655 0.25366 0.0
C265 C 0.56395 0.20738 0.22885 0.0
C266 C 0.52219 0.18332 0.30635 0.0
C267 C 0.5426 0.16081 0.33623 0.0
C268 C 0.57292 0.16018 0.30606 0.0
C269 C 0.58294 0.18305 0.25182 0.0
C270 C 0.48934 0.18416 0.33423 0.0
C271 C 0.59571 0.13693 0.33616 0.0
C272 C 0.53322 0.12984 0.54994 0.0
C273 C 0.52378 0.0991 0.53623 0.0
C274 C 0.53868 0.15027 0.48547 0.0
C275 C 0.5337 0.14009 0.40497 0.0
C276 C 0.52255 0.10951 0.391 0.0
C277 C 0.51827 0.08925 0.45658 0.0
C278 C 0.55128 0.18236 0.50355 0.0
C279 C 0.51587 0.09791 0.30667 0.0
H280 H 0.51829 0.22519 0.23658 0.0
H281 H 0.60663 0.18328 0.23207 0.0
H282 H 0.47867 0.16062 0.3351 0.0
H283 H 0.48905 0.19329 0.39653 0.0
H284 H 0.47502 0.19909 0.29511 0.0
H285 H 0.61816 0.13905 0.30526 0.0
H286 H 0.59998 0.14016 0.40175 0.0
H287 H 0.58618 0.11319 0.32729 0.0
H288 H 0.53787 0.13757 0.61113 0.0
H289 H 0.51084 0.06556 0.44543 0.0
H290 H 0.53613 0.19975 0.47584 0.0
H291 H 0.57443 0.18555 0.47687 0.0
H292 H 0.55335 0.18696 0.56923 0.0
H293 H 0.5031 0.07535 0.30647 0.0
H294 H 0.53783 0.09516 0.27474 0.0
H295 H 0.50215 0.1148 0.27211 0.0
C296 C 0.36844 0.5132 0.18623 0.0
C297 C 0.35075 0.4857 0.19133 0.0
C298 C 0.39528 0.518 0.23477 0.0
C299 C 0.40447 0.4949 0.29022 0.0
C300 C 0.38786 0.46635 0.29116 0.0
C301 C 0.36151 0.46205 0.24143 0.0
C302 C 0.41267 0.54852 0.23025 0.0
C303 C 0.39651 0.44103 0.34907 0.0
C304 C 0.48167 0.49695 0.40682 0.0
C305 C 0.47329 0.50938 0.48105 0.0
C306 C 0.45993 0.49325 0.34286 0.0
C307 C 0.42888 0.50156 0.35372 0.0
C308 C 0.42045 0.51437 0.4283 0.0
C309 C 0.4427 0.51833 0.49045 0.0
C310 C 0.47009 0.4801 0.26398 0.0
C311 C 0.38761 0.52315 0.44346 0.0
H312 H 0.36034 0.53165 0.14799 0.0
H313 H 0.34826 0.44053 0.24488 0.0
H314 H 0.40761 0.56252 0.28398 0.0
H315 H 0.43792 0.54508 0.23029 0.0
H316 H 0.40608 0.56177 0.17559 0.0
H317 H 0.38302 0.41929 0.33745 0.0
H318 H 0.42141 0.43624 0.34518 0.0
H319 H 0.39226 0.44853 0.41163 0.0
H320 H 0.50527 0.49025 0.3985 0.0
H321 H 0.43585 0.52792 0.54738 0.0
H322 H 0.46309 0.49528 0.21342 0.0
H323 H 0.45857 0.45727 0.25363 0.0
H324 H 0.49546 0.47732 0.26254 0.0
H325 H 0.37985 0.53986 0.3973 0.0
H326 H 0.38492 0.53351 0.50393 0.0
H327 H 0.37208 0.50244 0.43848 0.0
C328 C 0.01899 0.34808 0.26232 0.0
C329 C 0.99157 0.3524 0.21815 0.0
C330 C 0.02979 0.37015 0.3194 0.0
C331 C 1.01255 0.39687 0.33312 0.0
C332 C 0.98645 0.40251 0.28327 0.0
C333 C 0.97639 0.3803 0.22649 0.0
C334 C 0.05836 0.3638 0.36916 0.0
C335 C 0.96758 0.43084 0.2944 0.0
C336 C 1.0073 0.42882 0.54567 0.0
C337 C 0.02467 0.45659 0.54158 0.0
C338 C 1.00403 0.40896 0.47909 0.0
C339 C 0.01877 0.41663 0.40603 0.0
C340 C 0.03705 0.44418 0.40184 0.0
C341 C 0.03961 0.46385 0.46945 0.0
C342 C 0.98381 0.38019 0.48626 0.0
C343 C 0.05398 0.45292 0.32625 0.0
H344 H 0.03068 0.32647 0.25671 0.0
H345 H 0.95522 0.38383 0.19266 0.0
H346 H 0.07364 0.38473 0.37268 0.0
H347 H 0.05171 0.3577 0.43147 0.0
H348 H 0.0715 0.34456 0.34408 0.0
H349 H 0.94974 0.43329 0.24608 0.0
H350 H 0.95588 0.4295 0.35319 0.0
H351 H 0.98277 0.45185 0.29524 0.0
H352 H 0.99549 0.42279 0.60064 0.0
H353 H 0.0529 0.48518 0.46538 0.0
H354 H 0.99693 0.35961 0.47011 0.0
H355 H 0.9639 0.38145 0.44346 0.0
H356 H 0.97482 0.37692 0.54795 0.0
H357 H 0.07536 0.43954 0.32344 0.0
H358 H 0.06062 0.47776 0.32515 0.0
H359 H 0.03989 0.44749 0.27138 0.0
C360 C 0.87785 0.06711 0.20465 0.0
C361 C 0.8477 0.05445 0.20516 0.0
C362 C 0.89869 0.05957 0.14447 0.0
C363 C 0.88946 0.03831 0.08339 0.0
C364 C 0.8599 0.02345 0.08744 0.0
C365 C 0.8393 0.03181 0.14805 0.0
C366 C 0.92975 0.07621 0.14301 0.0
C367 C 0.84923 1.00025 1.02463 0.0
C368 C 0.92615 0.05192 0.8788 0.0
C369 C 0.95018 0.03089 0.87944 0.0
C370 C 0.90599 0.05404 0.94384 0.0
C371 C 0.90944 0.03435 1.0114 0.0
C372 C 0.93308 1.01244 1.01157 0.0
C373 C 0.95329 1.01115 0.94608 0.0
C374 C 0.88154 0.07811 0.94122 0.0
C375 C 0.93739 0.99076 0.08167 0.0
H376 H 0.88458 0.08437 0.24898 0.0
H377 H 0.81597 0.02211 0.14748 0.0
H378 H 0.94844 0.05957 0.13601 0.0
H379 H 0.93055 0.09204 0.09052 0.0
H380 H 0.9345 0.08992 0.19853 0.0
H381 H 0.82788 0.98748 0.04253 0.0
H382 H 0.8445 1.0123 0.96695 0.0
H383 H 0.86751 0.98348 1.0136 0.0
H384 H 0.92356 0.06748 0.8282 0.0
H385 H 0.97166 0.99474 0.94735 0.0
H386 H 0.88569 0.09479 0.99111 0.0
H387 H 0.85842 0.06714 0.9499 0.0
H388 H 0.88121 0.09103 0.88344 0.0
H389 H 0.94456 1.00405 0.13621 0.0
H390 H 0.95509 0.9734 0.06997 0.0
H391 H 0.91525 0.97855 0.09517 0.0
C392 C 0.52064 0.88123 0.2288 0.0
C393 C 0.53844 0.85528 0.21622 0.0
C394 C 0.52544 0.90844 0.18375 0.0
C395 C 0.54839 0.90963 0.12396 0.0
C396 C 0.56847 0.88457 0.11726 0.0
C397 C 0.56314 0.85768 0.16316 0.0
C398 C 0.5036 0.9345 0.19392 0.0
C399 C 0.59335 0.88463 0.05505 0.0
C400 C 0.52625 0.94922 0.92737 0.0
C401 C 0.54318 0.97733 0.93087 0.0
C402 C 0.52789 0.92738 0.98954 0.0
C403 C 0.547 0.93341 0.05818 0.0
C404 C 0.56433 0.96166 0.0625 0.0
C405 C 0.56226 0.98328 0.99878 0.0
C406 C 0.50899 0.89768 0.98147 0.0
C407 C 0.58493 0.96904 0.1345 0.0
H408 H 0.50109 0.87926 0.26839 0.0
H409 H 0.57651 0.83745 0.15191 0.0
H410 H 0.51606 0.95713 0.19052 0.0
H411 H 0.486 0.93365 0.1445 0.0
H412 H 0.49148 0.93292 0.25217 0.0
H413 H 0.61053 0.86667 0.06769 0.0
H414 H 0.58267 0.88 0.99485 0.0
H415 H 0.60551 0.90742 0.05233 0.0
H416 H 0.51146 0.94407 0.87548 0.0
H417 H 0.57541 1.00485 1.00244 0.0
H418 H 0.49289 0.8953 0.03236 0.0
H419 H 0.52436 0.8777 0.98392 0.0
H420 H 0.49529 0.89648 0.92428 0.0
H421 H 0.57104 0.96912 0.18987 0.0
H422 H 0.59715 0.99176 0.1287 0.0
H423 H 0.60231 0.95097 0.1424 0.0
C424 C 0.70713 0.52155 0.1676 0.0
C425 C 0.70478 0.49166 0.19925 0.0
C426 C 0.68481 0.53217 0.11194 0.0
C427 C 0.66003 0.51217 0.0864 0.0
C428 C 0.65637 0.48292 0.12339 0.0
C429 C 0.67852 0.47328 0.17999 0.0
C430 C 0.689 0.56392 0.07619 0.0
C431 C 0.63065 0.46055 0.09797 0.0
C432 C 0.59075 0.53565 0.95716 0.0
C433 C 0.59975 0.52695 0.87988 0.0
C434 C 0.61078 0.53274 1.02445 0.0
C435 C 0.64015 0.51989 1.01477 0.0
C436 C 0.64954 0.51168 0.93652 0.0
C437 C 0.62943 0.5157 0.8701 0.0
C438 C 0.60014 0.54257 0.10619 0.0
C439 C 0.68029 0.49721 0.92331 0.0
H440 H 0.72746 0.53578 0.18185 0.0
H441 H 0.67651 0.45025 0.20478 0.0
H442 H 0.69794 0.56199 1.01434 0.0
H443 H 0.6666 0.5756 0.0718 0.0
H444 H 0.70557 0.5785 0.11231 0.0
H445 H 0.62957 0.43979 0.1371 0.0
H446 H 0.60804 0.4718 0.09921 0.0
H447 H 0.63426 0.45301 0.03511 0.0
H448 H 0.56791 0.54454 0.96518 0.0
H449 H 0.63648 0.50864 0.81081 0.0
H450 H 0.61844 0.55671 0.13739 0.0
H451 H 0.59551 0.52195 0.144 0.0
H452 H 0.57876 0.55603 0.1021 0.0
H453 H 0.69927 0.51225 0.94808 0.0
H454 H 0.68458 0.49301 0.85858 0.0
H455 H 0.68114 0.47489 0.95582 0.0
C456 C 0.06446 0.67972 0.21517 0.0
C457 C 0.04298 0.70307 0.22346 0.0
C458 C 0.05756 0.65328 0.16861 0.0
C459 C 0.02818 0.64973 0.13026 0.0
C460 C 1.00517 0.6713 0.14708 0.0
C461 C 1.0129 0.69787 0.19294 0.0
C462 C 0.08295 0.63108 0.15324 0.0
C463 C 0.97313 0.66778 0.11067 0.0
C464 C 0.02653 0.61431 0.91989 0.0
C465 C 0.01814 0.58341 0.93482 0.0
C466 C 0.02969 0.6359 0.98286 0.0
C467 C 0.02341 0.62679 0.06313 0.0
C468 C 1.01396 0.59581 0.0784 0.0
C469 C 1.01195 0.57441 1.01438 0.0
C470 C 0.04062 0.66839 0.96352 0.0
C471 C 1.00631 0.58514 0.16239 0.0
H472 H 0.08778 0.68365 0.2385 0.0
H473 H 0.99623 0.71584 0.19855 0.0
H474 H 0.0742 0.60689 0.15637 0.0
H475 H 0.09179 0.635 0.09169 0.0
H476 H 0.1025 0.63414 0.197 0.0
H477 H 0.95651 0.6825 0.1416 0.0
H478 H 0.97361 0.67455 0.04628 0.0
H479 H 0.96474 0.64341 0.11362 0.0
H480 H 0.03166 0.62147 0.85895 0.0
H481 H 1.00535 0.55062 1.02661 0.0
H482 H 0.06214 0.67415 0.99826 0.0
H483 H 0.02305 0.68498 0.98153 0.0
H484 H 0.04516 0.67166 0.89844 0.0
H485 H 0.99445 0.56211 0.1623 0.0
H486 H 0.99139 0.60187 0.19216 0.0
H487 H 0.02782 0.58367 0.19927 0.0
C488 C 0.87599 0.26809 0.2015 0.0
C489 C 0.905 0.27649 0.23477 0.0
C490 C 0.85637 0.24702 0.24163 0.0
C491 C 0.86697 0.23303 0.31377 0.0
C492 C 0.89479 0.2442 0.35135 0.0
C493 C 0.91314 0.2662 0.3118 0.0
C494 C 0.82557 0.23818 0.20324 0.0
C495 C 0.90732 0.2303 0.42845 0.0
C496 C 0.84201 0.17072 0.45549 0.0
C497 C 0.85814 0.14632 0.42302 0.0
C498 C 0.83931 0.19848 0.41242 0.0
C499 C 0.8548 0.20217 0.33859 0.0
C500 C 0.86722 0.1761 0.30125 0.0
C501 C 0.86869 0.14853 0.34418 0.0
C502 C 0.8222 0.22452 0.44914 0.0
C503 C 0.88272 0.17817 0.22062 0.0
H504 H 0.86937 0.27671 0.14254 0.0
H505 H 0.93551 0.27292 0.33753 0.0
H506 H 0.82912 0.22436 0.14824 0.0
H507 H 0.81044 0.22484 0.24457 0.0
H508 H 0.81349 0.25922 0.18392 0.0
H509 H 0.9294 0.2416 0.44898 0.0
H510 H 0.89044 0.23246 0.47715 0.0
H511 H 0.91134 0.2054 0.4197 0.0
H512 H 0.8332 0.16881 0.51596 0.0
H513 H 0.88124 0.12972 0.31926 0.0
H514 H 0.81547 0.24183 0.40325 0.0
H515 H 0.83695 0.23608 0.49599 0.0
H516 H 0.8011 0.21545 0.47901 0.0
H517 H 0.86636 0.18682 0.17444 0.0
H518 H 0.89086 0.1555 0.20008 0.0
H519 H 0.90285 0.19454 0.22414 0.0
C520 C 0.27108 0.94064 0.34637 0.0
C521 C 0.28835 0.96194 0.30051 0.0
C522 C 0.28497 0.9241 0.40955 0.0
C523 C 0.31696 0.92849 0.42565 0.0
C524 C 0.33448 0.94971 0.37876 0.0
C525 C 0.31989 0.96635 0.31774 0.0
C526 C 0.26533 0.90187 0.45781 0.0
C527 C 0.36875 0.95532 0.3935 0.0
C528 C 0.36717 0.92269 0.60635 0.0
C529 C 0.38767 0.90094 0.57766 0.0
C530 C 0.33955 0.92824 0.56442 0.0
C531 C 0.33295 0.91207 0.49206 0.0
C532 C 0.34993 0.88575 0.47371 0.0
C533 C 0.37714 0.88021 0.5177 0.0
C534 C 0.3206 0.95506 0.58954 0.0
C535 C 0.34247 0.86674 0.39966 0.0
H536 H 0.24671 0.93686 0.33291 0.0
H537 H 0.33324 0.98333 0.28427 0.0
H538 H 0.27364 0.9002 0.52121 0.0
H539 H 0.24082 0.90869 0.45731 0.0
H540 H 0.26617 0.87863 0.43044 0.0
H541 H 0.3791 0.97147 0.34896 0.0
H542 H 0.37292 0.96515 0.45448 0.0
H543 H 0.38102 0.93329 0.39052 0.0
H544 H 0.37432 0.93835 0.65437 0.0
H545 H 0.39208 0.8622 0.4981 0.0
H546 H 0.32314 0.95945 0.65525 0.0
H547 H 0.29581 0.95089 0.57412 0.0
H548 H 0.32866 0.97611 0.55726 0.0
H549 H 0.31717 0.86353 0.39093 0.0
H550 H 0.3531 0.84378 0.40331 0.0
H551 H 0.35161 0.87895 0.34601 0.0
C552 C 0.62905 0.31282 0.32377 0.0
C553 C 0.64048 0.29197 0.26887 0.0
C554 C 0.64898 0.33202 0.36915 0.0
C555 C 0.68135 0.3303 0.35896 0.0
C556 C 0.69307 0.30715 0.30882 0.0
C557 C 0.67232 0.2882 0.26372 0.0
C558 C 0.63503 0.35587 0.42273 0.0
C559 C 0.72722 0.30357 0.29806 0.0
C560 C 0.70236 0.41228 0.37857 0.0
C561 C 0.70195 0.41435 0.46297 0.0
C562 C 0.70198 0.38348 0.34067 0.0
C563 C 0.7011 0.35657 0.38864 0.0
C564 C 0.70838 0.35885 0.47171 0.0
C565 C 0.7086 0.38797 0.50851 0.0
C566 C 0.696 0.38184 0.25095 0.0
C567 C 0.71057 0.33049 0.52356 0.0
H568 H 0.60428 0.31514 0.32809 0.0
H569 H 0.68095 0.27148 0.22224 0.0
H570 H 0.64502 0.35456 0.48452 0.0
H571 H 0.64018 0.37932 0.39899 0.0
H572 H 0.60957 0.35284 0.42666 0.0
H573 H 0.73268 0.27885 0.2921 0.0
H574 H 0.73419 0.31517 0.24151 0.0
H575 H 0.74115 0.31371 0.34866 0.0
H576 H 0.69821 0.43246 0.34204 0.0
H577 H 0.7101 0.38952 0.5736 0.0
H578 H 0.671 0.37731 0.23891 0.0
H579 H 0.70885 0.36289 0.22388 0.0
H580 H 0.70274 0.4036 0.22054 0.0
H581 H 0.68718 0.32344 0.54396 0.0
H582 H 0.72535 0.33511 0.57782 0.0
H583 H 0.71998 0.31104 0.48937 0.0
C584 C 0.21051 0.45354 0.20958 0.0
C585 C 0.23797 0.46935 0.23264 0.0
C586 C 0.18199 0.46324 0.23677 0.0
C587 C 0.1813 0.48875 0.2894 0.0
C588 C 0.20916 0.50157 0.32223 0.0
C589 C 0.2373 0.49164 0.29339 0.0
C590 C 0.15265 0.44842 0.20267 0.0
C591 C 0.20929 0.52817 0.38072 0.0
C592 C 0.11883 0.5476 0.26879 0.0
C593 C 0.10165 0.54115 0.33724 0.0
C594 C 0.14406 0.52953 0.25017 0.0
C595 C 0.1521 0.50478 0.30179 0.0
C596 C 0.13396 0.49758 0.36919 0.0
C597 C 0.10935 0.5163 0.38691 0.0
C598 C 0.16295 0.53782 0.17748 0.0
C599 C 0.14152 0.47148 0.42572 0.0
H600 H 0.2111 0.43593 0.16344 0.0
H601 H 0.25843 0.5039 0.31164 0.0
H602 H 0.13606 0.44343 0.25131 0.0
H603 H 0.14153 0.4646 0.16008 0.0
H604 H 0.15706 0.4267 0.17012 0.0
H605 H 0.20205 0.54928 0.34862 0.0
H606 H 0.19265 0.52358 0.42943 0.0
H607 H 0.23252 0.53275 0.40832 0.0
H608 H 0.11313 0.56724 0.23156 0.0
H609 H 0.09699 0.5124 0.44213 0.0
H610 H 0.16615 0.51711 0.14 0.0
H611 H 0.18621 0.54647 0.19733 0.0
H612 H 0.15206 0.55579 0.13966 0.0
H613 H 0.14954 0.45117 0.39245 0.0
H614 H 0.12126 0.46427 0.46191 0.0
H615 H 0.16038 0.47914 0.46783 0.0
C616 C 0.12334 0.81981 0.14221 0.0
C617 C 0.10653 0.79227 0.12626 0.0
C618 C 0.13597 0.83747 0.07985 0.0
C619 C 0.13466 0.82582 1.00012 0.0
C620 C 0.12288 0.79555 0.98608 0.0
C621 C 0.10784 0.77964 0.04833 0.0
C622 C 0.14845 0.86957 0.09931 0.0
C623 C 0.12427 0.78028 0.90472 0.0
C624 C 0.11563 0.88771 0.85134 0.0
C625 C 0.14419 0.90336 0.84684 0.0
C626 C 0.11248 0.86049 0.89558 0.0
C627 C 0.13905 0.84768 0.93209 0.0
C628 C 0.16865 0.86075 0.91571 0.0
C629 C 0.17082 0.88923 0.87564 0.0
C630 C 0.08024 0.84764 0.91005 0.0
C631 C 0.19797 0.84618 0.94482 0.0
H632 H 0.12509 0.82875 0.20297 0.0
H633 H 0.09593 0.75809 0.03364 0.0
H634 H 0.17387 0.87028 0.0937 0.0
H635 H 0.1388 0.88678 0.057 0.0
H636 H 0.14307 0.87672 0.16156 0.0
H637 H 0.13446 0.75724 0.91184 0.0
H638 H 0.10055 0.77632 0.87979 0.0
H639 H 0.13817 0.7938 0.86099 0.0
H640 H 0.09507 0.89869 0.82844 0.0
H641 H 0.19302 0.90118 0.8709 0.0
H642 H 0.07638 0.84438 0.97541 0.0
H643 H 0.07719 0.82494 0.88023 0.0
H644 H 0.06209 0.86283 0.88567 0.0
H645 H 0.20967 0.86117 0.99082 0.0
H646 H 0.21407 0.84452 0.89393 0.0
H647 H 0.19397 0.8228 0.97029 0.0
C648 C 0.77236 0.16831 0.29881 0.0
C649 C 0.78638 0.14713 0.24834 0.0
C650 C 0.74804 0.18608 0.26922 0.0
C651 C 0.73727 0.18129 0.1892 0.0
C652 C 0.75622 0.16584 0.13468 0.0
C653 C 0.78103 0.14919 0.16507 0.0
C654 C 0.73097 0.20584 0.32686 0.0
C655 C 0.74703 0.16179 0.0471 0.0
C656 C 0.65798 0.14689 0.15449 0.0
C657 C 0.64677 0.16601 0.0936 0.0
C658 C 0.68619 0.15359 0.19346 0.0
C659 C 0.70348 0.18052 0.17149 0.0
C660 C 0.68999 0.20219 0.11867 0.0
C661 C 0.66174 0.19453 0.07946 0.0
C662 C 0.69869 0.12995 0.25164 0.0
C663 C 0.70614 0.23238 0.09868 0.0
H664 H 0.77752 0.16809 0.36292 0.0
H665 H 0.79261 0.13388 0.12486 0.0
H666 H 0.71539 0.22182 0.29485 0.0
H667 H 0.71706 0.19093 0.36754 0.0
H668 H 0.74769 0.21941 0.36508 0.0
H669 H 0.7654 0.15104 1.01192 0.0
H670 H 0.72581 0.14692 0.04195 0.0
H671 H 0.74199 0.18435 1.01955 0.0
H672 H 0.64562 0.12545 0.16766 0.0
H673 H 0.65262 0.20986 0.03386 0.0
H674 H 0.7049 0.14088 0.31017 0.0
H675 H 0.71979 0.1199 0.22719 0.0
H676 H 0.68178 0.11082 0.26315 0.0
H677 H 0.72308 0.23965 0.14644 0.0
H678 H 0.68907 0.25072 0.08977 0.0
H679 H 0.7184 0.23021 0.04115 0.0
C680 C 0.45445 0.78139 0.06875 0.0
C681 C 0.47519 0.76552 0.11862 0.0
C682 C 0.43829 0.76622 1.00536 0.0
C683 C 0.44257 0.73439 0.99302 0.0
C684 C 0.46359 0.7184 0.04313 0.0
C685 C 0.47984 0.73424 0.10433 0.0
C686 C 0.41641 0.78427 0.95314 0.0
C687 C 0.46915 0.68441 0.03228 0.0
C688 C 0.39232 0.67177 0.90577 0.0
C689 C 0.41213 0.66171 0.846 0.0
C690 C 0.39908 0.69917 0.94796 0.0
C691 C 0.42578 0.71687 0.92828 0.0
C692 C 0.44155 0.71027 0.85695 0.0
C693 C 0.43477 0.68246 0.81684 0.0
C694 C 0.38068 0.70635 1.02132 0.0
C695 C 0.46889 0.72979 0.83064 0.0
H696 H 0.45062 0.80557 0.07967 0.0
H697 H 0.49649 0.72204 0.14087 0.0
H698 H 0.41536 0.77559 0.89034 0.0
H699 H 0.39289 0.7821 0.97799 0.0
H700 H 0.42317 0.80915 0.95228 0.0
H701 H 0.48532 0.67532 0.07862 0.0
H702 H 0.44705 0.67097 0.03559 0.0
H703 H 0.47894 0.68032 0.97217 0.0
H704 H 0.37376 0.65656 0.92596 0.0
H705 H 0.44988 0.67555 0.76935 0.0
H706 H 0.3779 0.73153 1.02744 0.0
H707 H 0.39318 0.69816 0.07588 0.0
H708 H 0.35749 0.69476 1.01891 0.0
H709 H 0.46565 0.75449 0.84419 0.0
H710 H 0.4728 0.72716 0.76514 0.0
H711 H 0.4899 0.72233 0.86362 0.0
C712 C 0.80191 0.42544 0.11088 0.0
C713 C 0.78396 0.41333 0.17269 0.0
C714 C 0.82166 0.40683 0.06853 0.0
C715 C 0.82261 0.37485 0.08667 0.0
C716 C 0.80259 0.36205 0.14527 0.0
C717 C 0.78376 0.38167 0.18885 0.0
C718 C 0.84328 0.42218 1.00916 0.0
C719 C 0.80144 0.3281 0.16474 0.0
C720 C 0.8766 0.35114 0.93062 0.0
C721 C 0.90433 0.35789 0.97285 0.0
C722 C 0.84849 0.34999 0.97127 0.0
C723 C 0.84846 0.35726 0.05417 0.0
C724 C 0.87657 0.35761 0.09877 0.0
C725 C 0.90433 0.3575 0.05727 0.0
C726 C 0.81874 0.34535 0.92395 0.0
C727 C 0.87743 0.36295 0.18864 0.0
H728 H 0.80191 0.45005 0.09928 0.0
H729 H 0.76958 0.37242 0.23672 0.0
H730 H 0.86762 0.41769 1.02612 0.0
H731 H 0.83884 0.41274 0.94797 0.0
H732 H 0.84062 0.44753 1.00617 0.0
H733 H 0.77799 0.31856 0.15012 0.0
H734 H 0.81833 0.31471 0.13102 0.0
H735 H 0.80552 0.32468 0.23032 0.0
H736 H 0.87652 0.34987 0.86544 0.0
H737 H 0.9257 0.36155 0.09057 0.0
H738 H 0.81058 0.36793 0.90226 0.0
H739 H 0.80055 0.33472 0.96211 0.0
H740 H 0.82209 0.33053 0.87056 0.0
H741 H 0.8668 0.38519 0.20302 0.0
H742 H 0.90125 0.36357 0.21414 0.0
H743 H 0.86397 0.34434 0.21895 0.0
C744 C 1.00979 0.25287 1.01624 0.0
C745 C 0.97931 0.26295 1.01667 0.0
C746 C 0.01839 0.22871 0.96506 0.0
C747 C 0.9959 0.2138 0.91418 0.0
C748 C 0.96566 0.22527 0.91069 0.0
C749 C 0.95798 0.24994 0.96054 0.0
C750 C 0.05118 0.21802 0.96884 0.0
C751 C 0.94065 0.21001 0.8588 0.0
C752 C 1.01518 0.15605 0.749 0.0
C753 C 1.01181 0.12785 0.78968 0.0
C754 C 1.01142 0.1843 0.78939 0.0
C755 C 1.00279 0.18432 0.87144 0.0
C756 C 0.99902 0.15576 0.91214 0.0
C757 C 1.00412 0.12806 0.87131 0.0
C758 C 1.01663 0.21412 0.74427 0.0
C759 C 0.9887 0.15433 0.99844 0.0
H760 H 0.02655 0.26261 0.059 0.0
H761 H 0.93455 0.25801 0.95862 0.0
H762 H 0.052 0.19577 1.00157 0.0
H763 H 0.05981 0.21413 0.90733 0.0
H764 H 0.0669 0.2349 1.00035 0.0
H765 H 0.91894 0.22298 0.85839 0.0
H766 H 0.94839 0.20772 0.79596 0.0
H767 H 0.93559 0.18641 0.88174 0.0
H768 H 0.02123 0.15602 0.686 0.0
H769 H 1.00105 0.10632 0.90279 0.0
H770 H 0.033 0.22948 0.7786 0.0
H771 H 0.99462 0.22634 0.73783 0.0
H772 H 0.02589 0.21034 0.6833 0.0
H773 H 0.98626 0.1303 1.02101 0.0
H774 H 0.96615 0.16554 1.00382 0.0
H775 H 1.00552 0.16714 0.0379 0.0
C776 C 0.3122 0.98947 0.99751 0.0
C777 C 0.29686 1.0138 0.03388 0.0
C778 C 0.33735 0.99487 0.94663 0.0
C779 C 0.34699 0.02549 0.92839 0.0
C780 C 0.32948 0.05015 0.95773 0.0
C781 C 0.30487 0.04406 1.01082 0.0
C782 C 0.35532 0.9677 0.91866 0.0
C783 C 0.33802 0.08312 0.9374 0.0
C784 C 0.43361 0.03918 0.90125 0.0
C785 C 0.43677 0.03777 0.81733 0.0
C786 C 0.40464 0.03563 0.93742 0.0
C787 C 0.37759 0.03145 0.88882 0.0
C788 C 0.38045 0.03088 0.80376 0.0
C789 C 0.41 0.03352 0.76912 0.0
C790 C 0.40319 0.03529 1.02823 0.0
C791 C 0.35229 0.02744 0.74938 0.0
H792 H 0.30586 0.96594 1.01358 0.0
H793 H 0.29327 0.06308 0.03816 0.0
H794 H 0.35936 0.96912 0.85308 0.0
H795 H 0.37826 0.96801 0.94956 0.0
H796 H 0.34334 0.94534 0.93178 0.0
H797 H 0.31906 0.09889 0.95076 0.0
H798 H 0.35872 0.0906 0.97334 0.0
H799 H 0.34382 0.08535 0.87284 0.0
H800 H 0.45407 0.04207 0.93934 0.0
H801 H 0.41212 0.03253 0.70428 0.0
H802 H 0.39283 1.01304 0.04883 0.0
H803 H 0.38823 0.05383 0.04914 0.0
H804 H 0.42631 0.0385 0.05751 0.0
H805 H 0.34027 1.00499 0.76043 0.0
H806 H 0.35814 0.02885 0.68464 0.0
H807 H 0.33581 0.04572 0.76304 0.0
C808 C 0.55707 0.29776 0.97379 0.0
C809 C 0.5625 0.30533 0.05499 0.0
C810 C 0.54955 0.3207 0.91659 0.0
C811 C 0.54763 0.35195 0.94107 0.0
C812 C 0.55135 0.35922 1.02386 0.0
C813 C 0.55845 0.33591 0.07944 0.0
C814 C 0.54528 0.31177 0.82933 0.0
C815 C 0.54975 0.39203 0.05341 0.0
C816 C 0.56818 0.41855 0.79928 0.0
C817 C 0.5393 0.43123 0.78239 0.0
C818 C 0.57103 0.3922 0.84818 0.0
C819 C 0.54434 0.37756 0.88051 0.0
C820 C 0.51498 0.3894 0.86074 0.0
C821 C 0.51283 0.41617 0.81271 0.0
C822 C 0.60287 0.38091 0.86843 0.0
C823 C 0.48587 0.37443 0.89274 0.0
H824 H 0.56035 0.27429 0.95427 0.0
H825 H 0.56244 0.34193 0.14221 0.0
H826 H 0.52428 0.32223 0.80325 0.0
H827 H 0.56525 0.3207 0.79469 0.0
H828 H 0.5434 0.28638 0.82134 0.0
H829 H 0.55096 0.39357 0.12015 0.0
H830 H 0.56922 0.406 0.02873 0.0
H831 H 0.52807 0.4025 0.03187 0.0
H832 H 0.58886 0.42996 0.77689 0.0
H833 H 0.49037 0.42557 0.80003 0.0
H834 H 0.60409 0.35593 0.85551 0.0
H835 H 0.60785 0.38412 0.93373 0.0
H836 H 0.62113 0.39338 0.83423 0.0
H837 H 0.48573 0.34919 0.88227 0.0
H838 H 0.46478 0.38397 0.86438 0.0
H839 H 0.48497 0.37808 0.95872 0.0
C840 C 0.25307 0.53014 0.97619 0.0
C841 C 0.26832 0.50218 0.96996 0.0
C842 C 0.22569 0.53532 0.93191 0.0
C843 C 0.21403 0.51256 0.87728 0.0
C844 C 0.23219 0.48669 0.86135 0.0
C845 C 0.25897 0.48164 0.9085 0.0
C846 C 0.20712 0.563 0.95252 0.0
C847 C 0.22151 0.46244 0.80135 0.0
C848 C 0.1267 0.4984 0.87099 0.0
C849 C 0.1175 0.5148 0.8022 0.0
C850 C 0.15791 0.4976 0.89564 0.0
C851 C 0.18088 0.51291 0.84934 0.0
C852 C 0.17184 0.52888 0.77863 0.0
C853 C 0.14028 0.53 0.75656 0.0
C854 C 0.16623 0.48044 0.97188 0.0
C855 C 0.19552 0.54473 0.72627 0.0
H856 H 0.2598 0.54582 1.02464 0.0
H857 H 0.27032 0.45979 0.904 0.0
H858 H 0.22139 0.58096 0.98454 0.0
H859 H 0.19671 0.57332 0.89769 0.0
H860 H 0.18798 0.55561 0.99227 0.0
H861 H 0.24088 0.44806 0.78241 0.0
H862 H 0.2038 0.44709 0.82916 0.0
H863 H 0.21086 0.47309 0.7472 0.0
H864 H 0.10935 0.48667 0.90689 0.0
H865 H 0.13348 0.54251 0.70288 0.0
H866 H 0.18093 0.49529 1.01214 0.0
H867 H 0.17975 0.46001 0.95682 0.0
H868 H 0.14553 0.47253 1.00533 0.0
H869 H 0.20755 0.56361 0.76036 0.0
H870 H 0.18502 0.55454 0.6707 0.0
H871 H 0.21327 0.52821 0.70892 0.0
C872 C 1.01462 0.81047 0.39847 0.0
C873 C 0.04513 0.80702 0.37397 0.0
C874 C 1.0068 0.83505 0.44962 0.0
C875 C 0.02984 0.85709 0.47524 0.0
C876 C 0.06085 0.85253 0.45435 0.0
C877 C 0.0681 0.82735 0.406 0.0
C878 C 0.97366 0.83818 0.47337 0.0
C879 C 0.08629 0.87543 0.47836 0.0
C880 C 1.01011 0.94121 0.50983 0.0
C881 C 1.01492 0.94461 0.59322 0.0
C882 C 1.01386 0.9127 0.47135 0.0
C883 C 0.02169 0.88639 0.51736 0.0
C884 C 0.02507 0.88933 0.60222 0.0
C885 C 0.02223 0.91845 0.63885 0.0
C886 C 1.01109 0.91118 0.38067 0.0
C887 C 0.03254 0.86194 0.65433 0.0
H888 H 0.99667 0.79493 0.3748 0.0
H889 H 0.09191 0.82449 0.38943 0.0
H890 H 0.97231 0.84364 0.53845 0.0
H891 H 0.96332 0.85747 0.43945 0.0
H892 H 0.95966 0.81685 0.46056 0.0
H893 H 0.08158 0.89822 0.45112 0.0
H894 H 0.08713 0.87853 0.54458 0.0
H895 H 0.10934 0.86822 0.45872 0.0
H896 H 1.00478 0.96127 0.47379 0.0
H897 H 0.02586 0.92073 0.70334 0.0
H898 H 0.99413 0.89282 0.3621 0.0
H899 H 0.03366 0.90525 0.35537 0.0
H900 H 1.00384 0.93333 0.35376 0.0
H901 H 0.01842 0.84139 0.63535 0.0
H902 H 0.02852 0.8665 0.71903 0.0
H903 H 0.05714 0.85631 0.64769 0.0
C904 C 0.72462 0.05429 0.36217 0.0
C905 C 0.75506 0.05372 0.3924 0.0
C906 C 0.69924 0.04833 0.41196 0.0
C907 C 0.70422 0.04149 0.49462 0.0
C908 C 0.73501 0.0391 0.52442 0.0
C909 C 0.76006 0.04546 0.4731 0.0
C910 C 0.66707 0.05146 0.377 0.0
C911 C 0.74152 0.03161 0.61167 0.0
C912 C 0.63936 0.06438 0.63382 0.0
C913 C 0.62233 0.03657 0.64245 0.0
C914 C 0.66643 0.06606 0.58802 0.0
C915 C 0.67722 0.03923 0.55028 0.0
C916 C 0.66086 1.01085 0.56147 0.0
C917 C 0.63363 1.00989 0.60677 0.0
C918 C 0.68279 0.09692 0.57728 0.0
C919 C 0.67152 0.98162 0.52313 0.0
H920 H 0.72066 0.06133 0.30024 0.0
H921 H 0.78348 0.04575 0.49725 0.0
H922 H 0.6521 0.03148 0.39422 0.0
H923 H 0.65672 0.07247 0.40155 0.0
H924 H 0.66698 0.05327 0.31027 0.0
H925 H 0.76625 0.02689 0.62329 0.0
H926 H 0.73512 0.05131 0.64977 0.0
H927 H 0.72734 1.01129 0.6306 0.0
H928 H 0.63091 0.08523 0.66034 0.0
H929 H 0.62085 0.98822 0.61285 0.0
H930 H 0.68155 0.10383 0.51298 0.0
H931 H 0.70756 0.09532 0.59427 0.0
H932 H 0.67258 0.11528 0.61392 0.0
H933 H 0.66916 0.98344 0.45668 0.0
H934 H 0.65802 0.96098 0.54326 0.0
H935 H 0.69629 0.97828 0.53763 0.0
C936 C 0.55184 0.75031 0.41562 0.0
C937 C 0.52198 0.75896 0.39292 0.0
C938 C 0.55651 0.72472 0.46677 0.0
C939 C 0.53076 0.70701 0.49455 0.0
C940 C 0.50067 0.7174 0.47745 0.0
C941 C 0.49672 0.74339 0.42809 0.0
C942 C 0.58902 0.71529 0.48606 0.0
C943 C 0.47241 0.6994 0.50463 0.0
C944 C 0.53871 0.61987 0.51194 0.0
C945 C 0.5383 0.61486 0.59544 0.0
C946 C 0.53659 0.64963 0.47901 0.0
C947 C 0.53482 0.67551 0.53056 0.0
C948 C 0.53506 0.67074 0.61515 0.0
C949 C 0.53642 0.64049 0.64652 0.0
C950 C 0.53535 0.65322 0.38853 0.0
C951 C 0.53413 0.69759 0.67253 0.0
H952 H 0.5715 0.76206 0.38881 0.0
H953 H 0.47355 0.75011 0.41153 0.0
H954 H 0.59133 0.70831 0.55013 0.0
H955 H 0.59465 0.69515 0.44863 0.0
H956 H 0.60612 0.73419 0.47382 0.0
H957 H 0.45087 0.71213 0.49366 0.0
H958 H 0.47052 0.67724 0.47138 0.0
H959 H 0.47428 0.69383 0.56966 0.0
H960 H 0.53983 0.6003 0.47175 0.0
H961 H 0.53631 0.63694 0.71111 0.0
H962 H 0.55473 0.66842 0.36863 0.0
H963 H 0.5136 0.66431 0.36982 0.0
H964 H 0.53659 0.63081 0.35674 0.0
H965 H 0.55531 0.71227 0.66595 0.0
H966 H 0.53255 0.69004 0.73628 0.0
H967 H 0.51421 0.71219 0.65788 0.0
C968 C 0.8025 0.45886 0.46576 0.0
C969 C 0.79174 0.4809 0.41068 0.0
C970 C 0.82701 0.46575 0.52004 0.0
C971 C 0.84073 0.49575 0.52126 0.0
C972 C 0.82775 0.51898 0.47192 0.0
C973 C 0.80356 0.51124 0.41679 0.0
C974 C 0.84003 0.44005 0.57044 0.0
C975 C 0.84097 0.55149 0.47286 0.0
C976 C 0.90187 0.51386 0.68621 0.0
C977 C 0.92929 0.51044 0.6441 0.0
C978 C 0.87279 0.50995 0.64692 0.0
C979 C 0.87113 0.50141 0.5644 0.0
C980 C 0.89888 0.49724 0.52255 0.0
C981 C 0.92744 0.50224 0.56244 0.0
C982 C 0.84387 0.51534 0.69328 0.0
C983 C 0.89851 0.48712 0.43551 0.0
H984 H 0.79312 0.43545 0.46249 0.0
H985 H 0.79547 0.52846 0.3747 0.0
H986 H 0.86253 0.43347 0.54582 0.0
H987 H 0.84432 0.44767 0.63343 0.0
H988 H 0.82444 0.41929 0.57073 0.0
H989 H 0.82519 0.56784 0.44286 0.0
H990 H 0.84572 0.55931 0.53556 0.0
H991 H 0.8632 0.55226 0.44083 0.0
H992 H 0.90317 0.52036 0.74918 0.0
H993 H 0.94854 0.49918 0.52974 0.0
H994 H 0.82911 0.49405 0.69398 0.0
H995 H 0.83029 0.53345 0.66306 0.0
H996 H 0.849 0.52251 0.75641 0.0
H997 H 0.88515 0.46506 0.42864 0.0
H998 H 0.92208 0.48393 0.41244 0.0
H999 H 0.88692 0.50449 0.39739 0.0
loop_
_geom_bond_atom_site_label_1
_geom_bond_atom_site_label_2
_geom_bond_distance
_geom_bond_site_symmetry_2
_ccdc_geom_bond_type
H0 C3 0.931 . S
H1 C6 0.928 . S
H2 C8 0.930 . S
C3 H0 0.931 . S
C3 C4 1.413 . S
C3 C5 1.360 . S
C4 C3 1.413 . S
C4 C8 1.429 . S
C5 C3 1.360 . S
C5 C6 1.372 . S
C6 H1 0.928 . S
C6 C5 1.372 . S
C6 C7 1.404 . S
C7 C6 1.404 . S
C7 C8 1.391 . S
C8 H2 0.930 . S
C8 C4 1.429 . S
C8 C7 1.391 . S
H9 C12 0.931 . S
H10 C15 0.928 . S
H11 C17 0.930 . S
C12 H9 0.931 . S
C12 C13 1.413 . S
C12 C14 1.360 . S
C13 C12 1.413 . S
C13 C17 1.429 . S
C14 C12 1.360 . S
C14 C15 1.372 . S
C15 H10 0.928 . S
C15 C14 1.372 . S
C15 C16 1.404 . S
C16 C15 1.404 . S
C16 C17 1.391 . S
C17 H11 0.930 . S
C17 C13 1.429 . S
C17 C16 1.391 . S
H18 C21 0.931 . S
H19 C24 0.928 . S
H20 C26 0.930 . S
C21 H18 0.931 . S
C21 C22 1.413 . S
C21 C23 1.360 . S
C22 C21 1.413 . S
C22 C26 1.429 . S
C23 C21 1.360 . S
C23 C24 1.372 . S
C24 H19 0.928 . S
C24 C23 1.372 . S
C24 C25 1.404 . S
C25 C24 1.404 . S
C25 C26 1.391 . S
C26 H20 0.930 . S
C26 C22 1.429 . S
C26 C25 1.391 . S
H27 C30 0.931 . S
H28 C33 0.928 . S
H29 C35 0.930 . S
C30 H27 0.931 . S
C30 C31 1.413 . S
C30 C32 1.360 . S
C31 C30 1.413 . S
C31 C35 1.429 . S
C32 C30 1.360 . S
C32 C33 1.372 . S
C33 H28 0.928 . S
C33 C32 1.372 . S
C33 C34 1.404 . S
C34 C33 1.404 . S
C34 C35 1.391 . S
C35 H29 0.930 . S
C35 C31 1.429 . S
C35 C34 1.391 . S
H36 C39 0.931 . S
H37 C42 0.928 . S
H38 C44 0.930 1_556 S
C39 H36 0.931 . S
C39 C40 1.413 1_554 S
C39 C41 1.360 . S
C40 C39 1.413 1_556 S
C40 C44 1.429 1_556 S
C41 C39 1.360 . S
C41 C42 1.372 . S
C42 H37 0.928 . S
C42 C41 1.372 . S
C42 C43 1.404 . S
C43 C42 1.404 . S
C43 C44 1.391 . S
C44 H38 0.930 1_554 S
C44 C40 1.429 1_554 S
C44 C43 1.391 . S
H45 C48 0.931 . S
H46 C51 0.928 . S
H47 C53 0.930 . S
C48 H45 0.931 . S
C48 C49 1.413 1_554 S
C48 C50 1.360 . S
C49 C48 1.413 1_556 S
C49 C53 1.429 . S
C50 C48 1.360 . S
C50 C51 1.372 . S
C51 H46 0.928 . S
C51 C50 1.372 . S
C51 C52 1.404 . S
C52 C51 1.404 . S
C52 C53 1.391 1_554 S
C53 H47 0.930 . S
C53 C49 1.429 . S
C53 C52 1.391 1_556 S
H54 C57 0.931 . S
H55 C60 0.928 . S
H56 C62 0.930 . S
C57 H54 0.931 . S
C57 C58 1.413 . S
C57 C59 1.360 1_556 S
C58 C57 1.413 . S
C58 C62 1.429 . S
C59 C57 1.360 1_554 S
C59 C60 1.372 . S
C60 H55 0.928 . S
C60 C59 1.372 . S
C60 C61 1.404 . S
C61 C60 1.404 . S
C61 C62 1.391 1_554 S
C62 H56 0.930 . S
C62 C58 1.429 . S
C62 C61 1.391 1_556 S
H63 C66 0.931 . S
H64 C69 0.928 1_556 S
H65 C71 0.930 . S
C66 H63 0.931 . S
C66 C67 1.413 . S
C66 C68 1.360 1_554 S
C67 C66 1.413 . S
C67 C71 1.429 . S
C68 C66 1.360 1_556 S
C68 C69 1.372 1_556 S
C69 H64 0.928 1_554 S
C69 C68 1.372 1_554 S
C69 C70 1.404 . S
C70 C69 1.404 . S
C70 C71 1.391 . S
C71 H65 0.930 . S
C71 C67 1.429 . S
C71 C70 1.391 . S
Eu72 C81 2.828 . S
Eu72 O83 2.392 . S
Eu72 O85 2.418 1_545 S
Eu72 O90 2.373 1_655 S
Eu72 O93 2.488 . S
Eu72 O94 2.471 . S
Eu72 O95 2.349 1_655 S
Eu73 O82 2.373 1_455 S
Eu73 O86 2.488 . S
Eu73 O87 2.471 . S
Eu73 O88 2.349 . S
Eu73 O91 2.392 1_565 S
Eu73 O92 2.418 1_565 S
Eu73 C102 2.828 . S
C74 O92 1.244 . S
C74 O95 1.265 . S
C75 C76 1.379 1_655 S
C75 C79 1.373 . S
C75 C81 1.505 . S
C76 C75 1.379 1_455 S
C76 C78 1.369 . S
C76 H104 0.930 . S
C77 C79 1.383 . S
C77 C80 1.382 . S
C77 H105 0.930 . S
C78 C76 1.369 . S
C78 C80 1.392 1_455 S
C78 H106 0.930 . S
C79 C75 1.373 . S
C79 C77 1.383 . S
C79 H107 0.931 . S
C80 C77 1.382 . S
C80 C78 1.392 1_655 S
C81 Eu72 2.828 . S
C81 C75 1.505 . S
C81 O93 1.249 . S
C81 O94 1.244 . S
O82 Eu73 2.373 1_655 S
O82 C84 1.264 . S
O83 Eu72 2.392 . S
O83 C84 1.232 1_545 S
C84 O82 1.264 . S
C84 O83 1.232 1_565 S
O85 Eu72 2.418 1_565 S
O85 C89 1.244 . S
O86 Eu73 2.488 . S
O86 C102 1.249 . S
O87 Eu73 2.471 . S
O87 C102 1.244 . S
O88 Eu73 2.349 . S
O88 C89 1.265 1_455 S
C89 O85 1.244 . S
C89 O88 1.265 1_655 S
O90 Eu72 2.373 1_455 S
O90 C103 1.258 . S
O91 Eu73 2.392 1_545 S
O91 C103 1.242 . S
O92 Eu73 2.418 1_545 S
O92 C74 1.244 . S
O93 Eu72 2.488 . S
O93 C81 1.249 . S
O94 Eu72 2.471 . S
O94 C81 1.244 . S
O95 Eu72 2.349 1_455 S
O95 C74 1.265 . S
C96 C97 1.379 . S
C96 C100 1.373 1_556 S
C96 C102 1.505 . S
C97 C96 1.379 . S
C97 C99 1.369 . S
C97 H108 0.930 1_455 S
C98 C100 1.383 . S
C98 C101 1.382 . S
C98 H109 0.930 . S
C99 C97 1.369 . S
C99 C101 1.392 1_556 S
C99 H110 0.930 1_455 S
C100 C96 1.373 1_554 S
C100 C98 1.383 . S
C100 H111 0.931 . S
C101 C98 1.382 . S
C101 C99 1.392 1_554 S
C102 Eu73 2.828 . S
C102 O86 1.249 . S
C102 O87 1.244 . S
C102 C96 1.505 . S
C103 O90 1.258 . S
C103 O91 1.242 . S
H104 C76 0.930 . S
H105 C77 0.930 . S
H106 C78 0.930 . S
H107 C79 0.931 . S
H108 C97 0.930 1_655 S
H109 C98 0.930 . S
H110 C99 0.930 1_655 S
H111 C100 0.931 . S
Eu112 C121 2.828 . S
Eu112 O123 2.392 . S
Eu112 O125 2.418 . S
Eu112 O130 2.373 . S
Eu112 O133 2.488 . S
Eu112 O134 2.471 . S
Eu112 O135 2.349 1_545 S
Eu113 O122 2.373 1_565 S
Eu113 O126 2.488 . S
Eu113 O127 2.471 1_565 S
Eu113 O128 2.349 1_565 S
Eu113 O131 2.392 . S
Eu113 O132 2.418 . S
Eu113 C142 2.828 . S
C114 O132 1.244 . S
C114 O135 1.265 . S
C115 C116 1.379 . S
C115 C119 1.373 . S
C115 C121 1.505 . S
C116 C115 1.379 . S
C116 C118 1.369 . S
C116 H144 0.930 1_545 S
C117 C119 1.383 . S
C117 C120 1.382 . S
C117 H145 0.930 . S
C118 C116 1.369 . S
C118 C120 1.392 . S
C118 H146 0.930 1_545 S
C119 C115 1.373 . S
C119 C117 1.383 . S
C119 H147 0.931 . S
C120 C117 1.382 . S
C120 C118 1.392 . S
C121 Eu112 2.828 . S
C121 C115 1.505 . S
C121 O133 1.249 . S
C121 O134 1.244 . S
O122 Eu113 2.373 1_545 S
O122 C124 1.258 . S
O123 Eu112 2.392 . S
O123 C124 1.242 . S
C124 O122 1.258 . S
C124 O123 1.242 . S
O125 Eu112 2.418 . S
O125 C129 1.244 . S
O126 Eu113 2.488 . S
O126 C142 1.249 . S
O127 Eu113 2.471 1_545 S
O127 C142 1.244 1_545 S
O128 Eu113 2.349 1_545 S
O128 C129 1.265 . S
C129 O125 1.244 . S
C129 O128 1.265 . S
O130 Eu112 2.373 . S
O130 C143 1.258 1_545 S
O131 Eu113 2.392 . S
O131 C143 1.242 . S
O132 Eu113 2.418 . S
O132 C114 1.244 . S
O133 Eu112 2.488 . S
O133 C121 1.249 . S
O134 Eu112 2.471 . S
O134 C121 1.244 . S
O135 Eu112 2.349 1_565 S
O135 C114 1.265 . S
C136 C137 1.379 1_565 S
C136 C140 1.373 . S
C136 C142 1.505 . S
C137 C136 1.379 1_545 S
C137 C139 1.369 . S
C137 H148 0.930 . S
C138 C140 1.383 . S
C138 C141 1.382 . S
C138 H149 0.930 . S
C139 C137 1.369 . S
C139 C141 1.392 1_545 S
C139 H150 0.930 . S
C140 C136 1.373 . S
C140 C138 1.383 . S
C140 H151 0.931 . S
C141 C138 1.382 . S
C141 C139 1.392 1_565 S
C142 Eu113 2.828 . S
C142 O126 1.249 . S
C142 O127 1.244 1_565 S
C142 C136 1.505 . S
C143 O130 1.258 1_565 S
C143 O131 1.242 . S
H144 C116 0.930 1_565 S
H145 C117 0.930 . S
H146 C118 0.930 1_565 S
H147 C119 0.931 . S
H148 C137 0.930 . S
H149 C138 0.930 . S
H150 C139 0.930 . S
H151 C140 0.931 . S
Eu152 C161 2.828 . S
Eu152 O163 2.392 . S
Eu152 O165 2.418 . S
Eu152 O170 2.373 . S
Eu152 O173 2.488 . S
Eu152 O174 2.471 . S
Eu152 O175 2.349 . S
Eu153 O162 2.373 . S
Eu153 O166 2.488 . S
Eu153 O167 2.471 . S
Eu153 O168 2.349 . S
Eu153 O171 2.392 . S
Eu153 O172 2.418 . S
Eu153 C182 2.828 . S
C154 O172 1.244 . S
C154 O175 1.265 . S
C155 C156 1.379 . S
C155 C159 1.373 . S
C155 C161 1.505 . S
C156 C155 1.379 . S
C156 C158 1.369 . S
C156 H184 0.930 . S
C157 C159 1.383 . S
C157 C160 1.382 . S
C157 H185 0.930 . S
C158 C156 1.369 . S
C158 C160 1.392 . S
C158 H186 0.930 . S
C159 C155 1.373 . S
C159 C157 1.383 . S
C159 H187 0.931 . S
C160 C157 1.382 . S
C160 C158 1.392 . S
C161 Eu152 2.828 . S
C161 C155 1.505 . S
C161 O173 1.249 . S
C161 O174 1.244 . S
O162 Eu153 2.373 . S
O162 C164 1.258 . S
O163 Eu152 2.392 . S
O163 C164 1.242 . S
C164 O162 1.258 . S
C164 O163 1.242 . S
O165 Eu152 2.418 . S
O165 C169 1.244 . S
O166 Eu153 2.488 . S
O166 C182 1.249 . S
O167 Eu153 2.471 . S
O167 C182 1.244 . S
O168 Eu153 2.349 . S
O168 C169 1.265 . S
C169 O165 1.244 . S
C169 O168 1.265 . S
O170 Eu152 2.373 . S
O170 C183 1.258 . S
O171 Eu153 2.392 . S
O171 C183 1.242 . S
O172 Eu153 2.418 . S
O172 C154 1.244 . S
O173 Eu152 2.488 . S
O173 C161 1.249 . S
O174 Eu152 2.471 . S
O174 C161 1.244 . S
O175 Eu152 2.349 . S
O175 C154 1.265 . S
C176 C177 1.379 . S
C176 C180 1.373 . S
C176 C182 1.505 . S
C177 C176 1.379 . S
C177 C179 1.369 . S
C177 H188 0.930 . S
C178 C180 1.383 . S
C178 C181 1.382 . S
C178 H189 0.930 . S
C179 C177 1.369 . S
C179 C181 1.392 . S
C179 H190 0.930 . S
C180 C176 1.373 . S
C180 C178 1.383 . S
C180 H191 0.931 . S
C181 C178 1.382 . S
C181 C179 1.392 . S
C182 Eu153 2.828 . S
C182 O166 1.249 . S
C182 O167 1.244 . S
C182 C176 1.505 . S
C183 O170 1.258 . S
C183 O171 1.242 . S
H184 C156 0.930 . S
H185 C157 0.930 . S
H186 C158 0.930 . S
H187 C159 0.931 . S
H188 C177 0.930 . S
H189 C178 0.930 . S
H190 C179 0.930 . S
H191 C180 0.931 . S
Eu192 C201 2.828 . S
Eu192 O203 2.392 . S
Eu192 O205 2.418 1_455 S
Eu192 O210 2.373 . S
Eu192 O213 2.488 . S
Eu192 O214 2.471 . S
Eu192 O215 2.349 . S
Eu193 O202 2.373 . S
Eu193 O206 2.488 . S
Eu193 O207 2.471 . S
Eu193 O208 2.349 . S
Eu193 O211 2.392 1_655 S
Eu193 O212 2.418 1_655 S
Eu193 C222 2.828 . S
C194 O212 1.244 . S
C194 O215 1.265 . S
C195 C196 1.379 . S
C195 C199 1.373 . S
C195 C201 1.505 . S
C196 C195 1.379 . S
C196 C198 1.369 . S
C196 H224 0.930 . S
C197 C199 1.383 . S
C197 C200 1.382 . S
C197 H225 0.930 . S
C198 C196 1.369 . S
C198 C200 1.392 . S
C198 H226 0.930 . S
C199 C195 1.373 . S
C199 C197 1.383 . S
C199 H227 0.931 . S
C200 C197 1.382 . S
C200 C198 1.392 . S
C201 Eu192 2.828 . S
C201 C195 1.505 . S
C201 O213 1.249 . S
C201 O214 1.244 . S
O202 Eu193 2.373 . S
O202 C204 1.258 . S
O203 Eu192 2.392 . S
O203 C204 1.242 1_455 S
C204 O202 1.258 . S
C204 O203 1.242 1_655 S
O205 Eu192 2.418 1_655 S
O205 C209 1.244 . S
O206 Eu193 2.488 . S
O206 C222 1.249 . S
O207 Eu193 2.471 . S
O207 C222 1.244 . S
O208 Eu193 2.349 . S
O208 C209 1.265 . S
C209 O205 1.244 . S
C209 O208 1.265 . S
O210 Eu192 2.373 . S
O210 C223 1.258 . S
O211 Eu193 2.392 1_455 S
O211 C223 1.242 . S
O212 Eu193 2.418 1_455 S
O212 C194 1.244 . S
O213 Eu192 2.488 . S
O213 C201 1.249 . S
O214 Eu192 2.471 . S
O214 C201 1.244 . S
O215 Eu192 2.349 . S
O215 C194 1.265 . S
C216 C217 1.379 . S
C216 C220 1.373 . S
C216 C222 1.505 . S
C217 C216 1.379 . S
C217 C219 1.369 . S
C217 H228 0.930 . S
C218 C220 1.383 1_554 S
C218 C221 1.382 . S
C218 H229 0.930 . S
C219 C217 1.369 . S
C219 C221 1.392 1_556 S
C219 H230 0.930 . S
C220 C216 1.373 . S
C220 C218 1.383 1_556 S
C220 H231 0.931 1_556 S
C221 C218 1.382 . S
C221 C219 1.392 1_554 S
C222 Eu193 2.828 . S
C222 O206 1.249 . S
C222 O207 1.244 . S
C222 C216 1.505 . S
C223 O210 1.258 . S
C223 O211 1.242 . S
H224 C196 0.930 . S
H225 C197 0.930 . S
H226 C198 0.930 . S
H227 C199 0.931 . S
H228 C217 0.930 . S
H229 C218 0.930 . S
H230 C219 0.930 . S
H231 C220 0.931 1_554 S
C232 C233 1.391 . S
C232 C234 1.394 . S
C232 H248 0.958 . S
C233 C232 1.391 . S
C233 C237 1.376 . S
C234 C232 1.394 . S
C234 C235 1.369 . S
C234 C238 1.531 1_545 S
C235 C234 1.369 . S
C235 C236 1.410 . S
C235 C243 1.503 . S
C236 C235 1.410 . S
C236 C237 1.392 . S
C236 C239 1.511 . S
C237 C233 1.376 . S
C237 C236 1.392 . S
C237 H249 0.929 . S
C238 C234 1.531 1_565 S
C238 H250 0.960 . S
C238 H251 0.962 . S
C238 H252 0.960 . S
C239 C236 1.511 . S
C239 H253 0.961 . S
C239 H254 0.961 . S
C239 H255 0.961 . S
C240 C241 1.370 . S
C240 C242 1.363 . S
C240 H256 0.931 . S
C241 C240 1.370 . S
C241 C245 1.408 . S
C242 C240 1.363 . S
C242 C243 1.370 . S
C242 C246 1.524 . S
C243 C235 1.503 . S
C243 C242 1.370 . S
C243 C244 1.403 . S
C244 C243 1.403 . S
C244 C245 1.404 . S
C244 C247 1.539 . S
C245 C241 1.408 . S
C245 C244 1.404 . S
C245 H257 0.930 . S
C246 C242 1.524 . S
C246 H258 0.956 . S
C246 H259 0.961 . S
C246 H260 0.961 . S
C247 C244 1.539 . S
C247 H261 0.958 1_545 S
C247 H262 0.961 . S
C247 H263 0.960 . S
H248 C232 0.958 . S
H249 C237 0.929 . S
H250 C238 0.960 . S
H251 C238 0.962 . S
H252 C238 0.960 . S
H253 C239 0.961 . S
H254 C239 0.961 . S
H255 C239 0.961 . S
H256 C240 0.931 . S
H257 C245 0.930 . S
H258 C246 0.956 . S
H259 C246 0.961 . S
H260 C246 0.961 . S
H261 C247 0.958 1_565 S
H262 C247 0.961 . S
H263 C247 0.960 . S
C264 C265 1.391 . S
C264 C266 1.394 . S
C264 H280 0.931 . S
C265 C264 1.391 . S
C265 C269 1.376 . S
C266 C264 1.394 . S
C266 C267 1.369 . S
C266 C270 1.531 . S
C267 C266 1.369 . S
C267 C268 1.410 . S
C267 C275 1.503 . S
C268 C267 1.410 . S
C268 C269 1.392 . S
C268 C271 1.511 . S
C269 C265 1.376 . S
C269 C268 1.392 . S
C269 H281 0.929 . S
C270 C266 1.531 . S
C270 H282 0.960 . S
C270 H283 0.962 . S
C270 H284 0.960 . S
C271 C268 1.511 . S
C271 H285 0.961 . S
C271 H286 0.961 . S
C271 H287 0.961 . S
C272 C273 1.370 . S
C272 C274 1.363 . S
C272 H288 0.931 . S
C273 C272 1.370 . S
C273 C277 1.408 . S
C274 C272 1.363 . S
C274 C275 1.370 . S
C274 C278 1.524 . S
C275 C267 1.503 . S
C275 C274 1.370 . S
C275 C276 1.403 . S
C276 C275 1.403 . S
C276 C277 1.404 . S
C276 C279 1.539 . S
C277 C273 1.408 . S
C277 C276 1.404 . S
C277 H289 0.930 . S
C278 C274 1.524 . S
C278 H290 0.956 . S
C278 H291 0.961 . S
C278 H292 0.961 . S
C279 C276 1.539 . S
C279 H293 0.958 . S
C279 H294 0.961 . S
C279 H295 0.960 . S
H280 C264 0.931 . S
H281 C269 0.929 . S
H282 C270 0.960 . S
H283 C270 0.962 . S
H284 C270 0.960 . S
H285 C271 0.961 . S
H286 C271 0.961 . S
H287 C271 0.961 . S
H288 C272 0.931 . S
H289 C277 0.930 . S
H290 C278 0.956 . S
H291 C278 0.961 . S
H292 C278 0.961 . S
H293 C279 0.958 . S
H294 C279 0.961 . S
H295 C279 0.960 . S
C296 C297 1.391 . S
C296 C298 1.394 . S
C296 H312 0.931 . S
C297 C296 1.391 . S
C297 C301 1.376 . S
C298 C296 1.394 . S
C298 C299 1.369 . S
C298 C302 1.531 . S
C299 C298 1.369 . S
C299 C300 1.410 . S
C299 C307 1.503 . S
C300 C299 1.410 . S
C300 C301 1.392 . S
C300 C303 1.511 . S
C301 C297 1.376 . S
C301 C300 1.392 . S
C301 H313 0.929 . S
C302 C298 1.531 . S
C302 H314 0.960 . S
C302 H315 0.962 . S
C302 H316 0.960 . S
C303 C300 1.511 . S
C303 H317 0.961 . S
C303 H318 0.961 . S
C303 H319 0.961 . S
C304 C305 1.370 . S
C304 C306 1.363 . S
C304 H320 0.931 . S
C305 C304 1.370 . S
C305 C309 1.408 . S
C306 C304 1.363 . S
C306 C307 1.370 . S
C306 C310 1.524 . S
C307 C299 1.503 . S
C307 C306 1.370 . S
C307 C308 1.403 . S
C308 C307 1.403 . S
C308 C309 1.404 . S
C308 C311 1.539 . S
C309 C305 1.408 . S
C309 C308 1.404 . S
C309 H321 0.930 . S
C310 C306 1.524 . S
C310 H322 0.956 . S
C310 H323 0.961 . S
C310 H324 0.961 . S
C311 C308 1.539 . S
C311 H325 0.958 . S
C311 H326 0.961 . S
C311 H327 0.960 . S
H312 C296 0.931 . S
H313 C301 0.929 . S
H314 C302 0.960 . S
H315 C302 0.962 . S
H316 C302 0.960 . S
H317 C303 0.961 . S
H318 C303 0.961 . S
H319 C303 0.961 . S
H320 C304 0.931 . S
H321 C309 0.930 . S
H322 C310 0.956 . S
H323 C310 0.961 . S
H324 C310 0.961 . S
H325 C311 0.958 . S
H326 C311 0.961 . S
H327 C311 0.960 . S
C328 C329 1.391 . S
C328 C330 1.394 . S
C328 H344 0.931 . S
C329 C328 1.391 . S
C329 C333 1.376 . S
C330 C328 1.394 . S
C330 C331 1.369 . S
C330 C334 1.531 . S
C331 C330 1.369 . S
C331 C332 1.410 . S
C331 C339 1.503 . S
C332 C331 1.410 . S
C332 C333 1.392 . S
C332 C335 1.511 1_455 S
C333 C329 1.376 . S
C333 C332 1.392 . S
C333 H345 0.929 . S
C334 C330 1.531 . S
C334 H346 0.960 . S
C334 H347 0.962 . S
C334 H348 0.960 . S
C335 C332 1.511 1_655 S
C335 H349 0.961 . S
C335 H350 0.957 1_655 S
C335 H351 0.961 . S
C336 C337 1.370 . S
C336 C338 1.363 . S
C336 H352 0.931 . S
C337 C336 1.370 . S
C337 C341 1.408 . S
C338 C336 1.363 . S
C338 C339 1.370 . S
C338 C342 1.524 . S
C339 C331 1.503 . S
C339 C338 1.370 . S
C339 C340 1.403 . S
C340 C339 1.403 . S
C340 C341 1.404 . S
C340 C343 1.539 1_455 S
C341 C337 1.408 . S
C341 C340 1.404 . S
C341 H353 0.930 1_455 S
C342 C338 1.524 . S
C342 H354 0.956 . S
C342 H355 0.961 . S
C342 H356 0.961 . S
C343 C340 1.539 1_655 S
C343 H357 0.958 . S
C343 H358 0.961 . S
C343 H359 0.960 . S
H344 C328 0.931 . S
H345 C333 0.929 . S
H346 C334 0.960 . S
H347 C334 0.962 . S
H348 C334 0.960 . S
H349 C335 0.961 . S
H350 C335 0.957 1_455 S
H351 C335 0.961 . S
H352 C336 0.931 . S
H353 C341 0.930 1_655 S
H354 C342 0.956 . S
H355 C342 0.961 . S
H356 C342 0.961 . S
H357 C343 0.958 . S
H358 C343 0.961 . S
H359 C343 0.960 . S
C360 C361 1.391 . S
C360 C362 1.394 . S
C360 H376 0.931 . S
C361 C360 1.391 . S
C361 C365 1.376 . S
C362 C360 1.394 . S
C362 C363 1.369 . S
C362 C366 1.531 . S
C363 C362 1.369 . S
C363 C364 1.410 . S
C363 C371 1.503 . S
C364 C363 1.410 . S
C364 C365 1.392 . S
C364 C367 1.511 . S
C365 C361 1.376 . S
C365 C364 1.392 . S
C365 H377 0.929 . S
C366 C362 1.531 . S
C366 H378 0.960 . S
C366 H379 0.950 1_565 S
C366 H380 0.960 . S
C367 C364 1.511 . S
C367 H381 0.961 . S
C367 H382 0.961 1_554 S
C367 H383 0.961 . S
C368 C369 1.370 1_545 S
C368 C370 1.363 . S
C368 H384 0.931 . S
C369 C368 1.370 1_565 S
C369 C373 1.408 . S
C370 C368 1.363 . S
C370 C371 1.370 1_546 S
C370 C374 1.524 1_556 S
C371 C363 1.503 . S
C371 C370 1.370 1_564 S
C371 C372 1.403 1_554 S
C372 C371 1.403 1_556 S
C372 C373 1.404 . S
C372 C375 1.539 1_556 S
C373 C369 1.408 . S
C373 C372 1.404 . S
C373 H385 0.930 . S
C374 C370 1.524 1_554 S
C374 H386 0.956 . S
C374 H387 0.961 . S
C374 H388 0.961 . S
C375 C372 1.539 1_554 S
C375 H389 0.958 . S
C375 H390 0.961 1_554 S
C375 H391 0.960 . S
H376 C360 0.931 . S
H377 C365 0.929 . S
H378 C366 0.960 . S
H379 C366 0.950 1_545 S
H380 C366 0.960 . S
H381 C367 0.961 . S
H382 C367 0.961 1_556 S
H383 C367 0.961 . S
H384 C368 0.931 . S
H385 C373 0.930 . S
H386 C374 0.956 . S
H387 C374 0.961 . S
H388 C374 0.961 . S
H389 C375 0.958 . S
H390 C375 0.961 1_556 S
H391 C375 0.960 . S
C392 C393 1.391 . S
C392 C394 1.394 . S
C392 H408 0.931 . S
C393 C392 1.391 . S
C393 C397 1.376 . S
C394 C392 1.394 . S
C394 C395 1.369 . S
C394 C398 1.531 . S
C395 C394 1.369 . S
C395 C396 1.410 . S
C395 C403 1.503 1_554 S
C396 C395 1.410 . S
C396 C397 1.392 . S
C396 C399 1.511 . S
C397 C393 1.376 . S
C397 C396 1.392 . S
C397 H409 0.929 . S
C398 C394 1.531 . S
C398 H410 0.960 . S
C398 H411 0.962 . S
C398 H412 0.960 . S
C399 C396 1.511 . S
C399 H413 0.961 . S
C399 H414 0.961 . S
C399 H415 0.961 . S
C400 C401 1.370 . S
C400 C402 1.363 . S
C400 H416 0.931 . S
C401 C400 1.370 . S
C401 C405 1.408 . S
C402 C400 1.363 . S
C402 C403 1.370 . S
C402 C406 1.524 . S
C403 C395 1.503 1_556 S
C403 C402 1.370 . S
C403 C404 1.403 . S
C404 C403 1.403 . S
C404 C405 1.404 . S
C404 C407 1.539 1_556 S
C405 C401 1.408 . S
C405 C404 1.404 . S
C405 H417 0.930 . S
C406 C402 1.524 . S
C406 H418 0.956 . S
C406 H419 0.961 . S
C406 H420 0.961 . S
C407 C404 1.539 1_554 S
C407 H421 0.958 . S
C407 H422 0.961 . S
C407 H423 0.960 . S
H408 C392 0.931 . S
H409 C397 0.929 . S
H410 C398 0.960 . S
H411 C398 0.962 . S
H412 C398 0.960 . S
H413 C399 0.961 . S
H414 C399 0.961 . S
H415 C399 0.961 . S
H416 C400 0.931 . S
H417 C405 0.930 . S
H418 C406 0.956 . S
H419 C406 0.961 . S
H420 C406 0.961 . S
H421 C407 0.958 . S
H422 C407 0.961 . S
H423 C407 0.960 . S
C424 C425 1.391 . S
C424 C426 1.394 . S
C424 H440 0.931 . S
C425 C424 1.391 . S
C425 C429 1.376 . S
C426 C424 1.394 . S
C426 C427 1.369 . S
C426 C430 1.531 1_554 S
C427 C426 1.369 . S
C427 C428 1.410 . S
C427 C435 1.503 1_554 S
C428 C427 1.410 . S
C428 C429 1.392 . S
C428 C431 1.511 . S
C429 C425 1.376 . S
C429 C428 1.392 . S
C429 H441 0.929 . S
C430 C426 1.531 1_556 S
C430 H442 0.960 . S
C430 H443 0.962 . S
C430 H444 0.960 . S
C431 C428 1.511 . S
C431 H445 0.961 . S
C431 H446 0.961 . S
C431 H447 0.961 . S
C432 C433 1.370 . S
C432 C434 1.363 . S
C432 H448 0.931 . S
C433 C432 1.370 . S
C433 C437 1.408 . S
C434 C432 1.363 . S
C434 C435 1.370 . S
C434 C438 1.524 1_556 S
C435 C427 1.503 1_556 S
C435 C434 1.370 . S
C435 C436 1.403 . S
C436 C435 1.403 . S
C436 C437 1.404 . S
C436 C439 1.539 . S
C437 C433 1.408 . S
C437 C436 1.404 . S
C437 H449 0.930 . S
C438 C434 1.524 1_554 S
C438 H450 0.956 . S
C438 H451 0.961 . S
C438 H452 0.961 . S
C439 C436 1.539 . S
C439 H453 0.958 . S
C439 H454 0.961 . S
C439 H455 0.960 . S
H440 C424 0.931 . S
H441 C429 0.929 . S
H442 C430 0.960 . S
H443 C430 0.962 . S
H444 C430 0.960 . S
H445 C431 0.961 . S
H446 C431 0.961 . S
H447 C431 0.961 . S
H448 C432 0.931 . S
H449 C437 0.930 . S
H450 C438 0.956 . S
H451 C438 0.961 . S
H452 C438 0.961 . S
H453 C439 0.958 . S
H454 C439 0.961 . S
H455 C439 0.960 . S
C456 C457 1.391 . S
C456 C458 1.394 . S
C456 H472 0.931 . S
C457 C456 1.391 . S
C457 C461 1.376 . S
C458 C456 1.394 . S
C458 C459 1.369 . S
C458 C462 1.531 1_655 S
C459 C458 1.369 . S
C459 C460 1.410 . S
C459 C467 1.503 . S
C460 C459 1.410 . S
C460 C461 1.392 . S
C460 C463 1.511 . S
C461 C457 1.376 . S
C461 C460 1.392 . S
C461 H473 0.929 . S
C462 C458 1.531 1_455 S
C462 H474 0.970 . S
C462 H475 0.962 . S
C462 H476 0.960 . S
C463 C460 1.511 . S
C463 H477 0.961 . S
C463 H478 0.961 1_554 S
C463 H479 0.961 . S
C464 C465 1.370 1_455 S
C464 C466 1.363 1_455 S
C464 H480 0.931 . S
C465 C464 1.370 1_655 S
C465 C469 1.408 . S
C466 C464 1.363 1_655 S
C466 C467 1.370 1_556 S
C466 C470 1.524 1_655 S
C467 C459 1.503 . S
C467 C466 1.370 1_554 S
C467 C468 1.403 1_554 S
C468 C467 1.403 1_556 S
C468 C469 1.404 . S
C468 C471 1.539 1_556 S
C469 C465 1.408 . S
C469 C468 1.404 . S
C469 H481 0.930 . S
C470 C466 1.524 1_455 S
C470 H482 0.956 1_556 S
C470 H483 0.961 1_556 S
C470 H484 0.961 . S
C471 C468 1.539 1_554 S
C471 H485 0.958 . S
C471 H486 0.961 . S
C471 H487 0.960 . S
H472 C456 0.931 . S
H473 C461 0.929 . S
H474 C462 0.970 . S
H475 C462 0.962 . S
H476 C462 0.960 . S
H477 C463 0.961 . S
H478 C463 0.961 1_556 S
H479 C463 0.961 . S
H480 C464 0.931 . S
H481 C469 0.930 . S
H482 C470 0.956 1_554 S
H483 C470 0.961 1_554 S
H484 C470 0.961 . S
H485 C471 0.958 . S
H486 C471 0.961 . S
H487 C471 0.960 . S
C488 C489 1.391 . S
C488 C490 1.394 . S
C488 H504 0.931 . S
C489 C488 1.391 . S
C489 C493 1.376 . S
C490 C488 1.394 . S
C490 C491 1.369 . S
C490 C494 1.531 1_455 S
C491 C490 1.369 . S
C491 C492 1.410 . S
C491 C499 1.503 . S
C492 C491 1.410 . S
C492 C493 1.392 . S
C492 C495 1.511 . S
C493 C489 1.376 . S
C493 C492 1.392 . S
C493 H505 0.929 . S
C494 C490 1.531 1_655 S
C494 H506 0.960 . S
C494 H507 0.962 . S
C494 H508 0.960 . S
C495 C492 1.511 . S
C495 H509 0.961 . S
C495 H510 0.961 . S
C495 H511 0.961 . S
C496 C497 1.370 . S
C496 C498 1.363 1_655 S
C496 H512 0.931 . S
C497 C496 1.370 . S
C497 C501 1.408 1_655 S
C498 C496 1.363 1_455 S
C498 C499 1.370 . S
C498 C502 1.524 . S
C499 C491 1.503 . S
C499 C498 1.370 . S
C499 C500 1.403 . S
C500 C499 1.403 . S
C500 C501 1.404 . S
C500 C503 1.539 . S
C501 C497 1.408 1_455 S
C501 C500 1.404 . S
C501 H513 0.930 . S
C502 C498 1.524 . S
C502 H514 0.956 1_455 S
C502 H515 0.961 . S
C502 H516 0.961 1_455 S
C503 C500 1.539 . S
C503 H517 0.958 . S
C503 H518 0.961 . S
C503 H519 0.960 . S
H504 C488 0.931 . S
H505 C493 0.929 . S
H506 C494 0.960 . S
H507 C494 0.962 . S
H508 C494 0.960 . S
H509 C495 0.961 . S
H510 C495 0.961 . S
H511 C495 0.961 . S
H512 C496 0.931 . S
H513 C501 0.930 . S
H514 C502 0.956 1_655 S
H515 C502 0.961 . S
H516 C502 0.961 1_655 S
H517 C503 0.958 . S
H518 C503 0.961 . S
H519 C503 0.960 . S
C520 C521 1.391 . S
C520 C522 1.394 . S
C520 H536 0.931 . S
C521 C520 1.391 . S
C521 C525 1.376 . S
C522 C520 1.394 . S
C522 C523 1.369 . S
C522 C526 1.531 1_545 S
C523 C522 1.369 . S
C523 C524 1.410 . S
C523 C531 1.503 . S
C524 C523 1.410 . S
C524 C525 1.392 . S
C524 C527 1.511 . S
C525 C521 1.376 . S
C525 C524 1.392 . S
C525 H537 0.929 . S
C526 C522 1.531 1_565 S
C526 H538 0.960 . S
C526 H539 0.962 . S
C526 H540 0.960 . S
C527 C524 1.511 . S
C527 H541 0.961 . S
C527 H542 0.961 . S
C527 H543 0.961 . S
C528 C529 1.370 1_545 S
C528 C530 1.363 . S
C528 H544 0.931 . S
C529 C528 1.370 1_565 S
C529 C533 1.408 . S
C530 C528 1.363 . S
C530 C531 1.370 . S
C530 C534 1.524 . S
C531 C523 1.503 . S
C531 C530 1.370 . S
C531 C532 1.403 1_545 S
C532 C531 1.403 1_565 S
C532 C533 1.404 . S
C532 C535 1.539 . S
C533 C529 1.408 . S
C533 C532 1.404 . S
C533 H545 0.930 . S
C534 C530 1.524 . S
C534 H546 0.956 . S
C534 H547 0.961 . S
C534 H548 0.961 . S
C535 C532 1.539 . S
C535 H549 0.958 . S
C535 H550 0.961 . S
C535 H551 0.960 . S
H536 C520 0.931 . S
H537 C525 0.929 . S
H538 C526 0.960 . S
H539 C526 0.962 . S
H540 C526 0.960 . S
H541 C527 0.961 . S
H542 C527 0.961 . S
H543 C527 0.961 . S
H544 C528 0.931 . S
H545 C533 0.930 . S
H546 C534 0.956 . S
H547 C534 0.961 . S
H548 C534 0.961 . S
H549 C535 0.958 . S
H550 C535 0.961 . S
H551 C535 0.960 . S
C552 C553 1.391 . S
C552 C554 1.394 . S
C552 H568 0.931 . S
C553 C552 1.391 . S
C553 C557 1.376 . S
C554 C552 1.394 . S
C554 C555 1.369 . S
C554 C558 1.531 . S
C555 C554 1.369 . S
C555 C556 1.410 . S
C555 C563 1.503 . S
C556 C555 1.410 . S
C556 C557 1.392 . S
C556 C559 1.511 . S
C557 C553 1.376 . S
C557 C556 1.392 . S
C557 H569 0.929 . S
C558 C554 1.531 . S
C558 H570 0.960 . S
C558 H571 0.962 . S
C558 H572 0.960 . S
C559 C556 1.511 . S
C559 H573 0.961 . S
C559 H574 0.961 . S
C559 H575 0.961 . S
C560 C561 1.370 . S
C560 C562 1.363 . S
C560 H576 0.931 . S
C561 C560 1.370 . S
C561 C565 1.408 . S
C562 C560 1.363 . S
C562 C563 1.370 . S
C562 C566 1.524 . S
C563 C555 1.503 . S
C563 C562 1.370 . S
C563 C564 1.403 . S
C564 C563 1.403 . S
C564 C565 1.404 . S
C564 C567 1.539 . S
C565 C561 1.408 . S
C565 C564 1.404 . S
C565 H577 0.930 . S
C566 C562 1.524 . S
C566 H578 0.956 . S
C566 H579 0.961 . S
C566 H580 0.961 . S
C567 C564 1.539 . S
C567 H581 0.958 . S
C567 H582 0.961 . S
C567 H583 0.960 . S
H568 C552 0.931 . S
H569 C557 0.929 . S
H570 C558 0.960 . S
H571 C558 0.962 . S
H572 C558 0.960 . S
H573 C559 0.961 . S
H574 C559 0.961 . S
H575 C559 0.961 . S
H576 C560 0.931 . S
H577 C565 0.930 . S
H578 C566 0.956 . S
H579 C566 0.961 . S
H580 C566 0.961 . S
H581 C567 0.958 . S
H582 C567 0.961 . S
H583 C567 0.960 . S
C584 C585 1.391 . S
C584 C586 1.394 . S
C584 H600 0.931 . S
C585 C584 1.391 . S
C585 C589 1.376 . S
C586 C584 1.394 . S
C586 C587 1.369 . S
C586 C590 1.531 . S
C587 C586 1.369 . S
C587 C588 1.410 . S
C587 C595 1.503 . S
C588 C587 1.410 . S
C588 C589 1.392 . S
C588 C591 1.511 . S
C589 C585 1.376 . S
C589 C588 1.392 . S
C589 H601 0.929 . S
C590 C586 1.531 . S
C590 H602 0.960 . S
C590 H603 0.962 . S
C590 H604 0.960 . S
C591 C588 1.511 . S
C591 H605 0.961 . S
C591 H606 0.961 . S
C591 H607 0.961 . S
C592 C593 1.370 . S
C592 C594 1.363 . S
C592 H608 0.931 . S
C593 C592 1.370 . S
C593 C597 1.408 . S
C594 C592 1.363 . S
C594 C595 1.370 . S
C594 C598 1.524 . S
C595 C587 1.503 . S
C595 C594 1.370 . S
C595 C596 1.403 . S
C596 C595 1.403 . S
C596 C597 1.404 . S
C596 C599 1.539 . S
C597 C593 1.408 . S
C597 C596 1.404 . S
C597 H609 0.930 . S
C598 C594 1.524 . S
C598 H610 0.956 . S
C598 H611 0.961 . S
C598 H612 0.961 . S
C599 C596 1.539 . S
C599 H613 0.958 . S
C599 H614 0.961 . S
C599 H615 0.960 . S
H600 C584 0.931 . S
H601 C589 0.929 . S
H602 C590 0.960 . S
H603 C590 0.962 . S
H604 C590 0.960 . S
H605 C591 0.961 . S
H606 C591 0.961 . S
H607 C591 0.961 . S
H608 C592 0.931 . S
H609 C597 0.930 . S
H610 C598 0.956 . S
H611 C598 0.961 . S
H612 C598 0.961 . S
H613 C599 0.958 . S
H614 C599 0.961 . S
H615 C599 0.960 . S
C616 C617 1.391 . S
C616 C618 1.411 . S
C616 H632 0.931 . S
C617 C616 1.391 . S
C617 C621 1.376 . S
C618 C616 1.411 . S
C618 C619 1.380 . S
C618 C622 1.503 1_655 S
C619 C618 1.380 . S
C619 C620 1.410 . S
C619 C627 1.503 1_655 S
C620 C619 1.410 . S
C620 C621 1.392 . S
C620 C623 1.511 . S
C621 C617 1.376 . S
C621 C620 1.392 . S
C621 H633 0.929 . S
C622 C618 1.503 1_455 S
C622 H634 0.960 . S
C622 H635 0.962 . S
C622 H636 0.960 . S
C623 C620 1.511 . S
C623 H637 0.961 . S
C623 H638 0.961 . S
C623 H639 0.961 . S
C624 C625 1.370 . S
C624 C626 1.363 1_455 S
C624 H640 0.931 1_455 S
C625 C624 1.370 . S
C625 C629 1.408 . S
C626 C624 1.363 1_655 S
C626 C627 1.370 1_655 S
C626 C630 1.524 . S
C627 C619 1.503 1_455 S
C627 C626 1.370 1_455 S
C627 C628 1.403 . S
C628 C627 1.403 . S
C628 C629 1.404 . S
C628 C631 1.539 . S
C629 C625 1.408 . S
C629 C628 1.404 . S
C629 H641 0.930 . S
C630 C626 1.524 . S
C630 H642 0.956 . S
C630 H643 0.961 . S
C630 H644 0.961 . S
C631 C628 1.539 . S
C631 H645 0.958 . S
C631 H646 0.961 . S
C631 H647 0.960 . S
H632 C616 0.931 . S
H633 C621 0.929 . S
H634 C622 0.960 . S
H635 C622 0.962 . S
H636 C622 0.960 . S
H637 C623 0.961 . S
H638 C623 0.961 . S
H639 C623 0.961 . S
H640 C624 0.931 1_655 S
H641 C629 0.930 . S
H642 C630 0.956 . S
H643 C630 0.961 . S
H644 C630 0.961 . S
H645 C631 0.958 . S
H646 C631 0.961 . S
H647 C631 0.960 . S
C648 C649 1.391 . S
C648 C650 1.394 1_565 S
C648 H664 0.931 1_565 S
C649 C648 1.391 . S
C649 C653 1.376 . S
C650 C648 1.394 1_545 S
C650 C651 1.369 1_545 S
C650 C654 1.531 . S
C651 C650 1.369 1_565 S
C651 C652 1.410 . S
C651 C659 1.503 1_565 S
C652 C651 1.410 . S
C652 C653 1.392 . S
C652 C655 1.511 . S
C653 C649 1.376 . S
C653 C652 1.392 . S
C653 H665 0.929 . S
C654 C650 1.531 . S
C654 H666 0.960 . S
C654 H667 0.962 . S
C654 H668 0.960 . S
C655 C652 1.511 . S
C655 H669 0.961 . S
C655 H670 0.961 . S
C655 H671 0.961 . S
C656 C657 1.370 1_554 S
C656 C658 1.363 . S
C656 H672 0.931 . S
C657 C656 1.370 1_556 S
C657 C661 1.408 . S
C658 C656 1.363 . S
C658 C659 1.370 . S
C658 C662 1.524 1_545 S
C659 C651 1.503 1_545 S
C659 C658 1.370 . S
C659 C660 1.403 . S
C660 C659 1.403 . S
C660 C661 1.404 1_554 S
C660 C663 1.539 . S
C661 C657 1.408 . S
C661 C660 1.404 1_556 S
C661 H673 0.930 . S
C662 C658 1.524 1_565 S
C662 H674 0.956 . S
C662 H675 0.961 . S
C662 H676 0.961 . S
C663 C660 1.539 . S
C663 H677 0.958 . S
C663 H678 0.961 1_554 S
C663 H679 0.960 . S
H664 C648 0.931 1_545 S
H665 C653 0.929 . S
H666 C654 0.960 . S
H667 C654 0.962 . S
H668 C654 0.960 . S
H669 C655 0.961 . S
H670 C655 0.961 . S
H671 C655 0.961 . S
H672 C656 0.931 . S
H673 C661 0.930 . S
H674 C662 0.956 . S
H675 C662 0.961 . S
H676 C662 0.961 . S
H677 C663 0.958 . S
H678 C663 0.961 1_556 S
H679 C663 0.960 . S
C680 C681 1.391 . S
C680 C682 1.394 . S
C680 H696 0.931 . S
C681 C680 1.391 . S
C681 C685 1.376 . S
C682 C680 1.394 . S
C682 C683 1.369 . S
C682 C686 1.531 . S
C683 C682 1.369 . S
C683 C684 1.410 . S
C683 C691 1.503 . S
C684 C683 1.410 . S
C684 C685 1.392 . S
C684 C687 1.511 . S
C685 C681 1.376 . S
C685 C684 1.392 . S
C685 H697 0.929 . S
C686 C682 1.531 . S
C686 H698 0.960 1_554 S
C686 H699 0.962 . S
C686 H700 0.960 . S
C687 C684 1.511 . S
C687 H701 0.961 . S
C687 H702 0.961 . S
C687 H703 0.961 . S
C688 C689 1.370 . S
C688 C690 1.363 1_556 S
C688 H704 0.931 . S
C689 C688 1.370 . S
C689 C693 1.408 . S
C690 C688 1.363 1_554 S
C690 C691 1.370 . S
C690 C694 1.524 . S
C691 C683 1.503 . S
C691 C690 1.370 . S
C691 C692 1.403 1_554 S
C692 C691 1.403 1_556 S
C692 C693 1.404 . S
C692 C695 1.539 . S
C693 C689 1.408 . S
C693 C692 1.404 . S
C693 H705 0.930 . S
C694 C690 1.524 . S
C694 H706 0.956 . S
C694 H707 0.961 . S
C694 H708 0.961 . S
C695 C692 1.539 . S
C695 H709 0.958 . S
C695 H710 0.961 . S
C695 H711 0.960 1_556 S
H696 C680 0.931 . S
H697 C685 0.929 . S
H698 C686 0.960 1_556 S
H699 C686 0.962 . S
H700 C686 0.960 . S
H701 C687 0.961 . S
H702 C687 0.961 . S
H703 C687 0.961 . S
H704 C688 0.931 . S
H705 C693 0.930 . S
H706 C694 0.956 . S
H707 C694 0.961 . S
H708 C694 0.961 . S
H709 C695 0.958 . S
H710 C695 0.961 . S
H711 C695 0.960 1_554 S
C712 C713 1.391 . S
C712 C714 1.394 . S
C712 H728 0.931 . S
C713 C712 1.391 . S
C713 C717 1.376 . S
C714 C712 1.394 . S
C714 C715 1.369 . S
C714 C718 1.531 . S
C715 C714 1.369 . S
C715 C716 1.410 . S
C715 C723 1.503 . S
C716 C715 1.410 . S
C716 C717 1.392 . S
C716 C719 1.511 . S
C717 C713 1.376 . S
C717 C716 1.392 . S
C717 H729 0.929 . S
C718 C714 1.531 . S
C718 H730 0.960 . S
C718 H731 0.962 . S
C718 H732 0.960 . S
C719 C716 1.511 . S
C719 H733 0.961 . S
C719 H734 0.961 . S
C719 H735 0.961 . S
C720 C721 1.370 . S
C720 C722 1.363 . S
C720 H736 0.931 1_554 S
C721 C720 1.370 . S
C721 C725 1.408 . S
C722 C720 1.363 . S
C722 C723 1.370 . S
C722 C726 1.530 . S
C723 C715 1.503 . S
C723 C722 1.370 . S
C723 C724 1.403 . S
C724 C723 1.403 . S
C724 C725 1.404 . S
C724 C727 1.539 . S
C725 C721 1.408 . S
C725 C724 1.404 . S
C725 H737 0.930 . S
C726 C722 1.530 . S
C726 H738 0.959 . S
C726 H739 0.963 . S
C726 H740 0.949 1_554 S
C727 C724 1.539 . S
C727 H741 0.958 . S
C727 H742 0.961 . S
C727 H743 0.960 . S
H728 C712 0.931 . S
H729 C717 0.929 . S
H730 C718 0.960 . S
H731 C718 0.962 . S
H732 C718 0.960 . S
H733 C719 0.961 . S
H734 C719 0.961 . S
H735 C719 0.961 . S
H736 C720 0.931 1_556 S
H737 C725 0.930 . S
H738 C726 0.959 . S
H739 C726 0.963 . S
H740 C726 0.949 1_556 S
H741 C727 0.958 . S
H742 C727 0.961 . S
H743 C727 0.960 . S
C744 C745 1.391 . S
C744 C746 1.394 . S
C744 H760 0.931 . S
C745 C744 1.391 . S
C745 C749 1.376 . S
C746 C744 1.394 . S
C746 C747 1.369 . S
C746 C750 1.531 . S
C747 C746 1.369 . S
C747 C748 1.410 . S
C747 C755 1.503 . S
C748 C747 1.410 . S
C748 C749 1.392 . S
C748 C751 1.511 1_455 S
C749 C745 1.376 . S
C749 C748 1.392 . S
C749 H761 0.929 . S
C750 C746 1.531 . S
C750 H762 0.960 . S
C750 H763 0.962 . S
C750 H764 0.960 . S
C751 C748 1.511 1_655 S
C751 H765 0.961 . S
C751 H766 0.961 . S
C751 H767 0.961 . S
C752 C753 1.370 . S
C752 C754 1.363 . S
C752 H768 0.931 . S
C753 C752 1.370 . S
C753 C757 1.408 . S
C754 C752 1.363 . S
C754 C755 1.370 . S
C754 C758 1.524 . S
C755 C747 1.503 . S
C755 C754 1.370 . S
C755 C756 1.403 . S
C756 C755 1.403 . S
C756 C757 1.404 . S
C756 C759 1.539 . S
C757 C753 1.408 . S
C757 C756 1.404 . S
C757 H769 0.930 . S
C758 C754 1.524 . S
C758 H770 0.956 . S
C758 H771 0.961 . S
C758 H772 0.961 . S
C759 C756 1.539 . S
C759 H773 0.958 1_556 S
C759 H774 0.961 1_455 S
C759 H775 0.960 . S
H760 C744 0.931 . S
H761 C749 0.929 . S
H762 C750 0.960 . S
H763 C750 0.962 . S
H764 C750 0.960 . S
H765 C751 0.961 . S
H766 C751 0.961 . S
H767 C751 0.961 . S
H768 C752 0.931 . S
H769 C757 0.930 . S
H770 C758 0.956 . S
H771 C758 0.961 . S
H772 C758 0.961 . S
H773 C759 0.958 1_554 S
H774 C759 0.961 1_655 S
H775 C759 0.960 . S
C776 C777 1.391 . S
C776 C778 1.394 . S
C776 H792 0.931 . S
C777 C776 1.391 . S
C777 C781 1.376 . S
C778 C776 1.394 . S
C778 C779 1.369 . S
C778 C782 1.531 1_545 S
C779 C778 1.369 . S
C779 C780 1.410 . S
C779 C787 1.503 . S
C780 C779 1.410 . S
C780 C781 1.392 . S
C780 C783 1.511 . S
C781 C777 1.376 . S
C781 C780 1.392 . S
C781 H793 0.929 . S
C782 C778 1.531 1_565 S
C782 H794 0.960 . S
C782 H795 0.962 1_565 S
C782 H796 0.960 . S
C783 C780 1.511 . S
C783 H797 0.961 . S
C783 H798 0.961 . S
C783 H799 0.961 . S
C784 C785 1.370 . S
C784 C786 1.363 . S
C784 H800 0.931 . S
C785 C784 1.370 . S
C785 C789 1.408 . S
C786 C784 1.363 . S
C786 C787 1.370 . S
C786 C790 1.524 . S
C787 C779 1.503 . S
C787 C786 1.370 . S
C787 C788 1.403 . S
C788 C787 1.403 . S
C788 C789 1.404 . S
C788 C791 1.539 1_545 S
C789 C785 1.408 . S
C789 C788 1.404 . S
C789 H801 0.930 . S
C790 C786 1.524 . S
C790 H802 0.956 . S
C790 H803 0.961 . S
C790 H804 0.961 . S
C791 C788 1.539 1_565 S
C791 H805 0.958 . S
C791 H806 0.961 . S
C791 H807 0.960 1_565 S
H792 C776 0.931 . S
H793 C781 0.929 . S
H794 C782 0.960 . S
H795 C782 0.962 1_545 S
H796 C782 0.960 . S
H797 C783 0.961 . S
H798 C783 0.961 . S
H799 C783 0.961 . S
H800 C784 0.931 . S
H801 C789 0.930 . S
H802 C790 0.956 . S
H803 C790 0.961 . S
H804 C790 0.961 . S
H805 C791 0.958 . S
H806 C791 0.961 . S
H807 C791 0.960 1_545 S
C808 C809 1.391 . S
C808 C810 1.394 . S
C808 H824 0.931 . S
C809 C808 1.391 . S
C809 C813 1.376 . S
C810 C808 1.394 . S
C810 C811 1.369 . S
C810 C814 1.531 . S
C811 C810 1.369 . S
C811 C812 1.410 . S
C811 C819 1.503 . S
C812 C811 1.410 . S
C812 C813 1.392 . S
C812 C815 1.511 . S
C813 C809 1.376 . S
C813 C812 1.392 . S
C813 H825 0.929 1_556 S
C814 C810 1.531 . S
C814 H826 0.960 . S
C814 H827 0.962 . S
C814 H828 0.960 . S
C815 C812 1.511 . S
C815 H829 0.961 1_556 S
C815 H830 0.961 . S
C815 H831 0.961 1_556 S
C816 C817 1.370 . S
C816 C818 1.363 . S
C816 H832 0.931 . S
C817 C816 1.370 . S
C817 C821 1.408 . S
C818 C816 1.363 . S
C818 C819 1.370 . S
C818 C822 1.524 . S
C819 C811 1.503 . S
C819 C818 1.370 . S
C819 C820 1.403 . S
C820 C819 1.403 . S
C820 C821 1.404 . S
C820 C823 1.539 . S
C821 C817 1.408 . S
C821 C820 1.404 . S
C821 H833 0.930 . S
C822 C818 1.524 . S
C822 H834 0.956 . S
C822 H835 0.961 . S
C822 H836 0.961 . S
C823 C820 1.539 . S
C823 H837 0.958 . S
C823 H838 0.961 . S
C823 H839 0.960 . S
H824 C808 0.931 . S
H825 C813 0.929 1_554 S
H826 C814 0.960 . S
H827 C814 0.962 . S
H828 C814 0.960 . S
H829 C815 0.961 1_554 S
H830 C815 0.961 . S
H831 C815 0.961 1_554 S
H832 C816 0.931 . S
H833 C821 0.930 . S
H834 C822 0.956 . S
H835 C822 0.961 . S
H836 C822 0.961 . S
H837 C823 0.958 . S
H838 C823 0.961 . S
H839 C823 0.960 . S
C840 C841 1.391 . S
C840 C842 1.394 . S
C840 H856 0.931 1_556 S
C841 C840 1.391 . S
C841 C845 1.376 . S
C842 C840 1.394 . S
C842 C843 1.369 . S
C842 C846 1.531 1_556 S
C843 C842 1.369 . S
C843 C844 1.410 . S
C843 C851 1.503 . S
C844 C843 1.410 . S
C844 C845 1.392 . S
C844 C847 1.511 . S
C845 C841 1.376 . S
C845 C844 1.392 . S
C845 H857 0.929 . S
C846 C842 1.531 1_554 S
C846 H858 0.960 1_554 S
C846 H859 0.962 . S
C846 H860 0.960 . S
C847 C844 1.511 . S
C847 H861 0.961 . S
C847 H862 0.961 . S
C847 H863 0.961 . S
C848 C849 1.370 . S
C848 C850 1.363 . S
C848 H864 0.931 . S
C849 C848 1.370 . S
C849 C853 1.408 . S
C850 C848 1.363 . S
C850 C851 1.370 . S
C850 C854 1.524 . S
C851 C843 1.503 . S
C851 C850 1.370 . S
C851 C852 1.403 . S
C852 C851 1.403 . S
C852 C853 1.404 . S
C852 C855 1.539 . S
C853 C849 1.408 . S
C853 C852 1.404 . S
C853 H865 0.930 . S
C854 C850 1.524 . S
C854 H866 0.956 . S
C854 H867 0.961 . S
C854 H868 0.961 . S
C855 C852 1.539 . S
C855 H869 0.958 . S
C855 H870 0.961 . S
C855 H871 0.960 . S
H856 C840 0.931 1_554 S
H857 C845 0.929 . S
H858 C846 0.960 1_556 S
H859 C846 0.962 . S
H860 C846 0.960 . S
H861 C847 0.961 . S
H862 C847 0.961 . S
H863 C847 0.961 . S
H864 C848 0.931 . S
H865 C853 0.930 . S
H866 C854 0.956 . S
H867 C854 0.961 . S
H868 C854 0.961 . S
H869 C855 0.958 . S
H870 C855 0.961 . S
H871 C855 0.960 . S
C872 C873 1.391 . S
C872 C874 1.394 . S
C872 H888 0.931 . S
C873 C872 1.391 . S
C873 C877 1.376 . S
C874 C872 1.394 . S
C874 C875 1.369 . S
C874 C878 1.531 . S
C875 C874 1.369 . S
C875 C876 1.410 . S
C875 C883 1.503 . S
C876 C875 1.410 . S
C876 C877 1.392 . S
C876 C879 1.511 1_655 S
C877 C873 1.376 . S
C877 C876 1.392 . S
C877 H889 0.929 . S
C878 C874 1.531 . S
C878 H890 0.960 . S
C878 H891 0.962 . S
C878 H892 0.960 . S
C879 C876 1.511 1_455 S
C879 H893 0.961 . S
C879 H894 0.961 . S
C879 H895 0.961 . S
C880 C881 1.370 . S
C880 C882 1.363 . S
C880 H896 0.931 . S
C881 C880 1.370 . S
C881 C885 1.408 1_655 S
C882 C880 1.363 . S
C882 C883 1.370 . S
C882 C886 1.524 . S
C883 C875 1.503 . S
C883 C882 1.370 . S
C883 C884 1.403 1_655 S
C884 C883 1.403 1_455 S
C884 C885 1.404 . S
C884 C887 1.539 . S
C885 C881 1.408 1_455 S
C885 C884 1.404 . S
C885 H897 0.930 . S
C886 C882 1.524 . S
C886 H898 0.956 . S
C886 H899 0.961 . S
C886 H900 0.961 . S
C887 C884 1.539 . S
C887 H901 0.958 . S
C887 H902 0.961 . S
C887 H903 0.960 . S
H888 C872 0.931 . S
H889 C877 0.929 . S
H890 C878 0.960 . S
H891 C878 0.962 . S
H892 C878 0.960 . S
H893 C879 0.961 . S
H894 C879 0.961 . S
H895 C879 0.961 . S
H896 C880 0.931 . S
H897 C885 0.930 . S
H898 C886 0.956 . S
H899 C886 0.961 . S
H900 C886 0.961 . S
H901 C887 0.958 . S
H902 C887 0.961 . S
H903 C887 0.960 . S
C904 C905 1.391 . S
C904 C906 1.394 . S
C904 H920 0.931 . S
C905 C904 1.391 . S
C905 C909 1.376 . S
C906 C904 1.394 . S
C906 C907 1.369 . S
C906 C910 1.531 . S
C907 C906 1.369 . S
C907 C908 1.410 . S
C907 C915 1.503 . S
C908 C907 1.410 . S
C908 C909 1.392 . S
C908 C911 1.511 . S
C909 C905 1.376 . S
C909 C908 1.392 . S
C909 H921 0.929 . S
C910 C906 1.531 . S
C910 H922 0.960 . S
C910 H923 0.962 . S
C910 H924 0.960 . S
C911 C908 1.511 . S
C911 H925 0.961 1_565 S
C911 H926 0.961 1_565 S
C911 H927 0.961 . S
C912 C913 1.370 1_545 S
C912 C914 1.363 1_545 S
C912 H928 0.931 . S
C913 C912 1.370 1_565 S
C913 C917 1.408 . S
C914 C912 1.363 1_565 S
C914 C915 1.370 . S
C914 C918 1.524 1_565 S
C915 C907 1.503 . S
C915 C914 1.370 . S
C915 C916 1.403 . S
C916 C915 1.403 . S
C916 C917 1.404 . S
C916 C919 1.539 . S
C917 C913 1.408 . S
C917 C916 1.404 . S
C917 H929 0.930 . S
C918 C914 1.524 1_545 S
C918 H930 0.956 . S
C918 H931 0.961 . S
C918 H932 0.961 . S
C919 C916 1.539 . S
C919 H933 0.958 . S
C919 H934 0.961 . S
C919 H935 0.960 . S
H920 C904 0.931 . S
H921 C909 0.929 . S
H922 C910 0.960 . S
H923 C910 0.962 . S
H924 C910 0.960 . S
H925 C911 0.961 1_545 S
H926 C911 0.961 1_545 S
H927 C911 0.961 . S
H928 C912 0.931 . S
H929 C917 0.930 . S
H930 C918 0.956 . S
H931 C918 0.961 . S
H932 C918 0.961 . S
H933 C919 0.958 . S
H934 C919 0.961 . S
H935 C919 0.960 . S
C936 C937 1.391 . S
C936 C938 1.394 . S
C936 H952 0.931 . S
C937 C936 1.391 . S
C937 C941 1.376 . S
C938 C936 1.394 . S
C938 C939 1.369 . S
C938 C942 1.531 . S
C939 C938 1.369 . S
C939 C940 1.410 . S
C939 C947 1.503 . S
C940 C939 1.410 . S
C940 C941 1.392 . S
C940 C943 1.511 . S
C941 C937 1.376 . S
C941 C940 1.392 . S
C941 H953 0.929 . S
C942 C938 1.531 . S
C942 H954 0.960 . S
C942 H955 0.962 . S
C942 H956 0.960 . S
C943 C940 1.511 . S
C943 H957 0.961 . S
C943 H958 0.961 . S
C943 H959 0.961 . S
C944 C945 1.370 . S
C944 C946 1.363 . S
C944 H960 0.931 . S
C945 C944 1.370 . S
C945 C949 1.408 . S
C946 C944 1.363 . S
C946 C947 1.370 . S
C946 C950 1.524 . S
C947 C939 1.503 . S
C947 C946 1.370 . S
C947 C948 1.403 . S
C948 C947 1.403 . S
C948 C949 1.404 . S
C948 C951 1.539 . S
C949 C945 1.408 . S
C949 C948 1.404 . S
C949 H961 0.930 . S
C950 C946 1.524 . S
C950 H962 0.956 . S
C950 H963 0.961 . S
C950 H964 0.961 . S
C951 C948 1.539 . S
C951 H965 0.958 . S
C951 H966 0.961 . S
C951 H967 0.960 . S
H952 C936 0.931 . S
H953 C941 0.929 . S
H954 C942 0.960 . S
H955 C942 0.962 . S
H956 C942 0.960 . S
H957 C943 0.961 . S
H958 C943 0.961 . S
H959 C943 0.961 . S
H960 C944 0.931 . S
H961 C949 0.930 . S
H962 C950 0.956 . S
H963 C950 0.961 . S
H964 C950 0.961 . S
H965 C951 0.958 . S
H966 C951 0.961 . S
H967 C951 0.960 . S
C968 C969 1.391 . S
C968 C970 1.394 . S
C968 H984 0.931 . S
C969 C968 1.391 . S
C969 C973 1.376 . S
C970 C968 1.394 . S
C970 C971 1.369 . S
C970 C974 1.531 . S
C971 C970 1.369 . S
C971 C972 1.410 . S
C971 C979 1.503 . S
C972 C971 1.410 . S
C972 C973 1.392 . S
C972 C975 1.511 . S
C973 C969 1.376 . S
C973 C972 1.392 . S
C973 H985 0.929 . S
C974 C970 1.531 . S
C974 H986 0.960 . S
C974 H987 0.962 . S
C974 H988 0.960 . S
C975 C972 1.511 . S
C975 H989 0.961 . S
C975 H990 0.961 . S
C975 H991 0.961 . S
C976 C977 1.370 . S
C976 C978 1.363 . S
C976 H992 0.931 . S
C977 C976 1.370 . S
C977 C981 1.408 . S
C978 C976 1.363 . S
C978 C979 1.370 . S
C978 C982 1.524 . S
C979 C971 1.503 . S
C979 C978 1.370 . S
C979 C980 1.403 . S
C980 C979 1.403 . S
C980 C981 1.404 . S
C980 C983 1.539 . S
C981 C977 1.408 . S
C981 C980 1.404 . S
C981 H993 0.930 . S
C982 C978 1.524 . S
C982 H994 0.956 . S
C982 H995 0.961 . S
C982 H996 0.961 . S
C983 C980 1.539 . S
C983 H997 0.958 . S
C983 H998 0.961 . S
C983 H999 0.960 . S
H984 C968 0.931 . S
H985 C973 0.929 . S
H986 C974 0.960 . S
H987 C974 0.962 . S
H988 C974 0.960 . S
H989 C975 0.961 . S
H990 C975 0.961 . S
H991 C975 0.961 . S
H992 C976 0.931 . S
H993 C981 0.930 . S
H994 C982 0.956 . S
H995 C982 0.961 . S
H996 C982 0.961 . S
H997 C983 0.958 . S
H998 C983 0.961 . S
H999 C983 0.960 . S
C233 C61 2.097 . S
C241 C103 2.308 . S
C273 C129 1.870 . S
C265 C70 1.751 . S
C305 C169 1.931 . S
C297 C43 1.766 . S
C337 C223 2.331 . S
C329 C52 2.197 . S
C369 C84 2.309 . S
C361 C25 2.137 . S
C393 C34 1.757 . S
C401 C114 1.874 . S
C425 C7 1.763 . S
C433 C154 1.926 . S
C457 C16 2.206 . S
C465 C204 2.333 . S
C497 C80 0.427 . S
C489 C50 0.434 . S
C529 C141 0.649 . S
C521 C59 0.617 . S
C561 C181 0.561 . S
C553 C67 0.505 . S
C585 C41 0.468 . S
C593 C200 0.275 . S
C617 C14 0.424 . S
C625 C101 0.401 . S
C657 C120 0.683 . S
C649 C23 0.612 . S
C689 C160 0.526 . S
C681 C31 0.531 . S
C713 C5 0.239 . S
C721 C221 0.363 . S
C745 C49 1.780 . S
C753 C74 2.051 . S
C777 C58 2.373 . S
C785 C124 2.574 . S
C817 C164 2.407 . S
C809 C68 2.181 . S
C849 C194 1.857 . S
C841 C40 1.659 . S
C873 C13 1.845 . S
C881 C89 2.053 . S
C913 C143 2.578 . S
C905 C22 2.368 . S
C945 C183 2.402 . S
C937 C32 2.221 . S
C969 C4 1.635 . S
C977 C209 1.851 . S
