# Generated by pormake.
# Topology zzz, (3,6)-cn, num edge types: 1
# Building blocks:
#     Node 0, Type 0, BuildingBlock: KAKCAD_clean_linker_0, # of connection points: 3
#     Node 1, Type 0, BuildingBlock: KAKCAD_clean_linker_0, # of connection points: 3
#     Node 2, Type 0, BuildingBlock: KAKCAD_clean_linker_0, # of connection points: 3
#     Node 3, Type 0, BuildingBlock: KAKCAD_clean_linker_0, # of connection points: 3
#     Node 4, Type 0, BuildingBlock: KAKCAD_clean_linker_0, # of connection points: 3
#     Node 5, Type 0, BuildingBlock: KAKCAD_clean_linker_0, # of connection points: 3
#     Node 6, Type 0, BuildingBlock: KAKCAD_clean_linker_0, # of connection points: 3
#     Node 7, Type 0, BuildingBlock: KAKCAD_clean_linker_0, # of connection points: 3
#     Node 8, Type 1, BuildingBlock: VOLQOD_clean_sbu_1, # of connection points: 6
#     Node 9, Type 1, BuildingBlock: VOLQOD_clean_sbu_1, # of connection points: 6
#     Node 10, Type 1, BuildingBlock: VOLQOD_clean_sbu_1, # of connection points: 6
#     Node 11, Type 1, BuildingBlock: VOLQOD_clean_sbu_1, # of connection points: 6
#     Edge 12, Type (0, 1), BuildingBlock: AJUNOK_clean_linker_0, # of connection points: 2
#     Edge 13, Type (0, 1), BuildingBlock: AJUNOK_clean_linker_0, # of connection points: 2
#     Edge 14, Type (0, 1), BuildingBlock: AJUNOK_clean_linker_0, # of connection points: 2
#     Edge 15, Type (0, 1), BuildingBlock: AJUNOK_clean_linker_0, # of connection points: 2
#     Edge 16, Type (0, 1), BuildingBlock: AJUNOK_clean_linker_0, # of connection points: 2
#     Edge 17, Type (0, 1), BuildingBlock: AJUNOK_clean_linker_0, # of connection points: 2
#     Edge 18, Type (0, 1), BuildingBlock: AJUNOK_clean_linker_0, # of connection points: 2
#     Edge 19, Type (0, 1), BuildingBlock: AJUNOK_clean_linker_0, # of connection points: 2
#     Edge 20, Type (0, 1), BuildingBlock: AJUNOK_clean_linker_0, # of connection points: 2
#     Edge 21, Type (0, 1), BuildingBlock: AJUNOK_clean_linker_0, # of connection points: 2
#     Edge 22, Type (0, 1), BuildingBlock: AJUNOK_clean_linker_0, # of connection points: 2
#     Edge 23, Type (0, 1), BuildingBlock: AJUNOK_clean_linker_0, # of connection points: 2
#     Edge 24, Type (0, 1), BuildingBlock: AJUNOK_clean_linker_0, # of connection points: 2
#     Edge 25, Type (0, 1), BuildingBlock: AJUNOK_clean_linker_0, # of connection points: 2
#     Edge 26, Type (0, 1), BuildingBlock: AJUNOK_clean_linker_0, # of connection points: 2
#     Edge 27, Type (0, 1), BuildingBlock: AJUNOK_clean_linker_0, # of connection points: 2
#     Edge 28, Type (0, 1), BuildingBlock: AJUNOK_clean_linker_0, # of connection points: 2
#     Edge 29, Type (0, 1), BuildingBlock: AJUNOK_clean_linker_0, # of connection points: 2
#     Edge 30, Type (0, 1), BuildingBlock: AJUNOK_clean_linker_0, # of connection points: 2
#     Edge 31, Type (0, 1), BuildingBlock: AJUNOK_clean_linker_0, # of connection points: 2
#     Edge 32, Type (0, 1), BuildingBlock: AJUNOK_clean_linker_0, # of connection points: 2
#     Edge 33, Type (0, 1), BuildingBlock: AJUNOK_clean_linker_0, # of connection points: 2
#     Edge 34, Type (0, 1), BuildingBlock: AJUNOK_clean_linker_0, # of connection points: 2
#     Edge 35, Type (0, 1), BuildingBlock: AJUNOK_clean_linker_0, # of connection points: 2
# Relax obj value: 0.357
# Max RMSD: 0.257
# Mean RMSD: 0.208
data_MOF--net-zzz--node1-VOLQOD_clean_sbu_1--node2-KAKCAD_clean_linker_0--edge1-AJUNOK_clean_linker_0
_symmetry_space_group_name_H-M    P1
_symmetry_Int_Tables_number       1
_symmetry_cell_setting            triclinic
loop_
_symmetry_equiv_pos_as_xyz
'x, y, z'
_cell_length_a     46.012632
_cell_length_b     45.312516
_cell_length_c     18.054117
_cell_angle_alpha  90.008956
_cell_angle_beta   90.229491
_cell_angle_gamma 92.309211
loop_
_atom_site_label
_atom_site_type_symbol
_atom_site_fract_x
_atom_site_fract_y
_atom_site_fract_z
_atom_type_partial_charge
C0 C 0.86292 0.44133 0.93003 0.0
C1 C 0.88424 0.4241 0.96282 0.0
C2 C 0.83967 0.45098 0.97166 0.0
C3 C 0.83742 0.44377 0.04701 0.0
C4 C 0.85706 0.42422 0.078 0.0
C5 C 0.88012 0.41418 0.03594 0.0
C6 C 0.8179 0.46047 0.0949 0.0
C7 C 0.78889 0.46432 0.07494 0.0
C8 C 0.77162 0.48359 0.11504 0.0
C9 C 0.78377 0.49929 0.17602 0.0
C10 C 0.81298 0.49545 0.19642 0.0
C11 C 0.82959 0.47579 0.15606 0.0
C12 C 0.82739 0.51163 0.25879 0.0
C13 C 0.85398 0.52717 0.24634 0.0
C14 C 0.81826 0.50659 0.3319 0.0
C15 C 0.83672 0.51451 0.39131 0.0
C16 C 0.86453 0.52767 0.37846 0.0
C17 C 0.74163 0.48804 0.0883 0.0
C18 C 0.73366 0.51573 0.06186 0.0
C19 C 0.7225 0.46346 0.07769 0.0
C20 C 0.69674 0.4661 0.03751 0.0
C21 C 0.68979 0.49327 0.0058 0.0
C22 C 0.70793 0.51833 0.02081 0.0
C23 C 0.87238 0.53504 0.30543 0.0
H24 H 0.86546 0.44945 0.87389 0.0
H25 H 0.82491 0.46613 0.9465 0.0
H26 H 0.85548 0.41803 0.13584 0.0
H27 H 0.8957 0.40016 0.06201 0.0
H28 H 0.77997 0.45297 0.02654 0.0
H29 H 0.85222 0.47318 0.17093 0.0
H30 H 0.7708 0.51456 0.20651 0.0
H31 H 0.86154 0.53118 0.19033 0.0
H32 H 0.79799 0.49441 0.34287 0.0
H33 H 0.83003 0.50864 0.44702 0.0
H34 H 0.74821 0.53494 0.06873 0.0
H35 H 0.72815 0.44189 0.09779 0.0
H36 H 0.89376 0.54461 0.29315 0.0
H37 H 0.70306 0.53958 0.99739 0.0
H38 H 0.68276 0.44659 0.02889 0.0
C39 C 0.07607 0.83172 0.97195 0.0
C40 C 0.0894 0.85693 0.00456 0.0
C41 C 0.06823 0.80715 0.01512 0.0
C42 C 0.07381 0.80719 0.09182 0.0
C43 C 0.08967 0.83144 0.12286 0.0
C44 C 0.09705 0.85625 0.07979 0.0
C45 C 0.0595 0.78424 0.14 0.0
C46 C 0.05478 0.75507 0.11517 0.0
C47 C 0.03673 0.73494 0.1547 0.0
C48 C 0.02376 0.74382 0.22116 0.0
C49 C 0.02968 0.77247 0.24861 0.0
C50 C 0.04728 0.79243 0.20767 0.0
C51 C 0.01676 0.78331 0.31776 0.0
C52 C 0.98747 0.79079 0.31907 0.0
C53 C 0.03529 0.7928 0.3757 0.0
C54 C 0.02538 0.81155 0.43069 0.0
C55 C 0.99685 0.82146 0.4282 0.0
C56 C 0.03066 0.70529 0.12274 0.0
C57 C 0.00288 0.69743 0.09488 0.0
C58 C 0.05367 0.68655 0.11012 0.0
C59 C 0.04922 0.66077 0.06844 0.0
C60 C 0.02177 0.65349 0.03769 0.0
C61 C 0.99852 0.67183 0.05204 0.0
C62 C 0.97755 0.80975 0.37403 0.0
H63 H 0.06945 0.83191 0.91429 0.0
H64 H 0.05578 0.78918 0.98912 0.0
H65 H 0.09499 0.83196 0.18133 0.0
H66 H 0.10733 0.87549 0.10604 0.0
H67 H 0.06427 0.74818 0.06342 0.0
H68 H 0.05004 0.815 0.2272 0.0
H69 H 0.00952 0.72855 0.25149 0.0
H70 H 0.97293 0.78401 0.27432 0.0
H71 H 0.05806 0.78756 0.37515 0.0
H72 H 0.04079 0.82027 0.47146 0.0
H73 H 0.98496 0.71187 0.10301 0.0
H74 H 0.07534 0.69243 0.13033 0.0
H75 H 0.95534 0.81675 0.37141 0.0
H76 H 0.97719 0.66669 0.0287 0.0
H77 H 0.06759 0.64723 0.05734 0.0
C78 C 0.679 0.0514 0.92585 0.0
C79 C 0.65721 0.06836 0.95674 0.0
C80 C 0.70263 0.04312 0.96858 0.0
C81 C 0.70506 0.05167 0.04326 0.0
C82 C 0.68438 0.07055 0.07245 0.0
C83 C 0.66053 0.0786 0.02976 0.0
C84 C 0.72669 0.03772 0.09228 0.0
C85 C 0.75428 0.03092 0.06591 0.0
C86 C 0.77304 0.01379 0.10821 0.0
C87 C 0.76416 0.0038 0.17888 0.0
C88 C 0.73676 0.011 0.20638 0.0
C89 C 0.7184 0.02797 0.16304 0.0
C90 C 0.72496 0.99898 0.27671 0.0
C91 C 0.71532 0.96923 0.28058 0.0
C92 C 0.71656 0.01858 0.33216 0.0
C93 C 0.69702 0.00919 0.38718 0.0
C94 C 0.68517 0.98012 0.38704 0.0
C95 C 0.80131 0.00588 0.07586 0.0
C96 C 0.80215 0.99434 0.00364 0.0
C97 C 0.82761 0.0123 0.11335 0.0
C98 C 0.85426 0.00882 0.07752 0.0
C99 C 0.85498 0.99857 0.00397 0.0
C100 C 0.82868 0.99058 0.96825 0.0
C101 C 0.69551 0.95986 0.33533 0.0
H102 H 0.67669 0.04257 0.87028 0.0
H103 H 0.71777 0.02822 0.94438 0.0
H104 H 0.68588 0.078 0.12939 0.0
H105 H 0.64398 0.09167 0.05481 0.0
H106 H 0.76113 0.03869 0.01169 0.0
H107 H 0.69673 0.03197 0.18313 0.0
H108 H 0.77811 0.99003 0.21138 0.0
H109 H 0.72114 0.95385 0.23767 0.0
H110 H 0.72339 0.04172 0.32952 0.0
H111 H 0.68936 0.0253 0.42613 0.0
H112 H 0.78217 0.98899 0.9737 0.0
H113 H 0.82755 0.02128 0.16896 0.0
H114 H 0.68693 0.93724 0.33453 0.0
H115 H 0.82859 0.98263 0.91164 0.0
H116 H 0.87427 0.01479 0.10661 0.0
C117 C 0.52586 0.6974 0.45766 0.0
C118 C 0.55254 0.68357 0.45134 0.0
C119 C 0.51676 0.71651 0.40216 0.0
C120 C 0.53429 0.72225 0.33996 0.0
C121 C 0.56243 0.71139 0.33834 0.0
C122 C 0.57144 0.69202 0.39345 0.0
C123 C 0.52023 0.72933 0.26891 0.0
C124 C 0.5268 0.75542 0.22918 0.0
C125 C 0.51611 0.75864 0.15638 0.0
C126 C 0.49947 0.73527 0.12379 0.0
C127 C 0.4933 0.709 0.16283 0.0
C128 C 0.50293 0.70676 0.23608 0.0
C129 C 0.48058 0.6825 0.12441 0.0
C130 C 0.45782 0.68463 0.07276 0.0
C131 C 0.49318 0.65503 0.13488 0.0
C132 C 0.48456 0.63078 0.09159 0.0
C133 C 0.46326 0.63339 0.03644 0.0
C134 C 0.52284 0.78568 0.11217 0.0
C135 C 0.51671 0.81372 0.1398 0.0
C136 C 0.53296 0.78326 0.03909 0.0
C137 C 0.53544 0.80809 0.99331 0.0
C138 C 0.52758 0.83582 0.01938 0.0
C139 C 0.51892 0.83858 0.09365 0.0
C140 C 0.44911 0.6602 0.02934 0.0
H141 H 0.51068 0.69102 0.50106 0.0
H142 H 0.49475 0.72414 0.40373 0.0
H143 H 0.57608 0.71505 0.29017 0.0
H144 H 0.59209 0.68164 0.38734 0.0
H145 H 0.54073 0.77264 0.25381 0.0
H146 H 0.49847 0.68646 0.26659 0.0
H147 H 0.4922 0.73718 0.06687 0.0
H148 H 0.44741 0.70538 0.06429 0.0
H149 H 0.51106 0.65263 0.1733 0.0
H150 H 0.49615 0.61057 0.09773 0.0
H151 H 0.50886 0.81619 0.19587 0.0
H152 H 0.53815 0.76194 0.01663 0.0
H153 H 0.43231 0.66266 0.98787 0.0
H154 H 0.51309 0.85982 0.11535 0.0
H155 H 0.54219 0.80535 0.93639 0.0
C156 C 0.18905 0.60923 0.39099 0.0
C157 C 0.16045 0.59798 0.37952 0.0
C158 C 0.21185 0.59957 0.34699 0.0
C159 C 0.20647 0.5781 0.29164 0.0
C160 C 0.17743 0.56865 0.27737 0.0
C161 C 0.15481 0.57865 0.32011 0.0
C162 C 0.2306 0.56262 0.25486 0.0
C163 C 0.25595 0.55577 0.29401 0.0
C164 C 0.27591 0.53594 0.26483 0.0
C165 C 0.26911 0.52156 0.19697 0.0
C166 C 0.24365 0.5281 0.1582 0.0
C167 C 0.22603 0.55018 0.18463 0.0
C168 C 0.23142 0.5091 0.09817 0.0
C169 C 0.24275 0.50999 0.02621 0.0
C170 C 0.20438 0.49455 0.1106 0.0
C171 C 0.18746 0.48399 0.05156 0.0
C172 C 0.19734 0.48717 0.97828 0.0
C173 C 0.30245 0.52902 0.30872 0.0
C174 C 0.31677 0.55111 0.35195 0.0
C175 C 0.31319 0.50032 0.31021 0.0
C176 C 0.3374 0.49397 0.35393 0.0
C177 C 0.35111 0.51602 0.39788 0.0
C178 C 0.34058 0.54461 0.39651 0.0
C179 C 0.22595 0.49869 0.96665 0.0
H180 H 0.19399 0.62402 0.43689 0.0
H181 H 0.23379 0.60781 0.35885 0.0
H182 H 0.17204 0.55157 0.23715 0.0
H183 H 0.13324 0.5688 0.3111 0.0
H184 H 0.25927 0.56437 0.34946 0.0
H185 H 0.207 0.5556 0.15261 0.0
H186 H 0.28292 0.50483 0.17532 0.0
H187 H 0.26361 0.52106 0.01545 0.0
H188 H 0.19523 0.4936 0.16583 0.0
H189 H 0.16567 0.47542 0.06345 0.0
H190 H 0.30967 0.5736 0.35129 0.0
H191 H 0.30258 0.48254 0.27897 0.0
H192 H 0.23482 0.50038 0.91133 0.0
H193 H 0.35108 0.56206 0.42923 0.0
H194 H 0.34516 0.47171 0.35434 0.0
C195 C 0.9767 0.16793 0.35294 0.0
C196 C 0.98899 0.14008 0.35361 0.0
C197 C 0.98971 0.19111 0.31209 0.0
C198 C 0.01536 0.18682 0.27201 0.0
C199 C 0.02761 0.15893 0.2733 0.0
C200 C 0.01456 0.13585 0.31352 0.0
C201 C 0.02941 0.21107 0.22818 0.0
C202 C 0.03183 0.23994 0.25571 0.0
C203 C 0.04513 0.26296 0.21381 0.0
C204 C 0.05686 0.25648 0.1437 0.0
C205 C 0.05455 0.22742 0.11618 0.0
C206 C 0.04074 0.20514 0.15835 0.0
C207 C 0.06471 0.21882 0.04224 0.0
C208 C 0.04383 0.21472 0.98609 0.0
C209 C 0.09123 0.20476 0.03629 0.0
C210 C 0.09558 0.18461 0.9789 0.0
C211 C 0.0733 0.17795 0.92717 0.0
C212 C 0.0461 0.29341 0.24494 0.0
C213 C 0.02171 0.30348 0.28253 0.0
C214 C 0.07162 0.31155 0.24336 0.0
C215 C 0.0731 0.33845 0.28214 0.0
C216 C 0.04913 0.34756 0.32344 0.0
C217 C 0.02328 0.32999 0.32163 0.0
C218 C 0.04795 0.19434 0.92945 0.0
H219 H 0.95719 0.17177 0.3843 0.0
H220 H 0.97964 0.21231 0.31159 0.0
H221 H 0.0477 0.15506 0.24446 0.0
H222 H 0.02509 0.1149 0.31531 0.0
H223 H 0.02377 0.2444 0.31076 0.0
H224 H 0.03842 0.18299 0.13566 0.0
H225 H 0.06702 0.27385 0.11032 0.0
H226 H 0.02287 0.22464 0.99087 0.0
H227 H 0.10734 0.20706 0.08006 0.0
H228 H 0.11544 0.17257 0.97846 0.0
H229 H 0.0015 0.29036 0.28362 0.0
H230 H 0.09075 0.30443 0.21469 0.0
H231 H 0.02993 0.18941 0.89214 0.0
H232 H 0.00438 0.33617 0.35275 0.0
H233 H 0.09311 0.35184 0.28069 0.0
C234 C 0.34746 0.92037 0.33819 0.0
C235 C 0.37567 0.93344 0.33716 0.0
C236 C 0.32489 0.9332 0.29872 0.0
C237 C 0.3302 0.95949 0.25859 0.0
C238 C 0.35856 0.97225 0.25767 0.0
C239 C 0.38094 0.95934 0.29602 0.0
C240 C 0.30653 0.97475 0.21982 0.0
C241 C 0.27894 0.977 0.25152 0.0
C242 C 0.25795 0.99467 0.21863 0.0
C243 C 0.26493 0.01061 0.15336 0.0
C244 C 0.29246 0.00805 0.12095 0.0
C245 C 0.31253 0.98953 0.15332 0.0
C246 C 0.3021 0.0241 0.05356 0.0
C247 C 0.29439 0.01239 0.984 0.0
C248 C 0.32666 0.04348 0.05925 0.0
C249 C 0.34565 0.0473 0.99948 0.0
C250 C 0.34022 0.03197 0.93295 0.0
C251 C 0.22943 0.9969 0.25578 0.0
C252 C 0.21355 0.97104 0.276 0.0
C253 C 0.21957 0.02437 0.27877 0.0
C254 C 0.19487 0.0258 0.32372 0.0
C255 C 0.17939 0.99982 0.34519 0.0
C256 C 0.18873 0.97249 0.31994 0.0
C257 C 0.31321 0.01658 0.92374 0.0
H258 H 0.3428 0.90065 0.37065 0.0
H259 H 0.30331 0.92276 0.30031 0.0
H260 H 0.36338 0.99298 0.22962 0.0
H261 H 0.40216 0.97062 0.29663 0.0
H262 H 0.27415 0.96608 0.30374 0.0
H263 H 0.33342 0.98714 0.12678 0.0
H264 H 0.2492 0.02474 0.12828 0.0
H265 H 0.2757 0.99722 0.97836 0.0
H266 H 0.33315 0.05255 0.11263 0.0
H267 H 0.36611 0.0595 0.00828 0.0
H268 H 0.2208 0.94959 0.25929 0.0
H269 H 0.23166 0.04458 0.26469 0.0
H270 H 0.30804 0.00525 0.87224 0.0
H271 H 0.17741 0.95212 0.33635 0.0
H272 H 0.18806 0.04714 0.34254 0.0
C273 C 0.47452 0.30184 0.96086 0.0
C274 C 0.49496 0.3124 0.90843 0.0
C275 C 0.48234 0.28125 0.01461 0.0
C276 C 0.51074 0.271 0.01698 0.0
C277 C 0.52991 0.27872 0.95921 0.0
C278 C 0.5222 0.29935 0.90584 0.0
C279 C 0.52313 0.26336 0.08994 0.0
C280 C 0.51524 0.23744 0.12898 0.0
C281 C 0.52451 0.2341 0.2031 0.0
C282 C 0.5387 0.25833 0.23907 0.0
C283 C 0.54657 0.28448 0.20066 0.0
C284 C 0.54045 0.28543 0.12459 0.0
C285 C 0.55786 0.31179 0.2405 0.0
C286 C 0.57011 0.31044 0.31222 0.0
C287 C 0.55396 0.34006 0.20977 0.0
C288 C 0.56008 0.36557 0.2506 0.0
C289 C 0.5684 0.3638 0.32505 0.0
C290 C 0.51954 0.20592 0.24497 0.0
C291 C 0.49332 0.18891 0.23944 0.0
C292 C 0.54122 0.19646 0.29379 0.0
C293 C 0.53646 0.17156 0.33813 0.0
C294 C 0.51008 0.15505 0.33421 0.0
C295 C 0.48867 0.16363 0.28364 0.0
C296 C 0.57478 0.33611 0.35451 0.0
H297 H 0.45327 0.31122 0.96394 0.0
H298 H 0.46732 0.27607 0.05927 0.0
H299 H 0.55211 0.27162 0.96072 0.0
H300 H 0.53878 0.30723 0.86745 0.0
H301 H 0.50251 0.22001 0.10149 0.0
H302 H 0.54742 0.30438 0.0919 0.0
H303 H 0.54256 0.25682 0.29799 0.0
H304 H 0.57503 0.2896 0.33752 0.0
H305 H 0.54447 0.34317 0.15574 0.0
H306 H 0.55628 0.38673 0.22516 0.0
H307 H 0.47611 0.19559 0.20279 0.0
H308 H 0.56198 0.2085 0.29824 0.0
H309 H 0.58183 0.33407 0.41152 0.0
H310 H 0.46807 0.15128 0.27979 0.0
H311 H 0.5535 0.16516 0.37576 0.0
O312 O 0.08928 0.0046 0.6247 0.0
Zn313 Zn 0.0633 0.00576 0.71601 0.0
O314 O 0.02179 0.99852 0.6889 0.0
Zn315 Zn 0.99952 0.03254 0.71609 0.0
Zn316 Zn 0.01837 0.99217 0.58247 0.0
Zn317 Zn 0.00475 0.96373 0.73925 0.0
O318 O 0.96792 0.02203 0.78975 0.0
O319 O 0.96928 0.97333 0.80037 0.0
O320 O 0.06996 0.04638 0.76412 0.0
O321 O 0.02571 0.06435 0.75922 0.0
O322 O 0.9819 0.0514 0.62717 0.0
O323 O 0.99528 0.02334 0.53388 0.0
O324 O 0.00128 0.95198 0.558 0.0
O325 O 0.07599 0.97419 0.78799 0.0
O326 O 0.99447 0.93031 0.66701 0.0
O327 O 0.03447 0.94842 0.80871 0.0
C328 C 0.08364 0.99968 0.55644 0.0
C329 C 0.95808 0.99773 0.81711 0.0
C330 C 0.98237 0.04564 0.55826 0.0
C331 C 0.05262 0.0672 0.775 0.0
C332 C 0.9937 0.92945 0.59642 0.0
C333 C 0.06143 0.95365 0.82111 0.0
O334 O 0.05763 0.99462 0.53435 0.0
O335 O 0.5011 0.05868 0.60469 0.0
Zn336 Zn 0.50277 0.03179 0.69473 0.0
O337 O 0.51274 0.99129 0.6641 0.0
Zn338 Zn 0.4821 0.96336 0.69572 0.0
Zn339 Zn 0.51646 0.98939 0.5565 0.0
Zn340 Zn 0.54927 0.97918 0.70881 0.0
O341 O 0.49617 0.93458 0.7709 0.0
O342 O 0.54373 0.94399 0.77852 0.0
O343 O 0.46314 0.03209 0.7471 0.0
O344 O 0.45022 0.98454 0.74395 0.0
O345 O 0.46351 0.94149 0.61012 0.0
O346 O 0.48713 0.96025 0.51302 0.0
O347 O 0.55666 0.97831 0.52601 0.0
O348 O 0.53431 0.0493 0.76316 0.0
O349 O 0.58007 0.9713 0.63177 0.0
O350 O 0.56532 0.01275 0.76923 0.0
C351 C 0.5039 0.05442 0.53525 0.0
C352 C 0.52087 0.92935 0.79872 0.0
C353 C 0.46762 0.94284 0.54055 0.0
C354 C 0.44487 0.01092 0.76147 0.0
C355 C 0.57963 0.97201 0.5612 0.0
C356 C 0.55787 0.03857 0.78639 0.0
O357 O 0.5095 0.02904 0.50992 0.0
O358 O 0.45246 0.4924 0.64719 0.0
Zn359 Zn 0.48319 0.48953 0.729 0.0
O360 O 0.52258 0.49986 0.6892 0.0
Zn361 Zn 0.54791 0.46665 0.7002 0.0
Zn362 Zn 0.51987 0.50991 0.58466 0.0
Zn363 Zn 0.54072 0.53368 0.74096 0.0
O364 O 0.5822 0.47647 0.76714 0.0
O365 O 0.57609 0.52281 0.80141 0.0
O366 O 0.48124 0.44729 0.77098 0.0
O367 O 0.52548 0.43234 0.74427 0.0
O368 O 0.56152 0.45137 0.60229 0.0
O369 O 0.53942 0.4803 0.52261 0.0
O370 O 0.53654 0.55074 0.56256 0.0
O371 O 0.47216 0.51938 0.80764 0.0
O372 O 0.5516 0.56754 0.67205 0.0
O373 O 0.51134 0.54997 0.80778 0.0
C374 C 0.45412 0.50044 0.57951 0.0
C375 C 0.59029 0.49924 0.80447 0.0
C376 C 0.55502 0.45841 0.53627 0.0
C377 C 0.50003 0.42728 0.76968 0.0
C378 C 0.54807 0.57117 0.60273 0.0
C379 C 0.48579 0.54284 0.82967 0.0
O380 O 0.47838 0.50818 0.55044 0.0
O381 O 0.98013 0.54099 0.59942 0.0
Zn382 Zn 0.0187 0.54142 0.65716 0.0
O383 O 0.03116 0.50077 0.67885 0.0
Zn384 Zn 0.03547 0.49488 0.78536 0.0
Zn385 Zn 0.0021 0.47226 0.64058 0.0
Zn386 Zn 0.06853 0.49321 0.6332 0.0
O387 O 0.07586 0.48301 0.8148 0.0
O388 O 0.09959 0.48464 0.70805 0.0
O389 O 0.01452 0.56442 0.75344 0.0
O390 O 0.02848 0.53276 0.83896 0.0
O391 O 0.00567 0.46514 0.82297 0.0
O392 O 0.983 0.44827 0.72218 0.0
O393 O 0.01899 0.44574 0.5641 0.0
O394 O 0.04965 0.56393 0.59668 0.0
O395 O 0.06569 0.45997 0.55742 0.0
O396 O 0.08315 0.53011 0.58459 0.0
C397 C 0.9635 0.51945 0.57764 0.0
C398 C 0.09919 0.48092 0.77783 0.0
C399 C 0.9863 0.44839 0.79225 0.0
C400 C 0.01995 0.55816 0.82095 0.0
C401 C 0.04419 0.44341 0.5363 0.0
C402 C 0.07441 0.55606 0.57427 0.0
O403 O 0.96992 0.49288 0.59041 0.0
C404 C 0.15761 0.01456 0.4662 0.0
C405 C 0.1543 0.00087 0.39657 0.0
C406 C 0.13478 0.01393 0.51776 0.0
C407 C 0.10762 0.99994 0.5012 0.0
H408 H 0.17823 0.02528 0.48159 0.0
H409 H 0.13846 0.0246 0.57085 0.0
S410 S 0.08778 0.96162 0.32483 0.0
N411 N 0.12183 0.97349 0.31288 0.0
N412 N 0.07885 0.97236 0.40881 0.0
C413 C 0.10399 0.98656 0.43098 0.0
C414 C 0.12733 0.98699 0.379 0.0
C415 C 0.50943 0.13302 0.46128 0.0
C416 C 0.50527 0.12936 0.38452 0.0
C417 C 0.50782 0.10883 0.50976 0.0
C418 C 0.50247 0.07987 0.48333 0.0
H419 H 0.51442 0.15479 0.48393 0.0
H420 H 0.51182 0.11281 0.56815 0.0
S421 S 0.48861 0.05866 0.28708 0.0
N422 N 0.49432 0.09487 0.28443 0.0
N423 N 0.49155 0.04922 0.37508 0.0
C424 C 0.49747 0.07602 0.4067 0.0
C425 C 0.49876 0.10079 0.35748 0.0
C426 C 0.37614 0.51373 0.52132 0.0
C427 C 0.37683 0.50964 0.44408 0.0
C428 C 0.40089 0.50953 0.5654 0.0
C429 C 0.42739 0.5018 0.53345 0.0
H430 H 0.35636 0.52049 0.54769 0.0
H431 H 0.39953 0.51339 0.62448 0.0
S432 S 0.44015 0.48779 0.33371 0.0
N433 N 0.4057 0.49654 0.3378 0.0
N434 N 0.45239 0.48927 0.41981 0.0
C435 C 0.42813 0.49722 0.45628 0.0
C436 C 0.40282 0.50096 0.41181 0.0
C437 C 0.02669 0.3928 0.37397 0.0
C438 C 0.05069 0.3745 0.37111 0.0
C439 C 0.0252 0.41543 0.42644 0.0
C440 C 0.04793 0.42119 0.47732 0.0
H441 H 0.00843 0.3891 0.33659 0.0
H442 H 0.00587 0.4283 0.42778 0.0
S443 S 0.1163 0.381 0.49151 0.0
N444 N 0.09814 0.36432 0.42327 0.0
N445 N 0.09578 0.40784 0.51978 0.0
C446 C 0.07276 0.40422 0.47284 0.0
C447 C 0.07407 0.38069 0.42018 0.0
C448 C 0.89015 0.97244 0.92339 0.0
C449 C 0.88272 0.99801 0.96205 0.0
C450 C 0.91493 0.9723 0.87818 0.0
C451 C 0.93293 0.99791 0.86873 0.0
H452 H 0.87652 0.95246 0.92757 0.0
H453 H 0.91955 0.95217 0.84889 0.0
S454 S 0.92318 0.07046 0.95941 0.0
N455 N 0.89557 0.04939 0.98928 0.0
N456 N 0.94195 0.04932 0.90431 0.0
C457 C 0.92593 0.0235 0.90818 0.0
C458 C 0.90092 0.02349 0.95486 0.0
C459 C 0.55035 0.86926 0.92274 0.0
C460 C 0.52625 0.86108 0.96709 0.0
C461 C 0.54869 0.89173 0.86934 0.0
C462 C 0.52267 0.90637 0.8572 0.0
H463 H 0.57059 0.85811 0.9292 0.0
H464 H 0.56774 0.89718 0.83623 0.0
S465 S 0.45345 0.89325 0.9597 0.0
N466 N 0.47578 0.86955 0.9961 0.0
N467 N 0.47246 0.91147 0.89588 0.0
C468 C 0.49851 0.8985 0.90185 0.0
C469 C 0.50035 0.87597 0.95674 0.0
C470 C 0.64462 0.51725 0.96 0.0
C471 C 0.66481 0.4949 0.95333 0.0
C472 C 0.62082 0.51875 0.9112 0.0
C473 C 0.61628 0.49795 0.85375 0.0
H474 H 0.64696 0.53344 0.00401 0.0
H475 H 0.60563 0.53609 0.91941 0.0
S476 S 0.66477 0.43698 0.80783 0.0
N477 N 0.68002 0.45298 0.88118 0.0
N478 N 0.63531 0.45544 0.79045 0.0
C479 C 0.63679 0.47593 0.8455 0.0
C480 C 0.661 0.4745 0.89495 0.0
C481 C 0.0085 0.63249 0.91322 0.0
C482 C 0.01825 0.62807 0.98613 0.0
C483 C 0.00839 0.60961 0.86074 0.0
C484 C 0.01783 0.58131 0.87929 0.0
H485 H 0.00195 0.65413 0.89581 0.0
H486 H 0.00146 0.61441 0.80478 0.0
S487 S 0.04259 0.5579 0.06605 0.0
N488 N 0.03558 0.59311 0.07611 0.0
N489 N 0.03521 0.5499 0.97859 0.0
C490 C 0.0264 0.57637 0.95338 0.0
C491 C 0.02669 0.59979 0.00642 0.0
C492 C 0.97499 0.12157 0.47868 0.0
C493 C 0.97763 0.11616 0.40246 0.0
C494 C 0.973 0.09817 0.52922 0.0
C495 C 0.97384 0.06862 0.50507 0.0
H496 H 0.97714 0.14391 0.49999 0.0
H497 H 0.97363 0.10347 0.58773 0.0
S498 S 0.97243 0.04318 0.30967 0.0
N499 N 0.97484 0.07957 0.30408 0.0
N500 N 0.97135 0.03541 0.39902 0.0
C501 C 0.9727 0.06305 0.42844 0.0
C502 C 0.97461 0.08689 0.37708 0.0
C503 C 0.39357 0.92284 0.46394 0.0
C504 C 0.39886 0.92364 0.38737 0.0
C505 C 0.41662 0.92535 0.51474 0.0
C506 C 0.44558 0.92905 0.49028 0.0
H507 H 0.37155 0.92352 0.48471 0.0
H508 H 0.4114 0.92762 0.57287 0.0
S509 S 0.47088 0.92335 0.29628 0.0
N510 N 0.43503 0.9212 0.2901 0.0
N511 N 0.47846 0.9265 0.38552 0.0
C512 C 0.4512 0.92556 0.41441 0.0
C513 C 0.42776 0.92269 0.36286 0.0
C514 C 0.5881 0.39651 0.42786 0.0
C515 C 0.56667 0.39011 0.37368 0.0
C516 C 0.58502 0.41966 0.4786 0.0
C517 C 0.56067 0.43744 0.47599 0.0
H518 H 0.60705 0.38317 0.43205 0.0
H519 H 0.60147 0.42326 0.52112 0.0
S520 S 0.49765 0.42883 0.34769 0.0
N521 N 0.51953 0.40262 0.32337 0.0
N522 N 0.51453 0.44675 0.41584 0.0
C523 C 0.53947 0.43171 0.42101 0.0
C524 C 0.54226 0.40787 0.37062 0.0
C525 C 0.14542 0.58908 0.50907 0.0
C526 C 0.13816 0.59947 0.43828 0.0
C527 C 0.1239 0.57774 0.55674 0.0
C528 C 0.09443 0.57692 0.53581 0.0
H529 H 0.16795 0.58642 0.52446 0.0
H530 H 0.13058 0.56724 0.60766 0.0
S531 S 0.06364 0.60813 0.36461 0.0
N532 N 0.0992 0.61338 0.35545 0.0
N533 N 0.05858 0.59211 0.44605 0.0
C534 C 0.08654 0.59089 0.46991 0.0
C535 C 0.10852 0.60225 0.42084 0.0
C536 C 0.07313 0.90819 0.99116 0.0
C537 C 0.08969 0.88521 0.96363 0.0
C538 C 0.06599 0.93195 0.94599 0.0
C539 C 0.07582 0.93385 0.8726 0.0
H540 H 0.06358 0.90657 0.04586 0.0
H541 H 0.05125 0.94798 0.9671 0.0
S542 S 0.12273 0.88146 0.77724 0.0
N543 N 0.11782 0.86716 0.86069 0.0
N544 N 0.10496 0.91244 0.77623 0.0
C545 C 0.09435 0.91241 0.84635 0.0
C546 C 0.10118 0.88788 0.89186 0.0
C547 C 0.60358 0.05899 0.95094 0.0
C548 C 0.62913 0.07043 0.91699 0.0
C549 C 0.57864 0.05176 0.90885 0.0
C550 C 0.5784 0.05623 0.83198 0.0
H551 H 0.60372 0.05289 0.00896 0.0
H552 H 0.56041 0.04026 0.93548 0.0
S553 S 0.63771 0.09026 0.71895 0.0
N554 N 0.65121 0.08964 0.80386 0.0
N555 N 0.60421 0.07592 0.72485 0.0
C556 C 0.60267 0.07034 0.79871 0.0
C557 C 0.6281 0.07757 0.84131 0.0
C558 C 0.45849 0.57986 0.00098 0.0
C559 C 0.46006 0.60983 0.9796 0.0
C560 C 0.46406 0.55734 0.95009 0.0
C561 C 0.4715 0.56428 0.87671 0.0
H562 H 0.45491 0.57397 0.05848 0.0
H563 H 0.46486 0.53478 0.96962 0.0
S564 S 0.47483 0.63847 0.7903 0.0
N565 N 0.46669 0.64463 0.87776 0.0
N566 N 0.47696 0.60232 0.78268 0.0
C567 C 0.47065 0.59374 0.8532 0.0
C568 C 0.46489 0.61657 0.90453 0.0
C569 C 0.91294 0.41549 0.84784 0.0
C570 C 0.91249 0.42122 0.92438 0.0
C571 C 0.93809 0.42141 0.80599 0.0
C572 C 0.96371 0.43339 0.83918 0.0
H573 H 0.89314 0.40839 0.81919 0.0
H574 H 0.9366 0.41876 0.74646 0.0
S575 S 0.9756 0.44638 0.04038 0.0
N576 N 0.94109 0.43534 0.03341 0.0
N577 N 0.98851 0.44555 0.95533 0.0
C578 C 0.96451 0.43576 0.91698 0.0
C579 C 0.93885 0.42992 0.95949 0.0
C580 C 0.08246 0.12398 0.91192 0.0
C581 C 0.07395 0.15083 0.88027 0.0
C582 C 0.07744 0.0969 0.87521 0.0
C583 C 0.06336 0.09571 0.80615 0.0
H584 H 0.09134 0.12357 0.96753 0.0
H585 H 0.08283 0.07667 0.90317 0.0
S586 S 0.04151 0.1595 0.69334 0.0
N587 N 0.05485 0.17448 0.77032 0.0
N588 N 0.04418 0.12348 0.70329 0.0
C589 C 0.05657 0.12235 0.77165 0.0
C590 C 0.06219 0.14993 0.80817 0.0
C591 C 0.38375 0.05047 0.85891 0.0
C592 C 0.36481 0.027 0.88144 0.0
C593 C 0.40928 0.0453 0.81893 0.0
C594 C 0.41701 0.01641 0.80049 0.0
H595 H 0.37907 0.07297 0.87348 0.0
H596 H 0.42329 0.06407 0.80358 0.0
S597 S 0.37507 0.94714 0.84918 0.0
N598 N 0.35593 0.97377 0.88397 0.0
N599 N 0.40318 0.96395 0.80861 0.0
C600 C 0.39791 0.99279 0.82207 0.0
C601 C 0.37205 0.99809 0.86251 0.0
C602 C 0.47979 0.36508 0.90255 0.0
C603 C 0.49021 0.34008 0.86587 0.0
C604 C 0.48098 0.39315 0.86915 0.0
C605 C 0.49297 0.39725 0.79833 0.0
H606 H 0.4724 0.36338 0.95933 0.0
H607 H 0.47431 0.412 0.90086 0.0
S608 S 0.51813 0.33859 0.67344 0.0
N609 N 0.50868 0.32091 0.75018 0.0
N610 N 0.51193 0.37371 0.6888 0.0
C611 C 0.50147 0.37224 0.75908 0.0
C612 C 0.49983 0.34367 0.79245 0.0
C613 C 0.15444 0.45906 0.92157 0.0
C614 C 0.17611 0.48194 0.9161 0.0
C615 C 0.13005 0.45795 0.87456 0.0
C616 C 0.12697 0.47894 0.8183 0.0
H617 H 0.15553 0.44267 0.96503 0.0
H618 H 0.11308 0.44107 0.88364 0.0
S619 S 0.17798 0.5419 0.77527 0.0
N620 N 0.19286 0.52557 0.84694 0.0
N621 N 0.14809 0.52201 0.75582 0.0
C622 C 0.14935 0.50053 0.80818 0.0
C623 C 0.17374 0.50231 0.85747 0.0
C624 C 0.99597 0.8479 0.55049 0.0
C625 C 0.98933 0.84726 0.47429 0.0
C626 C 0.99499 0.8742 0.5915 0.0
C627 C 0.98784 0.90093 0.55744 0.0
H628 H 0.0033 0.82823 0.57776 0.0
H629 H 0.00181 0.87393 0.64898 0.0
S630 S 0.96581 0.91045 0.36114 0.0
N631 N 0.9731 0.87518 0.36793 0.0
N632 N 0.97122 0.92444 0.44472 0.0
C633 C 0.97931 0.90012 0.48248 0.0
C634 C 0.98006 0.87334 0.44099 0.0
C635 C 0.6596 0.97921 0.50979 0.0
C636 C 0.65931 0.97267 0.43361 0.0
C637 C 0.634 0.97703 0.55197 0.0
C638 C 0.60704 0.9688 0.51914 0.0
H639 H 0.6796 0.98705 0.5364 0.0
H640 H 0.63513 0.98344 0.60974 0.0
S641 S 0.59495 0.94746 0.32255 0.0
N642 N 0.63011 0.95599 0.32799 0.0
N643 N 0.58209 0.95205 0.40683 0.0
C644 C 0.60674 0.9609 0.44373 0.0
C645 C 0.63283 0.96278 0.4011 0.0
C646 C 0.56125 0.62972 0.45561 0.0
C647 C 0.55736 0.65623 0.49427 0.0
C648 C 0.55975 0.6024 0.49195 0.0
C649 C 0.55468 0.60048 0.56862 0.0
H650 H 0.56368 0.62989 0.39594 0.0
H651 H 0.5615 0.58253 0.45913 0.0
S652 S 0.54625 0.66379 0.69642 0.0
N653 N 0.5505 0.67919 0.61404 0.0
N654 N 0.54809 0.62785 0.68308 0.0
C655 C 0.55266 0.627 0.60881 0.0
C656 C 0.55381 0.65485 0.57143 0.0
C657 C 0.89134 0.50321 0.48039 0.0
C658 C 0.88712 0.52873 0.43803 0.0
C659 C 0.91542 0.50111 0.5274 0.0
C660 C 0.93644 0.52445 0.53455 0.0
H661 H 0.87676 0.48398 0.47431 0.0
H662 H 0.91797 0.48051 0.55672 0.0
S663 S 0.93373 0.59751 0.44232 0.0
N664 N 0.90453 0.57896 0.41125 0.0
N665 N 0.95004 0.57498 0.49956 0.0
C666 C 0.93165 0.5508 0.49582 0.0
C667 C 0.90703 0.5529 0.44748 0.0
loop_
_geom_bond_atom_site_label_1
_geom_bond_atom_site_label_2
_geom_bond_distance
_geom_bond_site_symmetry_2
_ccdc_geom_bond_type
C0 C1 1.386 . S
C0 C2 1.397 . S
C0 H24 0.931 . S
C1 C0 1.386 . S
C1 C5 1.397 . S
C2 C0 1.397 . S
C2 C3 1.384 . S
C2 H25 0.930 . S
C3 C2 1.384 . S
C3 C4 1.377 . S
C3 C6 1.481 . S
C4 C3 1.377 . S
C4 C5 1.389 . S
C4 H26 0.929 . S
C5 C1 1.397 . S
C5 C4 1.389 . S
C5 H27 0.931 . S
C6 C3 1.481 . S
C6 C7 1.387 . S
C6 C11 1.390 1_556 S
C7 C6 1.387 . S
C7 C8 1.401 1_556 S
C7 H28 0.930 . S
C8 C7 1.401 1_554 S
C8 C9 1.376 . S
C8 C17 1.511 1_554 S
C9 C8 1.376 . S
C9 C10 1.392 . S
C9 H30 0.931 . S
C10 C9 1.392 . S
C10 C11 1.361 . S
C10 C12 1.500 . S
C11 C6 1.390 1_554 S
C11 C10 1.361 . S
C11 H29 0.931 . S
C12 C10 1.500 . S
C12 C13 1.371 . S
C12 C14 1.365 . S
C13 C12 1.371 . S
C13 C23 1.386 . S
C13 H31 0.931 . S
C14 C12 1.365 . S
C14 C15 1.409 . S
C14 H32 0.929 . S
C15 C14 1.409 . S
C15 C16 1.380 . S
C15 H33 0.930 . S
C16 C15 1.380 . S
C16 C23 1.357 . S
C17 C8 1.511 1_556 S
C17 C18 1.341 . S
C17 C19 1.371 1_556 S
C18 C17 1.341 . S
C18 C22 1.394 . S
C18 H34 0.930 . S
C19 C17 1.371 1_554 S
C19 C20 1.392 . S
C19 H35 0.931 . S
C20 C19 1.392 . S
C20 C21 1.331 1_554 S
C20 H38 0.932 . S
C21 C20 1.331 1_556 S
C21 C22 1.336 . S
C22 C18 1.394 . S
C22 C21 1.336 . S
C22 H37 0.929 . S
C23 C13 1.386 . S
C23 C16 1.357 . S
C23 H36 0.928 . S
H24 C0 0.931 . S
H25 C2 0.930 . S
H26 C4 0.929 . S
H27 C5 0.931 . S
H28 C7 0.930 . S
H29 C11 0.931 . S
H30 C9 0.931 . S
H31 C13 0.931 . S
H32 C14 0.929 . S
H33 C15 0.930 . S
H34 C18 0.930 . S
H35 C19 0.931 . S
H36 C23 0.928 . S
H37 C22 0.929 . S
H38 C20 0.932 . S
C39 C40 1.386 . S
C39 C41 1.397 . S
C39 H63 0.931 . S
C40 C39 1.386 . S
C40 C44 1.397 1_655 S
C41 C39 1.397 . S
C41 C42 1.384 . S
C41 H64 0.930 . S
C42 C41 1.384 . S
C42 C43 1.378 1_655 S
C42 C45 1.481 1_556 S
C43 C42 1.378 1_455 S
C43 C44 1.399 . S
C43 H65 0.918 1_556 S
C44 C40 1.397 1_455 S
C44 C43 1.399 . S
C44 H66 0.931 . S
C45 C42 1.481 1_554 S
C45 C46 1.387 . S
C45 C50 1.390 . S
C46 C45 1.387 . S
C46 C47 1.401 . S
C46 H67 0.930 1_554 S
C47 C46 1.401 . S
C47 C48 1.376 . S
C47 C56 1.511 . S
C48 C47 1.376 . S
C48 C49 1.392 . S
C48 H69 0.931 . S
C49 C48 1.392 . S
C49 C50 1.361 . S
C49 C51 1.500 . S
C50 C45 1.390 . S
C50 C49 1.361 . S
C50 H68 0.931 . S
C51 C49 1.500 . S
C51 C52 1.371 . S
C51 C53 1.365 1_655 S
C52 C51 1.371 . S
C52 C62 1.386 . S
C52 H70 0.931 . S
C53 C51 1.365 1_455 S
C53 C54 1.409 . S
C53 H71 0.929 . S
C54 C53 1.409 . S
C54 C55 1.380 1_455 S
C54 H72 0.930 . S
C55 C54 1.380 1_655 S
C55 C62 1.357 . S
C56 C47 1.511 . S
C56 C57 1.341 1_554 S
C56 C58 1.371 . S
C57 C56 1.341 1_556 S
C57 C61 1.394 . S
C57 H73 0.930 . S
C58 C56 1.371 . S
C58 C59 1.392 . S
C58 H74 0.931 1_655 S
C59 C58 1.392 . S
C59 C60 1.331 . S
C59 H77 0.932 1_655 S
C60 C59 1.331 . S
C60 C61 1.336 1_554 S
C61 C57 1.394 . S
C61 C60 1.336 1_556 S
C61 H76 0.929 . S
C62 C52 1.386 . S
C62 C55 1.357 . S
C62 H75 0.928 . S
H63 C39 0.931 . S
H64 C41 0.930 . S
H65 C43 0.918 1_554 S
H66 C44 0.931 . S
H67 C46 0.930 1_556 S
H68 C50 0.931 . S
H69 C48 0.931 . S
H70 C52 0.931 . S
H71 C53 0.929 . S
H72 C54 0.930 . S
H73 C57 0.930 . S
H74 C58 0.931 1_455 S
H75 C62 0.928 . S
H76 C61 0.929 . S
H77 C59 0.932 1_455 S
C78 C79 1.387 . S
C78 C80 1.397 . S
C78 H102 0.931 . S
C79 C78 1.387 . S
C79 C83 1.396 1_565 S
C80 C78 1.397 . S
C80 C81 1.385 . S
C80 H103 0.930 . S
C81 C80 1.385 . S
C81 C82 1.376 1_565 S
C81 C84 1.479 1_556 S
C82 C81 1.376 1_545 S
C82 C83 1.389 . S
C82 H104 0.929 . S
C83 C79 1.396 1_545 S
C83 C82 1.389 . S
C83 H105 0.931 . S
C84 C81 1.479 1_554 S
C84 C85 1.390 1_554 S
C84 C89 1.390 . S
C85 C84 1.390 1_556 S
C85 C86 1.401 1_556 S
C85 H106 0.930 . S
C86 C85 1.401 1_554 S
C86 C87 1.377 . S
C86 C95 1.515 . S
C87 C86 1.377 . S
C87 C88 1.392 . S
C87 H108 0.931 . S
C88 C87 1.392 . S
C88 C89 1.361 . S
C88 C90 1.499 1_565 S
C89 C84 1.390 . S
C89 C88 1.361 . S
C89 H107 0.931 . S
C90 C88 1.499 1_545 S
C90 C91 1.359 1_545 S
C90 C92 1.378 . S
C91 C90 1.359 1_565 S
C91 C101 1.386 . S
C91 H109 0.931 . S
C92 C90 1.378 . S
C92 C93 1.409 . S
C92 H110 0.929 . S
C93 C92 1.409 . S
C93 C94 1.383 . S
C93 H111 0.930 . S
C94 C93 1.383 . S
C94 C101 1.355 1_545 S
C95 C86 1.515 . S
C95 C96 1.341 1_554 S
C95 C97 1.371 1_565 S
C96 C95 1.341 1_556 S
C96 C100 1.394 . S
C96 H112 0.930 . S
C97 C95 1.371 1_545 S
C97 C98 1.392 . S
C97 H113 0.931 . S
C98 C97 1.392 . S
C98 C99 1.331 1_544 S
C98 H116 0.932 . S
C99 C98 1.331 1_566 S
C99 C100 1.336 . S
C100 C96 1.394 . S
C100 C99 1.336 . S
C100 H115 0.929 . S
C101 C91 1.386 . S
C101 C94 1.355 1_565 S
C101 H114 0.928 . S
H102 C78 0.931 . S
H103 C80 0.930 . S
H104 C82 0.929 . S
H105 C83 0.931 . S
H106 C85 0.930 . S
H107 C89 0.931 . S
H108 C87 0.931 . S
H109 C91 0.931 . S
H110 C92 0.929 . S
H111 C93 0.930 . S
H112 C96 0.930 . S
H113 C97 0.931 . S
H114 C101 0.928 . S
H115 C100 0.929 . S
H116 C98 0.932 . S
C117 C118 1.386 . S
C117 C119 1.397 . S
C117 H141 0.931 . S
C118 C117 1.386 . S
C118 C122 1.397 . S
C119 C117 1.397 . S
C119 C120 1.384 . S
C119 H142 0.930 . S
C120 C119 1.384 . S
C120 C121 1.377 . S
C120 C123 1.481 . S
C121 C120 1.377 . S
C121 C122 1.389 . S
C121 H143 0.929 . S
C122 C118 1.397 . S
C122 C121 1.389 . S
C122 H144 0.931 . S
C123 C120 1.481 . S
C123 C124 1.387 . S
C123 C128 1.390 . S
C124 C123 1.387 . S
C124 C125 1.401 . S
C124 H145 0.930 . S
C125 C124 1.401 . S
C125 C126 1.376 1_554 S
C125 C134 1.511 . S
C126 C125 1.376 1_556 S
C126 C127 1.392 . S
C126 H147 0.931 . S
C127 C126 1.392 . S
C127 C128 1.361 1_556 S
C127 C129 1.500 . S
C128 C123 1.390 . S
C128 C127 1.361 1_554 S
C128 H146 0.931 . S
C129 C127 1.500 . S
C129 C130 1.371 . S
C129 C131 1.365 . S
C130 C129 1.371 . S
C130 C140 1.386 . S
C130 H148 0.931 . S
C131 C129 1.365 . S
C131 C132 1.409 . S
C131 H149 0.929 . S
C132 C131 1.409 . S
C132 C133 1.380 . S
C132 H150 0.930 . S
C133 C132 1.380 . S
C133 C140 1.357 . S
C134 C125 1.511 . S
C134 C135 1.341 . S
C134 C136 1.371 1_554 S
C135 C134 1.341 . S
C135 C139 1.394 . S
C135 H151 0.930 . S
C136 C134 1.371 1_556 S
C136 C137 1.392 . S
C136 H152 0.931 . S
C137 C136 1.392 . S
C137 C138 1.331 . S
C137 H155 0.932 . S
C138 C137 1.331 . S
C138 C139 1.336 1_556 S
C139 C135 1.394 . S
C139 C138 1.336 1_554 S
C139 H154 0.929 . S
C140 C130 1.386 . S
C140 C133 1.357 . S
C140 H153 0.928 . S
H141 C117 0.931 . S
H142 C119 0.930 . S
H143 C121 0.929 . S
H144 C122 0.931 . S
H145 C124 0.930 . S
H146 C128 0.931 . S
H147 C126 0.931 . S
H148 C130 0.931 . S
H149 C131 0.929 . S
H150 C132 0.930 . S
H151 C135 0.930 . S
H152 C136 0.931 . S
H153 C140 0.928 . S
H154 C139 0.929 . S
H155 C137 0.932 . S
C156 C157 1.386 . S
C156 C158 1.397 . S
C156 H180 0.931 . S
C157 C156 1.386 . S
C157 C161 1.397 . S
C158 C156 1.397 . S
C158 C159 1.384 . S
C158 H181 0.930 . S
C159 C158 1.384 . S
C159 C160 1.377 . S
C159 C162 1.481 . S
C160 C159 1.377 . S
C160 C161 1.389 . S
C160 H182 0.929 . S
C161 C157 1.397 . S
C161 C160 1.389 . S
C161 H183 0.931 . S
C162 C159 1.481 . S
C162 C163 1.387 . S
C162 C167 1.390 . S
C163 C162 1.387 . S
C163 C164 1.401 . S
C163 H184 0.930 . S
C164 C163 1.401 . S
C164 C165 1.376 . S
C164 C173 1.511 . S
C165 C164 1.376 . S
C165 C166 1.392 . S
C165 H186 0.931 . S
C166 C165 1.392 . S
C166 C167 1.361 . S
C166 C168 1.500 . S
C167 C162 1.390 . S
C167 C166 1.361 . S
C167 H185 0.931 . S
C168 C166 1.500 . S
C168 C169 1.371 . S
C168 C170 1.365 . S
C169 C168 1.371 . S
C169 C179 1.386 1_554 S
C169 H187 0.931 . S
C170 C168 1.365 . S
C170 C171 1.409 . S
C170 H188 0.929 . S
C171 C170 1.409 . S
C171 C172 1.380 1_554 S
C171 H189 0.930 1_554 S
C172 C171 1.380 1_556 S
C172 C179 1.357 . S
C173 C164 1.511 . S
C173 C174 1.341 . S
C173 C175 1.371 . S
C174 C173 1.341 . S
C174 C178 1.394 . S
C174 H190 0.930 . S
C175 C173 1.371 . S
C175 C176 1.392 . S
C175 H191 0.931 . S
C176 C175 1.392 . S
C176 C177 1.331 . S
C176 H194 0.932 . S
C177 C176 1.331 . S
C177 C178 1.336 . S
C178 C174 1.394 . S
C178 C177 1.336 . S
C178 H193 0.929 . S
C179 C169 1.386 1_556 S
C179 C172 1.357 . S
C179 H192 0.928 . S
H180 C156 0.931 . S
H181 C158 0.930 . S
H182 C160 0.929 . S
H183 C161 0.931 . S
H184 C163 0.930 . S
H185 C167 0.931 . S
H186 C165 0.931 . S
H187 C169 0.931 . S
H188 C170 0.929 . S
H189 C171 0.930 1_556 S
H190 C174 0.930 . S
H191 C175 0.931 . S
H192 C179 0.928 . S
H193 C178 0.929 . S
H194 C176 0.932 . S
C195 C196 1.386 . S
C195 C197 1.397 . S
C195 H219 0.931 . S
C196 C195 1.386 . S
C196 C200 1.397 . S
C197 C195 1.397 . S
C197 C198 1.384 . S
C197 H220 0.930 . S
C198 C197 1.384 . S
C198 C199 1.377 . S
C198 C201 1.481 . S
C199 C198 1.377 . S
C199 C200 1.389 . S
C199 H221 0.929 . S
C200 C196 1.397 . S
C200 C199 1.389 . S
C200 H222 0.931 . S
C201 C198 1.481 . S
C201 C202 1.387 . S
C201 C206 1.390 . S
C202 C201 1.387 . S
C202 C203 1.401 . S
C202 H223 0.930 . S
C203 C202 1.401 . S
C203 C204 1.376 . S
C203 C212 1.511 . S
C204 C203 1.376 . S
C204 C205 1.392 . S
C204 H225 0.931 . S
C205 C204 1.392 . S
C205 C206 1.361 . S
C205 C207 1.500 . S
C206 C201 1.390 . S
C206 C205 1.361 . S
C206 H224 0.931 . S
C207 C205 1.500 . S
C207 C208 1.371 . S
C207 C209 1.365 . S
C208 C207 1.371 . S
C208 C218 1.386 . S
C208 H226 0.931 . S
C209 C207 1.365 . S
C209 C210 1.409 . S
C209 H227 0.929 . S
C210 C209 1.409 . S
C210 C211 1.380 . S
C210 H228 0.930 . S
C211 C210 1.380 . S
C211 C218 1.357 . S
C212 C203 1.511 . S
C212 C213 1.341 . S
C212 C214 1.371 . S
C213 C212 1.341 . S
C213 C217 1.394 . S
C213 H229 0.930 . S
C214 C212 1.371 . S
C214 C215 1.392 . S
C214 H230 0.931 . S
C215 C214 1.392 . S
C215 C216 1.331 . S
C215 H233 0.932 . S
C216 C215 1.331 . S
C216 C217 1.336 . S
C217 C213 1.394 . S
C217 C216 1.336 . S
C217 H232 0.929 . S
C218 C208 1.386 . S
C218 C211 1.357 . S
C218 H231 0.928 . S
H219 C195 0.931 . S
H220 C197 0.930 . S
H221 C199 0.929 . S
H222 C200 0.931 . S
H223 C202 0.930 . S
H224 C206 0.931 . S
H225 C204 0.931 . S
H226 C208 0.931 . S
H227 C209 0.929 . S
H228 C210 0.930 . S
H229 C213 0.930 . S
H230 C214 0.931 . S
H231 C218 0.928 . S
H232 C217 0.929 . S
H233 C215 0.932 . S
C234 C235 1.387 1_565 S
C234 C236 1.397 . S
C234 H258 0.931 . S
C235 C234 1.387 1_545 S
C235 C239 1.397 . S
C236 C234 1.397 . S
C236 C237 1.385 1_565 S
C236 H259 0.930 . S
C237 C236 1.385 1_545 S
C237 C238 1.376 . S
C237 C240 1.481 1_545 S
C238 C237 1.376 . S
C238 C239 1.389 . S
C238 H260 0.929 . S
C239 C235 1.397 . S
C239 C238 1.389 . S
C239 H261 0.931 . S
C240 C237 1.481 1_565 S
C240 C241 1.387 . S
C240 C245 1.390 . S
C241 C240 1.387 . S
C241 C242 1.403 . S
C241 H262 0.930 . S
C242 C241 1.403 . S
C242 C243 1.377 . S
C242 C251 1.511 . S
C243 C242 1.377 . S
C243 C244 1.392 1_565 S
C243 H264 0.931 . S
C244 C243 1.392 1_545 S
C244 C245 1.361 1_545 S
C244 C246 1.499 . S
C245 C240 1.390 . S
C245 C244 1.361 1_565 S
C245 H263 0.931 1_565 S
C246 C244 1.499 . S
C246 C247 1.357 1_545 S
C246 C248 1.380 . S
C247 C246 1.357 1_565 S
C247 C257 1.386 . S
C247 H265 0.931 . S
C248 C246 1.380 . S
C248 C249 1.409 . S
C248 H266 0.929 . S
C249 C248 1.409 . S
C249 C250 1.386 1_554 S
C249 H267 0.930 . S
C250 C249 1.386 1_556 S
C250 C257 1.351 1_546 S
C251 C242 1.511 . S
C251 C252 1.341 . S
C251 C253 1.371 1_565 S
C252 C251 1.341 . S
C252 C256 1.394 . S
C252 H268 0.930 . S
C253 C251 1.371 1_545 S
C253 C254 1.392 . S
C253 H269 0.931 . S
C254 C253 1.392 . S
C254 C255 1.320 1_545 S
C254 H272 0.932 . S
C255 C254 1.320 1_565 S
C255 C256 1.349 . S
C256 C252 1.394 . S
C256 C255 1.349 . S
C256 H271 0.929 . S
C257 C247 1.386 . S
C257 C250 1.351 1_564 S
C257 H270 0.928 1_554 S
H258 C234 0.931 . S
H259 C236 0.930 . S
H260 C238 0.929 . S
H261 C239 0.931 . S
H262 C241 0.930 . S
H263 C245 0.931 1_545 S
H264 C243 0.931 . S
H265 C247 0.931 . S
H266 C248 0.929 . S
H267 C249 0.930 . S
H268 C252 0.930 . S
H269 C253 0.931 . S
H270 C257 0.928 1_556 S
H271 C256 0.929 . S
H272 C254 0.932 . S
C273 C274 1.386 . S
C273 C275 1.397 1_556 S
C273 H297 0.931 . S
C274 C273 1.386 . S
C274 C278 1.397 1_556 S
C275 C273 1.397 1_554 S
C275 C276 1.384 . S
C275 H298 0.930 . S
C276 C275 1.384 . S
C276 C277 1.377 . S
C276 C279 1.481 . S
C277 C276 1.377 . S
C277 C278 1.389 . S
C277 H299 0.929 . S
C278 C274 1.397 1_554 S
C278 C277 1.389 . S
C278 H300 0.931 1_554 S
C279 C276 1.481 . S
C279 C280 1.387 . S
C279 C284 1.390 . S
C280 C279 1.387 . S
C280 C281 1.401 . S
C280 H301 0.930 . S
C281 C280 1.401 . S
C281 C282 1.376 . S
C281 C290 1.511 . S
C282 C281 1.376 . S
C282 C283 1.392 . S
C282 H303 0.931 . S
C283 C282 1.392 . S
C283 C284 1.361 . S
C283 C285 1.500 . S
C284 C279 1.390 . S
C284 C283 1.361 . S
C284 H302 0.931 . S
C285 C283 1.500 . S
C285 C286 1.371 . S
C285 C287 1.365 . S
C286 C285 1.371 . S
C286 C296 1.386 . S
C286 H304 0.931 . S
C287 C285 1.365 . S
C287 C288 1.409 . S
C287 H305 0.929 . S
C288 C287 1.409 . S
C288 C289 1.380 . S
C288 H306 0.930 . S
C289 C288 1.380 . S
C289 C296 1.357 . S
C290 C281 1.511 . S
C290 C291 1.341 . S
C290 C292 1.371 . S
C291 C290 1.341 . S
C291 C295 1.394 . S
C291 H307 0.930 . S
C292 C290 1.371 . S
C292 C293 1.392 . S
C292 H308 0.931 . S
C293 C292 1.392 . S
C293 C294 1.331 . S
C293 H311 0.932 . S
C294 C293 1.331 . S
C294 C295 1.336 . S
C295 C291 1.394 . S
C295 C294 1.336 . S
C295 H310 0.929 . S
C296 C286 1.386 . S
C296 C289 1.357 . S
C296 H309 0.928 . S
H297 C273 0.931 . S
H298 C275 0.930 . S
H299 C277 0.929 . S
H300 C278 0.931 1_556 S
H301 C280 0.930 . S
H302 C284 0.931 . S
H303 C282 0.931 . S
H304 C286 0.931 . S
H305 C287 0.929 . S
H306 C288 0.930 . S
H307 C291 0.930 . S
H308 C292 0.931 . S
H309 C296 0.928 . S
H310 C295 0.929 . S
H311 C293 0.932 . S
O312 Zn313 1.953 . S
O312 C328 1.233 . S
Zn313 O312 1.953 . S
Zn313 O314 1.950 . S
Zn313 O320 1.919 1_565 S
Zn313 O325 1.924 . S
O314 Zn313 1.950 . S
O314 Zn315 1.900 1_565 S
O314 Zn316 1.953 . S
O314 Zn317 1.964 . S
Zn315 O314 1.900 1_545 S
Zn315 O318 1.933 1_455 S
Zn315 O321 1.941 . S
Zn315 O322 1.965 . S
Zn316 O314 1.953 . S
Zn316 O323 1.938 1_565 S
Zn316 O324 1.906 . S
Zn316 O334 1.953 . S
Zn317 O314 1.964 . S
Zn317 O319 1.932 1_455 S
Zn317 O326 1.977 1_455 S
Zn317 O327 1.910 . S
O318 Zn315 1.933 1_655 S
O318 C329 1.226 . S
O319 Zn317 1.932 1_655 S
O319 C329 1.307 1_565 S
O320 Zn313 1.919 1_545 S
O320 C331 1.253 . S
O321 Zn315 1.941 . S
O321 C331 1.283 . S
O322 Zn315 1.965 . S
O322 C330 1.303 . S
O323 Zn316 1.938 1_545 S
O323 C330 1.247 . S
O324 Zn316 1.906 . S
O324 C332 1.304 . S
O325 Zn313 1.924 . S
O325 C333 1.311 . S
O326 Zn317 1.977 1_655 S
O326 C332 1.272 1_655 S
O327 Zn317 1.910 . S
O327 C333 1.231 . S
C328 O312 1.233 . S
C328 O334 1.298 . S
C329 O318 1.226 . S
C329 O319 1.307 1_545 S
C330 O322 1.303 . S
C330 O323 1.247 . S
C331 O320 1.253 . S
C331 O321 1.283 . S
C332 O324 1.304 . S
C332 O326 1.272 1_455 S
C333 O325 1.311 . S
C333 O327 1.231 . S
O334 Zn316 1.953 . S
O334 C328 1.298 . S
O335 Zn336 1.953 . S
O335 C351 1.225 . S
Zn336 O335 1.953 . S
Zn336 O337 1.949 . S
Zn336 O343 1.919 . S
Zn336 O348 1.924 . S
O337 Zn336 1.949 . S
O337 Zn338 1.923 1_545 S
O337 Zn339 1.950 . S
O337 Zn340 1.945 1_545 S
Zn338 O337 1.923 1_565 S
Zn338 O341 1.933 . S
Zn338 O344 1.941 . S
Zn338 O345 1.965 . S
Zn339 O337 1.950 . S
Zn339 O346 1.938 . S
Zn339 O347 1.906 1_545 S
Zn339 O357 1.953 . S
Zn340 O337 1.945 1_565 S
Zn340 O342 1.932 . S
Zn340 O349 1.977 . S
Zn340 O350 1.910 1_565 S
O341 Zn338 1.933 . S
O341 C352 1.226 . S
O342 Zn340 1.932 . S
O342 C352 1.307 . S
O343 Zn336 1.919 . S
O343 C354 1.253 . S
O344 Zn338 1.941 . S
O344 C354 1.283 1_565 S
O345 Zn338 1.965 . S
O345 C353 1.303 . S
O346 Zn339 1.938 . S
O346 C353 1.247 1_545 S
O347 Zn339 1.906 1_565 S
O347 C355 1.304 . S
O348 Zn336 1.924 . S
O348 C356 1.311 . S
O349 Zn340 1.977 . S
O349 C355 1.272 . S
O350 Zn340 1.910 1_545 S
O350 C356 1.231 . S
C351 O335 1.225 . S
C351 O357 1.298 . S
C352 O341 1.226 . S
C352 O342 1.307 . S
C353 O345 1.303 . S
C353 O346 1.247 1_565 S
C354 O343 1.253 . S
C354 O344 1.283 1_545 S
C355 O347 1.304 . S
C355 O349 1.272 . S
C356 O348 1.311 . S
C356 O350 1.231 . S
O357 Zn339 1.953 . S
O357 C351 1.298 . S
O358 Zn359 1.953 . S
O358 C374 1.225 . S
Zn359 O358 1.953 . S
Zn359 O360 1.949 . S
Zn359 O366 1.919 . S
Zn359 O371 1.924 . S
O360 Zn359 1.949 . S
O360 Zn361 1.923 . S
O360 Zn362 1.950 . S
O360 Zn363 1.945 . S
Zn361 O360 1.923 . S
Zn361 O364 1.933 . S
Zn361 O367 1.941 . S
Zn361 O368 1.965 . S
Zn362 O360 1.950 . S
Zn362 O369 1.938 . S
Zn362 O370 1.906 . S
Zn362 O380 1.953 . S
Zn363 O360 1.945 . S
Zn363 O365 1.932 . S
Zn363 O372 1.977 . S
Zn363 O373 1.910 . S
O364 Zn361 1.933 . S
O364 C375 1.226 . S
O365 Zn363 1.932 . S
O365 C375 1.307 . S
O366 Zn359 1.919 . S
O366 C377 1.253 . S
O367 Zn361 1.941 . S
O367 C377 1.283 . S
O368 Zn361 1.965 . S
O368 C376 1.303 . S
O369 Zn362 1.938 . S
O369 C376 1.247 . S
O370 Zn362 1.906 . S
O370 C378 1.304 . S
O371 Zn359 1.924 . S
O371 C379 1.311 . S
O372 Zn363 1.977 . S
O372 C378 1.272 . S
O373 Zn363 1.910 . S
O373 C379 1.231 . S
C374 O358 1.225 . S
C374 O380 1.298 . S
C375 O364 1.226 . S
C375 O365 1.307 . S
C376 O368 1.303 . S
C376 O369 1.247 . S
C377 O366 1.253 . S
C377 O367 1.283 . S
C378 O370 1.304 . S
C378 O372 1.272 . S
C379 O371 1.311 . S
C379 O373 1.231 . S
O380 Zn362 1.953 . S
O380 C374 1.298 . S
O381 Zn382 1.953 1_655 S
O381 C397 1.225 . S
Zn382 O381 1.953 1_455 S
Zn382 O383 1.949 . S
Zn382 O389 1.919 . S
Zn382 O394 1.924 . S
O383 Zn382 1.949 . S
O383 Zn384 1.923 . S
O383 Zn385 1.950 1_455 S
O383 Zn386 1.945 . S
Zn384 O383 1.923 . S
Zn384 O387 1.933 . S
Zn384 O390 1.938 1_455 S
Zn384 O391 1.965 1_455 S
Zn385 O383 1.950 1_655 S
Zn385 O392 1.938 . S
Zn385 O393 1.906 1_655 S
Zn385 O403 1.953 . S
Zn386 O383 1.945 . S
Zn386 O388 1.932 . S
Zn386 O395 1.977 . S
Zn386 O396 1.910 . S
O387 Zn384 1.933 . S
O387 C398 1.226 . S
O388 Zn386 1.932 . S
O388 C398 1.307 . S
O389 Zn382 1.919 . S
O389 C400 1.253 . S
O390 Zn384 1.938 1_655 S
O390 C400 1.280 1_655 S
O391 Zn384 1.965 1_655 S
O391 C399 1.303 . S
O392 Zn385 1.938 . S
O392 C399 1.247 . S
O393 Zn385 1.906 1_455 S
O393 C401 1.304 . S
O394 Zn382 1.924 . S
O394 C402 1.311 . S
O395 Zn386 1.977 . S
O395 C401 1.272 . S
O396 Zn386 1.910 . S
O396 C402 1.231 . S
C397 O381 1.225 . S
C397 O403 1.298 . S
C398 O387 1.226 . S
C398 O388 1.307 . S
C399 O391 1.303 . S
C399 O392 1.247 . S
C400 O389 1.253 . S
C400 O390 1.280 1_455 S
C401 O393 1.304 . S
C401 O395 1.272 . S
C402 O394 1.311 . S
C402 O396 1.231 . S
O403 Zn385 1.953 . S
O403 C397 1.298 . S
C404 C405 1.369 1_545 S
C404 C406 1.419 . S
C404 H408 0.930 . S
C405 C404 1.369 1_565 S
C405 C414 1.429 . S
C406 C404 1.419 . S
C406 C407 1.363 1_545 S
C406 H409 0.929 . S
C407 C406 1.363 1_565 S
C407 C413 1.428 . S
H408 C404 0.930 . S
H409 C406 0.929 . S
S410 N411 1.613 . S
S410 N412 1.610 . S
N411 S410 1.613 . S
N411 C414 1.350 . S
N412 S410 1.610 . S
N412 C413 1.351 . S
C413 C407 1.428 . S
C413 N412 1.351 . S
C413 C414 1.434 . S
C414 C405 1.429 . S
C414 N411 1.350 . S
C414 C413 1.434 . S
C415 C416 1.369 . S
C415 C417 1.419 . S
C415 H419 0.930 . S
C416 C415 1.369 . S
C416 C425 1.429 . S
C417 C415 1.419 . S
C417 C418 1.363 . S
C417 H420 0.929 . S
C418 C417 1.363 . S
C418 C424 1.428 . S
H419 C415 0.930 . S
H420 C417 0.929 . S
S421 N422 1.613 . S
S421 N423 1.610 . S
N422 S421 1.613 . S
N422 C425 1.350 . S
N423 S421 1.610 . S
N423 C424 1.351 . S
C424 C418 1.428 . S
C424 N423 1.351 . S
C424 C425 1.434 . S
C425 C416 1.429 . S
C425 N422 1.350 . S
C425 C424 1.434 . S
C426 C427 1.369 . S
C426 C428 1.419 . S
C426 H430 0.930 . S
C427 C426 1.369 . S
C427 C436 1.429 . S
C428 C426 1.419 . S
C428 C429 1.363 . S
C428 H431 0.929 . S
C429 C428 1.363 . S
C429 C435 1.428 . S
H430 C426 0.930 . S
H431 C428 0.929 . S
S432 N433 1.613 . S
S432 N434 1.610 . S
N433 S432 1.613 . S
N433 C436 1.350 . S
N434 S432 1.610 . S
N434 C435 1.351 . S
C435 C429 1.428 . S
C435 N434 1.351 . S
C435 C436 1.434 . S
C436 C427 1.429 . S
C436 N433 1.350 . S
C436 C435 1.434 . S
C437 C438 1.369 . S
C437 C439 1.419 . S
C437 H441 0.930 . S
C438 C437 1.369 . S
C438 C447 1.429 . S
C439 C437 1.419 . S
C439 C440 1.363 . S
C439 H442 0.929 . S
C440 C439 1.363 . S
C440 C446 1.428 . S
H441 C437 0.930 . S
H442 C439 0.929 . S
S443 N444 1.613 . S
S443 N445 1.610 . S
N444 S443 1.613 . S
N444 C447 1.350 . S
N445 S443 1.610 . S
N445 C446 1.351 . S
C446 C440 1.428 . S
C446 N445 1.351 . S
C446 C447 1.434 . S
C447 C438 1.429 . S
C447 N444 1.350 . S
C447 C446 1.434 . S
C448 C449 1.369 1_565 S
C448 C450 1.419 . S
C448 H452 0.930 . S
C449 C448 1.369 1_545 S
C449 C458 1.429 . S
C450 C448 1.419 . S
C450 C451 1.363 1_565 S
C450 H453 0.929 . S
C451 C450 1.363 1_545 S
C451 C457 1.428 . S
H452 C448 0.930 . S
H453 C450 0.929 . S
S454 N455 1.613 . S
S454 N456 1.610 . S
N455 S454 1.613 . S
N455 C458 1.350 . S
N456 S454 1.610 . S
N456 C457 1.351 . S
C457 C451 1.428 . S
C457 N456 1.351 . S
C457 C458 1.434 . S
C458 C449 1.429 . S
C458 N455 1.350 . S
C458 C457 1.434 . S
C459 C460 1.369 . S
C459 C461 1.419 . S
C459 H463 0.930 . S
C460 C459 1.369 . S
C460 C469 1.429 . S
C461 C459 1.419 . S
C461 C462 1.363 . S
C461 H464 0.929 . S
C462 C461 1.363 . S
C462 C468 1.428 . S
H463 C459 0.930 . S
H464 C461 0.929 . S
S465 N466 1.613 . S
S465 N467 1.610 . S
N466 S465 1.613 . S
N466 C469 1.350 . S
N467 S465 1.610 . S
N467 C468 1.351 . S
C468 C462 1.428 . S
C468 N467 1.351 . S
C468 C469 1.434 . S
C469 C460 1.429 . S
C469 N466 1.350 . S
C469 C468 1.434 . S
C470 C471 1.369 . S
C470 C472 1.419 . S
C470 H474 0.930 . S
C471 C470 1.369 . S
C471 C480 1.429 . S
C472 C470 1.419 . S
C472 C473 1.363 . S
C472 H475 0.929 . S
C473 C472 1.363 . S
C473 C479 1.428 . S
H474 C470 0.930 . S
H475 C472 0.929 . S
S476 N477 1.613 . S
S476 N478 1.610 . S
N477 S476 1.613 . S
N477 C480 1.350 . S
N478 S476 1.610 . S
N478 C479 1.351 . S
C479 C473 1.428 . S
C479 N478 1.351 . S
C479 C480 1.434 . S
C480 C471 1.429 . S
C480 N477 1.350 . S
C480 C479 1.434 . S
C481 C482 1.369 1_455 S
C481 C483 1.419 . S
C481 H485 0.930 . S
C482 C481 1.369 1_655 S
C482 C491 1.429 . S
C483 C481 1.419 . S
C483 C484 1.363 . S
C483 H486 0.929 . S
C484 C483 1.363 . S
C484 C490 1.428 1_455 S
H485 C481 0.930 . S
H486 C483 0.929 . S
S487 N488 1.613 . S
S487 N489 1.610 . S
N488 S487 1.613 . S
N488 C491 1.350 . S
N489 S487 1.610 . S
N489 C490 1.351 . S
C490 C484 1.428 1_655 S
C490 N489 1.351 . S
C490 C491 1.434 . S
C491 C482 1.429 . S
C491 N488 1.350 . S
C491 C490 1.434 . S
C492 C493 1.369 . S
C492 C494 1.419 . S
C492 H496 0.930 . S
C493 C492 1.369 . S
C493 C502 1.429 . S
C494 C492 1.419 . S
C494 C495 1.363 . S
C494 H497 0.929 . S
C495 C494 1.363 . S
C495 C501 1.428 . S
H496 C492 0.930 . S
H497 C494 0.929 . S
S498 N499 1.613 . S
S498 N500 1.610 . S
N499 S498 1.613 . S
N499 C502 1.350 . S
N500 S498 1.610 . S
N500 C501 1.351 . S
C501 C495 1.428 . S
C501 N500 1.351 . S
C501 C502 1.434 . S
C502 C493 1.429 . S
C502 N499 1.350 . S
C502 C501 1.434 . S
C503 C504 1.392 . S
C503 C505 1.419 . S
C503 H507 0.930 . S
C504 C503 1.392 . S
C504 C513 1.402 1_545 S
C505 C503 1.419 . S
C505 C506 1.363 1_545 S
C505 H508 0.929 . S
C506 C505 1.363 1_565 S
C506 C512 1.428 . S
H507 C503 0.930 . S
H508 C505 0.929 . S
S509 N510 1.613 . S
S509 N511 1.610 . S
N510 S509 1.613 . S
N510 C513 1.350 . S
N511 S509 1.610 . S
N511 C512 1.351 . S
C512 C506 1.428 . S
C512 N511 1.351 . S
C512 C513 1.434 . S
C513 C504 1.402 1_565 S
C513 N510 1.350 . S
C513 C512 1.434 . S
C514 C515 1.369 . S
C514 C516 1.419 . S
C514 H518 0.930 . S
C515 C514 1.369 . S
C515 C524 1.429 . S
C516 C514 1.419 . S
C516 C517 1.363 . S
C516 H519 0.929 . S
C517 C516 1.363 . S
C517 C523 1.428 . S
H518 C514 0.930 . S
H519 C516 0.929 . S
S520 N521 1.613 . S
S520 N522 1.610 . S
N521 S520 1.613 . S
N521 C524 1.350 . S
N522 S520 1.610 . S
N522 C523 1.351 . S
C523 C517 1.428 . S
C523 N522 1.351 . S
C523 C524 1.434 . S
C524 C515 1.429 . S
C524 N521 1.350 . S
C524 C523 1.434 . S
C525 C526 1.369 . S
C525 C527 1.419 . S
C525 H529 0.930 . S
C526 C525 1.369 . S
C526 C535 1.429 . S
C527 C525 1.419 . S
C527 C528 1.363 . S
C527 H530 0.929 . S
C528 C527 1.363 . S
C528 C534 1.428 . S
H529 C525 0.930 . S
H530 C527 0.929 . S
S531 N532 1.613 . S
S531 N533 1.610 . S
N532 S531 1.613 . S
N532 C535 1.350 . S
N533 S531 1.610 . S
N533 C534 1.351 . S
C534 C528 1.428 . S
C534 N533 1.351 . S
C534 C535 1.434 . S
C535 C526 1.429 . S
C535 N532 1.350 . S
C535 C534 1.434 . S
C536 C537 1.367 1_655 S
C536 C538 1.419 1_655 S
C536 H540 0.930 . S
C537 C536 1.367 1_455 S
C537 C546 1.447 . S
C538 C536 1.419 1_455 S
C538 C539 1.363 . S
C538 H541 0.929 . S
C539 C538 1.363 . S
C539 C545 1.428 . S
H540 C536 0.930 . S
H541 C538 0.929 . S
S542 N543 1.613 . S
S542 N544 1.610 . S
N543 S542 1.613 . S
N543 C546 1.350 . S
N544 S542 1.610 . S
N544 C545 1.351 . S
C545 C539 1.428 . S
C545 N544 1.351 . S
C545 C546 1.434 . S
C546 C537 1.447 . S
C546 N543 1.350 . S
C546 C545 1.434 . S
C547 C548 1.360 1_565 S
C547 C549 1.419 1_565 S
C547 H551 0.930 . S
C548 C547 1.360 1_545 S
C548 C557 1.462 . S
C549 C547 1.419 1_545 S
C549 C550 1.363 . S
C549 H552 0.929 . S
C550 C549 1.363 . S
C550 C556 1.428 . S
H551 C547 0.930 . S
H552 C549 0.929 . S
S553 N554 1.613 . S
S553 N555 1.610 . S
N554 S553 1.613 . S
N554 C557 1.350 . S
N555 S553 1.610 . S
N555 C556 1.351 . S
C556 C550 1.428 . S
C556 N555 1.351 . S
C556 C557 1.434 . S
C557 C548 1.462 . S
C557 N554 1.350 . S
C557 C556 1.434 . S
C558 C559 1.369 . S
C558 C560 1.419 . S
C558 H562 0.930 . S
C559 C558 1.369 . S
C559 C568 1.429 . S
C560 C558 1.419 . S
C560 C561 1.363 . S
C560 H563 0.929 . S
C561 C560 1.363 . S
C561 C567 1.428 . S
H562 C558 0.930 . S
H563 C560 0.929 . S
S564 N565 1.613 . S
S564 N566 1.610 . S
N565 S564 1.613 . S
N565 C568 1.350 . S
N566 S564 1.610 . S
N566 C567 1.351 . S
C567 C561 1.428 . S
C567 N566 1.351 . S
C567 C568 1.434 . S
C568 C559 1.429 . S
C568 N565 1.350 . S
C568 C567 1.434 . S
C569 C570 1.369 . S
C569 C571 1.419 . S
C569 H573 0.930 . S
C570 C569 1.369 . S
C570 C579 1.429 . S
C571 C569 1.419 . S
C571 C572 1.363 . S
C571 H574 0.929 . S
C572 C571 1.363 . S
C572 C578 1.428 . S
H573 C569 0.930 . S
H574 C571 0.929 . S
S575 N576 1.613 . S
S575 N577 1.610 . S
N576 S575 1.613 . S
N576 C579 1.350 . S
N577 S575 1.610 . S
N577 C578 1.351 . S
C578 C572 1.428 . S
C578 N577 1.351 . S
C578 C579 1.434 . S
C579 C570 1.429 . S
C579 N576 1.350 . S
C579 C578 1.434 . S
C580 C581 1.369 1_554 S
C580 C582 1.419 1_554 S
C580 H584 0.930 . S
C581 C580 1.369 1_556 S
C581 C590 1.429 . S
C582 C580 1.419 1_556 S
C582 C583 1.363 . S
C582 H585 0.929 1_556 S
C583 C582 1.363 . S
C583 C589 1.428 . S
H584 C580 0.930 . S
H585 C582 0.929 1_554 S
S586 N587 1.613 . S
S586 N588 1.610 . S
N587 S586 1.613 . S
N587 C590 1.350 . S
N588 S586 1.610 . S
N588 C589 1.351 . S
C589 C583 1.428 . S
C589 N588 1.351 . S
C589 C590 1.434 . S
C590 C581 1.429 . S
C590 N587 1.350 . S
C590 C589 1.434 . S
C591 C592 1.370 1_545 S
C591 C593 1.419 . S
C591 H595 0.930 . S
C592 C591 1.370 1_565 S
C592 C601 1.427 . S
C593 C591 1.419 . S
C593 C594 1.356 1_545 S
C593 H596 0.929 . S
C594 C593 1.356 1_565 S
C594 C600 1.434 . S
H595 C591 0.930 . S
H596 C593 0.929 . S
S597 N598 1.613 . S
S597 N599 1.610 . S
N598 S597 1.613 . S
N598 C601 1.350 1_554 S
N599 S597 1.610 . S
N599 C600 1.351 1_554 S
C600 C594 1.434 . S
C600 N599 1.351 1_556 S
C600 C601 1.434 . S
C601 C592 1.427 . S
C601 N598 1.350 1_556 S
C601 C600 1.434 . S
C602 C603 1.369 . S
C602 C604 1.419 . S
C602 H606 0.930 . S
C603 C602 1.369 . S
C603 C612 1.429 . S
C604 C602 1.419 . S
C604 C605 1.363 . S
C604 H607 0.929 . S
C605 C604 1.363 . S
C605 C611 1.428 . S
H606 C602 0.930 . S
H607 C604 0.929 . S
S608 N609 1.613 . S
S608 N610 1.610 . S
N609 S608 1.613 . S
N609 C612 1.350 . S
N610 S608 1.610 . S
N610 C611 1.351 . S
C611 C605 1.428 . S
C611 N610 1.351 . S
C611 C612 1.434 . S
C612 C603 1.429 . S
C612 N609 1.350 . S
C612 C611 1.434 . S
C613 C614 1.369 . S
C613 C615 1.419 . S
C613 H617 0.930 . S
C614 C613 1.369 . S
C614 C623 1.429 . S
C615 C613 1.419 . S
C615 C616 1.363 . S
C615 H618 0.929 . S
C616 C615 1.363 . S
C616 C622 1.428 . S
H617 C613 0.930 . S
H618 C615 0.929 . S
S619 N620 1.613 . S
S619 N621 1.610 . S
N620 S619 1.613 . S
N620 C623 1.350 . S
N621 S619 1.610 . S
N621 C622 1.351 . S
C622 C616 1.428 . S
C622 N621 1.351 . S
C622 C623 1.434 . S
C623 C614 1.429 . S
C623 N620 1.350 . S
C623 C622 1.434 . S
C624 C625 1.369 . S
C624 C626 1.419 . S
C624 H628 0.925 1_655 S
C625 C624 1.369 . S
C625 C634 1.429 . S
C626 C624 1.419 . S
C626 C627 1.363 . S
C626 H629 0.928 1_655 S
C627 C626 1.363 . S
C627 C633 1.428 . S
H628 C624 0.925 1_455 S
H629 C626 0.928 1_455 S
S630 N631 1.613 . S
S630 N632 1.610 . S
N631 S630 1.613 . S
N631 C634 1.350 . S
N632 S630 1.610 . S
N632 C633 1.351 . S
C633 C627 1.428 . S
C633 N632 1.351 . S
C633 C634 1.434 . S
C634 C625 1.429 . S
C634 N631 1.350 . S
C634 C633 1.434 . S
C635 C636 1.369 . S
C635 C637 1.419 . S
C635 H639 0.930 . S
C636 C635 1.369 . S
C636 C645 1.429 . S
C637 C635 1.419 . S
C637 C638 1.363 . S
C637 H640 0.929 . S
C638 C637 1.363 . S
C638 C644 1.428 . S
H639 C635 0.930 . S
H640 C637 0.929 . S
S641 N642 1.613 . S
S641 N643 1.610 . S
N642 S641 1.613 . S
N642 C645 1.350 . S
N643 S641 1.610 . S
N643 C644 1.351 . S
C644 C638 1.428 . S
C644 N643 1.351 . S
C644 C645 1.434 . S
C645 C636 1.429 . S
C645 N642 1.350 . S
C645 C644 1.434 . S
C646 C647 1.369 . S
C646 C648 1.419 . S
C646 H650 0.930 . S
C647 C646 1.369 . S
C647 C656 1.429 . S
C648 C646 1.419 . S
C648 C649 1.363 . S
C648 H651 0.929 . S
C649 C648 1.363 . S
C649 C655 1.428 . S
H650 C646 0.930 . S
H651 C648 0.929 . S
S652 N653 1.613 . S
S652 N654 1.610 . S
N653 S652 1.613 . S
N653 C656 1.350 . S
N654 S652 1.610 . S
N654 C655 1.351 . S
C655 C649 1.428 . S
C655 N654 1.351 . S
C655 C656 1.434 . S
C656 C647 1.429 . S
C656 N653 1.350 . S
C656 C655 1.434 . S
C657 C658 1.369 . S
C657 C659 1.419 . S
C657 H661 0.930 . S
C658 C657 1.369 . S
C658 C667 1.429 . S
C659 C657 1.419 . S
C659 C660 1.363 . S
C659 H662 0.929 . S
C660 C659 1.363 . S
C660 C666 1.428 . S
H661 C657 0.930 . S
H662 C659 0.929 . S
S663 N664 1.613 . S
S663 N665 1.610 . S
N664 S663 1.613 . S
N664 C667 1.350 . S
N665 S663 1.610 . S
N665 C666 1.351 . S
C666 C660 1.428 . S
C666 N665 1.351 . S
C666 C667 1.434 . S
C667 C658 1.429 . S
C667 N664 1.350 . S
C667 C666 1.434 . S
C405 C255 1.839 . S
C407 C328 1.843 . S
C418 C351 2.019 . S
C416 C294 1.996 . S
C429 C374 1.865 . S
C427 C177 1.856 . S
C440 C401 1.737 . S
C438 C216 1.846 . S
C451 C329 1.715 . S
C449 C99 1.693 1_545 S
C460 C138 1.740 . S
C462 C352 1.809 . S
C471 C21 1.629 . S
C473 C375 1.655 . S
C482 C60 1.838 1_556 S
C484 C400 1.855 . S
C495 C330 0.832 . S
C493 C196 0.767 . S
C506 C353 0.406 . S
C504 C235 0.575 . S
C517 C376 0.608 . S
C515 C289 0.692 . S
C526 C157 0.704 . S
C528 C402 0.717 . S
C537 C40 0.824 1_455 S
C539 C333 0.813 . S
C550 C356 0.770 . S
C548 C79 0.753 1_545 S
C561 C379 0.839 . S
C559 C133 0.931 . S
C570 C1 0.467 . S
C572 C399 0.364 . S
C581 C211 2.014 1_556 S
C583 C331 2.021 . S
C592 C250 1.937 1_565 S
C594 C354 1.999 1_565 S
C605 C377 2.052 . S
C603 C274 1.985 . S
C616 C398 1.883 . S
C614 C172 1.741 . S
C625 C55 2.074 . S
C627 C332 2.071 1_655 S
C638 C355 1.913 . S
C636 C94 1.930 1_565 S
C649 C378 1.928 . S
C647 C118 1.949 . S
C658 C16 2.037 . S
C660 C397 2.167 . S
