# Generated by pormake.
# Topology zzz, (3,6)-cn, num edge types: 1
# Building blocks:
#     Node 0, Type 0, BuildingBlock: BELTOD_clean_linker_0, # of connection points: 3
#     Node 1, Type 0, BuildingBlock: BELTOD_clean_linker_0, # of connection points: 3
#     Node 2, Type 0, BuildingBlock: BELTOD_clean_linker_0, # of connection points: 3
#     Node 3, Type 0, BuildingBlock: BELTOD_clean_linker_0, # of connection points: 3
#     Node 4, Type 0, BuildingBlock: BELTOD_clean_linker_0, # of connection points: 3
#     Node 5, Type 0, BuildingBlock: BELTOD_clean_linker_0, # of connection points: 3
#     Node 6, Type 0, BuildingBlock: BELTOD_clean_linker_0, # of connection points: 3
#     Node 7, Type 0, BuildingBlock: BELTOD_clean_linker_0, # of connection points: 3
#     Node 8, Type 1, BuildingBlock: MIFKUJ_clean_sbu_0, # of connection points: 6
#     Node 9, Type 1, BuildingBlock: MIFKUJ_clean_sbu_0, # of connection points: 6
#     Node 10, Type 1, BuildingBlock: MIFKUJ_clean_sbu_0, # of connection points: 6
#     Node 11, Type 1, BuildingBlock: MIFKUJ_clean_sbu_0, # of connection points: 6
#     Edge 12, Type (0, 1), BuildingBlock: XUDNAN_clean_linker_2, # of connection points: 2
#     Edge 13, Type (0, 1), BuildingBlock: XUDNAN_clean_linker_2, # of connection points: 2
#     Edge 14, Type (0, 1), BuildingBlock: XUDNAN_clean_linker_2, # of connection points: 2
#     Edge 15, Type (0, 1), BuildingBlock: XUDNAN_clean_linker_2, # of connection points: 2
#     Edge 16, Type (0, 1), BuildingBlock: XUDNAN_clean_linker_2, # of connection points: 2
#     Edge 17, Type (0, 1), BuildingBlock: XUDNAN_clean_linker_2, # of connection points: 2
#     Edge 18, Type (0, 1), BuildingBlock: XUDNAN_clean_linker_2, # of connection points: 2
#     Edge 19, Type (0, 1), BuildingBlock: XUDNAN_clean_linker_2, # of connection points: 2
#     Edge 20, Type (0, 1), BuildingBlock: XUDNAN_clean_linker_2, # of connection points: 2
#     Edge 21, Type (0, 1), BuildingBlock: XUDNAN_clean_linker_2, # of connection points: 2
#     Edge 22, Type (0, 1), BuildingBlock: XUDNAN_clean_linker_2, # of connection points: 2
#     Edge 23, Type (0, 1), BuildingBlock: XUDNAN_clean_linker_2, # of connection points: 2
#     Edge 24, Type (0, 1), BuildingBlock: XUDNAN_clean_linker_2, # of connection points: 2
#     Edge 25, Type (0, 1), BuildingBlock: XUDNAN_clean_linker_2, # of connection points: 2
#     Edge 26, Type (0, 1), BuildingBlock: XUDNAN_clean_linker_2, # of connection points: 2
#     Edge 27, Type (0, 1), BuildingBlock: XUDNAN_clean_linker_2, # of connection points: 2
#     Edge 28, Type (0, 1), BuildingBlock: XUDNAN_clean_linker_2, # of connection points: 2
#     Edge 29, Type (0, 1), BuildingBlock: XUDNAN_clean_linker_2, # of connection points: 2
#     Edge 30, Type (0, 1), BuildingBlock: XUDNAN_clean_linker_2, # of connection points: 2
#     Edge 31, Type (0, 1), BuildingBlock: XUDNAN_clean_linker_2, # of connection points: 2
#     Edge 32, Type (0, 1), BuildingBlock: XUDNAN_clean_linker_2, # of connection points: 2
#     Edge 33, Type (0, 1), BuildingBlock: XUDNAN_clean_linker_2, # of connection points: 2
#     Edge 34, Type (0, 1), BuildingBlock: XUDNAN_clean_linker_2, # of connection points: 2
#     Edge 35, Type (0, 1), BuildingBlock: XUDNAN_clean_linker_2, # of connection points: 2
# Relax obj value: 0.289
# Max RMSD: 0.197
# Mean RMSD: 0.181
data_MOF--net-zzz--node1-MIFKUJ_clean_sbu_0--node2-BELTOD_clean_linker_0--edge1-XUDNAN_clean_linker_2
_symmetry_space_group_name_H-M    P1
_symmetry_Int_Tables_number       1
_symmetry_cell_setting            triclinic
loop_
_symmetry_equiv_pos_as_xyz
'x, y, z'
_cell_length_a     52.92566
_cell_length_b     53.891343
_cell_length_c     19.699064
_cell_angle_alpha  89.078031
_cell_angle_beta   89.664608
_cell_angle_gamma 90.988048
loop_
_atom_site_label
_atom_site_type_symbol
_atom_site_fract_x
_atom_site_fract_y
_atom_site_fract_z
_atom_type_partial_charge
P0 P 0.72535 0.53733 0.13916 0.0
H1 H 0.74049 0.53883 0.28131 0.0
H2 H 0.77998 0.55331 0.32854 0.0
H3 H 0.79451 0.59758 0.14698 0.0
H4 H 0.7558 0.58127 0.09786 0.0
H5 H 0.67464 0.51703 0.12446 0.0
H6 H 0.64168 0.52553 0.04315 0.0
H7 H 0.68231 0.59172 0.97531 0.0
H8 H 0.71576 0.58266 0.05641 0.0
H9 H 0.77679 0.51966 0.14887 0.0
H10 H 0.72028 0.52629 0.99248 0.0
O11 O 0.71619 0.51419 0.19155 0.0
H12 H 0.80789 0.50808 0.06364 0.0
H13 H 0.75139 0.51421 0.90746 0.0
C14 C 0.745 0.55879 0.1857 0.0
C15 C 0.75155 0.55247 0.25255 0.0
C16 C 0.77441 0.56087 0.27977 0.0
C17 C 0.79105 0.57612 0.24089 0.0
C18 C 0.78263 0.58523 0.17768 0.0
C19 C 0.75996 0.57642 0.15002 0.0
C20 C 0.69774 0.54926 0.09725 0.0
C21 C 0.67615 0.5339 0.09403 0.0
C22 C 0.65715 0.53883 0.04716 0.0
C23 C 0.65936 0.55923 0.00199 0.0
C24 C 0.68017 0.57564 0.00864 0.0
C25 C 0.69925 0.57063 0.05572 0.0
C26 C 0.74636 0.52454 0.07703 0.0
C27 C 0.77096 0.51842 0.09642 0.0
C28 C 0.78874 0.51183 0.04779 0.0
C29 C 0.78203 0.51062 0.97914 0.0
C30 C 0.75697 0.51512 0.9602 0.0
C31 C 0.73923 0.52213 0.00886 0.0
P32 P 0.04856 0.73584 0.09296 0.0
H33 H 0.05714 0.74281 0.23814 0.0
H34 H 0.03782 0.77137 0.31731 0.0
H35 H 0.97937 0.78682 0.17114 0.0
H36 H 0.99835 0.7578 0.09316 0.0
H37 H 0.07578 0.69472 0.03727 0.0
H38 H 0.06206 0.65732 0.97947 0.0
H39 H 0.98419 0.67453 0.02229 0.0
H40 H 0.99821 0.71164 0.0827 0.0
H41 H 0.07437 0.78348 0.07046 0.0
H42 H 0.01861 0.73857 0.96799 0.0
O43 O 0.07838 0.73388 0.1194 0.0
H44 H 0.0647 0.81869 0.99504 0.0
H45 H 0.00875 0.77362 0.89387 0.0
C46 C 0.02948 0.74856 0.15928 0.0
C47 C 0.03966 0.75161 0.22409 0.0
C48 C 0.02867 0.76807 0.26916 0.0
C49 C 0.00745 0.78182 0.24969 0.0
C50 C 0.99569 0.77654 0.18771 0.0
C51 C 0.00662 0.75996 0.14288 0.0
C52 C 0.03806 0.70588 0.06458 0.0
C53 C 0.05579 0.69013 0.03598 0.0
C54 C 0.04788 0.66887 0.00227 0.0
C55 C 0.022 0.66322 0.99522 0.0
C56 C 0.00425 0.67834 0.02711 0.0
C57 C 0.01225 0.69958 0.06156 0.0
C58 C 0.04743 0.7583 0.02452 0.0
C59 C 0.06078 0.78088 0.03019 0.0
C60 C 0.05522 0.80099 0.98733 0.0
C61 C 0.0359 0.79878 0.93921 0.0
C62 C 0.02369 0.77572 0.93084 0.0
C63 C 0.02944 0.75562 0.97307 0.0
P64 P 0.77091 0.96565 0.1077 0.0
H65 H 0.785 0.97301 0.24927 0.0
H66 H 0.75549 0.97473 0.34438 0.0
H67 H 0.7016 0.93038 0.23333 0.0
H68 H 0.73177 0.92747 0.14038 0.0
H69 H 0.78662 0.97367 0.96923 0.0
H70 H 0.82557 0.9674 0.90895 0.0
H71 H 0.85617 0.93013 0.08539 0.0
H72 H 0.81612 0.93665 0.14663 0.0
H73 H 0.72648 0.99638 0.10619 0.0
H74 H 0.75474 0.93463 0.99332 0.0
O75 O 0.77793 0.99519 0.12497 0.0
H76 H 0.68954 0.99804 0.03205 0.0
H77 H 0.71832 0.93705 0.91709 0.0
C78 C 0.76009 0.95126 0.18625 0.0
C79 C 0.76753 0.9623 0.24699 0.0
C80 C 0.7504 0.96359 0.3011 0.0
C81 C 0.72563 0.95393 0.29471 0.0
C82 C 0.72027 0.93855 0.23946 0.0
C83 C 0.73766 0.9369 0.18591 0.0
C84 C 0.79795 0.95471 0.06169 0.0
C85 C 0.80114 0.96309 0.99441 0.0
C86 C 0.82367 0.95951 0.95967 0.0
C87 C 0.84405 0.9479 0.99167 0.0
C88 C 0.84079 0.93904 0.05906 0.0
C89 C 0.81788 0.94253 0.09397 0.0
C90 C 0.74386 0.9662 0.05304 0.0
C91 C 0.72485 0.98337 0.06505 0.0
C92 C 0.70368 0.98412 0.02338 0.0
C93 C 0.70142 0.96779 0.96898 0.0
C94 C 0.71993 0.94991 0.9586 0.0
C95 C 0.74081 0.94877 0.00145 0.0
P96 P 0.4391 0.77081 0.13581 0.0
H97 H 0.43138 0.76059 0.28034 0.0
H98 H 0.44756 0.72755 0.35254 0.0
H99 H 0.50414 0.71184 0.20128 0.0
H100 H 0.48809 0.74517 0.12922 0.0
H101 H 0.41419 0.81372 0.08124 0.0
H102 H 0.42594 0.84289 0.99083 0.0
H103 H 0.50211 0.81576 0.99283 0.0
H104 H 0.49036 0.78649 0.08537 0.0
H105 H 0.39502 0.73804 0.11365 0.0
H106 H 0.46828 0.75178 0.02233 0.0
O107 O 0.41205 0.77883 0.1729 0.0
H108 H 0.38777 0.70362 0.03643 0.0
H109 H 0.46222 0.71673 0.94946 0.0
C110 C 0.45823 0.75534 0.19861 0.0
C111 C 0.44787 0.75078 0.26341 0.0
C112 C 0.45698 0.73165 0.30459 0.0
C113 C 0.47667 0.71668 0.28176 0.0
C114 C 0.48887 0.723 0.22016 0.0
C115 C 0.47969 0.74219 0.17885 0.0
C116 C 0.45134 0.79779 0.0903 0.0
C117 C 0.43373 0.81461 0.06468 0.0
C118 C 0.44039 0.83122 0.01252 0.0
C119 C 0.46479 0.83127 0.98447 0.0
C120 C 0.48317 0.81605 0.01392 0.0
C121 C 0.47644 0.79933 0.06673 0.0
C122 C 0.4321 0.74768 0.07347 0.0
C123 C 0.40945 0.73384 0.07662 0.0
C124 C 0.40547 0.71395 0.03288 0.0
C125 C 0.42437 0.70722 0.98633 0.0
C126 C 0.44685 0.72154 0.98297 0.0
C127 C 0.45052 0.74163 0.02553 0.0
P128 P 0.25844 0.39458 0.12516 0.0
H129 H 0.25538 0.37996 0.9826 0.0
H130 H 0.23125 0.39657 0.88733 0.0
H131 H 0.21209 0.46027 0.00632 0.0
H132 H 0.23616 0.44342 0.10166 0.0
H133 H 0.29541 0.36808 0.20416 0.0
H134 H 0.32973 0.38253 0.2763 0.0
H135 H 0.32235 0.45665 0.19376 0.0
H136 H 0.28755 0.44206 0.12136 0.0
H137 H 0.20504 0.38101 0.13813 0.0
H138 H 0.26052 0.4212 0.25524 0.0
O139 O 0.25858 0.36413 0.111 0.0
H140 H 0.1717 0.39494 0.215 0.0
H141 H 0.22758 0.43482 0.33131 0.0
C142 C 0.24744 0.41034 0.0495 0.0
C143 C 0.24656 0.39781 0.98767 0.0
C144 C 0.23269 0.40735 0.9331 0.0
C145 C 0.21936 0.42958 0.93947 0.0
C146 C 0.22172 0.44288 0.00011 0.0
C147 C 0.23573 0.4334 0.05446 0.0
C148 C 0.28912 0.40387 0.1565 0.0
C149 C 0.30178 0.38723 0.19925 0.0
C150 C 0.32128 0.39554 0.24099 0.0
C151 C 0.32856 0.42071 0.24084 0.0
C152 C 0.31722 0.4371 0.19433 0.0
C153 C 0.29744 0.42876 0.15273 0.0
C154 C 0.23528 0.4001 0.19041 0.0
C155 C 0.21016 0.39221 0.18127 0.0
C156 C 0.19116 0.40009 0.22527 0.0
C157 C 0.19711 0.41609 0.27868 0.0
C158 C 0.22249 0.42266 0.2901 0.0
C159 C 0.24139 0.4148 0.24633 0.0
P160 P 0.05714 0.26266 0.10494 0.0
H161 H 0.07397 0.24667 0.97184 0.0
H162 H 0.05069 0.22419 0.88689 0.0
H163 H 0.9804 0.24727 0.9777 0.0
H164 H 0.00424 0.2681 0.06635 0.0
H165 H 0.068 0.27969 0.24159 0.0
H166 H 0.06068 0.31885 0.29924 0.0
H167 H 0.02651 0.3485 0.11751 0.0
H168 H 0.03331 0.30912 0.06054 0.0
H169 H 0.06183 0.211 0.07151 0.0
H170 H 0.03079 0.25224 0.23715 0.0
O171 O 0.08828 0.26229 0.09133 0.0
H172 H 0.04418 0.17315 0.11908 0.0
H173 H 0.01661 0.21397 0.2917 0.0
C174 C 0.04088 0.259 0.02567 0.0
C175 C 0.05357 0.24785 0.97188 0.0
C176 C 0.04004 0.23487 0.92286 0.0
C177 C 0.01347 0.23314 0.92617 0.0
C178 C 0.00083 0.24738 0.97478 0.0
C179 C 0.01445 0.25983 0.02486 0.0
C180 C 0.05015 0.29105 0.14783 0.0
C181 C 0.05832 0.29438 0.21471 0.0
C182 C 0.05427 0.31677 0.24748 0.0
C183 C 0.0428 0.33656 0.21298 0.0
C184 C 0.03528 0.33346 0.1453 0.0
C185 C 0.03895 0.31087 0.11297 0.0
C186 C 0.04799 0.23461 0.15075 0.0
C187 C 0.05189 0.21182 0.11958 0.0
C188 C 0.04195 0.18987 0.14788 0.0
C189 C 0.02886 0.18981 0.21042 0.0
C190 C 0.02588 0.21279 0.24288 0.0
C191 C 0.03473 0.23497 0.21246 0.0
P192 P 0.22814 0.11408 0.06503 0.0
H193 H 0.25082 0.1386 0.94523 0.0
H194 H 0.28451 0.12599 0.86925 0.0
H195 H 0.27964 0.05164 0.95443 0.0
H196 H 0.24514 0.06417 0.02798 0.0
H197 H 0.19162 0.13337 0.15679 0.0
H198 H 0.1579 0.11332 0.22037 0.0
H199 H 0.16071 0.05058 0.08602 0.0
H200 H 0.19629 0.07053 0.02536 0.0
H201 H 0.26792 0.13837 0.14547 0.0
H202 H 0.22795 0.0679 0.14354 0.0
O203 O 0.22819 0.14505 0.0608 0.0
H204 H 0.29351 0.12338 0.24057 0.0
H205 H 0.25352 0.05276 0.23578 0.0
C206 C 0.24535 0.10241 0.99283 0.0
C207 C 0.25633 0.11935 0.94603 0.0
C208 C 0.27601 0.11218 0.9032 0.0
C209 C 0.28544 0.08792 0.90668 0.0
C210 C 0.27301 0.07048 0.94993 0.0
C211 C 0.25312 0.07765 0.9923 0.0
C212 C 0.19646 0.10358 0.086 0.0
C213 C 0.18437 0.1157 0.13917 0.0
C214 C 0.16487 0.104 0.17599 0.0
C215 C 0.1565 0.07988 0.15983 0.0
C216 C 0.16702 0.06878 0.10178 0.0
C217 C 0.18706 0.08041 0.06571 0.0
C218 C 0.24584 0.10439 0.13795 0.0
C219 C 0.26444 0.11985 0.16591 0.0
C220 C 0.27907 0.11122 0.21999 0.0
C221 C 0.2754 0.08693 0.2461 0.0
C222 C 0.25644 0.07176 0.2183 0.0
C223 C 0.24187 0.0804 0.16483 0.0
P224 P 0.49394 0.24274 0.08274 0.0
H225 H 0.46228 0.27064 0.99101 0.0
H226 H 0.4736 0.30281 0.9088 0.0
H227 H 0.55092 0.27829 0.91067 0.0
H228 H 0.53931 0.2461 0.99493 0.0
H229 H 0.51049 0.22451 0.21375 0.0
H230 H 0.51686 0.18336 0.25878 0.0
H231 H 0.51076 0.15375 0.05659 0.0
H232 H 0.50333 0.19577 0.01171 0.0
H233 H 0.46967 0.27847 0.17137 0.0
H234 H 0.54543 0.25896 0.11335 0.0
O235 O 0.46274 0.24 0.09428 0.0
H236 H 0.48665 0.31184 0.24107 0.0
H237 H 0.56252 0.2928 0.18207 0.0
C238 C 0.49992 0.25585 -0.00066 0.0
C239 C 0.48145 0.27128 0.97148 0.0
C240 C 0.48803 0.28992 0.92427 0.0
C241 C 0.51333 0.29363 0.90397 0.0
C242 C 0.53134 0.27637 0.92639 0.0
C243 C 0.52468 0.25766 0.97385 0.0
C244 C 0.50698 0.21344 0.10888 0.0
C245 C 0.51148 0.20943 0.17827 0.0
C246 C 0.51518 0.1856 0.2043 0.0
C247 C 0.51432 0.16494 0.16169 0.0
C248 C 0.51123 0.16914 0.09125 0.0
C249 C 0.50732 0.19319 0.0652 0.0
C250 C 0.50631 0.26624 0.13753 0.0
C251 C 0.48994 0.28124 0.17401 0.0
C252 C 0.49967 0.30026 0.21382 0.0
C253 C 0.52589 0.30473 0.21695 0.0
C254 C 0.54226 0.28972 0.18019 0.0
C255 C 0.53251 0.27045 0.1411 0.0
Zn256 Zn 0.00404 0.0398 0.61219 0.0
Zn257 Zn 0.99835 0.98028 0.56183 0.0
C258 C 0.98556 0.07609 0.70334 0.0
O259 O 0.96967 0.05773 0.71767 0.0
C260 C 0.00343 0.94351 0.46813 0.0
O261 O 0.02664 0.94807 0.48842 0.0
O262 O 0.98186 0.04157 0.52954 0.0
O263 O 0.03803 0.03595 0.57002 0.0
O264 O 0.02768 0.00061 0.52008 0.0
C265 C 0.96839 0.06045 0.51798 0.0
O266 O 0.96012 0.07309 0.56975 0.0
O267 O 0.00272 0.07295 0.65892 0.0
C268 C 0.99332 0.94167 0.65243 0.0
O269 O 0.97118 0.94356 0.6232 0.0
O270 O 0.01116 0.9564 0.63358 0.0
O271 O 0.96864 0.99617 0.60929 0.0
O272 O 0.99381 0.01395 0.6819 0.0
O273 O 0.98585 0.95712 0.48975 0.0
C274 C 0.04217 0.0196 0.52564 0.0
C275 C 0.9742 0.00094 0.67042 0.0
Zn276 Zn 0.45603 0.99602 0.55684 0.0
Zn277 Zn 0.52319 -0.00038 0.58685 0.0
C278 C 0.42747 0.01163 0.66403 0.0
O279 O 0.42039 0.98856 0.65301 0.0
C280 C 0.56604 0.0061 0.50613 0.0
O281 O 0.56062 0.02856 0.52603 0.0
O282 O 0.42276 0.99436 0.5095 0.0
O283 O 0.47915 0.00727 0.4805 0.0
O284 O 0.50702 0.02891 0.53746 0.0
C285 C 0.41834 0.01568 0.48423 0.0
O286 O 0.43546 0.03347 0.48962 0.0
O287 O 0.44671 0.02034 0.63154 0.0
C288 C 0.54683 0.00221 0.71882 0.0
O289 O 0.52919 0.98645 0.73986 0.0
O290 O 0.54468 0.01281 0.66127 0.0
O291 O 0.50432 0.9684 0.62304 0.0
O292 O 0.46392 0.9631 0.59616 0.0
O293 O 0.55102 0.98831 0.52297 0.0
C294 C 0.4947 0.0253 0.48338 0.0
C295 C 0.48391 0.95549 0.62432 0.0
Zn296 Zn 0.51139 0.48885 0.56656 0.0
Zn297 Zn 0.47832 0.52298 0.64074 0.0
C298 C 0.52755 0.4564 0.67089 0.0
O299 O 0.54887 0.46715 0.65106 0.0
C300 C 0.47096 0.55739 0.53014 0.0
O301 O 0.44723 0.55295 0.54706 0.0
O302 O 0.532 0.46914 0.5011 0.0
O303 O 0.4782 0.49395 0.51623 0.0
O304 O 0.45622 0.49447 0.61055 0.0
C305 C 0.52093 0.44827 0.49331 0.0
O306 O 0.49883 0.4442 0.52255 0.0
O307 O 0.50694 0.46383 0.64509 0.0
C308 C 0.46594 0.56652 0.70824 0.0
O309 O 0.4873 0.5732 0.67832 0.0
O310 O 0.45748 0.54451 0.701 0.0
O311 O 0.50959 0.5161 0.69438 0.0
O312 O 0.53237 0.51796 0.60112 0.0
O313 O 0.48809 0.54529 0.56034 0.0
C314 C 0.45759 0.48959 0.54784 0.0
C315 C 0.53028 0.52172 0.66452 0.0
Zn316 Zn 0.04598 0.51137 0.5573 0.0
Zn317 Zn 0.96474 0.50527 0.57221 0.0
C318 C 0.07772 0.48727 0.6583 0.0
O319 O 0.05962 0.49437 0.69918 0.0
C320 C 0.94971 0.53329 0.44937 0.0
O321 O 0.96971 0.52374 0.42067 0.0
O322 O 0.05616 0.53498 0.48124 0.0
O323 O 0.01485 0.49212 0.53193 0.0
O324 O 0.97727 0.47658 0.51566 0.0
C325 C 0.07356 0.53418 0.43667 0.0
O326 O 0.0769 0.55338 0.39544 0.0
O327 O 0.0756 0.49145 0.59478 0.0
C328 C 0.92849 0.50998 0.67397 0.0
O329 O 0.93628 0.53311 0.6656 0.0
O330 O 0.93899 0.4931 0.64014 0.0
O331 O 0.99342 0.524 0.61969 0.0
O332 O 0.03399 0.53327 0.63135 0.0
O333 O 0.94514 0.52856 0.51168 0.0
C334 C 0.00082 0.47613 0.50361 0.0
C335 C 0.01108 0.53579 0.6497 0.0
H336 H 0.11942 0.09807 0.24573 0.0
H337 H 0.15448 0.02929 0.18574 0.0
H338 H 0.12926 0.00659 0.27223 0.0
H339 H 0.1223 0.08461 0.42393 0.0
H340 H 0.09282 0.09931 0.44308 0.0
H341 H 0.11162 0.11006 0.37163 0.0
H342 H 0.07354 0.1033 0.29175 0.0
H343 H 0.05453 0.09275 0.36298 0.0
H344 H 0.05797 0.07329 0.29005 0.0
H345 H 0.1003 0.99114 0.36691 0.0
H346 H 0.07023 0.9846 0.46249 0.0
H347 H 0.05824 0.06392 0.46948 0.0
C348 C 0.12209 0.07827 0.25049 0.0
C349 C 0.13913 0.0657 0.20763 0.0
C350 C 0.14125 0.03957 0.21589 0.0
C351 C 0.12718 0.02643 0.2658 0.0
C352 C 0.1113 0.0396 0.30821 0.0
C353 C 0.10876 0.06496 0.30125 0.0
C354 C 0.09129 0.0749 0.35534 0.0
C355 C 0.10536 0.09331 0.40121 0.0
C356 C 0.06795 0.08676 0.32311 0.0
C357 C 0.08431 0.05115 0.39366 0.0
C358 C 0.09588 0.03094 0.36529 0.0
C359 C 0.09138 0.00686 0.38996 0.0
C360 C 0.07435 0.00332 0.44434 0.0
C361 C 0.06237 0.02378 0.47427 0.0
C362 C 0.0677 0.048 0.44892 0.0
H363 H 0.53914 0.14734 0.27587 0.0
H364 H 0.48627 0.12474 0.11961 0.0
H365 H 0.47899 0.08503 0.18021 0.0
H366 H 0.56383 0.08471 0.31758 0.0
H367 H 0.56508 0.09099 0.40709 0.0
H368 H 0.56964 0.11593 0.34591 0.0
H369 H 0.53341 0.14003 0.40235 0.0
H370 H 0.52858 0.11514 0.46327 0.0
H371 H 0.50265 0.12543 0.41163 0.0
H372 H 0.47302 0.05033 0.26374 0.0
H373 H 0.47005 0.02197 0.36249 0.0
H374 H 0.52526 0.06735 0.46867 0.0
C375 C 0.5263 0.13394 0.25365 0.0
C376 C 0.51341 0.13936 0.19233 0.0
C377 C 0.4969 0.12106 0.16534 0.0
C378 C 0.49243 0.09843 0.19982 0.0
C379 C 0.50462 0.09422 0.26133 0.0
C380 C 0.5214 0.11134 0.28784 0.0
C381 C 0.53036 0.10309 0.35764 0.0
C382 C 0.55892 0.0984 0.35699 0.0
C383 C 0.52332 0.12205 0.4119 0.0
C384 C 0.51537 0.07903 0.36704 0.0
C385 C 0.50089 0.07418 0.31043 0.0
C386 C 0.48454 0.05373 0.30793 0.0
C387 C 0.48295 0.03776 0.36461 0.0
C388 C 0.49749 0.0423 0.42357 0.0
C389 C 0.51403 0.06322 0.42436 0.0
H390 H 0.37348 0.44765 0.22944 0.0
H391 H 0.32087 0.41472 0.37596 0.0
H392 H 0.34768 0.42942 0.46972 0.0
H393 H 0.42989 0.43161 0.32184 0.0
H394 H 0.44687 0.45985 0.29927 0.0
H395 H 0.42313 0.44764 0.24316 0.0
H396 H 0.39979 0.48949 0.24591 0.0
H397 H 0.42348 0.50182 0.30205 0.0
H398 H 0.39061 0.50207 0.32647 0.0
H399 H 0.37946 0.44797 0.54762 0.0
H400 H 0.41581 0.46733 0.60548 0.0
H401 H 0.44955 0.48671 0.40987 0.0
C402 C 0.36766 0.44371 0.28134 0.0
C403 C 0.34514 0.43005 0.29567 0.0
C404 C 0.33815 0.42501 0.36407 0.0
C405 C 0.35319 0.43335 0.41761 0.0
C406 C 0.37535 0.44658 0.40206 0.0
C407 C 0.38274 0.4516 0.33572 0.0
C408 C 0.40797 0.46547 0.33355 0.0
C409 C 0.42816 0.45023 0.29731 0.0
C410 C 0.40529 0.49124 0.30001 0.0
C411 C 0.41346 0.46748 0.40889 0.0
C412 C 0.39424 0.45663 0.44736 0.0
C413 C 0.3947 0.45645 0.51808 0.0
C414 C 0.41541 0.46756 0.55051 0.0
C415 C 0.43558 0.47849 0.51235 0.0
C416 C 0.43451 0.47838 0.4405 0.0
H417 H 0.02118 0.34412 0.33722 0.0
H418 H 0.05626 0.38288 0.16565 0.0
H419 H 0.05078 0.42291 0.22348 0.0
H420 H 0.97415 0.38962 0.36867 0.0
H421 H 0.97504 0.38571 0.45966 0.0
H422 H 0.9827 0.36018 0.40584 0.0
H423 H 0.02598 0.35608 0.4656 0.0
H424 H 0.01847 0.38165 0.5195 0.0
H425 H 0.04701 0.3827 0.4691 0.0
H426 H 0.04132 0.45863 0.30005 0.0
H427 H 0.02633 0.48767 0.38725 0.0
H428 H 0.99649 0.42569 0.50723 0.0
C429 C 0.02784 0.36105 0.31215 0.0
C430 C 0.03922 0.36051 0.24721 0.0
C431 C 0.04737 0.38301 0.21532 0.0
C432 C 0.04447 0.40575 0.24789 0.0
C433 C 0.03317 0.40565 0.312 0.0
C434 C 0.02479 0.38391 0.34354 0.0
C435 C 0.01235 0.38897 0.41124 0.0
C436 C 0.9844 0.38063 0.41132 0.0
C437 C 0.02683 0.37662 0.46981 0.0
C438 C 0.01504 0.41696 0.41292 0.0
C439 C 0.02731 0.42621 0.35547 0.0
C440 C 0.03182 0.45157 0.34536 0.0
C441 C 0.02342 0.46788 0.39514 0.0
C442 C 0.01089 0.45871 0.45414 0.0
C443 C 0.00643 0.433 0.46283 0.0
H444 H 0.85395 0.94038 0.85637 0.0
H445 H 0.89062 0.95764 0.04676 0.0
H446 H 0.93013 0.96776 0.98462 0.0
H447 H 0.9111 0.91698 0.7656 0.0
H448 H 0.90231 0.93151 0.68631 0.0
H449 H 0.87823 0.92037 0.74495 0.0
H450 H 0.85814 0.96355 0.74733 0.0
H451 H 0.88157 0.97521 0.68802 0.0
H452 H 0.87736 0.99027 0.76825 0.0
H453 H 0.96283 0.98325 0.90154 0.0
H454 H 0.98707 0.00079 0.80452 0.0
H455 H 0.92867 0.97533 0.66704 0.0
C456 C 0.87048 0.94564 0.88526 0.0
C457 C 0.8691 0.94815 0.95665 0.0
C458 C 0.89121 0.9551 0.99237 0.0
C459 C 0.91375 0.96106 0.95735 0.0
C460 C 0.91396 0.95981 0.88668 0.0
C461 C 0.89298 0.95193 0.85103 0.0
C462 C 0.89716 0.95488 0.77505 0.0
C463 C 0.89722 0.92942 0.74094 0.0
C464 C 0.87739 0.972 0.74283 0.0
C465 C 0.92324 0.96688 0.77359 0.0
C466 C 0.93278 0.9691 0.83845 0.0
C467 C 0.95575 0.98118 0.85048 0.0
C468 C 0.9693 0.99127 0.79494 0.0
C469 C 0.95981 0.98942 0.728 0.0
C470 C 0.93655 0.97684 0.71743 0.0
H471 H 0.49911 0.86909 0.9529 0.0
H472 H 0.43966 0.82285 0.86858 0.0
H473 H 0.4423 0.84666 0.76089 0.0
H474 H 0.47835 0.92491 0.88503 0.0
H475 H 0.50909 0.9383 0.86615 0.0
H476 H 0.5055 0.91547 0.93326 0.0
H477 H 0.53933 0.8884 0.87633 0.0
H478 H 0.54301 0.91129 0.8091 0.0
H479 H 0.53546 0.8795 0.78913 0.0
H480 H 0.44659 0.87823 0.67013 0.0
H481 H 0.45317 0.91583 0.59894 0.0
H482 H 0.51093 0.94176 0.73748 0.0
C483 C 0.48724 0.86367 0.91089 0.0
C484 C 0.46923 0.84417 0.91855 0.0
C485 C 0.45354 0.83779 0.86336 0.0
C486 C 0.45499 0.85111 0.80199 0.0
C487 C 0.47238 0.87068 0.79631 0.0
C488 C 0.48842 0.87692 0.84884 0.0
C489 C 0.50378 0.9002 0.8308 0.0
C490 C 0.49887 0.92094 0.88183 0.0
C491 C 0.53208 0.89449 0.82604 0.0
C492 C 0.49305 0.90649 0.76137 0.0
C493 C 0.47518 0.889 0.74236 0.0
C494 C 0.46094 0.8918 0.68359 0.0
C495 C 0.46473 0.91325 0.6436 0.0
C496 C 0.48272 0.9316 0.66228 0.0
C497 C 0.49745 0.92784 0.72113 0.0
H498 H 0.60805 0.54947 0.00017 0.0
H499 H 0.67108 0.57232 0.87028 0.0
H500 H 0.64374 0.56882 0.77 0.0
H501 H 0.58563 0.50309 0.89595 0.0
H502 H 0.55256 0.50787 0.91261 0.0
H503 H 0.57568 0.51609 0.97531 0.0
H504 H 0.55912 0.56107 0.97678 0.0
H505 H 0.53572 0.55291 0.91453 0.0
H506 H 0.55725 0.57863 0.89835 0.0
H507 H 0.61126 0.55726 0.6825 0.0
H508 H 0.5753 0.54109 0.61576 0.0
H509 H 0.53384 0.52515 0.80265 0.0
C510 C 0.61602 0.55419 0.9508 0.0
C511 C 0.64176 0.56131 0.94345 0.0
C512 C 0.65135 0.56733 0.87773 0.0
C513 C 0.63599 0.56521 0.82022 0.0
C514 C 0.61101 0.55718 0.82912 0.0
C515 C 0.60099 0.55207 0.89288 0.0
C516 C 0.57417 0.54198 0.88837 0.0
C517 C 0.5719 0.51571 0.91992 0.0
C518 C 0.55546 0.55971 0.92146 0.0
C519 C 0.57094 0.54154 0.81209 0.0
C520 C 0.59231 0.55053 0.77873 0.0
C521 C 0.59427 0.55054 0.70808 0.0
C522 C 0.57381 0.5412 0.67061 0.0
C523 C 0.55171 0.53194 0.70388 0.0
C524 C 0.55034 0.53233 0.77556 0.0
H525 H 0.04155 0.6531 0.87114 0.0
H526 H 0.98398 0.628 0.01529 0.0
H527 H 0.97208 0.59379 0.93815 0.0
H528 H 0.0073 0.63842 0.71763 0.0
H529 H 0.03542 0.62876 0.67403 0.0
H530 H 0.03756 0.65212 0.73823 0.0
H531 H 0.07046 0.62585 0.80332 0.0
H532 H 0.06848 0.60249 0.73933 0.0
H533 H 0.06264 0.59419 0.82711 0.0
H534 H 0.96865 0.56058 0.84587 0.0
H535 H 0.975 0.53162 0.75064 0.0
H536 H 0.03543 0.57926 0.67165 0.0
C537 C 0.02648 0.64039 0.88686 0.0
C538 C 0.01387 0.64302 0.94952 0.0
C539 C 0.99385 0.62632 0.96733 0.0
C540 C 0.987 0.60686 0.9239 0.0
C541 C 0.00023 0.6046 0.86284 0.0
C542 C 0.01953 0.62103 0.84456 0.0
C543 C 0.03174 0.61425 0.77817 0.0
C544 C 0.02775 0.6346 0.72381 0.0
C545 C 0.05999 0.60887 0.78759 0.0
C546 C 0.0168 0.59101 0.76241 0.0
C547 C 0.99842 0.58579 0.811 0.0
C548 C 0.98281 0.5647 0.80726 0.0
C549 C 0.98637 0.54847 0.75287 0.0
C550 C 0.00548 0.55345 0.70374 0.0
C551 C 0.02064 0.57506 0.70858 0.0
H552 H 0.98942 0.18314 0.30403 0.0
H553 H 0.04452 0.14153 0.18879 0.0
H554 H 0.02687 0.10296 0.23647 0.0
H555 H -0.00048 0.14916 0.45359 0.0
H556 H 0.96731 0.15084 0.48312 0.0
H557 H 0.98017 0.17486 0.42813 0.0
H558 H 0.94341 0.16734 0.34389 0.0
H559 H 0.93072 0.14292 0.39834 0.0
H560 H 0.93801 0.13672 0.3108 0.0
H561 H 0.00805 0.06898 0.30798 0.0
H562 H 0.99242 0.04347 0.40455 0.0
H563 H 0.95267 0.10701 0.48215 0.0
C564 C 0.99815 0.16614 0.28859 0.0
C565 C 0.01829 0.16603 0.24073 0.0
C566 C 0.02851 0.14276 0.22272 0.0
C567 C 0.01877 0.12046 0.25034 0.0
C568 C -0.00065 0.12146 0.29793 0.0
C569 C 0.98941 0.14372 0.31774 0.0
C570 C 0.97113 0.14001 0.37663 0.0
C571 C 0.98008 0.15456 0.43903 0.0
C572 C 0.94422 0.14717 0.35615 0.0
C573 C 0.97303 0.11225 0.38819 0.0
C574 C 0.98891 0.10181 0.34104 0.0
C575 C 0.99531 0.07686 0.34465 0.0
C576 C 0.98623 0.06247 0.39971 0.0
C577 C 0.97128 0.0732 0.45114 0.0
C578 C 0.96373 0.09812 0.44335 0.0
H579 H 0.32657 0.09358 0.25251 0.0
H580 H 0.26347 0.05556 0.35339 0.0
H581 H 0.29333 0.03226 0.42495 0.0
H582 H 0.36678 0.04372 0.24508 0.0
H583 H 0.39531 0.06117 0.26253 0.0
H584 H 0.36908 0.07625 0.22254 0.0
H585 H 0.36814 0.10899 0.31752 0.0
H586 H 0.3948 0.09438 0.3569 0.0
H587 H 0.36622 0.09883 0.40507 0.0
H588 H 0.33041 0.01031 0.47757 0.0
H589 H 0.37195 0.99569 0.51829 0.0
H590 H 0.40977 0.04977 0.38571 0.0
C591 C 0.31892 0.08096 0.29103 0.0
C592 C 0.29271 0.07629 0.2971 0.0
C593 C 0.28355 0.05916 0.34724 0.0
C594 C 0.30033 0.04588 0.38817 0.0
C595 C 0.32611 0.05024 0.37887 0.0
C596 C 0.33533 0.06776 0.33257 0.0
C597 C 0.36384 0.06873 0.33154 0.0
C598 C 0.37435 0.06206 0.26125 0.0
C599 C 0.37383 0.09425 0.35414 0.0
C600 C 0.36923 0.04874 0.38368 0.0
C601 C 0.3473 0.03812 0.4102 0.0
C602 C 0.34772 0.01864 0.4577 0.0
C603 C 0.37129 0.01029 0.47992 0.0
C604 C 0.39382 0.02167 0.45487 0.0
C605 C 0.39272 0.04088 0.40577 0.0
H606 H 0.51405 0.31468 0.34753 0.0
H607 H 0.55898 0.34175 0.17656 0.0
H608 H 0.56943 0.38006 0.23914 0.0
H609 H 0.48521 0.36793 0.38044 0.0
H610 H 0.48479 0.36478 0.4717 0.0
H611 H 0.48589 0.33761 0.42041 0.0
H612 H 0.52655 0.32376 0.48216 0.0
H613 H 0.52558 0.35104 0.53378 0.0
H614 H 0.55354 0.34458 0.48503 0.0
H615 H 0.56815 0.41832 0.31196 0.0
H616 H 0.55525 0.4523 0.38772 0.0
H617 H 0.51127 0.39935 0.50939 0.0
C618 C 0.5267 0.3284 0.32423 0.0
C619 C 0.53576 0.32544 0.25763 0.0
C620 C 0.55212 0.34369 0.22808 0.0
C621 C 0.55815 0.36545 0.26324 0.0
C622 C 0.54801 0.3683 0.32813 0.0
C623 C 0.53292 0.35002 0.35865 0.0
C624 C 0.52186 0.35851 0.4249 0.0
C625 C 0.49273 0.35714 0.42422 0.0
C626 C 0.53253 0.34358 0.48502 0.0
C627 C 0.53159 0.38498 0.42474 0.0
C628 C 0.5472 0.39024 0.36966 0.0
C629 C 0.55642 0.41427 0.35608 0.0
C630 C 0.54901 0.43344 0.39913 0.0
C631 C 0.53219 0.42833 0.45382 0.0
C632 C 0.52412 0.40373 0.46771 0.0
H633 H 0.19362 0.46541 0.299 0.0
H634 H 0.15458 0.39535 0.33978 0.0
H635 H 0.11977 0.41784 0.39574 0.0
H636 H 0.17474 0.49736 0.45401 0.0
H637 H 0.1713 0.52653 0.40923 0.0
H638 H 0.19408 0.50451 0.38038 0.0
H639 H 0.17364 0.50514 0.26098 0.0
H640 H 0.15079 0.52704 0.28945 0.0
H641 H 0.14035 0.49817 0.2531 0.0
H642 H 0.0885 0.4489 0.44291 0.0
H643 H 0.06244 0.48535 0.46799 0.0
H644 H 0.12175 0.53423 0.38918 0.0
C645 C 0.17808 0.45472 0.32136 0.0
C646 C 0.17692 0.42866 0.31645 0.0
C647 C 0.15582 0.41535 0.34377 0.0
C648 C 0.13611 0.42795 0.37582 0.0
C649 C 0.13784 0.45378 0.37946 0.0
C650 C 0.15829 0.46695 0.35253 0.0
C651 C 0.1548 0.49462 0.35699 0.0
C652 C 0.17493 0.50644 0.4029 0.0
C653 C 0.15489 0.50695 0.28592 0.0
C654 C 0.12896 0.49512 0.38952 0.0
C655 C 0.1196 0.47145 0.40342 0.0
C656 C 0.09575 0.46747 0.43237 0.0
C657 C 0.08102 0.48824 0.44627 0.0
C658 C 0.08998 0.5125 0.43004 0.0
C659 C 0.11438 0.51587 0.40209 0.0
H660 H 0.06175 0.83321 0.85905 0.0
H661 H 0.98769 0.81434 0.94223 0.0
H662 H 0.96995 0.85119 0.88548 0.0
H663 H 0.05634 0.90097 0.86735 0.0
H664 H 0.07233 0.90654 0.78735 0.0
H665 H 0.07992 0.87972 0.83865 0.0
H666 H 0.07 0.85109 0.73742 0.0
H667 H 0.06249 0.8778 0.68583 0.0
H668 H 0.03964 0.85285 0.69676 0.0
H669 H 0.95965 0.8881 0.81697 0.0
H670 H 0.95658 0.92246 0.73397 0.0
H671 H 0.03696 0.91823 0.69197 0.0
C672 C 0.04188 0.8371 0.86558 0.0
C673 C 0.02598 0.82104 0.90466 0.0
C674 C 3e-05 0.82638 0.91185 0.0
C675 C 0.98986 0.84732 0.88034 0.0
C676 C 0.0059 0.8627 0.84168 0.0
C677 C 0.0313 0.85788 0.83365 0.0
C678 C 0.04382 0.87666 0.78545 0.0
C679 C 0.06432 0.89187 0.8219 0.0
C680 C 0.05462 0.86383 0.72265 0.0
C681 C 0.02138 0.89254 0.76716 0.0
C682 C -0.00019 0.8842 0.80092 0.0
C683 C 0.97641 0.89492 0.7905 0.0
C684 C 0.97485 0.91437 0.74313 0.0
C685 C 0.99651 0.92293 0.70675 0.0
C686 C 0.0202 0.91222 0.71987 0.0
H687 H 0.65053 0.9647 0.993 0.0
H688 H 0.70668 0.97916 0.83551 0.0
H689 H 0.67291 0.99089 0.75551 0.0
H690 H 0.60251 0.93805 0.8776 0.0
H691 H 0.57661 0.95104 0.92409 0.0
H692 H 0.60518 0.94279 0.96768 0.0
H693 H 0.60899 0.98759 0.01292 0.0
H694 H 0.58076 0.99615 0.9683 0.0
H695 H 0.6098 0.01343 0.95361 0.0
H696 H 0.63423 0.00517 0.69776 0.0
H697 H 0.5916 0.01382 0.65613 0.0
H698 H 0.55954 0.98713 0.84797 0.0
C699 C 0.65552 0.96996 0.94126 0.0
C700 C 0.68098 0.97115 0.91981 0.0
C701 C 0.68713 0.97804 0.85215 0.0
C702 C 0.66817 0.98487 0.80676 0.0
C703 C 0.64325 0.98423 0.82987 0.0
C704 C 0.63675 0.97629 0.89482 0.0
C705 C 0.60842 0.97692 0.90603 0.0
C706 C 0.59754 0.95064 0.91963 0.0
C707 C 0.6016 0.99458 0.96363 0.0
C708 C 0.60013 0.98706 0.83777 0.0
C709 C 0.6206 0.9914 0.79508 0.0
C710 C 0.61798 0.00157 0.7303 0.0
C711 C 0.59365 0.00667 0.70747 0.0
C712 C 0.57221 0.00117 0.74896 0.0
C713 C 0.57558 0.99156 0.81531 0.0
H714 H 0.44316 0.69948 0.85793 0.0
H715 H 0.40055 0.66288 0.02124 0.0
H716 H 0.4015 0.6237 0.95883 0.0
H717 H 0.41921 0.66254 0.71459 0.0
H718 H 0.45003 0.66174 0.67534 0.0
H719 H 0.44129 0.688 0.72533 0.0
H720 H 0.48086 0.68185 0.8003 0.0
H721 H 0.48964 0.65557 0.75089 0.0
H722 H 0.48565 0.65221 0.84153 0.0
H723 H 0.41142 0.58725 0.88507 0.0
H724 H 0.43106 0.55677 0.80914 0.0
H725 H 0.47053 0.61681 0.70155 0.0
C726 C 0.43375 0.68337 0.88058 0.0
C727 C 0.42172 0.68448 0.94472 0.0
C728 C 0.40943 0.66284 0.97162 0.0
C729 C 0.40998 0.64037 0.93666 0.0
C730 C 0.42298 0.63977 0.87502 0.0
C731 C 0.43465 0.66074 0.84729 0.0
C732 C 0.45011 0.65469 0.78509 0.0
C733 C 0.43951 0.6675 0.72131 0.0
C734 C 0.47822 0.66147 0.7951 0.0
C735 C 0.4459 0.62691 0.78325 0.0
C736 C 0.42975 0.61867 0.83451 0.0
C737 C 0.4239 0.59352 0.84434 0.0
C738 C 0.43513 0.57636 0.80111 0.0
C739 C 0.45236 0.58448 0.74989 0.0
C740 C 0.45747 0.61008 0.74049 0.0
H741 H 0.82678 0.53542 0.96205 0.0
H742 H 0.78094 0.47587 0.8793 0.0
H743 H 0.81448 0.4679 0.79427 0.0
H744 H 0.85048 0.55866 0.80183 0.0
H745 H 0.88123 0.56666 0.83459 0.0
H746 H 0.85398 0.56686 0.88969 0.0
H747 H 0.87603 0.53646 0.97264 0.0
H748 H 0.90328 0.53602 0.9175 0.0
H749 H 0.88737 0.50736 0.94168 0.0
H750 H 0.85384 0.46571 0.72148 0.0
H751 H 0.89381 0.47248 0.65746 0.0
H752 H 0.91237 0.53517 0.7844 0.0
C753 C 0.82394 0.52059 0.92626 0.0
C754 C 0.80157 0.50598 0.92739 0.0
C755 C 0.7981 0.48713 0.87905 0.0
C756 C 0.81703 0.48244 0.83098 0.0
C757 C 0.83906 0.49703 0.83172 0.0
C758 C 0.84241 0.51596 0.8775 0.0
C759 C 0.86727 0.52968 0.86585 0.0
C760 C 0.86297 0.55708 0.84683 0.0
C761 C 0.8845 0.52722 0.92812 0.0
C762 C 0.87745 0.51549 0.80637 0.0
C763 C 0.8611 0.4965 0.78801 0.0
C764 C 0.86673 0.48058 0.73519 0.0
C765 C 0.8895 0.48445 0.69948 0.0
C766 C 0.90603 0.50434 0.71616 0.0
C767 C 0.89997 0.51989 0.77053 0.0
H768 H 0.02455 0.21419 0.79949 0.0
H769 H 0.97229 0.20542 0.96969 0.0
H770 H 0.95559 0.1671 0.92098 0.0
H771 H 0.98383 0.18299 0.6678 0.0
H772 H 0.01079 0.1682 0.63085 0.0
H773 H 0.01441 0.19822 0.66911 0.0
H774 H 0.04943 0.18079 0.74693 0.0
H775 H 0.04569 0.15071 0.70983 0.0
H776 H 0.04253 0.15402 0.80039 0.0
H777 H 0.94944 0.12641 0.86655 0.0
H778 H 0.95338 0.08681 0.80709 0.0
H779 H 0.01154 0.11986 0.67622 0.0
C780 C 0.00919 0.20458 0.82588 0.0
C781 C -0.00024 0.21324 0.88849 0.0
C782 C 0.97955 0.1999 0.92085 0.0
C783 C 0.96999 0.17782 0.89382 0.0
C784 C 0.98072 0.16917 0.8343 0.0
C785 C -0.00029 0.18223 0.80018 0.0
C786 C 0.01013 0.16731 0.74199 0.0
C787 C 0.00444 0.17994 0.67337 0.0
C788 C 0.03863 0.16295 0.75034 0.0
C789 C 0.99494 0.1434 0.7511 0.0
C790 C 0.9777 0.1451 0.80369 0.0
C791 C 0.96254 0.12499 0.82446 0.0
C792 C 0.96503 0.10252 0.79055 0.0
C793 C 0.98277 0.10022 0.73699 0.0
C794 C 0.99775 0.12105 0.7168 0.0
H795 H 0.29747 0.04345 0.84695 0.0
H796 H 0.32776 0.1174 0.88346 0.0
H797 H 0.3675 0.1064 0.82637 0.0
H798 H 0.35495 0.0114 0.88 0.0
H799 H 0.34967 0.98872 0.8151 0.0
H800 H 0.32318 0.00284 0.85617 0.0
H801 H 0.30609 0.01723 0.73914 0.0
H802 H 0.33246 0.00303 0.69772 0.0
H803 H 0.32628 0.03543 0.6828 0.0
H804 H 0.40474 0.0868 0.76421 0.0
H805 H 0.43514 0.06034 0.70336 0.0
H806 H 0.38081 0.99914 0.71442 0.0
C807 C 0.31242 0.05738 0.8433 0.0
C808 C 0.30915 0.08142 0.86947 0.0
C809 C 0.32935 0.09903 0.86265 0.0
C810 C 0.3522 0.09289 0.83077 0.0
C811 C 0.3548 0.06898 0.80607 0.0
C812 C 0.33541 0.05153 0.81204 0.0
C813 C 0.34298 0.02704 0.78208 0.0
C814 C 0.34268 0.00628 0.8366 0.0
C815 C 0.32594 0.0203 0.72186 0.0
C816 C 0.36967 0.03336 0.75866 0.0
C817 C 0.37621 0.05766 0.77244 0.0
C818 C 0.39982 0.06769 0.75354 0.0
C819 C 0.41701 0.05253 0.71916 0.0
C820 C 0.41058 0.02757 0.7046 0.0
C821 C 0.3866 0.01802 0.72535 0.0
H822 H 0.48805 0.31987 0.80363 0.0
H823 H 0.55586 0.32185 0.92685 0.0
H824 H 0.56641 0.36349 0.88104 0.0
H825 H 0.51485 0.3541 0.65744 0.0
H826 H 0.48619 0.37062 0.64039 0.0
H827 H 0.48463 0.34003 0.67868 0.0
H828 H 0.45884 0.35689 0.77943 0.0
H829 H 0.46025 0.3876 0.74197 0.0
H830 H 0.47141 0.38249 0.82726 0.0
H831 H 0.56874 0.40572 0.82698 0.0
H832 H 0.56396 0.44492 0.7622 0.0
H833 H 0.49381 0.41686 0.67731 0.0
C834 C 0.50525 0.32894 0.82059 0.0
C835 C 0.52121 0.31728 0.86862 0.0
C836 C 0.54358 0.32992 0.88902 0.0
C837 C 0.54962 0.35378 0.86385 0.0
C838 C 0.53313 0.36493 0.81825 0.0
C839 C 0.51153 0.35287 0.79619 0.0
C840 C 0.49681 0.36931 0.74776 0.0
C841 C 0.49554 0.35784 0.67685 0.0
C842 C 0.47025 0.37437 0.77581 0.0
C843 C 0.51328 0.39264 0.7472 0.0
C844 C 0.53421 0.3896 0.78794 0.0
C845 C 0.55244 0.40832 0.79488 0.0
C846 C 0.54952 0.43054 0.75808 0.0
C847 C 0.52841 0.43403 0.71533 0.0
C848 C 0.50989 0.4149 0.7106 0.0
H849 H 0.1716 0.44777 0.95529 0.0
H850 H 0.22672 0.42951 0.80087 0.0
H851 H 0.19631 0.44129 0.71146 0.0
H852 H 0.11723 0.42485 0.86778 0.0
H853 H 0.09694 0.44915 0.89632 0.0
H854 H 0.12317 0.43961 0.94776 0.0
H855 H 0.14045 0.48489 0.94854 0.0
H856 H 0.11417 0.49461 0.89756 0.0
H857 H 0.14605 0.5012 0.8691 0.0
H858 H 0.15934 0.4554 0.63852 0.0
H859 H 0.1196 0.47102 0.58933 0.0
H860 H 0.08906 0.47958 0.7925 0.0
C861 C 0.17747 0.44658 0.9027 0.0
C862 C 0.20167 0.43784 0.88521 0.0
C863 C 0.20827 0.43603 0.81561 0.0
C864 C 0.19113 0.44273 0.76446 0.0
C865 C 0.16738 0.45111 0.78359 0.0
C866 C 0.16059 0.45306 0.85114 0.0
C867 C 0.13387 0.46233 0.85854 0.0
C868 C 0.1168 0.44282 0.89473 0.0
C869 C 0.13363 0.48724 0.89561 0.0
C870 C 0.1267 0.4655 0.78462 0.0
C871 C 0.14621 0.45891 0.74202 0.0
C872 C 0.14394 0.46056 0.67152 0.0
C873 C 0.12127 0.46942 0.64401 0.0
C874 C 0.10112 0.47649 0.68692 0.0
C875 C 0.10398 0.47425 0.75811 0.0
H876 H 0.03968 0.81645 0.30047 0.0
H877 H 0.95981 0.79883 0.28038 0.0
H878 H 0.94943 0.83925 0.33135 0.0
H879 H 0.0358 0.84772 0.46132 0.0
H880 H 0.05999 0.87018 0.4373 0.0
H881 H 0.06035 0.83952 0.40239 0.0
H882 H 0.06072 0.85889 0.28094 0.0
H883 H 0.05983 0.88959 0.31546 0.0
H884 H 0.03598 0.87972 0.25631 0.0
H885 H 0.94844 0.88263 0.38305 0.0
H886 H 0.95687 0.9235 0.43513 0.0
H887 H 0.03749 0.91145 0.41717 0.0
C888 C 0.01996 0.8207 0.30836 0.0
C889 C 0.00054 0.80433 0.28745 0.0
C890 C 0.97498 0.81109 0.29642 0.0
C891 C 0.96894 0.83398 0.32517 0.0
C892 C 0.98869 0.84986 0.34412 0.0
C893 C 0.01366 0.84335 0.33633 0.0
C894 C 0.03153 0.86368 0.3589 0.0
C895 C 0.04787 0.85474 0.41853 0.0
C896 C 0.04797 0.87355 0.29934 0.0
C897 C 0.01277 0.88273 0.38108 0.0
C898 C 0.98813 0.87459 0.37219 0.0
C899 C 0.96768 0.88916 0.39016 0.0
C900 C 0.97264 0.91238 0.41933 0.0
C901 C 0.99784 0.92068 0.43009 0.0
C902 C 0.01801 0.90573 0.40954 0.0
H903 H 0.68232 0.93059 0.34885 0.0
H904 H 0.72037 0.00239 0.32609 0.0
H905 H 0.68378 0.02256 0.37622 0.0
H906 H 0.62074 0.95096 0.30697 0.0
H907 H 0.60419 0.93177 0.36911 0.0
H908 H 0.63399 0.92197 0.33499 0.0
H909 H 0.65221 0.91819 0.45635 0.0
H910 H 0.62235 0.92764 0.49091 0.0
H911 H 0.65094 0.94441 0.51188 0.0
H912 H 0.6428 0.03586 0.41928 0.0
H913 H 0.60045 0.04144 0.46702 0.0
H914 H 0.58745 0.96156 0.46727 0.0
C915 C 0.68307 0.95049 0.35555 0.0
C916 C 0.70457 0.96477 0.33447 0.0
C917 C 0.70461 0.99083 0.3435 0.0
C918 C 0.68372 0.00259 0.37121 0.0
C919 C 0.66279 0.98814 0.39025 0.0
C920 C 0.6623 0.96265 0.38405 0.0
C921 C 0.6371 0.9518 0.40893 0.0
C922 C 0.62319 0.93833 0.35156 0.0
C923 C 0.64088 0.93448 0.47069 0.0
C924 C 0.62353 0.97528 0.42886 0.0
C925 C 0.63881 0.99594 0.41703 0.0
C926 C 0.6307 0.01983 0.4296 0.0
C927 C 0.6065 0.02278 0.45663 0.0
C928 C 0.59056 0.00196 0.47147 0.0
C929 C 0.59915 0.97785 0.45659 0.0
H930 H 0.44216 0.68237 0.32827 0.0
H931 H 0.52289 0.69672 0.31346 0.0
H932 H 0.53072 0.65607 0.36988 0.0
H933 H 0.44164 0.6532 0.49165 0.0
H934 H 0.41721 0.63099 0.47039 0.0
H935 H 0.41856 0.66082 0.42802 0.0
H936 H 0.42009 0.63907 0.31156 0.0
H937 H 0.41903 0.60915 0.35371 0.0
H938 H 0.44442 0.61688 0.29535 0.0
H939 H 0.52912 0.614 0.43202 0.0
H940 H 0.51843 0.57516 0.49533 0.0
H941 H 0.43864 0.58896 0.46598 0.0
C942 C 0.46152 0.67713 0.33757 0.0
C943 C 0.48195 0.69284 0.3174 0.0
C944 C 0.50699 0.68497 0.32876 0.0
C945 C 0.51157 0.66194 0.36065 0.0
C946 C 0.49091 0.64692 0.37993 0.0
C947 C 0.46639 0.65425 0.36858 0.0
C948 C 0.44738 0.63496 0.39408 0.0
C949 C 0.4302 0.64563 0.44932 0.0
C950 C 0.43182 0.62439 0.33516 0.0
C951 C 0.46496 0.61575 0.42312 0.0
C952 C 0.49001 0.62282 0.41415 0.0
C953 C 0.50956 0.60825 0.43883 0.0
C954 C 0.5033 0.58618 0.47457 0.0
C955 C 0.47768 0.57893 0.48545 0.0
C956 C 0.4584 0.59382 0.45823 0.0
H957 H 0.81139 0.57882 0.37004 0.0
H958 H 0.83266 0.57734 0.15676 0.0
H959 H 0.87709 0.57319 0.18864 0.0
H960 H 0.87109 0.60914 0.43454 0.0
H961 H 0.8708 0.58955 0.5096 0.0
H962 H 0.84144 0.59838 0.47081 0.0
H963 H 0.82838 0.55199 0.46193 0.0
H964 H 0.85767 0.54304 0.50008 0.0
H965 H 0.84895 0.53109 0.41839 0.0
H966 H 0.91804 0.56185 0.24199 0.0
H967 H 0.95196 0.54462 0.31313 0.0
H968 H 0.90418 0.55139 0.49155 0.0
C969 C 0.82539 0.57822 0.32988 0.0
C970 C 0.81821 0.57871 0.26072 0.0
C971 C 0.83738 0.57778 0.2101 0.0
C972 C 0.86284 0.57521 0.2277 0.0
C973 C 0.86904 0.57362 0.29619 0.0
C974 C 0.85089 0.5753 0.34657 0.0
C975 C 0.86201 0.56998 0.41595 0.0
C976 C 0.86129 0.59315 0.46034 0.0
C977 C 0.84845 0.5477 0.45109 0.0
C978 C 0.88889 0.56386 0.39629 0.0
C979 C 0.89271 0.56657 0.32712 0.0
C980 C 0.91543 0.56012 0.29639 0.0
C981 C 0.93458 0.55027 0.33724 0.0
C982 C 0.93083 0.54671 0.408 0.0
C983 C 0.90782 0.55414 0.43778 0.0
loop_
_geom_bond_atom_site_label_1
_geom_bond_atom_site_label_2
_geom_bond_distance
_geom_bond_site_symmetry_2
_ccdc_geom_bond_type
P0 O11 1.490 . S
P0 C14 1.812 . S
P0 C20 1.803 1_554 S
P0 C26 1.819 1_554 S
H1 C15 0.941 . S
H2 C16 0.939 . S
H3 C18 0.940 . S
H4 C19 0.940 . S
H5 C21 0.939 . S
H6 C22 0.942 . S
H7 C24 0.940 1_554 S
H8 C25 0.939 . S
H9 C27 0.941 . S
H10 C31 0.939 . S
O11 P0 1.490 . S
H12 C28 0.939 . S
H13 C30 0.940 . S
C14 P0 1.812 . S
C14 C15 1.389 . S
C14 C19 1.391 . S
C15 H1 0.941 . S
C15 C14 1.389 . S
C15 C16 1.397 . S
C16 H2 0.939 . S
C16 C15 1.397 . S
C16 C17 1.378 . S
C17 C16 1.378 . S
C17 C18 1.378 . S
C18 H3 0.940 . S
C18 C17 1.378 . S
C18 C19 1.396 . S
C19 H4 0.940 . S
C19 C14 1.391 . S
C19 C18 1.396 . S
C20 P0 1.803 1_556 S
C20 C21 1.378 . S
C20 C25 1.400 1_556 S
C21 H5 0.939 . S
C21 C20 1.378 . S
C21 C22 1.361 . S
C22 H6 0.942 . S
C22 C21 1.361 . S
C22 C23 1.369 . S
C23 C22 1.369 . S
C23 C24 1.404 . S
C24 H7 0.940 1_556 S
C24 C23 1.404 . S
C24 C25 1.389 1_556 S
C25 H8 0.939 . S
C25 C20 1.400 1_554 S
C25 C24 1.389 1_554 S
C26 P0 1.819 1_556 S
C26 C27 1.391 . S
C26 C31 1.391 . S
C27 H9 0.941 . S
C27 C26 1.391 . S
C27 C28 1.396 . S
C28 H12 0.939 . S
C28 C27 1.396 . S
C28 C29 1.397 . S
C29 C28 1.397 . S
C29 C30 1.385 . S
C30 H13 0.940 . S
C30 C29 1.385 . S
C30 C31 1.388 . S
C31 H10 0.939 . S
C31 C26 1.391 . S
C31 C30 1.388 . S
P32 O43 1.490 . S
P32 C46 1.812 . S
P32 C52 1.803 . S
P32 C58 1.819 1_554 S
H33 C47 0.941 . S
H34 C48 0.939 . S
H35 C50 0.940 . S
H36 C51 0.950 . S
H37 C53 0.939 . S
H38 C54 0.942 . S
H39 C56 0.940 . S
H40 C57 0.959 . S
H41 C59 0.941 1_554 S
H42 C63 0.930 1_655 S
O43 P32 1.490 . S
H44 C60 0.939 . S
H45 C62 0.940 . S
C46 P32 1.812 . S
C46 C47 1.389 . S
C46 C51 1.375 1_455 S
C47 H33 0.941 . S
C47 C46 1.389 . S
C47 C48 1.397 . S
C48 H34 0.939 . S
C48 C47 1.397 . S
C48 C49 1.378 . S
C49 C48 1.378 . S
C49 C50 1.378 1_455 S
C50 H35 0.940 . S
C50 C49 1.378 1_655 S
C50 C51 1.403 . S
C51 H36 0.950 . S
C51 C46 1.375 1_655 S
C51 C50 1.403 . S
C52 P32 1.803 . S
C52 C53 1.378 1_554 S
C52 C57 1.369 1_455 S
C53 H37 0.939 . S
C53 C52 1.378 1_556 S
C53 C54 1.361 . S
C54 H38 0.942 . S
C54 C53 1.361 . S
C54 C55 1.369 . S
C55 C54 1.369 . S
C55 C56 1.404 1_456 S
C56 H39 0.940 . S
C56 C55 1.404 1_654 S
C56 C57 1.401 . S
C57 H40 0.959 . S
C57 C52 1.369 1_655 S
C57 C56 1.401 . S
C58 P32 1.819 1_556 S
C58 C59 1.391 . S
C58 C63 1.391 . S
C59 H41 0.941 1_556 S
C59 C58 1.391 . S
C59 C60 1.396 . S
C60 H44 0.939 . S
C60 C59 1.396 . S
C60 C61 1.397 . S
C61 C60 1.397 . S
C61 C62 1.385 1_455 S
C62 H45 0.940 . S
C62 C61 1.385 1_655 S
C62 C63 1.388 1_655 S
C63 H42 0.930 1_455 S
C63 C58 1.391 . S
C63 C62 1.388 1_455 S
P64 O75 1.490 . S
P64 C78 1.812 . S
P64 C84 1.803 . S
P64 C90 1.819 1_554 S
H65 C79 0.941 . S
H66 C80 0.939 . S
H67 C82 0.940 . S
H68 C83 0.940 . S
H69 C85 0.939 . S
H70 C86 0.942 . S
H71 C88 0.940 . S
H72 C89 0.939 . S
H73 C91 0.941 . S
H74 C95 0.939 . S
O75 P64 1.490 . S
H76 C92 0.939 . S
H77 C94 0.940 . S
C78 P64 1.812 . S
C78 C79 1.389 . S
C78 C83 1.391 . S
C79 H65 0.941 . S
C79 C78 1.389 . S
C79 C80 1.397 . S
C80 H66 0.939 . S
C80 C79 1.397 . S
C80 C81 1.378 . S
C81 C80 1.378 . S
C81 C82 1.378 . S
C82 H67 0.940 . S
C82 C81 1.378 . S
C82 C83 1.396 . S
C83 H68 0.940 . S
C83 C78 1.391 . S
C83 C82 1.396 . S
C84 P64 1.803 . S
C84 C85 1.378 1_554 S
C84 C89 1.400 . S
C85 H69 0.939 . S
C85 C84 1.378 1_556 S
C85 C86 1.361 . S
C86 H70 0.942 . S
C86 C85 1.361 . S
C86 C87 1.369 . S
C87 C86 1.369 . S
C87 C88 1.404 1_556 S
C88 H71 0.940 . S
C88 C87 1.404 1_554 S
C88 C89 1.389 . S
C89 H72 0.939 . S
C89 C84 1.400 . S
C89 C88 1.389 . S
C90 P64 1.819 1_556 S
C90 C91 1.391 . S
C90 C95 1.391 . S
C91 H73 0.941 . S
C91 C90 1.391 . S
C91 C92 1.396 . S
C92 H76 0.939 . S
C92 C91 1.396 . S
C92 C93 1.397 . S
C93 C92 1.397 . S
C93 C94 1.385 . S
C94 H77 0.940 . S
C94 C93 1.385 . S
C94 C95 1.388 . S
C95 H74 0.939 . S
C95 C90 1.391 . S
C95 C94 1.388 . S
P96 O107 1.490 . S
P96 C110 1.812 . S
P96 C116 1.803 . S
P96 C122 1.819 1_554 S
H97 C111 0.941 . S
H98 C112 0.939 . S
H99 C114 0.940 . S
H100 C115 0.940 . S
H101 C117 0.939 . S
H102 C118 0.942 . S
H103 C120 0.940 . S
H104 C121 0.939 . S
H105 C123 0.941 1_554 S
H106 C127 0.939 . S
O107 P96 1.490 . S
H108 C124 0.939 . S
H109 C126 0.940 . S
C110 P96 1.812 . S
C110 C111 1.389 . S
C110 C115 1.391 . S
C111 H97 0.941 . S
C111 C110 1.389 . S
C111 C112 1.397 . S
C112 H98 0.939 . S
C112 C111 1.397 . S
C112 C113 1.378 . S
C113 C112 1.378 . S
C113 C114 1.378 . S
C114 H99 0.940 . S
C114 C113 1.378 . S
C114 C115 1.396 . S
C115 H100 0.940 . S
C115 C110 1.391 . S
C115 C114 1.396 . S
C116 P96 1.803 . S
C116 C117 1.378 1_554 S
C116 C121 1.400 . S
C117 H101 0.939 . S
C117 C116 1.378 1_556 S
C117 C118 1.361 . S
C118 H102 0.942 . S
C118 C117 1.361 . S
C118 C119 1.369 . S
C119 C118 1.369 . S
C119 C120 1.404 1_556 S
C120 H103 0.940 . S
C120 C119 1.404 1_554 S
C120 C121 1.389 . S
C121 H104 0.939 . S
C121 C116 1.400 . S
C121 C120 1.389 . S
C122 P96 1.819 1_556 S
C122 C123 1.391 . S
C122 C127 1.391 . S
C123 H105 0.941 1_556 S
C123 C122 1.391 . S
C123 C124 1.396 . S
C124 H108 0.939 . S
C124 C123 1.396 . S
C124 C125 1.397 . S
C125 C124 1.397 . S
C125 C126 1.385 . S
C126 H109 0.940 . S
C126 C125 1.385 . S
C126 C127 1.388 . S
C127 H106 0.939 . S
C127 C122 1.391 . S
C127 C126 1.388 . S
P128 O139 1.490 . S
P128 C142 1.812 . S
P128 C148 1.803 . S
P128 C154 1.819 . S
H129 C143 0.941 . S
H130 C144 0.939 . S
H131 C146 0.940 . S
H132 C147 0.940 . S
H133 C149 0.939 . S
H134 C150 0.942 . S
H135 C152 0.940 . S
H136 C153 0.939 . S
H137 C155 0.941 . S
H138 C159 0.939 . S
O139 P128 1.490 . S
H140 C156 0.939 . S
H141 C158 0.940 . S
C142 P128 1.812 . S
C142 C143 1.389 . S
C142 C147 1.391 . S
C143 H129 0.941 . S
C143 C142 1.389 . S
C143 C144 1.397 1_554 S
C144 H130 0.939 . S
C144 C143 1.397 1_556 S
C144 C145 1.378 . S
C145 C144 1.378 . S
C145 C146 1.378 1_556 S
C146 H131 0.940 . S
C146 C145 1.378 1_554 S
C146 C147 1.396 . S
C147 H132 0.940 . S
C147 C142 1.391 . S
C147 C146 1.396 . S
C148 P128 1.803 . S
C148 C149 1.378 . S
C148 C153 1.400 . S
C149 H133 0.939 . S
C149 C148 1.378 . S
C149 C150 1.361 . S
C150 H134 0.942 . S
C150 C149 1.361 . S
C150 C151 1.369 . S
C151 C150 1.369 . S
C151 C152 1.404 . S
C152 H135 0.940 . S
C152 C151 1.404 . S
C152 C153 1.389 . S
C153 H136 0.939 . S
C153 C148 1.400 . S
C153 C152 1.389 . S
C154 P128 1.819 . S
C154 C155 1.391 . S
C154 C159 1.391 . S
C155 H137 0.941 . S
C155 C154 1.391 . S
C155 C156 1.396 . S
C156 H140 0.939 . S
C156 C155 1.396 . S
C156 C157 1.397 . S
C157 C156 1.397 . S
C157 C158 1.385 . S
C158 H141 0.940 . S
C158 C157 1.385 . S
C158 C159 1.388 . S
C159 H138 0.939 . S
C159 C154 1.391 . S
C159 C158 1.388 . S
P160 O171 1.490 . S
P160 C174 1.812 . S
P160 C180 1.803 . S
P160 C186 1.819 . S
H161 C175 0.941 . S
H162 C176 0.939 . S
H163 C178 0.940 1_556 S
H164 C179 0.944 . S
H165 C181 0.939 . S
H166 C182 0.942 . S
H167 C184 0.940 . S
H168 C185 0.953 . S
H169 C187 0.941 . S
H170 C191 0.932 1_655 S
O171 P160 1.490 . S
H172 C188 0.939 . S
H173 C190 0.940 . S
C174 P160 1.812 . S
C174 C175 1.389 . S
C174 C179 1.385 1_455 S
C175 H161 0.941 . S
C175 C174 1.389 . S
C175 C176 1.397 1_554 S
C176 H162 0.939 . S
C176 C175 1.397 1_556 S
C176 C177 1.378 . S
C177 C176 1.378 . S
C177 C178 1.378 1_456 S
C178 H163 0.940 1_554 S
C178 C177 1.378 1_654 S
C178 C179 1.399 . S
C179 H164 0.944 . S
C179 C174 1.385 1_655 S
C179 C178 1.399 . S
C180 P160 1.803 . S
C180 C181 1.378 . S
C180 C185 1.378 1_455 S
C181 H165 0.939 . S
C181 C180 1.378 . S
C181 C182 1.361 . S
C182 H166 0.942 . S
C182 C181 1.361 . S
C182 C183 1.369 . S
C183 C182 1.369 . S
C183 C184 1.404 1_455 S
C184 H167 0.940 . S
C184 C183 1.404 1_655 S
C184 C185 1.398 . S
C185 H168 0.953 . S
C185 C180 1.378 1_655 S
C185 C184 1.398 . S
C186 P160 1.819 . S
C186 C187 1.391 . S
C186 C191 1.391 . S
C187 H169 0.941 . S
C187 C186 1.391 . S
C187 C188 1.396 . S
C188 H172 0.939 . S
C188 C187 1.396 . S
C188 C189 1.397 . S
C189 C188 1.397 . S
C189 C190 1.385 1_455 S
C190 H173 0.940 . S
C190 C189 1.385 1_655 S
C190 C191 1.388 1_655 S
C191 H170 0.932 1_455 S
C191 C186 1.391 . S
C191 C190 1.388 1_455 S
P192 O203 1.490 . S
P192 C206 1.812 . S
P192 C212 1.803 . S
P192 C218 1.819 . S
H193 C207 0.941 . S
H194 C208 0.939 . S
H195 C210 0.940 . S
H196 C211 0.940 . S
H197 C213 0.939 . S
H198 C214 0.942 . S
H199 C216 0.940 . S
H200 C217 0.939 . S
H201 C219 0.941 . S
H202 C223 0.939 . S
O203 P192 1.490 . S
H204 C220 0.939 . S
H205 C222 0.940 . S
C206 P192 1.812 . S
C206 C207 1.389 . S
C206 C211 1.391 . S
C207 H193 0.941 . S
C207 C206 1.389 . S
C207 C208 1.397 1_554 S
C208 H194 0.939 . S
C208 C207 1.397 1_556 S
C208 C209 1.378 . S
C209 C208 1.378 . S
C209 C210 1.378 1_556 S
C210 H195 0.940 . S
C210 C209 1.378 1_554 S
C210 C211 1.396 . S
C211 H196 0.940 . S
C211 C206 1.391 . S
C211 C210 1.396 . S
C212 P192 1.803 . S
C212 C213 1.378 . S
C212 C217 1.400 . S
C213 H197 0.939 . S
C213 C212 1.378 . S
C213 C214 1.361 . S
C214 H198 0.942 . S
C214 C213 1.361 . S
C214 C215 1.369 . S
C215 C214 1.369 . S
C215 C216 1.404 . S
C216 H199 0.940 . S
C216 C215 1.404 . S
C216 C217 1.389 . S
C217 H200 0.939 . S
C217 C212 1.400 . S
C217 C216 1.389 . S
C218 P192 1.819 . S
C218 C219 1.391 . S
C218 C223 1.391 . S
C219 H201 0.941 . S
C219 C218 1.391 . S
C219 C220 1.396 . S
C220 H204 0.939 . S
C220 C219 1.396 . S
C220 C221 1.397 . S
C221 C220 1.397 . S
C221 C222 1.385 . S
C222 H205 0.940 . S
C222 C221 1.385 . S
C222 C223 1.388 . S
C223 H202 0.939 . S
C223 C218 1.391 . S
C223 C222 1.388 . S
P224 O235 1.490 . S
P224 C238 1.812 . S
P224 C244 1.803 . S
P224 C250 1.819 . S
H225 C239 0.941 . S
H226 C240 0.939 . S
H227 C242 0.940 1_556 S
H228 C243 0.940 . S
H229 C245 0.939 . S
H230 C246 0.942 . S
H231 C248 0.940 . S
H232 C249 0.939 . S
H233 C251 0.941 . S
H234 C255 0.939 . S
O235 P224 1.490 . S
H236 C252 0.939 . S
H237 C254 0.940 . S
C238 P224 1.812 . S
C238 C239 1.389 . S
C238 C243 1.391 . S
C239 H225 0.941 . S
C239 C238 1.389 . S
C239 C240 1.397 1_554 S
C240 H226 0.939 . S
C240 C239 1.397 1_556 S
C240 C241 1.378 . S
C241 C240 1.378 . S
C241 C242 1.368 1_556 S
C242 H227 0.940 1_554 S
C242 C241 1.368 1_554 S
C242 C243 1.406 . S
C243 H228 0.940 . S
C243 C238 1.391 . S
C243 C242 1.406 . S
C244 P224 1.803 . S
C244 C245 1.378 . S
C244 C249 1.400 . S
C245 H229 0.939 . S
C245 C244 1.378 . S
C245 C246 1.361 . S
C246 H230 0.942 . S
C246 C245 1.361 . S
C246 C247 1.369 . S
C247 C246 1.369 . S
C247 C248 1.404 . S
C248 H231 0.940 . S
C248 C247 1.404 . S
C248 C249 1.389 . S
C249 H232 0.939 . S
C249 C244 1.400 . S
C249 C248 1.389 . S
C250 P224 1.819 . S
C250 C251 1.391 . S
C250 C255 1.391 . S
C251 H233 0.941 . S
C251 C250 1.391 . S
C251 C252 1.396 . S
C252 H236 0.939 . S
C252 C251 1.396 . S
C252 C253 1.397 . S
C253 C252 1.397 . S
C253 C254 1.385 . S
C254 H237 0.940 . S
C254 C253 1.385 . S
C254 C255 1.388 . S
C255 H234 0.939 . S
C255 C250 1.391 . S
C255 C254 1.388 . S
Zn256 O262 1.969 . S
Zn256 O263 1.965 1_655 S
Zn256 O267 2.024 1_655 S
Zn256 O272 1.969 . S
Zn257 O264 1.969 . S
Zn257 O270 1.969 . S
Zn257 O271 1.965 1_455 S
Zn257 O273 2.024 1_455 S
C258 O259 1.229 1_455 S
C258 O267 1.058 . S
O259 C258 1.229 1_655 S
C260 O261 1.229 1_655 S
C260 O273 1.058 . S
O261 C260 1.229 1_455 S
O262 Zn256 1.969 . S
O262 C265 1.267 . S
O263 Zn256 1.965 1_455 S
O263 C274 1.260 . S
O264 Zn257 1.969 . S
O264 C274 1.258 1_565 S
C265 O262 1.267 . S
C265 O266 1.228 1_655 S
O266 C265 1.228 1_455 S
O267 Zn256 2.024 1_455 S
O267 C258 1.058 . S
C268 O269 1.228 1_455 S
C268 O270 1.267 . S
O269 C268 1.228 1_655 S
O270 Zn257 1.969 . S
O270 C268 1.267 . S
O271 Zn257 1.965 1_655 S
O271 C275 1.260 1_565 S
O272 Zn256 1.969 . S
O272 C275 1.258 . S
O273 Zn257 2.024 1_655 S
O273 C260 1.058 . S
C274 O263 1.260 . S
C274 O264 1.258 1_545 S
C275 O271 1.260 1_545 S
C275 O272 1.258 . S
Zn276 O282 1.977 . S
Zn276 O283 1.965 . S
Zn276 O287 2.024 . S
Zn276 O292 1.969 1_545 S
Zn277 O284 1.969 1_565 S
Zn277 O290 1.969 1_565 S
Zn277 O291 1.965 . S
Zn277 O293 2.024 . S
C278 O279 1.229 . S
C278 O287 1.058 . S
O279 C278 1.229 . S
C280 O281 1.229 . S
C280 O293 1.058 . S
O281 C280 1.229 . S
O282 Zn276 1.977 . S
O282 C285 1.287 . S
O283 Zn276 1.965 . S
O283 C294 1.260 . S
O284 Zn277 1.969 1_545 S
O284 C294 1.258 . S
C285 O282 1.287 . S
C285 O286 1.228 . S
O286 C285 1.228 . S
O287 Zn276 2.024 . S
O287 C278 1.058 . S
C288 O289 1.228 . S
C288 O290 1.267 1_565 S
O289 C288 1.228 . S
O290 Zn277 1.969 1_545 S
O290 C288 1.267 1_545 S
O291 Zn277 1.965 . S
O291 C295 1.260 . S
O292 Zn276 1.969 1_565 S
O292 C295 1.258 . S
O293 Zn277 2.024 . S
O293 C280 1.058 . S
C294 O283 1.260 . S
C294 O284 1.258 . S
C295 O291 1.260 . S
C295 O292 1.258 . S
Zn296 O302 1.969 . S
Zn296 O303 1.965 . S
Zn296 O307 2.024 . S
Zn296 O312 1.969 . S
Zn297 O304 1.969 . S
Zn297 O310 1.969 . S
Zn297 O311 1.965 . S
Zn297 O313 2.024 . S
C298 O299 1.229 . S
C298 O307 1.058 . S
O299 C298 1.229 . S
C300 O301 1.229 . S
C300 O313 1.058 . S
O301 C300 1.229 . S
O302 Zn296 1.969 . S
O302 C305 1.267 . S
O303 Zn296 1.965 . S
O303 C314 1.260 . S
O304 Zn297 1.969 . S
O304 C314 1.258 . S
C305 O302 1.267 . S
C305 O306 1.228 . S
O306 C305 1.228 . S
O307 Zn296 2.024 . S
O307 C298 1.058 . S
C308 O309 1.228 . S
C308 O310 1.267 . S
O309 C308 1.228 . S
O310 Zn297 1.969 . S
O310 C308 1.267 . S
O311 Zn297 1.965 . S
O311 C315 1.260 . S
O312 Zn296 1.969 . S
O312 C315 1.258 . S
O313 Zn297 2.024 . S
O313 C300 1.058 . S
C314 O303 1.260 . S
C314 O304 1.258 . S
C315 O311 1.260 . S
C315 O312 1.258 . S
Zn316 O322 1.969 . S
Zn316 O323 1.965 . S
Zn316 O327 2.024 . S
Zn316 O332 1.969 . S
Zn317 O324 1.969 . S
Zn317 O330 1.969 . S
Zn317 O331 1.965 . S
Zn317 O333 2.024 . S
C318 O319 1.229 . S
C318 O327 1.058 . S
O319 C318 1.229 . S
C320 O321 1.229 . S
C320 O333 1.058 . S
O321 C320 1.229 . S
O322 Zn316 1.969 . S
O322 C325 1.267 . S
O323 Zn316 1.965 . S
O323 C334 1.260 1_455 S
O324 Zn317 1.969 . S
O324 C334 1.258 . S
C325 O322 1.267 . S
C325 O326 1.228 . S
O326 C325 1.228 . S
O327 Zn316 2.024 . S
O327 C318 1.058 . S
C328 O329 1.228 . S
C328 O330 1.267 . S
O329 C328 1.228 . S
O330 Zn317 1.969 . S
O330 C328 1.267 . S
O331 Zn317 1.965 . S
O331 C335 1.260 1_655 S
O332 Zn316 1.969 . S
O332 C335 1.258 . S
O333 Zn317 2.024 . S
O333 C320 1.058 . S
C334 O323 1.260 1_655 S
C334 O324 1.258 . S
C335 O331 1.260 1_455 S
C335 O332 1.258 . S
H336 C348 0.930 . S
H337 C350 0.930 . S
H338 C351 0.930 . S
H339 C355 0.959 . S
H340 C355 0.959 . S
H341 C355 0.961 . S
H342 C356 0.960 . S
H343 C356 0.961 . S
H344 C356 0.959 . S
H345 C359 0.929 1_565 S
H346 C360 0.912 1_565 S
H347 C362 0.930 . S
C348 H336 0.930 . S
C348 C349 1.399 . S
C348 C353 1.399 . S
C349 C348 1.399 . S
C349 C350 1.376 . S
C350 H337 0.930 . S
C350 C349 1.376 . S
C350 C351 1.388 . S
C351 H338 0.930 . S
C351 C350 1.388 . S
C351 C352 1.390 . S
C352 C351 1.390 . S
C352 C353 1.394 . S
C352 C358 1.465 . S
C353 C348 1.399 . S
C353 C352 1.394 . S
C353 C354 1.516 . S
C354 C353 1.516 . S
C354 C355 1.502 . S
C354 C356 1.561 . S
C354 C357 1.526 . S
C355 H339 0.959 . S
C355 H340 0.959 . S
C355 H341 0.961 . S
C355 C354 1.502 . S
C356 H342 0.960 . S
C356 H343 0.961 . S
C356 H344 0.959 . S
C356 C354 1.561 . S
C357 C354 1.526 . S
C357 C358 1.396 . S
C357 C362 1.390 . S
C358 C352 1.465 . S
C358 C357 1.396 . S
C358 C359 1.399 . S
C359 H345 0.929 1_545 S
C359 C358 1.399 . S
C359 C360 1.388 . S
C360 H346 0.912 1_545 S
C360 C359 1.388 . S
C360 C361 1.405 . S
C361 C360 1.405 . S
C361 C362 1.387 . S
C362 H347 0.930 . S
C362 C357 1.390 . S
C362 C361 1.387 . S
H363 C375 0.930 . S
H364 C377 0.930 . S
H365 C378 0.930 . S
H366 C382 0.959 . S
H367 C382 0.959 . S
H368 C382 0.961 . S
H369 C383 0.960 . S
H370 C383 0.961 . S
H371 C383 0.959 . S
H372 C386 0.929 . S
H373 C387 0.931 . S
H374 C389 0.930 . S
C375 H363 0.930 . S
C375 C376 1.399 . S
C375 C380 1.399 . S
C376 C375 1.399 . S
C376 C377 1.376 . S
C377 H364 0.930 . S
C377 C376 1.376 . S
C377 C378 1.388 . S
C378 H365 0.930 . S
C378 C377 1.388 . S
C378 C379 1.390 . S
C379 C378 1.390 . S
C379 C380 1.394 . S
C379 C385 1.465 . S
C380 C375 1.399 . S
C380 C379 1.394 . S
C380 C381 1.516 . S
C381 C380 1.516 . S
C381 C382 1.502 . S
C381 C383 1.561 . S
C381 C384 1.526 . S
C382 H366 0.959 . S
C382 H367 0.959 . S
C382 H368 0.961 . S
C382 C381 1.502 . S
C383 H369 0.960 . S
C383 H370 0.961 . S
C383 H371 0.959 . S
C383 C381 1.561 . S
C384 C381 1.526 . S
C384 C385 1.396 . S
C384 C389 1.390 . S
C385 C379 1.465 . S
C385 C384 1.396 . S
C385 C386 1.399 . S
C386 H372 0.929 . S
C386 C385 1.399 . S
C386 C387 1.385 . S
C387 H373 0.931 . S
C387 C386 1.385 . S
C387 C388 1.389 . S
C388 C387 1.389 . S
C388 C389 1.387 . S
C389 H374 0.930 . S
C389 C384 1.390 . S
C389 C388 1.387 . S
H390 C402 0.930 . S
H391 C404 0.930 . S
H392 C405 0.930 . S
H393 C409 0.959 . S
H394 C409 0.959 . S
H395 C409 0.961 . S
H396 C410 0.960 . S
H397 C410 0.961 . S
H398 C410 0.959 . S
H399 C413 0.929 . S
H400 C414 0.931 . S
H401 C416 0.930 . S
C402 H390 0.930 . S
C402 C403 1.399 . S
C402 C407 1.399 . S
C403 C402 1.399 . S
C403 C404 1.376 . S
C404 H391 0.930 . S
C404 C403 1.376 . S
C404 C405 1.388 . S
C405 H392 0.930 . S
C405 C404 1.388 . S
C405 C406 1.390 . S
C406 C405 1.390 . S
C406 C407 1.394 . S
C406 C412 1.465 . S
C407 C402 1.399 . S
C407 C406 1.394 . S
C407 C408 1.516 . S
C408 C407 1.516 . S
C408 C409 1.502 . S
C408 C410 1.561 . S
C408 C411 1.526 . S
C409 H393 0.959 . S
C409 H394 0.959 . S
C409 H395 0.961 . S
C409 C408 1.502 . S
C410 H396 0.960 . S
C410 H397 0.961 . S
C410 H398 0.959 . S
C410 C408 1.561 . S
C411 C408 1.526 . S
C411 C412 1.396 . S
C411 C416 1.390 . S
C412 C406 1.465 . S
C412 C411 1.396 . S
C412 C413 1.399 . S
C413 H399 0.929 . S
C413 C412 1.399 . S
C413 C414 1.385 . S
C414 H400 0.931 . S
C414 C413 1.385 . S
C414 C415 1.389 . S
C415 C414 1.389 . S
C415 C416 1.387 . S
C416 H401 0.930 . S
C416 C411 1.390 . S
C416 C415 1.387 . S
H417 C429 0.930 . S
H418 C431 0.930 . S
H419 C432 0.930 . S
H420 C436 0.959 . S
H421 C436 0.959 . S
H422 C436 0.961 . S
H423 C437 0.960 . S
H424 C437 0.961 . S
H425 C437 0.959 1_455 S
H426 C440 0.929 . S
H427 C441 0.931 . S
H428 C443 0.930 . S
C429 H417 0.930 . S
C429 C430 1.399 1_655 S
C429 C434 1.399 . S
C430 C429 1.399 1_455 S
C430 C431 1.376 . S
C431 H418 0.930 . S
C431 C430 1.376 . S
C431 C432 1.388 . S
C432 H419 0.930 . S
C432 C431 1.388 . S
C432 C433 1.390 . S
C433 C432 1.390 . S
C433 C434 1.394 1_455 S
C433 C439 1.465 . S
C434 C429 1.399 . S
C434 C433 1.394 1_655 S
C434 C435 1.516 . S
C435 C434 1.516 . S
C435 C436 1.502 . S
C435 C437 1.561 . S
C435 C438 1.526 . S
C436 H420 0.959 . S
C436 H421 0.959 . S
C436 H422 0.961 . S
C436 C435 1.502 . S
C437 H423 0.960 . S
C437 H424 0.961 . S
C437 H425 0.959 1_655 S
C437 C435 1.561 . S
C438 C435 1.526 . S
C438 C439 1.396 1_655 S
C438 C443 1.390 . S
C439 C433 1.465 . S
C439 C438 1.396 1_455 S
C439 C440 1.399 . S
C440 H426 0.929 . S
C440 C439 1.399 . S
C440 C441 1.385 . S
C441 H427 0.931 . S
C441 C440 1.385 . S
C441 C442 1.389 1_455 S
C442 C441 1.389 1_655 S
C442 C443 1.387 . S
C443 H428 0.930 . S
C443 C438 1.390 . S
C443 C442 1.387 . S
H444 C456 0.930 . S
H445 C458 0.930 . S
H446 C459 0.947 . S
H447 C463 0.959 . S
H448 C463 0.959 . S
H449 C463 0.961 . S
H450 C464 0.960 . S
H451 C464 0.961 . S
H452 C464 0.959 . S
H453 C467 0.929 . S
H454 C468 0.931 . S
H455 C470 0.930 . S
C456 H444 0.930 . S
C456 C457 1.399 . S
C456 C461 1.399 . S
C457 C456 1.399 . S
C457 C458 1.376 . S
C458 H445 0.930 . S
C458 C457 1.376 . S
C458 C459 1.388 . S
C459 H446 0.947 . S
C459 C458 1.388 . S
C459 C460 1.390 . S
C460 C459 1.390 . S
C460 C461 1.394 . S
C460 C466 1.465 . S
C461 C456 1.399 . S
C461 C460 1.394 . S
C461 C462 1.516 . S
C462 C461 1.516 . S
C462 C463 1.502 . S
C462 C464 1.561 . S
C462 C465 1.526 . S
C463 H447 0.959 . S
C463 H448 0.959 . S
C463 H449 0.961 . S
C463 C462 1.502 . S
C464 H450 0.960 . S
C464 H451 0.961 . S
C464 H452 0.959 . S
C464 C462 1.561 . S
C465 C462 1.526 . S
C465 C466 1.396 . S
C465 C470 1.390 . S
C466 C460 1.465 . S
C466 C465 1.396 . S
C466 C467 1.399 1_565 S
C467 H453 0.929 . S
C467 C466 1.399 1_545 S
C467 C468 1.385 . S
C468 H454 0.931 . S
C468 C467 1.385 . S
C468 C469 1.389 1_545 S
C469 C468 1.389 1_565 S
C469 C470 1.387 . S
C470 H455 0.930 . S
C470 C465 1.390 . S
C470 C469 1.387 . S
H471 C483 0.930 . S
H472 C485 0.930 . S
H473 C486 0.930 . S
H474 C490 0.959 . S
H475 C490 0.959 . S
H476 C490 0.961 . S
H477 C491 0.960 . S
H478 C491 0.961 . S
H479 C491 0.959 . S
H480 C494 0.929 . S
H481 C495 0.931 . S
H482 C497 0.930 . S
C483 H471 0.930 . S
C483 C484 1.399 . S
C483 C488 1.399 . S
C484 C483 1.399 . S
C484 C485 1.376 . S
C485 H472 0.930 . S
C485 C484 1.376 . S
C485 C486 1.388 . S
C486 H473 0.930 . S
C486 C485 1.388 . S
C486 C487 1.390 . S
C487 C486 1.390 . S
C487 C488 1.394 . S
C487 C493 1.465 . S
C488 C483 1.399 . S
C488 C487 1.394 . S
C488 C489 1.516 . S
C489 C488 1.516 . S
C489 C490 1.502 . S
C489 C491 1.561 . S
C489 C492 1.526 . S
C490 H474 0.959 . S
C490 H475 0.959 . S
C490 H476 0.961 . S
C490 C489 1.502 . S
C491 H477 0.960 . S
C491 H478 0.961 . S
C491 H479 0.959 . S
C491 C489 1.561 . S
C492 C489 1.526 . S
C492 C493 1.396 . S
C492 C497 1.390 . S
C493 C487 1.465 . S
C493 C492 1.396 . S
C493 C494 1.399 . S
C494 H480 0.929 . S
C494 C493 1.399 . S
C494 C495 1.385 . S
C495 H481 0.931 . S
C495 C494 1.385 . S
C495 C496 1.389 . S
C496 C495 1.389 . S
C496 C497 1.387 . S
C497 H482 0.930 . S
C497 C492 1.390 . S
C497 C496 1.387 . S
H498 C510 0.930 . S
H499 C512 0.930 . S
H500 C513 0.930 . S
H501 C517 0.959 . S
H502 C517 0.959 . S
H503 C517 0.961 . S
H504 C518 0.960 . S
H505 C518 0.961 . S
H506 C518 0.959 . S
H507 C521 0.929 . S
H508 C522 0.931 . S
H509 C524 0.930 . S
C510 H498 0.930 . S
C510 C511 1.399 . S
C510 C515 1.399 . S
C511 C510 1.399 . S
C511 C512 1.376 . S
C512 H499 0.930 . S
C512 C511 1.376 . S
C512 C513 1.388 . S
C513 H500 0.930 . S
C513 C512 1.388 . S
C513 C514 1.390 . S
C514 C513 1.390 . S
C514 C515 1.394 . S
C514 C520 1.465 . S
C515 C510 1.399 . S
C515 C514 1.394 . S
C515 C516 1.516 . S
C516 C515 1.516 . S
C516 C517 1.502 . S
C516 C518 1.561 . S
C516 C519 1.526 . S
C517 H501 0.959 . S
C517 H502 0.959 . S
C517 H503 0.961 . S
C517 C516 1.502 . S
C518 H504 0.960 . S
C518 H505 0.961 . S
C518 H506 0.959 . S
C518 C516 1.561 . S
C519 C516 1.526 . S
C519 C520 1.396 . S
C519 C524 1.390 . S
C520 C514 1.465 . S
C520 C519 1.396 . S
C520 C521 1.399 . S
C521 H507 0.929 . S
C521 C520 1.399 . S
C521 C522 1.385 . S
C522 H508 0.931 . S
C522 C521 1.385 . S
C522 C523 1.389 . S
C523 C522 1.389 . S
C523 C524 1.387 . S
C524 H509 0.930 . S
C524 C519 1.390 . S
C524 C523 1.387 . S
H525 C537 0.930 . S
H526 C539 0.930 . S
H527 C540 0.930 . S
H528 C544 0.959 . S
H529 C544 0.959 . S
H530 C544 0.961 . S
H531 C545 0.960 . S
H532 C545 0.961 . S
H533 C545 0.959 . S
H534 C548 0.929 . S
H535 C549 0.931 . S
H536 C551 0.930 . S
C537 H525 0.930 . S
C537 C538 1.399 1_455 S
C537 C542 1.399 . S
C538 C537 1.399 1_655 S
C538 C539 1.376 . S
C539 H526 0.930 . S
C539 C538 1.376 . S
C539 C540 1.388 . S
C540 H527 0.930 . S
C540 C539 1.388 . S
C540 C541 1.390 . S
C541 C540 1.390 . S
C541 C542 1.394 1_655 S
C541 C547 1.465 . S
C542 C537 1.399 . S
C542 C541 1.394 1_455 S
C542 C543 1.516 . S
C543 C542 1.516 . S
C543 C544 1.502 . S
C543 C545 1.561 . S
C543 C546 1.526 . S
C544 H528 0.959 . S
C544 H529 0.959 . S
C544 H530 0.961 . S
C544 C543 1.502 . S
C545 H531 0.960 . S
C545 H532 0.961 . S
C545 H533 0.959 . S
C545 C543 1.561 . S
C546 C543 1.526 . S
C546 C547 1.396 1_455 S
C546 C551 1.390 . S
C547 C541 1.465 . S
C547 C546 1.396 1_655 S
C547 C548 1.399 . S
C548 H534 0.929 . S
C548 C547 1.399 . S
C548 C549 1.385 . S
C549 H535 0.931 . S
C549 C548 1.385 . S
C549 C550 1.389 1_655 S
C550 C549 1.389 1_455 S
C550 C551 1.387 . S
C551 H536 0.930 . S
C551 C546 1.390 . S
C551 C550 1.387 . S
H552 C564 0.930 . S
H553 C566 0.930 . S
H554 C567 0.930 . S
H555 C571 0.959 . S
H556 C571 0.959 . S
H557 C571 0.961 . S
H558 C572 0.960 . S
H559 C572 0.961 . S
H560 C572 0.959 . S
H561 C575 0.929 . S
H562 C576 0.931 . S
H563 C578 0.930 . S
C564 H552 0.930 . S
C564 C565 1.399 1_655 S
C564 C569 1.399 . S
C565 C564 1.399 1_455 S
C565 C566 1.376 . S
C566 H553 0.930 . S
C566 C565 1.376 . S
C566 C567 1.388 . S
C567 H554 0.930 . S
C567 C566 1.388 . S
C567 C568 1.390 . S
C568 C567 1.390 . S
C568 C569 1.394 1_455 S
C568 C574 1.465 . S
C569 C564 1.399 . S
C569 C568 1.394 1_655 S
C569 C570 1.516 . S
C570 C569 1.516 . S
C570 C571 1.502 . S
C570 C572 1.561 . S
C570 C573 1.526 . S
C571 H555 0.959 . S
C571 H556 0.959 . S
C571 H557 0.961 . S
C571 C570 1.502 . S
C572 H558 0.960 . S
C572 H559 0.961 . S
C572 H560 0.959 . S
C572 C570 1.561 . S
C573 C570 1.526 . S
C573 C574 1.397 1_655 S
C573 C578 1.390 . S
C574 C568 1.465 . S
C574 C573 1.397 1_455 S
C574 C575 1.398 . S
C575 H561 0.929 . S
C575 C574 1.398 . S
C575 C576 1.385 . S
C576 H562 0.931 . S
C576 C575 1.385 . S
C576 C577 1.389 1_455 S
C577 C576 1.389 1_655 S
C577 C578 1.387 . S
C578 H563 0.930 . S
C578 C573 1.390 . S
C578 C577 1.387 . S
H579 C591 0.930 . S
H580 C593 0.930 . S
H581 C594 0.930 . S
H582 C598 0.959 . S
H583 C598 0.959 . S
H584 C598 0.961 . S
H585 C599 0.960 . S
H586 C599 0.961 . S
H587 C599 0.959 . S
H588 C602 0.929 . S
H589 C603 0.931 . S
H590 C605 0.930 . S
C591 H579 0.930 . S
C591 C592 1.399 . S
C591 C596 1.399 . S
C592 C591 1.399 . S
C592 C593 1.376 . S
C593 H580 0.930 . S
C593 C592 1.376 . S
C593 C594 1.388 . S
C594 H581 0.930 . S
C594 C593 1.388 . S
C594 C595 1.390 . S
C595 C594 1.390 . S
C595 C596 1.394 . S
C595 C601 1.465 . S
C596 C591 1.399 . S
C596 C595 1.394 . S
C596 C597 1.516 . S
C597 C596 1.516 . S
C597 C598 1.502 . S
C597 C599 1.561 . S
C597 C600 1.526 . S
C598 H582 0.959 . S
C598 H583 0.959 . S
C598 H584 0.961 . S
C598 C597 1.502 . S
C599 H585 0.960 . S
C599 H586 0.961 . S
C599 H587 0.959 . S
C599 C597 1.561 . S
C600 C597 1.526 . S
C600 C601 1.396 . S
C600 C605 1.390 . S
C601 C595 1.465 . S
C601 C600 1.396 . S
C601 C602 1.399 . S
C602 H588 0.929 . S
C602 C601 1.399 . S
C602 C603 1.385 . S
C603 H589 0.931 . S
C603 C602 1.385 . S
C603 C604 1.389 . S
C604 C603 1.389 . S
C604 C605 1.387 . S
C605 H590 0.930 . S
C605 C600 1.390 . S
C605 C604 1.387 . S
H606 C618 0.930 . S
H607 C620 0.930 . S
H608 C621 0.930 . S
H609 C625 0.959 . S
H610 C625 0.959 . S
H611 C625 0.961 . S
H612 C626 0.960 . S
H613 C626 0.961 . S
H614 C626 0.959 . S
H615 C629 0.929 . S
H616 C630 0.931 . S
H617 C632 0.930 . S
C618 H606 0.930 . S
C618 C619 1.399 . S
C618 C623 1.399 . S
C619 C618 1.399 . S
C619 C620 1.376 . S
C620 H607 0.930 . S
C620 C619 1.376 . S
C620 C621 1.388 . S
C621 H608 0.930 . S
C621 C620 1.388 . S
C621 C622 1.390 . S
C622 C621 1.390 . S
C622 C623 1.394 . S
C622 C628 1.465 . S
C623 C618 1.399 . S
C623 C622 1.394 . S
C623 C624 1.516 . S
C624 C623 1.516 . S
C624 C625 1.502 . S
C624 C626 1.561 . S
C624 C627 1.526 . S
C625 H609 0.959 . S
C625 H610 0.959 . S
C625 H611 0.961 . S
C625 C624 1.502 . S
C626 H612 0.960 . S
C626 H613 0.961 . S
C626 H614 0.959 . S
C626 C624 1.561 . S
C627 C624 1.526 . S
C627 C628 1.396 . S
C627 C632 1.390 . S
C628 C622 1.465 . S
C628 C627 1.396 . S
C628 C629 1.399 . S
C629 H615 0.929 . S
C629 C628 1.399 . S
C629 C630 1.385 . S
C630 H616 0.931 . S
C630 C629 1.385 . S
C630 C631 1.389 . S
C631 C630 1.389 . S
C631 C632 1.387 . S
C632 H617 0.930 . S
C632 C627 1.390 . S
C632 C631 1.387 . S
H633 C645 0.930 . S
H634 C647 0.930 . S
H635 C648 0.930 . S
H636 C652 0.959 . S
H637 C652 0.959 . S
H638 C652 0.961 . S
H639 C653 0.960 . S
H640 C653 0.961 . S
H641 C653 0.959 . S
H642 C656 0.929 . S
H643 C657 0.931 . S
H644 C659 0.930 . S
C645 H633 0.930 . S
C645 C646 1.399 . S
C645 C650 1.399 . S
C646 C645 1.399 . S
C646 C647 1.376 . S
C647 H634 0.930 . S
C647 C646 1.376 . S
C647 C648 1.388 . S
C648 H635 0.930 . S
C648 C647 1.388 . S
C648 C649 1.390 . S
C649 C648 1.390 . S
C649 C650 1.394 . S
C649 C655 1.465 . S
C650 C645 1.399 . S
C650 C649 1.394 . S
C650 C651 1.516 . S
C651 C650 1.516 . S
C651 C652 1.502 . S
C651 C653 1.561 . S
C651 C654 1.526 . S
C652 H636 0.959 . S
C652 H637 0.959 . S
C652 H638 0.961 . S
C652 C651 1.502 . S
C653 H639 0.960 . S
C653 H640 0.961 . S
C653 H641 0.959 . S
C653 C651 1.561 . S
C654 C651 1.526 . S
C654 C655 1.396 . S
C654 C659 1.390 . S
C655 C649 1.465 . S
C655 C654 1.396 . S
C655 C656 1.399 . S
C656 H642 0.929 . S
C656 C655 1.399 . S
C656 C657 1.385 . S
C657 H643 0.931 . S
C657 C656 1.385 . S
C657 C658 1.389 . S
C658 C657 1.389 . S
C658 C659 1.387 . S
C659 H644 0.930 . S
C659 C654 1.390 . S
C659 C658 1.387 . S
H660 C672 0.930 . S
H661 C674 0.930 . S
H662 C675 0.930 . S
H663 C679 0.959 . S
H664 C679 0.959 . S
H665 C679 0.961 . S
H666 C680 0.960 . S
H667 C680 0.961 . S
H668 C680 0.959 . S
H669 C683 0.929 . S
H670 C684 0.931 . S
H671 C686 0.930 . S
C672 H660 0.930 . S
C672 C673 1.399 1_455 S
C672 C677 1.399 . S
C673 C672 1.399 1_655 S
C673 C674 1.376 . S
C674 H661 0.930 . S
C674 C673 1.376 . S
C674 C675 1.388 . S
C675 H662 0.930 . S
C675 C674 1.388 . S
C675 C676 1.390 . S
C676 C675 1.390 . S
C676 C677 1.394 1_655 S
C676 C682 1.465 . S
C677 C672 1.399 . S
C677 C676 1.394 1_455 S
C677 C678 1.516 . S
C678 C677 1.516 . S
C678 C679 1.502 . S
C678 C680 1.561 . S
C678 C681 1.526 . S
C679 H663 0.959 . S
C679 H664 0.959 . S
C679 H665 0.961 . S
C679 C678 1.502 . S
C680 H666 0.960 . S
C680 H667 0.961 . S
C680 H668 0.959 . S
C680 C678 1.561 . S
C681 C678 1.526 . S
C681 C682 1.396 1_455 S
C681 C686 1.390 . S
C682 C676 1.465 . S
C682 C681 1.396 1_655 S
C682 C683 1.399 . S
C683 H669 0.929 . S
C683 C682 1.399 . S
C683 C684 1.385 . S
C684 H670 0.931 . S
C684 C683 1.385 . S
C684 C685 1.389 1_655 S
C685 C684 1.389 1_455 S
C685 C686 1.387 . S
C686 H671 0.930 . S
C686 C681 1.390 . S
C686 C685 1.387 . S
H687 C699 0.930 . S
H688 C701 0.930 . S
H689 C702 0.930 . S
H690 C706 0.959 . S
H691 C706 0.959 . S
H692 C706 0.961 . S
H693 C707 0.960 . S
H694 C707 0.961 . S
H695 C707 0.959 . S
H696 C710 0.929 . S
H697 C711 0.931 . S
H698 C713 0.930 1_545 S
C699 H687 0.930 . S
C699 C700 1.399 . S
C699 C704 1.399 . S
C700 C699 1.399 . S
C700 C701 1.376 . S
C701 H688 0.930 . S
C701 C700 1.376 . S
C701 C702 1.388 . S
C702 H689 0.930 . S
C702 C701 1.388 . S
C702 C703 1.390 . S
C703 C702 1.390 . S
C703 C704 1.394 . S
C703 C709 1.465 . S
C704 C699 1.399 . S
C704 C703 1.394 . S
C704 C705 1.516 . S
C705 C704 1.516 . S
C705 C706 1.502 . S
C705 C707 1.561 1_565 S
C705 C708 1.526 . S
C706 H690 0.959 . S
C706 H691 0.959 . S
C706 H692 0.961 . S
C706 C705 1.502 . S
C707 H693 0.960 . S
C707 H694 0.961 . S
C707 H695 0.959 . S
C707 C705 1.561 1_545 S
C708 C705 1.526 . S
C708 C709 1.396 . S
C708 C713 1.390 . S
C709 C703 1.465 . S
C709 C708 1.396 . S
C709 C710 1.399 . S
C710 H696 0.929 . S
C710 C709 1.399 . S
C710 C711 1.385 . S
C711 H697 0.931 . S
C711 C710 1.385 . S
C711 C712 1.389 . S
C712 C711 1.389 . S
C712 C713 1.387 . S
C713 H698 0.930 1_565 S
C713 C708 1.390 . S
C713 C712 1.387 . S
H714 C726 0.930 . S
H715 C728 0.930 . S
H716 C729 0.930 . S
H717 C733 0.959 . S
H718 C733 0.959 . S
H719 C733 0.961 . S
H720 C734 0.960 . S
H721 C734 0.961 . S
H722 C734 0.959 . S
H723 C737 0.929 . S
H724 C738 0.931 . S
H725 C740 0.930 . S
C726 H714 0.930 . S
C726 C727 1.399 . S
C726 C731 1.399 . S
C727 C726 1.399 . S
C727 C728 1.376 . S
C728 H715 0.930 . S
C728 C727 1.376 . S
C728 C729 1.388 . S
C729 H716 0.930 . S
C729 C728 1.388 . S
C729 C730 1.390 . S
C730 C729 1.390 . S
C730 C731 1.394 . S
C730 C736 1.465 . S
C731 C726 1.399 . S
C731 C730 1.394 . S
C731 C732 1.516 . S
C732 C731 1.516 . S
C732 C733 1.502 . S
C732 C734 1.561 . S
C732 C735 1.526 . S
C733 H717 0.959 . S
C733 H718 0.959 . S
C733 H719 0.961 . S
C733 C732 1.502 . S
C734 H720 0.960 . S
C734 H721 0.961 . S
C734 H722 0.959 . S
C734 C732 1.561 . S
C735 C732 1.526 . S
C735 C736 1.396 . S
C735 C740 1.390 . S
C736 C730 1.465 . S
C736 C735 1.396 . S
C736 C737 1.399 . S
C737 H723 0.929 . S
C737 C736 1.399 . S
C737 C738 1.385 . S
C738 H724 0.931 . S
C738 C737 1.385 . S
C738 C739 1.389 . S
C739 C738 1.389 . S
C739 C740 1.387 . S
C740 H725 0.930 . S
C740 C735 1.390 . S
C740 C739 1.387 . S
H741 C753 0.930 . S
H742 C755 0.930 . S
H743 C756 0.930 . S
H744 C760 0.959 . S
H745 C760 0.959 . S
H746 C760 0.961 . S
H747 C761 0.960 . S
H748 C761 0.961 . S
H749 C761 0.959 . S
H750 C764 0.929 . S
H751 C765 0.931 . S
H752 C767 0.930 . S
C753 H741 0.930 . S
C753 C754 1.399 . S
C753 C758 1.399 . S
C754 C753 1.399 . S
C754 C755 1.376 . S
C755 H742 0.930 . S
C755 C754 1.376 . S
C755 C756 1.388 . S
C756 H743 0.930 . S
C756 C755 1.388 . S
C756 C757 1.390 . S
C757 C756 1.390 . S
C757 C758 1.394 . S
C757 C763 1.465 . S
C758 C753 1.399 . S
C758 C757 1.394 . S
C758 C759 1.516 . S
C759 C758 1.516 . S
C759 C760 1.502 . S
C759 C761 1.561 . S
C759 C762 1.526 . S
C760 H744 0.959 . S
C760 H745 0.959 . S
C760 H746 0.961 . S
C760 C759 1.502 . S
C761 H747 0.960 . S
C761 H748 0.961 . S
C761 H749 0.959 . S
C761 C759 1.561 . S
C762 C759 1.526 . S
C762 C763 1.396 . S
C762 C767 1.390 . S
C763 C757 1.465 . S
C763 C762 1.396 . S
C763 C764 1.399 . S
C764 H750 0.929 . S
C764 C763 1.399 . S
C764 C765 1.385 . S
C765 H751 0.931 . S
C765 C764 1.385 . S
C765 C766 1.389 . S
C766 C765 1.389 . S
C766 C767 1.387 . S
C767 H752 0.930 . S
C767 C762 1.390 . S
C767 C766 1.387 . S
H768 C780 0.930 . S
H769 C782 0.930 . S
H770 C783 0.930 . S
H771 C787 0.959 . S
H772 C787 0.959 . S
H773 C787 0.961 . S
H774 C788 0.960 . S
H775 C788 0.961 . S
H776 C788 0.959 . S
H777 C791 0.929 . S
H778 C792 0.931 . S
H779 C794 0.930 . S
C780 H768 0.930 . S
C780 C781 1.399 . S
C780 C785 1.399 . S
C781 C780 1.399 . S
C781 C782 1.376 . S
C782 H769 0.930 . S
C782 C781 1.376 . S
C782 C783 1.388 . S
C783 H770 0.930 . S
C783 C782 1.388 . S
C783 C784 1.390 . S
C784 C783 1.390 . S
C784 C785 1.394 . S
C784 C790 1.465 . S
C785 C780 1.399 . S
C785 C784 1.394 . S
C785 C786 1.516 . S
C786 C785 1.516 . S
C786 C787 1.502 1_455 S
C786 C788 1.561 . S
C786 C789 1.526 . S
C787 H771 0.959 . S
C787 H772 0.959 . S
C787 H773 0.961 . S
C787 C786 1.502 1_655 S
C788 H774 0.960 . S
C788 H775 0.961 . S
C788 H776 0.959 . S
C788 C786 1.561 . S
C789 C786 1.526 . S
C789 C790 1.396 . S
C789 C794 1.390 . S
C790 C784 1.465 . S
C790 C789 1.396 . S
C790 C791 1.399 . S
C791 H777 0.929 . S
C791 C790 1.399 . S
C791 C792 1.385 . S
C792 H778 0.931 . S
C792 C791 1.385 . S
C792 C793 1.389 . S
C793 C792 1.389 . S
C793 C794 1.387 . S
C794 H779 0.930 . S
C794 C789 1.390 . S
C794 C793 1.387 . S
H795 C807 0.930 . S
H796 C809 0.930 . S
H797 C810 0.930 . S
H798 C814 0.959 . S
H799 C814 0.959 . S
H800 C814 0.961 . S
H801 C815 0.960 . S
H802 C815 0.961 . S
H803 C815 0.959 . S
H804 C818 0.929 . S
H805 C819 0.931 . S
H806 C821 0.930 . S
C807 H795 0.930 . S
C807 C808 1.399 . S
C807 C812 1.399 . S
C808 C807 1.399 . S
C808 C809 1.376 . S
C809 H796 0.930 . S
C809 C808 1.376 . S
C809 C810 1.388 . S
C810 H797 0.930 . S
C810 C809 1.388 . S
C810 C811 1.390 . S
C811 C810 1.390 . S
C811 C812 1.394 . S
C811 C817 1.465 . S
C812 C807 1.399 . S
C812 C811 1.394 . S
C812 C813 1.516 . S
C813 C812 1.516 . S
C813 C814 1.502 . S
C813 C815 1.561 . S
C813 C816 1.526 . S
C814 H798 0.959 . S
C814 H799 0.959 . S
C814 H800 0.961 . S
C814 C813 1.502 . S
C815 H801 0.960 . S
C815 H802 0.961 . S
C815 H803 0.959 . S
C815 C813 1.561 . S
C816 C813 1.526 . S
C816 C817 1.396 . S
C816 C821 1.390 . S
C817 C811 1.465 . S
C817 C816 1.396 . S
C817 C818 1.399 . S
C818 H804 0.929 . S
C818 C817 1.399 . S
C818 C819 1.385 . S
C819 H805 0.931 . S
C819 C818 1.385 . S
C819 C820 1.389 . S
C820 C819 1.389 . S
C820 C821 1.387 . S
C821 H806 0.930 . S
C821 C816 1.390 . S
C821 C820 1.387 . S
H822 C834 0.930 . S
H823 C836 0.930 . S
H824 C837 0.930 . S
H825 C841 0.959 . S
H826 C841 0.959 . S
H827 C841 0.961 . S
H828 C842 0.960 . S
H829 C842 0.961 . S
H830 C842 0.959 . S
H831 C845 0.929 . S
H832 C846 0.931 . S
H833 C848 0.930 . S
C834 H822 0.930 . S
C834 C835 1.399 . S
C834 C839 1.399 . S
C835 C834 1.399 . S
C835 C836 1.376 . S
C836 H823 0.930 . S
C836 C835 1.376 . S
C836 C837 1.388 . S
C837 H824 0.930 . S
C837 C836 1.388 . S
C837 C838 1.390 . S
C838 C837 1.390 . S
C838 C839 1.394 . S
C838 C844 1.465 . S
C839 C834 1.399 . S
C839 C838 1.394 . S
C839 C840 1.516 . S
C840 C839 1.516 . S
C840 C841 1.502 . S
C840 C842 1.561 . S
C840 C843 1.526 . S
C841 H825 0.959 . S
C841 H826 0.959 . S
C841 H827 0.961 . S
C841 C840 1.502 . S
C842 H828 0.960 . S
C842 H829 0.961 . S
C842 H830 0.959 . S
C842 C840 1.561 . S
C843 C840 1.526 . S
C843 C844 1.396 . S
C843 C848 1.390 . S
C844 C838 1.465 . S
C844 C843 1.396 . S
C844 C845 1.399 . S
C845 H831 0.929 . S
C845 C844 1.399 . S
C845 C846 1.385 . S
C846 H832 0.931 . S
C846 C845 1.385 . S
C846 C847 1.389 . S
C847 C846 1.389 . S
C847 C848 1.387 . S
C848 H833 0.930 . S
C848 C843 1.390 . S
C848 C847 1.387 . S
H849 C861 0.930 . S
H850 C863 0.930 . S
H851 C864 0.930 . S
H852 C868 0.959 . S
H853 C868 0.959 . S
H854 C868 0.961 . S
H855 C869 0.953 1_554 S
H856 C869 0.961 . S
H857 C869 0.959 . S
H858 C872 0.929 . S
H859 C873 0.931 . S
H860 C875 0.930 . S
C861 H849 0.930 . S
C861 C862 1.399 . S
C861 C866 1.399 . S
C862 C861 1.399 . S
C862 C863 1.376 . S
C863 H850 0.930 . S
C863 C862 1.376 . S
C863 C864 1.388 . S
C864 H851 0.930 . S
C864 C863 1.388 . S
C864 C865 1.390 . S
C865 C864 1.390 . S
C865 C866 1.394 . S
C865 C871 1.465 . S
C866 C861 1.399 . S
C866 C865 1.394 . S
C866 C867 1.516 . S
C867 C866 1.516 . S
C867 C868 1.502 . S
C867 C869 1.561 . S
C867 C870 1.526 . S
C868 H852 0.959 . S
C868 H853 0.959 . S
C868 H854 0.961 . S
C868 C867 1.502 . S
C869 H855 0.953 1_556 S
C869 H856 0.961 . S
C869 H857 0.959 . S
C869 C867 1.561 . S
C870 C867 1.526 . S
C870 C871 1.396 . S
C870 C875 1.390 . S
C871 C865 1.465 . S
C871 C870 1.396 . S
C871 C872 1.399 . S
C872 H858 0.929 . S
C872 C871 1.399 . S
C872 C873 1.385 . S
C873 H859 0.931 . S
C873 C872 1.385 . S
C873 C874 1.389 . S
C874 C873 1.389 . S
C874 C875 1.387 . S
C875 H860 0.930 . S
C875 C870 1.390 . S
C875 C874 1.387 . S
H876 C888 0.930 . S
H877 C890 0.930 . S
H878 C891 0.930 . S
H879 C895 0.959 . S
H880 C895 0.959 . S
H881 C895 0.961 . S
H882 C896 0.960 . S
H883 C896 0.961 . S
H884 C896 0.932 1_655 S
H885 C899 0.929 . S
H886 C900 0.931 . S
H887 C902 0.930 . S
C888 H876 0.930 . S
C888 C889 1.399 1_455 S
C888 C893 1.399 . S
C889 C888 1.399 1_655 S
C889 C890 1.376 . S
C890 H877 0.930 . S
C890 C889 1.376 . S
C890 C891 1.388 . S
C891 H878 0.930 . S
C891 C890 1.388 . S
C891 C892 1.390 . S
C892 C891 1.390 . S
C892 C893 1.394 1_655 S
C892 C898 1.465 . S
C893 C888 1.399 . S
C893 C892 1.394 1_455 S
C893 C894 1.516 . S
C894 C893 1.516 . S
C894 C895 1.502 . S
C894 C896 1.561 . S
C894 C897 1.526 . S
C895 H879 0.959 . S
C895 H880 0.959 . S
C895 H881 0.961 . S
C895 C894 1.502 . S
C896 H882 0.960 . S
C896 H883 0.961 . S
C896 H884 0.932 1_455 S
C896 C894 1.561 . S
C897 C894 1.526 . S
C897 C898 1.396 1_455 S
C897 C902 1.390 . S
C898 C892 1.465 . S
C898 C897 1.396 1_655 S
C898 C899 1.399 . S
C899 H885 0.929 . S
C899 C898 1.399 . S
C899 C900 1.385 . S
C900 H886 0.931 . S
C900 C899 1.385 . S
C900 C901 1.389 . S
C901 C900 1.389 . S
C901 C902 1.387 1_655 S
C902 H887 0.930 . S
C902 C897 1.390 . S
C902 C901 1.387 1_455 S
H903 C915 0.930 . S
H904 C917 0.930 . S
H905 C918 0.930 . S
H906 C922 0.959 . S
H907 C922 0.959 . S
H908 C922 0.961 . S
H909 C923 0.960 . S
H910 C923 0.961 . S
H911 C923 0.959 . S
H912 C926 0.929 1_545 S
H913 C927 0.931 1_545 S
H914 C929 0.930 . S
C915 H903 0.930 . S
C915 C916 1.399 . S
C915 C920 1.399 . S
C916 C915 1.399 . S
C916 C917 1.376 . S
C917 H904 0.930 . S
C917 C916 1.376 . S
C917 C918 1.388 . S
C918 H905 0.930 . S
C918 C917 1.388 . S
C918 C919 1.390 . S
C919 C918 1.390 . S
C919 C920 1.394 . S
C919 C925 1.465 . S
C920 C915 1.399 . S
C920 C919 1.394 . S
C920 C921 1.516 . S
C921 C920 1.516 . S
C921 C922 1.502 . S
C921 C923 1.561 . S
C921 C924 1.526 . S
C922 H906 0.959 . S
C922 H907 0.959 . S
C922 H908 0.961 . S
C922 C921 1.502 . S
C923 H909 0.960 . S
C923 H910 0.961 . S
C923 H911 0.959 . S
C923 C921 1.561 . S
C924 C921 1.526 . S
C924 C925 1.396 . S
C924 C929 1.390 . S
C925 C919 1.465 . S
C925 C924 1.396 . S
C925 C926 1.399 . S
C926 H912 0.929 1_565 S
C926 C925 1.399 . S
C926 C927 1.385 . S
C927 H913 0.931 1_565 S
C927 C926 1.385 . S
C927 C928 1.389 . S
C928 C927 1.389 . S
C928 C929 1.387 . S
C929 H914 0.930 . S
C929 C924 1.390 . S
C929 C928 1.387 . S
H930 C942 0.930 . S
H931 C944 0.930 . S
H932 C945 0.930 . S
H933 C949 0.959 . S
H934 C949 0.959 . S
H935 C949 0.961 . S
H936 C950 0.960 . S
H937 C950 0.961 . S
H938 C950 0.959 . S
H939 C953 0.929 . S
H940 C954 0.931 . S
H941 C956 0.930 . S
C942 H930 0.930 . S
C942 C943 1.399 . S
C942 C947 1.399 . S
C943 C942 1.399 . S
C943 C944 1.376 . S
C944 H931 0.930 . S
C944 C943 1.376 . S
C944 C945 1.388 . S
C945 H932 0.930 . S
C945 C944 1.388 . S
C945 C946 1.390 . S
C946 C945 1.390 . S
C946 C947 1.394 . S
C946 C952 1.465 . S
C947 C942 1.399 . S
C947 C946 1.394 . S
C947 C948 1.516 . S
C948 C947 1.516 . S
C948 C949 1.502 . S
C948 C950 1.561 . S
C948 C951 1.526 . S
C949 H933 0.959 . S
C949 H934 0.959 . S
C949 H935 0.961 . S
C949 C948 1.502 . S
C950 H936 0.960 . S
C950 H937 0.961 . S
C950 H938 0.959 . S
C950 C948 1.561 . S
C951 C948 1.526 . S
C951 C952 1.396 . S
C951 C956 1.390 . S
C952 C946 1.465 . S
C952 C951 1.396 . S
C952 C953 1.399 . S
C953 H939 0.929 . S
C953 C952 1.399 . S
C953 C954 1.385 . S
C954 H940 0.931 . S
C954 C953 1.385 . S
C954 C955 1.389 . S
C955 C954 1.389 . S
C955 C956 1.387 . S
C956 H941 0.930 . S
C956 C951 1.390 . S
C956 C955 1.387 . S
H957 C969 0.930 . S
H958 C971 0.930 . S
H959 C972 0.930 . S
H960 C976 0.959 . S
H961 C976 0.959 . S
H962 C976 0.961 . S
H963 C977 0.960 . S
H964 C977 0.961 . S
H965 C977 0.959 . S
H966 C980 0.929 . S
H967 C981 0.931 . S
H968 C983 0.930 . S
C969 H957 0.930 . S
C969 C970 1.399 . S
C969 C974 1.399 . S
C970 C969 1.399 . S
C970 C971 1.376 . S
C971 H958 0.930 . S
C971 C970 1.376 . S
C971 C972 1.388 . S
C972 H959 0.930 . S
C972 C971 1.388 . S
C972 C973 1.390 . S
C973 C972 1.390 . S
C973 C974 1.394 . S
C973 C979 1.465 . S
C974 C969 1.399 . S
C974 C973 1.394 . S
C974 C975 1.516 . S
C975 C974 1.516 . S
C975 C976 1.502 . S
C975 C977 1.561 . S
C975 C978 1.526 . S
C976 H960 0.959 . S
C976 H961 0.959 . S
C976 H962 0.961 . S
C976 C975 1.502 . S
C977 H963 0.960 . S
C977 H964 0.961 . S
C977 H965 0.959 . S
C977 C975 1.561 . S
C978 C975 1.526 . S
C978 C979 1.396 . S
C978 C983 1.390 . S
C979 C973 1.465 . S
C979 C978 1.396 . S
C979 C980 1.399 . S
C980 H966 0.929 . S
C980 C979 1.399 . S
C980 C981 1.385 . S
C981 H967 0.931 . S
C981 C980 1.385 . S
C981 C982 1.389 . S
C982 C981 1.389 . S
C982 C983 1.387 . S
C983 H968 0.930 . S
C983 C978 1.390 . S
C983 C982 1.387 . S
C349 C215 1.755 . S
C361 C274 1.702 . S
C388 C294 1.480 . S
C376 C247 1.411 . S
C415 C314 1.719 . S
C403 C151 1.685 . S
C442 C334 1.433 . S
C430 C183 1.467 . S
C469 C275 1.718 1_565 S
C457 C87 1.563 . S
C484 C119 1.462 . S
C496 C295 1.476 . S
C511 C23 1.634 . S
C523 C315 1.707 . S
C538 C55 1.506 1_655 S
C550 C335 1.443 . S
C577 C265 0.649 . S
C565 C189 0.584 . S
C604 C285 0.744 . S
C592 C221 0.843 . S
C631 C305 0.788 . S
C619 C253 0.725 . S
C646 C157 0.795 . S
C658 C325 0.660 . S
C673 C61 0.751 1_655 S
C685 C268 0.591 . S
C712 C288 0.709 . S
C700 C93 0.839 . S
C739 C308 0.788 . S
C727 C125 0.637 . S
C754 C29 0.775 . S
C766 C328 0.727 . S
C781 C177 1.764 . S
C793 C258 1.816 . S
C808 C209 1.871 . S
C820 C278 1.865 . S
C847 C298 1.751 . S
C835 C241 1.677 . S
C874 C318 1.850 . S
C862 C145 2.002 . S
C889 C49 1.849 1_655 S
C901 C260 1.781 . S
C928 C280 1.792 . S
C916 C81 1.806 . S
C955 C300 1.697 . S
C943 C113 1.821 . S
C970 C17 1.859 . S
C982 C320 1.888 . S
