# Generated by pormake.
# Topology zzz, (3,6)-cn, num edge types: 1
# Building blocks:
#     Node 0, Type 0, BuildingBlock: QEWDON_clean_linker_0, # of connection points: 3
#     Node 1, Type 0, BuildingBlock: QEWDON_clean_linker_0, # of connection points: 3
#     Node 2, Type 0, BuildingBlock: QEWDON_clean_linker_0, # of connection points: 3
#     Node 3, Type 0, BuildingBlock: QEWDON_clean_linker_0, # of connection points: 3
#     Node 4, Type 0, BuildingBlock: QEWDON_clean_linker_0, # of connection points: 3
#     Node 5, Type 0, BuildingBlock: QEWDON_clean_linker_0, # of connection points: 3
#     Node 6, Type 0, BuildingBlock: QEWDON_clean_linker_0, # of connection points: 3
#     Node 7, Type 0, BuildingBlock: QEWDON_clean_linker_0, # of connection points: 3
#     Node 8, Type 1, BuildingBlock: VOLQOD_clean_sbu_1, # of connection points: 6
#     Node 9, Type 1, BuildingBlock: VOLQOD_clean_sbu_1, # of connection points: 6
#     Node 10, Type 1, BuildingBlock: VOLQOD_clean_sbu_1, # of connection points: 6
#     Node 11, Type 1, BuildingBlock: VOLQOD_clean_sbu_1, # of connection points: 6
#     Edge 12, Type (0, 1), BuildingBlock: KIFKEQ_clean_linker_1, # of connection points: 2
#     Edge 13, Type (0, 1), BuildingBlock: KIFKEQ_clean_linker_1, # of connection points: 2
#     Edge 14, Type (0, 1), BuildingBlock: KIFKEQ_clean_linker_1, # of connection points: 2
#     Edge 15, Type (0, 1), BuildingBlock: KIFKEQ_clean_linker_1, # of connection points: 2
#     Edge 16, Type (0, 1), BuildingBlock: KIFKEQ_clean_linker_1, # of connection points: 2
#     Edge 17, Type (0, 1), BuildingBlock: KIFKEQ_clean_linker_1, # of connection points: 2
#     Edge 18, Type (0, 1), BuildingBlock: KIFKEQ_clean_linker_1, # of connection points: 2
#     Edge 19, Type (0, 1), BuildingBlock: KIFKEQ_clean_linker_1, # of connection points: 2
#     Edge 20, Type (0, 1), BuildingBlock: KIFKEQ_clean_linker_1, # of connection points: 2
#     Edge 21, Type (0, 1), BuildingBlock: KIFKEQ_clean_linker_1, # of connection points: 2
#     Edge 22, Type (0, 1), BuildingBlock: KIFKEQ_clean_linker_1, # of connection points: 2
#     Edge 23, Type (0, 1), BuildingBlock: KIFKEQ_clean_linker_1, # of connection points: 2
#     Edge 24, Type (0, 1), BuildingBlock: KIFKEQ_clean_linker_1, # of connection points: 2
#     Edge 25, Type (0, 1), BuildingBlock: KIFKEQ_clean_linker_1, # of connection points: 2
#     Edge 26, Type (0, 1), BuildingBlock: KIFKEQ_clean_linker_1, # of connection points: 2
#     Edge 27, Type (0, 1), BuildingBlock: KIFKEQ_clean_linker_1, # of connection points: 2
#     Edge 28, Type (0, 1), BuildingBlock: KIFKEQ_clean_linker_1, # of connection points: 2
#     Edge 29, Type (0, 1), BuildingBlock: KIFKEQ_clean_linker_1, # of connection points: 2
#     Edge 30, Type (0, 1), BuildingBlock: KIFKEQ_clean_linker_1, # of connection points: 2
#     Edge 31, Type (0, 1), BuildingBlock: KIFKEQ_clean_linker_1, # of connection points: 2
#     Edge 32, Type (0, 1), BuildingBlock: KIFKEQ_clean_linker_1, # of connection points: 2
#     Edge 33, Type (0, 1), BuildingBlock: KIFKEQ_clean_linker_1, # of connection points: 2
#     Edge 34, Type (0, 1), BuildingBlock: KIFKEQ_clean_linker_1, # of connection points: 2
#     Edge 35, Type (0, 1), BuildingBlock: KIFKEQ_clean_linker_1, # of connection points: 2
# Relax obj value: 0.147
# Max RMSD: 0.236
# Mean RMSD: 0.099
data_MOF--net-zzz--node1-VOLQOD_clean_sbu_1--node2-QEWDON_clean_linker_0--edge1-KIFKEQ_clean_linker_1
_symmetry_space_group_name_H-M    P1
_symmetry_Int_Tables_number       1
_symmetry_cell_setting            triclinic
loop_
_symmetry_equiv_pos_as_xyz
'x, y, z'
_cell_length_a     55.097701
_cell_length_b     55.063505
_cell_length_c     17.683375
_cell_angle_alpha  90.246568
_cell_angle_beta   89.929877
_cell_angle_gamma 90.704589
loop_
_atom_site_label
_atom_site_type_symbol
_atom_site_fract_x
_atom_site_fract_y
_atom_site_fract_z
_atom_type_partial_charge
H0 H 0.79176 0.51703 0.02706 0.0
C1 C 0.80103 0.51974 0.0805 0.0
C2 C 0.82185 0.50615 0.09665 0.0
C3 C 0.79298 0.53772 0.13149 0.0
H4 H 0.85085 0.5008 0.17651 0.0
C5 C 0.83419 0.51038 0.16477 0.0
C6 C 0.82674 0.52831 0.2154 0.0
C7 C 0.80617 0.542 0.19888 0.0
C8 C 0.77195 0.55326 0.11215 0.0
H9 H 0.80053 0.55593 0.2384 0.0
C10 C 0.75046 0.54332 0.08043 0.0
C11 C 0.73059 0.55836 0.06383 0.0
C12 C 0.77345 0.57844 0.1253 0.0
H13 H 0.78984 0.58672 0.14798 0.0
C14 C 0.75401 0.59337 0.10812 0.0
H15 H 0.74894 0.52392 0.0707 0.0
C16 C 0.73275 0.58347 0.0778 0.0
H17 H 0.71805 0.59559 0.06431 0.0
H18 H 0.75546 0.61274 0.1181 0.0
H19 H 0.02064 0.7764 0.01294 0.0
C20 C 0.02034 0.78641 0.0658 0.0
C21 C 0.03194 0.80931 0.06992 0.0
C22 C 1.00704 0.77726 0.12804 0.0
H23 H 0.03753 0.84123 0.1385 0.0
C24 C 0.03024 0.82286 0.13694 0.0
C25 C 0.01676 0.81447 0.19872 0.0
C26 C 1.00563 0.79147 0.19465 0.0
C27 C 0.99291 0.75398 0.12183 0.0
H28 H 0.99544 0.78498 0.24309 0.0
C29 C 1.00169 0.73396 0.08005 0.0
C30 C 0.98814 0.71213 0.07623 0.0
C31 C 0.97009 0.75177 0.15754 0.0
H32 H 0.96222 0.76691 0.1877 0.0
C33 C 0.9568 0.7301 0.15395 0.0
H34 H 0.01914 0.73507 0.05189 0.0
C35 C 0.96581 0.71032 0.11399 0.0
H36 H 0.95516 0.69366 0.11151 0.0
H37 H 0.93936 0.72867 0.18192 0.0
H38 H 0.7408 0.02889 0.03466 0.0
C39 C 0.73029 0.02592 0.08561 0.0
C40 C 0.70791 0.03777 0.09375 0.0
C41 C 0.73787 0.00858 0.13914 0.0
H42 H 0.67533 0.03989 0.16138 0.0
C43 C 0.69339 0.03239 0.1568 0.0
C44 C 0.70025 0.01502 0.2095 0.0
C45 C 0.72286 1.00391 0.20256 0.0
C46 C 0.7592 0.99274 0.12276 0.0
H47 H 0.72784 0.99045 0.24404 0.0
C48 C 0.77949 1.00128 0.08091 0.0
C49 C 0.79792 0.9852 0.05867 0.0
C50 C 0.75836 0.96803 0.14363 0.0
H51 H 0.74289 0.96033 0.1731 0.0
C52 C 0.77704 0.9524 0.12392 0.0
H53 H 0.7807 0.0201 0.06366 0.0
C54 C 0.79658 0.96083 0.08126 0.0
H55 H 0.81063 0.94821 0.06512 0.0
H56 H 0.77604 0.93348 0.14018 0.0
H57 H 0.50729 0.73481 0.03022 0.0
C58 C 0.50803 0.72654 0.08565 0.0
C59 C 0.49506 0.7048 0.09895 0.0
C60 C 0.52351 0.73646 0.14157 0.0
H61 H 0.48858 0.67593 0.17809 0.0
C62 C 0.49717 0.69353 0.16943 0.0
C63 C 0.51272 0.70281 0.22528 0.0
C64 C 0.5256 0.72446 0.21155 0.0
C65 C 0.5398 0.75741 0.12356 0.0
H66 H 0.53784 0.73149 0.25451 0.0
C67 C 0.53145 0.77747 0.08196 0.0
C68 C 0.54759 0.79635 0.06134 0.0
C69 C 0.56438 0.75679 0.14503 0.0
H70 H 0.57154 0.74144 0.17552 0.0
C71 C 0.58027 0.77562 0.12551 0.0
H72 H 0.51261 0.77824 0.06474 0.0
C73 C 0.57201 0.79523 0.08371 0.0
H74 H 0.58471 0.80963 0.06906 0.0
H75 H 0.59914 0.77489 0.14217 0.0
H76 H 0.24534 0.54057 0.31529 0.0
C77 C 0.23368 0.5342 0.26989 0.0
C78 C 0.20855 0.5379 0.27503 0.0
C79 C 0.24365 0.52283 0.20529 0.0
H80 H 0.17396 0.53199 0.22126 0.0
C81 C 0.19347 0.52998 0.2161 0.0
C82 C 0.20277 0.51828 0.15245 0.0
C83 C 0.22781 0.51437 0.14756 0.0
C84 C 0.27047 0.52053 0.19605 0.0
H85 H 0.23489 0.50499 0.09844 0.0
C86 C 0.28585 0.51539 0.25788 0.0
C87 C 0.31106 0.51281 0.24685 0.0
C88 C 0.28092 0.52369 0.12397 0.0
H89 H 0.26989 0.5284 0.07568 0.0
C90 C 0.3058 0.52123 0.11315 0.0
H91 H 0.27828 0.51277 0.31386 0.0
C92 C 0.32076 0.51572 0.17388 0.0
H93 H 0.34009 0.51412 0.164 0.0
H94 H 0.31355 0.52372 0.05739 0.0
H95 H 1.0029 0.23482 0.25779 0.0
C96 C 0.01329 0.22343 0.21991 0.0
C97 C 0.01207 0.19816 0.22835 0.0
C98 C 0.02702 0.23378 0.16045 0.0
H99 H 0.02374 0.16364 0.18576 0.0
C100 C 0.02501 0.18321 0.17915 0.0
C101 C 0.03882 0.19296 0.12014 0.0
C102 C 0.03972 0.21826 0.11058 0.0
C103 C 0.02733 0.26058 0.14839 0.0
H104 H 0.05043 0.22573 0.06462 0.0
C105 C 0.02773 0.27698 0.21005 0.0
C106 C 0.02813 0.30227 0.19791 0.0
C107 C 0.02699 0.26997 0.07448 0.0
H108 H 0.02603 0.258 0.02579 0.0
C109 C 0.02741 0.29496 0.06229 0.0
H110 H 0.02831 0.27015 0.26738 0.0
C111 C 0.02804 0.31103 0.12338 0.0
H112 H 0.02803 0.33036 0.11231 0.0
H113 H 0.02707 0.30193 0.00515 0.0
H114 H 0.28131 0.99654 0.30159 0.0
C115 C 0.29392 0.00721 0.26794 0.0
C116 C 0.31805 0.00929 0.29143 0.0
C117 C 0.28646 0.01803 0.19972 0.0
H118 H 0.35334 0.02378 0.26794 0.0
C119 C 0.33483 0.02211 0.24756 0.0
C120 C 0.32877 0.03072 0.17576 0.0
C121 C 0.30423 0.02948 0.15328 0.0
C122 C 0.26056 0.01584 0.17514 0.0
H123 H 0.29913 0.03678 0.09897 0.0
C124 C 0.24142 0.01593 0.22862 0.0
C125 C 0.21705 0.01285 0.20571 0.0
C126 C 0.25478 0.01289 0.09811 0.0
H127 H 0.26883 0.012 0.05542 0.0
C128 C 0.23069 0.01046 0.07498 0.0
H129 H 0.24547 0.01808 0.28818 0.0
C130 C 0.21198 0.01044 0.12807 0.0
H131 H 0.19347 0.00862 0.1081 0.0
H132 H 0.22651 0.00832 0.0155 0.0
H133 H 0.52313 0.28208 0.30644 0.0
C134 C 0.51405 0.29088 0.25982 0.0
C135 C 0.50676 0.31505 0.26787 0.0
C136 C 0.51078 0.27855 0.19052 0.0
H137 H 0.4913 0.34582 0.21208 0.0
C138 C 0.4958 0.32674 0.20694 0.0
C139 C 0.49319 0.31521 0.13685 0.0
C140 C 0.50067 0.29104 0.12868 0.0
C141 C 0.51986 0.25339 0.18144 0.0
H142 H 0.49897 0.28217 0.07408 0.0
C143 C 0.51575 0.23584 0.23803 0.0
C144 C 0.52583 0.21256 0.23164 0.0
C145 C 0.53373 0.24713 0.11763 0.0
H146 H 0.53746 0.2603 0.07368 0.0
C147 C 0.54361 0.224 0.11099 0.0
H148 H 0.50501 0.24034 0.28743 0.0
C149 C 0.53986 0.20685 0.16782 0.0
H150 H 0.54774 0.18902 0.16164 0.0
H151 H 0.55442 0.21942 0.06192 0.0
O152 O 0.07105 1.00608 0.62026 0.0
Zn153 Zn 0.04488 1.00435 0.70216 0.0
O154 O 0.01208 0.00814 0.65741 0.0
Zn155 Zn 0.99548 0.03618 0.6999 0.0
Zn156 Zn 0.01466 0.01132 0.54775 0.0
Zn157 Zn 0.99172 0.98009 0.67872 0.0
O158 O 0.96424 0.02756 0.75582 0.0
O159 O 0.96043 0.98826 0.73064 0.0
O160 O 0.05199 0.03255 0.77485 0.0
O161 O 0.01805 0.05415 0.76898 0.0
O162 O 0.98708 0.05966 0.61828 0.0
O163 O 0.99814 0.04174 0.51109 0.0
O164 O 1.00221 0.98111 0.49428 0.0
O165 O 0.04751 0.97153 0.75661 0.0
O166 O 0.98536 0.95969 0.58663 0.0
O167 O 0.0095 0.95805 0.74576 0.0
C168 C 0.06998 0.01054 0.54958 0.0
C169 C 0.95233 0.00763 0.76044 0.0
C170 C 0.98877 0.05956 0.54653 0.0
C171 C 0.03946 0.05098 0.79355 0.0
C172 C 0.99131 0.96201 0.51755 0.0
C173 C 0.03101 0.95561 0.77008 0.0
O174 O 0.04969 0.01368 0.51684 0.0
O175 O 0.51284 0.07171 0.6551 0.0
Zn176 Zn 0.51415 0.04597 0.73687 0.0
O177 O 0.5114 0.01321 0.68992 0.0
Zn178 Zn 0.48479 0.99466 0.73475 0.0
Zn179 Zn 0.50684 0.01557 0.57999 0.0
Zn180 Zn 0.54042 0.99501 0.70901 0.0
O181 O 0.49513 0.96408 0.78975 0.0
O182 O 0.53429 0.96349 0.76177 0.0
O183 O 0.48543 0.05178 0.80851 0.0
O184 O 0.46579 0.01619 0.80264 0.0
O185 O 0.46102 0.9847 0.65605 0.0
O186 O 0.47565 0.99838 0.547 0.0
O187 O 0.53639 1.0031 0.52264 0.0
O188 O 0.54661 0.05068 0.79224 0.0
O189 O 0.55937 0.98908 0.61507 0.0
O190 O 0.56253 0.01435 0.77322 0.0
C191 C 0.50798 0.07093 0.5846 0.0
C192 C 0.51571 0.95383 0.79265 0.0
C193 C 0.45921 0.98733 0.58498 0.0
C194 C 0.46754 0.03798 0.82634 0.0
C195 C 0.55601 0.99348 0.54544 0.0
C196 C 0.56379 0.03562 0.80102 0.0
O197 O 0.50426 0.05081 0.55035 0.0
O198 O 0.45505 0.50579 0.66409 0.0
Zn199 Zn 0.48274 0.50849 0.74116 0.0
O200 O 0.51477 0.51081 0.68883 0.0
Zn201 Zn 0.53636 0.48479 0.71963 0.0
Zn202 Zn 0.51014 0.50933 0.57978 0.0
Zn203 Zn 0.53119 0.54115 0.71286 0.0
O204 O 0.56675 0.49675 0.77484 0.0
O205 O 0.56176 0.53664 0.77319 0.0
O206 O 0.48111 0.47775 0.80641 0.0
O207 O 0.51765 0.46211 0.78547 0.0
O208 O 0.54539 0.46338 0.63213 0.0
O209 O 0.52527 0.47939 0.53634 0.0
O210 O 0.5224 0.53961 0.52771 0.0
O211 O 0.47605 0.53961 0.80146 0.0
O212 O 0.53901 0.56093 0.62113 0.0
O213 O 0.50853 0.56188 0.77015 0.0
C214 C 0.45503 0.50548 0.59193 0.0
C215 C 0.57395 0.51815 0.79237 0.0
C216 C 0.53862 0.46283 0.56338 0.0
C217 C 0.4966 0.46089 0.81494 0.0
C218 C 0.5335 0.55854 0.55172 0.0
C219 C 0.48797 0.55964 0.80212 0.0
O220 O 0.47479 0.50676 0.55478 0.0
O221 O 0.98601 0.53296 0.56785 0.0
Zn222 Zn 0.01538 0.52848 0.63826 0.0
O223 O 0.01385 0.49634 0.68918 0.0
Zn224 Zn 0.00992 0.50053 0.79852 0.0
Zn225 Zn 0.98695 0.47702 0.65009 0.0
Zn226 Zn 0.04312 0.47793 0.66973 0.0
O227 O 0.03974 0.48901 0.85407 0.0
O228 O 0.06196 0.47171 0.76463 0.0
O229 O 0.01354 0.55552 0.71635 0.0
O230 O 1.00722 0.53612 0.82459 0.0
O231 O 0.97921 0.48378 0.83644 0.0
O232 O 0.96417 0.46691 0.73209 0.0
O233 O 0.99739 0.44728 0.59145 0.0
O234 O 0.0479 0.53326 0.58389 0.0
O235 O 0.03707 0.44679 0.61158 0.0
O236 O 0.06559 0.49813 0.60843 0.0
C237 C 0.96774 0.51889 0.55668 0.0
C238 C 0.0589 0.47806 0.83322 0.0
C239 C 0.96281 0.47133 0.80255 0.0
C240 C 0.00971 0.55578 0.78747 0.0
C241 C 0.01798 0.43737 0.58264 0.0
C242 C 0.06607 0.51916 0.57909 0.0
O243 O 0.96661 0.49773 0.58495 0.0
H244 H 0.17719 0.98278 0.20374 0.0
H245 H 0.21111 0.03997 0.33592 0.0
H246 H 0.14273 0.98238 0.28982 0.0
H247 H 0.17661 0.03911 0.4234 0.0
H248 H 0.11763 0.01128 0.59742 0.0
H249 H 0.15428 0.01154 0.51843 0.0
H250 H 0.10969 0.0118 0.31795 0.0
H251 H 0.07335 0.01155 0.3958 0.0
C252 C 0.17729 0.99537 0.25097 0.0
C253 C 0.19684 0.01169 0.26199 0.0
C254 C 0.15754 0.99505 0.30053 0.0
C255 C 0.15682 0.01088 0.36296 0.0
C256 C 0.17671 0.0266 0.37594 0.0
C257 C 0.19648 0.02706 0.32583 0.0
C258 C 0.11568 0.01144 0.53649 0.0
C259 C 0.0925 0.01133 0.5031 0.0
C260 C 0.13667 0.0117 0.49134 0.0
C261 C 0.13486 0.01151 0.41198 0.0
C262 C 0.1117 0.0116 0.37888 0.0
C263 C 0.09084 0.01161 0.42372 0.0
H264 H 0.48273 0.19533 0.28711 0.0
H265 H 0.56027 0.18813 0.30957 0.0
H266 H 0.47652 0.16241 0.37878 0.0
H267 H 0.55411 0.15566 0.40218 0.0
H268 H 0.53118 0.11389 0.61763 0.0
H269 H 0.5343 0.15005 0.53788 0.0
H270 H 0.48787 0.11564 0.37179 0.0
H271 H 0.48508 0.07929 0.45047 0.0
C272 C 0.49839 0.18692 0.31257 0.0
C273 C 0.52196 0.19413 0.29136 0.0
C274 C 0.49485 0.16809 0.36459 0.0
C275 C 0.51485 0.15657 0.3975 0.0
C276 C 0.5384 0.16438 0.37808 0.0
C277 C 0.54192 0.18281 0.32494 0.0
C278 C 0.5214 0.11415 0.56453 0.0
C279 C 0.50796 0.09369 0.54019 0.0
C280 C 0.52329 0.13479 0.51885 0.0
C281 C 0.51134 0.13558 0.44879 0.0
C282 C 0.49713 0.11554 0.4258 0.0
C283 C 0.49565 0.09472 0.47068 0.0
H284 H 0.31583 0.53673 0.38256 0.0
H285 H 0.34445 0.47701 0.25298 0.0
H286 H 0.34893 0.53258 0.47418 0.0
H287 H 0.37705 0.47247 0.34458 0.0
H288 H 0.44952 0.49866 0.44039 0.0
H289 H 0.41246 0.49779 0.36717 0.0
H290 H 0.37039 0.50776 0.57093 0.0
H291 H 0.408 0.50899 0.64532 0.0
C292 C 0.32881 0.5223 0.37491 0.0
C293 C 0.32781 0.5074 0.31021 0.0
C294 C 0.34776 0.51991 0.4273 0.0
C295 C 0.36594 0.50251 0.4159 0.0
C296 C 0.36374 0.48647 0.3541 0.0
C297 C 0.34499 0.48896 0.30179 0.0
C298 C 0.43244 0.50057 0.47014 0.0
C299 C 0.43184 0.50391 0.549 0.0
C300 C 0.41108 0.49985 0.42796 0.0
C301 C 0.38837 0.50246 0.46311 0.0
C302 C 0.3876 0.50575 0.54209 0.0
C303 C 0.40913 0.50633 0.58471 0.0
H304 H 0.0568 0.34264 0.21527 0.0
H305 H 0.99975 0.30152 0.32524 0.0
H306 H 0.05479 0.37344 0.31449 0.0
H307 H 0.99793 0.33229 0.42555 0.0
H308 H 0.98116 0.40998 0.52022 0.0
H309 H 0.98467 0.37546 0.43407 0.0
H310 H 0.06277 0.37995 0.45073 0.0
H311 H 0.05936 0.41455 0.53642 0.0
C312 C 0.04395 0.34012 0.26106 0.0
C313 C 0.02834 0.31974 0.26225 0.0
C314 C 0.04293 0.35766 0.31826 0.0
C315 C 0.02616 0.35534 0.37785 0.0
C316 C 0.01091 0.33468 0.38004 0.0
C317 C 0.01209 0.31697 0.32304 0.0
C318 C 0.99909 0.4035 0.50607 0.0
C319 C 0.01998 0.4152 0.53496 0.0
C320 C 1.00109 0.3836 0.45703 0.0
C321 C 0.024 0.37503 0.4353 0.0
C322 C 0.04486 0.3863 0.46571 0.0
C323 C 0.04288 0.40608 0.51514 0.0
H324 H 0.80896 0.96665 0.92139 0.0
H325 H 0.83241 0.02069 0.08353 0.0
H326 H 0.84503 0.97457 0.84528 0.0
H327 H 0.86928 0.02821 0.0086 0.0
H328 H 0.92672 0.04526 0.82426 0.0
H329 H 0.8879 0.04278 0.89155 0.0
H330 H 0.88667 0.96494 0.85937 0.0
H331 H 0.92472 0.96745 0.79111 0.0
C332 C 0.82185 0.9804 0.94028 0.0
C333 C 0.81809 0.99293 0.00844 0.0
C334 C 0.84263 0.98482 0.8971 0.0
C335 C 0.86039 1.00165 0.92155 0.0
C336 C 0.85598 0.01517 0.98794 0.0
C337 C 0.83492 0.01089 0.03092 0.0
C338 C 0.91807 0.02765 0.83137 0.0
C339 C 0.92883 0.00658 0.80176 0.0
C340 C 0.89587 0.02622 0.87024 0.0
C341 C 0.88397 1.0037 0.88029 0.0
C342 C 0.89493 0.98269 0.85122 0.0
C343 C 0.91695 0.98411 0.81237 0.0
H344 H 0.50925 0.82642 0.08834 0.0
H345 H 0.56785 0.81342 0.93195 0.0
H346 H 0.49972 0.86411 0.02189 0.0
H347 H 0.55803 0.85039 0.86415 0.0
H348 H 0.55784 0.93124 0.82785 0.0
H349 H 0.56313 0.8925 0.8895 0.0
H350 H 0.4853 0.88353 0.90729 0.0
H351 H 0.47996 0.92305 0.84688 0.0
C352 C 0.51973 0.83141 0.0388 0.0
C353 C 0.53947 0.81726 0.01576 0.0
C354 C 0.51429 0.85294 0.00065 0.0
C355 C 0.5284 0.86056 0.93845 0.0
C356 C 0.54722 0.84551 0.91311 0.0
C357 C 0.55279 0.82424 0.95158 0.0
C358 C 0.54178 0.92108 0.84471 0.0
C359 C 0.51845 0.93026 0.83194 0.0
C360 C 0.54482 0.89869 0.8797 0.0
C361 C 0.52464 0.88464 0.90242 0.0
C362 C 0.50125 0.89391 0.89076 0.0
C363 C 0.49818 0.91652 0.85595 0.0
H364 H 0.72451 0.52494 0.94898 0.0
H365 H 0.68439 0.56935 0.10607 0.0
H366 H 0.68644 0.51302 0.88657 0.0
H367 H 0.64661 0.55754 0.04413 0.0
H368 H 0.59159 0.56058 0.85206 0.0
H369 H 0.62911 0.56746 0.92107 0.0
H370 H 0.64621 0.4914 0.90049 0.0
H371 H 0.60842 0.48441 0.83021 0.0
C372 C 0.70756 0.5318 0.97101 0.0
C373 C 0.70752 0.5484 0.0317 0.0
C374 C 0.68576 0.52499 0.93526 0.0
C375 C 0.66352 0.53467 0.95955 0.0
C376 C 0.66346 0.55022 0.02279 0.0
C377 C 0.68513 0.55697 0.05836 0.0
C378 C 0.60324 0.54523 0.86217 0.0
C379 C 0.59687 0.52191 0.83553 0.0
C380 C 0.62474 0.54917 0.90231 0.0
C381 C 0.6406 0.52995 0.91689 0.0
C382 C 0.63442 0.50661 0.88994 0.0
C383 C 0.61271 0.5026 0.85002 0.0
H384 H 1.00391 0.66933 0.13154 0.0
H385 H 0.99028 0.7071 0.92334 0.0
H386 H 0.01189 0.63209 0.0609 0.0
H387 H 0.99694 0.66962 0.85192 0.0
H388 H 0.02463 0.60082 0.73865 0.0
H389 H 0.02322 0.63923 0.80777 0.0
H390 H 0.98937 0.60242 -0.0033 0.0
H391 H 0.99179 0.5641 0.92907 0.0
C392 C 1.00294 0.66961 0.07035 0.0
C393 C 0.99668 0.69096 0.03258 0.0
C394 C 1.00717 0.64824 0.02977 0.0
C395 C 1.00466 0.64759 0.95048 0.0
C396 C 0.99929 0.66936 0.91267 0.0
C397 C 0.99544 0.69086 0.95339 0.0
C398 C 0.01693 0.60097 0.79503 0.0
C399 C 1.00838 0.57935 0.82835 0.0
C400 C 0.01604 0.62304 0.83467 0.0
C401 C 1.00632 0.62407 0.9083 0.0
C402 C 0.99756 0.6024 0.94104 0.0
C403 C 0.99874 0.58035 0.90187 0.0
H404 H 0.02099 0.19693 0.37913 0.0
H405 H 0.97149 0.17097 0.20755 0.0
H406 H 1.00675 0.16493 0.46434 0.0
H407 H 0.95696 0.13908 0.29257 0.0
H408 H 0.98572 0.06551 0.39337 0.0
H409 H 0.9824 0.10359 0.32522 0.0
H410 H 0.97436 0.14232 0.53649 0.0
H411 H 0.9777 0.10417 0.60513 0.0
C412 C 1.00613 0.18517 0.36136 0.0
C413 C 0.9973 0.18624 0.28722 0.0
C414 C 0.99802 0.16677 0.40985 0.0
C415 C 0.98108 0.14922 0.38441 0.0
C416 C 0.97029 0.15213 0.31317 0.0
C417 C 0.97838 0.1705 0.26488 0.0
C418 C 0.9827 0.08203 0.42531 0.0
C419 C 0.98231 0.0818 0.50468 0.0
C420 C 0.98059 0.10388 0.38622 0.0
C421 C 0.9782 0.12597 0.42564 0.0
C422 C 0.97633 0.12558 0.50476 0.0
C423 C 0.9782 0.10369 0.5439 0.0
H424 H 0.32404 0.02446 0.43643 0.0
H425 H 0.33656 0.96449 0.28453 0.0
H426 H 0.35641 0.01013 0.51895 0.0
H427 H 0.3694 0.95047 0.36572 0.0
H428 H 0.4163 0.97662 0.65496 0.0
H429 H 0.37628 0.97342 0.59692 0.0
H430 H 0.40898 0.97942 0.37587 0.0
H431 H 0.44913 0.98322 0.43359 0.0
C432 C 0.33273 0.0074 0.42332 0.0
C433 C 0.32779 0.99539 0.35497 0.0
C434 C 0.35138 0.9993 0.46998 0.0
C435 C 0.36552 0.97941 0.44779 0.0
C436 C 0.35875 0.96587 0.38371 0.0
C437 C 0.33982 0.9737 0.33791 0.0
C438 C 0.4151 0.97666 0.59383 0.0
C439 C 0.43592 0.98046 0.54875 0.0
C440 C 0.39215 0.97482 0.56088 0.0
C441 C 0.38963 0.97614 0.48226 0.0
C442 C 0.41053 0.97807 0.43678 0.0
C443 C 0.43348 0.9804 0.46976 0.0
H444 H 0.47712 0.34279 0.35377 0.0
H445 H 0.55198 0.32216 0.32697 0.0
H446 H 0.48986 0.37774 0.43 0.0
H447 H 0.56473 0.35717 0.40454 0.0
H448 H 0.52348 0.45358 0.41924 0.0
H449 H 0.51814 0.41378 0.36103 0.0
H450 H 0.55488 0.3805 0.54838 0.0
H451 H 0.56011 0.42045 0.60824 0.0
C452 C 0.49621 0.34521 0.36688 0.0
C453 C 0.51359 0.32998 0.33422 0.0
C454 C 0.5035 0.36526 0.40979 0.0
C455 C 0.52825 0.37025 0.42133 0.0
C456 C 0.54555 0.35362 0.39587 0.0
C457 C 0.53824 0.33354 0.35225 0.0
C458 C 0.531 0.43796 0.4475 0.0
C459 C 0.54182 0.4402 0.51914 0.0
C460 C 0.52778 0.41517 0.4143 0.0
C461 C 0.5356 0.39422 0.45144 0.0
C462 C 0.54853 0.39649 0.51933 0.0
C463 C 0.55157 0.41937 0.55317 0.0
H464 H 0.17611 0.57466 0.28477 0.0
H465 H 0.21291 0.52134 0.4191 0.0
H466 H 0.14293 0.5753 0.37533 0.0
H467 H 0.18036 0.52293 0.51256 0.0
H468 H 0.10369 0.49089 0.53713 0.0
H469 H 0.14254 0.50313 0.48655 0.0
H470 H 0.12076 0.57828 0.49236 0.0
H471 H 0.081 0.56574 0.54256 0.0
C472 C 0.17773 0.56414 0.33613 0.0
C473 C 0.1966 0.54735 0.34392 0.0
C474 C 0.15866 0.56447 0.38816 0.0
C475 C 0.15847 0.54833 0.44943 0.0
C476 C 0.17956 0.53489 0.46417 0.0
C477 C 0.19846 0.53427 0.4114 0.0
C478 C 0.10706 0.51008 0.52803 0.0
C479 C 0.08913 0.52732 0.54367 0.0
C480 C 0.12963 0.51718 0.50005 0.0
C481 C 0.13512 0.5418 0.48702 0.0
C482 C 0.11717 0.55918 0.50218 0.0
C483 C 0.09435 0.552 0.53029 0.0
H484 H 0.07349 0.83693 0.05663 0.0
H485 H 0.01117 0.81137 0.93018 0.0
H486 H 0.07798 0.87122 0.97069 0.0
H487 H 0.01649 0.84479 0.84208 0.0
H488 H 0.99849 0.92529 0.8358 0.0
H489 H 1.00504 0.88543 0.88706 0.0
H490 H 0.08203 0.89293 0.84551 0.0
H491 H 0.0754 0.93369 0.793 0.0
C492 C 0.0615 0.83796 0.00825 0.0
C493 C 0.04142 0.82198 0.00176 0.0
C494 C 0.06414 0.85759 0.95888 0.0
C495 C 0.04698 0.86119 0.9016 0.0
C496 C 0.02953 0.84284 0.88742 0.0
C497 C 0.02667 0.82344 0.93735 0.0
C498 C 0.0169 0.9186 0.83721 0.0
C499 C 0.03641 0.93266 0.80968 0.0
C500 C 0.0206 0.8955 0.86579 0.0
C501 C 0.04395 0.88563 0.86796 0.0
C502 C 0.06378 0.89995 0.84337 0.0
C503 C 0.06002 0.92332 0.8141 0.0
H504 H 0.70914 0.02569 0.94363 0.0
H505 H 0.67944 0.07851 0.09845 0.0
H506 H 0.67626 0.03314 0.85631 0.0
H507 H 0.64544 0.08462 0.01274 0.0
H508 H 0.58197 0.08159 0.83519 0.0
H509 H 0.62252 0.09138 0.88687 0.0
H510 H 0.63732 0.01473 0.90316 0.0
H511 H 0.59774 1.00509 0.85333 0.0
C512 C 0.69634 0.03977 0.95773 0.0
C513 C 0.6963 0.05067 0.02969 0.0
C514 C 0.67725 0.04384 0.90782 0.0
C515 C 0.6577 0.0585 0.92968 0.0
C516 C 0.66001 0.07284 -0.00493 0.0
C517 C 0.67945 0.06919 0.04436 0.0
C518 C 0.59394 0.06695 0.85045 0.0
C519 C 0.58671 0.04258 0.83948 0.0
C520 C 0.61715 0.07255 0.87917 0.0
C521 C 0.63341 0.05383 0.89629 0.0
C522 C 0.62568 0.02961 0.88752 0.0
C523 C 0.60275 0.02408 0.85974 0.0
H524 H 0.4518 0.67958 0.10054 0.0
H525 H 0.51329 0.69682 0.95809 0.0
H526 H 0.4412 0.64546 0.0175 0.0
H527 H 0.5027 0.66319 0.87541 0.0
H528 H 0.46953 0.56694 0.9445 0.0
H529 H 0.46256 0.60656 0.0039 0.0
H530 H 0.47603 0.64183 0.78973 0.0
H531 H 0.4838 0.60246 0.73188 0.0
C532 C 0.46252 0.67661 0.05001 0.0
C533 C 0.48362 0.69064 0.03652 0.0
C534 C 0.45654 0.65699 0.00285 0.0
C535 C 0.47136 0.65129 0.94076 0.0
C536 C 0.49077 0.66709 0.92252 0.0
C537 C 0.49683 0.68656 0.96987 0.0
C538 C 0.47021 0.58315 0.91004 0.0
C539 C 0.47752 0.58185 0.83426 0.0
C540 C 0.46616 0.60585 0.94373 0.0
C541 C 0.46917 0.62741 0.90168 0.0
C542 C 0.47407 0.62566 0.82398 0.0
C543 C 0.47843 0.60313 0.79084 0.0
H544 H 0.84192 0.46149 0.11771 0.0
H545 H 0.82955 0.51589 0.94724 0.0
H546 H 0.87424 0.44428 0.04024 0.0
H547 H 0.86115 0.49807 0.86885 0.0
H548 H 0.91907 0.45965 0.739 0.0
H549 H 0.87954 0.45948 0.80121 0.0
H550 H 0.91456 0.46997 0.0172 0.0
H551 H 0.95419 0.47069 0.95518 0.0
C552 C 0.84541 0.46914 0.06234 0.0
C553 C 0.83363 0.49042 0.03933 0.0
C554 C 0.8639 0.45929 0.01822 0.0
C555 C 0.87042 0.47015 0.94946 0.0
C556 C 0.85644 0.48935 0.92176 0.0
C557 C 0.83821 0.49948 0.96651 0.0
C558 C 0.91846 0.46123 0.80005 0.0
C559 C 0.9398 0.46547 0.84219 0.0
C560 C 0.89578 0.46118 0.83542 0.0
C561 C 0.89405 0.46477 0.91372 0.0
C562 C 0.91544 0.46693 0.95669 0.0
C563 C 0.93812 0.46747 0.92119 0.0
H564 H 0.06906 0.15553 0.15109 0.0
H565 H 0.03266 0.19129 0.96757 0.0
H566 H 0.07775 0.12103 0.06859 0.0
H567 H 0.04072 0.15668 0.88532 0.0
H568 H 0.05812 0.09332 0.74308 0.0
H569 H 0.06692 0.12978 0.81812 0.0
H570 H 0.05104 0.08959 0.02222 0.0
H571 H 0.04303 0.05312 0.9466 0.0
C572 C 0.06354 0.15625 0.09235 0.0
C573 C 0.05005 0.17594 0.06566 0.0
C574 C 0.0683 0.13642 0.04531 0.0
C575 C 0.05952 0.1358 0.97072 0.0
C576 C 0.04793 0.15653 0.94224 0.0
C577 C 0.0433 0.17645 -0.01073 0.0
C578 C 0.0574 0.09222 0.80422 0.0
C579 C 0.0502 0.07054 0.83955 0.0
C580 C 0.06218 0.11311 0.84714 0.0
C581 C 0.05947 0.11276 0.92622 0.0
C582 C 0.05366 0.09051 0.96161 0.0
C583 C 0.04903 0.06959 0.91853 0.0
H584 H 0.37428 0.01163 0.16671 0.0
H585 H 0.32891 0.06559 0.06186 0.0
H586 H 0.40741 0.02296 0.08481 0.0
H587 H 0.36234 0.07542 0.97424 0.0
H588 H 0.42015 0.03631 0.7894 0.0
H589 H 0.38556 0.04244 0.87379 0.0
H590 H 0.43448 0.06463 0.05213 0.0
H591 H 0.46923 0.05918 0.96648 0.0
C592 C 0.37138 0.0264 0.12768 0.0
C593 C 0.34882 0.03818 0.12315 0.0
C594 C 0.39052 0.03274 0.08022 0.0
C595 C 0.3876 0.05043 0.02463 0.0
C596 C 0.36509 0.06199 0.01788 0.0
C597 C 0.34591 0.05613 0.06742 0.0
C598 C 0.42341 0.04339 0.84582 0.0
C599 C 0.44724 0.0472 0.87191 0.0
C600 C 0.40363 0.04706 0.89376 0.0
C601 C 0.40741 0.05405 0.96915 0.0
C602 C 0.43117 0.05945 -0.00615 0.0
C603 C 0.45099 0.05632 0.94514 0.0
H604 H 0.5196 0.32269 0.00967 0.0
H605 H 0.45312 0.34337 0.11996 0.0
H606 H 0.51606 0.35669 0.92375 0.0
H607 H 0.44872 0.37703 0.03162 0.0
H608 H 0.47273 0.45404 0.95002 0.0
H609 H 0.46705 0.41548 0.01661 0.0
H610 H 0.49811 0.37736 0.82583 0.0
H611 H 0.50508 0.41589 0.76259 0.0
C612 C 0.50359 0.33389 0.01306 0.0
C613 C 0.48665 0.33042 0.07127 0.0
C614 C 0.50152 0.35355 0.96389 0.0
C615 C 0.48224 0.37002 0.97117 0.0
C616 C 0.46413 0.36518 0.02542 0.0
C617 C 0.4664 0.34567 0.07525 0.0
C618 C 0.47805 0.43732 0.9225 0.0
C619 C 0.48972 0.43789 0.85209 0.0
C620 C 0.47468 0.41515 0.96019 0.0
C621 C 0.48246 0.39314 0.92722 0.0
C622 C 0.49256 0.39385 0.85424 0.0
C623 C 0.49644 0.41594 0.8177 0.0
H624 H 0.16916 0.54563 0.0828 0.0
H625 H 0.19668 0.47264 0.09106 0.0
H626 H 0.13457 0.53142 0.0086 0.0
H627 H 0.16184 0.4583 0.01509 0.0
H628 H 0.10357 0.45787 0.80784 0.0
H629 H 0.14053 0.46507 0.8815 0.0
H630 H 0.09893 0.50341 0.04974 0.0
H631 H 0.06204 0.4963 0.97697 0.0
C632 C 0.168 0.52658 0.06737 0.0
C633 C 0.18543 0.51018 0.09318 0.0
C634 C 0.14811 0.51841 0.02555 0.0
C635 C 0.14524 0.49367 0.00794 0.0
C636 C 0.16357 0.47745 0.02863 0.0
C637 C 0.18355 0.48565 0.07136 0.0
C638 C 0.10216 0.46729 0.86153 0.0
C639 C 0.07983 0.47685 0.88582 0.0
C640 C 0.12337 0.4714 0.90356 0.0
C641 C 0.12261 0.48526 0.97025 0.0
C642 C 0.10005 0.49307 -0.0024 0.0
C643 C 0.07887 0.48882 0.9561 0.0
H644 H 0.04916 0.84364 0.27347 0.0
H645 H 0.97287 0.82502 0.26301 0.0
H646 H 0.03984 0.87918 0.35052 0.0
H647 H 0.9636 0.86049 0.34171 0.0
H648 H 0.96727 0.91889 0.54375 0.0
H649 H 0.97207 0.88077 0.47399 0.0
H650 H 0.01711 0.91777 0.31013 0.0
H651 H 0.01233 0.95582 0.37892 0.0
C652 C 0.03045 0.84685 0.28915 0.0
C653 C 0.01173 0.83171 0.26151 0.0
C654 C 0.02511 0.86727 0.33269 0.0
C655 C 1.00095 0.87286 0.35033 0.0
C656 C 0.98236 0.85663 0.3284 0.0
C657 C 0.9877 0.83623 0.28402 0.0
C658 C 0.97776 0.91902 0.49191 0.0
C659 C 0.98959 0.94042 0.46732 0.0
C660 C 0.98053 0.89717 0.45221 0.0
C661 C 0.99539 0.89628 0.3878 0.0
C662 C 1.00596 0.9179 0.36064 0.0
C663 C 1.00298 0.93975 0.39965 0.0
H664 H 0.65937 0.99093 0.1705 0.0
H665 H 0.69849 0.01854 0.36427 0.0
H666 H 0.62457 0.98098 0.25051 0.0
H667 H 0.6634 0.00892 0.44514 0.0
H668 H 0.60092 0.97557 0.57752 0.0
H669 H 0.63691 0.97649 0.49756 0.0
H670 H 0.59459 1.00599 0.31504 0.0
H671 H 0.55846 1.00493 0.39467 0.0
C672 C 0.66056 0.99449 0.23073 0.0
C673 C 0.68144 1.00554 0.26156 0.0
C674 C 0.64061 0.98898 0.27636 0.0
C675 C 0.64107 0.99446 0.35394 0.0
C676 C 0.66253 1.00434 0.38558 0.0
C677 C 0.6826 0.00985 0.33961 0.0
C678 C 0.59912 0.98189 0.5199 0.0
C679 C 0.57673 0.99031 0.49269 0.0
C680 C 0.61986 0.98258 0.47434 0.0
C681 C 0.61869 0.99151 0.40027 0.0
C682 C 0.59608 0.99881 0.37174 0.0
C683 C 0.57534 0.99823 0.41743 0.0
H684 H 0.55726 0.69033 0.28006 0.0
H685 H 0.4804 0.67915 0.31633 0.0
H686 H 0.56581 0.65588 0.36289 0.0
H687 H 0.48899 0.64449 0.39715 0.0
H688 H 0.51243 0.56533 0.41409 0.0
H689 H 0.50942 0.60338 0.3453 0.0
H690 H 0.55693 0.63853 0.50681 0.0
H691 H 0.55982 0.60042 0.57712 0.0
C692 C 0.54226 0.68109 0.30779 0.0
C693 C 0.51814 0.68723 0.29119 0.0
C694 C 0.54717 0.66128 0.35451 0.0
C695 C 0.52801 0.64731 0.38452 0.0
C696 C 0.50403 0.65475 0.37325 0.0
C697 C 0.49914 0.67464 0.32751 0.0
C698 C 0.52268 0.58095 0.43433 0.0
C699 C 0.53618 0.57986 0.50157 0.0
C700 C 0.52075 0.60279 0.39529 0.0
C701 C 0.53255 0.62388 0.4219 0.0
C702 C 0.54753 0.62249 0.48572 0.0
C703 C 0.5492 0.60068 0.52564 0.0
H704 H 0.85408 0.56885 0.24569 0.0
H705 H 0.83559 0.49775 0.3306 0.0
H706 H 0.88745 0.57206 0.3375 0.0
H707 H 0.86872 0.50054 0.42089 0.0
H708 H 0.92157 0.51179 0.60074 0.0
H709 H 0.88467 0.51995 0.53091 0.0
H710 H 0.92726 0.55246 0.35175 0.0
H711 H 0.96449 0.54509 0.42431 0.0
C712 C 0.85668 0.55432 0.28587 0.0
C713 C 0.84217 0.53319 0.28216 0.0
C714 C 0.87595 0.55596 0.33751 0.0
C715 C 0.88087 0.53654 0.38645 0.0
C716 C 0.86533 0.51604 0.38511 0.0
C717 C 0.84627 0.51439 0.3335 0.0
C718 C 0.92304 0.52103 0.5469 0.0
C719 C 0.94587 0.52744 0.51715 0.0
C720 C 0.90188 0.52565 0.50678 0.0
C721 C 0.90298 0.53636 0.43493 0.0
C722 C 0.92575 0.54424 0.40709 0.0
C723 C 0.94708 0.53995 0.44826 0.0
loop_
_geom_bond_atom_site_label_1
_geom_bond_atom_site_label_2
_geom_bond_distance
_geom_bond_site_symmetry_2
_ccdc_geom_bond_type
H0 C1 0.949 . S
C1 H0 0.949 . S
C1 C2 1.395 . S
C1 C3 1.391 1_556 S
C2 C1 1.395 . S
C2 C5 1.390 1_556 S
C3 C1 1.391 1_554 S
C3 C7 1.387 . S
C3 C8 1.491 . S
H4 C5 0.950 . S
C5 C2 1.390 1_554 S
C5 H4 0.950 . S
C5 C6 1.378 . S
C6 C5 1.378 . S
C6 C7 1.409 . S
C7 C3 1.387 . S
C7 C6 1.409 . S
C7 H9 0.951 . S
C8 C3 1.491 . S
C8 C10 1.382 1_554 S
C8 C12 1.404 . S
H9 C7 0.951 . S
C10 C8 1.382 1_556 S
C10 C11 1.390 . S
C10 H15 0.949 . S
C11 C10 1.390 . S
C11 C16 1.399 1_556 S
C12 C8 1.404 . S
C12 H13 0.950 . S
C12 C14 1.375 . S
H13 C12 0.950 . S
C14 C12 1.375 . S
C14 C16 1.382 . S
C14 H18 0.950 . S
H15 C10 0.949 . S
C16 C11 1.399 1_554 S
C16 C14 1.382 . S
C16 H17 0.952 . S
H17 C16 0.952 . S
H18 C14 0.950 . S
H19 C20 0.949 . S
C20 H19 0.949 . S
C20 C21 1.390 1_655 S
C20 C22 1.391 . S
C21 C20 1.390 1_455 S
C21 C24 1.393 . S
C22 C20 1.391 . S
C22 C26 1.387 . S
C22 C27 1.491 . S
H23 C24 0.950 . S
C24 C21 1.393 . S
C24 H23 0.950 . S
C24 C25 1.379 . S
C25 C24 1.379 . S
C25 C26 1.407 1_455 S
C26 C22 1.387 . S
C26 C25 1.407 1_655 S
C26 H28 0.951 . S
C27 C22 1.491 . S
C27 C29 1.382 . S
C27 C31 1.404 . S
H28 C26 0.951 . S
C29 C27 1.382 . S
C29 C30 1.390 . S
C29 H34 0.949 1_655 S
C30 C29 1.390 . S
C30 C35 1.399 . S
C31 C27 1.404 . S
C31 H32 0.950 . S
C31 C33 1.375 . S
H32 C31 0.950 . S
C33 C31 1.375 . S
C33 C35 1.382 . S
C33 H37 0.950 . S
H34 C29 0.949 1_455 S
C35 C30 1.399 . S
C35 C33 1.382 . S
C35 H36 0.952 . S
H36 C35 0.952 . S
H37 C33 0.950 . S
H38 C39 0.949 1_556 S
C39 H38 0.949 1_554 S
C39 C40 1.393 1_565 S
C39 C41 1.391 . S
C40 C39 1.393 1_545 S
C40 C43 1.391 . S
C41 C39 1.391 . S
C41 C45 1.387 . S
C41 C46 1.491 . S
H42 C43 0.950 . S
C43 C40 1.391 . S
C43 H42 0.950 . S
C43 C44 1.378 1_545 S
C44 C43 1.378 1_565 S
C44 C45 1.408 . S
C45 C41 1.387 . S
C45 C44 1.408 . S
C45 H47 0.951 . S
C46 C41 1.491 . S
C46 C48 1.382 . S
C46 C50 1.404 . S
H47 C45 0.951 . S
C48 C46 1.382 . S
C48 C49 1.390 . S
C48 H53 0.949 1_564 S
C49 C48 1.390 . S
C49 C54 1.399 . S
C50 C46 1.404 . S
C50 H51 0.950 . S
C50 C52 1.375 . S
H51 C50 0.950 . S
C52 C50 1.375 . S
C52 C54 1.382 . S
C52 H56 0.950 . S
H53 C48 0.949 1_546 S
C54 C49 1.399 . S
C54 C52 1.382 . S
C54 H55 0.952 . S
H55 C54 0.952 . S
H56 C52 0.950 . S
H57 C58 0.949 . S
C58 H57 0.949 . S
C58 C59 1.395 . S
C58 C60 1.391 1_556 S
C59 C58 1.395 . S
C59 C62 1.390 1_556 S
C60 C58 1.391 1_554 S
C60 C64 1.387 . S
C60 C65 1.491 . S
H61 C62 0.950 . S
C62 C59 1.390 1_554 S
C62 H61 0.950 . S
C62 C63 1.378 . S
C63 C62 1.378 . S
C63 C64 1.409 . S
C64 C60 1.387 . S
C64 C63 1.409 . S
C64 H66 0.951 . S
C65 C60 1.491 . S
C65 C67 1.382 1_554 S
C65 C69 1.404 . S
H66 C64 0.951 . S
C67 C65 1.382 1_556 S
C67 C68 1.390 . S
C67 H72 0.949 . S
C68 C67 1.390 . S
C68 C73 1.399 1_556 S
C69 C65 1.404 . S
C69 H70 0.950 . S
C69 C71 1.375 . S
H70 C69 0.950 . S
C71 C69 1.375 . S
C71 C73 1.382 . S
C71 H75 0.950 . S
H72 C67 0.949 . S
C73 C68 1.399 1_554 S
C73 C71 1.382 . S
C73 H74 0.952 . S
H74 C73 0.952 . S
H75 C71 0.950 . S
H76 C77 0.949 . S
C77 H76 0.949 . S
C77 C78 1.395 . S
C77 C79 1.391 . S
C78 C77 1.395 . S
C78 C81 1.390 . S
C79 C77 1.391 . S
C79 C83 1.387 . S
C79 C84 1.491 . S
H80 C81 0.950 . S
C81 C78 1.390 . S
C81 H80 0.950 . S
C81 C82 1.378 . S
C82 C81 1.378 . S
C82 C83 1.409 . S
C83 C79 1.387 . S
C83 C82 1.409 . S
C83 H85 0.951 . S
C84 C79 1.491 . S
C84 C86 1.382 . S
C84 C88 1.404 . S
H85 C83 0.951 . S
C86 C84 1.382 . S
C86 C87 1.390 . S
C86 H91 0.949 . S
C87 C86 1.390 . S
C87 C92 1.399 . S
C88 C84 1.404 . S
C88 H89 0.950 . S
C88 C90 1.375 . S
H89 C88 0.950 . S
C90 C88 1.375 . S
C90 C92 1.382 . S
C90 H94 0.950 . S
H91 C86 0.949 . S
C92 C87 1.399 . S
C92 C90 1.382 . S
C92 H93 0.952 . S
H93 C92 0.952 . S
H94 C90 0.950 . S
H95 C96 0.949 . S
C96 H95 0.949 . S
C96 C97 1.395 . S
C96 C98 1.391 . S
C97 C96 1.395 . S
C97 C100 1.390 . S
C98 C96 1.391 . S
C98 C102 1.387 . S
C98 C103 1.491 . S
H99 C100 0.950 . S
C100 C97 1.390 . S
C100 H99 0.950 . S
C100 C101 1.378 . S
C101 C100 1.378 . S
C101 C102 1.409 . S
C102 C98 1.387 . S
C102 C101 1.409 . S
C102 H104 0.951 . S
C103 C98 1.491 . S
C103 C105 1.382 . S
C103 C107 1.404 . S
H104 C102 0.951 . S
C105 C103 1.382 . S
C105 C106 1.390 . S
C105 H110 0.949 . S
C106 C105 1.390 . S
C106 C111 1.399 . S
C107 C103 1.404 . S
C107 H108 0.950 1_455 S
C107 C109 1.376 . S
H108 C107 0.950 1_655 S
C109 C107 1.376 . S
C109 C111 1.384 . S
C109 H113 0.947 1_455 S
H110 C105 0.949 . S
C111 C106 1.399 . S
C111 C109 1.384 . S
C111 H112 0.952 . S
H112 C111 0.952 . S
H113 C109 0.947 1_655 S
H114 C115 0.949 . S
C115 H114 0.949 . S
C115 C116 1.395 . S
C115 C117 1.391 . S
C116 C115 1.395 . S
C116 C119 1.390 . S
C117 C115 1.391 . S
C117 C121 1.387 . S
C117 C122 1.491 1_545 S
H118 C119 0.950 . S
C119 C116 1.390 . S
C119 H118 0.950 . S
C119 C120 1.378 . S
C120 C119 1.378 . S
C120 C121 1.409 . S
C121 C117 1.387 . S
C121 C120 1.409 . S
C121 H123 0.951 . S
C122 C117 1.491 1_565 S
C122 C124 1.382 1_565 S
C122 C126 1.404 . S
H123 C121 0.951 . S
C124 C122 1.382 1_545 S
C124 C125 1.390 . S
C124 H129 0.949 . S
C125 C124 1.390 . S
C125 C130 1.399 1_545 S
C126 C122 1.404 . S
C126 H127 0.950 . S
C126 C128 1.375 . S
H127 C126 0.950 . S
C128 C126 1.375 . S
C128 C130 1.382 . S
C128 H132 0.950 . S
H129 C124 0.949 . S
C130 C125 1.399 1_565 S
C130 C128 1.382 . S
C130 H131 0.952 . S
H131 C130 0.952 . S
H132 C128 0.950 . S
H133 C134 0.949 . S
C134 H133 0.949 . S
C134 C135 1.395 . S
C134 C136 1.391 . S
C135 C134 1.395 . S
C135 C138 1.390 . S
C136 C134 1.391 . S
C136 C140 1.387 . S
C136 C141 1.491 . S
H137 C138 0.950 . S
C138 C135 1.390 . S
C138 H137 0.950 . S
C138 C139 1.378 . S
C139 C138 1.378 . S
C139 C140 1.409 . S
C140 C136 1.387 . S
C140 C139 1.409 . S
C140 H142 0.951 . S
C141 C136 1.491 . S
C141 C143 1.382 . S
C141 C145 1.404 . S
H142 C140 0.951 . S
C143 C141 1.382 . S
C143 C144 1.390 . S
C143 H148 0.949 . S
C144 C143 1.390 . S
C144 C149 1.399 . S
C145 C141 1.404 . S
C145 H146 0.950 . S
C145 C147 1.375 . S
H146 C145 0.950 . S
C147 C145 1.375 . S
C147 C149 1.382 . S
C147 H151 0.950 . S
H148 C143 0.949 . S
C149 C144 1.399 . S
C149 C147 1.382 . S
C149 H150 0.952 . S
H150 C149 0.952 . S
H151 C147 0.950 . S
O152 Zn153 1.956 . S
O152 C168 1.225 1_545 S
Zn153 O152 1.956 . S
Zn153 O154 1.948 1_545 S
Zn153 O160 1.947 . S
Zn153 O165 1.890 1_545 S
O154 Zn153 1.948 1_565 S
O154 Zn155 1.902 1_465 S
O154 Zn156 1.952 . S
O154 Zn157 1.965 1_455 S
Zn155 O154 1.902 1_645 S
Zn155 O158 1.933 . S
Zn155 O161 1.941 1_655 S
Zn155 O162 1.965 . S
Zn156 O154 1.952 . S
Zn156 O163 1.938 1_565 S
Zn156 O164 1.906 . S
Zn156 O174 1.953 . S
Zn157 O154 1.965 1_655 S
Zn157 O159 1.932 . S
Zn157 O166 1.977 . S
Zn157 O167 1.910 1_655 S
O158 Zn155 1.933 . S
O158 C169 1.226 . S
O159 Zn157 1.932 . S
O159 C169 1.307 1_565 S
O160 Zn153 1.947 . S
O160 C171 1.253 . S
O161 Zn155 1.941 1_455 S
O161 C171 1.283 . S
O162 Zn155 1.965 . S
O162 C170 1.303 1_655 S
O163 Zn156 1.938 1_545 S
O163 C170 1.247 . S
O164 Zn156 1.906 . S
O164 C172 1.304 1_455 S
O165 Zn153 1.890 1_565 S
O165 C173 1.311 . S
O166 Zn157 1.977 . S
O166 C172 1.272 . S
O167 Zn157 1.910 1_455 S
O167 C173 1.231 . S
C168 O152 1.225 1_565 S
C168 O174 1.298 . S
C169 O158 1.226 . S
C169 O159 1.307 1_545 S
C170 O162 1.303 1_455 S
C170 O163 1.247 . S
C171 O160 1.253 . S
C171 O161 1.283 . S
C172 O164 1.304 1_655 S
C172 O166 1.272 . S
C173 O165 1.311 . S
C173 O167 1.231 . S
O174 Zn156 1.953 . S
O174 C168 1.298 . S
O175 Zn176 1.953 . S
O175 C191 1.225 . S
Zn176 O175 1.953 . S
Zn176 O177 1.949 . S
Zn176 O183 1.919 . S
Zn176 O188 1.924 . S
O177 Zn176 1.949 . S
O177 Zn178 1.923 1_545 S
O177 Zn179 1.950 . S
O177 Zn180 1.945 1_545 S
Zn178 O177 1.923 1_565 S
Zn178 O181 1.933 . S
Zn178 O184 1.941 . S
Zn178 O185 1.965 . S
Zn179 O177 1.950 . S
Zn179 O186 1.938 . S
Zn179 O187 1.906 . S
Zn179 O197 1.953 . S
Zn180 O177 1.945 1_565 S
Zn180 O182 1.932 . S
Zn180 O189 1.977 . S
Zn180 O190 1.910 1_565 S
O181 Zn178 1.933 . S
O181 C192 1.226 . S
O182 Zn180 1.932 . S
O182 C192 1.307 . S
O183 Zn176 1.919 . S
O183 C194 1.253 . S
O184 Zn178 1.941 . S
O184 C194 1.283 1_565 S
O185 Zn178 1.965 . S
O185 C193 1.303 1_565 S
O186 Zn179 1.938 . S
O186 C193 1.247 . S
O187 Zn179 1.906 . S
O187 C195 1.304 1_545 S
O188 Zn176 1.924 . S
O188 C196 1.311 . S
O189 Zn180 1.977 . S
O189 C195 1.272 . S
O190 Zn180 1.910 1_545 S
O190 C196 1.231 . S
C191 O175 1.225 . S
C191 O197 1.298 . S
C192 O181 1.226 . S
C192 O182 1.307 . S
C193 O185 1.303 1_545 S
C193 O186 1.247 . S
C194 O183 1.253 . S
C194 O184 1.283 1_545 S
C195 O187 1.304 1_565 S
C195 O189 1.272 . S
C196 O188 1.311 . S
C196 O190 1.231 . S
O197 Zn179 1.953 . S
O197 C191 1.298 . S
O198 Zn199 1.953 . S
O198 C214 1.225 . S
Zn199 O198 1.953 . S
Zn199 O200 1.949 . S
Zn199 O206 1.919 . S
Zn199 O211 1.924 . S
O200 Zn199 1.949 . S
O200 Zn201 1.923 . S
O200 Zn202 1.950 . S
O200 Zn203 1.945 . S
Zn201 O200 1.923 . S
Zn201 O204 1.933 . S
Zn201 O207 1.941 . S
Zn201 O208 1.965 . S
Zn202 O200 1.950 . S
Zn202 O209 1.938 . S
Zn202 O210 1.906 . S
Zn202 O220 1.953 . S
Zn203 O200 1.945 . S
Zn203 O205 1.932 . S
Zn203 O212 1.977 . S
Zn203 O213 1.910 . S
O204 Zn201 1.933 . S
O204 C215 1.226 . S
O205 Zn203 1.932 . S
O205 C215 1.307 . S
O206 Zn199 1.919 . S
O206 C217 1.253 . S
O207 Zn201 1.941 . S
O207 C217 1.283 . S
O208 Zn201 1.965 . S
O208 C216 1.303 . S
O209 Zn202 1.938 . S
O209 C216 1.247 . S
O210 Zn202 1.906 . S
O210 C218 1.304 . S
O211 Zn199 1.924 . S
O211 C219 1.311 . S
O212 Zn203 1.977 . S
O212 C218 1.272 . S
O213 Zn203 1.910 . S
O213 C219 1.231 . S
C214 O198 1.225 . S
C214 O220 1.298 . S
C215 O204 1.226 . S
C215 O205 1.307 . S
C216 O208 1.303 . S
C216 O209 1.247 . S
C217 O206 1.253 . S
C217 O207 1.283 . S
C218 O210 1.304 . S
C218 O212 1.272 . S
C219 O211 1.311 . S
C219 O213 1.231 . S
O220 Zn202 1.953 . S
O220 C214 1.298 . S
O221 Zn222 1.953 1_655 S
O221 C237 1.225 . S
Zn222 O221 1.953 1_455 S
Zn222 O223 1.949 . S
Zn222 O229 1.919 . S
Zn222 O234 1.924 . S
O223 Zn222 1.949 . S
O223 Zn224 1.917 1_455 S
O223 Zn225 1.929 1_455 S
O223 Zn226 1.973 . S
Zn224 O223 1.917 1_655 S
Zn224 O227 1.933 1_655 S
Zn224 O230 1.941 . S
Zn224 O231 1.965 . S
Zn225 O223 1.929 1_655 S
Zn225 O232 1.938 . S
Zn225 O233 1.906 . S
Zn225 O243 1.953 . S
Zn226 O223 1.973 . S
Zn226 O228 1.932 . S
Zn226 O235 1.977 . S
Zn226 O236 1.910 . S
O227 Zn224 1.933 1_455 S
O227 C238 1.226 . S
O228 Zn226 1.932 . S
O228 C238 1.307 . S
O229 Zn222 1.919 . S
O229 C240 1.254 . S
O230 Zn224 1.941 . S
O230 C240 1.278 1_655 S
O231 Zn224 1.965 . S
O231 C239 1.303 . S
O232 Zn225 1.938 . S
O232 C239 1.247 . S
O233 Zn225 1.906 . S
O233 C241 1.304 1_655 S
O234 Zn222 1.924 . S
O234 C242 1.311 . S
O235 Zn226 1.977 . S
O235 C241 1.272 . S
O236 Zn226 1.910 . S
O236 C242 1.231 . S
C237 O221 1.225 . S
C237 O243 1.298 . S
C238 O227 1.226 . S
C238 O228 1.307 . S
C239 O231 1.303 . S
C239 O232 1.247 . S
C240 O229 1.254 . S
C240 O230 1.278 1_455 S
C241 O233 1.304 1_455 S
C241 O235 1.272 . S
C242 O234 1.311 . S
C242 O236 1.231 . S
O243 Zn225 1.953 . S
O243 C237 1.298 . S
H244 C252 0.950 . S
H245 C257 0.950 . S
H246 C254 0.950 . S
H247 C256 0.950 . S
H248 C258 0.950 . S
H249 C260 0.950 . S
H250 C262 0.950 . S
H251 C263 0.950 . S
C252 H244 0.950 . S
C252 C253 1.386 1_565 S
C252 C254 1.391 . S
C253 C252 1.386 1_545 S
C253 C257 1.393 . S
C254 H246 0.950 . S
C254 C252 1.391 . S
C254 C255 1.400 1_565 S
C255 C254 1.400 1_545 S
C255 C256 1.398 . S
C255 C261 1.491 . S
C256 H247 0.950 . S
C256 C255 1.398 . S
C256 C257 1.391 . S
C257 H245 0.950 . S
C257 C253 1.393 . S
C257 C256 1.391 . S
C258 H248 0.950 . S
C258 C259 1.364 1_545 S
C258 C260 1.391 . S
C259 C258 1.364 1_565 S
C259 C263 1.413 . S
C260 H249 0.950 . S
C260 C258 1.391 . S
C260 C261 1.400 . S
C261 C255 1.491 . S
C261 C260 1.400 . S
C261 C262 1.398 1_545 S
C262 H250 0.950 . S
C262 C261 1.398 1_565 S
C262 C263 1.391 . S
C263 H251 0.950 . S
C263 C259 1.413 . S
C263 C262 1.391 . S
H264 C272 0.950 . S
H265 C277 0.950 . S
H266 C274 0.950 . S
H267 C276 0.950 . S
H268 C278 0.950 . S
H269 C280 0.950 . S
H270 C282 0.950 . S
H271 C283 0.950 . S
C272 H264 0.950 . S
C272 C273 1.386 . S
C272 C274 1.391 . S
C273 C272 1.386 . S
C273 C277 1.393 . S
C274 H266 0.950 . S
C274 C272 1.391 . S
C274 C275 1.400 . S
C275 C274 1.400 . S
C275 C276 1.398 . S
C275 C281 1.491 . S
C276 H267 0.950 . S
C276 C275 1.398 . S
C276 C277 1.391 . S
C277 H265 0.950 . S
C277 C273 1.393 . S
C277 C276 1.391 . S
C278 H268 0.950 . S
C278 C279 1.386 . S
C278 C280 1.391 . S
C279 C278 1.386 . S
C279 C283 1.393 . S
C280 H269 0.950 . S
C280 C278 1.391 . S
C280 C281 1.400 . S
C281 C275 1.491 . S
C281 C280 1.400 . S
C281 C282 1.398 . S
C282 H270 0.950 . S
C282 C281 1.398 . S
C282 C283 1.391 . S
C283 H271 0.950 . S
C283 C279 1.393 . S
C283 C282 1.391 . S
H284 C292 0.950 . S
H285 C297 0.950 . S
H286 C294 0.950 . S
H287 C296 0.950 . S
H288 C298 0.950 . S
H289 C300 0.950 . S
H290 C302 0.950 . S
H291 C303 0.950 . S
C292 H284 0.950 . S
C292 C293 1.386 . S
C292 C294 1.391 . S
C293 C292 1.386 . S
C293 C297 1.393 . S
C294 H286 0.950 . S
C294 C292 1.391 . S
C294 C295 1.400 . S
C295 C294 1.400 . S
C295 C296 1.398 . S
C295 C301 1.491 . S
C296 H287 0.950 . S
C296 C295 1.398 . S
C296 C297 1.391 . S
C297 H285 0.950 . S
C297 C293 1.393 . S
C297 C296 1.391 . S
C298 H288 0.950 . S
C298 C299 1.386 . S
C298 C300 1.391 . S
C299 C298 1.386 . S
C299 C303 1.393 . S
C300 H289 0.950 . S
C300 C298 1.391 . S
C300 C301 1.400 . S
C301 C295 1.491 . S
C301 C300 1.400 . S
C301 C302 1.398 . S
C302 H290 0.950 . S
C302 C301 1.398 . S
C302 C303 1.391 . S
C303 H291 0.950 . S
C303 C299 1.393 . S
C303 C302 1.391 . S
H304 C312 0.950 . S
H305 C317 0.950 1_655 S
H306 C314 0.950 . S
H307 C316 0.950 1_655 S
H308 C318 0.950 . S
H309 C320 0.950 . S
H310 C322 0.950 . S
H311 C323 0.950 . S
C312 H304 0.950 . S
C312 C313 1.386 . S
C312 C314 1.391 . S
C313 C312 1.386 . S
C313 C317 1.393 . S
C314 H306 0.950 . S
C314 C312 1.391 . S
C314 C315 1.400 . S
C315 C314 1.400 . S
C315 C316 1.398 . S
C315 C321 1.491 . S
C316 H307 0.950 1_455 S
C316 C315 1.398 . S
C316 C317 1.391 . S
C317 H305 0.950 1_455 S
C317 C313 1.393 . S
C317 C316 1.391 . S
C318 H308 0.950 . S
C318 C319 1.386 1_655 S
C318 C320 1.391 . S
C319 C318 1.386 1_455 S
C319 C323 1.393 . S
C320 H309 0.950 . S
C320 C318 1.391 . S
C320 C321 1.400 1_655 S
C321 C315 1.491 . S
C321 C320 1.400 1_455 S
C321 C322 1.398 . S
C322 H310 0.950 . S
C322 C321 1.398 . S
C322 C323 1.391 . S
C323 H311 0.950 . S
C323 C319 1.393 . S
C323 C322 1.391 . S
H324 C332 0.950 . S
H325 C337 0.950 . S
H326 C334 0.950 . S
H327 C336 0.950 . S
H328 C338 0.950 . S
H329 C340 0.950 . S
H330 C342 0.950 . S
H331 C343 0.950 . S
C332 H324 0.950 . S
C332 C333 1.417 . S
C332 C334 1.391 . S
C333 C332 1.417 . S
C333 C337 1.362 1_565 S
C334 H326 0.950 . S
C334 C332 1.391 . S
C334 C335 1.402 1_565 S
C335 C334 1.402 1_545 S
C335 C336 1.396 . S
C335 C341 1.491 . S
C336 H327 0.950 . S
C336 C335 1.396 . S
C336 C337 1.391 . S
C337 H325 0.950 . S
C337 C333 1.362 1_545 S
C337 C336 1.391 . S
C338 H328 0.950 . S
C338 C339 1.386 . S
C338 C340 1.391 . S
C339 C338 1.386 . S
C339 C343 1.393 1_545 S
C340 H329 0.950 . S
C340 C338 1.391 . S
C340 C341 1.421 . S
C341 C335 1.491 . S
C341 C340 1.421 . S
C341 C342 1.378 1_545 S
C342 H330 0.950 . S
C342 C341 1.378 1_565 S
C342 C343 1.391 . S
C343 H331 0.950 . S
C343 C339 1.393 1_565 S
C343 C342 1.391 . S
H344 C352 0.950 . S
H345 C357 0.950 . S
H346 C354 0.950 . S
H347 C356 0.950 . S
H348 C358 0.950 . S
H349 C360 0.950 . S
H350 C362 0.950 . S
H351 C363 0.950 . S
C352 H344 0.950 . S
C352 C353 1.386 . S
C352 C354 1.391 . S
C353 C352 1.386 . S
C353 C357 1.393 . S
C354 H346 0.950 . S
C354 C352 1.391 . S
C354 C355 1.400 . S
C355 C354 1.400 . S
C355 C356 1.398 . S
C355 C361 1.491 . S
C356 H347 0.950 . S
C356 C355 1.398 . S
C356 C357 1.391 . S
C357 H345 0.950 . S
C357 C353 1.393 . S
C357 C356 1.391 . S
C358 H348 0.950 . S
C358 C359 1.386 . S
C358 C360 1.391 . S
C359 C358 1.386 . S
C359 C363 1.393 . S
C360 H349 0.950 . S
C360 C358 1.391 . S
C360 C361 1.400 . S
C361 C355 1.491 . S
C361 C360 1.400 . S
C361 C362 1.398 . S
C362 H350 0.950 . S
C362 C361 1.398 . S
C362 C363 1.391 . S
C363 H351 0.950 . S
C363 C359 1.393 . S
C363 C362 1.391 . S
H364 C372 0.950 . S
H365 C377 0.950 1_554 S
H366 C374 0.950 . S
H367 C376 0.950 . S
H368 C378 0.950 . S
H369 C380 0.950 . S
H370 C382 0.950 . S
H371 C383 0.950 . S
C372 H364 0.950 . S
C372 C373 1.386 . S
C372 C374 1.391 . S
C373 C372 1.386 . S
C373 C377 1.393 . S
C374 H366 0.950 . S
C374 C372 1.391 . S
C374 C375 1.400 . S
C375 C374 1.400 . S
C375 C376 1.398 . S
C375 C381 1.491 . S
C376 H367 0.950 . S
C376 C375 1.398 . S
C376 C377 1.391 . S
C377 H365 0.950 1_556 S
C377 C373 1.393 . S
C377 C376 1.391 . S
C378 H368 0.950 . S
C378 C379 1.386 . S
C378 C380 1.391 . S
C379 C378 1.386 . S
C379 C383 1.393 . S
C380 H369 0.950 . S
C380 C378 1.391 . S
C380 C381 1.400 . S
C381 C375 1.491 . S
C381 C380 1.400 . S
C381 C382 1.398 . S
C382 H370 0.950 . S
C382 C381 1.398 . S
C382 C383 1.391 . S
C383 H371 0.950 . S
C383 C379 1.393 . S
C383 C382 1.391 . S
H384 C392 0.950 . S
H385 C397 0.950 . S
H386 C394 0.950 1_554 S
H387 C396 0.950 . S
H388 C398 0.950 . S
H389 C400 0.950 . S
H390 C402 0.950 . S
H391 C403 0.950 . S
C392 H384 0.950 . S
C392 C393 1.386 1_554 S
C392 C394 1.391 1_554 S
C393 C392 1.386 1_556 S
C393 C397 1.393 1_655 S
C394 H386 0.950 1_556 S
C394 C392 1.391 1_556 S
C394 C395 1.395 1_655 S
C395 C394 1.395 1_455 S
C395 C396 1.402 . S
C395 C401 1.492 . S
C396 H387 0.950 . S
C396 C395 1.402 . S
C396 C397 1.391 . S
C397 H385 0.950 . S
C397 C393 1.393 1_455 S
C397 C396 1.391 . S
C398 H388 0.950 . S
C398 C399 1.386 . S
C398 C400 1.391 . S
C399 C398 1.386 . S
C399 C403 1.393 1_455 S
C400 H389 0.950 . S
C400 C398 1.391 . S
C400 C401 1.400 . S
C401 C395 1.492 . S
C401 C400 1.400 . S
C401 C402 1.398 1_455 S
C402 H390 0.950 . S
C402 C401 1.398 1_655 S
C402 C403 1.391 . S
C403 H391 0.950 . S
C403 C399 1.393 1_655 S
C403 C402 1.391 . S
H404 C412 0.950 . S
H405 C417 0.961 . S
H406 C414 0.950 . S
H407 C416 0.950 1_655 S
H408 C418 0.947 . S
H409 C420 0.950 1_655 S
H410 C422 0.950 . S
H411 C423 0.950 . S
C412 H404 0.950 . S
C412 C413 1.386 . S
C412 C414 1.391 . S
C413 C412 1.386 . S
C413 C417 1.393 . S
C414 H406 0.950 . S
C414 C412 1.391 . S
C414 C415 1.400 . S
C415 C414 1.400 . S
C415 C416 1.398 . S
C415 C421 1.491 . S
C416 H407 0.950 1_455 S
C416 C415 1.398 . S
C416 C417 1.391 . S
C417 H405 0.961 . S
C417 C413 1.393 . S
C417 C416 1.391 . S
C418 H408 0.947 . S
C418 C419 1.388 1_655 S
C418 C420 1.392 1_655 S
C419 C418 1.388 1_455 S
C419 C423 1.393 . S
C420 H409 0.950 1_455 S
C420 C418 1.392 1_455 S
C420 C421 1.400 . S
C421 C415 1.491 . S
C421 C420 1.400 . S
C421 C422 1.398 . S
C422 H410 0.950 . S
C422 C421 1.398 . S
C422 C423 1.391 . S
C423 H411 0.950 . S
C423 C419 1.393 . S
C423 C422 1.391 . S
H424 C432 0.950 . S
H425 C437 0.950 . S
H426 C434 0.950 . S
H427 C436 0.950 . S
H428 C438 0.950 . S
H429 C440 0.950 . S
H430 C442 0.950 . S
H431 C443 0.950 . S
C432 H424 0.950 . S
C432 C433 1.386 . S
C432 C434 1.391 . S
C433 C432 1.386 . S
C433 C437 1.393 1_545 S
C434 H426 0.950 . S
C434 C432 1.391 . S
C434 C435 1.400 . S
C435 C434 1.400 . S
C435 C436 1.398 1_545 S
C435 C441 1.491 . S
C436 H427 0.950 . S
C436 C435 1.398 1_565 S
C436 C437 1.391 . S
C437 H425 0.950 . S
C437 C433 1.393 1_565 S
C437 C436 1.391 . S
C438 H428 0.950 . S
C438 C439 1.386 1_565 S
C438 C440 1.391 . S
C439 C438 1.386 1_545 S
C439 C443 1.393 . S
C440 H429 0.950 . S
C440 C438 1.391 . S
C440 C441 1.400 1_565 S
C441 C435 1.491 . S
C441 C440 1.400 1_545 S
C441 C442 1.398 . S
C442 H430 0.950 . S
C442 C441 1.398 . S
C442 C443 1.391 . S
C443 H431 0.950 . S
C443 C439 1.393 . S
C443 C442 1.391 . S
H444 C452 0.950 . S
H445 C457 0.950 . S
H446 C454 0.950 . S
H447 C456 0.950 . S
H448 C458 0.950 . S
H449 C460 0.950 . S
H450 C462 0.950 . S
H451 C463 0.950 . S
C452 H444 0.950 . S
C452 C453 1.386 . S
C452 C454 1.391 . S
C453 C452 1.386 . S
C453 C457 1.393 . S
C454 H446 0.950 . S
C454 C452 1.391 . S
C454 C455 1.400 . S
C455 C454 1.400 . S
C455 C456 1.398 . S
C455 C461 1.491 . S
C456 H447 0.950 . S
C456 C455 1.398 . S
C456 C457 1.391 . S
C457 H445 0.950 . S
C457 C453 1.393 . S
C457 C456 1.391 . S
C458 H448 0.950 . S
C458 C459 1.386 . S
C458 C460 1.391 . S
C459 C458 1.386 . S
C459 C463 1.393 . S
C460 H449 0.950 . S
C460 C458 1.391 . S
C460 C461 1.400 . S
C461 C455 1.491 . S
C461 C460 1.400 . S
C461 C462 1.398 . S
C462 H450 0.950 . S
C462 C461 1.398 . S
C462 C463 1.391 . S
C463 H451 0.950 . S
C463 C459 1.393 . S
C463 C462 1.391 . S
H464 C472 0.950 . S
H465 C477 0.950 . S
H466 C474 0.950 . S
H467 C476 0.950 . S
H468 C478 0.950 . S
H469 C480 0.950 . S
H470 C482 0.950 . S
H471 C483 0.950 . S
C472 H464 0.950 . S
C472 C473 1.386 . S
C472 C474 1.391 . S
C473 C472 1.386 . S
C473 C477 1.393 . S
C474 H466 0.950 . S
C474 C472 1.391 . S
C474 C475 1.400 . S
C475 C474 1.400 . S
C475 C476 1.398 . S
C475 C481 1.491 . S
C476 H467 0.950 . S
C476 C475 1.398 . S
C476 C477 1.391 . S
C477 H465 0.950 . S
C477 C473 1.393 . S
C477 C476 1.391 . S
C478 H468 0.950 . S
C478 C479 1.386 . S
C478 C480 1.391 . S
C479 C478 1.386 . S
C479 C483 1.393 . S
C480 H469 0.950 . S
C480 C478 1.391 . S
C480 C481 1.400 . S
C481 C475 1.491 . S
C481 C480 1.400 . S
C481 C482 1.398 . S
C482 H470 0.950 . S
C482 C481 1.398 . S
C482 C483 1.391 . S
C483 H471 0.950 . S
C483 C479 1.393 . S
C483 C482 1.391 . S
H484 C492 0.950 . S
H485 C497 0.950 . S
H486 C494 0.950 . S
H487 C496 0.950 . S
H488 C498 0.950 . S
H489 C500 0.950 1_655 S
H490 C502 0.950 . S
H491 C503 0.950 . S
C492 H484 0.950 . S
C492 C493 1.403 1_556 S
C492 C494 1.391 . S
C493 C492 1.403 1_554 S
C493 C497 1.381 1_455 S
C494 H486 0.950 . S
C494 C492 1.391 . S
C494 C495 1.400 . S
C495 C494 1.400 . S
C495 C496 1.398 1_456 S
C495 C501 1.491 . S
C496 H487 0.950 . S
C496 C495 1.398 1_654 S
C496 C497 1.391 . S
C497 H485 0.950 . S
C497 C493 1.381 1_655 S
C497 C496 1.391 . S
C498 H488 0.950 . S
C498 C499 1.386 . S
C498 C500 1.391 . S
C499 C498 1.386 . S
C499 C503 1.393 . S
C500 H489 0.950 1_455 S
C500 C498 1.391 . S
C500 C501 1.400 . S
C501 C495 1.491 . S
C501 C500 1.400 . S
C501 C502 1.398 . S
C502 H490 0.950 . S
C502 C501 1.398 . S
C502 C503 1.391 . S
C503 H491 0.950 . S
C503 C499 1.393 . S
C503 C502 1.391 . S
H504 C512 0.949 . S
H505 C517 0.950 . S
H506 C514 0.950 1_554 S
H507 C516 0.950 . S
H508 C518 0.950 . S
H509 C520 0.950 . S
H510 C522 0.950 . S
H511 C523 0.950 . S
C512 H504 0.949 . S
C512 C513 1.386 1_564 S
C512 C514 1.391 1_564 S
C513 C512 1.386 1_546 S
C513 C517 1.393 . S
C514 H506 0.950 1_556 S
C514 C512 1.391 1_546 S
C514 C515 1.400 . S
C515 C514 1.400 . S
C515 C516 1.398 . S
C515 C521 1.491 . S
C516 H507 0.950 . S
C516 C515 1.398 . S
C516 C517 1.391 . S
C517 H505 0.950 . S
C517 C513 1.393 . S
C517 C516 1.391 . S
C518 H508 0.950 . S
C518 C519 1.386 . S
C518 C520 1.391 . S
C519 C518 1.386 . S
C519 C523 1.393 . S
C520 H509 0.950 . S
C520 C518 1.391 . S
C520 C521 1.400 . S
C521 C515 1.491 . S
C521 C520 1.400 . S
C521 C522 1.398 . S
C522 H510 0.950 . S
C522 C521 1.398 . S
C522 C523 1.391 . S
C523 H511 0.950 . S
C523 C519 1.393 . S
C523 C522 1.391 . S
H524 C532 0.950 . S
H525 C537 0.950 1_554 S
H526 C534 0.950 . S
H527 C536 0.950 . S
H528 C538 0.950 . S
H529 C540 0.950 . S
H530 C542 0.950 . S
H531 C543 0.950 . S
C532 H524 0.950 . S
C532 C533 1.386 . S
C532 C534 1.391 . S
C533 C532 1.386 . S
C533 C537 1.393 . S
C534 H526 0.950 . S
C534 C532 1.391 . S
C534 C535 1.400 . S
C535 C534 1.400 . S
C535 C536 1.398 . S
C535 C541 1.491 . S
C536 H527 0.950 . S
C536 C535 1.398 . S
C536 C537 1.391 . S
C537 H525 0.950 1_556 S
C537 C533 1.393 . S
C537 C536 1.391 . S
C538 H528 0.950 . S
C538 C539 1.386 . S
C538 C540 1.391 . S
C539 C538 1.386 . S
C539 C543 1.393 . S
C540 H529 0.950 . S
C540 C538 1.391 . S
C540 C541 1.400 . S
C541 C535 1.491 . S
C541 C540 1.400 . S
C541 C542 1.398 . S
C542 H530 0.950 . S
C542 C541 1.398 . S
C542 C543 1.391 . S
C543 H531 0.950 . S
C543 C539 1.393 . S
C543 C542 1.391 . S
H544 C552 0.950 1_554 S
H545 C557 0.950 . S
H546 C554 0.950 . S
H547 C556 0.950 . S
H548 C558 0.950 . S
H549 C560 0.950 . S
H550 C562 0.950 . S
H551 C563 0.950 . S
C552 H544 0.950 1_556 S
C552 C553 1.386 . S
C552 C554 1.391 . S
C553 C552 1.386 . S
C553 C557 1.393 . S
C554 H546 0.950 . S
C554 C552 1.391 . S
C554 C555 1.400 . S
C555 C554 1.400 . S
C555 C556 1.398 . S
C555 C561 1.491 . S
C556 H547 0.950 . S
C556 C555 1.398 . S
C556 C557 1.391 . S
C557 H545 0.950 . S
C557 C553 1.393 . S
C557 C556 1.391 . S
C558 H548 0.950 . S
C558 C559 1.386 . S
C558 C560 1.391 . S
C559 C558 1.386 . S
C559 C563 1.393 . S
C560 H549 0.950 . S
C560 C558 1.391 . S
C560 C561 1.400 . S
C561 C555 1.491 . S
C561 C560 1.400 . S
C561 C562 1.398 . S
C562 H550 0.950 . S
C562 C561 1.398 . S
C562 C563 1.391 . S
C563 H551 0.950 . S
C563 C559 1.393 . S
C563 C562 1.391 . S
H564 C572 0.950 . S
H565 C577 0.918 1_655 S
H566 C574 0.950 . S
H567 C576 0.950 1_655 S
H568 C578 0.950 . S
H569 C580 0.950 1_655 S
H570 C582 0.950 . S
H571 C583 0.950 . S
C572 H564 0.950 . S
C572 C573 1.386 . S
C572 C574 1.391 . S
C573 C572 1.386 . S
C573 C577 1.393 . S
C574 H566 0.950 . S
C574 C572 1.391 . S
C574 C575 1.400 . S
C575 C574 1.400 . S
C575 C576 1.398 . S
C575 C581 1.491 . S
C576 H567 0.950 1_455 S
C576 C575 1.398 . S
C576 C577 1.391 . S
C577 H565 0.918 1_455 S
C577 C573 1.393 . S
C577 C576 1.391 . S
C578 H568 0.950 . S
C578 C579 1.386 1_655 S
C578 C580 1.391 1_656 S
C579 C578 1.386 1_455 S
C579 C583 1.393 . S
C580 H569 0.950 1_455 S
C580 C578 1.391 1_454 S
C580 C581 1.400 . S
C581 C575 1.491 . S
C581 C580 1.400 . S
C581 C582 1.398 . S
C582 H570 0.950 . S
C582 C581 1.398 . S
C582 C583 1.391 1_554 S
C583 H571 0.950 . S
C583 C579 1.393 . S
C583 C582 1.391 1_556 S
H584 C592 0.950 . S
H585 C597 0.950 . S
H586 C594 0.950 . S
H587 C596 0.950 1_556 S
H588 C598 0.950 . S
H589 C600 0.950 . S
H590 C602 0.950 . S
H591 C603 0.950 1_554 S
C592 H584 0.950 . S
C592 C593 1.386 . S
C592 C594 1.391 . S
C593 C592 1.386 . S
C593 C597 1.393 . S
C594 H586 0.950 . S
C594 C592 1.391 . S
C594 C595 1.400 . S
C595 C594 1.400 . S
C595 C596 1.398 . S
C595 C601 1.490 . S
C596 H587 0.950 1_554 S
C596 C595 1.398 . S
C596 C597 1.391 . S
C597 H585 0.950 . S
C597 C593 1.393 . S
C597 C596 1.391 . S
C598 H588 0.950 . S
C598 C599 1.386 . S
C598 C600 1.391 . S
C599 C598 1.386 . S
C599 C603 1.393 . S
C600 H589 0.950 . S
C600 C598 1.391 . S
C600 C601 1.401 1_556 S
C601 C595 1.490 . S
C601 C600 1.401 1_554 S
C601 C602 1.398 . S
C602 H590 0.950 . S
C602 C601 1.398 . S
C602 C603 1.391 1_554 S
C603 H591 0.950 1_556 S
C603 C599 1.393 . S
C603 C602 1.391 1_556 S
H604 C612 0.950 . S
H605 C617 0.950 . S
H606 C614 0.950 . S
H607 C616 0.950 1_556 S
H608 C618 0.950 . S
H609 C620 0.950 . S
H610 C622 0.950 1_554 S
H611 C623 0.950 . S
C612 H604 0.950 . S
C612 C613 1.386 . S
C612 C614 1.391 . S
C613 C612 1.386 . S
C613 C617 1.393 . S
C614 H606 0.950 . S
C614 C612 1.391 . S
C614 C615 1.400 . S
C615 C614 1.400 . S
C615 C616 1.398 . S
C615 C621 1.491 1_554 S
C616 H607 0.950 1_554 S
C616 C615 1.398 . S
C616 C617 1.391 . S
C617 H605 0.950 . S
C617 C613 1.393 . S
C617 C616 1.391 . S
C618 H608 0.950 . S
C618 C619 1.386 . S
C618 C620 1.391 . S
C619 C618 1.386 . S
C619 C623 1.393 . S
C620 H609 0.950 . S
C620 C618 1.391 . S
C620 C621 1.400 . S
C621 C615 1.491 1_556 S
C621 C620 1.400 . S
C621 C622 1.398 . S
C622 H610 0.950 1_556 S
C622 C621 1.398 . S
C622 C623 1.391 . S
C623 H611 0.950 . S
C623 C619 1.393 . S
C623 C622 1.391 . S
H624 C632 0.950 . S
H625 C637 0.950 . S
H626 C634 0.950 . S
H627 C636 0.950 . S
H628 C638 0.950 . S
H629 C640 0.950 . S
H630 C642 0.957 . S
H631 C643 0.950 . S
C632 H624 0.950 . S
C632 C633 1.386 . S
C632 C634 1.391 . S
C633 C632 1.386 . S
C633 C637 1.393 . S
C634 H626 0.950 . S
C634 C632 1.391 . S
C634 C635 1.400 . S
C635 C634 1.400 . S
C635 C636 1.398 1_554 S
C635 C641 1.491 1_554 S
C636 H627 0.950 . S
C636 C635 1.398 1_556 S
C636 C637 1.391 1_556 S
C637 H625 0.950 . S
C637 C633 1.393 . S
C637 C636 1.391 1_554 S
C638 H628 0.950 . S
C638 C639 1.386 . S
C638 C640 1.391 . S
C639 C638 1.386 . S
C639 C643 1.393 . S
C640 H629 0.950 . S
C640 C638 1.391 . S
C640 C641 1.400 . S
C641 C635 1.491 1_556 S
C641 C640 1.400 . S
C641 C642 1.396 1_556 S
C642 H630 0.957 . S
C642 C641 1.396 1_554 S
C642 C643 1.386 1_554 S
C643 H631 0.950 . S
C643 C639 1.393 . S
C643 C642 1.386 1_556 S
H644 C652 0.950 . S
H645 C657 0.950 . S
H646 C654 0.950 . S
H647 C656 0.950 . S
H648 C658 0.950 . S
H649 C660 0.950 . S
H650 C662 0.950 . S
H651 C663 0.950 . S
C652 H644 0.950 . S
C652 C653 1.367 1_455 S
C652 C654 1.391 . S
C653 C652 1.367 1_655 S
C653 C657 1.414 . S
C654 H646 0.950 . S
C654 C652 1.391 . S
C654 C655 1.400 1_455 S
C655 C654 1.400 1_655 S
C655 C656 1.398 . S
C655 C661 1.491 . S
C656 H647 0.950 . S
C656 C655 1.398 . S
C656 C657 1.391 . S
C657 H645 0.950 . S
C657 C653 1.414 . S
C657 C656 1.391 . S
C658 H648 0.950 . S
C658 C659 1.386 . S
C658 C660 1.391 . S
C659 C658 1.386 . S
C659 C663 1.393 1_655 S
C660 H649 0.950 . S
C660 C658 1.391 . S
C660 C661 1.400 . S
C661 C655 1.491 . S
C661 C660 1.400 . S
C661 C662 1.398 1_655 S
C662 H650 0.950 . S
C662 C661 1.398 1_455 S
C662 C663 1.391 . S
C663 H651 0.950 . S
C663 C659 1.393 1_455 S
C663 C662 1.391 . S
H664 C672 0.950 . S
H665 C677 0.950 . S
H666 C674 0.950 . S
H667 C676 0.950 . S
H668 C678 0.954 . S
H669 C680 0.950 1_545 S
H670 C682 0.950 . S
H671 C683 0.950 . S
C672 H664 0.950 . S
C672 C673 1.386 . S
C672 C674 1.391 . S
C673 C672 1.386 . S
C673 C677 1.393 1_565 S
C674 H666 0.950 . S
C674 C672 1.391 . S
C674 C675 1.400 . S
C675 C674 1.400 . S
C675 C676 1.398 1_565 S
C675 C681 1.491 . S
C676 H667 0.950 . S
C676 C675 1.398 1_545 S
C676 C677 1.391 . S
C677 H665 0.950 . S
C677 C673 1.393 1_545 S
C677 C676 1.391 . S
C678 H668 0.954 . S
C678 C679 1.386 . S
C678 C680 1.391 . S
C679 C678 1.386 . S
C679 C683 1.393 . S
C680 H669 0.950 1_565 S
C680 C678 1.391 . S
C680 C681 1.400 . S
C681 C675 1.491 . S
C681 C680 1.400 . S
C681 C682 1.398 . S
C682 H670 0.950 . S
C682 C681 1.398 . S
C682 C683 1.391 . S
C683 H671 0.950 . S
C683 C679 1.393 . S
C683 C682 1.391 . S
H684 C692 0.950 . S
H685 C697 0.950 . S
H686 C694 0.950 . S
H687 C696 0.950 . S
H688 C698 0.950 . S
H689 C700 0.950 . S
H690 C702 0.950 . S
H691 C703 0.950 . S
C692 H684 0.950 . S
C692 C693 1.386 . S
C692 C694 1.391 . S
C693 C692 1.386 . S
C693 C697 1.393 . S
C694 H686 0.950 . S
C694 C692 1.391 . S
C694 C695 1.400 . S
C695 C694 1.400 . S
C695 C696 1.398 . S
C695 C701 1.491 . S
C696 H687 0.950 . S
C696 C695 1.398 . S
C696 C697 1.391 . S
C697 H685 0.950 . S
C697 C693 1.393 . S
C697 C696 1.391 . S
C698 H688 0.950 . S
C698 C699 1.386 . S
C698 C700 1.391 . S
C699 C698 1.386 . S
C699 C703 1.393 . S
C700 H689 0.950 . S
C700 C698 1.391 . S
C700 C701 1.400 . S
C701 C695 1.491 . S
C701 C700 1.400 . S
C701 C702 1.398 . S
C702 H690 0.950 . S
C702 C701 1.398 . S
C702 C703 1.391 . S
C703 H691 0.950 . S
C703 C699 1.393 . S
C703 C702 1.391 . S
H704 C712 0.950 . S
H705 C717 0.950 . S
H706 C714 0.950 . S
H707 C716 0.950 . S
H708 C718 0.950 . S
H709 C720 0.950 . S
H710 C722 0.950 . S
H711 C723 0.950 . S
C712 H704 0.950 . S
C712 C713 1.386 . S
C712 C714 1.391 . S
C713 C712 1.386 . S
C713 C717 1.393 . S
C714 H706 0.950 . S
C714 C712 1.391 . S
C714 C715 1.400 . S
C715 C714 1.400 . S
C715 C716 1.398 . S
C715 C721 1.491 . S
C716 H707 0.950 . S
C716 C715 1.398 . S
C716 C717 1.391 . S
C717 H705 0.950 . S
C717 C713 1.393 . S
C717 C716 1.391 . S
C718 H708 0.950 . S
C718 C719 1.386 . S
C718 C720 1.391 . S
C719 C718 1.386 . S
C719 C723 1.393 . S
C720 H709 0.950 . S
C720 C718 1.391 . S
C720 C721 1.400 . S
C721 C715 1.491 . S
C721 C720 1.400 . S
C721 C722 1.398 . S
C722 H710 0.950 . S
C722 C721 1.398 . S
C722 C723 1.391 . S
C723 H711 0.950 . S
C723 C719 1.393 . S
C723 C722 1.391 . S
C253 C125 1.556 . S
C259 C168 1.599 . S
C279 C191 1.631 . S
C273 C144 1.549 . S
C299 C214 1.652 . S
C293 C87 1.604 . S
C319 C241 1.542 . S
C313 C106 1.490 . S
C339 C169 1.583 . S
C333 C49 1.534 1_556 S
C353 C68 1.457 . S
C359 C192 1.529 . S
C373 C11 1.472 . S
C379 C215 1.517 . S
C393 C30 1.584 1_556 S
C399 C240 1.617 . S
C419 C170 0.506 . S
C413 C97 0.611 . S
C439 C193 0.491 . S
C433 C116 0.582 . S
C459 C216 0.546 . S
C453 C135 0.583 . S
C473 C78 0.638 . S
C479 C242 0.639 . S
C493 C21 0.791 . S
C499 C173 0.789 . S
C519 C196 0.717 . S
C513 C40 0.741 1_556 S
C539 C219 0.737 . S
C533 C59 0.730 . S
C553 C2 0.555 . S
C559 C239 0.475 . S
C573 C101 1.586 . S
C579 C171 1.552 . S
C593 C120 1.557 . S
C599 C194 1.536 . S
C619 C217 1.555 . S
C613 C139 1.574 . S
C639 C238 1.404 . S
C633 C82 1.373 . S
C653 C25 1.596 1_655 S
C659 C172 1.537 . S
C679 C195 1.487 . S
C673 C44 1.569 . S
C699 C218 1.498 . S
C693 C63 1.554 . S
C713 C6 1.722 . S
C719 C237 1.750 . S
