# Generated by pormake.
# Topology ssb, (4,4)-cn, num edge types: 1
# Building blocks:
#     Node 0, Type 0, BuildingBlock: NAWXER_clean_linker_0, # of connection points: 4
#     Node 1, Type 0, BuildingBlock: NAWXER_clean_linker_0, # of connection points: 4
#     Node 2, Type 0, BuildingBlock: NAWXER_clean_linker_0, # of connection points: 4
#     Node 3, Type 0, BuildingBlock: NAWXER_clean_linker_0, # of connection points: 4
#     Node 4, Type 0, BuildingBlock: NAWXER_clean_linker_0, # of connection points: 4
#     Node 5, Type 0, BuildingBlock: NAWXER_clean_linker_0, # of connection points: 4
#     Node 6, Type 0, BuildingBlock: NAWXER_clean_linker_0, # of connection points: 4
#     Node 7, Type 0, BuildingBlock: NAWXER_clean_linker_0, # of connection points: 4
#     Node 8, Type 1, BuildingBlock: NAWXER_clean_sbu_0, # of connection points: 4
#     Node 9, Type 1, BuildingBlock: NAWXER_clean_sbu_0, # of connection points: 4
#     Node 10, Type 1, BuildingBlock: NAWXER_clean_sbu_0, # of connection points: 4
#     Node 11, Type 1, BuildingBlock: NAWXER_clean_sbu_0, # of connection points: 4
#     Node 12, Type 1, BuildingBlock: NAWXER_clean_sbu_0, # of connection points: 4
#     Node 13, Type 1, BuildingBlock: NAWXER_clean_sbu_0, # of connection points: 4
#     Node 14, Type 1, BuildingBlock: NAWXER_clean_sbu_0, # of connection points: 4
#     Node 15, Type 1, BuildingBlock: NAWXER_clean_sbu_0, # of connection points: 4
#     Edge 16, Type (0, 1), BuildingBlock: KIFKEQ_clean_linker_1, # of connection points: 2
#     Edge 17, Type (0, 1), BuildingBlock: KIFKEQ_clean_linker_1, # of connection points: 2
#     Edge 18, Type (0, 1), BuildingBlock: KIFKEQ_clean_linker_1, # of connection points: 2
#     Edge 19, Type (0, 1), BuildingBlock: KIFKEQ_clean_linker_1, # of connection points: 2
#     Edge 20, Type (0, 1), BuildingBlock: KIFKEQ_clean_linker_1, # of connection points: 2
#     Edge 21, Type (0, 1), BuildingBlock: KIFKEQ_clean_linker_1, # of connection points: 2
#     Edge 22, Type (0, 1), BuildingBlock: KIFKEQ_clean_linker_1, # of connection points: 2
#     Edge 23, Type (0, 1), BuildingBlock: KIFKEQ_clean_linker_1, # of connection points: 2
#     Edge 24, Type (0, 1), BuildingBlock: KIFKEQ_clean_linker_1, # of connection points: 2
#     Edge 25, Type (0, 1), BuildingBlock: KIFKEQ_clean_linker_1, # of connection points: 2
#     Edge 26, Type (0, 1), BuildingBlock: KIFKEQ_clean_linker_1, # of connection points: 2
#     Edge 27, Type (0, 1), BuildingBlock: KIFKEQ_clean_linker_1, # of connection points: 2
#     Edge 28, Type (0, 1), BuildingBlock: KIFKEQ_clean_linker_1, # of connection points: 2
#     Edge 29, Type (0, 1), BuildingBlock: KIFKEQ_clean_linker_1, # of connection points: 2
#     Edge 30, Type (0, 1), BuildingBlock: KIFKEQ_clean_linker_1, # of connection points: 2
#     Edge 31, Type (0, 1), BuildingBlock: KIFKEQ_clean_linker_1, # of connection points: 2
#     Edge 32, Type (0, 1), BuildingBlock: KIFKEQ_clean_linker_1, # of connection points: 2
#     Edge 33, Type (0, 1), BuildingBlock: KIFKEQ_clean_linker_1, # of connection points: 2
#     Edge 34, Type (0, 1), BuildingBlock: KIFKEQ_clean_linker_1, # of connection points: 2
#     Edge 35, Type (0, 1), BuildingBlock: KIFKEQ_clean_linker_1, # of connection points: 2
#     Edge 36, Type (0, 1), BuildingBlock: KIFKEQ_clean_linker_1, # of connection points: 2
#     Edge 37, Type (0, 1), BuildingBlock: KIFKEQ_clean_linker_1, # of connection points: 2
#     Edge 38, Type (0, 1), BuildingBlock: KIFKEQ_clean_linker_1, # of connection points: 2
#     Edge 39, Type (0, 1), BuildingBlock: KIFKEQ_clean_linker_1, # of connection points: 2
#     Edge 40, Type (0, 1), BuildingBlock: KIFKEQ_clean_linker_1, # of connection points: 2
#     Edge 41, Type (0, 1), BuildingBlock: KIFKEQ_clean_linker_1, # of connection points: 2
#     Edge 42, Type (0, 1), BuildingBlock: KIFKEQ_clean_linker_1, # of connection points: 2
#     Edge 43, Type (0, 1), BuildingBlock: KIFKEQ_clean_linker_1, # of connection points: 2
#     Edge 44, Type (0, 1), BuildingBlock: KIFKEQ_clean_linker_1, # of connection points: 2
#     Edge 45, Type (0, 1), BuildingBlock: KIFKEQ_clean_linker_1, # of connection points: 2
#     Edge 46, Type (0, 1), BuildingBlock: KIFKEQ_clean_linker_1, # of connection points: 2
#     Edge 47, Type (0, 1), BuildingBlock: KIFKEQ_clean_linker_1, # of connection points: 2
# Relax obj value: 0.000
# Max RMSD: 0.001
# Mean RMSD: 0.001
data_MOF--net-ssb--node1-NAWXER_clean_sbu_0--node2-NAWXER_clean_linker_0--edge1-KIFKEQ_clean_linker_1
_symmetry_space_group_name_H-M    P1
_symmetry_Int_Tables_number       1
_symmetry_cell_setting            triclinic
loop_
_symmetry_equiv_pos_as_xyz
'x, y, z'
_cell_length_a     54.626214
_cell_length_b     54.663605
_cell_length_c     47.634314
_cell_angle_alpha  90.001585
_cell_angle_beta   90.005715
_cell_angle_gamma 89.973884
loop_
_atom_site_label
_atom_site_type_symbol
_atom_site_fract_x
_atom_site_fract_y
_atom_site_fract_z
_atom_type_partial_charge
C0 C 0.3049 0.22915 0.14934 0.0
C1 C 0.32878 0.22371 0.15851 0.0
C2 C 0.28574 0.23139 0.16858 0.0
C3 C 0.29007 0.22843 0.19744 0.0
C4 C 0.33286 0.21987 0.18734 0.0
C5 C 0.31364 0.22207 0.20659 0.0
C6 C 0.26996 0.23141 0.21802 0.0
C7 C 0.28431 0.3056 0.18107 0.0
C8 C 0.26444 0.31615 0.16668 0.0
C9 C 0.28098 0.28481 0.19782 0.0
C10 C 0.25779 0.2738 0.20018 0.0
C11 C 0.24113 0.30545 0.16975 0.0
C12 C 0.23786 0.28458 0.18632 0.0
C13 C 0.25392 0.25178 0.218 0.0
C14 C 0.19306 0.23481 0.32143 0.0
C15 C 0.16903 0.23539 0.31083 0.0
C16 C 0.2131 0.23471 0.3032 0.0
C17 C 0.2095 0.23512 0.27402 0.0
C18 C 0.16552 0.23642 0.2816 0.0
C19 C 0.18561 0.23648 0.26337 0.0
C20 C 0.23053 0.23319 0.25459 0.0
C21 C 0.22017 0.16209 0.29959 0.0
C22 C 0.24017 0.15593 0.31682 0.0
C23 C 0.2225 0.18017 0.27895 0.0
C24 C 0.24474 0.19274 0.27545 0.0
C25 C 0.26273 0.16773 0.31223 0.0
C26 C 0.26498 0.18589 0.29175 0.0
C27 C 0.2471 0.21333 0.25532 0.0
H28 H 0.301 0.23168 0.12724 0.0
H29 H 0.26754 0.23552 0.1609 0.0
H30 H 0.35104 0.21585 0.19516 0.0
H31 H 0.31733 0.21944 0.22874 0.0
H32 H 0.30252 0.31324 0.17923 0.0
H33 H 0.29656 0.27746 0.20905 0.0
H34 H 0.22526 0.31336 0.15959 0.0
H35 H 0.21971 0.27676 0.18817 0.0
H36 H 0.19637 0.23391 0.34383 0.0
H37 H 0.23142 0.23391 0.31186 0.0
H38 H 0.14725 0.23726 0.27283 0.0
H39 H 0.18247 0.23694 0.24091 0.0
H40 H 0.20254 0.15341 0.30248 0.0
H41 H 0.20679 0.18458 0.26605 0.0
H42 H 0.2787 0.16301 0.32457 0.0
H43 H 0.28242 0.19505 0.28915 0.0
N44 N 0.26618 0.21321 0.23699 0.0
N45 N 0.23456 0.25165 0.23601 0.0
C46 C 0.65558 0.29973 0.21187 0.0
C47 C 0.65233 0.27892 0.19492 0.0
C48 C 0.6727 0.2996 0.23366 0.0
C49 C 0.68719 0.2788 0.23869 0.0
C50 C 0.66592 0.25769 0.20104 0.0
C51 C 0.68313 0.25762 0.22275 0.0
C52 C 0.70733 0.27937 0.25954 0.0
C53 C 0.72857 0.32762 0.18872 0.0
C54 C 0.72753 0.35266 0.19526 0.0
C55 C 0.72808 0.31011 0.20997 0.0
C56 C 0.72622 0.31723 0.2382 0.0
C57 C 0.72614 0.3598 0.22361 0.0
C58 C 0.72569 0.34219 0.24494 0.0
C59 C 0.72475 0.29843 0.26041 0.0
C60 C 0.80553 0.26261 0.33143 0.0
C61 C 0.80865 0.28156 0.35102 0.0
C62 C 0.78424 0.26131 0.31519 0.0
C63 C 0.76593 0.27916 0.31803 0.0
C64 C 0.79011 0.29915 0.35419 0.0
C65 C 0.76907 0.29816 0.3375 0.0
C66 C 0.74452 0.27916 0.29912 0.0
C67 C 0.73132 0.21903 0.36232 0.0
C68 C 0.72826 0.19564 0.35046 0.0
C69 C 0.73139 0.23991 0.34531 0.0
C70 C 0.7287 0.23778 0.31608 0.0
C71 C 0.72542 0.19363 0.32122 0.0
C72 C 0.72554 0.21446 0.30427 0.0
C73 C 0.72763 0.25959 0.29763 0.0
H74 H 0.64546 0.31639 0.20777 0.0
H75 H 0.67506 0.31599 0.24615 0.0
H76 H 0.66345 0.24115 0.18885 0.0
H77 H 0.69388 0.24127 0.22645 0.0
H78 H 0.72948 0.32151 0.16712 0.0
H79 H 0.72896 0.29093 0.20433 0.0
H80 H 0.72566 0.37898 0.22928 0.0
H81 H 0.72448 0.34802 0.26663 0.0
H82 H 0.81957 0.24879 0.32873 0.0
H83 H 0.78231 0.24671 0.29996 0.0
H84 H 0.7922 0.31397 0.3691 0.0
H85 H 0.75523 0.31223 0.33973 0.0
H86 H 0.73315 0.22124 0.38481 0.0
H87 H 0.73302 0.2577 0.35511 0.0
H88 H 0.72337 0.1759 0.31136 0.0
H89 H 0.72331 0.21233 0.2818 0.0
N90 N 0.70964 0.26051 0.27791 0.0
N91 N 0.74249 0.29781 0.28037 0.0
C92 C 0.71504 0.74409 0.15581 0.0
C93 C 0.69125 0.74266 0.16703 0.0
C94 C 0.73516 0.74845 0.17328 0.0
C95 C 0.73192 0.75129 0.20235 0.0
C96 C 0.68808 0.7457 0.19612 0.0
C97 C 0.7082 0.75014 0.21356 0.0
C98 C 0.75307 0.75566 0.2212 0.0
C99 C 0.7591 0.68054 0.18533 0.0
C100 C 0.77977 0.6773 0.16815 0.0
C101 C 0.75749 0.70058 0.20341 0.0
C102 C 0.77629 0.71807 0.20424 0.0
C103 C 0.79917 0.69409 0.17012 0.0
C104 C 0.79744 0.7143 0.18806 0.0
C105 C 0.774 0.74031 0.22181 0.0
C106 C 0.82196 0.77277 0.32816 0.0
C107 C 0.84683 0.77448 0.32091 0.0
C108 C 0.80418 0.76961 0.30749 0.0
C109 C 0.81077 0.76844 0.27904 0.0
C110 C 0.85348 0.7732 0.29239 0.0
C111 C 0.83557 0.77002 0.27162 0.0
C112 C 0.79156 0.7654 0.25739 0.0
C113 C 0.78904 0.84228 0.28653 0.0
C114 C 0.77231 0.84462 0.30872 0.0
C115 C 0.78807 0.82197 0.26878 0.0
C116 C 0.77012 0.80392 0.27265 0.0
C117 C 0.75394 0.82686 0.31214 0.0
C118 C 0.75265 0.80679 0.29396 0.0
C119 C 0.77112 0.78112 0.25607 0.0
H120 H 0.71812 0.74177 0.13351 0.0
H121 H 0.75325 0.74966 0.16407 0.0
H122 H 0.66997 0.74512 0.20536 0.0
H123 H 0.70526 0.75246 0.2359 0.0
H124 H 0.7441 0.66759 0.18471 0.0
H125 H 0.74138 0.70256 0.21647 0.0
H126 H 0.81532 0.69204 0.15714 0.0
H127 H 0.81232 0.72739 0.18866 0.0
H128 H 0.8162 0.77382 0.34988 0.0
H129 H 0.78521 0.76791 0.3138 0.0
H130 H 0.87253 0.77414 0.28621 0.0
H131 H 0.84104 0.76898 0.24979 0.0
H132 H 0.8034 0.85569 0.28357 0.0
H133 H 0.80172 0.82002 0.25242 0.0
H134 H 0.74076 0.82841 0.32904 0.0
H135 H 0.73875 0.79296 0.29731 0.0
N136 N 0.75244 0.77557 0.23835 0.0
N137 N 0.79246 0.74574 0.23996 0.0
C138 C 0.32593 0.73851 0.19758 0.0
C139 C 0.33075 0.76157 0.18566 0.0
C140 C 0.30625 0.73529 0.21599 0.0
C141 C 0.29086 0.75503 0.22268 0.0
C142 C 0.31503 0.78117 0.19197 0.0
C143 C 0.2954 0.77795 0.21044 0.0
C144 C 0.2719 0.75276 0.24476 0.0
C145 C 0.24673 0.70192 0.17571 0.0
C146 C 0.24339 0.67741 0.1839 0.0
C147 C 0.25081 0.72016 0.1958 0.0
C148 C 0.25201 0.71419 0.22448 0.0
C149 C 0.24434 0.67157 0.21262 0.0
C150 C 0.24851 0.68976 0.23264 0.0
C151 C 0.25489 0.7333 0.24636 0.0
C152 C 0.1882 0.76392 0.34047 0.0
C153 C 0.18323 0.74078 0.35208 0.0
C154 C 0.20681 0.76686 0.32062 0.0
C155 C 0.22115 0.7468 0.3123 0.0
C156 C 0.19745 0.72069 0.34356 0.0
C157 C 0.21618 0.72367 0.32384 0.0
C158 C 0.23984 0.7492 0.28988 0.0
C159 C 0.26644 0.7987 0.3594 0.0
C160 C 0.26872 0.82349 0.35183 0.0
C161 C 0.26235 0.78079 0.33893 0.0
C162 C 0.26015 0.78733 0.31052 0.0
C163 C 0.26683 0.8299 0.32332 0.0
C164 C 0.26273 0.812 0.30291 0.0
C165 C 0.25693 0.76859 0.28833 0.0
H166 H 0.33757 0.72298 0.19295 0.0
H167 H 0.30359 0.71757 0.22568 0.0
H168 H 0.31838 0.79921 0.1834 0.0
H169 H 0.28399 0.79354 0.21559 0.0
H170 H 0.24573 0.70708 0.15379 0.0
H171 H 0.25253 0.73896 0.18893 0.0
H172 H 0.24218 0.65285 0.21963 0.0
H173 H 0.24912 0.68469 0.25462 0.0
H174 H 0.17723 0.77968 0.34613 0.0
H175 H 0.20953 0.78472 0.31128 0.0
H176 H 0.19416 0.70266 0.35221 0.0
H177 H 0.22677 0.70784 0.31752 0.0
H178 H 0.26819 0.79308 0.3811 0.0
H179 H 0.26129 0.7618 0.3453 0.0
H180 H 0.26815 0.84882 0.31676 0.0
H181 H 0.26135 0.81749 0.2811 0.0
N182 N 0.27211 0.76961 0.26575 0.0
N183 N 0.23965 0.73233 0.26891 0.0
C184 C 0.17663 0.78278 0.71278 0.0
C185 C 0.16956 0.76378 0.69458 0.0
C186 C 0.19686 0.77995 0.73051 0.0
C187 C 0.21075 0.75829 0.72995 0.0
C188 C 0.18256 0.74153 0.69555 0.0
C189 C 0.20292 0.73883 0.71304 0.0
C190 C 0.23395 0.7561 0.74596 0.0
C191 C 0.24135 0.81398 0.68082 0.0
C192 C 0.24582 0.83742 0.69165 0.0
C193 C 0.24465 0.79329 0.69764 0.0
C194 C 0.25147 0.79571 0.726 0.0
C195 C 0.2541 0.83981 0.71944 0.0
C196 C 0.25681 0.81912 0.73651 0.0
C197 C 0.25268 0.77404 0.74484 0.0
C198 C 0.33212 0.72477 0.81372 0.0
C199 C 0.33711 0.74276 0.83403 0.0
C200 C 0.31306 0.72803 0.79448 0.0
C201 C 0.29846 0.7492 0.79537 0.0
C202 C 0.32339 0.76458 0.83367 0.0
C203 C 0.30431 0.76779 0.81446 0.0
C204 C 0.27596 0.75117 0.77814 0.0
C205 C 0.26553 0.69419 0.84403 0.0
C206 C 0.2657 0.67039 0.83276 0.0
C207 C 0.26211 0.7145 0.82665 0.0
C208 C 0.259 0.71151 0.79759 0.0
C209 C 0.26188 0.66745 0.80371 0.0
C210 C 0.25843 0.68783 0.78632 0.0
C211 C 0.25748 0.7331 0.77885 0.0
H212 H 0.16709 0.80014 0.71269 0.0
H213 H 0.20214 0.79501 0.74398 0.0
H214 H 0.17721 0.72623 0.68248 0.0
H215 H 0.21307 0.72179 0.71262 0.0
H216 H 0.23546 0.81167 0.65926 0.0
H217 H 0.2414 0.77542 0.68859 0.0
H218 H 0.25786 0.85773 0.72814 0.0
H219 H 0.26245 0.82147 0.75815 0.0
H220 H 0.3423 0.70777 0.81337 0.0
H221 H 0.30913 0.7136 0.77955 0.0
H222 H 0.32715 0.77906 0.84859 0.0
H223 H 0.29344 0.78436 0.81535 0.0
H224 H 0.2678 0.69715 0.86635 0.0
H225 H 0.26218 0.73262 0.83587 0.0
H226 H 0.26203 0.64943 0.79427 0.0
H227 H 0.25606 0.68513 0.76396 0.0
N228 N 0.23723 0.73615 0.76263 0.0
N229 N 0.27283 0.77105 0.76132 0.0
C230 C 0.32279 0.29852 0.80807 0.0
C231 C 0.3335 0.27714 0.81894 0.0
C232 C 0.30257 0.29707 0.79011 0.0
C233 C 0.29232 0.27425 0.78318 0.0
C234 C 0.32329 0.25435 0.8119 0.0
C235 C 0.30296 0.25293 0.79418 0.0
C236 C 0.27178 0.27218 0.76289 0.0
C237 C 0.2413 0.31437 0.83556 0.0
C238 C 0.23511 0.33877 0.82938 0.0
C239 C 0.24653 0.29781 0.81404 0.0
C240 C 0.24583 0.30533 0.78587 0.0
C241 C 0.23369 0.34603 0.80108 0.0
C242 C 0.23884 0.32941 0.77955 0.0
C243 C 0.2512 0.28784 0.76294 0.0
C244 C 0.18462 0.24711 0.67414 0.0
C245 C 0.17798 0.26906 0.66068 0.0
C246 C 0.20368 0.24674 0.69376 0.0
C247 C 0.21679 0.26821 0.6998 0.0
C248 C 0.19089 0.29055 0.66712 0.0
C249 C 0.21004 0.29012 0.68652 0.0
C250 C 0.23646 0.26865 0.72115 0.0
C251 C 0.2599 0.2152 0.65397 0.0
C252 C 0.26747 0.1923 0.66417 0.0
C253 C 0.25681 0.23496 0.67235 0.0
C254 C 0.26021 0.23185 0.70143 0.0
C255 C 0.27203 0.18949 0.69295 0.0
C256 C 0.26832 0.20901 0.71139 0.0
C257 C 0.25646 0.25213 0.72181 0.0
H258 H 0.33049 0.3163 0.81278 0.0
H259 H 0.29536 0.31379 0.78114 0.0
H260 H 0.33099 0.23757 0.82016 0.0
H261 H 0.29557 0.2351 0.78901 0.0
H262 H 0.24206 0.30801 0.85708 0.0
H263 H 0.25103 0.27909 0.81943 0.0
H264 H 0.22922 0.36472 0.79555 0.0
H265 H 0.23787 0.33551 0.75793 0.0
H266 H 0.17472 0.23034 0.66994 0.0
H267 H 0.20801 0.22977 0.70439 0.0
H268 H 0.18633 0.30768 0.65696 0.0
H269 H 0.21971 0.30696 0.69109 0.0
H270 H 0.2566 0.21783 0.63175 0.0
H271 H 0.25175 0.25258 0.66377 0.0
H272 H 0.27784 0.17197 0.70127 0.0
H273 H 0.27147 0.20613 0.73361 0.0
N274 N 0.27333 0.25476 0.74261 0.0
N275 N 0.23465 0.28573 0.7418 0.0
C276 C 0.85342 0.21059 0.71134 0.0
C277 C 0.85449 0.22783 0.68953 0.0
C278 C 0.83543 0.21245 0.73208 0.0
C279 C 0.81851 0.23179 0.73156 0.0
C280 C 0.83782 0.24742 0.68934 0.0
C281 C 0.82014 0.24955 0.71042 0.0
C282 C 0.79808 0.23242 0.75183 0.0
C283 C 0.77828 0.18084 0.68339 0.0
C284 C 0.78023 0.15619 0.69147 0.0
C285 C 0.77807 0.19935 0.70352 0.0
C286 C 0.77999 0.19365 0.73216 0.0
C287 C 0.78189 0.15047 0.72022 0.0
C288 C 0.78157 0.16908 0.74044 0.0
C289 C 0.78061 0.21353 0.75316 0.0
C290 C 0.70265 0.2548 0.8282 0.0
C291 C 0.69585 0.23345 0.84275 0.0
C292 C 0.72379 0.25521 0.81165 0.0
C293 C 0.73886 0.23444 0.80973 0.0
C294 C 0.71081 0.21261 0.84055 0.0
C295 C 0.73205 0.2131 0.82416 0.0
C296 C 0.7605 0.23401 0.79089 0.0
C297 C 0.77646 0.29268 0.85507 0.0
C298 C 0.77989 0.3162 0.8437 0.0
C299 C 0.77577 0.2721 0.83761 0.0
C300 C 0.77813 0.27465 0.80839 0.0
C301 C 0.78263 0.31862 0.81449 0.0
C302 C 0.78186 0.29807 0.79707 0.0
C303 C 0.77806 0.25311 0.78945 0.0
H304 H 0.86606 0.19532 0.71188 0.0
H305 H 0.83443 0.19857 0.74828 0.0
H306 H 0.83846 0.26104 0.67283 0.0
H307 H 0.80716 0.26453 0.70966 0.0
H308 H 0.77714 0.18586 0.66143 0.0
H309 H 0.77645 0.21818 0.6967 0.0
H310 H 0.78312 0.13161 0.72706 0.0
H311 H 0.78294 0.16435 0.76246 0.0
H312 H 0.69126 0.27101 0.82901 0.0
H313 H 0.72801 0.27162 0.79988 0.0
H314 H 0.70617 0.19595 0.85163 0.0
H315 H 0.74318 0.19673 0.82273 0.0
H316 H 0.7747 0.29013 0.87753 0.0
H317 H 0.77366 0.25418 0.847 0.0
H318 H 0.78501 0.33646 0.80499 0.0
H319 H 0.78393 0.30052 0.77462 0.0
N320 N 0.79612 0.25158 0.76983 0.0
N321 N 0.76256 0.2149 0.7727 0.0
C322 C 0.79217 0.73986 0.65551 0.0
C323 C 0.81534 0.73652 0.66793 0.0
C324 C 0.77126 0.74293 0.67222 0.0
C325 C 0.7732 0.74297 0.70165 0.0
C326 C 0.81698 0.73579 0.69737 0.0
C327 C 0.79618 0.73893 0.71397 0.0
C328 C 0.75163 0.74614 0.72022 0.0
C329 C 0.75528 0.81605 0.66906 0.0
C330 C 0.73347 0.82165 0.65471 0.0
C331 C 0.75579 0.79744 0.6892 0.0
C332 C 0.73462 0.78377 0.69494 0.0
C333 C 0.71229 0.80804 0.66064 0.0
C334 C 0.71287 0.78934 0.68059 0.0
C335 C 0.73416 0.76513 0.71744 0.0
C336 C 0.68736 0.76404 0.83128 0.0
C337 C 0.66279 0.76921 0.82471 0.0
C338 C 0.70412 0.75845 0.81012 0.0
C339 C 0.69667 0.75771 0.78192 0.0
C340 C 0.65558 0.76938 0.79635 0.0
C341 C 0.67242 0.76381 0.77514 0.0
C342 C 0.71444 0.75168 0.75948 0.0
C343 C 0.70522 0.68177 0.80823 0.0
C344 C 0.72673 0.6721 0.81999 0.0
C345 C 0.70637 0.70141 0.78945 0.0
C346 C 0.72902 0.7121 0.78258 0.0
C347 C 0.74933 0.68284 0.81315 0.0
C348 C 0.75045 0.70258 0.79462 0.0
C349 C 0.73088 0.73178 0.76123 0.0
H350 H 0.79027 0.74055 0.63289 0.0
H351 H 0.75364 0.74528 0.66215 0.0
H352 H 0.83439 0.73274 0.70766 0.0
H353 H 0.79814 0.73848 0.73661 0.0
H354 H 0.77178 0.82653 0.66531 0.0
H355 H 0.77258 0.79414 0.70069 0.0
H356 H 0.69527 0.81183 0.64981 0.0
H357 H 0.69624 0.77923 0.68493 0.0
H358 H 0.69365 0.76429 0.85285 0.0
H359 H 0.72295 0.75473 0.81583 0.0
H360 H 0.63677 0.77311 0.79058 0.0
H361 H 0.66637 0.76372 0.75348 0.0
H362 H 0.68759 0.67364 0.81283 0.0
H363 H 0.68961 0.70777 0.77975 0.0
H364 H 0.76619 0.67593 0.82213 0.0
H365 H 0.76815 0.71035 0.78957 0.0
N366 N 0.74905 0.73013 0.74185 0.0
N367 N 0.7164 0.76722 0.73733 0.0
C368 C 0.97439 0.23067 0.53037 0.0
C369 C 0.02887 0.23658 0.44907 0.0
O370 O 0.9803 0.2527 0.52405 0.0
Zn371 Zn 1.00113 0.27175 0.4926 0.0
O372 O 0.98189 0.21298 0.51526 0.0
Zn373 Zn 1.0005 0.23271 0.48902 0.0
O374 O 0.02847 0.24751 0.51582 0.0
O375 O 0.02557 0.28783 0.51566 0.0
O376 O 0.01943 0.21725 0.45921 0.0
O377 O 0.02323 0.25736 0.45968 0.0
O378 O 0.97646 0.29087 0.47282 0.0
O379 O 0.9715 0.25107 0.46769 0.0
C380 C 0.03613 0.26845 0.52425 0.0
C381 C 0.96425 0.27299 0.46309 0.0
C382 C 0.77488 0.03056 0.53646 0.0
C383 C 0.7763 0.97736 0.45388 0.0
O384 O 0.7938 0.02249 0.52392 0.0
Zn385 Zn 0.77659 0.00406 0.49517 0.0
O386 O 0.75356 0.02474 0.52737 0.0
Zn387 Zn 0.73735 0.00364 0.49438 0.0
O388 O 0.71974 0.97844 0.51505 0.0
O389 O 0.75987 0.97578 0.51924 0.0
O390 O 0.75463 0.98311 0.46177 0.0
O391 O 0.7947 0.98533 0.46745 0.0
O392 O 0.75982 0.03265 0.47111 0.0
O393 O 0.71968 0.0285 0.47359 0.0
C394 C 0.73846 0.96778 0.52522 0.0
C395 C 0.73828 0.04013 0.46463 0.0
C396 C 0.9669 0.73569 0.54612 0.0
C397 C 0.03638 0.73591 0.48052 0.0
O398 O 0.97488 0.75701 0.53972 0.0
Zn399 Zn 1.00232 0.7738 0.5146 0.0
O400 O 0.97725 0.71687 0.53575 0.0
Zn401 Zn 1.00188 0.73413 0.51349 0.0
O402 O 0.02509 0.74986 0.54441 0.0
O403 O 0.02288 0.79013 0.54256 0.0
O404 O 0.02575 0.71692 0.49009 0.0
O405 O 0.02906 0.75714 0.48824 0.0
O406 O 0.98263 0.79193 0.48724 0.0
O407 O 0.9799 0.75184 0.4828 0.0
C408 C 0.03183 0.77085 0.55353 0.0
C409 C 0.97387 0.77334 0.47462 0.0
C410 C 0.27169 0.03982 0.5448 0.0
C411 C 0.27187 0.96668 0.48509 0.0
O412 O 0.29043 0.02741 0.53776 0.0
Zn413 Zn 0.27307 1.0029 0.5158 0.0
O414 O 0.25029 0.03278 0.53728 0.0
Zn415 Zn 0.23371 0.00374 0.51374 0.0
O416 O 0.21502 0.98522 0.54144 0.0
O417 O 0.25498 0.9826 0.54784 0.0
O418 O 0.25054 0.97506 0.49069 0.0
O419 O 0.29063 0.97738 0.49511 0.0
O420 O 0.25776 0.02464 0.48267 0.0
O421 O 0.21743 0.02213 0.48409 0.0
C422 C 0.23317 0.97705 0.55531 0.0
C423 C 0.23676 0.03061 0.47274 0.0
C424 C 0.47366 0.77151 0.05225 0.0
C425 C 0.5327 0.77361 0.9745 0.0
O426 O 0.48219 0.79071 0.0407 0.0
Zn427 Zn 0.50346 0.77427 0.01366 0.0
O428 O 0.48086 0.75044 0.04385 0.0
Zn429 Zn 0.5046 0.73459 0.01346 0.0
O430 O 0.52913 0.71805 0.03662 0.0
O431 O 0.53104 0.75829 0.03942 0.0
O432 O 0.5269 0.75218 0.98309 0.0
O433 O 0.5233 0.7923 0.98631 0.0
O434 O 0.47728 0.75685 0.9874 0.0
O435 O 0.48165 0.71674 0.98939 0.0
C436 C 0.53927 0.7372 0.04644 0.0
C437 C 0.47056 0.73543 0.97972 0.0
C438 C 0.23538 0.53547 0.04864 0.0
C439 C 0.23236 0.47168 0.97596 0.0
O440 O 0.25634 0.5278 0.0404 0.0
Zn441 Zn 0.27184 0.50216 0.01207 0.0
O442 O 0.21605 0.52595 0.03846 0.0
Zn443 Zn 0.2321 0.50308 0.01276 0.0
O444 O 0.24841 0.47695 0.04007 0.0
O445 O 0.28863 0.47886 0.03683 0.0
O446 O 0.21375 0.48161 0.98741 0.0
O447 O 0.25389 0.4781 0.98366 0.0
O448 O 0.28929 0.52379 0.986 0.0
O449 O 0.24909 0.52722 0.9836 0.0
C450 C 0.26957 0.46911 0.04741 0.0
C451 C 0.27039 0.53364 0.9751 0.0
C452 C 0.5407 0.23615 0.95867 0.0
C453 C 0.4729 0.23332 0.02601 0.0
O454 O 0.53289 0.25736 0.96592 0.0
Zn455 Zn 0.5055 0.27292 0.99269 0.0
O456 O 0.5305 0.21714 0.96867 0.0
Zn457 Zn 0.50652 0.23375 0.99201 0.0
O458 O 0.48227 0.25025 0.96218 0.0
O459 O 0.48443 0.29036 0.96667 0.0
O460 O 0.48385 0.21506 0.01517 0.0
O461 O 0.47945 0.25503 0.01917 0.0
O462 O 0.525 0.29082 0.01992 0.0
O463 O 0.52929 0.25076 0.02287 0.0
C464 C 0.47532 0.27168 0.95466 0.0
C465 C 0.5348 0.27227 0.03151 0.0
C466 C 0.77415 0.53659 0.03091 0.0
C467 C 0.77251 0.46865 0.96384 0.0
O468 O 0.7926 0.52649 0.01944 0.0
Zn469 Zn 0.77427 0.50335 0.9966 0.0
O470 O 0.75252 0.52955 0.02429 0.0
Zn471 Zn 0.73508 0.50338 0.99747 0.0
O472 O 0.7175 0.4837 0.02461 0.0
O473 O 0.75771 0.48062 0.02798 0.0
O474 O 0.75115 0.47599 0.97118 0.0
O475 O 0.79131 0.47958 0.97336 0.0
O476 O 0.75719 0.52702 0.96678 0.0
O477 O 0.71714 0.52395 0.97139 0.0
C478 C 0.73628 0.47471 0.03661 0.0
C479 C 0.73558 0.53342 0.95928 0.0
H480 H 0.16304 0.26146 0.35922 0.0
H481 H 0.12703 0.20827 0.30643 0.0
H482 H 0.12835 0.26069 0.39141 0.0
H483 H 0.09199 0.20783 0.33851 0.0
H484 H 0.05214 0.27502 0.42448 0.0
H485 H 0.08509 0.27405 0.39033 0.0
H486 H 0.0814 0.19518 0.38812 0.0
H487 H 0.04802 0.19606 0.42251 0.0
C488 C 0.14772 0.24955 0.35453 0.0
C489 C 0.14775 0.23497 0.33026 0.0
C490 C 0.12776 0.24926 0.37284 0.0
C491 C 0.10738 0.23428 0.36741 0.0
C492 C 0.10748 0.21946 0.3433 0.0
C493 C 0.12741 0.2199 0.32483 0.0
C494 C 0.05815 0.2574 0.41666 0.0
C495 C 0.04749 0.23558 0.42642 0.0
C496 C 0.07719 0.25688 0.39717 0.0
C497 C 0.08605 0.23455 0.38679 0.0
C498 C 0.07489 0.21269 0.39571 0.0
C499 C 0.05583 0.21319 0.41544 0.0
H500 H 0.69822 0.15564 0.34648 0.0
H501 H 0.75815 0.18521 0.39497 0.0
H502 H 0.69978 0.11807 0.37412 0.0
H503 H 0.75911 0.14805 0.42321 0.0
H504 H 0.77476 0.06811 0.44264 0.0
H505 H 0.77116 0.10571 0.41591 0.0
H506 H 0.69235 0.10141 0.42141 0.0
H507 H 0.69592 0.06325 0.44803 0.0
C508 C 0.71168 0.15415 0.36309 0.0
C509 C 0.7282 0.17336 0.36838 0.0
C510 C 0.71237 0.13273 0.37913 0.0
C511 C 0.72965 0.13 0.40077 0.0
C512 C 0.74579 0.14943 0.40644 0.0
C513 C 0.74507 0.17085 0.39045 0.0
C514 C 0.75661 0.07507 0.43817 0.0
C515 C 0.73561 0.06264 0.44756 0.0
C516 C 0.75457 0.09679 0.42299 0.0
C517 C 0.73148 0.10671 0.41675 0.0
C518 C 0.71041 0.09415 0.42576 0.0
C519 C 0.71245 0.07235 0.44106 0.0
H520 H 0.88747 0.80418 0.32261 0.0
H521 H 0.84876 0.74895 0.36987 0.0
H522 H 0.91882 0.80601 0.35954 0.0
H523 H 0.87952 0.75117 0.40664 0.0
H524 H 0.9533 0.73628 0.44508 0.0
H525 H 0.92334 0.73853 0.40784 0.0
H526 H 0.92426 0.81739 0.41243 0.0
H527 H 0.95485 0.81525 0.45029 0.0
C528 C 0.88564 0.79251 0.34086 0.0
C529 C 0.86568 0.77637 0.3433 0.0
C530 C 0.90341 0.79375 0.36208 0.0
C531 C 0.90164 0.77866 0.38588 0.0
C532 C 0.88149 0.76286 0.38842 0.0
C533 C 0.86375 0.76173 0.36743 0.0
C534 C 0.94729 0.75421 0.43829 0.0
C535 C 0.95638 0.77562 0.45095 0.0
C536 C 0.92998 0.75544 0.41693 0.0
C537 C 0.92122 0.7781 0.40747 0.0
C538 C 0.93074 0.79967 0.41936 0.0
C539 C 0.94814 0.79844 0.44106 0.0
H540 H 0.29872 0.86374 0.34945 0.0
H541 H 0.247 0.82686 0.40343 0.0
H542 H 0.30168 0.89718 0.38331 0.0
H543 H 0.25067 0.85976 0.43763 0.0
H544 H 0.2347 0.93746 0.46778 0.0
H545 H 0.23648 0.90194 0.43757 0.0
H546 H 0.31501 0.90942 0.43148 0.0
H547 H 0.31323 0.94567 0.46189 0.0
C548 C 0.28813 0.86267 0.36863 0.0
C549 C 0.2724 0.84273 0.37356 0.0
C550 C 0.29008 0.88169 0.38818 0.0
C551 C 0.27628 0.88123 0.41307 0.0
C552 C 0.26131 0.86083 0.41848 0.0
C553 C 0.25938 0.84183 0.39898 0.0
C554 C 0.25244 0.93162 0.46016 0.0
C555 C 0.27385 0.94452 0.46725 0.0
C556 C 0.25346 0.91103 0.44297 0.0
C557 C 0.27589 0.9027 0.43227 0.0
C558 C 0.29742 0.91547 0.43934 0.0
C559 C 0.29642 0.93614 0.45682 0.0
H560 H 0.1674 0.74736 0.64047 0.0
H561 H 0.12597 0.78859 0.70165 0.0
H562 H 0.1338 0.75109 0.60727 0.0
H563 H 0.09248 0.79287 0.66777 0.0
H564 H 0.04951 0.81101 0.58255 0.0
H565 H 0.08286 0.8114 0.61732 0.0
H566 H 0.09064 0.73322 0.60849 0.0
H567 H 0.05776 0.73264 0.57442 0.0
C568 C 0.1511 0.75713 0.64695 0.0
C569 C 0.14929 0.76727 0.674 0.0
C570 C 0.13192 0.75942 0.6278 0.0
C571 C 0.11048 0.77212 0.63504 0.0
C572 C 0.10888 0.78311 0.66162 0.0
C573 C 0.12807 0.78063 0.68098 0.0
C574 C 0.05829 0.79394 0.58821 0.0
C575 C 0.051 0.77184 0.57559 0.0
C576 C 0.07728 0.79416 0.60812 0.0
C577 C 0.08946 0.77236 0.61532 0.0
C578 C 0.08183 0.75034 0.60304 0.0
C579 C 0.06284 0.75005 0.58357 0.0
H580 H 0.30778 0.16398 0.65461 0.0
H581 H 0.23202 0.17263 0.63145 0.0
H582 H 0.31102 0.12826 0.62398 0.0
H583 H 0.23439 0.13611 0.60247 0.0
H584 H 0.24683 0.08155 0.53508 0.0
H585 H 0.2479 0.11938 0.56168 0.0
H586 H 0.30141 0.08753 0.61793 0.0
H587 H 0.30153 0.05024 0.58954 0.0
C588 C 0.29181 0.15807 0.64297 0.0
C589 C 0.26972 0.17107 0.64509 0.0
C590 C 0.29353 0.13746 0.6256 0.0
C591 C 0.273 0.12907 0.61047 0.0
C592 C 0.25086 0.14219 0.61298 0.0
C593 C 0.24935 0.16308 0.62977 0.0
C594 C 0.25899 0.0828 0.553 0.0
C595 C 0.274 0.06301 0.5604 0.0
C596 C 0.25945 0.10443 0.56852 0.0
C597 C 0.27436 0.10661 0.59251 0.0
C598 C 0.28985 0.08683 0.5995 0.0
C599 C 0.28988 0.06535 0.58337 0.0
H600 H 0.84605 0.22672 0.63322 0.0
H601 H 0.90391 0.22293 0.69476 0.0
H602 H 0.87639 0.22364 0.59543 0.0
H603 H 0.9343 0.22034 0.65695 0.0
H604 H 0.97344 0.25738 0.57817 0.0
H605 H 0.94521 0.25351 0.61765 0.0
H606 H 0.91096 0.19153 0.5776 0.0
H607 H 0.9398 0.19499 0.53814 0.0
C608 C 0.86526 0.22518 0.63858 0.0
C609 C 0.87274 0.2252 0.6668 0.0
C610 C 0.88254 0.22319 0.61705 0.0
C611 C 0.9076 0.22168 0.62337 0.0
C612 C 0.91506 0.22145 0.6516 0.0
C613 C 0.89774 0.22292 0.67315 0.0
C614 C 0.9601 0.24271 0.57796 0.0
C615 C 0.95873 0.22649 0.55513 0.0
C616 C 0.94405 0.24045 0.60058 0.0
C617 C 0.92596 0.22226 0.60056 0.0
C618 C 0.92479 0.20573 0.578 0.0
C619 C 0.9413 0.20762 0.55558 0.0
H620 H 0.76665 0.83214 0.61361 0.0
H621 H 0.6985 0.8572 0.64943 0.0
H622 H 0.7664 0.86663 0.58121 0.0
H623 H 0.69838 0.89201 0.6173 0.0
H624 H 0.69712 0.94129 0.53855 0.0
H625 H 0.69473 0.9049 0.56847 0.0
H626 H 0.77246 0.90987 0.58432 0.0
H627 H 0.77495 0.94544 0.55423 0.0
C628 C 0.75167 0.8451 0.61462 0.0
C629 C 0.7327 0.84206 0.63418 0.0
C630 C 0.75151 0.86489 0.59609 0.0
C631 C 0.73247 0.88224 0.59682 0.0
C632 C 0.71317 0.87886 0.61595 0.0
C633 C 0.71327 0.85895 0.6344 0.0
C634 C 0.71365 0.93455 0.54845 0.0
C635 C 0.73622 0.9462 0.54385 0.0
C636 C 0.71228 0.91376 0.56565 0.0
C637 C 0.73346 0.9043 0.57857 0.0
C638 C 0.75589 0.91626 0.57421 0.0
C639 C 0.75726 0.93684 0.55705 0.0
H640 H 0.85981 0.75746 0.67796 0.0
H641 H 0.82207 0.71114 0.61857 0.0
H642 H 0.89686 0.75471 0.64996 0.0
H643 H 0.85921 0.70912 0.58982 0.0
H644 H 0.93914 0.69498 0.55912 0.0
H645 H 0.90259 0.69348 0.58913 0.0
H646 H 0.90943 0.77099 0.60483 0.0
H647 H 0.94563 0.77246 0.57562 0.0
C648 C 0.85944 0.74653 0.659 0.0
C649 C 0.83792 0.73452 0.65055 0.0
C650 C 0.88066 0.74515 0.64279 0.0
C651 C 0.88097 0.7318 0.61757 0.0
C652 C 0.85961 0.7194 0.60925 0.0
C653 C 0.83826 0.72082 0.62553 0.0
C654 C 0.93289 0.7116 0.56919 0.0
C655 C 0.94537 0.7338 0.565 0.0
C656 C 0.91188 0.71079 0.58619 0.0
C657 C 0.90318 0.7321 0.59947 0.0
C658 C 0.91582 0.75416 0.59532 0.0
C659 C 0.93657 0.755 0.57836 0.0
H660 H 0.20396 0.8512 0.66486 0.0
H661 H 0.27893 0.87269 0.67838 0.0
H662 H 0.19751 0.88708 0.63523 0.0
H663 H 0.27333 0.90759 0.64737 0.0
H664 H 0.25683 0.97753 0.60517 0.0
H665 H 0.25727 0.94563 0.64077 0.0
H666 H 0.20495 0.90407 0.59193 0.0
H667 H 0.20331 0.93712 0.55757 0.0
C668 C 0.2191 0.86361 0.66124 0.0
C669 C 0.24191 0.85931 0.67387 0.0
C670 C 0.2155 0.88411 0.6441 0.0
C671 C 0.23484 0.90052 0.63869 0.0
C672 C 0.25771 0.89595 0.65145 0.0
C673 C 0.26109 0.87578 0.66908 0.0
C674 C 0.24498 0.9618 0.60254 0.0
C675 C 0.22998 0.95976 0.57877 0.0
C676 C 0.24548 0.94326 0.62271 0.0
C677 C 0.23162 0.92176 0.61914 0.0
C678 C 0.21575 0.92031 0.59579 0.0
C679 C 0.21476 0.93925 0.57598 0.0
H680 H 0.16863 0.23669 0.61834 0.0
H681 H 0.14118 0.30283 0.65663 0.0
H682 H 0.13499 0.23751 0.58474 0.0
H683 H 0.10722 0.30348 0.62336 0.0
H684 H 0.06164 0.30884 0.54251 0.0
H685 H 0.09653 0.30961 0.57472 0.0
H686 H 0.09192 0.23106 0.58356 0.0
H687 H 0.05782 0.23022 0.55102 0.0
C688 C 0.15527 0.25129 0.61971 0.0
C689 C 0.15751 0.26963 0.64017 0.0
C690 C 0.13596 0.25178 0.60048 0.0
C691 C 0.11829 0.27052 0.60139 0.0
C692 C 0.12067 0.28898 0.62176 0.0
C693 C 0.14009 0.28857 0.64089 0.0
C694 C 0.06815 0.29177 0.55133 0.0
C695 C 0.05701 0.26948 0.54407 0.0
C696 C 0.08806 0.2922 0.56989 0.0
C697 C 0.09716 0.27036 0.58163 0.0
C698 C 0.08579 0.24817 0.57451 0.0
C699 C 0.06607 0.24772 0.55593 0.0
H700 H 0.75008 0.15256 0.64616 0.0
H701 H 0.80997 0.11584 0.68778 0.0
H702 H 0.75013 0.12142 0.60968 0.0
H703 H 0.80965 0.08413 0.65135 0.0
H704 H 0.81642 0.04984 0.56075 0.0
H705 H 0.81842 0.07937 0.59944 0.0
H706 H 0.73961 0.07784 0.60621 0.0
H707 H 0.73751 0.04884 0.56777 0.0
C708 C 0.76329 0.13782 0.64749 0.0
C709 C 0.78004 0.13667 0.66982 0.0
C710 C 0.76318 0.11985 0.62672 0.0
C711 C 0.77983 0.10026 0.62772 0.0
C712 C 0.7967 0.0991 0.64997 0.0
C713 C 0.79671 0.11708 0.67093 0.0
C714 C 0.79957 0.05572 0.57064 0.0
C715 C 0.77681 0.04715 0.56096 0.0
C716 C 0.80072 0.07253 0.59285 0.0
C717 C 0.77914 0.08111 0.60563 0.0
C718 C 0.75652 0.07194 0.59645 0.0
C719 C 0.75537 0.0552 0.57444 0.0
H720 H 0.8126 0.2829 0.40798 0.0
H721 H 0.85564 0.28356 0.33202 0.0
H722 H 0.85032 0.28322 0.43604 0.0
H723 H 0.89334 0.28459 0.36011 0.0
H724 H 0.95143 0.31146 0.42896 0.0
H725 H 0.91333 0.31587 0.40175 0.0
H726 H 0.88687 0.24781 0.43604 0.0
H727 H 0.92491 0.24296 0.46235 0.0
C728 C 0.83014 0.28344 0.39737 0.0
C729 C 0.83133 0.28307 0.36793 0.0
C730 C 0.85162 0.28363 0.41335 0.0
C731 C 0.8746 0.28407 0.40014 0.0
C732 C 0.87579 0.28447 0.37071 0.0
C733 C 0.85432 0.28371 0.35472 0.0
C734 C 0.93739 0.29755 0.43069 0.0
C735 C 0.94113 0.27682 0.4476 0.0
C736 C 0.91572 0.30003 0.41514 0.0
C737 C 0.89727 0.28219 0.41697 0.0
C738 C 0.90079 0.26185 0.43443 0.0
C739 C 0.9226 0.25905 0.44933 0.0
H740 H 0.7739 0.89345 0.2972 0.0
H741 H 0.77642 0.84166 0.36551 0.0
H742 H 0.77768 0.92728 0.33082 0.0
H743 H 0.78071 0.87542 0.39904 0.0
H744 H 0.81221 0.94318 0.44562 0.0
H745 H 0.81322 0.91143 0.40913 0.0
H746 H 0.74784 0.94177 0.37201 0.0
H747 H 0.74646 0.973 0.40868 0.0
C748 C 0.77541 0.88937 0.31938 0.0
C749 C 0.77467 0.86506 0.32888 0.0
C750 C 0.77758 0.90864 0.33854 0.0
C751 C 0.77964 0.90387 0.36742 0.0
C752 C 0.7794 0.87953 0.37684 0.0
C753 C 0.7767 0.86029 0.35775 0.0
C754 C 0.79834 0.94327 0.42937 0.0
C755 C 0.77923 0.96046 0.42995 0.0
C756 C 0.79882 0.92506 0.40868 0.0
C757 C 0.78056 0.9242 0.3879 0.0
C758 C 0.76219 0.94213 0.38773 0.0
C759 C 0.76137 0.95992 0.40873 0.0
H760 H 0.17167 0.7702 0.3964 0.0
H761 H 0.1488 0.70427 0.35391 0.0
H762 H 0.1367 0.76696 0.42785 0.0
H763 H 0.11354 0.7011 0.38537 0.0
H764 H 0.06323 0.69527 0.46473 0.0
H765 H 0.09978 0.69459 0.43468 0.0
H766 H 0.09306 0.77255 0.42207 0.0
H767 H 0.05732 0.77334 0.45198 0.0
C768 C 0.15913 0.75503 0.39375 0.0
C769 C 0.16286 0.73767 0.37246 0.0
C770 C 0.13907 0.75316 0.41177 0.0
C771 C 0.12213 0.73394 0.40888 0.0
C772 C 0.12633 0.71603 0.38826 0.0
C773 C 0.1465 0.71787 0.37023 0.0
C774 C 0.06957 0.71218 0.4554 0.0
C775 C 0.05748 0.73437 0.461 0.0
C776 C 0.09045 0.7118 0.43818 0.0
C777 C 0.09957 0.7336 0.42637 0.0
C778 C 0.08696 0.75554 0.4314 0.0
C779 C 0.06629 0.75593 0.44847 0.0
H780 H 0.25997 0.1579 0.36946 0.0
H781 H 0.21412 0.11276 0.31669 0.0
H782 H 0.25756 0.12743 0.40656 0.0
H783 H 0.21136 0.08239 0.35433 0.0
H784 H 0.19639 0.04608 0.44269 0.0
H785 H 0.19551 0.07651 0.40475 0.0
H786 H 0.27384 0.085 0.41157 0.0
H787 H 0.27483 0.05501 0.44903 0.0
C788 C 0.24948 0.14142 0.36567 0.0
C789 C 0.23756 0.13766 0.33986 0.0
C790 C 0.248 0.12401 0.38702 0.0
C791 C 0.23444 0.10243 0.38326 0.0
C792 C 0.22182 0.09893 0.35787 0.0
C793 C 0.22342 0.11634 0.33634 0.0
C794 C 0.21339 0.0544 0.43597 0.0
C795 C 0.23564 0.04814 0.449 0.0
C796 C 0.21289 0.07174 0.41422 0.0
C797 C 0.23458 0.08329 0.40541 0.0
C798 C 0.25678 0.07672 0.41819 0.0
C799 C 0.25732 0.05937 0.4396 0.0
H800 H 0.65902 0.74407 0.87388 0.0
H801 H 0.62517 0.80274 0.82704 0.0
H802 H 0.62801 0.74813 0.91012 0.0
H803 H 0.59346 0.80629 0.8633 0.0
H804 H 0.55431 0.81515 0.95223 0.0
H805 H 0.58646 0.81663 0.91604 0.0
H806 H 0.58366 0.73796 0.90883 0.0
H807 H 0.55217 0.73636 0.94438 0.0
C808 C 0.64515 0.75808 0.87147 0.0
C809 C 0.64456 0.77303 0.84749 0.0
C810 C 0.62723 0.76025 0.89214 0.0
C811 C 0.60818 0.77736 0.88938 0.0
C812 C 0.60798 0.79299 0.86597 0.0
C813 C 0.62596 0.79076 0.84512 0.0
C814 C 0.56052 0.79825 0.94274 0.0
C815 C 0.55084 0.77565 0.95146 0.0
C816 C 0.57884 0.7991 0.92204 0.0
C817 C 0.58782 0.77736 0.91001 0.0
C818 C 0.57753 0.75497 0.91817 0.0
C819 C 0.55934 0.75412 0.93854 0.0
H820 H 0.29722 0.66565 0.87742 0.0
H821 H 0.2424 0.62608 0.83038 0.0
H822 H 0.30045 0.63149 0.91028 0.0
H823 H 0.24644 0.59165 0.8624 0.0
H824 H 0.23277 0.55364 0.94585 0.0
H825 H 0.23402 0.58515 0.91034 0.0
H826 H 0.31281 0.58821 0.9171 0.0
H827 H 0.31156 0.55644 0.95357 0.0
C828 C 0.28597 0.64962 0.87397 0.0
C829 C 0.2693 0.64878 0.85142 0.0
C830 C 0.28809 0.62991 0.8926 0.0
C831 C 0.27356 0.6089 0.88913 0.0
C832 C 0.25764 0.6077 0.86595 0.0
C833 C 0.2555 0.62738 0.84738 0.0
C834 C 0.25047 0.56085 0.93985 0.0
C835 C 0.2721 0.55245 0.95269 0.0
C836 C 0.25117 0.57887 0.9192 0.0
C837 C 0.27351 0.58911 0.91063 0.0
C838 C 0.29527 0.58075 0.92333 0.0
C839 C 0.29459 0.5625 0.94411 0.0
H840 H 0.37481 0.24935 0.81536 0.0
H841 H 0.34219 0.30797 0.86322 0.0
H842 H 0.41035 0.24984 0.84619 0.0
H843 H 0.37765 0.30822 0.89456 0.0
H844 H 0.4544 0.31372 0.93356 0.0
H845 H 0.42129 0.31672 0.89907 0.0
H846 H 0.41901 0.23787 0.89331 0.0
H847 H 0.45217 0.2349 0.92685 0.0
C848 C 0.3752 0.26227 0.8326 0.0
C849 C 0.35559 0.27842 0.83707 0.0
C850 C 0.39557 0.26256 0.8503 0.0
C851 C 0.39677 0.27889 0.87308 0.0
C852 C 0.37745 0.29557 0.87707 0.0
C853 C 0.35709 0.29538 0.8592 0.0
C854 C 0.44693 0.29708 0.92471 0.0
C855 C 0.456 0.27409 0.93295 0.0
C856 C 0.42786 0.29878 0.90509 0.0
C857 C 0.41752 0.27754 0.89331 0.0
C858 C 0.42679 0.25464 0.90148 0.0
C859 C 0.44578 0.25294 0.92093 0.0
H860 H 0.81038 0.35597 0.84057 0.0
H861 H 0.75019 0.32628 0.88848 0.0
H862 H 0.80942 0.39302 0.86922 0.0
H863 H 0.74978 0.36289 0.91767 0.0
H864 H 0.73551 0.44227 0.94037 0.0
H865 H 0.7384 0.40559 0.91185 0.0
H866 H 0.81728 0.40846 0.91706 0.0
H867 H 0.81444 0.44566 0.94551 0.0
C868 C 0.79699 0.35732 0.85726 0.0
C869 C 0.78026 0.33821 0.86211 0.0
C870 C 0.79662 0.37844 0.87386 0.0
C871 C 0.77944 0.38098 0.89563 0.0
C872 C 0.76304 0.36167 0.90081 0.0
C873 C 0.76345 0.34055 0.88428 0.0
C874 C 0.75353 0.43521 0.93543 0.0
C875 C 0.77476 0.44692 0.94534 0.0
C876 C 0.75516 0.41402 0.91921 0.0
C877 C 0.77805 0.40392 0.91241 0.0
C878 C 0.79936 0.41585 0.92183 0.0
C879 C 0.79773 0.43712 0.93818 0.0
H880 H 0.60693 0.30045 0.19127 0.0
H881 H 0.65962 0.25913 0.14293 0.0
H882 H 0.57919 0.30076 0.15099 0.0
H883 H 0.6318 0.25919 0.10301 0.0
H884 H 0.56343 0.23666 0.05398 0.0
H885 H 0.5919 0.23979 0.0929 0.0
H886 H 0.57515 0.31666 0.10124 0.0
H887 H 0.54622 0.31355 0.062 0.0
C888 C 0.61269 0.29161 0.17202 0.0
C889 C 0.63541 0.27952 0.17045 0.0
C890 C 0.59681 0.29184 0.14895 0.0
C891 C 0.60327 0.27988 0.12392 0.0
C892 C 0.62615 0.26822 0.12219 0.0
C893 C 0.64203 0.26808 0.14513 0.0
C894 C 0.56576 0.2543 0.06399 0.0
C895 C 0.55251 0.27488 0.05486 0.0
C896 C 0.58224 0.2561 0.08622 0.0
C897 C 0.58585 0.27848 0.10005 0.0
C898 C 0.57262 0.29913 0.09105 0.0
C899 C 0.55618 0.29738 0.06852 0.0
H900 H 0.81756 0.64552 0.15733 0.0
H901 H 0.74378 0.66343 0.13217 0.0
H902 H 0.81771 0.61108 0.12443 0.0
H903 H 0.74404 0.62964 0.09902 0.0
H904 H 0.73973 0.55283 0.0674 0.0
H905 H 0.74257 0.58628 0.10054 0.0
H906 H 0.81736 0.59935 0.07505 0.0
H907 H 0.81471 0.56495 0.04214 0.0
C908 C 0.80148 0.64221 0.14458 0.0
C909 C 0.78053 0.65693 0.14758 0.0
C910 C 0.80159 0.62255 0.12568 0.0
C911 C 0.78078 0.61737 0.10931 0.0
C912 C 0.76015 0.63265 0.11181 0.0
C913 C 0.75999 0.65207 0.13078 0.0
C914 C 0.75684 0.56276 0.06881 0.0
C915 C 0.77693 0.55637 0.0519 0.0
C916 C 0.75842 0.5821 0.08776 0.0
C917 C 0.78004 0.59585 0.09016 0.0
C918 C 0.80044 0.58909 0.0738 0.0
C919 C 0.79892 0.56946 0.05489 0.0
H920 H 0.33417 0.78777 0.13663 0.0
H921 H 0.37704 0.74431 0.19424 0.0
H922 H 0.37007 0.79275 0.10651 0.0
H923 H 0.41283 0.74938 0.16436 0.0
H924 H 0.45859 0.73441 0.08587 0.0
H925 H 0.42502 0.73412 0.119 0.0
H926 H 0.41159 0.81067 0.1025 0.0
H927 H 0.44535 0.81088 0.0685 0.0
C928 C 0.35131 0.77951 0.14301 0.0
C929 C 0.35266 0.76535 0.16763 0.0
C930 C 0.37191 0.78245 0.12582 0.0
C931 C 0.39429 0.77134 0.13292 0.0
C932 C 0.39576 0.75781 0.15798 0.0
C933 C 0.37521 0.75482 0.17507 0.0
C934 C 0.44868 0.75131 0.08936 0.0
C935 C 0.45464 0.77267 0.07442 0.0
C936 C 0.42946 0.75116 0.10859 0.0
C937 C 0.4156 0.77236 0.11348 0.0
C938 C 0.42181 0.79396 0.09901 0.0
C939 C 0.44125 0.79415 0.07973 0.0
H940 H 0.2943 0.35606 0.17587 0.0
H941 H 0.24242 0.32643 0.11639 0.0
H942 H 0.29787 0.39309 0.14727 0.0
H943 H 0.24558 0.36355 0.08846 0.0
H944 H 0.23142 0.44371 0.06945 0.0
H945 H 0.23239 0.40696 0.09781 0.0
H946 H 0.31137 0.40848 0.09774 0.0
H947 H 0.31054 0.44575 0.0688 0.0
C948 C 0.28387 0.35725 0.15659 0.0
C949 C 0.26781 0.33828 0.14869 0.0
C950 C 0.28593 0.3785 0.14025 0.0
C951 C 0.27182 0.38132 0.11581 0.0
C952 C 0.25637 0.36209 0.10747 0.0
C953 C 0.25446 0.34085 0.12361 0.0
C954 C 0.24911 0.43643 0.07547 0.0
C955 C 0.27094 0.44771 0.06662 0.0
C956 C 0.2496 0.4152 0.09164 0.0
C957 C 0.27193 0.40463 0.09969 0.0
C958 C 0.29388 0.41624 0.09179 0.0
C959 C 0.2934 0.43753 0.07522 0.0
H960 H 0.36763 0.19168 0.15666 0.0
H961 H 0.3369 0.25456 0.11444 0.0
H962 H 0.40273 0.19264 0.12477 0.0
H963 H 0.37128 0.25489 0.0821 0.0
H964 H 0.44883 0.26912 0.05433 0.0
H965 H 0.41429 0.2652 0.08586 0.0
H966 H 0.41523 0.18677 0.07485 0.0
H967 H 0.45048 0.19065 0.04324 0.0
C968 C 0.36829 0.20562 0.14052 0.0
C969 C 0.34948 0.22311 0.1382 0.0
C970 C 0.38826 0.20599 0.12207 0.0
C971 C 0.38988 0.22395 0.10103 0.0
C972 C 0.37078 0.24103 0.09834 0.0
C973 C 0.35089 0.24066 0.1167 0.0
C974 C 0.44179 0.25097 0.05855 0.0
C975 C 0.45237 0.23019 0.04605 0.0
C976 C 0.42183 0.24875 0.07656 0.0
C977 C 0.41177 0.22572 0.08258 0.0
C978 C 0.42263 0.20479 0.07066 0.0
C979 C 0.44274 0.207 0.05251 0.0
H980 H 0.69962 0.39411 0.18979 0.0
H981 H 0.75695 0.35279 0.14907 0.0
H982 H 0.70087 0.4242 0.15172 0.0
H983 H 0.75764 0.38226 0.11083 0.0
H984 H 0.77326 0.45326 0.0658 0.0
H985 H 0.77037 0.42465 0.10452 0.0
H986 H 0.69146 0.42804 0.10044 0.0
H987 H 0.69429 0.45726 0.06156 0.0
C988 C 0.7125 0.3915 0.17276 0.0
C989 C 0.72822 0.37112 0.17244 0.0
C990 C 0.71301 0.40854 0.15084 0.0
C991 C 0.72937 0.40561 0.12832 0.0
C992 C 0.74501 0.38519 0.12804 0.0
C993 C 0.74446 0.36818 0.14982 0.0
C994 C 0.75523 0.44799 0.07307 0.0
C995 C 0.73398 0.45748 0.06044 0.0
C996 C 0.7536 0.43146 0.09523 0.0
C997 C 0.7307 0.42392 0.10538 0.0
C998 C 0.70937 0.43365 0.09314 0.0
C999 C 0.71099 0.45025 0.0708 0.0
H1000 H 0.68238 0.76437 0.11643 0.0
H1001 H 0.65129 0.71303 0.17541 0.0
H1002 H 0.6461 0.76068 0.08701 0.0
H1003 H 0.6146 0.70972 0.14605 0.0
H1004 H 0.56631 0.77538 0.0656 0.0
H1005 H 0.60313 0.77447 0.09389 0.0
H1006 H 0.59949 0.69565 0.09757 0.0
H1007 H 0.56209 0.69645 0.06886 0.0
C1008 C 0.66793 0.75207 0.12296 0.0
C1009 C 0.6697 0.73909 0.14834 0.0
C1010 C 0.64704 0.75011 0.10621 0.0
C1011 C 0.6274 0.73506 0.11434 0.0
C1012 C 0.62946 0.72139 0.1392 0.0
C1013 C 0.65035 0.72348 0.15612 0.0
C1014 C 0.57318 0.75776 0.07239 0.0
C1015 C 0.5612 0.73595 0.06481 0.0
C1016 C 0.59446 0.75728 0.08849 0.0
C1017 C 0.60439 0.735 0.09768 0.0
C1018 C 0.59222 0.71311 0.09076 0.0
C1019 C 0.57087 0.71357 0.0743 0.0
H1020 H 0.26679 0.67154 0.13364 0.0
H1021 H 0.21115 0.63895 0.18611 0.0
H1022 H 0.26249 0.63803 0.10027 0.0
H1023 H 0.20734 0.60498 0.15297 0.0
H1024 H 0.19493 0.55821 0.07184 0.0
H1025 H 0.19477 0.59364 0.10358 0.0
H1026 H 0.2738 0.59449 0.10257 0.0
H1027 H 0.27407 0.55968 0.0712 0.0
C1028 C 0.25344 0.65737 0.13791 0.0
C1029 C 0.23946 0.65784 0.16266 0.0
C1030 C 0.25113 0.63804 0.11891 0.0
C1031 C 0.23475 0.61872 0.12413 0.0
C1032 C 0.22006 0.61962 0.14832 0.0
C1033 C 0.22245 0.63894 0.16743 0.0
C1034 C 0.21222 0.56596 0.07851 0.0
C1035 C 0.23448 0.55611 0.06886 0.0
C1036 C 0.21213 0.5862 0.09668 0.0
C1037 C 0.23428 0.59705 0.10527 0.0
C1038 C 0.25642 0.58692 0.0959 0.0
C1039 C 0.25653 0.56676 0.07803 0.0
H1040 H 0.38266 0.72174 0.82865 0.0
H1041 H 0.33371 0.75365 0.88976 0.0
H1042 H 0.41383 0.71662 0.86513 0.0
H1043 H 0.36478 0.74869 0.92594 0.0
H1044 H 0.43692 0.77028 0.96799 0.0
H1045 H 0.40431 0.76924 0.93362 0.0
H1046 H 0.42412 0.69525 0.91134 0.0
H1047 H 0.4574 0.69631 0.94616 0.0
C1048 C 0.37845 0.7274 0.84989 0.0
C1049 C 0.35585 0.73851 0.85618 0.0
C1050 C 0.39627 0.72438 0.87078 0.0
C1051 C 0.39183 0.73245 0.89834 0.0
C1052 C 0.36891 0.74269 0.90479 0.0
C1053 C 0.35116 0.74567 0.884 0.0
C1054 C 0.43437 0.75367 0.95594 0.0
C1055 C 0.44984 0.73337 0.95978 0.0
C1056 C 0.4155 0.75304 0.93633 0.0
C1057 C 0.41155 0.73214 0.91984 0.0
C1058 C 0.42683 0.71165 0.92371 0.0
C1059 C 0.44573 0.71219 0.94372 0.0
H1060 H 0.26113 0.34289 0.87804 0.0
H1061 H 0.20096 0.37576 0.83275 0.0
H1062 H 0.25744 0.37396 0.91422 0.0
H1063 H 0.19792 0.40762 0.86874 0.0
H1064 H 0.19054 0.4495 0.95508 0.0
H1065 H 0.18864 0.41617 0.92042 0.0
H1066 H 0.26741 0.41769 0.91314 0.0
H1067 H 0.26941 0.45024 0.94729 0.0
C1068 C 0.24688 0.35654 0.87594 0.0
C1069 C 0.23144 0.35686 0.85236 0.0
C1070 C 0.24493 0.37453 0.89658 0.0
C1071 C 0.22759 0.39342 0.89414 0.0
C1072 C 0.21143 0.39327 0.8712 0.0
C1073 C 0.21338 0.37519 0.85045 0.0
C1074 C 0.20738 0.44269 0.94597 0.0
C1075 C 0.23011 0.45242 0.95419 0.0
C1076 C 0.20629 0.42368 0.92613 0.0
C1077 C 0.22792 0.41405 0.91443 0.0
C1078 C 0.25046 0.42425 0.92224 0.0
C1079 C 0.25155 0.4431 0.94179 0.0
H1080 H 0.67892 0.26834 0.87893 0.0
H1081 H 0.66121 0.19724 0.84508 0.0
H1082 H 0.64119 0.26794 0.90614 0.0
H1083 H 0.62317 0.19694 0.87202 0.0
H1084 H 0.56901 0.1958 0.94695 0.0
H1085 H 0.60654 0.19441 0.91897 0.0
H1086 H 0.59806 0.27114 0.89938 0.0
H1087 H 0.56121 0.27265 0.92778 0.0
C1088 C 0.66684 0.2527 0.87714 0.0
C1089 C 0.67303 0.23288 0.85977 0.0
C1090 C 0.64516 0.25247 0.89269 0.0
C1091 C 0.62897 0.23248 0.89114 0.0
C1092 C 0.6353 0.21251 0.87399 0.0
C1093 C 0.6571 0.21269 0.85852 0.0
C1094 C 0.57511 0.21229 0.93648 0.0
C1095 C 0.56221 0.23436 0.93979 0.0
C1096 C 0.59659 0.2115 0.92038 0.0
C1097 C 0.60553 0.23275 0.90717 0.0
C1098 C 0.5921 0.25457 0.90979 0.0
C1099 C 0.57081 0.25538 0.92594 0.0
H1100 H 0.75564 0.63159 0.81783 0.0
H1101 H 0.69571 0.66358 0.86415 0.0
H1102 H 0.75593 0.5968 0.84971 0.0
H1103 H 0.69625 0.62886 0.89658 0.0
H1104 H 0.69297 0.55261 0.93751 0.0
H1105 H 0.6891 0.58498 0.90223 0.0
H1106 H 0.76792 0.58997 0.89728 0.0
H1107 H 0.77178 0.55755 0.9316 0.0
C1108 C 0.7426 0.63121 0.83496 0.0
C1109 C 0.72586 0.65044 0.83873 0.0
C1110 C 0.74276 0.61128 0.85325 0.0
C1111 C 0.72631 0.61016 0.87593 0.0
C1112 C 0.70903 0.62904 0.8792 0.0
C1113 C 0.70877 0.64896 0.86071 0.0
C1114 C 0.70943 0.56053 0.92869 0.0
C1115 C 0.73267 0.55242 0.93733 0.0
C1116 C 0.70722 0.57917 0.90862 0.0
C1117 C 0.7282 0.59 0.89681 0.0
C1118 C 0.75136 0.58174 0.90547 0.0
C1119 C 0.75356 0.56319 0.92536 0.0
loop_
_geom_bond_atom_site_label_1
_geom_bond_atom_site_label_2
_geom_bond_distance
_geom_bond_site_symmetry_2
_ccdc_geom_bond_type
C0 C1 1.384 . S
C0 C2 1.384 . S
C0 H28 0.931 . S
C1 C0 1.384 . S
C1 C4 1.382 . S
C2 C0 1.384 . S
C2 C3 1.381 . S
C2 H29 0.930 . S
C3 C2 1.381 . S
C3 C5 1.381 . S
C3 C6 1.487 . S
C4 C1 1.382 . S
C4 C5 1.387 . S
C4 H30 0.930 . S
C5 C3 1.381 . S
C5 C4 1.387 . S
C5 H31 0.931 . S
C6 C3 1.487 . S
C6 C13 1.399 . S
C6 N44 1.343 . S
C7 C8 1.384 . S
C7 C9 1.384 . S
C7 H32 0.931 . S
C8 C7 1.384 . S
C8 C11 1.382 . S
C9 C7 1.384 . S
C9 C10 1.381 . S
C9 H33 0.930 . S
C10 C9 1.381 . S
C10 C12 1.381 . S
C10 C13 1.487 . S
C11 C8 1.382 . S
C11 C12 1.387 . S
C11 H34 0.930 . S
C12 C10 1.381 . S
C12 C11 1.387 . S
C12 H35 0.931 . S
C13 C6 1.399 . S
C13 C10 1.487 . S
C13 N45 1.343 . S
C14 C15 1.384 . S
C14 C16 1.384 . S
C14 H36 0.931 . S
C15 C14 1.384 . S
C15 C18 1.382 . S
C16 C14 1.384 . S
C16 C17 1.381 . S
C16 H37 0.930 . S
C17 C16 1.381 . S
C17 C19 1.381 . S
C17 C20 1.487 . S
C18 C15 1.382 . S
C18 C19 1.387 . S
C18 H38 0.930 . S
C19 C17 1.381 . S
C19 C18 1.387 . S
C19 H39 0.931 . S
C20 C17 1.487 . S
C20 C27 1.399 . S
C20 N45 1.343 . S
C21 C22 1.384 . S
C21 C23 1.384 . S
C21 H40 0.931 . S
C22 C21 1.384 . S
C22 C25 1.382 . S
C23 C21 1.384 . S
C23 C24 1.381 . S
C23 H41 0.930 . S
C24 C23 1.381 . S
C24 C26 1.381 . S
C24 C27 1.487 . S
C25 C22 1.382 . S
C25 C26 1.387 . S
C25 H42 0.930 . S
C26 C24 1.381 . S
C26 C25 1.387 . S
C26 H43 0.931 . S
C27 C20 1.399 . S
C27 C24 1.487 . S
C27 N44 1.343 . S
H28 C0 0.931 . S
H29 C2 0.930 . S
H30 C4 0.930 . S
H31 C5 0.931 . S
H32 C7 0.931 . S
H33 C9 0.930 . S
H34 C11 0.930 . S
H35 C12 0.931 . S
H36 C14 0.931 . S
H37 C16 0.930 . S
H38 C18 0.930 . S
H39 C19 0.931 . S
H40 C21 0.931 . S
H41 C23 0.930 . S
H42 C25 0.930 . S
H43 C26 0.931 . S
N44 C6 1.343 . S
N44 C27 1.343 . S
N45 C13 1.343 . S
N45 C20 1.343 . S
C46 C47 1.384 . S
C46 C48 1.384 . S
C46 H74 0.931 . S
C47 C46 1.384 . S
C47 C50 1.382 . S
C48 C46 1.384 . S
C48 C49 1.381 . S
C48 H75 0.930 . S
C49 C48 1.381 . S
C49 C51 1.381 . S
C49 C52 1.487 . S
C50 C47 1.382 . S
C50 C51 1.387 . S
C50 H76 0.930 . S
C51 C49 1.381 . S
C51 C50 1.387 . S
C51 H77 0.931 . S
C52 C49 1.487 . S
C52 C59 1.399 . S
C52 N90 1.343 . S
C53 C54 1.384 . S
C53 C55 1.384 . S
C53 H78 0.931 . S
C54 C53 1.384 . S
C54 C57 1.382 . S
C55 C53 1.384 . S
C55 C56 1.381 . S
C55 H79 0.930 . S
C56 C55 1.381 . S
C56 C58 1.381 . S
C56 C59 1.487 . S
C57 C54 1.382 . S
C57 C58 1.387 . S
C57 H80 0.930 . S
C58 C56 1.381 . S
C58 C57 1.387 . S
C58 H81 0.931 . S
C59 C52 1.399 . S
C59 C56 1.487 . S
C59 N91 1.343 . S
C60 C61 1.384 . S
C60 C62 1.384 . S
C60 H82 0.931 . S
C61 C60 1.384 . S
C61 C64 1.382 . S
C62 C60 1.384 . S
C62 C63 1.381 . S
C62 H83 0.930 . S
C63 C62 1.381 . S
C63 C65 1.381 . S
C63 C66 1.487 . S
C64 C61 1.382 . S
C64 C65 1.387 . S
C64 H84 0.930 . S
C65 C63 1.381 . S
C65 C64 1.387 . S
C65 H85 0.931 . S
C66 C63 1.487 . S
C66 C73 1.399 . S
C66 N91 1.343 . S
C67 C68 1.384 . S
C67 C69 1.384 . S
C67 H86 0.931 . S
C68 C67 1.384 . S
C68 C71 1.382 . S
C69 C67 1.384 . S
C69 C70 1.381 . S
C69 H87 0.930 . S
C70 C69 1.381 . S
C70 C72 1.381 . S
C70 C73 1.487 . S
C71 C68 1.382 . S
C71 C72 1.387 . S
C71 H88 0.930 . S
C72 C70 1.381 . S
C72 C71 1.387 . S
C72 H89 0.931 . S
C73 C66 1.399 . S
C73 C70 1.487 . S
C73 N90 1.343 . S
H74 C46 0.931 . S
H75 C48 0.930 . S
H76 C50 0.930 . S
H77 C51 0.931 . S
H78 C53 0.931 . S
H79 C55 0.930 . S
H80 C57 0.930 . S
H81 C58 0.931 . S
H82 C60 0.931 . S
H83 C62 0.930 . S
H84 C64 0.930 . S
H85 C65 0.931 . S
H86 C67 0.931 . S
H87 C69 0.930 . S
H88 C71 0.930 . S
H89 C72 0.931 . S
N90 C52 1.343 . S
N90 C73 1.343 . S
N91 C59 1.343 . S
N91 C66 1.343 . S
C92 C93 1.384 . S
C92 C94 1.384 . S
C92 H120 0.931 . S
C93 C92 1.384 . S
C93 C96 1.382 . S
C94 C92 1.384 . S
C94 C95 1.381 . S
C94 H121 0.930 . S
C95 C94 1.381 . S
C95 C97 1.381 . S
C95 C98 1.487 . S
C96 C93 1.382 . S
C96 C97 1.387 . S
C96 H122 0.930 . S
C97 C95 1.381 . S
C97 C96 1.387 . S
C97 H123 0.931 . S
C98 C95 1.487 . S
C98 C105 1.399 . S
C98 N136 1.343 . S
C99 C100 1.384 . S
C99 C101 1.384 . S
C99 H124 0.931 . S
C100 C99 1.384 . S
C100 C103 1.382 . S
C101 C99 1.384 . S
C101 C102 1.381 . S
C101 H125 0.930 . S
C102 C101 1.381 . S
C102 C104 1.381 . S
C102 C105 1.487 . S
C103 C100 1.382 . S
C103 C104 1.387 . S
C103 H126 0.930 . S
C104 C102 1.381 . S
C104 C103 1.387 . S
C104 H127 0.931 . S
C105 C98 1.399 . S
C105 C102 1.487 . S
C105 N137 1.343 . S
C106 C107 1.384 . S
C106 C108 1.384 . S
C106 H128 0.931 . S
C107 C106 1.384 . S
C107 C110 1.382 . S
C108 C106 1.384 . S
C108 C109 1.381 . S
C108 H129 0.930 . S
C109 C108 1.381 . S
C109 C111 1.381 . S
C109 C112 1.487 . S
C110 C107 1.382 . S
C110 C111 1.387 . S
C110 H130 0.930 . S
C111 C109 1.381 . S
C111 C110 1.387 . S
C111 H131 0.931 . S
C112 C109 1.487 . S
C112 C119 1.399 . S
C112 N137 1.343 . S
C113 C114 1.384 . S
C113 C115 1.384 . S
C113 H132 0.931 . S
C114 C113 1.384 . S
C114 C117 1.382 . S
C115 C113 1.384 . S
C115 C116 1.381 . S
C115 H133 0.930 . S
C116 C115 1.381 . S
C116 C118 1.381 . S
C116 C119 1.487 . S
C117 C114 1.382 . S
C117 C118 1.387 . S
C117 H134 0.930 . S
C118 C116 1.381 . S
C118 C117 1.387 . S
C118 H135 0.931 . S
C119 C112 1.399 . S
C119 C116 1.487 . S
C119 N136 1.343 . S
H120 C92 0.931 . S
H121 C94 0.930 . S
H122 C96 0.930 . S
H123 C97 0.931 . S
H124 C99 0.931 . S
H125 C101 0.930 . S
H126 C103 0.930 . S
H127 C104 0.931 . S
H128 C106 0.931 . S
H129 C108 0.930 . S
H130 C110 0.930 . S
H131 C111 0.931 . S
H132 C113 0.931 . S
H133 C115 0.930 . S
H134 C117 0.930 . S
H135 C118 0.931 . S
N136 C98 1.343 . S
N136 C119 1.343 . S
N137 C105 1.343 . S
N137 C112 1.343 . S
C138 C139 1.384 . S
C138 C140 1.384 . S
C138 H166 0.931 . S
C139 C138 1.384 . S
C139 C142 1.382 . S
C140 C138 1.384 . S
C140 C141 1.381 . S
C140 H167 0.930 . S
C141 C140 1.381 . S
C141 C143 1.381 . S
C141 C144 1.487 . S
C142 C139 1.382 . S
C142 C143 1.387 . S
C142 H168 0.930 . S
C143 C141 1.381 . S
C143 C142 1.387 . S
C143 H169 0.931 . S
C144 C141 1.487 . S
C144 C151 1.399 . S
C144 N182 1.343 . S
C145 C146 1.384 . S
C145 C147 1.384 . S
C145 H170 0.931 . S
C146 C145 1.384 . S
C146 C149 1.382 . S
C147 C145 1.384 . S
C147 C148 1.381 . S
C147 H171 0.930 . S
C148 C147 1.381 . S
C148 C150 1.381 . S
C148 C151 1.487 . S
C149 C146 1.382 . S
C149 C150 1.387 . S
C149 H172 0.930 . S
C150 C148 1.381 . S
C150 C149 1.387 . S
C150 H173 0.931 . S
C151 C144 1.399 . S
C151 C148 1.487 . S
C151 N183 1.343 . S
C152 C153 1.384 . S
C152 C154 1.384 . S
C152 H174 0.931 . S
C153 C152 1.384 . S
C153 C156 1.382 . S
C154 C152 1.384 . S
C154 C155 1.381 . S
C154 H175 0.930 . S
C155 C154 1.381 . S
C155 C157 1.381 . S
C155 C158 1.487 . S
C156 C153 1.382 . S
C156 C157 1.387 . S
C156 H176 0.930 . S
C157 C155 1.381 . S
C157 C156 1.387 . S
C157 H177 0.931 . S
C158 C155 1.487 . S
C158 C165 1.399 . S
C158 N183 1.343 . S
C159 C160 1.384 . S
C159 C161 1.384 . S
C159 H178 0.931 . S
C160 C159 1.384 . S
C160 C163 1.382 . S
C161 C159 1.384 . S
C161 C162 1.381 . S
C161 H179 0.930 . S
C162 C161 1.381 . S
C162 C164 1.381 . S
C162 C165 1.487 . S
C163 C160 1.382 . S
C163 C164 1.387 . S
C163 H180 0.930 . S
C164 C162 1.381 . S
C164 C163 1.387 . S
C164 H181 0.931 . S
C165 C158 1.399 . S
C165 C162 1.487 . S
C165 N182 1.343 . S
H166 C138 0.931 . S
H167 C140 0.930 . S
H168 C142 0.930 . S
H169 C143 0.931 . S
H170 C145 0.931 . S
H171 C147 0.930 . S
H172 C149 0.930 . S
H173 C150 0.931 . S
H174 C152 0.931 . S
H175 C154 0.930 . S
H176 C156 0.930 . S
H177 C157 0.931 . S
H178 C159 0.931 . S
H179 C161 0.930 . S
H180 C163 0.930 . S
H181 C164 0.931 . S
N182 C144 1.343 . S
N182 C165 1.343 . S
N183 C151 1.343 . S
N183 C158 1.343 . S
C184 C185 1.384 . S
C184 C186 1.384 . S
C184 H212 0.931 . S
C185 C184 1.384 . S
C185 C188 1.382 . S
C186 C184 1.384 . S
C186 C187 1.381 . S
C186 H213 0.930 . S
C187 C186 1.381 . S
C187 C189 1.381 . S
C187 C190 1.487 . S
C188 C185 1.382 . S
C188 C189 1.387 . S
C188 H214 0.930 . S
C189 C187 1.381 . S
C189 C188 1.387 . S
C189 H215 0.931 . S
C190 C187 1.487 . S
C190 C197 1.399 . S
C190 N228 1.343 . S
C191 C192 1.384 . S
C191 C193 1.384 . S
C191 H216 0.931 . S
C192 C191 1.384 . S
C192 C195 1.382 . S
C193 C191 1.384 . S
C193 C194 1.381 . S
C193 H217 0.930 . S
C194 C193 1.381 . S
C194 C196 1.381 . S
C194 C197 1.487 . S
C195 C192 1.382 . S
C195 C196 1.387 . S
C195 H218 0.930 . S
C196 C194 1.381 . S
C196 C195 1.387 . S
C196 H219 0.931 . S
C197 C190 1.399 . S
C197 C194 1.487 . S
C197 N229 1.343 . S
C198 C199 1.384 . S
C198 C200 1.384 . S
C198 H220 0.931 . S
C199 C198 1.384 . S
C199 C202 1.382 . S
C200 C198 1.384 . S
C200 C201 1.381 . S
C200 H221 0.930 . S
C201 C200 1.381 . S
C201 C203 1.381 . S
C201 C204 1.487 . S
C202 C199 1.382 . S
C202 C203 1.387 . S
C202 H222 0.930 . S
C203 C201 1.381 . S
C203 C202 1.387 . S
C203 H223 0.931 . S
C204 C201 1.487 . S
C204 C211 1.399 . S
C204 N229 1.343 . S
C205 C206 1.384 . S
C205 C207 1.384 . S
C205 H224 0.931 . S
C206 C205 1.384 . S
C206 C209 1.382 . S
C207 C205 1.384 . S
C207 C208 1.381 . S
C207 H225 0.930 . S
C208 C207 1.381 . S
C208 C210 1.381 . S
C208 C211 1.487 . S
C209 C206 1.382 . S
C209 C210 1.387 . S
C209 H226 0.930 . S
C210 C208 1.381 . S
C210 C209 1.387 . S
C210 H227 0.931 . S
C211 C204 1.399 . S
C211 C208 1.487 . S
C211 N228 1.343 . S
H212 C184 0.931 . S
H213 C186 0.930 . S
H214 C188 0.930 . S
H215 C189 0.931 . S
H216 C191 0.931 . S
H217 C193 0.930 . S
H218 C195 0.930 . S
H219 C196 0.931 . S
H220 C198 0.931 . S
H221 C200 0.930 . S
H222 C202 0.930 . S
H223 C203 0.931 . S
H224 C205 0.931 . S
H225 C207 0.930 . S
H226 C209 0.930 . S
H227 C210 0.931 . S
N228 C190 1.343 . S
N228 C211 1.343 . S
N229 C197 1.343 . S
N229 C204 1.343 . S
C230 C231 1.384 . S
C230 C232 1.384 . S
C230 H258 0.931 . S
C231 C230 1.384 . S
C231 C234 1.382 . S
C232 C230 1.384 . S
C232 C233 1.381 . S
C232 H259 0.930 . S
C233 C232 1.381 . S
C233 C235 1.381 . S
C233 C236 1.487 . S
C234 C231 1.382 . S
C234 C235 1.387 . S
C234 H260 0.930 . S
C235 C233 1.381 . S
C235 C234 1.387 . S
C235 H261 0.931 . S
C236 C233 1.487 . S
C236 C243 1.399 . S
C236 N274 1.343 . S
C237 C238 1.384 . S
C237 C239 1.384 . S
C237 H262 0.931 . S
C238 C237 1.384 . S
C238 C241 1.382 . S
C239 C237 1.384 . S
C239 C240 1.381 . S
C239 H263 0.930 . S
C240 C239 1.381 . S
C240 C242 1.381 . S
C240 C243 1.487 . S
C241 C238 1.382 . S
C241 C242 1.387 . S
C241 H264 0.930 . S
C242 C240 1.381 . S
C242 C241 1.387 . S
C242 H265 0.931 . S
C243 C236 1.399 . S
C243 C240 1.487 . S
C243 N275 1.343 . S
C244 C245 1.384 . S
C244 C246 1.384 . S
C244 H266 0.931 . S
C245 C244 1.384 . S
C245 C248 1.382 . S
C246 C244 1.384 . S
C246 C247 1.381 . S
C246 H267 0.930 . S
C247 C246 1.381 . S
C247 C249 1.381 . S
C247 C250 1.487 . S
C248 C245 1.382 . S
C248 C249 1.387 . S
C248 H268 0.930 . S
C249 C247 1.381 . S
C249 C248 1.387 . S
C249 H269 0.931 . S
C250 C247 1.487 . S
C250 C257 1.399 . S
C250 N275 1.343 . S
C251 C252 1.384 . S
C251 C253 1.384 . S
C251 H270 0.931 . S
C252 C251 1.384 . S
C252 C255 1.382 . S
C253 C251 1.384 . S
C253 C254 1.381 . S
C253 H271 0.930 . S
C254 C253 1.381 . S
C254 C256 1.381 . S
C254 C257 1.487 . S
C255 C252 1.382 . S
C255 C256 1.387 . S
C255 H272 0.930 . S
C256 C254 1.381 . S
C256 C255 1.387 . S
C256 H273 0.931 . S
C257 C250 1.399 . S
C257 C254 1.487 . S
C257 N274 1.343 . S
H258 C230 0.931 . S
H259 C232 0.930 . S
H260 C234 0.930 . S
H261 C235 0.931 . S
H262 C237 0.931 . S
H263 C239 0.930 . S
H264 C241 0.930 . S
H265 C242 0.931 . S
H266 C244 0.931 . S
H267 C246 0.930 . S
H268 C248 0.930 . S
H269 C249 0.931 . S
H270 C251 0.931 . S
H271 C253 0.930 . S
H272 C255 0.930 . S
H273 C256 0.931 . S
N274 C236 1.343 . S
N274 C257 1.343 . S
N275 C243 1.343 . S
N275 C250 1.343 . S
C276 C277 1.384 . S
C276 C278 1.384 . S
C276 H304 0.931 . S
C277 C276 1.384 . S
C277 C280 1.382 . S
C278 C276 1.384 . S
C278 C279 1.381 . S
C278 H305 0.930 . S
C279 C278 1.381 . S
C279 C281 1.381 . S
C279 C282 1.487 . S
C280 C277 1.382 . S
C280 C281 1.387 . S
C280 H306 0.930 . S
C281 C279 1.381 . S
C281 C280 1.387 . S
C281 H307 0.931 . S
C282 C279 1.487 . S
C282 C289 1.399 . S
C282 N320 1.343 . S
C283 C284 1.384 . S
C283 C285 1.384 . S
C283 H308 0.931 . S
C284 C283 1.384 . S
C284 C287 1.382 . S
C285 C283 1.384 . S
C285 C286 1.381 . S
C285 H309 0.930 . S
C286 C285 1.381 . S
C286 C288 1.381 . S
C286 C289 1.487 . S
C287 C284 1.382 . S
C287 C288 1.387 . S
C287 H310 0.930 . S
C288 C286 1.381 . S
C288 C287 1.387 . S
C288 H311 0.931 . S
C289 C282 1.399 . S
C289 C286 1.487 . S
C289 N321 1.343 . S
C290 C291 1.384 . S
C290 C292 1.384 . S
C290 H312 0.931 . S
C291 C290 1.384 . S
C291 C294 1.382 . S
C292 C290 1.384 . S
C292 C293 1.381 . S
C292 H313 0.930 . S
C293 C292 1.381 . S
C293 C295 1.381 . S
C293 C296 1.487 . S
C294 C291 1.382 . S
C294 C295 1.387 . S
C294 H314 0.930 . S
C295 C293 1.381 . S
C295 C294 1.387 . S
C295 H315 0.931 . S
C296 C293 1.487 . S
C296 C303 1.399 . S
C296 N321 1.343 . S
C297 C298 1.384 . S
C297 C299 1.384 . S
C297 H316 0.931 . S
C298 C297 1.384 . S
C298 C301 1.382 . S
C299 C297 1.384 . S
C299 C300 1.381 . S
C299 H317 0.930 . S
C300 C299 1.381 . S
C300 C302 1.381 . S
C300 C303 1.487 . S
C301 C298 1.382 . S
C301 C302 1.387 . S
C301 H318 0.930 . S
C302 C300 1.381 . S
C302 C301 1.387 . S
C302 H319 0.931 . S
C303 C296 1.399 . S
C303 C300 1.487 . S
C303 N320 1.343 . S
H304 C276 0.931 . S
H305 C278 0.930 . S
H306 C280 0.930 . S
H307 C281 0.931 . S
H308 C283 0.931 . S
H309 C285 0.930 . S
H310 C287 0.930 . S
H311 C288 0.931 . S
H312 C290 0.931 . S
H313 C292 0.930 . S
H314 C294 0.930 . S
H315 C295 0.931 . S
H316 C297 0.931 . S
H317 C299 0.930 . S
H318 C301 0.930 . S
H319 C302 0.931 . S
N320 C282 1.343 . S
N320 C303 1.343 . S
N321 C289 1.343 . S
N321 C296 1.343 . S
C322 C323 1.384 . S
C322 C324 1.384 . S
C322 H350 0.931 . S
C323 C322 1.384 . S
C323 C326 1.382 . S
C324 C322 1.384 . S
C324 C325 1.381 . S
C324 H351 0.930 . S
C325 C324 1.381 . S
C325 C327 1.381 . S
C325 C328 1.487 . S
C326 C323 1.382 . S
C326 C327 1.387 . S
C326 H352 0.930 . S
C327 C325 1.381 . S
C327 C326 1.387 . S
C327 H353 0.931 . S
C328 C325 1.487 . S
C328 C335 1.399 . S
C328 N366 1.343 . S
C329 C330 1.384 . S
C329 C331 1.384 . S
C329 H354 0.931 . S
C330 C329 1.384 . S
C330 C333 1.382 . S
C331 C329 1.384 . S
C331 C332 1.381 . S
C331 H355 0.930 . S
C332 C331 1.381 . S
C332 C334 1.381 . S
C332 C335 1.487 . S
C333 C330 1.382 . S
C333 C334 1.387 . S
C333 H356 0.930 . S
C334 C332 1.381 . S
C334 C333 1.387 . S
C334 H357 0.931 . S
C335 C328 1.399 . S
C335 C332 1.487 . S
C335 N367 1.343 . S
C336 C337 1.384 . S
C336 C338 1.384 . S
C336 H358 0.931 . S
C337 C336 1.384 . S
C337 C340 1.382 . S
C338 C336 1.384 . S
C338 C339 1.381 . S
C338 H359 0.930 . S
C339 C338 1.381 . S
C339 C341 1.381 . S
C339 C342 1.487 . S
C340 C337 1.382 . S
C340 C341 1.387 . S
C340 H360 0.930 . S
C341 C339 1.381 . S
C341 C340 1.387 . S
C341 H361 0.931 . S
C342 C339 1.487 . S
C342 C349 1.399 . S
C342 N367 1.343 . S
C343 C344 1.384 . S
C343 C345 1.384 . S
C343 H362 0.931 . S
C344 C343 1.384 . S
C344 C347 1.382 . S
C345 C343 1.384 . S
C345 C346 1.381 . S
C345 H363 0.930 . S
C346 C345 1.381 . S
C346 C348 1.381 . S
C346 C349 1.487 . S
C347 C344 1.382 . S
C347 C348 1.387 . S
C347 H364 0.930 . S
C348 C346 1.381 . S
C348 C347 1.387 . S
C348 H365 0.931 . S
C349 C342 1.399 . S
C349 C346 1.487 . S
C349 N366 1.343 . S
H350 C322 0.931 . S
H351 C324 0.930 . S
H352 C326 0.930 . S
H353 C327 0.931 . S
H354 C329 0.931 . S
H355 C331 0.930 . S
H356 C333 0.930 . S
H357 C334 0.931 . S
H358 C336 0.931 . S
H359 C338 0.930 . S
H360 C340 0.930 . S
H361 C341 0.931 . S
H362 C343 0.931 . S
H363 C345 0.930 . S
H364 C347 0.930 . S
H365 C348 0.931 . S
N366 C328 1.343 . S
N366 C349 1.343 . S
N367 C335 1.343 . S
N367 C342 1.343 . S
C368 O370 1.247 . S
C368 O372 1.258 . S
C369 O376 1.247 . S
C369 O377 1.258 . S
O370 C368 1.247 . S
O370 Zn371 2.028 . S
Zn371 O370 2.028 . S
Zn371 O375 2.035 1_655 S
Zn371 O377 2.035 1_655 S
Zn371 O378 2.028 . S
O372 C368 1.258 . S
O372 Zn373 2.028 1_655 S
Zn373 O372 2.028 1_455 S
Zn373 O374 2.035 . S
Zn373 O376 2.035 . S
Zn373 O379 2.028 1_455 S
O374 Zn373 2.035 . S
O374 C380 1.247 . S
O375 Zn371 2.035 1_455 S
O375 C380 1.258 . S
O376 C369 1.247 . S
O376 Zn373 2.035 . S
O377 C369 1.258 . S
O377 Zn371 2.035 1_455 S
O378 Zn371 2.028 . S
O378 C381 1.247 . S
O379 Zn373 2.028 1_655 S
O379 C381 1.258 . S
C380 O374 1.247 . S
C380 O375 1.258 . S
C381 O378 1.247 . S
C381 O379 1.258 . S
C382 O384 1.247 . S
C382 O386 1.258 . S
C383 O390 1.247 . S
C383 O391 1.258 . S
O384 C382 1.247 . S
O384 Zn385 2.035 . S
Zn385 O384 2.035 . S
Zn385 O389 2.028 1_545 S
Zn385 O391 2.028 1_545 S
Zn385 O392 2.035 . S
O386 C382 1.258 . S
O386 Zn387 2.036 1_545 S
Zn387 O386 2.036 1_565 S
Zn387 O388 2.027 . S
Zn387 O390 2.027 . S
Zn387 O393 2.036 1_565 S
O388 Zn387 2.027 . S
O388 C394 1.247 . S
O389 Zn385 2.028 1_565 S
O389 C394 1.258 . S
O390 C383 1.247 . S
O390 Zn387 2.027 . S
O391 C383 1.258 . S
O391 Zn385 2.028 1_565 S
O392 Zn385 2.035 . S
O392 C395 1.247 . S
O393 Zn387 2.036 1_545 S
O393 C395 1.258 . S
C394 O388 1.247 . S
C394 O389 1.258 . S
C395 O392 1.247 . S
C395 O393 1.258 . S
C396 O398 1.247 . S
C396 O400 1.258 . S
C397 O404 1.247 . S
C397 O405 1.258 . S
O398 C396 1.247 . S
O398 Zn399 2.028 . S
Zn399 O398 2.028 . S
Zn399 O403 2.035 1_655 S
Zn399 O405 2.035 1_655 S
Zn399 O406 2.028 . S
O400 C396 1.258 . S
O400 Zn401 2.028 1_655 S
Zn401 O400 2.028 1_455 S
Zn401 O402 2.035 . S
Zn401 O404 2.035 . S
Zn401 O407 2.028 1_455 S
O402 Zn401 2.035 . S
O402 C408 1.247 . S
O403 Zn399 2.035 1_455 S
O403 C408 1.258 . S
O404 C397 1.247 . S
O404 Zn401 2.035 . S
O405 C397 1.258 . S
O405 Zn399 2.035 1_455 S
O406 Zn399 2.028 . S
O406 C409 1.247 . S
O407 Zn401 2.028 1_655 S
O407 C409 1.258 . S
C408 O402 1.247 . S
C408 O403 1.258 . S
C409 O406 1.247 . S
C409 O407 1.258 . S
C410 O412 1.247 . S
C410 O414 1.258 . S
C411 O418 1.247 . S
C411 O419 1.258 . S
O412 C410 1.247 . S
O412 Zn413 2.035 . S
Zn413 O412 2.035 . S
Zn413 O417 2.028 1_545 S
Zn413 O419 2.028 1_545 S
Zn413 O420 2.035 . S
O414 C410 1.258 . S
O414 Zn415 2.036 1_545 S
Zn415 O414 2.036 1_565 S
Zn415 O416 2.027 . S
Zn415 O418 2.027 . S
Zn415 O421 2.036 1_565 S
O416 Zn415 2.027 . S
O416 C422 1.247 . S
O417 Zn413 2.028 1_565 S
O417 C422 1.258 . S
O418 C411 1.247 . S
O418 Zn415 2.027 . S
O419 C411 1.258 . S
O419 Zn413 2.028 1_565 S
O420 Zn413 2.035 . S
O420 C423 1.247 . S
O421 Zn415 2.036 1_545 S
O421 C423 1.258 . S
C422 O416 1.247 . S
C422 O417 1.258 . S
C423 O420 1.247 . S
C423 O421 1.258 . S
C424 O426 1.247 . S
C424 O428 1.258 . S
C425 O432 1.247 . S
C425 O433 1.258 . S
O426 C424 1.247 . S
O426 Zn427 2.028 . S
Zn427 O426 2.028 . S
Zn427 O431 2.035 . S
Zn427 O433 2.035 1_554 S
Zn427 O434 2.028 1_554 S
O428 C424 1.258 . S
O428 Zn429 2.035 . S
Zn429 O428 2.035 . S
Zn429 O430 2.028 . S
Zn429 O432 2.028 1_554 S
Zn429 O435 2.035 1_554 S
O430 Zn429 2.028 . S
O430 C436 1.247 . S
O431 Zn427 2.035 . S
O431 C436 1.258 . S
O432 C425 1.247 . S
O432 Zn429 2.028 1_556 S
O433 C425 1.258 . S
O433 Zn427 2.035 1_556 S
O434 Zn427 2.028 1_556 S
O434 C437 1.247 . S
O435 Zn429 2.035 1_556 S
O435 C437 1.258 . S
C436 O430 1.247 . S
C436 O431 1.258 . S
C437 O434 1.247 . S
C437 O435 1.258 . S
C438 O440 1.247 . S
C438 O442 1.258 . S
C439 O446 1.247 . S
C439 O447 1.258 . S
O440 C438 1.247 . S
O440 Zn441 2.028 . S
Zn441 O440 2.028 . S
Zn441 O445 2.035 . S
Zn441 O447 2.035 1_554 S
Zn441 O448 2.028 1_554 S
O442 C438 1.258 . S
O442 Zn443 2.035 . S
Zn443 O442 2.035 . S
Zn443 O444 2.028 . S
Zn443 O446 2.028 1_554 S
Zn443 O449 2.035 1_554 S
O444 Zn443 2.028 . S
O444 C450 1.247 . S
O445 Zn441 2.035 . S
O445 C450 1.258 . S
O446 C439 1.247 . S
O446 Zn443 2.028 1_556 S
O447 C439 1.258 . S
O447 Zn441 2.035 1_556 S
O448 Zn441 2.028 1_556 S
O448 C451 1.247 . S
O449 Zn443 2.035 1_556 S
O449 C451 1.258 . S
C450 O444 1.247 . S
C450 O445 1.258 . S
C451 O448 1.247 . S
C451 O449 1.258 . S
C452 O454 1.247 . S
C452 O456 1.258 . S
C453 O460 1.247 . S
C453 O461 1.258 . S
O454 C452 1.247 . S
O454 Zn455 2.028 1_556 S
Zn455 O454 2.028 1_554 S
Zn455 O459 2.035 1_554 S
Zn455 O461 2.035 . S
Zn455 O462 2.028 . S
O456 C452 1.258 . S
O456 Zn457 2.035 1_556 S
Zn457 O456 2.035 1_554 S
Zn457 O458 2.028 1_554 S
Zn457 O460 2.028 . S
Zn457 O463 2.035 . S
O458 Zn457 2.028 1_556 S
O458 C464 1.247 . S
O459 Zn455 2.035 1_556 S
O459 C464 1.258 . S
O460 C453 1.247 . S
O460 Zn457 2.028 . S
O461 C453 1.258 . S
O461 Zn455 2.035 . S
O462 Zn455 2.028 . S
O462 C465 1.247 . S
O463 Zn457 2.035 . S
O463 C465 1.258 . S
C464 O458 1.247 . S
C464 O459 1.258 . S
C465 O462 1.247 . S
C465 O463 1.258 . S
C466 O468 1.247 . S
C466 O470 1.258 . S
C467 O474 1.247 . S
C467 O475 1.258 . S
O468 C466 1.247 . S
O468 Zn469 2.028 . S
Zn469 O468 2.028 . S
Zn469 O473 2.035 . S
Zn469 O475 2.035 1_554 S
Zn469 O476 2.028 1_554 S
O470 C466 1.258 . S
O470 Zn471 2.035 . S
Zn471 O470 2.035 . S
Zn471 O472 2.028 . S
Zn471 O474 2.028 1_554 S
Zn471 O477 2.035 1_554 S
O472 Zn471 2.028 . S
O472 C478 1.247 . S
O473 Zn469 2.035 . S
O473 C478 1.258 . S
O474 C467 1.247 . S
O474 Zn471 2.028 1_556 S
O475 C467 1.258 . S
O475 Zn469 2.035 1_556 S
O476 Zn469 2.028 1_556 S
O476 C479 1.247 . S
O477 Zn471 2.035 1_556 S
O477 C479 1.258 . S
C478 O472 1.247 . S
C478 O473 1.258 . S
C479 O476 1.247 . S
C479 O477 1.258 . S
H480 C488 0.950 . S
H481 C493 0.950 . S
H482 C490 0.950 . S
H483 C492 0.950 . S
H484 C494 0.950 . S
H485 C496 0.950 . S
H486 C498 0.950 . S
H487 C499 0.950 . S
C488 H480 0.950 . S
C488 C489 1.386 . S
C488 C490 1.391 . S
C489 C488 1.386 . S
C489 C493 1.393 . S
C490 H482 0.950 . S
C490 C488 1.391 . S
C490 C491 1.400 . S
C491 C490 1.400 . S
C491 C492 1.398 . S
C491 C497 1.491 . S
C492 H483 0.950 . S
C492 C491 1.398 . S
C492 C493 1.391 . S
C493 H481 0.950 . S
C493 C489 1.393 . S
C493 C492 1.391 . S
C494 H484 0.950 . S
C494 C495 1.386 . S
C494 C496 1.391 . S
C495 C494 1.386 . S
C495 C499 1.393 . S
C496 H485 0.950 . S
C496 C494 1.391 . S
C496 C497 1.400 . S
C497 C491 1.491 . S
C497 C496 1.400 . S
C497 C498 1.398 . S
C498 H486 0.950 . S
C498 C497 1.398 . S
C498 C499 1.391 . S
C499 H487 0.950 . S
C499 C495 1.393 . S
C499 C498 1.391 . S
H500 C508 0.950 . S
H501 C513 0.950 . S
H502 C510 0.950 . S
H503 C512 0.950 . S
H504 C514 0.950 . S
H505 C516 0.950 . S
H506 C518 0.950 . S
H507 C519 0.950 . S
C508 H500 0.950 . S
C508 C509 1.386 . S
C508 C510 1.391 . S
C509 C508 1.386 . S
C509 C513 1.393 . S
C510 H502 0.950 . S
C510 C508 1.391 . S
C510 C511 1.400 . S
C511 C510 1.400 . S
C511 C512 1.398 . S
C511 C517 1.491 . S
C512 H503 0.950 . S
C512 C511 1.398 . S
C512 C513 1.391 . S
C513 H501 0.950 . S
C513 C509 1.393 . S
C513 C512 1.391 . S
C514 H504 0.950 . S
C514 C515 1.386 . S
C514 C516 1.391 . S
C515 C514 1.386 . S
C515 C519 1.393 . S
C516 H505 0.950 . S
C516 C514 1.391 . S
C516 C517 1.400 . S
C517 C511 1.491 . S
C517 C516 1.400 . S
C517 C518 1.398 . S
C518 H506 0.950 . S
C518 C517 1.398 . S
C518 C519 1.391 . S
C519 H507 0.950 . S
C519 C515 1.393 . S
C519 C518 1.391 . S
H520 C528 0.950 . S
H521 C533 0.950 . S
H522 C530 0.950 . S
H523 C532 0.950 . S
H524 C534 0.950 . S
H525 C536 0.950 . S
H526 C538 0.950 . S
H527 C539 0.950 . S
C528 H520 0.950 . S
C528 C529 1.386 . S
C528 C530 1.391 . S
C529 C528 1.386 . S
C529 C533 1.393 . S
C530 H522 0.950 . S
C530 C528 1.391 . S
C530 C531 1.400 . S
C531 C530 1.400 . S
C531 C532 1.398 . S
C531 C537 1.491 . S
C532 H523 0.950 . S
C532 C531 1.398 . S
C532 C533 1.391 . S
C533 H521 0.950 . S
C533 C529 1.393 . S
C533 C532 1.391 . S
C534 H524 0.950 . S
C534 C535 1.386 . S
C534 C536 1.391 . S
C535 C534 1.386 . S
C535 C539 1.393 . S
C536 H525 0.950 . S
C536 C534 1.391 . S
C536 C537 1.400 . S
C537 C531 1.491 . S
C537 C536 1.400 . S
C537 C538 1.398 . S
C538 H526 0.950 . S
C538 C537 1.398 . S
C538 C539 1.391 . S
C539 H527 0.950 . S
C539 C535 1.393 . S
C539 C538 1.391 . S
H540 C548 0.950 . S
H541 C553 0.950 . S
H542 C550 0.950 . S
H543 C552 0.950 . S
H544 C554 0.950 . S
H545 C556 0.950 . S
H546 C558 0.950 . S
H547 C559 0.950 . S
C548 H540 0.950 . S
C548 C549 1.386 . S
C548 C550 1.391 . S
C549 C548 1.386 . S
C549 C553 1.393 . S
C550 H542 0.950 . S
C550 C548 1.391 . S
C550 C551 1.400 . S
C551 C550 1.400 . S
C551 C552 1.398 . S
C551 C557 1.491 . S
C552 H543 0.950 . S
C552 C551 1.398 . S
C552 C553 1.391 . S
C553 H541 0.950 . S
C553 C549 1.393 . S
C553 C552 1.391 . S
C554 H544 0.950 . S
C554 C555 1.386 . S
C554 C556 1.391 . S
C555 C554 1.386 . S
C555 C559 1.393 . S
C556 H545 0.950 . S
C556 C554 1.391 . S
C556 C557 1.400 . S
C557 C551 1.491 . S
C557 C556 1.400 . S
C557 C558 1.398 . S
C558 H546 0.950 . S
C558 C557 1.398 . S
C558 C559 1.391 . S
C559 H547 0.950 . S
C559 C555 1.393 . S
C559 C558 1.391 . S
H560 C568 0.950 . S
H561 C573 0.950 . S
H562 C570 0.950 . S
H563 C572 0.950 . S
H564 C574 0.950 . S
H565 C576 0.950 . S
H566 C578 0.950 . S
H567 C579 0.950 . S
C568 H560 0.950 . S
C568 C569 1.386 . S
C568 C570 1.391 . S
C569 C568 1.386 . S
C569 C573 1.393 . S
C570 H562 0.950 . S
C570 C568 1.391 . S
C570 C571 1.400 . S
C571 C570 1.400 . S
C571 C572 1.398 . S
C571 C577 1.491 . S
C572 H563 0.950 . S
C572 C571 1.398 . S
C572 C573 1.391 . S
C573 H561 0.950 . S
C573 C569 1.393 . S
C573 C572 1.391 . S
C574 H564 0.950 . S
C574 C575 1.386 . S
C574 C576 1.391 . S
C575 C574 1.386 . S
C575 C579 1.393 . S
C576 H565 0.950 . S
C576 C574 1.391 . S
C576 C577 1.400 . S
C577 C571 1.491 . S
C577 C576 1.400 . S
C577 C578 1.398 . S
C578 H566 0.950 . S
C578 C577 1.398 . S
C578 C579 1.391 . S
C579 H567 0.950 . S
C579 C575 1.393 . S
C579 C578 1.391 . S
H580 C588 0.950 . S
H581 C593 0.950 . S
H582 C590 0.950 . S
H583 C592 0.950 . S
H584 C594 0.950 . S
H585 C596 0.950 . S
H586 C598 0.950 . S
H587 C599 0.950 . S
C588 H580 0.950 . S
C588 C589 1.386 . S
C588 C590 1.391 . S
C589 C588 1.386 . S
C589 C593 1.393 . S
C590 H582 0.950 . S
C590 C588 1.391 . S
C590 C591 1.400 . S
C591 C590 1.400 . S
C591 C592 1.398 . S
C591 C597 1.491 . S
C592 H583 0.950 . S
C592 C591 1.398 . S
C592 C593 1.391 . S
C593 H581 0.950 . S
C593 C589 1.393 . S
C593 C592 1.391 . S
C594 H584 0.950 . S
C594 C595 1.386 . S
C594 C596 1.391 . S
C595 C594 1.386 . S
C595 C599 1.393 . S
C596 H585 0.950 . S
C596 C594 1.391 . S
C596 C597 1.400 . S
C597 C591 1.491 . S
C597 C596 1.400 . S
C597 C598 1.398 . S
C598 H586 0.950 . S
C598 C597 1.398 . S
C598 C599 1.391 . S
C599 H587 0.950 . S
C599 C595 1.393 . S
C599 C598 1.391 . S
H600 C608 0.950 . S
H601 C613 0.950 . S
H602 C610 0.950 . S
H603 C612 0.950 . S
H604 C614 0.950 . S
H605 C616 0.950 . S
H606 C618 0.950 . S
H607 C619 0.950 . S
C608 H600 0.950 . S
C608 C609 1.386 . S
C608 C610 1.391 . S
C609 C608 1.386 . S
C609 C613 1.393 . S
C610 H602 0.950 . S
C610 C608 1.391 . S
C610 C611 1.400 . S
C611 C610 1.400 . S
C611 C612 1.398 . S
C611 C617 1.491 . S
C612 H603 0.950 . S
C612 C611 1.398 . S
C612 C613 1.391 . S
C613 H601 0.950 . S
C613 C609 1.393 . S
C613 C612 1.391 . S
C614 H604 0.950 . S
C614 C615 1.386 . S
C614 C616 1.391 . S
C615 C614 1.386 . S
C615 C619 1.393 . S
C616 H605 0.950 . S
C616 C614 1.391 . S
C616 C617 1.400 . S
C617 C611 1.491 . S
C617 C616 1.400 . S
C617 C618 1.398 . S
C618 H606 0.950 . S
C618 C617 1.398 . S
C618 C619 1.391 . S
C619 H607 0.950 . S
C619 C615 1.393 . S
C619 C618 1.391 . S
H620 C628 0.950 . S
H621 C633 0.950 . S
H622 C630 0.950 . S
H623 C632 0.950 . S
H624 C634 0.950 . S
H625 C636 0.950 . S
H626 C638 0.950 . S
H627 C639 0.950 . S
C628 H620 0.950 . S
C628 C629 1.386 . S
C628 C630 1.391 . S
C629 C628 1.386 . S
C629 C633 1.393 . S
C630 H622 0.950 . S
C630 C628 1.391 . S
C630 C631 1.400 . S
C631 C630 1.400 . S
C631 C632 1.398 . S
C631 C637 1.491 . S
C632 H623 0.950 . S
C632 C631 1.398 . S
C632 C633 1.391 . S
C633 H621 0.950 . S
C633 C629 1.393 . S
C633 C632 1.391 . S
C634 H624 0.950 . S
C634 C635 1.386 . S
C634 C636 1.391 . S
C635 C634 1.386 . S
C635 C639 1.393 . S
C636 H625 0.950 . S
C636 C634 1.391 . S
C636 C637 1.400 . S
C637 C631 1.491 . S
C637 C636 1.400 . S
C637 C638 1.398 . S
C638 H626 0.950 . S
C638 C637 1.398 . S
C638 C639 1.391 . S
C639 H627 0.950 . S
C639 C635 1.393 . S
C639 C638 1.391 . S
H640 C648 0.950 . S
H641 C653 0.950 . S
H642 C650 0.950 . S
H643 C652 0.950 . S
H644 C654 0.950 . S
H645 C656 0.950 . S
H646 C658 0.950 . S
H647 C659 0.950 . S
C648 H640 0.950 . S
C648 C649 1.386 . S
C648 C650 1.391 . S
C649 C648 1.386 . S
C649 C653 1.393 . S
C650 H642 0.950 . S
C650 C648 1.391 . S
C650 C651 1.400 . S
C651 C650 1.400 . S
C651 C652 1.398 . S
C651 C657 1.491 . S
C652 H643 0.950 . S
C652 C651 1.398 . S
C652 C653 1.391 . S
C653 H641 0.950 . S
C653 C649 1.393 . S
C653 C652 1.391 . S
C654 H644 0.950 . S
C654 C655 1.386 . S
C654 C656 1.391 . S
C655 C654 1.386 . S
C655 C659 1.393 . S
C656 H645 0.950 . S
C656 C654 1.391 . S
C656 C657 1.400 . S
C657 C651 1.491 . S
C657 C656 1.400 . S
C657 C658 1.398 . S
C658 H646 0.950 . S
C658 C657 1.398 . S
C658 C659 1.391 . S
C659 H647 0.950 . S
C659 C655 1.393 . S
C659 C658 1.391 . S
H660 C668 0.950 . S
H661 C673 0.950 . S
H662 C670 0.950 . S
H663 C672 0.950 . S
H664 C674 0.950 . S
H665 C676 0.950 . S
H666 C678 0.950 . S
H667 C679 0.950 . S
C668 H660 0.950 . S
C668 C669 1.386 . S
C668 C670 1.391 . S
C669 C668 1.386 . S
C669 C673 1.393 . S
C670 H662 0.950 . S
C670 C668 1.391 . S
C670 C671 1.400 . S
C671 C670 1.400 . S
C671 C672 1.398 . S
C671 C677 1.491 . S
C672 H663 0.950 . S
C672 C671 1.398 . S
C672 C673 1.391 . S
C673 H661 0.950 . S
C673 C669 1.393 . S
C673 C672 1.391 . S
C674 H664 0.950 . S
C674 C675 1.386 . S
C674 C676 1.391 . S
C675 C674 1.386 . S
C675 C679 1.393 . S
C676 H665 0.950 . S
C676 C674 1.391 . S
C676 C677 1.400 . S
C677 C671 1.491 . S
C677 C676 1.400 . S
C677 C678 1.398 . S
C678 H666 0.950 . S
C678 C677 1.398 . S
C678 C679 1.391 . S
C679 H667 0.950 . S
C679 C675 1.393 . S
C679 C678 1.391 . S
H680 C688 0.950 . S
H681 C693 0.950 . S
H682 C690 0.950 . S
H683 C692 0.950 . S
H684 C694 0.950 . S
H685 C696 0.950 . S
H686 C698 0.950 . S
H687 C699 0.950 . S
C688 H680 0.950 . S
C688 C689 1.386 . S
C688 C690 1.391 . S
C689 C688 1.386 . S
C689 C693 1.393 . S
C690 H682 0.950 . S
C690 C688 1.391 . S
C690 C691 1.400 . S
C691 C690 1.400 . S
C691 C692 1.398 . S
C691 C697 1.491 . S
C692 H683 0.950 . S
C692 C691 1.398 . S
C692 C693 1.391 . S
C693 H681 0.950 . S
C693 C689 1.393 . S
C693 C692 1.391 . S
C694 H684 0.950 . S
C694 C695 1.386 . S
C694 C696 1.391 . S
C695 C694 1.386 . S
C695 C699 1.393 . S
C696 H685 0.950 . S
C696 C694 1.391 . S
C696 C697 1.400 . S
C697 C691 1.491 . S
C697 C696 1.400 . S
C697 C698 1.398 . S
C698 H686 0.950 . S
C698 C697 1.398 . S
C698 C699 1.391 . S
C699 H687 0.950 . S
C699 C695 1.393 . S
C699 C698 1.391 . S
H700 C708 0.950 . S
H701 C713 0.950 . S
H702 C710 0.950 . S
H703 C712 0.950 . S
H704 C714 0.950 . S
H705 C716 0.950 . S
H706 C718 0.950 . S
H707 C719 0.950 . S
C708 H700 0.950 . S
C708 C709 1.386 . S
C708 C710 1.391 . S
C709 C708 1.386 . S
C709 C713 1.393 . S
C710 H702 0.950 . S
C710 C708 1.391 . S
C710 C711 1.400 . S
C711 C710 1.400 . S
C711 C712 1.398 . S
C711 C717 1.491 . S
C712 H703 0.950 . S
C712 C711 1.398 . S
C712 C713 1.391 . S
C713 H701 0.950 . S
C713 C709 1.393 . S
C713 C712 1.391 . S
C714 H704 0.950 . S
C714 C715 1.386 . S
C714 C716 1.391 . S
C715 C714 1.386 . S
C715 C719 1.393 . S
C716 H705 0.950 . S
C716 C714 1.391 . S
C716 C717 1.400 . S
C717 C711 1.491 . S
C717 C716 1.400 . S
C717 C718 1.398 . S
C718 H706 0.950 . S
C718 C717 1.398 . S
C718 C719 1.391 . S
C719 H707 0.950 . S
C719 C715 1.393 . S
C719 C718 1.391 . S
H720 C728 0.950 . S
H721 C733 0.950 . S
H722 C730 0.950 . S
H723 C732 0.950 . S
H724 C734 0.950 . S
H725 C736 0.950 . S
H726 C738 0.950 . S
H727 C739 0.950 . S
C728 H720 0.950 . S
C728 C729 1.386 . S
C728 C730 1.391 . S
C729 C728 1.386 . S
C729 C733 1.393 . S
C730 H722 0.950 . S
C730 C728 1.391 . S
C730 C731 1.400 . S
C731 C730 1.400 . S
C731 C732 1.398 . S
C731 C737 1.491 . S
C732 H723 0.950 . S
C732 C731 1.398 . S
C732 C733 1.391 . S
C733 H721 0.950 . S
C733 C729 1.393 . S
C733 C732 1.391 . S
C734 H724 0.950 . S
C734 C735 1.386 . S
C734 C736 1.391 . S
C735 C734 1.386 . S
C735 C739 1.393 . S
C736 H725 0.950 . S
C736 C734 1.391 . S
C736 C737 1.400 . S
C737 C731 1.491 . S
C737 C736 1.400 . S
C737 C738 1.398 . S
C738 H726 0.950 . S
C738 C737 1.398 . S
C738 C739 1.391 . S
C739 H727 0.950 . S
C739 C735 1.393 . S
C739 C738 1.391 . S
H740 C748 0.950 . S
H741 C753 0.950 . S
H742 C750 0.950 . S
H743 C752 0.950 . S
H744 C754 0.950 . S
H745 C756 0.950 . S
H746 C758 0.950 . S
H747 C759 0.950 . S
C748 H740 0.950 . S
C748 C749 1.386 . S
C748 C750 1.391 . S
C749 C748 1.386 . S
C749 C753 1.393 . S
C750 H742 0.950 . S
C750 C748 1.391 . S
C750 C751 1.400 . S
C751 C750 1.400 . S
C751 C752 1.398 . S
C751 C757 1.491 . S
C752 H743 0.950 . S
C752 C751 1.398 . S
C752 C753 1.391 . S
C753 H741 0.950 . S
C753 C749 1.393 . S
C753 C752 1.391 . S
C754 H744 0.950 . S
C754 C755 1.386 . S
C754 C756 1.391 . S
C755 C754 1.386 . S
C755 C759 1.393 . S
C756 H745 0.950 . S
C756 C754 1.391 . S
C756 C757 1.400 . S
C757 C751 1.491 . S
C757 C756 1.400 . S
C757 C758 1.398 . S
C758 H746 0.950 . S
C758 C757 1.398 . S
C758 C759 1.391 . S
C759 H747 0.950 . S
C759 C755 1.393 . S
C759 C758 1.391 . S
H760 C768 0.950 . S
H761 C773 0.950 . S
H762 C770 0.950 . S
H763 C772 0.950 . S
H764 C774 0.950 . S
H765 C776 0.950 . S
H766 C778 0.950 . S
H767 C779 0.950 . S
C768 H760 0.950 . S
C768 C769 1.386 . S
C768 C770 1.391 . S
C769 C768 1.386 . S
C769 C773 1.393 . S
C770 H762 0.950 . S
C770 C768 1.391 . S
C770 C771 1.400 . S
C771 C770 1.400 . S
C771 C772 1.398 . S
C771 C777 1.491 . S
C772 H763 0.950 . S
C772 C771 1.398 . S
C772 C773 1.391 . S
C773 H761 0.950 . S
C773 C769 1.393 . S
C773 C772 1.391 . S
C774 H764 0.950 . S
C774 C775 1.386 . S
C774 C776 1.391 . S
C775 C774 1.386 . S
C775 C779 1.393 . S
C776 H765 0.950 . S
C776 C774 1.391 . S
C776 C777 1.400 . S
C777 C771 1.491 . S
C777 C776 1.400 . S
C777 C778 1.398 . S
C778 H766 0.950 . S
C778 C777 1.398 . S
C778 C779 1.391 . S
C779 H767 0.950 . S
C779 C775 1.393 . S
C779 C778 1.391 . S
H780 C788 0.950 . S
H781 C793 0.950 . S
H782 C790 0.950 . S
H783 C792 0.950 . S
H784 C794 0.950 . S
H785 C796 0.950 . S
H786 C798 0.950 . S
H787 C799 0.950 . S
C788 H780 0.950 . S
C788 C789 1.386 . S
C788 C790 1.391 . S
C789 C788 1.386 . S
C789 C793 1.393 . S
C790 H782 0.950 . S
C790 C788 1.391 . S
C790 C791 1.400 . S
C791 C790 1.400 . S
C791 C792 1.398 . S
C791 C797 1.491 . S
C792 H783 0.950 . S
C792 C791 1.398 . S
C792 C793 1.391 . S
C793 H781 0.950 . S
C793 C789 1.393 . S
C793 C792 1.391 . S
C794 H784 0.950 . S
C794 C795 1.386 . S
C794 C796 1.391 . S
C795 C794 1.386 . S
C795 C799 1.393 . S
C796 H785 0.950 . S
C796 C794 1.391 . S
C796 C797 1.400 . S
C797 C791 1.491 . S
C797 C796 1.400 . S
C797 C798 1.398 . S
C798 H786 0.950 . S
C798 C797 1.398 . S
C798 C799 1.391 . S
C799 H787 0.950 . S
C799 C795 1.393 . S
C799 C798 1.391 . S
H800 C808 0.950 . S
H801 C813 0.950 . S
H802 C810 0.950 . S
H803 C812 0.950 . S
H804 C814 0.950 . S
H805 C816 0.950 . S
H806 C818 0.950 . S
H807 C819 0.950 . S
C808 H800 0.950 . S
C808 C809 1.386 . S
C808 C810 1.391 . S
C809 C808 1.386 . S
C809 C813 1.393 . S
C810 H802 0.950 . S
C810 C808 1.391 . S
C810 C811 1.400 . S
C811 C810 1.400 . S
C811 C812 1.398 . S
C811 C817 1.491 . S
C812 H803 0.950 . S
C812 C811 1.398 . S
C812 C813 1.391 . S
C813 H801 0.950 . S
C813 C809 1.393 . S
C813 C812 1.391 . S
C814 H804 0.950 . S
C814 C815 1.386 . S
C814 C816 1.391 . S
C815 C814 1.386 . S
C815 C819 1.393 . S
C816 H805 0.950 . S
C816 C814 1.391 . S
C816 C817 1.400 . S
C817 C811 1.491 . S
C817 C816 1.400 . S
C817 C818 1.398 . S
C818 H806 0.950 . S
C818 C817 1.398 . S
C818 C819 1.391 . S
C819 H807 0.950 . S
C819 C815 1.393 . S
C819 C818 1.391 . S
H820 C828 0.950 . S
H821 C833 0.950 . S
H822 C830 0.950 . S
H823 C832 0.950 . S
H824 C834 0.950 . S
H825 C836 0.950 . S
H826 C838 0.950 . S
H827 C839 0.950 . S
C828 H820 0.950 . S
C828 C829 1.386 . S
C828 C830 1.391 . S
C829 C828 1.386 . S
C829 C833 1.393 . S
C830 H822 0.950 . S
C830 C828 1.391 . S
C830 C831 1.400 . S
C831 C830 1.400 . S
C831 C832 1.398 . S
C831 C837 1.491 . S
C832 H823 0.950 . S
C832 C831 1.398 . S
C832 C833 1.391 . S
C833 H821 0.950 . S
C833 C829 1.393 . S
C833 C832 1.391 . S
C834 H824 0.950 . S
C834 C835 1.386 . S
C834 C836 1.391 . S
C835 C834 1.386 . S
C835 C839 1.393 . S
C836 H825 0.950 . S
C836 C834 1.391 . S
C836 C837 1.400 . S
C837 C831 1.491 . S
C837 C836 1.400 . S
C837 C838 1.398 . S
C838 H826 0.950 . S
C838 C837 1.398 . S
C838 C839 1.391 . S
C839 H827 0.950 . S
C839 C835 1.393 . S
C839 C838 1.391 . S
H840 C848 0.950 . S
H841 C853 0.950 . S
H842 C850 0.950 . S
H843 C852 0.950 . S
H844 C854 0.950 . S
H845 C856 0.950 . S
H846 C858 0.950 . S
H847 C859 0.950 . S
C848 H840 0.950 . S
C848 C849 1.386 . S
C848 C850 1.391 . S
C849 C848 1.386 . S
C849 C853 1.393 . S
C850 H842 0.950 . S
C850 C848 1.391 . S
C850 C851 1.400 . S
C851 C850 1.400 . S
C851 C852 1.398 . S
C851 C857 1.491 . S
C852 H843 0.950 . S
C852 C851 1.398 . S
C852 C853 1.391 . S
C853 H841 0.950 . S
C853 C849 1.393 . S
C853 C852 1.391 . S
C854 H844 0.950 . S
C854 C855 1.386 . S
C854 C856 1.391 . S
C855 C854 1.386 . S
C855 C859 1.393 . S
C856 H845 0.950 . S
C856 C854 1.391 . S
C856 C857 1.400 . S
C857 C851 1.491 . S
C857 C856 1.400 . S
C857 C858 1.398 . S
C858 H846 0.950 . S
C858 C857 1.398 . S
C858 C859 1.391 . S
C859 H847 0.950 . S
C859 C855 1.393 . S
C859 C858 1.391 . S
H860 C868 0.950 . S
H861 C873 0.950 . S
H862 C870 0.950 . S
H863 C872 0.950 . S
H864 C874 0.950 . S
H865 C876 0.950 . S
H866 C878 0.950 . S
H867 C879 0.950 . S
C868 H860 0.950 . S
C868 C869 1.386 . S
C868 C870 1.391 . S
C869 C868 1.386 . S
C869 C873 1.393 . S
C870 H862 0.950 . S
C870 C868 1.391 . S
C870 C871 1.400 . S
C871 C870 1.400 . S
C871 C872 1.398 . S
C871 C877 1.491 . S
C872 H863 0.950 . S
C872 C871 1.398 . S
C872 C873 1.391 . S
C873 H861 0.950 . S
C873 C869 1.393 . S
C873 C872 1.391 . S
C874 H864 0.950 . S
C874 C875 1.386 . S
C874 C876 1.391 . S
C875 C874 1.386 . S
C875 C879 1.393 . S
C876 H865 0.950 . S
C876 C874 1.391 . S
C876 C877 1.400 . S
C877 C871 1.491 . S
C877 C876 1.400 . S
C877 C878 1.398 . S
C878 H866 0.950 . S
C878 C877 1.398 . S
C878 C879 1.391 . S
C879 H867 0.950 . S
C879 C875 1.393 . S
C879 C878 1.391 . S
H880 C888 0.950 . S
H881 C893 0.950 . S
H882 C890 0.950 . S
H883 C892 0.950 . S
H884 C894 0.950 . S
H885 C896 0.950 . S
H886 C898 0.950 . S
H887 C899 0.950 . S
C888 H880 0.950 . S
C888 C889 1.386 . S
C888 C890 1.391 . S
C889 C888 1.386 . S
C889 C893 1.393 . S
C890 H882 0.950 . S
C890 C888 1.391 . S
C890 C891 1.400 . S
C891 C890 1.400 . S
C891 C892 1.398 . S
C891 C897 1.491 . S
C892 H883 0.950 . S
C892 C891 1.398 . S
C892 C893 1.391 . S
C893 H881 0.950 . S
C893 C889 1.393 . S
C893 C892 1.391 . S
C894 H884 0.950 . S
C894 C895 1.386 . S
C894 C896 1.391 . S
C895 C894 1.386 . S
C895 C899 1.393 . S
C896 H885 0.950 . S
C896 C894 1.391 . S
C896 C897 1.400 . S
C897 C891 1.491 . S
C897 C896 1.400 . S
C897 C898 1.398 . S
C898 H886 0.950 . S
C898 C897 1.398 . S
C898 C899 1.391 . S
C899 H887 0.950 . S
C899 C895 1.393 . S
C899 C898 1.391 . S
H900 C908 0.950 . S
H901 C913 0.950 . S
H902 C910 0.950 . S
H903 C912 0.950 . S
H904 C914 0.950 . S
H905 C916 0.950 . S
H906 C918 0.950 . S
H907 C919 0.950 . S
C908 H900 0.950 . S
C908 C909 1.386 . S
C908 C910 1.391 . S
C909 C908 1.386 . S
C909 C913 1.393 . S
C910 H902 0.950 . S
C910 C908 1.391 . S
C910 C911 1.400 . S
C911 C910 1.400 . S
C911 C912 1.398 . S
C911 C917 1.491 . S
C912 H903 0.950 . S
C912 C911 1.398 . S
C912 C913 1.391 . S
C913 H901 0.950 . S
C913 C909 1.393 . S
C913 C912 1.391 . S
C914 H904 0.950 . S
C914 C915 1.386 . S
C914 C916 1.391 . S
C915 C914 1.386 . S
C915 C919 1.393 . S
C916 H905 0.950 . S
C916 C914 1.391 . S
C916 C917 1.400 . S
C917 C911 1.491 . S
C917 C916 1.400 . S
C917 C918 1.398 . S
C918 H906 0.950 . S
C918 C917 1.398 . S
C918 C919 1.391 . S
C919 H907 0.950 . S
C919 C915 1.393 . S
C919 C918 1.391 . S
H920 C928 0.950 . S
H921 C933 0.950 . S
H922 C930 0.950 . S
H923 C932 0.950 . S
H924 C934 0.950 . S
H925 C936 0.950 . S
H926 C938 0.950 . S
H927 C939 0.950 . S
C928 H920 0.950 . S
C928 C929 1.386 . S
C928 C930 1.391 . S
C929 C928 1.386 . S
C929 C933 1.393 . S
C930 H922 0.950 . S
C930 C928 1.391 . S
C930 C931 1.400 . S
C931 C930 1.400 . S
C931 C932 1.398 . S
C931 C937 1.491 . S
C932 H923 0.950 . S
C932 C931 1.398 . S
C932 C933 1.391 . S
C933 H921 0.950 . S
C933 C929 1.393 . S
C933 C932 1.391 . S
C934 H924 0.950 . S
C934 C935 1.386 . S
C934 C936 1.391 . S
C935 C934 1.386 . S
C935 C939 1.393 . S
C936 H925 0.950 . S
C936 C934 1.391 . S
C936 C937 1.400 . S
C937 C931 1.491 . S
C937 C936 1.400 . S
C937 C938 1.398 . S
C938 H926 0.950 . S
C938 C937 1.398 . S
C938 C939 1.391 . S
C939 H927 0.950 . S
C939 C935 1.393 . S
C939 C938 1.391 . S
H940 C948 0.950 . S
H941 C953 0.950 . S
H942 C950 0.950 . S
H943 C952 0.950 . S
H944 C954 0.950 . S
H945 C956 0.950 . S
H946 C958 0.950 . S
H947 C959 0.950 . S
C948 H940 0.950 . S
C948 C949 1.386 . S
C948 C950 1.391 . S
C949 C948 1.386 . S
C949 C953 1.393 . S
C950 H942 0.950 . S
C950 C948 1.391 . S
C950 C951 1.400 . S
C951 C950 1.400 . S
C951 C952 1.398 . S
C951 C957 1.491 . S
C952 H943 0.950 . S
C952 C951 1.398 . S
C952 C953 1.391 . S
C953 H941 0.950 . S
C953 C949 1.393 . S
C953 C952 1.391 . S
C954 H944 0.950 . S
C954 C955 1.386 . S
C954 C956 1.391 . S
C955 C954 1.386 . S
C955 C959 1.393 . S
C956 H945 0.950 . S
C956 C954 1.391 . S
C956 C957 1.400 . S
C957 C951 1.491 . S
C957 C956 1.400 . S
C957 C958 1.398 . S
C958 H946 0.950 . S
C958 C957 1.398 . S
C958 C959 1.391 . S
C959 H947 0.950 . S
C959 C955 1.393 . S
C959 C958 1.391 . S
H960 C968 0.950 . S
H961 C973 0.950 . S
H962 C970 0.950 . S
H963 C972 0.950 . S
H964 C974 0.950 . S
H965 C976 0.950 . S
H966 C978 0.950 . S
H967 C979 0.950 . S
C968 H960 0.950 . S
C968 C969 1.386 . S
C968 C970 1.391 . S
C969 C968 1.386 . S
C969 C973 1.393 . S
C970 H962 0.950 . S
C970 C968 1.391 . S
C970 C971 1.400 . S
C971 C970 1.400 . S
C971 C972 1.398 . S
C971 C977 1.491 . S
C972 H963 0.950 . S
C972 C971 1.398 . S
C972 C973 1.391 . S
C973 H961 0.950 . S
C973 C969 1.393 . S
C973 C972 1.391 . S
C974 H964 0.950 . S
C974 C975 1.386 . S
C974 C976 1.391 . S
C975 C974 1.386 . S
C975 C979 1.393 . S
C976 H965 0.950 . S
C976 C974 1.391 . S
C976 C977 1.400 . S
C977 C971 1.491 . S
C977 C976 1.400 . S
C977 C978 1.398 . S
C978 H966 0.950 . S
C978 C977 1.398 . S
C978 C979 1.391 . S
C979 H967 0.950 . S
C979 C975 1.393 . S
C979 C978 1.391 . S
H980 C988 0.950 . S
H981 C993 0.950 . S
H982 C990 0.950 . S
H983 C992 0.950 . S
H984 C994 0.950 . S
H985 C996 0.950 . S
H986 C998 0.950 . S
H987 C999 0.950 . S
C988 H980 0.950 . S
C988 C989 1.386 . S
C988 C990 1.391 . S
C989 C988 1.386 . S
C989 C993 1.393 . S
C990 H982 0.950 . S
C990 C988 1.391 . S
C990 C991 1.400 . S
C991 C990 1.400 . S
C991 C992 1.398 . S
C991 C997 1.491 . S
C992 H983 0.950 . S
C992 C991 1.398 . S
C992 C993 1.391 . S
C993 H981 0.950 . S
C993 C989 1.393 . S
C993 C992 1.391 . S
C994 H984 0.950 . S
C994 C995 1.386 . S
C994 C996 1.391 . S
C995 C994 1.386 . S
C995 C999 1.393 . S
C996 H985 0.950 . S
C996 C994 1.391 . S
C996 C997 1.400 . S
C997 C991 1.491 . S
C997 C996 1.400 . S
C997 C998 1.398 . S
C998 H986 0.950 . S
C998 C997 1.398 . S
C998 C999 1.391 . S
C999 H987 0.950 . S
C999 C995 1.393 . S
C999 C998 1.391 . S
H1000 C1008 0.950 . S
H1001 C1013 0.950 . S
H1002 C1010 0.950 . S
H1003 C1012 0.950 . S
H1004 C1014 0.950 . S
H1005 C1016 0.950 . S
H1006 C1018 0.950 . S
H1007 C1019 0.950 . S
C1008 H1000 0.950 . S
C1008 C1009 1.386 . S
C1008 C1010 1.391 . S
C1009 C1008 1.386 . S
C1009 C1013 1.393 . S
C1010 H1002 0.950 . S
C1010 C1008 1.391 . S
C1010 C1011 1.400 . S
C1011 C1010 1.400 . S
C1011 C1012 1.398 . S
C1011 C1017 1.491 . S
C1012 H1003 0.950 . S
C1012 C1011 1.398 . S
C1012 C1013 1.391 . S
C1013 H1001 0.950 . S
C1013 C1009 1.393 . S
C1013 C1012 1.391 . S
C1014 H1004 0.950 . S
C1014 C1015 1.386 . S
C1014 C1016 1.391 . S
C1015 C1014 1.386 . S
C1015 C1019 1.393 . S
C1016 H1005 0.950 . S
C1016 C1014 1.391 . S
C1016 C1017 1.400 . S
C1017 C1011 1.491 . S
C1017 C1016 1.400 . S
C1017 C1018 1.398 . S
C1018 H1006 0.950 . S
C1018 C1017 1.398 . S
C1018 C1019 1.391 . S
C1019 H1007 0.950 . S
C1019 C1015 1.393 . S
C1019 C1018 1.391 . S
H1020 C1028 0.950 . S
H1021 C1033 0.950 . S
H1022 C1030 0.950 . S
H1023 C1032 0.950 . S
H1024 C1034 0.950 . S
H1025 C1036 0.950 . S
H1026 C1038 0.950 . S
H1027 C1039 0.950 . S
C1028 H1020 0.950 . S
C1028 C1029 1.386 . S
C1028 C1030 1.391 . S
C1029 C1028 1.386 . S
C1029 C1033 1.393 . S
C1030 H1022 0.950 . S
C1030 C1028 1.391 . S
C1030 C1031 1.400 . S
C1031 C1030 1.400 . S
C1031 C1032 1.398 . S
C1031 C1037 1.491 . S
C1032 H1023 0.950 . S
C1032 C1031 1.398 . S
C1032 C1033 1.391 . S
C1033 H1021 0.950 . S
C1033 C1029 1.393 . S
C1033 C1032 1.391 . S
C1034 H1024 0.950 . S
C1034 C1035 1.386 . S
C1034 C1036 1.391 . S
C1035 C1034 1.386 . S
C1035 C1039 1.393 . S
C1036 H1025 0.950 . S
C1036 C1034 1.391 . S
C1036 C1037 1.400 . S
C1037 C1031 1.491 . S
C1037 C1036 1.400 . S
C1037 C1038 1.398 . S
C1038 H1026 0.950 . S
C1038 C1037 1.398 . S
C1038 C1039 1.391 . S
C1039 H1027 0.950 . S
C1039 C1035 1.393 . S
C1039 C1038 1.391 . S
H1040 C1048 0.950 . S
H1041 C1053 0.950 . S
H1042 C1050 0.950 . S
H1043 C1052 0.950 . S
H1044 C1054 0.950 . S
H1045 C1056 0.950 . S
H1046 C1058 0.950 . S
H1047 C1059 0.950 . S
C1048 H1040 0.950 . S
C1048 C1049 1.386 . S
C1048 C1050 1.391 . S
C1049 C1048 1.386 . S
C1049 C1053 1.393 . S
C1050 H1042 0.950 . S
C1050 C1048 1.391 . S
C1050 C1051 1.400 . S
C1051 C1050 1.400 . S
C1051 C1052 1.398 . S
C1051 C1057 1.491 . S
C1052 H1043 0.950 . S
C1052 C1051 1.398 . S
C1052 C1053 1.391 . S
C1053 H1041 0.950 . S
C1053 C1049 1.393 . S
C1053 C1052 1.391 . S
C1054 H1044 0.950 . S
C1054 C1055 1.386 . S
C1054 C1056 1.391 . S
C1055 C1054 1.386 . S
C1055 C1059 1.393 . S
C1056 H1045 0.950 . S
C1056 C1054 1.391 . S
C1056 C1057 1.400 . S
C1057 C1051 1.491 . S
C1057 C1056 1.400 . S
C1057 C1058 1.398 . S
C1058 H1046 0.950 . S
C1058 C1057 1.398 . S
C1058 C1059 1.391 . S
C1059 H1047 0.950 . S
C1059 C1055 1.393 . S
C1059 C1058 1.391 . S
H1060 C1068 0.950 . S
H1061 C1073 0.950 . S
H1062 C1070 0.950 . S
H1063 C1072 0.950 . S
H1064 C1074 0.950 . S
H1065 C1076 0.950 . S
H1066 C1078 0.950 . S
H1067 C1079 0.950 . S
C1068 H1060 0.950 . S
C1068 C1069 1.386 . S
C1068 C1070 1.391 . S
C1069 C1068 1.386 . S
C1069 C1073 1.393 . S
C1070 H1062 0.950 . S
C1070 C1068 1.391 . S
C1070 C1071 1.400 . S
C1071 C1070 1.400 . S
C1071 C1072 1.398 . S
C1071 C1077 1.491 . S
C1072 H1063 0.950 . S
C1072 C1071 1.398 . S
C1072 C1073 1.391 . S
C1073 H1061 0.950 . S
C1073 C1069 1.393 . S
C1073 C1072 1.391 . S
C1074 H1064 0.950 . S
C1074 C1075 1.386 . S
C1074 C1076 1.391 . S
C1075 C1074 1.386 . S
C1075 C1079 1.393 . S
C1076 H1065 0.950 . S
C1076 C1074 1.391 . S
C1076 C1077 1.400 . S
C1077 C1071 1.491 . S
C1077 C1076 1.400 . S
C1077 C1078 1.398 . S
C1078 H1066 0.950 . S
C1078 C1077 1.398 . S
C1078 C1079 1.391 . S
C1079 H1067 0.950 . S
C1079 C1075 1.393 . S
C1079 C1078 1.391 . S
H1080 C1088 0.950 . S
H1081 C1093 0.950 . S
H1082 C1090 0.950 . S
H1083 C1092 0.950 . S
H1084 C1094 0.950 . S
H1085 C1096 0.950 . S
H1086 C1098 0.950 . S
H1087 C1099 0.950 . S
C1088 H1080 0.950 . S
C1088 C1089 1.386 . S
C1088 C1090 1.391 . S
C1089 C1088 1.386 . S
C1089 C1093 1.393 . S
C1090 H1082 0.950 . S
C1090 C1088 1.391 . S
C1090 C1091 1.400 . S
C1091 C1090 1.400 . S
C1091 C1092 1.398 . S
C1091 C1097 1.491 . S
C1092 H1083 0.950 . S
C1092 C1091 1.398 . S
C1092 C1093 1.391 . S
C1093 H1081 0.950 . S
C1093 C1089 1.393 . S
C1093 C1092 1.391 . S
C1094 H1084 0.950 . S
C1094 C1095 1.386 . S
C1094 C1096 1.391 . S
C1095 C1094 1.386 . S
C1095 C1099 1.393 . S
C1096 H1085 0.950 . S
C1096 C1094 1.391 . S
C1096 C1097 1.400 . S
C1097 C1091 1.491 . S
C1097 C1096 1.400 . S
C1097 C1098 1.398 . S
C1098 H1086 0.950 . S
C1098 C1097 1.398 . S
C1098 C1099 1.391 . S
C1099 H1087 0.950 . S
C1099 C1095 1.393 . S
C1099 C1098 1.391 . S
H1100 C1108 0.950 . S
H1101 C1113 0.950 . S
H1102 C1110 0.950 . S
H1103 C1112 0.950 . S
H1104 C1114 0.950 . S
H1105 C1116 0.950 . S
H1106 C1118 0.950 . S
H1107 C1119 0.950 . S
C1108 H1100 0.950 . S
C1108 C1109 1.386 . S
C1108 C1110 1.391 . S
C1109 C1108 1.386 . S
C1109 C1113 1.393 . S
C1110 H1102 0.950 . S
C1110 C1108 1.391 . S
C1110 C1111 1.400 . S
C1111 C1110 1.400 . S
C1111 C1112 1.398 . S
C1111 C1117 1.491 . S
C1112 H1103 0.950 . S
C1112 C1111 1.398 . S
C1112 C1113 1.391 . S
C1113 H1101 0.950 . S
C1113 C1109 1.393 . S
C1113 C1112 1.391 . S
C1114 H1104 0.950 . S
C1114 C1115 1.386 . S
C1114 C1116 1.391 . S
C1115 C1114 1.386 . S
C1115 C1119 1.393 . S
C1116 H1105 0.950 . S
C1116 C1114 1.391 . S
C1116 C1117 1.400 . S
C1117 C1111 1.491 . S
C1117 C1116 1.400 . S
C1117 C1118 1.398 . S
C1118 H1106 0.950 . S
C1118 C1117 1.398 . S
C1118 C1119 1.391 . S
C1119 H1107 0.950 . S
C1119 C1115 1.393 . S
C1119 C1118 1.391 . S
C495 C369 1.510 . S
C489 C15 1.517 . S
C515 C395 1.516 . S
C509 C68 1.514 . S
C535 C409 1.512 . S
C529 C107 1.516 . S
C555 C411 1.516 . S
C549 C160 1.515 . S
C569 C185 1.516 . S
C575 C408 1.510 . S
C595 C410 1.516 . S
C589 C252 1.515 . S
C615 C368 1.511 . S
C609 C277 1.516 . S
C635 C394 1.510 . S
C629 C330 1.515 . S
C655 C396 1.512 . S
C649 C323 1.518 . S
C675 C422 1.516 . S
C669 C192 1.515 . S
C695 C380 1.516 . S
C689 C245 1.516 . S
C715 C382 1.512 . S
C709 C284 1.514 . S
C735 C381 1.516 . S
C729 C61 1.516 . S
C755 C383 1.510 . S
C749 C114 1.516 . S
C775 C397 1.516 . S
C769 C153 1.515 . S
C795 C423 1.514 . S
C789 C22 1.515 . S
C815 C425 1.509 . S
C809 C337 1.519 . S
C829 C206 1.517 . S
C835 C451 1.511 . S
C849 C231 1.516 . S
C855 C464 1.519 . S
C869 C298 1.515 . S
C875 C467 1.518 . S
C889 C47 1.514 . S
C895 C465 1.509 . S
C909 C100 1.517 . S
C915 C466 1.512 . S
C929 C139 1.517 . S
C935 C424 1.511 . S
C955 C450 1.511 . S
C949 C8 1.511 . S
C975 C453 1.510 . S
C969 C1 1.513 . S
C989 C54 1.517 . S
C995 C478 1.507 . S
C1009 C93 1.515 . S
C1015 C436 1.512 . S
C1029 C146 1.516 . S
C1035 C438 1.512 . S
C1055 C437 1.511 . S
C1049 C199 1.519 . S
C1075 C439 1.515 . S
C1069 C238 1.519 . S
C1089 C291 1.517 . S
C1095 C452 1.518 . S
C1115 C479 1.510 . S
C1109 C344 1.516 . S
