# Generated by pormake.
# Topology nom, (4,4)-cn, num edge types: 1
# Building blocks:
#     Node 0, Type 0, BuildingBlock: GIZVER_clean_linker_0, # of connection points: 4
#     Node 1, Type 0, BuildingBlock: GIZVER_clean_linker_0, # of connection points: 4
#     Node 2, Type 0, BuildingBlock: GIZVER_clean_linker_0, # of connection points: 4
#     Node 3, Type 0, BuildingBlock: GIZVER_clean_linker_0, # of connection points: 4
#     Node 4, Type 0, BuildingBlock: GIZVER_clean_linker_0, # of connection points: 4
#     Node 5, Type 0, BuildingBlock: GIZVER_clean_linker_0, # of connection points: 4
#     Node 6, Type 1, BuildingBlock: AZAVOO_clean_sbu_0, # of connection points: 4
#     Node 7, Type 1, BuildingBlock: AZAVOO_clean_sbu_0, # of connection points: 4
#     Node 8, Type 1, BuildingBlock: AZAVOO_clean_sbu_0, # of connection points: 4
#     Node 9, Type 1, BuildingBlock: AZAVOO_clean_sbu_0, # of connection points: 4
#     Node 10, Type 1, BuildingBlock: AZAVOO_clean_sbu_0, # of connection points: 4
#     Node 11, Type 1, BuildingBlock: AZAVOO_clean_sbu_0, # of connection points: 4
#     Edge 12, Type (0, 1), BuildingBlock: ZUJKAS_clean_linker_0, # of connection points: 2
#     Edge 13, Type (0, 1), BuildingBlock: ZUJKAS_clean_linker_0, # of connection points: 2
#     Edge 14, Type (0, 1), BuildingBlock: ZUJKAS_clean_linker_0, # of connection points: 2
#     Edge 15, Type (0, 1), BuildingBlock: ZUJKAS_clean_linker_0, # of connection points: 2
#     Edge 16, Type (0, 1), BuildingBlock: ZUJKAS_clean_linker_0, # of connection points: 2
#     Edge 17, Type (0, 1), BuildingBlock: ZUJKAS_clean_linker_0, # of connection points: 2
#     Edge 18, Type (0, 1), BuildingBlock: ZUJKAS_clean_linker_0, # of connection points: 2
#     Edge 19, Type (0, 1), BuildingBlock: ZUJKAS_clean_linker_0, # of connection points: 2
#     Edge 20, Type (0, 1), BuildingBlock: ZUJKAS_clean_linker_0, # of connection points: 2
#     Edge 21, Type (0, 1), BuildingBlock: ZUJKAS_clean_linker_0, # of connection points: 2
#     Edge 22, Type (0, 1), BuildingBlock: ZUJKAS_clean_linker_0, # of connection points: 2
#     Edge 23, Type (0, 1), BuildingBlock: ZUJKAS_clean_linker_0, # of connection points: 2
#     Edge 24, Type (0, 1), BuildingBlock: ZUJKAS_clean_linker_0, # of connection points: 2
#     Edge 25, Type (0, 1), BuildingBlock: ZUJKAS_clean_linker_0, # of connection points: 2
#     Edge 26, Type (0, 1), BuildingBlock: ZUJKAS_clean_linker_0, # of connection points: 2
#     Edge 27, Type (0, 1), BuildingBlock: ZUJKAS_clean_linker_0, # of connection points: 2
#     Edge 28, Type (0, 1), BuildingBlock: ZUJKAS_clean_linker_0, # of connection points: 2
#     Edge 29, Type (0, 1), BuildingBlock: ZUJKAS_clean_linker_0, # of connection points: 2
#     Edge 30, Type (0, 1), BuildingBlock: ZUJKAS_clean_linker_0, # of connection points: 2
#     Edge 31, Type (0, 1), BuildingBlock: ZUJKAS_clean_linker_0, # of connection points: 2
#     Edge 32, Type (0, 1), BuildingBlock: ZUJKAS_clean_linker_0, # of connection points: 2
#     Edge 33, Type (0, 1), BuildingBlock: ZUJKAS_clean_linker_0, # of connection points: 2
#     Edge 34, Type (0, 1), BuildingBlock: ZUJKAS_clean_linker_0, # of connection points: 2
#     Edge 35, Type (0, 1), BuildingBlock: ZUJKAS_clean_linker_0, # of connection points: 2
# Relax obj value: 0.031
# Max RMSD: 0.158
# Mean RMSD: 0.104
data_MOF--net-nom--node1-AZAVOO_clean_sbu_0--node2-GIZVER_clean_linker_0--edge1-ZUJKAS_clean_linker_0
_symmetry_space_group_name_H-M    P1
_symmetry_Int_Tables_number       1
_symmetry_cell_setting            triclinic
loop_
_symmetry_equiv_pos_as_xyz
'x, y, z'
_cell_length_a     60.132337
_cell_length_b     60.651457
_cell_length_c     57.378348
_cell_angle_alpha  91.025761
_cell_angle_beta   91.049969
_cell_angle_gamma 120.03024
loop_
_atom_site_label
_atom_site_type_symbol
_atom_site_fract_x
_atom_site_fract_y
_atom_site_fract_z
_atom_type_partial_charge
H0 H 0.96986 0.54189 0.36549 0.0
H1 H 0.98504 0.54978 0.29207 0.0
H2 H 0.91391 0.48844 0.31545 0.0
H3 H 0.0034 0.58168 0.35143 0.0
H4 H 0.00649 0.58683 0.32091 0.0
H5 H 0.02339 0.5581 0.37067 0.0
H6 H 0.09429 0.5734 0.34036 0.0
H7 H 0.04033 0.58566 0.30085 0.0
C8 C 0.96437 0.53464 0.34766 0.0
C9 C 0.94026 0.51294 0.34278 0.0
C10 C 0.9808 0.54788 0.32945 0.0
C11 C 0.97299 0.53907 0.30621 0.0
C12 C 0.94876 0.51768 0.30119 0.0
C13 C 0.93292 0.50449 0.31953 0.0
C14 C 0.00476 0.57324 0.3345 0.0
C15 C 0.02861 0.57096 0.33526 0.0
C16 C 0.0357 0.56334 0.35579 0.0
C17 C 0.05927 0.56382 0.35757 0.0
C18 C 0.07541 0.57147 0.33848 0.0
C19 C 0.06892 0.57957 0.31804 0.0
C20 C 0.04525 0.5789 0.31638 0.0
H21 H 0.43536 0.97381 0.51508 0.0
H22 H 0.45259 0.99615 0.44382 0.0
H23 H 0.44484 0.92537 0.4656 0.0
H24 H 0.43033 0.00821 0.50095 0.0
H25 H 0.43113 0.01338 0.4704 0.0
H26 H 0.47162 0.02849 0.52515 0.0
H27 H 0.53059 0.09977 0.49991 0.0
H28 H 0.46861 0.04774 0.45366 0.0
C29 C 0.44008 0.97039 0.49774 0.0
C30 C 0.44034 0.94777 0.49263 0.0
C31 C 0.44487 0.98815 0.48028 0.0
C32 C 0.44986 0.98304 0.45753 0.0
C33 C 0.45035 0.96059 0.4523 0.0
C34 C 0.44596 0.94337 0.47 0.0
C35 C 0.44192 0.01106 0.48522 0.0
C36 C 0.46765 0.03508 0.48881 0.0
C37 C 0.48016 0.04133 0.51091 0.0
C38 C 0.50315 0.06452 0.51486 0.0
C39 C 0.51367 0.08125 0.49648 0.0
C40 C 0.50138 0.07555 0.47439 0.0
C41 C 0.47846 0.05222 0.47057 0.0
H42 H 0.44794 0.47634 0.60116 0.0
H43 H 0.46819 0.47438 0.67319 0.0
H44 H 0.46699 0.53995 0.6478 0.0
H45 H 0.43902 0.43634 0.61796 0.0
H46 H 0.44438 0.43482 0.64847 0.0
H47 H 0.47903 0.45798 0.59208 0.0
H48 H 0.53651 0.43892 0.61145 0.0
H49 H 0.47972 0.43006 0.66056 0.0
C50 C 0.45464 0.48572 0.61817 0.0
C51 C 0.45787 0.5101 0.62209 0.0
C52 C 0.45889 0.47293 0.63643 0.0
C53 C 0.46609 0.48461 0.6588 0.0
C54 C 0.46936 0.50896 0.66288 0.0
C55 C 0.46587 0.52177 0.64434 0.0
C56 C 0.45323 0.44589 0.63267 0.0
C57 C 0.47731 0.44513 0.62729 0.0
C58 C 0.48788 0.4518 0.60508 0.0
C59 C 0.50946 0.44989 0.59946 0.0
C60 C 0.52025 0.44105 0.61605 0.0
C61 C 0.50942 0.43337 0.63792 0.0
C62 C 0.48833 0.43612 0.64375 0.0
H63 H 0.97848 0.44953 0.77882 0.0
H64 H 0.98723 0.46419 0.85298 0.0
H65 H 0.92356 0.46171 0.81509 0.0
H66 H 0.00942 0.44345 0.8013 0.0
H67 H 0.00998 0.44535 0.83244 0.0
H68 H 0.03223 0.48323 0.77871 0.0
H69 H 0.09735 0.546 0.81429 0.0
H70 H 0.04252 0.48296 0.8531 0.0
C71 C 0.97225 0.45436 0.79476 0.0
C72 C 0.94954 0.45557 0.79445 0.0
C73 C 0.98634 0.4583 0.8158 0.0
C74 C 0.97718 0.46281 0.83666 0.0
C75 C 0.95423 0.46361 0.83667 0.0
C76 C 0.94132 0.4612 0.81529 0.0
C77 C 0.0098 0.45537 0.81644 0.0
C78 C 0.03391 0.48106 0.81607 0.0
C79 C 0.04274 0.49293 0.7947 0.0
C80 C 0.06597 0.51614 0.79381 0.0
C81 C 0.07939 0.52809 0.81477 0.0
C82 C 0.07148 0.51607 0.83611 0.0
C83 C 0.04852 0.4926 0.83674 0.0
H84 H 0.57758 0.0487 0.0297 0.0
H85 H 0.5655 0.03306 0.95571 0.0
H86 H 0.57646 0.10385 0.98445 0.0
H87 H 0.57996 0.01331 0.01279 0.0
H88 H 0.58108 0.01055 0.98181 0.0
H89 H 0.5336 0.00261 0.02798 0.0
H90 H 0.47641 0.92932 6e-05 0.0
H91 H 0.54758 0.97222 0.9651 0.0
C92 C 0.57489 0.05419 0.01247 0.0
C93 C 0.57713 0.07817 0.0095 0.0
C94 C 0.57016 0.03764 0.99312 0.0
C95 C 0.56785 0.04529 0.97067 0.0
C96 C 0.57044 0.06933 0.96739 0.0
C97 C 0.57416 0.08516 0.98698 0.0
C98 C 0.5701 0.01295 0.99607 0.0
C99 C 0.54308 0.99053 0.99587 0.0
C100 C 0.52688 0.98803 0.0142 0.0
C101 C 0.50258 0.96621 0.01547 0.0
C102 C 0.49447 0.94688 -0.00184 0.0
C103 C 0.51059 0.94863 0.98005 0.0
C104 C 0.53481 0.97076 0.97882 0.0
H105 H 0.58059 0.55204 0.11665 0.0
H106 H 0.53891 0.54406 0.17919 0.0
H107 H 0.55404 0.48505 0.15724 0.0
H108 H 0.5758 0.58661 0.12947 0.0
H109 H 0.57391 0.58843 0.16032 0.0
H110 H 0.53499 0.56878 0.1043 0.0
H111 H 0.47824 0.58439 0.132 0.0
H112 H 0.53714 0.58695 0.17747 0.0
C113 C 0.5698 0.54068 0.13109 0.0
C114 C 0.56809 0.51701 0.13466 0.0
C115 C 0.55876 0.55034 0.14678 0.0
C116 C 0.54612 0.53616 0.16627 0.0
C117 C 0.54382 0.51229 0.16967 0.0
C118 C 0.55439 0.50271 0.15362 0.0
C119 C 0.5633 0.57701 0.14437 0.0
C120 C 0.53845 0.5773 0.14131 0.0
C121 C 0.52662 0.57306 0.11905 0.0
C122 C 0.50461 0.57522 0.11567 0.0
C123 C 0.4943 0.58126 0.13487 0.0
C124 C 0.50586 0.58563 0.15724 0.0
C125 C 0.52783 0.58331 0.16037 0.0
Mg126 Mg 0.62547 0.37303 0.36001 0.0
O127 O 0.61504 0.39196 0.38999 0.0
O128 O 0.63035 0.4326 0.38053 0.0
Mg129 Mg 0.65132 0.44018 0.34651 0.0
C130 C 0.61826 0.4142 0.3942 0.0
C131 C 0.6024 0.31692 0.36754 0.0
O132 O 0.59895 0.31915 0.34521 0.0
O133 O 0.66713 0.39214 0.3739 0.0
O134 O 0.68111 0.43256 0.36465 0.0
O135 O 0.58918 0.36434 0.34111 0.0
O136 O 0.62628 0.39975 0.3372 0.0
C137 C 0.68484 0.41549 0.37359 0.0
C138 C 0.60191 0.38682 0.33263 0.0
O139 O 0.61384 0.33707 0.3804 0.0
Mg140 Mg 0.27698 0.64089 0.58643 0.0
O141 O 0.24804 0.62309 0.555 0.0
O142 O 0.22496 0.58134 0.56165 0.0
Mg143 Mg 0.23802 0.57225 0.59575 0.0
C144 C 0.23012 0.60049 0.5492 0.0
C145 C 0.30899 0.69781 0.58318 0.0
O146 O 0.30312 0.69335 0.6052 0.0
O147 O 0.30146 0.62469 0.57237 0.0
O148 O 0.27715 0.58351 0.5803 0.0
O149 O 0.24843 0.64677 0.60577 0.0
O150 O 0.25094 0.61164 0.60672 0.0
C151 C 0.29767 0.602 0.57252 0.0
C152 C 0.239 0.62355 0.61229 0.0
O153 O 0.3009 0.6789 0.56886 0.0
Mg154 Mg 0.64418 0.2674 0.75408 0.0
O155 O 0.63094 0.23841 0.72298 0.0
O156 O 0.64946 0.21476 0.72884 0.0
Mg157 Mg 0.67356 0.22769 0.76269 0.0
C158 C 0.63491 0.22029 0.71685 0.0
C159 C 0.62411 0.30437 0.74973 0.0
O160 O 0.62752 0.30352 0.77231 0.0
O161 O 0.68421 0.2907 0.73926 0.0
O162 O 0.70141 0.26638 0.74718 0.0
O163 O 0.61051 0.23992 0.77405 0.0
O164 O 0.64806 0.24145 0.77441 0.0
C165 C 0.70319 0.28677 0.73931 0.0
C166 C 0.62442 0.23016 0.78039 0.0
O167 O 0.62978 0.29128 0.73607 0.0
Mg168 Mg 0.38189 0.64102 0.86844 0.0
O169 O 0.39374 0.62497 0.89943 0.0
O170 O 0.37624 0.5831 0.89206 0.0
Mg171 Mg 0.35385 0.57239 0.85729 0.0
C172 C 0.38982 0.60298 0.90498 0.0
C173 C 0.41866 0.69357 0.8932 0.0
O174 O 0.43496 0.68576 0.88853 0.0
O175 O 0.34105 0.62385 0.88173 0.0
O176 O 0.32485 0.58254 0.87265 0.0
O177 O 0.4166 0.64731 0.84959 0.0
O178 O 0.37917 0.6117 0.84666 0.0
C179 C 0.32237 0.60089 0.88088 0.0
C180 C 0.4031 0.62407 0.84159 0.0
O181 O 0.39493 0.67886 0.88815 0.0
Mg182 Mg 0.75302 0.38621 0.05438 0.0
O183 O 0.78301 0.40104 0.08514 0.0
O184 O 0.80923 0.38557 0.07819 0.0
Mg185 Mg 0.7966 0.36116 0.04475 0.0
C186 C 0.80257 0.39887 0.0906 0.0
C187 C 0.73582 0.4222 0.07626 0.0
O188 O 0.75985 0.43841 0.07165 0.0
O189 O 0.73179 0.34626 0.06931 0.0
O190 O 0.75895 0.33224 0.0614 0.0
O191 O 0.77885 0.42 0.03363 0.0
O192 O 0.77982 0.38407 0.03342 0.0
C193 C 0.73782 0.32883 0.06947 0.0
C194 C 0.78967 0.40724 0.02695 0.0
O195 O 0.72731 0.39852 0.07259 0.0
Mg196 Mg 0.37052 0.75711 0.21312 0.0
O197 O 0.38903 0.78749 0.24306 0.0
O198 O 0.42981 0.8136 0.23366 0.0
Mg199 Mg 0.4378 0.8001 0.19926 0.0
C200 C 0.41118 0.80707 0.24736 0.0
C201 C 0.32023 0.74153 0.23859 0.0
O202 O 0.32755 0.76514 0.23332 0.0
O203 O 0.3911 0.73631 0.22612 0.0
O204 O 0.43141 0.76336 0.21611 0.0
O205 O 0.36039 0.78278 0.19414 0.0
O206 O 0.39675 0.78262 0.19009 0.0
C207 C 0.41472 0.74253 0.22496 0.0
C208 C 0.38294 0.79281 0.18537 0.0
O209 O 0.33492 0.73266 0.23403 0.0
H210 H 0.08419 0.62573 0.29915 0.0
H211 H 0.12466 0.65238 0.2799 0.0
H212 H 0.14091 0.59073 0.28033 0.0
H213 H 0.1002 0.56381 0.29907 0.0
H214 H 0.16985 0.66405 0.30385 0.0
H215 H 0.1664 0.62115 0.21674 0.0
H216 H 0.13777 0.61378 0.23233 0.0
H217 H 0.15621 0.59887 0.23984 0.0
C218 C 0.09581 0.61747 0.29418 0.0
C219 C 0.08909 0.59271 0.30069 0.0
C220 C 0.11905 0.6328 0.28337 0.0
C221 C 0.1358 0.62355 0.27869 0.0
C222 C 0.12815 0.59816 0.28346 0.0
H223 H 0.29729 0.69072 0.24804 0.0
H224 H 0.25254 0.66239 0.25821 0.0
C225 C 0.10493 0.58283 0.29427 0.0
C226 C 0.16264 0.64137 0.27231 0.0
H227 H 0.20797 0.65187 0.23228 0.0
C228 C 0.17811 0.66158 0.28805 0.0
C229 C 0.17345 0.63784 0.2519 0.0
C230 C 0.15756 0.61687 0.23411 0.0
C231 C 0.20423 0.6781 0.28418 0.0
C232 C 0.21507 0.67461 0.26376 0.0
C233 C 0.19961 0.65446 0.24795 0.0
C234 C 0.24236 0.69192 0.2584 0.0
C235 C 0.22014 0.69869 0.30231 0.0
C236 C 0.25146 0.71791 0.25524 0.0
C237 C 0.27701 0.73416 0.2496 0.0
C238 C 0.29392 0.72468 0.24678 0.0
C239 C 0.28481 0.69866 0.25019 0.0
C240 C 0.25922 0.68241 0.25588 0.0
H241 H 0.21089 0.69448 0.31951 0.0
H242 H 0.23962 0.70109 0.30454 0.0
H243 H 0.22229 0.71703 0.29664 0.0
H244 H 0.23867 0.72557 0.25672 0.0
H245 H 0.28331 0.75405 0.24694 0.0
H246 H 0.55117 0.1064 0.46211 0.0
H247 H 0.56813 0.14588 0.44077 0.0
H248 H 0.49092 0.12993 0.42539 0.0
H249 H 0.47382 0.09085 0.44746 0.0
H250 H 0.56259 0.15975 0.39647 0.0
H251 H 0.52275 0.19756 0.46241 0.0
H252 H 0.52367 0.16858 0.46625 0.0
H253 H 0.49914 0.1685 0.4478 0.0
C254 C 0.53778 0.11112 0.45388 0.0
C255 C 0.51117 0.09572 0.45678 0.0
C256 C 0.54751 0.13365 0.44166 0.0
C257 C 0.53081 0.14117 0.43205 0.0
C258 C 0.50416 0.12476 0.43316 0.0
H259 H 0.57424 0.27099 0.34462 0.0
H260 H 0.55774 0.22864 0.36013 0.0
C261 C 0.49439 0.10224 0.4455 0.0
C262 C 0.54142 0.16695 0.42243 0.0
H263 H 0.54283 0.22359 0.43045 0.0
C264 C 0.55825 0.17371 0.40384 0.0
C265 C 0.53623 0.18534 0.43248 0.0
C266 C 0.51967 0.1798 0.45348 0.0
C267 C 0.5697 0.19824 0.39477 0.0
C268 C 0.56375 0.21632 0.40428 0.0
C269 C 0.54722 0.20965 0.42307 0.0
C270 C 0.57423 0.24218 0.39485 0.0
C271 C 0.58847 0.20471 0.37544 0.0
C272 C 0.58839 0.26396 0.4094 0.0
C273 C 0.59765 0.28834 0.40063 0.0
C274 C 0.59283 0.29132 0.37716 0.0
C275 C 0.5785 0.26943 0.36273 0.0
C276 C 0.56918 0.24514 0.37152 0.0
H277 H 0.59662 0.19182 0.37497 0.0
H278 H 0.57836 0.2025 0.35844 0.0
H279 H 0.60453 0.22469 0.37742 0.0
H280 H 0.59234 0.2621 0.42753 0.0
H281 H 0.60857 0.30479 0.41221 0.0
H282 H 0.48289 0.55924 0.60754 0.0
H283 H 0.46336 0.5809 0.58722 0.0
H284 H 0.39226 0.50947 0.57855 0.0
H285 H 0.41184 0.48771 0.59828 0.0
H286 H 0.401 0.54157 0.54122 0.0
H287 H 0.41441 0.59235 0.62673 0.0
H288 H 0.44332 0.59723 0.61357 0.0
H289 H 0.42035 0.56617 0.62333 0.0
C290 C 0.46334 0.54809 0.60064 0.0
C291 C 0.44879 0.52185 0.60466 0.0
C292 C 0.45216 0.56048 0.58917 0.0
C293 C 0.42615 0.54691 0.58196 0.0
C294 C 0.41233 0.52034 0.58407 0.0
H295 H 0.29343 0.55597 0.56219 0.0
H296 H 0.32813 0.54656 0.55873 0.0
C297 C 0.42358 0.50789 0.59528 0.0
C298 C 0.41228 0.56041 0.5751 0.0
H299 H 0.39077 0.5986 0.59759 0.0
C300 C 0.39907 0.55437 0.55339 0.0
C301 C 0.40974 0.5771 0.59101 0.0
C302 C 0.4225 0.5835 0.61504 0.0
C303 C 0.38271 0.56388 0.5475 0.0
C304 C 0.37928 0.57957 0.56387 0.0
C305 C 0.39355 0.5867 0.58501 0.0
C306 C 0.35859 0.58597 0.56109 0.0
C307 C 0.36881 0.55659 0.52405 0.0
C308 C 0.36408 0.61133 0.56331 0.0
C309 C 0.34416 0.61682 0.56541 0.0
C310 C 0.31844 0.59697 0.56571 0.0
C311 C 0.31302 0.57172 0.56215 0.0
C312 C 0.33287 0.56629 0.55991 0.0
H313 H 0.37979 0.55254 0.51095 0.0
H314 H 0.34991 0.539 0.52565 0.0
H315 H 0.36545 0.57185 0.51758 0.0
H316 H 0.38382 0.6268 0.56447 0.0
H317 H 0.34901 0.63646 0.56818 0.0
H318 H 0.93192 0.41096 0.7699 0.0
H319 H 0.89233 0.38933 0.74618 0.0
H320 H 0.88561 0.45686 0.74978 0.0
H321 H 0.92508 0.47842 0.77407 0.0
H322 H 0.84596 0.41814 0.76803 0.0
H323 H 0.86061 0.38446 0.68301 0.0
H324 H 0.87555 0.3763 0.70596 0.0
H325 H 0.88689 0.40936 0.70033 0.0
C326 C 0.92271 0.42163 0.76468 0.0
C327 C 0.93147 0.44631 0.77394 0.0
C328 C 0.90001 0.40922 0.75103 0.0
C329 C 0.88591 0.42144 0.74608 0.0
C330 C 0.89613 0.44704 0.75333 0.0
H331 H 0.7172 0.33548 0.72656 0.0
H332 H 0.76095 0.37101 0.72208 0.0
C333 C 0.9187 0.45937 0.76717 0.0
C334 C 0.85857 0.40605 0.73799 0.0
H335 H 0.81829 0.35828 0.69957 0.0
C336 C 0.83989 0.40559 0.75265 0.0
C337 C 0.85059 0.38955 0.71803 0.0
C338 C 0.86953 0.39015 0.70084 0.0
C339 C 0.81371 0.38786 0.74895 0.0
C340 C 0.80586 0.37032 0.72976 0.0
C341 C 0.82434 0.37172 0.71429 0.0
C342 C 0.77922 0.34846 0.7275 0.0
C343 C 0.79492 0.38685 0.76661 0.0
C344 C 0.77492 0.32378 0.73068 0.0
C345 C 0.75001 0.30344 0.73309 0.0
C346 C 0.72883 0.30737 0.73241 0.0
C347 C 0.73305 0.33179 0.72743 0.0
C348 C 0.75806 0.35216 0.72494 0.0
H349 H 0.80475 0.39891 0.78246 0.0
H350 H 0.78269 0.3938 0.75867 0.0
H351 H 0.78218 0.36699 0.77201 0.0
H352 H 0.79096 0.32047 0.73262 0.0
H353 H 0.74755 0.28488 0.73662 0.0
H354 H 0.46357 0.9161 0.95931 0.0
H355 H 0.44931 0.87379 0.94194 0.0
H356 H 0.52652 0.88682 0.94895 0.0
H357 H 0.54076 0.92877 0.96709 0.0
H358 H 0.46362 0.85464 0.90375 0.0
H359 H 0.48485 0.82377 0.98777 0.0
H360 H 0.48449 0.8532 0.98522 0.0
H361 H 0.5118 0.85111 0.97596 0.0
C362 C 0.47758 0.91007 0.9569 0.0
C363 C 0.50324 0.92569 0.96487 0.0
C364 C 0.46941 0.88592 0.94691 0.0
C365 C 0.48672 0.87693 0.9447 0.0
C366 C 0.51273 0.8932 0.95098 0.0
H367 H 0.46806 0.72954 0.90562 0.0
H368 H 0.48434 0.77404 0.91755 0.0
C369 C 0.52092 0.91733 0.96105 0.0
C370 C 0.47719 0.85003 0.93726 0.0
H371 H 0.47084 0.79406 0.95602 0.0
C372 C 0.46518 0.84137 0.91515 0.0
C373 C 0.47908 0.83271 0.95227 0.0
C374 C 0.49053 0.84052 0.97671 0.0
C375 C 0.4554 0.81594 0.90749 0.0
C376 C 0.45737 0.79868 0.92249 0.0
C377 C 0.46941 0.80736 0.94456 0.0
C378 C 0.44718 0.77154 0.91559 0.0
C379 C 0.44344 0.80785 0.88326 0.0
C380 C 0.42078 0.7552 0.91107 0.0
C381 C 0.41137 0.72968 0.90433 0.0
C382 C 0.4282 0.72003 0.90203 0.0
C383 C 0.45456 0.73633 0.90715 0.0
C384 C 0.46392 0.7618 0.91393 0.0
H385 H 0.44889 0.82447 0.87209 0.0
H386 H 0.44924 0.79502 0.87471 0.0
H387 H 0.4222 0.79729 0.88441 0.0
H388 H 0.40746 0.7622 0.91274 0.0
H389 H 0.39096 0.71764 0.9006 0.0
H390 H 0.55376 0.46902 0.11776 0.0
H391 H 0.58236 0.45368 0.10489 0.0
H392 H 0.64638 0.53059 0.10858 0.0
H393 H 0.61812 0.54598 0.1222 0.0
H394 H 0.61713 0.46463 0.06861 0.0
H395 H 0.66693 0.49321 0.15567 0.0
H396 H 0.63692 0.49228 0.14961 0.0
H397 H 0.66661 0.51858 0.1403 0.0
C398 C 0.57386 0.48272 0.11546 0.0
C399 C 0.58372 0.50867 0.12131 0.0
C400 C 0.59016 0.47393 0.10807 0.0
C401 C 0.61659 0.49092 0.10638 0.0
C402 C 0.62612 0.5171 0.11027 0.0
H403 H 0.74808 0.4715 0.08496 0.0
H404 H 0.71873 0.48763 0.09191 0.0
C405 C 0.60985 0.52591 0.11774 0.0
C406 C 0.63434 0.48102 0.10233 0.0
H407 H 0.68385 0.47686 0.12785 0.0
C408 C 0.63172 0.46727 0.08154 0.0
C409 C 0.6532 0.4843 0.11936 0.0
C410 C 0.65602 0.49768 0.14259 0.0
C411 C 0.64784 0.45718 0.07709 0.0
C412 C 0.66677 0.4606 0.09407 0.0
C413 C 0.66935 0.4743 0.11486 0.0
C414 C 0.6844 0.45047 0.0905 0.0
C415 C 0.64482 0.44337 0.05409 0.0
C416 C 0.67489 0.42414 0.08804 0.0
C417 C 0.69165 0.41482 0.08414 0.0
C418 C 0.71824 0.43168 0.08269 0.0
C419 C 0.72773 0.45798 0.08591 0.0
C420 C 0.71098 0.46726 0.08984 0.0
H421 H 0.63376 0.44756 0.04094 0.0
H422 H 0.66386 0.44864 0.04702 0.0
H423 H 0.63432 0.42253 0.05675 0.0
H424 H 0.65449 0.41082 0.08901 0.0
H425 H 0.6837 0.39445 0.08182 0.0
H426 H 0.46159 0.91823 0.50259 0.0
H427 H 0.44079 0.87732 0.52181 0.0
H428 H 0.37789 0.88876 0.53975 0.0
H429 H 0.39818 0.92934 0.51983 0.0
H430 H 0.42221 0.85956 0.56553 0.0
H431 H 0.34328 0.82393 0.49826 0.0
H432 H 0.37277 0.85389 0.49607 0.0
H433 H 0.34807 0.85143 0.51486 0.0
C434 C 0.44354 0.91223 0.511 0.0
C435 C 0.43133 0.92682 0.50939 0.0
C436 C 0.4317 0.88888 0.522 0.0
C437 C 0.40748 0.8797 0.53164 0.0
C438 C 0.39633 0.89526 0.53193 0.0
H439 H 0.32539 0.74134 0.60953 0.0
H440 H 0.34991 0.78526 0.59727 0.0
C441 C 0.40812 0.91861 0.52083 0.0
C442 C 0.39312 0.8531 0.53956 0.0
H443 H 0.33891 0.79569 0.52796 0.0
C444 C 0.40395 0.84559 0.55739 0.0
C445 C 0.36962 0.83476 0.52849 0.0
C446 C 0.35781 0.84126 0.50821 0.0
C447 C 0.39173 0.82029 0.56471 0.0
C448 C 0.36781 0.80216 0.55415 0.0
C449 C 0.35715 0.80963 0.53613 0.0
C450 C 0.35335 0.77538 0.56162 0.0
C451 C 0.40485 0.81312 0.58328 0.0
C452 C 0.34647 0.7551 0.5455 0.0
C453 C 0.33213 0.72982 0.5524 0.0
C454 C 0.32436 0.72441 0.57555 0.0
C455 C 0.33121 0.74479 0.5916 0.0
C456 C 0.34542 0.76998 0.58467 0.0
H457 H 0.42585 0.82683 0.58455 0.0
H458 H 0.39671 0.81331 0.60044 0.0
H459 H 0.40181 0.79372 0.57979 0.0
H460 H 0.35224 0.75885 0.52756 0.0
H461 H 0.32712 0.71458 0.53961 0.0
H462 H 0.52155 0.44166 0.68502 0.0
H463 H 0.54149 0.42234 0.70889 0.0
H464 H 0.53886 0.37681 0.64921 0.0
H465 H 0.51882 0.39551 0.62559 0.0
H466 H 0.52305 0.36488 0.71451 0.0
H467 H 0.6172 0.42138 0.67296 0.0
H468 H 0.59333 0.43116 0.67347 0.0
H469 H 0.58973 0.40661 0.65318 0.0
C470 C 0.52496 0.42729 0.67717 0.0
C471 C 0.5191 0.42043 0.65337 0.0
C472 C 0.53638 0.41637 0.69074 0.0
C473 C 0.54201 0.39855 0.68061 0.0
C474 C 0.53506 0.39087 0.65719 0.0
H475 H 0.61232 0.30869 0.7043 0.0
H476 H 0.59276 0.33296 0.68972 0.0
C477 C 0.52369 0.40164 0.64373 0.0
C478 C 0.55576 0.38811 0.69391 0.0
H479 H 0.61116 0.38551 0.69416 0.0
C480 C 0.54247 0.36964 0.71045 0.0
C481 C 0.58102 0.39436 0.68838 0.0
C482 C 0.59632 0.41462 0.67116 0.0
C483 C 0.55341 0.3563 0.72083 0.0
C484 C 0.57839 0.36196 0.71468 0.0
C485 C 0.59197 0.38112 0.69875 0.0
C486 C 0.59039 0.34751 0.72375 0.0
C487 C 0.53769 0.33545 0.7374 0.0
C488 C 0.59589 0.34796 0.74766 0.0
C489 C 0.60703 0.33409 0.75604 0.0
C490 C 0.61302 0.31962 0.74063 0.0
C491 C 0.6079 0.31958 0.71663 0.0
C492 C 0.59673 0.33344 0.70827 0.0
H493 H 0.51703 0.32976 0.73633 0.0
H494 H 0.53947 0.31837 0.73374 0.0
H495 H 0.5449 0.34232 0.75553 0.0
H496 H 0.59166 0.35912 0.75984 0.0
H497 H 0.61086 0.33467 0.77462 0.0
H498 H 0.09053 0.49075 0.8601 0.0
H499 H 0.13155 0.51028 0.8817 0.0
H500 H 0.13692 0.58378 0.87788 0.0
H501 H 0.09607 0.56424 0.85558 0.0
H502 H 0.17541 0.58393 0.85741 0.0
H503 H 0.16753 0.54106 0.94288 0.0
H504 H 0.15152 0.51663 0.92065 0.0
H505 H 0.13988 0.53823 0.92712 0.0
C506 C 0.0998 0.51084 0.86491 0.0
C507 C 0.09021 0.52601 0.85611 0.0
C508 C 0.12333 0.52205 0.87733 0.0
C509 C 0.13744 0.54857 0.8815 0.0
C510 C 0.12643 0.5633 0.87489 0.0
H511 H 0.30686 0.63486 0.89407 0.0
H512 H 0.26274 0.62558 0.89973 0.0
C513 C 0.10304 0.55213 0.86225 0.0
C514 C 0.16529 0.56113 0.88798 0.0
H515 H 0.20869 0.55662 0.92392 0.0
C516 C 0.1827 0.57852 0.87236 0.0
C517 C 0.17488 0.55398 0.90737 0.0
C518 C 0.15741 0.53664 0.92556 0.0
C519 C 0.20915 0.58753 0.87462 0.0
C520 C 0.21859 0.57923 0.89325 0.0
C521 C 0.20141 0.56293 0.90962 0.0
C522 C 0.2456 0.58484 0.89416 0.0
C523 C 0.22654 0.60446 0.8561 0.0
C524 C 0.25068 0.56492 0.89028 0.0
C525 C 0.2758 0.57011 0.88712 0.0
C526 C 0.29642 0.59538 0.88778 0.0
C527 C 0.29145 0.61521 0.89322 0.0
C528 C 0.26624 0.60996 0.89641 0.0
H529 H 0.21557 0.60566 0.84087 0.0
H530 H 0.2389 0.624 0.86361 0.0
H531 H 0.23926 0.59735 0.84986 0.0
H532 H 0.23505 0.54539 0.88853 0.0
H533 H 0.27886 0.5543 0.88322 0.0
H534 H 0.5608 0.11192 0.02033 0.0
H535 H 0.58543 0.15204 0.04276 0.0
H536 H 0.63968 0.12924 0.0648 0.0
H537 H 0.61581 0.08958 0.04168 0.0
H538 H 0.60839 0.17114 0.0891 0.0
H539 H 0.67942 0.189 0.02066 0.0
H540 H 0.64702 0.16241 0.01873 0.0
H541 H 0.67065 0.16135 0.03757 0.0
C542 C 0.57763 0.11517 0.03043 0.0
C543 C 0.5867 0.09784 0.02874 0.0
C544 C 0.59159 0.13804 0.04336 0.0
C545 C 0.61469 0.14383 0.05496 0.0
C546 C 0.62207 0.12525 0.05566 0.0
H547 H 0.74741 0.2921 0.08484 0.0
H548 H 0.71656 0.24672 0.08745 0.0
C549 C 0.60825 0.10245 0.04257 0.0
C550 C 0.63299 0.17052 0.06261 0.0
H551 H 0.69004 0.22179 0.0483 0.0
C552 C 0.62639 0.18222 0.08039 0.0
C553 C 0.65626 0.185 0.05094 0.0
C554 C 0.66376 0.17396 0.03078 0.0
C555 C 0.64265 0.20806 0.08694 0.0
C556 C 0.66583 0.22251 0.07513 0.0
C557 C 0.67242 0.21064 0.05754 0.0
C558 C 0.68321 0.25029 0.07949 0.0
C559 C 0.63494 0.21962 0.10642 0.0
C560 C 0.67464 0.2676 0.07514 0.0
C561 C 0.6923 0.2937 0.07386 0.0
C562 C 0.71882 0.3028 0.07649 0.0
C563 C 0.72712 0.28565 0.08253 0.0
C564 C 0.70949 0.2597 0.08407 0.0
H565 H 0.62128 0.20482 0.11811 0.0
H566 H 0.65198 0.23383 0.11696 0.0
H567 H 0.62526 0.22946 0.09885 0.0
H568 H 0.65454 0.26079 0.07108 0.0
H569 H 0.68532 0.30641 0.06904 0.0
H570 H 0.45615 0.57038 0.16835 0.0
H571 H 0.44167 0.59465 0.19175 0.0
H572 H 0.52016 0.64818 0.21273 0.0
H573 H 0.53492 0.62469 0.18865 0.0
H574 H 0.44818 0.61591 0.23885 0.0
H575 H 0.49679 0.68872 0.17172 0.0
H576 H 0.49127 0.65674 0.16843 0.0
H577 H 0.51697 0.67964 0.18733 0.0
C578 C 0.47031 0.58706 0.1783 0.0
C579 C 0.49673 0.59593 0.17619 0.0
C580 C 0.46197 0.60077 0.19182 0.0
C581 C 0.4799 0.62347 0.20355 0.0
C582 C 0.50606 0.63087 0.20352 0.0
H583 H 0.4626 0.75301 0.23894 0.0
H584 H 0.47857 0.72313 0.24022 0.0
C585 C 0.51445 0.61728 0.18987 0.0
C586 C 0.47164 0.64124 0.21246 0.0
H587 H 0.47556 0.69795 0.20063 0.0
C588 C 0.45432 0.63399 0.23072 0.0
C589 C 0.47947 0.66466 0.20158 0.0
C590 C 0.49696 0.67291 0.18105 0.0
C591 C 0.4447 0.64969 0.23844 0.0
C592 C 0.45235 0.67296 0.22734 0.0
C593 C 0.46993 0.68025 0.20933 0.0
C594 C 0.44148 0.68964 0.23275 0.0
C595 C 0.42653 0.64127 0.25839 0.0
C596 C 0.41509 0.68064 0.22918 0.0
C597 C 0.40583 0.69773 0.22871 0.0
C598 C 0.42293 0.72409 0.23134 0.0
C599 C 0.44899 0.73281 0.23665 0.0
C600 C 0.45815 0.71575 0.23743 0.0
H601 H 0.42899 0.6278 0.26954 0.0
H602 H 0.42943 0.65781 0.26938 0.0
H603 H 0.40646 0.63129 0.25128 0.0
H604 H 0.40192 0.66068 0.22505 0.0
H605 H 0.38568 0.69046 0.22444 0.0
H606 H 0.90783 0.46236 0.35025 0.0
H607 H 0.8662 0.44464 0.36866 0.0
H608 H 0.8859 0.51974 0.39407 0.0
H609 H 0.92721 0.5377 0.37514 0.0
H610 H 0.84255 0.44718 0.41366 0.0
H611 H 0.83042 0.49885 0.3397 0.0
H612 H 0.85718 0.49338 0.34218 0.0
H613 H 0.85668 0.51783 0.35989 0.0
C614 C 0.90366 0.47496 0.3605 0.0
C615 C 0.92051 0.50148 0.36079 0.0
C616 C 0.87993 0.46478 0.37111 0.0
C617 C 0.87283 0.48097 0.38228 0.0
C618 C 0.89101 0.50699 0.38533 0.0
H619 H 0.7214 0.46246 0.38987 0.0
H620 H 0.76686 0.47755 0.39767 0.0
C621 C 0.9147 0.51721 0.3746 0.0
C622 C 0.84529 0.47179 0.38594 0.0
H623 H 0.79484 0.47567 0.36267 0.0
C624 C 0.83208 0.45354 0.40274 0.0
C625 C 0.83167 0.47983 0.37133 0.0
C626 C 0.84456 0.49838 0.35211 0.0
C627 C 0.8055 0.44336 0.40549 0.0
C628 C 0.79193 0.45141 0.39079 0.0
C629 C 0.80529 0.46972 0.37411 0.0
C630 C 0.76372 0.44079 0.39143 0.0
C631 C 0.79224 0.42427 0.42413 0.0
C632 C 0.7466 0.41487 0.38612 0.0
C633 C 0.72042 0.4061 0.38185 0.0
C634 C 0.71112 0.42325 0.38237 0.0
C635 C 0.72804 0.44884 0.38906 0.0
C636 C 0.75402 0.45748 0.39362 0.0
H637 H 0.80608 0.42568 0.43799 0.0
H638 H 0.77711 0.42698 0.43224 0.0
H639 H 0.78296 0.40476 0.41616 0.0
H640 H 0.75369 0.40172 0.38385 0.0
H641 H 0.70785 0.3863 0.37664 0.0
H642 H 0.08241 0.5357 0.36569 0.0
H643 H 0.10887 0.53916 0.40001 0.0
H644 H 0.08706 0.58912 0.43417 0.0
H645 H 0.06057 0.58572 0.3999 0.0
H646 H 0.15043 0.58667 0.41448 0.0
H647 H 0.08281 0.54138 0.48622 0.0
H648 H 0.07264 0.53514 0.45583 0.0
H649 H 0.07828 0.56411 0.47022 0.0
C650 C 0.08268 0.54682 0.3808 0.0
C651 C 0.06947 0.56047 0.38013 0.0
C652 C 0.09786 0.54885 0.40034 0.0
C653 C 0.09994 0.56441 0.4196 0.0
C654 C 0.08543 0.57672 0.41962 0.0
H655 H 0.22865 0.6361 0.52108 0.0
H656 H 0.19767 0.62818 0.4891 0.0
C657 C 0.0702 0.57467 0.40006 0.0
C658 C 0.11942 0.56996 0.4384 0.0
H659 H 0.12724 0.5653 0.4968 0.0
C660 C 0.14538 0.58193 0.43248 0.0
C661 C 0.11273 0.56375 0.46181 0.0
C662 C 0.08509 0.55019 0.46897 0.0
C663 C 0.16489 0.58791 0.44939 0.0
C664 C 0.15824 0.58203 0.47286 0.0
C665 C 0.13227 0.56997 0.47878 0.0
C666 C 0.17781 0.58712 0.49142 0.0
C667 C 0.19238 0.59998 0.44195 0.0
C668 C 0.1769 0.5667 0.50324 0.0
C669 C 0.19448 0.57112 0.52142 0.0
C670 C 0.21332 0.59614 0.52833 0.0
C671 C 0.21453 0.61661 0.51613 0.0
C672 C 0.19685 0.61213 0.49786 0.0
H673 H 0.19366 0.59831 0.42277 0.0
H674 H 0.20264 0.62053 0.44709 0.0
H675 H 0.20242 0.59107 0.45067 0.0
H676 H 0.16241 0.54727 0.49849 0.0
H677 H 0.19293 0.55484 0.53033 0.0
H678 H 0.47939 0.06481 0.55489 0.0
H679 H 0.50034 0.0888 0.59126 0.0
H680 H 0.57442 0.10906 0.56429 0.0
H681 H 0.55364 0.08519 0.52794 0.0
H682 H 0.53702 0.08912 0.62502 0.0
H683 H 0.57607 0.17788 0.57511 0.0
H684 H 0.5507 0.14754 0.56361 0.0
H685 H 0.58353 0.15469 0.56357 0.0
C686 C 0.50008 0.0737 0.55703 0.0
C687 C 0.51494 0.07335 0.53856 0.0
C688 C 0.51201 0.08754 0.57772 0.0
C689 C 0.53892 0.10116 0.58017 0.0
C690 C 0.55365 0.09909 0.56251 0.0
H691 H 0.63947 0.18097 0.69831 0.0
H692 H 0.61488 0.15217 0.66571 0.0
C693 C 0.54177 0.08535 0.54185 0.0
C694 C 0.55173 0.11908 0.60028 0.0
H695 H 0.59139 0.18218 0.61429 0.0
C696 C 0.54884 0.10947 0.62274 0.0
C697 C 0.56669 0.14567 0.59724 0.0
C698 C 0.5693 0.15717 0.57362 0.0
C699 C 0.56125 0.12574 0.64223 0.0
C700 C 0.57716 0.1522 0.63903 0.0
C701 C 0.57937 0.16186 0.61665 0.0
C702 C 0.59227 0.1701 0.65858 0.0
C703 C 0.55711 0.11449 0.66608 0.0
C704 C 0.58838 0.19039 0.66483 0.0
C705 C 0.60259 0.20713 0.68344 0.0
C706 C 0.62105 0.20393 0.69601 0.0
C707 C 0.62532 0.18396 0.68918 0.0
C708 C 0.61113 0.1673 0.67064 0.0
H709 H 0.53925 0.09562 0.66638 0.0
H710 H 0.57352 0.11179 0.67096 0.0
H711 H 0.55602 0.12737 0.67943 0.0
H712 H 0.57407 0.19301 0.65554 0.0
H713 H 0.59881 0.22229 0.68818 0.0
H714 H 0.43836 0.48597 0.69902 0.0
H715 H 0.43487 0.50703 0.73438 0.0
H716 H 0.5022 0.57697 0.71608 0.0
H717 H 0.50511 0.55615 0.68016 0.0
H718 H 0.46313 0.53356 0.77302 0.0
H719 H 0.44779 0.59716 0.71452 0.0
H720 H 0.44941 0.56998 0.70361 0.0
H721 H 0.4784 0.59916 0.71171 0.0
C722 C 0.45287 0.50561 0.70293 0.0
C723 C 0.47188 0.51954 0.68684 0.0
C724 C 0.45081 0.51767 0.72308 0.0
C725 C 0.46783 0.54377 0.72751 0.0
C726 C 0.48841 0.55701 0.71264 0.0
H727 H 0.45246 0.64628 0.82687 0.0
H728 H 0.47116 0.62734 0.80147 0.0
C729 C 0.49023 0.54508 0.69228 0.0
C730 C 0.46226 0.55747 0.74612 0.0
H731 H 0.44626 0.60364 0.75481 0.0
C732 C 0.45965 0.54902 0.76908 0.0
C733 C 0.4574 0.57747 0.74089 0.0
C734 C 0.45813 0.58635 0.71634 0.0
C735 C 0.45211 0.55989 0.78687 0.0
C736 C 0.44713 0.57968 0.78153 0.0
C737 C 0.45035 0.58858 0.75879 0.0
C738 C 0.43677 0.5903 0.79879 0.0
C739 C 0.44921 0.55005 0.81122 0.0
C740 C 0.41124 0.57571 0.80554 0.0
C741 C 0.40038 0.58653 0.81977 0.0
C742 C 0.41493 0.61211 0.82761 0.0
C743 C 0.44073 0.62651 0.8212 0.0
C744 C 0.45149 0.61573 0.80675 0.0
H745 H 0.45847 0.53829 0.81355 0.0
H746 H 0.4577 0.56611 0.82428 0.0
H747 H 0.42847 0.5381 0.81475 0.0
H748 H 0.39946 0.55617 0.79919 0.0
H749 H 0.38043 0.57496 0.82413 0.0
H750 H 0.90314 0.4361 0.84558 0.0
H751 H 0.88219 0.43313 0.88191 0.0
H752 H 0.95543 0.48441 0.91576 0.0
H753 H 0.97672 0.48902 0.8786 0.0
H754 H 0.88959 0.41389 0.92072 0.0
H755 H 0.91118 0.51322 0.93869 0.0
H756 H 0.91603 0.50269 0.9106 0.0
H757 H 0.9385 0.50921 0.93441 0.0
C758 C 0.91489 0.44756 0.86042 0.0
C759 C 0.94169 0.46319 0.85893 0.0
C760 C 0.90283 0.44551 0.88135 0.0
C761 C 0.91717 0.45866 0.90153 0.0
C762 C 0.94392 0.47443 0.9003 0.0
H763 H 0.83119 0.40042 0.02926 0.0
H764 H 0.86664 0.41605 0.00232 0.0
C765 C 0.95608 0.4768 0.87911 0.0
C766 C 0.90375 0.4542 0.92384 0.0
H767 H 0.88627 0.48254 0.96599 0.0
C768 C 0.88902 0.42892 0.93076 0.0
C769 C 0.90302 0.47387 0.9368 0.0
C770 C 0.91784 0.50127 0.92974 0.0
C771 C 0.87254 0.42251 0.94951 0.0
C772 C 0.8716 0.44212 0.96244 0.0
C773 C 0.88716 0.46758 0.95614 0.0
C774 C 0.85289 0.43623 0.98113 0.0
C775 C 0.8552 0.39463 0.95428 0.0
C776 C 0.83439 0.44384 0.97913 0.0
C777 C 0.81445 0.43536 0.99483 0.0
C778 C 0.8125 0.41884 0.01249 0.0
C779 C 0.83182 0.41246 0.01532 0.0
C780 C 0.85208 0.42141 -4e-05 0.0
H781 H 0.85369 0.38215 0.9392 0.0
H782 H 0.86318 0.38943 0.96943 0.0
H783 H 0.83555 0.39055 0.95839 0.0
H784 H 0.83472 0.4554 0.96482 0.0
H785 H 0.79985 0.44067 0.99242 0.0
H786 H 0.51957 0.96962 0.06028 0.0
H787 H 0.49296 0.94744 0.09307 0.0
H788 H 0.42467 0.92774 0.05153 0.0
H789 H 0.4513 0.94958 0.01841 0.0
H790 H 0.45069 0.94265 0.11966 0.0
H791 H 0.42479 0.86021 0.05859 0.0
H792 H 0.45015 0.89197 0.05282 0.0
H793 H 0.41712 0.88357 0.04854 0.0
C794 C 0.49896 0.96155 0.05845 0.0
C795 C 0.48741 0.9609 0.03675 0.0
C796 C 0.48375 0.94884 0.07719 0.0
C797 C 0.45688 0.93548 0.07448 0.0
C798 C 0.4454 0.93762 0.05378 0.0
H799 H 0.36101 0.82218 0.17688 0.0
H800 H 0.37678 0.85875 0.15135 0.0
C801 C 0.46059 0.95011 0.03493 0.0
C802 C 0.44159 0.91559 0.09119 0.0
H803 H 0.41055 0.85107 0.09662 0.0
C804 C 0.44146 0.92261 0.11462 0.0
C805 C 0.43 0.88945 0.08452 0.0
C806 C 0.4306 0.88072 0.05982 0.0
C807 C 0.43057 0.90409 0.1317 0.0
C808 C 0.41962 0.87811 0.12502 0.0
C809 C 0.41893 0.87109 0.10153 0.0
C810 C 0.41106 0.85787 0.14221 0.0
C811 C 0.43192 0.91231 0.15688 0.0
C812 C 0.42516 0.8454 0.14539 0.0
C813 C 0.41622 0.82456 0.15976 0.0
C814 C 0.39293 0.81573 0.17117 0.0
C815 C 0.37903 0.82856 0.1683 0.0
C816 C 0.38805 0.84951 0.15388 0.0
H817 H 0.4428 0.93337 0.15942 0.0
H818 H 0.41217 0.90501 0.16317 0.0
H819 H 0.44121 0.90404 0.16778 0.0
H820 H 0.44288 0.85152 0.13633 0.0
H821 H 0.42728 0.81501 0.16142 0.0
H822 H 0.50583 0.46339 0.17553 0.0
H823 H 0.50164 0.43789 0.20951 0.0
H824 H 0.55994 0.50538 0.24663 0.0
H825 H 0.5633 0.53088 0.2131 0.0
H826 H 0.54121 0.43327 0.22003 0.0
H827 H 0.51735 0.46765 0.30007 0.0
H828 H 0.51136 0.47574 0.27138 0.0
H829 H 0.54266 0.49386 0.28556 0.0
C830 C 0.5167 0.47288 0.19143 0.0
C831 C 0.53486 0.49902 0.19181 0.0
C832 C 0.51441 0.45833 0.21079 0.0
C833 C 0.53048 0.46966 0.23068 0.0
C834 C 0.54688 0.49622 0.23179 0.0
H835 H 0.62384 0.43147 0.30953 0.0
H836 H 0.60211 0.44928 0.28687 0.0
C837 C 0.54887 0.51083 0.21256 0.0
C838 C 0.53431 0.45355 0.24763 0.0
H839 H 0.5444 0.44833 0.30559 0.0
C840 C 0.54114 0.43607 0.23875 0.0
C841 C 0.5344 0.45722 0.27208 0.0
C842 C 0.52577 0.47447 0.28278 0.0
C843 C 0.54952 0.4234 0.25351 0.0
C844 C 0.55131 0.42845 0.27776 0.0
C845 C 0.54318 0.44475 0.28689 0.0
C846 C 0.56382 0.41859 0.29338 0.0
C847 C 0.55766 0.40561 0.24311 0.0
C848 C 0.54933 0.3955 0.30454 0.0
C849 C 0.56169 0.3852 0.31751 0.0
C850 C 0.5887 0.39792 0.31948 0.0
C851 C 0.60304 0.42129 0.30854 0.0
C852 C 0.59069 0.43153 0.29561 0.0
H853 H 0.55236 0.40147 0.22424 0.0
H854 H 0.57882 0.41435 0.24528 0.0
H855 H 0.54868 0.38738 0.25241 0.0
H856 H 0.52855 0.38522 0.30278 0.0
H857 H 0.55011 0.36719 0.32578 0.0
H858 H 0.42213 0.95958 0.41408 0.0
H859 H 0.4166 0.93636 0.377 0.0
H860 H 0.47542 0.91973 0.39911 0.0
H861 H 0.48095 0.94279 0.43619 0.0
H862 H 0.44996 0.93782 0.3406 0.0
H863 H 0.40888 0.84918 0.39086 0.0
H864 H 0.4139 0.87901 0.40311 0.0
H865 H 0.44046 0.87343 0.40077 0.0
C866 C 0.43446 0.9517 0.41069 0.0
C867 C 0.45182 0.95277 0.42803 0.0
C868 C 0.43116 0.9383 0.3896 0.0
C869 C 0.44517 0.92585 0.38563 0.0
C870 C 0.46407 0.92879 0.40208 0.0
H871 H 0.45617 0.84848 0.26299 0.0
H872 H 0.46299 0.87721 0.296 0.0
C873 C 0.46732 0.94207 0.42315 0.0
C874 C 0.4386 0.90805 0.36531 0.0
H875 H 0.41584 0.84535 0.3508 0.0
C876 C 0.44243 0.91759 0.34277 0.0
C877 C 0.42824 0.88159 0.36824 0.0
C878 C 0.42236 0.87007 0.39202 0.0
C879 C 0.43694 0.90143 0.32304 0.0
C880 C 0.4277 0.87515 0.32605 0.0
C881 C 0.42313 0.86553 0.34857 0.0
C882 C 0.42332 0.85743 0.30611 0.0
C883 C 0.44091 0.91259 0.29916 0.0
C884 C 0.39889 0.83617 0.30134 0.0
C885 C 0.3949 0.81945 0.28251 0.0
C886 C 0.41534 0.82367 0.26821 0.0
C887 C 0.43991 0.8447 0.27347 0.0
C888 C 0.44385 0.86131 0.29225 0.0
H889 H 0.4409 0.93091 0.29954 0.0
H890 H 0.4598 0.91638 0.29286 0.0
H891 H 0.42575 0.89919 0.28649 0.0
H892 H 0.38285 0.8327 0.31202 0.0
H893 H 0.37574 0.80346 0.27899 0.0
H894 H 0.55888 0.47975 0.58667 0.0
H895 H 0.57683 0.47756 0.54933 0.0
H896 H 0.50052 0.42527 0.5217 0.0
H897 H 0.4825 0.42776 0.55894 0.0
H898 H 0.57143 0.43234 0.53367 0.0
H899 H 0.53354 0.47093 0.46668 0.0
H900 H 0.53328 0.47724 0.49753 0.0
H901 H 0.50927 0.44734 0.48438 0.0
C902 C 0.54592 0.4685 0.57232 0.0
C903 C 0.51935 0.45394 0.57559 0.0
C904 C 0.55616 0.46717 0.55108 0.0
C905 C 0.54002 0.45125 0.53275 0.0
C906 C 0.5133 0.43801 0.53545 0.0
H907 H 0.5866 0.37969 0.42581 0.0
H908 H 0.56703 0.38808 0.4594 0.0
C909 C 0.50301 0.43948 0.55671 0.0
C910 C 0.55136 0.44599 0.51218 0.0
H911 H 0.55313 0.44761 0.4528 0.0
C912 C 0.56754 0.43581 0.51598 0.0
C913 C 0.54627 0.45055 0.48917 0.0
C914 C 0.52983 0.46233 0.48413 0.0
C915 C 0.57873 0.42999 0.4974 0.0
C916 C 0.57316 0.43398 0.47434 0.0
C917 C 0.55712 0.44432 0.47051 0.0
C918 C 0.58471 0.42859 0.45403 0.0
C919 C 0.59682 0.42012 0.50265 0.0
C920 C 0.6008 0.44849 0.43974 0.0
C921 C 0.61189 0.44378 0.42056 0.0
C922 C 0.60706 0.41899 0.41517 0.0
C923 C 0.59089 0.39903 0.42955 0.0
C924 C 0.57973 0.40378 0.44877 0.0
H925 H 0.60379 0.42393 0.52115 0.0
H926 H 0.5866 0.3992 0.49928 0.0
H927 H 0.61369 0.42892 0.49129 0.0
H928 H 0.6049 0.46777 0.44352 0.0
H929 H 0.62421 0.45965 0.40992 0.0
H930 H 0.11667 0.53693 0.78442 0.0
H931 H 0.13754 0.55245 0.7479 0.0
H932 H 0.06449 0.53102 0.71417 0.0
H933 H 0.04332 0.51687 0.75159 0.0
H934 H 0.12986 0.52476 0.70889 0.0
H935 H 0.1094 0.60306 0.69181 0.0
H936 H 0.10419 0.58834 0.71976 0.0
H937 H 0.08211 0.57194 0.69567 0.0
C938 C 0.10496 0.53619 0.76954 0.0
C939 C 0.0783 0.52612 0.77118 0.0
C940 C 0.11695 0.54477 0.7485 0.0
C941 C 0.10265 0.5431 0.72832 0.0
C942 C 0.07598 0.53291 0.72963 0.0
H943 H 0.19927 0.57481 0.60612 0.0
H944 H 0.16102 0.55314 0.62965 0.0
C945 C 0.06388 0.52458 0.75096 0.0
C946 C 0.11624 0.55136 0.70611 0.0
H947 H 0.13645 0.59792 0.66599 0.0
C948 C 0.13109 0.54056 0.69928 0.0
C949 C 0.11775 0.57197 0.69369 0.0
C950 C 0.10269 0.5847 0.7006 0.0
C951 C 0.14885 0.55093 0.68156 0.0
C952 C 0.1509 0.57199 0.66946 0.0
C953 C 0.13482 0.58177 0.67527 0.0
C954 C 0.17154 0.58581 0.65267 0.0
C955 C 0.16646 0.5403 0.6773 0.0
C956 C 0.18923 0.61184 0.65674 0.0
C957 C 0.21068 0.62439 0.64289 0.0
C958 C 0.21502 0.61097 0.6251 0.0
C959 C 0.19671 0.58532 0.62024 0.0
C960 C 0.17488 0.57295 0.63367 0.0
H961 H 0.16657 0.52858 0.69192 0.0
H962 H 0.15977 0.52789 0.66129 0.0
H963 H 0.1865 0.55581 0.6749 0.0
H964 H 0.18701 0.62223 0.67121 0.0
H965 H 0.22448 0.64426 0.64681 0.0
H966 H 0.54159 0.04464 0.92751 0.0
H967 H 0.54639 0.06222 0.8884 0.0
H968 H 0.60809 0.13449 0.91516 0.0
H969 H 0.60447 0.11695 0.95342 0.0
H970 H 0.54142 0.10163 0.87295 0.0
H971 H 0.64045 0.12294 0.85934 0.0
H972 H 0.62123 0.10251 0.88213 0.0
H973 H 0.63921 0.13664 0.88685 0.0
C974 C 0.55636 0.06417 0.9249 0.0
C975 C 0.57249 0.07944 0.94364 0.0
C976 C 0.559 0.0742 0.90262 0.0
C977 C 0.57795 0.09951 0.89878 0.0
C978 C 0.59378 0.11473 0.91754 0.0
H979 H 0.59098 0.21684 0.81548 0.0
H980 H 0.57611 0.17987 0.84002 0.0
C981 C 0.59133 0.10476 0.93958 0.0
C982 C 0.58098 0.1109 0.87561 0.0
H983 H 0.62788 0.1506 0.83974 0.0
C984 C 0.56016 0.11186 0.86529 0.0
C985 C 0.60518 0.12353 0.86513 0.0
C986 C 0.62766 0.12107 0.87383 0.0
C987 C 0.56352 0.12703 0.84597 0.0
C988 C 0.58852 0.14229 0.83741 0.0
C989 C 0.60877 0.13944 0.84649 0.0
C990 C 0.59483 0.16295 0.82073 0.0
C991 C 0.54028 0.12676 0.83528 0.0
C992 C 0.61084 0.16626 0.80197 0.0
C993 C 0.62017 0.18795 0.78855 0.0
C994 C 0.6133 0.20647 0.79338 0.0
C995 C 0.5964 0.20268 0.81138 0.0
C996 C 0.58762 0.18135 0.82521 0.0
H997 H 0.5229 0.10764 0.83655 0.0
H998 H 0.53663 0.14053 0.84505 0.0
H999 H 0.54296 0.1319 0.81666 0.0
H1000 H 0.61671 0.1524 0.79811 0.0
H1001 H 0.6328 0.19024 0.77447 0.0
H1002 H 0.53055 0.5984 0.07662 0.0
H1003 H 0.51217 0.60262 0.03964 0.0
H1004 H 0.43583 0.55439 0.06441 0.0
H1005 H 0.45406 0.55015 0.10142 0.0
H1006 H 0.47773 0.56774 0.00552 0.0
H1007 H 0.43704 0.62108 0.0499 0.0
H1008 H 0.4604 0.61488 0.06392 0.0
H1009 H 0.42712 0.59042 0.06174 0.0
C1010 C 0.50986 0.58822 0.07397 0.0
C1011 C 0.49372 0.57411 0.09196 0.0
C1012 C 0.49939 0.59079 0.05291 0.0
C1013 C 0.47266 0.57932 0.04955 0.0
C1014 C 0.45652 0.56391 0.06691 0.0
H1015 H 0.38351 0.55905 0.92345 0.0
H1016 H 0.40473 0.5545 0.95808 0.0
C1017 C 0.46695 0.5614 0.08796 0.0
C1018 C 0.46163 0.58429 0.02834 0.0
H1019 H 0.42436 0.60891 0.01012 0.0
C1020 C 0.46614 0.57681 0.00649 0.0
C1021 C 0.44696 0.59662 0.02964 0.0
C1022 C 0.44276 0.60646 0.05253 0.0
C1023 C 0.4557 0.58065 0.9859 0.0
C1024 C 0.44004 0.59192 0.98731 0.0
C1025 C 0.43616 0.60006 0.00911 0.0
C1026 C 0.42702 0.5949 0.96642 0.0
C1027 C 0.46172 0.57283 0.96283 0.0
C1028 C 0.43182 0.61911 0.96006 0.0
C1029 C 0.41951 0.62184 0.94029 0.0
C1030 C 0.40208 0.60033 0.92661 0.0
C1031 C 0.39696 0.57608 0.93341 0.0
C1032 C 0.40922 0.57341 0.95314 0.0
H1033 H 0.47945 0.57147 0.96415 0.0
H1034 H 0.44559 0.55379 0.95722 0.0
H1035 H 0.46416 0.58652 0.94915 0.0
H1036 H 0.44535 0.63594 0.97023 0.0
H1037 H 0.42389 0.64078 0.9356 0.0
H1038 H 0.90433 0.51317 0.28432 0.0
H1039 H 0.88345 0.49625 0.2461 0.0
H1040 H 0.94804 0.48893 0.22516 0.0
H1041 H 0.96913 0.50591 0.26375 0.0
H1042 H 0.9009 0.51236 0.19906 0.0
H1043 H 0.88347 0.41544 0.21871 0.0
H1044 H 0.89199 0.43982 0.24118 0.0
H1045 H 0.916 0.44143 0.22206 0.0
C1046 C 0.91419 0.50816 0.27148 0.0
C1047 C 0.93817 0.5105 0.27699 0.0
C1048 C 0.90229 0.49861 0.24966 0.0
C1049 C 0.91405 0.49105 0.23297 0.0
C1050 C 0.93857 0.49443 0.23797 0.0
H1051 H 0.84863 0.40359 0.10378 0.0
H1052 H 0.87635 0.42726 0.13725 0.0
C1053 C 0.95063 0.50422 0.25988 0.0
C1054 C 0.89972 0.47835 0.21097 0.0
H1055 H 0.86708 0.4202 0.18289 0.0
C1056 C 0.89364 0.49226 0.19537 0.0
C1057 C 0.89019 0.45211 0.20637 0.0
C1058 C 0.89552 0.43616 0.22297 0.0
C1059 C 0.8783 0.48059 0.17517 0.0
C1060 C 0.86826 0.45419 0.17082 0.0
C1061 C 0.87469 0.44041 0.18629 0.0
C1062 C 0.85132 0.44041 0.15021 0.0
C1063 C 0.87327 0.49672 0.15855 0.0
C1064 C 0.82778 0.43968 0.14645 0.0
C1065 C 0.8118 0.42619 0.12713 0.0
C1066 C 0.81894 0.41292 0.11142 0.0
C1067 C 0.84239 0.41349 0.11549 0.0
C1068 C 0.85836 0.42707 0.13464 0.0
H1069 H 0.88793 0.51723 0.16084 0.0
H1070 H 0.87312 0.49065 0.14014 0.0
H1071 H 0.85422 0.49462 0.162 0.0
H1072 H 0.82165 0.44932 0.15857 0.0
H1073 H 0.79384 0.42606 0.12459 0.0
loop_
_geom_bond_atom_site_label_1
_geom_bond_atom_site_label_2
_geom_bond_distance
_geom_bond_site_symmetry_2
_ccdc_geom_bond_type
H0 C8 0.930 . S
H1 C11 0.930 . S
H2 C13 0.930 . S
H3 C14 0.970 . S
H4 C14 0.970 . S
H5 C16 0.930 . S
H6 C18 0.930 . S
H7 C20 0.930 . S
C8 H0 0.930 . S
C8 C9 1.382 . S
C8 C10 1.426 . S
C9 C8 1.382 . S
C9 C13 1.389 . S
C10 C8 1.426 . S
C10 C11 1.375 . S
C10 C14 1.532 1_655 S
C11 H1 0.930 . S
C11 C10 1.375 . S
C11 C12 1.416 . S
C12 C11 1.416 . S
C12 C13 1.371 . S
C13 H2 0.930 . S
C13 C9 1.389 . S
C13 C12 1.371 . S
C14 H3 0.970 . S
C14 H4 0.970 . S
C14 C10 1.532 1_455 S
C14 C15 1.499 . S
C15 C14 1.499 . S
C15 C16 1.370 . S
C15 C20 1.415 . S
C16 H5 0.930 . S
C16 C15 1.370 . S
C16 C17 1.407 . S
C17 C16 1.407 . S
C17 C18 1.365 . S
C18 H6 0.930 . S
C18 C17 1.365 . S
C18 C19 1.393 . S
C19 C18 1.393 . S
C19 C20 1.387 . S
C20 H7 0.930 . S
C20 C15 1.415 . S
C20 C19 1.387 . S
H21 C29 0.930 . S
H22 C32 0.930 . S
H23 C34 0.930 . S
H24 C35 0.970 . S
H25 C35 0.970 . S
H26 C37 0.930 . S
H27 C39 0.930 . S
H28 C41 0.930 . S
C29 H21 0.930 . S
C29 C30 1.382 . S
C29 C31 1.426 . S
C30 C29 1.382 . S
C30 C34 1.389 . S
C31 C29 1.426 . S
C31 C32 1.375 . S
C31 C35 1.532 1_565 S
C32 H22 0.930 . S
C32 C31 1.375 . S
C32 C33 1.416 . S
C33 C32 1.416 . S
C33 C34 1.371 . S
C34 H23 0.930 . S
C34 C30 1.389 . S
C34 C33 1.371 . S
C35 H24 0.970 . S
C35 H25 0.970 . S
C35 C31 1.532 1_545 S
C35 C36 1.499 . S
C36 C35 1.499 . S
C36 C37 1.370 . S
C36 C41 1.415 . S
C37 H26 0.930 . S
C37 C36 1.370 . S
C37 C38 1.407 . S
C38 C37 1.407 . S
C38 C39 1.365 . S
C39 H27 0.930 . S
C39 C38 1.365 . S
C39 C40 1.393 . S
C40 C39 1.393 . S
C40 C41 1.387 . S
C41 H28 0.930 . S
C41 C36 1.415 . S
C41 C40 1.387 . S
H42 C50 0.930 . S
H43 C53 0.930 . S
H44 C55 0.930 . S
H45 C56 0.970 . S
H46 C56 0.970 . S
H47 C58 0.930 . S
H48 C60 0.930 . S
H49 C62 0.930 . S
C50 H42 0.930 . S
C50 C51 1.382 . S
C50 C52 1.426 . S
C51 C50 1.382 . S
C51 C55 1.389 . S
C52 C50 1.426 . S
C52 C53 1.375 . S
C52 C56 1.532 . S
C53 H43 0.930 . S
C53 C52 1.375 . S
C53 C54 1.416 . S
C54 C53 1.416 . S
C54 C55 1.371 . S
C55 H44 0.930 . S
C55 C51 1.389 . S
C55 C54 1.371 . S
C56 H45 0.970 . S
C56 H46 0.970 . S
C56 C52 1.532 . S
C56 C57 1.499 . S
C57 C56 1.499 . S
C57 C58 1.370 . S
C57 C62 1.415 . S
C58 H47 0.930 . S
C58 C57 1.370 . S
C58 C59 1.407 . S
C59 C58 1.407 . S
C59 C60 1.365 . S
C60 H48 0.930 . S
C60 C59 1.365 . S
C60 C61 1.393 . S
C61 C60 1.393 . S
C61 C62 1.387 . S
C62 H49 0.930 . S
C62 C57 1.415 . S
C62 C61 1.387 . S
H63 C71 0.930 . S
H64 C74 0.930 . S
H65 C76 0.930 . S
H66 C77 0.970 . S
H67 C77 0.970 . S
H68 C79 0.930 . S
H69 C81 0.930 . S
H70 C83 0.930 . S
C71 H63 0.930 . S
C71 C72 1.382 . S
C71 C73 1.426 . S
C72 C71 1.382 . S
C72 C76 1.389 . S
C73 C71 1.426 . S
C73 C74 1.375 . S
C73 C77 1.532 1_655 S
C74 H64 0.930 . S
C74 C73 1.375 . S
C74 C75 1.416 . S
C75 C74 1.416 . S
C75 C76 1.371 . S
C76 H65 0.930 . S
C76 C72 1.389 . S
C76 C75 1.371 . S
C77 H66 0.970 . S
C77 H67 0.970 . S
C77 C73 1.532 1_455 S
C77 C78 1.499 . S
C78 C77 1.499 . S
C78 C79 1.370 . S
C78 C83 1.415 . S
C79 H68 0.930 . S
C79 C78 1.370 . S
C79 C80 1.407 . S
C80 C79 1.407 . S
C80 C81 1.365 . S
C81 H69 0.930 . S
C81 C80 1.365 . S
C81 C82 1.393 . S
C82 C81 1.393 . S
C82 C83 1.387 . S
C83 H70 0.930 . S
C83 C78 1.415 . S
C83 C82 1.387 . S
H84 C92 0.930 . S
H85 C95 0.930 . S
H86 C97 0.930 . S
H87 C98 0.970 1_554 S
H88 C98 0.970 . S
H89 C100 0.911 1_545 S
H90 C102 0.930 . S
H91 C104 0.930 . S
C92 H84 0.930 . S
C92 C93 1.382 1_554 S
C92 C94 1.426 1_554 S
C93 C92 1.382 1_556 S
C93 C97 1.389 . S
C94 C92 1.426 1_556 S
C94 C95 1.375 . S
C94 C98 1.532 . S
C95 H85 0.930 . S
C95 C94 1.375 . S
C95 C96 1.416 . S
C96 C95 1.416 . S
C96 C97 1.371 . S
C97 H86 0.930 . S
C97 C93 1.389 . S
C97 C96 1.371 . S
C98 H87 0.970 1_556 S
C98 H88 0.970 . S
C98 C94 1.532 . S
C98 C99 1.499 1_545 S
C99 C98 1.499 1_565 S
C99 C100 1.370 1_556 S
C99 C104 1.415 . S
C100 H89 0.911 1_565 S
C100 C99 1.370 1_554 S
C100 C101 1.407 . S
C101 C100 1.407 . S
C101 C102 1.365 . S
C102 H90 0.930 . S
C102 C101 1.365 . S
C102 C103 1.393 1_554 S
C103 C102 1.393 1_556 S
C103 C104 1.387 . S
C104 H91 0.930 . S
C104 C99 1.415 . S
C104 C103 1.387 . S
H105 C113 0.930 . S
H106 C116 0.930 . S
H107 C118 0.930 . S
H108 C119 0.970 . S
H109 C119 0.970 . S
H110 C121 0.930 . S
H111 C123 0.930 . S
H112 C125 0.930 . S
C113 H105 0.930 . S
C113 C114 1.382 . S
C113 C115 1.426 . S
C114 C113 1.382 . S
C114 C118 1.389 . S
C115 C113 1.426 . S
C115 C116 1.375 . S
C115 C119 1.532 . S
C116 H106 0.930 . S
C116 C115 1.375 . S
C116 C117 1.416 . S
C117 C116 1.416 . S
C117 C118 1.371 . S
C118 H107 0.930 . S
C118 C114 1.389 . S
C118 C117 1.371 . S
C119 H108 0.970 . S
C119 H109 0.970 . S
C119 C115 1.532 . S
C119 C120 1.499 . S
C120 C119 1.499 . S
C120 C121 1.370 . S
C120 C125 1.415 . S
C121 H110 0.930 . S
C121 C120 1.370 . S
C121 C122 1.407 . S
C122 C121 1.407 . S
C122 C123 1.365 . S
C123 H111 0.930 . S
C123 C122 1.365 . S
C123 C124 1.393 . S
C124 C123 1.393 . S
C124 C125 1.387 . S
C125 H112 0.930 . S
C125 C120 1.415 . S
C125 C124 1.387 . S
Mg126 O127 2.028 . S
Mg126 O133 1.986 . S
Mg126 O135 2.114 . S
Mg126 O136 2.251 . S
Mg126 O139 2.010 . S
O127 Mg126 2.028 . S
O127 C130 1.250 . S
O128 Mg129 2.028 . S
O128 C130 1.248 . S
Mg129 O128 2.028 . S
Mg129 O134 2.032 . S
Mg129 O136 2.079 . S
C130 O127 1.250 . S
C130 O128 1.248 . S
C131 O132 1.264 . S
C131 O139 1.249 . S
O132 C131 1.264 . S
O133 Mg126 1.986 . S
O133 C137 1.246 . S
O134 Mg129 2.032 . S
O134 C137 1.259 . S
O135 Mg126 2.114 . S
O135 C138 1.252 . S
O136 Mg126 2.251 . S
O136 Mg129 2.079 . S
O136 C138 1.273 . S
C137 O133 1.246 . S
C137 O134 1.259 . S
C138 O135 1.252 . S
C138 O136 1.273 . S
O139 Mg126 2.010 . S
O139 C131 1.249 . S
Mg140 O141 2.028 . S
Mg140 O147 1.986 . S
Mg140 O149 2.114 . S
Mg140 O150 2.251 . S
Mg140 O153 2.010 . S
O141 Mg140 2.028 . S
O141 C144 1.250 . S
O142 Mg143 2.028 . S
O142 C144 1.248 . S
Mg143 O142 2.028 . S
Mg143 O148 2.032 . S
Mg143 O150 2.079 . S
C144 O141 1.250 . S
C144 O142 1.248 . S
C145 O146 1.264 . S
C145 O153 1.249 . S
O146 C145 1.264 . S
O147 Mg140 1.986 . S
O147 C151 1.246 . S
O148 Mg143 2.032 . S
O148 C151 1.259 . S
O149 Mg140 2.114 . S
O149 C152 1.252 . S
O150 Mg140 2.251 . S
O150 Mg143 2.079 . S
O150 C152 1.273 . S
C151 O147 1.246 . S
C151 O148 1.259 . S
C152 O149 1.252 . S
C152 O150 1.273 . S
O153 Mg140 2.010 . S
O153 C145 1.249 . S
Mg154 O155 2.028 . S
Mg154 O161 1.986 . S
Mg154 O163 2.114 . S
Mg154 O164 2.251 . S
Mg154 O167 2.010 . S
O155 Mg154 2.028 . S
O155 C158 1.250 . S
O156 Mg157 2.028 . S
O156 C158 1.248 . S
Mg157 O156 2.028 . S
Mg157 O162 2.032 . S
Mg157 O164 2.079 . S
C158 O155 1.250 . S
C158 O156 1.248 . S
C159 O160 1.264 . S
C159 O167 1.249 . S
O160 C159 1.264 . S
O161 Mg154 1.986 . S
O161 C165 1.246 . S
O162 Mg157 2.032 . S
O162 C165 1.259 . S
O163 Mg154 2.114 . S
O163 C166 1.252 . S
O164 Mg154 2.251 . S
O164 Mg157 2.079 . S
O164 C166 1.273 . S
C165 O161 1.246 . S
C165 O162 1.259 . S
C166 O163 1.252 . S
C166 O164 1.273 . S
O167 Mg154 2.010 . S
O167 C159 1.249 . S
Mg168 O169 2.028 . S
Mg168 O175 1.986 . S
Mg168 O177 2.114 . S
Mg168 O178 2.251 . S
Mg168 O181 2.010 . S
O169 Mg168 2.028 . S
O169 C172 1.250 . S
O170 Mg171 2.028 . S
O170 C172 1.248 . S
Mg171 O170 2.028 . S
Mg171 O176 2.032 . S
Mg171 O178 2.079 . S
C172 O169 1.250 . S
C172 O170 1.248 . S
C173 O174 1.264 . S
C173 O181 1.249 . S
O174 C173 1.264 . S
O175 Mg168 1.986 . S
O175 C179 1.246 . S
O176 Mg171 2.032 . S
O176 C179 1.259 . S
O177 Mg168 2.114 . S
O177 C180 1.252 . S
O178 Mg168 2.251 . S
O178 Mg171 2.079 . S
O178 C180 1.273 . S
C179 O175 1.246 . S
C179 O176 1.259 . S
C180 O177 1.252 . S
C180 O178 1.273 . S
O181 Mg168 2.010 . S
O181 C173 1.249 . S
Mg182 O183 2.028 . S
Mg182 O189 1.986 . S
Mg182 O191 2.114 . S
Mg182 O192 2.251 . S
Mg182 O195 2.010 . S
O183 Mg182 2.028 . S
O183 C186 1.250 . S
O184 Mg185 2.028 . S
O184 C186 1.248 . S
Mg185 O184 2.028 . S
Mg185 O190 2.032 . S
Mg185 O192 2.079 . S
C186 O183 1.250 . S
C186 O184 1.248 . S
C187 O188 1.264 . S
C187 O195 1.249 . S
O188 C187 1.264 . S
O189 Mg182 1.986 . S
O189 C193 1.246 . S
O190 Mg185 2.032 . S
O190 C193 1.259 . S
O191 Mg182 2.114 . S
O191 C194 1.252 . S
O192 Mg182 2.251 . S
O192 Mg185 2.079 . S
O192 C194 1.273 . S
C193 O189 1.246 . S
C193 O190 1.259 . S
C194 O191 1.252 . S
C194 O192 1.273 . S
O195 Mg182 2.010 . S
O195 C187 1.249 . S
Mg196 O197 2.028 . S
Mg196 O203 1.986 . S
Mg196 O205 2.114 . S
Mg196 O206 2.251 . S
Mg196 O209 2.010 . S
O197 Mg196 2.028 . S
O197 C200 1.250 . S
O198 Mg199 2.028 . S
O198 C200 1.248 . S
Mg199 O198 2.028 . S
Mg199 O204 2.032 . S
Mg199 O206 2.079 . S
C200 O197 1.250 . S
C200 O198 1.248 . S
C201 O202 1.264 . S
C201 O209 1.249 . S
O202 C201 1.264 . S
O203 Mg196 1.986 . S
O203 C207 1.246 . S
O204 Mg199 2.032 . S
O204 C207 1.259 . S
O205 Mg196 2.114 . S
O205 C208 1.252 . S
O206 Mg196 2.251 . S
O206 Mg199 2.079 . S
O206 C208 1.273 . S
C207 O203 1.246 . S
C207 O204 1.259 . S
C208 O205 1.252 . S
C208 O206 1.273 . S
O209 Mg196 2.010 . S
O209 C201 1.249 . S
H210 C218 0.929 . S
H211 C220 0.930 . S
H212 C222 0.930 . S
H213 C225 0.929 . S
H214 C228 0.930 . S
H215 C230 0.960 . S
H216 C230 0.960 . S
H217 C230 0.960 . S
C218 H210 0.929 . S
C218 C219 1.377 . S
C218 C220 1.384 . S
C219 C218 1.377 . S
C219 C225 1.390 . S
C220 H211 0.930 . S
C220 C218 1.384 . S
C220 C221 1.372 . S
C221 C220 1.372 . S
C221 C222 1.400 . S
C221 C226 1.490 . S
C222 H212 0.930 . S
C222 C221 1.400 . S
C222 C225 1.386 . S
H223 C239 0.930 . S
H224 C240 0.931 . S
C225 H213 0.929 . S
C225 C219 1.390 . S
C225 C222 1.386 . S
C226 C221 1.490 . S
C226 C228 1.395 . S
C226 C229 1.403 . S
H227 C233 0.930 . S
C228 H214 0.930 . S
C228 C226 1.395 . S
C228 C231 1.403 . S
C229 C226 1.403 . S
C229 C230 1.524 . S
C229 C233 1.400 . S
C230 H215 0.960 . S
C230 H216 0.960 . S
C230 H217 0.960 . S
C230 C229 1.524 . S
C231 C228 1.403 . S
C231 C232 1.392 . S
C231 C235 1.495 . S
C232 C231 1.392 . S
C232 C233 1.385 . S
C232 C234 1.478 . S
C233 H227 0.930 . S
C233 C229 1.400 . S
C233 C232 1.385 . S
C234 C232 1.478 . S
C234 C236 1.381 . S
C234 C240 1.383 . S
C235 C231 1.495 . S
C235 H241 0.959 . S
C235 H242 0.961 . S
C235 H243 0.960 . S
C236 C234 1.381 . S
C236 C237 1.394 . S
C236 H244 0.930 . S
C237 C236 1.394 . S
C237 C238 1.383 . S
C237 H245 0.929 . S
C238 C237 1.383 . S
C238 C239 1.377 . S
C239 H223 0.930 . S
C239 C238 1.377 . S
C239 C240 1.379 . S
C240 H224 0.931 . S
C240 C234 1.383 . S
C240 C239 1.379 . S
H241 C235 0.959 . S
H242 C235 0.961 . S
H243 C235 0.960 . S
H244 C236 0.930 . S
H245 C237 0.929 . S
H246 C254 0.929 . S
H247 C256 0.930 . S
H248 C258 0.930 . S
H249 C261 0.929 . S
H250 C264 0.930 . S
H251 C266 0.960 . S
H252 C266 0.960 . S
H253 C266 0.960 . S
C254 H246 0.929 . S
C254 C255 1.377 . S
C254 C256 1.384 . S
C255 C254 1.377 . S
C255 C261 1.390 . S
C256 H247 0.930 . S
C256 C254 1.384 . S
C256 C257 1.372 . S
C257 C256 1.372 . S
C257 C258 1.400 . S
C257 C262 1.490 . S
C258 H248 0.930 . S
C258 C257 1.400 . S
C258 C261 1.386 . S
H259 C275 0.930 . S
H260 C276 0.931 . S
C261 H249 0.929 . S
C261 C255 1.390 . S
C261 C258 1.386 . S
C262 C257 1.490 . S
C262 C264 1.395 . S
C262 C265 1.403 . S
H263 C269 0.930 . S
C264 H250 0.930 . S
C264 C262 1.395 . S
C264 C267 1.403 . S
C265 C262 1.403 . S
C265 C266 1.524 . S
C265 C269 1.400 . S
C266 H251 0.960 . S
C266 H252 0.960 . S
C266 H253 0.960 . S
C266 C265 1.524 . S
C267 C264 1.403 . S
C267 C268 1.392 . S
C267 C271 1.495 . S
C268 C267 1.392 . S
C268 C269 1.385 . S
C268 C270 1.478 . S
C269 H263 0.930 . S
C269 C265 1.400 . S
C269 C268 1.385 . S
C270 C268 1.478 . S
C270 C272 1.381 . S
C270 C276 1.383 . S
C271 C267 1.495 . S
C271 H277 0.959 . S
C271 H278 0.961 . S
C271 H279 0.960 . S
C272 C270 1.381 . S
C272 C273 1.394 . S
C272 H280 0.930 . S
C273 C272 1.394 . S
C273 C274 1.383 . S
C273 H281 0.929 . S
C274 C273 1.383 . S
C274 C275 1.377 . S
C275 H259 0.930 . S
C275 C274 1.377 . S
C275 C276 1.379 . S
C276 H260 0.931 . S
C276 C270 1.383 . S
C276 C275 1.379 . S
H277 C271 0.959 . S
H278 C271 0.961 . S
H279 C271 0.960 . S
H280 C272 0.930 . S
H281 C273 0.929 . S
H282 C290 0.929 . S
H283 C292 0.930 . S
H284 C294 0.930 . S
H285 C297 0.929 . S
H286 C300 0.930 . S
H287 C302 0.960 . S
H288 C302 0.960 . S
H289 C302 0.960 . S
C290 H282 0.929 . S
C290 C291 1.377 . S
C290 C292 1.384 . S
C291 C290 1.377 . S
C291 C297 1.390 . S
C292 H283 0.930 . S
C292 C290 1.384 . S
C292 C293 1.372 . S
C293 C292 1.372 . S
C293 C294 1.400 . S
C293 C298 1.490 . S
C294 H284 0.930 . S
C294 C293 1.400 . S
C294 C297 1.386 . S
H295 C311 0.930 . S
H296 C312 0.931 . S
C297 H285 0.929 . S
C297 C291 1.390 . S
C297 C294 1.386 . S
C298 C293 1.490 . S
C298 C300 1.395 . S
C298 C301 1.403 . S
H299 C305 0.930 . S
C300 H286 0.930 . S
C300 C298 1.395 . S
C300 C303 1.403 . S
C301 C298 1.403 . S
C301 C302 1.524 . S
C301 C305 1.400 . S
C302 H287 0.960 . S
C302 H288 0.960 . S
C302 H289 0.960 . S
C302 C301 1.524 . S
C303 C300 1.403 . S
C303 C304 1.392 . S
C303 C307 1.495 . S
C304 C303 1.392 . S
C304 C305 1.385 . S
C304 C306 1.478 . S
C305 H299 0.930 . S
C305 C301 1.400 . S
C305 C304 1.385 . S
C306 C304 1.478 . S
C306 C308 1.381 . S
C306 C312 1.383 . S
C307 C303 1.495 . S
C307 H313 0.959 . S
C307 H314 0.961 . S
C307 H315 0.960 . S
C308 C306 1.381 . S
C308 C309 1.394 . S
C308 H316 0.930 . S
C309 C308 1.394 . S
C309 C310 1.383 . S
C309 H317 0.929 . S
C310 C309 1.383 . S
C310 C311 1.377 . S
C311 H295 0.930 . S
C311 C310 1.377 . S
C311 C312 1.379 . S
C312 H296 0.931 . S
C312 C306 1.383 . S
C312 C311 1.379 . S
H313 C307 0.959 . S
H314 C307 0.961 . S
H315 C307 0.960 . S
H316 C308 0.930 . S
H317 C309 0.929 . S
H318 C326 0.929 . S
H319 C328 0.930 . S
H320 C330 0.930 . S
H321 C333 0.929 . S
H322 C336 0.930 . S
H323 C338 0.960 . S
H324 C338 0.960 . S
H325 C338 0.960 . S
C326 H318 0.929 . S
C326 C327 1.377 . S
C326 C328 1.384 . S
C327 C326 1.377 . S
C327 C333 1.390 . S
C328 H319 0.930 . S
C328 C326 1.384 . S
C328 C329 1.372 . S
C329 C328 1.372 . S
C329 C330 1.400 . S
C329 C334 1.490 . S
C330 H320 0.930 . S
C330 C329 1.400 . S
C330 C333 1.386 . S
H331 C347 0.930 . S
H332 C348 0.931 . S
C333 H321 0.929 . S
C333 C327 1.390 . S
C333 C330 1.386 . S
C334 C329 1.490 . S
C334 C336 1.395 . S
C334 C337 1.403 . S
H335 C341 0.930 . S
C336 H322 0.930 . S
C336 C334 1.395 . S
C336 C339 1.403 . S
C337 C334 1.403 . S
C337 C338 1.524 . S
C337 C341 1.400 . S
C338 H323 0.960 . S
C338 H324 0.960 . S
C338 H325 0.960 . S
C338 C337 1.524 . S
C339 C336 1.403 . S
C339 C340 1.392 . S
C339 C343 1.495 . S
C340 C339 1.392 . S
C340 C341 1.385 . S
C340 C342 1.478 . S
C341 H335 0.930 . S
C341 C337 1.400 . S
C341 C340 1.385 . S
C342 C340 1.478 . S
C342 C344 1.381 . S
C342 C348 1.383 . S
C343 C339 1.495 . S
C343 H349 0.959 . S
C343 H350 0.961 . S
C343 H351 0.960 . S
C344 C342 1.381 . S
C344 C345 1.394 . S
C344 H352 0.930 . S
C345 C344 1.394 . S
C345 C346 1.383 . S
C345 H353 0.929 . S
C346 C345 1.383 . S
C346 C347 1.377 . S
C347 H331 0.930 . S
C347 C346 1.377 . S
C347 C348 1.379 . S
C348 H332 0.931 . S
C348 C342 1.383 . S
C348 C347 1.379 . S
H349 C343 0.959 . S
H350 C343 0.961 . S
H351 C343 0.960 . S
H352 C344 0.930 . S
H353 C345 0.929 . S
H354 C362 0.929 . S
H355 C364 0.930 . S
H356 C366 0.930 . S
H357 C369 0.929 . S
H358 C372 0.930 . S
H359 C374 0.960 . S
H360 C374 0.960 . S
H361 C374 0.960 . S
C362 H354 0.929 . S
C362 C363 1.377 . S
C362 C364 1.384 . S
C363 C362 1.377 . S
C363 C369 1.390 . S
C364 H355 0.930 . S
C364 C362 1.384 . S
C364 C365 1.372 . S
C365 C364 1.372 . S
C365 C366 1.400 . S
C365 C370 1.490 . S
C366 H356 0.930 . S
C366 C365 1.400 . S
C366 C369 1.386 . S
H367 C383 0.930 . S
H368 C384 0.931 . S
C369 H357 0.929 . S
C369 C363 1.390 . S
C369 C366 1.386 . S
C370 C365 1.490 . S
C370 C372 1.395 . S
C370 C373 1.403 . S
H371 C377 0.930 . S
C372 H358 0.930 . S
C372 C370 1.395 . S
C372 C375 1.403 . S
C373 C370 1.403 . S
C373 C374 1.524 . S
C373 C377 1.400 . S
C374 H359 0.960 . S
C374 H360 0.960 . S
C374 H361 0.960 . S
C374 C373 1.524 . S
C375 C372 1.403 . S
C375 C376 1.392 . S
C375 C379 1.495 . S
C376 C375 1.392 . S
C376 C377 1.385 . S
C376 C378 1.478 . S
C377 H371 0.930 . S
C377 C373 1.400 . S
C377 C376 1.385 . S
C378 C376 1.478 . S
C378 C380 1.381 . S
C378 C384 1.383 . S
C379 C375 1.495 . S
C379 H385 0.959 . S
C379 H386 0.961 . S
C379 H387 0.960 . S
C380 C378 1.381 . S
C380 C381 1.394 . S
C380 H388 0.930 . S
C381 C380 1.394 . S
C381 C382 1.383 . S
C381 H389 0.929 . S
C382 C381 1.383 . S
C382 C383 1.377 . S
C383 H367 0.930 . S
C383 C382 1.377 . S
C383 C384 1.379 . S
C384 H368 0.931 . S
C384 C378 1.383 . S
C384 C383 1.379 . S
H385 C379 0.959 . S
H386 C379 0.961 . S
H387 C379 0.960 . S
H388 C380 0.930 . S
H389 C381 0.929 . S
H390 C398 0.929 . S
H391 C400 0.930 . S
H392 C402 0.930 . S
H393 C405 0.929 . S
H394 C408 0.930 . S
H395 C410 0.960 . S
H396 C410 0.960 . S
H397 C410 0.960 . S
C398 H390 0.929 . S
C398 C399 1.377 . S
C398 C400 1.384 . S
C399 C398 1.377 . S
C399 C405 1.390 . S
C400 H391 0.930 . S
C400 C398 1.384 . S
C400 C401 1.372 . S
C401 C400 1.372 . S
C401 C402 1.400 . S
C401 C406 1.490 . S
C402 H392 0.930 . S
C402 C401 1.400 . S
C402 C405 1.386 . S
H403 C419 0.930 . S
H404 C420 0.931 . S
C405 H393 0.929 . S
C405 C399 1.390 . S
C405 C402 1.386 . S
C406 C401 1.490 . S
C406 C408 1.395 . S
C406 C409 1.403 . S
H407 C413 0.930 . S
C408 H394 0.930 . S
C408 C406 1.395 . S
C408 C411 1.403 . S
C409 C406 1.403 . S
C409 C410 1.524 . S
C409 C413 1.400 . S
C410 H395 0.960 . S
C410 H396 0.960 . S
C410 H397 0.960 . S
C410 C409 1.524 . S
C411 C408 1.403 . S
C411 C412 1.392 . S
C411 C415 1.495 . S
C412 C411 1.392 . S
C412 C413 1.385 . S
C412 C414 1.478 . S
C413 H407 0.930 . S
C413 C409 1.400 . S
C413 C412 1.385 . S
C414 C412 1.478 . S
C414 C416 1.381 . S
C414 C420 1.383 . S
C415 C411 1.495 . S
C415 H421 0.959 . S
C415 H422 0.961 . S
C415 H423 0.960 . S
C416 C414 1.381 . S
C416 C417 1.394 . S
C416 H424 0.930 . S
C417 C416 1.394 . S
C417 C418 1.383 . S
C417 H425 0.929 . S
C418 C417 1.383 . S
C418 C419 1.377 . S
C419 H403 0.930 . S
C419 C418 1.377 . S
C419 C420 1.379 . S
C420 H404 0.931 . S
C420 C414 1.383 . S
C420 C419 1.379 . S
H421 C415 0.959 . S
H422 C415 0.961 . S
H423 C415 0.960 . S
H424 C416 0.930 . S
H425 C417 0.929 . S
H426 C434 0.929 . S
H427 C436 0.930 . S
H428 C438 0.930 . S
H429 C441 0.929 . S
H430 C444 0.930 . S
H431 C446 0.960 . S
H432 C446 0.960 . S
H433 C446 0.960 . S
C434 H426 0.929 . S
C434 C435 1.377 . S
C434 C436 1.384 . S
C435 C434 1.377 . S
C435 C441 1.390 . S
C436 H427 0.930 . S
C436 C434 1.384 . S
C436 C437 1.372 . S
C437 C436 1.372 . S
C437 C438 1.400 . S
C437 C442 1.490 . S
C438 H428 0.930 . S
C438 C437 1.400 . S
C438 C441 1.386 . S
H439 C455 0.930 . S
H440 C456 0.931 . S
C441 H429 0.929 . S
C441 C435 1.390 . S
C441 C438 1.386 . S
C442 C437 1.490 . S
C442 C444 1.395 . S
C442 C445 1.403 . S
H443 C449 0.930 . S
C444 H430 0.930 . S
C444 C442 1.395 . S
C444 C447 1.403 . S
C445 C442 1.403 . S
C445 C446 1.524 . S
C445 C449 1.400 . S
C446 H431 0.960 . S
C446 H432 0.960 . S
C446 H433 0.960 . S
C446 C445 1.524 . S
C447 C444 1.403 . S
C447 C448 1.392 . S
C447 C451 1.495 . S
C448 C447 1.392 . S
C448 C449 1.385 . S
C448 C450 1.478 . S
C449 H443 0.930 . S
C449 C445 1.400 . S
C449 C448 1.385 . S
C450 C448 1.478 . S
C450 C452 1.381 . S
C450 C456 1.383 . S
C451 C447 1.495 . S
C451 H457 0.959 . S
C451 H458 0.961 . S
C451 H459 0.960 . S
C452 C450 1.381 . S
C452 C453 1.394 . S
C452 H460 0.930 . S
C453 C452 1.394 . S
C453 C454 1.383 . S
C453 H461 0.929 . S
C454 C453 1.383 . S
C454 C455 1.377 . S
C455 H439 0.930 . S
C455 C454 1.377 . S
C455 C456 1.379 . S
C456 H440 0.931 . S
C456 C450 1.383 . S
C456 C455 1.379 . S
H457 C451 0.959 . S
H458 C451 0.961 . S
H459 C451 0.960 . S
H460 C452 0.930 . S
H461 C453 0.929 . S
H462 C470 0.929 . S
H463 C472 0.930 . S
H464 C474 0.930 . S
H465 C477 0.929 . S
H466 C480 0.930 . S
H467 C482 0.960 . S
H468 C482 0.960 . S
H469 C482 0.960 . S
C470 H462 0.929 . S
C470 C471 1.377 . S
C470 C472 1.384 . S
C471 C470 1.377 . S
C471 C477 1.390 . S
C472 H463 0.930 . S
C472 C470 1.384 . S
C472 C473 1.372 . S
C473 C472 1.372 . S
C473 C474 1.400 . S
C473 C478 1.490 . S
C474 H464 0.930 . S
C474 C473 1.400 . S
C474 C477 1.386 . S
H475 C491 0.930 . S
H476 C492 0.931 . S
C477 H465 0.929 . S
C477 C471 1.390 . S
C477 C474 1.386 . S
C478 C473 1.490 . S
C478 C480 1.395 . S
C478 C481 1.403 . S
H479 C485 0.930 . S
C480 H466 0.930 . S
C480 C478 1.395 . S
C480 C483 1.403 . S
C481 C478 1.403 . S
C481 C482 1.524 . S
C481 C485 1.400 . S
C482 H467 0.960 . S
C482 H468 0.960 . S
C482 H469 0.960 . S
C482 C481 1.524 . S
C483 C480 1.403 . S
C483 C484 1.392 . S
C483 C487 1.495 . S
C484 C483 1.392 . S
C484 C485 1.385 . S
C484 C486 1.478 . S
C485 H479 0.930 . S
C485 C481 1.400 . S
C485 C484 1.385 . S
C486 C484 1.478 . S
C486 C488 1.381 . S
C486 C492 1.383 . S
C487 C483 1.495 . S
C487 H493 0.959 . S
C487 H494 0.961 . S
C487 H495 0.960 . S
C488 C486 1.381 . S
C488 C489 1.394 . S
C488 H496 0.930 . S
C489 C488 1.394 . S
C489 C490 1.383 . S
C489 H497 0.929 . S
C490 C489 1.383 . S
C490 C491 1.377 . S
C491 H475 0.930 . S
C491 C490 1.377 . S
C491 C492 1.379 . S
C492 H476 0.931 . S
C492 C486 1.383 . S
C492 C491 1.379 . S
H493 C487 0.959 . S
H494 C487 0.961 . S
H495 C487 0.960 . S
H496 C488 0.930 . S
H497 C489 0.929 . S
H498 C506 0.929 . S
H499 C508 0.930 . S
H500 C510 0.930 . S
H501 C513 0.929 . S
H502 C516 0.930 . S
H503 C518 0.960 . S
H504 C518 0.960 . S
H505 C518 0.960 . S
C506 H498 0.929 . S
C506 C507 1.377 . S
C506 C508 1.384 . S
C507 C506 1.377 . S
C507 C513 1.390 . S
C508 H499 0.930 . S
C508 C506 1.384 . S
C508 C509 1.372 . S
C509 C508 1.372 . S
C509 C510 1.400 . S
C509 C514 1.490 . S
C510 H500 0.930 . S
C510 C509 1.400 . S
C510 C513 1.386 . S
H511 C527 0.930 . S
H512 C528 0.931 . S
C513 H501 0.929 . S
C513 C507 1.390 . S
C513 C510 1.386 . S
C514 C509 1.490 . S
C514 C516 1.395 . S
C514 C517 1.403 . S
H515 C521 0.930 . S
C516 H502 0.930 . S
C516 C514 1.395 . S
C516 C519 1.403 . S
C517 C514 1.403 . S
C517 C518 1.524 . S
C517 C521 1.400 . S
C518 H503 0.960 . S
C518 H504 0.960 . S
C518 H505 0.960 . S
C518 C517 1.524 . S
C519 C516 1.403 . S
C519 C520 1.392 . S
C519 C523 1.495 . S
C520 C519 1.392 . S
C520 C521 1.385 . S
C520 C522 1.478 . S
C521 H515 0.930 . S
C521 C517 1.400 . S
C521 C520 1.385 . S
C522 C520 1.478 . S
C522 C524 1.381 . S
C522 C528 1.383 . S
C523 C519 1.495 . S
C523 H529 0.959 . S
C523 H530 0.961 . S
C523 H531 0.960 . S
C524 C522 1.381 . S
C524 C525 1.394 . S
C524 H532 0.930 . S
C525 C524 1.394 . S
C525 C526 1.383 . S
C525 H533 0.929 . S
C526 C525 1.383 . S
C526 C527 1.377 . S
C527 H511 0.930 . S
C527 C526 1.377 . S
C527 C528 1.379 . S
C528 H512 0.931 . S
C528 C522 1.383 . S
C528 C527 1.379 . S
H529 C523 0.959 . S
H530 C523 0.961 . S
H531 C523 0.960 . S
H532 C524 0.930 . S
H533 C525 0.929 . S
H534 C542 0.929 . S
H535 C544 0.930 . S
H536 C546 0.930 . S
H537 C549 0.929 . S
H538 C552 0.930 . S
H539 C554 0.960 . S
H540 C554 0.960 . S
H541 C554 0.960 . S
C542 H534 0.929 . S
C542 C543 1.377 . S
C542 C544 1.384 . S
C543 C542 1.377 . S
C543 C549 1.390 . S
C544 H535 0.930 . S
C544 C542 1.384 . S
C544 C545 1.372 . S
C545 C544 1.372 . S
C545 C546 1.400 . S
C545 C550 1.490 . S
C546 H536 0.930 . S
C546 C545 1.400 . S
C546 C549 1.386 . S
H547 C563 0.930 . S
H548 C564 0.931 . S
C549 H537 0.929 . S
C549 C543 1.390 . S
C549 C546 1.386 . S
C550 C545 1.490 . S
C550 C552 1.395 . S
C550 C553 1.403 . S
H551 C557 0.930 . S
C552 H538 0.930 . S
C552 C550 1.395 . S
C552 C555 1.403 . S
C553 C550 1.403 . S
C553 C554 1.524 1_554 S
C553 C557 1.400 . S
C554 H539 0.960 . S
C554 H540 0.960 . S
C554 H541 0.960 . S
C554 C553 1.524 1_556 S
C555 C552 1.403 . S
C555 C556 1.392 . S
C555 C559 1.495 . S
C556 C555 1.392 . S
C556 C557 1.385 . S
C556 C558 1.478 . S
C557 H551 0.930 . S
C557 C553 1.400 . S
C557 C556 1.385 . S
C558 C556 1.478 . S
C558 C560 1.381 . S
C558 C564 1.383 . S
C559 C555 1.495 . S
C559 H565 0.959 . S
C559 H566 0.961 . S
C559 H567 0.960 . S
C560 C558 1.381 . S
C560 C561 1.394 . S
C560 H568 0.930 . S
C561 C560 1.394 . S
C561 C562 1.383 . S
C561 H569 0.929 . S
C562 C561 1.383 . S
C562 C563 1.377 . S
C563 H547 0.930 . S
C563 C562 1.377 . S
C563 C564 1.379 . S
C564 H548 0.931 . S
C564 C558 1.383 . S
C564 C563 1.379 . S
H565 C559 0.959 . S
H566 C559 0.961 . S
H567 C559 0.960 . S
H568 C560 0.930 . S
H569 C561 0.929 . S
H570 C578 0.929 . S
H571 C580 0.930 . S
H572 C582 0.930 . S
H573 C585 0.929 . S
H574 C588 0.930 . S
H575 C590 0.960 . S
H576 C590 0.960 . S
H577 C590 0.960 . S
C578 H570 0.929 . S
C578 C579 1.377 . S
C578 C580 1.384 . S
C579 C578 1.377 . S
C579 C585 1.390 . S
C580 H571 0.930 . S
C580 C578 1.384 . S
C580 C581 1.372 . S
C581 C580 1.372 . S
C581 C582 1.400 . S
C581 C586 1.490 . S
C582 H572 0.930 . S
C582 C581 1.400 . S
C582 C585 1.386 . S
H583 C599 0.930 . S
H584 C600 0.931 . S
C585 H573 0.929 . S
C585 C579 1.390 . S
C585 C582 1.386 . S
C586 C581 1.490 . S
C586 C588 1.395 . S
C586 C589 1.403 . S
H587 C593 0.930 . S
C588 H574 0.930 . S
C588 C586 1.395 . S
C588 C591 1.403 . S
C589 C586 1.403 . S
C589 C590 1.524 . S
C589 C593 1.400 . S
C590 H575 0.960 . S
C590 H576 0.960 . S
C590 H577 0.960 . S
C590 C589 1.524 . S
C591 C588 1.403 . S
C591 C592 1.392 . S
C591 C595 1.495 . S
C592 C591 1.392 . S
C592 C593 1.385 . S
C592 C594 1.478 . S
C593 H587 0.930 . S
C593 C589 1.400 . S
C593 C592 1.385 . S
C594 C592 1.478 . S
C594 C596 1.381 . S
C594 C600 1.383 . S
C595 C591 1.495 . S
C595 H601 0.959 . S
C595 H602 0.961 . S
C595 H603 0.960 . S
C596 C594 1.381 . S
C596 C597 1.394 . S
C596 H604 0.930 . S
C597 C596 1.394 . S
C597 C598 1.383 . S
C597 H605 0.929 . S
C598 C597 1.383 . S
C598 C599 1.377 . S
C599 H583 0.930 . S
C599 C598 1.377 . S
C599 C600 1.379 . S
C600 H584 0.931 . S
C600 C594 1.383 . S
C600 C599 1.379 . S
H601 C595 0.959 . S
H602 C595 0.961 . S
H603 C595 0.960 . S
H604 C596 0.930 . S
H605 C597 0.929 . S
H606 C614 0.929 . S
H607 C616 0.930 . S
H608 C618 0.930 . S
H609 C621 0.929 . S
H610 C624 0.930 . S
H611 C626 0.960 . S
H612 C626 0.960 . S
H613 C626 0.960 . S
C614 H606 0.929 . S
C614 C615 1.377 . S
C614 C616 1.384 . S
C615 C614 1.377 . S
C615 C621 1.390 . S
C616 H607 0.930 . S
C616 C614 1.384 . S
C616 C617 1.372 . S
C617 C616 1.372 . S
C617 C618 1.400 . S
C617 C622 1.490 . S
C618 H608 0.930 . S
C618 C617 1.400 . S
C618 C621 1.386 . S
H619 C635 0.930 . S
H620 C636 0.931 . S
C621 H609 0.929 . S
C621 C615 1.390 . S
C621 C618 1.386 . S
C622 C617 1.490 . S
C622 C624 1.395 . S
C622 C625 1.403 . S
H623 C629 0.930 . S
C624 H610 0.930 . S
C624 C622 1.395 . S
C624 C627 1.403 . S
C625 C622 1.403 . S
C625 C626 1.524 . S
C625 C629 1.400 . S
C626 H611 0.960 . S
C626 H612 0.960 . S
C626 H613 0.960 . S
C626 C625 1.524 . S
C627 C624 1.403 . S
C627 C628 1.392 . S
C627 C631 1.495 . S
C628 C627 1.392 . S
C628 C629 1.385 . S
C628 C630 1.478 . S
C629 H623 0.930 . S
C629 C625 1.400 . S
C629 C628 1.385 . S
C630 C628 1.478 . S
C630 C632 1.381 . S
C630 C636 1.383 . S
C631 C627 1.495 . S
C631 H637 0.959 . S
C631 H638 0.961 . S
C631 H639 0.960 . S
C632 C630 1.381 . S
C632 C633 1.394 . S
C632 H640 0.930 . S
C633 C632 1.394 . S
C633 C634 1.383 . S
C633 H641 0.929 . S
C634 C633 1.383 . S
C634 C635 1.377 . S
C635 H619 0.930 . S
C635 C634 1.377 . S
C635 C636 1.379 . S
C636 H620 0.931 . S
C636 C630 1.383 . S
C636 C635 1.379 . S
H637 C631 0.959 . S
H638 C631 0.961 . S
H639 C631 0.960 . S
H640 C632 0.930 . S
H641 C633 0.929 . S
H642 C650 0.929 . S
H643 C652 0.930 . S
H644 C654 0.930 . S
H645 C657 0.929 . S
H646 C660 0.930 . S
H647 C662 0.960 . S
H648 C662 0.960 . S
H649 C662 0.960 . S
C650 H642 0.929 . S
C650 C651 1.377 . S
C650 C652 1.384 . S
C651 C650 1.377 . S
C651 C657 1.390 . S
C652 H643 0.930 . S
C652 C650 1.384 . S
C652 C653 1.372 . S
C653 C652 1.372 . S
C653 C654 1.400 . S
C653 C658 1.490 . S
C654 H644 0.930 . S
C654 C653 1.400 . S
C654 C657 1.386 . S
H655 C671 0.930 . S
H656 C672 0.931 . S
C657 H645 0.929 . S
C657 C651 1.390 . S
C657 C654 1.386 . S
C658 C653 1.490 . S
C658 C660 1.395 . S
C658 C661 1.403 . S
H659 C665 0.930 . S
C660 H646 0.930 . S
C660 C658 1.395 . S
C660 C663 1.403 . S
C661 C658 1.403 . S
C661 C662 1.524 . S
C661 C665 1.400 . S
C662 H647 0.960 . S
C662 H648 0.960 . S
C662 H649 0.960 . S
C662 C661 1.524 . S
C663 C660 1.403 . S
C663 C664 1.392 . S
C663 C667 1.495 . S
C664 C663 1.392 . S
C664 C665 1.385 . S
C664 C666 1.478 . S
C665 H659 0.930 . S
C665 C661 1.400 . S
C665 C664 1.385 . S
C666 C664 1.478 . S
C666 C668 1.381 . S
C666 C672 1.383 . S
C667 C663 1.495 . S
C667 H673 0.959 . S
C667 H674 0.961 . S
C667 H675 0.960 . S
C668 C666 1.381 . S
C668 C669 1.394 . S
C668 H676 0.930 . S
C669 C668 1.394 . S
C669 C670 1.383 . S
C669 H677 0.929 . S
C670 C669 1.383 . S
C670 C671 1.377 . S
C671 H655 0.930 . S
C671 C670 1.377 . S
C671 C672 1.379 . S
C672 H656 0.931 . S
C672 C666 1.383 . S
C672 C671 1.379 . S
H673 C667 0.959 . S
H674 C667 0.961 . S
H675 C667 0.960 . S
H676 C668 0.930 . S
H677 C669 0.929 . S
H678 C686 0.929 . S
H679 C688 0.930 . S
H680 C690 0.930 . S
H681 C693 0.929 . S
H682 C696 0.930 . S
H683 C698 0.960 . S
H684 C698 0.960 . S
H685 C698 0.960 . S
C686 H678 0.929 . S
C686 C687 1.377 . S
C686 C688 1.384 . S
C687 C686 1.377 . S
C687 C693 1.390 . S
C688 H679 0.930 . S
C688 C686 1.384 . S
C688 C689 1.372 . S
C689 C688 1.372 . S
C689 C690 1.400 . S
C689 C694 1.490 . S
C690 H680 0.930 . S
C690 C689 1.400 . S
C690 C693 1.386 . S
H691 C707 0.930 . S
H692 C708 0.931 . S
C693 H681 0.929 . S
C693 C687 1.390 . S
C693 C690 1.386 . S
C694 C689 1.490 . S
C694 C696 1.395 . S
C694 C697 1.403 . S
H695 C701 0.930 . S
C696 H682 0.930 . S
C696 C694 1.395 . S
C696 C699 1.403 . S
C697 C694 1.403 . S
C697 C698 1.524 . S
C697 C701 1.400 . S
C698 H683 0.960 . S
C698 H684 0.960 . S
C698 H685 0.960 . S
C698 C697 1.524 . S
C699 C696 1.403 . S
C699 C700 1.392 . S
C699 C703 1.495 . S
C700 C699 1.392 . S
C700 C701 1.385 . S
C700 C702 1.478 . S
C701 H695 0.930 . S
C701 C697 1.400 . S
C701 C700 1.385 . S
C702 C700 1.478 . S
C702 C704 1.381 . S
C702 C708 1.383 . S
C703 C699 1.495 . S
C703 H709 0.959 . S
C703 H710 0.961 . S
C703 H711 0.960 . S
C704 C702 1.381 . S
C704 C705 1.394 . S
C704 H712 0.930 . S
C705 C704 1.394 . S
C705 C706 1.383 . S
C705 H713 0.929 . S
C706 C705 1.383 . S
C706 C707 1.377 . S
C707 H691 0.930 . S
C707 C706 1.377 . S
C707 C708 1.379 . S
C708 H692 0.931 . S
C708 C702 1.383 . S
C708 C707 1.379 . S
H709 C703 0.959 . S
H710 C703 0.961 . S
H711 C703 0.960 . S
H712 C704 0.930 . S
H713 C705 0.929 . S
H714 C722 0.929 . S
H715 C724 0.930 . S
H716 C726 0.930 . S
H717 C729 0.929 . S
H718 C732 0.930 . S
H719 C734 0.960 . S
H720 C734 0.960 . S
H721 C734 0.960 . S
C722 H714 0.929 . S
C722 C723 1.377 . S
C722 C724 1.384 . S
C723 C722 1.377 . S
C723 C729 1.390 . S
C724 H715 0.930 . S
C724 C722 1.384 . S
C724 C725 1.372 . S
C725 C724 1.372 . S
C725 C726 1.400 . S
C725 C730 1.490 . S
C726 H716 0.930 . S
C726 C725 1.400 . S
C726 C729 1.386 . S
H727 C743 0.930 . S
H728 C744 0.931 . S
C729 H717 0.929 . S
C729 C723 1.390 . S
C729 C726 1.386 . S
C730 C725 1.490 . S
C730 C732 1.395 . S
C730 C733 1.403 . S
H731 C737 0.930 . S
C732 H718 0.930 . S
C732 C730 1.395 . S
C732 C735 1.403 . S
C733 C730 1.403 . S
C733 C734 1.524 . S
C733 C737 1.400 . S
C734 H719 0.960 . S
C734 H720 0.960 . S
C734 H721 0.960 . S
C734 C733 1.524 . S
C735 C732 1.403 . S
C735 C736 1.392 . S
C735 C739 1.495 . S
C736 C735 1.392 . S
C736 C737 1.385 . S
C736 C738 1.478 . S
C737 H731 0.930 . S
C737 C733 1.400 . S
C737 C736 1.385 . S
C738 C736 1.478 . S
C738 C740 1.381 . S
C738 C744 1.383 . S
C739 C735 1.495 . S
C739 H745 0.959 . S
C739 H746 0.961 . S
C739 H747 0.960 . S
C740 C738 1.381 . S
C740 C741 1.394 . S
C740 H748 0.930 . S
C741 C740 1.394 . S
C741 C742 1.383 . S
C741 H749 0.929 . S
C742 C741 1.383 . S
C742 C743 1.377 . S
C743 H727 0.930 . S
C743 C742 1.377 . S
C743 C744 1.379 . S
C744 H728 0.931 . S
C744 C738 1.383 . S
C744 C743 1.379 . S
H745 C739 0.959 . S
H746 C739 0.961 . S
H747 C739 0.960 . S
H748 C740 0.930 . S
H749 C741 0.929 . S
H750 C758 0.929 . S
H751 C760 0.930 . S
H752 C762 0.930 . S
H753 C765 0.929 . S
H754 C768 0.930 . S
H755 C770 0.960 . S
H756 C770 0.960 . S
H757 C770 0.960 . S
C758 H750 0.929 . S
C758 C759 1.377 . S
C758 C760 1.384 . S
C759 C758 1.377 . S
C759 C765 1.390 . S
C760 H751 0.930 . S
C760 C758 1.384 . S
C760 C761 1.372 . S
C761 C760 1.372 . S
C761 C762 1.400 . S
C761 C766 1.490 . S
C762 H752 0.930 . S
C762 C761 1.400 . S
C762 C765 1.386 . S
H763 C779 0.930 . S
H764 C780 0.929 1_554 S
C765 H753 0.929 . S
C765 C759 1.390 . S
C765 C762 1.386 . S
C766 C761 1.490 . S
C766 C768 1.395 . S
C766 C769 1.403 . S
H767 C773 0.930 . S
C768 H754 0.930 . S
C768 C766 1.395 . S
C768 C771 1.403 . S
C769 C766 1.403 . S
C769 C770 1.524 . S
C769 C773 1.400 . S
C770 H755 0.960 . S
C770 H756 0.960 . S
C770 H757 0.960 . S
C770 C769 1.524 . S
C771 C768 1.403 . S
C771 C772 1.392 . S
C771 C775 1.495 . S
C772 C771 1.392 . S
C772 C773 1.385 . S
C772 C774 1.478 . S
C773 H767 0.930 . S
C773 C769 1.400 . S
C773 C772 1.385 . S
C774 C772 1.478 . S
C774 C776 1.381 . S
C774 C780 1.393 . S
C775 C771 1.495 . S
C775 H781 0.959 . S
C775 H782 0.961 . S
C775 H783 0.960 . S
C776 C774 1.381 . S
C776 C777 1.394 . S
C776 H784 0.930 . S
C777 C776 1.394 . S
C777 C778 1.383 1_556 S
C777 H785 0.929 . S
C778 C777 1.383 1_554 S
C778 C779 1.377 . S
C779 H763 0.930 . S
C779 C778 1.377 . S
C779 C780 1.371 1_554 S
C780 H764 0.929 1_556 S
C780 C774 1.393 . S
C780 C779 1.371 1_556 S
H781 C775 0.959 . S
H782 C775 0.961 . S
H783 C775 0.960 . S
H784 C776 0.930 . S
H785 C777 0.929 . S
H786 C794 0.929 . S
H787 C796 0.930 . S
H788 C798 0.930 . S
H789 C801 0.929 . S
H790 C804 0.930 . S
H791 C806 0.960 . S
H792 C806 0.960 . S
H793 C806 0.960 . S
C794 H786 0.929 . S
C794 C795 1.377 . S
C794 C796 1.384 . S
C795 C794 1.377 . S
C795 C801 1.390 . S
C796 H787 0.930 . S
C796 C794 1.384 . S
C796 C797 1.372 . S
C797 C796 1.372 . S
C797 C798 1.400 . S
C797 C802 1.490 . S
C798 H788 0.930 . S
C798 C797 1.400 . S
C798 C801 1.386 . S
H799 C815 0.930 . S
H800 C816 0.931 . S
C801 H789 0.929 . S
C801 C795 1.390 . S
C801 C798 1.386 . S
C802 C797 1.490 . S
C802 C804 1.395 . S
C802 C805 1.403 . S
H803 C809 0.930 . S
C804 H790 0.930 . S
C804 C802 1.395 . S
C804 C807 1.403 . S
C805 C802 1.403 . S
C805 C806 1.524 . S
C805 C809 1.400 . S
C806 H791 0.960 . S
C806 H792 0.960 . S
C806 H793 0.960 . S
C806 C805 1.524 . S
C807 C804 1.403 . S
C807 C808 1.392 . S
C807 C811 1.495 . S
C808 C807 1.392 . S
C808 C809 1.385 . S
C808 C810 1.478 . S
C809 H803 0.930 . S
C809 C805 1.400 . S
C809 C808 1.385 . S
C810 C808 1.478 . S
C810 C812 1.381 . S
C810 C816 1.383 . S
C811 C807 1.495 . S
C811 H817 0.959 . S
C811 H818 0.961 . S
C811 H819 0.960 . S
C812 C810 1.381 . S
C812 C813 1.394 . S
C812 H820 0.930 . S
C813 C812 1.394 . S
C813 C814 1.383 . S
C813 H821 0.929 . S
C814 C813 1.383 . S
C814 C815 1.377 . S
C815 H799 0.930 . S
C815 C814 1.377 . S
C815 C816 1.379 . S
C816 H800 0.931 . S
C816 C810 1.383 . S
C816 C815 1.379 . S
H817 C811 0.959 . S
H818 C811 0.961 . S
H819 C811 0.960 . S
H820 C812 0.930 . S
H821 C813 0.929 . S
H822 C830 0.929 . S
H823 C832 0.930 . S
H824 C834 0.930 . S
H825 C837 0.929 . S
H826 C840 0.930 . S
H827 C842 0.960 . S
H828 C842 0.960 . S
H829 C842 0.960 . S
C830 H822 0.929 . S
C830 C831 1.377 . S
C830 C832 1.384 . S
C831 C830 1.377 . S
C831 C837 1.390 . S
C832 H823 0.930 . S
C832 C830 1.384 . S
C832 C833 1.372 . S
C833 C832 1.372 . S
C833 C834 1.400 . S
C833 C838 1.490 . S
C834 H824 0.930 . S
C834 C833 1.400 . S
C834 C837 1.386 . S
H835 C851 0.930 . S
H836 C852 0.931 . S
C837 H825 0.929 . S
C837 C831 1.390 . S
C837 C834 1.386 . S
C838 C833 1.490 . S
C838 C840 1.395 . S
C838 C841 1.403 . S
H839 C845 0.930 . S
C840 H826 0.930 . S
C840 C838 1.395 . S
C840 C843 1.403 . S
C841 C838 1.403 . S
C841 C842 1.524 . S
C841 C845 1.400 . S
C842 H827 0.960 . S
C842 H828 0.960 . S
C842 H829 0.960 . S
C842 C841 1.524 . S
C843 C840 1.403 . S
C843 C844 1.392 . S
C843 C847 1.495 . S
C844 C843 1.392 . S
C844 C845 1.385 . S
C844 C846 1.478 . S
C845 H839 0.930 . S
C845 C841 1.400 . S
C845 C844 1.385 . S
C846 C844 1.478 . S
C846 C848 1.381 . S
C846 C852 1.383 . S
C847 C843 1.495 . S
C847 H853 0.959 . S
C847 H854 0.961 . S
C847 H855 0.960 . S
C848 C846 1.381 . S
C848 C849 1.394 . S
C848 H856 0.930 . S
C849 C848 1.394 . S
C849 C850 1.383 . S
C849 H857 0.929 . S
C850 C849 1.383 . S
C850 C851 1.377 . S
C851 H835 0.930 . S
C851 C850 1.377 . S
C851 C852 1.379 . S
C852 H836 0.931 . S
C852 C846 1.383 . S
C852 C851 1.379 . S
H853 C847 0.959 . S
H854 C847 0.961 . S
H855 C847 0.960 . S
H856 C848 0.930 . S
H857 C849 0.929 . S
H858 C866 0.929 . S
H859 C868 0.930 . S
H860 C870 0.930 . S
H861 C873 0.929 . S
H862 C876 0.930 . S
H863 C878 0.960 . S
H864 C878 0.960 . S
H865 C878 0.960 . S
C866 H858 0.929 . S
C866 C867 1.377 . S
C866 C868 1.384 . S
C867 C866 1.377 . S
C867 C873 1.390 . S
C868 H859 0.930 . S
C868 C866 1.384 . S
C868 C869 1.372 . S
C869 C868 1.372 . S
C869 C870 1.400 . S
C869 C874 1.490 . S
C870 H860 0.930 . S
C870 C869 1.400 . S
C870 C873 1.386 . S
H871 C887 0.930 . S
H872 C888 0.931 . S
C873 H861 0.929 . S
C873 C867 1.390 . S
C873 C870 1.386 . S
C874 C869 1.490 . S
C874 C876 1.395 . S
C874 C877 1.403 . S
H875 C881 0.930 . S
C876 H862 0.930 . S
C876 C874 1.395 . S
C876 C879 1.403 . S
C877 C874 1.403 . S
C877 C878 1.524 . S
C877 C881 1.400 . S
C878 H863 0.960 . S
C878 H864 0.960 . S
C878 H865 0.960 . S
C878 C877 1.524 . S
C879 C876 1.403 . S
C879 C880 1.392 . S
C879 C883 1.495 . S
C880 C879 1.392 . S
C880 C881 1.385 . S
C880 C882 1.478 . S
C881 H875 0.930 . S
C881 C877 1.400 . S
C881 C880 1.385 . S
C882 C880 1.478 . S
C882 C884 1.381 . S
C882 C888 1.383 . S
C883 C879 1.495 . S
C883 H889 0.959 . S
C883 H890 0.961 . S
C883 H891 0.960 . S
C884 C882 1.381 . S
C884 C885 1.394 . S
C884 H892 0.930 . S
C885 C884 1.394 . S
C885 C886 1.383 . S
C885 H893 0.929 . S
C886 C885 1.383 . S
C886 C887 1.377 . S
C887 H871 0.930 . S
C887 C886 1.377 . S
C887 C888 1.379 . S
C888 H872 0.931 . S
C888 C882 1.383 . S
C888 C887 1.379 . S
H889 C883 0.959 . S
H890 C883 0.961 . S
H891 C883 0.960 . S
H892 C884 0.930 . S
H893 C885 0.929 . S
H894 C902 0.929 . S
H895 C904 0.930 . S
H896 C906 0.930 . S
H897 C909 0.929 . S
H898 C912 0.930 . S
H899 C914 0.960 . S
H900 C914 0.960 . S
H901 C914 0.960 . S
C902 H894 0.929 . S
C902 C903 1.377 . S
C902 C904 1.384 . S
C903 C902 1.377 . S
C903 C909 1.390 . S
C904 H895 0.930 . S
C904 C902 1.384 . S
C904 C905 1.372 . S
C905 C904 1.372 . S
C905 C906 1.400 . S
C905 C910 1.490 . S
C906 H896 0.930 . S
C906 C905 1.400 . S
C906 C909 1.386 . S
H907 C923 0.930 . S
H908 C924 0.931 . S
C909 H897 0.929 . S
C909 C903 1.390 . S
C909 C906 1.386 . S
C910 C905 1.490 . S
C910 C912 1.395 . S
C910 C913 1.403 . S
H911 C917 0.930 . S
C912 H898 0.930 . S
C912 C910 1.395 . S
C912 C915 1.403 . S
C913 C910 1.403 . S
C913 C914 1.524 . S
C913 C917 1.400 . S
C914 H899 0.960 . S
C914 H900 0.960 . S
C914 H901 0.960 . S
C914 C913 1.524 . S
C915 C912 1.403 . S
C915 C916 1.392 . S
C915 C919 1.495 . S
C916 C915 1.392 . S
C916 C917 1.385 . S
C916 C918 1.478 . S
C917 H911 0.930 . S
C917 C913 1.400 . S
C917 C916 1.385 . S
C918 C916 1.478 . S
C918 C920 1.381 . S
C918 C924 1.383 . S
C919 C915 1.495 . S
C919 H925 0.959 . S
C919 H926 0.961 . S
C919 H927 0.960 . S
C920 C918 1.381 . S
C920 C921 1.394 . S
C920 H928 0.930 . S
C921 C920 1.394 . S
C921 C922 1.383 . S
C921 H929 0.929 . S
C922 C921 1.383 . S
C922 C923 1.377 . S
C923 H907 0.930 . S
C923 C922 1.377 . S
C923 C924 1.379 . S
C924 H908 0.931 . S
C924 C918 1.383 . S
C924 C923 1.379 . S
H925 C919 0.959 . S
H926 C919 0.961 . S
H927 C919 0.960 . S
H928 C920 0.930 . S
H929 C921 0.929 . S
H930 C938 0.929 . S
H931 C940 0.930 . S
H932 C942 0.930 . S
H933 C945 0.929 . S
H934 C948 0.930 . S
H935 C950 0.960 . S
H936 C950 0.960 . S
H937 C950 0.960 . S
C938 H930 0.929 . S
C938 C939 1.377 . S
C938 C940 1.384 . S
C939 C938 1.377 . S
C939 C945 1.390 . S
C940 H931 0.930 . S
C940 C938 1.384 . S
C940 C941 1.372 . S
C941 C940 1.372 . S
C941 C942 1.400 . S
C941 C946 1.490 . S
C942 H932 0.930 . S
C942 C941 1.400 . S
C942 C945 1.386 . S
H943 C959 0.930 . S
H944 C960 0.931 . S
C945 H933 0.929 . S
C945 C939 1.390 . S
C945 C942 1.386 . S
C946 C941 1.490 . S
C946 C948 1.395 . S
C946 C949 1.403 . S
H947 C953 0.930 . S
C948 H934 0.930 . S
C948 C946 1.395 . S
C948 C951 1.403 . S
C949 C946 1.403 . S
C949 C950 1.524 . S
C949 C953 1.400 . S
C950 H935 0.960 . S
C950 H936 0.960 . S
C950 H937 0.960 . S
C950 C949 1.524 . S
C951 C948 1.403 . S
C951 C952 1.392 . S
C951 C955 1.495 . S
C952 C951 1.392 . S
C952 C953 1.385 . S
C952 C954 1.478 . S
C953 H947 0.930 . S
C953 C949 1.400 . S
C953 C952 1.385 . S
C954 C952 1.478 . S
C954 C956 1.381 . S
C954 C960 1.383 . S
C955 C951 1.495 . S
C955 H961 0.959 . S
C955 H962 0.961 . S
C955 H963 0.960 . S
C956 C954 1.381 . S
C956 C957 1.394 . S
C956 H964 0.930 . S
C957 C956 1.394 . S
C957 C958 1.383 . S
C957 H965 0.929 . S
C958 C957 1.383 . S
C958 C959 1.377 . S
C959 H943 0.930 . S
C959 C958 1.377 . S
C959 C960 1.379 . S
C960 H944 0.931 . S
C960 C954 1.383 . S
C960 C959 1.379 . S
H961 C955 0.959 . S
H962 C955 0.961 . S
H963 C955 0.960 . S
H964 C956 0.930 . S
H965 C957 0.929 . S
H966 C974 0.929 . S
H967 C976 0.930 . S
H968 C978 0.930 . S
H969 C981 0.929 . S
H970 C984 0.930 . S
H971 C986 0.960 . S
H972 C986 0.960 . S
H973 C986 0.960 . S
C974 H966 0.929 . S
C974 C975 1.377 . S
C974 C976 1.384 . S
C975 C974 1.377 . S
C975 C981 1.390 . S
C976 H967 0.930 . S
C976 C974 1.384 . S
C976 C977 1.372 . S
C977 C976 1.372 . S
C977 C978 1.400 . S
C977 C982 1.490 . S
C978 H968 0.930 . S
C978 C977 1.400 . S
C978 C981 1.386 . S
H979 C995 0.930 . S
H980 C996 0.931 . S
C981 H969 0.929 . S
C981 C975 1.390 . S
C981 C978 1.386 . S
C982 C977 1.490 . S
C982 C984 1.395 . S
C982 C985 1.403 . S
H983 C989 0.930 . S
C984 H970 0.930 . S
C984 C982 1.395 . S
C984 C987 1.403 . S
C985 C982 1.403 . S
C985 C986 1.524 . S
C985 C989 1.400 . S
C986 H971 0.960 . S
C986 H972 0.960 . S
C986 H973 0.960 . S
C986 C985 1.524 . S
C987 C984 1.403 . S
C987 C988 1.392 . S
C987 C991 1.495 . S
C988 C987 1.392 . S
C988 C989 1.385 . S
C988 C990 1.478 . S
C989 H983 0.930 . S
C989 C985 1.400 . S
C989 C988 1.385 . S
C990 C988 1.478 . S
C990 C992 1.381 . S
C990 C996 1.383 . S
C991 C987 1.495 . S
C991 H997 0.959 . S
C991 H998 0.961 . S
C991 H999 0.960 . S
C992 C990 1.381 . S
C992 C993 1.394 . S
C992 H1000 0.930 . S
C993 C992 1.394 . S
C993 C994 1.383 . S
C993 H1001 0.929 . S
C994 C993 1.383 . S
C994 C995 1.377 . S
C995 H979 0.930 . S
C995 C994 1.377 . S
C995 C996 1.379 . S
C996 H980 0.931 . S
C996 C990 1.383 . S
C996 C995 1.379 . S
H997 C991 0.959 . S
H998 C991 0.961 . S
H999 C991 0.960 . S
H1000 C992 0.930 . S
H1001 C993 0.929 . S
H1002 C1010 0.929 . S
H1003 C1012 0.930 . S
H1004 C1014 0.930 . S
H1005 C1017 0.929 . S
H1006 C1020 0.930 . S
H1007 C1022 0.960 . S
H1008 C1022 0.960 . S
H1009 C1022 0.960 . S
C1010 H1002 0.929 . S
C1010 C1011 1.377 . S
C1010 C1012 1.384 . S
C1011 C1010 1.377 . S
C1011 C1017 1.390 . S
C1012 H1003 0.930 . S
C1012 C1010 1.384 . S
C1012 C1013 1.372 . S
C1013 C1012 1.372 . S
C1013 C1014 1.400 . S
C1013 C1018 1.490 . S
C1014 H1004 0.930 . S
C1014 C1013 1.400 . S
C1014 C1017 1.386 . S
H1015 C1031 0.930 . S
H1016 C1032 0.931 . S
C1017 H1005 0.929 . S
C1017 C1011 1.390 . S
C1017 C1014 1.386 . S
C1018 C1013 1.490 . S
C1018 C1020 1.395 . S
C1018 C1021 1.403 . S
H1019 C1025 0.930 . S
C1020 H1006 0.930 . S
C1020 C1018 1.395 . S
C1020 C1023 1.384 1_554 S
C1021 C1018 1.403 . S
C1021 C1022 1.524 . S
C1021 C1025 1.400 . S
C1022 H1007 0.960 . S
C1022 H1008 0.960 . S
C1022 H1009 0.960 . S
C1022 C1021 1.524 . S
C1023 C1020 1.384 1_556 S
C1023 C1024 1.390 1_556 S
C1023 C1027 1.517 . S
C1024 C1023 1.390 1_554 S
C1024 C1025 1.385 . S
C1024 C1026 1.478 1_554 S
C1025 H1019 0.930 . S
C1025 C1021 1.400 . S
C1025 C1024 1.385 . S
C1026 C1024 1.478 1_556 S
C1026 C1028 1.381 . S
C1026 C1032 1.383 . S
C1027 C1023 1.517 . S
C1027 H1033 0.959 . S
C1027 H1034 0.961 . S
C1027 H1035 0.960 . S
C1028 C1026 1.381 . S
C1028 C1029 1.394 . S
C1028 H1036 0.930 . S
C1029 C1028 1.394 . S
C1029 C1030 1.383 . S
C1029 H1037 0.929 . S
C1030 C1029 1.383 . S
C1030 C1031 1.377 . S
C1031 H1015 0.930 . S
C1031 C1030 1.377 . S
C1031 C1032 1.379 . S
C1032 H1016 0.931 . S
C1032 C1026 1.383 . S
C1032 C1031 1.379 . S
H1033 C1027 0.959 . S
H1034 C1027 0.961 . S
H1035 C1027 0.960 . S
H1036 C1028 0.930 . S
H1037 C1029 0.929 . S
H1038 C1046 0.929 . S
H1039 C1048 0.930 . S
H1040 C1050 0.930 . S
H1041 C1053 0.929 . S
H1042 C1056 0.930 . S
H1043 C1058 0.960 . S
H1044 C1058 0.960 . S
H1045 C1058 0.960 . S
C1046 H1038 0.929 . S
C1046 C1047 1.377 . S
C1046 C1048 1.384 . S
C1047 C1046 1.377 . S
C1047 C1053 1.390 . S
C1048 H1039 0.930 . S
C1048 C1046 1.384 . S
C1048 C1049 1.372 . S
C1049 C1048 1.372 . S
C1049 C1050 1.400 . S
C1049 C1054 1.490 . S
C1050 H1040 0.930 . S
C1050 C1049 1.400 . S
C1050 C1053 1.386 . S
H1051 C1067 0.930 . S
H1052 C1068 0.931 . S
C1053 H1041 0.929 . S
C1053 C1047 1.390 . S
C1053 C1050 1.386 . S
C1054 C1049 1.490 . S
C1054 C1056 1.395 . S
C1054 C1057 1.403 . S
H1055 C1061 0.930 . S
C1056 H1042 0.930 . S
C1056 C1054 1.395 . S
C1056 C1059 1.403 . S
C1057 C1054 1.403 . S
C1057 C1058 1.524 . S
C1057 C1061 1.400 . S
C1058 H1043 0.960 . S
C1058 H1044 0.960 . S
C1058 H1045 0.960 . S
C1058 C1057 1.524 . S
C1059 C1056 1.403 . S
C1059 C1060 1.392 . S
C1059 C1063 1.495 . S
C1060 C1059 1.392 . S
C1060 C1061 1.385 . S
C1060 C1062 1.478 . S
C1061 H1055 0.930 . S
C1061 C1057 1.400 . S
C1061 C1060 1.385 . S
C1062 C1060 1.478 . S
C1062 C1064 1.381 . S
C1062 C1068 1.383 . S
C1063 C1059 1.495 . S
C1063 H1069 0.959 . S
C1063 H1070 0.961 . S
C1063 H1071 0.960 . S
C1064 C1062 1.381 . S
C1064 C1065 1.394 . S
C1064 H1072 0.930 . S
C1065 C1064 1.394 . S
C1065 C1066 1.383 . S
C1065 H1073 0.929 . S
C1066 C1065 1.383 . S
C1066 C1067 1.377 . S
C1067 H1051 0.930 . S
C1067 C1066 1.377 . S
C1067 C1068 1.379 . S
C1068 H1052 0.931 . S
C1068 C1062 1.383 . S
C1068 C1067 1.379 . S
H1069 C1063 0.959 . S
H1070 C1063 0.961 . S
H1071 C1063 0.960 . S
H1072 C1064 0.930 . S
H1073 C1065 0.929 . S
C238 C201 1.324 . S
C219 C19 1.417 . S
C255 C40 1.437 . S
C274 C131 1.263 . S
C291 C51 1.400 . S
C310 C151 1.507 . S
C327 C72 1.336 . S
C346 C165 1.428 . S
C382 C173 1.195 . S
C363 C103 1.385 . S
C399 C114 1.393 . S
C418 C187 1.218 . S
C435 C30 1.421 . S
C454 C145 1.258 . S
C471 C61 1.394 . S
C490 C159 1.270 . S
C507 C82 1.336 . S
C526 C179 1.408 . S
C562 C193 1.464 . S
C543 C93 1.358 1_554 S
C598 C207 1.462 . S
C579 C124 1.372 . S
C634 C137 1.489 . S
C615 C9 1.385 . S
C651 C17 1.397 . S
C670 C144 1.470 . S
C687 C38 1.402 . S
C706 C158 1.448 . S
C742 C180 1.467 . S
C723 C54 1.377 . S
C759 C75 1.395 . S
C778 C194 1.482 . S
C814 C208 1.442 . S
C795 C101 1.354 . S
C850 C138 1.435 . S
C831 C117 1.341 . S
C886 C200 1.413 . S
C867 C33 1.376 . S
C903 C59 1.397 . S
C922 C130 1.432 . S
C958 C152 1.463 . S
C939 C80 1.382 . S
C975 C96 1.387 . S
C994 C166 1.479 . S
C1011 C122 1.437 . S
C1030 C172 1.480 . S
C1047 C12 1.418 . S
C1066 C186 1.488 . S
