# Generated by pormake.
# Topology zzz, (3,6)-cn, num edge types: 1
# Building blocks:
#     Node 0, Type 0, BuildingBlock: BETDAH_clean_linker_0, # of connection points: 3
#     Node 1, Type 0, BuildingBlock: BETDAH_clean_linker_0, # of connection points: 3
#     Node 2, Type 0, BuildingBlock: BETDAH_clean_linker_0, # of connection points: 3
#     Node 3, Type 0, BuildingBlock: BETDAH_clean_linker_0, # of connection points: 3
#     Node 4, Type 0, BuildingBlock: BETDAH_clean_linker_0, # of connection points: 3
#     Node 5, Type 0, BuildingBlock: BETDAH_clean_linker_0, # of connection points: 3
#     Node 6, Type 0, BuildingBlock: BETDAH_clean_linker_0, # of connection points: 3
#     Node 7, Type 0, BuildingBlock: BETDAH_clean_linker_0, # of connection points: 3
#     Node 8, Type 1, BuildingBlock: HISSIN_clean_sbu_0, # of connection points: 6
#     Node 9, Type 1, BuildingBlock: HISSIN_clean_sbu_0, # of connection points: 6
#     Node 10, Type 1, BuildingBlock: HISSIN_clean_sbu_0, # of connection points: 6
#     Node 11, Type 1, BuildingBlock: HISSIN_clean_sbu_0, # of connection points: 6
#     Edge 12, Type (0, 1), BuildingBlock: OJICUG_clean_linker_0, # of connection points: 2
#     Edge 13, Type (0, 1), BuildingBlock: OJICUG_clean_linker_0, # of connection points: 2
#     Edge 14, Type (0, 1), BuildingBlock: OJICUG_clean_linker_0, # of connection points: 2
#     Edge 15, Type (0, 1), BuildingBlock: OJICUG_clean_linker_0, # of connection points: 2
#     Edge 16, Type (0, 1), BuildingBlock: OJICUG_clean_linker_0, # of connection points: 2
#     Edge 17, Type (0, 1), BuildingBlock: OJICUG_clean_linker_0, # of connection points: 2
#     Edge 18, Type (0, 1), BuildingBlock: OJICUG_clean_linker_0, # of connection points: 2
#     Edge 19, Type (0, 1), BuildingBlock: OJICUG_clean_linker_0, # of connection points: 2
#     Edge 20, Type (0, 1), BuildingBlock: OJICUG_clean_linker_0, # of connection points: 2
#     Edge 21, Type (0, 1), BuildingBlock: OJICUG_clean_linker_0, # of connection points: 2
#     Edge 22, Type (0, 1), BuildingBlock: OJICUG_clean_linker_0, # of connection points: 2
#     Edge 23, Type (0, 1), BuildingBlock: OJICUG_clean_linker_0, # of connection points: 2
#     Edge 24, Type (0, 1), BuildingBlock: OJICUG_clean_linker_0, # of connection points: 2
#     Edge 25, Type (0, 1), BuildingBlock: OJICUG_clean_linker_0, # of connection points: 2
#     Edge 26, Type (0, 1), BuildingBlock: OJICUG_clean_linker_0, # of connection points: 2
#     Edge 27, Type (0, 1), BuildingBlock: OJICUG_clean_linker_0, # of connection points: 2
#     Edge 28, Type (0, 1), BuildingBlock: OJICUG_clean_linker_0, # of connection points: 2
#     Edge 29, Type (0, 1), BuildingBlock: OJICUG_clean_linker_0, # of connection points: 2
#     Edge 30, Type (0, 1), BuildingBlock: OJICUG_clean_linker_0, # of connection points: 2
#     Edge 31, Type (0, 1), BuildingBlock: OJICUG_clean_linker_0, # of connection points: 2
#     Edge 32, Type (0, 1), BuildingBlock: OJICUG_clean_linker_0, # of connection points: 2
#     Edge 33, Type (0, 1), BuildingBlock: OJICUG_clean_linker_0, # of connection points: 2
#     Edge 34, Type (0, 1), BuildingBlock: OJICUG_clean_linker_0, # of connection points: 2
#     Edge 35, Type (0, 1), BuildingBlock: OJICUG_clean_linker_0, # of connection points: 2
# Relax obj value: 0.361
# Max RMSD: 0.208
# Mean RMSD: 0.100
data_MOF--net-zzz--node1-HISSIN_clean_sbu_0--node2-BETDAH_clean_linker_0--edge1-OJICUG_clean_linker_0
_symmetry_space_group_name_H-M    P1
_symmetry_Int_Tables_number       1
_symmetry_cell_setting            triclinic
loop_
_symmetry_equiv_pos_as_xyz
'x, y, z'
_cell_length_a     36.322016
_cell_length_b     36.388853
_cell_length_c     12.083607
_cell_angle_alpha  89.922767
_cell_angle_beta   91.372535
_cell_angle_gamma 90.410616
loop_
_atom_site_label
_atom_site_type_symbol
_atom_site_fract_x
_atom_site_fract_y
_atom_site_fract_z
_atom_type_partial_charge
H0 H 0.84387 0.47416 0.44672 0.0
H1 H 0.74024 0.49168 0.27613 0.0
H2 H 0.7818 0.57067 0.51569 0.0
C3 C 0.81866 0.48964 0.43552 0.0
C4 C 0.81554 0.52254 0.49387 0.0
C5 C 0.79219 0.4785 0.35544 0.0
C6 C 0.76071 0.50017 0.33765 0.0
C7 C 0.75651 0.53348 0.39523 0.0
C8 C 0.78433 0.54471 0.47288 0.0
N9 N 0.7255 0.5567 0.37364 0.0
C10 C 0.69868 0.55103 0.28962 0.0
H11 H 0.1033 0.84286 0.42073 0.0
H12 H 0.08075 0.74329 0.24066 0.0
H13 H 1.00542 0.78053 0.48748 0.0
C14 C 0.08662 0.81828 0.40843 0.0
C15 C 0.05397 0.81465 0.4669 0.0
C16 C 0.09606 0.79311 0.32591 0.0
C17 C 0.07351 0.76228 0.30543 0.0
C18 C 0.041 0.75694 0.36453 0.0
C19 C 0.031 0.78372 0.44413 0.0
N20 N 1.0174 0.72588 0.34269 0.0
C21 C 1.02295 0.69864 0.26215 0.0
H22 H 0.72331 0.10122 0.415 0.0
H23 H 0.82082 0.07809 0.23451 0.0
H24 H 0.7815 1.00055 0.47652 0.0
C25 C 0.74704 0.08394 0.40211 0.0
C26 C 0.74947 0.05046 0.45925 0.0
C27 C 0.77217 0.09372 0.32017 0.0
C28 C 0.80185 0.07054 0.29867 0.0
C29 C 0.80595 0.03701 0.35527 0.0
C30 C 0.77919 0.02679 0.43463 0.0
N31 N 0.83569 1.01271 0.33093 0.0
C32 C 0.86281 1.01856 0.25083 0.0
H33 H 0.47469 0.71738 0.43197 0.0
H34 H 0.49207 0.82003 0.26341 0.0
H35 H 0.57336 0.77927 0.49881 0.0
C36 C 0.49052 0.7424 0.42076 0.0
C37 C 0.5242 0.74566 0.47854 0.0
C38 C 0.47884 0.76851 0.34163 0.0
C39 C 0.50094 0.79975 0.32379 0.0
C40 C 0.53517 0.804 0.37971 0.0
C41 C 0.54681 0.77658 0.45674 0.0
N42 N 0.55878 0.83471 0.35728 0.0
C43 C 0.55252 0.86152 0.27505 0.0
H44 H 0.22281 0.59252 0.10674 0.0
H45 H 0.32373 0.57095 0.28682 0.0
H46 H 0.28646 0.49778 0.02553 0.0
C47 C 0.24785 0.57665 0.11703 0.0
C48 C 0.25181 0.54488 0.05356 0.0
C49 C 0.27324 0.58582 0.20222 0.0
C50 C 0.30457 0.56404 0.21984 0.0
C51 C 0.31016 0.53259 0.15478 0.0
C52 C 0.28321 0.52277 0.07282 0.0
N53 N 0.34155 0.50965 0.17305 0.0
C54 C 0.36859 0.51458 0.25684 0.0
H55 H 0.96766 0.21339 0.11247 0.0
H56 H 0.98846 0.31291 0.29481 0.0
H57 H 0.06502 0.27702 0.04974 0.0
C58 C 0.98397 0.23817 0.12566 0.0
C59 C 1.01678 0.24231 0.06828 0.0
C60 C 0.97398 0.26305 0.20837 0.0
C61 C 0.9961 0.29413 0.22991 0.0
C62 C 0.02872 0.29997 0.17184 0.0
C63 C 0.0393 0.27347 0.09216 0.0
N64 N 0.0519 0.33125 0.19486 0.0
C65 C 0.04598 0.35814 0.27617 0.0
H66 H 0.3528 0.9599 0.12001 0.0
H67 H 0.25497 0.98078 0.30199 0.0
H68 H 0.29208 0.05903 0.05893 0.0
C69 C 0.32864 0.97653 0.13325 0.0
C70 C 0.32529 1.00992 0.07618 0.0
C71 C 0.30393 0.96627 0.21587 0.0
C72 C 0.27364 0.98869 0.23739 0.0
C73 C 0.26855 0.022 0.1803 0.0
C74 C 0.295 0.03284 0.10076 0.0
N75 N 0.2382 0.04557 0.20443 0.0
C76 C 0.21121 0.03927 0.28468 0.0
H77 H 0.60521 0.34511 0.11669 0.0
H78 H 0.58346 0.24579 0.29688 0.0
H79 H 0.50779 0.28186 0.03851 0.0
C80 C 0.58883 0.32035 0.12733 0.0
C81 C 0.55617 0.31627 0.06453 0.0
C82 C 0.59841 0.29554 0.21231 0.0
C83 C 0.57614 0.26453 0.23033 0.0
C84 C 0.54366 0.25881 0.16678 0.0
C85 C 0.53346 0.28525 0.08499 0.0
N86 N 0.52013 0.22782 0.18661 0.0
C87 C 0.52563 0.20115 0.26972 0.0
Eu88 Eu 1.00552 0.0391 0.67102 0.0
Eu89 Eu 0.06786 1.01812 0.86456 0.0
C90 C 0.03861 0.10366 0.83817 0.0
C91 C 0.93058 0.08726 0.5039 0.0
C92 C 0.91812 0.09499 0.39621 0.0
C93 C 0.9135 0.14863 0.5606 0.0
C94 C 0.9058 0.13011 0.36897 0.0
C95 C 0.9261 0.11343 0.58758 0.0
C96 C 0.90626 0.15825 0.44923 0.0
C97 C 0.95511 0.05593 0.52176 0.0
O98 O 1.01304 1.01169 0.95215 0.0
O99 O 0.97275 0.03899 0.8287 0.0
C100 C 0.9801 0.0247 0.9267 0.0
O101 O 1.0103 0.97694 0.65604 0.0
O102 O 0.08263 0.9929 0.02248 0.0
O103 O 0.12433 0.02185 0.93146 0.0
O104 O 0.05921 0.96386 0.77391 0.0
C105 C 0.03461 0.95369 0.69773 0.0
O106 O 0.05939 0.04013 0.57689 0.0
O107 O 0.10235 0.02454 0.71132 0.0
O108 O 0.05954 0.0794 0.89014 0.0
O109 O 0.98997 0.06382 0.51306 0.0
O110 O 0.94882 0.0348 0.60651 0.0
O111 O 1.0175 0.09458 0.75193 0.0
C112 C 0.14168 0.96873 0.03212 0.0
C113 C 0.15421 0.96058 0.13947 0.0
C114 C 0.15746 0.90712 0.97408 0.0
C115 C 0.16587 0.92517 0.16591 0.0
C116 C 0.14552 0.94261 0.94792 0.0
C117 C 0.16472 0.89717 0.08516 0.0
C118 C 0.11759 1.00044 1.01513 0.0
C119 C 0.09366 0.03302 0.60813 0.0
H120 H 0.92154 0.07513 0.33073 0.0
H121 H 0.91315 0.16923 0.62514 0.0
H122 H 0.90047 0.13597 0.28225 0.0
H123 H 0.93547 0.10779 0.67167 0.0
H124 H 0.15136 0.9804 0.20534 0.0
H125 H 0.15727 0.88662 0.9092 0.0
H126 H 0.17125 0.91904 0.25244 0.0
H127 H 0.13612 0.94858 0.86407 0.0
Eu128 Eu 0.54936 0.06237 0.86509 0.0
Eu129 Eu 0.52692 0.999 0.68061 0.0
C130 C 0.54366 0.9759 0.93708 0.0
C131 C 0.59817 0.13873 0.02616 0.0
C132 C 0.60659 0.15157 0.1327 0.0
C133 C 0.65865 0.15803 0.967 0.0
C134 C 0.6418 0.16494 0.15847 0.0
C135 C 0.6234 0.14428 0.94156 0.0
C136 C 0.66931 0.16515 0.07789 0.0
C137 C 0.56749 0.11276 1.01118 0.0
O138 O 0.47122 1.01244 0.75478 0.0
O139 O 0.48886 0.05098 0.89791 0.0
C140 C 0.46341 0.03168 0.84386 0.0
O141 O 0.53837 0.09601 0.71021 0.0
O142 O 0.53113 0.94184 0.62637 0.0
O143 O 0.50197 0.98148 0.52404 0.0
O144 O 0.52765 0.0516 0.57801 0.0
C145 C 0.53205 0.08631 0.60671 0.0
O146 O 0.6019 0.05665 0.76703 0.0
O147 O 0.58948 1.00359 0.6696 0.0
O148 O 0.5251 0.96905 0.84478 0.0
O149 O 0.54469 0.11847 0.92825 0.0
O150 O 0.57678 0.07836 0.01967 0.0
O151 O 0.56025 1.00783 0.95305 0.0
C152 C 0.47904 0.92164 0.52132 0.0
C153 C 0.45291 0.91666 0.60371 0.0
C154 C 0.43611 0.89621 0.3855 0.0
C155 C 0.41767 0.90349 0.57543 0.0
C156 C 0.47134 0.90894 0.41416 0.0
C157 C 0.40789 0.89642 0.46384 0.0
C158 C 0.51014 0.94697 0.53877 0.0
C159 C 0.61226 0.03037 0.69957 0.0
H160 H 0.58737 0.14757 0.1988 0.0
H161 H 0.67864 0.15909 0.90201 0.0
H162 H 0.64836 0.17036 0.24478 0.0
H163 H 0.61713 0.13478 0.85821 0.0
H164 H 0.45857 0.92611 0.68745 0.0
H165 H 0.43023 0.89086 0.29878 0.0
H166 H 0.39709 0.90275 0.63878 0.0
H167 H 0.49126 0.91257 0.3497 0.0
Eu168 Eu 0.50321 0.53922 0.84555 0.0
Eu169 Eu 0.56958 0.52057 0.67825 0.0
C170 C 0.58792 0.53845 0.93584 0.0
C171 C 0.4378 0.59748 0.99674 0.0
C172 C 0.46235 0.62624 0.97545 0.0
C173 C 0.39588 0.641 0.0779 0.0
C174 C 0.45433 0.66187 1.0071 0.0
C175 C 0.4041 0.60498 0.04585 0.0
C176 C 0.42137 0.66984 0.06119 0.0
C177 C 0.4479 0.56023 0.96408 0.0
O178 O 0.55251 0.46422 0.74535 0.0
O179 O 0.51554 0.48005 0.89004 0.0
C180 C 0.53405 0.45537 0.8348 0.0
O181 O 0.47762 0.5098 0.69767 0.0
O182 O 0.62749 0.52227 0.63267 0.0
O183 O 0.5866 0.49763 0.52179 0.0
O184 O 0.51794 0.53145 0.57296 0.0
C185 C 0.4849 0.51914 0.59568 0.0
O186 O 0.51281 0.59214 0.7493 0.0
O187 O 0.56999 0.58301 0.67847 0.0
O188 O 0.59591 0.51852 0.84928 0.0
O189 O 0.44546 0.55425 0.85802 0.0
O190 O 0.47886 0.54814 1.00691 0.0
O191 O 0.55585 0.55505 0.94145 0.0
C192 C 0.64458 0.47083 0.52651 0.0
C193 C 0.64731 0.44362 0.6086 0.0
C194 C 0.66825 0.42826 0.39273 0.0
C195 C 0.65859 0.4082 0.58108 0.0
C196 C 0.65738 0.46364 0.42066 0.0
C197 C 0.66617 0.39937 0.47044 0.0
C198 C 0.6216 0.5032 0.54256 0.0
C199 C 0.54212 0.60467 0.69888 0.0
H200 H 0.48845 0.62094 0.9372 0.0
H201 H 0.37018 0.64601 0.11868 0.0
H202 H 0.47535 0.68261 0.99495 0.0
H203 H 0.38459 0.58301 0.06129 0.0
H204 H 0.63769 0.44883 0.69128 0.0
H205 H 0.67391 0.42303 0.30667 0.0
H206 H 0.65776 0.38699 0.64395 0.0
H207 H 0.6554 0.48435 0.35639 0.0
Eu208 Eu 0.04461 0.56115 0.67362 0.0
Eu209 Eu 1.0248 0.49746 0.85235 0.0
C210 C 0.10992 0.52473 0.83231 0.0
C211 C 0.09746 0.63198 0.51112 0.0
C212 C 0.12533 0.63364 0.59345 0.0
C213 C 0.1407 0.65339 0.37587 0.0
C214 C 0.16125 0.64338 0.56567 0.0
C215 C 0.10484 0.64395 0.40397 0.0
C216 C 0.16985 0.65072 0.45472 0.0
C217 C 0.06357 0.61103 0.5297 0.0
O218 O 1.01265 0.55147 0.94069 0.0
O219 O 0.04954 0.58949 0.84012 0.0
C220 C 0.03028 0.58304 0.92885 0.0
O221 O 0.98228 0.56397 0.67635 0.0
O222 O 1.01676 0.4752 1.01821 0.0
O223 O 1.00652 0.44082 0.87518 0.0
O224 O 0.97112 0.50825 0.75804 0.0
C225 C 0.95944 0.53745 0.70364 0.0
O226 O 0.03095 0.50896 0.57576 0.0
O227 O 0.05085 0.46886 0.70737 0.0
O228 O 0.08511 0.50778 0.89193 0.0
O229 O 0.06656 0.57578 0.51352 0.0
O230 O 0.04568 0.61848 0.61913 0.0
O231 O 0.10083 0.54267 0.74062 0.0
C232 C 0.96456 0.43686 1.0168 0.0
C233 C 0.93747 0.46339 0.99771 0.0
C234 C 0.91861 0.39655 0.09644 0.0
C235 C 0.9015 0.45704 0.02946 0.0
C236 C 0.95497 0.40308 0.06443 0.0
C237 C 0.8915 0.42379 0.08096 0.0
C238 C 1.00206 0.44465 0.98103 0.0
C239 C 0.04173 0.47573 0.6037 0.0
H240 H 0.12002 0.62452 0.67701 0.0
H241 H 0.14587 0.6587 0.28944 0.0
H242 H 0.18278 0.64186 0.62903 0.0
H243 H 0.08364 0.64267 0.33947 0.0
H244 H 0.94433 0.48954 0.96018 0.0
H245 H 0.91198 0.37061 0.13544 0.0
H246 H 0.88212 0.47928 1.01858 0.0
H247 H 0.97557 0.38206 0.07803 0.0
C248 C 0.1453 0.04697 0.33599 0.0
C249 C 0.18149 0.03657 0.36537 0.0
H250 H 0.08948 0.05396 0.38753 0.0
C251 C 0.1886 0.02484 0.4746 0.0
H252 H 0.13891 0.05622 0.2525 0.0
C253 C 0.16029 0.02373 0.55269 0.0
C254 C 0.12388 0.03425 0.52397 0.0
H255 H 0.21617 1.01674 0.50005 0.0
H256 H 0.16706 1.01457 0.63597 0.0
C257 C 0.11691 0.0457 0.4138 0.0
C258 C 0.51985 0.13543 0.32659 0.0
C259 C 0.52822 0.17215 0.35389 0.0
H260 H 0.51449 0.07968 0.38351 0.0
C261 C 0.53791 0.18052 0.46419 0.0
H262 H 0.51222 0.12818 0.24212 0.0
C263 C 0.53902 0.1528 0.54571 0.0
C264 C 0.53053 0.11585 0.51916 0.0
H265 H 0.54444 0.20859 0.48768 0.0
H266 H 0.54663 0.16045 0.62981 0.0
C267 C 0.52111 0.10762 0.40792 0.0
C268 C 0.43327 0.52881 0.31678 0.0
C269 C 0.39767 0.51667 0.34239 0.0
H270 H 0.48871 0.53896 0.37568 0.0
C271 C 0.39092 0.50507 0.4509 0.0
H272 H 0.43924 0.53776 0.23349 0.0
C273 C 0.41921 0.50559 0.53248 0.0
C274 C 0.45507 0.51765 0.50753 0.0
H275 H 0.36375 0.49541 0.47266 0.0
H276 H 0.41288 0.49654 0.61534 0.0
C277 C 0.46164 0.52932 0.39832 0.0
C278 C 0.05403 0.38103 0.47 0.0
C279 C 0.04347 0.38744 0.3591 0.0
H280 H 0.06192 0.40342 0.63334 0.0
C281 C 0.03227 0.42303 0.32863 0.0
H282 H 0.063 0.35394 0.49585 0.0
C283 C 0.03178 0.45163 0.40734 0.0
C284 C 0.04256 0.44542 0.5188 0.0
H285 H 1.02414 0.42886 0.24358 0.0
H286 H 1.023 0.47866 0.38058 0.0
C287 C 0.05354 0.40955 0.54875 0.0
C288 C 0.92786 1.00749 0.19607 0.0
C289 C 0.8925 1.02107 0.17006 0.0
H290 H 0.98293 0.99791 0.14156 0.0
C291 C 0.88619 0.03608 0.06416 0.0
H292 H 0.93364 0.99576 0.27704 0.0
C293 C 0.91444 0.03728 0.98593 0.0
C294 C 0.94997 0.02347 1.01113 0.0
H295 H 0.85927 0.04673 0.04141 0.0
H296 H 0.90829 0.049 0.90523 0.0
C297 C 0.95617 1.00871 0.11801 0.0
C298 C 0.53093 0.88415 0.0895 0.0
C299 C 0.54931 0.89058 0.19121 0.0
H300 H 0.51471 0.90563 0.93025 0.0
C301 C 0.56556 0.92528 0.20981 0.0
H302 H 0.51817 0.85767 0.07282 0.0
C303 C 0.56378 0.95292 0.12804 0.0
C304 C 0.54563 0.94659 0.02524 0.0
H305 H 0.57991 0.93101 0.28761 0.0
H306 H 0.57672 0.97924 0.14547 0.0
C307 C 0.52906 0.91176 1.00771 0.0
C308 C 0.6773 0.52702 0.10644 0.0
C309 C 0.67039 0.54728 0.20219 0.0
H310 H 0.65706 0.50836 0.94818 0.0
C311 C 0.63607 0.56453 0.2112 0.0
H312 H 0.70352 0.51347 0.09731 0.0
C313 C 0.60921 0.56178 0.12541 0.0
C314 C 0.61608 0.54167 0.02854 0.0
H315 H 0.63005 0.58033 0.28444 0.0
H316 H 0.58311 0.57549 0.13499 0.0
C317 C 0.65054 0.52421 0.02085 0.0
C318 C 0.04548 0.67439 0.08285 0.0
C319 C 0.02564 0.66916 0.17989 0.0
H320 H 0.06255 0.65179 0.92859 0.0
C321 C 1.00761 0.63523 0.19523 0.0
H322 H 0.05965 0.70022 0.06862 0.0
C323 C 1.0091 0.60725 0.11471 0.0
C324 C 0.02872 0.61245 1.0165 0.0
H325 H 0.99211 0.63038 0.26941 0.0
H326 H 0.99474 0.58158 0.12935 0.0
C327 C 0.04704 0.64649 1.00243 0.0
C328 C 0.91255 0.235 0.24637 0.0
C329 C 0.94541 0.25129 0.28652 0.0
H330 H 0.87187 0.19326 0.27182 0.0
C331 C 0.95593 0.24595 0.39775 0.0
H332 H 0.90337 0.23944 0.16146 0.0
C333 C 0.9385 0.21897 0.46011 0.0
C334 C 0.91023 0.19713 0.41183 0.0
H335 H 0.98091 0.25849 0.43145 0.0
H336 H 0.95101 0.21193 0.53945 0.0
C337 C 0.89472 0.20835 0.30946 0.0
C338 C 0.33122 0.90454 0.2553 0.0
C339 C 0.31537 0.93699 0.29447 0.0
H340 H 0.37233 0.86359 0.28362 0.0
C341 C 0.3207 0.94636 0.40627 0.0
H342 H 0.32668 0.89613 0.17004 0.0
C343 C 0.34738 0.92835 0.47051 0.0
C344 C 0.36897 0.90062 0.42362 0.0
H345 H 0.30846 0.97095 0.43944 0.0
H346 H 0.35444 0.94008 0.55055 0.0
C347 C 0.35757 0.8861 0.32028 0.0
C348 C 0.65952 0.32379 0.26222 0.0
C349 C 0.62647 0.30743 0.2959 0.0
H350 H 0.70038 0.3651 0.29651 0.0
C351 C 0.61537 0.31255 0.4051 0.0
H352 H 0.66914 0.31955 0.17905 0.0
C353 C 0.6326 0.33922 0.47136 0.0
C354 C 0.66136 0.36095 0.42929 0.0
H355 H 0.59019 0.3 0.43384 0.0
H356 H 0.61976 0.34601 0.54853 0.0
C357 C 0.67718 0.35012 0.3293 0.0
C358 C 0.24567 0.64607 0.25169 0.0
C359 C 0.26166 0.61276 0.28581 0.0
H360 H 0.20453 0.68623 0.28336 0.0
C361 C 0.25599 0.60024 0.3939 0.0
H362 H 0.25022 0.65664 0.16923 0.0
C363 C 0.22927 0.61657 0.45824 0.0
C364 C 0.20808 0.64584 0.41536 0.0
H365 H 0.26816 0.57474 0.42267 0.0
H366 H 0.22203 0.60286 0.53431 0.0
C367 C 0.21926 0.66277 0.31675 0.0
C368 C 0.11381 0.81013 0.1363 0.0
C369 C 0.12461 0.80437 0.24709 0.0
H370 H 0.11877 0.84444 0.99521 0.0
C371 C 0.15784 0.82005 0.2866 0.0
H372 H 0.08852 0.79804 0.10314 0.0
C373 C 0.17585 0.8466 0.2236 0.0
C374 C 0.16019 0.8583 0.12194 0.0
H375 H 0.16722 0.8153 0.37117 0.0
H376 H 0.19904 0.86127 0.26089 0.0
C377 C 0.13143 0.83701 0.07401 0.0
C378 C 0.74676 0.15631 0.28223 0.0
C379 C 0.76176 0.12355 0.24225 0.0
H380 H 0.70628 0.19798 0.25567 0.0
C381 C 0.75613 0.11458 0.13027 0.0
H382 H 0.7516 0.16444 0.3676 0.0
C383 C 0.72964 0.13321 0.06694 0.0
C384 C 0.70855 0.16106 0.11515 0.0
H385 H 0.76783 0.08983 0.0964 0.0
H386 H 0.72216 0.12173 0.98687 0.0
C387 C 0.7206 0.17534 0.21816 0.0
C388 C 0.45281 0.76244 0.14927 0.0
C389 C 0.44802 0.75825 0.2637 0.0
H390 H 0.44468 0.73814 0.98983 0.0
C391 C 0.42015 0.73414 0.29904 0.0
H392 H 0.47275 0.78174 0.11737 0.0
C393 C 0.40591 0.70744 0.22669 0.0
C394 C 0.41805 0.7061 0.11717 0.0
H395 H 0.4139 0.73194 0.38603 0.0
H396 H 0.38989 0.68522 0.26127 0.0
C397 C 0.43706 0.73688 0.07589 0.0
C398 C 0.8259 0.42068 0.31269 0.0
C399 C 0.80242 0.44912 0.2765 0.0
H400 H 0.8744 0.39057 0.27839 0.0
C401 C 0.79925 0.45611 0.1623 0.0
H402 H 0.8275 0.41311 0.39941 0.0
C403 C 0.82509 0.4416 0.09104 0.0
C404 C 0.855 0.42125 0.13424 0.0
H405 H 0.78056 0.47678 0.13 0.0
H406 H 0.82465 0.45076 1.00569 0.0
C407 C 0.85275 0.40742 0.24256 0.0
C408 C 1.00309 0.19974 0.90715 0.0
C409 C 0.02748 0.21143 0.99282 0.0
H410 H 0.98764 0.15756 0.79048 0.0
C411 C 0.05768 0.18882 0.01965 0.0
H412 H 0.97918 0.21612 0.8855 0.0
C413 C 0.06218 0.15463 0.96658 0.0
C414 C 0.03683 0.14217 0.88411 0.0
H415 H 0.07653 0.19646 0.08664 0.0
H416 H 0.08489 0.13736 0.99318 0.0
C417 C 1.00787 0.16591 0.85297 0.0
C418 C 0.37996 0.05019 0.02654 0.0
C419 C 0.35618 1.02056 1.00045 0.0
H420 H 0.43202 0.07688 0.99914 0.0
C421 C 0.36667 0.99661 0.91509 0.0
H422 H 0.37337 0.0687 0.09321 0.0
C423 C 0.40029 1.00133 0.86034 0.0
C424 C 0.42511 0.02976 0.89058 0.0
H425 H 0.34946 0.9731 0.89389 0.0
H426 H 0.40762 0.98147 0.79805 0.0
C427 C 0.41392 0.05458 0.97306 0.0
C428 C 0.51556 0.37004 1.01273 0.0
C429 C 0.54543 0.34729 0.98825 0.0
H430 H 0.48861 0.42173 0.98471 0.0
C431 C 0.56944 0.35897 0.90495 0.0
H432 H 0.49705 0.36237 0.07795 0.0
C433 C 0.56454 0.39294 0.85064 0.0
C434 C 0.53595 0.41677 0.87978 0.0
H435 H 0.59312 0.34247 0.88539 0.0
H436 H 0.58443 0.40136 0.79003 0.0
C437 C 0.51103 0.40435 0.95988 0.0
C438 C 0.2086 0.55754 0.89202 0.0
C439 C 0.22014 0.53402 0.97861 0.0
H440 H 0.16546 0.57271 0.77654 0.0
C441 C 0.19654 0.50508 1.00859 0.0
H442 H 0.22582 0.58057 0.8686 0.0
C443 C 0.16145 0.50107 0.9578 0.0
C444 C 0.14914 0.52564 0.8746 0.0
H445 H 0.2042 0.48706 0.07663 0.0
H446 H 0.14339 0.47948 0.98683 0.0
C447 C 0.17381 0.55315 0.83978 0.0
C448 C 0.06952 0.85767 0.62541 0.0
C449 C 0.04409 0.8457 0.54286 0.0
H450 H 0.0864 0.90009 0.73936 0.0
C451 C 1.01345 0.86813 0.51943 0.0
H452 H 0.09371 0.84141 0.64464 0.0
C453 C 1.0095 0.90239 0.57261 0.0
C454 C 0.03594 0.91517 0.65154 0.0
H455 H 0.99374 0.86026 0.4549 0.0
H456 H 0.98637 0.91949 0.5486 0.0
C457 C 0.06539 0.89161 0.67936 0.0
C458 C 0.69612 1.00957 0.51962 0.0
C459 C 0.71859 0.04088 0.53657 0.0
H460 H 0.64536 0.98162 0.55617 0.0
C461 C 0.70716 0.06681 0.6153 0.0
H462 H 0.70349 0.98933 0.4585 0.0
C463 C 0.67379 0.06253 0.67128 0.0
C464 C 0.65022 0.03227 0.65018 0.0
H465 H 0.72345 0.09143 0.63031 0.0
H466 H 0.66583 0.0839 0.72813 0.0
C467 C 0.66245 1.00537 0.5752 0.0
C468 C 0.51006 0.70238 0.63449 0.0
C469 C 0.5349 0.71435 0.55396 0.0
H470 H 0.49283 0.65926 0.7429 0.0
C471 C 0.56482 0.69145 0.53062 0.0
H472 H 0.48648 0.71907 0.65378 0.0
C473 C 0.56839 0.6566 0.58152 0.0
C474 C 0.54204 0.64369 0.65675 0.0
H475 H 0.58403 0.69937 0.46756 0.0
H476 H 0.59077 0.63904 0.55744 0.0
C477 C 0.51355 0.66775 0.68497 0.0
C478 C 0.87148 0.56199 0.53837 0.0
C479 C 0.8475 0.53326 0.568 0.0
H480 H 0.92555 0.58606 0.55748 0.0
C481 C 0.85924 0.50888 0.65199 0.0
H482 H 0.86365 0.58069 0.47224 0.0
C483 C 0.89474 0.51156 0.69987 0.0
C484 C 0.91982 0.53867 0.66501 0.0
H485 H 0.84169 0.48611 0.67557 0.0
H486 H 0.90305 0.49116 0.76063 0.0
C487 C 0.90718 0.56473 0.5865 0.0
loop_
_geom_bond_atom_site_label_1
_geom_bond_atom_site_label_2
_geom_bond_distance
_geom_bond_site_symmetry_2
_ccdc_geom_bond_type
H0 C3 0.929 . S
H1 C6 0.929 . S
H2 C8 0.930 . S
C3 H0 0.929 . S
C3 C4 1.398 . S
C3 C5 1.396 . S
C4 C3 1.398 . S
C4 C8 1.407 . S
C5 C3 1.396 . S
C5 C6 1.394 . S
C6 H1 0.929 . S
C6 C5 1.394 . S
C6 C7 1.382 . S
C7 C6 1.382 . S
C7 C8 1.392 . S
C7 N9 1.420 . S
C8 H2 0.930 . S
C8 C4 1.407 . S
C8 C7 1.392 . S
N9 C7 1.420 . S
N9 C10 1.244 . S
C10 N9 1.244 . S
H11 C14 0.929 . S
H12 C17 0.929 . S
H13 C19 0.930 . S
C14 H11 0.929 . S
C14 C15 1.398 . S
C14 C16 1.396 . S
C15 C14 1.398 . S
C15 C19 1.407 . S
C16 C14 1.396 . S
C16 C17 1.394 . S
C17 H12 0.929 . S
C17 C16 1.394 . S
C17 C18 1.382 . S
C18 C17 1.382 . S
C18 C19 1.392 . S
C18 N20 1.420 . S
C19 H13 0.930 . S
C19 C15 1.407 . S
C19 C18 1.392 . S
N20 C18 1.420 . S
N20 C21 1.244 . S
C21 N20 1.244 . S
H22 C25 0.929 . S
H23 C28 0.929 . S
H24 C30 0.930 . S
C25 H22 0.929 . S
C25 C26 1.398 . S
C25 C27 1.396 . S
C26 C25 1.398 . S
C26 C30 1.407 . S
C27 C25 1.396 . S
C27 C28 1.394 . S
C28 H23 0.929 . S
C28 C27 1.394 . S
C28 C29 1.382 . S
C29 C28 1.382 . S
C29 C30 1.392 . S
C29 N31 1.424 . S
C30 H24 0.930 . S
C30 C26 1.407 . S
C30 C29 1.392 . S
N31 C29 1.424 . S
N31 C32 1.257 . S
C32 N31 1.257 . S
H33 C36 0.929 . S
H34 C39 0.929 . S
H35 C41 0.930 . S
C36 H33 0.929 . S
C36 C37 1.398 . S
C36 C38 1.396 . S
C37 C36 1.398 . S
C37 C41 1.407 . S
C38 C36 1.396 . S
C38 C39 1.394 . S
C39 H34 0.929 . S
C39 C38 1.394 . S
C39 C40 1.382 . S
C40 C39 1.382 . S
C40 C41 1.392 . S
C40 N42 1.420 . S
C41 H35 0.930 . S
C41 C37 1.407 . S
C41 C40 1.392 . S
N42 C40 1.420 . S
N42 C43 1.244 . S
C43 N42 1.244 . S
H44 C47 0.929 . S
H45 C50 0.929 . S
H46 C52 0.930 . S
C47 H44 0.929 . S
C47 C48 1.398 1_554 S
C47 C49 1.396 . S
C48 C47 1.398 1_556 S
C48 C52 1.407 . S
C49 C47 1.396 . S
C49 C50 1.394 . S
C50 H45 0.929 . S
C50 C49 1.394 . S
C50 C51 1.382 . S
C51 C50 1.382 . S
C51 C52 1.392 1_554 S
C51 N53 1.420 . S
C52 H46 0.930 . S
C52 C48 1.407 . S
C52 C51 1.392 1_556 S
N53 C51 1.420 . S
N53 C54 1.244 . S
C54 N53 1.244 . S
H55 C58 0.929 . S
H56 C61 0.929 . S
H57 C63 0.930 . S
C58 H55 0.929 . S
C58 C59 1.398 1_554 S
C58 C60 1.396 . S
C59 C58 1.398 1_556 S
C59 C63 1.407 . S
C60 C58 1.396 . S
C60 C61 1.394 . S
C61 H56 0.929 . S
C61 C60 1.394 . S
C61 C62 1.382 . S
C62 C61 1.382 . S
C62 C63 1.392 1_554 S
C62 N64 1.420 . S
C63 H57 0.930 . S
C63 C59 1.407 . S
C63 C62 1.392 1_556 S
N64 C62 1.420 . S
N64 C65 1.244 . S
C65 N64 1.244 . S
H66 C69 0.929 . S
H67 C72 0.929 . S
H68 C74 0.930 . S
C69 H66 0.929 . S
C69 C70 1.398 . S
C69 C71 1.396 1_556 S
C70 C69 1.398 . S
C70 C74 1.407 . S
C71 C69 1.396 1_554 S
C71 C72 1.394 . S
C72 H67 0.929 . S
C72 C71 1.394 . S
C72 C73 1.382 . S
C73 C72 1.382 . S
C73 C74 1.392 1_554 S
C73 N75 1.420 . S
C74 H68 0.930 . S
C74 C70 1.407 . S
C74 C73 1.392 1_556 S
N75 C73 1.420 . S
N75 C76 1.244 . S
C76 N75 1.244 . S
H77 C80 0.929 . S
H78 C83 0.929 . S
H79 C85 0.930 . S
C80 H77 0.929 . S
C80 C81 1.398 1_554 S
C80 C82 1.396 . S
C81 C80 1.398 1_556 S
C81 C85 1.407 . S
C82 C80 1.396 . S
C82 C83 1.394 . S
C83 H78 0.929 . S
C83 C82 1.394 . S
C83 C84 1.382 . S
C84 C83 1.382 . S
C84 C85 1.392 1_554 S
C84 N86 1.420 . S
C85 H79 0.930 . S
C85 C81 1.407 . S
C85 C84 1.392 1_556 S
N86 C84 1.420 . S
N86 C87 1.244 . S
C87 N86 1.244 . S
Eu88 C97 2.828 . S
Eu88 O99 2.392 . S
Eu88 O101 2.418 1_545 S
Eu88 O106 2.373 1_655 S
Eu88 O109 2.488 . S
Eu88 O110 2.471 . S
Eu88 O111 2.349 1_655 S
Eu89 O98 2.373 1_455 S
Eu89 O102 2.488 1_556 S
Eu89 O103 2.471 . S
Eu89 O104 2.349 . S
Eu89 O107 2.392 1_565 S
Eu89 O108 2.418 1_565 S
Eu89 C118 2.828 1_556 S
C90 O108 1.244 . S
C90 O111 1.265 . S
C91 C92 1.379 1_655 S
C91 C95 1.373 . S
C91 C97 1.505 . S
C92 C91 1.379 1_455 S
C92 C94 1.369 . S
C92 H120 0.930 . S
C93 C95 1.383 . S
C93 C96 1.382 . S
C93 H121 0.930 . S
C94 C92 1.369 . S
C94 C96 1.392 1_455 S
C94 H122 0.930 . S
C95 C91 1.373 . S
C95 C93 1.383 . S
C95 H123 0.931 . S
C96 C93 1.382 . S
C96 C94 1.392 1_655 S
C97 Eu88 2.828 . S
C97 C91 1.505 . S
C97 O109 1.249 . S
C97 O110 1.244 . S
O98 Eu89 2.373 1_655 S
O98 C100 1.259 . S
O99 Eu88 2.392 . S
O99 C100 1.240 1_545 S
C100 O98 1.259 . S
C100 O99 1.240 1_565 S
O101 Eu88 2.418 1_565 S
O101 C105 1.244 . S
O102 Eu89 2.488 1_554 S
O102 C118 1.249 . S
O103 Eu89 2.471 . S
O103 C118 1.244 1_556 S
O104 Eu89 2.349 . S
O104 C105 1.265 1_455 S
C105 O101 1.244 . S
C105 O104 1.265 1_655 S
O106 Eu88 2.373 1_455 S
O106 C119 1.258 . S
O107 Eu89 2.392 1_545 S
O107 C119 1.242 . S
O108 Eu89 2.418 1_545 S
O108 C90 1.244 . S
O109 Eu88 2.488 . S
O109 C97 1.249 . S
O110 Eu88 2.471 . S
O110 C97 1.244 . S
O111 Eu88 2.349 1_455 S
O111 C90 1.265 . S
C112 C113 1.379 . S
C112 C116 1.373 . S
C112 C118 1.505 . S
C113 C112 1.379 . S
C113 C115 1.369 . S
C113 H124 0.930 1_455 S
C114 C116 1.383 . S
C114 C117 1.382 . S
C114 H125 0.930 . S
C115 C113 1.369 . S
C115 C117 1.392 . S
C115 H126 0.930 1_455 S
C116 C112 1.373 . S
C116 C114 1.383 . S
C116 H127 0.931 . S
C117 C114 1.382 . S
C117 C115 1.392 . S
C118 Eu89 2.828 1_554 S
C118 O102 1.249 . S
C118 O103 1.244 1_554 S
C118 C112 1.505 . S
C119 O106 1.258 . S
C119 O107 1.242 . S
H120 C92 0.930 . S
H121 C93 0.930 . S
H122 C94 0.930 . S
H123 C95 0.931 . S
H124 C113 0.930 1_655 S
H125 C114 0.930 . S
H126 C115 0.930 1_655 S
H127 C116 0.931 . S
Eu128 C137 2.828 . S
Eu128 O139 2.392 . S
Eu128 O141 2.418 . S
Eu128 O146 2.373 . S
Eu128 O149 2.488 . S
Eu128 O150 2.471 . S
Eu128 O151 2.349 1_545 S
Eu129 O138 2.373 1_565 S
Eu129 O142 2.488 . S
Eu129 O143 2.471 1_565 S
Eu129 O144 2.349 1_565 S
Eu129 O147 2.392 . S
Eu129 O148 2.418 . S
Eu129 C158 2.828 . S
C130 O148 1.244 . S
C130 O151 1.265 . S
C131 C132 1.379 . S
C131 C135 1.373 . S
C131 C137 1.505 1_554 S
C132 C131 1.379 . S
C132 C134 1.369 . S
C132 H160 0.930 1_545 S
C133 C135 1.383 . S
C133 C136 1.382 . S
C133 H161 0.930 . S
C134 C132 1.369 . S
C134 C136 1.392 . S
C134 H162 0.930 1_545 S
C135 C131 1.373 . S
C135 C133 1.383 . S
C135 H163 0.931 . S
C136 C133 1.382 . S
C136 C134 1.392 . S
C137 Eu128 2.828 . S
C137 C131 1.505 1_556 S
C137 O149 1.249 . S
C137 O150 1.244 . S
O138 Eu129 2.373 1_545 S
O138 C140 1.258 . S
O139 Eu128 2.392 . S
O139 C140 1.242 . S
C140 O138 1.258 . S
C140 O139 1.242 . S
O141 Eu128 2.418 . S
O141 C145 1.244 . S
O142 Eu129 2.488 . S
O142 C158 1.249 . S
O143 Eu129 2.471 1_545 S
O143 C158 1.244 1_545 S
O144 Eu129 2.349 1_545 S
O144 C145 1.265 . S
C145 O141 1.244 . S
C145 O144 1.265 . S
O146 Eu128 2.373 . S
O146 C159 1.258 1_545 S
O147 Eu129 2.392 . S
O147 C159 1.242 . S
O148 Eu129 2.418 . S
O148 C130 1.244 . S
O149 Eu128 2.488 . S
O149 C137 1.249 . S
O150 Eu128 2.471 . S
O150 C137 1.244 . S
O151 Eu128 2.349 1_565 S
O151 C130 1.265 . S
C152 C153 1.379 1_565 S
C152 C156 1.373 . S
C152 C158 1.505 . S
C153 C152 1.379 1_545 S
C153 C155 1.369 . S
C153 H164 0.930 . S
C154 C156 1.383 . S
C154 C157 1.382 . S
C154 H165 0.930 . S
C155 C153 1.369 . S
C155 C157 1.392 1_545 S
C155 H166 0.930 . S
C156 C152 1.373 . S
C156 C154 1.383 . S
C156 H167 0.931 . S
C157 C154 1.382 . S
C157 C155 1.392 1_565 S
C158 Eu129 2.828 . S
C158 O142 1.249 . S
C158 O143 1.244 1_565 S
C158 C152 1.505 . S
C159 O146 1.258 1_565 S
C159 O147 1.242 . S
H160 C132 0.930 1_565 S
H161 C133 0.930 . S
H162 C134 0.930 1_565 S
H163 C135 0.931 . S
H164 C153 0.930 . S
H165 C154 0.930 . S
H166 C155 0.930 . S
H167 C156 0.931 . S
Eu168 C177 2.828 . S
Eu168 O179 2.392 . S
Eu168 O181 2.418 . S
Eu168 O186 2.373 . S
Eu168 O189 2.488 . S
Eu168 O190 2.471 . S
Eu168 O191 2.349 . S
Eu169 O178 2.373 . S
Eu169 O182 2.488 . S
Eu169 O183 2.471 . S
Eu169 O184 2.349 . S
Eu169 O187 2.392 . S
Eu169 O188 2.418 . S
Eu169 C198 2.828 . S
C170 O188 1.244 . S
C170 O191 1.265 . S
C171 C172 1.379 . S
C171 C175 1.373 . S
C171 C177 1.505 1_554 S
C172 C171 1.379 . S
C172 C174 1.369 . S
C172 H200 0.930 . S
C173 C175 1.383 . S
C173 C176 1.382 . S
C173 H201 0.930 . S
C174 C172 1.369 . S
C174 C176 1.392 . S
C174 H202 0.930 . S
C175 C171 1.373 . S
C175 C173 1.383 . S
C175 H203 0.931 . S
C176 C173 1.382 . S
C176 C174 1.392 . S
C177 Eu168 2.828 . S
C177 C171 1.505 1_556 S
C177 O189 1.249 . S
C177 O190 1.244 . S
O178 Eu169 2.373 . S
O178 C180 1.258 . S
O179 Eu168 2.392 . S
O179 C180 1.242 . S
C180 O178 1.258 . S
C180 O179 1.242 . S
O181 Eu168 2.418 . S
O181 C185 1.244 . S
O182 Eu169 2.488 . S
O182 C198 1.249 . S
O183 Eu169 2.471 . S
O183 C198 1.244 . S
O184 Eu169 2.349 . S
O184 C185 1.265 . S
C185 O181 1.244 . S
C185 O184 1.265 . S
O186 Eu168 2.373 . S
O186 C199 1.258 . S
O187 Eu169 2.392 . S
O187 C199 1.242 . S
O188 Eu169 2.418 . S
O188 C170 1.244 . S
O189 Eu168 2.488 . S
O189 C177 1.249 . S
O190 Eu168 2.471 . S
O190 C177 1.244 . S
O191 Eu168 2.349 . S
O191 C170 1.265 . S
C192 C193 1.379 . S
C192 C196 1.373 . S
C192 C198 1.505 . S
C193 C192 1.379 . S
C193 C195 1.369 . S
C193 H204 0.930 . S
C194 C196 1.383 . S
C194 C197 1.382 . S
C194 H205 0.930 . S
C195 C193 1.369 . S
C195 C197 1.392 . S
C195 H206 0.930 . S
C196 C192 1.373 . S
C196 C194 1.383 . S
C196 H207 0.931 . S
C197 C194 1.382 . S
C197 C195 1.392 . S
C198 Eu169 2.828 . S
C198 O182 1.249 . S
C198 O183 1.244 . S
C198 C192 1.505 . S
C199 O186 1.258 . S
C199 O187 1.242 . S
H200 C172 0.930 . S
H201 C173 0.930 . S
H202 C174 0.930 . S
H203 C175 0.931 . S
H204 C193 0.930 . S
H205 C194 0.930 . S
H206 C195 0.930 . S
H207 C196 0.931 . S
Eu208 C217 2.828 . S
Eu208 O219 2.392 . S
Eu208 O221 2.418 1_455 S
Eu208 O226 2.373 . S
Eu208 O229 2.488 . S
Eu208 O230 2.471 . S
Eu208 O231 2.349 . S
Eu209 O218 2.373 . S
Eu209 O222 2.488 1_556 S
Eu209 O223 2.471 . S
Eu209 O224 2.349 . S
Eu209 O227 2.392 1_655 S
Eu209 O228 2.418 1_655 S
Eu209 C238 2.828 1_556 S
C210 O228 1.244 . S
C210 O231 1.265 . S
C211 C212 1.379 . S
C211 C215 1.373 . S
C211 C217 1.505 . S
C212 C211 1.379 . S
C212 C214 1.369 . S
C212 H240 0.930 . S
C213 C215 1.383 . S
C213 C216 1.382 . S
C213 H241 0.930 . S
C214 C212 1.369 . S
C214 C216 1.392 . S
C214 H242 0.930 . S
C215 C211 1.373 . S
C215 C213 1.383 . S
C215 H243 0.931 . S
C216 C213 1.382 . S
C216 C214 1.392 . S
C217 Eu208 2.828 . S
C217 C211 1.505 . S
C217 O229 1.249 . S
C217 O230 1.244 . S
O218 Eu209 2.373 . S
O218 C220 1.258 . S
O219 Eu208 2.392 . S
O219 C220 1.242 1_455 S
C220 O218 1.258 . S
C220 O219 1.242 1_655 S
O221 Eu208 2.418 1_655 S
O221 C225 1.244 . S
O222 Eu209 2.488 1_554 S
O222 C238 1.249 . S
O223 Eu209 2.471 . S
O223 C238 1.244 1_556 S
O224 Eu209 2.349 . S
O224 C225 1.265 . S
C225 O221 1.244 . S
C225 O224 1.265 . S
O226 Eu208 2.373 . S
O226 C239 1.258 . S
O227 Eu209 2.392 1_455 S
O227 C239 1.242 . S
O228 Eu209 2.418 1_455 S
O228 C210 1.244 . S
O229 Eu208 2.488 . S
O229 C217 1.249 . S
O230 Eu208 2.471 . S
O230 C217 1.244 . S
O231 Eu208 2.349 . S
O231 C210 1.265 . S
C232 C233 1.379 . S
C232 C236 1.373 . S
C232 C238 1.505 . S
C233 C232 1.379 . S
C233 C235 1.369 . S
C233 H244 0.930 . S
C234 C236 1.383 . S
C234 C237 1.382 . S
C234 H245 0.930 . S
C235 C233 1.369 . S
C235 C237 1.392 . S
C235 H246 0.930 . S
C236 C232 1.373 . S
C236 C234 1.383 . S
C236 H247 0.931 . S
C237 C234 1.382 . S
C237 C235 1.392 . S
C238 Eu209 2.828 1_554 S
C238 O222 1.249 . S
C238 O223 1.244 1_554 S
C238 C232 1.505 . S
C239 O226 1.258 . S
C239 O227 1.242 . S
H240 C212 0.930 . S
H241 C213 0.930 . S
H242 C214 0.930 . S
H243 C215 0.931 . S
H244 C233 0.930 . S
H245 C234 0.930 . S
H246 C235 0.930 . S
H247 C236 0.931 . S
C248 C249 1.387 . S
C248 H252 0.950 . S
C248 C257 1.390 . S
C249 C248 1.387 . S
C249 C251 1.387 1_545 S
H250 C257 0.950 . S
C251 C249 1.387 1_565 S
C251 C253 1.390 . S
C251 H255 0.950 . S
H252 C248 0.950 . S
C253 C251 1.390 . S
C253 C254 1.387 1_565 S
C253 H256 0.950 . S
C254 C253 1.387 1_545 S
C254 C257 1.387 . S
H255 C251 0.950 . S
H256 C253 0.950 . S
C257 C248 1.390 . S
C257 H250 0.950 . S
C257 C254 1.387 . S
C258 C259 1.387 . S
C258 H262 0.950 . S
C258 C267 1.390 . S
C259 C258 1.387 . S
C259 C261 1.387 . S
H260 C267 0.950 . S
C261 C259 1.387 . S
C261 C263 1.390 . S
C261 H265 0.950 . S
H262 C258 0.950 . S
C263 C261 1.390 . S
C263 C264 1.387 . S
C263 H266 0.950 . S
C264 C263 1.387 . S
C264 C267 1.387 . S
H265 C261 0.950 . S
H266 C263 0.950 . S
C267 C258 1.390 . S
C267 H260 0.950 . S
C267 C264 1.387 . S
C268 C269 1.387 . S
C268 H272 0.950 . S
C268 C277 1.390 . S
C269 C268 1.387 . S
C269 C271 1.387 . S
H270 C277 0.950 . S
C271 C269 1.387 . S
C271 C273 1.390 . S
C271 H275 0.950 . S
H272 C268 0.950 . S
C273 C271 1.390 . S
C273 C274 1.387 . S
C273 H276 0.950 . S
C274 C273 1.387 . S
C274 C277 1.387 . S
H275 C271 0.950 . S
H276 C273 0.950 . S
C277 C268 1.390 . S
C277 H270 0.950 . S
C277 C274 1.387 . S
C278 C279 1.387 . S
C278 H282 0.950 . S
C278 C287 1.390 . S
C279 C278 1.387 . S
C279 C281 1.387 . S
H280 C287 0.950 . S
C281 C279 1.387 . S
C281 C283 1.390 . S
C281 H285 0.950 1_455 S
H282 C278 0.950 . S
C283 C281 1.390 . S
C283 C284 1.387 . S
C283 H286 0.950 1_455 S
C284 C283 1.387 . S
C284 C287 1.387 . S
H285 C281 0.950 1_655 S
H286 C283 0.950 1_655 S
C287 C278 1.390 . S
C287 H280 0.950 . S
C287 C284 1.387 . S
C288 C289 1.387 . S
C288 H292 0.950 . S
C288 C297 1.390 . S
C289 C288 1.387 . S
C289 C291 1.387 1_565 S
H290 C297 0.950 . S
C291 C289 1.387 1_545 S
C291 C293 1.390 . S
C291 H295 0.950 . S
H292 C288 0.950 . S
C293 C291 1.390 . S
C293 C294 1.387 1_545 S
C293 H296 0.950 . S
C294 C293 1.387 1_565 S
C294 C297 1.387 . S
H295 C291 0.950 . S
H296 C293 0.950 . S
C297 C288 1.390 . S
C297 H290 0.950 . S
C297 C294 1.387 . S
C298 C299 1.387 . S
C298 H302 0.950 . S
C298 C307 1.390 . S
C299 C298 1.387 . S
C299 C301 1.387 . S
H300 C307 0.950 . S
C301 C299 1.387 . S
C301 C303 1.390 . S
C301 H305 0.950 . S
H302 C298 0.950 . S
C303 C301 1.390 . S
C303 C304 1.387 . S
C303 H306 0.950 . S
C304 C303 1.387 . S
C304 C307 1.387 . S
H305 C301 0.950 . S
H306 C303 0.950 . S
C307 C298 1.390 . S
C307 H300 0.950 . S
C307 C304 1.387 . S
C308 C309 1.387 . S
C308 H312 0.950 . S
C308 C317 1.390 . S
C309 C308 1.387 . S
C309 C311 1.387 . S
H310 C317 0.950 . S
C311 C309 1.387 . S
C311 C313 1.390 . S
C311 H315 0.950 . S
H312 C308 0.950 . S
C313 C311 1.390 . S
C313 C314 1.387 . S
C313 H316 0.950 . S
C314 C313 1.387 . S
C314 C317 1.387 . S
H315 C311 0.950 . S
H316 C313 0.950 . S
C317 C308 1.390 . S
C317 H310 0.950 . S
C317 C314 1.387 . S
C318 C319 1.387 . S
C318 H322 0.950 . S
C318 C327 1.390 . S
C319 C318 1.387 . S
C319 C321 1.387 . S
H320 C327 0.950 1_556 S
C321 C319 1.387 . S
C321 C323 1.390 . S
C321 H325 0.953 . S
H322 C318 0.950 . S
C323 C321 1.390 . S
C323 C324 1.387 . S
C323 H326 0.950 1_655 S
C324 C323 1.387 . S
C324 C327 1.387 . S
H325 C321 0.953 . S
H326 C323 0.950 1_455 S
C327 C318 1.390 . S
C327 H320 0.950 1_554 S
C327 C324 1.387 . S
C328 C329 1.387 . S
C328 H332 0.950 . S
C328 C337 1.390 . S
C329 C328 1.387 . S
C329 C331 1.387 . S
H330 C337 0.943 1_656 S
C331 C329 1.387 . S
C331 C333 1.390 . S
C331 H335 0.950 . S
H332 C328 0.950 . S
C333 C331 1.390 . S
C333 C334 1.387 . S
C333 H336 0.950 . S
C334 C333 1.387 . S
C334 C337 1.387 . S
H335 C331 0.950 . S
H336 C333 0.950 . S
C337 C328 1.390 . S
C337 H330 0.943 1_454 S
C337 C334 1.387 . S
C338 C339 1.387 . S
C338 H342 0.950 . S
C338 C347 1.390 1_545 S
C339 C338 1.387 . S
C339 C341 1.387 . S
H340 C347 0.950 . S
C341 C339 1.387 . S
C341 C343 1.390 1_545 S
C341 H345 0.950 . S
H342 C338 0.950 . S
C343 C341 1.390 1_565 S
C343 C344 1.387 . S
C343 H346 0.950 . S
C344 C343 1.387 . S
C344 C347 1.387 . S
H345 C341 0.950 . S
H346 C343 0.950 . S
C347 C338 1.390 1_565 S
C347 H340 0.950 . S
C347 C344 1.387 . S
C348 C349 1.387 . S
C348 H352 0.950 . S
C348 C357 1.390 . S
C349 C348 1.387 . S
C349 C351 1.387 . S
H350 C357 0.950 . S
C351 C349 1.387 . S
C351 C353 1.390 . S
C351 H355 0.950 . S
H352 C348 0.950 . S
C353 C351 1.390 . S
C353 C354 1.387 . S
C353 H356 0.950 . S
C354 C353 1.387 . S
C354 C357 1.387 . S
H355 C351 0.950 . S
H356 C353 0.950 . S
C357 C348 1.390 . S
C357 H350 0.950 . S
C357 C354 1.387 . S
C358 C359 1.387 . S
C358 H362 0.950 . S
C358 C367 1.390 . S
C359 C358 1.387 . S
C359 C361 1.387 . S
H360 C367 0.950 . S
C361 C359 1.387 . S
C361 C363 1.390 . S
C361 H365 0.950 . S
H362 C358 0.950 . S
C363 C361 1.390 . S
C363 C364 1.387 . S
C363 H366 0.950 . S
C364 C363 1.387 . S
C364 C367 1.387 . S
H365 C361 0.950 . S
H366 C363 0.950 . S
C367 C358 1.390 . S
C367 H360 0.950 . S
C367 C364 1.387 . S
C368 C369 1.387 . S
C368 H372 0.950 . S
C368 C377 1.390 1_655 S
C369 C368 1.387 . S
C369 C371 1.387 . S
H370 C377 0.950 . S
C371 C369 1.387 . S
C371 C373 1.390 1_655 S
C371 H375 0.950 . S
H372 C368 0.950 . S
C373 C371 1.390 1_455 S
C373 C374 1.387 . S
C373 H376 0.950 . S
C374 C373 1.387 . S
C374 C377 1.387 . S
H375 C371 0.950 . S
H376 C373 0.950 . S
C377 C368 1.390 1_455 S
C377 H370 0.950 . S
C377 C374 1.387 . S
C378 C379 1.387 1_545 S
C378 H382 0.950 . S
C378 C387 1.390 . S
C379 C378 1.387 1_565 S
C379 C381 1.387 . S
H380 C387 0.950 . S
C381 C379 1.387 . S
C381 C383 1.390 1_565 S
C381 H385 0.950 . S
H382 C378 0.950 . S
C383 C381 1.390 1_545 S
C383 C384 1.387 . S
C383 H386 0.950 1_545 S
C384 C383 1.387 . S
C384 C387 1.387 . S
H385 C381 0.950 . S
H386 C383 0.950 1_565 S
C387 C378 1.390 . S
C387 H380 0.950 . S
C387 C384 1.387 . S
C388 C389 1.387 . S
C388 H392 0.950 . S
C388 C397 1.390 . S
C389 C388 1.387 . S
C389 C391 1.387 . S
H390 C397 0.950 . S
C391 C389 1.387 . S
C391 C393 1.390 . S
C391 H395 0.950 . S
H392 C388 0.950 . S
C393 C391 1.390 . S
C393 C394 1.387 . S
C393 H396 0.950 . S
C394 C393 1.387 . S
C394 C397 1.387 . S
H395 C391 0.950 . S
H396 C393 0.950 . S
C397 C388 1.390 . S
C397 H390 0.950 . S
C397 C394 1.387 . S
C398 C399 1.387 . S
C398 H402 0.950 . S
C398 C407 1.390 . S
C399 C398 1.387 . S
C399 C401 1.387 . S
H400 C407 0.950 . S
C401 C399 1.387 . S
C401 C403 1.390 . S
C401 H405 0.950 . S
H402 C398 0.950 . S
C403 C401 1.390 . S
C403 C404 1.387 . S
C403 H406 0.950 . S
C404 C403 1.387 . S
C404 C407 1.387 . S
H405 C401 0.950 . S
H406 C403 0.950 . S
C407 C398 1.390 . S
C407 H400 0.950 . S
C407 C404 1.387 . S
C408 C409 1.387 . S
C408 H412 0.950 1_556 S
C408 C417 1.390 . S
C409 C408 1.387 . S
C409 C411 1.387 . S
H410 C417 0.950 1_554 S
C411 C409 1.387 . S
C411 C413 1.390 . S
C411 H415 0.950 . S
H412 C408 0.950 1_554 S
C413 C411 1.390 . S
C413 C414 1.387 . S
C413 H416 0.950 . S
C414 C413 1.387 . S
C414 C417 1.387 . S
H415 C411 0.950 . S
H416 C413 0.950 . S
C417 C408 1.390 . S
C417 H410 0.950 1_556 S
C417 C414 1.387 . S
C418 C419 1.387 . S
C418 H422 0.950 . S
C418 C427 1.390 . S
C419 C418 1.387 . S
C419 C421 1.387 . S
H420 C427 0.950 . S
C421 C419 1.387 . S
C421 C423 1.390 . S
C421 H425 0.950 1_545 S
H422 C418 0.950 . S
C423 C421 1.390 . S
C423 C424 1.387 . S
C423 H426 0.950 1_545 S
C424 C423 1.387 . S
C424 C427 1.387 . S
H425 C421 0.950 1_565 S
H426 C423 0.950 1_565 S
C427 C418 1.390 . S
C427 H420 0.950 . S
C427 C424 1.387 . S
C428 C429 1.387 . S
C428 H432 0.950 1_556 S
C428 C437 1.390 . S
C429 C428 1.387 . S
C429 C431 1.387 . S
H430 C437 0.950 1_554 S
C431 C429 1.387 . S
C431 C433 1.390 . S
C431 H435 0.950 . S
H432 C428 0.950 1_554 S
C433 C431 1.390 . S
C433 C434 1.387 . S
C433 H436 0.950 . S
C434 C433 1.387 . S
C434 C437 1.387 . S
H435 C431 0.950 . S
H436 C433 0.950 . S
C437 C428 1.390 . S
C437 H430 0.950 1_556 S
C437 C434 1.387 . S
C438 C439 1.387 . S
C438 H442 0.950 . S
C438 C447 1.390 . S
C439 C438 1.387 . S
C439 C441 1.387 . S
H440 C447 0.950 . S
C441 C439 1.387 . S
C441 C443 1.390 . S
C441 H445 0.950 . S
H442 C438 0.950 . S
C443 C441 1.390 . S
C443 C444 1.387 . S
C443 H446 0.950 . S
C444 C443 1.387 . S
C444 C447 1.387 . S
H445 C441 0.950 . S
H446 C443 0.950 . S
C447 C438 1.390 . S
C447 H440 0.950 . S
C447 C444 1.387 . S
C448 C449 1.387 . S
C448 H452 0.950 . S
C448 C457 1.390 . S
C449 C448 1.387 . S
C449 C451 1.387 . S
H450 C457 0.950 . S
C451 C449 1.387 . S
C451 C453 1.390 . S
C451 H455 0.950 . S
H452 C448 0.950 . S
C453 C451 1.390 . S
C453 C454 1.387 . S
C453 H456 0.950 . S
C454 C453 1.387 . S
C454 C457 1.387 . S
H455 C451 0.950 . S
H456 C453 0.950 . S
C457 C448 1.390 . S
C457 H450 0.950 . S
C457 C454 1.387 . S
C458 C459 1.387 . S
C458 H462 0.950 . S
C458 C467 1.390 . S
C459 C458 1.387 . S
C459 C461 1.387 1_565 S
H460 C467 0.950 . S
C461 C459 1.387 1_545 S
C461 C463 1.390 . S
C461 H465 0.950 . S
H462 C458 0.950 . S
C463 C461 1.390 . S
C463 C464 1.387 1_545 S
C463 H466 0.950 . S
C464 C463 1.387 1_565 S
C464 C467 1.387 . S
H465 C461 0.950 . S
H466 C463 0.950 . S
C467 C458 1.390 . S
C467 H460 0.950 . S
C467 C464 1.387 . S
C468 C469 1.387 . S
C468 H472 0.950 . S
C468 C477 1.390 . S
C469 C468 1.387 . S
C469 C471 1.387 . S
H470 C477 0.950 . S
C471 C469 1.387 . S
C471 C473 1.390 . S
C471 H475 0.950 . S
H472 C468 0.950 . S
C473 C471 1.390 . S
C473 C474 1.387 . S
C473 H476 0.950 . S
C474 C473 1.387 . S
C474 C477 1.387 . S
H475 C471 0.950 . S
H476 C473 0.950 . S
C477 C468 1.390 . S
C477 H470 0.950 . S
C477 C474 1.387 . S
C478 C479 1.387 . S
C478 H482 0.950 . S
C478 C487 1.390 . S
C479 C478 1.387 . S
C479 C481 1.387 . S
H480 C487 0.950 . S
C481 C479 1.387 . S
C481 C483 1.390 . S
C481 H485 0.950 . S
H482 C478 0.950 . S
C483 C481 1.390 . S
C483 C484 1.387 . S
C483 H486 0.950 . S
C484 C483 1.387 . S
C484 C487 1.387 . S
H485 C481 0.950 . S
H486 C483 0.950 . S
C487 C478 1.390 . S
C487 H480 0.950 . S
C487 C484 1.387 . S
C249 C76 2.218 . S
C254 C119 2.474 . S
C264 C145 2.207 . S
C259 C87 1.922 . S
C274 C185 2.198 . S
C269 C54 1.949 . S
C284 C239 2.463 . S
C279 C65 2.232 . S
C294 C100 2.476 1_554 S
C289 C32 2.225 . S
C299 C43 1.917 . S
C304 C130 2.208 1_554 S
C309 C10 1.947 . S
C314 C170 2.198 1_554 S
C319 C21 2.240 . S
C324 C220 2.463 1_554 S
C334 C96 0.890 1_455 S
C329 C60 0.875 . S
C344 C157 0.929 . S
C339 C71 0.949 . S
C354 C197 0.774 . S
C349 C82 0.780 . S
C359 C49 0.793 . S
C364 C216 0.799 . S
C369 C16 0.868 . S
C374 C117 0.889 . S
C384 C136 0.928 . S
C379 C27 0.937 . S
C394 C176 0.774 . S
C389 C38 0.780 . S
C399 C5 0.792 . S
C404 C237 0.799 . S
C409 C59 2.068 . S
C414 C90 2.413 . S
C419 C70 2.429 . S
C424 C140 2.719 . S
C434 C180 2.548 . S
C429 C81 2.270 . S
C444 C210 2.218 . S
C439 C48 1.897 . S
C449 C15 2.061 . S
C454 C105 2.413 . S
C464 C159 2.719 . S
C459 C26 2.426 . S
C474 C199 2.548 . S
C469 C37 2.285 . S
C479 C4 1.897 . S
C484 C225 2.218 . S
