# Generated by pormake.
# Topology eea, (3,6)-cn, num edge types: 1
# Building blocks:
#     Node 0, Type 0, BuildingBlock: KAKCAD_clean_linker_0, # of connection points: 3
#     Node 1, Type 0, BuildingBlock: KAKCAD_clean_linker_0, # of connection points: 3
#     Node 2, Type 0, BuildingBlock: KAKCAD_clean_linker_0, # of connection points: 3
#     Node 3, Type 0, BuildingBlock: KAKCAD_clean_linker_0, # of connection points: 3
#     Node 4, Type 0, BuildingBlock: KAKCAD_clean_linker_0, # of connection points: 3
#     Node 5, Type 0, BuildingBlock: KAKCAD_clean_linker_0, # of connection points: 3
#     Node 6, Type 0, BuildingBlock: KAKCAD_clean_linker_0, # of connection points: 3
#     Node 7, Type 0, BuildingBlock: KAKCAD_clean_linker_0, # of connection points: 3
#     Node 8, Type 0, BuildingBlock: KAKCAD_clean_linker_0, # of connection points: 3
#     Node 9, Type 0, BuildingBlock: KAKCAD_clean_linker_0, # of connection points: 3
#     Node 10, Type 0, BuildingBlock: KAKCAD_clean_linker_0, # of connection points: 3
#     Node 11, Type 0, BuildingBlock: KAKCAD_clean_linker_0, # of connection points: 3
#     Node 12, Type 0, BuildingBlock: KAKCAD_clean_linker_0, # of connection points: 3
#     Node 13, Type 0, BuildingBlock: KAKCAD_clean_linker_0, # of connection points: 3
#     Node 14, Type 0, BuildingBlock: KAKCAD_clean_linker_0, # of connection points: 3
#     Node 15, Type 0, BuildingBlock: KAKCAD_clean_linker_0, # of connection points: 3
#     Node 16, Type 0, BuildingBlock: KAKCAD_clean_linker_0, # of connection points: 3
#     Node 17, Type 0, BuildingBlock: KAKCAD_clean_linker_0, # of connection points: 3
#     Node 18, Type 1, BuildingBlock: KUMJIN_clean_sbu_0, # of connection points: 6
#     Node 19, Type 1, BuildingBlock: KUMJIN_clean_sbu_0, # of connection points: 6
#     Node 20, Type 1, BuildingBlock: KUMJIN_clean_sbu_0, # of connection points: 6
#     Node 21, Type 1, BuildingBlock: KUMJIN_clean_sbu_0, # of connection points: 6
#     Node 22, Type 1, BuildingBlock: KUMJIN_clean_sbu_0, # of connection points: 6
#     Node 23, Type 1, BuildingBlock: KUMJIN_clean_sbu_0, # of connection points: 6
#     Node 24, Type 1, BuildingBlock: KUMJIN_clean_sbu_0, # of connection points: 6
#     Node 25, Type 1, BuildingBlock: KUMJIN_clean_sbu_0, # of connection points: 6
#     Node 26, Type 1, BuildingBlock: KUMJIN_clean_sbu_0, # of connection points: 6
#     Edge 27, Type (0, 1), BuildingBlock: XUDNAN_clean_linker_2, # of connection points: 2
#     Edge 28, Type (0, 1), BuildingBlock: XUDNAN_clean_linker_2, # of connection points: 2
#     Edge 29, Type (0, 1), BuildingBlock: XUDNAN_clean_linker_2, # of connection points: 2
#     Edge 30, Type (0, 1), BuildingBlock: XUDNAN_clean_linker_2, # of connection points: 2
#     Edge 31, Type (0, 1), BuildingBlock: XUDNAN_clean_linker_2, # of connection points: 2
#     Edge 32, Type (0, 1), BuildingBlock: XUDNAN_clean_linker_2, # of connection points: 2
#     Edge 33, Type (0, 1), BuildingBlock: XUDNAN_clean_linker_2, # of connection points: 2
#     Edge 34, Type (0, 1), BuildingBlock: XUDNAN_clean_linker_2, # of connection points: 2
#     Edge 35, Type (0, 1), BuildingBlock: XUDNAN_clean_linker_2, # of connection points: 2
#     Edge 36, Type (0, 1), BuildingBlock: XUDNAN_clean_linker_2, # of connection points: 2
#     Edge 37, Type (0, 1), BuildingBlock: XUDNAN_clean_linker_2, # of connection points: 2
#     Edge 38, Type (0, 1), BuildingBlock: XUDNAN_clean_linker_2, # of connection points: 2
#     Edge 39, Type (0, 1), BuildingBlock: XUDNAN_clean_linker_2, # of connection points: 2
#     Edge 40, Type (0, 1), BuildingBlock: XUDNAN_clean_linker_2, # of connection points: 2
#     Edge 41, Type (0, 1), BuildingBlock: XUDNAN_clean_linker_2, # of connection points: 2
#     Edge 42, Type (0, 1), BuildingBlock: XUDNAN_clean_linker_2, # of connection points: 2
#     Edge 43, Type (0, 1), BuildingBlock: XUDNAN_clean_linker_2, # of connection points: 2
#     Edge 44, Type (0, 1), BuildingBlock: XUDNAN_clean_linker_2, # of connection points: 2
#     Edge 45, Type (0, 1), BuildingBlock: XUDNAN_clean_linker_2, # of connection points: 2
#     Edge 46, Type (0, 1), BuildingBlock: XUDNAN_clean_linker_2, # of connection points: 2
#     Edge 47, Type (0, 1), BuildingBlock: XUDNAN_clean_linker_2, # of connection points: 2
#     Edge 48, Type (0, 1), BuildingBlock: XUDNAN_clean_linker_2, # of connection points: 2
#     Edge 49, Type (0, 1), BuildingBlock: XUDNAN_clean_linker_2, # of connection points: 2
#     Edge 50, Type (0, 1), BuildingBlock: XUDNAN_clean_linker_2, # of connection points: 2
#     Edge 51, Type (0, 1), BuildingBlock: XUDNAN_clean_linker_2, # of connection points: 2
#     Edge 52, Type (0, 1), BuildingBlock: XUDNAN_clean_linker_2, # of connection points: 2
#     Edge 53, Type (0, 1), BuildingBlock: XUDNAN_clean_linker_2, # of connection points: 2
#     Edge 54, Type (0, 1), BuildingBlock: XUDNAN_clean_linker_2, # of connection points: 2
#     Edge 55, Type (0, 1), BuildingBlock: XUDNAN_clean_linker_2, # of connection points: 2
#     Edge 56, Type (0, 1), BuildingBlock: XUDNAN_clean_linker_2, # of connection points: 2
#     Edge 57, Type (0, 1), BuildingBlock: XUDNAN_clean_linker_2, # of connection points: 2
#     Edge 58, Type (0, 1), BuildingBlock: XUDNAN_clean_linker_2, # of connection points: 2
#     Edge 59, Type (0, 1), BuildingBlock: XUDNAN_clean_linker_2, # of connection points: 2
#     Edge 60, Type (0, 1), BuildingBlock: XUDNAN_clean_linker_2, # of connection points: 2
#     Edge 61, Type (0, 1), BuildingBlock: XUDNAN_clean_linker_2, # of connection points: 2
#     Edge 62, Type (0, 1), BuildingBlock: XUDNAN_clean_linker_2, # of connection points: 2
#     Edge 63, Type (0, 1), BuildingBlock: XUDNAN_clean_linker_2, # of connection points: 2
#     Edge 64, Type (0, 1), BuildingBlock: XUDNAN_clean_linker_2, # of connection points: 2
#     Edge 65, Type (0, 1), BuildingBlock: XUDNAN_clean_linker_2, # of connection points: 2
#     Edge 66, Type (0, 1), BuildingBlock: XUDNAN_clean_linker_2, # of connection points: 2
#     Edge 67, Type (0, 1), BuildingBlock: XUDNAN_clean_linker_2, # of connection points: 2
#     Edge 68, Type (0, 1), BuildingBlock: XUDNAN_clean_linker_2, # of connection points: 2
#     Edge 69, Type (0, 1), BuildingBlock: XUDNAN_clean_linker_2, # of connection points: 2
#     Edge 70, Type (0, 1), BuildingBlock: XUDNAN_clean_linker_2, # of connection points: 2
#     Edge 71, Type (0, 1), BuildingBlock: XUDNAN_clean_linker_2, # of connection points: 2
#     Edge 72, Type (0, 1), BuildingBlock: XUDNAN_clean_linker_2, # of connection points: 2
#     Edge 73, Type (0, 1), BuildingBlock: XUDNAN_clean_linker_2, # of connection points: 2
#     Edge 74, Type (0, 1), BuildingBlock: XUDNAN_clean_linker_2, # of connection points: 2
#     Edge 75, Type (0, 1), BuildingBlock: XUDNAN_clean_linker_2, # of connection points: 2
#     Edge 76, Type (0, 1), BuildingBlock: XUDNAN_clean_linker_2, # of connection points: 2
#     Edge 77, Type (0, 1), BuildingBlock: XUDNAN_clean_linker_2, # of connection points: 2
#     Edge 78, Type (0, 1), BuildingBlock: XUDNAN_clean_linker_2, # of connection points: 2
#     Edge 79, Type (0, 1), BuildingBlock: XUDNAN_clean_linker_2, # of connection points: 2
#     Edge 80, Type (0, 1), BuildingBlock: XUDNAN_clean_linker_2, # of connection points: 2
# Relax obj value: 0.009
# Max RMSD: 0.094
# Mean RMSD: 0.062
data_MOF--net-eea--node1-KUMJIN_clean_sbu_0--node2-KAKCAD_clean_linker_0--edge1-XUDNAN_clean_linker_2
_symmetry_space_group_name_H-M    P1
_symmetry_Int_Tables_number       1
_symmetry_cell_setting            triclinic
loop_
_symmetry_equiv_pos_as_xyz
'x, y, z'
_cell_length_a     62.766694
_cell_length_b     63.899183
_cell_length_c     88.575882
_cell_angle_alpha  90.358209
_cell_angle_beta   90.190386
_cell_angle_gamma 119.92635
loop_
_atom_site_label
_atom_site_type_symbol
_atom_site_fract_x
_atom_site_fract_y
_atom_site_fract_z
_atom_type_partial_charge
C0 C 0.2691 0.14898 0.48404 0.0
C1 C 0.28569 0.14165 0.48893 0.0
C2 C 0.25881 0.14306 0.46955 0.0
C3 C 0.26495 0.12982 0.45947 0.0
C4 C 0.28108 0.12197 0.46446 0.0
C5 C 0.29129 0.12778 0.47901 0.0
C6 C 0.25517 0.12504 0.4437 0.0
C7 C 0.25328 0.14309 0.43578 0.0
C8 C 0.24374 0.13899 0.42101 0.0
C9 C 0.23609 0.11648 0.41412 0.0
C10 C 0.23817 0.09831 0.42168 0.0
C11 C 0.24782 0.10273 0.43646 0.0
C12 C 0.23037 0.0749 0.41387 0.0
C13 C 0.20797 0.06324 0.40589 0.0
C14 C 0.24585 0.06489 0.41347 0.0
C15 C 0.23951 0.04421 0.40473 0.0
C16 C 0.21747 0.03304 0.39629 0.0
C17 C 0.24192 0.15827 0.41272 0.0
C18 C 0.23457 0.17311 0.42017 0.0
C19 C 0.24744 0.16191 0.39726 0.0
C20 C 0.24549 0.17979 0.38942 0.0
C21 C 0.23813 0.19463 0.39685 0.0
C22 C 0.23274 0.19109 0.41234 0.0
C23 C 0.20155 0.04254 0.39727 0.0
H24 H 0.26451 0.15987 0.49126 0.0
H25 H 0.24613 0.14907 0.46621 0.0
H26 H 0.28632 0.11185 0.45699 0.0
H27 H 0.3037 0.1215 0.48245 0.0
H28 H 0.25987 0.16065 0.44099 0.0
H29 H 0.24898 0.08857 0.44242 0.0
H30 H 0.22857 0.11307 0.40276 0.0
H31 H 0.19547 0.07031 0.4062 0.0
H32 H 0.26331 0.0736 0.41943 0.0
H33 H 0.25229 0.03751 0.40418 0.0
H34 H 0.22993 0.17066 0.43204 0.0
H35 H 0.25348 0.15105 0.39119 0.0
H36 H 0.18414 0.03408 0.39126 0.0
H37 H 0.22729 0.20236 0.41848 0.0
H38 H 0.24947 0.18175 0.37746 0.0
C39 C 0.86601 0.13705 0.47685 0.0
C40 C 0.8841 0.14158 0.48781 0.0
C41 C 0.8699 0.13387 0.46168 0.0
C42 C 0.89203 0.13533 0.4571 0.0
C43 C 0.91057 0.141 0.46794 0.0
C44 C 0.90662 0.144 0.48314 0.0
C45 C 0.8949 0.12878 0.4414 0.0
C46 C 0.91682 0.14262 0.43344 0.0
C47 C 0.92002 0.13542 0.41896 0.0
C48 C 0.90115 0.11366 0.41274 0.0
C49 C 0.87921 0.09931 0.42063 0.0
C50 C 0.87608 0.10751 0.43478 0.0
C51 C 0.86037 0.07509 0.41461 0.0
C52 C 0.85646 0.07047 0.39898 0.0
C53 C 0.84681 0.05594 0.42457 0.0
C54 C 0.83011 0.03295 0.41911 0.0
C55 C 0.82698 0.02802 0.4035 0.0
C56 C 0.94311 0.15038 0.41036 0.0
C57 C 0.95495 0.17574 0.41094 0.0
C58 C 0.95326 0.13947 0.40126 0.0
C59 C 0.97435 0.1535 0.39275 0.0
C60 C 0.98615 0.17886 0.39329 0.0
C61 C 0.97625 0.18977 0.40262 0.0
C62 C 0.8402 0.0472 0.3935 0.0
H63 H 0.84842 0.13493 0.48009 0.0
H64 H 0.85534 0.12969 0.45355 0.0
H65 H 0.92775 0.14207 0.46478 0.0
H66 H 0.92101 0.14775 0.49129 0.0
H67 H 0.93146 0.15889 0.43862 0.0
H68 H 0.8592 0.09694 0.44095 0.0
H69 H 0.90375 0.10771 0.40179 0.0
H70 H 0.86607 0.08475 0.39089 0.0
H71 H 0.84942 0.05837 0.43666 0.0
H72 H 0.81979 0.01899 0.42727 0.0
H73 H 0.9476 0.18484 0.41768 0.0
H74 H 0.94502 0.12003 0.40071 0.0
H75 H 0.83848 0.04425 0.3814 0.0
H76 H 0.98504 0.20922 0.40363 0.0
H77 H 0.98121 0.14437 0.38562 0.0
C78 C 0.89672 0.75491 0.48244 0.0
C79 C 0.87326 0.7389 0.48818 0.0
C80 C 0.89981 0.76201 0.46733 0.0
C81 C 0.87959 0.7531 0.45735 0.0
C82 C 0.85608 0.73705 0.46305 0.0
C83 C 0.85295 0.73008 0.47825 0.0
C84 C 0.88323 0.76046 0.4411 0.0
C85 C 0.9044 0.76404 0.43343 0.0
C86 C 0.90881 0.77197 0.41841 0.0
C87 C 0.89128 0.77565 0.41079 0.0
C88 C 0.86995 0.77245 0.41816 0.0
C89 C 0.86615 0.76477 0.43333 0.0
C90 C 0.8524 0.77836 0.4103 0.0
C91 C 0.8611 0.79784 0.40022 0.0
C92 C 0.82692 0.76506 0.41301 0.0
C93 C 0.81076 0.77133 0.40607 0.0
C94 C 0.81956 0.79101 0.39615 0.0
C95 C 0.93256 0.77795 0.41109 0.0
C96 C 0.95484 0.79191 0.41896 0.0
C97 C 0.93336 0.77049 0.39622 0.0
C98 C 0.95597 0.77697 0.38937 0.0
C99 C 0.97822 0.79142 0.39717 0.0
C100 C 0.97734 0.79864 0.41207 0.0
C101 C 0.84496 0.80393 0.39319 0.0
H102 H 0.91292 0.76185 0.48957 0.0
H103 H 0.91816 0.7747 0.46353 0.0
H104 H 0.84007 0.72962 0.45572 0.0
H105 H 0.83456 0.71794 0.48223 0.0
H106 H 0.9176 0.76056 0.43914 0.0
H107 H 0.85039 0.76313 0.43933 0.0
H108 H 0.89462 0.78161 0.39918 0.0
H109 H 0.88055 0.80884 0.39795 0.0
H110 H 0.81938 0.74975 0.42052 0.0
H111 H 0.79141 0.76102 0.40878 0.0
H112 H 0.95491 0.79815 0.43037 0.0
H113 H 0.91651 0.75962 0.38989 0.0
H114 H 0.85252 0.81892 0.38543 0.0
H115 H 0.99414 0.80963 0.41842 0.0
H116 H 0.95608 0.77123 0.37786 0.0
C117 C 0.13984 0.24444 0.53306 0.0
C118 C 0.12934 0.2584 0.5286 0.0
C119 C 0.13657 0.23531 0.54776 0.0
C120 C 0.12309 0.24028 0.55851 0.0
C121 C 0.11293 0.2546 0.55398 0.0
C122 C 0.11582 0.26331 0.53922 0.0
C123 C 0.11989 0.23098 0.57438 0.0
C124 C 0.13846 0.22829 0.58156 0.0
C125 C 0.13602 0.22064 0.59663 0.0
C126 C 0.11487 0.21599 0.60469 0.0
C127 C 0.09565 0.21787 0.59776 0.0
C128 C 0.09834 0.22514 0.58254 0.0
C129 C 0.0728 0.21211 0.6064 0.0
C130 C 0.06379 0.19428 0.61764 0.0
C131 C 0.05977 0.22438 0.60357 0.0
C132 C 0.03832 0.21876 0.61154 0.0
C133 C 0.02937 0.20096 0.62282 0.0
C134 C 0.15565 0.21763 0.60406 0.0
C135 C 0.16485 0.20393 0.5971 0.0
C136 C 0.16506 0.22813 0.61829 0.0
C137 C 0.1835 0.22531 0.62529 0.0
C138 C 0.19267 0.21158 0.61837 0.0
C139 C 0.183 0.20074 0.60425 0.0
C140 C 0.04266 0.18902 0.62581 0.0
H141 H 0.15017 0.24017 0.52506 0.0
H142 H 0.14436 0.22406 0.55059 0.0
H143 H 0.10299 0.25947 0.5619 0.0
H144 H 0.10776 0.27427 0.53618 0.0
H145 H 0.1553 0.23287 0.57566 0.0
H146 H 0.08336 0.22578 0.57691 0.0
H147 H 0.11347 0.21078 0.61641 0.0
H148 H 0.07285 0.18404 0.62009 0.0
H149 H 0.06617 0.23852 0.59523 0.0
H150 H 0.0286 0.22822 0.60865 0.0
H151 H 0.15781 0.19547 0.58619 0.0
H152 H 0.15839 0.23883 0.62391 0.0
H153 H 0.03688 0.17555 0.63456 0.0
H154 H 0.18985 0.19022 0.59859 0.0
H155 H 0.19054 0.23382 0.63619 0.0
C156 C 0.69764 0.83421 0.54634 0.0
C157 C 0.70603 0.85162 0.53491 0.0
C158 C 0.70806 0.84012 0.56078 0.0
C159 C 0.7273 0.86356 0.56416 0.0
C160 C 0.73505 0.88127 0.55289 0.0
C161 C 0.72447 0.87536 0.53841 0.0
C162 C 0.73998 0.86896 0.57911 0.0
C163 C 0.74496 0.85192 0.58577 0.0
C164 C 0.75699 0.8565 0.59978 0.0
C165 C 0.76437 0.87854 0.60717 0.0
C166 C 0.7592 0.89576 0.60093 0.0
C167 C 0.74717 0.89088 0.58679 0.0
C168 C 0.76601 0.91848 0.60942 0.0
C169 C 0.76376 0.91812 0.62524 0.0
C170 C 0.77531 0.94071 0.60196 0.0
C171 C 0.78279 0.9621 0.61018 0.0
C172 C 0.78133 0.9617 0.62601 0.0
C173 C 0.76117 0.83786 0.60683 0.0
C174 C 0.74171 0.81402 0.60789 0.0
C175 C 0.78446 0.8436 0.61242 0.0
C176 C 0.78837 0.82561 0.61852 0.0
C177 C 0.76897 0.80156 0.6193 0.0
C178 C 0.74551 0.79614 0.61415 0.0
C179 C 0.77148 0.93947 0.63342 0.0
H180 H 0.68309 0.81589 0.54408 0.0
H181 H 0.70119 0.82618 0.56928 0.0
H182 H 0.74992 0.89945 0.55508 0.0
H183 H 0.73138 0.88913 0.52981 0.0
H184 H 0.7399 0.83512 0.5799 0.0
H185 H 0.74271 0.90378 0.58198 0.0
H186 H 0.77387 0.88208 0.61793 0.0
H187 H 0.75606 0.90131 0.63135 0.0
H188 H 0.77747 0.9417 0.58982 0.0
H189 H 0.79044 0.97904 0.60419 0.0
H190 H 0.72347 0.80921 0.60393 0.0
H191 H 0.79979 0.86187 0.61169 0.0
H192 H 0.76973 0.93859 0.6456 0.0
H193 H 0.72996 0.77801 0.61492 0.0
H194 H 0.80673 0.83043 0.62222 0.0
C195 C 0.10667 0.87102 0.5328 0.0
C196 C 0.12842 0.87144 0.52846 0.0
C197 C 0.10242 0.87383 0.548 0.0
C198 C 0.12003 0.87755 0.55911 0.0
C199 C 0.14162 0.87767 0.55478 0.0
C200 C 0.14569 0.87449 0.53964 0.0
C201 C 0.11643 0.88201 0.57513 0.0
C202 C 0.09436 0.86668 0.58261 0.0
C203 C 0.09169 0.87028 0.59801 0.0
C204 C 0.11108 0.88969 0.60579 0.0
C205 C 0.13296 0.90571 0.5984 0.0
C206 C 0.13545 0.9016 0.58305 0.0
C207 C 0.15316 0.92659 0.60675 0.0
C208 C 0.14786 0.93898 0.61799 0.0
C209 C 0.17792 0.93424 0.60364 0.0
C210 C 0.19681 0.95372 0.6115 0.0
C211 C 0.19153 0.96585 0.62292 0.0
C212 C 0.06882 0.85381 0.60619 0.0
C213 C 0.04572 0.84818 0.60035 0.0
C214 C 0.0701 0.84444 0.62027 0.0
C215 C 0.04874 0.8299 0.6284 0.0
C216 C 0.02566 0.82465 0.62272 0.0
C217 C 0.02434 0.83387 0.60859 0.0
C218 C 0.16677 0.9582 0.62604 0.0
H219 H 0.09298 0.86857 0.52443 0.0
H220 H 0.08566 0.87374 0.55102 0.0
H221 H 0.15542 0.8803 0.56312 0.0
H222 H 0.1627 0.87508 0.53663 0.0
H223 H 0.07963 0.85148 0.57661 0.0
H224 H 0.15205 0.91391 0.57709 0.0
H225 H 0.10902 0.89225 0.61769 0.0
H226 H 0.12906 0.93396 0.62056 0.0
H227 H 0.18282 0.92504 0.59523 0.0
H228 H 0.2156 0.95932 0.60851 0.0
H229 H 0.04424 0.85529 0.58957 0.0
H230 H 0.08767 0.84838 0.62499 0.0
H231 H 0.16188 0.96685 0.63483 0.0
H232 H 0.00675 0.82986 0.60386 0.0
H233 H 0.05032 0.8231 0.63927 0.0
C234 C 0.94044 0.47838 0.81602 0.0
C235 C 0.95449 0.46809 0.82093 0.0
C236 C 0.93252 0.4759 0.80104 0.0
C237 C 0.93871 0.46335 0.79045 0.0
C238 C 0.95309 0.45336 0.79528 0.0
C239 C 0.9608 0.45562 0.81034 0.0
C240 C 0.92964 0.46029 0.77456 0.0
C241 C 0.92785 0.47893 0.76735 0.0
C242 C 0.91758 0.47557 0.75282 0.0
C243 C 0.90942 0.45345 0.74531 0.0
C244 C 0.91182 0.43492 0.7521 0.0
C245 C 0.92184 0.43841 0.76672 0.0
C246 C 0.9038 0.41188 0.7439 0.0
C247 C 0.88058 0.3997 0.73692 0.0
C248 C 0.91947 0.40217 0.74277 0.0
C249 C 0.91228 0.38094 0.7345 0.0
C250 C 0.88911 0.3688 0.72734 0.0
C251 C 0.91515 0.49515 0.74561 0.0
C252 C 0.93525 0.51874 0.74527 0.0
C253 C 0.89257 0.49053 0.73941 0.0
C254 C 0.88993 0.50933 0.73342 0.0
C255 C 0.90993 0.53312 0.73334 0.0
C256 C 0.93274 0.53746 0.7391 0.0
C257 C 0.87324 0.37831 0.72884 0.0
H258 H 0.93558 0.48851 0.82375 0.0
H259 H 0.92117 0.48354 0.79785 0.0
H260 H 0.95847 0.44382 0.78742 0.0
H261 H 0.97142 0.44728 0.81371 0.0
H262 H 0.93415 0.49605 0.77312 0.0
H263 H 0.92273 0.42371 0.77213 0.0
H264 H 0.90179 0.45088 0.734 0.0
H265 H 0.86802 0.40664 0.73781 0.0
H266 H 0.93756 0.41136 0.74797 0.0
H267 H 0.92514 0.37439 0.73344 0.0
H268 H 0.95296 0.5227 0.74977 0.0
H269 H 0.87674 0.47249 0.73963 0.0
H270 H 0.85503 0.3692 0.72382 0.0
H271 H 0.94872 0.55538 0.73891 0.0
H272 H 0.87202 0.5053 0.72928 0.0
C273 C 0.52789 0.46645 0.80642 0.0
C274 C 0.54461 0.46812 0.81762 0.0
C275 C 0.53236 0.46438 0.79119 0.0
C276 C 0.55368 0.46402 0.7868 0.0
C277 C 0.57077 0.46643 0.79796 0.0
C278 C 0.56625 0.4684 0.8132 0.0
C279 C 0.55747 0.45987 0.77075 0.0
C280 C 0.58062 0.47339 0.764 0.0
C281 C 0.5844 0.46887 0.74897 0.0
C282 C 0.56479 0.45025 0.74082 0.0
C283 C 0.54143 0.43653 0.74732 0.0
C284 C 0.53796 0.44175 0.76226 0.0
C285 C 0.52093 0.41641 0.73864 0.0
C286 C 0.51879 0.41785 0.72291 0.0
C287 C 0.50364 0.39526 0.74598 0.0
C288 C 0.48495 0.37607 0.73782 0.0
C289 C 0.48336 0.37714 0.72202 0.0
C290 C 0.60862 0.48387 0.74161 0.0
C291 C 0.62175 0.50902 0.74384 0.0
C292 C 0.61835 0.47333 0.73185 0.0
C293 C 0.64039 0.48766 0.72425 0.0
C294 C 0.65327 0.51286 0.72627 0.0
C295 C 0.64382 0.52332 0.7363 0.0
C296 C 0.50047 0.3984 0.71469 0.0
H297 H 0.51096 0.46599 0.80945 0.0
H298 H 0.51898 0.4628 0.78284 0.0
H299 H 0.58728 0.46606 0.79495 0.0
H300 H 0.57962 0.46995 0.82155 0.0
H301 H 0.59571 0.48745 0.77048 0.0
H302 H 0.52007 0.43149 0.76742 0.0
H303 H 0.56779 0.44648 0.72933 0.0
H304 H 0.53136 0.43398 0.71684 0.0
H305 H 0.50473 0.39318 0.75802 0.0
H306 H 0.47185 0.36033 0.74399 0.0
H307 H 0.61472 0.51777 0.75118 0.0
H308 H 0.60888 0.45397 0.73003 0.0
H309 H 0.50014 0.39995 0.70255 0.0
H310 H 0.65349 0.54263 0.73836 0.0
H311 H 0.64706 0.47901 0.71656 0.0
C312 C 0.56154 0.08488 0.81683 0.0
C313 C 0.53706 0.06927 0.8212 0.0
C314 C 0.56706 0.09396 0.80212 0.0
C315 C 0.5483 0.08754 0.79127 0.0
C316 C 0.52385 0.07185 0.79564 0.0
C317 C 0.51831 0.063 0.81037 0.0
C318 C 0.55404 0.09713 0.77551 0.0
C319 C 0.57563 0.10091 0.76822 0.0
C320 C 0.58068 0.10943 0.75333 0.0
C321 C 0.56405 0.11428 0.74564 0.0
C322 C 0.5427 0.11124 0.75276 0.0
C323 C 0.53788 0.10263 0.76766 0.0
C324 C 0.5259 0.11788 0.74484 0.0
C325 C 0.53551 0.13908 0.73625 0.0
C326 C 0.50021 0.10346 0.74606 0.0
C327 C 0.48456 0.11025 0.73905 0.0
C328 C 0.49422 0.1317 0.7307 0.0
C329 C 0.60375 0.11409 0.74583 0.0
C330 C 0.62665 0.13105 0.752 0.0
C331 C 0.60301 0.10265 0.73207 0.0
C332 C 0.62481 0.10815 0.72458 0.0
C333 C 0.64766 0.12565 0.73053 0.0
C334 C 0.6484 0.13699 0.74432 0.0
C335 C 0.51989 0.14589 0.72929 0.0
H336 H 0.57658 0.08993 0.82471 0.0
H337 H 0.58608 0.10622 0.79932 0.0
H338 H 0.50885 0.06613 0.78763 0.0
H339 H 0.4992 0.05136 0.81327 0.0
H340 H 0.58833 0.09676 0.77396 0.0
H341 H 0.52184 0.10096 0.77332 0.0
H342 H 0.56798 0.12079 0.73415 0.0
H343 H 0.55518 0.15076 0.73517 0.0
H344 H 0.49218 0.08689 0.75246 0.0
H345 H 0.4649 0.09898 0.74047 0.0
H346 H 0.62767 0.14023 0.76253 0.0
H347 H 0.58554 0.08954 0.7271 0.0
H348 H 0.52797 0.16238 0.7228 0.0
H349 H 0.66583 0.15052 0.74912 0.0
H350 H 0.62381 0.09925 0.71394 0.0
C351 C 0.8118 0.59001 0.87097 0.0
C352 C 0.8023 0.60476 0.86639 0.0
C353 C 0.80851 0.58135 0.88581 0.0
C354 C 0.79605 0.58765 0.89655 0.0
C355 C 0.7872 0.60304 0.89193 0.0
C356 C 0.79002 0.6112 0.87704 0.0
C357 C 0.79212 0.57826 0.91244 0.0
C358 C 0.80944 0.57376 0.91972 0.0
C359 C 0.80597 0.56537 0.93469 0.0
C360 C 0.78507 0.56203 0.9426 0.0
C361 C 0.76743 0.56636 0.93564 0.0
C362 C 0.77098 0.57396 0.92049 0.0
C363 C 0.74559 0.56366 0.94416 0.0
C364 C 0.73298 0.54493 0.95461 0.0
C365 C 0.7372 0.58012 0.94188 0.0
C366 C 0.71693 0.57798 0.94972 0.0
C367 C 0.70447 0.5595 0.9603 0.0
C368 C 0.82399 0.55962 0.94191 0.0
C369 C 0.8326 0.54626 0.93393 0.0
C370 C 0.83233 0.5669 0.95684 0.0
C371 C 0.84867 0.56072 0.96365 0.0
C372 C 0.85671 0.54679 0.95576 0.0
C373 C 0.84862 0.53984 0.94077 0.0
C374 C 0.71265 0.54284 0.96256 0.0
H375 H 0.82121 0.58463 0.86294 0.0
H376 H 0.81532 0.56932 0.88871 0.0
H377 H 0.77817 0.60901 0.89982 0.0
H378 H 0.78276 0.6228 0.87387 0.0
H379 H 0.82602 0.57728 0.91388 0.0
H380 H 0.75691 0.57618 0.91487 0.0
H381 H 0.78254 0.55601 0.9542 0.0
H382 H 0.73869 0.53173 0.95658 0.0
H383 H 0.7465 0.59498 0.93412 0.0
H384 H 0.71099 0.5909 0.94739 0.0
H385 H 0.82645 0.54022 0.92246 0.0
H386 H 0.82623 0.5774 0.96327 0.0
H387 H 0.70361 0.52843 0.97063 0.0
H388 H 0.85462 0.52927 0.93433 0.0
H389 H 0.85447 0.56626 0.97522 0.0
C390 C 0.38924 0.17084 0.87461 0.0
C391 C 0.39724 0.1891 0.86378 0.0
C392 C 0.39793 0.17628 0.88949 0.0
C393 C 0.41531 0.20009 0.89387 0.0
C394 C 0.42336 0.21833 0.8829 0.0
C395 C 0.41423 0.21293 0.86807 0.0
C396 C 0.42464 0.20573 0.90983 0.0
C397 C 0.42722 0.18863 0.91845 0.0
C398 C 0.43445 0.19297 0.93377 0.0
C399 C 0.43982 0.2152 0.94032 0.0
C400 C 0.43844 0.23291 0.93177 0.0
C401 C 0.43067 0.22803 0.91663 0.0
C402 C 0.44584 0.25683 0.9386 0.0
C403 C 0.43472 0.25871 0.95188 0.0
C404 C 0.46495 0.27786 0.93219 0.0
C405 C 0.47332 0.30032 0.93921 0.0
C406 C 0.46234 0.30218 0.95255 0.0
C407 C 0.4362 0.17423 0.94289 0.0
C408 C 0.41951 0.14953 0.94045 0.0
C409 C 0.45438 0.18076 0.95416 0.0
C410 C 0.45562 0.16312 0.96284 0.0
C411 C 0.43889 0.13843 0.96038 0.0
C412 C 0.42097 0.13193 0.94895 0.0
C413 C 0.44271 0.28128 0.95871 0.0
H414 H 0.37593 0.15235 0.87162 0.0
H415 H 0.39069 0.16176 0.89759 0.0
H416 H 0.437 0.23679 0.88564 0.0
H417 H 0.42083 0.2273 0.85987 0.0
H418 H 0.424 0.17199 0.91314 0.0
H419 H 0.42882 0.24152 0.91034 0.0
H420 H 0.44526 0.21893 0.95209 0.0
H421 H 0.41994 0.24272 0.957 0.0
H422 H 0.47389 0.27681 0.922 0.0
H423 H 0.48851 0.31624 0.9343 0.0
H424 H 0.40502 0.14367 0.93206 0.0
H425 H 0.46784 0.19952 0.95626 0.0
H426 H 0.43409 0.28234 0.96904 0.0
H427 H 0.40805 0.11316 0.94643 0.0
H428 H 0.46955 0.16894 0.97159 0.0
C429 C 0.77555 0.19133 0.8729 0.0
C430 C 0.79955 0.20168 0.86712 0.0
C431 C 0.7715 0.1942 0.8881 0.0
C432 C 0.79132 0.20697 0.89819 0.0
C433 C 0.81534 0.21708 0.89248 0.0
C434 C 0.81939 0.2147 0.87717 0.0
C435 C 0.7869 0.20979 0.91453 0.0
C436 C 0.76596 0.19172 0.92194 0.0
C437 C 0.76133 0.19448 0.93712 0.0
C438 C 0.77809 0.21534 0.94509 0.0
C439 C 0.79903 0.2337 0.938 0.0
C440 C 0.80329 0.23079 0.92275 0.0
C441 C 0.81592 0.2562 0.9465 0.0
C442 C 0.80633 0.26737 0.95579 0.0
C443 C 0.84158 0.26639 0.94568 0.0
C444 C 0.85725 0.28689 0.95433 0.0
C445 C 0.84758 0.29769 0.96393 0.0
C446 C 0.73828 0.1763 0.9445 0.0
C447 C 0.71543 0.16906 0.9376 0.0
C448 C 0.73882 0.16727 0.95885 0.0
C449 C 0.71691 0.15161 0.96625 0.0
C450 C 0.69408 0.14512 0.95957 0.0
C451 C 0.69357 0.1538 0.94511 0.0
C452 C 0.82193 0.28785 0.96435 0.0
H453 H 0.75967 0.18073 0.86574 0.0
H454 H 0.75269 0.1865 0.89183 0.0
H455 H 0.83119 0.22673 0.89982 0.0
H456 H 0.83818 0.22333 0.87327 0.0
H457 H 0.75322 0.17524 0.91603 0.0
H458 H 0.81897 0.24536 0.91718 0.0
H459 H 0.77454 0.21748 0.9568 0.0
H460 H 0.78668 0.26031 0.95642 0.0
H461 H 0.84952 0.25812 0.93868 0.0
H462 H 0.87689 0.29387 0.95379 0.0
H463 H 0.71448 0.17589 0.9266 0.0
H464 H 0.7562 0.17253 0.9644 0.0
H465 H 0.81382 0.29601 0.9713 0.0
H466 H 0.6762 0.14894 0.93967 0.0
H467 H 0.71779 0.14522 0.97741 0.0
C468 C 0.6107 0.81088 0.1525 0.0
C469 C 0.62526 0.80026 0.15544 0.0
C470 C 0.59747 0.80613 0.13891 0.0
C471 C 0.59867 0.79085 0.12783 0.0
C472 C 0.61324 0.78027 0.13084 0.0
C473 C 0.626 0.78462 0.14447 0.0
C474 C 0.58512 0.78595 0.11313 0.0
C475 C 0.58212 0.804 0.10594 0.0
C476 C 0.57075 0.79968 0.09166 0.0
C477 C 0.56205 0.77708 0.08464 0.0
C478 C 0.56471 0.7589 0.0916 0.0
C479 C 0.57599 0.76334 0.10586 0.0
C480 C 0.55666 0.73567 0.08358 0.0
C481 C 0.53325 0.72309 0.07686 0.0
C482 C 0.57285 0.72664 0.08188 0.0
C483 C 0.56607 0.70589 0.07317 0.0
C484 C 0.54282 0.69354 0.0661 0.0
C485 C 0.56849 0.81877 0.08359 0.0
C486 C 0.5572 0.83063 0.09039 0.0
C487 C 0.57613 0.82394 0.06853 0.0
C488 C 0.57167 0.83985 0.06021 0.0
C489 C 0.55914 0.85078 0.06668 0.0
C490 C 0.55246 0.84642 0.08199 0.0
C491 C 0.52633 0.70217 0.06833 0.0
H492 H 0.60979 0.8232 0.16057 0.0
H493 H 0.58625 0.8144 0.13715 0.0
H494 H 0.61517 0.7688 0.12257 0.0
H495 H 0.63648 0.7756 0.14635 0.0
H496 H 0.5895 0.82172 0.11108 0.0
H497 H 0.57746 0.74896 0.11128 0.0
H498 H 0.55349 0.77377 0.07356 0.0
H499 H 0.52032 0.72953 0.07815 0.0
H500 H 0.59111 0.73615 0.08683 0.0
H501 H 0.5794 0.70003 0.07158 0.0
H502 H 0.55107 0.82687 0.10198 0.0
H503 H 0.58524 0.81533 0.0631 0.0
H504 H 0.50806 0.69285 0.06341 0.0
H505 H 0.54269 0.85441 0.08733 0.0
H506 H 0.57773 0.84328 0.0486 0.0
C507 C 0.2188 0.83501 0.14542 0.0
C508 C 0.20972 0.81783 0.157 0.0
C509 C 0.22172 0.82851 0.1308 0.0
C510 C 0.21578 0.80466 0.12735 0.0
C511 C 0.20659 0.78742 0.13893 0.0
C512 C 0.20353 0.79392 0.15357 0.0
C513 C 0.2191 0.79796 0.11169 0.0
C514 C 0.2395 0.81414 0.10308 0.0
C515 C 0.24239 0.80871 0.08806 0.0
C516 C 0.22451 0.7866 0.08169 0.0
C517 C 0.20441 0.76994 0.09021 0.0
C518 C 0.20182 0.77566 0.10519 0.0
C519 C 0.1865 0.7463 0.08347 0.0
C520 C 0.17433 0.74509 0.06986 0.0
C521 C 0.18256 0.72481 0.09016 0.0
C522 C 0.16747 0.70254 0.08307 0.0
C523 C 0.15562 0.70136 0.06934 0.0
C524 C 0.26403 0.82611 0.07905 0.0
C525 C 0.27321 0.8511 0.08045 0.0
C526 C 0.27574 0.81796 0.06901 0.0
C527 C 0.29604 0.83437 0.06059 0.0
C528 C 0.30524 0.85937 0.06203 0.0
C529 C 0.29358 0.86748 0.07214 0.0
C530 C 0.15878 0.72275 0.06294 0.0
H531 H 0.2233 0.85347 0.14759 0.0
H532 H 0.22831 0.84217 0.12213 0.0
H533 H 0.2021 0.76897 0.13676 0.0
H534 H 0.1967 0.7803 0.16227 0.0
H535 H 0.25347 0.83085 0.10822 0.0
H536 H 0.18596 0.76295 0.11158 0.0
H537 H 0.22624 0.78218 0.07009 0.0
H538 H 0.1771 0.76145 0.06451 0.0
H539 H 0.19186 0.72533 0.1006 0.0
H540 H 0.16528 0.68624 0.08819 0.0
H541 H 0.26455 0.8581 0.08791 0.0
H542 H 0.26942 0.79887 0.06776 0.0
H543 H 0.14992 0.72224 0.05232 0.0
H544 H 0.30034 0.88658 0.0738 0.0
H545 H 0.30439 0.82741 0.05285 0.0
C546 C 0.23601 0.42195 0.14603 0.0
C547 C 0.21259 0.40587 0.15183 0.0
C548 C 0.2389 0.42943 0.13098 0.0
C549 C 0.21851 0.42081 0.12115 0.0
C550 C 0.19512 0.40456 0.12691 0.0
C551 C 0.19218 0.39734 0.14202 0.0
C552 C 0.22163 0.42862 0.10499 0.0
C553 C 0.2427 0.43297 0.09687 0.0
C554 C 0.24563 0.44007 0.08167 0.0
C555 C 0.22708 0.44261 0.07443 0.0
C556 C 0.20592 0.43862 0.08232 0.0
C557 C 0.20354 0.43179 0.0976 0.0
C558 C 0.18625 0.44159 0.07474 0.0
C559 C 0.19209 0.4608 0.0648 0.0
C560 C 0.16132 0.42533 0.07765 0.0
C561 C 0.14278 0.42824 0.07092 0.0
C562 C 0.14855 0.44744 0.061 0.0
C563 C 0.2685 0.44541 0.07357 0.0
C564 C 0.29154 0.46234 0.07961 0.0
C565 C 0.26758 0.43375 0.05985 0.0
C566 C 0.28933 0.43887 0.05237 0.0
C567 C 0.3123 0.45617 0.05831 0.0
C568 C 0.31319 0.46786 0.07197 0.0
C569 C 0.17348 0.46373 0.05804 0.0
H570 H 0.2523 0.42868 0.15306 0.0
H571 H 0.25719 0.44219 0.12713 0.0
H572 H 0.17896 0.39717 0.11971 0.0
H573 H 0.17379 0.38521 0.14602 0.0
H574 H 0.25675 0.4304 0.10223 0.0
H575 H 0.18775 0.42952 0.10386 0.0
H576 H 0.22924 0.44785 0.06267 0.0
H577 H 0.21108 0.47382 0.0624 0.0
H578 H 0.15604 0.41017 0.08511 0.0
H579 H 0.12385 0.41551 0.07367 0.0
H580 H 0.29277 0.47164 0.09013 0.0
H581 H 0.25005 0.42055 0.055 0.0
H582 H 0.17865 0.47862 0.05039 0.0
H583 H 0.33069 0.48129 0.07675 0.0
H584 H 0.2882 0.42974 0.04181 0.0
C585 C 0.4758 0.92118 0.20142 0.0
C586 C 0.47711 0.9437 0.20004 0.0
C587 C 0.46893 0.90869 0.21517 0.0
C588 C 0.46269 0.91824 0.22766 0.0
C589 C 0.46334 0.94043 0.22606 0.0
C590 C 0.47065 0.95308 0.21248 0.0
C591 C 0.45622 0.90576 0.24253 0.0
C592 C 0.47144 0.89803 0.24927 0.0
C593 C 0.46687 0.88876 0.26401 0.0
C594 C 0.44644 0.88664 0.27188 0.0
C595 C 0.43038 0.8934 0.26518 0.0
C596 C 0.4356 0.90302 0.25049 0.0
C597 C 0.40849 0.89086 0.27358 0.0
C598 C 0.39506 0.87137 0.28339 0.0
C599 C 0.40075 0.90794 0.27184 0.0
C600 C 0.38019 0.90552 0.27951 0.0
C601 C 0.36684 0.88616 0.28941 0.0
C602 C 0.48381 0.88191 0.27144 0.0
C603 C 0.48937 0.86538 0.2645 0.0
C604 C 0.49433 0.89167 0.28563 0.0
C605 C 0.51011 0.8851 0.29271 0.0
C606 C 0.51527 0.8682 0.28592 0.0
C607 C 0.5047 0.85838 0.27174 0.0
C608 C 0.37462 0.86911 0.29122 0.0
H609 H 0.48083 0.91362 0.19203 0.0
H610 H 0.46851 0.89159 0.21605 0.0
H611 H 0.45884 0.94837 0.23549 0.0
H612 H 0.47148 0.97039 0.21173 0.0
H613 H 0.48752 0.9003 0.24332 0.0
H614 H 0.4235 0.90826 0.24507 0.0
H615 H 0.44322 0.87983 0.28331 0.0
H616 H 0.40014 0.85763 0.28493 0.0
H617 H 0.41069 0.92342 0.26462 0.0
H618 H 0.37466 0.91883 0.2775 0.0
H619 H 0.48147 0.85754 0.25359 0.0
H620 H 0.49046 0.90454 0.2912 0.0
H621 H 0.36509 0.85407 0.29882 0.0
H622 H 0.50847 0.84542 0.26621 0.0
H623 H 0.51792 0.89287 0.30365 0.0
C624 C 0.03745 0.49951 0.21255 0.0
C625 C 0.04703 0.51626 0.20077 0.0
C626 C 0.04683 0.50605 0.22722 0.0
C627 C 0.06623 0.52948 0.23049 0.0
C628 C 0.07546 0.54643 0.21874 0.0
C629 C 0.06589 0.53991 0.20406 0.0
C630 C 0.07716 0.53579 0.24598 0.0
C631 C 0.08001 0.51872 0.2544 0.0
C632 C 0.09022 0.52418 0.26899 0.0
C633 C 0.09754 0.54694 0.27533 0.0
C634 C 0.0948 0.56423 0.26716 0.0
C635 C 0.08484 0.55868 0.25246 0.0
C636 C 0.1025 0.58812 0.27408 0.0
C637 C 0.09306 0.58977 0.28812 0.0
C638 C 0.12005 0.60933 0.267 0.0
C639 C 0.12865 0.63177 0.27408 0.0
C640 C 0.11941 0.6334 0.2882 0.0
C641 C 0.09332 0.50596 0.27744 0.0
C642 C 0.07311 0.48283 0.27958 0.0
C643 C 0.1166 0.51107 0.28263 0.0
C644 C 0.11982 0.49292 0.28917 0.0
C645 C 0.09971 0.4694 0.29082 0.0
C646 C 0.0762 0.46485 0.28635 0.0
C647 C 0.10125 0.61227 0.29505 0.0
H648 H 0.02257 0.48129 0.21045 0.0
H649 H 0.03881 0.49268 0.23601 0.0
H650 H 0.09054 0.56455 0.22079 0.0
H651 H 0.07372 0.55318 0.19518 0.0
H652 H 0.07489 0.50125 0.24946 0.0
H653 H 0.08251 0.57198 0.24627 0.0
H654 H 0.1054 0.5512 0.28661 0.0
H655 H 0.07944 0.57362 0.29376 0.0
H656 H 0.12764 0.60845 0.2562 0.0
H657 H 0.14262 0.64787 0.26858 0.0
H658 H 0.05492 0.47859 0.27584 0.0
H659 H 0.13247 0.52882 0.28104 0.0
H660 H 0.09395 0.6131 0.30596 0.0
H661 H 0.06014 0.44722 0.28783 0.0
H662 H 0.13821 0.4971 0.29234 0.0
C663 C 0.44118 0.53148 0.19884 0.0
C664 C 0.46372 0.53378 0.19434 0.0
C665 C 0.43688 0.53415 0.21405 0.0
C666 C 0.45516 0.53948 0.22501 0.0
C667 C 0.47752 0.54138 0.22053 0.0
C668 C 0.48172 0.53848 0.20538 0.0
C669 C 0.45144 0.54383 0.24103 0.0
C670 C 0.42956 0.52814 0.24857 0.0
C671 C 0.42674 0.53179 0.26393 0.0
C672 C 0.44588 0.5515 0.27166 0.0
C673 C 0.46752 0.56797 0.26418 0.0
C674 C 0.4701 0.56384 0.24886 0.0
C675 C 0.48719 0.58957 0.27231 0.0
C676 C 0.48104 0.60138 0.28349 0.0
C677 C 0.51224 0.59857 0.26906 0.0
C678 C 0.53057 0.61866 0.27687 0.0
C679 C 0.52423 0.62981 0.28828 0.0
C680 C 0.40377 0.51528 0.27201 0.0
C681 C 0.3808 0.51003 0.26613 0.0
C682 C 0.40476 0.50553 0.28601 0.0
C683 C 0.38322 0.4909 0.294 0.0
C684 C 0.36029 0.48608 0.28827 0.0
C685 C 0.35928 0.49573 0.27424 0.0
C686 C 0.49935 0.62109 0.29148 0.0
H687 H 0.42689 0.52768 0.19059 0.0
H688 H 0.41951 0.53267 0.21717 0.0
H689 H 0.49186 0.54524 0.22875 0.0
H690 H 0.49935 0.54057 0.20227 0.0
H691 H 0.41502 0.5127 0.24262 0.0
H692 H 0.48644 0.57653 0.24283 0.0
H693 H 0.4437 0.55405 0.28354 0.0
H694 H 0.46204 0.5955 0.28607 0.0
H695 H 0.5178 0.58983 0.2607 0.0
H696 H 0.5497 0.62504 0.27432 0.0
H697 H 0.37955 0.51745 0.25541 0.0
H698 H 0.42224 0.50923 0.29076 0.0
H699 H 0.49409 0.62961 0.30017 0.0
H700 H 0.34181 0.49208 0.2695 0.0
H701 H 0.38452 0.48373 0.30479 0.0
Eu702 Eu 0.49457 0.98684 0.99377 0.0
C703 C 0.55801 0.06711 0.03323 0.0
C704 C 0.59568 0.06542 0.03421 0.0
C705 C 0.59767 0.10408 0.03142 0.0
C706 C 0.5697 0.05366 0.03419 0.0
C707 C 0.57198 0.09258 0.03244 0.0
C708 C 0.6095 0.0905 0.03226 0.0
C709 C 0.53453 0.09382 0.03558 0.0
N710 N 0.53314 0.05551 0.03405 0.0
C711 C 0.52155 0.06864 0.03634 0.0
C712 C 0.5598 0.10584 0.03322 0.0
Eu713 Eu 0.51213 0.0123 0.03243 0.0
N714 N 0.55581 0.02934 0.03594 0.0
C715 C 0.56714 0.01658 0.03999 0.0
C716 C 0.60709 0.05175 0.03668 0.0
C717 C 0.59274 0.02735 0.04 0.0
H718 H 0.50197 0.05974 0.0383 0.0
H719 H 0.6014 0.01685 0.0428 0.0
H720 H 0.6294 0.09968 0.03194 0.0
H721 H 0.52499 0.10393 0.03681 0.0
H722 H 0.55691 0.99818 0.04359 0.0
H723 H 0.39318 0.93682 0.99318 0.0
H724 H 0.62694 0.06008 0.03678 0.0
H725 H 0.53049 0.97031 0.97507 0.0
H726 H 0.43374 0.97295 0.99317 0.0
H727 H 0.5286 0.93299 0.96568 0.0
H728 H 0.6086 0.12354 0.03049 0.0
H729 H 0.38899 0.8965 0.99003 0.0
H730 H 0.4089 0.87197 0.98377 0.0
H731 H 0.56986 0.12538 0.03265 0.0
H732 H 0.44582 0.87093 0.97572 0.0
N733 N 0.45348 0.95376 0.99143 0.0
C734 C 0.43277 0.95573 0.99216 0.0
C735 C 0.40712 0.9124 0.99026 0.0
C736 C 0.42814 0.91065 0.98777 0.0
C737 C 0.40942 0.93512 0.992 0.0
C738 C 0.45135 0.93194 0.98825 0.0
H739 H 0.49028 0.89372 0.9683 0.0
N740 N 0.49383 0.95227 0.98337 0.0
C741 C 0.51267 0.93219 0.97094 0.0
C742 C 0.47212 0.93123 0.98385 0.0
C743 C 0.5137 0.95329 0.97635 0.0
C744 C 0.49102 0.91005 0.97246 0.0
C745 C 0.47025 0.90942 0.97872 0.0
O746 O 0.50666 0.0191 0.97998 0.0
O747 O 0.52263 0.01665 0.0083 0.0
O748 O 0.49549 0.03133 0.01881 0.0
O749 O 0.47186 0.00407 0.99999 0.0
O750 O 0.53566 0.00068 0.99371 0.0
O751 O 0.4888 0.98457 0.9691 0.0
O752 O 0.48819 0.01563 0.04906 0.0
O753 O 0.48106 0.98709 0.01703 0.0
O754 O 0.50618 0.96316 1.00635 0.0
O755 O 0.5216 0.9824 0.02972 0.0
O756 O 0.48307 0.97363 0.03759 0.0
O757 O 0.51677 0.00836 0.05654 0.0
C758 C 0.54202 0.01803 1.00332 0.0
C759 C 0.51964 0.01739 0.95524 0.0
C760 C 0.53187 0.02979 0.92906 0.0
C761 C 0.51342 0.01933 0.94018 0.0
C762 C 0.55644 0.03789 0.93321 0.0
C763 C 0.54437 0.02566 0.95896 0.0
C764 C 0.56257 0.03579 0.94803 0.0
C765 C 0.47912 0.02427 0.00771 0.0
C766 C 0.50062 0.00774 0.96713 0.0
C767 C 0.44752 0.88793 0.97935 0.0
C768 C 0.42651 0.88853 0.98394 0.0
C769 C 0.47027 0.96889 0.02538 0.0
C770 C 0.50172 0.02501 0.07491 0.0
C771 C 0.50283 0.01464 0.08875 0.0
C772 C 0.50527 0.02676 0.10258 0.0
C773 C 0.50628 0.04926 0.10233 0.0
C774 C 0.50263 0.04739 0.07508 0.0
C775 C 0.50494 0.05941 0.08871 0.0
C776 C 0.51675 0.96508 0.01967 0.0
C777 C 0.49874 0.01171 0.0606 0.0
H778 H 0.49442 0.01319 0.93723 0.0
H779 H 0.57097 0.0456 0.92493 0.0
H780 H 0.54978 0.02456 0.97033 0.0
H781 H 0.58154 0.04211 0.95108 0.0
H782 H 0.50205 0.9973 0.08872 0.0
H783 H 0.50782 0.05895 0.11273 0.0
H784 H 0.50133 0.05555 0.06475 0.0
H785 H 0.50557 0.07665 0.08872 0.0
Eu786 Eu 0.01392 0.50191 0.9972 0.0
C787 C 0.95803 0.52812 0.03948 0.0
C788 C 0.98177 0.56079 0.05713 0.0
C789 C 0.94342 0.5555 0.04686 0.0
C790 C 0.97879 0.54103 0.04833 0.0
C791 C 0.93976 0.53482 0.03896 0.0
C792 C 0.96435 0.5684 0.05599 0.0
C793 C 0.91419 0.49832 0.02469 0.0
N794 N 0.95475 0.50784 0.0324 0.0
C795 C 0.93274 0.49232 0.02572 0.0
C796 C 0.91788 0.5199 0.03111 0.0
Eu797 Eu 0.98725 0.49917 0.03408 0.0
N798 N 0.9952 0.53314 0.04919 0.0
C799 C 0.01373 0.5427 0.05971 0.0
C800 C 1.00159 0.57161 0.06727 0.0
C801 C 0.01745 0.56232 0.0687 0.0
H802 H 0.92961 0.47551 0.02082 0.0
H803 H 0.03249 0.57019 0.07677 0.0
H804 H 0.96649 0.58376 0.0625 0.0
H805 H 0.89705 0.48628 0.01897 0.0
H806 H 0.02595 0.53545 0.0609 0.0
H807 H 0.04642 0.4365 0.99544 0.0
H808 H 0.0044 0.58671 0.07433 0.0
H809 H 0.04393 0.55877 0.98356 0.0
H810 H 0.0155 0.4492 0.9951 0.0
H811 H 0.08675 0.59076 0.97898 0.0
H812 H 0.92972 0.56109 0.04645 0.0
H813 H 0.09065 0.46698 0.99559 0.0
H814 H 0.12336 0.51035 0.99318 0.0
H815 H 0.90339 0.52439 0.03043 0.0
H816 H 0.13442 0.55247 0.98869 0.0
N817 N 0.04172 0.48692 0.99607 0.0
C818 C 0.03461 0.46292 0.99544 0.0
C819 C 0.07711 0.47278 0.99556 0.0
C820 C 0.08426 0.49726 0.99474 0.0
C821 C 0.05217 0.45553 0.99546 0.0
C822 C 0.06589 0.50388 0.99478 0.0
H823 H 0.12088 0.58251 0.98303 0.0
N824 N 0.05391 0.53308 0.99083 0.0
C825 C 0.08293 0.57316 0.98278 0.0
C826 C 0.07217 0.52763 0.99205 0.0
C827 C 0.05871 0.555 0.98534 0.0
C828 C 0.10214 0.56845 0.98512 0.0
C829 C 0.09686 0.5453 0.98941 0.0
O830 O 0.98418 0.4832 0.98069 0.0
O831 O 0.98326 0.50273 0.00937 0.0
O832 O 0.9624 0.46513 0.02039 0.0
O833 O 0.98906 0.46255 1.00335 0.0
O834 O 1.00297 0.53068 0.99486 0.0
O835 O 0.02127 0.50194 0.97294 0.0
O836 O 0.95569 0.47218 0.04672 0.0
O837 O 0.01052 0.48817 0.0206 0.0
O838 O 0.0397 0.53458 0.01163 0.0
O839 O 0.01487 0.53856 0.02953 0.0
O840 O 0.02417 0.504 0.04146 0.0
O841 O 0.99216 0.48475 0.05538 0.0
C842 C 0.98381 0.52084 1.00334 0.0
C843 C 0.99076 0.50019 0.95639 0.0
C844 C 0.98216 0.50071 0.92952 0.0
C845 C 0.99033 0.49207 0.94154 0.0
C846 C 0.97466 0.51769 0.93254 0.0
C847 C 0.98337 0.51731 0.95906 0.0
C848 C 0.97533 0.52594 0.94722 0.0
C849 C 0.96766 0.45294 0.01035 0.0
C850 C 0.9983 0.49023 0.96898 0.0
C851 C 0.11532 0.53908 0.99048 0.0
C852 C 0.10902 0.51509 0.99308 0.0
C853 C 0.02825 0.49459 0.02972 0.0
C854 C 0.96209 0.4797 0.07311 0.0
C855 C 0.97471 0.48011 0.08638 0.0
C856 C 0.97007 0.48815 0.10019 0.0
C857 C 0.95233 0.49546 0.10056 0.0
C858 C 0.94445 0.48713 0.07382 0.0
C859 C 0.93962 0.49488 0.08748 0.0
C860 C 0.03583 0.54696 0.02222 0.0
C861 C 0.96885 0.47345 0.05844 0.0
H862 H 0.9959 0.47877 0.93939 0.0
H863 H 0.96856 0.52484 0.9235 0.0
H864 H 0.98363 0.52401 0.97024 0.0
H865 H 0.9696 0.53908 0.94945 0.0
H866 H 0.98866 0.47485 0.08585 0.0
H867 H 0.94808 0.50141 0.11103 0.0
H868 H 0.93459 0.48732 0.06382 0.0
H869 H 0.92605 0.50061 0.0879 0.0
Eu870 Eu 0.51834 0.49845 0.02491 0.0
C871 C 0.45528 0.52094 0.97971 0.0
C872 C 0.41399 0.48825 0.9842 0.0
C873 C 0.42049 0.52724 0.97604 0.0
C874 C 0.43962 0.49749 0.98405 0.0
C875 C 0.44589 0.53593 0.97525 0.0
C876 C 0.40456 0.50344 0.98055 0.0
C877 C 0.48713 0.56609 0.96828 0.0
N878 N 0.47963 0.52865 0.97901 0.0
C879 C 0.49553 0.55054 0.9729 0.0
C880 C 0.46225 0.5589 0.96969 0.0
Eu881 Eu 0.49296 0.50206 0.98761 0.0
N882 N 0.4494 0.48331 0.98733 0.0
C883 C 0.4344 0.45917 0.98971 0.0
C884 C 0.39861 0.46387 0.9876 0.0
C885 C 0.40886 0.44917 0.9901 0.0
H886 H 0.51482 0.55625 0.97195 0.0
H887 H 0.39711 0.43017 0.99244 0.0
H888 H 0.38495 0.49676 0.98077 0.0
H889 H 0.49986 0.58363 0.96374 0.0
H890 H 0.44199 0.44759 0.99179 0.0
H891 H 0.61503 0.56839 0.02861 0.0
H892 H 0.37883 0.45609 0.98792 0.0
H893 H 0.49197 0.44039 0.03499 0.0
H894 H 0.57034 0.55227 0.02618 0.0
H895 H 0.50434 0.4102 0.04114 0.0
H896 H 0.41293 0.53857 0.97283 0.0
H897 H 0.63125 0.54048 0.03193 0.0
H898 H 0.62267 0.49805 0.03589 0.0
H899 H 0.45577 0.57096 0.96611 0.0
H900 H 0.59256 0.45502 0.0394 0.0
N901 N 0.56138 0.51556 0.02752 0.0
C902 C 0.57717 0.53989 0.02759 0.0
C903 C 0.61161 0.53329 0.03083 0.0
C904 C 0.59517 0.50846 0.0318 0.0
C905 C 0.60252 0.54911 0.02899 0.0
C906 C 0.5698 0.50006 0.03022 0.0
H907 H 0.54841 0.42216 0.04159 0.0
N908 N 0.52861 0.46881 0.03169 0.0
C909 C 0.51818 0.42861 0.03867 0.0
C910 C 0.55289 0.47594 0.03241 0.0
C911 C 0.51123 0.44573 0.03526 0.0
C912 C 0.54307 0.43542 0.03887 0.0
C913 C 0.56081 0.45942 0.03595 0.0
O914 O 0.50198 0.48804 0.04729 0.0
O915 O 0.48664 0.49595 0.01222 0.0
O916 O 0.49819 0.53414 1.00154 0.0
O917 O 0.52615 0.53687 0.0202 0.0
O918 O 0.47773 0.47092 0.02882 0.0
O919 O 0.52966 0.52529 0.04297 0.0
O920 O 0.50966 0.51031 0.96525 0.0
O921 O 0.5256 0.50678 1.00049 0.0
O922 O 0.51853 0.47076 0.009 0.0
O923 O 0.48599 0.46425 0.99338 0.0
O924 O 0.53249 0.53115 0.98337 0.0
O925 O 0.48103 0.47393 0.97029 0.0
C926 C 0.46871 0.47919 0.01897 0.0
C927 C 0.52612 0.51144 0.068 0.0
C928 C 0.52491 0.51752 0.0952 0.0
C929 C 0.51481 0.51499 0.08062 0.0
C930 C 0.5465 0.51614 0.09687 0.0
C931 C 0.54752 0.51 0.06991 0.0
C932 C 0.55761 0.51231 0.08431 0.0
C933 C 0.51373 0.54557 0.01287 0.0
C934 C 0.51541 0.5097 0.05298 0.0
C935 C 0.58609 0.46747 0.03681 0.0
C936 C 0.60324 0.49197 0.03479 0.0
C937 C 0.54242 0.52482 0.9938 0.0
C938 C 0.48424 0.4869 0.9451 0.0
C939 C 0.49502 0.48326 0.93226 0.0
C940 C 0.48474 0.48143 0.91782 0.0
C941 C 0.46351 0.48352 0.91649 0.0
C942 C 0.46314 0.48897 0.94357 0.0
C943 C 0.45287 0.4873 0.9293 0.0
C944 C 0.50132 0.45761 0.99894 0.0
C945 C 0.4954 0.4886 0.95997 0.0
H946 H 0.49802 0.51564 0.07901 0.0
H947 H 0.55507 0.5184 0.10785 0.0
H948 H 0.55644 0.50722 0.0603 0.0
H949 H 0.57423 0.51134 0.08574 0.0
H950 H 0.51159 0.4821 0.93354 0.0
H951 H 0.4549 0.48186 0.9056 0.0
H952 H 0.45461 0.4918 0.95337 0.0
H953 H 0.43651 0.48881 0.92816 0.0
Eu954 Eu 0.1658 0.31572 0.32202 0.0
C955 C 0.2036 0.40629 0.3648 0.0
C956 C 0.24786 0.42444 0.36409 0.0
C957 C 0.2295 0.44978 0.36769 0.0
C958 C 0.22416 0.40394 0.36317 0.0
C959 C 0.206 0.42916 0.36742 0.0
C960 C 0.25041 0.44742 0.36602 0.0
C961 C 0.16192 0.40931 0.37049 0.0
N962 N 0.18125 0.38603 0.36455 0.0
C963 C 0.16054 0.38705 0.36788 0.0
C964 C 0.18473 0.43051 0.37005 0.0
Eu965 Eu 0.17988 0.34915 0.35882 0.0
N966 N 0.22099 0.38146 0.36138 0.0
C967 C 0.24082 0.37805 0.36167 0.0
C968 C 0.26827 0.42116 0.36343 0.0
C969 C 0.26471 0.39783 0.36247 0.0
H970 H 0.14285 0.37069 0.36802 0.0
H971 H 0.28036 0.39504 0.36224 0.0
H972 H 0.26846 0.46341 0.36659 0.0
H973 H 0.14541 0.41011 0.37274 0.0
H974 H 0.23851 0.36021 0.36084 0.0
H975 H 0.06538 0.26382 0.31932 0.0
H976 H 0.2868 0.43644 0.36402 0.0
H977 H 0.20614 0.29821 0.31226 0.0
H978 H 0.10606 0.30051 0.3208 0.0
H979 H 0.20661 0.26042 0.30701 0.0
H980 H 0.23173 0.46754 0.36953 0.0
H981 H 0.06212 0.22373 0.31687 0.0
H982 H 0.08336 0.19949 0.31356 0.0
H983 H 0.18577 0.44774 0.37207 0.0
H984 H 0.12178 0.19856 0.3101 0.0
N985 N 0.12588 0.28154 0.31966 0.0
C986 C 0.10502 0.28322 0.31966 0.0
C987 C 0.08008 0.23982 0.31751 0.0
C988 C 0.10154 0.23835 0.31655 0.0
C989 C 0.08185 0.26241 0.31884 0.0
C990 C 0.12447 0.25984 0.31755 0.0
H991 H 0.16779 0.22121 0.30743 0.0
N992 N 0.16758 0.28047 0.316 0.0
C993 C 0.18944 0.25983 0.30949 0.0
C994 C 0.14601 0.25929 0.31563 0.0
C995 C 0.18911 0.28119 0.31243 0.0
C996 C 0.1675 0.23773 0.30977 0.0
C997 C 0.14536 0.23728 0.31264 0.0
O998 O 0.18663 0.32961 0.30121 0.0
O999 O 0.19044 0.3495 0.33484 0.0
O1000 O 0.16794 0.36821 0.34202 0.0
O1001 O 0.14568 0.3369 0.32473 0.0
O1002 O 0.20741 0.33661 0.32066 0.0
O1003 O 0.14851 0.3203 0.30174 0.0
O1004 O 0.16103 0.34178 0.3806 0.0
O1005 O 0.15497 0.31584 0.34592 0.0
O1006 O 0.17674 0.29594 0.33844 0.0
O1007 O 0.19863 0.32633 0.35652 0.0
O1008 O 0.13824 0.32839 0.3605 0.0
O1009 O 0.19286 0.33744 0.3781 0.0
C1010 C 0.21099 0.35385 0.32981 0.0
C1011 C 0.16491 0.31769 0.27815 0.0
C1012 C 0.17136 0.32431 0.25088 0.0
C1013 C 0.17259 0.33326 0.26569 0.0
C1014 C 0.16188 0.29929 0.24891 0.0
C1015 C 0.15542 0.29289 0.27586 0.0
C1016 C 0.15386 0.28378 0.26128 0.0
C1017 C 0.15194 0.35829 0.33074 0.0
C1018 C 0.16813 0.32786 0.29349 0.0
C1019 C 0.12265 0.21569 0.31225 0.0
C1020 C 0.10078 0.21621 0.31422 0.0
C1021 C 0.13451 0.31127 0.35121 0.0
C1022 C 0.18442 0.34593 0.40269 0.0
C1023 C 0.17249 0.33127 0.4152 0.0
C1024 C 0.18097 0.33946 0.43004 0.0
C1025 C 0.2015 0.36265 0.43209 0.0
C1026 C 0.20469 0.36906 0.40503 0.0
C1027 C 0.21314 0.37733 0.41968 0.0
C1028 C 0.19222 0.30526 0.34994 0.0
C1029 C 0.17616 0.33637 0.38728 0.0
H1030 H 0.17955 0.35235 0.26762 0.0
H1031 H 0.1611 0.29163 0.23785 0.0
H1032 H 0.14948 0.28067 0.28532 0.0
H1033 H 0.14671 0.26462 0.25958 0.0
H1034 H 0.15692 0.31331 0.41336 0.0
H1035 H 0.20832 0.3696 0.44333 0.0
H1036 H 0.21408 0.38059 0.39555 0.0
H1037 H 0.22883 0.39519 0.42143 0.0
Eu1038 Eu 0.68624 0.8407 0.32643 0.0
C1039 C 0.59215 0.81324 0.36055 0.0
C1040 C 0.59301 0.85151 0.35954 0.0
C1041 C 0.55384 0.81414 0.35918 0.0
C1042 C 0.60541 0.83817 0.3602 0.0
C1043 C 0.56617 0.80097 0.36034 0.0
C1044 C 0.56724 0.83937 0.3588 0.0
C1045 C 0.56629 0.76361 0.36371 0.0
N1046 N 0.60454 0.80096 0.3616 0.0
C1047 C 0.59197 0.77656 0.36395 0.0
C1048 C 0.55331 0.77583 0.36165 0.0
Eu1049 Eu 0.64827 0.82394 0.36141 0.0
N1050 N 0.63038 0.84942 0.3606 0.0
C1051 C 0.64386 0.87415 0.36089 0.0
C1052 C 0.60682 0.87669 0.35973 0.0
C1053 C 0.63234 0.88804 0.36045 0.0
H1054 H 0.60178 0.76696 0.36605 0.0
H1055 H 0.64323 0.90755 0.36057 0.0
H1056 H 0.55748 0.84934 0.3581 0.0
H1057 H 0.55655 0.74424 0.36524 0.0
H1058 H 0.66357 0.88369 0.36122 0.0
H1059 H 0.72801 0.78341 0.32819 0.0
H1060 H 0.59798 0.88754 0.35942 0.0
H1061 H 0.71296 0.89938 0.31715 0.0
H1062 H 0.69412 0.79225 0.32659 0.0
H1063 H 0.75484 0.93484 0.31528 0.0
H1064 H 0.53394 0.80501 0.35885 0.0
H1065 H 0.77108 0.81685 0.32945 0.0
H1066 H 0.80086 0.86147 0.32864 0.0
H1067 H 0.53339 0.76578 0.36154 0.0
H1068 H 0.80818 0.90275 0.3253 0.0
N1069 N 0.71762 0.8304 0.32721 0.0
C1070 C 0.71279 0.80706 0.32702 0.0
C1071 C 0.75626 0.82087 0.32868 0.0
C1072 C 0.76115 0.84474 0.32798 0.0
C1073 C 0.73198 0.80195 0.32794 0.0
C1074 C 0.74117 0.84898 0.3271 0.0
H1075 H 0.79115 0.93027 0.32014 0.0
N1076 N 0.72564 0.87544 0.32363 0.0
C1077 C 0.75242 0.91737 0.31822 0.0
C1078 C 0.74533 0.87223 0.32534 0.0
C1079 C 0.7288 0.89732 0.31924 0.0
C1080 C 0.77286 0.91472 0.32102 0.0
C1081 C 0.7695 0.89185 0.32427 0.0
O1082 O 0.68053 0.85217 0.3043 0.0
O1083 O 0.6507 0.83312 0.3369 0.0
O1084 O 0.63238 0.7905 0.34684 0.0
O1085 O 0.65965 0.79981 0.32657 0.0
O1086 O 0.66753 0.8629 0.32303 0.0
O1087 O 0.68342 0.82 0.30598 0.0
O1088 O 0.63646 0.80363 0.38249 0.0
O1089 O 0.68197 0.82848 0.35035 0.0
O1090 O 0.70729 0.8712 0.34319 0.0
O1091 O 0.6822 0.8608 0.36455 0.0
O1092 O 0.66524 0.79996 0.36497 0.0
O1093 O 0.6628 0.8419 0.38304 0.0
C1094 C 0.64826 0.8497 0.33095 0.0
C1095 C 0.6979 0.84273 0.28361 0.0
C1096 C 0.70365 0.84198 0.25633 0.0
C1097 C 0.68813 0.83435 0.26905 0.0
C1098 C 0.72889 0.85847 0.25847 0.0
C1099 C 0.72318 0.85865 0.28537 0.0
C1100 C 0.73853 0.86658 0.27288 0.0
C1101 C 0.64013 0.78465 0.33451 0.0
C1102 C 0.68172 0.83509 0.2969 0.0
C1103 C 0.78946 0.88787 0.32591 0.0
C1104 C 0.78529 0.86436 0.32778 0.0
C1105 C 0.68416 0.81182 0.35644 0.0
C1106 C 0.63807 0.82578 0.40445 0.0
C1107 C 0.64736 0.82493 0.41871 0.0
C1108 C 0.63785 0.82952 0.43189 0.0
C1109 C 0.61879 0.83493 0.43056 0.0
C1110 C 0.61896 0.83104 0.4033 0.0
C1111 C 0.60936 0.83555 0.41634 0.0
C1112 C 0.70214 0.87553 0.3569 0.0
C1113 C 0.64967 0.82257 0.39096 0.0
H1114 H 0.66865 0.8217 0.26769 0.0
H1115 H 0.74126 0.86526 0.24897 0.0
H1116 H 0.73114 0.86509 0.29636 0.0
H1117 H 0.75798 0.87911 0.27438 0.0
H1118 H 0.66242 0.82124 0.41952 0.0
H1119 H 0.611 0.83839 0.44051 0.0
H1120 H 0.6117 0.83192 0.39237 0.0
H1121 H 0.59463 0.83966 0.41542 0.0
Eu1122 Eu 0.18239 0.83371 0.35907 0.0
C1123 C 0.09774 0.80474 0.3166 0.0
C1124 C 0.08878 0.77096 0.30008 0.0
C1125 C 0.05547 0.77659 0.30916 0.0
C1126 C 0.10566 0.79139 0.30852 0.0
C1127 C 0.07261 0.79788 0.31665 0.0
C1128 C 0.06356 0.76318 0.30083 0.0
C1129 C 0.08361 0.83527 0.32967 0.0
N1130 N 0.11485 0.82559 0.32329 0.0
C1131 C 0.10832 0.84138 0.32915 0.0
C1132 C 0.06562 0.81325 0.32359 0.0
Eu1133 Eu 0.15638 0.83486 0.32209 0.0
N1134 N 0.13014 0.79952 0.30793 0.0
C1135 C 0.1392 0.78945 0.298 0.0
C1136 C 0.09786 0.75967 0.29059 0.0
C1137 C 0.12321 0.76915 0.28941 0.0
H1138 H 0.12209 0.85861 0.33369 0.0
H1139 H 0.13045 0.76092 0.28182 0.0
H1140 H 0.05027 0.74733 0.2946 0.0
H1141 H 0.07849 0.8476 0.33469 0.0
H1142 H 0.1588 0.79686 0.29695 0.0
H1143 H 0.28169 0.89456 0.35712 0.0
H1144 H 0.08551 0.74405 0.28382 0.0
H1145 H 0.15228 0.77754 0.37331 0.0
H1146 H 0.23802 0.88351 0.35742 0.0
H1147 H 0.16036 0.74453 0.37956 0.0
H1148 H 0.03606 0.77087 0.30924 0.0
H1149 H 0.29319 0.86291 0.35965 0.0
H1150 H 0.27995 0.81936 0.36454 0.0
H1151 H 0.04654 0.80873 0.32378 0.0
H1152 H 0.24686 0.77846 0.37083 0.0
N1153 N 0.22481 0.84592 0.3598 0.0
C1154 C 0.24276 0.86953 0.35862 0.0
C1155 C 0.27398 0.85797 0.35985 0.0
C1156 C 0.25557 0.83403 0.36209 0.0
C1157 C 0.26757 0.87588 0.35846 0.0
C1158 C 0.23086 0.8286 0.36221 0.0
H1159 H 0.20224 0.75049 0.37675 0.0
N1160 N 0.18906 0.80174 0.36661 0.0
C1161 C 0.17514 0.76162 0.37562 0.0
C1162 C 0.21238 0.80575 0.36583 0.0
C1163 C 0.17064 0.78039 0.37211 0.0
C1164 C 0.19879 0.76503 0.37399 0.0
C1165 C 0.21788 0.78746 0.3693 0.0
O1166 O 0.1645 0.82893 0.381 0.0
O1167 O 0.15098 0.83363 0.34691 0.0
O1168 O 0.16523 0.86901 0.33546 0.0
O1169 O 0.19481 0.87257 0.35275 0.0
O1170 O 0.14189 0.80733 0.36283 0.0
O1171 O 0.19979 0.86034 0.37722 0.0
O1172 O 0.15098 0.86026 0.3084 0.0
O1173 O 0.19113 0.84682 0.33539 0.0
O1174 O 0.17661 0.80165 0.34479 0.0
O1175 O 0.14519 0.79605 0.32819 0.0
O1176 O 0.18854 0.83074 0.31454 0.0
O1177 O 0.17646 0.8492 0.301 0.0
C1178 C 0.13304 0.81653 0.35358 0.0
C1179 C 0.1903 0.84629 0.40225 0.0
C1180 C 0.18694 0.84986 0.42959 0.0
C1181 C 0.17929 0.85072 0.41472 0.0
C1182 C 0.20573 0.84413 0.43165 0.0
C1183 C 0.20874 0.84036 0.40459 0.0
C1184 C 0.21637 0.83928 0.41924 0.0
C1185 C 0.18261 0.88155 0.34565 0.0
C1186 C 0.18252 0.84837 0.38693 0.0
C1187 C 0.24228 0.79234 0.36838 0.0
C1188 C 0.26111 0.81562 0.36478 0.0
C1189 C 0.20243 0.84075 0.32614 0.0
C1190 C 0.15169 0.85239 0.28217 0.0
C1191 C 0.16502 0.85228 0.26942 0.0
C1192 C 0.15324 0.84378 0.2553 0.0
C1193 C 0.12795 0.83572 0.25408 0.0
C1194 C 0.1264 0.84412 0.28061 0.0
C1195 C 0.11471 0.83593 0.26665 0.0
C1196 C 0.15897 0.78847 0.33493 0.0
C1197 C 0.16387 0.85944 0.29717 0.0
H1198 H 0.16466 0.85473 0.41274 0.0
H1199 H 0.21258 0.84378 0.44282 0.0
H1200 H 0.21733 0.83676 0.39511 0.0
H1201 H 0.23078 0.83491 0.421 0.0
H1202 H 0.1844 0.85817 0.27063 0.0
H1203 H 0.11839 0.82946 0.24337 0.0
H1204 H 0.11551 0.84366 0.2902 0.0
H1205 H 0.09524 0.82961 0.26557 0.0
Eu1206 Eu 0.83567 0.65165 0.65916 0.0
C1207 C 0.86761 0.74422 0.69947 0.0
C1208 C 0.91207 0.76492 0.6992 0.0
C1209 C 0.89101 0.78801 0.7015 0.0
C1210 C 0.88912 0.74343 0.69841 0.0
C1211 C 0.86826 0.76645 0.70135 0.0
C1212 C 0.91289 0.78724 0.70042 0.0
C1213 C 0.82405 0.74427 0.70388 0.0
N1214 N 0.84603 0.72309 0.69933 0.0
C1215 C 0.8244 0.72269 0.702 0.0
C1216 C 0.84607 0.76629 0.70336 0.0
Eu1217 Eu 0.84762 0.68734 0.69492 0.0
N1218 N 0.88761 0.72155 0.69729 0.0
C1219 C 0.9084 0.71979 0.69811 0.0
C1220 C 0.93347 0.76328 0.69909 0.0
C1221 C 0.93161 0.74058 0.69878 0.0
H1222 H 0.80732 0.7057 0.70221 0.0
H1223 H 0.94803 0.73907 0.69897 0.0
H1224 H 0.93033 0.80396 0.70088 0.0
H1225 H 0.80682 0.74392 0.70563 0.0
H1226 H 0.90737 0.70245 0.69778 0.0
H1227 H 0.73557 0.59664 0.65476 0.0
H1228 H 0.95146 0.77935 0.6996 0.0
H1229 H 0.87801 0.63585 0.65163 0.0
H1230 H 0.77545 0.63425 0.65647 0.0
H1231 H 0.88031 0.59876 0.64744 0.0
H1232 H 0.8919 0.8053 0.70279 0.0
H1233 H 0.73403 0.55722 0.65342 0.0
H1234 H 0.75685 0.53428 0.6516 0.0
H1235 H 0.84577 0.78299 0.70481 0.0
H1236 H 0.79625 0.53485 0.64949 0.0
N1237 N 0.7965 0.61648 0.65657 0.0
C1238 C 0.77516 0.61726 0.65584 0.0
C1239 C 0.75165 0.57372 0.65417 0.0
C1240 C 0.77363 0.57313 0.65398 0.0
C1241 C 0.75244 0.59593 0.65488 0.0
C1242 C 0.79606 0.59513 0.65509 0.0
H1243 H 0.84234 0.55884 0.64762 0.0
N1244 N 0.83922 0.61703 0.65442 0.0
C1245 C 0.86271 0.59756 0.6493 0.0
C1246 C 0.81813 0.59542 0.65394 0.0
C1247 C 0.86133 0.61852 0.65165 0.0
C1248 C 0.84123 0.57505 0.64945 0.0
C1249 C 0.81854 0.57378 0.65161 0.0
O1250 O 0.85651 0.66398 0.63822 0.0
O1251 O 0.85896 0.68647 0.67128 0.0
O1252 O 0.83538 0.70442 0.67696 0.0
O1253 O 0.81398 0.67152 0.6606 0.0
O1254 O 0.87725 0.674 0.65795 0.0
O1255 O 0.81872 0.65584 0.6386 0.0
O1256 O 0.82865 0.68016 0.71668 0.0
O1257 O 0.82405 0.65288 0.68271 0.0
O1258 O 0.84713 0.6339 0.67699 0.0
O1259 O 0.86853 0.66658 0.69355 0.0
O1260 O 0.80602 0.66503 0.69652 0.0
O1261 O 0.86188 0.6781 0.71471 0.0
C1262 C 0.87985 0.69151 0.66652 0.0
C1263 C 0.83478 0.65247 0.61506 0.0
C1264 C 0.83902 0.6589 0.58767 0.0
C1265 C 0.84067 0.6678 0.60254 0.0
C1266 C 0.83089 0.63412 0.58571 0.0
C1267 C 0.82662 0.62791 0.61278 0.0
C1268 C 0.82461 0.61881 0.59815 0.0
C1269 C 0.81979 0.69335 0.66563 0.0
C1270 C 0.83829 0.66271 0.6304 0.0
C1271 C 0.79631 0.5517 0.65112 0.0
C1272 C 0.77389 0.55138 0.65233 0.0
C1273 C 0.80326 0.64772 0.6877 0.0
C1274 C 0.85253 0.68685 0.73897 0.0
C1275 C 0.8412 0.67251 0.75171 0.0
C1276 C 0.84957 0.68157 0.76643 0.0
C1277 C 0.86933 0.70529 0.76814 0.0
C1278 C 0.87201 0.71052 0.74098 0.0
C1279 C 0.88032 0.71965 0.75551 0.0
C1280 C 0.86259 0.64475 0.6884 0.0
C1281 C 0.84468 0.67636 0.72371 0.0
H1282 H 0.84656 0.68668 0.60448 0.0
H1283 H 0.82984 0.62652 0.57459 0.0
H1284 H 0.82206 0.61587 0.62229 0.0
H1285 H 0.8185 0.59985 0.59644 0.0
H1286 H 0.82625 0.65414 0.75015 0.0
H1287 H 0.87604 0.71288 0.77928 0.0
H1288 H 0.88095 0.72181 0.73132 0.0
H1289 H 0.89542 0.73792 0.75699 0.0
Eu1290 Eu 0.35846 0.1735 0.65625 0.0
C1291 C 0.26643 0.13539 0.69431 0.0
C1292 C 0.25243 0.16374 0.68917 0.0
C1293 C 0.22265 0.12153 0.69359 0.0
C1294 C 0.27162 0.15848 0.6908 0.0
C1295 C 0.24192 0.11677 0.69616 0.0
C1296 C 0.2279 0.14501 0.69013 0.0
C1297 C 0.25749 0.09102 0.70468 0.0
N1298 N 0.28549 0.13153 0.69687 0.0
C1299 C 0.28148 0.11016 0.70283 0.0
C1300 C 0.2376 0.0942 0.70107 0.0
Eu1301 Eu 0.32549 0.16415 0.69194 0.0
N1302 N 0.2955 0.17614 0.69009 0.0
C1303 C 0.30155 0.19978 0.68923 0.0
C1304 C 0.25851 0.18782 0.68727 0.0
C1305 C 0.28318 0.20597 0.68769 0.0
H1306 H 0.29688 0.10764 0.70547 0.0
H1307 H 0.28808 0.22471 0.68662 0.0
H1308 H 0.2129 0.14864 0.68872 0.0
H1309 H 0.25435 0.07384 0.70887 0.0
H1310 H 0.32056 0.21391 0.68933 0.0
H1311 H 0.35395 0.09386 0.62895 0.0
H1312 H 0.24433 0.19264 0.68597 0.0
H1313 H 0.4103 0.22368 0.66909 0.0
H1314 H 0.34015 0.12289 0.63489 0.0
H1315 H 0.45237 0.23578 0.6763 0.0
H1316 H 0.20367 0.1074 0.69477 0.0
H1317 H 0.39384 0.10067 0.63877 0.0
H1318 H 0.43343 0.12799 0.65212 0.0
H1319 H 0.21903 0.07939 0.70258 0.0
H1320 H 0.46033 0.16675 0.66484 0.0
N1321 N 0.37098 0.1451 0.64908 0.0
C1322 C 0.35747 0.12593 0.6395 0.0
C1323 C 0.38771 0.11333 0.6416 0.0
C1324 C 0.40262 0.1342 0.65007 0.0
C1325 C 0.36523 0.10944 0.63602 0.0
C1326 C 0.39376 0.1501 0.65353 0.0
H1327 H 0.46779 0.20718 0.67348 0.0
N1328 N 0.40038 0.18755 0.66288 0.0
C1329 C 0.44032 0.2177 0.672 0.0
C1330 C 0.40899 0.17206 0.6605 0.0
C1331 C 0.41603 0.2105 0.66803 0.0
C1332 C 0.44896 0.20154 0.67038 0.0
C1333 C 0.43341 0.17854 0.66437 0.0
O1334 O 0.3772 0.20493 0.64153 0.0
O1335 O 0.32939 0.17762 0.66826 0.0
O1336 O 0.30346 0.13092 0.67728 0.0
O1337 O 0.3334 0.13347 0.66075 0.0
O1338 O 0.31996 0.16088 0.64733 0.0
O1339 O 0.35566 0.16938 0.63174 0.0
O1340 O 0.33271 0.15515 0.71454 0.0
O1341 O 0.36045 0.1702 0.68117 0.0
O1342 O 0.36868 0.21066 0.66543 0.0
O1343 O 0.35418 0.20374 0.6902 0.0
O1344 O 0.34281 0.14081 0.69537 0.0
O1345 O 0.33084 0.18763 0.71128 0.0
C1346 C 0.31261 0.16901 0.65829 0.0
C1347 C 0.35555 0.20094 0.61856 0.0
C1348 C 0.33898 0.19911 0.59325 0.0
C1349 C 0.35227 0.19307 0.60344 0.0
C1350 C 0.329 0.21324 0.59842 0.0
C1351 C 0.34569 0.21525 0.62345 0.0
C1352 C 0.33244 0.2213 0.61342 0.0
C1353 C 0.31189 0.12131 0.66744 0.0
C1354 C 0.36763 0.19241 0.62919 0.0
C1355 C 0.44178 0.16219 0.66174 0.0
C1356 C 0.42644 0.1401 0.65455 0.0
C1357 C 0.36212 0.15325 0.68732 0.0
C1358 C 0.32071 0.16993 0.73549 0.0
C1359 C 0.33294 0.17004 0.74884 0.0
C1360 C 0.32198 0.16794 0.763 0.0
C1361 C 0.29849 0.16553 0.76362 0.0
C1362 C 0.29709 0.16711 0.7363 0.0
C1363 C 0.28608 0.16492 0.75033 0.0
C1364 C 0.36733 0.21815 0.67916 0.0
C1365 C 0.33342 0.17383 0.72098 0.0
H1366 H 0.35954 0.18166 0.59974 0.0
H1367 H 0.3188 0.21831 0.59084 0.0
H1368 H 0.34799 0.22152 0.63503 0.0
H1369 H 0.32473 0.23221 0.61729 0.0
H1370 H 0.35122 0.17231 0.74821 0.0
H1371 H 0.2896 0.16376 0.77438 0.0
H1372 H 0.28732 0.16685 0.72613 0.0
H1373 H 0.26791 0.16286 0.75092 0.0
Eu1374 Eu 0.85089 0.16445 0.69615 0.0
C1375 C 0.79489 0.1909 0.64814 0.0
C1376 C 0.7522 0.16137 0.65249 0.0
C1377 C 0.76303 0.20091 0.64275 0.0
C1378 C 0.77733 0.16828 0.65296 0.0
C1379 C 0.78792 0.20725 0.64258 0.0
C1380 C 0.7452 0.17803 0.64774 0.0
C1381 C 0.83036 0.23397 0.63587 0.0
N1382 N 0.81873 0.19641 0.64807 0.0
C1383 C 0.83636 0.21718 0.64158 0.0
C1384 C 0.80608 0.22916 0.63659 0.0
Eu1385 Eu 0.82769 0.16748 0.65811 0.0
N1386 N 0.7847 0.15252 0.65725 0.0
C1387 C 0.76775 0.12896 0.66002 0.0
C1388 C 0.73482 0.13769 0.65635 0.0
C1389 C 0.74262 0.12131 0.65987 0.0
H1390 H 0.85517 0.22102 0.64115 0.0
H1391 H 0.72931 0.1028 0.66254 0.0
H1392 H 0.72601 0.17313 0.64745 0.0
H1393 H 0.84445 0.25065 0.63101 0.0
H1394 H 0.77347 0.11611 0.66283 0.0
H1395 H 0.94923 0.22858 0.69104 0.0
H1396 H 0.71534 0.1317 0.65622 0.0
H1397 H 0.82341 0.1108 0.71311 0.0
H1398 H 0.90507 0.21561 0.69131 0.0
H1399 H 0.83404 0.08075 0.7226 0.0
H1400 H 0.75733 0.21333 0.63868 0.0
H1401 H 0.96297 0.19929 0.69672 0.0
H1402 H 0.95214 0.15759 0.70502 0.0
H1403 H 0.80147 0.24218 0.63217 0.0
H1404 H 0.9208 0.11735 0.71371 0.0
N1405 N 0.89377 0.17911 0.69663 0.0
C1406 C 0.91078 0.20265 0.69386 0.0
C1407 C 0.94354 0.19348 0.69685 0.0
C1408 C 0.9261 0.16978 0.70065 0.0
C1409 C 0.93586 0.21008 0.69369 0.0
C1410 C 0.90102 0.1631 0.70052 0.0
H1411 H 0.87679 0.08873 0.72064 0.0
N1412 N 0.85963 0.13506 0.70565 0.0
C1413 C 0.84807 0.09737 0.71764 0.0
C1414 C 0.8834 0.14038 0.70523 0.0
C1415 C 0.84211 0.11438 0.7123 0.0
C1416 C 0.87221 0.10192 0.71648 0.0
C1417 C 0.89033 0.12381 0.71044 0.0
O1418 O 0.83232 0.1594 0.71774 0.0
O1419 O 0.82055 0.16387 0.68282 0.0
O1420 O 0.83426 0.20085 0.67082 0.0
O1421 O 0.86127 0.2032 0.6899 0.0
O1422 O 0.81009 0.139 0.69992 0.0
O1423 O 0.86763 0.19133 0.71432 0.0
O1424 O 0.84478 0.17347 0.6359 0.0
O1425 O 0.8581 0.16833 0.67145 0.0
O1426 O 0.84383 0.13076 0.68346 0.0
O1427 O 0.81681 0.12879 0.66453 0.0
O1428 O 0.86856 0.19272 0.6542 0.0
O1429 O 0.81298 0.13886 0.64104 0.0
C1430 C 0.80214 0.14766 0.68962 0.0
C1431 C 0.85743 0.17601 0.73921 0.0
C1432 C 0.85203 0.17637 0.76663 0.0
C1433 C 0.84727 0.18123 0.75182 0.0
C1434 C 0.8675 0.1664 0.76841 0.0
C1435 C 0.87316 0.16664 0.74137 0.0
C1436 C 0.87815 0.16188 0.7559 0.0
C1437 C 0.85012 0.21254 0.68189 0.0
C1438 C 0.85011 0.17888 0.72389 0.0
C1439 C 0.91514 0.12995 0.70993 0.0
C1440 C 0.93299 0.15287 0.705 0.0
C1441 C 0.87658 0.18425 0.66456 0.0
C1442 C 0.81832 0.15167 0.61564 0.0
C1443 C 0.83054 0.15001 0.60284 0.0
C1444 C 0.82102 0.14885 0.58823 0.0
C1445 C 0.79912 0.14971 0.58672 0.0
C1446 C 0.79664 0.15265 0.61387 0.0
C1447 C 0.78714 0.15171 0.59946 0.0
C1448 C 0.8279 0.11926 0.67237 0.0
C1449 C 0.82851 0.15227 0.63071 0.0
H1450 H 0.83561 0.189 0.74997 0.0
H1451 H 0.87114 0.16159 0.77942 0.0
H1452 H 0.88134 0.16271 0.73185 0.0
H1453 H 0.89002 0.15427 0.75746 0.0
H1454 H 0.84756 0.14977 0.60434 0.0
H1455 H 0.79094 0.14841 0.57572 0.0
H1456 H 0.787 0.154 0.6236 0.0
H1457 H 0.7703 0.1523 0.59815 0.0
H1458 H 0.34698 0.85731 0.05476 0.0
H1459 H 0.31299 0.90169 0.04936 0.0
H1460 H 0.35041 0.93287 0.03701 0.0
H1461 H 0.40561 0.90284 0.06354 0.0
H1462 H 0.42173 0.8909 0.05298 0.0
H1463 H 0.39143 0.87081 0.05999 0.0
H1464 H 0.37661 0.85424 0.0329 0.0
H1465 H 0.40692 0.87439 0.02574 0.0
H1466 H 0.38062 0.87487 0.01794 0.0
H1467 H 0.39299 0.96143 0.02868 0.0
H1468 H 0.43739 0.98447 0.02333 0.0
H1469 H 0.44336 0.92098 0.03197 0.0
C1470 C 0.34709 0.87327 0.05063 0.0
C1471 C 0.32699 0.87705 0.05322 0.0
C1472 C 0.32824 0.89849 0.04784 0.0
C1473 C 0.34935 0.91624 0.04065 0.0
C1474 C 0.36897 0.91218 0.03861 0.0
C1475 C 0.36795 0.89109 0.04322 0.0
C1476 C 0.39215 0.89184 0.04033 0.0
C1477 C 0.40338 0.88894 0.05509 0.0
C1478 C 0.38887 0.87269 0.02853 0.0
C1479 C 0.40724 0.91708 0.03404 0.0
C1480 C 0.39339 0.92838 0.03301 0.0
C1481 C 0.40379 0.95251 0.02892 0.0
C1482 C 0.42898 0.96543 0.0258 0.0
C1483 C 0.44339 0.95408 0.02646 0.0
C1484 C 0.43241 0.92966 0.03072 0.0
H1485 H 0.14728 0.48954 0.05586 0.0
H1486 H 0.10421 0.41172 0.04995 0.0
H1487 H 0.06984 0.4157 0.03975 0.0
H1488 H 0.09886 0.49872 0.06757 0.0
H1489 H 0.10933 0.5266 0.05754 0.0
H1490 H 0.1311 0.5178 0.06365 0.0
H1491 H 0.1464 0.52172 0.03633 0.0
H1492 H 0.12407 0.52948 0.02961 0.0
H1493 H 0.12518 0.50408 0.02151 0.0
H1494 H 0.03873 0.42757 0.03239 0.0
H1495 H 0.01384 0.44699 0.0272 0.0
H1496 H 0.07723 0.51716 0.03653 0.0
C1497 C 0.1308 0.47336 0.05217 0.0
C1498 C 0.1285 0.45027 0.05385 0.0
C1499 C 0.10638 0.42957 0.04906 0.0
C1500 C 0.08677 0.43165 0.04313 0.0
C1501 C 0.0895 0.45458 0.04187 0.0
C1502 C 0.11101 0.47511 0.04615 0.0
C1503 C 0.10884 0.49754 0.044 0.0
C1504 C 0.11223 0.51094 0.05909 0.0
C1505 C 0.12721 0.51421 0.03216 0.0
C1506 C 0.08259 0.48634 0.03822 0.0
C1507 C 0.0718 0.46152 0.03703 0.0
C1508 C 0.04715 0.44703 0.03293 0.0
C1509 C 0.03319 0.45818 0.02993 0.0
C1510 C 0.04397 0.48356 0.03084 0.0
C1511 C 0.06889 0.49777 0.03518 0.0
H1512 H 0.55496 0.65766 0.06924 0.0
H1513 H 0.51581 0.68148 0.0398 0.0
H1514 H 0.50448 0.64656 0.02306 0.0
H1515 H 0.58008 0.63809 0.03918 0.0
H1516 H 0.57724 0.61258 0.04947 0.0
H1517 H 0.5818 0.63913 0.05951 0.0
H1518 H 0.54239 0.61297 0.075 0.0
H1519 H 0.53774 0.58636 0.06501 0.0
H1520 H 0.51374 0.59404 0.06524 0.0
H1521 H 0.49618 0.60846 0.0099 0.0
H1522 H 0.49279 0.57053 1.00073 0.0
H1523 H 0.54023 0.57317 0.03739 0.0
C1524 C 0.54419 0.65572 0.05922 0.0
C1525 C 0.53609 0.67233 0.056 0.0
C1526 C 0.52178 0.6688 0.0428 0.0
C1527 C 0.51541 0.6491 0.0331 0.0
C1528 C 0.52368 0.63315 0.03663 0.0
C1529 C 0.53787 0.63628 0.04931 0.0
C1530 C 0.54459 0.61659 0.05038 0.0
C1531 C 0.57259 0.62724 0.04958 0.0
C1532 C 0.53398 0.6016 0.06476 0.0
C1533 C 0.53189 0.60192 0.03633 0.0
C1534 C 0.51981 0.61172 0.02863 0.0
C1535 C 0.50589 0.60082 0.01569 0.0
C1536 C 0.50422 0.5793 0.01049 0.0
C1537 C 0.5167 0.56901 0.01806 0.0
C1538 C 0.53078 0.58066 0.03114 0.0
H1539 H 0.89271 0.33712 0.95703 0.0
H1540 H 0.83954 0.30602 0.99316 0.0
H1541 H 0.86524 0.34157 0.00919 0.0
H1542 H 0.94736 0.36368 0.98146 0.0
H1543 H 0.96367 0.39026 0.97004 0.0
H1544 H 0.94145 0.36201 0.96143 0.0
H1545 H 0.9181 0.38244 0.95045 0.0
H1546 H 0.94022 0.41071 0.95903 0.0
H1547 H 0.90797 0.39802 0.96299 0.0
H1548 H 0.89524 0.38135 0.02081 0.0
H1549 H 0.92847 0.42237 0.02756 0.0
H1550 H 0.96344 0.42709 0.98453 0.0
C1551 C 0.88664 0.3376 0.96838 0.0
C1552 C 0.86392 0.31878 0.97375 0.0
C1553 C 0.85657 0.32036 0.98864 0.0
C1554 C 0.87115 0.34041 0.9979 0.0
C1555 C 0.89322 0.35872 0.99221 0.0
C1556 C 0.90106 0.35748 0.97784 0.0
C1557 C 0.92536 0.37994 0.9744 0.0
C1558 C 0.94566 0.37358 0.97167 0.0
C1559 C 0.92274 0.39358 0.96092 0.0
C1560 C 0.92975 0.39406 0.98901 0.0
C1561 C 0.91095 0.38148 0.99911 0.0
C1562 C 0.91022 0.39127 0.01308 0.0
C1563 C 0.92915 0.4146 0.01679 0.0
C1564 C 0.94865 0.42782 1.00665 0.0
C1565 C 0.94901 0.41725 0.99264 0.0
H1566 H 0.66065 0.51887 0.96865 0.0
H1567 H 0.70027 0.5972 0.97168 0.0
H1568 H 0.66432 0.59611 0.98339 0.0
H1569 H 0.6032 0.51093 0.95931 0.0
H1570 H 0.58543 0.48459 0.97069 0.0
H1571 H 0.61503 0.49114 0.96379 0.0
H1572 H 0.6287 0.48982 0.99104 0.0
H1573 H 0.5996 0.48428 0.99843 0.0
H1574 H 0.62786 0.50974 1.00519 0.0
H1575 H 0.62273 0.58744 0.99063 0.0
H1576 H 0.57845 0.57115 0.99523 0.0
H1577 H 0.56575 0.49828 0.99061 0.0
C1578 C 0.662 0.53576 0.97211 0.0
C1579 C 0.68335 0.55817 0.96896 0.0
C1580 C 0.68407 0.57982 0.97356 0.0
C1581 C 0.66377 0.5794 0.9804 0.0
C1582 C 0.64287 0.55717 0.98294 0.0
C1583 C 0.64187 0.53567 0.97918 0.0
C1584 C 0.61658 0.51434 0.9826 0.0
C1585 C 0.60434 0.49938 0.96824 0.0
C1586 C 0.61827 0.4986 0.99506 0.0
C1587 C 0.60331 0.52733 0.98818 0.0
C1588 C 0.61897 0.55206 0.9883 0.0
C1589 C 0.61048 0.56812 0.99112 0.0
C1590 C 0.58535 0.55875 0.99371 0.0
C1591 C 0.56903 0.53355 0.99394 0.0
C1592 C 0.57815 0.5176 0.99129 0.0
H1593 H 0.47993 0.13835 0.97206 0.0
H1594 H 0.40021 0.09525 0.96986 0.0
H1595 H 0.40182 0.06254 0.98332 0.0
H1596 H 0.49276 0.09157 0.96658 0.0
H1597 H 0.51794 0.10272 0.97988 0.0
H1598 H 0.51069 0.12346 0.9707 0.0
H1599 H 0.50636 0.13954 0.99677 0.0
H1600 H 0.51359 0.11879 1.00604 0.0
H1601 H 0.48554 0.11868 0.01047 0.0
H1602 H 0.4121 0.03274 0.99433 0.0
H1603 H 0.43054 0.00901 1.00388 0.0
H1604 H 0.50302 0.07242 1.00165 0.0
C1605 C 0.46272 0.1223 0.97468 0.0
C1606 C 0.43994 0.11943 0.96963 0.0
C1607 C 0.41798 0.09782 0.97317 0.0
C1608 C 0.41865 0.07916 0.981 0.0
C1609 C 0.44137 0.08245 0.98555 0.0
C1610 C 0.46301 0.1036 0.98274 0.0
C1611 C 0.48503 0.1022 0.98858 0.0
C1612 C 0.50263 0.10516 0.97566 0.0
C1613 C 0.49842 0.12092 1.00122 0.0
C1614 C 0.4724 0.07673 0.99472 0.0
C1615 C 0.44719 0.06564 0.99281 0.0
C1616 C 0.43174 0.04139 0.99625 0.0
C1617 C 0.44233 0.02805 1.00165 0.0
C1618 C 0.46804 0.03912 1.00382 0.0
C1619 C 0.48321 0.06383 1.00054 0.0
H1620 H 0.67809 0.10113 0.97307 0.0
H1621 H 0.65754 0.15547 0.96449 0.0
H1622 H 0.61804 0.13048 0.97747 0.0
H1623 H 0.61996 0.05115 0.96555 0.0
H1624 H 0.62125 0.03206 0.98 0.0
H1625 H 0.6492 0.05532 0.97177 0.0
H1626 H 0.66581 0.07346 0.99828 0.0
H1627 H 0.6379 0.05033 1.00673 0.0
H1628 H 0.64798 0.08173 0.01026 0.0
H1629 H 0.58003 0.09889 0.98992 0.0
H1630 H 0.54466 0.06141 0.99928 0.0
H1631 H 0.58877 0.02653 0.99914 0.0
C1632 C 0.6654 0.10788 0.97418 0.0
C1633 C 0.67084 0.13026 0.96786 0.0
C1634 C 0.65363 0.13834 0.96923 0.0
C1635 C 0.63127 0.12436 0.97667 0.0
C1636 C 0.62632 0.10228 0.98265 0.0
C1637 C 0.6428 0.09397 0.98143 0.0
C1638 C 0.63204 0.0687 0.98775 0.0
C1639 C 0.63052 0.05075 0.97554 0.0
C1640 C 0.64682 0.06855 1.00158 0.0
C1641 C 0.60672 0.06386 0.99228 0.0
C1642 C 0.60404 0.0837 0.98955 0.0
C1643 C 0.58202 0.08336 0.99228 0.0
C1644 C 0.56207 0.06204 0.99767 0.0
C1645 C 0.56426 0.04134 1.00027 0.0
C1646 C 0.58689 0.04233 0.99759 0.0
H1647 H 0.89909 0.5733 0.97291 0.0
H1648 H 0.84993 0.50124 0.95541 0.0
H1649 H 0.87597 0.48675 0.96692 0.0
H1650 H 0.95482 0.57218 0.96642 0.0
H1651 H 0.9701 0.58878 0.98335 0.0
H1652 H 0.94694 0.59341 0.97446 0.0
H1653 H 0.92319 0.58331 0.99961 0.0
H1654 H 0.94582 0.57796 0.00861 0.0
H1655 H 0.9139 0.5548 0.00853 0.0
H1656 H 0.90751 0.48005 0.97942 0.0
H1657 H 0.9436 0.48173 0.99171 0.0
H1658 H 0.97371 0.55809 1.00102 0.0
C1659 C 0.89371 0.55443 0.97167 0.0
C1660 C 0.87244 0.53839 0.96322 0.0
C1661 C 0.86621 0.5139 0.96168 0.0
C1662 C 0.88081 0.50546 0.96826 0.0
C1663 C 0.90172 0.5217 0.97637 0.0
C1664 C 0.90829 0.54569 0.97809 0.0
C1665 C 0.93238 0.55945 0.98683 0.0
C1666 C 0.95223 0.57965 0.97718 0.0
C1667 C 0.9286 0.56948 1.00178 0.0
C1668 C 0.93835 0.53949 0.98962 0.0
C1669 C 0.92022 0.51783 0.98358 0.0
C1670 C 0.9217 0.49684 0.98432 0.0
C1671 C 0.94225 0.49797 0.99135 0.0
C1672 C 0.96115 0.51991 0.99762 0.0
C1673 C 0.95923 0.54099 0.99664 0.0
H1674 H 0.43906 0.32813 0.95793 0.0
H1675 H 0.50797 0.32912 0.96469 0.0
H1676 H 0.52499 0.3684 0.97814 0.0
H1677 H 0.46665 0.3918 0.95031 0.0
H1678 H 0.44292 0.395 0.9596 0.0
H1679 H 0.43579 0.36648 0.95118 0.0
H1680 H 0.41889 0.3453 0.97678 0.0
H1681 H 0.42604 0.37378 0.98527 0.0
H1682 H 0.43823 0.35609 0.99338 0.0
H1683 H 0.53416 0.40703 0.9912 0.0
H1684 H 0.53629 0.4442 1.0011 0.0
H1685 H 0.46223 0.41946 0.98451 0.0
C1686 C 0.45768 0.33665 0.96233 0.0
C1687 C 0.47225 0.32571 0.96043 0.0
C1688 C 0.49662 0.33737 0.9661 0.0
C1689 C 0.50637 0.35957 0.97377 0.0
C1690 C 0.49158 0.36997 0.97547 0.0
C1691 C 0.46786 0.35908 0.96977 0.0
C1692 C 0.45631 0.37469 0.97252 0.0
C1693 C 0.45006 0.38245 0.95751 0.0
C1694 C 0.43352 0.36169 0.98259 0.0
C1695 C 0.47718 0.39598 0.98072 0.0
C1696 C 0.49724 0.39276 0.98245 0.0
C1697 C 0.5186 0.4098 0.98985 0.0
C1698 C 0.51959 0.43083 0.99549 0.0
C1699 C 0.49945 0.43478 0.99356 0.0
C1700 C 0.47797 0.41703 0.9861 0.0
H1701 H 0.10693 0.67845 0.06088 0.0
H1702 H 0.17233 0.67179 0.05977 0.0
H1703 H 0.14914 0.63275 0.04617 0.0
H1704 H 0.06439 0.61585 0.06817 0.0
H1705 H 0.04045 0.61557 0.05667 0.0
H1706 H 0.06311 0.64317 0.06557 0.0
H1707 H 0.07257 0.66309 0.03905 0.0
H1708 H 0.05053 0.63479 0.03041 0.0
H1709 H 0.08194 0.65026 0.02407 0.0
H1710 H 0.11934 0.59506 0.03252 0.0
H1711 H 0.08361 0.55839 0.02225 0.0
H1712 H 0.03611 0.58722 0.03401 0.0
C1713 C 0.11629 0.66876 0.05765 0.0
C1714 C 0.14138 0.67802 0.06126 0.0
C1715 C 0.15309 0.66485 0.05709 0.0
C1716 C 0.14012 0.64279 0.04931 0.0
C1717 C 0.11538 0.63404 0.04595 0.0
C1718 C 0.10346 0.64642 0.05012 0.0
C1719 C 0.07639 0.63223 0.04588 0.0
C1720 C 0.06015 0.62633 0.05993 0.0
C1721 C 0.06999 0.64592 0.03415 0.0
C1722 C 0.07487 0.6097 0.039 0.0
C1723 C 0.09775 0.6115 0.0388 0.0
C1724 C 0.10132 0.59338 0.03267 0.0
C1725 C 0.08091 0.57267 0.02679 0.0
C1726 C 0.05712 0.56998 0.02734 0.0
C1727 C 0.05409 0.5888 0.03349 0.0
H1728 H 0.33236 0.42761 0.05122 0.0
H1729 H 0.3445 0.50031 0.04728 0.0
H1730 H 0.38421 0.51304 0.03473 0.0
H1731 H 0.39356 0.44487 0.0609 0.0
H1732 H 0.39444 0.42089 0.05061 0.0
H1733 H 0.36564 0.4166 0.05759 0.0
H1734 H 0.34718 0.40578 0.03056 0.0
H1735 H 0.37599 0.41012 0.02346 0.0
H1736 H 0.36245 0.42664 0.01541 0.0
H1737 H 0.42326 0.51851 0.02394 0.0
H1738 H 0.4604 0.51723 0.01702 0.0
H1739 H 0.42479 0.44147 0.02873 0.0
C1740 C 0.34326 0.44606 0.04743 0.0
C1741 C 0.33536 0.46299 0.05003 0.0
C1742 C 0.35026 0.48713 0.0453 0.0
C1743 C 0.37275 0.49446 0.03812 0.0
C1744 C 0.38022 0.47748 0.03586 0.0
C1745 C 0.36604 0.4538 0.04043 0.0
C1746 C 0.37938 0.43976 0.03771 0.0
C1747 C 0.3835 0.42996 0.05259 0.0
C1748 C 0.36541 0.41936 0.02609 0.0
C1749 C 0.40347 0.45939 0.03128 0.0
C1750 C 0.40327 0.48085 0.03003 0.0
C1751 C 0.42351 0.50174 0.02472 0.0
C1752 C 0.44458 0.50079 0.02071 0.0
C1753 C 0.44541 0.47912 0.02197 0.0
C1754 C 0.42455 0.45818 0.02742 0.0
H1755 H 0.55858 0.89255 0.07451 0.0
H1756 H 0.54298 0.84216 0.03732 0.0
H1757 H 0.53149 0.86631 0.02129 0.0
H1758 H 0.50763 0.90237 0.06709 0.0
H1759 H 0.52443 0.9339 0.07229 0.0
H1760 H 0.53223 0.91307 0.08081 0.0
H1761 H 0.57728 0.93951 0.07204 0.0
H1762 H 0.56955 0.96032 0.06338 0.0
H1763 H 0.58349 0.94665 0.05231 0.0
H1764 H 0.52129 0.89552 0.00923 0.0
H1765 H 0.51253 0.92759 1.00219 0.0
H1766 H 0.53253 0.95797 0.04739 0.0
C1767 C 0.55263 0.8865 0.06303 0.0
C1768 C 0.55205 0.86555 0.05717 0.0
C1769 C 0.54423 0.85842 0.04202 0.0
C1770 C 0.53746 0.87193 0.03282 0.0
C1771 C 0.5384 0.8925 0.03891 0.0
C1772 C 0.54566 0.89973 0.05368 0.0
C1773 C 0.54459 0.92238 0.05746 0.0
C1774 C 0.52612 0.91763 0.07016 0.0
C1775 C 0.57026 0.94346 0.06154 0.0
C1776 C 0.53557 0.92664 0.04252 0.0
C1777 C 0.53225 0.90926 0.03197 0.0
C1778 C 0.52399 0.90933 0.01738 0.0
C1779 C 0.51911 0.92775 0.01344 0.0
C1780 C 0.52247 0.94593 0.02398 0.0
C1781 C 0.53055 0.94503 0.0388 0.0
H1782 H 1.00032 0.22244 0.3796 0.0
H1783 H 0.02378 0.16978 0.3869 0.0
H1784 H 0.06203 0.19565 0.37314 0.0
H1785 H 0.02945 0.24419 0.3424 0.0
H1786 H 0.03827 0.27503 0.34688 0.0
H1787 H 0.01085 0.25062 0.35496 0.0
H1788 H 0.02716 0.26742 0.38187 0.0
H1789 H 0.05443 0.2919 0.37387 0.0
H1790 H 0.057 0.27258 0.38761 0.0
H1791 H 0.09967 0.22908 0.36079 0.0
H1792 H 0.13434 0.26839 0.35288 0.0
H1793 H 0.08733 0.29998 0.35518 0.0
C1794 C 0.01337 0.21618 0.37828 0.0
C1795 C 0.00878 0.19388 0.38432 0.0
C1796 C 0.02645 0.18647 0.38214 0.0
C1797 C 0.04833 0.20109 0.37435 0.0
C1798 C 0.05237 0.22311 0.36878 0.0
C1799 C 0.0354 0.23066 0.37071 0.0
C1800 C 0.04517 0.25614 0.3651 0.0
C1801 C 0.03003 0.2565 0.35153 0.0
C1802 C 0.046 0.27299 0.37787 0.0
C1803 C 0.07069 0.26214 0.36032 0.0
C1804 C 0.0743 0.24265 0.36211 0.0
C1805 C 0.09691 0.24433 0.35913 0.0
C1806 C 0.11648 0.26668 0.35458 0.0
C1807 C 0.11324 0.28696 0.35317 0.0
C1808 C 0.09003 0.28454 0.35592 0.0
H1809 H 0.77119 0.76229 0.38639 0.0
H1810 H 0.82918 0.8372 0.39057 0.0
H1811 H 0.80183 0.85018 0.37933 0.0
H1812 H 0.74518 0.76842 0.35107 0.0
H1813 H 0.71382 0.74822 0.35646 0.0
H1814 H 0.73823 0.7442 0.36401 0.0
H1815 H 0.72481 0.74672 0.39126 0.0
H1816 H 0.70015 0.75041 0.38386 0.0
H1817 H 0.72213 0.77247 0.39688 0.0
H1818 H 0.76791 0.85547 0.36844 0.0
H1819 H 0.72932 0.85252 0.35952 0.0
H1820 H 0.6923 0.77463 0.36326 0.0
C1821 C 0.77819 0.78144 0.38501 0.0
C1822 C 0.80264 0.79863 0.38927 0.0
C1823 C 0.81087 0.82352 0.3871 0.0
C1824 C 0.79538 0.83114 0.38079 0.0
C1825 C 0.77152 0.81376 0.37672 0.0
C1826 C 0.76287 0.78943 0.37879 0.0
C1827 C 0.73609 0.77457 0.37395 0.0
C1828 C 0.73316 0.75786 0.36058 0.0
C1829 C 0.71984 0.7602 0.38729 0.0
C1830 C 0.73094 0.79439 0.36914 0.0
C1831 C 0.75175 0.81684 0.37066 0.0
C1832 C 0.75155 0.83796 0.36714 0.0
C1833 C 0.7295 0.83611 0.36201 0.0
C1834 C 0.70789 0.81335 0.36039 0.0
C1835 C 0.70866 0.79225 0.36413 0.0
H1836 H 0.22503 0.99454 0.40119 0.0
H1837 H 0.19633 0.02422 0.36811 0.0
H1838 H 0.18527 0.98935 0.35132 0.0
H1839 H 0.25162 0.97135 0.37402 0.0
H1840 H 0.24388 0.9447 0.38482 0.0
H1841 H 0.24968 0.97209 0.39431 0.0
H1842 H 0.20706 0.94907 0.4071 0.0
H1843 H 0.20116 0.92163 0.39766 0.0
H1844 H 0.17986 0.9326 0.39555 0.0
H1845 H 0.1758 0.95043 0.33845 0.0
H1846 H 0.16957 0.91066 0.3303 0.0
H1847 H 0.20629 0.90742 0.37112 0.0
C1848 C 0.21667 0.99388 0.39035 0.0
C1849 C 0.21137 0.01211 0.38608 0.0
C1850 C 0.20014 0.0103 0.37183 0.0
C1851 C 0.19396 0.99064 0.36213 0.0
C1852 C 0.19928 0.97295 0.36673 0.0
C1853 C 0.21049 0.97441 0.38047 0.0
C1854 C 0.21399 0.95283 0.38275 0.0
C1855 C 0.24143 0.96072 0.38405 0.0
C1856 C 0.19966 0.93817 0.39658 0.0
C1857 C 0.20289 0.93898 0.36819 0.0
C1858 C 0.19444 0.95085 0.35912 0.0
C1859 C 0.18256 0.94107 0.34539 0.0
C1860 C 0.17909 0.91848 0.34086 0.0
C1861 C 0.18765 0.90603 0.34998 0.0
C1862 C 0.19987 0.91662 0.36375 0.0
H1863 H 0.5602 0.67414 0.27846 0.0
H1864 H 0.53062 0.63069 0.31855 0.0
H1865 H 0.56071 0.66473 0.33437 0.0
H1866 H 0.6253 0.7088 0.29124 0.0
H1867 H 0.63008 0.73654 0.28301 0.0
H1868 H 0.60835 0.70793 0.27455 0.0
H1869 H 0.57414 0.71924 0.27656 0.0
H1870 H 0.59575 0.74783 0.28499 0.0
H1871 H 0.56769 0.72782 0.29467 0.0
H1872 H 0.59121 0.70353 0.34592 0.0
H1873 H 0.61933 0.74599 0.35294 0.0
H1874 H 0.62903 0.76569 0.30565 0.0
C1875 C 0.56053 0.67177 0.29054 0.0
C1876 C 0.54338 0.64986 0.29737 0.0
C1877 C 0.54375 0.64739 0.3132 0.0
C1878 C 0.56081 0.66654 0.32222 0.0
C1879 C 0.57729 0.68805 0.31523 0.0
C1880 C 0.5773 0.6909 0.29977 0.0
C1881 C 0.59556 0.71667 0.29534 0.0
C1882 C 0.61604 0.71753 0.28545 0.0
C1883 C 0.5825 0.72858 0.28743 0.0
C1884 C 0.60537 0.72792 0.31076 0.0
C1885 C 0.59476 0.71092 0.32201 0.0
C1886 C 0.59976 0.71699 0.33722 0.0
C1887 C 0.6156 0.74117 0.3411 0.0
C1888 C 0.62614 0.75906 0.32984 0.0
C1889 C 0.62143 0.75228 0.31445 0.0
H1890 H 0.32376 0.84447 0.2971 0.0
H1891 H 0.35998 0.92269 0.30062 0.0
H1892 H 0.32289 0.91937 0.31223 0.0
H1893 H 0.26512 0.83331 0.28793 0.0
H1894 H 0.24876 0.80664 0.29928 0.0
H1895 H 0.27873 0.81494 0.29214 0.0
H1896 H 0.29386 0.8148 0.31935 0.0
H1897 H 0.26399 0.80679 0.32668 0.0
H1898 H 0.29099 0.83333 0.33371 0.0
H1899 H 0.28031 0.90791 0.32079 0.0
H1900 H 0.2361 0.88863 0.32714 0.0
H1901 H 0.2284 0.81809 0.32004 0.0
C1902 C 0.32422 0.86094 0.30061 0.0
C1903 C 0.34495 0.88389 0.29766 0.0
C1904 C 0.3443 0.90488 0.3023 0.0
C1905 C 0.32335 0.9032 0.3091 0.0
C1906 C 0.30318 0.88039 0.31154 0.0
C1907 C 0.30355 0.8596 0.30765 0.0
C1908 C 0.27909 0.8373 0.31113 0.0
C1909 C 0.26723 0.82217 0.29676 0.0
C1910 C 0.28217 0.82216 0.32345 0.0
C1911 C 0.26466 0.84886 0.31697 0.0
C1912 C 0.27896 0.87375 0.31723 0.0
C1913 C 0.26914 0.88843 0.32105 0.0
C1914 C 0.2441 0.87738 0.32471 0.0
C1915 C 0.2293 0.85194 0.32477 0.0
C1916 C 0.23968 0.83756 0.32074 0.0
H1917 H 0.13225 0.47049 0.31263 0.0
H1918 H 0.07595 0.42263 0.28064 0.0
H1919 H 0.0817 0.38916 0.28874 0.0
H1920 H 0.17244 0.44665 0.30613 0.0
H1921 H 0.18249 0.44954 0.3255 0.0
H1922 H 0.1729 0.46977 0.31813 0.0
H1923 H 0.14079 0.45753 0.33952 0.0
H1924 H 0.15058 0.43746 0.34691 0.0
H1925 H 0.11868 0.42605 0.34221 0.0
H1926 H 0.09402 0.36123 0.29919 0.0
H1927 H 0.11326 0.34017 0.31102 0.0
H1928 H 0.16332 0.40567 0.33577 0.0
C1929 C 0.12111 0.45298 0.30733 0.0
C1930 C 0.10328 0.44925 0.29615 0.0
C1931 C 0.08916 0.42596 0.28954 0.0
C1932 C 0.09242 0.40678 0.29398 0.0
C1933 C 0.11002 0.41107 0.30498 0.0
C1934 C 0.12425 0.43355 0.31155 0.0
C1935 C 0.14264 0.43328 0.32265 0.0
C1936 C 0.16919 0.45085 0.31781 0.0
C1937 C 0.13787 0.43891 0.33878 0.0
C1938 C 0.1366 0.4072 0.32111 0.0
C1939 C 0.11757 0.39479 0.31092 0.0
C1940 C 0.10888 0.37068 0.30724 0.0
C1941 C 0.12003 0.35889 0.31405 0.0
C1942 C 0.1398 0.37116 0.32443 0.0
C1943 C 0.14806 0.39566 0.32806 0.0
H1944 H 0.34541 0.44191 0.3008 0.0
H1945 H 0.32347 0.4958 0.29477 0.0
H1946 H 0.28454 0.46966 0.30812 0.0
H1947 H 0.28826 0.39223 0.29299 0.0
H1948 H 0.29056 0.37254 0.30657 0.0
H1949 H 0.31797 0.39689 0.29859 0.0
H1950 H 0.3346 0.41327 0.32553 0.0
H1951 H 0.30707 0.38894 0.33357 0.0
H1952 H 0.31626 0.4198 0.33826 0.0
H1953 H 0.24668 0.43626 0.32047 0.0
H1954 H 0.21179 0.3971 0.32844 0.0
H1955 H 0.25801 0.36468 0.32556 0.0
C1956 C 0.33263 0.44841 0.30261 0.0
C1957 C 0.33747 0.47092 0.29688 0.0
C1958 C 0.32005 0.47857 0.29907 0.0
C1959 C 0.29802 0.46395 0.30675 0.0
C1960 C 0.29368 0.44171 0.31214 0.0
C1961 C 0.31047 0.43393 0.31009 0.0
C1962 C 0.30039 0.40832 0.31556 0.0
C1963 C 0.29922 0.39151 0.30266 0.0
C1964 C 0.31549 0.40755 0.32903 0.0
C1965 C 0.27498 0.40257 0.32046 0.0
C1966 C 0.27165 0.42225 0.31881 0.0
C1967 C 0.24921 0.42084 0.32199 0.0
C1968 C 0.22952 0.39858 0.32658 0.0
C1969 C 0.23245 0.3781 0.32785 0.0
C1970 C 0.25552 0.38026 0.32492 0.0
H1971 H 0.56174 0.89703 0.29754 0.0
H1972 H 0.50518 0.82215 0.29161 0.0
H1973 H 0.5318 0.80921 0.30441 0.0
H1974 H 0.61226 0.88794 0.28963 0.0
H1975 H 0.63266 0.91013 0.30319 0.0
H1976 H 0.6084 0.91326 0.29457 0.0
H1977 H 0.59276 0.91556 0.32102 0.0
H1978 H 0.616 0.91121 0.33009 0.0
H1979 H 0.58392 0.89102 0.33396 0.0
H1980 H 0.56525 0.80447 0.31732 0.0
H1981 H 0.6039 0.80824 0.32733 0.0
H1982 H 0.63923 0.88611 0.32401 0.0
C1983 C 0.5549 0.87793 0.29909 0.0
C1984 C 0.53133 0.86056 0.29369 0.0
C1985 C 0.52319 0.83572 0.29566 0.0
C1986 C 0.53812 0.82823 0.30299 0.0
C1987 C 0.5613 0.8458 0.30816 0.0
C1988 C 0.56975 0.87013 0.30615 0.0
C1989 C 0.59595 0.8853 0.3119 0.0
C1990 C 0.61334 0.90002 0.29906 0.0
C1991 C 0.59725 0.90175 0.32503 0.0
C1992 C 0.60105 0.86573 0.31728 0.0
C1993 C 0.5807 0.84306 0.31525 0.0
C1994 C 0.58122 0.82214 0.31904 0.0
C1995 C 0.6032 0.82445 0.32478 0.0
C1996 C 0.62435 0.84749 0.32672 0.0
C1997 C 0.62317 0.86831 0.32289 0.0
H1998 H 0.0943 0.65529 0.29892 0.0
H1999 H 0.16735 0.66456 0.29507 0.0
H2000 H 0.18481 0.70403 0.30824 0.0
H2001 H 0.11134 0.71629 0.29133 0.0
H2002 H 0.08972 0.71675 0.30456 0.0
H2003 H 0.08349 0.68879 0.29581 0.0
H2004 H 0.07861 0.67056 0.32255 0.0
H2005 H 0.08574 0.69903 0.33108 0.0
H2006 H 0.10356 0.68499 0.33598 0.0
H2007 H 0.1942 0.74188 0.32205 0.0
H2008 H 0.196 0.77845 0.33271 0.0
H2009 H 0.11741 0.74686 0.32548 0.0
C2010 C 0.11393 0.66562 0.30099 0.0
C2011 C 0.12956 0.65698 0.29608 0.0
C2012 C 0.15517 0.671 0.29874 0.0
C2013 C 0.16519 0.69331 0.30628 0.0
C2014 C 0.14934 0.70141 0.31095 0.0
C2015 C 0.1243 0.68816 0.30828 0.0
C2016 C 0.11162 0.70176 0.31364 0.0
C2017 C 0.09829 0.70619 0.30053 0.0
C2018 C 0.09383 0.68827 0.32658 0.0
C2019 C 0.13356 0.72506 0.31927 0.0
C2020 C 0.155 0.72407 0.31805 0.0
C2021 C 0.17758 0.74295 0.32297 0.0
C2022 C 0.17839 0.7636 0.32905 0.0
C2023 C 0.15688 0.7655 0.32981 0.0
C2024 C 0.13415 0.7459 0.32493 0.0
H2025 H 0.79887 0.01295 0.37714 0.0
H2026 H 0.81774 0.9856 0.41684 0.0
H2027 H 0.78812 0.94421 0.40896 0.0
H2028 H 0.73595 0.97061 0.37521 0.0
H2029 H 0.73436 0.96698 0.35496 0.0
H2030 H 0.75731 0.99495 0.36344 0.0
H2031 H 0.79172 0.99116 0.34974 0.0
H2032 H 0.76874 0.96333 0.34108 0.0
H2033 H 0.79346 0.964 0.35187 0.0
H2034 H 0.75403 0.9063 0.39842 0.0
H2035 H 0.72068 0.87303 0.38377 0.0
H2036 H 0.72717 0.9235 0.34912 0.0
C2037 C 0.79721 0.99834 0.38408 0.0
C2038 C 0.81037 0.00287 0.39789 0.0
C2039 C 0.80731 0.98295 0.40656 0.0
C2040 C 0.7907 0.95923 0.40209 0.0
C2041 C 0.77771 0.95553 0.38868 0.0
C2042 C 0.78113 0.97441 0.37958 0.0
C2043 C 0.76499 0.96517 0.36555 0.0
C2044 C 0.74709 0.97502 0.36475 0.0
C2045 C 0.78067 0.97129 0.35121 0.0
C2046 C 0.7515 0.93824 0.36846 0.0
C2047 C 0.75907 0.93319 0.38195 0.0
C2048 C 0.74824 0.90992 0.3877 0.0
C2049 C 0.72926 0.89123 0.37938 0.0
C2050 C 0.72167 0.89587 0.36537 0.0
C2051 C 0.733 0.9196 0.35974 0.0
H2052 H 0.99424 0.76471 0.38101 0.0
H2053 H 0.017 0.83736 0.39673 0.0
H2054 H 0.058 0.85188 0.3857 0.0
H2055 H 0.05106 0.76704 0.38903 0.0
H2056 H 0.0501 0.74964 0.37268 0.0
H2057 H 0.02192 0.74516 0.38087 0.0
H2058 H 0.00896 0.75333 0.35501 0.0
H2059 H 0.03747 0.75919 0.34652 0.0
H2060 H 0.02804 0.78159 0.34574 0.0
H2061 H 0.09714 0.85829 0.37454 0.0
H2062 H 0.13233 0.85609 0.36395 0.0
H2063 H 0.08519 0.77954 0.3552 0.0
C2064 C 0.00778 0.78372 0.38191 0.0
C2065 C 1.00241 0.79993 0.38974 0.0
C2066 C 0.02074 0.82461 0.3909 0.0
C2067 C 0.04405 0.83305 0.38459 0.0
C2068 C 0.04888 0.81662 0.37714 0.0
C2069 C 0.03133 0.79246 0.37577 0.0
C2070 C 0.04188 0.77847 0.36787 0.0
C2071 C 0.0412 0.75893 0.37824 0.0
C2072 C 0.02829 0.7675 0.35289 0.0
C2073 C 0.0681 0.7985 0.36518 0.0
C2074 C 0.07163 0.82038 0.37055 0.0
C2075 C 0.09451 0.84136 0.37007 0.0
C2076 C 0.11437 0.83997 0.364 0.0
C2077 C 0.11121 0.81783 0.35834 0.0
C2078 C 0.08783 0.79679 0.35906 0.0
H2079 H 0.20281 0.20792 0.39991 0.0
H2080 H 0.26852 0.22434 0.3747 0.0
H2081 H 0.26413 0.25476 0.36013 0.0
H2082 H 0.16906 0.21389 0.36962 0.0
H2083 H 0.1557 0.22791 0.38091 0.0
H2084 H 0.1641 0.20756 0.38951 0.0
H2085 H 0.19147 0.24073 0.40898 0.0
H2086 H 0.18309 0.26117 0.40046 0.0
H2087 H 0.21503 0.26977 0.4024 0.0
H2088 H 0.25196 0.28264 0.34776 0.0
H2089 H 0.23313 0.30665 0.33902 0.0
H2090 H 0.17651 0.27314 0.37285 0.0
C2091 C 0.2165 0.21812 0.39148 0.0
C2092 C 0.23596 0.21359 0.38843 0.0
C2093 C 0.25321 0.22714 0.3771 0.0
C2094 C 0.25098 0.24459 0.36882 0.0
C2095 C 0.23151 0.24846 0.37206 0.0
C2096 C 0.21465 0.23571 0.38318 0.0
C2097 C 0.19533 0.24323 0.38438 0.0
C2098 C 0.16953 0.22187 0.38089 0.0
C2099 C 0.1963 0.25439 0.39998 0.0
C2100 C 0.20384 0.26205 0.37212 0.0
C2101 C 0.22476 0.26481 0.36514 0.0
C2102 C 0.23571 0.28078 0.35322 0.0
C2103 C 0.22498 0.29429 0.34834 0.0
C2104 C 0.20369 0.29168 0.35542 0.0
C2105 C 0.193 0.27546 0.36743 0.0
H2106 H 0.66811 0.55705 0.71362 0.0
H2107 H 0.69094 0.50384 0.72021 0.0
H2108 H 0.73028 0.53073 0.7076 0.0
H2109 H 0.69909 0.58038 0.67704 0.0
H2110 H 0.70743 0.61098 0.68188 0.0
H2111 H 0.6797 0.58612 0.68933 0.0
H2112 H 0.69452 0.60192 0.7166 0.0
H2113 H 0.72213 0.62683 0.70923 0.0
H2114 H 0.72412 0.60703 0.72287 0.0
H2115 H 0.76895 0.56536 0.69678 0.0
H2116 H 0.80378 0.60517 0.68972 0.0
H2117 H 0.75582 0.63575 0.6909 0.0
C2118 C 0.68128 0.55093 0.71234 0.0
C2119 C 0.67638 0.52829 0.71791 0.0
C2120 C 0.69409 0.52093 0.71585 0.0
C2121 C 0.71651 0.5361 0.70871 0.0
C2122 C 0.72088 0.55849 0.7036 0.0
C2123 C 0.70371 0.56583 0.70532 0.0
C2124 C 0.71358 0.59149 0.70006 0.0
C2125 C 0.69908 0.59227 0.68626 0.0
C2126 C 0.7136 0.60777 0.71296 0.0
C2127 C 0.73938 0.59785 0.69575 0.0
C2128 C 0.74314 0.57844 0.69753 0.0
C2129 C 0.76607 0.58053 0.69509 0.0
C2130 C 0.78572 0.60315 0.69102 0.0
C2131 C 0.7822 0.62325 0.68945 0.0
C2132 C 0.75874 0.62045 0.69173 0.0
H2133 H 0.44986 0.10416 0.71581 0.0
H2134 H 0.50108 0.1775 0.7305 0.0
H2135 H 0.47392 0.1912 0.71967 0.0
H2136 H 0.43314 0.11935 0.68108 0.0
H2137 H 0.40076 0.09738 0.68146 0.0
H2138 H 0.42269 0.09119 0.69063 0.0
H2139 H 0.40192 0.08422 0.71635 0.0
H2140 H 0.37814 0.08807 0.70765 0.0
H2141 H 0.39465 0.10617 0.72388 0.0
H2142 H 0.43989 0.19649 0.70918 0.0
H2143 H 0.40207 0.19335 0.69832 0.0
H2144 H 0.37346 0.11722 0.68925 0.0
C2145 C 0.45533 0.12309 0.71679 0.0
C2146 C 0.47774 0.13977 0.72396 0.0
C2147 C 0.48426 0.16443 0.72486 0.0
C2148 C 0.46888 0.17238 0.71881 0.0
C2149 C 0.447 0.1555 0.71184 0.0
C2150 C 0.44021 0.13138 0.71076 0.0
C2151 C 0.41554 0.11697 0.70279 0.0
C2152 C 0.41816 0.10555 0.68811 0.0
C2153 C 0.39644 0.09772 0.7133 0.0
C2154 C 0.4095 0.13676 0.69964 0.0
C2155 C 0.42786 0.15882 0.70506 0.0
C2156 C 0.42569 0.17947 0.70454 0.0
C2157 C 0.40429 0.17759 0.69823 0.0
C2158 C 0.38554 0.15535 0.69228 0.0
C2159 C 0.38805 0.13463 0.69318 0.0
H2160 H 0.89923 0.332 0.73258 0.0
H2161 H 0.86235 0.35538 0.70096 0.0
H2162 H 0.84899 0.31835 0.68592 0.0
H2163 H 0.92166 0.30659 0.70408 0.0
H2164 H 0.91747 0.28188 0.71581 0.0
H2165 H 0.92403 0.31018 0.72433 0.0
H2166 H 0.88472 0.2879 0.74053 0.0
H2167 H 0.87804 0.25956 0.73205 0.0
H2168 H 0.85548 0.26914 0.73134 0.0
H2169 H 0.83776 0.27812 0.67505 0.0
H2170 H 0.83115 0.23806 0.6682 0.0
H2171 H 0.87841 0.24205 0.70536 0.0
C2172 C 0.88861 0.32955 0.7224 0.0
C2173 C 0.88165 0.34662 0.71809 0.0
C2174 C 0.86746 0.3424 0.70475 0.0
C2175 C 0.85994 0.32149 0.69603 0.0
C2176 C 0.86701 0.30506 0.70065 0.0
C2177 C 0.8812 0.30889 0.71343 0.0
C2178 C 0.88632 0.28832 0.71581 0.0
C2179 C 0.91402 0.29728 0.71495 0.0
C2180 C 0.87549 0.27547 0.73082 0.0
C2181 C 0.87262 0.27227 0.70241 0.0
C2182 C 0.86152 0.28226 0.69389 0.0
C2183 C 0.84677 0.27033 0.68144 0.0
C2184 C 0.8433 0.24757 0.67756 0.0
C2185 C 0.85484 0.23706 0.6859 0.0
C2186 C 0.86972 0.24971 0.69852 0.0
H2187 H 0.19298 0.00718 0.63393 0.0
H2188 H 0.23619 0.97121 0.63142 0.0
H2189 H 0.27077 0.00623 0.64391 0.0
H2190 H 0.24011 0.06586 0.62704 0.0
H2191 H 0.23004 0.08042 0.64042 0.0
H2192 H 0.20805 0.05209 0.63188 0.0
H2193 H 0.19391 0.03345 0.65841 0.0
H2194 H 0.21589 0.06181 0.66703 0.0
H2195 H 0.21629 0.0346 0.67171 0.0
H2196 H 0.30197 0.04645 0.65423 0.0
H2197 H 0.32688 0.08857 0.66342 0.0
H2198 H 0.26256 0.09703 0.66162 0.0
C2199 C 0.20945 0.00632 0.63629 0.0
C2200 C 0.2118 0.98638 0.63146 0.0
C2201 C 0.234 0.98641 0.6346 0.0
C2202 C 0.25372 0.00613 0.64186 0.0
C2203 C 0.25086 0.02554 0.64624 0.0
C2204 C 0.22918 0.02567 0.64379 0.0
C2205 C 0.23116 0.04908 0.64938 0.0
C2206 C 0.22711 0.06266 0.6364 0.0
C2207 C 0.21325 0.04444 0.66241 0.0
C2208 C 0.25756 0.06231 0.65491 0.0
C2209 C 0.26858 0.04838 0.65298 0.0
C2210 C 0.29344 0.05736 0.65609 0.0
C2211 C 0.30744 0.08126 0.66122 0.0
C2212 C 0.29647 0.09574 0.66331 0.0
C2213 C 0.27116 0.08604 0.66039 0.0
H2214 H 0.01008 0.23045 0.63054 0.0
H2215 H 0.99501 0.15643 0.63383 0.0
H2216 H 0.95684 0.14553 0.64739 0.0
H2217 H 0.98313 0.23315 0.6666 0.0
H2218 H 0.97011 0.25043 0.65901 0.0
H2219 H 0.99794 0.25344 0.65113 0.0
H2220 H 0.97757 0.24253 0.62455 0.0
H2221 H 0.94981 0.23967 0.63236 0.0
H2222 H 0.94877 0.21485 0.62194 0.0
H2223 H 0.91902 0.14185 0.65963 0.0
H2224 H 0.88307 0.14507 0.66739 0.0
H2225 H 0.92075 0.22042 0.65461 0.0
C2226 C 0.99885 0.21191 0.63405 0.0
C2227 C 0.00612 0.19449 0.63119 0.0
C2228 C 0.99059 0.17047 0.63618 0.0
C2229 C 0.96865 0.16398 0.64386 0.0
C2230 C 0.96214 0.18157 0.64643 0.0
C2231 C 0.97666 0.205 0.64155 0.0
C2232 C 0.9645 0.21998 0.64473 0.0
C2233 C 0.97984 0.24047 0.65604 0.0
C2234 C 0.95988 0.22983 0.63002 0.0
C2235 C 0.9406 0.20113 0.65175 0.0
C2236 C 0.93987 0.17923 0.65296 0.0
C2237 C 0.91949 0.15896 0.65883 0.0
C2238 C 0.89916 0.161 0.66331 0.0
C2239 C 0.89928 0.18311 0.66187 0.0
C2240 C 0.92034 0.20341 0.65604 0.0
H2241 H 0.79942 0.80336 0.64265 0.0
H2242 H 0.74855 0.75534 0.60833 0.0
H2243 H 0.75459 0.72245 0.61747 0.0
H2244 H 0.84209 0.78129 0.63952 0.0
H2245 H 0.84918 0.78412 0.65942 0.0
H2246 H 0.84009 0.80389 0.65072 0.0
H2247 H 0.80479 0.79058 0.67008 0.0
H2248 H 0.81399 0.77089 0.67876 0.0
H2249 H 0.78285 0.7589 0.67212 0.0
H2250 H 0.76609 0.69489 0.62979 0.0
H2251 H 0.78402 0.67441 0.64387 0.0
H2252 H 0.82932 0.74025 0.66967 0.0
C2253 C 0.78963 0.78598 0.637 0.0
C2254 C 0.77318 0.78195 0.62488 0.0
C2255 C 0.76071 0.75882 0.61788 0.0
C2256 C 0.76414 0.74 0.62293 0.0
C2257 C 0.78027 0.74454 0.63492 0.0
C2258 C 0.79299 0.76694 0.64183 0.0
C2259 C 0.80984 0.76701 0.6542 0.0
C2260 C 0.8369 0.78515 0.65075 0.0
C2261 C 0.80241 0.77214 0.66971 0.0
C2262 C 0.80466 0.74118 0.65304 0.0
C2263 C 0.78738 0.72857 0.64191 0.0
C2264 C 0.77963 0.70454 0.63855 0.0
C2265 C 0.79 0.69307 0.64665 0.0
C2266 C 0.80808 0.70563 0.65797 0.0
C2267 C 0.81536 0.73002 0.66124 0.0
H2268 H 0.01257 0.78172 0.63643 0.0
H2269 H 0.9875 0.83282 0.62841 0.0
H2270 H 0.94906 0.8064 0.64213 0.0
H2271 H 0.95663 0.73011 0.62973 0.0
H2272 H 0.96018 0.71209 0.64402 0.0
H2273 H 0.9869 0.73654 0.63551 0.0
H2274 H 1.00339 0.7553 0.66204 0.0
H2275 H 0.97655 0.73085 0.67061 0.0
H2276 H 0.9844 0.76165 0.67432 0.0
H2277 H 0.91202 0.7728 0.65501 0.0
H2278 H 0.87833 0.73348 0.66372 0.0
H2279 H 0.92747 0.70421 0.66279 0.0
C2280 C 0.99923 0.7876 0.63787 0.0
C2281 C 1.00304 0.80937 0.63147 0.0
C2282 C 0.98487 0.81615 0.63321 0.0
C2283 C 0.96312 0.80139 0.64111 0.0
C2284 C 0.95985 0.77992 0.64719 0.0
C2285 C 0.97739 0.77301 0.64561 0.0
C2286 C 0.96848 0.74803 0.65186 0.0
C2287 C 0.96801 0.73068 0.63954 0.0
C2288 C 0.98415 0.74903 0.66552 0.0
C2289 C 0.94283 0.74154 0.65665 0.0
C2290 C 0.93837 0.76038 0.65426 0.0
C2291 C 0.91544 0.75807 0.65712 0.0
C2292 C 0.89644 0.73572 0.66214 0.0
C2293 C 0.90055 0.71606 0.66418 0.0
C2294 C 0.92409 0.71918 0.66158 0.0
H2295 H 0.19543 0.17035 0.62335 0.0
H2296 H 0.23576 0.24809 0.62971 0.0
H2297 H 0.27007 0.24536 0.6414 0.0
H2298 H 0.21488 0.15663 0.6589 0.0
H2299 H 0.2172 0.13155 0.65143 0.0
H2300 H 0.19544 0.13901 0.64337 0.0
H2301 H 0.21431 0.14302 0.61688 0.0
H2302 H 0.23579 0.13502 0.62468 0.0
H2303 H 0.24687 0.16276 0.61439 0.0
H2304 H 0.30104 0.23467 0.6508 0.0
H2305 H 0.32558 0.21632 0.65911 0.0
H2306 H 0.26491 0.14519 0.64809 0.0
C2307 C 0.21152 0.18676 0.6272 0.0
C2308 C 0.21297 0.20948 0.62561 0.0
C2309 C 0.2342 0.23053 0.63092 0.0
C2310 C 0.2538 0.22915 0.63753 0.0
C2311 C 0.25182 0.20654 0.63894 0.0
C2312 C 0.23116 0.18567 0.63408 0.0
C2313 C 0.23371 0.16364 0.63716 0.0
C2314 C 0.21414 0.1467 0.64838 0.0
C2315 C 0.23261 0.15033 0.6224 0.0
C2316 C 0.25921 0.17546 0.64422 0.0
C2317 C 0.26931 0.20024 0.64509 0.0
C2318 C 0.29312 0.21526 0.65046 0.0
C2319 C 0.30688 0.20468 0.65522 0.0
C2320 C 0.29673 0.17933 0.65481 0.0
C2321 C 0.27271 0.16457 0.64903 0.0
H2322 H 0.77222 0.99912 0.62161 0.0
H2323 H 0.81184 0.97535 0.65051 0.0
H2324 H 0.82755 0.01274 0.66574 0.0
H2325 H 0.81795 0.06252 0.62186 0.0
H2326 H 0.79576 0.07258 0.62236 0.0
H2327 H 0.78787 0.04408 0.61359 0.0
H2328 H 0.75 0.02242 0.63103 0.0
H2329 H 0.75784 0.05085 0.63988 0.0
H2330 H 0.75422 0.02596 0.65121 0.0
H2331 H 0.84009 0.05315 0.67725 0.0
H2332 H 0.84746 0.0933 0.68489 0.0
H2333 H 0.79776 0.08997 0.64949 0.0
C2334 C 0.78431 0.0019 0.6311 0.0
C2335 C 0.79083 0.98438 0.63492 0.0
C2336 C 0.80648 0.98848 0.6475 0.0
C2337 C 0.81555 0.00967 0.65616 0.0
C2338 C 0.80866 0.02652 0.65218 0.0
C2339 C 0.79332 0.02287 0.63999 0.0
C2340 C 0.78847 0.04373 0.63832 0.0
C2341 C 0.79809 0.05648 0.62313 0.0
C2342 C 0.761 0.03523 0.64023 0.0
C2343 C 0.80355 0.05966 0.65143 0.0
C2344 C 0.81516 0.04946 0.6592 0.0
C2345 C 0.83081 0.06117 0.67138 0.0
C2346 C 0.83473 0.08396 0.67573 0.0
C2347 C 0.82277 0.09469 0.66808 0.0
C2348 C 0.80694 0.08222 0.65577 0.0
H2349 H 0.46426 0.3289 0.72832 0.0
H2350 H 0.45937 0.37688 0.69567 0.0
H2351 H 0.42952 0.34152 0.68078 0.0
H2352 H 0.45846 0.28336 0.70293 0.0
H2353 H 0.43954 0.25882 0.71533 0.0
H2354 H 0.46123 0.28794 0.72311 0.0
H2355 H 0.42617 0.28909 0.73785 0.0
H2356 H 0.4044 0.25991 0.73016 0.0
H2357 H 0.3994 0.28513 0.72775 0.0
H2358 H 0.40144 0.30028 0.66873 0.0
H2359 H 0.3748 0.25686 0.6621 0.0
H2360 H 0.39501 0.23708 0.70425 0.0
C2361 C 0.4567 0.3322 0.71822 0.0
C2362 C 0.46447 0.35591 0.71322 0.0
C2363 C 0.45428 0.35902 0.69966 0.0
C2364 C 0.43711 0.33901 0.69114 0.0
C2365 C 0.42998 0.31598 0.69644 0.0
C2366 C 0.43922 0.31253 0.70979 0.0
C2367 C 0.42816 0.28601 0.7133 0.0
C2368 C 0.44803 0.27861 0.71369 0.0
C2369 C 0.41367 0.27967 0.72814 0.0
C2370 C 0.41126 0.27503 0.69983 0.0
C2371 C 0.41278 0.29252 0.69007 0.0
C2372 C 0.39983 0.28646 0.6764 0.0
C2373 C 0.38484 0.26188 0.67271 0.0
C2374 C 0.38265 0.24391 0.68283 0.0
C2375 C 0.39598 0.2506 0.69652 0.0
H2376 H 0.66738 0.09728 0.7227 0.0
H2377 H 0.67993 0.17023 0.71984 0.0
H2378 H 0.71901 0.18286 0.70642 0.0
H2379 H 0.72872 0.1141 0.73126 0.0
H2380 H 0.72878 0.08996 0.72065 0.0
H2381 H 0.70047 0.08602 0.72825 0.0
H2382 H 0.6808 0.07541 0.70149 0.0
H2383 H 0.70918 0.07947 0.6938 0.0
H2384 H 0.69556 0.09627 0.68626 0.0
H2385 H 0.75748 0.18788 0.69421 0.0
H2386 H 0.79435 0.18604 0.68674 0.0
H2387 H 0.75823 0.11046 0.69891 0.0
C2388 C 0.67824 0.1158 0.719 0.0
C2389 C 0.67065 0.13279 0.72212 0.0
C2390 C 0.68549 0.15699 0.71747 0.0
C2391 C 0.70758 0.16426 0.70978 0.0
C2392 C 0.7147 0.14714 0.70694 0.0
C2393 C 0.7006 0.12345 0.71154 0.0
C2394 C 0.71351 0.1092 0.70834 0.0
C2395 C 0.71815 0.09925 0.723 0.0
C2396 C 0.69888 0.08888 0.69678 0.0
C2397 C 0.73732 0.12869 0.70161 0.0
C2398 C 0.73737 0.15029 0.70053 0.0
C2399 C 0.75756 0.17102 0.69492 0.0
C2400 C 0.77841 0.16978 0.69062 0.0
C2401 C 0.779 0.14801 0.69204 0.0
C2402 C 0.75811 0.12724 0.69755 0.0
H2403 H 0.88137 0.53332 0.7095 0.0
H2404 H 0.93103 0.57906 0.74503 0.0
H2405 H 0.92601 0.61281 0.73634 0.0
H2406 H 0.89982 0.57959 0.68094 0.0
H2407 H 0.86898 0.56804 0.67387 0.0
H2408 H 0.87772 0.54782 0.68225 0.0
H2409 H 0.84155 0.53353 0.70106 0.0
H2410 H 0.83296 0.55389 0.69268 0.0
H2411 H 0.83918 0.55555 0.71267 0.0
H2412 H 0.91502 0.64129 0.72449 0.0
H2413 H 0.89757 0.66256 0.71074 0.0
H2414 H 0.85325 0.59814 0.68351 0.0
C2415 C 0.89114 0.55038 0.7155 0.0
C2416 C 0.90688 0.55349 0.72787 0.0
C2417 C 0.91939 0.57626 0.7353 0.0
C2418 C 0.91653 0.59556 0.73052 0.0
C2419 C 0.90095 0.59186 0.71834 0.0
C2420 C 0.88834 0.56984 0.71096 0.0
C2421 C 0.87206 0.57055 0.6985 0.0
C2422 C 0.88015 0.56625 0.68297 0.0
C2423 C 0.84483 0.5523 0.70141 0.0
C2424 C 0.87731 0.59633 0.70018 0.0
C2425 C 0.89421 0.6083 0.71161 0.0
C2426 C 0.90181 0.63215 0.71549 0.0
C2427 C 0.89172 0.64407 0.70758 0.0
C2428 C 0.87404 0.63212 0.69595 0.0
C2429 C 0.8669 0.60793 0.69219 0.0
H2430 H 0.46 0.93134 0.17061 0.0
H2431 H 0.51548 0.98941 0.19818 0.0
H2432 H 0.53072 0.01541 0.17574 0.0
H2433 H 0.49702 0.94434 0.1359 0.0
H2434 H 0.47146 0.93753 0.12354 0.0
H2435 H 0.46621 0.92247 0.14142 0.0
H2436 H 0.43569 0.93689 0.14876 0.0
H2437 H 0.44082 0.95195 0.13091 0.0
H2438 H 0.44564 0.96866 0.14827 0.0
H2439 H 0.53871 0.03588 0.15097 0.0
H2440 H 0.53788 0.05052 0.12543 0.0
H2441 H 0.47652 0.98015 0.11333 0.0
C2442 C 0.47562 0.9494 0.1718 0.0
C2443 C 0.48671 0.95837 0.18612 0.0
C2444 C 0.50676 0.98224 0.18733 0.0
C2445 C 0.5156 0.99708 0.17464 0.0
C2446 C 0.50413 0.9879 0.16074 0.0
C2447 C 0.48452 0.96467 0.15919 0.0
C2448 C 0.47455 0.96002 0.14309 0.0
C2449 C 0.47749 0.93989 0.13554 0.0
C2450 C 0.44758 0.95403 0.14274 0.0
C2451 C 0.49137 0.98438 0.13594 0.0
C2452 C 0.50845 1.00003 0.14634 0.0
C2453 C 0.52547 0.02378 0.14271 0.0
C2454 C 0.52478 0.03196 0.12817 0.0
C2455 C 0.50709 0.01658 0.11736 0.0
C2456 C 0.49045 0.99228 0.12126 0.0
H2457 H 0.03423 0.5405 0.18039 0.0
H2458 H 0.03808 0.47504 0.18586 0.0
H2459 H 0.0207 0.4616 0.16023 0.0
H2460 H 0.97707 0.51327 0.16098 0.0
H2461 H 0.98522 0.53827 0.14849 0.0
H2462 H 0.99943 0.54351 0.16686 0.0
H2463 H 0.04251 0.56463 0.15456 0.0
H2464 H 0.02842 0.55951 0.13614 0.0
H2465 H 0.04956 0.5489 0.14022 0.0
H2466 H 1.00162 0.45463 0.13432 0.0
H2467 H 0.98099 0.45411 0.11038 0.0
H2468 H 0.98957 0.52408 0.12179 0.0
C2469 C 0.03175 0.52352 0.17609 0.0
C2470 C 0.03751 0.50881 0.18511 0.0
C2471 C 0.03358 0.48649 0.17919 0.0
C2472 C 0.02387 0.47877 0.16462 0.0
C2473 C 0.01814 0.49356 0.15609 0.0
C2474 C 0.02191 0.51546 0.1616 0.0
C2475 C 0.01317 0.52741 0.15038 0.0
C2476 C 0.99249 0.5308 0.15708 0.0
C2477 C 0.0347 0.55154 0.145 0.0
C2478 C 1.00362 0.50868 0.1378 0.0
C2479 C 0.00687 0.4894 0.14124 0.0
C2480 C 0.99911 0.46971 0.13146 0.0
C2481 C 0.98751 0.46961 0.11786 0.0
C2482 C 0.98362 0.48901 0.1142 0.0
C2483 C 0.99204 0.50886 0.12431 0.0
H2484 H 0.4854 0.50967 0.18173 0.0
H2485 H 0.45434 0.55494 0.1704 0.0
H2486 H 0.46555 0.55483 0.14369 0.0
H2487 H 0.53683 0.53745 0.15746 0.0
H2488 H 0.53602 0.50976 0.15221 0.0
H2489 H 0.52445 0.51236 0.17028 0.0
H2490 H 0.48246 0.47441 0.16418 0.0
H2491 H 0.49396 0.4716 0.14612 0.0
H2492 H 0.46626 0.47344 0.14711 0.0
H2493 H 0.48274 0.55208 0.11858 0.0
H2494 H 0.5025 0.54511 0.09664 0.0
H2495 H 0.52086 0.50016 0.12414 0.0
C2496 C 0.48088 0.51948 0.17361 0.0
C2497 C 0.46898 0.53231 0.17814 0.0
C2498 C 0.46318 0.54476 0.16715 0.0
C2499 C 0.4696 0.54491 0.15198 0.0
C2500 C 0.48162 0.53235 0.14794 0.0
C2501 C 0.48698 0.51966 0.15841 0.0
C2502 C 0.50021 0.50784 0.15116 0.0
C2503 C 0.5259 0.51744 0.1582 0.0
C2504 C 0.4848 0.48018 0.1522 0.0
C2505 C 0.50184 0.5162 0.13502 0.0
C2506 C 0.49101 0.53032 0.13341 0.0
C2507 C 0.49094 0.54075 0.11966 0.0
C2508 C 0.50211 0.53653 0.10722 0.0
C2509 C 0.5131 0.52186 0.10853 0.0
C2510 C 0.51284 0.5116 0.1227 0.0
H2511 H 0.92843 0.46678 0.84612 0.0
H2512 H 0.99847 0.47488 0.83231 0.0
H2513 H 0.01181 0.48023 0.859 0.0
H2514 H 0.9531 0.51301 0.87366 0.0
H2515 H 0.92776 0.49779 0.88649 0.0
H2516 H 0.92284 0.49194 0.86652 0.0
H2517 H 0.90471 0.44616 0.87124 0.0
H2518 H 0.90965 0.45189 0.89125 0.0
H2519 H 0.92257 0.43594 0.88157 0.0
H2520 H 0.0184 0.4872 0.88729 0.0
H2521 H 0.01825 0.49709 0.91438 0.0
H2522 H 0.9446 0.48598 0.90911 0.0
C2523 C 0.94661 0.46969 0.84863 0.0
C2524 C 0.96235 0.47035 0.83703 0.0
C2525 C 0.98586 0.47388 0.84096 0.0
C2526 C 0.99366 0.47704 0.8561 0.0
C2527 C 0.97777 0.47662 0.8672 0.0
C2528 C 0.95475 0.47309 0.86362 0.0
C2529 C 0.94172 0.47494 0.87746 0.0
C2530 C 0.93603 0.49566 0.87594 0.0
C2531 C 0.91828 0.45079 0.88056 0.0
C2532 C 0.96118 0.48056 0.88938 0.0
C2533 C 0.98172 0.48112 0.88332 0.0
C2534 C 1.00234 0.48663 0.89217 0.0
C2535 C 1.00207 0.49212 0.90753 0.0
C2536 C 0.98144 0.49233 0.91379 0.0
C2537 C 0.96066 0.48608 0.9046 0.0
H2538 H 0.52512 0.49353 0.83131 0.0
H2539 H 0.55079 0.44315 0.84061 0.0
H2540 H 0.53947 0.44202 0.86738 0.0
H2541 H 0.54526 0.52668 0.86692 0.0
H2542 H 0.51877 0.53052 0.86831 0.0
H2543 H 0.52998 0.52821 0.85004 0.0
H2544 H 0.4869 0.49247 0.84306 0.0
H2545 H 0.47559 0.4946 0.86132 0.0
H2546 H 0.47283 0.46643 0.85511 0.0
H2547 H 0.52329 0.44465 0.8928 0.0
H2548 H 0.5046 0.4518 0.91526 0.0
H2549 H 0.49016 0.5011 0.88952 0.0
C2550 C 0.52839 0.48229 0.83898 0.0
C2551 C 0.53892 0.46848 0.83387 0.0
C2552 C 0.5431 0.45416 0.8443 0.0
C2553 C 0.53659 0.45329 0.85951 0.0
C2554 C 0.52603 0.46693 0.86414 0.0
C2555 C 0.5221 0.48128 0.85421 0.0
C2556 C 0.51012 0.49389 0.86203 0.0
C2557 C 0.52705 0.52146 0.86181 0.0
C2558 C 0.48486 0.48639 0.85496 0.0
C2559 C 0.50759 0.4841 0.87785 0.0
C2560 C 0.51693 0.46862 0.87883 0.0
C2561 C 0.51616 0.45694 0.89221 0.0
C2562 C 0.50561 0.46124 0.90494 0.0
C2563 C 0.49601 0.47714 0.90424 0.0
C2564 C 0.49712 0.48869 0.89045 0.0
H2565 H 0.56007 0.09172 0.84805 0.0
H2566 H 0.50065 0.0242 0.8301 0.0
H2567 H 0.49067 0.00798 0.85588 0.0
H2568 H 0.58034 0.06459 0.87543 0.0
H2569 H 0.58827 0.08802 0.88939 0.0
H2570 H 0.58951 0.09491 0.86963 0.0
H2571 H 0.56009 0.11178 0.87412 0.0
H2572 H 0.55864 0.10479 0.8939 0.0
H2573 H 0.53074 0.09295 0.88287 0.0
H2574 H 0.48787 0.99849 0.88385 0.0
H2575 H 0.49448 0.9959 0.91121 0.0
H2576 H 0.55647 0.06896 0.9106 0.0
C2577 C 0.54502 0.07347 0.84945 0.0
C2578 C 0.53106 0.05942 0.83689 0.0
C2579 C 0.51135 0.03567 0.83945 0.0
C2580 C 0.50558 0.02619 0.85409 0.0
C2581 C 0.51971 0.04055 0.86616 0.0
C2582 C 0.53913 0.06364 0.86397 0.0
C2583 C 0.5522 0.07496 0.87874 0.0
C2584 C 0.57917 0.08096 0.87826 0.0
C2585 C 0.55029 0.09745 0.88263 0.0
C2586 C 0.5373 0.05454 0.88955 0.0
C2587 C 0.51845 0.03493 0.88213 0.0
C2588 C 0.50253 0.0138 0.88978 0.0
C2589 C 0.50631 0.01253 0.90533 0.0
C2590 C 0.526 0.03217 0.91305 0.0
C2591 C 0.54135 0.05355 0.90501 0.0
H2592 H 0.17189 0.28325 0.51217 0.0
H2593 H 0.09314 0.25466 0.50964 0.0
H2594 H 0.09749 0.27062 0.48377 0.0
H2595 H 0.18844 0.33836 0.4931 0.0
H2596 H 0.21423 0.33959 0.48339 0.0
H2597 H 0.20476 0.32461 0.5013 0.0
H2598 H 0.20025 0.28552 0.48928 0.0
H2599 H 0.20973 0.3004 0.47133 0.0
H2600 H 0.1809 0.27257 0.47284 0.0
H2601 H 0.1105 0.28998 0.45812 0.0
H2602 H 0.13145 0.31354 0.43541 0.0
H2603 H 0.20195 0.33099 0.45494 0.0
C2604 C 0.15556 0.28014 0.50608 0.0
C2605 C 0.13213 0.26759 0.51288 0.0
C2606 C 0.11125 0.26427 0.50466 0.0
C2607 C 0.11353 0.27318 0.48994 0.0
C2608 C 0.13688 0.2856 0.48359 0.0
C2609 C 0.15756 0.28924 0.49144 0.0
C2610 C 0.18065 0.30424 0.48231 0.0
C2611 C 0.19804 0.32812 0.49051 0.0
C2612 C 0.19364 0.28982 0.47873 0.0
C2613 C 0.16975 0.30857 0.46815 0.0
C2614 C 0.14445 0.29741 0.46904 0.0
C2615 C 0.13031 0.29878 0.45731 0.0
C2616 C 0.14236 0.31211 0.44442 0.0
C2617 C 0.16833 0.32416 0.44338 0.0
C2618 C 0.18209 0.32217 0.45543 0.0
H2619 H 0.69138 0.87553 0.51533 0.0
H2620 H 0.69879 0.81177 0.51913 0.0
H2621 H 0.68217 0.79927 0.49331 0.0
H2622 H 0.63441 0.84707 0.49455 0.0
H2623 H 0.6423 0.87281 0.48278 0.0
H2624 H 0.65524 0.87712 0.5015 0.0
H2625 H 0.69914 0.90092 0.49047 0.0
H2626 H 0.68633 0.89675 0.47173 0.0
H2627 H 0.70827 0.88718 0.47593 0.0
H2628 H 0.66509 0.79373 0.46712 0.0
H2629 H 0.64775 0.79509 0.44231 0.0
H2630 H 0.65081 0.8621 0.4554 0.0
C2631 C 0.68964 0.85903 0.51067 0.0
C2632 C 0.69627 0.84455 0.51927 0.0
C2633 C 0.69351 0.82296 0.51283 0.0
C2634 C 0.68421 0.81578 0.49815 0.0
C2635 C 0.67767 0.83033 0.49003 0.0
C2636 C 0.68019 0.85147 0.49603 0.0
C2637 C 0.6714 0.86357 0.48493 0.0
C2638 C 0.64953 0.86523 0.49133 0.0
C2639 C 0.69255 0.88859 0.4805 0.0
C2640 C 0.66353 0.8459 0.47178 0.0
C2641 C 0.66745 0.82693 0.47494 0.0
C2642 C 0.66193 0.80848 0.4645 0.0
C2643 C 0.65218 0.80945 0.45043 0.0
C2644 C 0.64791 0.82866 0.44694 0.0
C2645 C 0.65361 0.84705 0.45782 0.0
H2646 H 0.14532 0.8432 0.5157 0.0
H2647 H 0.12382 0.89618 0.50479 0.0
H2648 H 0.13523 0.89561 0.47815 0.0
H2649 H 0.19745 0.86591 0.49205 0.0
H2650 H 0.19256 0.83669 0.48639 0.0
H2651 H 0.18169 0.84045 0.50442 0.0
H2652 H 0.1376 0.80655 0.49754 0.0
H2653 H 0.14837 0.80258 0.4795 0.0
H2654 H 0.1233 0.8087 0.48038 0.0
H2655 H 0.15209 0.89158 0.45318 0.0
H2656 H 0.17043 0.88252 0.43137 0.0
H2657 H 0.17837 0.83 0.45815 0.0
C2658 C 0.1429 0.85457 0.50767 0.0
C2659 C 0.13369 0.86975 0.51229 0.0
C2660 C 0.13061 0.88425 0.50145 0.0
C2661 C 0.13715 0.88412 0.48632 0.0
C2662 C 0.14647 0.86917 0.48217 0.0
C2663 C 0.14904 0.85443 0.49249 0.0
C2664 C 0.15957 0.84012 0.48512 0.0
C2665 C 0.18428 0.84616 0.49243 0.0
C2666 C 0.1411 0.81287 0.48567 0.0
C2667 C 0.16299 0.84948 0.46912 0.0
C2668 C 0.15537 0.86625 0.46767 0.0
C2669 C 0.15771 0.87814 0.45412 0.0
C2670 C 0.16802 0.8727 0.44172 0.0
C2671 C 0.17571 0.85529 0.44284 0.0
C2672 C 0.17296 0.84354 0.45681 0.0
H2673 H 0.61416 0.80923 0.1843 0.0
H2674 H 0.67074 0.80447 0.15883 0.0
H2675 H 0.69478 0.8116 0.1821 0.0
H2676 H 0.65691 0.85873 0.20809 0.0
H2677 H 0.63777 0.84818 0.22459 0.0
H2678 H 0.62395 0.84114 0.20605 0.0
H2679 H 0.60151 0.79559 0.21243 0.0
H2680 H 0.61546 0.80248 0.23095 0.0
H2681 H 0.61914 0.78195 0.21864 0.0
H2682 H 0.71269 0.81862 0.20783 0.0
H2683 H 0.72572 0.82955 0.23427 0.0
H2684 H 0.6599 0.83371 0.24318 0.0
C2685 C 0.63166 0.80983 0.18354 0.0
C2686 C 0.64014 0.8057 0.16963 0.0
C2687 C 0.66324 0.80669 0.16932 0.0
C2688 C 0.67721 0.81091 0.18249 0.0
C2689 C 0.66815 0.81453 0.19596 0.0
C2690 C 0.64612 0.81442 0.19661 0.0
C2691 C 0.64136 0.82009 0.21251 0.0
C2692 C 0.63992 0.84342 0.21282 0.0
C2693 C 0.61798 0.79875 0.21901 0.0
C2694 C 0.66422 0.82346 0.22063 0.0
C2695 C 0.6792 0.81984 0.21085 0.0
C2696 C 0.70127 0.82177 0.21557 0.0
C2697 C 0.70857 0.82815 0.23062 0.0
C2698 C 0.6941 0.83293 0.24081 0.0
C2699 C 0.67136 0.8301 0.23574 0.0
H2700 H 0.17076 0.79326 0.17624 0.0
H2701 H 0.24166 0.85867 0.17285 0.0
H2702 H 0.23587 0.87159 0.1981 0.0
H2703 H 0.13981 0.81994 0.19417 0.0
H2704 H 0.12161 0.79466 0.20626 0.0
H2705 H 0.13196 0.78983 0.18833 0.0
H2706 H 0.15266 0.76852 0.20169 0.0
H2707 H 0.14228 0.77321 0.21967 0.0
H2708 H 0.1745 0.78396 0.21673 0.0
H2709 H 0.22159 0.87817 0.22338 0.0
H2710 H 0.19951 0.8782 0.24643 0.0
H2711 H 0.13824 0.80823 0.23349 0.0
C2712 C 0.18525 0.81011 0.18091 0.0
C2713 C 0.20667 0.82495 0.17254 0.0
C2714 C 0.22498 0.84711 0.17897 0.0
C2715 C 0.22193 0.85453 0.19335 0.0
C2716 C 0.20048 0.83961 0.20122 0.0
C2717 C 0.18246 0.81784 0.19524 0.0
C2718 C 0.16071 0.80562 0.20577 0.0
C2719 C 0.13714 0.80233 0.19818 0.0
C2720 C 0.15735 0.78139 0.21129 0.0
C2721 C 0.16915 0.82408 0.21849 0.0
C2722 C 0.19222 0.84346 0.21572 0.0
C2723 C 0.20359 0.86299 0.22572 0.0
C2724 C 0.19095 0.86279 0.23883 0.0
C2725 C 0.16712 0.84325 0.24181 0.0
C2726 C 0.15631 0.82358 0.2315 0.0
H2727 H 0.17911 0.36158 0.16392 0.0
H2728 H 0.23893 0.43264 0.17669 0.0
H2729 H 0.23492 0.41964 0.20314 0.0
H2730 H 0.14236 0.35392 0.19733 0.0
H2731 H 0.13129 0.32197 0.19841 0.0
H2732 H 0.13912 0.33676 0.18038 0.0
H2733 H 0.1692 0.32077 0.17561 0.0
H2734 H 0.16158 0.30604 0.19366 0.0
H2735 H 0.19316 0.32719 0.18923 0.0
H2736 H 0.22543 0.39838 0.22822 0.0
H2737 H 0.21011 0.37119 0.25001 0.0
H2738 H 0.15384 0.3153 0.22138 0.0
C2739 C 0.1912 0.37462 0.17225 0.0
C2740 C 0.20954 0.39816 0.16801 0.0
C2741 C 0.22511 0.41434 0.17942 0.0
C2742 C 0.22285 0.40719 0.19456 0.0
C2743 C 0.20471 0.38387 0.19827 0.0
C2744 C 0.18899 0.36791 0.18746 0.0
C2745 C 0.17087 0.34394 0.19446 0.0
C2746 C 0.14434 0.33886 0.19253 0.0
C2747 C 0.17389 0.32327 0.18785 0.0
C2748 C 0.17903 0.34886 0.21087 0.0
C2749 C 0.19863 0.37196 0.21281 0.0
C2750 C 0.20984 0.38035 0.22686 0.0
C2751 C 0.2008 0.36475 0.23925 0.0
C2752 C 0.1805 0.34097 0.23763 0.0
C2753 C 0.16951 0.33316 0.22315 0.0
H2754 H 0.84432 0.62948 0.84948 0.0
H2755 H 0.76528 0.59904 0.84757 0.0
H2756 H 0.7685 0.6135 0.82137 0.0
H2757 H 0.85876 0.6833 0.82946 0.0
H2758 H 0.88471 0.68498 0.8197 0.0
H2759 H 0.87604 0.67071 0.83785 0.0
H2760 H 0.87257 0.63168 0.82646 0.0
H2761 H 0.88125 0.64585 0.80826 0.0
H2762 H 0.85297 0.61761 0.81025 0.0
H2763 H 0.7804 0.63158 0.79534 0.0
H2764 H 0.80031 0.65448 0.77223 0.0
H2765 H 0.87185 0.67505 0.79142 0.0
C2766 C 0.82771 0.62564 0.84345 0.0
C2767 C 0.8045 0.61298 0.85049 0.0
C2768 C 0.78321 0.6087 0.84236 0.0
C2769 C 0.78486 0.61676 0.82747 0.0
C2770 C 0.808 0.62935 0.82086 0.0
C2771 C 0.82908 0.63396 0.82862 0.0
C2772 C 0.8518 0.64909 0.81922 0.0
C2773 C 0.86883 0.67347 0.82703 0.0
C2774 C 0.86545 0.63523 0.81585 0.0
C2775 C 0.84023 0.65238 0.80501 0.0
C2776 C 0.81492 0.64056 0.80611 0.0
C2777 C 0.80021 0.6409 0.79437 0.0
C2778 C 0.81167 0.65386 0.78125 0.0
C2779 C 0.83762 0.66661 0.78 0.0
C2780 C 0.85198 0.66566 0.79207 0.0
H2781 H 0.37535 0.20919 0.84692 0.0
H2782 H 0.398 0.15529 0.84522 0.0
H2783 H 0.38218 0.14467 0.81901 0.0
H2784 H 0.31871 0.17392 0.82656 0.0
H2785 H 0.32028 0.19934 0.81683 0.0
H2786 H 0.33453 0.20356 0.83513 0.0
H2787 H 0.37616 0.2361 0.82416 0.0
H2788 H 0.36201 0.232 0.80583 0.0
H2789 H 0.38875 0.22872 0.80806 0.0
H2790 H 0.36441 0.14039 0.79285 0.0
H2791 H 0.34335 0.14074 0.76925 0.0
H2792 H 0.33005 0.19573 0.78846 0.0
C2793 C 0.37714 0.19532 0.84094 0.0
C2794 C 0.38803 0.18314 0.84799 0.0
C2795 C 0.38969 0.16478 0.83997 0.0
C2796 C 0.38084 0.15871 0.82509 0.0
C2797 C 0.37009 0.17096 0.81846 0.0
C2798 C 0.36799 0.18873 0.82616 0.0
C2799 C 0.35467 0.19836 0.81668 0.0
C2800 C 0.33062 0.1935 0.82425 0.0
C2801 C 0.3714 0.2254 0.81349 0.0
C2802 C 0.34964 0.18328 0.80244 0.0
C2803 C 0.35893 0.16778 0.80364 0.0
C2804 C 0.35697 0.15238 0.79181 0.0
C2805 C 0.34507 0.15275 0.77845 0.0
C2806 C 0.335 0.16815 0.77709 0.0
C2807 C 0.33736 0.18359 0.78927 0.0
H2808 H 0.83856 0.19936 0.85416 0.0
H2809 H 0.77038 0.1978 0.84258 0.0
H2810 H 0.77621 0.19106 0.81593 0.0
H2811 H 0.8715 0.2332 0.82086 0.0
H2812 H 0.88861 0.21754 0.81912 0.0
H2813 H 0.87872 0.22162 0.83743 0.0
H2814 H 0.85669 0.1754 0.84163 0.0
H2815 H 0.86633 0.17115 0.8233 0.0
H2816 H 0.83416 0.15539 0.82803 0.0
H2817 H 0.78827 0.18202 0.79057 0.0
H2818 H 0.80713 0.17471 0.76838 0.0
H2819 H 0.87027 0.18809 0.79596 0.0
C2820 C 0.82496 0.19804 0.84609 0.0
C2821 C 0.80376 0.19881 0.85076 0.0
C2822 C 0.78642 0.19658 0.83959 0.0
C2823 C 0.78967 0.19297 0.82431 0.0
C2824 C 0.81062 0.19212 0.82021 0.0
C2825 C 0.82816 0.19498 0.83074 0.0
C2826 C 0.84932 0.1939 0.82332 0.0
C2827 C 0.87346 0.218 0.8253 0.0
C2828 C 0.85175 0.1727 0.82943 0.0
C2829 C 0.84074 0.18962 0.80699 0.0
C2830 C 0.81829 0.18845 0.80546 0.0
C2831 C 0.80611 0.1834 0.79159 0.0
C2832 C 0.81719 0.17949 0.77895 0.0
C2833 C 0.84052 0.18103 0.78013 0.0
C2834 C 0.85237 0.1864 0.79445 0.0
H2835 H 0.26541 0.14547 0.5157 0.0
H2836 H 0.33348 0.1556 0.49649 0.0
H2837 H 0.354 0.16996 0.52123 0.0
H2838 H 0.29292 0.1988 0.53848 0.0
H2839 H 0.27199 0.1854 0.55398 0.0
H2840 H 0.26212 0.17432 0.53503 0.0
H2841 H 0.25022 0.1311 0.54348 0.0
H2842 H 0.25999 0.14204 0.56247 0.0
H2843 H 0.27283 0.12605 0.55277 0.0
H2844 H 0.36762 0.18469 0.54785 0.0
H2845 H 0.37328 0.19877 0.57437 0.0
H2846 H 0.2967 0.18012 0.57604 0.0
C2847 C 0.28464 0.15072 0.51664 0.0
C2848 C 0.29773 0.14924 0.50408 0.0
C2849 C 0.32284 0.15609 0.50595 0.0
C2850 C 0.33475 0.16445 0.51995 0.0
C2851 C 0.32135 0.16593 0.53201 0.0
C2852 C 0.29685 0.15924 0.53051 0.0
C2853 C 0.28682 0.16321 0.54513 0.0
C2854 C 0.27795 0.18152 0.54302 0.0
C2855 C 0.26625 0.13917 0.55133 0.0
C2856 C 0.30961 0.17347 0.55504 0.0
C2857 C 0.32928 0.17473 0.54729 0.0
C2858 C 0.35232 0.18368 0.55405 0.0
C2859 C 0.35533 0.19156 0.56914 0.0
C2860 C 0.33546 0.19056 0.57729 0.0
C2861 C 0.31232 0.18136 0.57007 0.0
H2862 H 0.86163 0.16423 0.50153 0.0
H2863 H 0.89406 0.11948 0.51088 0.0
H2864 H 0.88288 0.11774 0.53772 0.0
H2865 H 0.88019 0.19828 0.53714 0.0
H2866 H 0.8521 0.19933 0.53864 0.0
H2867 H 0.86383 0.19809 0.52032 0.0
H2868 H 0.8223 0.16001 0.51356 0.0
H2869 H 0.81051 0.16105 0.53188 0.0
H2870 H 0.81039 0.13407 0.52568 0.0
H2871 H 0.86549 0.11833 0.56309 0.0
H2872 H 0.84495 0.12282 0.58549 0.0
H2873 H 0.82533 0.16871 0.55999 0.0
C2874 C 0.8665 0.15419 0.50925 0.0
C2875 C 0.87882 0.14207 0.50411 0.0
C2876 C 0.88497 0.12921 0.51459 0.0
C2877 C 0.87857 0.128 0.52984 0.0
C2878 C 0.86618 0.1399 0.53449 0.0
C2879 C 0.86041 0.15295 0.52455 0.0
C2880 C 0.8467 0.16377 0.53243 0.0
C2881 C 0.8616 0.19151 0.53211 0.0
C2882 C 0.82095 0.15414 0.52547 0.0
C2883 C 0.84526 0.15438 0.54827 0.0
C2884 C 0.85662 0.14066 0.54922 0.0
C2885 C 0.85687 0.12935 0.56255 0.0
C2886 C 0.84526 0.13216 0.57527 0.0
C2887 C 0.83363 0.14632 0.57466 0.0
C2888 C 0.83382 0.15761 0.56091 0.0
H2889 H 0.84085 0.69447 0.50063 0.0
H2890 H 0.89866 0.76681 0.51282 0.0
H2891 H 0.89576 0.75446 0.53934 0.0
H2892 H 0.80441 0.68518 0.53478 0.0
H2893 H 0.79511 0.65361 0.53589 0.0
H2894 H 0.80149 0.66821 0.5178 0.0
H2895 H 0.83326 0.65451 0.51243 0.0
H2896 H 0.82711 0.64002 0.53053 0.0
H2897 H 0.85809 0.66237 0.52565 0.0
H2898 H 0.88833 0.7337 0.5644 0.0
H2899 H 0.87556 0.7067 0.58628 0.0
H2900 H 0.81998 0.64871 0.55845 0.0
C2901 C 0.85266 0.70788 0.50887 0.0
C2902 C 0.87023 0.73162 0.50444 0.0
C2903 C 0.88546 0.74837 0.51571 0.0
C2904 C 0.88382 0.74159 0.53089 0.0
C2905 C 0.86662 0.71802 0.53479 0.0
C2906 C 0.85111 0.70148 0.52414 0.0
C2907 C 0.83428 0.67726 0.53136 0.0
C2908 C 0.80722 0.67068 0.52987 0.0
C2909 C 0.83844 0.65737 0.52458 0.0
C2910 C 0.84303 0.68269 0.54766 0.0
C2911 C 0.86172 0.7063 0.54937 0.0
C2912 C 0.87341 0.71527 0.56324 0.0
C2913 C 0.86582 0.69975 0.57569 0.0
C2914 C 0.84647 0.67544 0.57434 0.0
C2915 C 0.83493 0.66702 0.56003 0.0
loop_
_geom_bond_atom_site_label_1
_geom_bond_atom_site_label_2
_geom_bond_distance
_geom_bond_site_symmetry_2
_ccdc_geom_bond_type
C0 C1 1.386 . S
C0 C2 1.397 . S
C0 H24 0.931 . S
C1 C0 1.386 . S
C1 C5 1.397 . S
C2 C0 1.397 . S
C2 C3 1.384 . S
C2 H25 0.930 . S
C3 C2 1.384 . S
C3 C4 1.377 . S
C3 C6 1.481 . S
C4 C3 1.377 . S
C4 C5 1.389 . S
C4 H26 0.929 . S
C5 C1 1.397 . S
C5 C4 1.389 . S
C5 H27 0.931 . S
C6 C3 1.481 . S
C6 C7 1.387 . S
C6 C11 1.390 . S
C7 C6 1.387 . S
C7 C8 1.401 . S
C7 H28 0.930 . S
C8 C7 1.401 . S
C8 C9 1.376 . S
C8 C17 1.511 . S
C9 C8 1.376 . S
C9 C10 1.392 . S
C9 H30 0.931 . S
C10 C9 1.392 . S
C10 C11 1.361 . S
C10 C12 1.500 . S
C11 C6 1.390 . S
C11 C10 1.361 . S
C11 H29 0.931 . S
C12 C10 1.500 . S
C12 C13 1.371 . S
C12 C14 1.365 . S
C13 C12 1.371 . S
C13 C23 1.386 . S
C13 H31 0.931 . S
C14 C12 1.365 . S
C14 C15 1.409 . S
C14 H32 0.929 . S
C15 C14 1.409 . S
C15 C16 1.380 . S
C15 H33 0.930 . S
C16 C15 1.380 . S
C16 C23 1.357 . S
C17 C8 1.511 . S
C17 C18 1.341 . S
C17 C19 1.371 . S
C18 C17 1.341 . S
C18 C22 1.394 . S
C18 H34 0.930 . S
C19 C17 1.371 . S
C19 C20 1.392 . S
C19 H35 0.931 . S
C20 C19 1.392 . S
C20 C21 1.331 . S
C20 H38 0.932 . S
C21 C20 1.331 . S
C21 C22 1.336 . S
C22 C18 1.394 . S
C22 C21 1.336 . S
C22 H37 0.929 . S
C23 C13 1.386 . S
C23 C16 1.357 . S
C23 H36 0.928 . S
H24 C0 0.931 . S
H25 C2 0.930 . S
H26 C4 0.929 . S
H27 C5 0.931 . S
H28 C7 0.930 . S
H29 C11 0.931 . S
H30 C9 0.931 . S
H31 C13 0.931 . S
H32 C14 0.929 . S
H33 C15 0.930 . S
H34 C18 0.930 . S
H35 C19 0.931 . S
H36 C23 0.928 . S
H37 C22 0.929 . S
H38 C20 0.932 . S
C39 C40 1.386 . S
C39 C41 1.397 . S
C39 H63 0.931 . S
C40 C39 1.386 . S
C40 C44 1.397 . S
C41 C39 1.397 . S
C41 C42 1.384 . S
C41 H64 0.930 . S
C42 C41 1.384 . S
C42 C43 1.377 . S
C42 C45 1.481 . S
C43 C42 1.377 . S
C43 C44 1.389 . S
C43 H65 0.929 . S
C44 C40 1.397 . S
C44 C43 1.389 . S
C44 H66 0.931 . S
C45 C42 1.481 . S
C45 C46 1.387 . S
C45 C50 1.390 . S
C46 C45 1.387 . S
C46 C47 1.401 . S
C46 H67 0.930 . S
C47 C46 1.401 . S
C47 C48 1.376 . S
C47 C56 1.511 . S
C48 C47 1.376 . S
C48 C49 1.392 . S
C48 H69 0.931 . S
C49 C48 1.392 . S
C49 C50 1.361 . S
C49 C51 1.500 . S
C50 C45 1.390 . S
C50 C49 1.361 . S
C50 H68 0.931 . S
C51 C49 1.500 . S
C51 C52 1.371 . S
C51 C53 1.365 . S
C52 C51 1.371 . S
C52 C62 1.386 . S
C52 H70 0.931 . S
C53 C51 1.365 . S
C53 C54 1.409 . S
C53 H71 0.929 . S
C54 C53 1.409 . S
C54 C55 1.380 . S
C54 H72 0.930 . S
C55 C54 1.380 . S
C55 C62 1.357 . S
C56 C47 1.511 . S
C56 C57 1.341 . S
C56 C58 1.371 . S
C57 C56 1.341 . S
C57 C61 1.394 . S
C57 H73 0.930 . S
C58 C56 1.371 . S
C58 C59 1.392 . S
C58 H74 0.931 . S
C59 C58 1.392 . S
C59 C60 1.331 . S
C59 H77 0.932 . S
C60 C59 1.331 . S
C60 C61 1.336 . S
C61 C57 1.394 . S
C61 C60 1.336 . S
C61 H76 0.929 . S
C62 C52 1.386 . S
C62 C55 1.357 . S
C62 H75 0.928 . S
H63 C39 0.931 . S
H64 C41 0.930 . S
H65 C43 0.929 . S
H66 C44 0.931 . S
H67 C46 0.930 . S
H68 C50 0.931 . S
H69 C48 0.931 . S
H70 C52 0.931 . S
H71 C53 0.929 . S
H72 C54 0.930 . S
H73 C57 0.930 . S
H74 C58 0.931 . S
H75 C62 0.928 . S
H76 C61 0.929 . S
H77 C59 0.932 . S
C78 C79 1.386 . S
C78 C80 1.397 . S
C78 H102 0.931 . S
C79 C78 1.386 . S
C79 C83 1.397 . S
C80 C78 1.397 . S
C80 C81 1.384 . S
C80 H103 0.930 . S
C81 C80 1.384 . S
C81 C82 1.377 . S
C81 C84 1.481 . S
C82 C81 1.377 . S
C82 C83 1.389 . S
C82 H104 0.929 . S
C83 C79 1.397 . S
C83 C82 1.389 . S
C83 H105 0.931 . S
C84 C81 1.481 . S
C84 C85 1.387 . S
C84 C89 1.390 . S
C85 C84 1.387 . S
C85 C86 1.401 . S
C85 H106 0.930 . S
C86 C85 1.401 . S
C86 C87 1.376 . S
C86 C95 1.511 . S
C87 C86 1.376 . S
C87 C88 1.392 . S
C87 H108 0.931 . S
C88 C87 1.392 . S
C88 C89 1.361 . S
C88 C90 1.500 . S
C89 C84 1.390 . S
C89 C88 1.361 . S
C89 H107 0.931 . S
C90 C88 1.500 . S
C90 C91 1.371 . S
C90 C92 1.365 . S
C91 C90 1.371 . S
C91 C101 1.386 . S
C91 H109 0.931 . S
C92 C90 1.365 . S
C92 C93 1.409 . S
C92 H110 0.929 . S
C93 C92 1.409 . S
C93 C94 1.380 . S
C93 H111 0.930 . S
C94 C93 1.380 . S
C94 C101 1.357 . S
C95 C86 1.511 . S
C95 C96 1.341 . S
C95 C97 1.371 . S
C96 C95 1.341 . S
C96 C100 1.394 . S
C96 H112 0.930 . S
C97 C95 1.371 . S
C97 C98 1.392 . S
C97 H113 0.931 . S
C98 C97 1.392 . S
C98 C99 1.331 . S
C98 H116 0.932 . S
C99 C98 1.331 . S
C99 C100 1.336 . S
C100 C96 1.394 . S
C100 C99 1.336 . S
C100 H115 0.929 . S
C101 C91 1.386 . S
C101 C94 1.357 . S
C101 H114 0.928 . S
H102 C78 0.931 . S
H103 C80 0.930 . S
H104 C82 0.929 . S
H105 C83 0.931 . S
H106 C85 0.930 . S
H107 C89 0.931 . S
H108 C87 0.931 . S
H109 C91 0.931 . S
H110 C92 0.929 . S
H111 C93 0.930 . S
H112 C96 0.930 . S
H113 C97 0.931 . S
H114 C101 0.928 . S
H115 C100 0.929 . S
H116 C98 0.932 . S
C117 C118 1.386 . S
C117 C119 1.397 . S
C117 H141 0.931 . S
C118 C117 1.386 . S
C118 C122 1.397 . S
C119 C117 1.397 . S
C119 C120 1.384 . S
C119 H142 0.930 . S
C120 C119 1.384 . S
C120 C121 1.377 . S
C120 C123 1.481 . S
C121 C120 1.377 . S
C121 C122 1.389 . S
C121 H143 0.929 . S
C122 C118 1.397 . S
C122 C121 1.389 . S
C122 H144 0.931 . S
C123 C120 1.481 . S
C123 C124 1.387 . S
C123 C128 1.390 . S
C124 C123 1.387 . S
C124 C125 1.401 . S
C124 H145 0.930 . S
C125 C124 1.401 . S
C125 C126 1.376 . S
C125 C134 1.511 . S
C126 C125 1.376 . S
C126 C127 1.392 . S
C126 H147 0.931 . S
C127 C126 1.392 . S
C127 C128 1.361 . S
C127 C129 1.500 . S
C128 C123 1.390 . S
C128 C127 1.361 . S
C128 H146 0.931 . S
C129 C127 1.500 . S
C129 C130 1.371 . S
C129 C131 1.365 . S
C130 C129 1.371 . S
C130 C140 1.386 . S
C130 H148 0.931 . S
C131 C129 1.365 . S
C131 C132 1.409 . S
C131 H149 0.929 . S
C132 C131 1.409 . S
C132 C133 1.380 . S
C132 H150 0.930 . S
C133 C132 1.380 . S
C133 C140 1.357 . S
C134 C125 1.511 . S
C134 C135 1.341 . S
C134 C136 1.371 . S
C135 C134 1.341 . S
C135 C139 1.394 . S
C135 H151 0.930 . S
C136 C134 1.371 . S
C136 C137 1.392 . S
C136 H152 0.931 . S
C137 C136 1.392 . S
C137 C138 1.331 . S
C137 H155 0.932 . S
C138 C137 1.331 . S
C138 C139 1.336 . S
C139 C135 1.394 . S
C139 C138 1.336 . S
C139 H154 0.929 . S
C140 C130 1.386 . S
C140 C133 1.357 . S
C140 H153 0.928 . S
H141 C117 0.931 . S
H142 C119 0.930 . S
H143 C121 0.929 . S
H144 C122 0.931 . S
H145 C124 0.930 . S
H146 C128 0.931 . S
H147 C126 0.931 . S
H148 C130 0.931 . S
H149 C131 0.929 . S
H150 C132 0.930 . S
H151 C135 0.930 . S
H152 C136 0.931 . S
H153 C140 0.928 . S
H154 C139 0.929 . S
H155 C137 0.932 . S
C156 C157 1.386 . S
C156 C158 1.397 . S
C156 H180 0.931 . S
C157 C156 1.386 . S
C157 C161 1.397 . S
C158 C156 1.397 . S
C158 C159 1.384 . S
C158 H181 0.930 . S
C159 C158 1.384 . S
C159 C160 1.377 . S
C159 C162 1.481 . S
C160 C159 1.377 . S
C160 C161 1.389 . S
C160 H182 0.929 . S
C161 C157 1.397 . S
C161 C160 1.389 . S
C161 H183 0.931 . S
C162 C159 1.481 . S
C162 C163 1.387 . S
C162 C167 1.390 . S
C163 C162 1.387 . S
C163 C164 1.401 . S
C163 H184 0.930 . S
C164 C163 1.401 . S
C164 C165 1.376 . S
C164 C173 1.511 . S
C165 C164 1.376 . S
C165 C166 1.392 . S
C165 H186 0.931 . S
C166 C165 1.392 . S
C166 C167 1.361 . S
C166 C168 1.500 . S
C167 C162 1.390 . S
C167 C166 1.361 . S
C167 H185 0.931 . S
C168 C166 1.500 . S
C168 C169 1.371 . S
C168 C170 1.365 . S
C169 C168 1.371 . S
C169 C179 1.386 . S
C169 H187 0.931 . S
C170 C168 1.365 . S
C170 C171 1.409 . S
C170 H188 0.929 . S
C171 C170 1.409 . S
C171 C172 1.380 . S
C171 H189 0.930 . S
C172 C171 1.380 . S
C172 C179 1.357 . S
C173 C164 1.511 . S
C173 C174 1.341 . S
C173 C175 1.371 . S
C174 C173 1.341 . S
C174 C178 1.394 . S
C174 H190 0.930 . S
C175 C173 1.371 . S
C175 C176 1.392 . S
C175 H191 0.931 . S
C176 C175 1.392 . S
C176 C177 1.331 . S
C176 H194 0.932 . S
C177 C176 1.331 . S
C177 C178 1.336 . S
C178 C174 1.394 . S
C178 C177 1.336 . S
C178 H193 0.929 . S
C179 C169 1.386 . S
C179 C172 1.357 . S
C179 H192 0.928 . S
H180 C156 0.931 . S
H181 C158 0.930 . S
H182 C160 0.929 . S
H183 C161 0.931 . S
H184 C163 0.930 . S
H185 C167 0.931 . S
H186 C165 0.931 . S
H187 C169 0.931 . S
H188 C170 0.929 . S
H189 C171 0.930 . S
H190 C174 0.930 . S
H191 C175 0.931 . S
H192 C179 0.928 . S
H193 C178 0.929 . S
H194 C176 0.932 . S
C195 C196 1.386 . S
C195 C197 1.397 . S
C195 H219 0.931 . S
C196 C195 1.386 . S
C196 C200 1.397 . S
C197 C195 1.397 . S
C197 C198 1.384 . S
C197 H220 0.930 . S
C198 C197 1.384 . S
C198 C199 1.377 . S
C198 C201 1.481 . S
C199 C198 1.377 . S
C199 C200 1.389 . S
C199 H221 0.929 . S
C200 C196 1.397 . S
C200 C199 1.389 . S
C200 H222 0.931 . S
C201 C198 1.481 . S
C201 C202 1.387 . S
C201 C206 1.390 . S
C202 C201 1.387 . S
C202 C203 1.401 . S
C202 H223 0.930 . S
C203 C202 1.401 . S
C203 C204 1.376 . S
C203 C212 1.511 . S
C204 C203 1.376 . S
C204 C205 1.392 . S
C204 H225 0.931 . S
C205 C204 1.392 . S
C205 C206 1.361 . S
C205 C207 1.500 . S
C206 C201 1.390 . S
C206 C205 1.361 . S
C206 H224 0.931 . S
C207 C205 1.500 . S
C207 C208 1.371 . S
C207 C209 1.365 . S
C208 C207 1.371 . S
C208 C218 1.386 . S
C208 H226 0.931 . S
C209 C207 1.365 . S
C209 C210 1.409 . S
C209 H227 0.929 . S
C210 C209 1.409 . S
C210 C211 1.380 . S
C210 H228 0.930 . S
C211 C210 1.380 . S
C211 C218 1.357 . S
C212 C203 1.511 . S
C212 C213 1.341 . S
C212 C214 1.371 . S
C213 C212 1.341 . S
C213 C217 1.394 . S
C213 H229 0.930 . S
C214 C212 1.371 . S
C214 C215 1.392 . S
C214 H230 0.931 . S
C215 C214 1.392 . S
C215 C216 1.331 . S
C215 H233 0.932 . S
C216 C215 1.331 . S
C216 C217 1.336 . S
C217 C213 1.394 . S
C217 C216 1.336 . S
C217 H232 0.929 . S
C218 C208 1.386 . S
C218 C211 1.357 . S
C218 H231 0.928 . S
H219 C195 0.931 . S
H220 C197 0.930 . S
H221 C199 0.929 . S
H222 C200 0.931 . S
H223 C202 0.930 . S
H224 C206 0.931 . S
H225 C204 0.931 . S
H226 C208 0.931 . S
H227 C209 0.929 . S
H228 C210 0.930 . S
H229 C213 0.930 . S
H230 C214 0.931 . S
H231 C218 0.928 . S
H232 C217 0.929 . S
H233 C215 0.932 . S
C234 C235 1.386 . S
C234 C236 1.397 . S
C234 H258 0.931 . S
C235 C234 1.386 . S
C235 C239 1.397 . S
C236 C234 1.397 . S
C236 C237 1.384 . S
C236 H259 0.930 . S
C237 C236 1.384 . S
C237 C238 1.377 . S
C237 C240 1.481 . S
C238 C237 1.377 . S
C238 C239 1.389 . S
C238 H260 0.929 . S
C239 C235 1.397 . S
C239 C238 1.389 . S
C239 H261 0.931 . S
C240 C237 1.481 . S
C240 C241 1.387 . S
C240 C245 1.390 . S
C241 C240 1.387 . S
C241 C242 1.401 . S
C241 H262 0.930 . S
C242 C241 1.401 . S
C242 C243 1.376 . S
C242 C251 1.511 . S
C243 C242 1.376 . S
C243 C244 1.392 . S
C243 H264 0.931 . S
C244 C243 1.392 . S
C244 C245 1.361 . S
C244 C246 1.500 . S
C245 C240 1.390 . S
C245 C244 1.361 . S
C245 H263 0.931 . S
C246 C244 1.500 . S
C246 C247 1.371 . S
C246 C248 1.365 . S
C247 C246 1.371 . S
C247 C257 1.386 . S
C247 H265 0.931 . S
C248 C246 1.365 . S
C248 C249 1.409 . S
C248 H266 0.929 . S
C249 C248 1.409 . S
C249 C250 1.380 . S
C249 H267 0.930 . S
C250 C249 1.380 . S
C250 C257 1.357 . S
C251 C242 1.511 . S
C251 C252 1.341 . S
C251 C253 1.371 . S
C252 C251 1.341 . S
C252 C256 1.394 . S
C252 H268 0.930 . S
C253 C251 1.371 . S
C253 C254 1.392 . S
C253 H269 0.931 . S
C254 C253 1.392 . S
C254 C255 1.331 . S
C254 H272 0.932 . S
C255 C254 1.331 . S
C255 C256 1.336 . S
C256 C252 1.394 . S
C256 C255 1.336 . S
C256 H271 0.929 . S
C257 C247 1.386 . S
C257 C250 1.357 . S
C257 H270 0.928 . S
H258 C234 0.931 . S
H259 C236 0.930 . S
H260 C238 0.929 . S
H261 C239 0.931 . S
H262 C241 0.930 . S
H263 C245 0.931 . S
H264 C243 0.931 . S
H265 C247 0.931 . S
H266 C248 0.929 . S
H267 C249 0.930 . S
H268 C252 0.930 . S
H269 C253 0.931 . S
H270 C257 0.928 . S
H271 C256 0.929 . S
H272 C254 0.932 . S
C273 C274 1.386 . S
C273 C275 1.397 . S
C273 H297 0.931 . S
C274 C273 1.386 . S
C274 C278 1.397 . S
C275 C273 1.397 . S
C275 C276 1.384 . S
C275 H298 0.930 . S
C276 C275 1.384 . S
C276 C277 1.377 . S
C276 C279 1.481 . S
C277 C276 1.377 . S
C277 C278 1.389 . S
C277 H299 0.929 . S
C278 C274 1.397 . S
C278 C277 1.389 . S
C278 H300 0.931 . S
C279 C276 1.481 . S
C279 C280 1.387 . S
C279 C284 1.390 . S
C280 C279 1.387 . S
C280 C281 1.401 . S
C280 H301 0.930 . S
C281 C280 1.401 . S
C281 C282 1.376 . S
C281 C290 1.511 . S
C282 C281 1.376 . S
C282 C283 1.392 . S
C282 H303 0.931 . S
C283 C282 1.392 . S
C283 C284 1.361 . S
C283 C285 1.500 . S
C284 C279 1.390 . S
C284 C283 1.361 . S
C284 H302 0.931 . S
C285 C283 1.500 . S
C285 C286 1.371 . S
C285 C287 1.365 . S
C286 C285 1.371 . S
C286 C296 1.386 . S
C286 H304 0.931 . S
C287 C285 1.365 . S
C287 C288 1.409 . S
C287 H305 0.929 . S
C288 C287 1.409 . S
C288 C289 1.380 . S
C288 H306 0.930 . S
C289 C288 1.380 . S
C289 C296 1.357 . S
C290 C281 1.511 . S
C290 C291 1.341 . S
C290 C292 1.371 . S
C291 C290 1.341 . S
C291 C295 1.394 . S
C291 H307 0.930 . S
C292 C290 1.371 . S
C292 C293 1.392 . S
C292 H308 0.931 . S
C293 C292 1.392 . S
C293 C294 1.331 . S
C293 H311 0.932 . S
C294 C293 1.331 . S
C294 C295 1.336 . S
C295 C291 1.394 . S
C295 C294 1.336 . S
C295 H310 0.929 . S
C296 C286 1.386 . S
C296 C289 1.357 . S
C296 H309 0.928 . S
H297 C273 0.931 . S
H298 C275 0.930 . S
H299 C277 0.929 . S
H300 C278 0.931 . S
H301 C280 0.930 . S
H302 C284 0.931 . S
H303 C282 0.931 . S
H304 C286 0.931 . S
H305 C287 0.929 . S
H306 C288 0.930 . S
H307 C291 0.930 . S
H308 C292 0.931 . S
H309 C296 0.928 . S
H310 C295 0.929 . S
H311 C293 0.932 . S
C312 C313 1.386 . S
C312 C314 1.397 . S
C312 H336 0.931 . S
C313 C312 1.386 . S
C313 C317 1.397 . S
C314 C312 1.397 . S
C314 C315 1.384 . S
C314 H337 0.930 . S
C315 C314 1.384 . S
C315 C316 1.377 . S
C315 C318 1.481 . S
C316 C315 1.377 . S
C316 C317 1.389 . S
C316 H338 0.929 . S
C317 C313 1.397 . S
C317 C316 1.389 . S
C317 H339 0.931 . S
C318 C315 1.481 . S
C318 C319 1.387 . S
C318 C323 1.390 . S
C319 C318 1.387 . S
C319 C320 1.401 . S
C319 H340 0.930 . S
C320 C319 1.401 . S
C320 C321 1.376 . S
C320 C329 1.511 . S
C321 C320 1.376 . S
C321 C322 1.392 . S
C321 H342 0.931 . S
C322 C321 1.392 . S
C322 C323 1.361 . S
C322 C324 1.500 . S
C323 C318 1.390 . S
C323 C322 1.361 . S
C323 H341 0.931 . S
C324 C322 1.500 . S
C324 C325 1.371 . S
C324 C326 1.365 . S
C325 C324 1.371 . S
C325 C335 1.386 . S
C325 H343 0.931 . S
C326 C324 1.365 . S
C326 C327 1.409 . S
C326 H344 0.929 . S
C327 C326 1.409 . S
C327 C328 1.380 . S
C327 H345 0.930 . S
C328 C327 1.380 . S
C328 C335 1.357 . S
C329 C320 1.511 . S
C329 C330 1.341 . S
C329 C331 1.371 . S
C330 C329 1.341 . S
C330 C334 1.394 . S
C330 H346 0.930 . S
C331 C329 1.371 . S
C331 C332 1.392 . S
C331 H347 0.931 . S
C332 C331 1.392 . S
C332 C333 1.331 . S
C332 H350 0.932 . S
C333 C332 1.331 . S
C333 C334 1.336 . S
C334 C330 1.394 . S
C334 C333 1.336 . S
C334 H349 0.929 . S
C335 C325 1.386 . S
C335 C328 1.357 . S
C335 H348 0.928 . S
H336 C312 0.931 . S
H337 C314 0.930 . S
H338 C316 0.929 . S
H339 C317 0.931 . S
H340 C319 0.930 . S
H341 C323 0.931 . S
H342 C321 0.931 . S
H343 C325 0.931 . S
H344 C326 0.929 . S
H345 C327 0.930 . S
H346 C330 0.930 . S
H347 C331 0.931 . S
H348 C335 0.928 . S
H349 C334 0.929 . S
H350 C332 0.932 . S
C351 C352 1.386 . S
C351 C353 1.397 . S
C351 H375 0.931 . S
C352 C351 1.386 . S
C352 C356 1.397 . S
C353 C351 1.397 . S
C353 C354 1.384 . S
C353 H376 0.930 . S
C354 C353 1.384 . S
C354 C355 1.377 . S
C354 C357 1.481 . S
C355 C354 1.377 . S
C355 C356 1.389 . S
C355 H377 0.929 . S
C356 C352 1.397 . S
C356 C355 1.389 . S
C356 H378 0.931 . S
C357 C354 1.481 . S
C357 C358 1.387 . S
C357 C362 1.390 . S
C358 C357 1.387 . S
C358 C359 1.401 . S
C358 H379 0.930 . S
C359 C358 1.401 . S
C359 C360 1.376 . S
C359 C368 1.511 . S
C360 C359 1.376 . S
C360 C361 1.392 . S
C360 H381 0.931 . S
C361 C360 1.392 . S
C361 C362 1.361 . S
C361 C363 1.500 . S
C362 C357 1.390 . S
C362 C361 1.361 . S
C362 H380 0.931 . S
C363 C361 1.500 . S
C363 C364 1.371 . S
C363 C365 1.365 . S
C364 C363 1.371 . S
C364 C374 1.386 . S
C364 H382 0.931 . S
C365 C363 1.365 . S
C365 C366 1.409 . S
C365 H383 0.929 . S
C366 C365 1.409 . S
C366 C367 1.380 . S
C366 H384 0.930 . S
C367 C366 1.380 . S
C367 C374 1.357 . S
C368 C359 1.511 . S
C368 C369 1.341 . S
C368 C370 1.371 . S
C369 C368 1.341 . S
C369 C373 1.394 . S
C369 H385 0.930 . S
C370 C368 1.371 . S
C370 C371 1.392 . S
C370 H386 0.931 . S
C371 C370 1.392 . S
C371 C372 1.331 . S
C371 H389 0.932 . S
C372 C371 1.331 . S
C372 C373 1.336 . S
C373 C369 1.394 . S
C373 C372 1.336 . S
C373 H388 0.929 . S
C374 C364 1.386 . S
C374 C367 1.357 . S
C374 H387 0.928 . S
H375 C351 0.931 . S
H376 C353 0.930 . S
H377 C355 0.929 . S
H378 C356 0.931 . S
H379 C358 0.930 . S
H380 C362 0.931 . S
H381 C360 0.931 . S
H382 C364 0.931 . S
H383 C365 0.929 . S
H384 C366 0.930 . S
H385 C369 0.930 . S
H386 C370 0.931 . S
H387 C374 0.928 . S
H388 C373 0.929 . S
H389 C371 0.932 . S
C390 C391 1.386 . S
C390 C392 1.397 . S
C390 H414 0.931 . S
C391 C390 1.386 . S
C391 C395 1.397 . S
C392 C390 1.397 . S
C392 C393 1.384 . S
C392 H415 0.930 . S
C393 C392 1.384 . S
C393 C394 1.377 . S
C393 C396 1.481 . S
C394 C393 1.377 . S
C394 C395 1.389 . S
C394 H416 0.929 . S
C395 C391 1.397 . S
C395 C394 1.389 . S
C395 H417 0.931 . S
C396 C393 1.481 . S
C396 C397 1.387 . S
C396 C401 1.390 . S
C397 C396 1.387 . S
C397 C398 1.401 . S
C397 H418 0.930 . S
C398 C397 1.401 . S
C398 C399 1.376 . S
C398 C407 1.511 . S
C399 C398 1.376 . S
C399 C400 1.392 . S
C399 H420 0.931 . S
C400 C399 1.392 . S
C400 C401 1.361 . S
C400 C402 1.500 . S
C401 C396 1.390 . S
C401 C400 1.361 . S
C401 H419 0.931 . S
C402 C400 1.500 . S
C402 C403 1.371 . S
C402 C404 1.365 . S
C403 C402 1.371 . S
C403 C413 1.386 . S
C403 H421 0.931 . S
C404 C402 1.365 . S
C404 C405 1.409 . S
C404 H422 0.929 . S
C405 C404 1.409 . S
C405 C406 1.380 . S
C405 H423 0.930 . S
C406 C405 1.380 . S
C406 C413 1.357 . S
C407 C398 1.511 . S
C407 C408 1.341 . S
C407 C409 1.371 . S
C408 C407 1.341 . S
C408 C412 1.394 . S
C408 H424 0.930 . S
C409 C407 1.371 . S
C409 C410 1.392 . S
C409 H425 0.931 . S
C410 C409 1.392 . S
C410 C411 1.331 . S
C410 H428 0.932 . S
C411 C410 1.331 . S
C411 C412 1.336 . S
C412 C408 1.394 . S
C412 C411 1.336 . S
C412 H427 0.929 . S
C413 C403 1.386 . S
C413 C406 1.357 . S
C413 H426 0.928 . S
H414 C390 0.931 . S
H415 C392 0.930 . S
H416 C394 0.929 . S
H417 C395 0.931 . S
H418 C397 0.930 . S
H419 C401 0.931 . S
H420 C399 0.931 . S
H421 C403 0.931 . S
H422 C404 0.929 . S
H423 C405 0.930 . S
H424 C408 0.930 . S
H425 C409 0.931 . S
H426 C413 0.928 . S
H427 C412 0.929 . S
H428 C410 0.932 . S
C429 C430 1.386 . S
C429 C431 1.397 . S
C429 H453 0.931 . S
C430 C429 1.386 . S
C430 C434 1.397 . S
C431 C429 1.397 . S
C431 C432 1.384 . S
C431 H454 0.930 . S
C432 C431 1.384 . S
C432 C433 1.377 . S
C432 C435 1.481 . S
C433 C432 1.377 . S
C433 C434 1.389 . S
C433 H455 0.929 . S
C434 C430 1.397 . S
C434 C433 1.389 . S
C434 H456 0.931 . S
C435 C432 1.481 . S
C435 C436 1.387 . S
C435 C440 1.390 . S
C436 C435 1.387 . S
C436 C437 1.401 . S
C436 H457 0.930 . S
C437 C436 1.401 . S
C437 C438 1.376 . S
C437 C446 1.511 . S
C438 C437 1.376 . S
C438 C439 1.392 . S
C438 H459 0.931 . S
C439 C438 1.392 . S
C439 C440 1.361 . S
C439 C441 1.500 . S
C440 C435 1.390 . S
C440 C439 1.361 . S
C440 H458 0.931 . S
C441 C439 1.500 . S
C441 C442 1.371 . S
C441 C443 1.365 . S
C442 C441 1.371 . S
C442 C452 1.386 . S
C442 H460 0.931 . S
C443 C441 1.365 . S
C443 C444 1.409 . S
C443 H461 0.929 . S
C444 C443 1.409 . S
C444 C445 1.380 . S
C444 H462 0.930 . S
C445 C444 1.380 . S
C445 C452 1.357 . S
C446 C437 1.511 . S
C446 C447 1.341 . S
C446 C448 1.371 . S
C447 C446 1.341 . S
C447 C451 1.394 . S
C447 H463 0.930 . S
C448 C446 1.371 . S
C448 C449 1.392 . S
C448 H464 0.931 . S
C449 C448 1.392 . S
C449 C450 1.331 . S
C449 H467 0.932 . S
C450 C449 1.331 . S
C450 C451 1.336 . S
C451 C447 1.394 . S
C451 C450 1.336 . S
C451 H466 0.929 . S
C452 C442 1.386 . S
C452 C445 1.357 . S
C452 H465 0.928 . S
H453 C429 0.931 . S
H454 C431 0.930 . S
H455 C433 0.929 . S
H456 C434 0.931 . S
H457 C436 0.930 . S
H458 C440 0.931 . S
H459 C438 0.931 . S
H460 C442 0.931 . S
H461 C443 0.929 . S
H462 C444 0.930 . S
H463 C447 0.930 . S
H464 C448 0.931 . S
H465 C452 0.928 . S
H466 C451 0.929 . S
H467 C449 0.932 . S
C468 C469 1.386 . S
C468 C470 1.397 . S
C468 H492 0.931 . S
C469 C468 1.386 . S
C469 C473 1.397 . S
C470 C468 1.397 . S
C470 C471 1.384 . S
C470 H493 0.930 . S
C471 C470 1.384 . S
C471 C472 1.377 . S
C471 C474 1.481 . S
C472 C471 1.377 . S
C472 C473 1.389 . S
C472 H494 0.929 . S
C473 C469 1.397 . S
C473 C472 1.389 . S
C473 H495 0.931 . S
C474 C471 1.481 . S
C474 C475 1.387 . S
C474 C479 1.390 . S
C475 C474 1.387 . S
C475 C476 1.401 . S
C475 H496 0.930 . S
C476 C475 1.401 . S
C476 C477 1.376 . S
C476 C485 1.511 . S
C477 C476 1.376 . S
C477 C478 1.392 . S
C477 H498 0.931 . S
C478 C477 1.392 . S
C478 C479 1.361 . S
C478 C480 1.500 . S
C479 C474 1.390 . S
C479 C478 1.361 . S
C479 H497 0.931 . S
C480 C478 1.500 . S
C480 C481 1.371 . S
C480 C482 1.365 . S
C481 C480 1.371 . S
C481 C491 1.386 . S
C481 H499 0.931 . S
C482 C480 1.365 . S
C482 C483 1.409 . S
C482 H500 0.929 . S
C483 C482 1.409 . S
C483 C484 1.380 . S
C483 H501 0.930 . S
C484 C483 1.380 . S
C484 C491 1.357 . S
C485 C476 1.511 . S
C485 C486 1.341 . S
C485 C487 1.371 . S
C486 C485 1.341 . S
C486 C490 1.394 . S
C486 H502 0.930 . S
C487 C485 1.371 . S
C487 C488 1.392 . S
C487 H503 0.931 . S
C488 C487 1.392 . S
C488 C489 1.331 . S
C488 H506 0.932 . S
C489 C488 1.331 . S
C489 C490 1.336 . S
C490 C486 1.394 . S
C490 C489 1.336 . S
C490 H505 0.929 . S
C491 C481 1.386 . S
C491 C484 1.357 . S
C491 H504 0.928 . S
H492 C468 0.931 . S
H493 C470 0.930 . S
H494 C472 0.929 . S
H495 C473 0.931 . S
H496 C475 0.930 . S
H497 C479 0.931 . S
H498 C477 0.931 . S
H499 C481 0.931 . S
H500 C482 0.929 . S
H501 C483 0.930 . S
H502 C486 0.930 . S
H503 C487 0.931 . S
H504 C491 0.928 . S
H505 C490 0.929 . S
H506 C488 0.932 . S
C507 C508 1.386 . S
C507 C509 1.397 . S
C507 H531 0.931 . S
C508 C507 1.386 . S
C508 C512 1.397 . S
C509 C507 1.397 . S
C509 C510 1.384 . S
C509 H532 0.930 . S
C510 C509 1.384 . S
C510 C511 1.377 . S
C510 C513 1.481 . S
C511 C510 1.377 . S
C511 C512 1.389 . S
C511 H533 0.929 . S
C512 C508 1.397 . S
C512 C511 1.389 . S
C512 H534 0.931 . S
C513 C510 1.481 . S
C513 C514 1.387 . S
C513 C518 1.390 . S
C514 C513 1.387 . S
C514 C515 1.401 . S
C514 H535 0.930 . S
C515 C514 1.401 . S
C515 C516 1.376 . S
C515 C524 1.511 . S
C516 C515 1.376 . S
C516 C517 1.392 . S
C516 H537 0.931 . S
C517 C516 1.392 . S
C517 C518 1.361 . S
C517 C519 1.500 . S
C518 C513 1.390 . S
C518 C517 1.361 . S
C518 H536 0.931 . S
C519 C517 1.500 . S
C519 C520 1.371 . S
C519 C521 1.365 . S
C520 C519 1.371 . S
C520 C530 1.386 . S
C520 H538 0.931 . S
C521 C519 1.365 . S
C521 C522 1.409 . S
C521 H539 0.929 . S
C522 C521 1.409 . S
C522 C523 1.380 . S
C522 H540 0.930 . S
C523 C522 1.380 . S
C523 C530 1.357 . S
C524 C515 1.511 . S
C524 C525 1.341 . S
C524 C526 1.371 . S
C525 C524 1.341 . S
C525 C529 1.394 . S
C525 H541 0.930 . S
C526 C524 1.371 . S
C526 C527 1.392 . S
C526 H542 0.931 . S
C527 C526 1.392 . S
C527 C528 1.331 . S
C527 H545 0.932 . S
C528 C527 1.331 . S
C528 C529 1.336 . S
C529 C525 1.394 . S
C529 C528 1.336 . S
C529 H544 0.929 . S
C530 C520 1.386 . S
C530 C523 1.357 . S
C530 H543 0.928 . S
H531 C507 0.931 . S
H532 C509 0.930 . S
H533 C511 0.929 . S
H534 C512 0.931 . S
H535 C514 0.930 . S
H536 C518 0.931 . S
H537 C516 0.931 . S
H538 C520 0.931 . S
H539 C521 0.929 . S
H540 C522 0.930 . S
H541 C525 0.930 . S
H542 C526 0.931 . S
H543 C530 0.928 . S
H544 C529 0.929 . S
H545 C527 0.932 . S
C546 C547 1.386 . S
C546 C548 1.397 . S
C546 H570 0.931 . S
C547 C546 1.386 . S
C547 C551 1.397 . S
C548 C546 1.397 . S
C548 C549 1.384 . S
C548 H571 0.930 . S
C549 C548 1.384 . S
C549 C550 1.377 . S
C549 C552 1.481 . S
C550 C549 1.377 . S
C550 C551 1.389 . S
C550 H572 0.929 . S
C551 C547 1.397 . S
C551 C550 1.389 . S
C551 H573 0.931 . S
C552 C549 1.481 . S
C552 C553 1.387 . S
C552 C557 1.390 . S
C553 C552 1.387 . S
C553 C554 1.401 . S
C553 H574 0.930 . S
C554 C553 1.401 . S
C554 C555 1.376 . S
C554 C563 1.511 . S
C555 C554 1.376 . S
C555 C556 1.392 . S
C555 H576 0.931 . S
C556 C555 1.392 . S
C556 C557 1.361 . S
C556 C558 1.500 . S
C557 C552 1.390 . S
C557 C556 1.361 . S
C557 H575 0.931 . S
C558 C556 1.500 . S
C558 C559 1.371 . S
C558 C560 1.365 . S
C559 C558 1.371 . S
C559 C569 1.386 . S
C559 H577 0.931 . S
C560 C558 1.365 . S
C560 C561 1.409 . S
C560 H578 0.929 . S
C561 C560 1.409 . S
C561 C562 1.380 . S
C561 H579 0.930 . S
C562 C561 1.380 . S
C562 C569 1.357 . S
C563 C554 1.511 . S
C563 C564 1.341 . S
C563 C565 1.371 . S
C564 C563 1.341 . S
C564 C568 1.394 . S
C564 H580 0.930 . S
C565 C563 1.371 . S
C565 C566 1.392 . S
C565 H581 0.931 . S
C566 C565 1.392 . S
C566 C567 1.331 . S
C566 H584 0.932 . S
C567 C566 1.331 . S
C567 C568 1.336 . S
C568 C564 1.394 . S
C568 C567 1.336 . S
C568 H583 0.929 . S
C569 C559 1.386 . S
C569 C562 1.357 . S
C569 H582 0.928 . S
H570 C546 0.931 . S
H571 C548 0.930 . S
H572 C550 0.929 . S
H573 C551 0.931 . S
H574 C553 0.930 . S
H575 C557 0.931 . S
H576 C555 0.931 . S
H577 C559 0.931 . S
H578 C560 0.929 . S
H579 C561 0.930 . S
H580 C564 0.930 . S
H581 C565 0.931 . S
H582 C569 0.928 . S
H583 C568 0.929 . S
H584 C566 0.932 . S
C585 C586 1.386 . S
C585 C587 1.397 . S
C585 H609 0.931 . S
C586 C585 1.386 . S
C586 C590 1.397 . S
C587 C585 1.397 . S
C587 C588 1.384 . S
C587 H610 0.930 . S
C588 C587 1.384 . S
C588 C589 1.377 . S
C588 C591 1.481 . S
C589 C588 1.377 . S
C589 C590 1.389 . S
C589 H611 0.929 . S
C590 C586 1.397 . S
C590 C589 1.389 . S
C590 H612 0.931 . S
C591 C588 1.481 . S
C591 C592 1.387 . S
C591 C596 1.390 . S
C592 C591 1.387 . S
C592 C593 1.401 . S
C592 H613 0.930 . S
C593 C592 1.401 . S
C593 C594 1.376 . S
C593 C602 1.511 . S
C594 C593 1.376 . S
C594 C595 1.392 . S
C594 H615 0.931 . S
C595 C594 1.392 . S
C595 C596 1.361 . S
C595 C597 1.500 . S
C596 C591 1.390 . S
C596 C595 1.361 . S
C596 H614 0.931 . S
C597 C595 1.500 . S
C597 C598 1.371 . S
C597 C599 1.365 . S
C598 C597 1.371 . S
C598 C608 1.386 . S
C598 H616 0.931 . S
C599 C597 1.365 . S
C599 C600 1.409 . S
C599 H617 0.929 . S
C600 C599 1.409 . S
C600 C601 1.380 . S
C600 H618 0.930 . S
C601 C600 1.380 . S
C601 C608 1.357 . S
C602 C593 1.511 . S
C602 C603 1.341 . S
C602 C604 1.371 . S
C603 C602 1.341 . S
C603 C607 1.394 . S
C603 H619 0.930 . S
C604 C602 1.371 . S
C604 C605 1.392 . S
C604 H620 0.931 . S
C605 C604 1.392 . S
C605 C606 1.331 . S
C605 H623 0.932 . S
C606 C605 1.331 . S
C606 C607 1.336 . S
C607 C603 1.394 . S
C607 C606 1.336 . S
C607 H622 0.929 . S
C608 C598 1.386 . S
C608 C601 1.357 . S
C608 H621 0.928 . S
H609 C585 0.931 . S
H610 C587 0.930 . S
H611 C589 0.929 . S
H612 C590 0.931 . S
H613 C592 0.930 . S
H614 C596 0.931 . S
H615 C594 0.931 . S
H616 C598 0.931 . S
H617 C599 0.929 . S
H618 C600 0.930 . S
H619 C603 0.930 . S
H620 C604 0.931 . S
H621 C608 0.928 . S
H622 C607 0.929 . S
H623 C605 0.932 . S
C624 C625 1.386 . S
C624 C626 1.397 . S
C624 H648 0.931 . S
C625 C624 1.386 . S
C625 C629 1.397 . S
C626 C624 1.397 . S
C626 C627 1.384 . S
C626 H649 0.930 . S
C627 C626 1.384 . S
C627 C628 1.377 . S
C627 C630 1.481 . S
C628 C627 1.377 . S
C628 C629 1.389 . S
C628 H650 0.929 . S
C629 C625 1.397 . S
C629 C628 1.389 . S
C629 H651 0.931 . S
C630 C627 1.481 . S
C630 C631 1.387 . S
C630 C635 1.390 . S
C631 C630 1.387 . S
C631 C632 1.401 . S
C631 H652 0.930 . S
C632 C631 1.401 . S
C632 C633 1.376 . S
C632 C641 1.511 . S
C633 C632 1.376 . S
C633 C634 1.392 . S
C633 H654 0.931 . S
C634 C633 1.392 . S
C634 C635 1.361 . S
C634 C636 1.500 . S
C635 C630 1.390 . S
C635 C634 1.361 . S
C635 H653 0.931 . S
C636 C634 1.500 . S
C636 C637 1.371 . S
C636 C638 1.365 . S
C637 C636 1.371 . S
C637 C647 1.386 . S
C637 H655 0.931 . S
C638 C636 1.365 . S
C638 C639 1.409 . S
C638 H656 0.929 . S
C639 C638 1.409 . S
C639 C640 1.380 . S
C639 H657 0.930 . S
C640 C639 1.380 . S
C640 C647 1.357 . S
C641 C632 1.511 . S
C641 C642 1.341 . S
C641 C643 1.371 . S
C642 C641 1.341 . S
C642 C646 1.394 . S
C642 H658 0.930 . S
C643 C641 1.371 . S
C643 C644 1.392 . S
C643 H659 0.931 . S
C644 C643 1.392 . S
C644 C645 1.331 . S
C644 H662 0.932 . S
C645 C644 1.331 . S
C645 C646 1.336 . S
C646 C642 1.394 . S
C646 C645 1.336 . S
C646 H661 0.929 . S
C647 C637 1.386 . S
C647 C640 1.357 . S
C647 H660 0.928 . S
H648 C624 0.931 . S
H649 C626 0.930 . S
H650 C628 0.929 . S
H651 C629 0.931 . S
H652 C631 0.930 . S
H653 C635 0.931 . S
H654 C633 0.931 . S
H655 C637 0.931 . S
H656 C638 0.929 . S
H657 C639 0.930 . S
H658 C642 0.930 . S
H659 C643 0.931 . S
H660 C647 0.928 . S
H661 C646 0.929 . S
H662 C644 0.932 . S
C663 C664 1.386 . S
C663 C665 1.397 . S
C663 H687 0.931 . S
C664 C663 1.386 . S
C664 C668 1.397 . S
C665 C663 1.397 . S
C665 C666 1.384 . S
C665 H688 0.930 . S
C666 C665 1.384 . S
C666 C667 1.377 . S
C666 C669 1.481 . S
C667 C666 1.377 . S
C667 C668 1.389 . S
C667 H689 0.929 . S
C668 C664 1.397 . S
C668 C667 1.389 . S
C668 H690 0.931 . S
C669 C666 1.481 . S
C669 C670 1.387 . S
C669 C674 1.390 . S
C670 C669 1.387 . S
C670 C671 1.401 . S
C670 H691 0.930 . S
C671 C670 1.401 . S
C671 C672 1.376 . S
C671 C680 1.511 . S
C672 C671 1.376 . S
C672 C673 1.392 . S
C672 H693 0.931 . S
C673 C672 1.392 . S
C673 C674 1.361 . S
C673 C675 1.500 . S
C674 C669 1.390 . S
C674 C673 1.361 . S
C674 H692 0.931 . S
C675 C673 1.500 . S
C675 C676 1.371 . S
C675 C677 1.365 . S
C676 C675 1.371 . S
C676 C686 1.386 . S
C676 H694 0.931 . S
C677 C675 1.365 . S
C677 C678 1.409 . S
C677 H695 0.929 . S
C678 C677 1.409 . S
C678 C679 1.380 . S
C678 H696 0.930 . S
C679 C678 1.380 . S
C679 C686 1.357 . S
C680 C671 1.511 . S
C680 C681 1.341 . S
C680 C682 1.371 . S
C681 C680 1.341 . S
C681 C685 1.394 . S
C681 H697 0.930 . S
C682 C680 1.371 . S
C682 C683 1.392 . S
C682 H698 0.931 . S
C683 C682 1.392 . S
C683 C684 1.331 . S
C683 H701 0.932 . S
C684 C683 1.331 . S
C684 C685 1.336 . S
C685 C681 1.394 . S
C685 C684 1.336 . S
C685 H700 0.929 . S
C686 C676 1.386 . S
C686 C679 1.357 . S
C686 H699 0.928 . S
H687 C663 0.931 . S
H688 C665 0.930 . S
H689 C667 0.929 . S
H690 C668 0.931 . S
H691 C670 0.930 . S
H692 C674 0.931 . S
H693 C672 0.931 . S
H694 C676 0.931 . S
H695 C677 0.929 . S
H696 C678 0.930 . S
H697 C681 0.930 . S
H698 C682 0.931 . S
H699 C686 0.928 . S
H700 C685 0.929 . S
H701 C683 0.932 . S
Eu702 N733 2.657 . S
Eu702 N740 2.609 . S
Eu702 O746 2.558 . S
Eu702 O747 2.648 1_565 S
Eu702 O749 2.339 1_565 S
Eu702 O750 2.563 1_565 S
Eu702 O751 2.419 . S
Eu702 O753 2.380 1_556 S
Eu702 O754 2.432 . S
Eu702 C766 2.848 . S
C703 C706 1.429 . S
C703 C707 1.411 . S
C703 N710 1.377 . S
C704 C706 1.420 . S
C704 C708 1.423 . S
C704 C716 1.392 . S
C705 C707 1.420 . S
C705 C708 1.351 . S
C705 H728 0.931 . S
C706 C703 1.429 . S
C706 C704 1.420 . S
C706 N714 1.362 . S
C707 C703 1.411 . S
C707 C705 1.420 . S
C707 C712 1.395 . S
C708 C704 1.423 . S
C708 C705 1.351 . S
C708 H720 0.930 . S
C709 C711 1.400 . S
C709 C712 1.386 . S
C709 H721 0.930 . S
N710 C703 1.377 . S
N710 C711 1.321 . S
N710 Eu713 2.609 . S
C711 C709 1.400 . S
C711 N710 1.321 . S
C711 H718 0.930 . S
C712 C707 1.395 . S
C712 C709 1.386 . S
C712 H731 0.930 . S
Eu713 N710 2.609 . S
Eu713 N714 2.657 . S
Eu713 O747 2.321 1_554 S
Eu713 O748 2.432 . S
Eu713 O752 2.558 . S
Eu713 O753 2.612 1_545 S
Eu713 O755 2.339 1_545 S
Eu713 O756 2.563 1_545 S
Eu713 O757 2.419 . S
Eu713 C777 2.848 . S
N714 C706 1.362 . S
N714 Eu713 2.657 . S
N714 C715 1.334 . S
C715 N714 1.334 . S
C715 C717 1.413 . S
C715 H722 0.929 . S
C716 C704 1.392 . S
C716 C717 1.367 . S
C716 H724 0.930 . S
C717 C715 1.413 . S
C717 C716 1.367 . S
C717 H719 0.930 . S
H718 C711 0.930 . S
H719 C717 0.930 . S
H720 C708 0.930 . S
H721 C709 0.930 . S
H722 C715 0.929 . S
H723 C737 0.930 . S
H724 C716 0.930 . S
H725 C743 0.930 . S
H726 C734 0.929 . S
H727 C741 0.930 . S
H728 C705 0.931 . S
H729 C735 0.930 . S
H730 C768 0.930 . S
H731 C712 0.930 . S
H732 C767 0.931 . S
N733 Eu702 2.657 . S
N733 C734 1.334 . S
N733 C738 1.362 . S
C734 H726 0.929 . S
C734 N733 1.334 . S
C734 C737 1.413 . S
C735 H729 0.930 . S
C735 C736 1.392 . S
C735 C737 1.367 . S
C736 C735 1.392 . S
C736 C738 1.420 . S
C736 C768 1.423 . S
C737 H723 0.930 . S
C737 C734 1.413 . S
C737 C735 1.367 . S
C738 N733 1.362 . S
C738 C736 1.420 . S
C738 C742 1.429 . S
H739 C744 0.930 . S
N740 Eu702 2.609 . S
N740 C742 1.377 . S
N740 C743 1.321 . S
C741 H727 0.930 . S
C741 C743 1.400 . S
C741 C744 1.386 . S
C742 C738 1.429 . S
C742 N740 1.377 . S
C742 C745 1.411 . S
C743 H725 0.930 . S
C743 N740 1.321 . S
C743 C741 1.400 . S
C744 H739 0.930 . S
C744 C741 1.386 . S
C744 C745 1.395 . S
C745 C742 1.411 . S
C745 C744 1.395 . S
C745 C767 1.420 . S
O746 Eu702 2.558 . S
O746 C766 1.257 . S
O747 Eu702 2.648 1_545 S
O747 Eu713 2.321 1_556 S
O747 C758 1.325 . S
O748 Eu713 2.432 . S
O748 C765 1.264 1_554 S
O749 Eu702 2.339 1_545 S
O749 C765 1.254 . S
O750 Eu702 2.563 1_545 S
O750 C758 1.235 . S
O751 Eu702 2.419 . S
O751 C766 1.249 . S
O752 Eu713 2.558 . S
O752 C777 1.257 . S
O753 Eu702 2.380 1_554 S
O753 Eu713 2.612 1_565 S
O753 C769 1.276 . S
O754 Eu702 2.432 . S
O754 C776 1.264 1_556 S
O755 Eu713 2.339 1_565 S
O755 C776 1.254 . S
O756 Eu713 2.563 1_565 S
O756 C769 1.235 . S
O757 Eu713 2.419 . S
O757 C777 1.249 . S
C758 O747 1.325 . S
C758 O750 1.235 . S
C759 C761 1.393 1_565 S
C759 C763 1.395 . S
C759 C766 1.492 . S
C760 C761 1.392 . S
C760 C762 1.386 1_545 S
C761 C759 1.393 1_545 S
C761 C760 1.392 . S
C761 H778 0.930 . S
C762 C760 1.386 1_565 S
C762 C764 1.395 . S
C762 H779 0.930 . S
C763 C759 1.395 . S
C763 C764 1.379 . S
C763 H780 0.930 . S
C764 C762 1.395 . S
C764 C763 1.379 . S
C764 H781 0.930 . S
C765 O748 1.264 1_556 S
C765 O749 1.254 . S
C766 Eu702 2.848 . S
C766 O746 1.257 . S
C766 O751 1.249 . S
C766 C759 1.492 . S
C767 H732 0.931 . S
C767 C745 1.420 . S
C767 C768 1.351 . S
C768 H730 0.930 . S
C768 C736 1.423 . S
C768 C767 1.351 . S
C769 O753 1.276 . S
C769 O756 1.235 . S
C770 C771 1.393 1_545 S
C770 C774 1.395 . S
C770 C777 1.492 . S
C771 C770 1.393 1_565 S
C771 C772 1.392 . S
C771 H782 0.930 . S
C772 C771 1.392 . S
C772 C773 1.386 1_565 S
C773 C772 1.386 1_545 S
C773 C775 1.395 . S
C773 H783 0.930 . S
C774 C770 1.395 . S
C774 C775 1.379 . S
C774 H784 0.930 . S
C775 C773 1.395 . S
C775 C774 1.379 . S
C775 H785 0.930 . S
C776 O754 1.264 1_554 S
C776 O755 1.254 . S
C777 Eu713 2.848 . S
C777 O752 1.257 . S
C777 O757 1.249 . S
C777 C770 1.492 . S
H778 C761 0.930 . S
H779 C762 0.930 . S
H780 C763 0.930 . S
H781 C764 0.930 . S
H782 C771 0.930 . S
H783 C773 0.930 . S
H784 C774 0.930 . S
H785 C775 0.930 . S
Eu786 N817 2.657 . S
Eu786 N824 2.609 . S
Eu786 O830 2.558 . S
Eu786 O831 2.612 1_455 S
Eu786 O833 2.339 1_455 S
Eu786 O834 2.563 1_455 S
Eu786 O835 2.419 . S
Eu786 O837 2.380 1_556 S
Eu786 O838 2.468 . S
Eu786 C850 2.848 . S
C787 C790 1.429 . S
C787 C791 1.411 . S
C787 N794 1.377 . S
C788 C790 1.420 . S
C788 C792 1.423 . S
C788 C800 1.392 . S
C789 C791 1.420 . S
C789 C792 1.351 . S
C789 H812 0.931 . S
C790 C787 1.429 . S
C790 C788 1.420 . S
C790 N798 1.362 . S
C791 C787 1.411 . S
C791 C789 1.420 . S
C791 C796 1.395 . S
C792 C788 1.423 . S
C792 C789 1.351 . S
C792 H804 0.930 . S
C793 C795 1.400 . S
C793 C796 1.386 . S
C793 H805 0.930 . S
N794 C787 1.377 . S
N794 C795 1.321 . S
N794 Eu797 2.609 . S
C795 C793 1.400 . S
C795 N794 1.321 . S
C795 H802 0.930 . S
C796 C791 1.395 . S
C796 C793 1.386 . S
C796 H815 0.930 . S
Eu797 N794 2.609 . S
Eu797 N798 2.657 . S
Eu797 O831 2.380 1_554 S
Eu797 O832 2.432 . S
Eu797 O836 2.558 . S
Eu797 O837 2.612 1_655 S
Eu797 O839 2.339 1_655 S
Eu797 O840 2.563 1_655 S
Eu797 O841 2.419 . S
Eu797 C861 2.848 . S
N798 C790 1.362 . S
N798 Eu797 2.657 . S
N798 C799 1.334 . S
C799 N798 1.334 . S
C799 C801 1.413 . S
C799 H806 0.929 . S
C800 C788 1.392 . S
C800 C801 1.367 . S
C800 H808 0.930 . S
C801 C799 1.413 . S
C801 C800 1.367 . S
C801 H803 0.930 . S
H802 C795 0.930 . S
H803 C801 0.930 . S
H804 C792 0.930 . S
H805 C793 0.930 . S
H806 C799 0.929 . S
H807 C821 0.930 . S
H808 C800 0.930 . S
H809 C827 0.930 . S
H810 C818 0.929 . S
H811 C825 0.930 . S
H812 C789 0.931 . S
H813 C819 0.930 . S
H814 C852 0.930 . S
H815 C796 0.930 . S
H816 C851 0.931 . S
N817 Eu786 2.657 . S
N817 C818 1.334 . S
N817 C822 1.362 . S
C818 H810 0.929 . S
C818 N817 1.334 . S
C818 C821 1.413 . S
C819 H813 0.930 . S
C819 C820 1.392 . S
C819 C821 1.367 . S
C820 C819 1.392 . S
C820 C822 1.420 . S
C820 C852 1.423 . S
C821 H807 0.930 . S
C821 C818 1.413 . S
C821 C819 1.367 . S
C822 N817 1.362 . S
C822 C820 1.420 . S
C822 C826 1.429 . S
H823 C828 0.930 . S
N824 Eu786 2.609 . S
N824 C826 1.377 . S
N824 C827 1.321 . S
C825 H811 0.930 . S
C825 C827 1.400 . S
C825 C828 1.386 . S
C826 C822 1.429 . S
C826 N824 1.377 . S
C826 C829 1.411 . S
C827 H809 0.930 . S
C827 N824 1.321 . S
C827 C825 1.400 . S
C828 H823 0.930 . S
C828 C825 1.386 . S
C828 C829 1.395 . S
C829 C826 1.411 . S
C829 C828 1.395 . S
C829 C851 1.420 . S
O830 Eu786 2.558 . S
O830 C850 1.257 . S
O831 Eu786 2.612 1_655 S
O831 Eu797 2.380 1_556 S
O831 C842 1.276 . S
O832 Eu797 2.432 . S
O832 C849 1.264 1_554 S
O833 Eu786 2.339 1_655 S
O833 C849 1.254 . S
O834 Eu786 2.563 1_655 S
O834 C842 1.235 . S
O835 Eu786 2.419 . S
O835 C850 1.249 . S
O836 Eu797 2.558 . S
O836 C861 1.257 . S
O837 Eu786 2.380 1_554 S
O837 Eu797 2.612 1_455 S
O837 C853 1.276 . S
O838 Eu786 2.468 . S
O838 C860 1.203 1_556 S
O839 Eu797 2.339 1_455 S
O839 C860 1.254 . S
O840 Eu797 2.563 1_455 S
O840 C853 1.235 . S
O841 Eu797 2.419 . S
O841 C861 1.249 . S
C842 O831 1.276 . S
C842 O834 1.235 . S
C843 C845 1.393 1_455 S
C843 C847 1.395 . S
C843 C850 1.492 . S
C844 C845 1.392 . S
C844 C846 1.386 1_655 S
C845 C843 1.393 1_655 S
C845 C844 1.392 . S
C845 H862 0.930 . S
C846 C844 1.386 1_455 S
C846 C848 1.395 . S
C846 H863 0.930 . S
C847 C843 1.395 . S
C847 C848 1.379 . S
C847 H864 0.930 . S
C848 C846 1.395 . S
C848 C847 1.379 . S
C848 H865 0.930 . S
C849 O832 1.264 1_556 S
C849 O833 1.254 . S
C850 Eu786 2.848 . S
C850 O830 1.257 . S
C850 O835 1.249 . S
C850 C843 1.492 . S
C851 H816 0.931 . S
C851 C829 1.420 . S
C851 C852 1.351 . S
C852 H814 0.930 . S
C852 C820 1.423 . S
C852 C851 1.351 . S
C853 O837 1.276 . S
C853 O840 1.235 . S
C854 C855 1.393 1_655 S
C854 C858 1.395 . S
C854 C861 1.492 . S
C855 C854 1.393 1_455 S
C855 C856 1.392 . S
C855 H866 0.930 . S
C856 C855 1.392 . S
C856 C857 1.386 1_455 S
C857 C856 1.386 1_655 S
C857 C859 1.395 . S
C857 H867 0.930 . S
C858 C854 1.395 . S
C858 C859 1.379 . S
C858 H868 0.930 . S
C859 C857 1.395 . S
C859 C858 1.379 . S
C859 H869 0.930 . S
C860 O838 1.203 1_554 S
C860 O839 1.254 . S
C861 Eu797 2.848 . S
C861 O836 1.257 . S
C861 O841 1.249 . S
C861 C854 1.492 . S
H862 C845 0.930 . S
H863 C846 0.930 . S
H864 C847 0.930 . S
H865 C848 0.930 . S
H866 C855 0.930 . S
H867 C857 0.930 . S
H868 C858 0.930 . S
H869 C859 0.930 . S
Eu870 N901 2.657 . S
Eu870 N908 2.609 . S
Eu870 O914 2.558 . S
Eu870 O915 2.612 . S
Eu870 O917 2.339 . S
Eu870 O918 2.563 . S
Eu870 O919 2.419 . S
Eu870 O921 2.380 1_554 S
Eu870 O922 2.432 . S
Eu870 C934 2.848 . S
C871 C874 1.429 . S
C871 C875 1.411 . S
C871 N878 1.377 . S
C872 C874 1.420 . S
C872 C876 1.423 . S
C872 C884 1.392 . S
C873 C875 1.420 . S
C873 C876 1.351 . S
C873 H896 0.931 . S
C874 C871 1.429 . S
C874 C872 1.420 . S
C874 N882 1.362 . S
C875 C871 1.411 . S
C875 C873 1.420 . S
C875 C880 1.395 . S
C876 C872 1.423 . S
C876 C873 1.351 . S
C876 H888 0.930 . S
C877 C879 1.400 . S
C877 C880 1.386 . S
C877 H889 0.930 . S
N878 C871 1.377 . S
N878 C879 1.321 . S
N878 Eu881 2.609 . S
C879 C877 1.400 . S
C879 N878 1.321 . S
C879 H886 0.930 . S
C880 C875 1.395 . S
C880 C877 1.386 . S
C880 H899 0.930 . S
Eu881 N878 2.609 . S
Eu881 N882 2.657 . S
Eu881 O915 2.380 1_556 S
Eu881 O916 2.432 . S
Eu881 O920 2.558 . S
Eu881 O921 2.612 . S
Eu881 O923 2.339 . S
Eu881 O924 2.563 . S
Eu881 O925 2.419 . S
Eu881 C945 2.848 . S
N882 C874 1.362 . S
N882 Eu881 2.657 . S
N882 C883 1.334 . S
C883 N882 1.334 . S
C883 C885 1.413 . S
C883 H890 0.929 . S
C884 C872 1.392 . S
C884 C885 1.367 . S
C884 H892 0.930 . S
C885 C883 1.413 . S
C885 C884 1.367 . S
C885 H887 0.930 . S
H886 C879 0.930 . S
H887 C885 0.930 . S
H888 C876 0.930 . S
H889 C877 0.930 . S
H890 C883 0.929 . S
H891 C905 0.930 . S
H892 C884 0.930 . S
H893 C911 0.930 . S
H894 C902 0.929 . S
H895 C909 0.930 . S
H896 C873 0.931 . S
H897 C903 0.930 . S
H898 C936 0.930 . S
H899 C880 0.930 . S
H900 C935 0.931 . S
N901 Eu870 2.657 . S
N901 C902 1.334 . S
N901 C906 1.362 . S
C902 H894 0.929 . S
C902 N901 1.334 . S
C902 C905 1.413 . S
C903 H897 0.930 . S
C903 C904 1.392 . S
C903 C905 1.367 . S
C904 C903 1.392 . S
C904 C906 1.420 . S
C904 C936 1.423 . S
C905 H891 0.930 . S
C905 C902 1.413 . S
C905 C903 1.367 . S
C906 N901 1.362 . S
C906 C904 1.420 . S
C906 C910 1.429 . S
H907 C912 0.930 . S
N908 Eu870 2.609 . S
N908 C910 1.377 . S
N908 C911 1.321 . S
C909 H895 0.930 . S
C909 C911 1.400 . S
C909 C912 1.386 . S
C910 C906 1.429 . S
C910 N908 1.377 . S
C910 C913 1.411 . S
C911 H893 0.930 . S
C911 N908 1.321 . S
C911 C909 1.400 . S
C912 H907 0.930 . S
C912 C909 1.386 . S
C912 C913 1.395 . S
C913 C910 1.411 . S
C913 C912 1.395 . S
C913 C935 1.420 . S
O914 Eu870 2.558 . S
O914 C934 1.257 . S
O915 Eu870 2.612 . S
O915 Eu881 2.380 1_554 S
O915 C926 1.276 . S
O916 Eu881 2.432 . S
O916 C933 1.264 1_556 S
O917 Eu870 2.339 . S
O917 C933 1.254 . S
O918 Eu870 2.563 . S
O918 C926 1.235 . S
O919 Eu870 2.419 . S
O919 C934 1.249 . S
O920 Eu881 2.558 . S
O920 C945 1.257 . S
O921 Eu870 2.380 1_556 S
O921 Eu881 2.612 . S
O921 C937 1.276 . S
O922 Eu870 2.432 . S
O922 C944 1.264 1_554 S
O923 Eu881 2.339 . S
O923 C944 1.254 . S
O924 Eu881 2.563 . S
O924 C937 1.235 . S
O925 Eu881 2.419 . S
O925 C945 1.249 . S
C926 O915 1.276 . S
C926 O918 1.235 . S
C927 C929 1.393 . S
C927 C931 1.395 . S
C927 C934 1.492 . S
C928 C929 1.392 . S
C928 C930 1.386 . S
C929 C927 1.393 . S
C929 C928 1.392 . S
C929 H946 0.930 . S
C930 C928 1.386 . S
C930 C932 1.395 . S
C930 H947 0.930 . S
C931 C927 1.395 . S
C931 C932 1.379 . S
C931 H948 0.930 . S
C932 C930 1.395 . S
C932 C931 1.379 . S
C932 H949 0.930 . S
C933 O916 1.264 1_554 S
C933 O917 1.254 . S
C934 Eu870 2.848 . S
C934 O914 1.257 . S
C934 O919 1.249 . S
C934 C927 1.492 . S
C935 H900 0.931 . S
C935 C913 1.420 . S
C935 C936 1.351 . S
C936 H898 0.930 . S
C936 C904 1.423 . S
C936 C935 1.351 . S
C937 O921 1.276 . S
C937 O924 1.235 . S
C938 C939 1.393 . S
C938 C942 1.395 . S
C938 C945 1.492 . S
C939 C938 1.393 . S
C939 C940 1.392 . S
C939 H950 0.930 . S
C940 C939 1.392 . S
C940 C941 1.386 . S
C941 C940 1.386 . S
C941 C943 1.395 . S
C941 H951 0.930 . S
C942 C938 1.395 . S
C942 C943 1.379 . S
C942 H952 0.930 . S
C943 C941 1.395 . S
C943 C942 1.379 . S
C943 H953 0.930 . S
C944 O922 1.264 1_556 S
C944 O923 1.254 . S
C945 Eu881 2.848 . S
C945 O920 1.257 . S
C945 O925 1.249 . S
C945 C938 1.492 . S
H946 C929 0.930 . S
H947 C930 0.930 . S
H948 C931 0.930 . S
H949 C932 0.930 . S
H950 C939 0.930 . S
H951 C941 0.930 . S
H952 C942 0.930 . S
H953 C943 0.930 . S
Eu954 N985 2.657 . S
Eu954 N992 2.609 . S
Eu954 O998 2.558 . S
Eu954 O999 2.612 . S
Eu954 O1001 2.339 . S
Eu954 O1002 2.563 . S
Eu954 O1003 2.419 . S
Eu954 O1005 2.380 . S
Eu954 O1006 2.432 . S
Eu954 C1018 2.848 . S
C955 C958 1.429 . S
C955 C959 1.411 . S
C955 N962 1.377 . S
C956 C958 1.420 . S
C956 C960 1.423 . S
C956 C968 1.392 . S
C957 C959 1.420 . S
C957 C960 1.351 . S
C957 H980 0.931 . S
C958 C955 1.429 . S
C958 C956 1.420 . S
C958 N966 1.362 . S
C959 C955 1.411 . S
C959 C957 1.420 . S
C959 C964 1.395 . S
C960 C956 1.423 . S
C960 C957 1.351 . S
C960 H972 0.930 . S
C961 C963 1.400 . S
C961 C964 1.386 . S
C961 H973 0.930 . S
N962 C955 1.377 . S
N962 C963 1.321 . S
N962 Eu965 2.609 . S
C963 C961 1.400 . S
C963 N962 1.321 . S
C963 H970 0.930 . S
C964 C959 1.395 . S
C964 C961 1.386 . S
C964 H983 0.930 . S
Eu965 N962 2.609 . S
Eu965 N966 2.657 . S
Eu965 O999 2.380 . S
Eu965 O1000 2.432 . S
Eu965 O1004 2.558 . S
Eu965 O1005 2.612 . S
Eu965 O1007 2.339 . S
Eu965 O1008 2.563 . S
Eu965 O1009 2.419 . S
Eu965 C1029 2.848 . S
N966 C958 1.362 . S
N966 Eu965 2.657 . S
N966 C967 1.334 . S
C967 N966 1.334 . S
C967 C969 1.413 . S
C967 H974 0.929 . S
C968 C956 1.392 . S
C968 C969 1.367 . S
C968 H976 0.930 . S
C969 C967 1.413 . S
C969 C968 1.367 . S
C969 H971 0.930 . S
H970 C963 0.930 . S
H971 C969 0.930 . S
H972 C960 0.930 . S
H973 C961 0.930 . S
H974 C967 0.929 . S
H975 C989 0.930 . S
H976 C968 0.930 . S
H977 C995 0.930 . S
H978 C986 0.929 . S
H979 C993 0.930 . S
H980 C957 0.931 . S
H981 C987 0.930 . S
H982 C1020 0.930 . S
H983 C964 0.930 . S
H984 C1019 0.931 . S
N985 Eu954 2.657 . S
N985 C986 1.334 . S
N985 C990 1.362 . S
C986 H978 0.929 . S
C986 N985 1.334 . S
C986 C989 1.413 . S
C987 H981 0.930 . S
C987 C988 1.392 . S
C987 C989 1.367 . S
C988 C987 1.392 . S
C988 C990 1.420 . S
C988 C1020 1.423 . S
C989 H975 0.930 . S
C989 C986 1.413 . S
C989 C987 1.367 . S
C990 N985 1.362 . S
C990 C988 1.420 . S
C990 C994 1.429 . S
H991 C996 0.930 . S
N992 Eu954 2.609 . S
N992 C994 1.377 . S
N992 C995 1.321 . S
C993 H979 0.930 . S
C993 C995 1.400 . S
C993 C996 1.386 . S
C994 C990 1.429 . S
C994 N992 1.377 . S
C994 C997 1.411 . S
C995 H977 0.930 . S
C995 N992 1.321 . S
C995 C993 1.400 . S
C996 H991 0.930 . S
C996 C993 1.386 . S
C996 C997 1.395 . S
C997 C994 1.411 . S
C997 C996 1.395 . S
C997 C1019 1.420 . S
O998 Eu954 2.558 . S
O998 C1018 1.257 . S
O999 Eu954 2.612 . S
O999 Eu965 2.380 . S
O999 C1010 1.276 . S
O1000 Eu965 2.432 . S
O1000 C1017 1.264 . S
O1001 Eu954 2.339 . S
O1001 C1017 1.254 . S
O1002 Eu954 2.563 . S
O1002 C1010 1.235 . S
O1003 Eu954 2.419 . S
O1003 C1018 1.249 . S
O1004 Eu965 2.558 . S
O1004 C1029 1.257 . S
O1005 Eu954 2.380 . S
O1005 Eu965 2.612 . S
O1005 C1021 1.276 . S
O1006 Eu954 2.432 . S
O1006 C1028 1.264 . S
O1007 Eu965 2.339 . S
O1007 C1028 1.254 . S
O1008 Eu965 2.563 . S
O1008 C1021 1.235 . S
O1009 Eu965 2.419 . S
O1009 C1029 1.249 . S
C1010 O999 1.276 . S
C1010 O1002 1.235 . S
C1011 C1013 1.393 . S
C1011 C1015 1.395 . S
C1011 C1018 1.492 . S
C1012 C1013 1.392 . S
C1012 C1014 1.386 . S
C1013 C1011 1.393 . S
C1013 C1012 1.392 . S
C1013 H1030 0.930 . S
C1014 C1012 1.386 . S
C1014 C1016 1.395 . S
C1014 H1031 0.930 . S
C1015 C1011 1.395 . S
C1015 C1016 1.379 . S
C1015 H1032 0.930 . S
C1016 C1014 1.395 . S
C1016 C1015 1.379 . S
C1016 H1033 0.930 . S
C1017 O1000 1.264 . S
C1017 O1001 1.254 . S
C1018 Eu954 2.848 . S
C1018 O998 1.257 . S
C1018 O1003 1.249 . S
C1018 C1011 1.492 . S
C1019 H984 0.931 . S
C1019 C997 1.420 . S
C1019 C1020 1.351 . S
C1020 H982 0.930 . S
C1020 C988 1.423 . S
C1020 C1019 1.351 . S
C1021 O1005 1.276 . S
C1021 O1008 1.235 . S
C1022 C1023 1.393 . S
C1022 C1026 1.395 . S
C1022 C1029 1.492 . S
C1023 C1022 1.393 . S
C1023 C1024 1.392 . S
C1023 H1034 0.930 . S
C1024 C1023 1.392 . S
C1024 C1025 1.386 . S
C1025 C1024 1.386 . S
C1025 C1027 1.395 . S
C1025 H1035 0.930 . S
C1026 C1022 1.395 . S
C1026 C1027 1.379 . S
C1026 H1036 0.930 . S
C1027 C1025 1.395 . S
C1027 C1026 1.379 . S
C1027 H1037 0.930 . S
C1028 O1006 1.264 . S
C1028 O1007 1.254 . S
C1029 Eu965 2.848 . S
C1029 O1004 1.257 . S
C1029 O1009 1.249 . S
C1029 C1022 1.492 . S
H1030 C1013 0.930 . S
H1031 C1014 0.930 . S
H1032 C1015 0.930 . S
H1033 C1016 0.930 . S
H1034 C1023 0.930 . S
H1035 C1025 0.930 . S
H1036 C1026 0.930 . S
H1037 C1027 0.930 . S
Eu1038 N1069 2.657 . S
Eu1038 N1076 2.609 . S
Eu1038 O1082 2.558 . S
Eu1038 O1083 2.612 . S
Eu1038 O1085 2.339 . S
Eu1038 O1086 2.563 . S
Eu1038 O1087 2.419 . S
Eu1038 O1089 2.380 . S
Eu1038 O1090 2.432 . S
Eu1038 C1102 2.848 . S
C1039 C1042 1.429 . S
C1039 C1043 1.411 . S
C1039 N1046 1.377 . S
C1040 C1042 1.420 . S
C1040 C1044 1.423 . S
C1040 C1052 1.392 . S
C1041 C1043 1.420 . S
C1041 C1044 1.351 . S
C1041 H1064 0.931 . S
C1042 C1039 1.429 . S
C1042 C1040 1.420 . S
C1042 N1050 1.362 . S
C1043 C1039 1.411 . S
C1043 C1041 1.420 . S
C1043 C1048 1.395 . S
C1044 C1040 1.423 . S
C1044 C1041 1.351 . S
C1044 H1056 0.930 . S
C1045 C1047 1.400 . S
C1045 C1048 1.386 . S
C1045 H1057 0.930 . S
N1046 C1039 1.377 . S
N1046 C1047 1.321 . S
N1046 Eu1049 2.609 . S
C1047 C1045 1.400 . S
C1047 N1046 1.321 . S
C1047 H1054 0.930 . S
C1048 C1043 1.395 . S
C1048 C1045 1.386 . S
C1048 H1067 0.930 . S
Eu1049 N1046 2.609 . S
Eu1049 N1050 2.657 . S
Eu1049 O1083 2.380 . S
Eu1049 O1084 2.432 . S
Eu1049 O1088 2.558 . S
Eu1049 O1089 2.612 . S
Eu1049 O1091 2.339 . S
Eu1049 O1092 2.563 . S
Eu1049 O1093 2.419 . S
Eu1049 C1113 2.848 . S
N1050 C1042 1.362 . S
N1050 Eu1049 2.657 . S
N1050 C1051 1.334 . S
C1051 N1050 1.334 . S
C1051 C1053 1.413 . S
C1051 H1058 0.929 . S
C1052 C1040 1.392 . S
C1052 C1053 1.367 . S
C1052 H1060 0.930 . S
C1053 C1051 1.413 . S
C1053 C1052 1.367 . S
C1053 H1055 0.930 . S
H1054 C1047 0.930 . S
H1055 C1053 0.930 . S
H1056 C1044 0.930 . S
H1057 C1045 0.930 . S
H1058 C1051 0.929 . S
H1059 C1073 0.930 . S
H1060 C1052 0.930 . S
H1061 C1079 0.930 . S
H1062 C1070 0.929 . S
H1063 C1077 0.930 . S
H1064 C1041 0.931 . S
H1065 C1071 0.930 . S
H1066 C1104 0.930 . S
H1067 C1048 0.930 . S
H1068 C1103 0.931 . S
N1069 Eu1038 2.657 . S
N1069 C1070 1.334 . S
N1069 C1074 1.362 . S
C1070 H1062 0.929 . S
C1070 N1069 1.334 . S
C1070 C1073 1.413 . S
C1071 H1065 0.930 . S
C1071 C1072 1.392 . S
C1071 C1073 1.367 . S
C1072 C1071 1.392 . S
C1072 C1074 1.420 . S
C1072 C1104 1.423 . S
C1073 H1059 0.930 . S
C1073 C1070 1.413 . S
C1073 C1071 1.367 . S
C1074 N1069 1.362 . S
C1074 C1072 1.420 . S
C1074 C1078 1.429 . S
H1075 C1080 0.930 . S
N1076 Eu1038 2.609 . S
N1076 C1078 1.377 . S
N1076 C1079 1.321 . S
C1077 H1063 0.930 . S
C1077 C1079 1.400 . S
C1077 C1080 1.386 . S
C1078 C1074 1.429 . S
C1078 N1076 1.377 . S
C1078 C1081 1.411 . S
C1079 H1061 0.930 . S
C1079 N1076 1.321 . S
C1079 C1077 1.400 . S
C1080 H1075 0.930 . S
C1080 C1077 1.386 . S
C1080 C1081 1.395 . S
C1081 C1078 1.411 . S
C1081 C1080 1.395 . S
C1081 C1103 1.420 . S
O1082 Eu1038 2.558 . S
O1082 C1102 1.257 . S
O1083 Eu1038 2.612 . S
O1083 Eu1049 2.380 . S
O1083 C1094 1.276 . S
O1084 Eu1049 2.432 . S
O1084 C1101 1.264 . S
O1085 Eu1038 2.339 . S
O1085 C1101 1.254 . S
O1086 Eu1038 2.563 . S
O1086 C1094 1.235 . S
O1087 Eu1038 2.419 . S
O1087 C1102 1.249 . S
O1088 Eu1049 2.558 . S
O1088 C1113 1.257 . S
O1089 Eu1038 2.380 . S
O1089 Eu1049 2.612 . S
O1089 C1105 1.276 . S
O1090 Eu1038 2.432 . S
O1090 C1112 1.264 . S
O1091 Eu1049 2.339 . S
O1091 C1112 1.254 . S
O1092 Eu1049 2.563 . S
O1092 C1105 1.235 . S
O1093 Eu1049 2.419 . S
O1093 C1113 1.249 . S
C1094 O1083 1.276 . S
C1094 O1086 1.235 . S
C1095 C1097 1.393 . S
C1095 C1099 1.395 . S
C1095 C1102 1.492 . S
C1096 C1097 1.392 . S
C1096 C1098 1.386 . S
C1097 C1095 1.393 . S
C1097 C1096 1.392 . S
C1097 H1114 0.930 . S
C1098 C1096 1.386 . S
C1098 C1100 1.395 . S
C1098 H1115 0.930 . S
C1099 C1095 1.395 . S
C1099 C1100 1.379 . S
C1099 H1116 0.930 . S
C1100 C1098 1.395 . S
C1100 C1099 1.379 . S
C1100 H1117 0.930 . S
C1101 O1084 1.264 . S
C1101 O1085 1.254 . S
C1102 Eu1038 2.848 . S
C1102 O1082 1.257 . S
C1102 O1087 1.249 . S
C1102 C1095 1.492 . S
C1103 H1068 0.931 . S
C1103 C1081 1.420 . S
C1103 C1104 1.351 . S
C1104 H1066 0.930 . S
C1104 C1072 1.423 . S
C1104 C1103 1.351 . S
C1105 O1089 1.276 . S
C1105 O1092 1.235 . S
C1106 C1107 1.393 . S
C1106 C1110 1.395 . S
C1106 C1113 1.492 . S
C1107 C1106 1.393 . S
C1107 C1108 1.392 . S
C1107 H1118 0.930 . S
C1108 C1107 1.392 . S
C1108 C1109 1.386 . S
C1109 C1108 1.386 . S
C1109 C1111 1.395 . S
C1109 H1119 0.930 . S
C1110 C1106 1.395 . S
C1110 C1111 1.379 . S
C1110 H1120 0.930 . S
C1111 C1109 1.395 . S
C1111 C1110 1.379 . S
C1111 H1121 0.930 . S
C1112 O1090 1.264 . S
C1112 O1091 1.254 . S
C1113 Eu1049 2.848 . S
C1113 O1088 1.257 . S
C1113 O1093 1.249 . S
C1113 C1106 1.492 . S
H1114 C1097 0.930 . S
H1115 C1098 0.930 . S
H1116 C1099 0.930 . S
H1117 C1100 0.930 . S
H1118 C1107 0.930 . S
H1119 C1109 0.930 . S
H1120 C1110 0.930 . S
H1121 C1111 0.930 . S
Eu1122 N1153 2.657 . S
Eu1122 N1160 2.609 . S
Eu1122 O1166 2.558 . S
Eu1122 O1167 2.612 . S
Eu1122 O1169 2.339 . S
Eu1122 O1170 2.563 . S
Eu1122 O1171 2.419 . S
Eu1122 O1173 2.380 . S
Eu1122 O1174 2.432 . S
Eu1122 C1186 2.848 . S
C1123 C1126 1.429 . S
C1123 C1127 1.411 . S
C1123 N1130 1.377 . S
C1124 C1126 1.420 . S
C1124 C1128 1.423 . S
C1124 C1136 1.392 . S
C1125 C1127 1.420 . S
C1125 C1128 1.351 . S
C1125 H1148 0.931 . S
C1126 C1123 1.429 . S
C1126 C1124 1.420 . S
C1126 N1134 1.362 . S
C1127 C1123 1.411 . S
C1127 C1125 1.420 . S
C1127 C1132 1.395 . S
C1128 C1124 1.423 . S
C1128 C1125 1.351 . S
C1128 H1140 0.930 . S
C1129 C1131 1.400 . S
C1129 C1132 1.386 . S
C1129 H1141 0.930 . S
N1130 C1123 1.377 . S
N1130 C1131 1.321 . S
N1130 Eu1133 2.609 . S
C1131 C1129 1.400 . S
C1131 N1130 1.321 . S
C1131 H1138 0.930 . S
C1132 C1127 1.395 . S
C1132 C1129 1.386 . S
C1132 H1151 0.930 . S
Eu1133 N1130 2.609 . S
Eu1133 N1134 2.657 . S
Eu1133 O1167 2.380 . S
Eu1133 O1168 2.432 . S
Eu1133 O1172 2.558 . S
Eu1133 O1173 2.612 . S
Eu1133 O1175 2.339 . S
Eu1133 O1176 2.563 . S
Eu1133 O1177 2.419 . S
Eu1133 C1197 2.848 . S
N1134 C1126 1.362 . S
N1134 Eu1133 2.657 . S
N1134 C1135 1.334 . S
C1135 N1134 1.334 . S
C1135 C1137 1.413 . S
C1135 H1142 0.929 . S
C1136 C1124 1.392 . S
C1136 C1137 1.367 . S
C1136 H1144 0.930 . S
C1137 C1135 1.413 . S
C1137 C1136 1.367 . S
C1137 H1139 0.930 . S
H1138 C1131 0.930 . S
H1139 C1137 0.930 . S
H1140 C1128 0.930 . S
H1141 C1129 0.930 . S
H1142 C1135 0.929 . S
H1143 C1157 0.930 . S
H1144 C1136 0.930 . S
H1145 C1163 0.930 . S
H1146 C1154 0.929 . S
H1147 C1161 0.930 . S
H1148 C1125 0.931 . S
H1149 C1155 0.930 . S
H1150 C1188 0.930 . S
H1151 C1132 0.930 . S
H1152 C1187 0.931 . S
N1153 Eu1122 2.657 . S
N1153 C1154 1.334 . S
N1153 C1158 1.362 . S
C1154 H1146 0.929 . S
C1154 N1153 1.334 . S
C1154 C1157 1.413 . S
C1155 H1149 0.930 . S
C1155 C1156 1.392 . S
C1155 C1157 1.367 . S
C1156 C1155 1.392 . S
C1156 C1158 1.420 . S
C1156 C1188 1.423 . S
C1157 H1143 0.930 . S
C1157 C1154 1.413 . S
C1157 C1155 1.367 . S
C1158 N1153 1.362 . S
C1158 C1156 1.420 . S
C1158 C1162 1.429 . S
H1159 C1164 0.930 . S
N1160 Eu1122 2.609 . S
N1160 C1162 1.377 . S
N1160 C1163 1.321 . S
C1161 H1147 0.930 . S
C1161 C1163 1.400 . S
C1161 C1164 1.386 . S
C1162 C1158 1.429 . S
C1162 N1160 1.377 . S
C1162 C1165 1.411 . S
C1163 H1145 0.930 . S
C1163 N1160 1.321 . S
C1163 C1161 1.400 . S
C1164 H1159 0.930 . S
C1164 C1161 1.386 . S
C1164 C1165 1.395 . S
C1165 C1162 1.411 . S
C1165 C1164 1.395 . S
C1165 C1187 1.420 . S
O1166 Eu1122 2.558 . S
O1166 C1186 1.257 . S
O1167 Eu1122 2.612 . S
O1167 Eu1133 2.380 . S
O1167 C1178 1.276 . S
O1168 Eu1133 2.432 . S
O1168 C1185 1.264 . S
O1169 Eu1122 2.339 . S
O1169 C1185 1.254 . S
O1170 Eu1122 2.563 . S
O1170 C1178 1.235 . S
O1171 Eu1122 2.419 . S
O1171 C1186 1.249 . S
O1172 Eu1133 2.558 . S
O1172 C1197 1.257 . S
O1173 Eu1122 2.380 . S
O1173 Eu1133 2.612 . S
O1173 C1189 1.276 . S
O1174 Eu1122 2.432 . S
O1174 C1196 1.264 . S
O1175 Eu1133 2.339 . S
O1175 C1196 1.254 . S
O1176 Eu1133 2.563 . S
O1176 C1189 1.235 . S
O1177 Eu1133 2.419 . S
O1177 C1197 1.249 . S
C1178 O1167 1.276 . S
C1178 O1170 1.235 . S
C1179 C1181 1.393 . S
C1179 C1183 1.395 . S
C1179 C1186 1.492 . S
C1180 C1181 1.392 . S
C1180 C1182 1.386 . S
C1181 C1179 1.393 . S
C1181 C1180 1.392 . S
C1181 H1198 0.930 . S
C1182 C1180 1.386 . S
C1182 C1184 1.395 . S
C1182 H1199 0.930 . S
C1183 C1179 1.395 . S
C1183 C1184 1.379 . S
C1183 H1200 0.930 . S
C1184 C1182 1.395 . S
C1184 C1183 1.379 . S
C1184 H1201 0.930 . S
C1185 O1168 1.264 . S
C1185 O1169 1.254 . S
C1186 Eu1122 2.848 . S
C1186 O1166 1.257 . S
C1186 O1171 1.249 . S
C1186 C1179 1.492 . S
C1187 H1152 0.931 . S
C1187 C1165 1.420 . S
C1187 C1188 1.351 . S
C1188 H1150 0.930 . S
C1188 C1156 1.423 . S
C1188 C1187 1.351 . S
C1189 O1173 1.276 . S
C1189 O1176 1.235 . S
C1190 C1191 1.393 . S
C1190 C1194 1.395 . S
C1190 C1197 1.492 . S
C1191 C1190 1.393 . S
C1191 C1192 1.392 . S
C1191 H1202 0.930 . S
C1192 C1191 1.392 . S
C1192 C1193 1.386 . S
C1193 C1192 1.386 . S
C1193 C1195 1.395 . S
C1193 H1203 0.930 . S
C1194 C1190 1.395 . S
C1194 C1195 1.379 . S
C1194 H1204 0.930 . S
C1195 C1193 1.395 . S
C1195 C1194 1.379 . S
C1195 H1205 0.930 . S
C1196 O1174 1.264 . S
C1196 O1175 1.254 . S
C1197 Eu1133 2.848 . S
C1197 O1172 1.257 . S
C1197 O1177 1.249 . S
C1197 C1190 1.492 . S
H1198 C1181 0.930 . S
H1199 C1182 0.930 . S
H1200 C1183 0.930 . S
H1201 C1184 0.930 . S
H1202 C1191 0.930 . S
H1203 C1193 0.930 . S
H1204 C1194 0.930 . S
H1205 C1195 0.930 . S
Eu1206 N1237 2.657 . S
Eu1206 N1244 2.609 . S
Eu1206 O1250 2.558 . S
Eu1206 O1251 2.612 . S
Eu1206 O1253 2.339 . S
Eu1206 O1254 2.563 . S
Eu1206 O1255 2.419 . S
Eu1206 O1257 2.380 . S
Eu1206 O1258 2.432 . S
Eu1206 C1270 2.848 . S
C1207 C1210 1.429 . S
C1207 C1211 1.411 . S
C1207 N1214 1.377 . S
C1208 C1210 1.420 . S
C1208 C1212 1.423 . S
C1208 C1220 1.392 . S
C1209 C1211 1.420 . S
C1209 C1212 1.351 . S
C1209 H1232 0.931 . S
C1210 C1207 1.429 . S
C1210 C1208 1.420 . S
C1210 N1218 1.362 . S
C1211 C1207 1.411 . S
C1211 C1209 1.420 . S
C1211 C1216 1.395 . S
C1212 C1208 1.423 . S
C1212 C1209 1.351 . S
C1212 H1224 0.930 . S
C1213 C1215 1.400 . S
C1213 C1216 1.386 . S
C1213 H1225 0.930 . S
N1214 C1207 1.377 . S
N1214 C1215 1.321 . S
N1214 Eu1217 2.609 . S
C1215 C1213 1.400 . S
C1215 N1214 1.321 . S
C1215 H1222 0.930 . S
C1216 C1211 1.395 . S
C1216 C1213 1.386 . S
C1216 H1235 0.930 . S
Eu1217 N1214 2.609 . S
Eu1217 N1218 2.657 . S
Eu1217 O1251 2.380 . S
Eu1217 O1252 2.432 . S
Eu1217 O1256 2.558 . S
Eu1217 O1257 2.612 . S
Eu1217 O1259 2.339 . S
Eu1217 O1260 2.563 . S
Eu1217 O1261 2.419 . S
Eu1217 C1281 2.848 . S
N1218 C1210 1.362 . S
N1218 Eu1217 2.657 . S
N1218 C1219 1.334 . S
C1219 N1218 1.334 . S
C1219 C1221 1.413 . S
C1219 H1226 0.929 . S
C1220 C1208 1.392 . S
C1220 C1221 1.367 . S
C1220 H1228 0.930 . S
C1221 C1219 1.413 . S
C1221 C1220 1.367 . S
C1221 H1223 0.930 . S
H1222 C1215 0.930 . S
H1223 C1221 0.930 . S
H1224 C1212 0.930 . S
H1225 C1213 0.930 . S
H1226 C1219 0.929 . S
H1227 C1241 0.930 . S
H1228 C1220 0.930 . S
H1229 C1247 0.930 . S
H1230 C1238 0.929 . S
H1231 C1245 0.930 . S
H1232 C1209 0.931 . S
H1233 C1239 0.930 . S
H1234 C1272 0.930 . S
H1235 C1216 0.930 . S
H1236 C1271 0.931 . S
N1237 Eu1206 2.657 . S
N1237 C1238 1.334 . S
N1237 C1242 1.362 . S
C1238 H1230 0.929 . S
C1238 N1237 1.334 . S
C1238 C1241 1.413 . S
C1239 H1233 0.930 . S
C1239 C1240 1.392 . S
C1239 C1241 1.367 . S
C1240 C1239 1.392 . S
C1240 C1242 1.420 . S
C1240 C1272 1.423 . S
C1241 H1227 0.930 . S
C1241 C1238 1.413 . S
C1241 C1239 1.367 . S
C1242 N1237 1.362 . S
C1242 C1240 1.420 . S
C1242 C1246 1.429 . S
H1243 C1248 0.930 . S
N1244 Eu1206 2.609 . S
N1244 C1246 1.377 . S
N1244 C1247 1.321 . S
C1245 H1231 0.930 . S
C1245 C1247 1.400 . S
C1245 C1248 1.386 . S
C1246 C1242 1.429 . S
C1246 N1244 1.377 . S
C1246 C1249 1.411 . S
C1247 H1229 0.930 . S
C1247 N1244 1.321 . S
C1247 C1245 1.400 . S
C1248 H1243 0.930 . S
C1248 C1245 1.386 . S
C1248 C1249 1.395 . S
C1249 C1246 1.411 . S
C1249 C1248 1.395 . S
C1249 C1271 1.420 . S
O1250 Eu1206 2.558 . S
O1250 C1270 1.257 . S
O1251 Eu1206 2.612 . S
O1251 Eu1217 2.380 . S
O1251 C1262 1.276 . S
O1252 Eu1217 2.432 . S
O1252 C1269 1.264 . S
O1253 Eu1206 2.339 . S
O1253 C1269 1.254 . S
O1254 Eu1206 2.563 . S
O1254 C1262 1.235 . S
O1255 Eu1206 2.419 . S
O1255 C1270 1.249 . S
O1256 Eu1217 2.558 . S
O1256 C1281 1.257 . S
O1257 Eu1206 2.380 . S
O1257 Eu1217 2.612 . S
O1257 C1273 1.276 . S
O1258 Eu1206 2.432 . S
O1258 C1280 1.264 . S
O1259 Eu1217 2.339 . S
O1259 C1280 1.254 . S
O1260 Eu1217 2.563 . S
O1260 C1273 1.235 . S
O1261 Eu1217 2.419 . S
O1261 C1281 1.249 . S
C1262 O1251 1.276 . S
C1262 O1254 1.235 . S
C1263 C1265 1.393 . S
C1263 C1267 1.395 . S
C1263 C1270 1.492 . S
C1264 C1265 1.392 . S
C1264 C1266 1.386 . S
C1265 C1263 1.393 . S
C1265 C1264 1.392 . S
C1265 H1282 0.930 . S
C1266 C1264 1.386 . S
C1266 C1268 1.395 . S
C1266 H1283 0.930 . S
C1267 C1263 1.395 . S
C1267 C1268 1.379 . S
C1267 H1284 0.930 . S
C1268 C1266 1.395 . S
C1268 C1267 1.379 . S
C1268 H1285 0.930 . S
C1269 O1252 1.264 . S
C1269 O1253 1.254 . S
C1270 Eu1206 2.848 . S
C1270 O1250 1.257 . S
C1270 O1255 1.249 . S
C1270 C1263 1.492 . S
C1271 H1236 0.931 . S
C1271 C1249 1.420 . S
C1271 C1272 1.351 . S
C1272 H1234 0.930 . S
C1272 C1240 1.423 . S
C1272 C1271 1.351 . S
C1273 O1257 1.276 . S
C1273 O1260 1.235 . S
C1274 C1275 1.393 . S
C1274 C1278 1.395 . S
C1274 C1281 1.492 . S
C1275 C1274 1.393 . S
C1275 C1276 1.392 . S
C1275 H1286 0.930 . S
C1276 C1275 1.392 . S
C1276 C1277 1.386 . S
C1277 C1276 1.386 . S
C1277 C1279 1.395 . S
C1277 H1287 0.930 . S
C1278 C1274 1.395 . S
C1278 C1279 1.379 . S
C1278 H1288 0.930 . S
C1279 C1277 1.395 . S
C1279 C1278 1.379 . S
C1279 H1289 0.930 . S
C1280 O1258 1.264 . S
C1280 O1259 1.254 . S
C1281 Eu1217 2.848 . S
C1281 O1256 1.257 . S
C1281 O1261 1.249 . S
C1281 C1274 1.492 . S
H1282 C1265 0.930 . S
H1283 C1266 0.930 . S
H1284 C1267 0.930 . S
H1285 C1268 0.930 . S
H1286 C1275 0.930 . S
H1287 C1277 0.930 . S
H1288 C1278 0.930 . S
H1289 C1279 0.930 . S
Eu1290 N1321 2.657 . S
Eu1290 N1328 2.609 . S
Eu1290 O1334 2.558 . S
Eu1290 O1335 2.612 . S
Eu1290 O1337 2.339 . S
Eu1290 O1338 2.563 . S
Eu1290 O1339 2.419 . S
Eu1290 O1341 2.380 . S
Eu1290 O1342 2.432 . S
Eu1290 C1354 2.848 . S
C1291 C1294 1.429 . S
C1291 C1295 1.411 . S
C1291 N1298 1.377 . S
C1292 C1294 1.420 . S
C1292 C1296 1.423 . S
C1292 C1304 1.392 . S
C1293 C1295 1.420 . S
C1293 C1296 1.351 . S
C1293 H1316 0.931 . S
C1294 C1291 1.429 . S
C1294 C1292 1.420 . S
C1294 N1302 1.362 . S
C1295 C1291 1.411 . S
C1295 C1293 1.420 . S
C1295 C1300 1.395 . S
C1296 C1292 1.423 . S
C1296 C1293 1.351 . S
C1296 H1308 0.930 . S
C1297 C1299 1.400 . S
C1297 C1300 1.386 . S
C1297 H1309 0.930 . S
N1298 C1291 1.377 . S
N1298 C1299 1.321 . S
N1298 Eu1301 2.609 . S
C1299 C1297 1.400 . S
C1299 N1298 1.321 . S
C1299 H1306 0.930 . S
C1300 C1295 1.395 . S
C1300 C1297 1.386 . S
C1300 H1319 0.930 . S
Eu1301 N1298 2.609 . S
Eu1301 N1302 2.657 . S
Eu1301 O1335 2.380 . S
Eu1301 O1336 2.432 . S
Eu1301 O1340 2.558 . S
Eu1301 O1341 2.612 . S
Eu1301 O1343 2.339 . S
Eu1301 O1344 2.563 . S
Eu1301 O1345 2.419 . S
Eu1301 C1365 2.848 . S
N1302 C1294 1.362 . S
N1302 Eu1301 2.657 . S
N1302 C1303 1.334 . S
C1303 N1302 1.334 . S
C1303 C1305 1.413 . S
C1303 H1310 0.929 . S
C1304 C1292 1.392 . S
C1304 C1305 1.367 . S
C1304 H1312 0.930 . S
C1305 C1303 1.413 . S
C1305 C1304 1.367 . S
C1305 H1307 0.930 . S
H1306 C1299 0.930 . S
H1307 C1305 0.930 . S
H1308 C1296 0.930 . S
H1309 C1297 0.930 . S
H1310 C1303 0.929 . S
H1311 C1325 0.930 . S
H1312 C1304 0.930 . S
H1313 C1331 0.930 . S
H1314 C1322 0.929 . S
H1315 C1329 0.930 . S
H1316 C1293 0.931 . S
H1317 C1323 0.930 . S
H1318 C1356 0.930 . S
H1319 C1300 0.930 . S
H1320 C1355 0.931 . S
N1321 Eu1290 2.657 . S
N1321 C1322 1.334 . S
N1321 C1326 1.362 . S
C1322 H1314 0.929 . S
C1322 N1321 1.334 . S
C1322 C1325 1.413 . S
C1323 H1317 0.930 . S
C1323 C1324 1.392 . S
C1323 C1325 1.367 . S
C1324 C1323 1.392 . S
C1324 C1326 1.420 . S
C1324 C1356 1.423 . S
C1325 H1311 0.930 . S
C1325 C1322 1.413 . S
C1325 C1323 1.367 . S
C1326 N1321 1.362 . S
C1326 C1324 1.420 . S
C1326 C1330 1.429 . S
H1327 C1332 0.930 . S
N1328 Eu1290 2.609 . S
N1328 C1330 1.377 . S
N1328 C1331 1.321 . S
C1329 H1315 0.930 . S
C1329 C1331 1.400 . S
C1329 C1332 1.386 . S
C1330 C1326 1.429 . S
C1330 N1328 1.377 . S
C1330 C1333 1.411 . S
C1331 H1313 0.930 . S
C1331 N1328 1.321 . S
C1331 C1329 1.400 . S
C1332 H1327 0.930 . S
C1332 C1329 1.386 . S
C1332 C1333 1.395 . S
C1333 C1330 1.411 . S
C1333 C1332 1.395 . S
C1333 C1355 1.420 . S
O1334 Eu1290 2.558 . S
O1334 C1354 1.257 . S
O1335 Eu1290 2.612 . S
O1335 Eu1301 2.380 . S
O1335 C1346 1.276 . S
O1336 Eu1301 2.432 . S
O1336 C1353 1.264 . S
O1337 Eu1290 2.339 . S
O1337 C1353 1.254 . S
O1338 Eu1290 2.563 . S
O1338 C1346 1.235 . S
O1339 Eu1290 2.419 . S
O1339 C1354 1.249 . S
O1340 Eu1301 2.558 . S
O1340 C1365 1.257 . S
O1341 Eu1290 2.380 . S
O1341 Eu1301 2.612 . S
O1341 C1357 1.276 . S
O1342 Eu1290 2.432 . S
O1342 C1364 1.264 . S
O1343 Eu1301 2.339 . S
O1343 C1364 1.254 . S
O1344 Eu1301 2.563 . S
O1344 C1357 1.235 . S
O1345 Eu1301 2.419 . S
O1345 C1365 1.249 . S
C1346 O1335 1.276 . S
C1346 O1338 1.235 . S
C1347 C1349 1.393 . S
C1347 C1351 1.395 . S
C1347 C1354 1.492 . S
C1348 C1349 1.392 . S
C1348 C1350 1.386 . S
C1349 C1347 1.393 . S
C1349 C1348 1.392 . S
C1349 H1366 0.930 . S
C1350 C1348 1.386 . S
C1350 C1352 1.395 . S
C1350 H1367 0.930 . S
C1351 C1347 1.395 . S
C1351 C1352 1.379 . S
C1351 H1368 0.930 . S
C1352 C1350 1.395 . S
C1352 C1351 1.379 . S
C1352 H1369 0.930 . S
C1353 O1336 1.264 . S
C1353 O1337 1.254 . S
C1354 Eu1290 2.848 . S
C1354 O1334 1.257 . S
C1354 O1339 1.249 . S
C1354 C1347 1.492 . S
C1355 H1320 0.931 . S
C1355 C1333 1.420 . S
C1355 C1356 1.351 . S
C1356 H1318 0.930 . S
C1356 C1324 1.423 . S
C1356 C1355 1.351 . S
C1357 O1341 1.276 . S
C1357 O1344 1.235 . S
C1358 C1359 1.393 . S
C1358 C1362 1.395 . S
C1358 C1365 1.492 . S
C1359 C1358 1.393 . S
C1359 C1360 1.392 . S
C1359 H1370 0.930 . S
C1360 C1359 1.392 . S
C1360 C1361 1.386 . S
C1361 C1360 1.386 . S
C1361 C1363 1.395 . S
C1361 H1371 0.930 . S
C1362 C1358 1.395 . S
C1362 C1363 1.379 . S
C1362 H1372 0.930 . S
C1363 C1361 1.395 . S
C1363 C1362 1.379 . S
C1363 H1373 0.930 . S
C1364 O1342 1.264 . S
C1364 O1343 1.254 . S
C1365 Eu1301 2.848 . S
C1365 O1340 1.257 . S
C1365 O1345 1.249 . S
C1365 C1358 1.492 . S
H1366 C1349 0.930 . S
H1367 C1350 0.930 . S
H1368 C1351 0.930 . S
H1369 C1352 0.930 . S
H1370 C1359 0.930 . S
H1371 C1361 0.930 . S
H1372 C1362 0.930 . S
H1373 C1363 0.930 . S
Eu1374 N1405 2.657 . S
Eu1374 N1412 2.609 . S
Eu1374 O1418 2.558 . S
Eu1374 O1419 2.612 . S
Eu1374 O1421 2.339 . S
Eu1374 O1422 2.563 . S
Eu1374 O1423 2.419 . S
Eu1374 O1425 2.380 . S
Eu1374 O1426 2.432 . S
Eu1374 C1438 2.848 . S
C1375 C1378 1.429 . S
C1375 C1379 1.411 . S
C1375 N1382 1.377 . S
C1376 C1378 1.420 . S
C1376 C1380 1.423 . S
C1376 C1388 1.392 . S
C1377 C1379 1.420 . S
C1377 C1380 1.351 . S
C1377 H1400 0.931 . S
C1378 C1375 1.429 . S
C1378 C1376 1.420 . S
C1378 N1386 1.362 . S
C1379 C1375 1.411 . S
C1379 C1377 1.420 . S
C1379 C1384 1.395 . S
C1380 C1376 1.423 . S
C1380 C1377 1.351 . S
C1380 H1392 0.930 . S
C1381 C1383 1.400 . S
C1381 C1384 1.386 . S
C1381 H1393 0.930 . S
N1382 C1375 1.377 . S
N1382 C1383 1.321 . S
N1382 Eu1385 2.609 . S
C1383 C1381 1.400 . S
C1383 N1382 1.321 . S
C1383 H1390 0.930 . S
C1384 C1379 1.395 . S
C1384 C1381 1.386 . S
C1384 H1403 0.930 . S
Eu1385 N1382 2.609 . S
Eu1385 N1386 2.657 . S
Eu1385 O1419 2.380 . S
Eu1385 O1420 2.432 . S
Eu1385 O1424 2.558 . S
Eu1385 O1425 2.612 . S
Eu1385 O1427 2.339 . S
Eu1385 O1428 2.563 . S
Eu1385 O1429 2.419 . S
Eu1385 C1449 2.848 . S
N1386 C1378 1.362 . S
N1386 Eu1385 2.657 . S
N1386 C1387 1.334 . S
C1387 N1386 1.334 . S
C1387 C1389 1.413 . S
C1387 H1394 0.929 . S
C1388 C1376 1.392 . S
C1388 C1389 1.367 . S
C1388 H1396 0.930 . S
C1389 C1387 1.413 . S
C1389 C1388 1.367 . S
C1389 H1391 0.930 . S
H1390 C1383 0.930 . S
H1391 C1389 0.930 . S
H1392 C1380 0.930 . S
H1393 C1381 0.930 . S
H1394 C1387 0.929 . S
H1395 C1409 0.930 . S
H1396 C1388 0.930 . S
H1397 C1415 0.930 . S
H1398 C1406 0.929 . S
H1399 C1413 0.930 . S
H1400 C1377 0.931 . S
H1401 C1407 0.930 . S
H1402 C1440 0.930 . S
H1403 C1384 0.930 . S
H1404 C1439 0.931 . S
N1405 Eu1374 2.657 . S
N1405 C1406 1.334 . S
N1405 C1410 1.362 . S
C1406 H1398 0.929 . S
C1406 N1405 1.334 . S
C1406 C1409 1.413 . S
C1407 H1401 0.930 . S
C1407 C1408 1.392 . S
C1407 C1409 1.367 . S
C1408 C1407 1.392 . S
C1408 C1410 1.420 . S
C1408 C1440 1.423 . S
C1409 H1395 0.930 . S
C1409 C1406 1.413 . S
C1409 C1407 1.367 . S
C1410 N1405 1.362 . S
C1410 C1408 1.420 . S
C1410 C1414 1.429 . S
H1411 C1416 0.930 . S
N1412 Eu1374 2.609 . S
N1412 C1414 1.377 . S
N1412 C1415 1.321 . S
C1413 H1399 0.930 . S
C1413 C1415 1.400 . S
C1413 C1416 1.386 . S
C1414 C1410 1.429 . S
C1414 N1412 1.377 . S
C1414 C1417 1.411 . S
C1415 H1397 0.930 . S
C1415 N1412 1.321 . S
C1415 C1413 1.400 . S
C1416 H1411 0.930 . S
C1416 C1413 1.386 . S
C1416 C1417 1.395 . S
C1417 C1414 1.411 . S
C1417 C1416 1.395 . S
C1417 C1439 1.420 . S
O1418 Eu1374 2.558 . S
O1418 C1438 1.257 . S
O1419 Eu1374 2.612 . S
O1419 Eu1385 2.380 . S
O1419 C1430 1.276 . S
O1420 Eu1385 2.432 . S
O1420 C1437 1.264 . S
O1421 Eu1374 2.339 . S
O1421 C1437 1.254 . S
O1422 Eu1374 2.563 . S
O1422 C1430 1.235 . S
O1423 Eu1374 2.419 . S
O1423 C1438 1.249 . S
O1424 Eu1385 2.558 . S
O1424 C1449 1.257 . S
O1425 Eu1374 2.380 . S
O1425 Eu1385 2.612 . S
O1425 C1441 1.276 . S
O1426 Eu1374 2.432 . S
O1426 C1448 1.264 . S
O1427 Eu1385 2.339 . S
O1427 C1448 1.254 . S
O1428 Eu1385 2.563 . S
O1428 C1441 1.235 . S
O1429 Eu1385 2.419 . S
O1429 C1449 1.249 . S
C1430 O1419 1.276 . S
C1430 O1422 1.235 . S
C1431 C1433 1.393 . S
C1431 C1435 1.395 . S
C1431 C1438 1.492 . S
C1432 C1433 1.392 . S
C1432 C1434 1.386 . S
C1433 C1431 1.393 . S
C1433 C1432 1.392 . S
C1433 H1450 0.930 . S
C1434 C1432 1.386 . S
C1434 C1436 1.395 . S
C1434 H1451 0.930 . S
C1435 C1431 1.395 . S
C1435 C1436 1.379 . S
C1435 H1452 0.930 . S
C1436 C1434 1.395 . S
C1436 C1435 1.379 . S
C1436 H1453 0.930 . S
C1437 O1420 1.264 . S
C1437 O1421 1.254 . S
C1438 Eu1374 2.848 . S
C1438 O1418 1.257 . S
C1438 O1423 1.249 . S
C1438 C1431 1.492 . S
C1439 H1404 0.931 . S
C1439 C1417 1.420 . S
C1439 C1440 1.351 . S
C1440 H1402 0.930 . S
C1440 C1408 1.423 . S
C1440 C1439 1.351 . S
C1441 O1425 1.276 . S
C1441 O1428 1.235 . S
C1442 C1443 1.393 . S
C1442 C1446 1.395 . S
C1442 C1449 1.492 . S
C1443 C1442 1.393 . S
C1443 C1444 1.392 . S
C1443 H1454 0.930 . S
C1444 C1443 1.392 . S
C1444 C1445 1.386 . S
C1445 C1444 1.386 . S
C1445 C1447 1.395 . S
C1445 H1455 0.930 . S
C1446 C1442 1.395 . S
C1446 C1447 1.379 . S
C1446 H1456 0.930 . S
C1447 C1445 1.395 . S
C1447 C1446 1.379 . S
C1447 H1457 0.930 . S
C1448 O1426 1.264 . S
C1448 O1427 1.254 . S
C1449 Eu1385 2.848 . S
C1449 O1424 1.257 . S
C1449 O1429 1.249 . S
C1449 C1442 1.492 . S
H1450 C1433 0.930 . S
H1451 C1434 0.930 . S
H1452 C1435 0.930 . S
H1453 C1436 0.930 . S
H1454 C1443 0.930 . S
H1455 C1445 0.930 . S
H1456 C1446 0.930 . S
H1457 C1447 0.930 . S
H1458 C1470 0.930 . S
H1459 C1472 0.930 . S
H1460 C1473 0.930 . S
H1461 C1477 0.959 . S
H1462 C1477 0.959 . S
H1463 C1477 0.961 . S
H1464 C1478 0.960 . S
H1465 C1478 0.961 . S
H1466 C1478 0.959 . S
H1467 C1481 0.929 . S
H1468 C1482 0.931 . S
H1469 C1484 0.930 . S
C1470 H1458 0.930 . S
C1470 C1471 1.399 . S
C1470 C1475 1.399 . S
C1471 C1470 1.399 . S
C1471 C1472 1.376 . S
C1472 H1459 0.930 . S
C1472 C1471 1.376 . S
C1472 C1473 1.388 . S
C1473 H1460 0.930 . S
C1473 C1472 1.388 . S
C1473 C1474 1.390 . S
C1474 C1473 1.390 . S
C1474 C1475 1.394 . S
C1474 C1480 1.465 . S
C1475 C1470 1.399 . S
C1475 C1474 1.394 . S
C1475 C1476 1.516 . S
C1476 C1475 1.516 . S
C1476 C1477 1.502 . S
C1476 C1478 1.561 . S
C1476 C1479 1.526 . S
C1477 H1461 0.959 . S
C1477 H1462 0.959 . S
C1477 H1463 0.961 . S
C1477 C1476 1.502 . S
C1478 H1464 0.960 . S
C1478 H1465 0.961 . S
C1478 H1466 0.959 . S
C1478 C1476 1.561 . S
C1479 C1476 1.526 . S
C1479 C1480 1.396 . S
C1479 C1484 1.390 . S
C1480 C1474 1.465 . S
C1480 C1479 1.396 . S
C1480 C1481 1.399 . S
C1481 H1467 0.929 . S
C1481 C1480 1.399 . S
C1481 C1482 1.385 . S
C1482 H1468 0.931 . S
C1482 C1481 1.385 . S
C1482 C1483 1.389 . S
C1483 C1482 1.389 . S
C1483 C1484 1.387 . S
C1484 H1469 0.930 . S
C1484 C1479 1.390 . S
C1484 C1483 1.387 . S
H1485 C1497 0.930 . S
H1486 C1499 0.930 . S
H1487 C1500 0.930 . S
H1488 C1504 0.959 . S
H1489 C1504 0.959 . S
H1490 C1504 0.961 . S
H1491 C1505 0.960 . S
H1492 C1505 0.961 . S
H1493 C1505 0.959 . S
H1494 C1508 0.929 . S
H1495 C1509 0.931 . S
H1496 C1511 0.930 . S
C1497 H1485 0.930 . S
C1497 C1498 1.399 . S
C1497 C1502 1.399 . S
C1498 C1497 1.399 . S
C1498 C1499 1.376 . S
C1499 H1486 0.930 . S
C1499 C1498 1.376 . S
C1499 C1500 1.388 . S
C1500 H1487 0.930 . S
C1500 C1499 1.388 . S
C1500 C1501 1.390 . S
C1501 C1500 1.390 . S
C1501 C1502 1.394 . S
C1501 C1507 1.465 . S
C1502 C1497 1.399 . S
C1502 C1501 1.394 . S
C1502 C1503 1.516 . S
C1503 C1502 1.516 . S
C1503 C1504 1.502 . S
C1503 C1505 1.561 . S
C1503 C1506 1.526 . S
C1504 H1488 0.959 . S
C1504 H1489 0.959 . S
C1504 H1490 0.961 . S
C1504 C1503 1.502 . S
C1505 H1491 0.960 . S
C1505 H1492 0.961 . S
C1505 H1493 0.959 . S
C1505 C1503 1.561 . S
C1506 C1503 1.526 . S
C1506 C1507 1.396 . S
C1506 C1511 1.390 . S
C1507 C1501 1.465 . S
C1507 C1506 1.396 . S
C1507 C1508 1.399 . S
C1508 H1494 0.929 . S
C1508 C1507 1.399 . S
C1508 C1509 1.385 . S
C1509 H1495 0.931 . S
C1509 C1508 1.385 . S
C1509 C1510 1.389 . S
C1510 C1509 1.389 . S
C1510 C1511 1.387 . S
C1511 H1496 0.930 . S
C1511 C1506 1.390 . S
C1511 C1510 1.387 . S
H1512 C1524 0.930 . S
H1513 C1526 0.930 . S
H1514 C1527 0.930 . S
H1515 C1531 0.959 . S
H1516 C1531 0.959 . S
H1517 C1531 0.961 . S
H1518 C1532 0.960 . S
H1519 C1532 0.961 . S
H1520 C1532 0.959 . S
H1521 C1535 0.929 . S
H1522 C1536 0.911 1_556 S
H1523 C1538 0.930 . S
C1524 H1512 0.930 . S
C1524 C1525 1.399 . S
C1524 C1529 1.399 . S
C1525 C1524 1.399 . S
C1525 C1526 1.376 . S
C1526 H1513 0.930 . S
C1526 C1525 1.376 . S
C1526 C1527 1.388 . S
C1527 H1514 0.930 . S
C1527 C1526 1.388 . S
C1527 C1528 1.390 . S
C1528 C1527 1.390 . S
C1528 C1529 1.394 . S
C1528 C1534 1.465 . S
C1529 C1524 1.399 . S
C1529 C1528 1.394 . S
C1529 C1530 1.516 . S
C1530 C1529 1.516 . S
C1530 C1531 1.502 . S
C1530 C1532 1.561 . S
C1530 C1533 1.526 . S
C1531 H1515 0.959 . S
C1531 H1516 0.959 . S
C1531 H1517 0.961 . S
C1531 C1530 1.502 . S
C1532 H1518 0.960 . S
C1532 H1519 0.961 . S
C1532 H1520 0.959 . S
C1532 C1530 1.561 . S
C1533 C1530 1.526 . S
C1533 C1534 1.396 . S
C1533 C1538 1.390 . S
C1534 C1528 1.465 . S
C1534 C1533 1.396 . S
C1534 C1535 1.399 . S
C1535 H1521 0.929 . S
C1535 C1534 1.399 . S
C1535 C1536 1.385 . S
C1536 H1522 0.911 1_554 S
C1536 C1535 1.385 . S
C1536 C1537 1.389 . S
C1537 C1536 1.389 . S
C1537 C1538 1.387 . S
C1538 H1523 0.930 . S
C1538 C1533 1.390 . S
C1538 C1537 1.387 . S
H1539 C1551 0.930 . S
H1540 C1553 0.930 . S
H1541 C1554 0.930 . S
H1542 C1558 0.959 . S
H1543 C1558 0.959 . S
H1544 C1558 0.961 . S
H1545 C1559 0.960 . S
H1546 C1559 0.961 . S
H1547 C1559 0.959 . S
H1548 C1562 0.929 1_554 S
H1549 C1563 0.923 1_554 S
H1550 C1565 0.930 . S
C1551 H1539 0.930 . S
C1551 C1552 1.399 . S
C1551 C1556 1.399 . S
C1552 C1551 1.399 . S
C1552 C1553 1.376 . S
C1553 H1540 0.930 . S
C1553 C1552 1.376 . S
C1553 C1554 1.388 . S
C1554 H1541 0.930 . S
C1554 C1553 1.388 . S
C1554 C1555 1.390 . S
C1555 C1554 1.390 . S
C1555 C1556 1.394 . S
C1555 C1561 1.465 . S
C1556 C1551 1.399 . S
C1556 C1555 1.394 . S
C1556 C1557 1.516 . S
C1557 C1556 1.516 . S
C1557 C1558 1.502 . S
C1557 C1559 1.561 . S
C1557 C1560 1.526 . S
C1558 H1542 0.959 . S
C1558 H1543 0.959 . S
C1558 H1544 0.961 . S
C1558 C1557 1.502 . S
C1559 H1545 0.960 . S
C1559 H1546 0.961 . S
C1559 H1547 0.959 . S
C1559 C1557 1.561 . S
C1560 C1557 1.526 . S
C1560 C1561 1.396 . S
C1560 C1565 1.390 . S
C1561 C1555 1.465 . S
C1561 C1560 1.396 . S
C1561 C1562 1.399 . S
C1562 H1548 0.929 1_556 S
C1562 C1561 1.399 . S
C1562 C1563 1.386 . S
C1563 H1549 0.923 1_556 S
C1563 C1562 1.386 . S
C1563 C1564 1.396 . S
C1564 C1563 1.396 . S
C1564 C1565 1.387 . S
C1565 H1550 0.930 . S
C1565 C1560 1.390 . S
C1565 C1564 1.387 . S
H1566 C1578 0.930 . S
H1567 C1580 0.930 . S
H1568 C1581 0.930 . S
H1569 C1585 0.959 . S
H1570 C1585 0.959 . S
H1571 C1585 0.961 . S
H1572 C1586 0.960 . S
H1573 C1586 0.961 . S
H1574 C1586 0.959 . S
H1575 C1589 0.929 . S
H1576 C1590 0.931 1_554 S
H1577 C1592 0.930 . S
C1578 H1566 0.930 . S
C1578 C1579 1.399 . S
C1578 C1583 1.399 . S
C1579 C1578 1.399 . S
C1579 C1580 1.376 . S
C1580 H1567 0.930 . S
C1580 C1579 1.376 . S
C1580 C1581 1.388 . S
C1581 H1568 0.930 . S
C1581 C1580 1.388 . S
C1581 C1582 1.390 . S
C1582 C1581 1.390 . S
C1582 C1583 1.394 . S
C1582 C1588 1.465 . S
C1583 C1578 1.399 . S
C1583 C1582 1.394 . S
C1583 C1584 1.516 . S
C1584 C1583 1.516 . S
C1584 C1585 1.502 . S
C1584 C1586 1.561 . S
C1584 C1587 1.526 . S
C1585 H1569 0.959 . S
C1585 H1570 0.959 . S
C1585 H1571 0.961 . S
C1585 C1584 1.502 . S
C1586 H1572 0.960 . S
C1586 H1573 0.961 . S
C1586 H1574 0.959 . S
C1586 C1584 1.561 . S
C1587 C1584 1.526 . S
C1587 C1588 1.396 . S
C1587 C1592 1.390 . S
C1588 C1582 1.465 . S
C1588 C1587 1.396 . S
C1588 C1589 1.399 . S
C1589 H1575 0.929 . S
C1589 C1588 1.399 . S
C1589 C1590 1.385 . S
C1590 H1576 0.931 1_556 S
C1590 C1589 1.385 . S
C1590 C1591 1.389 . S
C1591 C1590 1.389 . S
C1591 C1592 1.387 . S
C1592 H1577 0.930 . S
C1592 C1587 1.390 . S
C1592 C1591 1.387 . S
H1593 C1605 0.930 . S
H1594 C1607 0.930 . S
H1595 C1608 0.930 . S
H1596 C1612 0.959 . S
H1597 C1612 0.959 . S
H1598 C1612 0.961 . S
H1599 C1613 0.960 . S
H1600 C1613 0.961 . S
H1601 C1613 0.959 . S
H1602 C1616 0.929 . S
H1603 C1617 0.931 . S
H1604 C1619 0.930 . S
C1605 H1593 0.930 . S
C1605 C1606 1.399 . S
C1605 C1610 1.399 . S
C1606 C1605 1.399 . S
C1606 C1607 1.376 . S
C1607 H1594 0.930 . S
C1607 C1606 1.376 . S
C1607 C1608 1.388 . S
C1608 H1595 0.930 . S
C1608 C1607 1.388 . S
C1608 C1609 1.390 . S
C1609 C1608 1.390 . S
C1609 C1610 1.394 . S
C1609 C1615 1.465 . S
C1610 C1605 1.399 . S
C1610 C1609 1.394 . S
C1610 C1611 1.516 . S
C1611 C1610 1.516 . S
C1611 C1612 1.502 . S
C1611 C1613 1.561 1_556 S
C1611 C1614 1.526 . S
C1612 H1596 0.959 . S
C1612 H1597 0.959 . S
C1612 H1598 0.961 . S
C1612 C1611 1.502 . S
C1613 H1599 0.960 . S
C1613 H1600 0.961 . S
C1613 H1601 0.959 . S
C1613 C1611 1.561 1_554 S
C1614 C1611 1.526 . S
C1614 C1615 1.396 . S
C1614 C1619 1.390 . S
C1615 C1609 1.465 . S
C1615 C1614 1.396 . S
C1615 C1616 1.399 . S
C1616 H1602 0.929 . S
C1616 C1615 1.399 . S
C1616 C1617 1.385 . S
C1617 H1603 0.931 . S
C1617 C1616 1.385 . S
C1617 C1618 1.389 . S
C1618 C1617 1.389 . S
C1618 C1619 1.387 . S
C1619 H1604 0.930 . S
C1619 C1614 1.390 . S
C1619 C1618 1.387 . S
H1620 C1632 0.930 . S
H1621 C1634 0.930 . S
H1622 C1635 0.930 . S
H1623 C1639 0.959 . S
H1624 C1639 0.959 . S
H1625 C1639 0.961 . S
H1626 C1640 0.960 . S
H1627 C1640 0.961 . S
H1628 C1640 0.959 . S
H1629 C1643 0.929 1_554 S
H1630 C1644 0.931 . S
H1631 C1646 0.930 . S
C1632 H1620 0.930 . S
C1632 C1633 1.399 . S
C1632 C1637 1.399 . S
C1633 C1632 1.399 . S
C1633 C1634 1.376 . S
C1634 H1621 0.930 . S
C1634 C1633 1.376 . S
C1634 C1635 1.388 . S
C1635 H1622 0.930 . S
C1635 C1634 1.388 . S
C1635 C1636 1.390 . S
C1636 C1635 1.390 . S
C1636 C1637 1.394 . S
C1636 C1642 1.465 . S
C1637 C1632 1.399 . S
C1637 C1636 1.394 . S
C1637 C1638 1.516 . S
C1638 C1637 1.516 . S
C1638 C1639 1.502 . S
C1638 C1640 1.561 . S
C1638 C1641 1.526 . S
C1639 H1623 0.959 . S
C1639 H1624 0.959 . S
C1639 H1625 0.961 . S
C1639 C1638 1.502 . S
C1640 H1626 0.960 . S
C1640 H1627 0.961 . S
C1640 H1628 0.959 . S
C1640 C1638 1.561 . S
C1641 C1638 1.526 . S
C1641 C1642 1.396 . S
C1641 C1646 1.390 . S
C1642 C1636 1.465 . S
C1642 C1641 1.396 . S
C1642 C1643 1.399 . S
C1643 H1629 0.929 1_556 S
C1643 C1642 1.399 . S
C1643 C1644 1.385 1_556 S
C1644 H1630 0.931 . S
C1644 C1643 1.385 1_554 S
C1644 C1645 1.389 1_554 S
C1645 C1644 1.389 1_556 S
C1645 C1646 1.387 . S
C1646 H1631 0.930 . S
C1646 C1641 1.390 . S
C1646 C1645 1.387 . S
H1647 C1659 0.930 . S
H1648 C1661 0.930 . S
H1649 C1662 0.930 . S
H1650 C1666 0.959 . S
H1651 C1666 0.959 . S
H1652 C1666 0.961 . S
H1653 C1667 0.960 . S
H1654 C1667 0.961 . S
H1655 C1667 0.959 . S
H1656 C1670 0.929 . S
H1657 C1671 0.931 . S
H1658 C1673 0.930 . S
C1659 H1647 0.930 . S
C1659 C1660 1.399 . S
C1659 C1664 1.399 . S
C1660 C1659 1.399 . S
C1660 C1661 1.376 . S
C1661 H1648 0.930 . S
C1661 C1660 1.376 . S
C1661 C1662 1.388 . S
C1662 H1649 0.930 . S
C1662 C1661 1.388 . S
C1662 C1663 1.390 . S
C1663 C1662 1.390 . S
C1663 C1664 1.394 . S
C1663 C1669 1.465 . S
C1664 C1659 1.399 . S
C1664 C1663 1.394 . S
C1664 C1665 1.516 . S
C1665 C1664 1.516 . S
C1665 C1666 1.502 . S
C1665 C1667 1.561 . S
C1665 C1668 1.526 . S
C1666 H1650 0.959 . S
C1666 H1651 0.959 . S
C1666 H1652 0.961 . S
C1666 C1665 1.502 . S
C1667 H1653 0.960 . S
C1667 H1654 0.961 . S
C1667 H1655 0.959 . S
C1667 C1665 1.561 . S
C1668 C1665 1.526 . S
C1668 C1669 1.396 . S
C1668 C1673 1.390 . S
C1669 C1663 1.465 . S
C1669 C1668 1.396 . S
C1669 C1670 1.399 . S
C1670 H1656 0.929 . S
C1670 C1669 1.399 . S
C1670 C1671 1.385 . S
C1671 H1657 0.931 . S
C1671 C1670 1.385 . S
C1671 C1672 1.389 . S
C1672 C1671 1.389 . S
C1672 C1673 1.387 . S
C1673 H1658 0.930 . S
C1673 C1668 1.390 . S
C1673 C1672 1.387 . S
H1674 C1686 0.930 . S
H1675 C1688 0.930 . S
H1676 C1689 0.930 . S
H1677 C1693 0.970 . S
H1678 C1693 0.944 1_554 S
H1679 C1693 0.957 1_554 S
H1680 C1694 0.978 . S
H1681 C1694 1.020 . S
H1682 C1694 0.927 1_556 S
H1683 C1697 0.929 . S
H1684 C1698 0.931 . S
H1685 C1700 0.930 1_554 S
C1686 H1674 0.930 . S
C1686 C1687 1.399 . S
C1686 C1691 1.399 . S
C1687 C1686 1.399 . S
C1687 C1688 1.376 . S
C1688 H1675 0.930 . S
C1688 C1687 1.376 . S
C1688 C1689 1.388 . S
C1689 H1676 0.930 . S
C1689 C1688 1.388 . S
C1689 C1690 1.390 . S
C1690 C1689 1.390 . S
C1690 C1691 1.394 . S
C1690 C1696 1.465 . S
C1691 C1686 1.399 . S
C1691 C1690 1.394 . S
C1691 C1692 1.516 . S
C1692 C1691 1.516 . S
C1692 C1693 1.511 . S
C1692 C1694 1.522 1_556 S
C1692 C1695 1.526 . S
C1693 H1677 0.970 . S
C1693 H1678 0.944 1_556 S
C1693 H1679 0.957 1_556 S
C1693 C1692 1.511 . S
C1694 H1680 0.978 . S
C1694 H1681 1.020 . S
C1694 H1682 0.927 1_554 S
C1694 C1692 1.522 1_554 S
C1695 C1692 1.526 . S
C1695 C1696 1.396 . S
C1695 C1700 1.390 . S
C1696 C1690 1.465 . S
C1696 C1695 1.396 . S
C1696 C1697 1.399 . S
C1697 H1683 0.929 . S
C1697 C1696 1.399 . S
C1697 C1698 1.385 . S
C1698 H1684 0.931 . S
C1698 C1697 1.385 . S
C1698 C1699 1.389 . S
C1699 C1698 1.389 . S
C1699 C1700 1.387 . S
C1700 H1685 0.930 1_556 S
C1700 C1695 1.390 . S
C1700 C1699 1.387 . S
H1701 C1713 0.930 . S
H1702 C1715 0.930 . S
H1703 C1716 0.930 . S
H1704 C1720 0.959 . S
H1705 C1720 0.959 . S
H1706 C1720 0.961 . S
H1707 C1721 0.960 . S
H1708 C1721 0.961 1_556 S
H1709 C1721 0.959 . S
H1710 C1724 0.929 . S
H1711 C1725 0.931 . S
H1712 C1727 0.930 . S
C1713 H1701 0.930 . S
C1713 C1714 1.399 . S
C1713 C1718 1.399 . S
C1714 C1713 1.399 . S
C1714 C1715 1.376 . S
C1715 H1702 0.930 . S
C1715 C1714 1.376 . S
C1715 C1716 1.388 . S
C1716 H1703 0.930 . S
C1716 C1715 1.388 . S
C1716 C1717 1.390 . S
C1717 C1716 1.390 . S
C1717 C1718 1.394 . S
C1717 C1723 1.465 . S
C1718 C1713 1.399 . S
C1718 C1717 1.394 . S
C1718 C1719 1.516 . S
C1719 C1718 1.516 . S
C1719 C1720 1.502 . S
C1719 C1721 1.561 . S
C1719 C1722 1.526 . S
C1720 H1704 0.959 . S
C1720 H1705 0.959 . S
C1720 H1706 0.961 . S
C1720 C1719 1.502 . S
C1721 H1707 0.960 . S
C1721 H1708 0.961 1_554 S
C1721 H1709 0.959 . S
C1721 C1719 1.561 . S
C1722 C1719 1.526 . S
C1722 C1723 1.396 . S
C1722 C1727 1.390 . S
C1723 C1717 1.465 . S
C1723 C1722 1.396 . S
C1723 C1724 1.399 . S
C1724 H1710 0.929 . S
C1724 C1723 1.399 . S
C1724 C1725 1.385 . S
C1725 H1711 0.931 . S
C1725 C1724 1.385 . S
C1725 C1726 1.389 . S
C1726 C1725 1.389 . S
C1726 C1727 1.387 . S
C1727 H1712 0.930 . S
C1727 C1722 1.390 . S
C1727 C1726 1.387 . S
H1728 C1740 0.930 . S
H1729 C1742 0.930 . S
H1730 C1743 0.930 . S
H1731 C1747 0.959 . S
H1732 C1747 0.959 . S
H1733 C1747 0.961 . S
H1734 C1748 0.960 . S
H1735 C1748 0.961 . S
H1736 C1748 0.959 . S
H1737 C1751 0.929 . S
H1738 C1752 0.931 . S
H1739 C1754 0.930 . S
C1740 H1728 0.930 . S
C1740 C1741 1.399 . S
C1740 C1745 1.399 . S
C1741 C1740 1.399 . S
C1741 C1742 1.376 . S
C1742 H1729 0.930 . S
C1742 C1741 1.376 . S
C1742 C1743 1.388 . S
C1743 H1730 0.930 . S
C1743 C1742 1.388 . S
C1743 C1744 1.390 . S
C1744 C1743 1.390 . S
C1744 C1745 1.394 . S
C1744 C1750 1.465 . S
C1745 C1740 1.399 . S
C1745 C1744 1.394 . S
C1745 C1746 1.516 . S
C1746 C1745 1.516 . S
C1746 C1747 1.502 . S
C1746 C1748 1.561 . S
C1746 C1749 1.526 . S
C1747 H1731 0.959 . S
C1747 H1732 0.959 . S
C1747 H1733 0.961 . S
C1747 C1746 1.502 . S
C1748 H1734 0.960 . S
C1748 H1735 0.961 . S
C1748 H1736 0.959 . S
C1748 C1746 1.561 . S
C1749 C1746 1.526 . S
C1749 C1750 1.396 . S
C1749 C1754 1.390 . S
C1750 C1744 1.465 . S
C1750 C1749 1.396 . S
C1750 C1751 1.399 . S
C1751 H1737 0.929 . S
C1751 C1750 1.399 . S
C1751 C1752 1.385 . S
C1752 H1738 0.931 . S
C1752 C1751 1.385 . S
C1752 C1753 1.389 . S
C1753 C1752 1.389 . S
C1753 C1754 1.387 . S
C1754 H1739 0.930 . S
C1754 C1749 1.390 . S
C1754 C1753 1.387 . S
H1755 C1767 0.930 . S
H1756 C1769 0.930 . S
H1757 C1770 0.930 . S
H1758 C1774 0.959 . S
H1759 C1774 0.959 . S
H1760 C1774 0.961 . S
H1761 C1775 0.960 . S
H1762 C1775 0.961 . S
H1763 C1775 0.959 . S
H1764 C1778 0.929 . S
H1765 C1779 0.931 . S
H1766 C1781 0.930 . S
C1767 H1755 0.930 . S
C1767 C1768 1.399 . S
C1767 C1772 1.399 . S
C1768 C1767 1.399 . S
C1768 C1769 1.376 . S
C1769 H1756 0.930 . S
C1769 C1768 1.376 . S
C1769 C1770 1.388 . S
C1770 H1757 0.930 . S
C1770 C1769 1.388 . S
C1770 C1771 1.390 . S
C1771 C1770 1.390 . S
C1771 C1772 1.394 . S
C1771 C1777 1.465 . S
C1772 C1767 1.399 . S
C1772 C1771 1.394 . S
C1772 C1773 1.516 . S
C1773 C1772 1.516 . S
C1773 C1774 1.502 . S
C1773 C1775 1.561 . S
C1773 C1776 1.526 . S
C1774 H1758 0.959 . S
C1774 H1759 0.959 . S
C1774 H1760 0.961 . S
C1774 C1773 1.502 . S
C1775 H1761 0.960 . S
C1775 H1762 0.961 . S
C1775 H1763 0.959 . S
C1775 C1773 1.561 . S
C1776 C1773 1.526 . S
C1776 C1777 1.396 . S
C1776 C1781 1.390 . S
C1777 C1771 1.465 . S
C1777 C1776 1.396 . S
C1777 C1778 1.399 . S
C1778 H1764 0.929 . S
C1778 C1777 1.399 . S
C1778 C1779 1.385 . S
C1779 H1765 0.931 . S
C1779 C1778 1.385 . S
C1779 C1780 1.389 . S
C1780 C1779 1.389 . S
C1780 C1781 1.387 . S
C1781 H1766 0.930 . S
C1781 C1776 1.390 . S
C1781 C1780 1.387 . S
H1782 C1794 0.931 . S
H1783 C1796 0.930 . S
H1784 C1797 0.930 . S
H1785 C1801 0.959 . S
H1786 C1801 0.959 . S
H1787 C1801 0.961 . S
H1788 C1802 0.960 . S
H1789 C1802 0.961 . S
H1790 C1802 0.959 . S
H1791 C1805 0.929 . S
H1792 C1806 0.931 . S
H1793 C1808 0.930 . S
C1794 H1782 0.931 . S
C1794 C1795 1.400 . S
C1794 C1799 1.396 1_655 S
C1795 C1794 1.400 . S
C1795 C1796 1.376 1_655 S
C1796 H1783 0.930 . S
C1796 C1795 1.376 1_455 S
C1796 C1797 1.388 . S
C1797 H1784 0.930 . S
C1797 C1796 1.388 . S
C1797 C1798 1.390 . S
C1798 C1797 1.390 . S
C1798 C1799 1.394 . S
C1798 C1804 1.465 . S
C1799 C1794 1.396 1_455 S
C1799 C1798 1.394 . S
C1799 C1800 1.516 . S
C1800 C1799 1.516 . S
C1800 C1801 1.502 . S
C1800 C1802 1.561 . S
C1800 C1803 1.526 . S
C1801 H1785 0.959 . S
C1801 H1786 0.959 . S
C1801 H1787 0.961 . S
C1801 C1800 1.502 . S
C1802 H1788 0.960 . S
C1802 H1789 0.961 . S
C1802 H1790 0.959 . S
C1802 C1800 1.561 . S
C1803 C1800 1.526 . S
C1803 C1804 1.396 . S
C1803 C1808 1.390 . S
C1804 C1798 1.465 . S
C1804 C1803 1.396 . S
C1804 C1805 1.399 . S
C1805 H1791 0.929 . S
C1805 C1804 1.399 . S
C1805 C1806 1.385 . S
C1806 H1792 0.931 . S
C1806 C1805 1.385 . S
C1806 C1807 1.389 . S
C1807 C1806 1.389 . S
C1807 C1808 1.387 . S
C1808 H1793 0.930 . S
C1808 C1803 1.390 . S
C1808 C1807 1.387 . S
H1809 C1821 0.930 . S
H1810 C1823 0.930 . S
H1811 C1824 0.930 . S
H1812 C1828 0.959 . S
H1813 C1828 0.959 . S
H1814 C1828 0.961 . S
H1815 C1829 0.960 . S
H1816 C1829 0.961 . S
H1817 C1829 0.959 . S
H1818 C1832 0.929 . S
H1819 C1833 0.931 . S
H1820 C1835 0.930 . S
C1821 H1809 0.930 . S
C1821 C1822 1.399 . S
C1821 C1826 1.399 . S
C1822 C1821 1.399 . S
C1822 C1823 1.376 . S
C1823 H1810 0.930 . S
C1823 C1822 1.376 . S
C1823 C1824 1.388 . S
C1824 H1811 0.930 . S
C1824 C1823 1.388 . S
C1824 C1825 1.390 . S
C1825 C1824 1.390 . S
C1825 C1826 1.394 . S
C1825 C1831 1.465 . S
C1826 C1821 1.399 . S
C1826 C1825 1.394 . S
C1826 C1827 1.516 . S
C1827 C1826 1.516 . S
C1827 C1828 1.502 . S
C1827 C1829 1.561 . S
C1827 C1830 1.526 . S
C1828 H1812 0.959 . S
C1828 H1813 0.959 . S
C1828 H1814 0.961 . S
C1828 C1827 1.502 . S
C1829 H1815 0.960 . S
C1829 H1816 0.961 . S
C1829 H1817 0.959 . S
C1829 C1827 1.561 . S
C1830 C1827 1.526 . S
C1830 C1831 1.396 . S
C1830 C1835 1.390 . S
C1831 C1825 1.465 . S
C1831 C1830 1.396 . S
C1831 C1832 1.399 . S
C1832 H1818 0.929 . S
C1832 C1831 1.399 . S
C1832 C1833 1.385 . S
C1833 H1819 0.931 . S
C1833 C1832 1.385 . S
C1833 C1834 1.389 . S
C1834 C1833 1.389 . S
C1834 C1835 1.387 . S
C1835 H1820 0.930 . S
C1835 C1830 1.390 . S
C1835 C1834 1.387 . S
H1836 C1848 0.930 . S
H1837 C1850 0.930 . S
H1838 C1851 0.930 . S
H1839 C1855 0.959 . S
H1840 C1855 0.959 . S
H1841 C1855 0.961 . S
H1842 C1856 0.960 . S
H1843 C1856 0.961 . S
H1844 C1856 0.959 . S
H1845 C1859 0.929 . S
H1846 C1860 0.931 . S
H1847 C1862 0.930 . S
C1848 H1836 0.930 . S
C1848 C1849 1.399 1_565 S
C1848 C1853 1.399 . S
C1849 C1848 1.399 1_545 S
C1849 C1850 1.376 . S
C1850 H1837 0.930 . S
C1850 C1849 1.376 . S
C1850 C1851 1.388 1_545 S
C1851 H1838 0.930 . S
C1851 C1850 1.388 1_565 S
C1851 C1852 1.390 . S
C1852 C1851 1.390 . S
C1852 C1853 1.394 . S
C1852 C1858 1.465 . S
C1853 C1848 1.399 . S
C1853 C1852 1.394 . S
C1853 C1854 1.516 . S
C1854 C1853 1.516 . S
C1854 C1855 1.502 . S
C1854 C1856 1.561 . S
C1854 C1857 1.526 . S
C1855 H1839 0.959 . S
C1855 H1840 0.959 . S
C1855 H1841 0.961 . S
C1855 C1854 1.502 . S
C1856 H1842 0.960 . S
C1856 H1843 0.961 . S
C1856 H1844 0.959 . S
C1856 C1854 1.561 . S
C1857 C1854 1.526 . S
C1857 C1858 1.396 . S
C1857 C1862 1.390 . S
C1858 C1852 1.465 . S
C1858 C1857 1.396 . S
C1858 C1859 1.399 . S
C1859 H1845 0.929 . S
C1859 C1858 1.399 . S
C1859 C1860 1.385 . S
C1860 H1846 0.931 . S
C1860 C1859 1.385 . S
C1860 C1861 1.389 . S
C1861 C1860 1.389 . S
C1861 C1862 1.387 . S
C1862 H1847 0.930 . S
C1862 C1857 1.390 . S
C1862 C1861 1.387 . S
H1863 C1875 0.930 . S
H1864 C1877 0.930 . S
H1865 C1878 0.930 . S
H1866 C1882 0.959 . S
H1867 C1882 0.959 . S
H1868 C1882 0.961 . S
H1869 C1883 0.960 . S
H1870 C1883 0.961 . S
H1871 C1883 0.959 . S
H1872 C1886 0.929 . S
H1873 C1887 0.931 . S
H1874 C1889 0.930 . S
C1875 H1863 0.930 . S
C1875 C1876 1.399 . S
C1875 C1880 1.399 . S
C1876 C1875 1.399 . S
C1876 C1877 1.376 . S
C1877 H1864 0.930 . S
C1877 C1876 1.376 . S
C1877 C1878 1.388 . S
C1878 H1865 0.930 . S
C1878 C1877 1.388 . S
C1878 C1879 1.390 . S
C1879 C1878 1.390 . S
C1879 C1880 1.394 . S
C1879 C1885 1.465 . S
C1880 C1875 1.399 . S
C1880 C1879 1.394 . S
C1880 C1881 1.516 . S
C1881 C1880 1.516 . S
C1881 C1882 1.502 . S
C1881 C1883 1.561 . S
C1881 C1884 1.526 . S
C1882 H1866 0.959 . S
C1882 H1867 0.959 . S
C1882 H1868 0.961 . S
C1882 C1881 1.502 . S
C1883 H1869 0.960 . S
C1883 H1870 0.961 . S
C1883 H1871 0.959 . S
C1883 C1881 1.561 . S
C1884 C1881 1.526 . S
C1884 C1885 1.396 . S
C1884 C1889 1.390 . S
C1885 C1879 1.465 . S
C1885 C1884 1.396 . S
C1885 C1886 1.399 . S
C1886 H1872 0.929 . S
C1886 C1885 1.399 . S
C1886 C1887 1.385 . S
C1887 H1873 0.931 . S
C1887 C1886 1.385 . S
C1887 C1888 1.389 . S
C1888 C1887 1.389 . S
C1888 C1889 1.387 . S
C1889 H1874 0.930 . S
C1889 C1884 1.390 . S
C1889 C1888 1.387 . S
H1890 C1902 0.930 . S
H1891 C1904 0.930 . S
H1892 C1905 0.930 . S
H1893 C1909 0.959 . S
H1894 C1909 0.959 . S
H1895 C1909 0.961 . S
H1896 C1910 0.960 . S
H1897 C1910 0.961 . S
H1898 C1910 0.959 . S
H1899 C1913 0.929 . S
H1900 C1914 0.931 . S
H1901 C1916 0.930 . S
C1902 H1890 0.930 . S
C1902 C1903 1.399 . S
C1902 C1907 1.399 . S
C1903 C1902 1.399 . S
C1903 C1904 1.376 . S
C1904 H1891 0.930 . S
C1904 C1903 1.376 . S
C1904 C1905 1.388 . S
C1905 H1892 0.930 . S
C1905 C1904 1.388 . S
C1905 C1906 1.390 . S
C1906 C1905 1.390 . S
C1906 C1907 1.394 . S
C1906 C1912 1.465 . S
C1907 C1902 1.399 . S
C1907 C1906 1.394 . S
C1907 C1908 1.516 . S
C1908 C1907 1.516 . S
C1908 C1909 1.502 . S
C1908 C1910 1.561 . S
C1908 C1911 1.526 . S
C1909 H1893 0.959 . S
C1909 H1894 0.959 . S
C1909 H1895 0.961 . S
C1909 C1908 1.502 . S
C1910 H1896 0.960 . S
C1910 H1897 0.961 . S
C1910 H1898 0.959 . S
C1910 C1908 1.561 . S
C1911 C1908 1.526 . S
C1911 C1912 1.396 . S
C1911 C1916 1.390 . S
C1912 C1906 1.465 . S
C1912 C1911 1.396 . S
C1912 C1913 1.399 . S
C1913 H1899 0.929 . S
C1913 C1912 1.399 . S
C1913 C1914 1.385 . S
C1914 H1900 0.931 . S
C1914 C1913 1.385 . S
C1914 C1915 1.389 . S
C1915 C1914 1.389 . S
C1915 C1916 1.387 . S
C1916 H1901 0.930 . S
C1916 C1911 1.390 . S
C1916 C1915 1.387 . S
H1917 C1929 0.930 . S
H1918 C1931 0.930 . S
H1919 C1932 0.930 . S
H1920 C1936 0.959 . S
H1921 C1936 0.959 . S
H1922 C1936 0.961 . S
H1923 C1937 0.960 . S
H1924 C1937 0.961 . S
H1925 C1937 0.959 . S
H1926 C1940 0.929 . S
H1927 C1941 0.931 . S
H1928 C1943 0.930 . S
C1929 H1917 0.930 . S
C1929 C1930 1.399 . S
C1929 C1934 1.399 . S
C1930 C1929 1.399 . S
C1930 C1931 1.376 . S
C1931 H1918 0.930 . S
C1931 C1930 1.376 . S
C1931 C1932 1.388 . S
C1932 H1919 0.930 . S
C1932 C1931 1.388 . S
C1932 C1933 1.390 . S
C1933 C1932 1.390 . S
C1933 C1934 1.394 . S
C1933 C1939 1.465 . S
C1934 C1929 1.399 . S
C1934 C1933 1.394 . S
C1934 C1935 1.516 . S
C1935 C1934 1.516 . S
C1935 C1936 1.502 . S
C1935 C1937 1.561 . S
C1935 C1938 1.526 . S
C1936 H1920 0.959 . S
C1936 H1921 0.959 . S
C1936 H1922 0.961 . S
C1936 C1935 1.502 . S
C1937 H1923 0.960 . S
C1937 H1924 0.961 . S
C1937 H1925 0.959 . S
C1937 C1935 1.561 . S
C1938 C1935 1.526 . S
C1938 C1939 1.396 . S
C1938 C1943 1.390 . S
C1939 C1933 1.465 . S
C1939 C1938 1.396 . S
C1939 C1940 1.399 . S
C1940 H1926 0.929 . S
C1940 C1939 1.399 . S
C1940 C1941 1.385 . S
C1941 H1927 0.931 . S
C1941 C1940 1.385 . S
C1941 C1942 1.389 . S
C1942 C1941 1.389 . S
C1942 C1943 1.387 . S
C1943 H1928 0.930 . S
C1943 C1938 1.390 . S
C1943 C1942 1.387 . S
H1944 C1956 0.930 . S
H1945 C1958 0.930 . S
H1946 C1959 0.930 . S
H1947 C1963 0.959 . S
H1948 C1963 0.959 . S
H1949 C1963 0.961 . S
H1950 C1964 0.960 . S
H1951 C1964 0.961 . S
H1952 C1964 0.959 . S
H1953 C1967 0.929 . S
H1954 C1968 0.931 . S
H1955 C1970 0.930 . S
C1956 H1944 0.930 . S
C1956 C1957 1.399 . S
C1956 C1961 1.399 . S
C1957 C1956 1.399 . S
C1957 C1958 1.376 . S
C1958 H1945 0.930 . S
C1958 C1957 1.376 . S
C1958 C1959 1.388 . S
C1959 H1946 0.930 . S
C1959 C1958 1.388 . S
C1959 C1960 1.390 . S
C1960 C1959 1.390 . S
C1960 C1961 1.394 . S
C1960 C1966 1.465 . S
C1961 C1956 1.399 . S
C1961 C1960 1.394 . S
C1961 C1962 1.516 . S
C1962 C1961 1.516 . S
C1962 C1963 1.502 . S
C1962 C1964 1.561 . S
C1962 C1965 1.526 . S
C1963 H1947 0.959 . S
C1963 H1948 0.959 . S
C1963 H1949 0.961 . S
C1963 C1962 1.502 . S
C1964 H1950 0.960 . S
C1964 H1951 0.961 . S
C1964 H1952 0.959 . S
C1964 C1962 1.561 . S
C1965 C1962 1.526 . S
C1965 C1966 1.396 . S
C1965 C1970 1.390 . S
C1966 C1960 1.465 . S
C1966 C1965 1.396 . S
C1966 C1967 1.399 . S
C1967 H1953 0.929 . S
C1967 C1966 1.399 . S
C1967 C1968 1.385 . S
C1968 H1954 0.931 . S
C1968 C1967 1.385 . S
C1968 C1969 1.389 . S
C1969 C1968 1.389 . S
C1969 C1970 1.387 . S
C1970 H1955 0.930 . S
C1970 C1965 1.390 . S
C1970 C1969 1.387 . S
H1971 C1983 0.930 . S
H1972 C1985 0.930 . S
H1973 C1986 0.930 . S
H1974 C1990 0.959 . S
H1975 C1990 0.959 . S
H1976 C1990 0.961 . S
H1977 C1991 0.960 . S
H1978 C1991 0.961 . S
H1979 C1991 0.959 . S
H1980 C1994 0.929 . S
H1981 C1995 0.931 . S
H1982 C1997 0.930 . S
C1983 H1971 0.930 . S
C1983 C1984 1.399 . S
C1983 C1988 1.399 . S
C1984 C1983 1.399 . S
C1984 C1985 1.376 . S
C1985 H1972 0.930 . S
C1985 C1984 1.376 . S
C1985 C1986 1.388 . S
C1986 H1973 0.930 . S
C1986 C1985 1.388 . S
C1986 C1987 1.390 . S
C1987 C1986 1.390 . S
C1987 C1988 1.394 . S
C1987 C1993 1.465 . S
C1988 C1983 1.399 . S
C1988 C1987 1.394 . S
C1988 C1989 1.516 . S
C1989 C1988 1.516 . S
C1989 C1990 1.502 . S
C1989 C1991 1.561 . S
C1989 C1992 1.526 . S
C1990 H1974 0.959 . S
C1990 H1975 0.959 . S
C1990 H1976 0.961 . S
C1990 C1989 1.502 . S
C1991 H1977 0.960 . S
C1991 H1978 0.961 . S
C1991 H1979 0.959 . S
C1991 C1989 1.561 . S
C1992 C1989 1.526 . S
C1992 C1993 1.396 . S
C1992 C1997 1.390 . S
C1993 C1987 1.465 . S
C1993 C1992 1.396 . S
C1993 C1994 1.399 . S
C1994 H1980 0.929 . S
C1994 C1993 1.399 . S
C1994 C1995 1.385 . S
C1995 H1981 0.931 . S
C1995 C1994 1.385 . S
C1995 C1996 1.389 . S
C1996 C1995 1.389 . S
C1996 C1997 1.387 . S
C1997 H1982 0.930 . S
C1997 C1992 1.390 . S
C1997 C1996 1.387 . S
H1998 C2010 0.930 . S
H1999 C2012 0.930 . S
H2000 C2013 0.930 . S
H2001 C2017 0.959 . S
H2002 C2017 0.959 . S
H2003 C2017 0.961 . S
H2004 C2018 0.960 . S
H2005 C2018 0.961 . S
H2006 C2018 0.959 . S
H2007 C2021 0.929 . S
H2008 C2022 0.931 . S
H2009 C2024 0.930 . S
C2010 H1998 0.930 . S
C2010 C2011 1.399 . S
C2010 C2015 1.399 . S
C2011 C2010 1.399 . S
C2011 C2012 1.376 . S
C2012 H1999 0.930 . S
C2012 C2011 1.376 . S
C2012 C2013 1.388 . S
C2013 H2000 0.930 . S
C2013 C2012 1.388 . S
C2013 C2014 1.390 . S
C2014 C2013 1.390 . S
C2014 C2015 1.394 . S
C2014 C2020 1.465 . S
C2015 C2010 1.399 . S
C2015 C2014 1.394 . S
C2015 C2016 1.516 . S
C2016 C2015 1.516 . S
C2016 C2017 1.502 . S
C2016 C2018 1.561 . S
C2016 C2019 1.526 . S
C2017 H2001 0.959 . S
C2017 H2002 0.959 . S
C2017 H2003 0.961 . S
C2017 C2016 1.502 . S
C2018 H2004 0.960 . S
C2018 H2005 0.961 . S
C2018 H2006 0.959 . S
C2018 C2016 1.561 . S
C2019 C2016 1.526 . S
C2019 C2020 1.396 . S
C2019 C2024 1.390 . S
C2020 C2014 1.465 . S
C2020 C2019 1.396 . S
C2020 C2021 1.399 . S
C2021 H2007 0.929 . S
C2021 C2020 1.399 . S
C2021 C2022 1.385 . S
C2022 H2008 0.931 . S
C2022 C2021 1.385 . S
C2022 C2023 1.389 . S
C2023 C2022 1.389 . S
C2023 C2024 1.387 . S
C2024 H2009 0.930 . S
C2024 C2019 1.390 . S
C2024 C2023 1.387 . S
H2025 C2037 0.930 . S
H2026 C2039 0.930 1_545 S
H2027 C2040 0.930 . S
H2028 C2044 0.959 . S
H2029 C2044 0.959 . S
H2030 C2044 0.961 . S
H2031 C2045 0.960 . S
H2032 C2045 0.961 . S
H2033 C2045 0.959 . S
H2034 C2048 0.929 . S
H2035 C2049 0.931 . S
H2036 C2051 0.930 . S
C2037 H2025 0.930 . S
C2037 C2038 1.399 . S
C2037 C2042 1.399 1_545 S
C2038 C2037 1.399 . S
C2038 C2039 1.376 1_545 S
C2039 H2026 0.930 1_565 S
C2039 C2038 1.376 1_565 S
C2039 C2040 1.388 . S
C2040 H2027 0.930 . S
C2040 C2039 1.388 . S
C2040 C2041 1.390 . S
C2041 C2040 1.390 . S
C2041 C2042 1.394 . S
C2041 C2047 1.465 . S
C2042 C2037 1.399 1_565 S
C2042 C2041 1.394 . S
C2042 C2043 1.516 . S
C2043 C2042 1.516 . S
C2043 C2044 1.502 . S
C2043 C2045 1.561 . S
C2043 C2046 1.526 . S
C2044 H2028 0.959 . S
C2044 H2029 0.959 . S
C2044 H2030 0.961 . S
C2044 C2043 1.502 . S
C2045 H2031 0.960 . S
C2045 H2032 0.961 . S
C2045 H2033 0.959 . S
C2045 C2043 1.561 . S
C2046 C2043 1.526 . S
C2046 C2047 1.396 . S
C2046 C2051 1.390 . S
C2047 C2041 1.465 . S
C2047 C2046 1.396 . S
C2047 C2048 1.399 . S
C2048 H2034 0.929 . S
C2048 C2047 1.399 . S
C2048 C2049 1.385 . S
C2049 H2035 0.931 . S
C2049 C2048 1.385 . S
C2049 C2050 1.389 . S
C2050 C2049 1.389 . S
C2050 C2051 1.387 . S
C2051 H2036 0.930 . S
C2051 C2046 1.390 . S
C2051 C2050 1.387 . S
H2052 C2064 0.930 1_655 S
H2053 C2066 0.930 . S
H2054 C2067 0.930 . S
H2055 C2071 0.959 . S
H2056 C2071 0.959 . S
H2057 C2071 0.961 . S
H2058 C2072 0.960 . S
H2059 C2072 0.961 . S
H2060 C2072 0.959 . S
H2061 C2075 0.929 . S
H2062 C2076 0.931 . S
H2063 C2078 0.930 . S
C2064 H2052 0.930 1_455 S
C2064 C2065 1.399 1_455 S
C2064 C2069 1.399 . S
C2065 C2064 1.399 1_655 S
C2065 C2066 1.376 1_655 S
C2066 H2053 0.930 . S
C2066 C2065 1.376 1_455 S
C2066 C2067 1.388 . S
C2067 H2054 0.930 . S
C2067 C2066 1.388 . S
C2067 C2068 1.390 . S
C2068 C2067 1.390 . S
C2068 C2069 1.394 . S
C2068 C2074 1.465 . S
C2069 C2064 1.399 . S
C2069 C2068 1.394 . S
C2069 C2070 1.516 . S
C2070 C2069 1.516 . S
C2070 C2071 1.502 . S
C2070 C2072 1.561 . S
C2070 C2073 1.526 . S
C2071 H2055 0.959 . S
C2071 H2056 0.959 . S
C2071 H2057 0.961 . S
C2071 C2070 1.502 . S
C2072 H2058 0.960 . S
C2072 H2059 0.961 . S
C2072 H2060 0.959 . S
C2072 C2070 1.561 . S
C2073 C2070 1.526 . S
C2073 C2074 1.396 . S
C2073 C2078 1.390 . S
C2074 C2068 1.465 . S
C2074 C2073 1.396 . S
C2074 C2075 1.399 . S
C2075 H2061 0.929 . S
C2075 C2074 1.399 . S
C2075 C2076 1.385 . S
C2076 H2062 0.931 . S
C2076 C2075 1.385 . S
C2076 C2077 1.389 . S
C2077 C2076 1.389 . S
C2077 C2078 1.387 . S
C2078 H2063 0.930 . S
C2078 C2073 1.390 . S
C2078 C2077 1.387 . S
H2079 C2091 0.930 . S
H2080 C2093 0.930 . S
H2081 C2094 0.930 . S
H2082 C2098 0.959 . S
H2083 C2098 0.959 . S
H2084 C2098 0.961 . S
H2085 C2099 0.960 . S
H2086 C2099 0.961 . S
H2087 C2099 0.959 . S
H2088 C2102 0.929 . S
H2089 C2103 0.931 . S
H2090 C2105 0.930 . S
C2091 H2079 0.930 . S
C2091 C2092 1.399 . S
C2091 C2096 1.399 . S
C2092 C2091 1.399 . S
C2092 C2093 1.376 . S
C2093 H2080 0.930 . S
C2093 C2092 1.376 . S
C2093 C2094 1.388 . S
C2094 H2081 0.930 . S
C2094 C2093 1.388 . S
C2094 C2095 1.390 . S
C2095 C2094 1.390 . S
C2095 C2096 1.394 . S
C2095 C2101 1.465 . S
C2096 C2091 1.399 . S
C2096 C2095 1.394 . S
C2096 C2097 1.516 . S
C2097 C2096 1.516 . S
C2097 C2098 1.502 . S
C2097 C2099 1.561 . S
C2097 C2100 1.526 . S
C2098 H2082 0.959 . S
C2098 H2083 0.959 . S
C2098 H2084 0.961 . S
C2098 C2097 1.502 . S
C2099 H2085 0.960 . S
C2099 H2086 0.961 . S
C2099 H2087 0.959 . S
C2099 C2097 1.561 . S
C2100 C2097 1.526 . S
C2100 C2101 1.396 . S
C2100 C2105 1.390 . S
C2101 C2095 1.465 . S
C2101 C2100 1.396 . S
C2101 C2102 1.399 . S
C2102 H2088 0.929 . S
C2102 C2101 1.399 . S
C2102 C2103 1.385 . S
C2103 H2089 0.931 . S
C2103 C2102 1.385 . S
C2103 C2104 1.389 . S
C2104 C2103 1.389 . S
C2104 C2105 1.387 . S
C2105 H2090 0.930 . S
C2105 C2100 1.390 . S
C2105 C2104 1.387 . S
H2106 C2118 0.930 . S
H2107 C2120 0.930 . S
H2108 C2121 0.930 . S
H2109 C2125 0.959 . S
H2110 C2125 0.959 . S
H2111 C2125 0.961 . S
H2112 C2126 0.960 . S
H2113 C2126 0.961 . S
H2114 C2126 0.959 . S
H2115 C2129 0.929 . S
H2116 C2130 0.931 . S
H2117 C2132 0.930 . S
C2118 H2106 0.930 . S
C2118 C2119 1.399 . S
C2118 C2123 1.399 . S
C2119 C2118 1.399 . S
C2119 C2120 1.376 . S
C2120 H2107 0.930 . S
C2120 C2119 1.376 . S
C2120 C2121 1.388 . S
C2121 H2108 0.930 . S
C2121 C2120 1.388 . S
C2121 C2122 1.390 . S
C2122 C2121 1.390 . S
C2122 C2123 1.394 . S
C2122 C2128 1.465 . S
C2123 C2118 1.399 . S
C2123 C2122 1.394 . S
C2123 C2124 1.516 . S
C2124 C2123 1.516 . S
C2124 C2125 1.502 . S
C2124 C2126 1.561 . S
C2124 C2127 1.526 . S
C2125 H2109 0.959 . S
C2125 H2110 0.959 . S
C2125 H2111 0.961 . S
C2125 C2124 1.502 . S
C2126 H2112 0.960 . S
C2126 H2113 0.961 . S
C2126 H2114 0.959 . S
C2126 C2124 1.561 . S
C2127 C2124 1.526 . S
C2127 C2128 1.396 . S
C2127 C2132 1.390 . S
C2128 C2122 1.465 . S
C2128 C2127 1.396 . S
C2128 C2129 1.399 . S
C2129 H2115 0.929 . S
C2129 C2128 1.399 . S
C2129 C2130 1.385 . S
C2130 H2116 0.931 . S
C2130 C2129 1.385 . S
C2130 C2131 1.389 . S
C2131 C2130 1.389 . S
C2131 C2132 1.387 . S
C2132 H2117 0.930 . S
C2132 C2127 1.390 . S
C2132 C2131 1.387 . S
H2133 C2145 0.930 . S
H2134 C2147 0.930 . S
H2135 C2148 0.930 . S
H2136 C2152 0.959 . S
H2137 C2152 0.959 . S
H2138 C2152 0.961 . S
H2139 C2153 0.960 . S
H2140 C2153 0.961 . S
H2141 C2153 0.959 . S
H2142 C2156 0.929 . S
H2143 C2157 0.931 . S
H2144 C2159 0.930 . S
C2145 H2133 0.930 . S
C2145 C2146 1.399 . S
C2145 C2150 1.399 . S
C2146 C2145 1.399 . S
C2146 C2147 1.376 . S
C2147 H2134 0.930 . S
C2147 C2146 1.376 . S
C2147 C2148 1.388 . S
C2148 H2135 0.930 . S
C2148 C2147 1.388 . S
C2148 C2149 1.390 . S
C2149 C2148 1.390 . S
C2149 C2150 1.394 . S
C2149 C2155 1.465 . S
C2150 C2145 1.399 . S
C2150 C2149 1.394 . S
C2150 C2151 1.516 . S
C2151 C2150 1.516 . S
C2151 C2152 1.502 . S
C2151 C2153 1.561 . S
C2151 C2154 1.526 . S
C2152 H2136 0.959 . S
C2152 H2137 0.959 . S
C2152 H2138 0.961 . S
C2152 C2151 1.502 . S
C2153 H2139 0.960 . S
C2153 H2140 0.961 . S
C2153 H2141 0.959 . S
C2153 C2151 1.561 . S
C2154 C2151 1.526 . S
C2154 C2155 1.396 . S
C2154 C2159 1.390 . S
C2155 C2149 1.465 . S
C2155 C2154 1.396 . S
C2155 C2156 1.399 . S
C2156 H2142 0.929 . S
C2156 C2155 1.399 . S
C2156 C2157 1.385 . S
C2157 H2143 0.931 . S
C2157 C2156 1.385 . S
C2157 C2158 1.389 . S
C2158 C2157 1.389 . S
C2158 C2159 1.387 . S
C2159 H2144 0.930 . S
C2159 C2154 1.390 . S
C2159 C2158 1.387 . S
H2160 C2172 0.930 . S
H2161 C2174 0.930 . S
H2162 C2175 0.930 . S
H2163 C2179 0.959 . S
H2164 C2179 0.959 . S
H2165 C2179 0.961 . S
H2166 C2180 0.960 . S
H2167 C2180 0.961 . S
H2168 C2180 0.959 . S
H2169 C2183 0.929 . S
H2170 C2184 0.931 . S
H2171 C2186 0.930 . S
C2172 H2160 0.930 . S
C2172 C2173 1.399 . S
C2172 C2177 1.399 . S
C2173 C2172 1.399 . S
C2173 C2174 1.376 . S
C2174 H2161 0.930 . S
C2174 C2173 1.376 . S
C2174 C2175 1.388 . S
C2175 H2162 0.930 . S
C2175 C2174 1.388 . S
C2175 C2176 1.390 . S
C2176 C2175 1.390 . S
C2176 C2177 1.394 . S
C2176 C2182 1.465 . S
C2177 C2172 1.399 . S
C2177 C2176 1.394 . S
C2177 C2178 1.516 . S
C2178 C2177 1.516 . S
C2178 C2179 1.502 . S
C2178 C2180 1.561 . S
C2178 C2181 1.526 . S
C2179 H2163 0.959 . S
C2179 H2164 0.959 . S
C2179 H2165 0.961 . S
C2179 C2178 1.502 . S
C2180 H2166 0.960 . S
C2180 H2167 0.961 . S
C2180 H2168 0.959 . S
C2180 C2178 1.561 . S
C2181 C2178 1.526 . S
C2181 C2182 1.396 . S
C2181 C2186 1.390 . S
C2182 C2176 1.465 . S
C2182 C2181 1.396 . S
C2182 C2183 1.399 . S
C2183 H2169 0.929 . S
C2183 C2182 1.399 . S
C2183 C2184 1.385 . S
C2184 H2170 0.931 . S
C2184 C2183 1.385 . S
C2184 C2185 1.389 . S
C2185 C2184 1.389 . S
C2185 C2186 1.387 . S
C2186 H2171 0.930 . S
C2186 C2181 1.390 . S
C2186 C2185 1.387 . S
H2187 C2199 0.930 1_565 S
H2188 C2201 0.930 . S
H2189 C2202 0.930 . S
H2190 C2206 0.959 . S
H2191 C2206 0.959 . S
H2192 C2206 0.961 . S
H2193 C2207 0.960 . S
H2194 C2207 0.961 . S
H2195 C2207 0.959 . S
H2196 C2210 0.929 . S
H2197 C2211 0.931 . S
H2198 C2213 0.930 . S
C2199 H2187 0.930 1_545 S
C2199 C2200 1.399 1_545 S
C2199 C2204 1.399 . S
C2200 C2199 1.399 1_565 S
C2200 C2201 1.376 . S
C2201 H2188 0.930 . S
C2201 C2200 1.376 . S
C2201 C2202 1.388 1_565 S
C2202 H2189 0.930 . S
C2202 C2201 1.388 1_545 S
C2202 C2203 1.390 . S
C2203 C2202 1.390 . S
C2203 C2204 1.394 . S
C2203 C2209 1.465 . S
C2204 C2199 1.399 . S
C2204 C2203 1.394 . S
C2204 C2205 1.516 . S
C2205 C2204 1.516 . S
C2205 C2206 1.502 . S
C2205 C2207 1.561 . S
C2205 C2208 1.526 . S
C2206 H2190 0.959 . S
C2206 H2191 0.959 . S
C2206 H2192 0.961 . S
C2206 C2205 1.502 . S
C2207 H2193 0.960 . S
C2207 H2194 0.961 . S
C2207 H2195 0.959 . S
C2207 C2205 1.561 . S
C2208 C2205 1.526 . S
C2208 C2209 1.396 . S
C2208 C2213 1.390 . S
C2209 C2203 1.465 . S
C2209 C2208 1.396 . S
C2209 C2210 1.399 . S
C2210 H2196 0.929 . S
C2210 C2209 1.399 . S
C2210 C2211 1.385 . S
C2211 H2197 0.931 . S
C2211 C2210 1.385 . S
C2211 C2212 1.389 . S
C2212 C2211 1.389 . S
C2212 C2213 1.387 . S
C2213 H2198 0.930 . S
C2213 C2208 1.390 . S
C2213 C2212 1.387 . S
H2214 C2226 0.930 1_455 S
H2215 C2228 0.969 . S
H2216 C2229 0.930 . S
H2217 C2233 0.959 . S
H2218 C2233 0.959 . S
H2219 C2233 0.961 . S
H2220 C2234 0.960 . S
H2221 C2234 0.961 . S
H2222 C2234 0.959 . S
H2223 C2237 0.929 . S
H2224 C2238 0.931 . S
H2225 C2240 0.930 . S
C2226 H2214 0.930 1_655 S
C2226 C2227 1.399 1_655 S
C2226 C2231 1.399 . S
C2227 C2226 1.399 1_455 S
C2227 C2228 1.376 1_455 S
C2228 H2215 0.969 . S
C2228 C2227 1.376 1_655 S
C2228 C2229 1.388 . S
C2229 H2216 0.930 . S
C2229 C2228 1.388 . S
C2229 C2230 1.390 . S
C2230 C2229 1.390 . S
C2230 C2231 1.394 . S
C2230 C2236 1.465 . S
C2231 C2226 1.399 . S
C2231 C2230 1.394 . S
C2231 C2232 1.516 . S
C2232 C2231 1.516 . S
C2232 C2233 1.502 . S
C2232 C2234 1.561 . S
C2232 C2235 1.526 . S
C2233 H2217 0.959 . S
C2233 H2218 0.959 . S
C2233 H2219 0.961 . S
C2233 C2232 1.502 . S
C2234 H2220 0.960 . S
C2234 H2221 0.961 . S
C2234 H2222 0.959 . S
C2234 C2232 1.561 . S
C2235 C2232 1.526 . S
C2235 C2236 1.396 . S
C2235 C2240 1.390 . S
C2236 C2230 1.465 . S
C2236 C2235 1.396 . S
C2236 C2237 1.399 . S
C2237 H2223 0.929 . S
C2237 C2236 1.399 . S
C2237 C2238 1.385 . S
C2238 H2224 0.931 . S
C2238 C2237 1.385 . S
C2238 C2239 1.389 . S
C2239 C2238 1.389 . S
C2239 C2240 1.387 . S
C2240 H2225 0.930 . S
C2240 C2235 1.390 . S
C2240 C2239 1.387 . S
H2241 C2253 0.930 . S
H2242 C2255 0.930 . S
H2243 C2256 0.930 . S
H2244 C2260 0.959 . S
H2245 C2260 0.959 . S
H2246 C2260 0.961 . S
H2247 C2261 0.960 . S
H2248 C2261 0.961 . S
H2249 C2261 0.959 . S
H2250 C2264 0.929 . S
H2251 C2265 0.931 . S
H2252 C2267 0.930 . S
C2253 H2241 0.930 . S
C2253 C2254 1.399 . S
C2253 C2258 1.399 . S
C2254 C2253 1.399 . S
C2254 C2255 1.376 . S
C2255 H2242 0.930 . S
C2255 C2254 1.376 . S
C2255 C2256 1.388 . S
C2256 H2243 0.930 . S
C2256 C2255 1.388 . S
C2256 C2257 1.390 . S
C2257 C2256 1.390 . S
C2257 C2258 1.394 . S
C2257 C2263 1.465 . S
C2258 C2253 1.399 . S
C2258 C2257 1.394 . S
C2258 C2259 1.516 . S
C2259 C2258 1.516 . S
C2259 C2260 1.502 . S
C2259 C2261 1.561 . S
C2259 C2262 1.526 . S
C2260 H2244 0.959 . S
C2260 H2245 0.959 . S
C2260 H2246 0.961 . S
C2260 C2259 1.502 . S
C2261 H2247 0.960 . S
C2261 H2248 0.961 . S
C2261 H2249 0.959 . S
C2261 C2259 1.561 . S
C2262 C2259 1.526 . S
C2262 C2263 1.396 . S
C2262 C2267 1.390 . S
C2263 C2257 1.465 . S
C2263 C2262 1.396 . S
C2263 C2264 1.399 . S
C2264 H2250 0.929 . S
C2264 C2263 1.399 . S
C2264 C2265 1.385 . S
C2265 H2251 0.931 . S
C2265 C2264 1.385 . S
C2265 C2266 1.389 . S
C2266 C2265 1.389 . S
C2266 C2267 1.387 . S
C2267 H2252 0.930 . S
C2267 C2262 1.390 . S
C2267 C2266 1.387 . S
H2268 C2280 0.959 . S
H2269 C2282 0.932 1_455 S
H2270 C2283 0.930 . S
H2271 C2287 0.959 . S
H2272 C2287 0.959 . S
H2273 C2287 0.961 . S
H2274 C2288 0.960 . S
H2275 C2288 0.961 . S
H2276 C2288 0.959 . S
H2277 C2291 0.929 . S
H2278 C2292 0.931 . S
H2279 C2294 0.930 . S
C2280 H2268 0.959 . S
C2280 C2281 1.397 . S
C2280 C2285 1.372 1_455 S
C2281 C2280 1.397 . S
C2281 C2282 1.376 1_455 S
C2282 H2269 0.932 1_655 S
C2282 C2281 1.376 1_655 S
C2282 C2283 1.388 . S
C2283 H2270 0.930 . S
C2283 C2282 1.388 . S
C2283 C2284 1.390 . S
C2284 C2283 1.390 . S
C2284 C2285 1.394 . S
C2284 C2290 1.465 . S
C2285 C2280 1.372 1_655 S
C2285 C2284 1.394 . S
C2285 C2286 1.516 . S
C2286 C2285 1.516 . S
C2286 C2287 1.502 . S
C2286 C2288 1.561 . S
C2286 C2289 1.526 . S
C2287 H2271 0.959 . S
C2287 H2272 0.959 . S
C2287 H2273 0.961 . S
C2287 C2286 1.502 . S
C2288 H2274 0.960 . S
C2288 H2275 0.961 . S
C2288 H2276 0.959 . S
C2288 C2286 1.561 . S
C2289 C2286 1.526 . S
C2289 C2290 1.396 . S
C2289 C2294 1.390 . S
C2290 C2284 1.465 . S
C2290 C2289 1.396 . S
C2290 C2291 1.399 . S
C2291 H2277 0.929 . S
C2291 C2290 1.399 . S
C2291 C2292 1.385 . S
C2292 H2278 0.931 . S
C2292 C2291 1.385 . S
C2292 C2293 1.389 . S
C2293 C2292 1.389 . S
C2293 C2294 1.387 . S
C2294 H2279 0.930 . S
C2294 C2289 1.390 . S
C2294 C2293 1.387 . S
H2295 C2307 0.930 . S
H2296 C2309 0.930 . S
H2297 C2310 0.930 . S
H2298 C2314 0.959 . S
H2299 C2314 0.959 . S
H2300 C2314 0.961 . S
H2301 C2315 0.960 . S
H2302 C2315 0.961 . S
H2303 C2315 0.959 . S
H2304 C2318 0.929 . S
H2305 C2319 0.931 . S
H2306 C2321 0.930 . S
C2307 H2295 0.930 . S
C2307 C2308 1.399 . S
C2307 C2312 1.399 . S
C2308 C2307 1.399 . S
C2308 C2309 1.376 . S
C2309 H2296 0.930 . S
C2309 C2308 1.376 . S
C2309 C2310 1.388 . S
C2310 H2297 0.930 . S
C2310 C2309 1.388 . S
C2310 C2311 1.390 . S
C2311 C2310 1.390 . S
C2311 C2312 1.394 . S
C2311 C2317 1.465 . S
C2312 C2307 1.399 . S
C2312 C2311 1.394 . S
C2312 C2313 1.516 . S
C2313 C2312 1.516 . S
C2313 C2314 1.502 . S
C2313 C2315 1.561 . S
C2313 C2316 1.526 . S
C2314 H2298 0.959 . S
C2314 H2299 0.959 . S
C2314 H2300 0.961 . S
C2314 C2313 1.502 . S
C2315 H2301 0.960 . S
C2315 H2302 0.961 . S
C2315 H2303 0.959 . S
C2315 C2313 1.561 . S
C2316 C2313 1.526 . S
C2316 C2317 1.396 . S
C2316 C2321 1.390 . S
C2317 C2311 1.465 . S
C2317 C2316 1.396 . S
C2317 C2318 1.399 . S
C2318 H2304 0.929 . S
C2318 C2317 1.399 . S
C2318 C2319 1.385 . S
C2319 H2305 0.931 . S
C2319 C2318 1.385 . S
C2319 C2320 1.389 . S
C2320 C2319 1.389 . S
C2320 C2321 1.387 . S
C2321 H2306 0.930 . S
C2321 C2316 1.390 . S
C2321 C2320 1.387 . S
H2322 C2334 0.930 . S
H2323 C2336 0.930 . S
H2324 C2337 0.930 . S
H2325 C2341 0.959 . S
H2326 C2341 0.959 . S
H2327 C2341 0.961 . S
H2328 C2342 0.960 . S
H2329 C2342 0.961 . S
H2330 C2342 0.959 . S
H2331 C2345 0.929 . S
H2332 C2346 0.931 . S
H2333 C2348 0.930 . S
C2334 H2322 0.930 . S
C2334 C2335 1.399 1_545 S
C2334 C2339 1.399 . S
C2335 C2334 1.399 1_565 S
C2335 C2336 1.376 . S
C2336 H2323 0.930 . S
C2336 C2335 1.376 . S
C2336 C2337 1.388 1_565 S
C2337 H2324 0.930 . S
C2337 C2336 1.388 1_545 S
C2337 C2338 1.390 . S
C2338 C2337 1.390 . S
C2338 C2339 1.394 . S
C2338 C2344 1.465 . S
C2339 C2334 1.399 . S
C2339 C2338 1.394 . S
C2339 C2340 1.516 . S
C2340 C2339 1.516 . S
C2340 C2341 1.502 . S
C2340 C2342 1.561 . S
C2340 C2343 1.526 . S
C2341 H2325 0.959 . S
C2341 H2326 0.959 . S
C2341 H2327 0.961 . S
C2341 C2340 1.502 . S
C2342 H2328 0.960 . S
C2342 H2329 0.961 . S
C2342 H2330 0.959 . S
C2342 C2340 1.561 . S
C2343 C2340 1.526 . S
C2343 C2344 1.396 . S
C2343 C2348 1.390 . S
C2344 C2338 1.465 . S
C2344 C2343 1.396 . S
C2344 C2345 1.399 . S
C2345 H2331 0.929 . S
C2345 C2344 1.399 . S
C2345 C2346 1.385 . S
C2346 H2332 0.931 . S
C2346 C2345 1.385 . S
C2346 C2347 1.389 . S
C2347 C2346 1.389 . S
C2347 C2348 1.387 . S
C2348 H2333 0.930 . S
C2348 C2343 1.390 . S
C2348 C2347 1.387 . S
H2349 C2361 0.930 . S
H2350 C2363 0.930 . S
H2351 C2364 0.930 . S
H2352 C2368 0.959 . S
H2353 C2368 0.959 . S
H2354 C2368 0.961 . S
H2355 C2369 0.960 . S
H2356 C2369 0.961 . S
H2357 C2369 0.959 . S
H2358 C2372 0.929 . S
H2359 C2373 0.931 . S
H2360 C2375 0.930 . S
C2361 H2349 0.930 . S
C2361 C2362 1.399 . S
C2361 C2366 1.399 . S
C2362 C2361 1.399 . S
C2362 C2363 1.376 . S
C2363 H2350 0.930 . S
C2363 C2362 1.376 . S
C2363 C2364 1.388 . S
C2364 H2351 0.930 . S
C2364 C2363 1.388 . S
C2364 C2365 1.390 . S
C2365 C2364 1.390 . S
C2365 C2366 1.394 . S
C2365 C2371 1.465 . S
C2366 C2361 1.399 . S
C2366 C2365 1.394 . S
C2366 C2367 1.516 . S
C2367 C2366 1.516 . S
C2367 C2368 1.502 . S
C2367 C2369 1.561 . S
C2367 C2370 1.526 . S
C2368 H2352 0.959 . S
C2368 H2353 0.959 . S
C2368 H2354 0.961 . S
C2368 C2367 1.502 . S
C2369 H2355 0.960 . S
C2369 H2356 0.961 . S
C2369 H2357 0.959 . S
C2369 C2367 1.561 . S
C2370 C2367 1.526 . S
C2370 C2371 1.396 . S
C2370 C2375 1.390 . S
C2371 C2365 1.465 . S
C2371 C2370 1.396 . S
C2371 C2372 1.399 . S
C2372 H2358 0.929 . S
C2372 C2371 1.399 . S
C2372 C2373 1.385 . S
C2373 H2359 0.931 . S
C2373 C2372 1.385 . S
C2373 C2374 1.389 . S
C2374 C2373 1.389 . S
C2374 C2375 1.387 . S
C2375 H2360 0.930 . S
C2375 C2370 1.390 . S
C2375 C2374 1.387 . S
H2376 C2388 0.930 . S
H2377 C2390 0.930 . S
H2378 C2391 0.930 . S
H2379 C2395 0.959 . S
H2380 C2395 0.959 . S
H2381 C2395 0.961 . S
H2382 C2396 0.960 . S
H2383 C2396 0.961 . S
H2384 C2396 0.959 . S
H2385 C2399 0.929 . S
H2386 C2400 0.931 . S
H2387 C2402 0.930 . S
C2388 H2376 0.930 . S
C2388 C2389 1.399 . S
C2388 C2393 1.399 . S
C2389 C2388 1.399 . S
C2389 C2390 1.376 . S
C2390 H2377 0.930 . S
C2390 C2389 1.376 . S
C2390 C2391 1.388 . S
C2391 H2378 0.930 . S
C2391 C2390 1.388 . S
C2391 C2392 1.390 . S
C2392 C2391 1.390 . S
C2392 C2393 1.394 . S
C2392 C2398 1.465 . S
C2393 C2388 1.399 . S
C2393 C2392 1.394 . S
C2393 C2394 1.516 . S
C2394 C2393 1.516 . S
C2394 C2395 1.502 . S
C2394 C2396 1.561 . S
C2394 C2397 1.526 . S
C2395 H2379 0.959 . S
C2395 H2380 0.959 . S
C2395 H2381 0.961 . S
C2395 C2394 1.502 . S
C2396 H2382 0.960 . S
C2396 H2383 0.961 . S
C2396 H2384 0.959 . S
C2396 C2394 1.561 . S
C2397 C2394 1.526 . S
C2397 C2398 1.396 . S
C2397 C2402 1.390 . S
C2398 C2392 1.465 . S
C2398 C2397 1.396 . S
C2398 C2399 1.399 . S
C2399 H2385 0.929 . S
C2399 C2398 1.399 . S
C2399 C2400 1.385 . S
C2400 H2386 0.931 . S
C2400 C2399 1.385 . S
C2400 C2401 1.389 . S
C2401 C2400 1.389 . S
C2401 C2402 1.387 . S
C2402 H2387 0.930 . S
C2402 C2397 1.390 . S
C2402 C2401 1.387 . S
H2403 C2415 0.930 . S
H2404 C2417 0.930 . S
H2405 C2418 0.930 . S
H2406 C2422 0.959 . S
H2407 C2422 0.959 . S
H2408 C2422 0.961 . S
H2409 C2423 0.960 . S
H2410 C2423 0.961 . S
H2411 C2423 0.959 . S
H2412 C2426 0.929 . S
H2413 C2427 0.931 . S
H2414 C2429 0.930 . S
C2415 H2403 0.930 . S
C2415 C2416 1.399 . S
C2415 C2420 1.399 . S
C2416 C2415 1.399 . S
C2416 C2417 1.376 . S
C2417 H2404 0.930 . S
C2417 C2416 1.376 . S
C2417 C2418 1.388 . S
C2418 H2405 0.930 . S
C2418 C2417 1.388 . S
C2418 C2419 1.390 . S
C2419 C2418 1.390 . S
C2419 C2420 1.394 . S
C2419 C2425 1.465 . S
C2420 C2415 1.399 . S
C2420 C2419 1.394 . S
C2420 C2421 1.516 . S
C2421 C2420 1.516 . S
C2421 C2422 1.502 . S
C2421 C2423 1.561 . S
C2421 C2424 1.526 . S
C2422 H2406 0.959 . S
C2422 H2407 0.959 . S
C2422 H2408 0.961 . S
C2422 C2421 1.502 . S
C2423 H2409 0.960 . S
C2423 H2410 0.961 . S
C2423 H2411 0.959 . S
C2423 C2421 1.561 . S
C2424 C2421 1.526 . S
C2424 C2425 1.396 . S
C2424 C2429 1.390 . S
C2425 C2419 1.465 . S
C2425 C2424 1.396 . S
C2425 C2426 1.399 . S
C2426 H2412 0.929 . S
C2426 C2425 1.399 . S
C2426 C2427 1.385 . S
C2427 H2413 0.931 . S
C2427 C2426 1.385 . S
C2427 C2428 1.389 . S
C2428 C2427 1.389 . S
C2428 C2429 1.387 . S
C2429 H2414 0.930 . S
C2429 C2424 1.390 . S
C2429 C2428 1.387 . S
H2430 C2442 0.930 . S
H2431 C2444 0.930 . S
H2432 C2445 0.930 . S
H2433 C2449 0.959 . S
H2434 C2449 0.959 . S
H2435 C2449 0.961 . S
H2436 C2450 0.960 . S
H2437 C2450 0.961 . S
H2438 C2450 0.959 . S
H2439 C2453 0.929 1_545 S
H2440 C2454 0.931 1_545 S
H2441 C2456 0.930 . S
C2442 H2430 0.930 . S
C2442 C2443 1.399 . S
C2442 C2447 1.399 . S
C2443 C2442 1.399 . S
C2443 C2444 1.376 . S
C2444 H2431 0.930 . S
C2444 C2443 1.376 . S
C2444 C2445 1.388 . S
C2445 H2432 0.930 . S
C2445 C2444 1.388 . S
C2445 C2446 1.390 . S
C2446 C2445 1.390 . S
C2446 C2447 1.394 . S
C2446 C2452 1.465 . S
C2447 C2442 1.399 . S
C2447 C2446 1.394 . S
C2447 C2448 1.516 . S
C2448 C2447 1.516 . S
C2448 C2449 1.502 . S
C2448 C2450 1.561 . S
C2448 C2451 1.526 . S
C2449 H2433 0.959 . S
C2449 H2434 0.959 . S
C2449 H2435 0.961 . S
C2449 C2448 1.502 . S
C2450 H2436 0.960 . S
C2450 H2437 0.961 . S
C2450 H2438 0.959 . S
C2450 C2448 1.561 . S
C2451 C2448 1.526 . S
C2451 C2452 1.396 . S
C2451 C2456 1.390 . S
C2452 C2446 1.465 . S
C2452 C2451 1.396 . S
C2452 C2453 1.399 . S
C2453 H2439 0.929 1_565 S
C2453 C2452 1.399 . S
C2453 C2454 1.385 . S
C2454 H2440 0.931 1_565 S
C2454 C2453 1.385 . S
C2454 C2455 1.389 . S
C2455 C2454 1.389 . S
C2455 C2456 1.387 . S
C2456 H2441 0.930 . S
C2456 C2451 1.390 . S
C2456 C2455 1.387 . S
H2457 C2469 0.930 . S
H2458 C2471 0.930 . S
H2459 C2472 0.930 . S
H2460 C2476 0.959 . S
H2461 C2476 0.959 . S
H2462 C2476 0.961 . S
H2463 C2477 0.960 . S
H2464 C2477 0.961 . S
H2465 C2477 0.959 . S
H2466 C2480 0.929 . S
H2467 C2481 0.931 . S
H2468 C2483 0.930 . S
C2469 H2457 0.930 . S
C2469 C2470 1.399 . S
C2469 C2474 1.399 . S
C2470 C2469 1.399 . S
C2470 C2471 1.376 . S
C2471 H2458 0.930 . S
C2471 C2470 1.376 . S
C2471 C2472 1.388 . S
C2472 H2459 0.930 . S
C2472 C2471 1.388 . S
C2472 C2473 1.390 . S
C2473 C2472 1.390 . S
C2473 C2474 1.394 . S
C2473 C2479 1.465 . S
C2474 C2469 1.399 . S
C2474 C2473 1.394 . S
C2474 C2475 1.516 . S
C2475 C2474 1.516 . S
C2475 C2476 1.502 . S
C2475 C2477 1.561 . S
C2475 C2478 1.526 . S
C2476 H2460 0.959 . S
C2476 H2461 0.959 . S
C2476 H2462 0.961 . S
C2476 C2475 1.502 . S
C2477 H2463 0.960 . S
C2477 H2464 0.961 . S
C2477 H2465 0.959 . S
C2477 C2475 1.561 . S
C2478 C2475 1.526 . S
C2478 C2479 1.396 . S
C2478 C2483 1.390 . S
C2479 C2473 1.465 . S
C2479 C2478 1.396 . S
C2479 C2480 1.399 . S
C2480 H2466 0.929 . S
C2480 C2479 1.399 . S
C2480 C2481 1.385 . S
C2481 H2467 0.931 . S
C2481 C2480 1.385 . S
C2481 C2482 1.389 . S
C2482 C2481 1.389 . S
C2482 C2483 1.387 . S
C2483 H2468 0.930 . S
C2483 C2478 1.390 . S
C2483 C2482 1.387 . S
H2484 C2496 0.930 . S
H2485 C2498 0.930 . S
H2486 C2499 0.930 . S
H2487 C2503 0.959 . S
H2488 C2503 0.959 . S
H2489 C2503 0.961 . S
H2490 C2504 0.960 . S
H2491 C2504 0.961 . S
H2492 C2504 0.959 . S
H2493 C2507 0.929 . S
H2494 C2508 0.931 . S
H2495 C2510 0.930 . S
C2496 H2484 0.930 . S
C2496 C2497 1.399 . S
C2496 C2501 1.399 . S
C2497 C2496 1.399 . S
C2497 C2498 1.376 . S
C2498 H2485 0.930 . S
C2498 C2497 1.376 . S
C2498 C2499 1.388 . S
C2499 H2486 0.930 . S
C2499 C2498 1.388 . S
C2499 C2500 1.390 . S
C2500 C2499 1.390 . S
C2500 C2501 1.394 . S
C2500 C2506 1.465 . S
C2501 C2496 1.399 . S
C2501 C2500 1.394 . S
C2501 C2502 1.516 . S
C2502 C2501 1.516 . S
C2502 C2503 1.502 . S
C2502 C2504 1.561 . S
C2502 C2505 1.526 . S
C2503 H2487 0.959 . S
C2503 H2488 0.959 . S
C2503 H2489 0.961 . S
C2503 C2502 1.502 . S
C2504 H2490 0.960 . S
C2504 H2491 0.961 . S
C2504 H2492 0.959 . S
C2504 C2502 1.561 . S
C2505 C2502 1.526 . S
C2505 C2506 1.396 . S
C2505 C2510 1.390 . S
C2506 C2500 1.465 . S
C2506 C2505 1.396 . S
C2506 C2507 1.399 . S
C2507 H2493 0.929 . S
C2507 C2506 1.399 . S
C2507 C2508 1.385 . S
C2508 H2494 0.931 . S
C2508 C2507 1.385 . S
C2508 C2509 1.389 . S
C2509 C2508 1.389 . S
C2509 C2510 1.387 . S
C2510 H2495 0.930 . S
C2510 C2505 1.390 . S
C2510 C2509 1.387 . S
H2511 C2523 0.930 . S
H2512 C2525 0.930 . S
H2513 C2526 0.930 1_455 S
H2514 C2530 0.959 . S
H2515 C2530 0.959 . S
H2516 C2530 0.961 . S
H2517 C2531 0.960 . S
H2518 C2531 0.961 . S
H2519 C2531 0.959 . S
H2520 C2534 0.929 . S
H2521 C2535 0.958 . S
H2522 C2537 0.930 . S
C2523 H2511 0.930 . S
C2523 C2524 1.399 . S
C2523 C2528 1.399 . S
C2524 C2523 1.399 . S
C2524 C2525 1.376 . S
C2525 H2512 0.930 . S
C2525 C2524 1.376 . S
C2525 C2526 1.388 . S
C2526 H2513 0.930 1_655 S
C2526 C2525 1.388 . S
C2526 C2527 1.390 . S
C2527 C2526 1.390 . S
C2527 C2528 1.394 . S
C2527 C2533 1.465 . S
C2528 C2523 1.399 . S
C2528 C2527 1.394 . S
C2528 C2529 1.516 . S
C2529 C2528 1.516 . S
C2529 C2530 1.502 . S
C2529 C2531 1.561 . S
C2529 C2532 1.526 . S
C2530 H2514 0.959 . S
C2530 H2515 0.959 . S
C2530 H2516 0.961 . S
C2530 C2529 1.502 . S
C2531 H2517 0.960 . S
C2531 H2518 0.961 . S
C2531 H2519 0.959 . S
C2531 C2529 1.561 . S
C2532 C2529 1.526 . S
C2532 C2533 1.396 . S
C2532 C2537 1.390 . S
C2533 C2527 1.465 . S
C2533 C2532 1.396 . S
C2533 C2534 1.399 1_655 S
C2534 H2520 0.929 . S
C2534 C2533 1.399 1_455 S
C2534 C2535 1.386 . S
C2535 H2521 0.958 . S
C2535 C2534 1.386 . S
C2535 C2536 1.364 1_455 S
C2536 C2535 1.364 1_655 S
C2536 C2537 1.387 . S
C2537 H2522 0.930 . S
C2537 C2532 1.390 . S
C2537 C2536 1.387 . S
H2538 C2550 0.930 . S
H2539 C2552 0.930 . S
H2540 C2553 0.930 . S
H2541 C2557 0.959 . S
H2542 C2557 0.959 . S
H2543 C2557 0.961 . S
H2544 C2558 0.960 . S
H2545 C2558 0.961 . S
H2546 C2558 0.959 . S
H2547 C2561 0.929 . S
H2548 C2562 0.931 . S
H2549 C2564 0.930 . S
C2550 H2538 0.930 . S
C2550 C2551 1.399 . S
C2550 C2555 1.399 . S
C2551 C2550 1.399 . S
C2551 C2552 1.376 . S
C2552 H2539 0.930 . S
C2552 C2551 1.376 . S
C2552 C2553 1.388 . S
C2553 H2540 0.930 . S
C2553 C2552 1.388 . S
C2553 C2554 1.390 . S
C2554 C2553 1.390 . S
C2554 C2555 1.394 . S
C2554 C2560 1.465 . S
C2555 C2550 1.399 . S
C2555 C2554 1.394 . S
C2555 C2556 1.516 . S
C2556 C2555 1.516 . S
C2556 C2557 1.502 . S
C2556 C2558 1.561 . S
C2556 C2559 1.526 . S
C2557 H2541 0.959 . S
C2557 H2542 0.959 . S
C2557 H2543 0.961 . S
C2557 C2556 1.502 . S
C2558 H2544 0.960 . S
C2558 H2545 0.961 . S
C2558 H2546 0.959 . S
C2558 C2556 1.561 . S
C2559 C2556 1.526 . S
C2559 C2560 1.396 . S
C2559 C2564 1.390 . S
C2560 C2554 1.465 . S
C2560 C2559 1.396 . S
C2560 C2561 1.399 . S
C2561 H2547 0.929 . S
C2561 C2560 1.399 . S
C2561 C2562 1.385 . S
C2562 H2548 0.931 . S
C2562 C2561 1.385 . S
C2562 C2563 1.389 . S
C2563 C2562 1.389 . S
C2563 C2564 1.387 . S
C2564 H2549 0.930 . S
C2564 C2559 1.390 . S
C2564 C2563 1.387 . S
H2565 C2577 0.930 . S
H2566 C2579 0.930 . S
H2567 C2580 0.930 . S
H2568 C2584 0.959 . S
H2569 C2584 0.959 . S
H2570 C2584 0.961 . S
H2571 C2585 0.960 . S
H2572 C2585 0.961 . S
H2573 C2585 0.959 . S
H2574 C2588 0.916 1_565 S
H2575 C2589 0.931 1_565 S
H2576 C2591 0.930 . S
C2577 H2565 0.930 . S
C2577 C2578 1.399 . S
C2577 C2582 1.399 . S
C2578 C2577 1.399 . S
C2578 C2579 1.376 . S
C2579 H2566 0.930 . S
C2579 C2578 1.376 . S
C2579 C2580 1.388 . S
C2580 H2567 0.930 . S
C2580 C2579 1.388 . S
C2580 C2581 1.390 . S
C2581 C2580 1.390 . S
C2581 C2582 1.394 . S
C2581 C2587 1.465 . S
C2582 C2577 1.399 . S
C2582 C2581 1.394 . S
C2582 C2583 1.516 . S
C2583 C2582 1.516 . S
C2583 C2584 1.502 . S
C2583 C2585 1.561 . S
C2583 C2586 1.526 . S
C2584 H2568 0.959 . S
C2584 H2569 0.959 . S
C2584 H2570 0.961 . S
C2584 C2583 1.502 . S
C2585 H2571 0.960 . S
C2585 H2572 0.961 . S
C2585 H2573 0.959 . S
C2585 C2583 1.561 . S
C2586 C2583 1.526 . S
C2586 C2587 1.396 . S
C2586 C2591 1.390 . S
C2587 C2581 1.465 . S
C2587 C2586 1.396 . S
C2587 C2588 1.399 . S
C2588 H2574 0.916 1_545 S
C2588 C2587 1.399 . S
C2588 C2589 1.385 . S
C2589 H2575 0.931 1_545 S
C2589 C2588 1.385 . S
C2589 C2590 1.389 . S
C2590 C2589 1.389 . S
C2590 C2591 1.387 . S
C2591 H2576 0.930 . S
C2591 C2586 1.390 . S
C2591 C2590 1.387 . S
H2592 C2604 0.930 . S
H2593 C2606 0.930 . S
H2594 C2607 0.930 . S
H2595 C2611 0.959 . S
H2596 C2611 0.959 . S
H2597 C2611 0.961 . S
H2598 C2612 0.960 . S
H2599 C2612 0.961 . S
H2600 C2612 0.959 . S
H2601 C2615 0.929 . S
H2602 C2616 0.931 . S
H2603 C2618 0.930 . S
C2604 H2592 0.930 . S
C2604 C2605 1.399 . S
C2604 C2609 1.399 . S
C2605 C2604 1.399 . S
C2605 C2606 1.376 . S
C2606 H2593 0.930 . S
C2606 C2605 1.376 . S
C2606 C2607 1.388 . S
C2607 H2594 0.930 . S
C2607 C2606 1.388 . S
C2607 C2608 1.390 . S
C2608 C2607 1.390 . S
C2608 C2609 1.394 . S
C2608 C2614 1.465 . S
C2609 C2604 1.399 . S
C2609 C2608 1.394 . S
C2609 C2610 1.516 . S
C2610 C2609 1.516 . S
C2610 C2611 1.502 . S
C2610 C2612 1.561 . S
C2610 C2613 1.526 . S
C2611 H2595 0.959 . S
C2611 H2596 0.959 . S
C2611 H2597 0.961 . S
C2611 C2610 1.502 . S
C2612 H2598 0.960 . S
C2612 H2599 0.961 . S
C2612 H2600 0.959 . S
C2612 C2610 1.561 . S
C2613 C2610 1.526 . S
C2613 C2614 1.396 . S
C2613 C2618 1.390 . S
C2614 C2608 1.465 . S
C2614 C2613 1.396 . S
C2614 C2615 1.399 . S
C2615 H2601 0.929 . S
C2615 C2614 1.399 . S
C2615 C2616 1.385 . S
C2616 H2602 0.931 . S
C2616 C2615 1.385 . S
C2616 C2617 1.389 . S
C2617 C2616 1.389 . S
C2617 C2618 1.387 . S
C2618 H2603 0.930 . S
C2618 C2613 1.390 . S
C2618 C2617 1.387 . S
H2619 C2631 0.930 . S
H2620 C2633 0.930 . S
H2621 C2634 0.930 . S
H2622 C2638 0.959 . S
H2623 C2638 0.959 . S
H2624 C2638 0.961 . S
H2625 C2639 0.960 . S
H2626 C2639 0.961 . S
H2627 C2639 0.959 . S
H2628 C2642 0.929 . S
H2629 C2643 0.931 . S
H2630 C2645 0.930 . S
C2631 H2619 0.930 . S
C2631 C2632 1.399 . S
C2631 C2636 1.399 . S
C2632 C2631 1.399 . S
C2632 C2633 1.376 . S
C2633 H2620 0.930 . S
C2633 C2632 1.376 . S
C2633 C2634 1.388 . S
C2634 H2621 0.930 . S
C2634 C2633 1.388 . S
C2634 C2635 1.390 . S
C2635 C2634 1.390 . S
C2635 C2636 1.394 . S
C2635 C2641 1.465 . S
C2636 C2631 1.399 . S
C2636 C2635 1.394 . S
C2636 C2637 1.516 . S
C2637 C2636 1.516 . S
C2637 C2638 1.502 . S
C2637 C2639 1.561 . S
C2637 C2640 1.526 . S
C2638 H2622 0.959 . S
C2638 H2623 0.959 . S
C2638 H2624 0.961 . S
C2638 C2637 1.502 . S
C2639 H2625 0.960 . S
C2639 H2626 0.961 . S
C2639 H2627 0.959 . S
C2639 C2637 1.561 . S
C2640 C2637 1.526 . S
C2640 C2641 1.396 . S
C2640 C2645 1.390 . S
C2641 C2635 1.465 . S
C2641 C2640 1.396 . S
C2641 C2642 1.399 . S
C2642 H2628 0.929 . S
C2642 C2641 1.399 . S
C2642 C2643 1.385 . S
C2643 H2629 0.931 . S
C2643 C2642 1.385 . S
C2643 C2644 1.389 . S
C2644 C2643 1.389 . S
C2644 C2645 1.387 . S
C2645 H2630 0.930 . S
C2645 C2640 1.390 . S
C2645 C2644 1.387 . S
H2646 C2658 0.930 . S
H2647 C2660 0.930 . S
H2648 C2661 0.930 . S
H2649 C2665 0.959 . S
H2650 C2665 0.959 . S
H2651 C2665 0.961 . S
H2652 C2666 0.960 . S
H2653 C2666 0.961 . S
H2654 C2666 0.959 . S
H2655 C2669 0.929 . S
H2656 C2670 0.931 . S
H2657 C2672 0.930 . S
C2658 H2646 0.930 . S
C2658 C2659 1.399 . S
C2658 C2663 1.399 . S
C2659 C2658 1.399 . S
C2659 C2660 1.376 . S
C2660 H2647 0.930 . S
C2660 C2659 1.376 . S
C2660 C2661 1.388 . S
C2661 H2648 0.930 . S
C2661 C2660 1.388 . S
C2661 C2662 1.390 . S
C2662 C2661 1.390 . S
C2662 C2663 1.394 . S
C2662 C2668 1.465 . S
C2663 C2658 1.399 . S
C2663 C2662 1.394 . S
C2663 C2664 1.516 . S
C2664 C2663 1.516 . S
C2664 C2665 1.502 . S
C2664 C2666 1.561 . S
C2664 C2667 1.526 . S
C2665 H2649 0.959 . S
C2665 H2650 0.959 . S
C2665 H2651 0.961 . S
C2665 C2664 1.502 . S
C2666 H2652 0.960 . S
C2666 H2653 0.961 . S
C2666 H2654 0.959 . S
C2666 C2664 1.561 . S
C2667 C2664 1.526 . S
C2667 C2668 1.396 . S
C2667 C2672 1.390 . S
C2668 C2662 1.465 . S
C2668 C2667 1.396 . S
C2668 C2669 1.399 . S
C2669 H2655 0.929 . S
C2669 C2668 1.399 . S
C2669 C2670 1.385 . S
C2670 H2656 0.931 . S
C2670 C2669 1.385 . S
C2670 C2671 1.389 . S
C2671 C2670 1.389 . S
C2671 C2672 1.387 . S
C2672 H2657 0.930 . S
C2672 C2667 1.390 . S
C2672 C2671 1.387 . S
H2673 C2685 0.930 . S
H2674 C2687 0.930 . S
H2675 C2688 0.930 . S
H2676 C2692 0.959 . S
H2677 C2692 0.959 . S
H2678 C2692 0.961 . S
H2679 C2693 0.960 . S
H2680 C2693 0.961 . S
H2681 C2693 0.959 . S
H2682 C2696 0.929 . S
H2683 C2697 0.931 . S
H2684 C2699 0.930 . S
C2685 H2673 0.930 . S
C2685 C2686 1.399 . S
C2685 C2690 1.399 . S
C2686 C2685 1.399 . S
C2686 C2687 1.376 . S
C2687 H2674 0.930 . S
C2687 C2686 1.376 . S
C2687 C2688 1.388 . S
C2688 H2675 0.930 . S
C2688 C2687 1.388 . S
C2688 C2689 1.390 . S
C2689 C2688 1.390 . S
C2689 C2690 1.394 . S
C2689 C2695 1.465 . S
C2690 C2685 1.399 . S
C2690 C2689 1.394 . S
C2690 C2691 1.516 . S
C2691 C2690 1.516 . S
C2691 C2692 1.502 . S
C2691 C2693 1.561 . S
C2691 C2694 1.526 . S
C2692 H2676 0.959 . S
C2692 H2677 0.959 . S
C2692 H2678 0.961 . S
C2692 C2691 1.502 . S
C2693 H2679 0.960 . S
C2693 H2680 0.961 . S
C2693 H2681 0.959 . S
C2693 C2691 1.561 . S
C2694 C2691 1.526 . S
C2694 C2695 1.396 . S
C2694 C2699 1.390 . S
C2695 C2689 1.465 . S
C2695 C2694 1.396 . S
C2695 C2696 1.399 . S
C2696 H2682 0.929 . S
C2696 C2695 1.399 . S
C2696 C2697 1.385 . S
C2697 H2683 0.931 . S
C2697 C2696 1.385 . S
C2697 C2698 1.389 . S
C2698 C2697 1.389 . S
C2698 C2699 1.387 . S
C2699 H2684 0.930 . S
C2699 C2694 1.390 . S
C2699 C2698 1.387 . S
H2700 C2712 0.930 . S
H2701 C2714 0.930 . S
H2702 C2715 0.930 . S
H2703 C2719 0.959 . S
H2704 C2719 0.959 . S
H2705 C2719 0.961 . S
H2706 C2720 0.960 . S
H2707 C2720 0.961 . S
H2708 C2720 0.959 . S
H2709 C2723 0.929 . S
H2710 C2724 0.931 . S
H2711 C2726 0.930 . S
C2712 H2700 0.930 . S
C2712 C2713 1.399 . S
C2712 C2717 1.399 . S
C2713 C2712 1.399 . S
C2713 C2714 1.376 . S
C2714 H2701 0.930 . S
C2714 C2713 1.376 . S
C2714 C2715 1.388 . S
C2715 H2702 0.930 . S
C2715 C2714 1.388 . S
C2715 C2716 1.390 . S
C2716 C2715 1.390 . S
C2716 C2717 1.394 . S
C2716 C2722 1.465 . S
C2717 C2712 1.399 . S
C2717 C2716 1.394 . S
C2717 C2718 1.516 . S
C2718 C2717 1.516 . S
C2718 C2719 1.502 . S
C2718 C2720 1.561 . S
C2718 C2721 1.526 . S
C2719 H2703 0.959 . S
C2719 H2704 0.959 . S
C2719 H2705 0.961 . S
C2719 C2718 1.502 . S
C2720 H2706 0.960 . S
C2720 H2707 0.961 . S
C2720 H2708 0.959 . S
C2720 C2718 1.561 . S
C2721 C2718 1.526 . S
C2721 C2722 1.396 . S
C2721 C2726 1.390 . S
C2722 C2716 1.465 . S
C2722 C2721 1.396 . S
C2722 C2723 1.399 . S
C2723 H2709 0.929 . S
C2723 C2722 1.399 . S
C2723 C2724 1.385 . S
C2724 H2710 0.931 . S
C2724 C2723 1.385 . S
C2724 C2725 1.389 . S
C2725 C2724 1.389 . S
C2725 C2726 1.387 . S
C2726 H2711 0.930 . S
C2726 C2721 1.390 . S
C2726 C2725 1.387 . S
H2727 C2739 0.930 . S
H2728 C2741 0.930 . S
H2729 C2742 0.930 . S
H2730 C2746 0.959 . S
H2731 C2746 0.959 . S
H2732 C2746 0.961 . S
H2733 C2747 0.960 . S
H2734 C2747 0.961 . S
H2735 C2747 0.959 . S
H2736 C2750 0.929 . S
H2737 C2751 0.931 . S
H2738 C2753 0.930 . S
C2739 H2727 0.930 . S
C2739 C2740 1.399 . S
C2739 C2744 1.399 . S
C2740 C2739 1.399 . S
C2740 C2741 1.376 . S
C2741 H2728 0.930 . S
C2741 C2740 1.376 . S
C2741 C2742 1.388 . S
C2742 H2729 0.930 . S
C2742 C2741 1.388 . S
C2742 C2743 1.390 . S
C2743 C2742 1.390 . S
C2743 C2744 1.394 . S
C2743 C2749 1.465 . S
C2744 C2739 1.399 . S
C2744 C2743 1.394 . S
C2744 C2745 1.516 . S
C2745 C2744 1.516 . S
C2745 C2746 1.502 . S
C2745 C2747 1.561 . S
C2745 C2748 1.526 . S
C2746 H2730 0.959 . S
C2746 H2731 0.959 . S
C2746 H2732 0.961 . S
C2746 C2745 1.502 . S
C2747 H2733 0.960 . S
C2747 H2734 0.961 . S
C2747 H2735 0.959 . S
C2747 C2745 1.561 . S
C2748 C2745 1.526 . S
C2748 C2749 1.396 . S
C2748 C2753 1.390 . S
C2749 C2743 1.465 . S
C2749 C2748 1.396 . S
C2749 C2750 1.399 . S
C2750 H2736 0.929 . S
C2750 C2749 1.399 . S
C2750 C2751 1.385 . S
C2751 H2737 0.931 . S
C2751 C2750 1.385 . S
C2751 C2752 1.389 . S
C2752 C2751 1.389 . S
C2752 C2753 1.387 . S
C2753 H2738 0.930 . S
C2753 C2748 1.390 . S
C2753 C2752 1.387 . S
H2754 C2766 0.930 . S
H2755 C2768 0.930 . S
H2756 C2769 0.930 . S
H2757 C2773 0.959 . S
H2758 C2773 0.959 . S
H2759 C2773 0.961 . S
H2760 C2774 0.960 . S
H2761 C2774 0.961 . S
H2762 C2774 0.959 . S
H2763 C2777 0.929 . S
H2764 C2778 0.931 . S
H2765 C2780 0.930 . S
C2766 H2754 0.930 . S
C2766 C2767 1.399 . S
C2766 C2771 1.399 . S
C2767 C2766 1.399 . S
C2767 C2768 1.376 . S
C2768 H2755 0.930 . S
C2768 C2767 1.376 . S
C2768 C2769 1.388 . S
C2769 H2756 0.930 . S
C2769 C2768 1.388 . S
C2769 C2770 1.390 . S
C2770 C2769 1.390 . S
C2770 C2771 1.394 . S
C2770 C2776 1.465 . S
C2771 C2766 1.399 . S
C2771 C2770 1.394 . S
C2771 C2772 1.516 . S
C2772 C2771 1.516 . S
C2772 C2773 1.502 . S
C2772 C2774 1.561 . S
C2772 C2775 1.526 . S
C2773 H2757 0.959 . S
C2773 H2758 0.959 . S
C2773 H2759 0.961 . S
C2773 C2772 1.502 . S
C2774 H2760 0.960 . S
C2774 H2761 0.961 . S
C2774 H2762 0.959 . S
C2774 C2772 1.561 . S
C2775 C2772 1.526 . S
C2775 C2776 1.396 . S
C2775 C2780 1.390 . S
C2776 C2770 1.465 . S
C2776 C2775 1.396 . S
C2776 C2777 1.399 . S
C2777 H2763 0.929 . S
C2777 C2776 1.399 . S
C2777 C2778 1.385 . S
C2778 H2764 0.931 . S
C2778 C2777 1.385 . S
C2778 C2779 1.389 . S
C2779 C2778 1.389 . S
C2779 C2780 1.387 . S
C2780 H2765 0.930 . S
C2780 C2775 1.390 . S
C2780 C2779 1.387 . S
H2781 C2793 0.930 . S
H2782 C2795 0.930 . S
H2783 C2796 0.930 . S
H2784 C2800 0.959 . S
H2785 C2800 0.959 . S
H2786 C2800 0.961 . S
H2787 C2801 0.960 . S
H2788 C2801 0.961 . S
H2789 C2801 0.959 . S
H2790 C2804 0.929 . S
H2791 C2805 0.931 . S
H2792 C2807 0.930 . S
C2793 H2781 0.930 . S
C2793 C2794 1.399 . S
C2793 C2798 1.399 . S
C2794 C2793 1.399 . S
C2794 C2795 1.376 . S
C2795 H2782 0.930 . S
C2795 C2794 1.376 . S
C2795 C2796 1.388 . S
C2796 H2783 0.930 . S
C2796 C2795 1.388 . S
C2796 C2797 1.390 . S
C2797 C2796 1.390 . S
C2797 C2798 1.394 . S
C2797 C2803 1.465 . S
C2798 C2793 1.399 . S
C2798 C2797 1.394 . S
C2798 C2799 1.516 . S
C2799 C2798 1.516 . S
C2799 C2800 1.502 . S
C2799 C2801 1.561 . S
C2799 C2802 1.526 . S
C2800 H2784 0.959 . S
C2800 H2785 0.959 . S
C2800 H2786 0.961 . S
C2800 C2799 1.502 . S
C2801 H2787 0.960 . S
C2801 H2788 0.961 . S
C2801 H2789 0.959 . S
C2801 C2799 1.561 . S
C2802 C2799 1.526 . S
C2802 C2803 1.396 . S
C2802 C2807 1.390 . S
C2803 C2797 1.465 . S
C2803 C2802 1.396 . S
C2803 C2804 1.399 . S
C2804 H2790 0.929 . S
C2804 C2803 1.399 . S
C2804 C2805 1.385 . S
C2805 H2791 0.931 . S
C2805 C2804 1.385 . S
C2805 C2806 1.389 . S
C2806 C2805 1.389 . S
C2806 C2807 1.387 . S
C2807 H2792 0.930 . S
C2807 C2802 1.390 . S
C2807 C2806 1.387 . S
H2808 C2820 0.930 . S
H2809 C2822 0.930 . S
H2810 C2823 0.930 . S
H2811 C2827 0.959 . S
H2812 C2827 0.959 . S
H2813 C2827 0.961 . S
H2814 C2828 0.960 . S
H2815 C2828 0.961 . S
H2816 C2828 0.959 . S
H2817 C2831 0.929 . S
H2818 C2832 0.931 . S
H2819 C2834 0.930 . S
C2820 H2808 0.930 . S
C2820 C2821 1.399 . S
C2820 C2825 1.399 . S
C2821 C2820 1.399 . S
C2821 C2822 1.376 . S
C2822 H2809 0.930 . S
C2822 C2821 1.376 . S
C2822 C2823 1.388 . S
C2823 H2810 0.930 . S
C2823 C2822 1.388 . S
C2823 C2824 1.390 . S
C2824 C2823 1.390 . S
C2824 C2825 1.394 . S
C2824 C2830 1.465 . S
C2825 C2820 1.399 . S
C2825 C2824 1.394 . S
C2825 C2826 1.516 . S
C2826 C2825 1.516 . S
C2826 C2827 1.502 . S
C2826 C2828 1.561 . S
C2826 C2829 1.526 . S
C2827 H2811 0.959 . S
C2827 H2812 0.959 . S
C2827 H2813 0.961 . S
C2827 C2826 1.502 . S
C2828 H2814 0.960 . S
C2828 H2815 0.961 . S
C2828 H2816 0.959 . S
C2828 C2826 1.561 . S
C2829 C2826 1.526 . S
C2829 C2830 1.396 . S
C2829 C2834 1.390 . S
C2830 C2824 1.465 . S
C2830 C2829 1.396 . S
C2830 C2831 1.399 . S
C2831 H2817 0.929 . S
C2831 C2830 1.399 . S
C2831 C2832 1.385 . S
C2832 H2818 0.931 . S
C2832 C2831 1.385 . S
C2832 C2833 1.389 . S
C2833 C2832 1.389 . S
C2833 C2834 1.387 . S
C2834 H2819 0.930 . S
C2834 C2829 1.390 . S
C2834 C2833 1.387 . S
H2835 C2847 0.930 . S
H2836 C2849 0.930 . S
H2837 C2850 0.930 . S
H2838 C2854 0.959 . S
H2839 C2854 0.959 . S
H2840 C2854 0.961 . S
H2841 C2855 0.960 . S
H2842 C2855 0.961 . S
H2843 C2855 0.959 . S
H2844 C2858 0.929 . S
H2845 C2859 0.931 . S
H2846 C2861 0.930 . S
C2847 H2835 0.930 . S
C2847 C2848 1.399 . S
C2847 C2852 1.399 . S
C2848 C2847 1.399 . S
C2848 C2849 1.376 . S
C2849 H2836 0.930 . S
C2849 C2848 1.376 . S
C2849 C2850 1.388 . S
C2850 H2837 0.930 . S
C2850 C2849 1.388 . S
C2850 C2851 1.390 . S
C2851 C2850 1.390 . S
C2851 C2852 1.394 . S
C2851 C2857 1.465 . S
C2852 C2847 1.399 . S
C2852 C2851 1.394 . S
C2852 C2853 1.516 . S
C2853 C2852 1.516 . S
C2853 C2854 1.502 . S
C2853 C2855 1.561 . S
C2853 C2856 1.526 . S
C2854 H2838 0.959 . S
C2854 H2839 0.959 . S
C2854 H2840 0.961 . S
C2854 C2853 1.502 . S
C2855 H2841 0.960 . S
C2855 H2842 0.961 . S
C2855 H2843 0.959 . S
C2855 C2853 1.561 . S
C2856 C2853 1.526 . S
C2856 C2857 1.396 . S
C2856 C2861 1.390 . S
C2857 C2851 1.465 . S
C2857 C2856 1.396 . S
C2857 C2858 1.399 . S
C2858 H2844 0.929 . S
C2858 C2857 1.399 . S
C2858 C2859 1.385 . S
C2859 H2845 0.931 . S
C2859 C2858 1.385 . S
C2859 C2860 1.389 . S
C2860 C2859 1.389 . S
C2860 C2861 1.387 . S
C2861 H2846 0.930 . S
C2861 C2856 1.390 . S
C2861 C2860 1.387 . S
H2862 C2874 0.930 . S
H2863 C2876 0.930 . S
H2864 C2877 0.930 . S
H2865 C2881 0.959 . S
H2866 C2881 0.959 . S
H2867 C2881 0.961 . S
H2868 C2882 0.960 . S
H2869 C2882 0.961 . S
H2870 C2882 0.959 . S
H2871 C2885 0.929 . S
H2872 C2886 0.931 . S
H2873 C2888 0.930 . S
C2874 H2862 0.930 . S
C2874 C2875 1.399 . S
C2874 C2879 1.399 . S
C2875 C2874 1.399 . S
C2875 C2876 1.376 . S
C2876 H2863 0.930 . S
C2876 C2875 1.376 . S
C2876 C2877 1.388 . S
C2877 H2864 0.930 . S
C2877 C2876 1.388 . S
C2877 C2878 1.390 . S
C2878 C2877 1.390 . S
C2878 C2879 1.394 . S
C2878 C2884 1.465 . S
C2879 C2874 1.399 . S
C2879 C2878 1.394 . S
C2879 C2880 1.516 . S
C2880 C2879 1.516 . S
C2880 C2881 1.502 . S
C2880 C2882 1.561 . S
C2880 C2883 1.526 . S
C2881 H2865 0.959 . S
C2881 H2866 0.959 . S
C2881 H2867 0.961 . S
C2881 C2880 1.502 . S
C2882 H2868 0.960 . S
C2882 H2869 0.961 . S
C2882 H2870 0.959 . S
C2882 C2880 1.561 . S
C2883 C2880 1.526 . S
C2883 C2884 1.396 . S
C2883 C2888 1.390 . S
C2884 C2878 1.465 . S
C2884 C2883 1.396 . S
C2884 C2885 1.399 . S
C2885 H2871 0.929 . S
C2885 C2884 1.399 . S
C2885 C2886 1.385 . S
C2886 H2872 0.931 . S
C2886 C2885 1.385 . S
C2886 C2887 1.389 . S
C2887 C2886 1.389 . S
C2887 C2888 1.387 . S
C2888 H2873 0.930 . S
C2888 C2883 1.390 . S
C2888 C2887 1.387 . S
H2889 C2901 0.930 . S
H2890 C2903 0.930 . S
H2891 C2904 0.930 . S
H2892 C2908 0.959 . S
H2893 C2908 0.959 . S
H2894 C2908 0.961 . S
H2895 C2909 0.960 . S
H2896 C2909 0.961 . S
H2897 C2909 0.959 . S
H2898 C2912 0.929 . S
H2899 C2913 0.931 . S
H2900 C2915 0.930 . S
C2901 H2889 0.930 . S
C2901 C2902 1.399 . S
C2901 C2906 1.399 . S
C2902 C2901 1.399 . S
C2902 C2903 1.376 . S
C2903 H2890 0.930 . S
C2903 C2902 1.376 . S
C2903 C2904 1.388 . S
C2904 H2891 0.930 . S
C2904 C2903 1.388 . S
C2904 C2905 1.390 . S
C2905 C2904 1.390 . S
C2905 C2906 1.394 . S
C2905 C2911 1.465 . S
C2906 C2901 1.399 . S
C2906 C2905 1.394 . S
C2906 C2907 1.516 . S
C2907 C2906 1.516 . S
C2907 C2908 1.502 . S
C2907 C2909 1.561 . S
C2907 C2910 1.526 . S
C2908 H2892 0.959 . S
C2908 H2893 0.959 . S
C2908 H2894 0.961 . S
C2908 C2907 1.502 . S
C2909 H2895 0.960 . S
C2909 H2896 0.961 . S
C2909 H2897 0.959 . S
C2909 C2907 1.561 . S
C2910 C2907 1.526 . S
C2910 C2911 1.396 . S
C2910 C2915 1.390 . S
C2911 C2905 1.465 . S
C2911 C2910 1.396 . S
C2911 C2912 1.399 . S
C2912 H2898 0.929 . S
C2912 C2911 1.399 . S
C2912 C2913 1.385 . S
C2913 H2899 0.931 . S
C2913 C2912 1.385 . S
C2913 C2914 1.389 . S
C2914 C2913 1.389 . S
C2914 C2915 1.387 . S
C2915 H2900 0.930 . S
C2915 C2910 1.390 . S
C2915 C2914 1.387 . S
C1471 C528 1.427 . S
C1483 C769 1.313 . S
C1498 C562 1.492 . S
C1510 C853 1.412 . S
C1525 C484 1.464 . S
C1537 C933 1.436 . S
C1552 C445 1.427 . S
C1564 C849 1.376 . S
C1591 C937 1.360 . S
C1579 C367 1.428 . S
C1606 C411 1.400 . S
C1618 C765 1.322 . S
C1645 C758 1.390 . S
C1633 C450 1.445 . S
C1672 C842 1.432 . S
C1660 C372 1.457 . S
C1687 C406 1.449 . S
C1699 C944 1.452 . S
C1714 C523 1.407 . S
C1726 C860 1.413 . S
C1741 C567 1.394 . S
C1753 C926 1.373 . S
C1780 C776 1.387 . S
C1768 C489 1.402 . S
C1807 C1021 1.304 . S
C1795 C60 1.414 . S
C1822 C94 1.473 . S
C1834 C1105 1.413 . S
C1849 C16 1.469 . S
C1861 C1185 1.423 . S
C1876 C679 1.433 . S
C1888 C1101 1.357 . S
C1903 C601 1.431 . S
C1915 C1189 1.335 . S
C1930 C645 1.393 . S
C1942 C1017 1.343 . S
C1957 C684 1.423 . S
C1969 C1010 1.403 . S
C1984 C606 1.456 . S
C1996 C1094 1.429 . S
C2023 C1196 1.462 . S
C2011 C640 1.449 . S
C2038 C55 1.407 . S
C2050 C1112 1.410 . S
C2077 C1178 1.353 . S
C2065 C99 1.388 . S
C2092 C21 1.423 . S
C2104 C1028 1.337 . S
C2131 C1273 1.307 . S
C2119 C294 1.413 . S
C2146 C328 1.476 . S
C2158 C1357 1.394 . S
C2185 C1437 1.417 . S
C2173 C250 1.472 . S
C2212 C1353 1.359 . S
C2200 C211 1.433 . S
C2239 C1441 1.368 . S
C2227 C133 1.411 . S
C2254 C177 1.397 . S
C2266 C1269 1.331 . S
C2281 C216 1.415 . S
C2293 C1262 1.381 . S
C2308 C138 1.477 . S
C2320 C1346 1.404 . S
C2347 C1448 1.404 . S
C2335 C172 1.484 . S
C2362 C289 1.437 . S
C2374 C1364 1.350 . S
C2389 C333 1.390 . S
C2401 C1430 1.361 . S
C2416 C255 1.385 . S
C2428 C1280 1.389 . S
C2443 C586 1.457 . S
C2455 C772 1.283 . S
C2482 C856 1.322 . S
C2470 C625 1.487 . S
C2497 C664 1.467 . S
C2509 C928 1.400 . S
C2524 C235 1.512 . S
C2536 C844 1.298 . S
C2551 C274 1.459 . S
C2563 C940 1.349 . S
C2590 C760 1.310 . S
C2578 C313 1.458 . S
C2605 C118 1.457 . S
C2617 C1024 1.292 . S
C2632 C157 1.486 . S
C2644 C1108 1.351 . S
C2659 C196 1.467 . S
C2671 C1180 1.399 . S
C2686 C469 1.512 . S
C2698 C1096 1.302 . S
C2725 C1192 1.296 . S
C2713 C508 1.456 . S
C2740 C547 1.453 . S
C2752 C1012 1.379 . S
C2767 C352 1.456 . S
C2779 C1276 1.365 . S
C2794 C391 1.486 . S
C2806 C1360 1.345 . S
C2833 C1432 1.399 . S
C2821 C430 1.467 . S
C2848 C1 1.511 . S
C2860 C1348 1.313 . S
C2875 C40 1.459 . S
C2887 C1444 1.357 . S
C2902 C79 1.453 . S
C2914 C1264 1.360 . S
