# Generated by pormake.
# Topology ctn, (3,4)-cn, num edge types: 1
# Building blocks:
#     Node 0, Type 0, BuildingBlock: BETDIP_clean_linker_0, # of connection points: 3
#     Node 1, Type 0, BuildingBlock: BETDIP_clean_linker_0, # of connection points: 3
#     Node 2, Type 0, BuildingBlock: BETDIP_clean_linker_0, # of connection points: 3
#     Node 3, Type 0, BuildingBlock: BETDIP_clean_linker_0, # of connection points: 3
#     Node 4, Type 0, BuildingBlock: BETDIP_clean_linker_0, # of connection points: 3
#     Node 5, Type 0, BuildingBlock: BETDIP_clean_linker_0, # of connection points: 3
#     Node 6, Type 0, BuildingBlock: BETDIP_clean_linker_0, # of connection points: 3
#     Node 7, Type 0, BuildingBlock: BETDIP_clean_linker_0, # of connection points: 3
#     Node 8, Type 0, BuildingBlock: BETDIP_clean_linker_0, # of connection points: 3
#     Node 9, Type 0, BuildingBlock: BETDIP_clean_linker_0, # of connection points: 3
#     Node 10, Type 0, BuildingBlock: BETDIP_clean_linker_0, # of connection points: 3
#     Node 11, Type 0, BuildingBlock: BETDIP_clean_linker_0, # of connection points: 3
#     Node 12, Type 0, BuildingBlock: BETDIP_clean_linker_0, # of connection points: 3
#     Node 13, Type 0, BuildingBlock: BETDIP_clean_linker_0, # of connection points: 3
#     Node 14, Type 0, BuildingBlock: BETDIP_clean_linker_0, # of connection points: 3
#     Node 15, Type 0, BuildingBlock: BETDIP_clean_linker_0, # of connection points: 3
#     Node 16, Type 1, BuildingBlock: AZAVOO_clean_sbu_0, # of connection points: 4
#     Node 17, Type 1, BuildingBlock: AZAVOO_clean_sbu_0, # of connection points: 4
#     Node 18, Type 1, BuildingBlock: AZAVOO_clean_sbu_0, # of connection points: 4
#     Node 19, Type 1, BuildingBlock: AZAVOO_clean_sbu_0, # of connection points: 4
#     Node 20, Type 1, BuildingBlock: AZAVOO_clean_sbu_0, # of connection points: 4
#     Node 21, Type 1, BuildingBlock: AZAVOO_clean_sbu_0, # of connection points: 4
#     Node 22, Type 1, BuildingBlock: AZAVOO_clean_sbu_0, # of connection points: 4
#     Node 23, Type 1, BuildingBlock: AZAVOO_clean_sbu_0, # of connection points: 4
#     Node 24, Type 1, BuildingBlock: AZAVOO_clean_sbu_0, # of connection points: 4
#     Node 25, Type 1, BuildingBlock: AZAVOO_clean_sbu_0, # of connection points: 4
#     Node 26, Type 1, BuildingBlock: AZAVOO_clean_sbu_0, # of connection points: 4
#     Node 27, Type 1, BuildingBlock: AZAVOO_clean_sbu_0, # of connection points: 4
#     Edge 28, Type (0, 1), BuildingBlock: KIFKEQ_clean_linker_1, # of connection points: 2
#     Edge 29, Type (0, 1), BuildingBlock: KIFKEQ_clean_linker_1, # of connection points: 2
#     Edge 30, Type (0, 1), BuildingBlock: KIFKEQ_clean_linker_1, # of connection points: 2
#     Edge 31, Type (0, 1), BuildingBlock: KIFKEQ_clean_linker_1, # of connection points: 2
#     Edge 32, Type (0, 1), BuildingBlock: KIFKEQ_clean_linker_1, # of connection points: 2
#     Edge 33, Type (0, 1), BuildingBlock: KIFKEQ_clean_linker_1, # of connection points: 2
#     Edge 34, Type (0, 1), BuildingBlock: KIFKEQ_clean_linker_1, # of connection points: 2
#     Edge 35, Type (0, 1), BuildingBlock: KIFKEQ_clean_linker_1, # of connection points: 2
#     Edge 36, Type (0, 1), BuildingBlock: KIFKEQ_clean_linker_1, # of connection points: 2
#     Edge 37, Type (0, 1), BuildingBlock: KIFKEQ_clean_linker_1, # of connection points: 2
#     Edge 38, Type (0, 1), BuildingBlock: KIFKEQ_clean_linker_1, # of connection points: 2
#     Edge 39, Type (0, 1), BuildingBlock: KIFKEQ_clean_linker_1, # of connection points: 2
#     Edge 40, Type (0, 1), BuildingBlock: KIFKEQ_clean_linker_1, # of connection points: 2
#     Edge 41, Type (0, 1), BuildingBlock: KIFKEQ_clean_linker_1, # of connection points: 2
#     Edge 42, Type (0, 1), BuildingBlock: KIFKEQ_clean_linker_1, # of connection points: 2
#     Edge 43, Type (0, 1), BuildingBlock: KIFKEQ_clean_linker_1, # of connection points: 2
#     Edge 44, Type (0, 1), BuildingBlock: KIFKEQ_clean_linker_1, # of connection points: 2
#     Edge 45, Type (0, 1), BuildingBlock: KIFKEQ_clean_linker_1, # of connection points: 2
#     Edge 46, Type (0, 1), BuildingBlock: KIFKEQ_clean_linker_1, # of connection points: 2
#     Edge 47, Type (0, 1), BuildingBlock: KIFKEQ_clean_linker_1, # of connection points: 2
#     Edge 48, Type (0, 1), BuildingBlock: KIFKEQ_clean_linker_1, # of connection points: 2
#     Edge 49, Type (0, 1), BuildingBlock: KIFKEQ_clean_linker_1, # of connection points: 2
#     Edge 50, Type (0, 1), BuildingBlock: KIFKEQ_clean_linker_1, # of connection points: 2
#     Edge 51, Type (0, 1), BuildingBlock: KIFKEQ_clean_linker_1, # of connection points: 2
#     Edge 52, Type (0, 1), BuildingBlock: KIFKEQ_clean_linker_1, # of connection points: 2
#     Edge 53, Type (0, 1), BuildingBlock: KIFKEQ_clean_linker_1, # of connection points: 2
#     Edge 54, Type (0, 1), BuildingBlock: KIFKEQ_clean_linker_1, # of connection points: 2
#     Edge 55, Type (0, 1), BuildingBlock: KIFKEQ_clean_linker_1, # of connection points: 2
#     Edge 56, Type (0, 1), BuildingBlock: KIFKEQ_clean_linker_1, # of connection points: 2
#     Edge 57, Type (0, 1), BuildingBlock: KIFKEQ_clean_linker_1, # of connection points: 2
#     Edge 58, Type (0, 1), BuildingBlock: KIFKEQ_clean_linker_1, # of connection points: 2
#     Edge 59, Type (0, 1), BuildingBlock: KIFKEQ_clean_linker_1, # of connection points: 2
#     Edge 60, Type (0, 1), BuildingBlock: KIFKEQ_clean_linker_1, # of connection points: 2
#     Edge 61, Type (0, 1), BuildingBlock: KIFKEQ_clean_linker_1, # of connection points: 2
#     Edge 62, Type (0, 1), BuildingBlock: KIFKEQ_clean_linker_1, # of connection points: 2
#     Edge 63, Type (0, 1), BuildingBlock: KIFKEQ_clean_linker_1, # of connection points: 2
#     Edge 64, Type (0, 1), BuildingBlock: KIFKEQ_clean_linker_1, # of connection points: 2
#     Edge 65, Type (0, 1), BuildingBlock: KIFKEQ_clean_linker_1, # of connection points: 2
#     Edge 66, Type (0, 1), BuildingBlock: KIFKEQ_clean_linker_1, # of connection points: 2
#     Edge 67, Type (0, 1), BuildingBlock: KIFKEQ_clean_linker_1, # of connection points: 2
#     Edge 68, Type (0, 1), BuildingBlock: KIFKEQ_clean_linker_1, # of connection points: 2
#     Edge 69, Type (0, 1), BuildingBlock: KIFKEQ_clean_linker_1, # of connection points: 2
#     Edge 70, Type (0, 1), BuildingBlock: KIFKEQ_clean_linker_1, # of connection points: 2
#     Edge 71, Type (0, 1), BuildingBlock: KIFKEQ_clean_linker_1, # of connection points: 2
#     Edge 72, Type (0, 1), BuildingBlock: KIFKEQ_clean_linker_1, # of connection points: 2
#     Edge 73, Type (0, 1), BuildingBlock: KIFKEQ_clean_linker_1, # of connection points: 2
#     Edge 74, Type (0, 1), BuildingBlock: KIFKEQ_clean_linker_1, # of connection points: 2
#     Edge 75, Type (0, 1), BuildingBlock: KIFKEQ_clean_linker_1, # of connection points: 2
# Relax obj value: 0.066
# Max RMSD: 0.204
# Mean RMSD: 0.114
data_MOF--net-ctn--node1-AZAVOO_clean_sbu_0--node2-BETDIP_clean_linker_0--edge1-KIFKEQ_clean_linker_1
_symmetry_space_group_name_H-M    P1
_symmetry_Int_Tables_number       1
_symmetry_cell_setting            triclinic
loop_
_symmetry_equiv_pos_as_xyz
'x, y, z'
_cell_length_a     52.326346
_cell_length_b     53.739178
_cell_length_c     58.737249
_cell_angle_alpha  93.491739
_cell_angle_beta   96.666374
_cell_angle_gamma 96.107063
loop_
_atom_site_label
_atom_site_type_symbol
_atom_site_fract_x
_atom_site_fract_y
_atom_site_fract_z
_atom_type_partial_charge
H0 H 0.02038 0.04202 0.04006 0.0
H1 H 0.07296 0.00846 0.99996 0.0
H2 H 0.0579 0.97953 0.06436 0.0
H3 H 0.07535 0.04376 0.98351 0.0
C4 C 0.05782 0.0525 0.98502 0.0
C5 C 0.03324 0.02778 0.0377 0.0
C6 C 0.03762 0.01086 0.05464 0.0
C7 C 0.04618 0.02741 0.01817 0.0
C8 C 0.06308 0.00915 0.01508 0.0
C9 C 0.06756 0.99172 0.03162 0.0
C10 C 0.05486 0.99289 0.0515 0.0
N11 N 0.04188 0.04592 0.00227 0.0
H12 H 0.28674 0.7022 0.21054 0.0
H13 H 0.35421 0.75219 0.23807 0.0
H14 H 0.33013 0.68867 0.27467 0.0
H15 H 0.32445 0.78059 0.21844 0.0
C16 C 0.32184 0.76889 0.20239 0.0
C17 C 0.30258 0.70753 0.22414 0.0
C18 C 0.30583 0.69297 0.2431 0.0
C19 C 0.3196 0.72905 0.22245 0.0
C20 C 0.34055 0.73595 0.23964 0.0
C21 C 0.34473 0.72101 0.2582 0.0
C22 C 0.32724 0.6997 0.25994 0.0
N23 N 0.31602 0.74253 0.20257 0.0
H24 H 0.95413 0.50538 0.01858 0.0
H25 H 0.01642 0.47545 0.05772 0.0
H26 H 0.98415 0.53912 0.08618 0.0
H27 H 0.02857 0.47171 0.01992 0.0
C28 C 0.01006 0.4623 0.01178 0.0
C29 C 0.9673 0.50588 0.03431 0.0
C30 C 0.96658 0.52416 0.05232 0.0
C31 C 0.98582 0.48897 0.03588 0.0
C32 C 1.00304 0.48946 0.05612 0.0
C33 C 1.00273 0.50747 0.07447 0.0
C34 C 0.98442 0.52488 0.07235 0.0
N35 N 0.98675 0.47149 0.01694 0.0
H36 H 0.70824 0.80192 0.18984 0.0
H37 H 0.73586 0.87292 0.22722 0.0
H38 H 0.77653 0.84501 0.17326 0.0
H39 H 0.69794 0.86873 0.24138 0.0
C40 C 0.69193 0.84874 0.24099 0.0
C41 C 0.72194 0.81875 0.19256 0.0
C42 C 0.74251 0.82156 0.17931 0.0
C43 C 0.71937 0.83701 0.20995 0.0
C44 C 0.73747 0.85871 0.2138 0.0
C45 C 0.75803 0.862 0.20036 0.0
C46 C 0.76044 0.84312 0.18334 0.0
N47 N 0.69936 0.83189 0.22402 0.0
H48 H 0.01896 0.97852 0.4556 0.0
H49 H 0.08751 0.00407 0.50209 0.0
H50 H 0.06919 0.04281 0.44136 0.0
H51 H 0.06457 0.98284 0.52794 0.0
C52 C 0.05506 0.96655 0.5172 0.0
C53 C 0.03609 0.99185 0.46026 0.0
C54 C 0.04212 0.01098 0.44584 0.0
C55 C 0.05193 0.98958 0.48078 0.0
C56 C 0.0745 0.00649 0.48688 0.0
C57 C 0.08102 0.02579 0.47267 0.0
C58 C 0.06443 0.02802 0.4524 0.0
N59 N 0.04542 0.96894 0.49387 0.0
H60 H 0.20632 0.72997 0.79205 0.0
H61 H 0.24276 0.68266 0.74713 0.0
H62 H 0.27879 0.70362 0.81618 0.0
H63 H 0.22126 0.70471 0.72007 0.0
C64 C 0.20271 0.7062 0.72634 0.0
C65 C 0.22213 0.71911 0.78924 0.0
C66 C 0.24268 0.71859 0.80678 0.0
C67 C 0.22222 0.70667 0.76764 0.0
C68 C 0.24276 0.69267 0.76368 0.0
C69 C 0.26341 0.69158 0.7811 0.0
C70 C 0.2632 0.7047 0.80255 0.0
N71 N 0.20127 0.70861 0.75037 0.0
H72 H 0.98314 0.55751 0.45387 0.0
H73 H 0.94053 0.4847 0.43597 0.0
H74 H 0.92513 0.52961 0.49491 0.0
H75 H 0.96112 0.48384 0.4053 0.0
C76 C 0.97741 0.49839 0.40741 0.0
C77 C 0.96825 0.54299 0.45712 0.0
C78 C 0.95444 0.5463 0.47595 0.0
C79 C 0.96363 0.52088 0.44268 0.0
C80 C 0.94451 0.50183 0.447 0.0
C81 C 0.93027 0.5049 0.46576 0.0
C82 C 0.93561 0.52715 0.48022 0.0
N83 N 0.97938 0.5185 0.42466 0.0
H84 H 0.78852 0.80718 0.75387 0.0
H85 H 0.81998 0.75475 0.79813 0.0
H86 H 0.76044 0.79791 0.81904 0.0
H87 H 0.85768 0.76902 0.78083 0.0
C88 C 0.84963 0.77078 0.76318 0.0
C89 C 0.78895 0.79841 0.77003 0.0
C90 C 0.77214 0.8046 0.7859 0.0
C91 C 0.80684 0.78137 0.77478 0.0
C92 C 0.80704 0.76896 0.79519 0.0
C93 C 0.78976 0.77417 0.81118 0.0
C94 C 0.7728 0.79252 0.80648 0.0
N95 N 0.82394 0.77697 0.75826 0.0
H96 H 0.30268 0.31567 0.26208 0.0
H97 H 0.33398 0.26792 0.31156 0.0
H98 H 0.26503 0.30189 0.32213 0.0
H99 H 0.35614 0.25546 0.28306 0.0
C100 C 0.35811 0.27062 0.27178 0.0
C101 C 0.30155 0.30682 0.27808 0.0
C102 C 0.28152 0.31097 0.29133 0.0
C103 C 0.3203 0.29121 0.28496 0.0
C104 C 0.31909 0.27931 0.30558 0.0
C105 C 0.29914 0.28308 0.31916 0.0
C106 C 0.28035 0.29879 0.31174 0.0
N107 N 0.34042 0.28893 0.2709 0.0
H108 H 0.45645 0.0192 0.51408 0.0
H109 H 0.51601 0.98629 0.55413 0.0
H110 H 0.47201 0.03806 0.58711 0.0
H111 H 0.5331 0.98802 0.51849 0.0
C112 C 0.51549 0.97904 0.50832 0.0
C113 C 0.46721 0.01716 0.53065 0.0
C114 C 0.46205 0.0309 0.5504 0.0
C115 C 0.48688 0.00146 0.53184 0.0
C116 C 0.50099 0.9987 0.55319 0.0
C117 C 0.49572 0.01161 0.57338 0.0
C118 C 0.47639 0.02801 0.57174 0.0
N119 N 0.49135 0.98773 0.51151 0.0
H120 H 0.20925 0.30468 0.70072 0.0
H121 H 0.24724 0.36969 0.74251 0.0
H122 H 0.27637 0.34692 0.68023 0.0
H123 H 0.20952 0.36951 0.75652 0.0
C124 C 0.20101 0.3501 0.75562 0.0
C125 C 0.22449 0.32025 0.70367 0.0
C126 C 0.24257 0.32374 0.6879 0.0
C127 C 0.22553 0.33695 0.72312 0.0
C128 C 0.24547 0.35707 0.72722 0.0
C129 C 0.26353 0.36092 0.71152 0.0
C130 C 0.26188 0.34431 0.69192 0.0
N131 N 0.20662 0.33244 0.73839 0.0
H132 H 0.77193 0.20338 0.71025 0.0
H133 H 0.84544 0.24624 0.73293 0.0
H134 H 0.81765 0.18549 0.77137 0.0
H135 H 0.82874 0.27571 0.71069 0.0
C136 C 0.81602 0.26482 0.69687 0.0
C137 C 0.78899 0.20722 0.72284 0.0
C138 C 0.79256 0.19188 0.74113 0.0
C139 C 0.80753 0.22718 0.72008 0.0
C140 C 0.83042 0.23165 0.73561 0.0
C141 C 0.83447 0.21635 0.75403 0.0
C142 C 0.81515 0.19685 0.75683 0.0
N143 N 0.80297 0.24115 0.70058 0.0
H144 H 0.52022 0.54547 0.54265 0.0
H145 H 0.57582 0.52244 0.49987 0.0
H146 H 0.56596 0.48645 0.56231 0.0
H147 H 0.55036 0.54074 0.47226 0.0
C148 C 0.54623 0.55717 0.48229 0.0
C149 C 0.53452 0.53303 0.5391 0.0
C150 C 0.54114 0.51527 0.55466 0.0
C151 C 0.5467 0.53562 0.51931 0.0
C152 C 0.56595 0.52025 0.51495 0.0
C153 C 0.57301 0.50234 0.53031 0.0
C154 C 0.56045 0.49993 0.55018 0.0
N155 N 0.54049 0.55521 0.5052 0.0
H156 H 0.52389 0.48138 0.95678 0.0
H157 H 0.59022 0.50501 0.00662 0.0
H158 H 0.58003 0.54175 0.94379 0.0
H159 H 0.56675 0.48267 0.03062 0.0
C160 C 0.55598 0.46733 0.01941 0.0
C161 C 0.54157 0.4938 0.96207 0.0
C162 C 0.55001 0.51206 0.94761 0.0
C163 C 0.55567 0.49119 0.98338 0.0
C164 C 0.57867 0.50721 0.9905 0.0
C165 C 0.58754 0.5255 0.97622 0.0
C166 C 0.57308 0.52781 0.95488 0.0
N167 N 0.54694 0.47105 0.99623 0.0
H168 H 0.70562 0.23713 0.28975 0.0
H169 H 0.7405 0.18793 0.24524 0.0
H170 H 0.77801 0.21045 0.31356 0.0
H171 H 0.71914 0.20998 0.21797 0.0
C172 C 0.70068 0.21158 0.22437 0.0
C173 C 0.7212 0.22597 0.28694 0.0
C174 C 0.74203 0.22566 0.30425 0.0
C175 C 0.72074 0.21289 0.26554 0.0
C176 C 0.74095 0.19846 0.26162 0.0
C177 C 0.76184 0.19756 0.27885 0.0
C178 C 0.76223 0.21134 0.30006 0.0
N179 N 0.69956 0.21459 0.24842 0.0
H180 H 0.48454 0.05011 0.9586 0.0
H181 H 0.4445 0.97601 0.94429 0.0
H182 H 0.42214 0.02584 0.99666 0.0
H183 H 0.46034 0.97821 0.9103 0.0
C184 C 0.47869 0.99005 0.91389 0.0
C185 C 0.46957 0.03589 0.96223 0.0
C186 C 0.45404 0.04076 0.97959 0.0
C187 C 0.46587 0.01294 0.94909 0.0
C188 C 0.44653 0.99426 0.95354 0.0
C189 C 0.43043 0.99875 0.97065 0.0
C190 C 0.43433 0.02215 0.98346 0.0
N191 N 0.48273 0.00917 0.93218 0.0
Mg192 Mg 0.23807 0.83601 0.01017 0.0
O193 O 0.27475 0.86215 0.00537 0.0
O194 O 0.3077 0.83865 0.009 0.0
Mg195 Mg 0.2931 0.79899 0.01702 0.0
C196 C 0.29874 0.85942 0.00525 0.0
C197 C 0.19233 0.86272 0.0119 0.0
O198 O 0.19157 0.84428 0.0256 0.0
O199 O 0.23796 0.81731 0.97362 0.0
O200 O 0.271 0.79457 0.98083 0.0
O201 O 0.2453 0.84536 0.04816 0.0
O202 O 0.26011 0.81358 0.03034 0.0
C203 C 0.2528 0.8015 0.96707 0.0
C204 C 0.25898 0.82673 0.04915 0.0
O205 O 0.21072 0.86497 0.99945 0.0
Mg206 Mg 0.15467 0.50048 0.26906 0.0
O207 O 0.13122 0.50075 0.23307 0.0
O208 O 0.16044 0.50336 0.20816 0.0
Mg209 Mg 0.20113 0.50351 0.22682 0.0
C210 C 0.13706 0.50234 0.21261 0.0
C211 C 0.12165 0.49386 0.30746 0.0
O212 O 0.14533 0.50112 0.31736 0.0
O213 O 0.16185 0.45934 0.26261 0.0
O214 O 0.19158 0.46391 0.23828 0.0
O215 O 0.16041 0.54264 0.27242 0.0
O216 O 0.18738 0.51913 0.25781 0.0
C217 C 0.17787 0.45025 0.25043 0.0
C218 C 0.18131 0.54117 0.26282 0.0
O219 O 0.11789 0.49042 0.28566 0.0
Mg220 Mg 0.79907 0.68566 0.01604 0.0
O221 O 0.76067 0.65893 0.01029 0.0
O222 O 0.72868 0.68351 0.00715 0.0
Mg223 Mg 0.74561 0.72442 0.00831 0.0
C224 C 0.73656 0.66186 0.00786 0.0
C225 C 0.8427 0.65534 0.02838 0.0
O226 O 0.84622 0.67551 0.04269 0.0
O227 O 0.79606 0.69254 0.97774 0.0
O228 O 0.76326 0.71626 0.97478 0.0
O229 O 0.79661 0.68921 0.05364 0.0
O230 O 0.78003 0.71466 0.02932 0.0
C231 C 0.78057 0.70512 0.96598 0.0
C232 C 0.7834 0.7079 0.05003 0.0
O233 O 0.82345 0.65296 0.0127 0.0
Mg234 Mg 0.94031 0.05203 0.2391 0.0
O235 O 0.91161 0.01623 0.23135 0.0
O236 O 0.93422 0.98416 0.22434 0.0
Mg237 Mg 0.97723 0.99896 0.22881 0.0
C238 C 0.91277 0.99299 0.22615 0.0
C239 C 0.90843 0.09646 0.24751 0.0
O240 O 0.92789 0.10721 0.23803 0.0
O241 O 0.95216 0.04 0.2753 0.0
O242 O 0.97562 0.00893 0.26724 0.0
O243 O 0.93904 0.05781 0.20143 0.0
O244 O 0.96699 0.03612 0.22014 0.0
C245 C 0.96635 0.02312 0.28171 0.0
C246 C 0.95774 0.04391 0.20093 0.0
O247 O 0.90786 0.07328 0.25098 0.0
Mg248 Mg 0.28957 0.18914 0.52002 0.0
O249 O 0.25158 0.16214 0.51237 0.0
O250 O 0.2196 0.18651 0.50678 0.0
Mg251 Mg 0.23585 0.22779 0.5125 0.0
C252 C 0.22761 0.16492 0.50757 0.0
C253 C 0.33211 0.15735 0.53317 0.0
O254 O 0.33388 0.17558 0.54943 0.0
O255 O 0.28774 0.19798 0.48186 0.0
O256 O 0.25624 0.22309 0.48036 0.0
O257 O 0.28569 0.1913 0.55768 0.0
O258 O 0.2696 0.21716 0.53365 0.0
C259 C 0.27345 0.21239 0.47097 0.0
C260 C 0.27253 0.21005 0.55421 0.0
O261 O 0.31463 0.15693 0.5161 0.0
Mg262 Mg 0.44543 0.5505 0.74001 0.0
O263 O 0.41774 0.51394 0.73374 0.0
O264 O 0.44138 0.48215 0.72903 0.0
Mg265 Mg 0.48383 0.4983 0.73051 0.0
C266 C 0.41963 0.49054 0.73038 0.0
C267 C 0.41272 0.5944 0.74902 0.0
O268 O 0.43205 0.60577 0.73979 0.0
O269 O 0.45908 0.54009 0.77654 0.0
O270 O 0.48375 0.50992 0.76871 0.0
O271 O 0.44275 0.55493 0.70207 0.0
O272 O 0.47192 0.53464 0.72091 0.0
C273 C 0.47442 0.52417 0.78307 0.0
C274 C 0.46188 0.54155 0.70159 0.0
O275 O 0.4126 0.57115 0.7521 0.0
Mg276 Mg 0.73771 0.34331 0.5071 0.0
O277 O 0.77518 0.36912 0.50386 0.0
O278 O 0.80818 0.34598 0.50929 0.0
Mg279 Mg 0.79248 0.30584 0.51469 0.0
C280 C 0.79938 0.36676 0.50526 0.0
C281 C 0.71568 0.39432 0.50721 0.0
O282 O 0.73634 0.39898 0.52249 0.0
O283 O 0.73909 0.3258 0.47049 0.0
O284 O 0.77205 0.30298 0.47782 0.0
O285 O 0.74303 0.35082 0.54545 0.0
O286 O 0.75878 0.32001 0.52718 0.0
C287 C 0.75429 0.31039 0.46389 0.0
C288 C 0.75672 0.33216 0.54629 0.0
O289 O 0.71174 0.37316 0.49564 0.0
Mg290 Mg 0.64575 0.99758 0.76729 0.0
O291 O 0.62009 0.99578 0.73225 0.0
O292 O 0.64704 0.99594 0.70535 0.0
Mg293 Mg 0.68889 1.00006 0.72244 0.0
C294 C 0.62424 0.99512 0.7112 0.0
C295 C 0.61599 0.98446 0.80724 0.0
O296 O 0.64041 0.98731 0.81624 0.0
O297 O 0.65457 0.95682 0.76177 0.0
O298 O 0.68285 0.96111 0.73612 0.0
O299 O 0.64938 0.03959 0.76934 0.0
O300 O 0.6764 0.01689 0.7537 0.0
C301 C 0.67046 0.94776 0.74944 0.0
C302 C 0.66956 0.03868 0.75861 0.0
O303 O 0.61075 0.98645 0.78579 0.0
Mg304 Mg 0.04907 0.25843 0.89695 0.0
O305 O 0.00965 0.24849 0.87477 0.0
O306 O 0.98144 0.2336 0.89785 0.0
Mg307 Mg 1.00211 0.23497 0.93443 0.0
C308 C 0.9869 0.23943 0.87808 0.0
C309 C 0.08597 0.2939 0.87338 0.0
O310 O 0.09521 0.29835 0.89519 0.0
O311 O 0.03498 0.2939 0.91186 0.0
O312 O 0.00771 0.27814 0.93536 0.0
O313 O 0.05861 0.21911 0.89156 0.0
O314 O 0.03882 0.2327 0.92029 0.0
C315 C 0.01931 0.29679 0.9267 0.0
C316 C 0.04742 0.21434 0.9096 0.0
O317 O 0.06559 0.27862 0.86798 0.0
Mg318 Mg 0.55728 0.76967 0.40196 0.0
O319 O 0.51766 0.76027 0.37997 0.0
O320 O 0.48871 0.74934 0.40385 0.0
Mg321 Mg 0.50965 0.74973 0.44019 0.0
C322 C 0.49447 0.75348 0.38378 0.0
C323 C 0.5952 0.78109 0.36714 0.0
O324 O 0.60513 0.76357 0.3788 0.0
O325 O 0.54467 0.80636 0.41614 0.0
O326 O 0.5173 0.79263 0.44036 0.0
O327 O 0.56538 0.72989 0.39718 0.0
O328 O 0.54577 0.74456 0.4256 0.0
C329 C 0.52945 0.81047 0.43111 0.0
C330 C 0.5537 0.72565 0.41505 0.0
O331 O 0.57429 0.78866 0.37244 0.0
Mg332 Mg 0.99206 0.75097 0.59914 0.0
O333 O 0.03109 0.74121 0.61679 0.0
O334 O 0.05482 0.73109 0.58906 0.0
Mg335 Mg 0.03196 0.73501 0.55417 0.0
C336 C 0.05182 0.73412 0.61028 0.0
C337 C 0.96054 0.77621 0.63359 0.0
O338 O 0.94905 0.78194 0.61381 0.0
O339 O 0.01123 0.78952 0.59113 0.0
O340 O 0.03296 0.77741 0.56258 0.0
O341 O 0.97564 0.71056 0.59624 0.0
O342 O 0.9959 0.7285 0.56957 0.0
C343 C 0.02569 0.79464 0.5755 0.0
C344 C 0.98464 0.70848 0.57669 0.0
O345 O 0.98078 0.76504 0.63371 0.0
Mg346 Mg 0.48776 0.24944 0.0965 0.0
O347 O 0.52717 0.24105 0.1145 0.0
O348 O 0.55111 0.23088 0.08693 0.0
Mg349 Mg 0.52819 0.23368 0.05183 0.0
C350 C 0.54809 0.23427 0.10811 0.0
C351 C 0.45414 0.25242 0.13446 0.0
O352 O 0.44167 0.23608 0.11836 0.0
O353 O 0.50603 0.28811 0.08797 0.0
O354 O 0.52817 0.2761 0.05967 0.0
O355 O 0.47271 0.20873 0.0944 0.0
O356 O 0.49225 0.2264 0.06725 0.0
C357 C 0.52047 0.2933 0.07233 0.0
C358 C 0.4816 0.20638 0.07486 0.0
O359 O 0.4757 0.26391 0.13085 0.0
H360 H 0.28371 0.74696 0.83228 0.0
H361 H 0.20224 0.7229 0.83219 0.0
H362 H 0.28491 0.76904 0.8699 0.0
H363 H 0.20347 0.74516 0.86997 0.0
H364 H 0.21409 0.80603 0.93167 0.0
H365 H 0.2106 0.78784 0.89186 0.0
H366 H 0.28156 0.75485 0.90832 0.0
H367 H 0.28526 0.77287 0.94738 0.0
C368 C 0.26607 0.74628 0.84034 0.0
C369 C 0.24298 0.73287 0.82935 0.0
C370 C 0.26673 0.75903 0.86186 0.0
C371 C 0.24432 0.75868 0.873 0.0
C372 C 0.221 0.74597 0.86174 0.0
C373 C 0.22033 0.73316 0.84014 0.0
C374 C 0.22894 0.79496 0.9267 0.0
C375 C 0.24993 0.79098 0.9428 0.0
C376 C 0.22689 0.78447 0.90396 0.0
C377 C 0.24594 0.77009 0.89691 0.0
C378 C 0.26681 0.76619 0.91304 0.0
C379 C 0.26877 0.77643 0.93559 0.0
H380 H 0.97926 0.46337 0.37229 0.0
H381 H 0.02157 0.53085 0.40756 0.0
H382 H 0.01356 0.46055 0.34741 0.0
H383 H 0.0554 0.52822 0.38275 0.0
H384 H 0.12451 0.50097 0.35399 0.0
H385 H 0.08917 0.50099 0.37737 0.0
H386 H 0.03388 0.48275 0.31659 0.0
H387 H 0.06952 0.48246 0.29297 0.0
C388 C 0.99581 0.47763 0.37463 0.0
C389 C 0.99776 0.49723 0.39192 0.0
C390 C 0.01535 0.47608 0.36035 0.0
C391 C 0.0373 0.49405 0.36323 0.0
C392 C 0.03898 0.51383 0.38034 0.0
C393 C 0.01946 0.51542 0.3945 0.0
C394 C 0.10486 0.4968 0.34553 0.0
C395 C 0.09987 0.49189 0.32155 0.0
C396 C 0.08457 0.49697 0.35897 0.0
C397 C 0.0587 0.49219 0.34882 0.0
C398 C 0.05362 0.48643 0.32492 0.0
C399 C 0.07402 0.48634 0.3114 0.0
H400 H 0.83006 0.75564 0.83729 0.0
H401 H 0.74791 0.76127 0.83408 0.0
H402 H 0.8286 0.73382 0.87214 0.0
H403 H 0.74709 0.74237 0.87012 0.0
H404 H 0.74388 0.69579 0.92901 0.0
H405 H 0.74702 0.70796 0.8901 0.0
H406 H 0.82692 0.73852 0.91068 0.0
H407 H 0.82403 0.72407 0.94891 0.0
C408 C 0.81165 0.75231 0.84392 0.0
C409 C 0.78915 0.76056 0.83268 0.0
C410 C 0.8109 0.7401 0.8643 0.0
C411 C 0.78775 0.73624 0.87436 0.0
C412 C 0.76527 0.74435 0.86297 0.0
C413 C 0.76588 0.75591 0.84235 0.0
C414 C 0.76225 0.70452 0.92488 0.0
C415 C 0.78373 0.70892 0.94179 0.0
C416 C 0.76403 0.71193 0.90266 0.0
C417 C 0.78707 0.72492 0.89705 0.0
C418 C 0.80889 0.72838 0.91396 0.0
C419 C 0.80729 0.72017 0.93599 0.0
H420 H 0.0199 0.97204 0.4152 0.0
H421 H 0.02833 0.05297 0.42514 0.0
H422 H 0.99732 0.9742 0.37692 0.0
H423 H 0.00704 0.05517 0.38626 0.0
H424 H 0.95343 0.05081 0.31892 0.0
H425 H 0.96771 0.04715 0.35962 0.0
H426 H 0.01032 0.98587 0.34121 0.0
H427 H 0.99565 0.98901 0.30099 0.0
C428 C 0.01668 0.99031 0.40937 0.0
C429 C 0.02618 0.01234 0.42327 0.0
C430 C 0.00401 0.99156 0.38724 0.0
C431 C 1.00066 0.01487 0.37831 0.0
C432 C 0.00915 0.03688 0.39256 0.0
C433 C 0.0217 0.03563 0.41477 0.0
C434 C 0.96562 0.03639 0.32361 0.0
C435 C 0.97342 0.02027 0.3066 0.0
C436 C 0.97393 0.03438 0.34694 0.0
C437 C 0.99018 0.0162 0.35376 0.0
C438 C 0.99747 0.99982 0.33672 0.0
C439 C 0.98918 0.00178 0.31353 0.0
H440 H 0.23356 0.27236 0.68564 0.0
H441 H 0.2503 0.33432 0.64413 0.0
H442 H 0.23571 0.24284 0.65283 0.0
H443 H 0.25376 0.30499 0.61182 0.0
H444 H 0.24288 0.249 0.55185 0.0
H445 H 0.2308 0.27452 0.58361 0.0
H446 H 0.26868 0.22839 0.63178 0.0
H447 H 0.27985 0.20222 0.59991 0.0
C448 C 0.23744 0.27969 0.66946 0.0
C449 C 0.24193 0.30571 0.66755 0.0
C450 C 0.23897 0.26277 0.65073 0.0
C451 C 0.24503 0.27149 0.62968 0.0
C452 C 0.24874 0.29753 0.62763 0.0
C453 C 0.24711 0.3144 0.64629 0.0
C454 C 0.24817 0.24395 0.56917 0.0
C455 C 0.26242 0.22361 0.57332 0.0
C456 C 0.24145 0.25876 0.58743 0.0
C457 C 0.24906 0.25375 0.61029 0.0
C458 C 0.26228 0.23269 0.61441 0.0
C459 C 0.26882 0.21774 0.59612 0.0
H460 H 0.48954 0.5123 0.55877 0.0
H461 H 0.56456 0.51632 0.59883 0.0
H462 H 0.46917 0.51556 0.59397 0.0
H463 H 0.54447 0.52049 0.63412 0.0
H464 H 0.50039 0.51199 0.69514 0.0
H465 H 0.51802 0.50181 0.65968 0.0
H466 H 0.46484 0.54626 0.62322 0.0
H467 H 0.44637 0.55538 0.65856 0.0
C468 C 0.50164 0.51376 0.57518 0.0
C469 C 0.52863 0.51411 0.57608 0.0
C470 C 0.49002 0.51584 0.59537 0.0
C471 C 0.50513 0.51863 0.617 0.0
C472 C 0.5321 0.51807 0.61786 0.0
C473 C 0.54369 0.5157 0.59763 0.0
C474 C 0.49214 0.51927 0.67952 0.0
C475 C 0.47181 0.53439 0.67973 0.0
C476 C 0.50248 0.51364 0.65915 0.0
C477 C 0.493 0.52324 0.63847 0.0
C478 C 0.47241 0.53812 0.63866 0.0
C479 C 0.46189 0.54353 0.659 0.0
H480 H 0.78941 0.24136 0.65728 0.0
H481 H 0.82872 0.31297 0.68639 0.0
H482 H 0.77801 0.25955 0.6212 0.0
H483 H 0.81731 0.33136 0.64979 0.0
H484 H 0.75928 0.35604 0.58924 0.0
H485 H 0.7764 0.34106 0.62586 0.0
H486 H 0.79983 0.27668 0.5895 0.0
H487 H 0.78242 0.29124 0.55316 0.0
C488 C 0.79571 0.26102 0.65596 0.0
C489 C 0.80989 0.27582 0.67469 0.0
C490 C 0.78932 0.2714 0.63518 0.0
C491 C 0.79688 0.29685 0.63263 0.0
C492 C 0.81114 0.31171 0.65133 0.0
C493 C 0.81775 0.30121 0.67217 0.0
C494 C 0.76835 0.33884 0.58909 0.0
C495 C 0.76939 0.32478 0.56829 0.0
C496 C 0.77828 0.33036 0.61003 0.0
C497 C 0.78924 0.3076 0.61052 0.0
C498 C 0.79117 0.29412 0.58966 0.0
C499 C 0.78135 0.30259 0.56881 0.0
H500 H 0.51412 0.04677 0.60924 0.0
H501 H 0.5111 0.96777 0.58876 0.0
H502 H 0.54209 0.04086 0.64442 0.0
H503 H 0.53971 0.96223 0.62341 0.0
H504 H 0.62165 0.97656 0.66677 0.0
H505 H 0.58759 0.97933 0.6353 0.0
H506 H 0.54343 0.01644 0.682 0.0
H507 H 0.57753 0.01333 0.71382 0.0
C508 C 0.51905 0.02811 0.61234 0.0
C509 C 0.51065 0.00785 0.59591 0.0
C510 C 0.5351 0.02475 0.63249 0.0
C511 C 0.54325 0.00114 0.6365 0.0
C512 C 0.53402 0.98071 0.62059 0.0
C513 C 0.51777 0.98397 0.60065 0.0
C514 C 0.60456 0.98505 0.67042 0.0
C515 C 0.60228 0.99472 0.69278 0.0
C516 C 0.58501 0.98654 0.65241 0.0
C517 C 0.5629 0.99813 0.65621 0.0
C518 C 0.56035 0.0075 0.67861 0.0
C519 C 0.57974 0.00556 0.6968 0.0
H520 H 0.86201 0.18031 0.77238 0.0
H521 H 0.86262 0.2608 0.77205 0.0
H522 H 0.89987 0.18601 0.80126 0.0
H523 H 0.90122 0.26638 0.80053 0.0
H524 H 0.98503 0.26175 0.83723 0.0
H525 H 0.94944 0.25657 0.80566 0.0
H526 H 0.90606 0.20385 0.84331 0.0
H527 H 0.94127 0.20909 0.87483 0.0
C528 C 0.87017 0.19924 0.77846 0.0
C529 C 0.85893 0.2201 0.77016 0.0
C530 C 0.89195 0.20246 0.79491 0.0
C531 C 0.9033 0.22662 0.80323 0.0
C532 C 0.89288 0.24754 0.79428 0.0
C533 C 0.87083 0.24433 0.77796 0.0
C534 C 0.96794 0.24897 0.83869 0.0
C535 C 0.96596 0.23583 0.85853 0.0
C536 C 0.94756 0.24615 0.8207 0.0
C537 C 0.92508 0.22978 0.82207 0.0
C538 C 0.92328 0.21643 0.84174 0.0
C539 C 0.9434 0.21954 0.85983 0.0
H540 H 0.47554 0.94911 0.4822 0.0
H541 H 0.55863 0.95838 0.49968 0.0
H542 H 0.47821 0.90985 0.45988 0.0
H543 H 0.56131 0.91894 0.47753 0.0
H544 H 0.55863 0.85404 0.42334 0.0
H545 H 0.5545 0.89668 0.43848 0.0
H546 H 0.48866 0.86838 0.47119 0.0
H547 H 0.49253 0.82608 0.45603 0.0
C548 C 0.4944 0.9429 0.48107 0.0
C549 C 0.51691 0.95666 0.49279 0.0
C550 C 0.49592 0.92037 0.46835 0.0
C551 C 0.51995 0.91123 0.46707 0.0
C552 C 0.54254 0.9256 0.478 0.0
C553 C 0.54101 0.94808 0.49078 0.0
C554 C 0.5431 0.85699 0.43354 0.0
C555 C 0.52604 0.83661 0.43861 0.0
C556 C 0.54082 0.88137 0.44229 0.0
C557 C 0.52127 0.88587 0.45604 0.0
C558 C 0.50374 0.8656 0.46043 0.0
C559 C 0.50612 0.84129 0.45188 0.0
H560 H 0.18688 0.37952 0.79001 0.0
H561 H 0.1736 0.30398 0.75808 0.0
H562 H 0.15717 0.36772 0.81776 0.0
H563 H 0.14425 0.29209 0.78593 0.0
H564 H 0.07544 0.28444 0.82666 0.0
H565 H 0.10181 0.2992 0.79745 0.0
H566 H 0.15638 0.34148 0.85032 0.0
H567 H 0.12991 0.32708 0.87945 0.0
C568 C 0.17757 0.36041 0.78894 0.0
C569 C 0.18258 0.34269 0.77196 0.0
C570 C 0.16066 0.35363 0.80485 0.0
C571 C 0.14835 0.32897 0.80405 0.0
C572 C 0.15315 0.31132 0.78683 0.0
C573 C 0.17012 0.3181 0.77097 0.0
C574 C 0.09292 0.2971 0.83203 0.0
C575 C 0.10062 0.3045 0.85541 0.0
C576 C 0.10812 0.30541 0.8153 0.0
C577 C 0.13128 0.32139 0.82157 0.0
C578 C 0.13853 0.32938 0.84488 0.0
C579 C 0.1234 0.32101 0.8616 0.0
H580 H 0.54637 0.56518 0.43709 0.0
H581 H 0.54437 0.60359 0.50346 0.0
H582 H 0.54547 0.60506 0.41922 0.0
H583 H 0.54467 0.64339 0.48602 0.0
H584 H 0.52434 0.70941 0.4481 0.0
H585 H 0.52003 0.66809 0.46269 0.0
H586 H 0.57151 0.64298 0.41583 0.0
H587 H 0.57466 0.68406 0.40039 0.0
C588 C 0.54579 0.58219 0.44782 0.0
C589 C 0.54528 0.58129 0.47157 0.0
C590 C 0.54545 0.60506 0.43765 0.0
C591 C 0.54494 0.62755 0.45113 0.0
C592 C 0.54447 0.62648 0.47497 0.0
C593 C 0.54448 0.60362 0.48504 0.0
C594 C 0.53445 0.69503 0.44066 0.0
C595 C 0.54982 0.70009 0.42306 0.0
C596 C 0.53219 0.67131 0.44921 0.0
C597 C 0.54564 0.65215 0.44065 0.0
C598 C 0.56059 0.6571 0.42267 0.0
C599 C 0.56254 0.68074 0.4139 0.0
H600 H 0.90216 0.77186 0.76829 0.0
H601 H 0.83615 0.77133 0.71678 0.0
H602 H 0.9311 0.77566 0.73846 0.0
H603 H 0.86469 0.7743 0.68703 0.0
H604 H 0.92047 0.8033 0.64029 0.0
H605 H 0.89518 0.80311 0.67254 0.0
H606 H 0.9449 0.75362 0.70625 0.0
H607 H 0.97076 0.75456 0.67427 0.0
C608 C 0.89387 0.77233 0.75057 0.0
C609 C 0.86696 0.77147 0.74491 0.0
C610 C 0.9104 0.77445 0.73346 0.0
C611 C 0.90031 0.77559 0.7103 0.0
C612 C 0.87327 0.77415 0.7047 0.0
C613 C 0.85683 0.77222 0.72178 0.0
C614 C 0.92624 0.79266 0.65473 0.0
C615 C 0.94753 0.77881 0.65461 0.0
C616 C 0.91158 0.79235 0.67316 0.0
C617 C 0.91764 0.77795 0.69187 0.0
C618 C 0.93969 0.76502 0.69223 0.0
C619 C 0.95452 0.76552 0.67385 0.0
H620 H 0.0624 0.95725 0.56248 0.0
H621 H 0.03804 0.92063 0.49477 0.0
H622 H 0.05634 0.9165 0.57922 0.0
H623 H 0.03224 0.8803 0.51135 0.0
H624 H 0.0566 0.8114 0.54406 0.0
H625 H 0.06396 0.85356 0.53179 0.0
H626 H 0.01852 0.88065 0.58281 0.0
H627 H 0.01077 0.83798 0.59525 0.0
C628 C 0.05569 0.94053 0.55124 0.0
C629 C 0.05072 0.94211 0.52736 0.0
C630 C 0.05214 0.91731 0.5608 0.0
C631 C 0.04399 0.89526 0.54656 0.0
C632 C 0.03881 0.89696 0.52272 0.0
C633 C 0.04202 0.9201 0.51323 0.0
C634 C 0.04826 0.82625 0.55292 0.0
C635 C 0.03277 0.82112 0.57051 0.0
C636 C 0.05246 0.85044 0.54577 0.0
C637 C 0.04149 0.87028 0.5561 0.0
C638 C 0.02717 0.86563 0.57454 0.0
C639 C 0.02274 0.84122 0.58163 0.0
H640 H 0.20252 0.71385 0.68123 0.0
H641 H 0.15187 0.7061 0.73397 0.0
H642 H 0.16596 0.72075 0.65357 0.0
H643 H 0.11498 0.7119 0.70617 0.0
H644 H 0.05932 0.74896 0.65633 0.0
H645 H 0.09551 0.74213 0.68448 0.0
H646 H 0.12822 0.7004 0.6319 0.0
H647 H 0.09274 0.70813 0.60371 0.0
C648 C 0.18347 0.7134 0.68681 0.0
C649 C 0.18006 0.70954 0.7097 0.0
C650 C 0.16244 0.71718 0.67095 0.0
C651 C 0.13737 0.71684 0.67755 0.0
C652 C 0.134 0.71272 0.70051 0.0
C653 C 0.15513 0.70922 0.71644 0.0
C654 C 0.07425 0.73831 0.65082 0.0
C655 C 0.0732 0.72925 0.62773 0.0
C656 C 0.09496 0.73425 0.66699 0.0
C657 C 0.11496 0.72079 0.66052 0.0
C658 C 0.11356 0.71134 0.63748 0.0
C659 C 0.09306 0.71565 0.6213 0.0
H660 H 0.95808 0.59438 0.46336 0.0
H661 H 0.96265 0.55104 0.52289 0.0
H662 H 0.96607 0.63304 0.48825 0.0
H663 H 0.97153 0.58969 0.54794 0.0
H664 H 0.95893 0.66386 0.58574 0.0
H665 H 0.95202 0.62455 0.56175 0.0
H666 H 0.99838 0.65845 0.51305 0.0
H667 H 0.00409 0.69792 0.53637 0.0
C668 C 0.96112 0.59318 0.4818 0.0
C669 C 0.95974 0.56975 0.4912 0.0
C670 C 0.96582 0.61532 0.49611 0.0
C671 C 0.96958 0.61457 0.52018 0.0
C672 C 0.96834 0.59104 0.52954 0.0
C673 C 0.96334 0.56888 0.5152 0.0
C674 C 0.96775 0.66286 0.56996 0.0
C675 C 0.98212 0.68406 0.56303 0.0
C676 C 0.96391 0.64025 0.55624 0.0
C677 C 0.97454 0.63827 0.53535 0.0
C678 C 0.98946 0.65935 0.52877 0.0
C679 C 0.99303 0.68199 0.54234 0.0
H680 H 0.7807 0.88827 0.16807 0.0
H681 H 0.78007 0.88679 0.24153 0.0
H682 H 0.81701 0.9213 0.1744 0.0
H683 H 0.81579 0.92076 0.24766 0.0
H684 H 0.86669 0.9983 0.24277 0.0
H685 H 0.82712 0.96855 0.23685 0.0
H686 H 0.86466 0.91892 0.19444 0.0
H687 H 0.90423 0.9482 0.20063 0.0
C688 C 0.78817 0.89505 0.18557 0.0
C689 C 0.7777 0.8845 0.2043 0.0
C690 C 0.80886 0.91406 0.18914 0.0
C691 C 0.81927 0.92335 0.21149 0.0
C692 C 0.80798 0.91393 0.23024 0.0
C693 C 0.78747 0.89457 0.2267 0.0
C694 C 0.86643 0.98107 0.23213 0.0
C695 C 0.88856 0.97556 0.22217 0.0
C696 C 0.84387 0.96405 0.22886 0.0
C697 C 0.84291 0.94157 0.21514 0.0
C698 C 0.86488 0.93625 0.20495 0.0
C699 C 0.88754 0.95295 0.20859 0.0
H700 H 0.75847 0.15001 0.25804 0.0
H701 H 0.8139 0.21082 0.2904 0.0
H702 H 0.79386 0.12545 0.25104 0.0
H703 H 0.84918 0.18603 0.28402 0.0
H704 H 0.90559 0.14655 0.24408 0.0
H705 H 0.87023 0.17049 0.25193 0.0
H706 H 0.82757 0.10358 0.27165 0.0
H707 H 0.86293 0.07943 0.2635 0.0
C708 C 0.7782 0.15814 0.26363 0.0
C709 C 0.78334 0.18241 0.27473 0.0
C710 C 0.79847 0.14396 0.25986 0.0
C711 C 0.82438 0.15375 0.26697 0.0
C712 C 0.82949 0.17799 0.27812 0.0
C713 C 0.80924 0.19212 0.28198 0.0
C714 C 0.88873 0.1369 0.25016 0.0
C715 C 0.88713 0.11104 0.25315 0.0
C716 C 0.86848 0.15069 0.25478 0.0
C717 C 0.84604 0.13898 0.26244 0.0
C718 C 0.84446 0.11313 0.26554 0.0
C719 C 0.86481 0.09932 0.26101 0.0
H720 H 0.4 0.96402 0.93985 0.0
H721 H 0.41397 0.98826 0.0123 0.0
H722 H 0.36744 0.93082 0.94794 0.0
H723 H 0.38019 0.95604 0.01985 0.0
H724 H 0.2962 0.90984 0.01348 0.0
H725 H 0.32733 0.94453 0.00487 0.0
H726 H 0.37263 0.89128 0.97534 0.0
H727 H 0.34217 0.85671 0.98443 0.0
C728 C 0.39624 0.96237 0.95747 0.0
C729 C 0.40984 0.97894 0.97539 0.0
C730 C 0.37739 0.94349 0.96201 0.0
C731 C 0.3713 0.9411 0.98446 0.0
C732 C 0.38436 0.9578 0.00234 0.0
C733 C 0.40362 0.97634 0.99792 0.0
C734 C 0.3128 0.90561 0.00514 0.0
C735 C 0.31685 0.8806 0.99973 0.0
C736 C 0.33057 0.92538 1.00029 0.0
C737 C 0.35222 0.92044 0.98941 0.0
C738 C 0.35598 0.89551 0.98362 0.0
C739 C 0.33864 0.87578 0.98896 0.0
H740 H 0.29116 0.35544 0.27197 0.0
H741 H 0.22905 0.30735 0.29487 0.0
H742 H 0.26081 0.38448 0.25969 0.0
H743 H 0.19866 0.33728 0.28315 0.0
H744 H 0.17038 0.42054 0.28612 0.0
H745 H 0.19213 0.38343 0.29477 0.0
H746 H 0.22234 0.38465 0.22948 0.0
H747 H 0.20085 0.42155 0.22085 0.0
C748 C 0.27097 0.35083 0.27413 0.0
C749 C 0.2626 0.32879 0.28418 0.0
C750 C 0.25355 0.36757 0.26712 0.0
C751 C 0.22728 0.36298 0.27016 0.0
C752 C 0.21881 0.34125 0.28057 0.0
C753 C 0.23626 0.32422 0.28738 0.0
C754 C 0.18093 0.41237 0.27329 0.0
C755 C 0.18428 0.42427 0.25298 0.0
C756 C 0.19344 0.39116 0.27828 0.0
C757 C 0.20942 0.38156 0.26302 0.0
C758 C 0.21062 0.392 0.24178 0.0
C759 C 0.19819 0.41308 0.23681 0.0
H760 H 0.10383 0.04626 0.51533 0.0
H761 H 0.11372 0.04512 0.44318 0.0
H762 H 0.14186 0.07759 0.52407 0.0
H763 H 0.15062 0.07727 0.45198 0.0
H764 H 0.18253 0.16115 0.47905 0.0
H765 H 0.14937 0.12517 0.47107 0.0
H766 H 0.19483 0.08246 0.51692 0.0
H767 H 0.22869 0.11846 0.52454 0.0
C768 C 0.11419 0.05238 0.50137 0.0
C769 C 0.10531 0.0434 0.47848 0.0
C770 C 0.13591 0.07034 0.50641 0.0
C771 C 0.14892 0.07987 0.48865 0.0
C772 C 0.1407 0.07035 0.46593 0.0
C773 C 0.11936 0.05212 0.46093 0.0
C774 C 0.18557 0.14407 0.48737 0.0
C775 C 0.20819 0.14259 0.50242 0.0
C776 C 0.16664 0.1235 0.48273 0.0
C777 C 0.16963 0.10116 0.4934 0.0
C778 C 0.19215 0.09957 0.50854 0.0
C779 C 0.21149 0.12005 0.51278 0.0
H780 H 0.8021 0.14487 0.75218 0.0
H781 H 0.73949 0.18928 0.73462 0.0
H782 H 0.77092 0.10871 0.75515 0.0
H783 H 0.70814 0.15261 0.73661 0.0
H784 H 0.66222 0.08753 0.76932 0.0
H785 H 0.69103 0.12515 0.76436 0.0
H786 H 0.74042 0.07942 0.73033 0.0
H787 H 0.71229 0.04199 0.73592 0.0
C788 C 0.78166 0.14695 0.74904 0.0
C789 C 0.7733 0.17 0.74324 0.0
C790 C 0.76376 0.1261 0.7504 0.0
C791 C 0.73702 0.1277 0.74589 0.0
C792 C 0.72859 0.15079 0.74028 0.0
C793 C 0.74655 0.17172 0.73894 0.0
C794 C 0.67908 0.08557 0.76055 0.0
C795 C 0.68499 0.06173 0.7531 0.0
C796 C 0.69554 0.10713 0.75765 0.0
C797 C 0.7182 0.10525 0.74721 0.0
C798 C 0.72343 0.08148 0.73888 0.0
C799 C 0.70709 0.06 0.74187 0.0
H800 H 0.41321 0.02301 0.52685 0.0
H801 H 0.46606 0.07903 0.56924 0.0
H802 H 0.38117 0.05281 0.52246 0.0
H803 H 0.43445 0.10904 0.56446 0.0
H804 H 0.36427 0.14938 0.57107 0.0
H805 H 0.39438 0.11822 0.57547 0.0
H806 H 0.37167 0.09024 0.50465 0.0
H807 H 0.34059 0.12113 0.50051 0.0
C808 C 0.418 0.04176 0.53515 0.0
C809 C 0.44211 0.04866 0.54847 0.0
C810 C 0.39969 0.05889 0.53254 0.0
C811 C 0.40513 0.0834 0.54308 0.0
C812 C 0.42931 0.09022 0.55643 0.0
C813 C 0.44749 0.07303 0.55919 0.0
C814 C 0.36562 0.1366 0.55639 0.0
C815 C 0.35009 0.13785 0.53538 0.0
C816 C 0.38308 0.11877 0.55889 0.0
C817 C 0.38575 0.1018 0.54038 0.0
C818 C 0.36998 0.10283 0.51937 0.0
C819 C 0.35225 0.12062 0.51692 0.0
H820 H 0.57347 0.45171 0.53337 0.0
H821 H 0.62005 0.51789 0.51694 0.0
H822 H 0.60797 0.42625 0.52537 0.0
H823 H 0.65427 0.49246 0.50859 0.0
H824 H 0.72014 0.44245 0.52608 0.0
H825 H 0.68555 0.46868 0.53048 0.0
H826 H 0.63024 0.41133 0.49237 0.0
H827 H 0.66491 0.38493 0.48801 0.0
C828 C 0.59108 0.4608 0.52808 0.0
C829 C 0.59402 0.48679 0.52577 0.0
C830 C 0.61071 0.4462 0.52325 0.0
C831 C 0.63381 0.45732 0.51623 0.0
C832 C 0.63677 0.48334 0.51405 0.0
C833 C 0.61709 0.49787 0.51868 0.0
C834 C 0.70068 0.43555 0.51833 0.0
C835 C 0.69531 0.41155 0.50675 0.0
C836 C 0.68084 0.45063 0.52083 0.0
C837 C 0.6551 0.442 0.51196 0.0
C838 C 0.64983 0.41835 0.49968 0.0
C839 C 0.66974 0.40334 0.49698 0.0
H840 H 0.70242 0.2307 0.33041 0.0
H841 H 0.78357 0.25454 0.32847 0.0
H842 H 0.70462 0.25377 0.3679 0.0
H843 H 0.78575 0.27757 0.36579 0.0
H844 H 0.78787 0.28353 0.44372 0.0
H845 H 0.78395 0.26526 0.40467 0.0
H846 H 0.71159 0.29615 0.38901 0.0
H847 H 0.71529 0.31442 0.42875 0.0
C848 C 0.72064 0.24111 0.33785 0.0
C849 C 0.74291 0.24052 0.3266 0.0
C850 C 0.72187 0.25439 0.35929 0.0
C851 C 0.7454 0.26735 0.36991 0.0
C852 C 0.76743 0.2674 0.35828 0.0
C853 C 0.76621 0.25413 0.33692 0.0
C854 C 0.77108 0.2866 0.43206 0.0
C855 C 0.75183 0.30044 0.43949 0.0
C856 C 0.76897 0.27623 0.40952 0.0
C857 C 0.74755 0.27934 0.39366 0.0
C858 C 0.72827 0.29331 0.4009 0.0
C859 C 0.73045 0.30388 0.4236 0.0
H860 H 0.52765 0.01506 0.91779 0.0
H861 H 0.47482 0.95958 0.87465 0.0
H862 H 0.56005 0.01136 0.89162 0.0
H863 H 0.50757 0.95563 0.84839 0.0
H864 H 0.56339 0.98141 0.79511 0.0
H865 H 0.52984 0.98108 0.82085 0.0
H866 H 0.58816 0.98077 0.8792 0.0
H867 H 0.62161 0.98137 0.85366 0.0
C868 C 0.52296 0.00199 0.90274 0.0
C869 C 0.49865 0.98761 0.89822 0.0
C870 C 0.54163 0.99974 0.8878 0.0
C871 C 0.53643 0.98311 0.86797 0.0
C872 C 0.51208 0.96874 0.86344 0.0
C873 C 0.49341 0.9709 0.87849 0.0
C874 C 0.569 0.98101 0.81341 0.0
C875 C 0.59521 0.98164 0.82234 0.0
C876 C 0.54977 0.98073 0.82814 0.0
C877 C 0.55639 0.98117 0.85208 0.0
C878 C 0.58249 0.98088 0.86088 0.0
C879 C 0.60165 0.98108 0.8462 0.0
H880 H 0.28838 0.30472 0.35968 0.0
H881 H 0.30796 0.23508 0.32929 0.0
H882 H 0.28306 0.28508 0.39529 0.0
H883 H 0.30305 0.21546 0.36544 0.0
H884 H 0.31394 0.2031 0.44639 0.0
H885 H 0.32195 0.21873 0.40907 0.0
H886 H 0.24971 0.25115 0.40482 0.0
H887 H 0.24165 0.23578 0.44152 0.0
C888 C 0.29148 0.28517 0.36055 0.0
C889 C 0.29809 0.27136 0.34144 0.0
C890 C 0.28852 0.27395 0.38101 0.0
C891 C 0.29226 0.24863 0.38303 0.0
C892 C 0.30006 0.23501 0.36435 0.0
C893 C 0.30288 0.24626 0.3437 0.0
C894 C 0.29963 0.21324 0.43729 0.0
C895 C 0.27735 0.21849 0.44717 0.0
C896 C 0.30423 0.22218 0.41596 0.0
C897 C 0.28669 0.23659 0.4043 0.0
C898 C 0.26387 0.24062 0.41365 0.0
C899 C 0.25924 0.23169 0.43472 0.0
H900 H 0.52681 0.47376 0.91679 0.0
H901 H 0.54024 0.55467 0.92609 0.0
H902 H 0.50506 0.47661 0.8783 0.0
H903 H 0.51952 0.55748 0.88703 0.0
H904 H 0.46351 0.55346 0.82021 0.0
H905 H 0.47881 0.55044 0.86088 0.0
H906 H 0.51932 0.48764 0.84248 0.0
H907 H 0.5038 0.49021 0.80237 0.0
C908 C 0.52491 0.49219 0.91073 0.0
C909 C 0.53543 0.51398 0.92455 0.0
C910 C 0.51269 0.49382 0.88852 0.0
C911 C 0.51077 0.51727 0.87945 0.0
C912 C 0.52052 0.53912 0.89351 0.0
C913 C 0.53271 0.53749 0.91579 0.0
C914 C 0.47549 0.53889 0.82491 0.0
C915 C 0.4824 0.52212 0.80795 0.0
C916 C 0.48438 0.53725 0.84819 0.0
C917 C 0.50023 0.51874 0.85497 0.0
C918 C 0.50679 0.50185 0.83799 0.0
C919 C 0.498 0.50348 0.81486 0.0
H920 H 0.7066 0.79958 0.1444 0.0
H921 H 0.78599 0.79937 0.17409 0.0
H922 H 0.71338 0.76925 0.11333 0.0
H923 H 0.79279 0.76921 0.1432 0.0
H924 H 0.75366 0.74694 0.04795 0.0
H925 H 0.74092 0.77168 0.0801 0.0
H926 H 0.77794 0.72447 0.12763 0.0
H927 H 0.79055 0.69956 0.09554 0.0
C928 C 0.72536 0.79279 0.14439 0.0
C929 C 0.74582 0.80185 0.1615 0.0
C930 C 0.72928 0.7756 0.1266 0.0
C931 C 0.7536 0.7669 0.12588 0.0
C932 C 0.77378 0.7754 0.14344 0.0
C933 C 0.76996 0.79279 0.16099 0.0
C934 C 0.75869 0.74152 0.0652 0.0
C935 C 0.7732 0.72131 0.06916 0.0
C936 C 0.75131 0.75567 0.08361 0.0
C937 C 0.75857 0.75006 0.10634 0.0
C938 C 0.7723 0.72934 0.11027 0.0
C939 C 0.77944 0.71505 0.09188 0.0
H940 H 0.06001 0.01178 0.09909 0.0
H941 H 0.98654 0.01476 0.05818 0.0
H942 H 0.03999 0.01867 0.13403 0.0
H943 H 0.96611 0.02069 0.09309 0.0
H944 H 0.9446 0.06015 0.15831 0.0
H945 H 0.96325 0.0508 0.12309 0.0
H946 H 0.012 0.00183 0.15881 0.0
H947 H 0.99441 0.01231 0.19415 0.0
C948 C 0.03943 0.01342 0.09762 0.0
C949 C 0.02486 0.01279 0.07591 0.0
C950 C 0.02787 0.01731 0.11767 0.0
C951 C 1.00133 0.02035 0.11654 0.0
C952 C 0.98666 0.019 0.09474 0.0
C953 C 0.99831 0.01542 0.07469 0.0
C954 C 0.95923 0.0473 0.15861 0.0
C955 C 0.96789 0.03693 0.17911 0.0
C956 C 0.96984 0.04177 0.13832 0.0
C957 C 0.98924 0.02551 0.13795 0.0
C958 C 0.99747 0.01476 0.15841 0.0
C959 C 0.9871 0.02055 0.17872 0.0
H960 H 0.33516 0.75238 0.16136 0.0
H961 H 0.29928 0.81117 0.19413 0.0
H962 H 0.32501 0.76905 0.12421 0.0
H963 H 0.2869 0.82684 0.15682 0.0
H964 H 0.27565 0.85788 0.08775 0.0
H965 H 0.29578 0.8465 0.12465 0.0
H966 H 0.2906 0.7693 0.097 0.0
H967 H 0.27251 0.78127 0.05998 0.0
C968 C 0.32498 0.7689 0.16047 0.0
C969 C 0.31775 0.78045 0.18039 0.0
C970 C 0.31887 0.77836 0.13916 0.0
C971 C 0.30455 0.79906 0.13719 0.0
C972 C 0.29818 0.8111 0.15746 0.0
C973 C 0.30508 0.80206 0.17889 0.0
C974 C 0.27924 0.83858 0.08962 0.0
C975 C 0.27257 0.82044 0.07108 0.0
C976 C 0.29058 0.83195 0.11083 0.0
C977 C 0.29482 0.80688 0.1141 0.0
C978 C 0.28836 0.78891 0.09525 0.0
C979 C 0.27772 0.79569 0.07396 0.0
H980 H 0.99563 0.51702 0.11987 0.0
H981 H 0.05363 0.4994 0.07661 0.0
H982 H 0.02738 0.5171 0.15388 0.0
H983 H 0.08452 0.49774 0.1103 0.0
H984 H 0.14315 0.52061 0.17121 0.0
H985 H 0.11042 0.52364 0.13914 0.0
H986 H 0.05147 0.49067 0.17757 0.0
H987 H 0.08448 0.48868 0.21036 0.0
C988 C 0.01511 0.51319 0.11758 0.0
C989 C 0.02197 0.50812 0.09543 0.0
C990 C 0.03323 0.51288 0.13711 0.0
C991 C 0.05862 0.50745 0.13495 0.0
C992 C 0.06536 0.50243 0.11276 0.0
C993 C 0.04742 0.50298 0.09334 0.0
C994 C 0.12323 0.51395 0.1729 0.0
C995 C 0.11651 0.50413 0.19331 0.0
C996 C 0.10439 0.51558 0.15438 0.0
C997 C 0.07824 0.50705 0.1555 0.0
C998 C 0.07136 0.49761 0.17609 0.0
C999 C 0.09029 0.49629 0.19486 0.0
H1000 H 0.35947 0.76491 0.28444 0.0
H1001 H 0.38161 0.69087 0.27076 0.0
H1002 H 0.39684 0.7743 0.31427 0.0
H1003 H 0.41925 0.70045 0.30015 0.0
H1004 H 0.49774 0.74141 0.33836 0.0
H1005 H 0.46209 0.73466 0.30678 0.0
H1006 H 0.40825 0.7525 0.35401 0.0
H1007 H 0.44357 0.75866 0.38562 0.0
C1008 C 0.3725 0.7508 0.28771 0.0
C1009 C 0.36773 0.72716 0.2755 0.0
C1010 C 0.39374 0.75612 0.30472 0.0
C1011 C 0.41083 0.73808 0.30936 0.0
C1012 C 0.40641 0.71469 0.29672 0.0
C1013 C 0.38488 0.70918 0.28009 0.0
C1014 C 0.47831 0.74399 0.34194 0.0
C1015 C 0.47339 0.75043 0.36444 0.0
C1016 C 0.45798 0.74007 0.32394 0.0
C1017 C 0.43256 0.74315 0.32807 0.0
C1018 C 0.42775 0.75019 0.35042 0.0
C1019 C 0.44792 0.75355 0.36848 0.0
H1020 H 0.96799 0.43206 0.98899 0.0
H1021 H 0.05161 0.44214 0.99867 0.0
H1022 H 0.96856 0.39354 0.96479 0.0
H1023 H 0.05225 0.40349 0.97477 0.0
H1024 H 0.04575 0.34155 0.91832 0.0
H1025 H 0.04186 0.38324 0.93562 0.0
H1026 H 0.98047 0.35164 0.97206 0.0
H1027 H 0.98401 0.31019 0.95461 0.0
C1028 C 0.98649 0.42614 0.9858 0.0
C1029 C 0.00981 0.43996 0.99577 0.0
C1030 C 0.98681 0.40405 0.97201 0.0
C1031 C 0.01045 0.39543 0.96791 0.0
C1032 C 0.03372 0.40977 0.97734 0.0
C1033 C 0.03339 0.43179 0.99115 0.0
C1034 C 0.03119 0.34354 0.92977 0.0
C1035 C 0.01537 0.32246 0.93523 0.0
C1036 C 0.02906 0.36741 0.93977 0.0
C1037 C 0.01096 0.37072 0.95531 0.0
C1038 C 0.99443 0.3498 0.95999 0.0
C1039 C 0.99663 0.32597 0.9501 0.0
H1040 H 0.67279 0.87583 0.27439 0.0
H1041 H 0.67475 0.79979 0.24681 0.0
H1042 H 0.64807 0.85996 0.30452 0.0
H1043 H 0.65005 0.78405 0.2766 0.0
H1044 H 0.63707 0.76522 0.34956 0.0
H1045 H 0.65901 0.78199 0.31857 0.0
H1046 H 0.60508 0.83724 0.31049 0.0
H1047 H 0.58303 0.8205 0.34181 0.0
C1048 C 0.66774 0.85578 0.27468 0.0
C1049 C 0.67578 0.83909 0.25834 0.0
C1050 C 0.65352 0.84671 0.29182 0.0
C1051 C 0.64726 0.82075 0.293 0.0
C1052 C 0.65489 0.80413 0.27633 0.0
C1053 C 0.66895 0.81318 0.25918 0.0
C1054 C 0.62981 0.78094 0.34121 0.0
C1055 C 0.60826 0.7915 0.34816 0.0
C1056 C 0.64232 0.79045 0.32333 0.0
C1057 C 0.6337 0.81085 0.312 0.0
C1058 C 0.61225 0.8216 0.31901 0.0
C1059 C 0.59957 0.81194 0.33685 0.0
H1060 H 0.01609 0.07966 0.98266 0.0
H1061 H 0.0891 0.07393 0.95635 0.0
H1062 H 0.01043 0.1169 0.96172 0.0
H1063 H 0.08388 0.11159 0.93589 0.0
H1064 H 0.02963 0.20036 0.94927 0.0
H1065 H 0.02962 0.15973 0.96519 0.0
H1066 H 0.05971 0.12989 0.90502 0.0
H1067 H 0.06026 0.17094 0.88925 0.0
C1068 C 0.03091 0.08634 0.97236 0.0
C1069 C 0.05318 0.07407 0.97126 0.0
C1070 C 0.02772 0.10774 0.96042 0.0
C1071 C 0.04678 0.11737 0.94724 0.0
C1072 C 0.06866 0.10455 0.94563 0.0
C1073 C 0.07176 0.08309 0.95747 0.0
C1074 C 0.03589 0.18507 0.93924 0.0
C1075 C 0.045 0.18891 0.918 0.0
C1076 C 0.03578 0.16168 0.94835 0.0
C1077 C 0.04472 0.14151 0.93642 0.0
C1078 C 0.05304 0.14513 0.9148 0.0
C1079 C 0.05322 0.1686 0.90571 0.0
H1080 H 0.38482 0.23188 0.26079 0.0
H1081 H 0.3727 0.30707 0.24356 0.0
H1082 H 0.41166 0.2282 0.22951 0.0
H1083 H 0.39955 0.30341 0.21241 0.0
H1084 H 0.46574 0.29178 0.16773 0.0
H1085 H 0.44586 0.29726 0.20339 0.0
H1086 H 0.39875 0.22616 0.18637 0.0
H1087 H 0.41814 0.22081 0.15104 0.0
C1088 C 0.38818 0.2477 0.2505 0.0
C1089 C 0.37641 0.26958 0.25439 0.0
C1090 C 0.40346 0.2456 0.23261 0.0
C1091 C 0.40757 0.26549 0.21846 0.0
C1092 C 0.39686 0.28786 0.22312 0.0
C1093 C 0.38131 0.28984 0.24083 0.0
C1094 C 0.45124 0.27732 0.17174 0.0
C1095 C 0.4434 0.25595 0.15652 0.0
C1096 C 0.43985 0.28047 0.19207 0.0
C1097 C 0.42087 0.26205 0.19769 0.0
C1098 C 0.41355 0.24051 0.18267 0.0
C1099 C 0.42453 0.23758 0.16231 0.0
H1100 H 0.53456 0.42328 0.99556 0.0
H1101 H 0.56392 0.45545 0.06398 0.0
H1102 H 0.52651 0.38228 0.01043 0.0
H1103 H 0.55564 0.41401 0.07899 0.0
H1104 H 0.50816 0.33672 0.09415 0.0
H1105 H 0.51675 0.37977 0.08284 0.0
H1106 H 0.55674 0.35259 0.02778 0.0
H1107 H 0.54849 0.31006 0.03888 0.0
C1108 C 0.53914 0.42166 0.01383 0.0
C1109 C 0.54996 0.4426 0.02863 0.0
C1110 C 0.53463 0.39811 0.02233 0.0
C1111 C 0.54061 0.39493 0.04584 0.0
C1112 C 0.55076 0.41597 0.06081 0.0
C1113 C 0.55559 0.43959 0.05222 0.0
C1114 C 0.51901 0.33999 0.07979 0.0
C1115 C 0.52739 0.3198 0.06734 0.0
C1116 C 0.52395 0.36462 0.07337 0.0
C1117 C 0.5371 0.36943 0.05424 0.0
C1118 C 0.54618 0.3494 0.04235 0.0
C1119 C 0.5415 0.32498 0.04884 0.0
H1120 H 0.69987 0.21807 0.17902 0.0
H1121 H 0.64994 0.21128 0.23238 0.0
H1122 H 0.66288 0.22378 0.15136 0.0
H1123 H 0.61262 0.21588 0.2046 0.0
H1124 H 0.55567 0.25047 0.15387 0.0
H1125 H 0.59228 0.245 0.18213 0.0
H1126 H 0.62531 0.20233 0.13039 0.0
H1127 H 0.58941 0.20872 0.10208 0.0
C1128 C 0.68088 0.21758 0.18474 0.0
C1129 C 0.67779 0.21432 0.2078 0.0
C1130 C 0.65961 0.22068 0.16888 0.0
C1131 C 0.63461 0.22022 0.17565 0.0
C1132 C 0.63157 0.21675 0.19879 0.0
C1133 C 0.65295 0.21395 0.21472 0.0
C1134 C 0.57076 0.2399 0.14857 0.0
C1135 C 0.56969 0.23019 0.12567 0.0
C1136 C 0.59171 0.23663 0.16481 0.0
C1137 C 0.61193 0.22332 0.15859 0.0
C1138 C 0.61048 0.21319 0.13576 0.0
C1139 C 0.58976 0.21672 0.1195 0.0
H1140 H 0.41799 0.06856 0.99598 0.0
H1141 H 0.50059 0.06829 0.99565 0.0
H1142 H 0.42579 0.10789 0.02002 0.0
H1143 H 0.5081 0.1082 0.01883 0.0
H1144 H 0.50307 0.19409 0.03581 0.0
H1145 H 0.49716 0.15374 0.01334 0.0
H1146 H 0.44811 0.12257 0.06118 0.0
H1147 H 0.45436 0.16277 0.084 0.0
C1148 C 0.4378 0.07672 1.0011 0.0
C1149 C 0.45865 0.06511 0.99384 0.0
C1150 C 0.44222 0.09931 0.0148 0.0
C1151 C 0.46754 0.11101 0.02126 0.0
C1152 C 0.48838 0.09965 0.01389 0.0
C1153 C 0.48401 0.07686 1.00049 0.0
C1154 C 0.49133 0.1786 0.04176 0.0
C1155 C 0.47932 0.18165 0.06179 0.0
C1156 C 0.48795 0.1555 0.02886 0.0
C1157 C 0.47212 0.13512 0.03551 0.0
C1158 C 0.46026 0.13807 0.0556 0.0
C1159 C 0.46397 0.16104 0.0687 0.0
H1160 H 0.29856 0.37213 0.74986 0.0
H1161 H 0.27644 0.39639 0.6824 0.0
H1162 H 0.33587 0.40459 0.7554 0.0
H1163 H 0.31349 0.42904 0.68804 0.0
H1164 H 0.36936 0.49952 0.71902 0.0
H1165 H 0.33039 0.46929 0.71556 0.0
H1166 H 0.37737 0.41068 0.73434 0.0
H1167 H 0.41635 0.44065 0.73748 0.0
C1168 C 0.30151 0.38466 0.7364 0.0
C1169 C 0.28474 0.38182 0.71571 0.0
C1170 C 0.32287 0.40307 0.73949 0.0
C1171 C 0.32751 0.41923 0.72212 0.0
C1172 C 0.31023 0.41691 0.70174 0.0
C1173 C 0.28917 0.39822 0.69848 0.0
C1174 C 0.37137 0.48019 0.72244 0.0
C1175 C 0.39594 0.47245 0.72843 0.0
C1176 C 0.34909 0.46293 0.7204 0.0
C1177 C 0.35093 0.43773 0.72477 0.0
C1178 C 0.37543 0.43006 0.73108 0.0
C1179 C 0.39772 0.44718 0.7327 0.0
H1180 H 0.31525 0.70543 0.79355 0.0
H1181 H 0.26116 0.64464 0.75924 0.0
H1182 H 0.35117 0.68157 0.78698 0.0
H1183 H 0.29721 0.62101 0.75211 0.0
H1184 H 0.36716 0.57599 0.76417 0.0
H1185 H 0.33114 0.59915 0.7725 0.0
H1186 H 0.37304 0.66749 0.75483 0.0
H1187 H 0.40903 0.64452 0.74678 0.0
C1188 C 0.31101 0.68693 0.78466 0.0
C1189 C 0.28531 0.67696 0.77692 0.0
C1190 C 0.33163 0.67334 0.7807 0.0
C1191 C 0.3271 0.64937 0.76897 0.0
C1192 C 0.30138 0.63931 0.76138 0.0
C1193 C 0.28074 0.65297 0.76524 0.0
C1194 C 0.36872 0.59598 0.76217 0.0
C1195 C 0.39102 0.60838 0.75481 0.0
C1196 C 0.348 0.60922 0.7668 0.0
C1197 C 0.34917 0.63519 0.76433 0.0
C1198 C 0.37159 0.64758 0.75719 0.0
C1199 C 0.39221 0.63435 0.75245 0.0
H1200 H 0.88294 0.51039 0.47993 0.0
H1201 H 0.93196 0.45399 0.46273 0.0
H1202 H 0.85133 0.47792 0.4905 0.0
H1203 H 0.89966 0.42139 0.47198 0.0
H1204 H 0.85208 0.37171 0.51435 0.0
H1205 H 0.8829 0.40531 0.50473 0.0
H1206 H 0.81973 0.44371 0.4756 0.0
H1207 H 0.78875 0.41034 0.48594 0.0
C1208 C 0.88695 0.49105 0.47832 0.0
C1209 C 0.91014 0.48485 0.47065 0.0
C1210 C 0.86863 0.47238 0.48412 0.0
C1211 C 0.87295 0.447 0.48225 0.0
C1212 C 0.89587 0.44077 0.47405 0.0
C1213 C 0.91426 0.45945 0.46839 0.0
C1214 C 0.84471 0.38738 0.50601 0.0
C1215 C 0.81791 0.38825 0.50084 0.0
C1216 C 0.86243 0.40658 0.50031 0.0
C1217 C 0.85387 0.42711 0.48909 0.0
C1218 C 0.82704 0.4283 0.48438 0.0
C1219 C 0.80925 0.40913 0.49027 0.0
H1220 H 0.78294 0.84887 0.76667 0.0
H1221 H 0.72136 0.80477 0.79424 0.0
H1222 H 0.75393 0.87994 0.75663 0.0
H1223 H 0.69225 0.83647 0.78448 0.0
H1224 H 0.6653 0.91937 0.78641 0.0
H1225 H 0.68731 0.88243 0.79514 0.0
H1226 H 0.71485 0.8819 0.72864 0.0
H1227 H 0.69324 0.9187 0.72001 0.0
C1228 C 0.76312 0.84566 0.77041 0.0
C1229 C 0.75442 0.82409 0.78096 0.0
C1230 C 0.74647 0.86351 0.76466 0.0
C1231 C 0.72066 0.86044 0.7694 0.0
C1232 C 0.71203 0.8393 0.78057 0.0
C1233 C 0.72873 0.82123 0.78623 0.0
C1234 C 0.67544 0.91093 0.77342 0.0
C1235 C 0.67788 0.92222 0.75266 0.0
C1236 C 0.68809 0.8898 0.77845 0.0
C1237 C 0.70332 0.87967 0.76279 0.0
C1238 C 0.70381 0.88969 0.74129 0.0
C1239 C 0.69129 0.9107 0.7363 0.0
H1240 H 0.6026 0.55281 0.01723 0.0
H1241 H 0.62752 0.53606 0.95103 0.0
H1242 H 0.64084 0.58364 0.02733 0.0
H1243 H 0.66566 0.56688 0.96106 0.0
H1244 H 0.74155 0.61285 0.99441 0.0
H1245 H 0.70742 0.57722 0.98892 0.0
H1246 H 0.6529 0.62544 0.01145 0.0
H1247 H 0.68662 0.66083 0.01677 0.0
C1248 C 0.61646 0.55545 0.00501 0.0
C1249 C 0.61199 0.54224 0.98328 0.0
C1250 C 0.63825 0.57315 0.01072 0.0
C1251 C 0.65616 0.57773 0.99493 0.0
C1252 C 0.6523 0.56364 0.97363 0.0
C1253 C 0.63036 0.54619 0.96782 0.0
C1254 C 0.72233 0.61573 0.99838 0.0
C1255 C 0.71676 0.6397 0.00586 0.0
C1256 C 0.70281 0.59539 0.99517 0.0
C1257 C 0.67752 0.59856 0.99981 0.0
C1258 C 0.67224 0.62234 0.00797 0.0
C1259 C 0.69155 0.64267 0.01082 0.0
H1260 H 0.25298 0.6888 0.23378 0.0
H1261 H 0.31585 0.64709 0.25746 0.0
H1262 H 0.22195 0.65234 0.23704 0.0
H1263 H 0.28484 0.61111 0.26172 0.0
H1264 H 0.22675 0.54294 0.24419 0.0
H1265 H 0.25568 0.57965 0.23827 0.0
H1266 H 0.2036 0.62754 0.26579 0.0
H1267 H 0.17397 0.59055 0.27099 0.0
C1268 C 0.26019 0.67184 0.23963 0.0
C1269 C 0.28692 0.67083 0.24528 0.0
C1270 C 0.24238 0.65105 0.24177 0.0
C1271 C 0.25089 0.62879 0.24959 0.0
C1272 C 0.27762 0.62785 0.25533 0.0
C1273 C 0.29541 0.64859 0.25316 0.0
C1274 C 0.22116 0.56125 0.24865 0.0
C1275 C 0.19793 0.56378 0.25796 0.0
C1276 C 0.23797 0.58234 0.24551 0.0
C1277 C 0.23212 0.60654 0.25177 0.0
C1278 C 0.2086 0.60916 0.26061 0.0
C1279 C 0.19166 0.58798 0.26368 0.0
H1280 H 0.97611 0.57487 0.06207 0.0
H1281 H 0.91504 0.51625 0.03584 0.0
H1282 H 0.94623 0.60623 0.05552 0.0
H1283 H 0.88487 0.54756 0.02969 0.0
H1284 H 0.84472 0.61279 1.00033 0.0
H1285 H 0.87457 0.58099 0.00604 0.0
H1286 H 0.90986 0.62157 0.06967 0.0
H1287 H 0.88086 0.65347 0.0636 0.0
C1288 C 0.95617 0.56867 0.05524 0.0
C1289 C 0.94792 0.54309 0.04955 0.0
C1290 C 0.93899 0.58664 0.05145 0.0
C1291 C 0.91306 0.57948 0.04207 0.0
C1292 C 0.90477 0.55383 0.03657 0.0
C1293 C 0.92202 0.53586 0.04021 0.0
C1294 C 0.85893 0.61489 0.01547 0.0
C1295 C 0.86047 0.63574 0.03142 0.0
C1296 C 0.87594 0.5966 0.01885 0.0
C1297 C 0.89475 0.59872 0.0383 0.0
C1298 C 0.89604 0.61951 0.05427 0.0
C1299 C 0.87923 0.63779 0.05083 0.0
H1300 H 0.07434 0.96568 0.99135 0.0
H1301 H 0.10242 0.97454 0.06391 0.0
H1302 H 0.10507 0.93547 0.98556 0.0
H1303 H 0.13242 0.94364 0.0581 0.0
H1304 H 0.15723 0.86574 0.04225 0.0
H1305 H 0.12761 0.89706 0.04639 0.0
H1306 H 0.15465 0.93365 0.98883 0.0
H1307 H 0.18485 0.90209 0.98466 0.0
C1308 C 0.08715 0.96138 0.00606 0.0
C1309 C 0.08583 0.97266 0.02814 0.0
C1310 C 0.10473 0.94402 0.00269 0.0
C1311 C 0.12113 0.93721 0.02135 0.0
C1312 C 0.11981 0.94836 0.04341 0.0
C1313 C 0.10248 0.96595 0.04675 0.0
C1314 C 0.15692 0.88035 0.03034 0.0
C1315 C 0.1735 0.8814 0.01311 0.0
C1316 C 0.14001 0.89842 0.03287 0.0
C1317 C 0.13896 0.9179 0.01808 0.0
C1318 C 0.15504 0.91876 1.00045 0.0
C1319 C 0.17233 0.90076 0.99809 0.0
loop_
_geom_bond_atom_site_label_1
_geom_bond_atom_site_label_2
_geom_bond_distance
_geom_bond_site_symmetry_2
_ccdc_geom_bond_type
H0 C5 0.930 . S
H1 C8 0.925 1_556 S
H2 C10 0.930 . S
H3 C4 1.016 . S
C4 H3 1.016 . S
C4 N11 1.286 1_556 S
C5 H0 0.930 . S
C5 C6 1.397 . S
C5 C7 1.361 . S
C6 C5 1.397 . S
C6 C10 1.390 . S
C7 C5 1.361 . S
C7 C8 1.393 . S
C7 N11 1.413 . S
C8 H1 0.925 1_554 S
C8 C7 1.393 . S
C8 C9 1.399 . S
C9 C8 1.399 . S
C9 C10 1.381 . S
C10 H2 0.930 . S
C10 C6 1.390 . S
C10 C9 1.381 . S
N11 C4 1.286 1_554 S
N11 C7 1.413 . S
H12 C17 0.930 . S
H13 C20 0.930 . S
H14 C22 0.930 . S
H15 C16 1.016 . S
C16 H15 1.016 . S
C16 N23 1.286 . S
C17 H12 0.930 . S
C17 C18 1.397 . S
C17 C19 1.361 . S
C18 C17 1.397 . S
C18 C22 1.390 . S
C19 C17 1.361 . S
C19 C20 1.393 . S
C19 N23 1.413 . S
C20 H13 0.930 . S
C20 C19 1.393 . S
C20 C21 1.399 . S
C21 C20 1.399 . S
C21 C22 1.381 . S
C22 H14 0.930 . S
C22 C18 1.390 . S
C22 C21 1.381 . S
N23 C16 1.286 . S
N23 C19 1.413 . S
H24 C29 0.930 . S
H25 C32 0.930 1_455 S
H26 C34 0.930 . S
H27 C28 1.016 1_455 S
C28 H27 1.016 1_655 S
C28 N35 1.286 . S
C29 H24 0.930 . S
C29 C30 1.397 . S
C29 C31 1.361 . S
C30 C29 1.397 . S
C30 C34 1.390 . S
C31 C29 1.361 . S
C31 C32 1.393 . S
C31 N35 1.413 . S
C32 H25 0.930 1_655 S
C32 C31 1.393 . S
C32 C33 1.399 . S
C33 C32 1.399 . S
C33 C34 1.381 . S
C34 H26 0.930 . S
C34 C30 1.390 . S
C34 C33 1.381 . S
N35 C28 1.286 . S
N35 C31 1.413 . S
H36 C41 0.930 . S
H37 C44 0.930 . S
H38 C46 0.930 . S
H39 C40 1.016 . S
C40 H39 1.016 . S
C40 N47 1.286 . S
C41 H36 0.930 . S
C41 C42 1.397 . S
C41 C43 1.361 . S
C42 C41 1.397 . S
C42 C46 1.390 . S
C43 C41 1.361 . S
C43 C44 1.393 . S
C43 N47 1.413 . S
C44 H37 0.930 . S
C44 C43 1.393 . S
C44 C45 1.399 . S
C45 C44 1.399 . S
C45 C46 1.381 . S
C46 H38 0.930 . S
C46 C42 1.390 . S
C46 C45 1.381 . S
N47 C40 1.286 . S
N47 C43 1.413 . S
H48 C53 0.930 . S
H49 C56 0.930 . S
H50 C58 0.930 . S
H51 C52 1.016 . S
C52 H51 1.016 . S
C52 N59 1.286 . S
C53 H48 0.930 . S
C53 C54 1.397 . S
C53 C55 1.361 . S
C54 C53 1.397 . S
C54 C58 1.390 1_565 S
C55 C53 1.361 . S
C55 C56 1.393 . S
C55 N59 1.413 . S
C56 H49 0.930 . S
C56 C55 1.393 . S
C56 C57 1.399 1_565 S
C57 C56 1.399 1_545 S
C57 C58 1.381 . S
C58 H50 0.930 . S
C58 C54 1.390 1_545 S
C58 C57 1.381 . S
N59 C52 1.286 . S
N59 C55 1.413 . S
H60 C65 0.930 . S
H61 C68 0.930 . S
H62 C70 0.930 . S
H63 C64 1.016 . S
C64 H63 1.016 . S
C64 N71 1.286 . S
C65 H60 0.930 . S
C65 C66 1.397 . S
C65 C67 1.361 . S
C66 C65 1.397 . S
C66 C70 1.390 . S
C67 C65 1.361 . S
C67 C68 1.393 . S
C67 N71 1.413 . S
C68 H61 0.930 . S
C68 C67 1.393 . S
C68 C69 1.399 . S
C69 C68 1.399 . S
C69 C70 1.381 . S
C70 H62 0.930 . S
C70 C66 1.390 . S
C70 C69 1.381 . S
N71 C64 1.286 . S
N71 C67 1.413 . S
H72 C77 0.930 . S
H73 C80 0.930 . S
H74 C82 0.930 . S
H75 C76 1.010 1_655 S
C76 H75 1.010 1_455 S
C76 N83 1.280 1_455 S
C77 H72 0.930 . S
C77 C78 1.397 . S
C77 C79 1.361 . S
C78 C77 1.397 . S
C78 C82 1.390 . S
C79 C77 1.361 . S
C79 C80 1.393 . S
C79 N83 1.421 . S
C80 H73 0.930 . S
C80 C79 1.393 . S
C80 C81 1.399 . S
C81 C80 1.399 . S
C81 C82 1.381 . S
C82 H74 0.930 . S
C82 C78 1.390 . S
C82 C81 1.381 . S
N83 C76 1.280 1_655 S
N83 C79 1.421 . S
H84 C89 0.930 . S
H85 C92 0.930 . S
H86 C94 0.930 . S
H87 C88 1.016 . S
C88 H87 1.016 . S
C88 N95 1.286 . S
C89 H84 0.930 . S
C89 C90 1.397 . S
C89 C91 1.361 . S
C90 C89 1.397 . S
C90 C94 1.390 . S
C91 C89 1.361 . S
C91 C92 1.393 . S
C91 N95 1.413 . S
C92 H85 0.930 . S
C92 C91 1.393 . S
C92 C93 1.399 . S
C93 C92 1.399 . S
C93 C94 1.381 . S
C94 H86 0.930 . S
C94 C90 1.390 . S
C94 C93 1.381 . S
N95 C88 1.286 . S
N95 C91 1.413 . S
H96 C101 0.930 . S
H97 C104 0.930 . S
H98 C106 0.930 . S
H99 C100 1.016 . S
C100 H99 1.016 . S
C100 N107 1.286 . S
C101 H96 0.930 . S
C101 C102 1.397 . S
C101 C103 1.361 . S
C102 C101 1.397 . S
C102 C106 1.390 . S
C103 C101 1.361 . S
C103 C104 1.393 . S
C103 N107 1.413 . S
C104 H97 0.930 . S
C104 C103 1.393 . S
C104 C105 1.399 . S
C105 C104 1.399 . S
C105 C106 1.381 . S
C106 H98 0.930 . S
C106 C102 1.390 . S
C106 C105 1.381 . S
N107 C100 1.286 . S
N107 C103 1.413 . S
H108 C113 0.930 . S
H109 C116 0.930 . S
H110 C118 0.930 . S
H111 C112 1.016 . S
C112 H111 1.016 . S
C112 N119 1.286 . S
C113 H108 0.930 . S
C113 C114 1.397 1_565 S
C113 C115 1.361 . S
C114 C113 1.397 1_545 S
C114 C118 1.390 . S
C115 C113 1.361 . S
C115 C116 1.393 . S
C115 N119 1.413 . S
C116 H109 0.930 . S
C116 C115 1.393 . S
C116 C117 1.399 . S
C117 C116 1.399 . S
C117 C118 1.381 1_565 S
C118 H110 0.930 . S
C118 C114 1.390 . S
C118 C117 1.381 1_545 S
N119 C112 1.286 . S
N119 C115 1.413 . S
H120 C125 0.930 . S
H121 C128 0.930 . S
H122 C130 0.930 . S
H123 C124 1.016 . S
C124 H123 1.016 . S
C124 N131 1.286 . S
C125 H120 0.930 . S
C125 C126 1.397 . S
C125 C127 1.361 . S
C126 C125 1.397 . S
C126 C130 1.390 . S
C127 C125 1.361 . S
C127 C128 1.393 . S
C127 N131 1.413 . S
C128 H121 0.930 . S
C128 C127 1.393 . S
C128 C129 1.399 . S
C129 C128 1.399 . S
C129 C130 1.381 . S
C130 H122 0.930 . S
C130 C126 1.390 . S
C130 C129 1.381 . S
N131 C124 1.286 . S
N131 C127 1.413 . S
H132 C137 0.930 . S
H133 C140 0.930 . S
H134 C142 0.930 . S
H135 C136 1.016 . S
C136 H135 1.016 . S
C136 N143 1.286 . S
C137 H132 0.930 . S
C137 C138 1.397 . S
C137 C139 1.361 . S
C138 C137 1.397 . S
C138 C142 1.390 . S
C139 C137 1.361 . S
C139 C140 1.393 . S
C139 N143 1.413 . S
C140 H133 0.930 . S
C140 C139 1.393 . S
C140 C141 1.399 . S
C141 C140 1.399 . S
C141 C142 1.381 . S
C142 H134 0.930 . S
C142 C138 1.390 . S
C142 C141 1.381 . S
N143 C136 1.286 . S
N143 C139 1.413 . S
H144 C149 0.930 . S
H145 C152 0.930 . S
H146 C154 0.930 . S
H147 C148 1.016 . S
C148 H147 1.016 . S
C148 N155 1.286 . S
C149 H144 0.930 . S
C149 C150 1.397 . S
C149 C151 1.361 . S
C150 C149 1.397 . S
C150 C154 1.390 . S
C151 C149 1.361 . S
C151 C152 1.393 . S
C151 N155 1.413 . S
C152 H145 0.930 . S
C152 C151 1.393 . S
C152 C153 1.399 . S
C153 C152 1.399 . S
C153 C154 1.381 . S
C154 H146 0.930 . S
C154 C150 1.390 . S
C154 C153 1.381 . S
N155 C148 1.286 . S
N155 C151 1.413 . S
H156 C161 0.930 . S
H157 C164 0.930 . S
H158 C166 0.930 . S
H159 C160 1.008 1_554 S
C160 H159 1.008 1_556 S
C160 N167 1.303 . S
C161 H156 0.930 . S
C161 C162 1.397 . S
C161 C163 1.361 . S
C162 C161 1.397 . S
C162 C166 1.390 . S
C163 C161 1.361 . S
C163 C164 1.393 . S
C163 N167 1.413 . S
C164 H157 0.930 . S
C164 C163 1.393 . S
C164 C165 1.399 . S
C165 C164 1.399 . S
C165 C166 1.381 . S
C166 H158 0.930 . S
C166 C162 1.390 . S
C166 C165 1.381 . S
N167 C160 1.303 . S
N167 C163 1.413 . S
H168 C173 0.930 . S
H169 C176 0.930 . S
H170 C178 0.930 . S
H171 C172 1.016 . S
C172 H171 1.016 . S
C172 N179 1.286 . S
C173 H168 0.930 . S
C173 C174 1.397 . S
C173 C175 1.361 . S
C174 C173 1.397 . S
C174 C178 1.390 . S
C175 C173 1.361 . S
C175 C176 1.393 . S
C175 N179 1.413 . S
C176 H169 0.930 . S
C176 C175 1.393 . S
C176 C177 1.399 . S
C177 C176 1.399 . S
C177 C178 1.381 . S
C178 H170 0.930 . S
C178 C174 1.390 . S
C178 C177 1.381 . S
N179 C172 1.286 . S
N179 C175 1.413 . S
H180 C185 0.930 . S
H181 C188 0.902 1_565 S
H182 C190 0.930 1_554 S
H183 C184 1.016 1_565 S
C184 H183 1.016 1_545 S
C184 N191 1.286 . S
C185 H180 0.930 . S
C185 C186 1.397 . S
C185 C187 1.361 . S
C186 C185 1.397 . S
C186 C190 1.390 . S
C187 C185 1.361 . S
C187 C188 1.393 . S
C187 N191 1.413 . S
C188 H181 0.902 1_545 S
C188 C187 1.393 . S
C188 C189 1.399 . S
C189 C188 1.399 . S
C189 C190 1.381 . S
C190 H182 0.930 1_556 S
C190 C186 1.390 . S
C190 C189 1.381 . S
N191 C184 1.286 . S
N191 C187 1.413 . S
Mg192 O193 2.028 . S
Mg192 O199 1.986 1_554 S
Mg192 O201 2.114 . S
Mg192 O202 2.251 . S
Mg192 O205 2.010 . S
O193 Mg192 2.028 . S
O193 C196 1.250 . S
O194 Mg195 2.028 . S
O194 C196 1.248 . S
Mg195 O194 2.028 . S
Mg195 O200 2.032 1_554 S
Mg195 O202 2.079 . S
C196 O193 1.250 . S
C196 O194 1.248 . S
C197 O198 1.264 . S
C197 O205 1.249 . S
O198 C197 1.264 . S
O199 Mg192 1.986 1_556 S
O199 C203 1.246 . S
O200 Mg195 2.032 1_556 S
O200 C203 1.259 . S
O201 Mg192 2.114 . S
O201 C204 1.252 . S
O202 Mg192 2.251 . S
O202 Mg195 2.079 . S
O202 C204 1.273 . S
C203 O199 1.246 . S
C203 O200 1.259 . S
C204 O201 1.252 . S
C204 O202 1.273 . S
O205 Mg192 2.010 . S
O205 C197 1.249 . S
Mg206 O207 2.028 . S
Mg206 O213 1.986 . S
Mg206 O215 2.114 . S
Mg206 O216 2.251 . S
Mg206 O219 2.010 . S
O207 Mg206 2.028 . S
O207 C210 1.250 . S
O208 Mg209 2.028 . S
O208 C210 1.248 . S
Mg209 O208 2.028 . S
Mg209 O214 2.032 . S
Mg209 O216 2.079 . S
C210 O207 1.250 . S
C210 O208 1.248 . S
C211 O212 1.264 . S
C211 O219 1.249 . S
O212 C211 1.264 . S
O213 Mg206 1.986 . S
O213 C217 1.246 . S
O214 Mg209 2.032 . S
O214 C217 1.259 . S
O215 Mg206 2.114 . S
O215 C218 1.252 . S
O216 Mg206 2.251 . S
O216 Mg209 2.079 . S
O216 C218 1.273 . S
C217 O213 1.246 . S
C217 O214 1.259 . S
C218 O215 1.252 . S
C218 O216 1.273 . S
O219 Mg206 2.010 . S
O219 C211 1.249 . S
Mg220 O221 2.028 . S
Mg220 O227 1.986 1_554 S
Mg220 O229 2.114 . S
Mg220 O230 2.251 . S
Mg220 O233 2.010 . S
O221 Mg220 2.028 . S
O221 C224 1.248 1_554 S
O222 Mg223 2.028 . S
O222 C224 1.252 . S
Mg223 O222 2.028 . S
Mg223 O228 2.032 . S
Mg223 O230 2.079 1_556 S
C224 O221 1.248 1_556 S
C224 O222 1.252 . S
C225 O226 1.264 . S
C225 O233 1.249 . S
O226 C225 1.264 . S
O227 Mg220 1.986 1_556 S
O227 C231 1.246 . S
O228 Mg223 2.032 . S
O228 C231 1.259 . S
O229 Mg220 2.114 . S
O229 C232 1.252 . S
O230 Mg220 2.251 . S
O230 Mg223 2.079 1_554 S
O230 C232 1.273 . S
C231 O227 1.246 . S
C231 O228 1.259 . S
C232 O229 1.252 . S
C232 O230 1.273 . S
O233 Mg220 2.010 . S
O233 C225 1.249 . S
Mg234 O235 2.028 . S
Mg234 O241 1.986 . S
Mg234 O243 2.114 . S
Mg234 O244 2.251 . S
Mg234 O247 2.010 . S
O235 Mg234 2.028 . S
O235 C238 1.250 1_545 S
O236 Mg237 2.028 . S
O236 C238 1.248 . S
Mg237 O236 2.028 . S
Mg237 O242 2.032 1_565 S
Mg237 O244 2.079 1_565 S
C238 O235 1.250 1_565 S
C238 O236 1.248 . S
C239 O240 1.264 . S
C239 O247 1.249 . S
O240 C239 1.264 . S
O241 Mg234 1.986 . S
O241 C245 1.246 . S
O242 Mg237 2.032 1_545 S
O242 C245 1.259 . S
O243 Mg234 2.114 . S
O243 C246 1.252 . S
O244 Mg234 2.251 . S
O244 Mg237 2.079 1_545 S
O244 C246 1.273 . S
C245 O241 1.246 . S
C245 O242 1.259 . S
C246 O243 1.252 . S
C246 O244 1.273 . S
O247 Mg234 2.010 . S
O247 C239 1.249 . S
Mg248 O249 2.028 . S
Mg248 O255 1.986 . S
Mg248 O257 2.114 . S
Mg248 O258 2.251 . S
Mg248 O261 2.010 . S
O249 Mg248 2.028 . S
O249 C252 1.250 . S
O250 Mg251 2.028 . S
O250 C252 1.248 . S
Mg251 O250 2.028 . S
Mg251 O256 2.032 . S
Mg251 O258 2.079 . S
C252 O249 1.250 . S
C252 O250 1.248 . S
C253 O254 1.264 . S
C253 O261 1.249 . S
O254 C253 1.264 . S
O255 Mg248 1.986 . S
O255 C259 1.246 . S
O256 Mg251 2.032 . S
O256 C259 1.259 . S
O257 Mg248 2.114 . S
O257 C260 1.252 . S
O258 Mg248 2.251 . S
O258 Mg251 2.079 . S
O258 C260 1.273 . S
C259 O255 1.246 . S
C259 O256 1.259 . S
C260 O257 1.252 . S
C260 O258 1.273 . S
O261 Mg248 2.010 . S
O261 C253 1.249 . S
Mg262 O263 2.028 . S
Mg262 O269 1.986 . S
Mg262 O271 2.114 . S
Mg262 O272 2.251 . S
Mg262 O275 2.010 . S
O263 Mg262 2.028 . S
O263 C266 1.250 . S
O264 Mg265 2.028 . S
O264 C266 1.248 . S
Mg265 O264 2.028 . S
Mg265 O270 2.032 . S
Mg265 O272 2.079 . S
C266 O263 1.250 . S
C266 O264 1.248 . S
C267 O268 1.264 . S
C267 O275 1.249 . S
O268 C267 1.264 . S
O269 Mg262 1.986 . S
O269 C273 1.246 . S
O270 Mg265 2.032 . S
O270 C273 1.259 . S
O271 Mg262 2.114 . S
O271 C274 1.252 . S
O272 Mg262 2.251 . S
O272 Mg265 2.079 . S
O272 C274 1.273 . S
C273 O269 1.246 . S
C273 O270 1.259 . S
C274 O271 1.252 . S
C274 O272 1.273 . S
O275 Mg262 2.010 . S
O275 C267 1.249 . S
Mg276 O277 2.028 . S
Mg276 O283 1.986 . S
Mg276 O285 2.114 . S
Mg276 O286 2.251 . S
Mg276 O289 2.010 . S
O277 Mg276 2.028 . S
O277 C280 1.250 . S
O278 Mg279 2.028 . S
O278 C280 1.248 . S
Mg279 O278 2.028 . S
Mg279 O284 2.032 . S
Mg279 O286 2.079 . S
C280 O277 1.250 . S
C280 O278 1.248 . S
C281 O282 1.264 . S
C281 O289 1.249 . S
O282 C281 1.264 . S
O283 Mg276 1.986 . S
O283 C287 1.246 . S
O284 Mg279 2.032 . S
O284 C287 1.259 . S
O285 Mg276 2.114 . S
O285 C288 1.252 . S
O286 Mg276 2.251 . S
O286 Mg279 2.079 . S
O286 C288 1.273 . S
C287 O283 1.246 . S
C287 O284 1.259 . S
C288 O285 1.252 . S
C288 O286 1.273 . S
O289 Mg276 2.010 . S
O289 C281 1.249 . S
Mg290 O291 2.028 1_545 S
Mg290 O297 1.986 1_545 S
Mg290 O299 2.114 . S
Mg290 O300 2.251 . S
Mg290 O303 2.010 . S
O291 Mg290 2.028 1_565 S
O291 C294 1.250 . S
O292 Mg293 2.028 . S
O292 C294 1.248 . S
Mg293 O292 2.028 . S
Mg293 O298 2.032 . S
Mg293 O300 2.079 1_565 S
C294 O291 1.250 . S
C294 O292 1.248 . S
C295 O296 1.264 . S
C295 O303 1.249 . S
O296 C295 1.264 . S
O297 Mg290 1.986 1_565 S
O297 C301 1.246 . S
O298 Mg293 2.032 . S
O298 C301 1.259 . S
O299 Mg290 2.114 . S
O299 C302 1.252 . S
O300 Mg290 2.251 . S
O300 Mg293 2.079 1_545 S
O300 C302 1.273 . S
C301 O297 1.246 . S
C301 O298 1.259 . S
C302 O299 1.252 . S
C302 O300 1.273 . S
O303 Mg290 2.010 . S
O303 C295 1.249 . S
Mg304 O305 2.005 1_455 S
Mg304 O311 1.986 . S
Mg304 O313 2.114 . S
Mg304 O314 2.251 . S
Mg304 O317 2.010 . S
O305 Mg304 2.005 1_655 S
O305 C308 1.286 . S
O306 Mg307 2.028 . S
O306 C308 1.248 . S
Mg307 O306 2.028 . S
Mg307 O312 2.032 . S
Mg307 O314 2.079 1_655 S
C308 O305 1.286 . S
C308 O306 1.248 . S
C309 O310 1.264 . S
C309 O317 1.249 . S
O310 C309 1.264 . S
O311 Mg304 1.986 . S
O311 C315 1.246 . S
O312 Mg307 2.032 . S
O312 C315 1.259 1_655 S
O313 Mg304 2.114 . S
O313 C316 1.252 . S
O314 Mg304 2.251 . S
O314 Mg307 2.079 1_455 S
O314 C316 1.273 . S
C315 O311 1.246 . S
C315 O312 1.259 1_455 S
C316 O313 1.252 . S
C316 O314 1.273 . S
O317 Mg304 2.010 . S
O317 C309 1.249 . S
Mg318 O319 2.028 . S
Mg318 O325 1.986 . S
Mg318 O327 2.114 . S
Mg318 O328 2.251 . S
Mg318 O331 2.010 . S
O319 Mg318 2.028 . S
O319 C322 1.250 . S
O320 Mg321 2.028 . S
O320 C322 1.248 . S
Mg321 O320 2.028 . S
Mg321 O326 2.032 . S
Mg321 O328 2.079 . S
C322 O319 1.250 . S
C322 O320 1.248 . S
C323 O324 1.264 . S
C323 O331 1.249 . S
O324 C323 1.264 . S
O325 Mg318 1.986 . S
O325 C329 1.246 . S
O326 Mg321 2.032 . S
O326 C329 1.259 . S
O327 Mg318 2.114 . S
O327 C330 1.252 . S
O328 Mg318 2.251 . S
O328 Mg321 2.079 . S
O328 C330 1.273 . S
C329 O325 1.246 . S
C329 O326 1.259 . S
C330 O327 1.252 . S
C330 O328 1.273 . S
O331 Mg318 2.010 . S
O331 C323 1.249 . S
Mg332 O333 2.028 1_655 S
Mg332 O339 1.989 . S
Mg332 O341 2.114 . S
Mg332 O342 2.251 1_655 S
Mg332 O345 2.010 . S
O333 Mg332 2.028 1_455 S
O333 C336 1.250 . S
O334 Mg335 2.028 . S
O334 C336 1.248 . S
Mg335 O334 2.028 . S
Mg335 O340 2.032 . S
Mg335 O342 2.079 . S
C336 O333 1.250 . S
C336 O334 1.248 . S
C337 O338 1.264 . S
C337 O345 1.249 . S
O338 C337 1.264 . S
O339 Mg332 1.989 . S
O339 C343 1.237 1_655 S
O340 Mg335 2.032 . S
O340 C343 1.259 . S
O341 Mg332 2.114 . S
O341 C344 1.252 . S
O342 Mg332 2.251 1_455 S
O342 Mg335 2.079 . S
O342 C344 1.273 1_455 S
C343 O339 1.237 1_455 S
C343 O340 1.259 . S
C344 O341 1.252 . S
C344 O342 1.273 1_655 S
O345 Mg332 2.010 . S
O345 C337 1.249 . S
Mg346 O347 2.028 . S
Mg346 O353 1.986 . S
Mg346 O355 2.114 . S
Mg346 O356 2.251 . S
Mg346 O359 2.010 . S
O347 Mg346 2.028 . S
O347 C350 1.250 . S
O348 Mg349 2.028 . S
O348 C350 1.248 . S
Mg349 O348 2.028 . S
Mg349 O354 2.032 . S
Mg349 O356 2.079 . S
C350 O347 1.250 . S
C350 O348 1.248 . S
C351 O352 1.264 . S
C351 O359 1.249 . S
O352 C351 1.264 . S
O353 Mg346 1.986 . S
O353 C357 1.246 . S
O354 Mg349 2.032 . S
O354 C357 1.259 . S
O355 Mg346 2.114 . S
O355 C358 1.252 . S
O356 Mg346 2.251 . S
O356 Mg349 2.079 . S
O356 C358 1.273 . S
C357 O353 1.246 . S
C357 O354 1.259 . S
C358 O355 1.252 . S
C358 O356 1.273 . S
O359 Mg346 2.010 . S
O359 C351 1.249 . S
H360 C368 0.950 . S
H361 C373 0.950 . S
H362 C370 0.950 . S
H363 C372 0.950 . S
H364 C374 0.950 . S
H365 C376 0.950 . S
H366 C378 0.950 . S
H367 C379 0.950 . S
C368 H360 0.950 . S
C368 C369 1.386 . S
C368 C370 1.391 . S
C369 C368 1.386 . S
C369 C373 1.393 . S
C370 H362 0.950 . S
C370 C368 1.391 . S
C370 C371 1.400 . S
C371 C370 1.400 . S
C371 C372 1.398 . S
C371 C377 1.491 . S
C372 H363 0.950 . S
C372 C371 1.398 . S
C372 C373 1.391 . S
C373 H361 0.950 . S
C373 C369 1.393 . S
C373 C372 1.391 . S
C374 H364 0.950 . S
C374 C375 1.386 . S
C374 C376 1.391 . S
C375 C374 1.386 . S
C375 C379 1.393 . S
C376 H365 0.950 . S
C376 C374 1.391 . S
C376 C377 1.400 . S
C377 C371 1.491 . S
C377 C376 1.400 . S
C377 C378 1.398 . S
C378 H366 0.950 . S
C378 C377 1.398 . S
C378 C379 1.391 . S
C379 H367 0.950 . S
C379 C375 1.393 . S
C379 C378 1.391 . S
H380 C388 0.950 . S
H381 C393 0.950 . S
H382 C390 0.950 . S
H383 C392 0.950 . S
H384 C394 0.950 . S
H385 C396 0.950 . S
H386 C398 0.950 . S
H387 C399 0.950 . S
C388 H380 0.950 . S
C388 C389 1.386 . S
C388 C390 1.391 . S
C389 C388 1.386 . S
C389 C393 1.393 . S
C390 H382 0.950 . S
C390 C388 1.391 . S
C390 C391 1.400 . S
C391 C390 1.400 . S
C391 C392 1.398 . S
C391 C397 1.491 . S
C392 H383 0.950 . S
C392 C391 1.398 . S
C392 C393 1.391 . S
C393 H381 0.950 . S
C393 C389 1.393 . S
C393 C392 1.391 . S
C394 H384 0.950 . S
C394 C395 1.386 . S
C394 C396 1.391 . S
C395 C394 1.386 . S
C395 C399 1.393 . S
C396 H385 0.950 . S
C396 C394 1.391 . S
C396 C397 1.400 . S
C397 C391 1.491 . S
C397 C396 1.400 . S
C397 C398 1.398 . S
C398 H386 0.950 . S
C398 C397 1.398 . S
C398 C399 1.391 . S
C399 H387 0.950 . S
C399 C395 1.393 . S
C399 C398 1.391 . S
H400 C408 0.950 . S
H401 C413 0.950 . S
H402 C410 0.950 . S
H403 C412 0.950 . S
H404 C414 0.950 . S
H405 C416 0.950 . S
H406 C418 0.950 . S
H407 C419 0.950 . S
C408 H400 0.950 . S
C408 C409 1.386 . S
C408 C410 1.391 . S
C409 C408 1.386 . S
C409 C413 1.393 . S
C410 H402 0.950 . S
C410 C408 1.391 . S
C410 C411 1.400 . S
C411 C410 1.400 . S
C411 C412 1.398 . S
C411 C417 1.491 . S
C412 H403 0.950 . S
C412 C411 1.398 . S
C412 C413 1.391 . S
C413 H401 0.950 . S
C413 C409 1.393 . S
C413 C412 1.391 . S
C414 H404 0.950 . S
C414 C415 1.386 . S
C414 C416 1.391 . S
C415 C414 1.386 . S
C415 C419 1.393 . S
C416 H405 0.950 . S
C416 C414 1.391 . S
C416 C417 1.400 . S
C417 C411 1.491 . S
C417 C416 1.400 . S
C417 C418 1.398 . S
C418 H406 0.950 . S
C418 C417 1.398 . S
C418 C419 1.391 . S
C419 H407 0.950 . S
C419 C415 1.393 . S
C419 C418 1.391 . S
H420 C428 0.950 . S
H421 C433 0.950 . S
H422 C430 0.950 . S
H423 C432 0.950 . S
H424 C434 0.950 . S
H425 C436 0.950 . S
H426 C438 0.950 1_565 S
H427 C439 0.950 1_565 S
C428 H420 0.950 . S
C428 C429 1.391 . S
C428 C430 1.391 . S
C429 C428 1.391 . S
C429 C433 1.384 1_565 S
C430 H422 0.950 . S
C430 C428 1.391 . S
C430 C431 1.400 1_565 S
C431 C430 1.400 1_545 S
C431 C432 1.398 . S
C431 C437 1.491 . S
C432 H423 0.950 . S
C432 C431 1.398 . S
C432 C433 1.391 . S
C433 H421 0.950 . S
C433 C429 1.384 1_545 S
C433 C432 1.391 . S
C434 H424 0.950 . S
C434 C435 1.386 . S
C434 C436 1.391 . S
C435 C434 1.386 . S
C435 C439 1.393 . S
C436 H425 0.950 . S
C436 C434 1.391 . S
C436 C437 1.400 1_655 S
C437 C431 1.491 . S
C437 C436 1.400 1_455 S
C437 C438 1.398 . S
C438 H426 0.950 1_545 S
C438 C437 1.398 . S
C438 C439 1.391 1_455 S
C439 H427 0.950 1_545 S
C439 C435 1.393 . S
C439 C438 1.391 1_655 S
H440 C448 0.950 . S
H441 C453 0.950 . S
H442 C450 0.950 . S
H443 C452 0.950 . S
H444 C454 0.950 . S
H445 C456 0.950 . S
H446 C458 0.950 . S
H447 C459 0.950 . S
C448 H440 0.950 . S
C448 C449 1.386 . S
C448 C450 1.391 . S
C449 C448 1.386 . S
C449 C453 1.393 . S
C450 H442 0.950 . S
C450 C448 1.391 . S
C450 C451 1.400 . S
C451 C450 1.400 . S
C451 C452 1.398 . S
C451 C457 1.491 . S
C452 H443 0.950 . S
C452 C451 1.398 . S
C452 C453 1.391 . S
C453 H441 0.950 . S
C453 C449 1.393 . S
C453 C452 1.391 . S
C454 H444 0.950 . S
C454 C455 1.386 . S
C454 C456 1.391 . S
C455 C454 1.386 . S
C455 C459 1.393 . S
C456 H445 0.950 . S
C456 C454 1.391 . S
C456 C457 1.400 . S
C457 C451 1.491 . S
C457 C456 1.400 . S
C457 C458 1.398 . S
C458 H446 0.950 . S
C458 C457 1.398 . S
C458 C459 1.391 . S
C459 H447 0.950 . S
C459 C455 1.393 . S
C459 C458 1.391 . S
H460 C468 0.950 . S
H461 C473 0.950 . S
H462 C470 0.950 . S
H463 C472 0.950 . S
H464 C474 0.950 . S
H465 C476 0.950 . S
H466 C478 0.950 . S
H467 C479 0.950 . S
C468 H460 0.950 . S
C468 C469 1.386 . S
C468 C470 1.391 . S
C469 C468 1.386 . S
C469 C473 1.393 . S
C470 H462 0.950 . S
C470 C468 1.391 . S
C470 C471 1.400 . S
C471 C470 1.400 . S
C471 C472 1.398 . S
C471 C477 1.491 . S
C472 H463 0.950 . S
C472 C471 1.398 . S
C472 C473 1.391 . S
C473 H461 0.950 . S
C473 C469 1.393 . S
C473 C472 1.391 . S
C474 H464 0.950 . S
C474 C475 1.386 . S
C474 C476 1.391 . S
C475 C474 1.386 . S
C475 C479 1.393 . S
C476 H465 0.950 . S
C476 C474 1.391 . S
C476 C477 1.400 . S
C477 C471 1.491 . S
C477 C476 1.400 . S
C477 C478 1.398 . S
C478 H466 0.950 . S
C478 C477 1.398 . S
C478 C479 1.391 . S
C479 H467 0.950 . S
C479 C475 1.393 . S
C479 C478 1.391 . S
H480 C488 0.950 . S
H481 C493 0.950 . S
H482 C490 0.950 . S
H483 C492 0.950 . S
H484 C494 0.950 . S
H485 C496 0.950 . S
H486 C498 0.950 . S
H487 C499 0.950 . S
C488 H480 0.950 . S
C488 C489 1.386 . S
C488 C490 1.391 . S
C489 C488 1.386 . S
C489 C493 1.393 . S
C490 H482 0.950 . S
C490 C488 1.391 . S
C490 C491 1.400 . S
C491 C490 1.400 . S
C491 C492 1.398 . S
C491 C497 1.491 . S
C492 H483 0.950 . S
C492 C491 1.398 . S
C492 C493 1.391 . S
C493 H481 0.950 . S
C493 C489 1.393 . S
C493 C492 1.391 . S
C494 H484 0.950 . S
C494 C495 1.386 . S
C494 C496 1.391 . S
C495 C494 1.386 . S
C495 C499 1.393 . S
C496 H485 0.950 . S
C496 C494 1.391 . S
C496 C497 1.400 . S
C497 C491 1.491 . S
C497 C496 1.400 . S
C497 C498 1.398 . S
C498 H486 0.950 . S
C498 C497 1.398 . S
C498 C499 1.391 . S
C499 H487 0.950 . S
C499 C495 1.393 . S
C499 C498 1.391 . S
H500 C508 0.950 . S
H501 C513 0.950 . S
H502 C510 0.950 . S
H503 C512 0.950 . S
H504 C514 0.950 . S
H505 C516 0.950 . S
H506 C518 0.950 . S
H507 C519 0.950 . S
C508 H500 0.950 . S
C508 C509 1.386 1_545 S
C508 C510 1.391 . S
C509 C508 1.386 1_565 S
C509 C513 1.393 . S
C510 H502 0.950 . S
C510 C508 1.391 . S
C510 C511 1.400 1_545 S
C511 C510 1.400 1_565 S
C511 C512 1.398 . S
C511 C517 1.491 . S
C512 H503 0.950 . S
C512 C511 1.398 . S
C512 C513 1.391 . S
C513 H501 0.950 . S
C513 C509 1.393 . S
C513 C512 1.391 . S
C514 H504 0.950 . S
C514 C515 1.386 . S
C514 C516 1.391 . S
C515 C514 1.386 . S
C515 C519 1.393 1_565 S
C516 H505 0.950 . S
C516 C514 1.391 . S
C516 C517 1.400 . S
C517 C511 1.491 . S
C517 C516 1.400 . S
C517 C518 1.398 1_565 S
C518 H506 0.950 . S
C518 C517 1.398 1_545 S
C518 C519 1.391 . S
C519 H507 0.950 . S
C519 C515 1.393 1_545 S
C519 C518 1.391 . S
H520 C528 0.950 . S
H521 C533 0.950 . S
H522 C530 0.950 . S
H523 C532 0.950 . S
H524 C534 0.950 . S
H525 C536 0.950 . S
H526 C538 0.950 . S
H527 C539 0.950 . S
C528 H520 0.950 . S
C528 C529 1.386 . S
C528 C530 1.391 . S
C529 C528 1.386 . S
C529 C533 1.393 . S
C530 H522 0.950 . S
C530 C528 1.391 . S
C530 C531 1.400 . S
C531 C530 1.400 . S
C531 C532 1.398 . S
C531 C537 1.491 . S
C532 H523 0.950 . S
C532 C531 1.398 . S
C532 C533 1.391 . S
C533 H521 0.950 . S
C533 C529 1.393 . S
C533 C532 1.391 . S
C534 H524 0.950 . S
C534 C535 1.386 . S
C534 C536 1.391 . S
C535 C534 1.386 . S
C535 C539 1.393 . S
C536 H525 0.950 . S
C536 C534 1.391 . S
C536 C537 1.400 . S
C537 C531 1.491 . S
C537 C536 1.400 . S
C537 C538 1.398 . S
C538 H526 0.950 . S
C538 C537 1.398 . S
C538 C539 1.391 . S
C539 H527 0.950 . S
C539 C535 1.393 . S
C539 C538 1.391 . S
H540 C548 0.950 . S
H541 C553 0.950 . S
H542 C550 0.950 . S
H543 C552 0.950 . S
H544 C554 0.950 . S
H545 C556 0.950 . S
H546 C558 0.950 . S
H547 C559 0.950 . S
C548 H540 0.950 . S
C548 C549 1.386 . S
C548 C550 1.391 . S
C549 C548 1.386 . S
C549 C553 1.393 . S
C550 H542 0.950 . S
C550 C548 1.391 . S
C550 C551 1.400 . S
C551 C550 1.400 . S
C551 C552 1.398 . S
C551 C557 1.491 . S
C552 H543 0.950 . S
C552 C551 1.398 . S
C552 C553 1.391 . S
C553 H541 0.950 . S
C553 C549 1.393 . S
C553 C552 1.391 . S
C554 H544 0.950 . S
C554 C555 1.386 . S
C554 C556 1.391 . S
C555 C554 1.386 . S
C555 C559 1.393 . S
C556 H545 0.950 . S
C556 C554 1.391 . S
C556 C557 1.400 . S
C557 C551 1.491 . S
C557 C556 1.400 . S
C557 C558 1.398 . S
C558 H546 0.950 . S
C558 C557 1.398 . S
C558 C559 1.391 . S
C559 H547 0.950 . S
C559 C555 1.393 . S
C559 C558 1.391 . S
H560 C568 0.950 . S
H561 C573 0.950 . S
H562 C570 0.950 . S
H563 C572 0.950 . S
H564 C574 0.950 . S
H565 C576 0.950 . S
H566 C578 0.950 . S
H567 C579 0.950 . S
C568 H560 0.950 . S
C568 C569 1.386 . S
C568 C570 1.391 . S
C569 C568 1.386 . S
C569 C573 1.393 . S
C570 H562 0.950 . S
C570 C568 1.391 . S
C570 C571 1.400 . S
C571 C570 1.400 . S
C571 C572 1.398 . S
C571 C577 1.491 . S
C572 H563 0.950 . S
C572 C571 1.398 . S
C572 C573 1.391 . S
C573 H561 0.950 . S
C573 C569 1.393 . S
C573 C572 1.391 . S
C574 H564 0.950 . S
C574 C575 1.386 . S
C574 C576 1.391 . S
C575 C574 1.386 . S
C575 C579 1.393 . S
C576 H565 0.950 . S
C576 C574 1.391 . S
C576 C577 1.400 . S
C577 C571 1.491 . S
C577 C576 1.400 . S
C577 C578 1.398 . S
C578 H566 0.950 . S
C578 C577 1.398 . S
C578 C579 1.391 . S
C579 H567 0.950 . S
C579 C575 1.393 . S
C579 C578 1.391 . S
H580 C588 0.950 . S
H581 C593 0.950 . S
H582 C590 0.950 . S
H583 C592 0.950 . S
H584 C594 0.950 . S
H585 C596 0.950 . S
H586 C598 0.950 . S
H587 C599 0.950 . S
C588 H580 0.950 . S
C588 C589 1.386 . S
C588 C590 1.391 . S
C589 C588 1.386 . S
C589 C593 1.393 . S
C590 H582 0.950 . S
C590 C588 1.391 . S
C590 C591 1.400 . S
C591 C590 1.400 . S
C591 C592 1.398 . S
C591 C597 1.491 . S
C592 H583 0.950 . S
C592 C591 1.398 . S
C592 C593 1.391 . S
C593 H581 0.950 . S
C593 C589 1.393 . S
C593 C592 1.391 . S
C594 H584 0.950 . S
C594 C595 1.386 . S
C594 C596 1.391 . S
C595 C594 1.386 . S
C595 C599 1.393 . S
C596 H585 0.950 . S
C596 C594 1.391 . S
C596 C597 1.400 . S
C597 C591 1.491 . S
C597 C596 1.400 . S
C597 C598 1.398 . S
C598 H586 0.950 . S
C598 C597 1.398 . S
C598 C599 1.391 . S
C599 H587 0.950 . S
C599 C595 1.393 . S
C599 C598 1.391 . S
H600 C608 0.950 . S
H601 C613 0.950 . S
H602 C610 0.950 . S
H603 C612 0.950 . S
H604 C614 0.950 . S
H605 C616 0.950 . S
H606 C618 0.950 . S
H607 C619 0.950 . S
C608 H600 0.950 . S
C608 C609 1.386 . S
C608 C610 1.391 . S
C609 C608 1.386 . S
C609 C613 1.393 . S
C610 H602 0.950 . S
C610 C608 1.391 . S
C610 C611 1.400 . S
C611 C610 1.400 . S
C611 C612 1.398 . S
C611 C617 1.491 . S
C612 H603 0.950 . S
C612 C611 1.398 . S
C612 C613 1.391 . S
C613 H601 0.950 . S
C613 C609 1.393 . S
C613 C612 1.391 . S
C614 H604 0.950 . S
C614 C615 1.386 . S
C614 C616 1.391 . S
C615 C614 1.386 . S
C615 C619 1.393 . S
C616 H605 0.950 . S
C616 C614 1.391 . S
C616 C617 1.400 . S
C617 C611 1.491 . S
C617 C616 1.400 . S
C617 C618 1.398 . S
C618 H606 0.950 . S
C618 C617 1.398 . S
C618 C619 1.391 . S
C619 H607 0.950 . S
C619 C615 1.393 . S
C619 C618 1.391 . S
H620 C628 0.950 . S
H621 C633 0.950 . S
H622 C630 0.950 . S
H623 C632 0.950 . S
H624 C634 0.950 . S
H625 C636 0.950 . S
H626 C638 0.950 . S
H627 C639 0.950 . S
C628 H620 0.950 . S
C628 C629 1.386 . S
C628 C630 1.391 . S
C629 C628 1.386 . S
C629 C633 1.393 . S
C630 H622 0.950 . S
C630 C628 1.391 . S
C630 C631 1.400 . S
C631 C630 1.400 . S
C631 C632 1.398 . S
C631 C637 1.491 . S
C632 H623 0.950 . S
C632 C631 1.398 . S
C632 C633 1.391 . S
C633 H621 0.950 . S
C633 C629 1.393 . S
C633 C632 1.391 . S
C634 H624 0.950 . S
C634 C635 1.386 . S
C634 C636 1.391 . S
C635 C634 1.386 . S
C635 C639 1.393 . S
C636 H625 0.950 . S
C636 C634 1.391 . S
C636 C637 1.400 . S
C637 C631 1.491 . S
C637 C636 1.400 . S
C637 C638 1.398 . S
C638 H626 0.950 . S
C638 C637 1.398 . S
C638 C639 1.391 . S
C639 H627 0.950 . S
C639 C635 1.393 . S
C639 C638 1.391 . S
H640 C648 0.950 . S
H641 C653 0.950 . S
H642 C650 0.950 . S
H643 C652 0.950 . S
H644 C654 0.950 . S
H645 C656 0.950 . S
H646 C658 0.950 . S
H647 C659 0.950 . S
C648 H640 0.950 . S
C648 C649 1.386 . S
C648 C650 1.391 . S
C649 C648 1.386 . S
C649 C653 1.393 . S
C650 H642 0.950 . S
C650 C648 1.391 . S
C650 C651 1.400 . S
C651 C650 1.400 . S
C651 C652 1.398 . S
C651 C657 1.491 . S
C652 H643 0.950 . S
C652 C651 1.398 . S
C652 C653 1.391 . S
C653 H641 0.950 . S
C653 C649 1.393 . S
C653 C652 1.391 . S
C654 H644 0.950 . S
C654 C655 1.386 . S
C654 C656 1.391 . S
C655 C654 1.386 . S
C655 C659 1.393 . S
C656 H645 0.950 . S
C656 C654 1.391 . S
C656 C657 1.400 . S
C657 C651 1.491 . S
C657 C656 1.400 . S
C657 C658 1.398 . S
C658 H646 0.950 . S
C658 C657 1.398 . S
C658 C659 1.391 . S
C659 H647 0.950 . S
C659 C655 1.393 . S
C659 C658 1.391 . S
H660 C668 0.950 . S
H661 C673 0.950 . S
H662 C670 0.950 . S
H663 C672 0.950 . S
H664 C674 0.950 . S
H665 C676 0.950 . S
H666 C678 0.950 . S
H667 C679 0.945 1_455 S
C668 H660 0.950 . S
C668 C669 1.386 . S
C668 C670 1.391 . S
C669 C668 1.386 . S
C669 C673 1.393 . S
C670 H662 0.950 . S
C670 C668 1.391 . S
C670 C671 1.400 . S
C671 C670 1.400 . S
C671 C672 1.398 . S
C671 C677 1.491 . S
C672 H663 0.950 . S
C672 C671 1.398 . S
C672 C673 1.391 . S
C673 H661 0.950 . S
C673 C669 1.393 . S
C673 C672 1.391 . S
C674 H664 0.950 . S
C674 C675 1.386 . S
C674 C676 1.391 . S
C675 C674 1.386 . S
C675 C679 1.393 . S
C676 H665 0.950 . S
C676 C674 1.391 . S
C676 C677 1.400 . S
C677 C671 1.491 . S
C677 C676 1.400 . S
C677 C678 1.398 . S
C678 H666 0.950 . S
C678 C677 1.398 . S
C678 C679 1.391 . S
C679 H667 0.945 1_655 S
C679 C675 1.393 . S
C679 C678 1.391 . S
H680 C688 0.950 . S
H681 C693 0.950 . S
H682 C690 0.950 . S
H683 C692 0.950 . S
H684 C694 0.950 . S
H685 C696 0.950 . S
H686 C698 0.950 . S
H687 C699 0.950 . S
C688 H680 0.950 . S
C688 C689 1.386 . S
C688 C690 1.391 . S
C689 C688 1.386 . S
C689 C693 1.393 . S
C690 H682 0.950 . S
C690 C688 1.391 . S
C690 C691 1.400 . S
C691 C690 1.400 . S
C691 C692 1.398 . S
C691 C697 1.491 . S
C692 H683 0.950 . S
C692 C691 1.398 . S
C692 C693 1.391 . S
C693 H681 0.950 . S
C693 C689 1.393 . S
C693 C692 1.391 . S
C694 H684 0.950 . S
C694 C695 1.386 . S
C694 C696 1.391 . S
C695 C694 1.386 . S
C695 C699 1.393 . S
C696 H685 0.950 . S
C696 C694 1.391 . S
C696 C697 1.400 . S
C697 C691 1.491 . S
C697 C696 1.400 . S
C697 C698 1.398 . S
C698 H686 0.950 . S
C698 C697 1.398 . S
C698 C699 1.391 . S
C699 H687 0.950 . S
C699 C695 1.393 . S
C699 C698 1.391 . S
H700 C708 0.950 . S
H701 C713 0.950 . S
H702 C710 0.950 . S
H703 C712 0.950 . S
H704 C714 0.950 . S
H705 C716 0.950 . S
H706 C718 0.950 . S
H707 C719 0.950 . S
C708 H700 0.950 . S
C708 C709 1.386 . S
C708 C710 1.391 . S
C709 C708 1.386 . S
C709 C713 1.393 . S
C710 H702 0.950 . S
C710 C708 1.391 . S
C710 C711 1.400 . S
C711 C710 1.400 . S
C711 C712 1.398 . S
C711 C717 1.491 . S
C712 H703 0.950 . S
C712 C711 1.398 . S
C712 C713 1.391 . S
C713 H701 0.950 . S
C713 C709 1.393 . S
C713 C712 1.391 . S
C714 H704 0.950 . S
C714 C715 1.386 . S
C714 C716 1.391 . S
C715 C714 1.386 . S
C715 C719 1.393 . S
C716 H705 0.950 . S
C716 C714 1.391 . S
C716 C717 1.400 . S
C717 C711 1.491 . S
C717 C716 1.400 . S
C717 C718 1.398 . S
C718 H706 0.950 . S
C718 C717 1.398 . S
C718 C719 1.391 . S
C719 H707 0.950 . S
C719 C715 1.393 . S
C719 C718 1.391 . S
H720 C728 0.950 . S
H721 C733 0.950 . S
H722 C730 0.950 . S
H723 C732 0.950 . S
H724 C734 0.950 . S
H725 C736 0.950 . S
H726 C738 0.950 . S
H727 C739 0.950 . S
C728 H720 0.950 . S
C728 C729 1.386 . S
C728 C730 1.391 . S
C729 C728 1.386 . S
C729 C733 1.393 1_556 S
C730 H722 0.950 . S
C730 C728 1.391 . S
C730 C731 1.400 . S
C731 C730 1.400 . S
C731 C732 1.398 1_556 S
C731 C737 1.491 . S
C732 H723 0.950 . S
C732 C731 1.398 1_554 S
C732 C733 1.391 . S
C733 H721 0.950 . S
C733 C729 1.393 1_554 S
C733 C732 1.391 . S
C734 H724 0.950 . S
C734 C735 1.386 . S
C734 C736 1.391 . S
C735 C734 1.386 . S
C735 C739 1.393 1_554 S
C736 H725 0.950 . S
C736 C734 1.391 . S
C736 C737 1.400 1_554 S
C737 C731 1.491 . S
C737 C736 1.400 1_556 S
C737 C738 1.398 . S
C738 H726 0.950 . S
C738 C737 1.398 . S
C738 C739 1.391 . S
C739 H727 0.950 . S
C739 C735 1.393 1_556 S
C739 C738 1.391 . S
H740 C748 0.950 . S
H741 C753 0.950 . S
H742 C750 0.950 . S
H743 C752 0.950 . S
H744 C754 0.950 . S
H745 C756 0.950 . S
H746 C758 0.950 . S
H747 C759 0.950 . S
C748 H740 0.950 . S
C748 C749 1.386 . S
C748 C750 1.391 . S
C749 C748 1.386 . S
C749 C753 1.393 . S
C750 H742 0.950 . S
C750 C748 1.391 . S
C750 C751 1.400 . S
C751 C750 1.400 . S
C751 C752 1.398 . S
C751 C757 1.491 . S
C752 H743 0.950 . S
C752 C751 1.398 . S
C752 C753 1.391 . S
C753 H741 0.950 . S
C753 C749 1.393 . S
C753 C752 1.391 . S
C754 H744 0.950 . S
C754 C755 1.386 . S
C754 C756 1.391 . S
C755 C754 1.386 . S
C755 C759 1.393 . S
C756 H745 0.950 . S
C756 C754 1.391 . S
C756 C757 1.400 . S
C757 C751 1.491 . S
C757 C756 1.400 . S
C757 C758 1.398 . S
C758 H746 0.950 . S
C758 C757 1.398 . S
C758 C759 1.391 . S
C759 H747 0.950 . S
C759 C755 1.393 . S
C759 C758 1.391 . S
H760 C768 0.950 . S
H761 C773 0.950 . S
H762 C770 0.950 . S
H763 C772 0.950 . S
H764 C774 0.950 . S
H765 C776 0.950 . S
H766 C778 0.950 . S
H767 C779 0.950 . S
C768 H760 0.950 . S
C768 C769 1.386 . S
C768 C770 1.391 . S
C769 C768 1.386 . S
C769 C773 1.393 . S
C770 H762 0.950 . S
C770 C768 1.391 . S
C770 C771 1.400 . S
C771 C770 1.400 . S
C771 C772 1.398 . S
C771 C777 1.491 . S
C772 H763 0.950 . S
C772 C771 1.398 . S
C772 C773 1.391 . S
C773 H761 0.950 . S
C773 C769 1.393 . S
C773 C772 1.391 . S
C774 H764 0.950 . S
C774 C775 1.386 . S
C774 C776 1.391 . S
C775 C774 1.386 . S
C775 C779 1.393 . S
C776 H765 0.950 . S
C776 C774 1.391 . S
C776 C777 1.400 . S
C777 C771 1.491 . S
C777 C776 1.400 . S
C777 C778 1.398 . S
C778 H766 0.950 . S
C778 C777 1.398 . S
C778 C779 1.391 . S
C779 H767 0.950 . S
C779 C775 1.393 . S
C779 C778 1.391 . S
H780 C788 0.950 . S
H781 C793 0.950 . S
H782 C790 0.950 . S
H783 C792 0.950 . S
H784 C794 0.950 . S
H785 C796 0.950 . S
H786 C798 0.950 . S
H787 C799 0.950 . S
C788 H780 0.950 . S
C788 C789 1.386 . S
C788 C790 1.391 . S
C789 C788 1.386 . S
C789 C793 1.393 . S
C790 H782 0.950 . S
C790 C788 1.391 . S
C790 C791 1.400 . S
C791 C790 1.400 . S
C791 C792 1.398 . S
C791 C797 1.491 . S
C792 H783 0.950 . S
C792 C791 1.398 . S
C792 C793 1.391 . S
C793 H781 0.950 . S
C793 C789 1.393 . S
C793 C792 1.391 . S
C794 H784 0.950 . S
C794 C795 1.386 . S
C794 C796 1.391 . S
C795 C794 1.386 . S
C795 C799 1.393 . S
C796 H785 0.950 . S
C796 C794 1.391 . S
C796 C797 1.400 . S
C797 C791 1.491 . S
C797 C796 1.400 . S
C797 C798 1.398 . S
C798 H786 0.950 . S
C798 C797 1.398 . S
C798 C799 1.391 . S
C799 H787 0.950 . S
C799 C795 1.393 . S
C799 C798 1.391 . S
H800 C808 0.950 . S
H801 C813 0.950 . S
H802 C810 0.950 . S
H803 C812 0.950 . S
H804 C814 0.950 . S
H805 C816 0.950 . S
H806 C818 0.950 . S
H807 C819 0.950 . S
C808 H800 0.950 . S
C808 C809 1.386 . S
C808 C810 1.391 . S
C809 C808 1.386 . S
C809 C813 1.393 . S
C810 H802 0.950 . S
C810 C808 1.391 . S
C810 C811 1.400 . S
C811 C810 1.400 . S
C811 C812 1.398 . S
C811 C817 1.491 . S
C812 H803 0.950 . S
C812 C811 1.398 . S
C812 C813 1.391 . S
C813 H801 0.950 . S
C813 C809 1.393 . S
C813 C812 1.391 . S
C814 H804 0.950 . S
C814 C815 1.386 . S
C814 C816 1.391 . S
C815 C814 1.386 . S
C815 C819 1.393 . S
C816 H805 0.950 . S
C816 C814 1.391 . S
C816 C817 1.400 . S
C817 C811 1.491 . S
C817 C816 1.400 . S
C817 C818 1.398 . S
C818 H806 0.950 . S
C818 C817 1.398 . S
C818 C819 1.391 . S
C819 H807 0.950 . S
C819 C815 1.393 . S
C819 C818 1.391 . S
H820 C828 0.950 . S
H821 C833 0.950 . S
H822 C830 0.950 . S
H823 C832 0.950 . S
H824 C834 0.950 . S
H825 C836 0.950 . S
H826 C838 0.950 . S
H827 C839 0.950 . S
C828 H820 0.950 . S
C828 C829 1.386 . S
C828 C830 1.391 . S
C829 C828 1.386 . S
C829 C833 1.393 . S
C830 H822 0.950 . S
C830 C828 1.391 . S
C830 C831 1.400 . S
C831 C830 1.400 . S
C831 C832 1.398 . S
C831 C837 1.491 . S
C832 H823 0.950 . S
C832 C831 1.398 . S
C832 C833 1.391 . S
C833 H821 0.950 . S
C833 C829 1.393 . S
C833 C832 1.391 . S
C834 H824 0.950 . S
C834 C835 1.386 . S
C834 C836 1.391 . S
C835 C834 1.386 . S
C835 C839 1.393 . S
C836 H825 0.950 . S
C836 C834 1.391 . S
C836 C837 1.400 . S
C837 C831 1.491 . S
C837 C836 1.400 . S
C837 C838 1.398 . S
C838 H826 0.950 . S
C838 C837 1.398 . S
C838 C839 1.391 . S
C839 H827 0.950 . S
C839 C835 1.393 . S
C839 C838 1.391 . S
H840 C848 0.950 . S
H841 C853 0.950 . S
H842 C850 0.950 . S
H843 C852 0.950 . S
H844 C854 0.950 . S
H845 C856 0.950 . S
H846 C858 0.950 . S
H847 C859 0.950 . S
C848 H840 0.950 . S
C848 C849 1.386 . S
C848 C850 1.391 . S
C849 C848 1.386 . S
C849 C853 1.393 . S
C850 H842 0.950 . S
C850 C848 1.391 . S
C850 C851 1.400 . S
C851 C850 1.400 . S
C851 C852 1.398 . S
C851 C857 1.491 . S
C852 H843 0.950 . S
C852 C851 1.398 . S
C852 C853 1.391 . S
C853 H841 0.950 . S
C853 C849 1.393 . S
C853 C852 1.391 . S
C854 H844 0.950 . S
C854 C855 1.386 . S
C854 C856 1.391 . S
C855 C854 1.386 . S
C855 C859 1.393 . S
C856 H845 0.950 . S
C856 C854 1.391 . S
C856 C857 1.400 . S
C857 C851 1.491 . S
C857 C856 1.400 . S
C857 C858 1.398 . S
C858 H846 0.950 . S
C858 C857 1.398 . S
C858 C859 1.391 . S
C859 H847 0.950 . S
C859 C855 1.393 . S
C859 C858 1.391 . S
H860 C868 0.950 . S
H861 C873 0.968 . S
H862 C870 0.950 . S
H863 C872 0.950 . S
H864 C874 0.950 . S
H865 C876 0.950 . S
H866 C878 0.950 . S
H867 C879 0.950 . S
C868 H860 0.950 . S
C868 C869 1.386 . S
C868 C870 1.391 . S
C869 C868 1.386 . S
C869 C873 1.374 1_545 S
C870 H862 0.950 . S
C870 C868 1.391 . S
C870 C871 1.400 . S
C871 C870 1.400 . S
C871 C872 1.398 1_545 S
C871 C877 1.491 . S
C872 H863 0.950 . S
C872 C871 1.398 1_565 S
C872 C873 1.392 . S
C873 H861 0.968 . S
C873 C869 1.374 1_565 S
C873 C872 1.392 . S
C874 H864 0.950 . S
C874 C875 1.386 1_565 S
C874 C876 1.391 . S
C875 C874 1.386 1_545 S
C875 C879 1.393 . S
C876 H865 0.950 . S
C876 C874 1.391 . S
C876 C877 1.400 1_565 S
C877 C871 1.491 . S
C877 C876 1.400 1_545 S
C877 C878 1.398 . S
C878 H866 0.950 . S
C878 C877 1.398 . S
C878 C879 1.391 . S
C879 H867 0.950 . S
C879 C875 1.393 . S
C879 C878 1.391 . S
H880 C888 0.950 . S
H881 C893 0.950 . S
H882 C890 0.950 . S
H883 C892 0.950 . S
H884 C894 0.950 . S
H885 C896 0.950 . S
H886 C898 0.950 . S
H887 C899 0.950 . S
C888 H880 0.950 . S
C888 C889 1.386 . S
C888 C890 1.391 . S
C889 C888 1.386 . S
C889 C893 1.393 . S
C890 H882 0.950 . S
C890 C888 1.391 . S
C890 C891 1.400 . S
C891 C890 1.400 . S
C891 C892 1.398 . S
C891 C897 1.491 . S
C892 H883 0.950 . S
C892 C891 1.398 . S
C892 C893 1.391 . S
C893 H881 0.950 . S
C893 C889 1.393 . S
C893 C892 1.391 . S
C894 H884 0.950 . S
C894 C895 1.386 . S
C894 C896 1.391 . S
C895 C894 1.386 . S
C895 C899 1.393 . S
C896 H885 0.950 . S
C896 C894 1.391 . S
C896 C897 1.400 . S
C897 C891 1.491 . S
C897 C896 1.400 . S
C897 C898 1.398 . S
C898 H886 0.950 . S
C898 C897 1.398 . S
C898 C899 1.391 . S
C899 H887 0.950 . S
C899 C895 1.393 . S
C899 C898 1.391 . S
H900 C908 0.950 . S
H901 C913 0.950 . S
H902 C910 0.950 . S
H903 C912 0.950 . S
H904 C914 0.950 . S
H905 C916 0.950 . S
H906 C918 0.950 . S
H907 C919 0.950 . S
C908 H900 0.950 . S
C908 C909 1.386 . S
C908 C910 1.391 . S
C909 C908 1.386 . S
C909 C913 1.393 . S
C910 H902 0.950 . S
C910 C908 1.391 . S
C910 C911 1.400 . S
C911 C910 1.400 . S
C911 C912 1.398 . S
C911 C917 1.491 . S
C912 H903 0.950 . S
C912 C911 1.398 . S
C912 C913 1.391 . S
C913 H901 0.950 . S
C913 C909 1.393 . S
C913 C912 1.391 . S
C914 H904 0.950 . S
C914 C915 1.386 . S
C914 C916 1.391 . S
C915 C914 1.386 . S
C915 C919 1.393 . S
C916 H905 0.950 . S
C916 C914 1.391 . S
C916 C917 1.400 . S
C917 C911 1.491 . S
C917 C916 1.400 . S
C917 C918 1.398 . S
C918 H906 0.950 . S
C918 C917 1.398 . S
C918 C919 1.391 . S
C919 H907 0.950 . S
C919 C915 1.393 . S
C919 C918 1.391 . S
H920 C928 0.950 . S
H921 C933 0.950 . S
H922 C930 0.950 . S
H923 C932 0.950 . S
H924 C934 0.950 . S
H925 C936 0.950 . S
H926 C938 0.950 . S
H927 C939 0.950 . S
C928 H920 0.950 . S
C928 C929 1.386 . S
C928 C930 1.391 . S
C929 C928 1.386 . S
C929 C933 1.393 . S
C930 H922 0.950 . S
C930 C928 1.391 . S
C930 C931 1.400 . S
C931 C930 1.400 . S
C931 C932 1.398 . S
C931 C937 1.491 . S
C932 H923 0.950 . S
C932 C931 1.398 . S
C932 C933 1.391 . S
C933 H921 0.950 . S
C933 C929 1.393 . S
C933 C932 1.391 . S
C934 H924 0.950 . S
C934 C935 1.386 . S
C934 C936 1.391 . S
C935 C934 1.386 . S
C935 C939 1.393 . S
C936 H925 0.950 . S
C936 C934 1.391 . S
C936 C937 1.400 . S
C937 C931 1.491 . S
C937 C936 1.400 . S
C937 C938 1.398 . S
C938 H926 0.950 . S
C938 C937 1.398 . S
C938 C939 1.391 . S
C939 H927 0.950 . S
C939 C935 1.393 . S
C939 C938 1.391 . S
H940 C948 0.950 . S
H941 C953 0.950 . S
H942 C950 0.950 . S
H943 C952 0.950 . S
H944 C954 0.950 . S
H945 C956 0.950 . S
H946 C958 0.950 . S
H947 C959 0.950 1_455 S
C948 H940 0.950 . S
C948 C949 1.386 . S
C948 C950 1.391 . S
C949 C948 1.386 . S
C949 C953 1.393 1_455 S
C950 H942 0.950 . S
C950 C948 1.391 . S
C950 C951 1.400 1_455 S
C951 C950 1.400 1_655 S
C951 C952 1.398 . S
C951 C957 1.491 . S
C952 H943 0.950 . S
C952 C951 1.398 . S
C952 C953 1.391 . S
C953 H941 0.950 . S
C953 C949 1.393 1_655 S
C953 C952 1.391 . S
C954 H944 0.950 . S
C954 C955 1.386 . S
C954 C956 1.391 . S
C955 C954 1.386 . S
C955 C959 1.393 . S
C956 H945 0.950 . S
C956 C954 1.391 . S
C956 C957 1.400 . S
C957 C951 1.491 . S
C957 C956 1.400 . S
C957 C958 1.398 1_655 S
C958 H946 0.950 . S
C958 C957 1.398 1_455 S
C958 C959 1.391 1_455 S
C959 H947 0.950 1_655 S
C959 C955 1.393 . S
C959 C958 1.391 1_655 S
H960 C968 0.950 . S
H961 C973 0.950 . S
H962 C970 0.950 . S
H963 C972 0.950 . S
H964 C974 0.950 . S
H965 C976 0.950 . S
H966 C978 0.950 . S
H967 C979 0.950 . S
C968 H960 0.950 . S
C968 C969 1.386 . S
C968 C970 1.391 . S
C969 C968 1.386 . S
C969 C973 1.393 . S
C970 H962 0.950 . S
C970 C968 1.391 . S
C970 C971 1.400 . S
C971 C970 1.400 . S
C971 C972 1.398 . S
C971 C977 1.491 . S
C972 H963 0.950 . S
C972 C971 1.398 . S
C972 C973 1.391 . S
C973 H961 0.950 . S
C973 C969 1.393 . S
C973 C972 1.391 . S
C974 H964 0.950 . S
C974 C975 1.386 . S
C974 C976 1.391 . S
C975 C974 1.386 . S
C975 C979 1.393 . S
C976 H965 0.950 . S
C976 C974 1.391 . S
C976 C977 1.400 . S
C977 C971 1.491 . S
C977 C976 1.400 . S
C977 C978 1.398 . S
C978 H966 0.950 . S
C978 C977 1.398 . S
C978 C979 1.391 . S
C979 H967 0.950 . S
C979 C975 1.393 . S
C979 C978 1.391 . S
H980 C988 0.950 1_655 S
H981 C993 0.950 . S
H982 C990 0.950 . S
H983 C992 0.950 . S
H984 C994 0.950 . S
H985 C996 0.950 . S
H986 C998 0.950 . S
H987 C999 0.950 . S
C988 H980 0.950 1_455 S
C988 C989 1.386 . S
C988 C990 1.391 . S
C989 C988 1.386 . S
C989 C993 1.393 . S
C990 H982 0.950 . S
C990 C988 1.391 . S
C990 C991 1.400 . S
C991 C990 1.400 . S
C991 C992 1.398 . S
C991 C997 1.491 . S
C992 H983 0.950 . S
C992 C991 1.398 . S
C992 C993 1.391 . S
C993 H981 0.950 . S
C993 C989 1.393 . S
C993 C992 1.391 . S
C994 H984 0.950 . S
C994 C995 1.386 . S
C994 C996 1.391 . S
C995 C994 1.386 . S
C995 C999 1.393 . S
C996 H985 0.950 . S
C996 C994 1.391 . S
C996 C997 1.400 . S
C997 C991 1.491 . S
C997 C996 1.400 . S
C997 C998 1.398 . S
C998 H986 0.950 . S
C998 C997 1.398 . S
C998 C999 1.391 . S
C999 H987 0.950 . S
C999 C995 1.393 . S
C999 C998 1.391 . S
H1000 C1008 0.950 . S
H1001 C1013 0.950 . S
H1002 C1010 0.950 . S
H1003 C1012 0.950 . S
H1004 C1014 0.950 . S
H1005 C1016 0.950 . S
H1006 C1018 0.950 . S
H1007 C1019 0.950 . S
C1008 H1000 0.950 . S
C1008 C1009 1.386 . S
C1008 C1010 1.391 . S
C1009 C1008 1.386 . S
C1009 C1013 1.393 . S
C1010 H1002 0.950 . S
C1010 C1008 1.391 . S
C1010 C1011 1.400 . S
C1011 C1010 1.400 . S
C1011 C1012 1.398 . S
C1011 C1017 1.491 . S
C1012 H1003 0.950 . S
C1012 C1011 1.398 . S
C1012 C1013 1.391 . S
C1013 H1001 0.950 . S
C1013 C1009 1.393 . S
C1013 C1012 1.391 . S
C1014 H1004 0.950 . S
C1014 C1015 1.386 . S
C1014 C1016 1.391 . S
C1015 C1014 1.386 . S
C1015 C1019 1.393 . S
C1016 H1005 0.950 . S
C1016 C1014 1.391 . S
C1016 C1017 1.400 . S
C1017 C1011 1.491 . S
C1017 C1016 1.400 . S
C1017 C1018 1.398 . S
C1018 H1006 0.950 . S
C1018 C1017 1.398 . S
C1018 C1019 1.391 . S
C1019 H1007 0.950 . S
C1019 C1015 1.393 . S
C1019 C1018 1.391 . S
H1020 C1028 0.950 . S
H1021 C1033 0.949 1_455 S
H1022 C1030 0.950 . S
H1023 C1032 0.950 . S
H1024 C1034 0.950 . S
H1025 C1036 0.950 . S
H1026 C1038 0.950 . S
H1027 C1039 0.950 . S
C1028 H1020 0.950 . S
C1028 C1029 1.386 . S
C1028 C1030 1.391 . S
C1029 C1028 1.386 . S
C1029 C1033 1.394 1_556 S
C1030 H1022 0.950 . S
C1030 C1028 1.391 . S
C1030 C1031 1.400 . S
C1031 C1030 1.400 . S
C1031 C1032 1.398 1_655 S
C1031 C1037 1.494 . S
C1032 H1023 0.950 . S
C1032 C1031 1.398 1_455 S
C1032 C1033 1.389 1_456 S
C1033 H1021 0.949 1_655 S
C1033 C1029 1.394 1_554 S
C1033 C1032 1.389 1_654 S
C1034 H1024 0.950 . S
C1034 C1035 1.386 . S
C1034 C1036 1.391 . S
C1035 C1034 1.386 . S
C1035 C1039 1.393 1_455 S
C1036 H1025 0.950 . S
C1036 C1034 1.391 . S
C1036 C1037 1.396 1_455 S
C1037 C1031 1.494 . S
C1037 C1036 1.396 1_655 S
C1037 C1038 1.399 . S
C1038 H1026 0.950 . S
C1038 C1037 1.399 . S
C1038 C1039 1.391 . S
C1039 H1027 0.950 . S
C1039 C1035 1.393 1_655 S
C1039 C1038 1.391 . S
H1040 C1048 0.950 . S
H1041 C1053 0.950 . S
H1042 C1050 0.950 . S
H1043 C1052 0.950 . S
H1044 C1054 0.950 . S
H1045 C1056 0.950 . S
H1046 C1058 0.950 . S
H1047 C1059 0.950 . S
C1048 H1040 0.950 . S
C1048 C1049 1.386 . S
C1048 C1050 1.391 . S
C1049 C1048 1.386 . S
C1049 C1053 1.393 . S
C1050 H1042 0.950 . S
C1050 C1048 1.391 . S
C1050 C1051 1.400 . S
C1051 C1050 1.400 . S
C1051 C1052 1.398 . S
C1051 C1057 1.491 . S
C1052 H1043 0.950 . S
C1052 C1051 1.398 . S
C1052 C1053 1.391 . S
C1053 H1041 0.950 . S
C1053 C1049 1.393 . S
C1053 C1052 1.391 . S
C1054 H1044 0.950 . S
C1054 C1055 1.386 . S
C1054 C1056 1.391 . S
C1055 C1054 1.386 . S
C1055 C1059 1.393 . S
C1056 H1045 0.950 . S
C1056 C1054 1.391 . S
C1056 C1057 1.400 . S
C1057 C1051 1.491 . S
C1057 C1056 1.400 . S
C1057 C1058 1.398 . S
C1058 H1046 0.950 . S
C1058 C1057 1.398 . S
C1058 C1059 1.391 . S
C1059 H1047 0.950 . S
C1059 C1055 1.393 . S
C1059 C1058 1.391 . S
H1060 C1068 0.950 . S
H1061 C1073 0.950 . S
H1062 C1070 0.950 1_655 S
H1063 C1072 0.950 . S
H1064 C1074 0.950 . S
H1065 C1076 0.950 . S
H1066 C1078 0.950 1_655 S
H1067 C1079 0.950 1_655 S
C1068 H1060 0.950 . S
C1068 C1069 1.386 . S
C1068 C1070 1.391 . S
C1069 C1068 1.386 . S
C1069 C1073 1.393 . S
C1070 H1062 0.950 1_455 S
C1070 C1068 1.391 . S
C1070 C1071 1.400 . S
C1071 C1070 1.400 . S
C1071 C1072 1.398 . S
C1071 C1077 1.491 . S
C1072 H1063 0.950 . S
C1072 C1071 1.398 . S
C1072 C1073 1.391 . S
C1073 H1061 0.950 . S
C1073 C1069 1.393 . S
C1073 C1072 1.391 . S
C1074 H1064 0.950 . S
C1074 C1075 1.386 . S
C1074 C1076 1.391 . S
C1075 C1074 1.386 . S
C1075 C1079 1.393 . S
C1076 H1065 0.950 . S
C1076 C1074 1.391 . S
C1076 C1077 1.400 . S
C1077 C1071 1.491 . S
C1077 C1076 1.400 . S
C1077 C1078 1.398 . S
C1078 H1066 0.950 1_455 S
C1078 C1077 1.398 . S
C1078 C1079 1.391 . S
C1079 H1067 0.950 1_455 S
C1079 C1075 1.393 . S
C1079 C1078 1.391 . S
H1080 C1088 0.950 . S
H1081 C1093 0.950 . S
H1082 C1090 0.950 . S
H1083 C1092 0.950 . S
H1084 C1094 0.950 . S
H1085 C1096 0.950 . S
H1086 C1098 0.950 . S
H1087 C1099 0.950 . S
C1088 H1080 0.950 . S
C1088 C1089 1.386 . S
C1088 C1090 1.391 . S
C1089 C1088 1.386 . S
C1089 C1093 1.393 . S
C1090 H1082 0.950 . S
C1090 C1088 1.391 . S
C1090 C1091 1.400 . S
C1091 C1090 1.400 . S
C1091 C1092 1.398 . S
C1091 C1097 1.491 . S
C1092 H1083 0.950 . S
C1092 C1091 1.398 . S
C1092 C1093 1.391 . S
C1093 H1081 0.950 . S
C1093 C1089 1.393 . S
C1093 C1092 1.391 . S
C1094 H1084 0.950 . S
C1094 C1095 1.386 . S
C1094 C1096 1.391 . S
C1095 C1094 1.386 . S
C1095 C1099 1.393 . S
C1096 H1085 0.950 . S
C1096 C1094 1.391 . S
C1096 C1097 1.400 . S
C1097 C1091 1.491 . S
C1097 C1096 1.400 . S
C1097 C1098 1.398 . S
C1098 H1086 0.950 . S
C1098 C1097 1.398 . S
C1098 C1099 1.391 . S
C1099 H1087 0.950 . S
C1099 C1095 1.393 . S
C1099 C1098 1.391 . S
H1100 C1108 0.950 1_556 S
H1101 C1113 0.950 . S
H1102 C1110 0.950 . S
H1103 C1112 0.950 . S
H1104 C1114 0.950 . S
H1105 C1116 0.950 . S
H1106 C1118 0.950 . S
H1107 C1119 0.950 . S
C1108 H1100 0.950 1_554 S
C1108 C1109 1.386 . S
C1108 C1110 1.391 . S
C1109 C1108 1.386 . S
C1109 C1113 1.393 . S
C1110 H1102 0.950 . S
C1110 C1108 1.391 . S
C1110 C1111 1.400 . S
C1111 C1110 1.400 . S
C1111 C1112 1.398 . S
C1111 C1117 1.491 . S
C1112 H1103 0.950 . S
C1112 C1111 1.398 . S
C1112 C1113 1.391 . S
C1113 H1101 0.950 . S
C1113 C1109 1.393 . S
C1113 C1112 1.391 . S
C1114 H1104 0.950 . S
C1114 C1115 1.386 . S
C1114 C1116 1.391 . S
C1115 C1114 1.386 . S
C1115 C1119 1.393 . S
C1116 H1105 0.950 . S
C1116 C1114 1.391 . S
C1116 C1117 1.400 . S
C1117 C1111 1.491 . S
C1117 C1116 1.400 . S
C1117 C1118 1.398 . S
C1118 H1106 0.950 . S
C1118 C1117 1.398 . S
C1118 C1119 1.391 . S
C1119 H1107 0.950 . S
C1119 C1115 1.393 . S
C1119 C1118 1.391 . S
H1120 C1128 0.950 . S
H1121 C1133 0.950 . S
H1122 C1130 0.950 . S
H1123 C1132 0.950 . S
H1124 C1134 0.950 . S
H1125 C1136 0.950 . S
H1126 C1138 0.950 . S
H1127 C1139 0.950 . S
C1128 H1120 0.950 . S
C1128 C1129 1.386 . S
C1128 C1130 1.391 . S
C1129 C1128 1.386 . S
C1129 C1133 1.393 . S
C1130 H1122 0.950 . S
C1130 C1128 1.391 . S
C1130 C1131 1.400 . S
C1131 C1130 1.400 . S
C1131 C1132 1.398 . S
C1131 C1137 1.491 . S
C1132 H1123 0.950 . S
C1132 C1131 1.398 . S
C1132 C1133 1.391 . S
C1133 H1121 0.950 . S
C1133 C1129 1.393 . S
C1133 C1132 1.391 . S
C1134 H1124 0.950 . S
C1134 C1135 1.386 . S
C1134 C1136 1.391 . S
C1135 C1134 1.386 . S
C1135 C1139 1.393 . S
C1136 H1125 0.950 . S
C1136 C1134 1.391 . S
C1136 C1137 1.400 . S
C1137 C1131 1.491 . S
C1137 C1136 1.400 . S
C1137 C1138 1.398 . S
C1138 H1126 0.950 . S
C1138 C1137 1.398 . S
C1138 C1139 1.391 . S
C1139 H1127 0.950 . S
C1139 C1135 1.393 . S
C1139 C1138 1.391 . S
H1140 C1148 0.950 . S
H1141 C1153 0.950 1_556 S
H1142 C1150 0.950 . S
H1143 C1152 0.950 . S
H1144 C1154 0.950 . S
H1145 C1156 0.950 . S
H1146 C1158 0.950 . S
H1147 C1159 0.950 . S
C1148 H1140 0.950 . S
C1148 C1149 1.386 . S
C1148 C1150 1.391 . S
C1149 C1148 1.386 . S
C1149 C1153 1.393 . S
C1150 H1142 0.950 . S
C1150 C1148 1.391 . S
C1150 C1151 1.400 . S
C1151 C1150 1.400 . S
C1151 C1152 1.398 . S
C1151 C1157 1.491 . S
C1152 H1143 0.950 . S
C1152 C1151 1.398 . S
C1152 C1153 1.391 . S
C1153 H1141 0.950 1_554 S
C1153 C1149 1.393 . S
C1153 C1152 1.391 . S
C1154 H1144 0.950 . S
C1154 C1155 1.386 . S
C1154 C1156 1.391 . S
C1155 C1154 1.386 . S
C1155 C1159 1.393 . S
C1156 H1145 0.950 . S
C1156 C1154 1.391 . S
C1156 C1157 1.400 . S
C1157 C1151 1.491 . S
C1157 C1156 1.400 . S
C1157 C1158 1.398 . S
C1158 H1146 0.950 . S
C1158 C1157 1.398 . S
C1158 C1159 1.391 . S
C1159 H1147 0.950 . S
C1159 C1155 1.393 . S
C1159 C1158 1.391 . S
H1160 C1168 0.950 . S
H1161 C1173 0.950 . S
H1162 C1170 0.950 . S
H1163 C1172 0.950 . S
H1164 C1174 0.950 . S
H1165 C1176 0.950 . S
H1166 C1178 0.950 . S
H1167 C1179 0.950 . S
C1168 H1160 0.950 . S
C1168 C1169 1.386 . S
C1168 C1170 1.391 . S
C1169 C1168 1.386 . S
C1169 C1173 1.393 . S
C1170 H1162 0.950 . S
C1170 C1168 1.391 . S
C1170 C1171 1.400 . S
C1171 C1170 1.400 . S
C1171 C1172 1.398 . S
C1171 C1177 1.491 . S
C1172 H1163 0.950 . S
C1172 C1171 1.398 . S
C1172 C1173 1.391 . S
C1173 H1161 0.950 . S
C1173 C1169 1.393 . S
C1173 C1172 1.391 . S
C1174 H1164 0.950 . S
C1174 C1175 1.386 . S
C1174 C1176 1.391 . S
C1175 C1174 1.386 . S
C1175 C1179 1.393 . S
C1176 H1165 0.950 . S
C1176 C1174 1.391 . S
C1176 C1177 1.400 . S
C1177 C1171 1.491 . S
C1177 C1176 1.400 . S
C1177 C1178 1.398 . S
C1178 H1166 0.950 . S
C1178 C1177 1.398 . S
C1178 C1179 1.391 . S
C1179 H1167 0.950 . S
C1179 C1175 1.393 . S
C1179 C1178 1.391 . S
H1180 C1188 0.950 . S
H1181 C1193 0.950 . S
H1182 C1190 0.950 . S
H1183 C1192 0.950 . S
H1184 C1194 0.950 . S
H1185 C1196 0.950 . S
H1186 C1198 0.950 . S
H1187 C1199 0.950 . S
C1188 H1180 0.950 . S
C1188 C1189 1.386 . S
C1188 C1190 1.391 . S
C1189 C1188 1.386 . S
C1189 C1193 1.393 . S
C1190 H1182 0.950 . S
C1190 C1188 1.391 . S
C1190 C1191 1.400 . S
C1191 C1190 1.400 . S
C1191 C1192 1.398 . S
C1191 C1197 1.491 . S
C1192 H1183 0.950 . S
C1192 C1191 1.398 . S
C1192 C1193 1.391 . S
C1193 H1181 0.950 . S
C1193 C1189 1.393 . S
C1193 C1192 1.391 . S
C1194 H1184 0.950 . S
C1194 C1195 1.386 . S
C1194 C1196 1.391 . S
C1195 C1194 1.386 . S
C1195 C1199 1.393 . S
C1196 H1185 0.950 . S
C1196 C1194 1.391 . S
C1196 C1197 1.400 . S
C1197 C1191 1.491 . S
C1197 C1196 1.400 . S
C1197 C1198 1.398 . S
C1198 H1186 0.950 . S
C1198 C1197 1.398 . S
C1198 C1199 1.391 . S
C1199 H1187 0.950 . S
C1199 C1195 1.393 . S
C1199 C1198 1.391 . S
H1200 C1208 0.950 . S
H1201 C1213 0.950 . S
H1202 C1210 0.950 . S
H1203 C1212 0.950 . S
H1204 C1214 0.950 . S
H1205 C1216 0.950 . S
H1206 C1218 0.950 . S
H1207 C1219 0.950 . S
C1208 H1200 0.950 . S
C1208 C1209 1.386 . S
C1208 C1210 1.391 . S
C1209 C1208 1.386 . S
C1209 C1213 1.393 . S
C1210 H1202 0.950 . S
C1210 C1208 1.391 . S
C1210 C1211 1.400 . S
C1211 C1210 1.400 . S
C1211 C1212 1.398 . S
C1211 C1217 1.491 . S
C1212 H1203 0.950 . S
C1212 C1211 1.398 . S
C1212 C1213 1.391 . S
C1213 H1201 0.950 . S
C1213 C1209 1.393 . S
C1213 C1212 1.391 . S
C1214 H1204 0.950 . S
C1214 C1215 1.386 . S
C1214 C1216 1.391 . S
C1215 C1214 1.386 . S
C1215 C1219 1.393 . S
C1216 H1205 0.950 . S
C1216 C1214 1.391 . S
C1216 C1217 1.400 . S
C1217 C1211 1.491 . S
C1217 C1216 1.400 . S
C1217 C1218 1.398 . S
C1218 H1206 0.950 . S
C1218 C1217 1.398 . S
C1218 C1219 1.391 . S
C1219 H1207 0.950 . S
C1219 C1215 1.393 . S
C1219 C1218 1.391 . S
H1220 C1228 0.950 . S
H1221 C1233 0.950 . S
H1222 C1230 0.950 . S
H1223 C1232 0.950 . S
H1224 C1234 0.950 . S
H1225 C1236 0.950 . S
H1226 C1238 0.950 . S
H1227 C1239 0.950 . S
C1228 H1220 0.950 . S
C1228 C1229 1.386 . S
C1228 C1230 1.391 . S
C1229 C1228 1.386 . S
C1229 C1233 1.393 . S
C1230 H1222 0.950 . S
C1230 C1228 1.391 . S
C1230 C1231 1.400 . S
C1231 C1230 1.400 . S
C1231 C1232 1.398 . S
C1231 C1237 1.491 . S
C1232 H1223 0.950 . S
C1232 C1231 1.398 . S
C1232 C1233 1.391 . S
C1233 H1221 0.950 . S
C1233 C1229 1.393 . S
C1233 C1232 1.391 . S
C1234 H1224 0.950 . S
C1234 C1235 1.386 . S
C1234 C1236 1.391 . S
C1235 C1234 1.386 . S
C1235 C1239 1.393 . S
C1236 H1225 0.950 . S
C1236 C1234 1.391 . S
C1236 C1237 1.400 . S
C1237 C1231 1.491 . S
C1237 C1236 1.400 . S
C1237 C1238 1.398 . S
C1238 H1226 0.950 . S
C1238 C1237 1.398 . S
C1238 C1239 1.391 . S
C1239 H1227 0.950 . S
C1239 C1235 1.393 . S
C1239 C1238 1.391 . S
H1240 C1248 0.950 . S
H1241 C1253 0.950 . S
H1242 C1250 0.950 1_554 S
H1243 C1252 0.950 . S
H1244 C1254 0.950 . S
H1245 C1256 0.950 . S
H1246 C1258 0.974 . S
H1247 C1259 0.950 . S
C1248 H1240 0.950 . S
C1248 C1249 1.386 . S
C1248 C1250 1.391 . S
C1249 C1248 1.386 . S
C1249 C1253 1.393 . S
C1250 H1242 0.950 1_556 S
C1250 C1248 1.391 . S
C1250 C1251 1.400 . S
C1251 C1250 1.400 . S
C1251 C1252 1.398 . S
C1251 C1257 1.491 . S
C1252 H1243 0.950 . S
C1252 C1251 1.398 . S
C1252 C1253 1.391 . S
C1253 H1241 0.950 . S
C1253 C1249 1.393 . S
C1253 C1252 1.391 . S
C1254 H1244 0.950 . S
C1254 C1255 1.386 . S
C1254 C1256 1.391 . S
C1255 C1254 1.386 . S
C1255 C1259 1.393 1_556 S
C1256 H1245 0.950 . S
C1256 C1254 1.391 . S
C1256 C1257 1.400 . S
C1257 C1251 1.491 . S
C1257 C1256 1.400 . S
C1257 C1258 1.375 1_556 S
C1258 H1246 0.974 . S
C1258 C1257 1.375 1_554 S
C1258 C1259 1.393 . S
C1259 H1247 0.950 . S
C1259 C1255 1.393 1_554 S
C1259 C1258 1.393 . S
H1260 C1268 0.950 . S
H1261 C1273 0.950 . S
H1262 C1270 0.950 . S
H1263 C1272 0.950 . S
H1264 C1274 0.950 . S
H1265 C1276 0.950 . S
H1266 C1278 0.950 . S
H1267 C1279 0.950 . S
C1268 H1260 0.950 . S
C1268 C1269 1.386 . S
C1268 C1270 1.391 . S
C1269 C1268 1.386 . S
C1269 C1273 1.393 . S
C1270 H1262 0.950 . S
C1270 C1268 1.391 . S
C1270 C1271 1.400 . S
C1271 C1270 1.400 . S
C1271 C1272 1.398 . S
C1271 C1277 1.491 . S
C1272 H1263 0.950 . S
C1272 C1271 1.398 . S
C1272 C1273 1.391 . S
C1273 H1261 0.950 . S
C1273 C1269 1.393 . S
C1273 C1272 1.391 . S
C1274 H1264 0.950 . S
C1274 C1275 1.386 . S
C1274 C1276 1.391 . S
C1275 C1274 1.386 . S
C1275 C1279 1.393 . S
C1276 H1265 0.950 . S
C1276 C1274 1.391 . S
C1276 C1277 1.400 . S
C1277 C1271 1.491 . S
C1277 C1276 1.400 . S
C1277 C1278 1.398 . S
C1278 H1266 0.950 . S
C1278 C1277 1.398 . S
C1278 C1279 1.391 . S
C1279 H1267 0.950 . S
C1279 C1275 1.393 . S
C1279 C1278 1.391 . S
H1280 C1288 0.950 . S
H1281 C1293 0.950 . S
H1282 C1290 0.950 . S
H1283 C1292 0.950 . S
H1284 C1294 0.950 . S
H1285 C1296 0.950 . S
H1286 C1298 0.950 . S
H1287 C1299 0.950 . S
C1288 H1280 0.950 . S
C1288 C1289 1.386 . S
C1288 C1290 1.391 . S
C1289 C1288 1.386 . S
C1289 C1293 1.393 . S
C1290 H1282 0.950 . S
C1290 C1288 1.391 . S
C1290 C1291 1.400 . S
C1291 C1290 1.400 . S
C1291 C1292 1.398 . S
C1291 C1297 1.491 . S
C1292 H1283 0.950 . S
C1292 C1291 1.398 . S
C1292 C1293 1.391 . S
C1293 H1281 0.950 . S
C1293 C1289 1.393 . S
C1293 C1292 1.391 . S
C1294 H1284 0.950 . S
C1294 C1295 1.386 . S
C1294 C1296 1.391 . S
C1295 C1294 1.386 . S
C1295 C1299 1.393 . S
C1296 H1285 0.950 . S
C1296 C1294 1.391 . S
C1296 C1297 1.400 . S
C1297 C1291 1.491 . S
C1297 C1296 1.400 . S
C1297 C1298 1.398 . S
C1298 H1286 0.950 . S
C1298 C1297 1.398 . S
C1298 C1299 1.391 . S
C1299 H1287 0.950 . S
C1299 C1295 1.393 . S
C1299 C1298 1.391 . S
H1300 C1308 0.950 1_556 S
H1301 C1313 0.950 . S
H1302 C1310 0.950 1_556 S
H1303 C1312 0.950 . S
H1304 C1314 0.950 . S
H1305 C1316 0.950 . S
H1306 C1318 0.931 1_556 S
H1307 C1319 0.950 . S
C1308 H1300 0.950 1_554 S
C1308 C1309 1.386 1_565 S
C1308 C1310 1.391 . S
C1309 C1308 1.386 1_545 S
C1309 C1313 1.393 . S
C1310 H1302 0.950 1_554 S
C1310 C1308 1.391 . S
C1310 C1311 1.400 . S
C1311 C1310 1.400 . S
C1311 C1312 1.398 . S
C1311 C1317 1.491 . S
C1312 H1303 0.950 . S
C1312 C1311 1.398 . S
C1312 C1313 1.391 1_565 S
C1313 H1301 0.950 . S
C1313 C1309 1.393 . S
C1313 C1312 1.391 1_545 S
C1314 H1304 0.950 . S
C1314 C1315 1.386 . S
C1314 C1316 1.391 . S
C1315 C1314 1.386 . S
C1315 C1319 1.393 1_554 S
C1316 H1305 0.950 . S
C1316 C1314 1.391 . S
C1316 C1317 1.400 . S
C1317 C1311 1.491 . S
C1317 C1316 1.400 . S
C1317 C1318 1.422 . S
C1318 H1306 0.931 1_554 S
C1318 C1317 1.422 . S
C1318 C1319 1.387 1_554 S
C1319 H1307 0.950 . S
C1319 C1315 1.393 1_556 S
C1319 C1318 1.387 1_556 S
C375 C203 1.671 . S
C369 C66 1.711 . S
C395 C211 0.972 . S
C389 C76 1.198 . S
C409 C93 1.774 . S
C415 C231 1.752 . S
C435 C245 1.470 . S
C429 C54 1.494 . S
C455 C260 1.500 . S
C449 C126 1.500 . S
C475 C274 1.840 . S
C469 C150 1.845 . S
C489 C136 1.241 . S
C495 C288 1.248 . S
C515 C294 1.685 . S
C509 C117 1.763 . S
C529 C141 1.316 . S
C535 C308 1.279 . S
C555 C329 1.360 . S
C549 C112 1.379 . S
C569 C124 1.478 . S
C575 C309 1.258 . S
C595 C330 1.297 . S
C589 C148 1.299 . S
C609 C88 1.279 . S
C615 C337 1.117 . S
C629 C52 1.595 . S
C635 C343 1.558 . S
C649 C64 1.275 . S
C655 C336 1.235 . S
C669 C78 1.177 . S
C675 C344 1.184 . S
C689 C45 1.707 . S
C695 C238 1.673 . S
C709 C177 1.874 . S
C715 C239 1.653 . S
C735 C196 1.396 . S
C729 C189 1.426 1_565 S
C755 C217 1.547 . S
C749 C102 1.565 . S
C769 C57 1.725 . S
C775 C252 1.699 . S
C795 C302 1.467 . S
C789 C138 1.468 . S
C815 C253 1.526 . S
C809 C114 1.732 . S
C835 C281 1.431 . S
C829 C153 1.757 . S
C855 C287 1.684 . S
C849 C174 1.715 . S
C869 C184 1.206 . S
C875 C295 1.033 . S
C889 C105 1.778 . S
C895 C259 1.757 . S
C915 C273 1.475 . S
C909 C162 1.492 . S
C929 C42 1.500 . S
C935 C232 1.499 . S
C955 C246 1.839 . S
C949 C6 1.840 . S
C975 C204 1.249 . S
C969 C16 1.247 . S
C995 C210 1.703 . S
C989 C33 1.767 1_455 S
C1009 C21 1.317 . S
C1015 C322 1.300 . S
C1029 C28 1.370 1_556 S
C1035 C315 1.347 . S
C1049 C40 1.485 . S
C1055 C323 1.229 . S
C1069 C4 1.296 . S
C1075 C316 1.300 . S
C1095 C351 1.142 . S
C1089 C100 1.284 . S
C1115 C357 1.576 . S
C1109 C160 1.571 1_554 S
C1135 C350 1.234 . S
C1129 C172 1.276 . S
C1149 C186 1.186 1_554 S
C1155 C358 1.187 . S
C1169 C129 1.705 . S
C1175 C266 1.689 . S
C1195 C267 1.664 . S
C1189 C69 1.869 . S
C1215 C280 1.396 . S
C1209 C81 1.426 . S
C1235 C301 1.547 . S
C1229 C90 1.566 . S
C1249 C165 1.726 . S
C1255 C224 1.702 . S
C1275 C218 1.470 . S
C1269 C18 1.466 . S
C1289 C30 1.731 . S
C1295 C225 1.532 . S
C1315 C197 1.417 . S
C1309 C9 1.755 . S
