# Generated by pormake.
# Topology pyr, (3,6)-cn, num edge types: 1
# Building blocks:
#     Node 0, Type 0, BuildingBlock: VETTIZ_charged_linker_0, # of connection points: 3
#     Node 1, Type 0, BuildingBlock: VETTIZ_charged_linker_0, # of connection points: 3
#     Node 2, Type 0, BuildingBlock: VETTIZ_charged_linker_0, # of connection points: 3
#     Node 3, Type 0, BuildingBlock: VETTIZ_charged_linker_0, # of connection points: 3
#     Node 4, Type 0, BuildingBlock: VETTIZ_charged_linker_0, # of connection points: 3
#     Node 5, Type 0, BuildingBlock: VETTIZ_charged_linker_0, # of connection points: 3
#     Node 6, Type 0, BuildingBlock: VETTIZ_charged_linker_0, # of connection points: 3
#     Node 7, Type 0, BuildingBlock: VETTIZ_charged_linker_0, # of connection points: 3
#     Node 8, Type 1, BuildingBlock: MIFKUJ_clean_sbu_0, # of connection points: 6
#     Node 9, Type 1, BuildingBlock: MIFKUJ_clean_sbu_0, # of connection points: 6
#     Node 10, Type 1, BuildingBlock: MIFKUJ_clean_sbu_0, # of connection points: 6
#     Node 11, Type 1, BuildingBlock: MIFKUJ_clean_sbu_0, # of connection points: 6
#     Edge 12, Type (0, 1), BuildingBlock: KIFKEQ_clean_linker_1, # of connection points: 2
#     Edge 13, Type (0, 1), BuildingBlock: KIFKEQ_clean_linker_1, # of connection points: 2
#     Edge 14, Type (0, 1), BuildingBlock: KIFKEQ_clean_linker_1, # of connection points: 2
#     Edge 15, Type (0, 1), BuildingBlock: KIFKEQ_clean_linker_1, # of connection points: 2
#     Edge 16, Type (0, 1), BuildingBlock: KIFKEQ_clean_linker_1, # of connection points: 2
#     Edge 17, Type (0, 1), BuildingBlock: KIFKEQ_clean_linker_1, # of connection points: 2
#     Edge 18, Type (0, 1), BuildingBlock: KIFKEQ_clean_linker_1, # of connection points: 2
#     Edge 19, Type (0, 1), BuildingBlock: KIFKEQ_clean_linker_1, # of connection points: 2
#     Edge 20, Type (0, 1), BuildingBlock: KIFKEQ_clean_linker_1, # of connection points: 2
#     Edge 21, Type (0, 1), BuildingBlock: KIFKEQ_clean_linker_1, # of connection points: 2
#     Edge 22, Type (0, 1), BuildingBlock: KIFKEQ_clean_linker_1, # of connection points: 2
#     Edge 23, Type (0, 1), BuildingBlock: KIFKEQ_clean_linker_1, # of connection points: 2
#     Edge 24, Type (0, 1), BuildingBlock: KIFKEQ_clean_linker_1, # of connection points: 2
#     Edge 25, Type (0, 1), BuildingBlock: KIFKEQ_clean_linker_1, # of connection points: 2
#     Edge 26, Type (0, 1), BuildingBlock: KIFKEQ_clean_linker_1, # of connection points: 2
#     Edge 27, Type (0, 1), BuildingBlock: KIFKEQ_clean_linker_1, # of connection points: 2
#     Edge 28, Type (0, 1), BuildingBlock: KIFKEQ_clean_linker_1, # of connection points: 2
#     Edge 29, Type (0, 1), BuildingBlock: KIFKEQ_clean_linker_1, # of connection points: 2
#     Edge 30, Type (0, 1), BuildingBlock: KIFKEQ_clean_linker_1, # of connection points: 2
#     Edge 31, Type (0, 1), BuildingBlock: KIFKEQ_clean_linker_1, # of connection points: 2
#     Edge 32, Type (0, 1), BuildingBlock: KIFKEQ_clean_linker_1, # of connection points: 2
#     Edge 33, Type (0, 1), BuildingBlock: KIFKEQ_clean_linker_1, # of connection points: 2
#     Edge 34, Type (0, 1), BuildingBlock: KIFKEQ_clean_linker_1, # of connection points: 2
#     Edge 35, Type (0, 1), BuildingBlock: KIFKEQ_clean_linker_1, # of connection points: 2
# Relax obj value: 0.027
# Max RMSD: 0.079
# Mean RMSD: 0.047
data_MOF--net-pyr--node1-MIFKUJ_clean_sbu_0--node2-VETTIZ_charged_linker_0--edge1-KIFKEQ_clean_linker_1
_symmetry_space_group_name_H-M    P1
_symmetry_Int_Tables_number       1
_symmetry_cell_setting            triclinic
loop_
_symmetry_equiv_pos_as_xyz
'x, y, z'
_cell_length_a     48.670134
_cell_length_b     43.653524
_cell_length_c     47.1997
_cell_angle_alpha  86.361364
_cell_angle_beta   88.307277
_cell_angle_gamma 95.542066
loop_
_atom_site_label
_atom_site_type_symbol
_atom_site_fract_x
_atom_site_fract_y
_atom_site_fract_z
_atom_type_partial_charge
C0 C 0.17848 0.13289 0.30763 0.0
C1 C 0.15563 0.14368 0.32147 0.0
C2 C 0.14297 0.16828 0.30817 0.0
C3 C 0.17406 0.16896 0.26711 0.0
C4 C 0.1872 0.14569 0.28051 0.0
C5 C 0.20989 0.1355 0.26202 0.0
H6 H 0.27791 0.1454 0.13396 0.0
C7 C 0.18642 0.17526 0.23817 0.0
C8 C 0.20742 0.15569 0.23499 0.0
H9 H 0.29434 0.08953 0.20938 0.0
H10 H 0.25684 0.10938 0.23486 0.0
H11 H 0.26833 0.2074 0.16706 0.0
H12 H 0.21463 0.13294 0.13769 0.0
H13 H 0.1962 0.16551 0.13439 0.0
H14 H 0.22826 0.16504 0.11418 0.0
H15 H 0.2634 0.20119 0.13024 0.0
H16 H 0.24095 0.22334 0.14977 0.0
C17 C 0.23773 0.14326 0.27631 0.0
C18 C 0.20301 0.10083 0.25736 0.0
C19 C 0.14887 0.25485 0.17023 0.0
C20 C 0.15449 0.26367 0.14125 0.0
C21 C 0.174 0.2484 0.12618 0.0
C22 C 0.18824 0.22568 0.13981 0.0
C23 C 0.1828 0.21769 0.16883 0.0
C24 C 0.16301 0.23172 0.18343 0.0
C25 C 0.15868 0.21868 0.21369 0.0
C26 C 0.1798 0.19522 0.21499 0.0
C27 C 0.19403 0.19506 0.18875 0.0
C28 C 0.16583 0.24501 0.23352 0.0
C29 C 0.1286 0.20321 0.21757 0.0
C30 C 0.27365 0.13766 0.15606 0.0
C31 C 0.28918 0.11595 0.16969 0.0
C32 C 0.28253 0.10604 0.19831 0.0
C33 C 0.26086 0.11774 0.21312 0.0
C34 C 0.24559 0.13953 0.19917 0.0
C35 C 0.25216 0.14914 0.17112 0.0
C36 C 0.23393 0.17251 0.15965 0.0
C37 C 0.21553 0.17569 0.18557 0.0
C38 C 0.22233 0.15625 0.20861 0.0
C39 C 0.25244 0.20275 0.151 0.0
C40 C 0.21746 0.15857 0.13507 0.0
H41 H 0.14127 0.19925 0.27204 0.0
H42 H 0.18893 0.11432 0.31735 0.0
H43 H 0.18051 0.09551 0.2543 0.0
H44 H 0.21326 0.09357 0.23809 0.0
H45 H 0.20864 0.08615 0.27597 0.0
H46 H 0.23747 0.16469 0.28786 0.0
H47 H 0.24209 0.12438 0.29193 0.0
H48 H 0.25532 0.14807 0.26083 0.0
H49 H 0.13408 0.26594 0.18261 0.0
H50 H 0.17825 0.25386 0.10369 0.0
H51 H 0.20294 0.21522 0.12716 0.0
H52 H 0.18465 0.25979 0.22532 0.0
H53 H 0.1487 0.25998 0.23498 0.0
H54 H 0.17066 0.23654 0.25516 0.0
H55 H 0.12057 0.19525 0.19717 0.0
H56 H 0.12687 0.18211 0.23201 0.0
H57 H 0.11443 0.21949 0.22549 0.0
H58 H 0.12513 0.17686 0.31805 0.0
C59 C 0.15213 0.18102 0.28119 0.0
C60 C 0.25479 0.8812 0.63543 0.0
C61 C 0.24016 0.90322 0.64833 0.0
C62 C 0.24902 0.91373 0.67455 0.0
C63 C 0.28593 0.88018 0.67472 0.0
C64 C 0.27739 0.86997 0.64898 0.0
C65 C 0.29473 0.846 0.63844 0.0
H66 H 0.39515 0.75124 0.66244 0.0
C67 C 0.30946 0.86321 0.68356 0.0
C68 C 0.31459 0.84297 0.66245 0.0
H69 H 0.34729 0.76104 0.58735 0.0
H70 H 0.32391 0.80123 0.60798 0.0
H71 H 0.40808 0.82412 0.66757 0.0
H72 H 0.34702 0.75653 0.70833 0.0
H73 H 0.35825 0.7814 0.73437 0.0
H74 H 0.38265 0.7591 0.71749 0.0
H75 H 0.41639 0.79621 0.69472 0.0
H76 H 0.40524 0.83286 0.70323 0.0
C77 C 0.3098 0.85911 0.61023 0.0
C78 C 0.27564 0.81587 0.6359 0.0
C79 C 0.3569 0.88534 0.77597 0.0
C80 C 0.37793 0.87157 0.79035 0.0
C81 C 0.38923 0.84632 0.7789 0.0
C82 C 0.38017 0.83527 0.75325 0.0
C83 C 0.35942 0.84945 0.73885 0.0
C84 C 0.34777 0.8737 0.75045 0.0
C85 C 0.32486 0.88464 0.73283 0.0
C86 C 0.32558 0.86384 0.7082 0.0
C87 C 0.346 0.84347 0.71181 0.0
C88 C 0.33273 0.91893 0.72296 0.0
C89 C 0.29744 0.8785 0.75078 0.0
C90 C 0.37952 0.76199 0.65056 0.0
C91 C 0.37282 0.7529 0.6234 0.0
C92 C 0.35278 0.76779 0.6083 0.0
C93 C 0.33918 0.791 0.62037 0.0
C94 C 0.34585 0.79961 0.64774 0.0
C95 C 0.36607 0.78552 0.66212 0.0
C96 C 0.3716 0.79879 0.69025 0.0
C97 C 0.35104 0.8228 0.69063 0.0
C98 C 0.33576 0.82292 0.66587 0.0
C99 C 0.40191 0.81364 0.68921 0.0
C100 C 0.36478 0.77273 0.714 0.0
H101 H 0.27739 0.91129 0.70766 0.0
H102 H 0.24889 0.87291 0.61512 0.0
H103 H 0.261 0.8115 0.6546 0.0
H104 H 0.28695 0.7952 0.63546 0.0
H105 H 0.26324 0.81739 0.61656 0.0
H106 H 0.31388 0.88467 0.60968 0.0
H107 H 0.29728 0.85338 0.59164 0.0
H108 H 0.33043 0.85088 0.60742 0.0
H109 H 0.34758 0.90448 0.78455 0.0
H110 H 0.40554 0.83548 0.78958 0.0
H111 H 0.3898 0.81617 0.74558 0.0
H112 H 0.35486 0.92278 0.7158 0.0
H113 H 0.32959 0.93411 0.74056 0.0
H114 H 0.32102 0.92671 0.70464 0.0
H115 H 0.29801 0.85859 0.76662 0.0
H116 H 0.2795 0.87201 0.73783 0.0
H117 H 0.29331 0.89885 0.76264 0.0
H118 H 0.23801 0.93033 0.68525 0.0
C119 C 0.27179 0.90242 0.68773 0.0
C120 C 0.61798 0.24547 0.85271 0.0
C121 C 0.5917 0.23314 0.84517 0.0
C122 C 0.57778 0.24895 0.82391 0.0
C123 C 0.61627 0.28885 0.81821 0.0
C124 C 0.62967 0.27333 0.83925 0.0
C125 C 0.65669 0.29037 0.84613 0.0
H126 H 0.74774 0.41743 0.82792 0.0
C127 C 0.63384 0.31761 0.80924 0.0
C128 C 0.65738 0.31874 0.82574 0.0
H129 H 0.75209 0.33577 0.88407 0.0
H130 H 0.70964 0.31306 0.86657 0.0
H131 H 0.68245 0.4224 0.83556 0.0
H132 H 0.72908 0.37828 0.77352 0.0
H133 H 0.70343 0.39678 0.75574 0.0
H134 H 0.72975 0.41946 0.77356 0.0
H135 H 0.70474 0.44388 0.80878 0.0
H136 H 0.66946 0.43081 0.80184 0.0
C137 C 0.65478 0.29851 0.8776 0.0
C138 C 0.6801 0.27006 0.83905 0.0
C139 C 0.60464 0.3887 0.72875 0.0
C140 C 0.61612 0.41727 0.71592 0.0
C141 C 0.64072 0.43126 0.7266 0.0
C142 C 0.65373 0.41693 0.7493 0.0
C143 C 0.64207 0.38828 0.76163 0.0
C144 C 0.61777 0.37482 0.75147 0.0
C145 C 0.60783 0.34477 0.76757 0.0
C146 C 0.63064 0.34189 0.78849 0.0
C147 C 0.6507 0.3674 0.78495 0.0
C148 C 0.57971 0.34846 0.78267 0.0
C149 C 0.60678 0.31892 0.74652 0.0
C150 C 0.73966 0.39457 0.83632 0.0
C151 C 0.75322 0.37871 0.8579 0.0
C152 C 0.74182 0.34898 0.86811 0.0
C153 C 0.71718 0.33564 0.85772 0.0
C154 C 0.70362 0.35199 0.83669 0.0
C155 C 0.71505 0.38073 0.82598 0.0
C156 C 0.69808 0.39402 0.80286 0.0
C157 C 0.67429 0.36881 0.80209 0.0
C158 C 0.67767 0.3444 0.8221 0.0
C159 C 0.68821 0.42451 0.81248 0.0
C160 C 0.71589 0.39762 0.77489 0.0
H161 H 0.57849 0.28757 0.79413 0.0
H162 H 0.62891 0.23411 0.86938 0.0
H163 H 0.67489 0.25608 0.82068 0.0
H164 H 0.69979 0.28376 0.83243 0.0
H165 H 0.68365 0.25381 0.85735 0.0
H166 H 0.63354 0.3038 0.88358 0.0
H167 H 0.65986 0.27901 0.89215 0.0
H168 H 0.66816 0.31943 0.88199 0.0
H169 H 0.58599 0.37697 0.72103 0.0
H170 H 0.64985 0.45347 0.71756 0.0
H171 H 0.67236 0.42877 0.75643 0.0
H172 H 0.57798 0.37284 0.78749 0.0
H173 H 0.56217 0.34129 0.76924 0.0
H174 H 0.57699 0.33538 0.80357 0.0
H175 H 0.62546 0.32179 0.73207 0.0
H176 H 0.60655 0.29565 0.75714 0.0
H177 H 0.58839 0.31951 0.73318 0.0
H178 H 0.55749 0.23977 0.8178 0.0
C179 C 0.59001 0.27665 0.81024 0.0
C180 C 0.88888 0.74218 0.32701 0.0
C181 C 0.8775 0.75684 0.34974 0.0
C182 C 0.85272 0.74334 0.36339 0.0
C183 C 0.8504 0.70201 0.3315 0.0
C184 C 0.87485 0.71489 0.31813 0.0
C185 C 0.88311 0.69657 0.29371 0.0
H186 H 0.85639 0.57212 0.21534 0.0
C187 C 0.84063 0.67415 0.31709 0.0
C188 C 0.85961 0.67072 0.29482 0.0
H189 H 0.92466 0.64332 0.20425 0.0
H190 H 0.90694 0.66905 0.24379 0.0
H191 H 0.85507 0.56572 0.28529 0.0
H192 H 0.81081 0.61788 0.22436 0.0
H193 H 0.78748 0.605 0.25265 0.0
H194 H 0.80248 0.57716 0.23178 0.0
H195 H 0.83036 0.5481 0.26224 0.0
H196 H 0.81979 0.5616 0.29574 0.0
C197 C 0.91115 0.68426 0.30033 0.0
C198 C 0.88352 0.71758 0.26596 0.0
C199 C 0.75129 0.61211 0.35277 0.0
C200 C 0.73592 0.58582 0.34361 0.0
C201 C 0.74621 0.5716 0.31995 0.0
C202 C 0.77121 0.58329 0.30584 0.0
C203 C 0.78619 0.60966 0.31525 0.0
C204 C 0.77603 0.62364 0.33828 0.0
C205 C 0.79414 0.65192 0.34494 0.0
C206 C 0.81693 0.65263 0.32218 0.0
C207 C 0.81233 0.62776 0.30493 0.0
C208 C 0.80507 0.64626 0.37517 0.0
C209 C 0.77709 0.68009 0.34115 0.0
C210 C 0.86764 0.59309 0.22164 0.0
C211 C 0.89205 0.6056 0.20676 0.0
C212 C 0.90575 0.6333 0.21527 0.0
C213 C 0.89548 0.64815 0.23831 0.0
C214 C 0.87107 0.63536 0.25298 0.0
C215 C 0.85747 0.60838 0.24441 0.0
C216 C 0.83127 0.59873 0.26176 0.0
C217 C 0.8316 0.62399 0.28247 0.0
C218 C 0.85506 0.64538 0.27735 0.0
C219 C 0.83398 0.56677 0.27703 0.0
C220 C 0.80661 0.59944 0.24176 0.0
H221 H 0.82044 0.70728 0.36584 0.0
H222 H 0.90785 0.75207 0.31605 0.0
H223 H 0.86687 0.73331 0.26671 0.0
H224 H 0.87946 0.7045 0.24701 0.0
H225 H 0.90353 0.73209 0.26261 0.0
H226 H 0.9116 0.6761 0.32311 0.0
H227 H 0.92847 0.70262 0.29593 0.0
H228 H 0.91516 0.66416 0.28836 0.0
H229 H 0.7444 0.62353 0.37102 0.0
H230 H 0.73473 0.55165 0.31199 0.0
H231 H 0.77783 0.57142 0.28801 0.0
H232 H 0.80906 0.62172 0.37929 0.0
H233 H 0.78986 0.65161 0.3917 0.0
H234 H 0.82509 0.65958 0.37831 0.0
H235 H 0.76143 0.6766 0.32465 0.0
H236 H 0.78982 0.70153 0.33351 0.0
H237 H 0.76589 0.68406 0.36123 0.0
H238 H 0.84378 0.75385 0.38122 0.0
C239 C 0.83921 0.71614 0.35447 0.0
C240 C 0.83512 0.73626 0.85686 0.0
C241 C 0.85851 0.72354 0.84625 0.0
C242 C 0.87013 0.73461 0.81942 0.0
C243 C 0.83614 0.77147 0.81488 0.0
C244 C 0.82436 0.76015 0.8409 0.0
C245 C 0.80025 0.77707 0.8495 0.0
H246 H 0.72139 0.89447 0.82328 0.0
C247 C 0.82092 0.79731 0.80443 0.0
C248 C 0.79983 0.80071 0.82453 0.0
H249 H 0.7147 0.82675 0.89473 0.0
H250 H 0.75225 0.80186 0.8748 0.0
H251 H 0.73131 0.84535 0.77437 0.0
H252 H 0.78575 0.90571 0.82106 0.0
H253 H 0.80006 0.90652 0.78646 0.0
H254 H 0.76654 0.92 0.79204 0.0
H255 H 0.73378 0.88663 0.76899 0.0
H256 H 0.75686 0.86421 0.75045 0.0
C257 C 0.77396 0.75388 0.85153 0.0
C258 C 0.80717 0.79241 0.8775 0.0
C259 C 0.8547 0.85941 0.71375 0.0
C260 C 0.84735 0.88695 0.70029 0.0
C261 C 0.82413 0.90013 0.71095 0.0
C262 C 0.80913 0.88666 0.73519 0.0
C263 C 0.81756 0.85985 0.74906 0.0
C264 C 0.83985 0.84658 0.7381 0.0
C265 C 0.84679 0.81904 0.75617 0.0
C266 C 0.82502 0.81794 0.77992 0.0
C267 C 0.80787 0.84176 0.77562 0.0
C268 C 0.84281 0.79038 0.73841 0.0
C269 C 0.87647 0.82608 0.76687 0.0
C270 C 0.7278 0.87404 0.83443 0.0
C271 C 0.71513 0.86259 0.86064 0.0
C272 C 0.72438 0.83624 0.8747 0.0
C273 C 0.7461 0.82174 0.86302 0.0
C274 C 0.75889 0.83379 0.83708 0.0
C275 C 0.74956 0.85937 0.82311 0.0
C276 C 0.76588 0.86922 0.79597 0.0
C277 C 0.7864 0.84517 0.79585 0.0
C278 C 0.78229 0.8246 0.82005 0.0
C279 C 0.74606 0.86649 0.77099 0.0
C280 C 0.78024 0.90213 0.79871 0.0
H281 H 0.86892 0.76589 0.78347 0.0
H282 H 0.82583 0.7284 0.87751 0.0
H283 H 0.82942 0.80114 0.87751 0.0
H284 H 0.79599 0.81282 0.88061 0.0
H285 H 0.80279 0.77568 0.89619 0.0
H286 H 0.77496 0.73648 0.83538 0.0
H287 H 0.77151 0.74123 0.87276 0.0
H288 H 0.75495 0.76496 0.84699 0.0
H289 H 0.8721 0.8483 0.70591 0.0
H290 H 0.81808 0.92144 0.70115 0.0
H291 H 0.79197 0.89804 0.74256 0.0
H292 H 0.8247 0.79166 0.72467 0.0
H293 H 0.86123 0.78869 0.72436 0.0
H294 H 0.83831 0.76858 0.75165 0.0
H295 H 0.88137 0.85119 0.76933 0.0
H296 H 0.87932 0.81513 0.78818 0.0
H297 H 0.89217 0.81891 0.75175 0.0
H298 H 0.88787 0.72482 0.8106 0.0
C299 C 0.85902 0.75838 0.80365 0.0
C300 C 0.74718 0.12713 0.36566 0.0
C301 C 0.76241 0.10672 0.35119 0.0
C302 C 0.75383 0.09809 0.32426 0.0
C303 C 0.71525 0.12908 0.32711 0.0
C304 C 0.72388 0.13805 0.35324 0.0
C305 C 0.70565 0.16017 0.36559 0.0
H306 H 0.59418 0.24129 0.35395 0.0
C307 C 0.69007 0.14413 0.32039 0.0
C308 C 0.68438 0.16248 0.34283 0.0
H309 H 0.65335 0.24206 0.42059 0.0
H310 H 0.67763 0.20443 0.3975 0.0
H311 H 0.58793 0.16926 0.34866 0.0
H312 H 0.63932 0.24236 0.30217 0.0
H313 H 0.6253 0.21726 0.27747 0.0
H314 H 0.60251 0.23684 0.29924 0.0
H315 H 0.57455 0.19367 0.32146 0.0
H316 H 0.58976 0.15897 0.31337 0.0
C317 C 0.69255 0.14514 0.39405 0.0
C318 C 0.72333 0.1913 0.36822 0.0
C319 C 0.64036 0.12233 0.22933 0.0
C320 C 0.61584 0.13183 0.21802 0.0
C321 C 0.60073 0.15169 0.23343 0.0
C322 C 0.6099 0.16212 0.2593 0.0
C323 C 0.63443 0.15254 0.2702 0.0
C324 C 0.64912 0.1328 0.25538 0.0
C325 C 0.67429 0.12435 0.27071 0.0
C326 C 0.6723 0.14239 0.29707 0.0
C327 C 0.64901 0.159 0.29653 0.0
C328 C 0.6709 0.08904 0.27803 0.0
C329 C 0.70018 0.13609 0.25175 0.0
C330 C 0.61248 0.23355 0.36349 0.0
C331 C 0.62179 0.2448 0.38917 0.0
C332 C 0.64545 0.23357 0.40104 0.0
C333 C 0.65971 0.21188 0.38745 0.0
C334 C 0.65035 0.20124 0.36161 0.0
C335 C 0.62703 0.212 0.35013 0.0
C336 C 0.62013 0.19828 0.32247 0.0
C337 C 0.64341 0.17788 0.31902 0.0
C338 C 0.66101 0.17964 0.34203 0.0
C339 C 0.59155 0.17918 0.3264 0.0
C340 C 0.62165 0.2249 0.29897 0.0
H341 H 0.72502 0.10157 0.29173 0.0
H342 H 0.75299 0.13419 0.38641 0.0
H343 H 0.73953 0.19551 0.3509 0.0
H344 H 0.71119 0.21137 0.36599 0.0
H345 H 0.73391 0.19159 0.38875 0.0
H346 H 0.6867 0.12006 0.39237 0.0
H347 H 0.70726 0.14763 0.41149 0.0
H348 H 0.67323 0.15463 0.40029 0.0
H349 H 0.65264 0.10726 0.2181 0.0
H350 H 0.58147 0.15889 0.22572 0.0
H351 H 0.5974 0.17715 0.26988 0.0
H352 H 0.64897 0.08079 0.28376 0.0
H353 H 0.6773 0.07636 0.25965 0.0
H354 H 0.68248 0.082 0.2967 0.0
H355 H 0.69717 0.15824 0.23978 0.0
H356 H 0.71879 0.14131 0.2641 0.0
H357 H 0.70459 0.11919 0.23599 0.0
H358 H 0.76542 0.08301 0.31225 0.0
C359 C 0.73039 0.10907 0.31223 0.0
C360 C 0.38804 0.61637 0.27038 0.0
C361 C 0.3752 0.58962 0.28518 0.0
C362 C 0.3496 0.57648 0.27618 0.0
C363 C 0.35033 0.61633 0.23779 0.0
C364 C 0.37522 0.62941 0.24703 0.0
C365 C 0.38565 0.65856 0.22978 0.0
H366 H 0.37108 0.75921 0.11775 0.0
C367 C 0.34264 0.63565 0.21292 0.0
C368 C 0.36322 0.66054 0.2083 0.0
H369 H 0.43414 0.76465 0.18053 0.0
H370 H 0.4133 0.71729 0.20452 0.0
H371 H 0.32265 0.74494 0.16123 0.0
H372 H 0.36729 0.68556 0.11188 0.0
H373 H 0.33198 0.67292 0.11036 0.0
H374 H 0.34428 0.71155 0.09705 0.0
H375 H 0.31481 0.73895 0.125 0.0
H376 H 0.29832 0.71435 0.15411 0.0
C377 C 0.38675 0.68568 0.24955 0.0
C378 C 0.4138 0.65361 0.21554 0.0
C379 C 0.25607 0.60452 0.15897 0.0
C380 C 0.24403 0.61832 0.13515 0.0
C381 C 0.2569 0.6464 0.12247 0.0
C382 C 0.28139 0.66016 0.1328 0.0
C383 C 0.29327 0.646 0.15632 0.0
C384 C 0.28055 0.61881 0.16923 0.0
C385 C 0.29592 0.60779 0.19461 0.0
C386 C 0.32005 0.63271 0.19449 0.0
C387 C 0.31836 0.65485 0.17188 0.0
C388 C 0.27674 0.60761 0.22142 0.0
C389 C 0.30557 0.57594 0.18882 0.0
C390 C 0.38037 0.75056 0.13683 0.0
C391 C 0.40442 0.76595 0.1471 0.0
C392 C 0.4159 0.75319 0.17177 0.0
C393 C 0.40361 0.72576 0.18587 0.0
C394 C 0.37942 0.71094 0.17539 0.0
C395 C 0.36814 0.72357 0.15138 0.0
C396 C 0.34176 0.70565 0.14388 0.0
C397 C 0.33913 0.67992 0.16722 0.0
C398 C 0.36134 0.6829 0.18544 0.0
C399 C 0.31807 0.72693 0.1459 0.0
C400 C 0.34627 0.69333 0.11418 0.0
H401 H 0.31777 0.57845 0.24651 0.0
H402 H 0.40745 0.6273 0.2772 0.0
H403 H 0.41312 0.63026 0.20723 0.0
H404 H 0.41959 0.6699 0.19703 0.0
H405 H 0.43056 0.65551 0.23099 0.0
H406 H 0.37073 0.68137 0.26703 0.0
H407 H 0.40716 0.68912 0.25943 0.0
H408 H 0.3822 0.70759 0.23846 0.0
H409 H 0.24688 0.58294 0.16927 0.0
H410 H 0.24786 0.6581 0.10465 0.0
H411 H 0.29007 0.6814 0.12203 0.0
H412 H 0.26306 0.62658 0.21949 0.0
H413 H 0.26331 0.58553 0.22473 0.0
H414 H 0.28825 0.61177 0.24086 0.0
H415 H 0.31361 0.57586 0.16651 0.0
H416 H 0.32269 0.56976 0.20216 0.0
H417 H 0.2882 0.55746 0.19207 0.0
H418 H 0.33937 0.55586 0.28734 0.0
C419 C 0.33716 0.58959 0.25247 0.0
C420 C 0.12243 0.25029 0.66849 0.0
C421 C 0.13565 0.23579 0.64674 0.0
C422 C 0.16252 0.24751 0.63721 0.0
C423 C 0.16268 0.28765 0.67025 0.0
C424 C 0.13648 0.27606 0.68011 0.0
C425 C 0.12635 0.29405 0.70401 0.0
H426 H 0.14764 0.41647 0.78602 0.0
C427 C 0.1714 0.31498 0.68583 0.0
C428 C 0.15034 0.319 0.70577 0.0
H429 H 0.07979 0.34454 0.7924 0.0
H430 H 0.09975 0.32014 0.75316 0.0
H431 H 0.15195 0.42459 0.71711 0.0
H432 H 0.19555 0.37031 0.7772 0.0
H433 H 0.21948 0.38973 0.75187 0.0
H434 H 0.19973 0.41175 0.77451 0.0
H435 H 0.17776 0.44195 0.7391 0.0
H436 H 0.1868 0.42719 0.70557 0.0
C437 C 0.09963 0.30778 0.69481 0.0
C438 C 0.12267 0.27223 0.73135 0.0
C439 C 0.26294 0.37589 0.65737 0.0
C440 C 0.27602 0.40428 0.66472 0.0
C441 C 0.26322 0.42011 0.68591 0.0
C442 C 0.23781 0.40803 0.6991 0.0
C443 C 0.22486 0.37987 0.69096 0.0
C444 C 0.23749 0.3645 0.6703 0.0
C445 C 0.22038 0.33587 0.66293 0.0
C446 C 0.19539 0.33626 0.68278 0.0
C447 C 0.19812 0.36181 0.69945 0.0
C448 C 0.21301 0.34003 0.63119 0.0
C449 C 0.2368 0.30788 0.67041 0.0
C450 C 0.137 0.3956 0.77879 0.0
C451 C 0.11207 0.38245 0.79228 0.0
C452 C 0.0991 0.35499 0.7825 0.0
C453 C 0.11069 0.34089 0.75968 0.0
C454 C 0.13572 0.35415 0.74657 0.0
C455 C 0.14855 0.38096 0.75629 0.0
C456 C 0.17556 0.39114 0.74049 0.0
C457 C 0.17698 0.36588 0.71995 0.0
C458 C 0.15338 0.34442 0.72334 0.0
C459 C 0.17318 0.42298 0.72482 0.0
C460 C 0.19895 0.39098 0.762 0.0
H461 H 0.1964 0.28086 0.64036 0.0
H462 H 0.10189 0.24154 0.67648 0.0
H463 H 0.13746 0.25433 0.73122 0.0
H464 H 0.12716 0.28439 0.75078 0.0
H465 H 0.10149 0.26013 0.73346 0.0
H466 H 0.10219 0.31818 0.67264 0.0
H467 H 0.08192 0.28963 0.69561 0.0
H468 H 0.09414 0.32647 0.70792 0.0
H469 H 0.27215 0.36265 0.64163 0.0
H470 H 0.2725 0.44221 0.69189 0.0
H471 H 0.22907 0.42126 0.71487 0.0
H472 H 0.21232 0.36479 0.62428 0.0
H473 H 0.22848 0.33077 0.61714 0.0
H474 H 0.1922 0.3292 0.62691 0.0
H475 H 0.24884 0.31147 0.68982 0.0
H476 H 0.22335 0.28625 0.67555 0.0
H477 H 0.25165 0.3043 0.65288 0.0
H478 H 0.17303 0.23702 0.62032 0.0
C479 C 0.17604 0.2732 0.64879 0.0
Zn480 Zn 0.0335 0.00357 0.52196 0.0
Zn481 Zn 0.96938 0.99828 0.47043 0.0
C482 C 0.06572 0.06106 0.53005 0.0
O483 O 0.08492 0.0472 0.51724 0.0
C484 C 0.94577 0.94154 0.45419 0.0
O485 O 0.92756 0.94966 0.47268 0.0
O486 O 0.06421 0.98042 0.53813 0.0
O487 O 0.99774 0.98699 0.54193 0.0
O488 O 0.96275 0.98624 0.5124 0.0
C489 C 0.07054 0.9843 0.56371 0.0
O490 O 0.05611 0.00187 0.57872 0.0
O491 O 0.04133 0.04765 0.53268 0.0
C492 C 0.93202 0.02099 0.43067 0.0
O493 O 0.94895 0.00892 0.41331 0.0
O494 O 0.93665 0.01985 0.45708 0.0
O495 O 0.00311 0.02742 0.45931 0.0
O496 O 0.03321 2e-05 0.47988 0.0
O497 O 0.96811 0.95901 0.44933 0.0
C498 C 0.97217 0.98189 0.53707 0.0
C499 C 0.02798 0.02356 0.46465 0.0
Zn500 Zn 0.52145 0.9846 0.98699 0.0
Zn501 Zn 0.48021 0.02124 0.01636 0.0
C502 C 0.48709 0.94507 0.95488 0.0
O503 O 0.50194 0.92528 0.96793 0.0
C504 C 0.52107 0.05913 0.04426 0.0
O505 O 0.51154 0.08062 0.02759 0.0
O506 O 0.5541 0.96473 0.97261 0.0
O507 O 0.53246 0.03035 0.98224 0.0
O508 O 0.48976 0.04127 0.9771 0.0
C509 C 0.56365 0.97264 0.9476 0.0
O510 O 0.55236 0.9941 0.93247 0.0
O511 O 0.491 0.97335 0.96012 0.0
C512 C 0.44336 0.0329 0.05957 0.0
O513 O 0.45849 0.01326 0.07241 0.0
O514 O 0.44862 0.04098 0.03346 0.0
O515 O 0.46822 0.97588 0.02111 0.0
O516 O 0.51069 0.9637 0.02548 0.0
O517 O 0.51165 0.03115 0.04246 0.0
C518 C 0.51539 0.0473 0.97102 0.0
C519 C 0.48503 0.95808 0.03149 0.0
Zn520 Zn 0.5137 0.47557 0.48184 0.0
Zn521 Zn 0.48594 0.53063 0.51773 0.0
C522 C 0.55396 0.49906 0.4403 0.0
O523 O 0.53714 0.48082 0.4261 0.0
C524 C 0.4546 0.49436 0.56268 0.0
O525 O 0.47377 0.5079 0.57795 0.0
O526 O 0.52009 0.43325 0.46947 0.0
O527 O 0.51277 0.47149 0.52473 0.0
O528 O 0.52326 0.52052 0.53147 0.0
C529 C 0.54101 0.42122 0.47907 0.0
O530 O 0.5561 0.43589 0.49753 0.0
O531 O 0.5479 0.50244 0.46627 0.0
C532 C 0.45132 0.5746 0.53533 0.0
O533 O 0.43333 0.55391 0.52542 0.0
O534 O 0.47686 0.57052 0.53397 0.0
O535 O 0.47937 0.53628 0.47584 0.0
O536 O 0.48096 0.48926 0.46104 0.0
O537 O 0.45637 0.4989 0.53576 0.0
C538 C 0.5248 0.49227 0.53893 0.0
C539 C 0.47348 0.51635 0.45787 0.0
Zn540 Zn 0.96703 0.50275 0.97378 0.0
Zn541 Zn 0.03277 0.48384 0.02456 0.0
C542 C 0.93157 0.46974 0.93741 0.0
O543 O 0.95218 0.47961 0.9195 0.0
C544 C 0.06595 0.52344 0.05821 0.0
O545 O 0.04576 0.51393 0.07673 0.0
O546 O 0.96142 0.54348 0.95389 0.0
O547 O 0.96424 0.50884 0.0159 0.0
O548 O 0.9987 0.49783 0.0433 0.0
C549 C 0.93921 0.55424 0.96152 0.0
O550 O 0.92351 0.53916 0.98196 0.0
O551 O 0.93344 0.47561 0.96338 0.0
C552 C 0.06742 0.43997 0.04211 0.0
O553 O 0.08384 0.45929 0.02532 0.0
O554 O 0.04218 0.44474 0.04532 0.0
O555 O 0.03485 0.47565 0.98288 0.0
O556 O 1.00015 0.48609 0.95556 0.0
O557 O 0.0644 0.51505 0.03294 0.0
C558 C 0.97492 0.50699 0.04013 0.0
C559 C 0.02374 0.47645 0.95883 0.0
H560 H 0.14949 0.08166 0.33587 0.0
H561 H 0.13315 0.16919 0.36745 0.0
H562 H 0.12287 0.05479 0.37591 0.0
H563 H 0.10589 0.14205 0.40728 0.0
H564 H 0.02445 0.07947 0.43668 0.0
H565 H 0.06011 0.11028 0.40722 0.0
H566 H 0.11833 0.0447 0.42904 0.0
H567 H 0.08253 0.01366 0.45863 0.0
C568 C 0.14088 0.09523 0.35173 0.0
C569 C 0.14324 0.12763 0.34823 0.0
C570 C 0.12556 0.07977 0.3747 0.0
C571 C 0.11211 0.09633 0.39456 0.0
C572 C 0.11574 0.12871 0.39203 0.0
C573 C 0.13126 0.14422 0.36917 0.0
C574 C 0.04494 0.07178 0.4355 0.0
C575 C 0.05056 0.0439 0.44963 0.0
C576 C 0.06544 0.0896 0.41882 0.0
C577 C 0.09196 0.07981 0.41575 0.0
C578 C 0.09798 0.05263 0.43087 0.0
C579 C 0.0775 0.03493 0.44783 0.0
H580 H 0.38411 0.83915 0.84052 0.0
H581 H 0.39655 0.93091 0.79977 0.0
H582 H 0.40666 0.85749 0.88254 0.0
H583 H 0.42029 0.94927 0.84127 0.0
H584 H 0.44933 0.97786 0.92718 0.0
H585 H 0.41892 0.96073 0.88977 0.0
H586 H 0.45197 0.87217 0.89505 0.0
H587 H 0.48124 0.88879 0.93291 0.0
C588 C 0.39165 0.86331 0.84067 0.0
C589 C 0.3888 0.88359 0.8169 0.0
C590 C 0.40475 0.87384 0.86465 0.0
C591 C 0.4158 0.90481 0.86523 0.0
C592 C 0.41188 0.92536 0.84179 0.0
C593 C 0.39836 0.91487 0.81794 0.0
C594 C 0.44984 0.95464 0.92047 0.0
C595 C 0.46768 0.93469 0.93305 0.0
C596 C 0.43253 0.94486 0.89891 0.0
C597 C 0.43286 0.915 0.8893 0.0
C598 C 0.45059 0.89507 0.90219 0.0
C599 C 0.46761 0.90471 0.92385 0.0
H600 H 0.64093 0.45003 0.66869 0.0
H601 H 0.56067 0.41783 0.70703 0.0
H602 H 0.61868 0.47084 0.62695 0.0
H603 H 0.53875 0.43755 0.66482 0.0
H604 H 0.51753 0.43687 0.56943 0.0
H605 H 0.53943 0.42154 0.61315 0.0
H606 H 0.5846 0.51168 0.61247 0.0
H607 H 0.56232 0.52737 0.56863 0.0
C608 C 0.61859 0.44771 0.66847 0.0
C609 C 0.60266 0.43191 0.69123 0.0
C610 C 0.60589 0.45956 0.64448 0.0
C611 C 0.57704 0.45555 0.6426 0.0
C612 C 0.56107 0.44056 0.66557 0.0
C613 C 0.57369 0.4291 0.68968 0.0
C614 C 0.5321 0.4535 0.57856 0.0
C615 C 0.53821 0.48335 0.56555 0.0
C616 C 0.5445 0.44475 0.60369 0.0
C617 C 0.56363 0.46546 0.61621 0.0
C618 C 0.56997 0.49526 0.60317 0.0
C619 C 0.55716 0.50424 0.5782 0.0
H620 H 0.91007 0.63156 0.15445 0.0
H621 H 0.89896 0.54437 0.20391 0.0
H622 H 0.92854 0.60603 0.1144 0.0
H623 H 0.91751 0.51881 0.16382 0.0
H624 H 0.98524 0.49728 0.09666 0.0
H625 H 0.96408 0.51999 0.13693 0.0
H626 H 0.91127 0.56632 0.08007 0.0
H627 H 0.93219 0.54354 0.03981 0.0
C628 C 0.91165 0.60695 0.15677 0.0
C629 C 0.9031 0.58998 0.18234 0.0
C630 C 0.922 0.59229 0.13377 0.0
C631 C 0.92443 0.56039 0.13594 0.0
C632 C 0.91601 0.54343 0.16156 0.0
C633 C 0.90524 0.55802 0.18443 0.0
C634 C 0.96892 0.51206 0.09274 0.0
C635 C 0.96045 0.51855 0.06492 0.0
C636 C 0.95675 0.52498 0.11585 0.0
C637 C 0.93612 0.54508 0.11165 0.0
C638 C 0.92731 0.55116 0.08394 0.0
C639 C 0.93917 0.53788 0.06089 0.0
H640 H 0.32796 0.14806 0.13332 0.0
H641 H 0.30231 0.05637 0.17046 0.0
H642 H 0.365 0.12797 0.10643 0.0
H643 H 0.33943 0.03628 0.14359 0.0
H644 H 0.42684 0.01859 0.11486 0.0
H645 H 0.38987 0.0388 0.14156 0.0
H646 H 0.37129 0.09479 0.06711 0.0
H647 H 0.4087 0.07493 0.04039 0.0
C648 C 0.33013 0.12357 0.13559 0.0
C649 C 0.31217 0.10378 0.15398 0.0
C650 C 0.35132 0.11207 0.12016 0.0
C651 C 0.35509 0.08054 0.12282 0.0
C652 C 0.33727 0.06076 0.14136 0.0
C653 C 0.31604 0.07227 0.15678 0.0
C654 C 0.4149 0.03522 0.10414 0.0
C655 C 0.42072 0.04518 0.0755 0.0
C656 C 0.39359 0.04665 0.11943 0.0
C657 C 0.37763 0.06834 0.10644 0.0
C658 C 0.38344 0.07834 0.07778 0.0
C659 C 0.40476 0.06685 0.06245 0.0
H660 H 0.19958 0.87075 0.62007 0.0
H661 H 0.22483 0.96214 0.64598 0.0
H662 H 0.15868 0.88966 0.5991 0.0
H663 H 0.18373 0.9808 0.62543 0.0
H664 H 0.09237 0.99388 0.61535 0.0
H665 H 0.13326 0.97392 0.63507 0.0
H666 H 0.14504 0.92508 0.55959 0.0
H667 H 0.10386 0.94491 0.53981 0.0
C668 C 0.1966 0.89493 0.62106 0.0
C669 C 0.21553 0.91488 0.63484 0.0
C670 C 0.1731 0.90573 0.60908 0.0
C671 C 0.16788 0.93668 0.61074 0.0
C672 C 0.18692 0.9567 0.62423 0.0
C673 C 0.21047 0.94596 0.63605 0.0
C674 C 0.10356 0.97878 0.60295 0.0
C675 C 0.09483 0.97102 0.57597 0.0
C676 C 0.12714 0.96752 0.6142 0.0
C677 C 0.1425 0.94807 0.59883 0.0
C678 C 0.13354 0.93986 0.57203 0.0
C679 C 0.11001 0.95131 0.56067 0.0
H680 H 0.76885 0.37457 0.91319 0.0
H681 H 0.7963 0.4148 0.8299 0.0
H682 H 0.81208 0.3947 0.93247 0.0
H683 H 0.83883 0.43687 0.84964 0.0
H684 H 0.92403 0.44489 0.88634 0.0
H685 H 0.88104 0.42281 0.86751 0.0
H686 H 0.83734 0.44022 0.94504 0.0
H687 H 0.88059 0.46109 0.96425 0.0
C688 C 0.78408 0.38776 0.89894 0.0
C689 C 0.7791 0.39275 0.86987 0.0
C690 C 0.80878 0.39974 0.91014 0.0
C691 C 0.82909 0.41741 0.89267 0.0
C692 C 0.82391 0.42293 0.86369 0.0
C693 C 0.79928 0.41066 0.85241 0.0
C694 C 0.90525 0.44376 0.89944 0.0
C695 C 0.90571 0.45466 0.9268 0.0
C696 C 0.88053 0.43136 0.88853 0.0
C697 C 0.85557 0.4299 0.90461 0.0
C698 C 0.85615 0.44053 0.93216 0.0
C699 C 0.88096 0.4526 0.94319 0.0
H700 H 0.71481 0.52528 0.35386 0.0
H701 H 0.69636 0.61829 0.36742 0.0
H702 H 0.67095 0.50528 0.37751 0.0
H703 H 0.65297 0.59801 0.39195 0.0
H704 H 0.5913 0.54357 0.45989 0.0
H705 H 0.63555 0.56505 0.43709 0.0
H706 H 0.62048 0.50742 0.36707 0.0
H707 H 0.57652 0.48619 0.38951 0.0
C708 C 0.70143 0.54152 0.3617 0.0
C709 C 0.70926 0.57348 0.35854 0.0
C710 C 0.67633 0.53001 0.3754 0.0
C711 C 0.65854 0.55009 0.38659 0.0
C712 C 0.66642 0.58196 0.38385 0.0
C713 C 0.69138 0.59354 0.36983 0.0
C714 C 0.59742 0.53562 0.43959 0.0
C715 C 0.58036 0.51319 0.42654 0.0
C716 C 0.62268 0.54796 0.42651 0.0
C717 C 0.63153 0.53776 0.40038 0.0
C718 C 0.61439 0.51546 0.38736 0.0
C719 C 0.58908 0.50347 0.40017 0.0
H720 H 0.17625 0.30651 0.09969 0.0
H721 H 0.10129 0.27858 0.15006 0.0
H722 H 0.15395 0.34731 0.07562 0.0
H723 H 0.07975 0.32152 0.12776 0.0
H724 H 0.04042 0.38453 0.0622 0.0
H725 H 0.0607 0.34114 0.08601 0.0
H726 H 0.14012 0.39541 0.08282 0.0
H727 H 0.12019 0.43758 0.05769 0.0
C728 C 0.15497 0.30898 0.10568 0.0
C729 C 0.14062 0.28899 0.12683 0.0
C730 C 0.14229 0.33291 0.0922 0.0
C731 C 0.11508 0.33811 0.09992 0.0
C732 C 0.10064 0.31813 0.12104 0.0
C733 C 0.11319 0.29374 0.13419 0.0
C734 C 0.0622 0.38698 0.06664 0.0
C735 C 0.07883 0.41417 0.05783 0.0
C736 C 0.07383 0.36224 0.08042 0.0
C737 C 0.10219 0.36453 0.08611 0.0
C738 C 0.11845 0.3923 0.07806 0.0
C739 C 0.10698 0.41664 0.06381 0.0
H740 H 0.6142 0.1789 0.85449 0.0
H741 H 0.54015 0.22297 0.87034 0.0
H742 H 0.59467 0.13305 0.88303 0.0
H743 H 0.52084 0.17762 0.89993 0.0
H744 H 0.48547 0.0816 0.93496 0.0
H745 H 0.50275 0.12505 0.90206 0.0
H746 H 0.5854 0.11768 0.93124 0.0
H747 H 0.5683 0.07367 0.96307 0.0
C748 C 0.59369 0.17867 0.86413 0.0
C749 C 0.5787 0.20443 0.86035 0.0
C750 C 0.58254 0.15253 0.88066 0.0
C751 C 0.55629 0.15171 0.89419 0.0
C752 C 0.54097 0.17723 0.88964 0.0
C753 C 0.55202 0.20326 0.87275 0.0
C754 C 0.50732 0.0893 0.93427 0.0
C755 C 0.52553 0.07415 0.95155 0.0
C756 C 0.51724 0.1143 0.91549 0.0
C757 C 0.54553 0.12486 0.9138 0.0
C758 C 0.5636 0.10981 0.9314 0.0
C759 C 0.55376 0.08467 0.94987 0.0
H760 H 0.85272 0.80836 0.35975 0.0
H761 H 0.93185 0.77156 0.36227 0.0
H762 H 0.87165 0.85341 0.38313 0.0
H763 H 0.95099 0.817 0.38602 0.0
H764 H 0.97602 0.91945 0.41083 0.0
H765 H 0.96187 0.87587 0.38225 0.0
H766 H 0.88583 0.85809 0.43261 0.0
H767 H 0.89964 0.90114 0.46075 0.0
C768 C 0.87428 0.81007 0.36513 0.0
C769 C 0.89068 0.7862 0.35963 0.0
C770 C 0.88511 0.83583 0.37859 0.0
C771 C 0.91265 0.83845 0.38699 0.0
C772 C 0.92967 0.81559 0.37985 0.0
C773 C 0.91876 0.78964 0.36624 0.0
C774 C 0.95638 0.90605 0.41585 0.0
C775 C 0.93887 0.91396 0.43794 0.0
C776 C 0.94832 0.88111 0.39953 0.0
C777 C 0.92253 0.86387 0.40488 0.0
C778 C 0.90554 0.87132 0.4275 0.0
C779 C 0.91358 0.89596 0.44378 0.0
H780 H 0.39875 0.75312 0.57124 0.0
H781 H 0.37706 0.69556 0.64791 0.0
H782 H 0.41991 0.71037 0.55063 0.0
H783 H 0.39771 0.65275 0.62712 0.0
H784 H 0.40058 0.57824 0.55947 0.0
H785 H 0.38337 0.62201 0.58162 0.0
H786 H 0.46199 0.67532 0.56363 0.0
H787 H 0.47964 0.63105 0.5419 0.0
C788 C 0.39856 0.73133 0.58362 0.0
C789 C 0.38627 0.72752 0.6111 0.0
C790 C 0.41079 0.70704 0.57195 0.0
C791 C 0.4104 0.67839 0.58734 0.0
C792 C 0.39822 0.67465 0.61485 0.0
C793 C 0.38651 0.69909 0.62673 0.0
C794 C 0.41425 0.59926 0.56025 0.0
C795 C 0.44145 0.60128 0.54892 0.0
C796 C 0.40443 0.62421 0.57306 0.0
C797 C 0.42138 0.65192 0.57429 0.0
C798 C 0.44854 0.65415 0.56282 0.0
C799 C 0.45862 0.62886 0.55053 0.0
H800 H 0.8309 0.9175 0.65189 0.0
H801 H 0.90356 0.89193 0.69446 0.0
H802 H 0.86023 0.94306 0.61281 0.0
H803 H 0.9325 0.9154 0.65483 0.0
H804 H 0.98075 0.9841 0.59374 0.0
H805 H 0.94956 0.96375 0.63308 0.0
H806 H 0.88898 0.93179 0.57365 0.0
H807 H 0.91981 0.95338 0.53425 0.0
C808 C 0.85308 0.91729 0.65291 0.0
C809 C 0.86483 0.90247 0.67624 0.0
C810 C 0.86987 0.93161 0.63036 0.0
C811 C 0.89875 0.93131 0.63064 0.0
C812 C 0.91041 0.91655 0.65404 0.0
C813 C 0.89371 0.90256 0.6766 0.0
C814 C 0.96073 0.97282 0.58906 0.0
C815 C 0.95283 0.97016 0.56089 0.0
C816 C 0.94287 0.961 0.61163 0.0
C817 C 0.91683 0.94582 0.60657 0.0
C818 C 0.90873 0.94365 0.57835 0.0
C819 C 0.92648 0.95585 0.55575 0.0
H820 H 0.61799 0.07458 0.1973 0.0
H821 H 0.59073 0.16432 0.17631 0.0
H822 H 0.59977 0.05644 0.15319 0.0
H823 H 0.57087 0.14566 0.1334 0.0
H824 H 0.55301 0.11352 0.04767 0.0
H825 H 0.57983 0.13039 0.08758 0.0
H826 H 0.55694 0.04208 0.13313 0.0
H827 H 0.53119 0.02486 0.09264 0.0
C828 C 0.60826 0.09052 0.18325 0.0
C829 C 0.60571 0.12091 0.19055 0.0
C830 C 0.59745 0.07997 0.15808 0.0
C831 C 0.58367 0.09947 0.13966 0.0
C832 C 0.58164 0.13001 0.14675 0.0
C833 C 0.59265 0.14062 0.17172 0.0
C834 C 0.55405 0.09759 0.06607 0.0
C835 C 0.53985 0.06795 0.0671 0.0
C836 C 0.56926 0.10732 0.08908 0.0
C837 C 0.57028 0.08781 0.11387 0.0
C838 C 0.55693 0.05768 0.11436 0.0
C839 C 0.54203 0.0478 0.09116 0.0
H840 H 0.42828 0.57525 0.28871 0.0
H841 H 0.35197 0.5735 0.33803 0.0
H842 H 0.45099 0.55537 0.33067 0.0
H843 H 0.37479 0.5539 0.38014 0.0
H844 H 0.43966 0.56253 0.45205 0.0
H845 H 0.41458 0.57781 0.41017 0.0
H846 H 0.44703 0.50562 0.36482 0.0
H847 H 0.4719 0.48995 0.40685 0.0
C848 C 0.41638 0.57047 0.30853 0.0
C849 C 0.38841 0.57591 0.3102 0.0
C850 C 0.42931 0.55896 0.33244 0.0
C851 C 0.41463 0.55317 0.35861 0.0
C852 C 0.38658 0.55832 0.36023 0.0
C853 C 0.37351 0.56932 0.33616 0.0
C854 C 0.44138 0.54984 0.43318 0.0
C855 C 0.45779 0.52507 0.43271 0.0
C856 C 0.42688 0.55847 0.40931 0.0
C857 C 0.42888 0.54287 0.38432 0.0
C858 C 0.44524 0.51808 0.38382 0.0
C859 C 0.45935 0.50906 0.40788 0.0
H860 H 0.09263 0.35457 0.8434 0.0
H861 H 0.10384 0.44321 0.79636 0.0
H862 H 0.07231 0.37835 0.88358 0.0
H863 H 0.08334 0.46699 0.83654 0.0
H864 H 0.01344 0.48553 0.90226 0.0
H865 H 0.03558 0.46365 0.86207 0.0
H866 H 0.08815 0.4176 0.91939 0.0
H867 H 0.0663 0.43966 0.95962 0.0
C868 C 0.09065 0.37912 0.84163 0.0
C869 C 0.09979 0.39702 0.81671 0.0
C870 C 0.07922 0.39276 0.8647 0.0
C871 C 0.07624 0.42454 0.86322 0.0
C872 C 0.08523 0.44243 0.83824 0.0
C873 C 0.09711 0.42886 0.81533 0.0
C874 C 0.02982 0.47088 0.90632 0.0
C875 C 0.03805 0.46436 0.93422 0.0
C876 C 0.04258 0.45847 0.88326 0.0
C877 C 0.06354 0.43883 0.88759 0.0
C878 C 0.0719 0.43245 0.91542 0.0
C879 C 0.05947 0.44526 0.93844 0.0
H880 H 0.70878 0.87622 0.91594 0.0
H881 H 0.67113 0.88492 0.83447 0.0
H882 H 0.67258 0.90323 0.93712 0.0
H883 H 0.63468 0.91162 0.85568 0.0
H884 H 0.59087 0.98646 0.89628 0.0
H885 H 0.62767 0.96005 0.87551 0.0
H886 H 0.62392 0.89647 0.94986 0.0
H887 H 0.58764 0.92336 0.97094 0.0
C888 C 0.69257 0.88361 0.90264 0.0
C889 C 0.69276 0.87844 0.87356 0.0
C890 C 0.67182 0.89908 0.91476 0.0
C891 C 0.65074 0.90961 0.89809 0.0
C892 C 0.65087 0.90427 0.86902 0.0
C893 C 0.6717 0.88892 0.85687 0.0
C894 C 0.59797 0.96691 0.90824 0.0
C895 C 0.58636 0.95702 0.93527 0.0
C896 C 0.61893 0.95164 0.89625 0.0
C897 C 0.62868 0.92608 0.91098 0.0
C898 C 0.61715 0.91632 0.9381 0.0
C899 C 0.59625 0.93165 0.95013 0.0
H900 H 0.77873 0.04855 0.34884 0.0
H901 H 0.80198 0.1367 0.38275 0.0
H902 H 0.81976 0.02868 0.36832 0.0
H903 H 0.84269 0.11633 0.40291 0.0
H904 H 0.89625 0.05456 0.45869 0.0
H905 H 0.85505 0.0757 0.44017 0.0
H906 H 0.87102 0.03899 0.35915 0.0
H907 H 0.91204 0.01795 0.37748 0.0
C908 C 0.79264 0.0638 0.36028 0.0
C909 C 0.78707 0.09435 0.36398 0.0
C910 C 0.81611 0.05233 0.37154 0.0
C911 C 0.83448 0.071 0.38703 0.0
C912 C 0.82874 0.10133 0.39127 0.0
C913 C 0.80537 0.11294 0.37976 0.0
C914 C 0.89098 0.05107 0.43691 0.0
C915 C 0.9074 0.03453 0.41957 0.0
C916 C 0.86748 0.06329 0.4263 0.0
C917 C 0.85977 0.05887 0.39826 0.0
C918 C 0.87627 0.04246 0.38094 0.0
C919 C 0.89987 0.03056 0.39142 0.0
H920 H 0.23022 0.61676 0.07933 0.0
H921 H 0.19898 0.58722 0.16436 0.0
H922 H 0.18694 0.59653 0.06029 0.0
H923 H 0.15639 0.56479 0.14507 0.0
H924 H 0.07259 0.55464 0.10615 0.0
H925 H 0.11545 0.57808 0.12422 0.0
H926 H 0.16039 0.55094 0.05099 0.0
H927 H 0.11731 0.52883 0.0324 0.0
C928 C 0.21415 0.60589 0.09402 0.0
C929 C 0.2181 0.60396 0.12348 0.0
C930 C 0.18939 0.59383 0.083 0.0
C931 C 0.168 0.57903 0.10107 0.0
C932 C 0.17215 0.57651 0.1305 0.0
C933 C 0.19683 0.58894 0.14156 0.0
C934 C 0.09161 0.55403 0.09378 0.0
C935 C 0.09158 0.53999 0.06782 0.0
C936 C 0.11627 0.56718 0.10428 0.0
C937 C 0.14155 0.56621 0.08927 0.0
C938 C 0.14135 0.55258 0.063 0.0
C939 C 0.11663 0.53982 0.05232 0.0
H940 H 0.32048 0.43817 0.68627 0.0
H941 H 0.29161 0.40029 0.60883 0.0
H942 H 0.36338 0.45913 0.66141 0.0
H943 H 0.33519 0.41872 0.58482 0.0
H944 H 0.40379 0.48349 0.54038 0.0
H945 H 0.36097 0.46247 0.56512 0.0
H946 H 0.4054 0.44689 0.64192 0.0
H947 H 0.44803 0.46956 0.61733 0.0
C948 C 0.32323 0.4342 0.664 0.0
C949 C 0.30244 0.41733 0.64973 0.0
C950 C 0.34812 0.4458 0.6498 0.0
C951 C 0.35303 0.44057 0.62101 0.0
C952 C 0.33221 0.42368 0.60682 0.0
C953 C 0.30724 0.41255 0.62085 0.0
C954 C 0.40445 0.47526 0.56246 0.0
C955 C 0.42929 0.47815 0.57689 0.0
C956 C 0.37984 0.46308 0.57672 0.0
C957 C 0.3795 0.45293 0.60569 0.0
C958 C 0.40462 0.45503 0.61984 0.0
C959 C 0.42916 0.46772 0.60567 0.0
H960 H 0.83222 0.67296 0.87612 0.0
H961 H 0.91328 0.71955 0.85499 0.0
H962 H 0.85298 0.63338 0.90464 0.0
H963 H 0.9341 0.68013 0.88375 0.0
H964 H 0.96097 0.58447 0.91209 0.0
H965 H 0.94195 0.62601 0.88434 0.0
H966 H 0.87685 0.62706 0.94845 0.0
H967 H 0.8954 0.58515 0.97578 0.0
C968 C 0.85446 0.67485 0.87778 0.0
C969 C 0.87113 0.69931 0.86333 0.0
C970 C 0.86637 0.65224 0.89416 0.0
C971 C 0.8952 0.65369 0.89656 0.0
C972 C 0.91186 0.67814 0.88204 0.0
C973 C 0.89995 0.7007 0.86557 0.0
C974 C 0.94275 0.59379 0.92036 0.0
C975 C 0.92957 0.5814 0.94601 0.0
C976 C 0.93189 0.61764 0.90451 0.0
C977 C 0.90773 0.62963 0.91407 0.0
C978 C 0.89515 0.6179 0.94021 0.0
C979 C 0.90591 0.59401 0.95596 0.0
H980 H 0.37804 0.8118 0.12043 0.0
H981 H 0.45957 0.78695 0.14002 0.0
H982 H 0.3983 0.85749 0.09314 0.0
H983 H 0.47989 0.8345 0.11489 0.0
H984 H 0.50835 0.90404 0.04055 0.0
H985 H 0.48952 0.85823 0.06963 0.0
H986 H 0.42011 0.90627 0.09534 0.0
H987 H 0.43809 0.95101 0.06481 0.0
C988 C 0.40034 0.81608 0.11904 0.0
C989 C 0.41711 0.79527 0.1322 0.0
C990 C 0.41202 0.84279 0.10377 0.0
C991 C 0.44084 0.84997 0.10174 0.0
C992 C 0.45764 0.82959 0.11553 0.0
C993 C 0.44594 0.80248 0.1304 0.0
C994 C 0.48909 0.90468 0.0525 0.0
C995 C 0.47456 0.93093 0.05028 0.0
C996 C 0.47834 0.87851 0.06936 0.0
C997 C 0.45311 0.87828 0.08483 0.0
C998 C 0.43916 0.90511 0.08322 0.0
C999 C 0.44957 0.93093 0.06587 0.0
H1000 H 0.08365 0.22865 0.62556 0.0
H1001 H 0.15723 0.18214 0.63705 0.0
H1002 H 0.0648 0.18745 0.59652 0.0
H1003 H 0.13851 0.14108 0.60851 0.0
H1004 H 0.11584 0.09505 0.5289 0.0
H1005 H 0.13041 0.13702 0.55832 0.0
H1006 H 0.04808 0.13212 0.59614 0.0
H1007 H 0.03328 0.09029 0.56624 0.0
C1008 C 0.0955 0.20931 0.62236 0.0
C1009 C 0.12203 0.20876 0.63326 0.0
C1010 C 0.08479 0.18579 0.60567 0.0
C1011 C 0.10043 0.16132 0.59965 0.0
C1012 C 0.12626 0.16003 0.61199 0.0
C1013 C 0.13692 0.18344 0.62852 0.0
C1014 C 0.10072 0.10309 0.54324 0.0
C1015 C 0.07345 0.08912 0.54533 0.0
C1016 C 0.10914 0.12701 0.56031 0.0
C1017 C 0.09054 0.13756 0.58 0.0
C1018 C 0.06292 0.12456 0.58121 0.0
C1019 C 0.05446 0.10057 0.56407 0.0
H1020 H 0.60013 0.29484 0.36385 0.0
H1021 H 0.61096 0.2491 0.44609 0.0
H1022 H 0.57815 0.33512 0.38665 0.0
H1023 H 0.58914 0.28963 0.46891 0.0
H1024 H 0.58303 0.38863 0.49711 0.0
H1025 H 0.60046 0.34448 0.47608 0.0
H1026 H 0.53669 0.34497 0.41437 0.0
H1027 H 0.5194 0.38953 0.4352 0.0
C1028 C 0.59748 0.29311 0.38678 0.0
C1029 C 0.6074 0.26872 0.40313 0.0
C1030 C 0.58485 0.31624 0.39985 0.0
C1031 C 0.58191 0.31562 0.42961 0.0
C1032 C 0.59144 0.291 0.44596 0.0
C1033 C 0.604 0.26781 0.43287 0.0
C1034 C 0.57255 0.37919 0.47921 0.0
C1035 C 0.54989 0.39271 0.46777 0.0
C1036 C 0.58246 0.35375 0.46725 0.0
C1037 C 0.57003 0.34126 0.44349 0.0
C1038 C 0.54693 0.35429 0.43246 0.0
C1039 C 0.53691 0.37969 0.44452 0.0
loop_
_geom_bond_atom_site_label_1
_geom_bond_atom_site_label_2
_geom_bond_distance
_geom_bond_site_symmetry_2
_ccdc_geom_bond_type
C0 C1 1.391 . S
C0 C4 1.391 . S
C0 H42 0.948 . S
C1 C0 1.391 . S
C1 C2 1.391 . S
C2 C1 1.391 . S
C2 H58 0.947 . S
C2 C59 1.392 . S
C3 C4 1.391 . S
C3 C7 1.397 . S
C3 C59 1.419 . S
C4 C0 1.391 . S
C4 C3 1.391 . S
C4 C5 1.399 . S
C5 C4 1.399 . S
C5 C8 1.396 . S
C5 C17 1.453 . S
C5 C18 1.684 . S
H6 C30 0.948 . S
C7 C3 1.397 . S
C7 C8 1.394 . S
C7 C26 1.723 . S
C8 C5 1.396 . S
C8 C7 1.394 . S
C8 C38 1.723 . S
H9 C32 0.947 . S
H10 C33 0.948 . S
H11 C39 0.982 . S
H12 C40 0.979 . S
H13 C40 0.980 . S
H14 C40 0.983 . S
H15 C39 0.979 . S
H16 C39 0.977 . S
C17 C5 1.453 . S
C17 H46 0.982 . S
C17 H47 0.979 . S
C17 H48 0.977 . S
C18 C5 1.684 . S
C18 H43 0.979 . S
C18 H44 0.980 . S
C18 H45 0.983 . S
C19 C20 1.391 . S
C19 C24 1.391 . S
C19 H49 0.948 . S
C20 C19 1.391 . S
C20 C21 1.391 . S
C21 C20 1.391 . S
C21 C22 1.392 . S
C21 H50 0.947 . S
C22 C21 1.392 . S
C22 C23 1.419 . S
C22 H51 0.948 . S
C23 C22 1.419 . S
C23 C24 1.391 . S
C23 C27 1.397 . S
C24 C19 1.391 . S
C24 C23 1.391 . S
C24 C25 1.399 . S
C25 C24 1.399 . S
C25 C26 1.396 . S
C25 C28 1.453 . S
C25 C29 1.684 . S
C26 C7 1.723 . S
C26 C25 1.396 . S
C26 C27 1.394 . S
C27 C23 1.397 . S
C27 C26 1.394 . S
C27 C37 1.723 . S
C28 C25 1.453 . S
C28 H52 0.982 . S
C28 H53 0.979 . S
C28 H54 0.977 . S
C29 C25 1.684 . S
C29 H55 0.979 . S
C29 H56 0.980 . S
C29 H57 0.983 . S
C30 H6 0.948 . S
C30 C31 1.391 . S
C30 C35 1.391 . S
C31 C30 1.391 . S
C31 C32 1.391 . S
C32 H9 0.947 . S
C32 C31 1.391 . S
C32 C33 1.392 . S
C33 H10 0.948 . S
C33 C32 1.392 . S
C33 C34 1.419 . S
C34 C33 1.419 . S
C34 C35 1.391 . S
C34 C38 1.397 . S
C35 C30 1.391 . S
C35 C34 1.391 . S
C35 C36 1.399 . S
C36 C35 1.399 . S
C36 C37 1.396 . S
C36 C39 1.453 . S
C36 C40 1.684 . S
C37 C27 1.723 . S
C37 C36 1.396 . S
C37 C38 1.394 . S
C38 C8 1.723 . S
C38 C34 1.397 . S
C38 C37 1.394 . S
C39 H11 0.982 . S
C39 H15 0.979 . S
C39 H16 0.977 . S
C39 C36 1.453 . S
C40 H12 0.979 . S
C40 H13 0.980 . S
C40 H14 0.983 . S
C40 C36 1.684 . S
H41 C59 0.948 . S
H42 C0 0.948 . S
H43 C18 0.979 . S
H44 C18 0.980 . S
H45 C18 0.983 . S
H46 C17 0.982 . S
H47 C17 0.979 . S
H48 C17 0.977 . S
H49 C19 0.948 . S
H50 C21 0.947 . S
H51 C22 0.948 . S
H52 C28 0.982 . S
H53 C28 0.979 . S
H54 C28 0.977 . S
H55 C29 0.979 . S
H56 C29 0.980 . S
H57 C29 0.983 . S
H58 C2 0.947 . S
C59 C2 1.392 . S
C59 C3 1.419 . S
C59 H41 0.948 . S
C60 C61 1.391 . S
C60 C64 1.391 . S
C60 H102 0.948 . S
C61 C60 1.391 . S
C61 C62 1.391 . S
C62 C61 1.391 . S
C62 H118 0.947 . S
C62 C119 1.392 . S
C63 C64 1.391 . S
C63 C67 1.397 . S
C63 C119 1.419 . S
C64 C60 1.391 . S
C64 C63 1.391 . S
C64 C65 1.399 . S
C65 C64 1.399 . S
C65 C68 1.396 . S
C65 C77 1.453 . S
C65 C78 1.684 . S
H66 C90 0.948 . S
C67 C63 1.397 . S
C67 C68 1.394 . S
C67 C86 1.723 . S
C68 C65 1.396 . S
C68 C67 1.394 . S
C68 C98 1.723 . S
H69 C92 0.947 . S
H70 C93 0.948 . S
H71 C99 0.982 . S
H72 C100 0.979 . S
H73 C100 0.980 . S
H74 C100 0.983 . S
H75 C99 0.979 . S
H76 C99 0.977 . S
C77 C65 1.453 . S
C77 H106 0.982 . S
C77 H107 0.979 . S
C77 H108 0.977 . S
C78 C65 1.684 . S
C78 H103 0.979 . S
C78 H104 0.980 . S
C78 H105 0.983 . S
C79 C80 1.391 . S
C79 C84 1.391 . S
C79 H109 0.948 . S
C80 C79 1.391 . S
C80 C81 1.391 . S
C81 C80 1.391 . S
C81 C82 1.392 . S
C81 H110 0.947 . S
C82 C81 1.392 . S
C82 C83 1.419 . S
C82 H111 0.948 . S
C83 C82 1.419 . S
C83 C84 1.391 . S
C83 C87 1.397 . S
C84 C79 1.391 . S
C84 C83 1.391 . S
C84 C85 1.399 . S
C85 C84 1.399 . S
C85 C86 1.396 . S
C85 C88 1.453 . S
C85 C89 1.684 . S
C86 C67 1.723 . S
C86 C85 1.396 . S
C86 C87 1.394 . S
C87 C83 1.397 . S
C87 C86 1.394 . S
C87 C97 1.723 . S
C88 C85 1.453 . S
C88 H112 0.982 . S
C88 H113 0.979 . S
C88 H114 0.977 . S
C89 C85 1.684 . S
C89 H115 0.979 . S
C89 H116 0.980 . S
C89 H117 0.983 . S
C90 H66 0.948 . S
C90 C91 1.391 . S
C90 C95 1.391 . S
C91 C90 1.391 . S
C91 C92 1.391 . S
C92 H69 0.947 . S
C92 C91 1.391 . S
C92 C93 1.392 . S
C93 H70 0.948 . S
C93 C92 1.392 . S
C93 C94 1.419 . S
C94 C93 1.419 . S
C94 C95 1.391 . S
C94 C98 1.397 . S
C95 C90 1.391 . S
C95 C94 1.391 . S
C95 C96 1.399 . S
C96 C95 1.399 . S
C96 C97 1.396 . S
C96 C99 1.453 . S
C96 C100 1.684 . S
C97 C87 1.723 . S
C97 C96 1.396 . S
C97 C98 1.394 . S
C98 C68 1.723 . S
C98 C94 1.397 . S
C98 C97 1.394 . S
C99 H71 0.982 . S
C99 H75 0.979 . S
C99 H76 0.977 . S
C99 C96 1.453 . S
C100 H72 0.979 . S
C100 H73 0.980 . S
C100 H74 0.983 . S
C100 C96 1.684 . S
H101 C119 0.948 . S
H102 C60 0.948 . S
H103 C78 0.979 . S
H104 C78 0.980 . S
H105 C78 0.983 . S
H106 C77 0.982 . S
H107 C77 0.979 . S
H108 C77 0.977 . S
H109 C79 0.948 . S
H110 C81 0.947 . S
H111 C82 0.948 . S
H112 C88 0.982 . S
H113 C88 0.979 . S
H114 C88 0.977 . S
H115 C89 0.979 . S
H116 C89 0.980 . S
H117 C89 0.983 . S
H118 C62 0.947 . S
C119 C62 1.392 . S
C119 C63 1.419 . S
C119 H101 0.948 . S
C120 C121 1.391 . S
C120 C124 1.391 . S
C120 H162 0.948 . S
C121 C120 1.391 . S
C121 C122 1.391 . S
C122 C121 1.391 . S
C122 H178 0.947 . S
C122 C179 1.392 . S
C123 C124 1.391 . S
C123 C127 1.397 . S
C123 C179 1.419 . S
C124 C120 1.391 . S
C124 C123 1.391 . S
C124 C125 1.399 . S
C125 C124 1.399 . S
C125 C128 1.396 . S
C125 C137 1.453 . S
C125 C138 1.684 . S
H126 C150 0.948 . S
C127 C123 1.397 . S
C127 C128 1.394 . S
C127 C146 1.723 . S
C128 C125 1.396 . S
C128 C127 1.394 . S
C128 C158 1.723 . S
H129 C152 0.947 . S
H130 C153 0.948 . S
H131 C159 0.982 . S
H132 C160 0.979 . S
H133 C160 0.980 . S
H134 C160 0.983 . S
H135 C159 0.979 . S
H136 C159 0.977 . S
C137 C125 1.453 . S
C137 H166 0.982 . S
C137 H167 0.979 . S
C137 H168 0.977 . S
C138 C125 1.684 . S
C138 H163 0.979 . S
C138 H164 0.980 . S
C138 H165 0.983 . S
C139 C140 1.391 . S
C139 C144 1.391 . S
C139 H169 0.948 . S
C140 C139 1.391 . S
C140 C141 1.391 . S
C141 C140 1.391 . S
C141 C142 1.392 . S
C141 H170 0.947 . S
C142 C141 1.392 . S
C142 C143 1.419 . S
C142 H171 0.948 . S
C143 C142 1.419 . S
C143 C144 1.391 . S
C143 C147 1.397 . S
C144 C139 1.391 . S
C144 C143 1.391 . S
C144 C145 1.399 . S
C145 C144 1.399 . S
C145 C146 1.396 . S
C145 C148 1.453 . S
C145 C149 1.684 . S
C146 C127 1.723 . S
C146 C145 1.396 . S
C146 C147 1.394 . S
C147 C143 1.397 . S
C147 C146 1.394 . S
C147 C157 1.723 . S
C148 C145 1.453 . S
C148 H172 0.982 . S
C148 H173 0.979 . S
C148 H174 0.977 . S
C149 C145 1.684 . S
C149 H175 0.979 . S
C149 H176 0.980 . S
C149 H177 0.983 . S
C150 H126 0.948 . S
C150 C151 1.391 . S
C150 C155 1.391 . S
C151 C150 1.391 . S
C151 C152 1.391 . S
C152 H129 0.947 . S
C152 C151 1.391 . S
C152 C153 1.392 . S
C153 H130 0.948 . S
C153 C152 1.392 . S
C153 C154 1.419 . S
C154 C153 1.419 . S
C154 C155 1.391 . S
C154 C158 1.397 . S
C155 C150 1.391 . S
C155 C154 1.391 . S
C155 C156 1.399 . S
C156 C155 1.399 . S
C156 C157 1.396 . S
C156 C159 1.453 . S
C156 C160 1.684 . S
C157 C147 1.723 . S
C157 C156 1.396 . S
C157 C158 1.394 . S
C158 C128 1.723 . S
C158 C154 1.397 . S
C158 C157 1.394 . S
C159 H131 0.982 . S
C159 H135 0.979 . S
C159 H136 0.977 . S
C159 C156 1.453 . S
C160 H132 0.979 . S
C160 H133 0.980 . S
C160 H134 0.983 . S
C160 C156 1.684 . S
H161 C179 0.948 . S
H162 C120 0.948 . S
H163 C138 0.979 . S
H164 C138 0.980 . S
H165 C138 0.983 . S
H166 C137 0.982 . S
H167 C137 0.979 . S
H168 C137 0.977 . S
H169 C139 0.948 . S
H170 C141 0.947 . S
H171 C142 0.948 . S
H172 C148 0.982 . S
H173 C148 0.979 . S
H174 C148 0.977 . S
H175 C149 0.979 . S
H176 C149 0.980 . S
H177 C149 0.983 . S
H178 C122 0.947 . S
C179 C122 1.392 . S
C179 C123 1.419 . S
C179 H161 0.948 . S
C180 C181 1.391 . S
C180 C184 1.391 . S
C180 H222 0.948 . S
C181 C180 1.391 . S
C181 C182 1.391 . S
C182 C181 1.391 . S
C182 H238 0.947 . S
C182 C239 1.392 . S
C183 C184 1.391 . S
C183 C187 1.397 . S
C183 C239 1.419 . S
C184 C180 1.391 . S
C184 C183 1.391 . S
C184 C185 1.399 . S
C185 C184 1.399 . S
C185 C188 1.396 . S
C185 C197 1.453 . S
C185 C198 1.684 . S
H186 C210 0.948 . S
C187 C183 1.397 . S
C187 C188 1.394 . S
C187 C206 1.723 . S
C188 C185 1.396 . S
C188 C187 1.394 . S
C188 C218 1.723 . S
H189 C212 0.947 . S
H190 C213 0.948 . S
H191 C219 0.982 . S
H192 C220 0.979 . S
H193 C220 0.980 . S
H194 C220 0.983 . S
H195 C219 0.979 . S
H196 C219 0.977 . S
C197 C185 1.453 . S
C197 H226 0.982 . S
C197 H227 0.979 . S
C197 H228 0.977 . S
C198 C185 1.684 . S
C198 H223 0.979 . S
C198 H224 0.980 . S
C198 H225 0.983 . S
C199 C200 1.391 . S
C199 C204 1.391 . S
C199 H229 0.948 . S
C200 C199 1.391 . S
C200 C201 1.391 . S
C201 C200 1.391 . S
C201 C202 1.392 . S
C201 H230 0.947 . S
C202 C201 1.392 . S
C202 C203 1.419 . S
C202 H231 0.948 . S
C203 C202 1.419 . S
C203 C204 1.391 . S
C203 C207 1.397 . S
C204 C199 1.391 . S
C204 C203 1.391 . S
C204 C205 1.399 . S
C205 C204 1.399 . S
C205 C206 1.396 . S
C205 C208 1.453 . S
C205 C209 1.684 . S
C206 C187 1.723 . S
C206 C205 1.396 . S
C206 C207 1.394 . S
C207 C203 1.397 . S
C207 C206 1.394 . S
C207 C217 1.723 . S
C208 C205 1.453 . S
C208 H232 0.982 . S
C208 H233 0.979 . S
C208 H234 0.977 . S
C209 C205 1.684 . S
C209 H235 0.979 . S
C209 H236 0.980 . S
C209 H237 0.983 . S
C210 H186 0.948 . S
C210 C211 1.391 . S
C210 C215 1.391 . S
C211 C210 1.391 . S
C211 C212 1.391 . S
C212 H189 0.947 . S
C212 C211 1.391 . S
C212 C213 1.392 . S
C213 H190 0.948 . S
C213 C212 1.392 . S
C213 C214 1.419 . S
C214 C213 1.419 . S
C214 C215 1.391 . S
C214 C218 1.397 . S
C215 C210 1.391 . S
C215 C214 1.391 . S
C215 C216 1.399 . S
C216 C215 1.399 . S
C216 C217 1.396 . S
C216 C219 1.453 . S
C216 C220 1.684 . S
C217 C207 1.723 . S
C217 C216 1.396 . S
C217 C218 1.394 . S
C218 C188 1.723 . S
C218 C214 1.397 . S
C218 C217 1.394 . S
C219 H191 0.982 . S
C219 H195 0.979 . S
C219 H196 0.977 . S
C219 C216 1.453 . S
C220 H192 0.979 . S
C220 H193 0.980 . S
C220 H194 0.983 . S
C220 C216 1.684 . S
H221 C239 0.948 . S
H222 C180 0.948 . S
H223 C198 0.979 . S
H224 C198 0.980 . S
H225 C198 0.983 . S
H226 C197 0.982 . S
H227 C197 0.979 . S
H228 C197 0.977 . S
H229 C199 0.948 . S
H230 C201 0.947 . S
H231 C202 0.948 . S
H232 C208 0.982 . S
H233 C208 0.979 . S
H234 C208 0.977 . S
H235 C209 0.979 . S
H236 C209 0.980 . S
H237 C209 0.983 . S
H238 C182 0.947 . S
C239 C182 1.392 . S
C239 C183 1.419 . S
C239 H221 0.948 . S
C240 C241 1.391 . S
C240 C244 1.391 . S
C240 H282 0.948 . S
C241 C240 1.391 . S
C241 C242 1.391 . S
C242 C241 1.391 . S
C242 H298 0.947 . S
C242 C299 1.392 . S
C243 C244 1.391 . S
C243 C247 1.397 . S
C243 C299 1.419 . S
C244 C240 1.391 . S
C244 C243 1.391 . S
C244 C245 1.399 . S
C245 C244 1.399 . S
C245 C248 1.396 . S
C245 C257 1.453 . S
C245 C258 1.684 . S
H246 C270 0.948 . S
C247 C243 1.397 . S
C247 C248 1.394 . S
C247 C266 1.723 . S
C248 C245 1.396 . S
C248 C247 1.394 . S
C248 C278 1.723 . S
H249 C272 0.947 . S
H250 C273 0.948 . S
H251 C279 0.982 . S
H252 C280 0.979 . S
H253 C280 0.980 . S
H254 C280 0.983 . S
H255 C279 0.979 . S
H256 C279 0.977 . S
C257 C245 1.453 . S
C257 H286 0.982 . S
C257 H287 0.979 . S
C257 H288 0.977 . S
C258 C245 1.684 . S
C258 H283 0.979 . S
C258 H284 0.980 . S
C258 H285 0.983 . S
C259 C260 1.391 . S
C259 C264 1.391 . S
C259 H289 0.948 . S
C260 C259 1.391 . S
C260 C261 1.391 . S
C261 C260 1.391 . S
C261 C262 1.392 . S
C261 H290 0.947 . S
C262 C261 1.392 . S
C262 C263 1.419 . S
C262 H291 0.948 . S
C263 C262 1.419 . S
C263 C264 1.391 . S
C263 C267 1.397 . S
C264 C259 1.391 . S
C264 C263 1.391 . S
C264 C265 1.399 . S
C265 C264 1.399 . S
C265 C266 1.396 . S
C265 C268 1.453 . S
C265 C269 1.684 . S
C266 C247 1.723 . S
C266 C265 1.396 . S
C266 C267 1.394 . S
C267 C263 1.397 . S
C267 C266 1.394 . S
C267 C277 1.723 . S
C268 C265 1.453 . S
C268 H292 0.982 . S
C268 H293 0.979 . S
C268 H294 0.977 . S
C269 C265 1.684 . S
C269 H295 0.979 . S
C269 H296 0.980 . S
C269 H297 0.983 . S
C270 H246 0.948 . S
C270 C271 1.391 . S
C270 C275 1.391 . S
C271 C270 1.391 . S
C271 C272 1.391 . S
C272 H249 0.947 . S
C272 C271 1.391 . S
C272 C273 1.392 . S
C273 H250 0.948 . S
C273 C272 1.392 . S
C273 C274 1.419 . S
C274 C273 1.419 . S
C274 C275 1.391 . S
C274 C278 1.397 . S
C275 C270 1.391 . S
C275 C274 1.391 . S
C275 C276 1.399 . S
C276 C275 1.399 . S
C276 C277 1.396 . S
C276 C279 1.453 . S
C276 C280 1.684 . S
C277 C267 1.723 . S
C277 C276 1.396 . S
C277 C278 1.394 . S
C278 C248 1.723 . S
C278 C274 1.397 . S
C278 C277 1.394 . S
C279 H251 0.982 . S
C279 H255 0.979 . S
C279 H256 0.977 . S
C279 C276 1.453 . S
C280 H252 0.979 . S
C280 H253 0.980 . S
C280 H254 0.983 . S
C280 C276 1.684 . S
H281 C299 0.948 . S
H282 C240 0.948 . S
H283 C258 0.979 . S
H284 C258 0.980 . S
H285 C258 0.983 . S
H286 C257 0.982 . S
H287 C257 0.979 . S
H288 C257 0.977 . S
H289 C259 0.948 . S
H290 C261 0.947 . S
H291 C262 0.948 . S
H292 C268 0.982 . S
H293 C268 0.979 . S
H294 C268 0.977 . S
H295 C269 0.979 . S
H296 C269 0.980 . S
H297 C269 0.983 . S
H298 C242 0.947 . S
C299 C242 1.392 . S
C299 C243 1.419 . S
C299 H281 0.948 . S
C300 C301 1.391 . S
C300 C304 1.391 . S
C300 H342 0.948 . S
C301 C300 1.391 . S
C301 C302 1.391 . S
C302 C301 1.391 . S
C302 H358 0.947 . S
C302 C359 1.392 . S
C303 C304 1.391 . S
C303 C307 1.397 . S
C303 C359 1.419 . S
C304 C300 1.391 . S
C304 C303 1.391 . S
C304 C305 1.399 . S
C305 C304 1.399 . S
C305 C308 1.396 . S
C305 C317 1.453 . S
C305 C318 1.684 . S
H306 C330 0.948 . S
C307 C303 1.397 . S
C307 C308 1.394 . S
C307 C326 1.723 . S
C308 C305 1.396 . S
C308 C307 1.394 . S
C308 C338 1.723 . S
H309 C332 0.947 . S
H310 C333 0.948 . S
H311 C339 0.982 . S
H312 C340 0.979 . S
H313 C340 0.980 . S
H314 C340 0.983 . S
H315 C339 0.979 . S
H316 C339 0.977 . S
C317 C305 1.453 . S
C317 H346 0.982 . S
C317 H347 0.979 . S
C317 H348 0.977 . S
C318 C305 1.684 . S
C318 H343 0.979 . S
C318 H344 0.980 . S
C318 H345 0.983 . S
C319 C320 1.391 . S
C319 C324 1.391 . S
C319 H349 0.948 . S
C320 C319 1.391 . S
C320 C321 1.391 . S
C321 C320 1.391 . S
C321 C322 1.392 . S
C321 H350 0.947 . S
C322 C321 1.392 . S
C322 C323 1.419 . S
C322 H351 0.948 . S
C323 C322 1.419 . S
C323 C324 1.391 . S
C323 C327 1.397 . S
C324 C319 1.391 . S
C324 C323 1.391 . S
C324 C325 1.399 . S
C325 C324 1.399 . S
C325 C326 1.396 . S
C325 C328 1.453 . S
C325 C329 1.684 . S
C326 C307 1.723 . S
C326 C325 1.396 . S
C326 C327 1.394 . S
C327 C323 1.397 . S
C327 C326 1.394 . S
C327 C337 1.723 . S
C328 C325 1.453 . S
C328 H352 0.982 . S
C328 H353 0.979 . S
C328 H354 0.977 . S
C329 C325 1.684 . S
C329 H355 0.979 . S
C329 H356 0.980 . S
C329 H357 0.983 . S
C330 H306 0.948 . S
C330 C331 1.391 . S
C330 C335 1.391 . S
C331 C330 1.391 . S
C331 C332 1.391 . S
C332 H309 0.947 . S
C332 C331 1.391 . S
C332 C333 1.392 . S
C333 H310 0.948 . S
C333 C332 1.392 . S
C333 C334 1.419 . S
C334 C333 1.419 . S
C334 C335 1.391 . S
C334 C338 1.397 . S
C335 C330 1.391 . S
C335 C334 1.391 . S
C335 C336 1.399 . S
C336 C335 1.399 . S
C336 C337 1.396 . S
C336 C339 1.453 . S
C336 C340 1.684 . S
C337 C327 1.723 . S
C337 C336 1.396 . S
C337 C338 1.394 . S
C338 C308 1.723 . S
C338 C334 1.397 . S
C338 C337 1.394 . S
C339 H311 0.982 . S
C339 H315 0.979 . S
C339 H316 0.977 . S
C339 C336 1.453 . S
C340 H312 0.979 . S
C340 H313 0.980 . S
C340 H314 0.983 . S
C340 C336 1.684 . S
H341 C359 0.948 . S
H342 C300 0.948 . S
H343 C318 0.979 . S
H344 C318 0.980 . S
H345 C318 0.983 . S
H346 C317 0.982 . S
H347 C317 0.979 . S
H348 C317 0.977 . S
H349 C319 0.948 . S
H350 C321 0.947 . S
H351 C322 0.948 . S
H352 C328 0.982 . S
H353 C328 0.979 . S
H354 C328 0.977 . S
H355 C329 0.979 . S
H356 C329 0.980 . S
H357 C329 0.983 . S
H358 C302 0.947 . S
C359 C302 1.392 . S
C359 C303 1.419 . S
C359 H341 0.948 . S
C360 C361 1.391 . S
C360 C364 1.391 . S
C360 H402 0.948 . S
C361 C360 1.391 . S
C361 C362 1.391 . S
C362 C361 1.391 . S
C362 H418 0.947 . S
C362 C419 1.392 . S
C363 C364 1.391 . S
C363 C367 1.397 . S
C363 C419 1.419 . S
C364 C360 1.391 . S
C364 C363 1.391 . S
C364 C365 1.399 . S
C365 C364 1.399 . S
C365 C368 1.396 . S
C365 C377 1.453 . S
C365 C378 1.684 . S
H366 C390 0.948 . S
C367 C363 1.397 . S
C367 C368 1.394 . S
C367 C386 1.723 . S
C368 C365 1.396 . S
C368 C367 1.394 . S
C368 C398 1.723 . S
H369 C392 0.947 . S
H370 C393 0.948 . S
H371 C399 0.982 . S
H372 C400 0.979 . S
H373 C400 0.980 . S
H374 C400 0.983 . S
H375 C399 0.979 . S
H376 C399 0.977 . S
C377 C365 1.453 . S
C377 H406 0.982 . S
C377 H407 0.979 . S
C377 H408 0.977 . S
C378 C365 1.684 . S
C378 H403 0.979 . S
C378 H404 0.980 . S
C378 H405 0.983 . S
C379 C380 1.391 . S
C379 C384 1.391 . S
C379 H409 0.948 . S
C380 C379 1.391 . S
C380 C381 1.391 . S
C381 C380 1.391 . S
C381 C382 1.392 . S
C381 H410 0.947 . S
C382 C381 1.392 . S
C382 C383 1.419 . S
C382 H411 0.948 . S
C383 C382 1.419 . S
C383 C384 1.391 . S
C383 C387 1.397 . S
C384 C379 1.391 . S
C384 C383 1.391 . S
C384 C385 1.399 . S
C385 C384 1.399 . S
C385 C386 1.396 . S
C385 C388 1.453 . S
C385 C389 1.684 . S
C386 C367 1.723 . S
C386 C385 1.396 . S
C386 C387 1.394 . S
C387 C383 1.397 . S
C387 C386 1.394 . S
C387 C397 1.723 . S
C388 C385 1.453 . S
C388 H412 0.982 . S
C388 H413 0.979 . S
C388 H414 0.977 . S
C389 C385 1.684 . S
C389 H415 0.979 . S
C389 H416 0.980 . S
C389 H417 0.983 . S
C390 H366 0.948 . S
C390 C391 1.391 . S
C390 C395 1.391 . S
C391 C390 1.391 . S
C391 C392 1.391 . S
C392 H369 0.947 . S
C392 C391 1.391 . S
C392 C393 1.392 . S
C393 H370 0.948 . S
C393 C392 1.392 . S
C393 C394 1.419 . S
C394 C393 1.419 . S
C394 C395 1.391 . S
C394 C398 1.397 . S
C395 C390 1.391 . S
C395 C394 1.391 . S
C395 C396 1.399 . S
C396 C395 1.399 . S
C396 C397 1.396 . S
C396 C399 1.453 . S
C396 C400 1.684 . S
C397 C387 1.723 . S
C397 C396 1.396 . S
C397 C398 1.394 . S
C398 C368 1.723 . S
C398 C394 1.397 . S
C398 C397 1.394 . S
C399 H371 0.982 . S
C399 H375 0.979 . S
C399 H376 0.977 . S
C399 C396 1.453 . S
C400 H372 0.979 . S
C400 H373 0.980 . S
C400 H374 0.983 . S
C400 C396 1.684 . S
H401 C419 0.948 . S
H402 C360 0.948 . S
H403 C378 0.979 . S
H404 C378 0.980 . S
H405 C378 0.983 . S
H406 C377 0.982 . S
H407 C377 0.979 . S
H408 C377 0.977 . S
H409 C379 0.948 . S
H410 C381 0.947 . S
H411 C382 0.948 . S
H412 C388 0.982 . S
H413 C388 0.979 . S
H414 C388 0.977 . S
H415 C389 0.979 . S
H416 C389 0.980 . S
H417 C389 0.983 . S
H418 C362 0.947 . S
C419 C362 1.392 . S
C419 C363 1.419 . S
C419 H401 0.948 . S
C420 C421 1.391 . S
C420 C424 1.391 . S
C420 H462 0.948 . S
C421 C420 1.391 . S
C421 C422 1.391 . S
C422 C421 1.391 . S
C422 H478 0.947 . S
C422 C479 1.392 . S
C423 C424 1.391 . S
C423 C427 1.397 . S
C423 C479 1.419 . S
C424 C420 1.391 . S
C424 C423 1.391 . S
C424 C425 1.399 . S
C425 C424 1.399 . S
C425 C428 1.396 . S
C425 C437 1.453 . S
C425 C438 1.684 . S
H426 C450 0.948 . S
C427 C423 1.397 . S
C427 C428 1.394 . S
C427 C446 1.723 . S
C428 C425 1.396 . S
C428 C427 1.394 . S
C428 C458 1.723 . S
H429 C452 0.947 . S
H430 C453 0.948 . S
H431 C459 0.982 . S
H432 C460 0.979 . S
H433 C460 0.980 . S
H434 C460 0.983 . S
H435 C459 0.979 . S
H436 C459 0.977 . S
C437 C425 1.453 . S
C437 H466 0.982 . S
C437 H467 0.979 . S
C437 H468 0.977 . S
C438 C425 1.684 . S
C438 H463 0.979 . S
C438 H464 0.980 . S
C438 H465 0.983 . S
C439 C440 1.391 . S
C439 C444 1.391 . S
C439 H469 0.948 . S
C440 C439 1.391 . S
C440 C441 1.391 . S
C441 C440 1.391 . S
C441 C442 1.392 . S
C441 H470 0.947 . S
C442 C441 1.392 . S
C442 C443 1.419 . S
C442 H471 0.948 . S
C443 C442 1.419 . S
C443 C444 1.391 . S
C443 C447 1.397 . S
C444 C439 1.391 . S
C444 C443 1.391 . S
C444 C445 1.399 . S
C445 C444 1.399 . S
C445 C446 1.396 . S
C445 C448 1.453 . S
C445 C449 1.684 . S
C446 C427 1.723 . S
C446 C445 1.396 . S
C446 C447 1.394 . S
C447 C443 1.397 . S
C447 C446 1.394 . S
C447 C457 1.723 . S
C448 C445 1.453 . S
C448 H472 0.982 . S
C448 H473 0.979 . S
C448 H474 0.977 . S
C449 C445 1.684 . S
C449 H475 0.979 . S
C449 H476 0.980 . S
C449 H477 0.983 . S
C450 H426 0.948 . S
C450 C451 1.391 . S
C450 C455 1.391 . S
C451 C450 1.391 . S
C451 C452 1.391 . S
C452 H429 0.947 . S
C452 C451 1.391 . S
C452 C453 1.392 . S
C453 H430 0.948 . S
C453 C452 1.392 . S
C453 C454 1.419 . S
C454 C453 1.419 . S
C454 C455 1.391 . S
C454 C458 1.397 . S
C455 C450 1.391 . S
C455 C454 1.391 . S
C455 C456 1.399 . S
C456 C455 1.399 . S
C456 C457 1.396 . S
C456 C459 1.453 . S
C456 C460 1.684 . S
C457 C447 1.723 . S
C457 C456 1.396 . S
C457 C458 1.394 . S
C458 C428 1.723 . S
C458 C454 1.397 . S
C458 C457 1.394 . S
C459 H431 0.982 . S
C459 H435 0.979 . S
C459 H436 0.977 . S
C459 C456 1.453 . S
C460 H432 0.979 . S
C460 H433 0.980 . S
C460 H434 0.983 . S
C460 C456 1.684 . S
H461 C479 0.948 . S
H462 C420 0.948 . S
H463 C438 0.979 . S
H464 C438 0.980 . S
H465 C438 0.983 . S
H466 C437 0.982 . S
H467 C437 0.979 . S
H468 C437 0.977 . S
H469 C439 0.948 . S
H470 C441 0.947 . S
H471 C442 0.948 . S
H472 C448 0.982 . S
H473 C448 0.979 . S
H474 C448 0.977 . S
H475 C449 0.979 . S
H476 C449 0.980 . S
H477 C449 0.983 . S
H478 C422 0.947 . S
C479 C422 1.392 . S
C479 C423 1.419 . S
C479 H461 0.948 . S
Zn480 O486 1.969 1_545 S
Zn480 O487 1.965 1_545 S
Zn480 O491 2.024 . S
Zn480 O496 1.969 . S
Zn481 O488 1.969 . S
Zn481 O494 1.969 1_565 S
Zn481 O495 1.965 1_565 S
Zn481 O497 2.024 . S
C482 O483 1.229 . S
C482 O491 1.058 . S
O483 C482 1.229 . S
C484 O485 1.229 . S
C484 O497 1.058 . S
O485 C484 1.229 . S
O486 Zn480 1.969 1_565 S
O486 C489 1.267 . S
O487 Zn480 1.965 1_565 S
O487 C498 1.260 1_455 S
O488 Zn481 1.969 . S
O488 C498 1.258 . S
C489 O486 1.267 . S
C489 O490 1.228 . S
O490 C489 1.228 . S
O491 Zn480 2.024 . S
O491 C482 1.058 . S
C492 O493 1.228 . S
C492 O494 1.267 . S
O493 C492 1.228 . S
O494 Zn481 1.969 1_545 S
O494 C492 1.267 . S
O495 Zn481 1.965 1_545 S
O495 C499 1.260 1_655 S
O496 Zn480 1.969 . S
O496 C499 1.258 . S
O497 Zn481 2.024 . S
O497 C484 1.058 . S
C498 O487 1.260 1_655 S
C498 O488 1.258 . S
C499 O495 1.260 1_455 S
C499 O496 1.258 . S
Zn500 O506 1.969 . S
Zn500 O507 1.965 1_565 S
Zn500 O511 2.024 . S
Zn500 O516 1.969 . S
Zn501 O508 1.969 . S
Zn501 O514 1.969 . S
Zn501 O515 1.965 1_545 S
Zn501 O517 2.024 . S
C502 O503 1.229 . S
C502 O511 1.058 . S
O503 C502 1.229 . S
C504 O505 1.229 . S
C504 O517 1.058 . S
O505 C504 1.229 . S
O506 Zn500 1.969 . S
O506 C509 1.267 . S
O507 Zn500 1.965 1_545 S
O507 C518 1.260 . S
O508 Zn501 1.969 . S
O508 C518 1.258 1_554 S
C509 O506 1.267 . S
C509 O510 1.228 . S
O510 C509 1.228 . S
O511 Zn500 2.024 . S
O511 C502 1.058 . S
C512 O513 1.228 . S
C512 O514 1.267 . S
O513 C512 1.228 . S
O514 Zn501 1.969 . S
O514 C512 1.267 . S
O515 Zn501 1.965 1_565 S
O515 C519 1.260 . S
O516 Zn500 1.969 . S
O516 C519 1.258 1_556 S
O517 Zn501 2.024 . S
O517 C504 1.058 . S
C518 O507 1.260 . S
C518 O508 1.258 1_556 S
C519 O515 1.260 . S
C519 O516 1.258 1_554 S
Zn520 O526 1.969 . S
Zn520 O527 1.965 . S
Zn520 O531 2.024 . S
Zn520 O536 1.969 . S
Zn521 O528 1.969 . S
Zn521 O534 1.969 . S
Zn521 O535 1.965 . S
Zn521 O537 2.024 . S
C522 O523 1.229 . S
C522 O531 1.058 . S
O523 C522 1.229 . S
C524 O525 1.229 . S
C524 O537 1.058 . S
O525 C524 1.229 . S
O526 Zn520 1.969 . S
O526 C529 1.267 . S
O527 Zn520 1.965 . S
O527 C538 1.260 . S
O528 Zn521 1.969 . S
O528 C538 1.258 . S
C529 O526 1.267 . S
C529 O530 1.228 . S
O530 C529 1.228 . S
O531 Zn520 2.024 . S
O531 C522 1.058 . S
C532 O533 1.228 . S
C532 O534 1.267 . S
O533 C532 1.228 . S
O534 Zn521 1.969 . S
O534 C532 1.267 . S
O535 Zn521 1.965 . S
O535 C539 1.260 . S
O536 Zn520 1.969 . S
O536 C539 1.258 . S
O537 Zn521 2.024 . S
O537 C524 1.058 . S
C538 O527 1.260 . S
C538 O528 1.258 . S
C539 O535 1.260 . S
C539 O536 1.258 . S
Zn540 O546 1.969 . S
Zn540 O547 1.965 1_556 S
Zn540 O551 2.024 . S
Zn540 O556 1.985 . S
Zn541 O548 1.999 . S
Zn541 O554 1.969 . S
Zn541 O555 1.965 1_554 S
Zn541 O557 2.024 . S
C542 O543 1.229 . S
C542 O551 1.058 . S
O543 C542 1.229 . S
C544 O545 1.229 . S
C544 O557 1.058 . S
O545 C544 1.229 . S
O546 Zn540 1.969 . S
O546 C549 1.267 . S
O547 Zn540 1.965 1_554 S
O547 C558 1.260 . S
O548 Zn541 1.999 . S
O548 C558 1.229 1_455 S
C549 O546 1.267 . S
C549 O550 1.228 . S
O550 C549 1.228 . S
O551 Zn540 2.024 . S
O551 C542 1.058 . S
C552 O553 1.228 . S
C552 O554 1.267 . S
O553 C552 1.228 . S
O554 Zn541 1.969 . S
O554 C552 1.267 . S
O555 Zn541 1.965 1_556 S
O555 C559 1.260 . S
O556 Zn540 1.985 . S
O556 C559 1.242 1_655 S
O557 Zn541 2.024 . S
O557 C544 1.058 . S
C558 O547 1.260 . S
C558 O548 1.229 1_655 S
C559 O555 1.260 . S
C559 O556 1.242 1_455 S
H560 C568 0.950 . S
H561 C573 0.950 . S
H562 C570 0.950 . S
H563 C572 0.950 . S
H564 C574 0.950 . S
H565 C576 0.950 . S
H566 C578 0.950 . S
H567 C579 0.950 . S
C568 H560 0.950 . S
C568 C569 1.386 . S
C568 C570 1.391 . S
C569 C568 1.386 . S
C569 C573 1.393 . S
C570 H562 0.950 . S
C570 C568 1.391 . S
C570 C571 1.400 . S
C571 C570 1.400 . S
C571 C572 1.398 . S
C571 C577 1.491 . S
C572 H563 0.950 . S
C572 C571 1.398 . S
C572 C573 1.391 . S
C573 H561 0.950 . S
C573 C569 1.393 . S
C573 C572 1.391 . S
C574 H564 0.950 . S
C574 C575 1.386 . S
C574 C576 1.391 . S
C575 C574 1.386 . S
C575 C579 1.393 . S
C576 H565 0.950 . S
C576 C574 1.391 . S
C576 C577 1.400 . S
C577 C571 1.491 . S
C577 C576 1.400 . S
C577 C578 1.398 . S
C578 H566 0.950 . S
C578 C577 1.398 . S
C578 C579 1.391 . S
C579 H567 0.950 . S
C579 C575 1.393 . S
C579 C578 1.391 . S
H580 C588 0.950 . S
H581 C593 0.950 . S
H582 C590 0.950 . S
H583 C592 0.950 . S
H584 C594 0.950 . S
H585 C596 0.950 . S
H586 C598 0.950 . S
H587 C599 0.950 . S
C588 H580 0.950 . S
C588 C589 1.386 . S
C588 C590 1.391 . S
C589 C588 1.386 . S
C589 C593 1.393 . S
C590 H582 0.950 . S
C590 C588 1.391 . S
C590 C591 1.400 . S
C591 C590 1.400 . S
C591 C592 1.398 . S
C591 C597 1.491 . S
C592 H583 0.950 . S
C592 C591 1.398 . S
C592 C593 1.391 . S
C593 H581 0.950 . S
C593 C589 1.393 . S
C593 C592 1.391 . S
C594 H584 0.950 . S
C594 C595 1.386 . S
C594 C596 1.391 . S
C595 C594 1.386 . S
C595 C599 1.393 . S
C596 H585 0.950 . S
C596 C594 1.391 . S
C596 C597 1.400 . S
C597 C591 1.491 . S
C597 C596 1.400 . S
C597 C598 1.398 . S
C598 H586 0.950 . S
C598 C597 1.398 . S
C598 C599 1.391 . S
C599 H587 0.950 . S
C599 C595 1.393 . S
C599 C598 1.391 . S
H600 C608 0.950 . S
H601 C613 0.950 . S
H602 C610 0.950 . S
H603 C612 0.950 . S
H604 C614 0.950 . S
H605 C616 0.950 . S
H606 C618 0.950 . S
H607 C619 0.950 . S
C608 H600 0.950 . S
C608 C609 1.386 . S
C608 C610 1.391 . S
C609 C608 1.386 . S
C609 C613 1.393 . S
C610 H602 0.950 . S
C610 C608 1.391 . S
C610 C611 1.400 . S
C611 C610 1.400 . S
C611 C612 1.398 . S
C611 C617 1.491 . S
C612 H603 0.950 . S
C612 C611 1.398 . S
C612 C613 1.391 . S
C613 H601 0.950 . S
C613 C609 1.393 . S
C613 C612 1.391 . S
C614 H604 0.950 . S
C614 C615 1.386 . S
C614 C616 1.391 . S
C615 C614 1.386 . S
C615 C619 1.393 . S
C616 H605 0.950 . S
C616 C614 1.391 . S
C616 C617 1.400 . S
C617 C611 1.491 . S
C617 C616 1.400 . S
C617 C618 1.398 . S
C618 H606 0.950 . S
C618 C617 1.398 . S
C618 C619 1.391 . S
C619 H607 0.950 . S
C619 C615 1.393 . S
C619 C618 1.391 . S
H620 C628 0.950 . S
H621 C633 0.950 . S
H622 C630 0.950 . S
H623 C632 0.950 . S
H624 C634 0.950 . S
H625 C636 0.950 . S
H626 C638 0.950 . S
H627 C639 0.950 . S
C628 H620 0.950 . S
C628 C629 1.386 . S
C628 C630 1.391 . S
C629 C628 1.386 . S
C629 C633 1.393 . S
C630 H622 0.950 . S
C630 C628 1.391 . S
C630 C631 1.400 . S
C631 C630 1.400 . S
C631 C632 1.398 . S
C631 C637 1.491 . S
C632 H623 0.950 . S
C632 C631 1.398 . S
C632 C633 1.391 . S
C633 H621 0.950 . S
C633 C629 1.393 . S
C633 C632 1.391 . S
C634 H624 0.950 . S
C634 C635 1.386 . S
C634 C636 1.391 . S
C635 C634 1.386 . S
C635 C639 1.393 . S
C636 H625 0.950 . S
C636 C634 1.391 . S
C636 C637 1.400 . S
C637 C631 1.491 . S
C637 C636 1.400 . S
C637 C638 1.398 . S
C638 H626 0.950 . S
C638 C637 1.398 . S
C638 C639 1.391 . S
C639 H627 0.950 . S
C639 C635 1.393 . S
C639 C638 1.391 . S
H640 C648 0.950 . S
H641 C653 0.950 . S
H642 C650 0.950 . S
H643 C652 0.950 . S
H644 C654 0.950 . S
H645 C656 0.950 . S
H646 C658 0.950 . S
H647 C659 0.950 . S
C648 H640 0.950 . S
C648 C649 1.386 . S
C648 C650 1.391 . S
C649 C648 1.386 . S
C649 C653 1.393 . S
C650 H642 0.950 . S
C650 C648 1.391 . S
C650 C651 1.400 . S
C651 C650 1.400 . S
C651 C652 1.398 . S
C651 C657 1.491 . S
C652 H643 0.950 . S
C652 C651 1.398 . S
C652 C653 1.391 . S
C653 H641 0.950 . S
C653 C649 1.393 . S
C653 C652 1.391 . S
C654 H644 0.950 . S
C654 C655 1.386 . S
C654 C656 1.391 . S
C655 C654 1.386 . S
C655 C659 1.393 . S
C656 H645 0.950 . S
C656 C654 1.391 . S
C656 C657 1.400 . S
C657 C651 1.491 . S
C657 C656 1.400 . S
C657 C658 1.398 . S
C658 H646 0.950 . S
C658 C657 1.398 . S
C658 C659 1.391 . S
C659 H647 0.950 . S
C659 C655 1.393 . S
C659 C658 1.391 . S
H660 C668 0.950 . S
H661 C673 0.950 . S
H662 C670 0.950 . S
H663 C672 0.950 . S
H664 C674 0.950 . S
H665 C676 0.950 . S
H666 C678 0.950 . S
H667 C679 0.950 . S
C668 H660 0.950 . S
C668 C669 1.386 . S
C668 C670 1.391 . S
C669 C668 1.386 . S
C669 C673 1.393 . S
C670 H662 0.950 . S
C670 C668 1.391 . S
C670 C671 1.400 . S
C671 C670 1.400 . S
C671 C672 1.398 . S
C671 C677 1.491 . S
C672 H663 0.950 . S
C672 C671 1.398 . S
C672 C673 1.391 . S
C673 H661 0.950 . S
C673 C669 1.393 . S
C673 C672 1.391 . S
C674 H664 0.950 . S
C674 C675 1.386 . S
C674 C676 1.391 . S
C675 C674 1.386 . S
C675 C679 1.393 . S
C676 H665 0.950 . S
C676 C674 1.391 . S
C676 C677 1.400 . S
C677 C671 1.491 . S
C677 C676 1.400 . S
C677 C678 1.398 . S
C678 H666 0.950 . S
C678 C677 1.398 . S
C678 C679 1.391 . S
C679 H667 0.950 . S
C679 C675 1.393 . S
C679 C678 1.391 . S
H680 C688 0.950 . S
H681 C693 0.950 . S
H682 C690 0.950 . S
H683 C692 0.950 . S
H684 C694 0.950 . S
H685 C696 0.950 . S
H686 C698 0.950 . S
H687 C699 0.950 . S
C688 H680 0.950 . S
C688 C689 1.386 . S
C688 C690 1.391 . S
C689 C688 1.386 . S
C689 C693 1.393 . S
C690 H682 0.950 . S
C690 C688 1.391 . S
C690 C691 1.400 . S
C691 C690 1.400 . S
C691 C692 1.398 . S
C691 C697 1.491 . S
C692 H683 0.950 . S
C692 C691 1.398 . S
C692 C693 1.391 . S
C693 H681 0.950 . S
C693 C689 1.393 . S
C693 C692 1.391 . S
C694 H684 0.950 . S
C694 C695 1.386 . S
C694 C696 1.391 . S
C695 C694 1.386 . S
C695 C699 1.393 . S
C696 H685 0.950 . S
C696 C694 1.391 . S
C696 C697 1.400 . S
C697 C691 1.491 . S
C697 C696 1.400 . S
C697 C698 1.398 . S
C698 H686 0.950 . S
C698 C697 1.398 . S
C698 C699 1.391 . S
C699 H687 0.950 . S
C699 C695 1.393 . S
C699 C698 1.391 . S
H700 C708 0.950 . S
H701 C713 0.950 . S
H702 C710 0.950 . S
H703 C712 0.950 . S
H704 C714 0.950 . S
H705 C716 0.950 . S
H706 C718 0.950 . S
H707 C719 0.950 . S
C708 H700 0.950 . S
C708 C709 1.386 . S
C708 C710 1.391 . S
C709 C708 1.386 . S
C709 C713 1.393 . S
C710 H702 0.950 . S
C710 C708 1.391 . S
C710 C711 1.400 . S
C711 C710 1.400 . S
C711 C712 1.398 . S
C711 C717 1.491 . S
C712 H703 0.950 . S
C712 C711 1.398 . S
C712 C713 1.391 . S
C713 H701 0.950 . S
C713 C709 1.393 . S
C713 C712 1.391 . S
C714 H704 0.950 . S
C714 C715 1.386 . S
C714 C716 1.391 . S
C715 C714 1.386 . S
C715 C719 1.393 . S
C716 H705 0.950 . S
C716 C714 1.391 . S
C716 C717 1.400 . S
C717 C711 1.491 . S
C717 C716 1.400 . S
C717 C718 1.398 . S
C718 H706 0.950 . S
C718 C717 1.398 . S
C718 C719 1.391 . S
C719 H707 0.950 . S
C719 C715 1.393 . S
C719 C718 1.391 . S
H720 C728 0.950 . S
H721 C733 0.950 . S
H722 C730 0.950 . S
H723 C732 0.950 . S
H724 C734 0.950 . S
H725 C736 0.950 . S
H726 C738 0.950 . S
H727 C739 0.950 . S
C728 H720 0.950 . S
C728 C729 1.386 . S
C728 C730 1.391 . S
C729 C728 1.386 . S
C729 C733 1.393 . S
C730 H722 0.950 . S
C730 C728 1.391 . S
C730 C731 1.400 . S
C731 C730 1.400 . S
C731 C732 1.398 . S
C731 C737 1.491 . S
C732 H723 0.950 . S
C732 C731 1.398 . S
C732 C733 1.391 . S
C733 H721 0.950 . S
C733 C729 1.393 . S
C733 C732 1.391 . S
C734 H724 0.950 . S
C734 C735 1.386 . S
C734 C736 1.391 . S
C735 C734 1.386 . S
C735 C739 1.393 . S
C736 H725 0.950 . S
C736 C734 1.391 . S
C736 C737 1.400 . S
C737 C731 1.491 . S
C737 C736 1.400 . S
C737 C738 1.398 . S
C738 H726 0.950 . S
C738 C737 1.398 . S
C738 C739 1.391 . S
C739 H727 0.950 . S
C739 C735 1.393 . S
C739 C738 1.391 . S
H740 C748 0.950 . S
H741 C753 0.950 . S
H742 C750 0.950 . S
H743 C752 0.950 . S
H744 C754 0.950 . S
H745 C756 0.950 . S
H746 C758 0.950 . S
H747 C759 0.950 . S
C748 H740 0.950 . S
C748 C749 1.386 . S
C748 C750 1.391 . S
C749 C748 1.386 . S
C749 C753 1.393 . S
C750 H742 0.950 . S
C750 C748 1.391 . S
C750 C751 1.400 . S
C751 C750 1.400 . S
C751 C752 1.398 . S
C751 C757 1.491 . S
C752 H743 0.950 . S
C752 C751 1.398 . S
C752 C753 1.391 . S
C753 H741 0.950 . S
C753 C749 1.393 . S
C753 C752 1.391 . S
C754 H744 0.950 . S
C754 C755 1.386 . S
C754 C756 1.391 . S
C755 C754 1.386 . S
C755 C759 1.393 . S
C756 H745 0.950 . S
C756 C754 1.391 . S
C756 C757 1.400 . S
C757 C751 1.491 . S
C757 C756 1.400 . S
C757 C758 1.398 . S
C758 H746 0.950 . S
C758 C757 1.398 . S
C758 C759 1.391 . S
C759 H747 0.950 . S
C759 C755 1.393 . S
C759 C758 1.391 . S
H760 C768 0.950 . S
H761 C773 0.950 . S
H762 C770 0.950 . S
H763 C772 0.950 . S
H764 C774 0.950 . S
H765 C776 0.950 . S
H766 C778 0.950 . S
H767 C779 0.950 . S
C768 H760 0.950 . S
C768 C769 1.386 . S
C768 C770 1.391 . S
C769 C768 1.386 . S
C769 C773 1.393 . S
C770 H762 0.950 . S
C770 C768 1.391 . S
C770 C771 1.400 . S
C771 C770 1.400 . S
C771 C772 1.398 . S
C771 C777 1.491 . S
C772 H763 0.950 . S
C772 C771 1.398 . S
C772 C773 1.391 . S
C773 H761 0.950 . S
C773 C769 1.393 . S
C773 C772 1.391 . S
C774 H764 0.950 . S
C774 C775 1.386 . S
C774 C776 1.391 . S
C775 C774 1.386 . S
C775 C779 1.393 . S
C776 H765 0.950 . S
C776 C774 1.391 . S
C776 C777 1.400 . S
C777 C771 1.491 . S
C777 C776 1.400 . S
C777 C778 1.398 . S
C778 H766 0.950 . S
C778 C777 1.398 . S
C778 C779 1.391 . S
C779 H767 0.950 . S
C779 C775 1.393 . S
C779 C778 1.391 . S
H780 C788 0.950 . S
H781 C793 0.950 . S
H782 C790 0.950 . S
H783 C792 0.950 . S
H784 C794 0.950 . S
H785 C796 0.950 . S
H786 C798 0.950 . S
H787 C799 0.950 . S
C788 H780 0.950 . S
C788 C789 1.386 . S
C788 C790 1.391 . S
C789 C788 1.386 . S
C789 C793 1.393 . S
C790 H782 0.950 . S
C790 C788 1.391 . S
C790 C791 1.400 . S
C791 C790 1.400 . S
C791 C792 1.398 . S
C791 C797 1.491 . S
C792 H783 0.950 . S
C792 C791 1.398 . S
C792 C793 1.391 . S
C793 H781 0.950 . S
C793 C789 1.393 . S
C793 C792 1.391 . S
C794 H784 0.950 . S
C794 C795 1.386 . S
C794 C796 1.391 . S
C795 C794 1.386 . S
C795 C799 1.393 . S
C796 H785 0.950 . S
C796 C794 1.391 . S
C796 C797 1.400 . S
C797 C791 1.491 . S
C797 C796 1.400 . S
C797 C798 1.398 . S
C798 H786 0.950 . S
C798 C797 1.398 . S
C798 C799 1.391 . S
C799 H787 0.950 . S
C799 C795 1.393 . S
C799 C798 1.391 . S
H800 C808 0.950 . S
H801 C813 0.950 . S
H802 C810 0.950 . S
H803 C812 0.950 . S
H804 C814 0.950 . S
H805 C816 0.950 . S
H806 C818 0.950 . S
H807 C819 0.950 . S
C808 H800 0.950 . S
C808 C809 1.386 . S
C808 C810 1.391 . S
C809 C808 1.386 . S
C809 C813 1.393 . S
C810 H802 0.950 . S
C810 C808 1.391 . S
C810 C811 1.400 . S
C811 C810 1.400 . S
C811 C812 1.398 . S
C811 C817 1.491 . S
C812 H803 0.950 . S
C812 C811 1.398 . S
C812 C813 1.391 . S
C813 H801 0.950 . S
C813 C809 1.393 . S
C813 C812 1.391 . S
C814 H804 0.950 . S
C814 C815 1.386 . S
C814 C816 1.391 . S
C815 C814 1.386 . S
C815 C819 1.393 . S
C816 H805 0.950 . S
C816 C814 1.391 . S
C816 C817 1.400 . S
C817 C811 1.491 . S
C817 C816 1.400 . S
C817 C818 1.398 . S
C818 H806 0.950 . S
C818 C817 1.398 . S
C818 C819 1.391 . S
C819 H807 0.950 . S
C819 C815 1.393 . S
C819 C818 1.391 . S
H820 C828 0.950 . S
H821 C833 0.950 . S
H822 C830 0.950 . S
H823 C832 0.950 . S
H824 C834 0.950 . S
H825 C836 0.950 . S
H826 C838 0.950 . S
H827 C839 0.950 . S
C828 H820 0.950 . S
C828 C829 1.386 . S
C828 C830 1.391 . S
C829 C828 1.386 . S
C829 C833 1.393 . S
C830 H822 0.950 . S
C830 C828 1.391 . S
C830 C831 1.400 . S
C831 C830 1.400 . S
C831 C832 1.398 . S
C831 C837 1.491 . S
C832 H823 0.950 . S
C832 C831 1.398 . S
C832 C833 1.391 . S
C833 H821 0.950 . S
C833 C829 1.393 . S
C833 C832 1.391 . S
C834 H824 0.950 . S
C834 C835 1.386 . S
C834 C836 1.391 . S
C835 C834 1.386 . S
C835 C839 1.393 . S
C836 H825 0.950 . S
C836 C834 1.391 . S
C836 C837 1.400 . S
C837 C831 1.491 . S
C837 C836 1.400 . S
C837 C838 1.398 . S
C838 H826 0.950 . S
C838 C837 1.398 . S
C838 C839 1.391 . S
C839 H827 0.950 . S
C839 C835 1.393 . S
C839 C838 1.391 . S
H840 C848 0.950 . S
H841 C853 0.950 . S
H842 C850 0.950 . S
H843 C852 0.950 . S
H844 C854 0.950 . S
H845 C856 0.950 . S
H846 C858 0.950 . S
H847 C859 0.950 . S
C848 H840 0.950 . S
C848 C849 1.386 . S
C848 C850 1.391 . S
C849 C848 1.386 . S
C849 C853 1.393 . S
C850 H842 0.950 . S
C850 C848 1.391 . S
C850 C851 1.400 . S
C851 C850 1.400 . S
C851 C852 1.398 . S
C851 C857 1.491 . S
C852 H843 0.950 . S
C852 C851 1.398 . S
C852 C853 1.391 . S
C853 H841 0.950 . S
C853 C849 1.393 . S
C853 C852 1.391 . S
C854 H844 0.950 . S
C854 C855 1.386 . S
C854 C856 1.391 . S
C855 C854 1.386 . S
C855 C859 1.393 . S
C856 H845 0.950 . S
C856 C854 1.391 . S
C856 C857 1.400 . S
C857 C851 1.491 . S
C857 C856 1.400 . S
C857 C858 1.398 . S
C858 H846 0.950 . S
C858 C857 1.398 . S
C858 C859 1.391 . S
C859 H847 0.950 . S
C859 C855 1.393 . S
C859 C858 1.391 . S
H860 C868 0.950 . S
H861 C873 0.950 . S
H862 C870 0.950 . S
H863 C872 0.950 . S
H864 C874 0.950 . S
H865 C876 0.950 . S
H866 C878 0.950 . S
H867 C879 0.950 . S
C868 H860 0.950 . S
C868 C869 1.386 . S
C868 C870 1.391 . S
C869 C868 1.386 . S
C869 C873 1.393 . S
C870 H862 0.950 . S
C870 C868 1.391 . S
C870 C871 1.400 . S
C871 C870 1.400 . S
C871 C872 1.398 . S
C871 C877 1.491 . S
C872 H863 0.950 . S
C872 C871 1.398 . S
C872 C873 1.391 . S
C873 H861 0.950 . S
C873 C869 1.393 . S
C873 C872 1.391 . S
C874 H864 0.950 . S
C874 C875 1.386 . S
C874 C876 1.391 . S
C875 C874 1.386 . S
C875 C879 1.393 . S
C876 H865 0.950 . S
C876 C874 1.391 . S
C876 C877 1.400 . S
C877 C871 1.491 . S
C877 C876 1.400 . S
C877 C878 1.398 . S
C878 H866 0.950 . S
C878 C877 1.398 . S
C878 C879 1.391 . S
C879 H867 0.950 . S
C879 C875 1.393 . S
C879 C878 1.391 . S
H880 C888 0.950 . S
H881 C893 0.950 . S
H882 C890 0.950 . S
H883 C892 0.950 . S
H884 C894 0.950 . S
H885 C896 0.950 . S
H886 C898 0.950 . S
H887 C899 0.950 . S
C888 H880 0.950 . S
C888 C889 1.386 . S
C888 C890 1.391 . S
C889 C888 1.386 . S
C889 C893 1.393 . S
C890 H882 0.950 . S
C890 C888 1.391 . S
C890 C891 1.400 . S
C891 C890 1.400 . S
C891 C892 1.398 . S
C891 C897 1.491 . S
C892 H883 0.950 . S
C892 C891 1.398 . S
C892 C893 1.391 . S
C893 H881 0.950 . S
C893 C889 1.393 . S
C893 C892 1.391 . S
C894 H884 0.950 . S
C894 C895 1.386 . S
C894 C896 1.391 . S
C895 C894 1.386 . S
C895 C899 1.393 . S
C896 H885 0.950 . S
C896 C894 1.391 . S
C896 C897 1.400 . S
C897 C891 1.491 . S
C897 C896 1.400 . S
C897 C898 1.398 . S
C898 H886 0.950 . S
C898 C897 1.398 . S
C898 C899 1.391 . S
C899 H887 0.950 . S
C899 C895 1.393 . S
C899 C898 1.391 . S
H900 C908 0.950 . S
H901 C913 0.950 . S
H902 C910 0.950 . S
H903 C912 0.950 . S
H904 C914 0.950 . S
H905 C916 0.950 . S
H906 C918 0.950 . S
H907 C919 0.950 . S
C908 H900 0.950 . S
C908 C909 1.386 . S
C908 C910 1.391 . S
C909 C908 1.386 . S
C909 C913 1.393 . S
C910 H902 0.950 . S
C910 C908 1.391 . S
C910 C911 1.400 . S
C911 C910 1.400 . S
C911 C912 1.398 . S
C911 C917 1.491 . S
C912 H903 0.950 . S
C912 C911 1.398 . S
C912 C913 1.391 . S
C913 H901 0.950 . S
C913 C909 1.393 . S
C913 C912 1.391 . S
C914 H904 0.950 . S
C914 C915 1.386 . S
C914 C916 1.391 . S
C915 C914 1.386 . S
C915 C919 1.393 . S
C916 H905 0.950 . S
C916 C914 1.391 . S
C916 C917 1.400 . S
C917 C911 1.491 . S
C917 C916 1.400 . S
C917 C918 1.398 . S
C918 H906 0.950 . S
C918 C917 1.398 . S
C918 C919 1.391 . S
C919 H907 0.950 . S
C919 C915 1.393 . S
C919 C918 1.391 . S
H920 C928 0.950 . S
H921 C933 0.950 . S
H922 C930 0.950 . S
H923 C932 0.950 . S
H924 C934 0.950 . S
H925 C936 0.950 . S
H926 C938 0.950 . S
H927 C939 0.950 . S
C928 H920 0.950 . S
C928 C929 1.386 . S
C928 C930 1.391 . S
C929 C928 1.386 . S
C929 C933 1.393 . S
C930 H922 0.950 . S
C930 C928 1.391 . S
C930 C931 1.400 . S
C931 C930 1.400 . S
C931 C932 1.398 . S
C931 C937 1.491 . S
C932 H923 0.950 . S
C932 C931 1.398 . S
C932 C933 1.391 . S
C933 H921 0.950 . S
C933 C929 1.393 . S
C933 C932 1.391 . S
C934 H924 0.950 . S
C934 C935 1.386 . S
C934 C936 1.391 . S
C935 C934 1.386 . S
C935 C939 1.393 . S
C936 H925 0.950 . S
C936 C934 1.391 . S
C936 C937 1.400 . S
C937 C931 1.491 . S
C937 C936 1.400 . S
C937 C938 1.398 . S
C938 H926 0.950 . S
C938 C937 1.398 . S
C938 C939 1.391 . S
C939 H927 0.950 . S
C939 C935 1.393 . S
C939 C938 1.391 . S
H940 C948 0.950 . S
H941 C953 0.950 . S
H942 C950 0.950 . S
H943 C952 0.950 . S
H944 C954 0.950 . S
H945 C956 0.950 . S
H946 C958 0.950 . S
H947 C959 0.950 . S
C948 H940 0.950 . S
C948 C949 1.386 . S
C948 C950 1.391 . S
C949 C948 1.386 . S
C949 C953 1.393 . S
C950 H942 0.950 . S
C950 C948 1.391 . S
C950 C951 1.400 . S
C951 C950 1.400 . S
C951 C952 1.398 . S
C951 C957 1.491 . S
C952 H943 0.950 . S
C952 C951 1.398 . S
C952 C953 1.391 . S
C953 H941 0.950 . S
C953 C949 1.393 . S
C953 C952 1.391 . S
C954 H944 0.950 . S
C954 C955 1.386 . S
C954 C956 1.391 . S
C955 C954 1.386 . S
C955 C959 1.393 . S
C956 H945 0.950 . S
C956 C954 1.391 . S
C956 C957 1.400 . S
C957 C951 1.491 . S
C957 C956 1.400 . S
C957 C958 1.398 . S
C958 H946 0.950 . S
C958 C957 1.398 . S
C958 C959 1.391 . S
C959 H947 0.950 . S
C959 C955 1.393 . S
C959 C958 1.391 . S
H960 C968 0.950 . S
H961 C973 0.950 . S
H962 C970 0.950 . S
H963 C972 0.950 . S
H964 C974 0.950 . S
H965 C976 0.950 . S
H966 C978 0.950 . S
H967 C979 0.950 . S
C968 H960 0.950 . S
C968 C969 1.386 . S
C968 C970 1.391 . S
C969 C968 1.386 . S
C969 C973 1.393 . S
C970 H962 0.950 . S
C970 C968 1.391 . S
C970 C971 1.400 . S
C971 C970 1.400 . S
C971 C972 1.398 . S
C971 C977 1.491 . S
C972 H963 0.950 . S
C972 C971 1.398 . S
C972 C973 1.391 . S
C973 H961 0.950 . S
C973 C969 1.393 . S
C973 C972 1.391 . S
C974 H964 0.950 . S
C974 C975 1.386 . S
C974 C976 1.391 . S
C975 C974 1.386 . S
C975 C979 1.393 . S
C976 H965 0.950 . S
C976 C974 1.391 . S
C976 C977 1.400 . S
C977 C971 1.491 . S
C977 C976 1.400 . S
C977 C978 1.398 . S
C978 H966 0.950 . S
C978 C977 1.398 . S
C978 C979 1.391 . S
C979 H967 0.950 . S
C979 C975 1.393 . S
C979 C978 1.391 . S
H980 C988 0.950 . S
H981 C993 0.950 . S
H982 C990 0.950 . S
H983 C992 0.950 . S
H984 C994 0.950 . S
H985 C996 0.950 . S
H986 C998 0.950 . S
H987 C999 0.950 . S
C988 H980 0.950 . S
C988 C989 1.386 . S
C988 C990 1.391 . S
C989 C988 1.386 . S
C989 C993 1.393 . S
C990 H982 0.950 . S
C990 C988 1.391 . S
C990 C991 1.400 . S
C991 C990 1.400 . S
C991 C992 1.398 . S
C991 C997 1.491 . S
C992 H983 0.950 . S
C992 C991 1.398 . S
C992 C993 1.391 . S
C993 H981 0.950 . S
C993 C989 1.393 . S
C993 C992 1.391 . S
C994 H984 0.950 . S
C994 C995 1.386 . S
C994 C996 1.391 . S
C995 C994 1.386 . S
C995 C999 1.393 . S
C996 H985 0.950 . S
C996 C994 1.391 . S
C996 C997 1.400 . S
C997 C991 1.491 . S
C997 C996 1.400 . S
C997 C998 1.398 . S
C998 H986 0.950 . S
C998 C997 1.398 . S
C998 C999 1.391 . S
C999 H987 0.950 . S
C999 C995 1.393 . S
C999 C998 1.391 . S
H1000 C1008 0.950 . S
H1001 C1013 0.950 . S
H1002 C1010 0.950 . S
H1003 C1012 0.950 . S
H1004 C1014 0.950 . S
H1005 C1016 0.950 . S
H1006 C1018 0.950 . S
H1007 C1019 0.950 . S
C1008 H1000 0.950 . S
C1008 C1009 1.386 . S
C1008 C1010 1.391 . S
C1009 C1008 1.386 . S
C1009 C1013 1.393 . S
C1010 H1002 0.950 . S
C1010 C1008 1.391 . S
C1010 C1011 1.400 . S
C1011 C1010 1.400 . S
C1011 C1012 1.398 . S
C1011 C1017 1.491 . S
C1012 H1003 0.950 . S
C1012 C1011 1.398 . S
C1012 C1013 1.391 . S
C1013 H1001 0.950 . S
C1013 C1009 1.393 . S
C1013 C1012 1.391 . S
C1014 H1004 0.950 . S
C1014 C1015 1.386 . S
C1014 C1016 1.391 . S
C1015 C1014 1.386 . S
C1015 C1019 1.393 . S
C1016 H1005 0.950 . S
C1016 C1014 1.391 . S
C1016 C1017 1.400 . S
C1017 C1011 1.491 . S
C1017 C1016 1.400 . S
C1017 C1018 1.398 . S
C1018 H1006 0.950 . S
C1018 C1017 1.398 . S
C1018 C1019 1.391 . S
C1019 H1007 0.950 . S
C1019 C1015 1.393 . S
C1019 C1018 1.391 . S
H1020 C1028 0.950 . S
H1021 C1033 0.950 . S
H1022 C1030 0.950 . S
H1023 C1032 0.950 . S
H1024 C1034 0.950 . S
H1025 C1036 0.950 . S
H1026 C1038 0.950 . S
H1027 C1039 0.950 . S
C1028 H1020 0.950 . S
C1028 C1029 1.386 . S
C1028 C1030 1.391 . S
C1029 C1028 1.386 . S
C1029 C1033 1.393 . S
C1030 H1022 0.950 . S
C1030 C1028 1.391 . S
C1030 C1031 1.400 . S
C1031 C1030 1.400 . S
C1031 C1032 1.398 . S
C1031 C1037 1.491 . S
C1032 H1023 0.950 . S
C1032 C1031 1.398 . S
C1032 C1033 1.391 . S
C1033 H1021 0.950 . S
C1033 C1029 1.393 . S
C1033 C1032 1.391 . S
C1034 H1024 0.950 . S
C1034 C1035 1.386 . S
C1034 C1036 1.391 . S
C1035 C1034 1.386 . S
C1035 C1039 1.393 . S
C1036 H1025 0.950 . S
C1036 C1034 1.391 . S
C1036 C1037 1.400 . S
C1037 C1031 1.491 . S
C1037 C1036 1.400 . S
C1037 C1038 1.398 . S
C1038 H1026 0.950 . S
C1038 C1037 1.398 . S
C1038 C1039 1.391 . S
C1039 H1027 0.950 . S
C1039 C1035 1.393 . S
C1039 C1038 1.391 . S
C569 C1 1.462 . S
C575 C499 1.491 . S
C589 C80 1.274 . S
C595 C502 1.256 . S
C615 C538 1.752 . S
C609 C140 1.769 . S
C629 C211 1.652 . S
C635 C558 1.657 . S
C655 C512 1.696 . S
C649 C31 1.689 . S
C675 C489 1.515 . S
C669 C61 1.506 . S
C695 C542 1.543 . S
C689 C151 1.622 . S
C715 C522 1.388 . S
C709 C200 1.493 . S
C729 C20 1.323 . S
C735 C552 1.316 . S
C755 C518 1.619 . S
C749 C121 1.626 . S
C769 C181 1.611 . S
C775 C484 1.587 . S
C789 C91 1.329 . S
C795 C532 1.301 . S
C815 C498 1.477 . S
C809 C260 1.475 . S
C829 C320 1.264 . S
C835 C504 1.268 . S
C849 C361 1.765 . S
C855 C539 1.751 . S
C869 C451 1.664 . S
C875 C559 1.642 . S
C889 C271 1.679 . S
C895 C509 1.693 . S
C915 C492 1.511 . S
C909 C301 1.509 . S
C935 C544 1.569 . S
C929 C380 1.625 . S
C955 C524 1.382 . S
C949 C440 1.495 . S
C969 C241 1.324 . S
C975 C549 1.316 . S
C995 C519 1.606 . S
C989 C391 1.609 . S
C1015 C482 1.584 . S
C1009 C421 1.612 . S
C1029 C331 1.329 . S
C1035 C529 1.297 . S
