# Generated by pormake.
# Topology pyr, (3,6)-cn, num edge types: 1
# Building blocks:
#     Node 0, Type 0, BuildingBlock: BELTOD_clean_linker_0, # of connection points: 3
#     Node 1, Type 0, BuildingBlock: BELTOD_clean_linker_0, # of connection points: 3
#     Node 2, Type 0, BuildingBlock: BELTOD_clean_linker_0, # of connection points: 3
#     Node 3, Type 0, BuildingBlock: BELTOD_clean_linker_0, # of connection points: 3
#     Node 4, Type 0, BuildingBlock: BELTOD_clean_linker_0, # of connection points: 3
#     Node 5, Type 0, BuildingBlock: BELTOD_clean_linker_0, # of connection points: 3
#     Node 6, Type 0, BuildingBlock: BELTOD_clean_linker_0, # of connection points: 3
#     Node 7, Type 0, BuildingBlock: BELTOD_clean_linker_0, # of connection points: 3
#     Node 8, Type 1, BuildingBlock: CIFDUS_clean_sbu_1, # of connection points: 6
#     Node 9, Type 1, BuildingBlock: CIFDUS_clean_sbu_1, # of connection points: 6
#     Node 10, Type 1, BuildingBlock: CIFDUS_clean_sbu_1, # of connection points: 6
#     Node 11, Type 1, BuildingBlock: CIFDUS_clean_sbu_1, # of connection points: 6
#     Edge 12, Type (0, 1), BuildingBlock: KIFKEQ_clean_linker_1, # of connection points: 2
#     Edge 13, Type (0, 1), BuildingBlock: KIFKEQ_clean_linker_1, # of connection points: 2
#     Edge 14, Type (0, 1), BuildingBlock: KIFKEQ_clean_linker_1, # of connection points: 2
#     Edge 15, Type (0, 1), BuildingBlock: KIFKEQ_clean_linker_1, # of connection points: 2
#     Edge 16, Type (0, 1), BuildingBlock: KIFKEQ_clean_linker_1, # of connection points: 2
#     Edge 17, Type (0, 1), BuildingBlock: KIFKEQ_clean_linker_1, # of connection points: 2
#     Edge 18, Type (0, 1), BuildingBlock: KIFKEQ_clean_linker_1, # of connection points: 2
#     Edge 19, Type (0, 1), BuildingBlock: KIFKEQ_clean_linker_1, # of connection points: 2
#     Edge 20, Type (0, 1), BuildingBlock: KIFKEQ_clean_linker_1, # of connection points: 2
#     Edge 21, Type (0, 1), BuildingBlock: KIFKEQ_clean_linker_1, # of connection points: 2
#     Edge 22, Type (0, 1), BuildingBlock: KIFKEQ_clean_linker_1, # of connection points: 2
#     Edge 23, Type (0, 1), BuildingBlock: KIFKEQ_clean_linker_1, # of connection points: 2
#     Edge 24, Type (0, 1), BuildingBlock: KIFKEQ_clean_linker_1, # of connection points: 2
#     Edge 25, Type (0, 1), BuildingBlock: KIFKEQ_clean_linker_1, # of connection points: 2
#     Edge 26, Type (0, 1), BuildingBlock: KIFKEQ_clean_linker_1, # of connection points: 2
#     Edge 27, Type (0, 1), BuildingBlock: KIFKEQ_clean_linker_1, # of connection points: 2
#     Edge 28, Type (0, 1), BuildingBlock: KIFKEQ_clean_linker_1, # of connection points: 2
#     Edge 29, Type (0, 1), BuildingBlock: KIFKEQ_clean_linker_1, # of connection points: 2
#     Edge 30, Type (0, 1), BuildingBlock: KIFKEQ_clean_linker_1, # of connection points: 2
#     Edge 31, Type (0, 1), BuildingBlock: KIFKEQ_clean_linker_1, # of connection points: 2
#     Edge 32, Type (0, 1), BuildingBlock: KIFKEQ_clean_linker_1, # of connection points: 2
#     Edge 33, Type (0, 1), BuildingBlock: KIFKEQ_clean_linker_1, # of connection points: 2
#     Edge 34, Type (0, 1), BuildingBlock: KIFKEQ_clean_linker_1, # of connection points: 2
#     Edge 35, Type (0, 1), BuildingBlock: KIFKEQ_clean_linker_1, # of connection points: 2
# Relax obj value: 0.036
# Max RMSD: 0.109
# Mean RMSD: 0.051
data_MOF--net-pry--node1-CIFDUS_clean_sbu_1--node2-BELTOD_clean_linker_0--edge1-KIFKEQ_clean_linker_1
_symmetry_space_group_name_H-M    P1
_symmetry_Int_Tables_number       1
_symmetry_cell_setting            triclinic
loop_
_symmetry_equiv_pos_as_xyz
'x, y, z'
_cell_length_a     43.060024
_cell_length_b     41.840049
_cell_length_c     41.061465
_cell_angle_alpha  92.104305
_cell_angle_beta   91.5742
_cell_angle_gamma 93.735391
loop_
_atom_site_label
_atom_site_type_symbol
_atom_site_fract_x
_atom_site_fract_y
_atom_site_fract_z
_atom_type_partial_charge
P0 P 0.17786 0.18658 0.16882 0.0
H1 H 0.2233 0.19967 0.11909 0.0
H2 H 0.26061 0.16709 0.09197 0.0
H3 H 0.22169 0.08335 0.1387 0.0
H4 H 0.18459 0.11636 0.16611 0.0
H5 H 0.135 0.23419 0.1877 0.0
H6 H 0.10453 0.27065 0.15711 0.0
H7 H 0.13105 0.22497 0.06688 0.0
H8 H 0.16202 0.18884 0.09788 0.0
H9 H 0.20019 0.17161 0.23393 0.0
H10 H 0.11482 0.15585 0.17673 0.0
O11 O 0.20316 0.21446 0.18615 0.0
H12 H 0.17549 0.14601 0.28003 0.0
H13 H 0.0897 0.13037 0.22294 0.0
C14 C 0.20104 0.16056 0.14459 0.0
C15 C 0.22237 0.17417 0.12301 0.0
C16 C 0.2437 0.1554 0.1074 0.0
C17 C 0.24437 0.12247 0.11313 0.0
C18 C 0.22217 0.10866 0.13397 0.0
C19 C 0.20072 0.12752 0.14952 0.0
C20 C 0.15079 0.20865 0.14524 0.0
C21 C 0.13381 0.23159 0.16134 0.0
C22 C 0.11627 0.25247 0.14369 0.0
C23 C 0.11524 0.25101 0.10933 0.0
C24 C 0.13158 0.22723 0.09325 0.0
C25 C 0.14917 0.20629 0.11102 0.0
C26 C 0.15923 0.16614 0.20202 0.0
C27 C 0.17603 0.16273 0.23132 0.0
C28 C 0.1618 0.1482 0.25779 0.0
C29 C 0.13046 0.13634 0.25546 0.0
C30 C 0.11391 0.13906 0.22565 0.0
C31 C 0.12818 0.15377 0.19919 0.0
P32 P 0.38682 0.90017 0.60048 0.0
H33 H 0.44044 0.9379 0.63063 0.0
H34 H 0.45339 0.95698 0.68643 0.0
H35 H 0.37079 0.90476 0.71922 0.0
H36 H 0.35741 0.88688 0.66284 0.0
H37 H 0.39965 0.87167 0.537 0.0
H38 H 0.41634 0.81938 0.51911 0.0
H39 H 0.41192 0.78829 0.61822 0.0
H40 H 0.39599 0.8411 0.63598 0.0
H41 H 0.35079 0.95555 0.60944 0.0
H42 H 0.3332 0.85727 0.57504 0.0
O43 O 0.40615 0.92595 0.57704 0.0
H44 H 0.29683 0.96583 0.59684 0.0
H45 H 0.27866 0.8672 0.56287 0.0
C46 C 0.39777 0.91121 0.64248 0.0
C47 C 0.42511 0.93049 0.64982 0.0
C48 C 0.43262 0.94127 0.68193 0.0
C49 C 0.4131 0.9327 0.70762 0.0
C50 C 0.3861 0.91252 0.70016 0.0
C51 C 0.37853 0.90195 0.66792 0.0
C52 C 0.39724 0.86053 0.58792 0.0
C53 C 0.40232 0.85359 0.55489 0.0
C54 C 0.4116 0.82351 0.54463 0.0
C55 C 0.41579 0.79955 0.5672 0.0
C56 C 0.40958 0.80632 0.60022 0.0
C57 C 0.40033 0.83651 0.61045 0.0
C58 C 0.34601 0.90568 0.59337 0.0
C59 C 0.33514 0.93605 0.59955 0.0
C60 C 0.30417 0.94183 0.59243 0.0
C61 C 0.28322 0.91728 0.57899 0.0
C62 C 0.29418 0.8867 0.57296 0.0
C63 C 0.32534 0.88094 0.58013 0.0
P64 P 0.69218 0.30725 0.79805 0.0
H65 H 0.73345 0.28618 0.84866 0.0
H66 H 0.767 0.31427 0.89073 0.0
H67 H 0.73367 0.40447 0.86134 0.0
H68 H 0.69886 0.37588 0.82066 0.0
H69 H 0.66688 0.24532 0.7705 0.0
H70 H 0.63795 0.19984 0.79405 0.0
H71 H 0.63276 0.25482 0.88464 0.0
H72 H 0.66162 0.30015 0.86093 0.0
H73 H 0.71381 0.36161 0.76057 0.0
H74 H 0.62694 0.30684 0.7732 0.0
O75 O 0.71832 0.28926 0.77581 0.0
H76 H 0.68905 0.3923 0.71872 0.0
H77 H 0.6021 0.33723 0.731 0.0
C78 C 0.71403 0.3289 0.83108 0.0
C79 C 0.73309 0.31199 0.85158 0.0
C80 C 0.75249 0.32817 0.87551 0.0
C81 C 0.75362 0.36182 0.87924 0.0
C82 C 0.73343 0.37858 0.85945 0.0
C83 C 0.71369 0.36224 0.83575 0.0
C84 C 0.66696 0.27585 0.81417 0.0
C85 C 0.65925 0.24766 0.79534 0.0
C86 C 0.64263 0.22171 0.80879 0.0
C87 C 0.63352 0.22351 0.84139 0.0
C88 C 0.64005 0.25242 0.85968 0.0
C89 C 0.65644 0.27843 0.8461 0.0
C90 C 0.67216 0.33234 0.77055 0.0
C91 C 0.68925 0.35658 0.75477 0.0
C92 C 0.67508 0.37405 0.73074 0.0
C93 C 0.6436 0.36719 0.72146 0.0
C94 C 0.62646 0.34291 0.7374 0.0
C95 C 0.6406 0.3257 0.76177 0.0
P96 P 0.83886 0.67721 0.35386 0.0
H97 H 0.88865 0.72429 0.34074 0.0
H98 H 0.92615 0.75616 0.37564 0.0
H99 H 0.89748 0.70119 0.45813 0.0
H100 H 0.85895 0.67007 0.42283 0.0
H101 H 0.80478 0.65229 0.29551 0.0
H102 H 0.82059 0.6279 0.2442 0.0
H103 H 0.91504 0.628 0.28277 0.0
H104 H 0.89902 0.65321 0.33379 0.0
H105 H 0.78534 0.69547 0.39011 0.0
H106 H 0.83077 0.60871 0.36872 0.0
O107 O 0.82069 0.70799 0.33938 0.0
H108 H 0.74386 0.66499 0.41649 0.0
H109 H 0.7898 0.57775 0.39652 0.0
C110 C 0.87094 0.6949 0.3791 0.0
C111 C 0.89086 0.71866 0.36621 0.0
C112 C 0.91255 0.73679 0.38634 0.0
C113 C 0.91503 0.73148 0.41999 0.0
C114 C 0.89601 0.70639 0.43252 0.0
C115 C 0.87408 0.68833 0.41226 0.0
C116 C 0.85072 0.65482 0.31837 0.0
C117 C 0.82885 0.64677 0.293 0.0
C118 C 0.83795 0.63269 0.26364 0.0
C119 C 0.86922 0.62619 0.25902 0.0
C120 C 0.8909 0.63328 0.28509 0.0
C121 C 0.88173 0.64746 0.31448 0.0
C122 C 0.81068 0.65424 0.37674 0.0
C123 C 0.78655 0.66978 0.39147 0.0
C124 C 0.76294 0.65225 0.40697 0.0
C125 C 0.76314 0.6187 0.40858 0.0
C126 C 0.78841 0.60342 0.39521 0.0
C127 C 0.81198 0.62107 0.37943 0.0
P128 P 0.86986 0.88346 0.88945 0.0
H129 H 0.85119 0.93038 0.93868 0.0
H130 H 0.80093 0.94911 0.954 0.0
H131 H 0.75507 0.88401 0.88104 0.0
H132 H 0.80572 0.8651 0.86606 0.0
H133 H 0.90116 0.86843 0.95055 0.0
H134 H 0.91612 0.81846 0.97359 0.0
H135 H 0.86952 0.76503 0.89238 0.0
H136 H 0.85434 0.81537 0.86952 0.0
H137 H 0.84957 0.92661 0.83999 0.0
H138 H 0.90278 0.84301 0.84285 0.0
O139 O 0.89692 0.91076 0.90467 0.0
H140 H 0.86367 0.93403 0.78361 0.0
H141 H 0.91517 0.84872 0.78586 0.0
C142 C 0.83228 0.89651 0.90098 0.0
C143 C 0.83037 0.92017 0.92584 0.0
C144 C 0.80154 0.93107 0.93447 0.0
C145 C 0.77383 0.91834 0.91863 0.0
C146 C 0.77585 0.89427 0.89393 0.0
C147 C 0.80479 0.88345 0.88524 0.0
C148 C 0.87747 0.84577 0.90771 0.0
C149 C 0.89395 0.84599 0.93772 0.0
C150 C 0.90233 0.81731 0.95107 0.0
C151 C 0.8944 0.78767 0.93468 0.0
C152 C 0.87649 0.78746 0.90537 0.0
C153 C 0.86777 0.81621 0.89226 0.0
C154 C 0.87427 0.88371 0.84564 0.0
C155 C 0.86329 0.90905 0.82811 0.0
C156 C 0.87138 0.91322 0.79561 0.0
C157 C 0.89075 0.89208 0.7797 0.0
C158 C 0.90069 0.86594 0.79712 0.0
C159 C 0.89304 0.86218 0.8298 0.0
P160 P 0.66384 0.17586 0.3758 0.0
H161 H 0.68275 0.21831 0.43137 0.0
H162 H 0.65473 0.25456 0.46592 0.0
H163 H 0.56815 0.21941 0.41741 0.0
H164 H 0.59621 0.182 0.38431 0.0
H165 H 0.7215 0.15434 0.35077 0.0
H166 H 0.76494 0.12804 0.37517 0.0
H167 H 0.71835 0.1259 0.46695 0.0
H168 H 0.67456 0.15207 0.44215 0.0
H169 H 0.61695 0.18762 0.32594 0.0
H170 H 0.6612 0.1057 0.36165 0.0
O171 O 0.68088 0.20409 0.3534 0.0
H172 H 0.59153 0.15403 0.28171 0.0
H173 H 0.63628 0.07209 0.31701 0.0
C174 C 0.64168 0.19721 0.40532 0.0
C175 C 0.65761 0.21774 0.42883 0.0
C176 C 0.64154 0.23882 0.44832 0.0
C177 C 0.60911 0.2404 0.44429 0.0
C178 C 0.59303 0.21878 0.42157 0.0
C179 C 0.60916 0.1974 0.40232 0.0
C180 C 0.69503 0.15562 0.39472 0.0
C181 C 0.7206 0.14826 0.37616 0.0
C182 C 0.74538 0.13312 0.39012 0.0
C183 C 0.74515 0.12503 0.42305 0.0
C184 C 0.71936 0.13225 0.44165 0.0
C185 C 0.69431 0.14712 0.42747 0.0
C186 C 0.64086 0.14927 0.34731 0.0
C187 C 0.62066 0.16225 0.32471 0.0
C188 C 0.60614 0.14299 0.29938 0.0
C189 C 0.61194 0.11036 0.29575 0.0
C190 C 0.63151 0.09717 0.319 0.0
C191 C 0.64569 0.11641 0.34466 0.0
P192 P 0.36633 0.67055 0.16363 0.0
H193 H 0.35033 0.63484 0.102 0.0
H194 H 0.30082 0.61647 0.07499 0.0
H195 H 0.25176 0.65362 0.15703 0.0
H196 H 0.30146 0.67213 0.18387 0.0
H197 H 0.41653 0.71644 0.18597 0.0
H198 H 0.4268 0.77363 0.17811 0.0
H199 H 0.33536 0.77707 0.13265 0.0
H200 H 0.32593 0.71972 0.13928 0.0
H201 H 0.40563 0.62297 0.1904 0.0
H202 H 0.34031 0.68842 0.22702 0.0
O203 O 0.39486 0.65744 0.14098 0.0
H204 H 0.41629 0.6063 0.24565 0.0
H205 H 0.35043 0.67104 0.28272 0.0
C206 C 0.32968 0.65464 0.14518 0.0
C207 C 0.32899 0.63878 0.11441 0.0
C208 C 0.30061 0.62823 0.09892 0.0
C209 C 0.27231 0.6337 0.11374 0.0
C210 C 0.27313 0.64938 0.14474 0.0
C211 C 0.30155 0.65968 0.16032 0.0
C212 C 0.3705 0.71372 0.1633 0.0
C213 C 0.3985 0.72967 0.17483 0.0
C214 C 0.40424 0.76251 0.17047 0.0
C215 C 0.38198 0.78015 0.15455 0.0
C216 C 0.35327 0.76426 0.14452 0.0
C217 C 0.3477 0.73134 0.1486 0.0
C218 C 0.37224 0.65706 0.20452 0.0
C219 C 0.39344 0.63372 0.21029 0.0
C220 C 0.39965 0.62426 0.24196 0.0
C221 C 0.38443 0.63759 0.26856 0.0
C222 C 0.36248 0.66035 0.26267 0.0
C223 C 0.35663 0.67021 0.23089 0.0
P224 P 0.15635 0.33725 0.66961 0.0
H225 H 0.16415 0.30275 0.60827 0.0
H226 H 0.128 0.27106 0.57136 0.0
H227 H 0.05079 0.30287 0.6263 0.0
H228 H 0.08735 0.33429 0.66348 0.0
H229 H 0.21948 0.35583 0.69224 0.0
H230 H 0.26254 0.38714 0.66902 0.0
H231 H 0.20338 0.40663 0.58632 0.0
H232 H 0.16026 0.37469 0.60975 0.0
H233 H 0.1162 0.31285 0.72027 0.0
H234 H 0.16008 0.40416 0.69614 0.0
O235 O 0.17348 0.30582 0.68407 0.0
H236 H 0.0987 0.33662 0.77134 0.0
H237 H 0.14259 0.42813 0.7471 0.0
C238 C 0.12854 0.32083 0.6387 0.0
C239 C 0.13938 0.30359 0.61188 0.0
C240 C 0.11858 0.28554 0.59064 0.0
C241 C 0.08637 0.28416 0.59588 0.0
C242 C 0.07545 0.30303 0.62176 0.0
C243 C 0.09637 0.32114 0.64303 0.0
C244 C 0.18685 0.36251 0.65253 0.0
C245 C 0.21573 0.36689 0.66914 0.0
C246 C 0.2403 0.38501 0.65589 0.0
C247 C 0.2365 0.39941 0.62572 0.0
C248 C 0.20723 0.39551 0.60936 0.0
C249 C 0.18253 0.37737 0.62279 0.0
C250 C 0.13945 0.35665 0.70435 0.0
C251 C 0.12165 0.33816 0.72574 0.0
C252 C 0.11167 0.35179 0.75497 0.0
C253 C 0.11951 0.38424 0.76356 0.0
C254 C 0.13662 0.40293 0.74156 0.0
C255 C 0.14642 0.38929 0.7122 0.0
O256 O 0.95962 0.02335 0.50271 0.0
Mn257 Mn 0.00413 0.00621 0.51103 0.0
O258 O 0.93759 0.99403 0.46019 0.0
Mn259 Mn 0.97364 0.97593 0.448 0.0
O260 O 0.04885 0.98921 0.51923 0.0
O261 O 0.01548 0.04714 0.53762 0.0
Mn262 Mn 0.03513 0.03711 0.57365 0.0
O263 O 0.98678 0.98287 0.55269 0.0
O264 O 0.07122 0.01976 0.56074 0.0
O265 O 0.02172 0.02962 0.46953 0.0
O266 O 0.00099 0.00184 0.42541 0.0
O267 O 0.03357 0.08068 0.57676 0.0
O268 O 0.00846 0.01067 0.59641 0.0
C269 C 0.98727 0.93581 0.47354 0.0
C270 C 0.93626 0.015 0.48327 0.0
C271 C 0.07249 0.99843 0.53801 0.0
C272 C 0.0198 0.07667 0.54834 0.0
C273 C 0.99044 0.98792 0.58385 0.0
C274 C 0.01876 0.02459 0.43833 0.0
O275 O 0.99249 0.96526 0.48437 0.0
O276 O 0.97413 0.93231 0.44478 0.0
O277 O 0.48435 0.00309 0.96044 0.0
Mn278 Mn 0.50207 0.01048 0.00895 0.0
O279 O 0.47933 0.94963 0.95048 0.0
Mn280 Mn 0.5018 0.93896 0.98704 0.0
O281 O 0.52002 0.01749 0.05745 0.0
O282 O 0.51275 0.05672 0.99902 0.0
Mn283 Mn 0.50321 0.0814 0.03262 0.0
O284 O 0.45733 0.02184 0.02396 0.0
O285 O 0.52853 0.0707 0.06695 0.0
O286 O 0.54712 0.99891 0.99436 0.0
O287 O 0.54454 0.94525 0.98574 0.0
O288 O 0.51821 0.10892 0.00202 0.0
O289 O 0.46091 0.07441 0.03878 0.0
C290 C 0.48026 0.93915 0.03317 0.0
C291 C 0.47557 0.97819 0.94217 0.0
C292 C 0.53097 0.04194 0.0752 0.0
C293 C 0.52176 0.08281 0.98504 0.0
C294 C 0.44537 0.04752 0.03472 0.0
C295 C 0.5599 0.97235 0.98802 0.0
O296 O 0.49066 0.96456 0.01897 0.0
O297 O 0.48397 0.91253 0.01714 0.0
O298 O 0.54046 0.5207 0.49055 0.0
Mn299 Mn 0.4961 0.50929 0.50828 0.0
O300 O 0.54003 0.49843 0.43967 0.0
Mn301 Mn 0.49983 0.47904 0.43916 0.0
O302 O 0.45183 0.49785 0.52609 0.0
O303 O 0.51367 0.51297 0.55423 0.0
Mn304 Mn 0.4927 0.53963 0.57779 0.0
O305 O 0.48694 0.55849 0.50839 0.0
O306 O 0.45177 0.52196 0.5762 0.0
O307 O 0.50564 0.4603 0.50844 0.0
O308 O 0.49554 0.4397 0.45783 0.0
O309 O 0.52215 0.52433 0.60575 0.0
O310 O 0.4988 0.57871 0.55895 0.0
C311 C 0.46224 0.50973 0.4357 0.0
C312 C 0.55369 0.51498 0.46338 0.0
C313 C 0.43826 0.50497 0.55273 0.0
C314 C 0.52947 0.50751 0.58039 0.0
C315 C 0.49179 0.58234 0.5291 0.0
C316 C 0.5023 0.43633 0.48777 0.0
O317 O 0.47811 0.50547 0.46226 0.0
O318 O 0.46983 0.49227 0.41088 0.0
O319 O 0.95446 0.49202 0.99828 0.0
Mn320 Mn 0.99941 0.51229 0.0107 0.0
O321 O 0.94405 0.508 0.94754 0.0
Mn322 Mn 0.98202 0.53015 0.94156 0.0
O323 O 0.04457 0.53289 0.02256 0.0
O324 O 0.9875 0.5136 0.0585 0.0
Mn325 Mn 0.01841 0.4977 0.08058 0.0
O326 O 0.01511 0.46523 0.01358 0.0
O327 O 0.05296 0.52541 0.07598 0.0
O328 O 0.98392 0.55978 0.00824 0.0
O329 O 0.98519 0.57224 0.9557 0.0
O330 O 0.99051 0.50714 0.11137 0.0
O331 O 0.02174 0.45579 0.06676 0.0
C332 C 0.02247 0.50506 0.93439 0.0
C333 C 0.93629 0.49308 0.97293 0.0
C334 C 0.06107 0.53732 0.04919 0.0
C335 C 0.97502 0.51738 0.08682 0.0
C336 C 0.0214 0.44664 0.03694 0.0
C337 C 0.98257 0.58024 0.9855 0.0
O338 O 0.01077 0.51017 0.96286 0.0
O339 O 0.00788 0.51692 0.91012 0.0
H340 H 0.0904 0.08268 0.25517 0.0
H341 H 0.13612 0.15528 0.32051 0.0
H342 H 0.06482 0.05825 0.30101 0.0
H343 H 0.11013 0.13095 0.36663 0.0
H344 H 0.07734 0.05669 0.44461 0.0
H345 H 0.1056 0.0847 0.40151 0.0
H346 H 0.02456 0.06884 0.33716 0.0
H347 H 0.99721 0.04056 0.37923 0.0
C348 C 0.09478 0.09366 0.27929 0.0
C349 C 0.11517 0.12116 0.28393 0.0
C350 C 0.08005 0.07965 0.30572 0.0
C351 C 0.085 0.09279 0.3377 0.0
C352 C 0.10587 0.11997 0.3425 0.0
C353 C 0.12075 0.13396 0.31597 0.0
C354 C 0.06561 0.05962 0.42134 0.0
C355 C 0.03522 0.04593 0.4152 0.0
C356 C 0.08175 0.07562 0.3966 0.0
C357 C 0.06768 0.07839 0.36541 0.0
C358 C 0.03666 0.0663 0.36029 0.0
C359 C 0.02082 0.05023 0.38465 0.0
H360 H 0.37291 0.95045 0.75507 0.0
H361 H 0.47087 0.94295 0.73825 0.0
H362 H 0.38536 0.96821 0.81144 0.0
H363 H 0.48318 0.9616 0.79432 0.0
H364 H 0.49777 0.01489 0.89281 0.0
H365 H 0.48134 0.00881 0.83491 0.0
H366 H 0.4065 0.94108 0.85964 0.0
H367 H 0.42315 0.94687 0.91688 0.0
C368 C 0.39709 0.95251 0.76326 0.0
C369 C 0.4208 0.94488 0.74189 0.0
C370 C 0.40423 0.96299 0.79558 0.0
C371 C 0.43528 0.96647 0.80739 0.0
C372 C 0.45905 0.95973 0.78588 0.0
C373 C 0.45192 0.94895 0.75365 0.0
C374 C 0.47723 0.99955 0.88584 0.0
C375 C 0.46158 0.98149 0.90926 0.0
C376 C 0.46805 0.99574 0.85273 0.0
C377 C 0.44272 0.97426 0.84262 0.0
C378 C 0.42591 0.95798 0.86651 0.0
C379 C 0.43541 0.96132 0.89934 0.0
H380 H 0.60576 0.34327 0.67015 0.0
H381 H 0.64841 0.43172 0.71295 0.0
H382 H 0.58212 0.37292 0.62675 0.0
H383 H 0.62426 0.46147 0.67047 0.0
H384 H 0.59224 0.51217 0.58678 0.0
H385 H 0.62321 0.47466 0.61554 0.0
H386 H 0.54231 0.40793 0.61747 0.0
H387 H 0.51215 0.44503 0.58731 0.0
C388 C 0.60992 0.36909 0.67039 0.0
C389 C 0.62895 0.38514 0.69503 0.0
C390 C 0.59641 0.38612 0.64546 0.0
C391 C 0.60137 0.4197 0.64472 0.0
C392 C 0.62049 0.43561 0.66947 0.0
C393 C 0.6342 0.41857 0.69412 0.0
C394 C 0.58168 0.48874 0.59187 0.0
C395 C 0.55004 0.4812 0.58442 0.0
C396 C 0.59917 0.46747 0.60903 0.0
C397 C 0.58512 0.43855 0.61987 0.0
C398 C 0.55411 0.42984 0.60963 0.0
C399 C 0.53677 0.451 0.59207 0.0
H400 H 0.83768 0.58108 0.21773 0.0
H401 H 0.92329 0.64095 0.22722 0.0
H402 H 0.85434 0.55876 0.16594 0.0
H403 H 0.94064 0.61743 0.17641 0.0
H404 H 0.96718 0.58094 0.0811 0.0
H405 H 0.93535 0.61124 0.11814 0.0
H406 H 0.89119 0.52231 0.14948 0.0
H407 H 0.92241 0.49266 0.11218 0.0
C408 C 0.85997 0.5897 0.20872 0.0
C409 C 0.87921 0.6127 0.22699 0.0
C410 C 0.86964 0.5767 0.17903 0.0
C411 C 0.89888 0.58621 0.16675 0.0
C412 C 0.91776 0.6098 0.18464 0.0
C413 C 0.90805 0.62288 0.21425 0.0
C414 C 0.94925 0.56812 0.09444 0.0
C415 C 0.94701 0.53449 0.0936 0.0
C416 C 0.93152 0.58539 0.11629 0.0
C417 C 0.91127 0.56924 0.13762 0.0
C418 C 0.90638 0.53574 0.13359 0.0
C419 C 0.92409 0.51861 0.11186 0.0
H420 H 0.27702 0.07666 0.14267 0.0
H421 H 0.26924 0.12525 0.05211 0.0
H422 H 0.32183 0.05016 0.12248 0.0
H423 H 0.31478 0.09961 0.03239 0.0
H424 H 0.39128 0.03862 0.99753 0.0
H425 H 0.33886 0.05038 0.01495 0.0
H426 H 0.37503 0.06894 0.11351 0.0
H427 H 0.42676 0.05713 0.096 0.0
C428 C 0.28448 0.08133 0.11823 0.0
C429 C 0.26952 0.10342 0.0992 0.0
C430 C 0.31045 0.06633 0.10675 0.0
C431 C 0.32224 0.07291 0.07587 0.0
C432 C 0.30634 0.09373 0.05618 0.0
C433 C 0.28038 0.1088 0.06769 0.0
C434 C 0.38761 0.04417 0.02306 0.0
C435 C 0.41288 0.0466 0.04554 0.0
C436 C 0.35774 0.05131 0.03301 0.0
C437 C 0.35262 0.06079 0.06567 0.0
C438 C 0.3778 0.06135 0.08831 0.0
C439 C 0.40752 0.05458 0.07831 0.0
H440 H 0.24532 0.95354 0.61504 0.0
H441 H 0.24638 0.8965 0.52524 0.0
H442 H 0.19412 0.97036 0.59983 0.0
H443 H 0.19432 0.91306 0.51032 0.0
H444 H 0.08455 0.93537 0.52347 0.0
H445 H 0.13521 0.91176 0.53096 0.0
H446 H 0.17889 0.00607 0.55338 0.0
H447 H 0.12908 0.02931 0.54612 0.0
C448 C 0.23463 0.94452 0.59204 0.0
C449 C 0.25033 0.92417 0.57109 0.0
C450 C 0.20521 0.95409 0.58338 0.0
C451 C 0.19046 0.94345 0.55362 0.0
C452 C 0.20519 0.92165 0.53338 0.0
C453 C 0.23494 0.91216 0.54199 0.0
C454 C 0.10521 0.95099 0.52912 0.0
C455 C 0.10285 0.9841 0.53468 0.0
C456 C 0.1341 0.93751 0.53354 0.0
C457 C 0.16078 0.95706 0.54356 0.0
C458 C 0.15861 0.99034 0.54647 0.0
C459 C 0.13007 0.00365 0.54214 0.0
H460 H 0.81348 0.34665 0.89312 0.0
H461 H 0.74767 0.41711 0.91674 0.0
H462 H 0.85362 0.37765 0.92546 0.0
H463 H 0.78841 0.44861 0.94857 0.0
H464 H 0.88309 0.51234 0.94575 0.0
H465 H 0.83572 0.47949 0.93119 0.0
H466 H 0.8725 0.39999 0.98037 0.0
H467 H 0.92027 0.43331 0.99513 0.0
C468 C 0.80724 0.36834 0.90581 0.0
C469 C 0.77718 0.37936 0.90197 0.0
C470 C 0.8304 0.38616 0.92445 0.0
C471 C 0.82429 0.41566 0.93957 0.0
C472 C 0.79395 0.42611 0.93695 0.0
C473 C 0.77065 0.40813 0.91849 0.0
C474 C 0.88072 0.48811 0.95424 0.0
C475 C 0.90542 0.47528 0.97136 0.0
C476 C 0.85348 0.4693 0.94602 0.0
C477 C 0.85041 0.437 0.95433 0.0
C478 C 0.87431 0.42473 0.97336 0.0
C479 C 0.90152 0.44382 0.98207 0.0
H480 H 0.73728 0.55968 0.38711 0.0
H481 H 0.72681 0.63492 0.46018 0.0
H482 H 0.68953 0.53207 0.4042 0.0
H483 H 0.67774 0.60839 0.47566 0.0
H484 H 0.5964 0.54296 0.50895 0.0
H485 H 0.64943 0.5647 0.49966 0.0
H486 H 0.63635 0.53986 0.39688 0.0
H487 H 0.58435 0.51744 0.40622 0.0
C488 C 0.72509 0.57024 0.40711 0.0
C489 C 0.73592 0.59989 0.42189 0.0
C490 C 0.69728 0.55459 0.41659 0.0
C491 C 0.67922 0.56828 0.44084 0.0
C492 C 0.69089 0.59703 0.45689 0.0
C493 C 0.71892 0.61253 0.44765 0.0
C494 C 0.60496 0.54206 0.48448 0.0
C495 C 0.58603 0.52834 0.45844 0.0
C496 C 0.63536 0.5546 0.47904 0.0
C497 C 0.64745 0.55386 0.44749 0.0
C498 C 0.62836 0.54018 0.42161 0.0
C499 C 0.59826 0.52752 0.42705 0.0
H500 H 0.05994 0.27695 0.12366 0.0
H501 H 0.13219 0.28033 0.05276 0.0
H502 H 0.0357 0.32042 0.09751 0.0
H503 H 0.10687 0.32282 0.02531 0.0
H504 H 0.0788 0.42933 0.02128 0.0
H505 H 0.09989 0.37815 0.03313 0.0
H506 H 0.00736 0.33895 0.05339 0.0
H507 H 0.98686 0.39078 0.04288 0.0
C508 C 0.07055 0.28671 0.10225 0.0
C509 C 0.09836 0.27517 0.09072 0.0
C510 C 0.05628 0.31147 0.0868 0.0
C511 C 0.06916 0.32545 0.05908 0.0
C512 C 0.09635 0.31307 0.04676 0.0
C513 C 0.11073 0.28832 0.06235 0.0
C514 C 0.06285 0.40927 0.02679 0.0
C515 C 0.03113 0.41384 0.03059 0.0
C516 C 0.07495 0.37986 0.03388 0.0
C517 C 0.05553 0.3543 0.04498 0.0
C518 C 0.02327 0.35818 0.04579 0.0
C519 C 0.01131 0.38769 0.03906 0.0
H520 H 0.64654 0.20085 0.90133 0.0
H521 H 0.58641 0.18164 0.81604 0.0
H522 H 0.62037 0.15606 0.92797 0.0
H523 H 0.56038 0.13619 0.84261 0.0
H524 H 0.49589 0.10468 0.93058 0.0
H525 H 0.52519 0.13247 0.889 0.0
H526 H 0.61017 0.09735 0.92796 0.0
H527 H 0.58048 0.06971 0.96978 0.0
C528 C 0.6278 0.18692 0.8882 0.0
C529 C 0.6183 0.19507 0.85673 0.0
C530 C 0.61312 0.16086 0.90326 0.0
C531 C 0.5884 0.14231 0.88734 0.0
C532 C 0.57935 0.14997 0.85552 0.0
C533 C 0.59428 0.17596 0.8403 0.0
C534 C 0.52057 0.10138 0.92899 0.0
C535 C 0.53594 0.08482 0.95304 0.0
C536 C 0.53747 0.11753 0.90531 0.0
C537 C 0.57014 0.11774 0.9056 0.0
C538 C 0.58507 0.09808 0.92744 0.0
C539 C 0.56805 0.08172 0.95101 0.0
H540 H 0.97189 0.76136 0.40716 0.0
H541 H 0.90434 0.75315 0.48275 0.0
H542 H 0.99756 0.80736 0.43592 0.0
H543 H 0.9319 0.79749 0.51342 0.0
H544 H 0.94446 0.90889 0.51193 0.0
H545 H 0.9333 0.85156 0.51011 0.0
H546 H 0.02535 0.8385 0.47417 0.0
H547 H 0.03508 0.8965 0.47367 0.0
C548 C 0.96285 0.76892 0.43035 0.0
C549 C 0.93523 0.7541 0.44183 0.0
C550 C 0.97809 0.79517 0.44743 0.0
C551 C 0.9666 0.80712 0.477 0.0
C552 C 0.94102 0.78992 0.49029 0.0
C553 C 0.92536 0.76399 0.47281 0.0
C554 C 0.96297 0.89369 0.50548 0.0
C555 C 0.9904 0.90709 0.49249 0.0
C556 C 0.95649 0.86045 0.50406 0.0
C557 C 0.97777 0.83996 0.49028 0.0
C558 C 0.00765 0.85341 0.48331 0.0
C559 C 0.01371 0.88675 0.48391 0.0
H560 H 0.4576 0.76465 0.59948 0.0
H561 H 0.40135 0.7633 0.51063 0.0
H562 H 0.47743 0.71389 0.58267 0.0
H563 H 0.42247 0.71286 0.49297 0.0
H564 H 0.43885 0.60209 0.50013 0.0
H565 H 0.42096 0.65641 0.505 0.0
H566 H 0.51133 0.69082 0.54518 0.0
H567 H 0.52843 0.63649 0.54153 0.0
C568 C 0.44939 0.75353 0.57633 0.0
C569 C 0.42771 0.76817 0.55656 0.0
C570 C 0.46124 0.72457 0.56634 0.0
C571 C 0.45197 0.70934 0.53615 0.0
C572 C 0.43016 0.72384 0.51635 0.0
C573 C 0.41823 0.75292 0.5264 0.0
C574 C 0.45517 0.62157 0.50878 0.0
C575 C 0.48498 0.61517 0.52054 0.0
C576 C 0.44489 0.6527 0.51182 0.0
C577 C 0.46439 0.67792 0.52645 0.0
C578 C 0.4953 0.67186 0.53484 0.0
C579 C 0.50534 0.64083 0.53224 0.0
H580 H 0.94782 0.87978 0.75519 0.0
H581 H 0.86135 0.92023 0.72809 0.0
H582 H 0.9694 0.89515 0.70389 0.0
H583 H 0.88411 0.93779 0.67739 0.0
H584 H 0.9321 0.95474 0.57937 0.0
H585 H 0.90585 0.92581 0.62333 0.0
H586 H 0.98782 0.94549 0.68572 0.0
H587 H 0.01359 0.97313 0.64252 0.0
C588 C 0.93307 0.89151 0.73823 0.0
C589 C 0.90272 0.89888 0.74639 0.0
C590 C 0.94574 0.90082 0.70877 0.0
C591 C 0.9288 0.91835 0.68658 0.0
C592 C 0.8979 0.92433 0.69378 0.0
C593 C 0.88501 0.91466 0.72323 0.0
C594 C 0.94454 0.9522 0.60231 0.0
C595 C 0.97485 0.96644 0.60747 0.0
C596 C 0.92946 0.93592 0.6276 0.0
C597 C 0.94467 0.93319 0.65823 0.0
C598 C 0.97538 0.94646 0.66253 0.0
C599 C 0.99015 0.96269 0.63767 0.0
H600 H 0.55272 0.10734 0.26902 0.0
H601 H 0.64293 0.07024 0.25588 0.0
H602 H 0.53414 0.08126 0.21722 0.0
H603 H 0.6243 0.04405 0.2041 0.0
H604 H 0.59021 0.05936 0.09469 0.0
H605 H 0.60996 0.0682 0.15083 0.0
H606 H 0.52265 0.02811 0.18568 0.0
H607 H 0.50315 0.01878 0.12908 0.0
C608 C 0.56844 0.09322 0.25529 0.0
C609 C 0.59936 0.09104 0.2665 0.0
C610 C 0.55771 0.07801 0.22576 0.0
C611 C 0.57776 0.06059 0.20649 0.0
C612 C 0.60832 0.05737 0.21831 0.0
C613 C 0.61893 0.07223 0.24807 0.0
C614 C 0.57579 0.05119 0.11435 0.0
C615 C 0.5454 0.03794 0.10765 0.0
C616 C 0.58702 0.05635 0.14653 0.0
C617 C 0.5678 0.04908 0.17276 0.0
C618 C 0.53795 0.0341 0.16599 0.0
C619 C 0.52692 0.02838 0.13366 0.0
H620 H 0.34384 0.61806 0.31538 0.0
H621 H 0.44175 0.63405 0.29734 0.0
H622 H 0.35666 0.59476 0.36766 0.0
H623 H 0.45458 0.61084 0.34916 0.0
H624 H 0.47663 0.57384 0.44323 0.0
H625 H 0.45315 0.61362 0.40977 0.0
H626 H 0.37974 0.54305 0.37845 0.0
H627 H 0.40324 0.50368 0.41181 0.0
C628 C 0.36806 0.61723 0.32293 0.0
C629 C 0.3918 0.62751 0.30213 0.0
C630 C 0.37541 0.60384 0.3528 0.0
C631 C 0.40665 0.60096 0.36268 0.0
C632 C 0.4303 0.61307 0.34265 0.0
C633 C 0.42296 0.62601 0.31271 0.0
C634 C 0.45444 0.56751 0.43081 0.0
C635 C 0.44157 0.5358 0.43028 0.0
C636 C 0.44127 0.59011 0.41114 0.0
C637 C 0.41493 0.58131 0.39086 0.0
C638 C 0.39993 0.55074 0.39376 0.0
C639 C 0.41328 0.52815 0.4131 0.0
H640 H 0.06374 0.37517 0.79378 0.0
H641 H 0.15448 0.4251 0.80596 0.0
H642 H 0.04783 0.40024 0.84455 0.0
H643 H 0.13878 0.4499 0.8571 0.0
H644 H 0.07694 0.52383 0.90877 0.0
H645 H 0.10543 0.49054 0.87206 0.0
H646 H 0.05224 0.40643 0.90301 0.0
H647 H 0.02328 0.44044 0.93951 0.0
C648 C 0.0805 0.39109 0.80758 0.0
C649 C 0.11028 0.39838 0.79551 0.0
C650 C 0.07146 0.40534 0.83693 0.0
C651 C 0.09199 0.42717 0.85516 0.0
C652 C 0.12216 0.43358 0.8436 0.0
C653 C 0.13114 0.41946 0.81415 0.0
C654 C 0.07261 0.49803 0.9091 0.0
C655 C 0.04817 0.48468 0.92719 0.0
C656 C 0.08877 0.47883 0.88775 0.0
C657 C 0.08069 0.44575 0.88384 0.0
C658 C 0.05861 0.43191 0.90482 0.0
C659 C 0.04248 0.45125 0.92634 0.0
H660 H 0.71939 0.88199 0.92557 0.0
H661 H 0.75825 0.97982 0.93448 0.0
H662 H 0.66964 0.89924 0.94369 0.0
H663 H 0.70832 0.99704 0.95359 0.0
H664 H 0.59884 0.01266 0.95285 0.0
H665 H 0.65189 0.00218 0.93611 0.0
H666 H 0.64976 0.91885 0.99521 0.0
H667 H 0.59738 0.92903 0.01132 0.0
C668 C 0.71731 0.90724 0.93116 0.0
C669 C 0.74299 0.92942 0.9286 0.0
C670 C 0.68881 0.91713 0.94196 0.0
C671 C 0.68502 0.94953 0.95054 0.0
C672 C 0.7104 0.97194 0.9472 0.0
C673 C 0.73909 0.96198 0.93653 0.0
C674 C 0.61016 0.99267 0.96284 0.0
C675 C 0.59389 0.97153 0.98319 0.0
C676 C 0.64043 0.98652 0.95314 0.0
C677 C 0.65479 0.95915 0.96366 0.0
C678 C 0.63915 0.93956 0.98585 0.0
C679 C 0.60919 0.94558 0.99534 0.0
H680 H 0.77322 0.07426 0.39662 0.0
H681 H 0.77684 0.13843 0.4816 0.0
H682 H 0.81796 0.04828 0.41793 0.0
H683 H 0.82187 0.11191 0.50338 0.0
H684 H 0.92712 0.07829 0.49886 0.0
H685 H 0.87879 0.10525 0.48921 0.0
H686 H 0.83051 0.01383 0.46308 0.0
H687 H 0.87841 0.9873 0.47204 0.0
C688 C 0.78357 0.08276 0.41996 0.0
C689 C 0.77154 0.10844 0.43736 0.0
C690 C 0.80906 0.06767 0.43235 0.0
C691 C 0.82337 0.07787 0.4625 0.0
C692 C 0.81138 0.10356 0.48008 0.0
C693 C 0.7855 0.11854 0.46774 0.0
C694 C 0.90592 0.06399 0.49195 0.0
C695 C 0.90658 0.03079 0.48571 0.0
C696 C 0.87828 0.07939 0.48636 0.0
C697 C 0.85102 0.06171 0.47462 0.0
C698 C 0.85128 0.02822 0.47128 0.0
C699 C 0.8787 0.013 0.4766 0.0
H700 H 0.22007 0.66717 0.10895 0.0
H701 H 0.25607 0.57672 0.08035 0.0
H702 H 0.16905 0.64857 0.08581 0.0
H703 H 0.20484 0.55795 0.05739 0.0
H704 H 0.10956 0.53677 0.00674 0.0
H705 H 0.16184 0.5637 0.01612 0.0
H706 H 0.13069 0.609 0.10457 0.0
H707 H 0.0793 0.58243 0.09516 0.0
C708 C 0.21709 0.64331 0.09767 0.0
C709 C 0.242 0.62323 0.09704 0.0
C710 C 0.18789 0.6327 0.08426 0.0
C711 C 0.18274 0.60164 0.07001 0.0
C712 C 0.20805 0.58212 0.06786 0.0
C713 C 0.23738 0.59281 0.0812 0.0
C714 C 0.11389 0.55319 0.02763 0.0
C715 C 0.09053 0.55755 0.05027 0.0
C716 C 0.14379 0.56833 0.0332 0.0
C717 C 0.15049 0.58846 0.06117 0.0
C718 C 0.12639 0.59406 0.0826 0.0
C719 C 0.09692 0.57869 0.07731 0.0
H720 H 0.25455 0.39967 0.5619 0.0
H721 H 0.27924 0.44129 0.65765 0.0
H722 H 0.30059 0.42776 0.54002 0.0
H723 H 0.32565 0.46789 0.63638 0.0
H724 H 0.39522 0.53213 0.59001 0.0
H725 H 0.344 0.50961 0.60359 0.0
H726 H 0.35662 0.42639 0.54104 0.0
H727 H 0.40772 0.44981 0.52639 0.0
C728 C 0.26963 0.415 0.57823 0.0
C729 C 0.26326 0.41806 0.6116 0.0
C730 C 0.29624 0.4308 0.56576 0.0
C731 C 0.31699 0.45013 0.58636 0.0
C732 C 0.3101 0.45366 0.61956 0.0
C733 C 0.28361 0.438 0.63194 0.0
C734 C 0.38695 0.50917 0.57886 0.0
C735 C 0.40572 0.49254 0.55749 0.0
C736 C 0.3576 0.49613 0.58679 0.0
C737 C 0.34632 0.4658 0.57403 0.0
C738 C 0.36443 0.44985 0.55128 0.0
C739 C 0.39378 0.46319 0.54295 0.0
H740 H 0.8966 0.76699 0.99778 0.0
H741 H 0.92039 0.74026 0.89948 0.0
H742 H 0.91995 0.71898 0.01764 0.0
H743 H 0.94351 0.69272 0.91922 0.0
H744 H 0.01295 0.63278 0.96317 0.0
H745 H 0.99146 0.68438 0.95495 0.0
H746 H 0.91182 0.65535 0.01093 0.0
H747 H 0.93362 0.60313 0.01918 0.0
C748 C 0.9067 0.75087 0.98041 0.0
C749 C 0.90658 0.75751 0.94698 0.0
C750 C 0.91994 0.72334 0.9918 0.0
C751 C 0.9339 0.70223 0.97009 0.0
C752 C 0.93333 0.7087 0.93668 0.0
C753 C 0.91975 0.73581 0.92528 0.0
C754 C 0.99144 0.63784 0.97484 0.0
C755 C 0.97503 0.61393 0.99188 0.0
C756 C 0.97891 0.66726 0.96975 0.0
C757 C 0.94956 0.67366 0.98156 0.0
C758 C 0.93444 0.65105 0.00141 0.0
C759 C 0.94705 0.62129 0.00646 0.0
H760 H 0.36614 0.80881 0.09817 0.0
H761 H 0.41661 0.828 0.18998 0.0
H762 H 0.38544 0.8603 0.07948 0.0
H763 H 0.43651 0.87983 0.17081 0.0
H764 H 0.50463 0.92284 0.09064 0.0
H765 H 0.47472 0.89214 0.12951 0.0
H766 H 0.38944 0.91866 0.08299 0.0
H767 H 0.41984 0.94908 0.04375 0.0
C768 C 0.38057 0.82439 0.11487 0.0
C769 C 0.38998 0.81391 0.14555 0.0
C770 C 0.39165 0.85416 0.10411 0.0
C771 C 0.41261 0.87434 0.1236 0.0
C772 C 0.42061 0.86477 0.15506 0.0
C773 C 0.40935 0.83495 0.16595 0.0
C774 C 0.47953 0.92381 0.0901 0.0
C775 C 0.46449 0.93827 0.06432 0.0
C776 C 0.46226 0.90595 0.11225 0.0
C777 C 0.42962 0.90212 0.10877 0.0
C778 C 0.41458 0.92056 0.08587 0.0
C779 C 0.43194 0.9385 0.06374 0.0
H780 H 0.08636 0.2667 0.53038 0.0
H781 H 0.03877 0.24606 0.61917 0.0
H782 H 0.05889 0.21968 0.50325 0.0
H783 H 0.01177 0.19947 0.59254 0.0
H784 H 0.97036 0.11296 0.55403 0.0
H785 H 0.97719 0.17129 0.5545 0.0
H786 H 0.06523 0.16412 0.50757 0.0
H787 H 0.05732 0.10615 0.50586 0.0
C788 C 0.06965 0.25249 0.54396 0.0
C789 C 0.06515 0.26001 0.57715 0.0
C790 C 0.05384 0.22554 0.52838 0.0
C791 C 0.03322 0.20538 0.54563 0.0
C792 C 0.02698 0.21447 0.57806 0.0
C793 C 0.04266 0.24137 0.59354 0.0
C794 C 0.99 0.12399 0.54167 0.0
C795 C 0.01345 0.10516 0.53017 0.0
C796 C 0.99435 0.15747 0.54262 0.0
C797 C 0.0225 0.17253 0.53254 0.0
C798 C 0.04337 0.15362 0.51592 0.0
C799 C 0.03871 0.12017 0.51456 0.0
H800 H 0.54986 0.23731 0.46863 0.0
H801 H 0.63071 0.30261 0.45848 0.0
H802 H 0.52126 0.28158 0.49026 0.0
H803 H 0.60243 0.34631 0.48051 0.0
H804 H 0.55112 0.42197 0.52745 0.0
H805 H 0.57615 0.37106 0.52667 0.0
H806 H 0.50113 0.32813 0.46435 0.0
H807 H 0.47619 0.37864 0.46555 0.0
C808 C 0.56169 0.26094 0.47127 0.0
C809 C 0.59263 0.26624 0.46148 0.0
C810 C 0.54531 0.28629 0.48386 0.0
C811 C 0.55951 0.31756 0.48717 0.0
C812 C 0.59088 0.3225 0.47893 0.0
C813 C 0.60716 0.29727 0.46619 0.0
C814 C 0.53932 0.40123 0.51489 0.0
C815 C 0.51175 0.40428 0.4965 0.0
C816 C 0.55387 0.37217 0.51401 0.0
C817 C 0.54095 0.34562 0.49494 0.0
C818 C 0.51175 0.34792 0.47937 0.0
C819 C 0.49741 0.37694 0.48002 0.0
loop_
_geom_bond_atom_site_label_1
_geom_bond_atom_site_label_2
_geom_bond_distance
_geom_bond_site_symmetry_2
_ccdc_geom_bond_type
P0 O11 1.490 . S
P0 C14 1.812 . S
P0 C20 1.803 . S
P0 C26 1.819 . S
H1 C15 0.941 . S
H2 C16 0.939 . S
H3 C18 0.940 . S
H4 C19 0.940 . S
H5 C21 0.939 . S
H6 C22 0.942 . S
H7 C24 0.940 . S
H8 C25 0.939 . S
H9 C27 0.941 . S
H10 C31 0.939 . S
O11 P0 1.490 . S
H12 C28 0.939 . S
H13 C30 0.940 . S
C14 P0 1.812 . S
C14 C15 1.389 . S
C14 C19 1.391 . S
C15 H1 0.941 . S
C15 C14 1.389 . S
C15 C16 1.397 . S
C16 H2 0.939 . S
C16 C15 1.397 . S
C16 C17 1.378 . S
C17 C16 1.378 . S
C17 C18 1.378 . S
C18 H3 0.940 . S
C18 C17 1.378 . S
C18 C19 1.396 . S
C19 H4 0.940 . S
C19 C14 1.391 . S
C19 C18 1.396 . S
C20 P0 1.803 . S
C20 C21 1.378 . S
C20 C25 1.400 . S
C21 H5 0.939 . S
C21 C20 1.378 . S
C21 C22 1.361 . S
C22 H6 0.942 . S
C22 C21 1.361 . S
C22 C23 1.369 . S
C23 C22 1.369 . S
C23 C24 1.404 . S
C24 H7 0.940 . S
C24 C23 1.404 . S
C24 C25 1.389 . S
C25 H8 0.939 . S
C25 C20 1.400 . S
C25 C24 1.389 . S
C26 P0 1.819 . S
C26 C27 1.391 . S
C26 C31 1.391 . S
C27 H9 0.941 . S
C27 C26 1.391 . S
C27 C28 1.396 . S
C28 H12 0.939 . S
C28 C27 1.396 . S
C28 C29 1.397 . S
C29 C28 1.397 . S
C29 C30 1.385 . S
C30 H13 0.940 . S
C30 C29 1.385 . S
C30 C31 1.388 . S
C31 H10 0.939 . S
C31 C26 1.391 . S
C31 C30 1.388 . S
P32 O43 1.490 . S
P32 C46 1.812 . S
P32 C52 1.803 . S
P32 C58 1.819 . S
H33 C47 0.941 . S
H34 C48 0.939 . S
H35 C50 0.940 . S
H36 C51 0.940 . S
H37 C53 0.939 . S
H38 C54 0.942 . S
H39 C56 0.940 . S
H40 C57 0.939 . S
H41 C59 0.941 . S
H42 C63 0.939 . S
O43 P32 1.490 . S
H44 C60 0.939 . S
H45 C62 0.940 . S
C46 P32 1.812 . S
C46 C47 1.389 . S
C46 C51 1.391 . S
C47 H33 0.941 . S
C47 C46 1.389 . S
C47 C48 1.397 . S
C48 H34 0.939 . S
C48 C47 1.397 . S
C48 C49 1.378 . S
C49 C48 1.378 . S
C49 C50 1.378 . S
C50 H35 0.940 . S
C50 C49 1.378 . S
C50 C51 1.396 . S
C51 H36 0.940 . S
C51 C46 1.391 . S
C51 C50 1.396 . S
C52 P32 1.803 . S
C52 C53 1.378 . S
C52 C57 1.400 . S
C53 H37 0.939 . S
C53 C52 1.378 . S
C53 C54 1.361 . S
C54 H38 0.942 . S
C54 C53 1.361 . S
C54 C55 1.369 . S
C55 C54 1.369 . S
C55 C56 1.404 . S
C56 H39 0.940 . S
C56 C55 1.404 . S
C56 C57 1.389 . S
C57 H40 0.939 . S
C57 C52 1.400 . S
C57 C56 1.389 . S
C58 P32 1.819 . S
C58 C59 1.391 . S
C58 C63 1.391 . S
C59 H41 0.941 . S
C59 C58 1.391 . S
C59 C60 1.396 . S
C60 H44 0.939 . S
C60 C59 1.396 . S
C60 C61 1.397 . S
C61 C60 1.397 . S
C61 C62 1.385 . S
C62 H45 0.940 . S
C62 C61 1.385 . S
C62 C63 1.388 . S
C63 H42 0.939 . S
C63 C58 1.391 . S
C63 C62 1.388 . S
P64 O75 1.490 . S
P64 C78 1.812 . S
P64 C84 1.803 . S
P64 C90 1.819 . S
H65 C79 0.941 . S
H66 C80 0.939 . S
H67 C82 0.940 . S
H68 C83 0.940 . S
H69 C85 0.939 . S
H70 C86 0.942 . S
H71 C88 0.940 . S
H72 C89 0.939 . S
H73 C91 0.941 . S
H74 C95 0.939 . S
O75 P64 1.490 . S
H76 C92 0.939 . S
H77 C94 0.940 . S
C78 P64 1.812 . S
C78 C79 1.389 . S
C78 C83 1.391 . S
C79 H65 0.941 . S
C79 C78 1.389 . S
C79 C80 1.397 . S
C80 H66 0.939 . S
C80 C79 1.397 . S
C80 C81 1.378 . S
C81 C80 1.378 . S
C81 C82 1.378 . S
C82 H67 0.940 . S
C82 C81 1.378 . S
C82 C83 1.396 . S
C83 H68 0.940 . S
C83 C78 1.391 . S
C83 C82 1.396 . S
C84 P64 1.803 . S
C84 C85 1.378 . S
C84 C89 1.400 . S
C85 H69 0.939 . S
C85 C84 1.378 . S
C85 C86 1.361 . S
C86 H70 0.942 . S
C86 C85 1.361 . S
C86 C87 1.369 . S
C87 C86 1.369 . S
C87 C88 1.404 . S
C88 H71 0.940 . S
C88 C87 1.404 . S
C88 C89 1.389 . S
C89 H72 0.939 . S
C89 C84 1.400 . S
C89 C88 1.389 . S
C90 P64 1.819 . S
C90 C91 1.391 . S
C90 C95 1.391 . S
C91 H73 0.941 . S
C91 C90 1.391 . S
C91 C92 1.396 . S
C92 H76 0.939 . S
C92 C91 1.396 . S
C92 C93 1.397 . S
C93 C92 1.397 . S
C93 C94 1.385 . S
C94 H77 0.940 . S
C94 C93 1.385 . S
C94 C95 1.388 . S
C95 H74 0.939 . S
C95 C90 1.391 . S
C95 C94 1.388 . S
P96 O107 1.490 . S
P96 C110 1.812 . S
P96 C116 1.803 . S
P96 C122 1.819 . S
H97 C111 0.941 . S
H98 C112 0.939 . S
H99 C114 0.940 . S
H100 C115 0.940 . S
H101 C117 0.939 . S
H102 C118 0.942 . S
H103 C120 0.940 . S
H104 C121 0.939 . S
H105 C123 0.941 . S
H106 C127 0.939 . S
O107 P96 1.490 . S
H108 C124 0.939 . S
H109 C126 0.940 . S
C110 P96 1.812 . S
C110 C111 1.389 . S
C110 C115 1.391 . S
C111 H97 0.941 . S
C111 C110 1.389 . S
C111 C112 1.397 . S
C112 H98 0.939 . S
C112 C111 1.397 . S
C112 C113 1.378 . S
C113 C112 1.378 . S
C113 C114 1.378 . S
C114 H99 0.940 . S
C114 C113 1.378 . S
C114 C115 1.396 . S
C115 H100 0.940 . S
C115 C110 1.391 . S
C115 C114 1.396 . S
C116 P96 1.803 . S
C116 C117 1.378 . S
C116 C121 1.400 . S
C117 H101 0.939 . S
C117 C116 1.378 . S
C117 C118 1.361 . S
C118 H102 0.942 . S
C118 C117 1.361 . S
C118 C119 1.369 . S
C119 C118 1.369 . S
C119 C120 1.404 . S
C120 H103 0.940 . S
C120 C119 1.404 . S
C120 C121 1.389 . S
C121 H104 0.939 . S
C121 C116 1.400 . S
C121 C120 1.389 . S
C122 P96 1.819 . S
C122 C123 1.391 . S
C122 C127 1.391 . S
C123 H105 0.941 . S
C123 C122 1.391 . S
C123 C124 1.396 . S
C124 H108 0.939 . S
C124 C123 1.396 . S
C124 C125 1.397 . S
C125 C124 1.397 . S
C125 C126 1.385 . S
C126 H109 0.940 . S
C126 C125 1.385 . S
C126 C127 1.388 . S
C127 H106 0.939 . S
C127 C122 1.391 . S
C127 C126 1.388 . S
P128 O139 1.490 . S
P128 C142 1.812 . S
P128 C148 1.803 . S
P128 C154 1.819 . S
H129 C143 0.941 . S
H130 C144 0.939 . S
H131 C146 0.940 . S
H132 C147 0.940 . S
H133 C149 0.939 . S
H134 C150 0.942 . S
H135 C152 0.940 . S
H136 C153 0.939 . S
H137 C155 0.941 . S
H138 C159 0.939 . S
O139 P128 1.490 . S
H140 C156 0.939 . S
H141 C158 0.940 . S
C142 P128 1.812 . S
C142 C143 1.389 . S
C142 C147 1.391 . S
C143 H129 0.941 . S
C143 C142 1.389 . S
C143 C144 1.397 . S
C144 H130 0.939 . S
C144 C143 1.397 . S
C144 C145 1.378 . S
C145 C144 1.378 . S
C145 C146 1.378 . S
C146 H131 0.940 . S
C146 C145 1.378 . S
C146 C147 1.396 . S
C147 H132 0.940 . S
C147 C142 1.391 . S
C147 C146 1.396 . S
C148 P128 1.803 . S
C148 C149 1.378 . S
C148 C153 1.400 . S
C149 H133 0.939 . S
C149 C148 1.378 . S
C149 C150 1.361 . S
C150 H134 0.942 . S
C150 C149 1.361 . S
C150 C151 1.369 . S
C151 C150 1.369 . S
C151 C152 1.404 . S
C152 H135 0.940 . S
C152 C151 1.404 . S
C152 C153 1.389 . S
C153 H136 0.939 . S
C153 C148 1.400 . S
C153 C152 1.389 . S
C154 P128 1.819 . S
C154 C155 1.391 . S
C154 C159 1.391 . S
C155 H137 0.941 . S
C155 C154 1.391 . S
C155 C156 1.396 . S
C156 H140 0.939 . S
C156 C155 1.396 . S
C156 C157 1.397 . S
C157 C156 1.397 . S
C157 C158 1.385 . S
C158 H141 0.940 . S
C158 C157 1.385 . S
C158 C159 1.388 . S
C159 H138 0.939 . S
C159 C154 1.391 . S
C159 C158 1.388 . S
P160 O171 1.490 . S
P160 C174 1.812 . S
P160 C180 1.803 . S
P160 C186 1.819 . S
H161 C175 0.941 . S
H162 C176 0.939 . S
H163 C178 0.940 . S
H164 C179 0.940 . S
H165 C181 0.939 . S
H166 C182 0.942 . S
H167 C184 0.940 . S
H168 C185 0.939 . S
H169 C187 0.941 . S
H170 C191 0.939 . S
O171 P160 1.490 . S
H172 C188 0.939 . S
H173 C190 0.940 . S
C174 P160 1.812 . S
C174 C175 1.389 . S
C174 C179 1.391 . S
C175 H161 0.941 . S
C175 C174 1.389 . S
C175 C176 1.397 . S
C176 H162 0.939 . S
C176 C175 1.397 . S
C176 C177 1.378 . S
C177 C176 1.378 . S
C177 C178 1.378 . S
C178 H163 0.940 . S
C178 C177 1.378 . S
C178 C179 1.396 . S
C179 H164 0.940 . S
C179 C174 1.391 . S
C179 C178 1.396 . S
C180 P160 1.803 . S
C180 C181 1.378 . S
C180 C185 1.400 . S
C181 H165 0.939 . S
C181 C180 1.378 . S
C181 C182 1.361 . S
C182 H166 0.942 . S
C182 C181 1.361 . S
C182 C183 1.369 . S
C183 C182 1.369 . S
C183 C184 1.404 . S
C184 H167 0.940 . S
C184 C183 1.404 . S
C184 C185 1.389 . S
C185 H168 0.939 . S
C185 C180 1.400 . S
C185 C184 1.389 . S
C186 P160 1.819 . S
C186 C187 1.391 . S
C186 C191 1.391 . S
C187 H169 0.941 . S
C187 C186 1.391 . S
C187 C188 1.396 . S
C188 H172 0.939 . S
C188 C187 1.396 . S
C188 C189 1.397 . S
C189 C188 1.397 . S
C189 C190 1.385 . S
C190 H173 0.940 . S
C190 C189 1.385 . S
C190 C191 1.388 . S
C191 H170 0.939 . S
C191 C186 1.391 . S
C191 C190 1.388 . S
P192 O203 1.490 . S
P192 C206 1.812 . S
P192 C212 1.803 . S
P192 C218 1.819 . S
H193 C207 0.941 . S
H194 C208 0.939 . S
H195 C210 0.940 . S
H196 C211 0.940 . S
H197 C213 0.939 . S
H198 C214 0.942 . S
H199 C216 0.940 . S
H200 C217 0.939 . S
H201 C219 0.941 . S
H202 C223 0.939 . S
O203 P192 1.490 . S
H204 C220 0.939 . S
H205 C222 0.940 . S
C206 P192 1.812 . S
C206 C207 1.389 . S
C206 C211 1.391 . S
C207 H193 0.941 . S
C207 C206 1.389 . S
C207 C208 1.397 . S
C208 H194 0.939 . S
C208 C207 1.397 . S
C208 C209 1.378 . S
C209 C208 1.378 . S
C209 C210 1.378 . S
C210 H195 0.940 . S
C210 C209 1.378 . S
C210 C211 1.396 . S
C211 H196 0.940 . S
C211 C206 1.391 . S
C211 C210 1.396 . S
C212 P192 1.803 . S
C212 C213 1.378 . S
C212 C217 1.400 . S
C213 H197 0.939 . S
C213 C212 1.378 . S
C213 C214 1.361 . S
C214 H198 0.942 . S
C214 C213 1.361 . S
C214 C215 1.369 . S
C215 C214 1.369 . S
C215 C216 1.404 . S
C216 H199 0.940 . S
C216 C215 1.404 . S
C216 C217 1.389 . S
C217 H200 0.939 . S
C217 C212 1.400 . S
C217 C216 1.389 . S
C218 P192 1.819 . S
C218 C219 1.391 . S
C218 C223 1.391 . S
C219 H201 0.941 . S
C219 C218 1.391 . S
C219 C220 1.396 . S
C220 H204 0.939 . S
C220 C219 1.396 . S
C220 C221 1.397 . S
C221 C220 1.397 . S
C221 C222 1.385 . S
C222 H205 0.940 . S
C222 C221 1.385 . S
C222 C223 1.388 . S
C223 H202 0.939 . S
C223 C218 1.391 . S
C223 C222 1.388 . S
P224 O235 1.490 . S
P224 C238 1.812 . S
P224 C244 1.803 . S
P224 C250 1.819 . S
H225 C239 0.941 . S
H226 C240 0.939 . S
H227 C242 0.940 . S
H228 C243 0.940 . S
H229 C245 0.939 . S
H230 C246 0.942 . S
H231 C248 0.940 . S
H232 C249 0.939 . S
H233 C251 0.941 . S
H234 C255 0.939 . S
O235 P224 1.490 . S
H236 C252 0.939 . S
H237 C254 0.940 . S
C238 P224 1.812 . S
C238 C239 1.389 . S
C238 C243 1.391 . S
C239 H225 0.941 . S
C239 C238 1.389 . S
C239 C240 1.397 . S
C240 H226 0.939 . S
C240 C239 1.397 . S
C240 C241 1.378 . S
C241 C240 1.378 . S
C241 C242 1.378 . S
C242 H227 0.940 . S
C242 C241 1.378 . S
C242 C243 1.396 . S
C243 H228 0.940 . S
C243 C238 1.391 . S
C243 C242 1.396 . S
C244 P224 1.803 . S
C244 C245 1.378 . S
C244 C249 1.400 . S
C245 H229 0.939 . S
C245 C244 1.378 . S
C245 C246 1.361 . S
C246 H230 0.942 . S
C246 C245 1.361 . S
C246 C247 1.369 . S
C247 C246 1.369 . S
C247 C248 1.404 . S
C248 H231 0.940 . S
C248 C247 1.404 . S
C248 C249 1.389 . S
C249 H232 0.939 . S
C249 C244 1.400 . S
C249 C248 1.389 . S
C250 P224 1.819 . S
C250 C251 1.391 . S
C250 C255 1.391 . S
C251 H233 0.941 . S
C251 C250 1.391 . S
C251 C252 1.396 . S
C252 H236 0.939 . S
C252 C251 1.396 . S
C252 C253 1.397 . S
C253 C252 1.397 . S
C253 C254 1.385 . S
C254 H237 0.940 . S
C254 C253 1.385 . S
C254 C255 1.388 . S
C255 H234 0.939 . S
C255 C250 1.391 . S
C255 C254 1.388 . S
O256 Mn257 2.163 1_655 S
O256 C270 1.244 . S
Mn257 O256 2.163 1_455 S
Mn257 O260 2.160 1_545 S
Mn257 O261 2.221 . S
Mn257 O263 2.163 1_445 S
Mn257 O265 2.160 . S
Mn257 O275 2.221 1_445 S
O258 Mn259 2.087 1_545 S
O258 C270 1.256 . S
Mn259 O258 2.087 1_565 S
Mn259 O266 2.089 1_565 S
Mn259 O275 2.290 . S
Mn259 O276 2.251 . S
O260 Mn257 2.160 1_565 S
O260 C271 1.239 . S
O261 Mn257 2.221 . S
O261 Mn262 2.290 . S
O261 C272 1.278 . S
Mn262 O261 2.290 . S
Mn262 O264 2.089 1_545 S
Mn262 O267 2.251 . S
Mn262 O268 2.087 . S
O263 Mn257 2.163 1_665 S
O263 C273 1.244 . S
O264 Mn262 2.089 1_565 S
O264 C271 1.256 . S
O265 Mn257 2.160 . S
O265 C274 1.239 . S
O266 Mn259 2.089 1_545 S
O266 C274 1.256 1_655 S
O267 Mn262 2.251 . S
O267 C272 1.241 . S
O268 Mn262 2.087 . S
O268 C273 1.256 1_445 S
C269 O275 1.278 . S
C269 O276 1.241 . S
C270 O256 1.244 . S
C270 O258 1.256 . S
C271 O260 1.239 . S
C271 O264 1.256 . S
C272 O261 1.278 . S
C272 O267 1.241 . S
C273 O263 1.244 . S
C273 O268 1.256 1_665 S
C274 O265 1.239 . S
C274 O266 1.256 1_455 S
O275 Mn257 2.221 1_665 S
O275 Mn259 2.290 . S
O275 C269 1.278 . S
O276 Mn259 2.251 . S
O276 C269 1.241 . S
O277 Mn278 2.163 1_556 S
O277 C291 1.244 1_545 S
Mn278 O277 2.163 1_554 S
Mn278 O281 2.160 . S
Mn278 O282 2.221 . S
Mn278 O284 2.163 . S
Mn278 O286 2.160 1_554 S
Mn278 O296 2.221 1_545 S
O279 Mn280 2.087 . S
O279 C291 1.256 . S
Mn280 O279 2.087 . S
Mn280 O287 2.089 . S
Mn280 O296 2.290 1_556 S
Mn280 O297 2.251 1_556 S
O281 Mn278 2.160 . S
O281 C292 1.239 . S
O282 Mn278 2.221 . S
O282 Mn283 2.290 . S
O282 C293 1.278 1_554 S
Mn283 O282 2.290 . S
Mn283 O285 2.089 . S
Mn283 O288 2.251 1_554 S
Mn283 O289 2.087 . S
O284 Mn278 2.163 . S
O284 C294 1.244 . S
O285 Mn283 2.089 . S
O285 C292 1.256 . S
O286 Mn278 2.160 1_556 S
O286 C295 1.239 1_545 S
O287 Mn280 2.089 . S
O287 C295 1.256 . S
O288 Mn283 2.251 1_556 S
O288 C293 1.241 . S
O289 Mn283 2.087 . S
O289 C294 1.256 . S
C290 O296 1.278 . S
C290 O297 1.241 . S
C291 O277 1.244 1_565 S
C291 O279 1.256 . S
C292 O281 1.239 . S
C292 O285 1.256 . S
C293 O282 1.278 1_556 S
C293 O288 1.241 . S
C294 O284 1.244 . S
C294 O289 1.256 . S
C295 O286 1.239 1_565 S
C295 O287 1.256 . S
O296 Mn278 2.221 1_565 S
O296 Mn280 2.290 1_554 S
O296 C290 1.278 . S
O297 Mn280 2.251 1_554 S
O297 C290 1.241 . S
O298 Mn299 2.163 . S
O298 C312 1.244 . S
Mn299 O298 2.163 . S
Mn299 O302 2.160 . S
Mn299 O303 2.221 . S
Mn299 O305 2.163 . S
Mn299 O307 2.160 . S
Mn299 O317 2.221 . S
O300 Mn301 2.087 . S
O300 C312 1.256 . S
Mn301 O300 2.087 . S
Mn301 O308 2.089 . S
Mn301 O317 2.290 . S
Mn301 O318 2.251 . S
O302 Mn299 2.160 . S
O302 C313 1.239 . S
O303 Mn299 2.221 . S
O303 Mn304 2.290 . S
O303 C314 1.278 . S
Mn304 O303 2.290 . S
Mn304 O306 2.089 . S
Mn304 O309 2.251 . S
Mn304 O310 2.087 . S
O305 Mn299 2.163 . S
O305 C315 1.244 . S
O306 Mn304 2.089 . S
O306 C313 1.256 . S
O307 Mn299 2.160 . S
O307 C316 1.239 . S
O308 Mn301 2.089 . S
O308 C316 1.256 . S
O309 Mn304 2.251 . S
O309 C314 1.241 . S
O310 Mn304 2.087 . S
O310 C315 1.256 . S
C311 O317 1.278 . S
C311 O318 1.241 . S
C312 O298 1.244 . S
C312 O300 1.256 . S
C313 O302 1.239 . S
C313 O306 1.256 . S
C314 O303 1.278 . S
C314 O309 1.241 . S
C315 O305 1.244 . S
C315 O310 1.256 . S
C316 O307 1.239 . S
C316 O308 1.256 . S
O317 Mn299 2.221 . S
O317 Mn301 2.290 . S
O317 C311 1.278 . S
O318 Mn301 2.251 . S
O318 C311 1.241 . S
O319 Mn320 2.163 1_655 S
O319 C333 1.244 1_554 S
Mn320 O319 2.163 1_455 S
Mn320 O323 2.160 . S
Mn320 O324 2.221 1_455 S
Mn320 O326 2.163 . S
Mn320 O328 2.160 1_454 S
Mn320 O338 2.221 1_554 S
O321 Mn322 2.087 . S
O321 C333 1.256 . S
Mn322 O321 2.087 . S
Mn322 O329 2.089 . S
Mn322 O338 2.290 1_655 S
Mn322 O339 2.251 . S
O323 Mn320 2.160 . S
O323 C334 1.239 . S
O324 Mn320 2.221 1_655 S
O324 Mn325 2.290 1_655 S
O324 C335 1.278 . S
Mn325 O324 2.290 1_455 S
Mn325 O327 2.089 . S
Mn325 O330 2.251 1_455 S
Mn325 O331 2.087 . S
O326 Mn320 2.163 . S
O326 C336 1.244 . S
O327 Mn325 2.089 . S
O327 C334 1.256 . S
O328 Mn320 2.160 1_656 S
O328 C337 1.239 . S
O329 Mn322 2.089 . S
O329 C337 1.256 . S
O330 Mn325 2.251 1_655 S
O330 C335 1.241 . S
O331 Mn325 2.087 . S
O331 C336 1.256 . S
C332 O338 1.278 . S
C332 O339 1.241 1_455 S
C333 O319 1.244 1_556 S
C333 O321 1.256 . S
C334 O323 1.239 . S
C334 O327 1.256 . S
C335 O324 1.278 . S
C335 O330 1.241 . S
C336 O326 1.244 . S
C336 O331 1.256 . S
C337 O328 1.239 . S
C337 O329 1.256 . S
O338 Mn320 2.221 1_556 S
O338 Mn322 2.290 1_455 S
O338 C332 1.278 . S
O339 Mn322 2.251 . S
O339 C332 1.241 1_655 S
H340 C348 0.950 . S
H341 C353 0.950 . S
H342 C350 0.950 . S
H343 C352 0.950 . S
H344 C354 0.950 . S
H345 C356 0.950 . S
H346 C358 0.950 . S
H347 C359 0.950 1_655 S
C348 H340 0.950 . S
C348 C349 1.386 . S
C348 C350 1.391 . S
C349 C348 1.386 . S
C349 C353 1.393 . S
C350 H342 0.950 . S
C350 C348 1.391 . S
C350 C351 1.400 . S
C351 C350 1.400 . S
C351 C352 1.398 . S
C351 C357 1.491 . S
C352 H343 0.950 . S
C352 C351 1.398 . S
C352 C353 1.391 . S
C353 H341 0.950 . S
C353 C349 1.393 . S
C353 C352 1.391 . S
C354 H344 0.950 . S
C354 C355 1.386 . S
C354 C356 1.391 . S
C355 C354 1.386 . S
C355 C359 1.393 . S
C356 H345 0.950 . S
C356 C354 1.391 . S
C356 C357 1.400 . S
C357 C351 1.491 . S
C357 C356 1.400 . S
C357 C358 1.398 . S
C358 H346 0.950 . S
C358 C357 1.398 . S
C358 C359 1.391 . S
C359 H347 0.950 1_455 S
C359 C355 1.393 . S
C359 C358 1.391 . S
H360 C368 0.950 . S
H361 C373 0.950 . S
H362 C370 0.950 . S
H363 C372 0.950 . S
H364 C374 0.950 . S
H365 C376 0.950 . S
H366 C378 0.950 1_545 S
H367 C379 0.950 . S
C368 H360 0.950 . S
C368 C369 1.386 . S
C368 C370 1.391 . S
C369 C368 1.386 . S
C369 C373 1.393 . S
C370 H362 0.950 . S
C370 C368 1.391 . S
C370 C371 1.400 . S
C371 C370 1.400 . S
C371 C372 1.398 . S
C371 C377 1.491 . S
C372 H363 0.950 . S
C372 C371 1.398 . S
C372 C373 1.391 . S
C373 H361 0.950 . S
C373 C369 1.393 . S
C373 C372 1.391 . S
C374 H364 0.950 . S
C374 C375 1.386 . S
C374 C376 1.391 . S
C375 C374 1.386 . S
C375 C379 1.393 1_565 S
C376 H365 0.950 . S
C376 C374 1.391 . S
C376 C377 1.400 . S
C377 C371 1.491 . S
C377 C376 1.400 . S
C377 C378 1.398 . S
C378 H366 0.950 1_565 S
C378 C377 1.398 . S
C378 C379 1.391 1_565 S
C379 H367 0.950 . S
C379 C375 1.393 1_545 S
C379 C378 1.391 1_545 S
H380 C388 0.950 . S
H381 C393 0.950 . S
H382 C390 0.950 . S
H383 C392 0.950 . S
H384 C394 0.950 . S
H385 C396 0.950 . S
H386 C398 0.950 . S
H387 C399 0.950 . S
C388 H380 0.950 . S
C388 C389 1.386 . S
C388 C390 1.391 . S
C389 C388 1.386 . S
C389 C393 1.393 . S
C390 H382 0.950 . S
C390 C388 1.391 . S
C390 C391 1.400 . S
C391 C390 1.400 . S
C391 C392 1.398 . S
C391 C397 1.491 . S
C392 H383 0.950 . S
C392 C391 1.398 . S
C392 C393 1.391 . S
C393 H381 0.950 . S
C393 C389 1.393 . S
C393 C392 1.391 . S
C394 H384 0.950 . S
C394 C395 1.386 . S
C394 C396 1.391 . S
C395 C394 1.386 . S
C395 C399 1.393 . S
C396 H385 0.950 . S
C396 C394 1.391 . S
C396 C397 1.400 . S
C397 C391 1.491 . S
C397 C396 1.400 . S
C397 C398 1.398 . S
C398 H386 0.950 . S
C398 C397 1.398 . S
C398 C399 1.391 . S
C399 H387 0.950 . S
C399 C395 1.393 . S
C399 C398 1.391 . S
H400 C408 0.950 . S
H401 C413 0.950 . S
H402 C410 0.950 . S
H403 C412 0.950 . S
H404 C414 0.950 . S
H405 C416 0.950 . S
H406 C418 0.950 . S
H407 C419 0.950 . S
C408 H400 0.950 . S
C408 C409 1.386 . S
C408 C410 1.391 . S
C409 C408 1.386 . S
C409 C413 1.393 . S
C410 H402 0.950 . S
C410 C408 1.391 . S
C410 C411 1.400 . S
C411 C410 1.400 . S
C411 C412 1.398 . S
C411 C417 1.491 . S
C412 H403 0.950 . S
C412 C411 1.398 . S
C412 C413 1.391 . S
C413 H401 0.950 . S
C413 C409 1.393 . S
C413 C412 1.391 . S
C414 H404 0.950 . S
C414 C415 1.386 . S
C414 C416 1.391 . S
C415 C414 1.386 . S
C415 C419 1.393 . S
C416 H405 0.950 . S
C416 C414 1.391 . S
C416 C417 1.400 . S
C417 C411 1.491 . S
C417 C416 1.400 . S
C417 C418 1.398 . S
C418 H406 0.950 . S
C418 C417 1.398 . S
C418 C419 1.391 . S
C419 H407 0.950 . S
C419 C415 1.393 . S
C419 C418 1.391 . S
H420 C428 0.950 . S
H421 C433 0.950 . S
H422 C430 0.950 . S
H423 C432 0.950 . S
H424 C434 0.950 . S
H425 C436 0.950 . S
H426 C438 0.950 . S
H427 C439 0.950 . S
C428 H420 0.950 . S
C428 C429 1.386 . S
C428 C430 1.391 . S
C429 C428 1.386 . S
C429 C433 1.393 . S
C430 H422 0.950 . S
C430 C428 1.391 . S
C430 C431 1.400 . S
C431 C430 1.400 . S
C431 C432 1.398 . S
C431 C437 1.491 . S
C432 H423 0.950 . S
C432 C431 1.398 . S
C432 C433 1.391 . S
C433 H421 0.950 . S
C433 C429 1.393 . S
C433 C432 1.391 . S
C434 H424 0.950 . S
C434 C435 1.386 . S
C434 C436 1.391 . S
C435 C434 1.386 . S
C435 C439 1.393 . S
C436 H425 0.950 . S
C436 C434 1.391 . S
C436 C437 1.400 . S
C437 C431 1.491 . S
C437 C436 1.400 . S
C437 C438 1.398 . S
C438 H426 0.950 . S
C438 C437 1.398 . S
C438 C439 1.391 . S
C439 H427 0.950 . S
C439 C435 1.393 . S
C439 C438 1.391 . S
H440 C448 0.950 . S
H441 C453 0.950 . S
H442 C450 0.950 . S
H443 C452 0.950 . S
H444 C454 0.950 . S
H445 C456 0.950 . S
H446 C458 0.950 . S
H447 C459 0.950 1_545 S
C448 H440 0.950 . S
C448 C449 1.386 . S
C448 C450 1.391 . S
C449 C448 1.386 . S
C449 C453 1.393 . S
C450 H442 0.950 . S
C450 C448 1.391 . S
C450 C451 1.400 . S
C451 C450 1.400 . S
C451 C452 1.398 . S
C451 C457 1.491 . S
C452 H443 0.950 . S
C452 C451 1.398 . S
C452 C453 1.391 . S
C453 H441 0.950 . S
C453 C449 1.393 . S
C453 C452 1.391 . S
C454 H444 0.950 . S
C454 C455 1.386 . S
C454 C456 1.391 . S
C455 C454 1.386 . S
C455 C459 1.393 . S
C456 H445 0.950 . S
C456 C454 1.391 . S
C456 C457 1.400 . S
C457 C451 1.491 . S
C457 C456 1.400 . S
C457 C458 1.398 . S
C458 H446 0.950 . S
C458 C457 1.398 . S
C458 C459 1.391 . S
C459 H447 0.950 1_565 S
C459 C455 1.393 . S
C459 C458 1.391 . S
H460 C468 0.950 . S
H461 C473 0.950 . S
H462 C470 0.950 . S
H463 C472 0.950 . S
H464 C474 0.950 1_554 S
H465 C476 0.950 . S
H466 C478 0.950 . S
H467 C479 0.950 . S
C468 H460 0.950 . S
C468 C469 1.386 . S
C468 C470 1.391 . S
C469 C468 1.386 . S
C469 C473 1.393 . S
C470 H462 0.950 . S
C470 C468 1.391 . S
C470 C471 1.400 . S
C471 C470 1.400 . S
C471 C472 1.398 . S
C471 C477 1.491 . S
C472 H463 0.950 . S
C472 C471 1.398 . S
C472 C473 1.391 . S
C473 H461 0.950 . S
C473 C469 1.393 . S
C473 C472 1.391 . S
C474 H464 0.950 1_556 S
C474 C475 1.386 . S
C474 C476 1.391 . S
C475 C474 1.386 . S
C475 C479 1.393 . S
C476 H465 0.950 . S
C476 C474 1.391 . S
C476 C477 1.400 . S
C477 C471 1.491 . S
C477 C476 1.400 . S
C477 C478 1.398 . S
C478 H466 0.950 . S
C478 C477 1.398 . S
C478 C479 1.391 . S
C479 H467 0.950 . S
C479 C475 1.393 . S
C479 C478 1.391 . S
H480 C488 0.950 . S
H481 C493 0.950 . S
H482 C490 0.950 . S
H483 C492 0.950 . S
H484 C494 0.950 . S
H485 C496 0.950 . S
H486 C498 0.950 . S
H487 C499 0.950 . S
C488 H480 0.950 . S
C488 C489 1.386 . S
C488 C490 1.391 . S
C489 C488 1.386 . S
C489 C493 1.393 . S
C490 H482 0.950 . S
C490 C488 1.391 . S
C490 C491 1.400 . S
C491 C490 1.400 . S
C491 C492 1.398 . S
C491 C497 1.491 . S
C492 H483 0.950 . S
C492 C491 1.398 . S
C492 C493 1.391 . S
C493 H481 0.950 . S
C493 C489 1.393 . S
C493 C492 1.391 . S
C494 H484 0.950 . S
C494 C495 1.386 . S
C494 C496 1.391 . S
C495 C494 1.386 . S
C495 C499 1.393 . S
C496 H485 0.950 . S
C496 C494 1.391 . S
C496 C497 1.400 . S
C497 C491 1.491 . S
C497 C496 1.400 . S
C497 C498 1.398 . S
C498 H486 0.950 . S
C498 C497 1.398 . S
C498 C499 1.391 . S
C499 H487 0.950 . S
C499 C495 1.393 . S
C499 C498 1.391 . S
H500 C508 0.950 . S
H501 C513 0.950 . S
H502 C510 0.950 . S
H503 C512 0.950 . S
H504 C514 0.950 . S
H505 C516 0.950 . S
H506 C518 0.950 . S
H507 C519 0.950 1_655 S
C508 H500 0.950 . S
C508 C509 1.386 . S
C508 C510 1.391 . S
C509 C508 1.386 . S
C509 C513 1.393 . S
C510 H502 0.950 . S
C510 C508 1.391 . S
C510 C511 1.400 . S
C511 C510 1.400 . S
C511 C512 1.398 . S
C511 C517 1.491 . S
C512 H503 0.950 . S
C512 C511 1.398 . S
C512 C513 1.391 . S
C513 H501 0.950 . S
C513 C509 1.393 . S
C513 C512 1.391 . S
C514 H504 0.950 . S
C514 C515 1.386 . S
C514 C516 1.391 . S
C515 C514 1.386 . S
C515 C519 1.393 . S
C516 H505 0.950 . S
C516 C514 1.391 . S
C516 C517 1.400 . S
C517 C511 1.491 . S
C517 C516 1.400 . S
C517 C518 1.398 . S
C518 H506 0.950 . S
C518 C517 1.398 . S
C518 C519 1.391 . S
C519 H507 0.950 1_455 S
C519 C515 1.393 . S
C519 C518 1.391 . S
H520 C528 0.950 . S
H521 C533 0.950 . S
H522 C530 0.950 . S
H523 C532 0.950 . S
H524 C534 0.950 . S
H525 C536 0.950 . S
H526 C538 0.950 . S
H527 C539 0.950 . S
C528 H520 0.950 . S
C528 C529 1.386 . S
C528 C530 1.391 . S
C529 C528 1.386 . S
C529 C533 1.393 . S
C530 H522 0.950 . S
C530 C528 1.391 . S
C530 C531 1.400 . S
C531 C530 1.400 . S
C531 C532 1.398 . S
C531 C537 1.491 . S
C532 H523 0.950 . S
C532 C531 1.398 . S
C532 C533 1.391 . S
C533 H521 0.950 . S
C533 C529 1.393 . S
C533 C532 1.391 . S
C534 H524 0.950 . S
C534 C535 1.386 . S
C534 C536 1.391 . S
C535 C534 1.386 . S
C535 C539 1.393 . S
C536 H525 0.950 . S
C536 C534 1.391 . S
C536 C537 1.400 . S
C537 C531 1.491 . S
C537 C536 1.400 . S
C537 C538 1.398 . S
C538 H526 0.950 . S
C538 C537 1.398 . S
C538 C539 1.391 . S
C539 H527 0.950 . S
C539 C535 1.393 . S
C539 C538 1.391 . S
H540 C548 0.950 . S
H541 C553 0.950 . S
H542 C550 0.950 . S
H543 C552 0.950 . S
H544 C554 0.950 . S
H545 C556 0.950 . S
H546 C558 0.950 . S
H547 C559 0.950 1_455 S
C548 H540 0.950 . S
C548 C549 1.386 . S
C548 C550 1.391 . S
C549 C548 1.386 . S
C549 C553 1.393 . S
C550 H542 0.950 . S
C550 C548 1.391 . S
C550 C551 1.400 . S
C551 C550 1.400 . S
C551 C552 1.398 . S
C551 C557 1.491 . S
C552 H543 0.950 . S
C552 C551 1.398 . S
C552 C553 1.391 . S
C553 H541 0.950 . S
C553 C549 1.393 . S
C553 C552 1.391 . S
C554 H544 0.950 . S
C554 C555 1.386 . S
C554 C556 1.391 . S
C555 C554 1.386 . S
C555 C559 1.393 . S
C556 H545 0.950 . S
C556 C554 1.391 . S
C556 C557 1.400 . S
C557 C551 1.491 . S
C557 C556 1.400 . S
C557 C558 1.398 . S
C558 H546 0.950 . S
C558 C557 1.398 . S
C558 C559 1.391 . S
C559 H547 0.950 1_655 S
C559 C555 1.393 . S
C559 C558 1.391 . S
H560 C568 0.950 . S
H561 C573 0.950 . S
H562 C570 0.950 . S
H563 C572 0.950 . S
H564 C574 0.950 . S
H565 C576 0.950 . S
H566 C578 0.950 . S
H567 C579 0.950 . S
C568 H560 0.950 . S
C568 C569 1.386 . S
C568 C570 1.391 . S
C569 C568 1.386 . S
C569 C573 1.393 . S
C570 H562 0.950 . S
C570 C568 1.391 . S
C570 C571 1.400 . S
C571 C570 1.400 . S
C571 C572 1.398 . S
C571 C577 1.491 . S
C572 H563 0.950 . S
C572 C571 1.398 . S
C572 C573 1.391 . S
C573 H561 0.950 . S
C573 C569 1.393 . S
C573 C572 1.391 . S
C574 H564 0.950 . S
C574 C575 1.386 . S
C574 C576 1.391 . S
C575 C574 1.386 . S
C575 C579 1.393 . S
C576 H565 0.950 . S
C576 C574 1.391 . S
C576 C577 1.400 . S
C577 C571 1.491 . S
C577 C576 1.400 . S
C577 C578 1.398 . S
C578 H566 0.950 . S
C578 C577 1.398 . S
C578 C579 1.391 . S
C579 H567 0.950 . S
C579 C575 1.393 . S
C579 C578 1.391 . S
H580 C588 0.950 . S
H581 C593 0.950 . S
H582 C590 0.950 . S
H583 C592 0.950 . S
H584 C594 0.950 . S
H585 C596 0.950 . S
H586 C598 0.950 . S
H587 C599 0.950 1_455 S
C588 H580 0.950 . S
C588 C589 1.386 . S
C588 C590 1.391 . S
C589 C588 1.386 . S
C589 C593 1.393 . S
C590 H582 0.950 . S
C590 C588 1.391 . S
C590 C591 1.400 . S
C591 C590 1.400 . S
C591 C592 1.398 . S
C591 C597 1.491 . S
C592 H583 0.950 . S
C592 C591 1.398 . S
C592 C593 1.391 . S
C593 H581 0.950 . S
C593 C589 1.393 . S
C593 C592 1.391 . S
C594 H584 0.950 . S
C594 C595 1.386 . S
C594 C596 1.391 . S
C595 C594 1.386 . S
C595 C599 1.393 . S
C596 H585 0.950 . S
C596 C594 1.391 . S
C596 C597 1.400 . S
C597 C591 1.491 . S
C597 C596 1.400 . S
C597 C598 1.398 . S
C598 H586 0.950 . S
C598 C597 1.398 . S
C598 C599 1.391 . S
C599 H587 0.950 1_655 S
C599 C595 1.393 . S
C599 C598 1.391 . S
H600 C608 0.950 . S
H601 C613 0.950 . S
H602 C610 0.950 . S
H603 C612 0.950 . S
H604 C614 0.950 . S
H605 C616 0.950 . S
H606 C618 0.950 . S
H607 C619 0.950 . S
C608 H600 0.950 . S
C608 C609 1.386 . S
C608 C610 1.391 . S
C609 C608 1.386 . S
C609 C613 1.393 . S
C610 H602 0.950 . S
C610 C608 1.391 . S
C610 C611 1.400 . S
C611 C610 1.400 . S
C611 C612 1.398 . S
C611 C617 1.491 . S
C612 H603 0.950 . S
C612 C611 1.398 . S
C612 C613 1.391 . S
C613 H601 0.950 . S
C613 C609 1.393 . S
C613 C612 1.391 . S
C614 H604 0.950 . S
C614 C615 1.386 . S
C614 C616 1.391 . S
C615 C614 1.386 . S
C615 C619 1.393 . S
C616 H605 0.950 . S
C616 C614 1.391 . S
C616 C617 1.400 . S
C617 C611 1.491 . S
C617 C616 1.400 . S
C617 C618 1.398 . S
C618 H606 0.950 . S
C618 C617 1.398 . S
C618 C619 1.391 . S
C619 H607 0.950 . S
C619 C615 1.393 . S
C619 C618 1.391 . S
H620 C628 0.950 . S
H621 C633 0.950 . S
H622 C630 0.950 . S
H623 C632 0.950 . S
H624 C634 0.950 . S
H625 C636 0.950 . S
H626 C638 0.950 . S
H627 C639 0.950 . S
C628 H620 0.950 . S
C628 C629 1.386 . S
C628 C630 1.391 . S
C629 C628 1.386 . S
C629 C633 1.393 . S
C630 H622 0.950 . S
C630 C628 1.391 . S
C630 C631 1.400 . S
C631 C630 1.400 . S
C631 C632 1.398 . S
C631 C637 1.491 . S
C632 H623 0.950 . S
C632 C631 1.398 . S
C632 C633 1.391 . S
C633 H621 0.950 . S
C633 C629 1.393 . S
C633 C632 1.391 . S
C634 H624 0.950 . S
C634 C635 1.386 . S
C634 C636 1.391 . S
C635 C634 1.386 . S
C635 C639 1.393 . S
C636 H625 0.950 . S
C636 C634 1.391 . S
C636 C637 1.400 . S
C637 C631 1.491 . S
C637 C636 1.400 . S
C637 C638 1.398 . S
C638 H626 0.950 . S
C638 C637 1.398 . S
C638 C639 1.391 . S
C639 H627 0.950 . S
C639 C635 1.393 . S
C639 C638 1.391 . S
H640 C648 0.950 . S
H641 C653 0.950 . S
H642 C650 0.950 . S
H643 C652 0.950 . S
H644 C654 0.950 . S
H645 C656 0.950 . S
H646 C658 0.950 . S
H647 C659 0.950 . S
C648 H640 0.950 . S
C648 C649 1.386 . S
C648 C650 1.391 . S
C649 C648 1.386 . S
C649 C653 1.393 . S
C650 H642 0.950 . S
C650 C648 1.391 . S
C650 C651 1.400 . S
C651 C650 1.400 . S
C651 C652 1.398 . S
C651 C657 1.491 . S
C652 H643 0.950 . S
C652 C651 1.398 . S
C652 C653 1.391 . S
C653 H641 0.950 . S
C653 C649 1.393 . S
C653 C652 1.391 . S
C654 H644 0.950 . S
C654 C655 1.386 . S
C654 C656 1.391 . S
C655 C654 1.386 . S
C655 C659 1.393 . S
C656 H645 0.950 . S
C656 C654 1.391 . S
C656 C657 1.400 . S
C657 C651 1.491 . S
C657 C656 1.400 . S
C657 C658 1.398 . S
C658 H646 0.950 . S
C658 C657 1.398 . S
C658 C659 1.391 . S
C659 H647 0.950 . S
C659 C655 1.393 . S
C659 C658 1.391 . S
H660 C668 0.950 . S
H661 C673 0.950 . S
H662 C670 0.950 . S
H663 C672 0.950 . S
H664 C674 0.950 . S
H665 C676 0.950 1_545 S
H666 C678 0.950 . S
H667 C679 0.950 . S
C668 H660 0.950 . S
C668 C669 1.386 . S
C668 C670 1.391 . S
C669 C668 1.386 . S
C669 C673 1.393 . S
C670 H662 0.950 . S
C670 C668 1.391 . S
C670 C671 1.400 . S
C671 C670 1.400 . S
C671 C672 1.398 . S
C671 C677 1.491 . S
C672 H663 0.950 . S
C672 C671 1.398 . S
C672 C673 1.391 . S
C673 H661 0.950 . S
C673 C669 1.393 . S
C673 C672 1.391 . S
C674 H664 0.950 . S
C674 C675 1.386 1_545 S
C674 C676 1.391 1_545 S
C675 C674 1.386 1_565 S
C675 C679 1.393 . S
C676 H665 0.950 1_565 S
C676 C674 1.391 1_565 S
C676 C677 1.400 . S
C677 C671 1.491 . S
C677 C676 1.400 . S
C677 C678 1.398 . S
C678 H666 0.950 . S
C678 C677 1.398 . S
C678 C679 1.391 . S
C679 H667 0.950 . S
C679 C675 1.393 . S
C679 C678 1.391 . S
H680 C688 0.950 . S
H681 C693 0.950 . S
H682 C690 0.950 . S
H683 C692 0.950 . S
H684 C694 0.950 . S
H685 C696 0.950 . S
H686 C698 0.950 . S
H687 C699 0.950 . S
C688 H680 0.950 . S
C688 C689 1.386 . S
C688 C690 1.391 . S
C689 C688 1.386 . S
C689 C693 1.393 . S
C690 H682 0.950 . S
C690 C688 1.391 . S
C690 C691 1.400 . S
C691 C690 1.400 . S
C691 C692 1.398 . S
C691 C697 1.491 . S
C692 H683 0.950 . S
C692 C691 1.398 . S
C692 C693 1.391 . S
C693 H681 0.950 . S
C693 C689 1.393 . S
C693 C692 1.391 . S
C694 H684 0.950 . S
C694 C695 1.386 . S
C694 C696 1.391 . S
C695 C694 1.386 . S
C695 C699 1.393 . S
C696 H685 0.950 . S
C696 C694 1.391 . S
C696 C697 1.400 . S
C697 C691 1.491 . S
C697 C696 1.400 . S
C697 C698 1.398 . S
C698 H686 0.950 . S
C698 C697 1.398 . S
C698 C699 1.391 . S
C699 H687 0.950 . S
C699 C695 1.393 . S
C699 C698 1.391 . S
H700 C708 0.950 . S
H701 C713 0.950 . S
H702 C710 0.950 . S
H703 C712 0.950 . S
H704 C714 0.950 . S
H705 C716 0.950 . S
H706 C718 0.950 . S
H707 C719 0.950 . S
C708 H700 0.950 . S
C708 C709 1.386 . S
C708 C710 1.391 . S
C709 C708 1.386 . S
C709 C713 1.393 . S
C710 H702 0.950 . S
C710 C708 1.391 . S
C710 C711 1.400 . S
C711 C710 1.400 . S
C711 C712 1.398 . S
C711 C717 1.491 . S
C712 H703 0.950 . S
C712 C711 1.398 . S
C712 C713 1.391 . S
C713 H701 0.950 . S
C713 C709 1.393 . S
C713 C712 1.391 . S
C714 H704 0.950 . S
C714 C715 1.386 . S
C714 C716 1.391 . S
C715 C714 1.386 . S
C715 C719 1.393 . S
C716 H705 0.950 . S
C716 C714 1.391 . S
C716 C717 1.400 . S
C717 C711 1.491 . S
C717 C716 1.400 . S
C717 C718 1.398 . S
C718 H706 0.950 . S
C718 C717 1.398 . S
C718 C719 1.391 . S
C719 H707 0.950 . S
C719 C715 1.393 . S
C719 C718 1.391 . S
H720 C728 0.950 . S
H721 C733 0.950 . S
H722 C730 0.950 . S
H723 C732 0.950 . S
H724 C734 0.950 . S
H725 C736 0.950 . S
H726 C738 0.950 . S
H727 C739 0.950 . S
C728 H720 0.950 . S
C728 C729 1.386 . S
C728 C730 1.391 . S
C729 C728 1.386 . S
C729 C733 1.393 . S
C730 H722 0.950 . S
C730 C728 1.391 . S
C730 C731 1.400 . S
C731 C730 1.400 . S
C731 C732 1.398 . S
C731 C737 1.491 . S
C732 H723 0.950 . S
C732 C731 1.398 . S
C732 C733 1.391 . S
C733 H721 0.950 . S
C733 C729 1.393 . S
C733 C732 1.391 . S
C734 H724 0.950 . S
C734 C735 1.386 . S
C734 C736 1.391 . S
C735 C734 1.386 . S
C735 C739 1.393 . S
C736 H725 0.950 . S
C736 C734 1.391 . S
C736 C737 1.400 . S
C737 C731 1.491 . S
C737 C736 1.400 . S
C737 C738 1.398 . S
C738 H726 0.950 . S
C738 C737 1.398 . S
C738 C739 1.391 . S
C739 H727 0.950 . S
C739 C735 1.393 . S
C739 C738 1.391 . S
H740 C748 0.950 . S
H741 C753 0.950 . S
H742 C750 0.950 . S
H743 C752 0.950 . S
H744 C754 0.950 . S
H745 C756 0.950 . S
H746 C758 0.950 1_554 S
H747 C759 0.950 . S
C748 H740 0.950 . S
C748 C749 1.386 . S
C748 C750 1.391 . S
C749 C748 1.386 . S
C749 C753 1.393 . S
C750 H742 0.950 . S
C750 C748 1.391 . S
C750 C751 1.400 . S
C751 C750 1.400 . S
C751 C752 1.398 . S
C751 C757 1.491 . S
C752 H743 0.950 . S
C752 C751 1.398 . S
C752 C753 1.391 . S
C753 H741 0.950 . S
C753 C749 1.393 . S
C753 C752 1.391 . S
C754 H744 0.950 . S
C754 C755 1.386 . S
C754 C756 1.391 . S
C755 C754 1.386 . S
C755 C759 1.393 1_556 S
C756 H745 0.950 . S
C756 C754 1.391 . S
C756 C757 1.400 . S
C757 C751 1.491 . S
C757 C756 1.400 . S
C757 C758 1.398 . S
C758 H746 0.950 1_556 S
C758 C757 1.398 . S
C758 C759 1.391 1_556 S
C759 H747 0.950 . S
C759 C755 1.393 1_554 S
C759 C758 1.391 1_554 S
H760 C768 0.950 . S
H761 C773 0.950 . S
H762 C770 0.950 . S
H763 C772 0.950 . S
H764 C774 0.950 . S
H765 C776 0.950 . S
H766 C778 0.950 . S
H767 C779 0.950 . S
C768 H760 0.950 . S
C768 C769 1.386 . S
C768 C770 1.391 . S
C769 C768 1.386 . S
C769 C773 1.393 . S
C770 H762 0.950 . S
C770 C768 1.391 . S
C770 C771 1.400 . S
C771 C770 1.400 . S
C771 C772 1.398 . S
C771 C777 1.491 . S
C772 H763 0.950 . S
C772 C771 1.398 . S
C772 C773 1.391 . S
C773 H761 0.950 . S
C773 C769 1.393 . S
C773 C772 1.391 . S
C774 H764 0.950 . S
C774 C775 1.386 . S
C774 C776 1.391 . S
C775 C774 1.386 . S
C775 C779 1.393 . S
C776 H765 0.950 . S
C776 C774 1.391 . S
C776 C777 1.400 . S
C777 C771 1.491 . S
C777 C776 1.400 . S
C777 C778 1.398 . S
C778 H766 0.950 . S
C778 C777 1.398 . S
C778 C779 1.391 . S
C779 H767 0.950 . S
C779 C775 1.393 . S
C779 C778 1.391 . S
H780 C788 0.950 . S
H781 C793 0.950 . S
H782 C790 0.950 . S
H783 C792 0.950 . S
H784 C794 0.978 . S
H785 C796 0.950 1_655 S
H786 C798 0.950 . S
H787 C799 0.950 . S
C788 H780 0.950 . S
C788 C789 1.386 . S
C788 C790 1.391 . S
C789 C788 1.386 . S
C789 C793 1.393 . S
C790 H782 0.950 . S
C790 C788 1.391 . S
C790 C791 1.400 . S
C791 C790 1.400 . S
C791 C792 1.398 . S
C791 C797 1.491 . S
C792 H783 0.950 . S
C792 C791 1.398 . S
C792 C793 1.391 . S
C793 H781 0.950 . S
C793 C789 1.393 . S
C793 C792 1.391 . S
C794 H784 0.978 . S
C794 C795 1.362 1_655 S
C794 C796 1.387 1_655 S
C795 C794 1.362 1_455 S
C795 C799 1.393 . S
C796 H785 0.950 1_455 S
C796 C794 1.387 1_455 S
C796 C797 1.400 . S
C797 C791 1.491 . S
C797 C796 1.400 . S
C797 C798 1.398 . S
C798 H786 0.950 . S
C798 C797 1.398 . S
C798 C799 1.391 . S
C799 H787 0.950 . S
C799 C795 1.393 . S
C799 C798 1.391 . S
H800 C808 0.950 . S
H801 C813 0.950 . S
H802 C810 0.950 . S
H803 C812 0.950 . S
H804 C814 0.950 . S
H805 C816 0.950 . S
H806 C818 0.950 . S
H807 C819 0.950 . S
C808 H800 0.950 . S
C808 C809 1.386 . S
C808 C810 1.391 . S
C809 C808 1.386 . S
C809 C813 1.393 . S
C810 H802 0.950 . S
C810 C808 1.391 . S
C810 C811 1.400 . S
C811 C810 1.400 . S
C811 C812 1.398 . S
C811 C817 1.491 . S
C812 H803 0.950 . S
C812 C811 1.398 . S
C812 C813 1.391 . S
C813 H801 0.950 . S
C813 C809 1.393 . S
C813 C812 1.391 . S
C814 H804 0.950 . S
C814 C815 1.386 . S
C814 C816 1.391 . S
C815 C814 1.386 . S
C815 C819 1.393 . S
C816 H805 0.950 . S
C816 C814 1.391 . S
C816 C817 1.400 . S
C817 C811 1.491 . S
C817 C816 1.400 . S
C817 C818 1.398 . S
C818 H806 0.950 . S
C818 C817 1.398 . S
C818 C819 1.391 . S
C819 H807 0.950 . S
C819 C815 1.393 . S
C819 C818 1.391 . S
C349 C29 1.590 . S
C355 C274 1.611 . S
C369 C49 1.480 . S
C375 C291 1.439 . S
C395 C314 1.247 . S
C389 C93 1.410 . S
C409 C119 1.640 . S
C415 C335 1.404 . S
C435 C294 1.721 . S
C429 C17 1.719 . S
C455 C271 1.680 . S
C449 C61 1.741 . S
C475 C333 1.312 . S
C469 C81 1.314 . S
C495 C312 1.463 . S
C489 C125 1.418 . S
C509 C23 1.643 . S
C515 C336 1.676 . S
C535 C293 1.328 . S
C529 C87 1.535 . S
C549 C113 1.595 . S
C555 C269 1.536 . S
C569 C55 1.521 . S
C575 C315 1.506 . S
C595 C273 1.551 . S
C589 C157 1.626 . S
C609 C189 1.255 . S
C615 C292 1.297 . S
C629 C221 1.504 . S
C635 C311 1.294 . S
C649 C253 1.601 . S
C655 C332 1.375 . S
C669 C145 1.775 . S
C675 C295 1.736 . S
C695 C270 1.674 . S
C689 C183 1.650 . S
C715 C334 1.205 . S
C709 C209 1.261 . S
C735 C313 1.497 . S
C729 C247 1.487 . S
C749 C151 1.559 . S
C755 C337 1.526 . S
C775 C290 1.206 . S
C769 C215 1.485 . S
C795 C272 1.339 . S
C789 C241 1.404 . S
C809 C177 1.426 . S
C815 C316 1.454 . S
