# Generated by pormake.
# Topology rtl, (3,6)-cn, num edge types: 1
# Building blocks:
#     Node 0, Type 0, BuildingBlock: QEWDON_clean_linker_0, # of connection points: 3
#     Node 1, Type 0, BuildingBlock: QEWDON_clean_linker_0, # of connection points: 3
#     Node 2, Type 0, BuildingBlock: QEWDON_clean_linker_0, # of connection points: 3
#     Node 3, Type 0, BuildingBlock: QEWDON_clean_linker_0, # of connection points: 3
#     Node 4, Type 1, BuildingBlock: FUNLAD_clean_sbu_0, # of connection points: 6
#     Node 5, Type 1, BuildingBlock: FUNLAD_clean_sbu_0, # of connection points: 6
#     Edge 6, Type (0, 1), BuildingBlock: XIVTED_clean_linker_0, # of connection points: 2
#     Edge 7, Type (0, 1), BuildingBlock: XIVTED_clean_linker_0, # of connection points: 2
#     Edge 8, Type (0, 1), BuildingBlock: XIVTED_clean_linker_0, # of connection points: 2
#     Edge 9, Type (0, 1), BuildingBlock: XIVTED_clean_linker_0, # of connection points: 2
#     Edge 10, Type (0, 1), BuildingBlock: XIVTED_clean_linker_0, # of connection points: 2
#     Edge 11, Type (0, 1), BuildingBlock: XIVTED_clean_linker_0, # of connection points: 2
#     Edge 12, Type (0, 1), BuildingBlock: XIVTED_clean_linker_0, # of connection points: 2
#     Edge 13, Type (0, 1), BuildingBlock: XIVTED_clean_linker_0, # of connection points: 2
#     Edge 14, Type (0, 1), BuildingBlock: XIVTED_clean_linker_0, # of connection points: 2
#     Edge 15, Type (0, 1), BuildingBlock: XIVTED_clean_linker_0, # of connection points: 2
#     Edge 16, Type (0, 1), BuildingBlock: XIVTED_clean_linker_0, # of connection points: 2
#     Edge 17, Type (0, 1), BuildingBlock: XIVTED_clean_linker_0, # of connection points: 2
# Relax obj value: 0.015
# Max RMSD: 0.094
# Mean RMSD: 0.077
data_MOF--net-rtl--node1-FUNLAD_clean_sbu_0--node2-QEWDON_clean_linker_0--edge1-XIVTED_clean_linker_0
_symmetry_space_group_name_H-M    P1
_symmetry_Int_Tables_number       1
_symmetry_cell_setting            triclinic
loop_
_symmetry_equiv_pos_as_xyz
'x, y, z'
_cell_length_a     42.461075
_cell_length_b     42.345203
_cell_length_c     20.752847
_cell_angle_alpha  91.77592
_cell_angle_beta   92.601275
_cell_angle_gamma 89.964093
loop_
_atom_site_label
_atom_site_type_symbol
_atom_site_fract_x
_atom_site_fract_y
_atom_site_fract_z
_atom_type_partial_charge
H0 H 0.20892 0.86132 0.11643 0.0
C1 C 0.19583 0.86425 0.07092 0.0
C2 C 0.16387 0.87302 0.0705 0.0
C3 C 0.21144 0.86119 0.01285 0.0
H4 H 0.1234 0.88613 0.01089 0.0
C5 C 0.14757 0.87783 0.01124 0.0
C6 C 0.16306 0.87549 0.95299 0.0
C7 C 0.19505 0.86702 0.95416 0.0
C8 C 0.2459 0.85675 0.01399 0.0
H9 H 0.20751 0.86592 0.90968 0.0
C10 C 0.25961 0.82703 0.02484 0.0
C11 C 0.29265 0.82344 0.02552 0.0
C12 C 0.26521 0.88281 0.00373 0.0
H13 H 0.25495 0.90583 -0.00481 0.0
C14 C 0.29787 0.87942 0.00479 0.0
H15 H 0.24466 0.8069 0.03268 0.0
C16 C 0.31155 0.85 0.0156 0.0
H17 H 0.33696 0.8479 0.015 0.0
H18 H 0.31264 0.89963 -0.00316 0.0
H19 H 0.71293 0.66965 0.43795 0.0
C20 C 0.69954 0.66578 0.48025 0.0
C21 C 0.6682 0.6551 0.47295 0.0
C22 C 0.71413 0.66981 0.54212 0.0
H23 H 0.62767 0.63985 0.52252 0.0
C24 C 0.65138 0.64935 0.52807 0.0
C25 C 0.6658 0.65273 0.59 0.0
C26 C 0.69723 0.66299 0.59671 0.0
C27 C 0.74803 0.67767 0.54977 0.0
H28 H 0.70877 0.66518 0.64434 0.0
C29 C 0.75984 0.70641 0.5284 0.0
C30 C 0.79229 0.71331 0.53609 0.0
C31 C 0.76879 0.65598 0.57888 0.0
H32 H 0.76012 0.63374 0.59556 0.0
C33 C 0.80092 0.6626 0.58597 0.0
H34 H 0.74386 0.72329 0.5062 0.0
C35 C 0.81266 0.69101 0.5647 0.0
H36 H 0.83765 0.69583 0.57177 0.0
H37 H 0.81679 0.64571 0.6083 0.0
H38 H 0.81089 0.16596 0.0975 0.0
C39 C 0.82309 0.16421 0.05275 0.0
C40 C 0.85489 0.15499 0.05349 0.0
C41 C 0.80652 0.16983 0.99415 0.0
H42 H 0.89398 0.14293 -0.00496 0.0
C43 C 0.86999 0.15173 -0.00509 0.0
C44 C 0.85349 0.15633 0.93577 0.0
C45 C 0.82172 0.16576 0.93576 0.0
C46 C 0.77212 0.17473 0.9935 0.0
H47 H 0.80845 0.16853 0.89042 0.0
C48 C 0.75875 0.20491 0.98622 0.0
C49 C 0.72573 0.20878 0.9854 0.0
C50 C 0.75249 0.14854 0.00032 0.0
H51 H 0.76248 0.12519 0.00609 0.0
C52 C 0.71987 0.15224 -0.00055 0.0
H53 H 0.77394 0.22514 0.98089 0.0
C54 C 0.70653 0.18208 0.99202 0.0
H55 H 0.68113 0.18434 0.99249 0.0
H56 H 0.70487 0.13192 0.00479 0.0
H57 H 0.34768 0.3212 0.59163 0.0
C58 C 0.35211 0.33412 0.54867 0.0
C59 C 0.36282 0.36556 0.55441 0.0
C60 C 0.34905 0.3187 0.48779 0.0
H61 H 0.37917 0.40532 0.50284 0.0
C62 C 0.36946 0.38164 0.49842 0.0
C63 C 0.3669 0.36641 0.43742 0.0
C64 C 0.35657 0.33491 0.43249 0.0
C65 C 0.34223 0.28448 0.48245 0.0
H66 H 0.35509 0.32268 0.38576 0.0
C67 C 0.31316 0.2722 0.50016 0.0
C68 C 0.30737 0.23942 0.49478 0.0
C69 C 0.36536 0.26389 0.45937 0.0
H70 H 0.38787 0.27294 0.44559 0.0
C71 C 0.35982 0.23146 0.4546 0.0
H72 H 0.2952 0.28804 0.51774 0.0
C73 C 0.33107 0.21924 0.47221 0.0
H74 H 0.32715 0.194 0.46697 0.0
H75 H 0.37781 0.21573 0.43691 0.0
C76 C 0.04325 0.98201 0.41293 0.0
N77 N 0.06236 0.06823 0.51119 0.0
C78 C 0.09272 0.05793 0.51552 0.0
C79 C 0.11762 0.0794 0.5212 0.0
C80 C 0.11146 0.11199 0.52251 0.0
C81 C 0.07992 0.12209 0.51712 0.0
C82 C 0.05558 0.09968 0.51168 0.0
Zn83 Zn 0.02768 0.03426 0.50541 0.0
C84 C 0.97665 0.04706 0.40683 0.0
N85 N 0.95764 0.961 0.4952 0.0
C86 C 0.96853 0.93078 0.49482 0.0
C87 C 0.92614 0.96717 0.4918 0.0
C88 C 0.90427 0.94231 0.48763 0.0
C89 C 0.91498 0.91087 0.48656 0.0
C90 C 0.94762 0.90537 0.49054 0.0
Zn91 Zn 0.99087 0.99639 0.50063 0.0
O92 O 0.05321 0.00846 0.43605 0.0
C93 C 0.04181 0.98364 0.59947 0.0
O94 O 0.01718 0.97132 0.43068 0.0
H95 H 0.91795 0.99137 0.49212 0.0
H96 H 0.09773 0.03289 0.51475 0.0
H97 H 0.99361 0.92626 0.49794 0.0
O98 O 0.052 0.00962 0.57963 0.0
O99 O 0.01598 0.97248 0.57533 0.0
H100 H 0.03128 0.10739 0.50827 0.0
O101 O 0.96524 0.02226 0.57009 0.0
O102 O 1.0015 0.05942 0.57494 0.0
O103 O 0.96639 0.02103 0.42668 0.0
O104 O 1.00258 0.05826 0.43082 0.0
C105 C 0.9754 0.04878 0.59297 0.0
H106 H 0.14153 0.07046 0.52386 0.0
H107 H 0.07409 0.147 0.51818 0.0
H108 H 0.87931 0.94765 0.48439 0.0
H109 H 0.95701 0.8816 0.49126 0.0
C110 C 0.4727 0.48519 0.91846 0.0
N111 N 0.55893 0.46016 0.01108 0.0
C112 C 0.54721 0.43023 0.00809 0.0
C113 C 0.56738 0.40432 0.00312 0.0
C114 C 0.60007 0.40908 0.00121 0.0
C115 C 0.61163 0.44021 0.00566 0.0
C116 C 0.59053 0.46553 0.01039 0.0
Zn117 Zn 0.52748 0.49711 0.01351 0.0
C118 C 0.54262 0.54665 0.92151 0.0
N119 N 0.46026 0.5727 0.01536 0.0
C120 C 0.42868 0.56725 0.0162 0.0
C121 C 0.47191 0.60266 0.01783 0.0
C122 C 0.45166 0.62853 0.02216 0.0
C123 C 0.41899 0.62369 0.024 0.0
C124 C 0.40752 0.59252 0.02036 0.0
Zn125 Zn 0.49167 0.53585 0.01299 0.0
O126 O 0.49863 0.47379 0.94028 0.0
C127 C 0.47676 0.48612 0.10509 0.0
O128 O 0.46367 0.51201 0.93979 0.0
H129 H 0.49705 0.60655 0.0169 0.0
H130 H 0.52206 0.42638 0.00894 0.0
H131 H 0.4199 0.54325 0.01437 0.0
O132 O 0.50209 0.47446 0.08423 0.0
O133 O 0.46679 0.51238 0.08414 0.0
H134 H 0.59939 0.4895 0.01264 0.0
O135 O 0.5202 0.55904 0.08629 0.0
O136 O 0.55561 0.52125 0.08667 0.0
O137 O 0.51725 0.55857 0.94171 0.0
O138 O 0.5523 0.52042 0.943 0.0
C139 C 0.54623 0.54794 0.10812 0.0
H140 H 0.55742 0.38075 0.001 0.0
H141 H 0.63662 0.445 0.00394 0.0
H142 H 0.46155 0.65212 0.02367 0.0
H143 H 0.38254 0.58767 0.02208 0.0
H144 H 0.24804 0.25892 0.45581 0.0
H145 H 0.16493 0.10859 0.60071 0.0
H146 H 0.2967 0.18858 0.56845 0.0
H147 H 0.11877 0.16768 0.45944 0.0
H148 H 0.21086 0.14315 0.60308 0.0
H149 H 0.19807 0.23146 0.47084 0.0
C150 C 0.2481 0.23802 0.48462 0.0
C151 C 0.27654 0.22582 0.51049 0.0
C152 C 0.19065 0.14872 0.57178 0.0
C153 C 0.2197 0.19426 0.52751 0.0
C154 C 0.16442 0.12888 0.57018 0.0
C155 C 0.13809 0.1349 0.52898 0.0
C156 C 0.19074 0.1749 0.53191 0.0
C157 C 0.13852 0.1621 0.49191 0.0
C158 C 0.21966 0.22225 0.49279 0.0
C159 C 0.27536 0.19854 0.54698 0.0
N160 N 0.16456 0.18095 0.49379 0.0
N161 N 0.24749 0.18363 0.5541 0.0
H162 H 0.34437 0.80974 0.10272 0.0
H163 H 0.36098 0.6326 0.96237 0.0
H164 H 0.27571 0.76607 0.96873 0.0
H165 H 0.42737 0.67734 0.09994 0.0
H166 H 0.3272 0.67939 0.96964 0.0
H167 H 0.37277 0.75974 0.10807 0.0
C168 C 0.33519 0.78952 0.07464 0.0
C169 C 0.30781 0.79216 0.03472 0.0
C170 C 0.34909 0.67887 -0.00154 0.0
C171 C 0.34031 0.73466 0.0404 0.0
C172 C 0.36833 0.65211 -0.00545 0.0
C173 C 0.39726 0.65112 0.03009 0.0
C174 C 0.3588 0.70484 0.03828 0.0
C175 C 0.40564 0.67725 0.07059 0.0
C176 C 0.35138 0.76093 0.07779 0.0
C177 C 0.29668 0.76504 0.00026 0.0
N178 N 0.38662 0.703 0.07332 0.0
N179 N 0.31316 0.73748 0.00336 0.0
H180 H 0.7707 0.77314 0.56334 0.0
H181 H 0.91994 0.85564 0.41568 0.0
H182 H 0.84382 0.72296 0.46528 0.0
H183 H 0.8591 0.90402 0.54736 0.0
H184 H 0.88654 0.80893 0.41802 0.0
H185 H 0.79695 0.82324 0.54217 0.0
C186 C 0.79197 0.77273 0.5364 0.0
C187 C 0.80529 0.7439 0.51647 0.0
C188 C 0.88034 0.8298 0.44616 0.0
C189 C 0.83543 0.80088 0.49242 0.0
C190 C 0.8995 0.85648 0.44506 0.0
C191 C 0.89267 0.88368 0.48228 0.0
C192 C 0.85401 0.83015 0.48471 0.0
C193 C 0.86531 0.88361 0.51794 0.0
C194 C 0.80704 0.80126 0.52474 0.0
C195 C 0.83299 0.74465 0.4822 0.0
N196 N 0.84713 0.85714 0.51877 0.0
N197 N 0.84719 0.77262 0.47155 0.0
H198 H 0.67462 0.22442 0.90834 0.0
H199 H 0.65816 0.3992 0.062 0.0
H200 H 0.74256 0.26491 0.048 0.0
H201 H 0.59134 0.35631 0.92287 0.0
H202 H 0.69181 0.35238 0.05187 0.0
H203 H 0.6464 0.27457 0.90705 0.0
C204 C 0.68368 0.24398 0.93857 0.0
C205 C 0.7108 0.24036 0.97887 0.0
C206 C 0.66985 0.35331 0.02338 0.0
C207 C 0.67846 0.29807 0.97785 0.0
C208 C 0.65068 0.38009 0.02893 0.0
C209 C 0.62167 0.3816 0.99374 0.0
C210 C 0.66 0.32789 0.98217 0.0
C211 C 0.61314 0.35599 0.95198 0.0
C212 C 0.66758 0.27267 0.93775 0.0
C213 C 0.72178 0.2667 0.01613 0.0
N214 N 0.6321 0.33025 0.9476 0.0
N215 N 0.7054 0.29437 0.01523 0.0
H216 H 0.10488 0.85698 0.10684 0.0
H217 H 0.10357 0.99365 0.37919 0.0
H218 H 0.18725 0.91103 0.17007 0.0
H219 H 0.02662 0.92789 0.34352 0.0
H220 H 0.1348 0.96284 0.30399 0.0
H221 H 0.07631 0.88086 0.19589 0.0
C222 C 0.11709 0.87345 0.14025 0.0
C223 C 0.14843 0.88211 0.13102 0.0
C224 C 0.11115 0.95503 0.31281 0.0
C225 C 0.1158 0.90996 0.23217 0.0
C226 C 0.0932 0.97274 0.35546 0.0
C227 C 0.06232 0.96349 0.3673 0.0
C228 C 0.09807 0.92798 0.28117 0.0
C229 C 0.05027 0.93599 0.33561 0.0
C230 C 0.10078 0.88713 0.19094 0.0
C231 C 0.1632 0.90349 0.17571 0.0
N232 N 0.0681 0.91934 0.29364 0.0
N233 N 0.14663 0.91701 0.22381 0.0
H234 H 0.60521 0.66617 0.62155 0.0
H235 H 0.60203 0.53273 0.88383 0.0
H236 H 0.68754 0.61388 0.68484 0.0
H237 H 0.52622 0.5995 0.8545 0.0
H238 H 0.63316 0.56149 0.80888 0.0
H239 H 0.57549 0.64206 0.70572 0.0
C240 C 0.61709 0.64989 0.65373 0.0
C241 C 0.64885 0.64197 0.64625 0.0
C242 C 0.60976 0.56993 0.81897 0.0
C243 C 0.61498 0.61399 0.74191 0.0
C244 C 0.59187 0.5534 0.86148 0.0
C245 C 0.56139 0.56363 0.87523 0.0
C246 C 0.59701 0.59675 0.7894 0.0
C247 C 0.54958 0.59072 0.84518 0.0
C248 C 0.60016 0.63615 0.70171 0.0
C249 C 0.66319 0.62086 0.68932 0.0
N250 N 0.56735 0.60625 0.80338 0.0
N251 N 0.64605 0.60734 0.73485 0.0
H252 H 0.91503 0.16915 0.09883 0.0
H253 H 0.91674 0.03445 0.35923 0.0
H254 H 0.83268 0.11586 0.14335 0.0
H255 H 0.99373 0.09991 0.34342 0.0
H256 H 0.88586 0.06396 0.27946 0.0
H257 H 0.94431 0.14481 0.18876 0.0
C258 C 0.90302 0.15264 0.12814 0.0
C259 C 0.8714 0.14448 0.11361 0.0
C260 C 0.90946 0.07196 0.29356 0.0
C261 C 0.90481 0.11622 0.21585 0.0
C262 C 0.92721 0.055 0.33887 0.0
C263 C 0.95796 0.06461 0.35781 0.0
C264 C 0.9226 0.09863 0.26641 0.0
C265 C 0.97015 0.09159 0.3301 0.0
C266 C 0.91973 0.13875 0.17939 0.0
C267 C 0.85692 0.12306 0.15321 0.0
N268 N 0.9525 0.10756 0.28551 0.0
N269 N 0.87383 0.10941 0.20204 0.0
H270 H 0.39719 0.33978 0.6541 0.0
H271 H 0.41965 0.50468 0.85038 0.0
H272 H 0.35009 0.4257 0.59858 0.0
H273 H 0.48052 0.42393 0.87658 0.0
H274 H 0.38785 0.47393 0.76952 0.0
H275 H 0.42067 0.36783 0.74924 0.0
C276 C 0.39115 0.36435 0.66281 0.0
C277 C 0.37178 0.38049 0.61824 0.0
C278 C 0.40811 0.46295 0.79317 0.0
C279 C 0.39911 0.41291 0.72619 0.0
C280 C 0.4263 0.48048 0.83925 0.0
C281 C 0.45299 0.46696 0.86985 0.0
C282 C 0.41649 0.43158 0.77797 0.0
C283 C 0.46035 0.43544 0.85376 0.0
C284 C 0.40487 0.38045 0.7167 0.0
C285 C 0.36515 0.41248 0.63147 0.0
N286 N 0.44225 0.41886 0.8089 0.0
N287 N 0.379 0.42772 0.68397 0.0
H288 H 0.69335 0.61724 0.3795 0.0
H289 H 0.53038 0.60294 0.171 0.0
H290 H 0.60983 0.67043 0.42237 0.0
H291 H 0.60622 0.53552 0.1559 0.0
H292 H 0.56228 0.63332 0.25162 0.0
H293 H 0.6652 0.59345 0.28429 0.0
C294 C 0.66934 0.6245 0.36788 0.0
C295 C 0.65381 0.64574 0.40882 0.0
C296 C 0.57198 0.61192 0.23059 0.0
C297 C 0.62137 0.61826 0.30101 0.0
C298 C 0.55376 0.5945 0.18458 0.0
C299 C 0.56552 0.56644 0.15703 0.0
C300 C 0.60232 0.60138 0.24907 0.0
C301 C 0.59609 0.55684 0.1763 0.0
C302 C 0.65319 0.61065 0.31405 0.0
C303 C 0.62255 0.65398 0.39218 0.0
N304 N 0.61342 0.57426 0.22124 0.0
N305 N 0.60729 0.64007 0.33981 0.0
H306 H 0.82896 0.11857 0.83667 0.0
H307 H 0.99265 0.10297 0.66117 0.0
H308 H 0.91269 0.17089 0.89834 0.0
H309 H 0.91524 0.03747 0.62894 0.0
H310 H 0.96123 0.13339 0.73705 0.0
H311 H 0.85743 0.09496 0.74732 0.0
C312 C 0.85312 0.12567 0.83049 0.0
C313 C 0.86853 0.14664 0.87508 0.0
C314 C 0.95112 0.1124 0.71324 0.0
C315 C 0.90144 0.11923 0.77381 0.0
C316 C 0.96905 0.09498 0.66997 0.0
C317 C 0.95667 0.06745 0.63903 0.0
C318 C 0.92048 0.10238 0.72535 0.0
C319 C 0.92586 0.05836 0.6521 0.0
C320 C 0.86947 0.11189 0.77994 0.0
C321 C 0.90002 0.1546 0.86531 0.0
N322 N 0.90885 0.07576 0.69429 0.0
N323 N 0.9155 0.14073 0.816 0.0
H324 H 0.40552 0.34219 0.34631 0.0
H325 H 0.42499 0.50608 0.16964 0.0
H326 H 0.35616 0.42732 0.40079 0.0
H327 H 0.48688 0.42603 0.14572 0.0
H328 H 0.39511 0.47605 0.24528 0.0
H329 H 0.43025 0.37075 0.26148 0.0
C330 C 0.39943 0.36676 0.33964 0.0
C331 C 0.37878 0.38243 0.38072 0.0
C332 C 0.41523 0.4651 0.22341 0.0
C333 C 0.40748 0.41544 0.28449 0.0
C334 C 0.43231 0.48222 0.1803 0.0
C335 C 0.45861 0.46862 0.15162 0.0
C336 C 0.42434 0.43408 0.23749 0.0
C337 C 0.46693 0.43757 0.16702 0.0
C338 C 0.41383 0.38315 0.29165 0.0
C339 C 0.37218 0.41444 0.37052 0.0
N340 N 0.44985 0.42137 0.20882 0.0
N341 N 0.38658 0.42994 0.32358 0.0
H342 H 0.10335 0.86068 0.90588 0.0
H343 H 0.10144 0.99665 0.64811 0.0
H344 H 0.18514 0.9157 0.865 0.0
H345 H 0.02489 0.93047 0.66188 0.0
H346 H 0.13226 0.96716 0.72799 0.0
H347 H 0.07422 0.88511 0.81588 0.0
C348 C 0.11527 0.8776 0.87737 0.0
C349 C 0.14668 0.88621 0.89293 0.0
C350 C 0.10877 0.959 0.71343 0.0
C351 C 0.11346 0.91455 0.79061 0.0
C352 C 0.09106 0.97595 0.66806 0.0
C353 C 0.06044 0.96612 0.64854 0.0
C354 C 0.09573 0.93214 0.74001 0.0
C355 C 0.04835 0.93896 0.6757 0.0
C356 C 0.09866 0.89154 0.82608 0.0
C357 C 0.16107 0.90814 0.85432 0.0
N358 N 0.06597 0.923 0.72034 0.0
N359 N 0.14425 0.9218 0.80541 0.0
loop_
_geom_bond_atom_site_label_1
_geom_bond_atom_site_label_2
_geom_bond_distance
_geom_bond_site_symmetry_2
_ccdc_geom_bond_type
H0 C1 0.949 . S
C1 H0 0.949 . S
C1 C2 1.395 . S
C1 C3 1.391 1_554 S
C2 C1 1.395 . S
C2 C5 1.390 . S
C3 C1 1.391 1_556 S
C3 C7 1.387 . S
C3 C8 1.491 . S
H4 C5 0.950 . S
C5 C2 1.390 . S
C5 H4 0.950 . S
C5 C6 1.378 1_554 S
C6 C5 1.378 1_556 S
C6 C7 1.409 . S
C7 C3 1.387 . S
C7 C6 1.409 . S
C7 H9 0.951 . S
C8 C3 1.491 . S
C8 C10 1.382 1_556 S
C8 C12 1.404 . S
H9 C7 0.951 . S
C10 C8 1.382 1_554 S
C10 C11 1.390 . S
C10 H15 0.949 . S
C11 C10 1.390 . S
C11 C16 1.399 1_554 S
C12 C8 1.404 . S
C12 H13 0.950 . S
C12 C14 1.375 . S
H13 C12 0.950 . S
C14 C12 1.375 . S
C14 C16 1.382 . S
C14 H18 0.950 . S
H15 C10 0.949 . S
C16 C11 1.399 1_556 S
C16 C14 1.382 . S
C16 H17 0.952 . S
H17 C16 0.952 . S
H18 C14 0.950 . S
H19 C20 0.949 . S
C20 H19 0.949 . S
C20 C21 1.395 . S
C20 C22 1.391 . S
C21 C20 1.395 . S
C21 C24 1.390 . S
C22 C20 1.391 . S
C22 C26 1.387 . S
C22 C27 1.491 . S
H23 C24 0.950 . S
C24 C21 1.390 . S
C24 H23 0.950 . S
C24 C25 1.378 . S
C25 C24 1.378 . S
C25 C26 1.409 . S
C26 C22 1.387 . S
C26 C25 1.409 . S
C26 H28 0.951 . S
C27 C22 1.491 . S
C27 C29 1.382 . S
C27 C31 1.404 . S
H28 C26 0.951 . S
C29 C27 1.382 . S
C29 C30 1.390 . S
C29 H34 0.949 . S
C30 C29 1.390 . S
C30 C35 1.399 . S
C31 C27 1.404 . S
C31 H32 0.950 . S
C31 C33 1.375 . S
H32 C31 0.950 . S
C33 C31 1.375 . S
C33 C35 1.382 . S
C33 H37 0.950 . S
H34 C29 0.949 . S
C35 C30 1.399 . S
C35 C33 1.382 . S
C35 H36 0.952 . S
H36 C35 0.952 . S
H37 C33 0.950 . S
H38 C39 0.949 . S
C39 H38 0.949 . S
C39 C40 1.395 . S
C39 C41 1.391 1_554 S
C40 C39 1.395 . S
C40 C43 1.390 . S
C41 C39 1.391 1_556 S
C41 C45 1.387 . S
C41 C46 1.491 . S
H42 C43 0.950 . S
C43 C40 1.390 . S
C43 H42 0.950 . S
C43 C44 1.378 1_554 S
C44 C43 1.378 1_556 S
C44 C45 1.409 . S
C45 C41 1.387 . S
C45 C44 1.409 . S
C45 H47 0.951 . S
C46 C41 1.491 . S
C46 C48 1.382 1_556 S
C46 C50 1.404 . S
H47 C45 0.951 . S
C48 C46 1.382 1_554 S
C48 C49 1.390 . S
C48 H53 0.949 . S
C49 C48 1.390 . S
C49 C54 1.399 1_554 S
C50 C46 1.404 . S
C50 H51 0.950 . S
C50 C52 1.375 . S
H51 C50 0.950 . S
C52 C50 1.375 . S
C52 C54 1.382 . S
C52 H56 0.950 . S
H53 C48 0.949 . S
C54 C49 1.399 1_556 S
C54 C52 1.382 . S
C54 H55 0.952 . S
H55 C54 0.952 . S
H56 C52 0.950 . S
H57 C58 0.949 . S
C58 H57 0.949 . S
C58 C59 1.395 . S
C58 C60 1.391 . S
C59 C58 1.395 . S
C59 C62 1.390 . S
C60 C58 1.391 . S
C60 C64 1.387 . S
C60 C65 1.491 . S
H61 C62 0.950 . S
C62 C59 1.390 . S
C62 H61 0.950 . S
C62 C63 1.378 . S
C63 C62 1.378 . S
C63 C64 1.409 . S
C64 C60 1.387 . S
C64 C63 1.409 . S
C64 H66 0.951 . S
C65 C60 1.491 . S
C65 C67 1.382 . S
C65 C69 1.404 . S
H66 C64 0.951 . S
C67 C65 1.382 . S
C67 C68 1.390 . S
C67 H72 0.949 . S
C68 C67 1.390 . S
C68 C73 1.399 . S
C69 C65 1.404 . S
C69 H70 0.950 . S
C69 C71 1.375 . S
H70 C69 0.950 . S
C71 C69 1.375 . S
C71 C73 1.382 . S
C71 H75 0.950 . S
H72 C67 0.949 . S
C73 C68 1.399 . S
C73 C71 1.382 . S
C73 H74 0.952 . S
H74 C73 0.952 . S
H75 C71 0.950 . S
C76 O92 1.237 1_565 S
C76 O94 1.254 . S
N77 C78 1.333 . S
N77 C82 1.307 . S
N77 Zn83 2.020 . S
C78 N77 1.333 . S
C78 C79 1.379 . S
C78 H96 0.952 . S
C79 C78 1.379 . S
C79 C80 1.390 . S
C79 H106 0.949 . S
C80 C79 1.390 . S
C80 C81 1.357 . S
C81 C80 1.357 . S
C81 C82 1.370 . S
C81 H107 0.950 . S
C82 N77 1.307 . S
C82 C81 1.370 . S
C82 H100 0.948 . S
Zn83 N77 2.020 . S
Zn83 O92 2.049 . S
Zn83 O98 2.034 1_545 S
Zn83 O102 2.037 . S
Zn83 O104 2.020 1_455 S
C84 O103 1.246 . S
C84 O104 1.255 . S
N85 C86 1.307 . S
N85 C87 1.333 . S
N85 Zn91 2.020 . S
C86 N85 1.307 . S
C86 C90 1.370 . S
C86 H97 0.948 . S
C87 N85 1.333 . S
C87 C88 1.379 . S
C87 H95 0.952 . S
C88 C87 1.379 . S
C88 C89 1.390 . S
C88 H108 0.949 . S
C89 C88 1.390 . S
C89 C90 1.357 . S
C90 C86 1.370 . S
C90 C89 1.357 . S
C90 H109 0.950 . S
Zn91 N85 2.020 . S
Zn91 O94 2.025 1_655 S
Zn91 O99 2.024 1_655 S
Zn91 O101 2.039 1_565 S
Zn91 O103 2.034 1_565 S
O92 C76 1.237 1_545 S
O92 Zn83 2.049 . S
C93 O98 1.246 . S
C93 O99 1.249 . S
O94 C76 1.254 . S
O94 Zn91 2.025 1_455 S
H95 C87 0.952 . S
H96 C78 0.952 . S
H97 C86 0.948 . S
O98 Zn83 2.034 1_565 S
O98 C93 1.246 . S
O99 Zn91 2.024 1_455 S
O99 C93 1.249 . S
H100 C82 0.948 . S
O101 Zn91 2.039 1_545 S
O101 C105 1.251 . S
O102 Zn83 2.037 . S
O102 C105 1.239 1_455 S
O103 C84 1.246 . S
O103 Zn91 2.034 1_545 S
O104 Zn83 2.020 1_655 S
O104 C84 1.255 . S
C105 O101 1.251 . S
C105 O102 1.239 1_655 S
H106 C79 0.949 . S
H107 C81 0.950 . S
H108 C88 0.949 . S
H109 C90 0.950 . S
C110 O126 1.251 . S
C110 O128 1.254 . S
N111 C112 1.333 . S
N111 C116 1.307 . S
N111 Zn117 2.020 . S
C112 N111 1.333 . S
C112 C113 1.379 . S
C112 H130 0.952 1_554 S
C113 C112 1.379 . S
C113 C114 1.390 . S
C113 H140 0.949 1_554 S
C114 C113 1.390 . S
C114 C115 1.357 . S
C115 C114 1.357 . S
C115 C116 1.370 . S
C115 H141 0.950 . S
C116 N111 1.307 . S
C116 C115 1.370 . S
C116 H134 0.948 . S
Zn117 N111 2.020 . S
Zn117 O126 2.039 1_554 S
Zn117 O132 2.034 . S
Zn117 O136 2.025 . S
Zn117 O138 2.024 1_554 S
C118 O137 1.246 . S
C118 O138 1.249 . S
N119 C120 1.307 . S
N119 C121 1.333 . S
N119 Zn125 2.020 . S
C120 N119 1.307 . S
C120 C124 1.370 . S
C120 H131 0.950 . S
C121 N119 1.333 . S
C121 C122 1.379 . S
C121 H129 0.952 . S
C122 C121 1.379 . S
C122 C123 1.390 . S
C122 H142 0.949 . S
C123 C122 1.390 . S
C123 C124 1.357 . S
C124 C120 1.370 . S
C124 C123 1.357 . S
C124 H143 0.950 . S
Zn125 N119 2.020 . S
Zn125 O128 2.025 1_554 S
Zn125 O133 2.024 . S
Zn125 O135 2.039 . S
Zn125 O137 2.034 1_554 S
O126 C110 1.251 . S
O126 Zn117 2.039 1_556 S
C127 O132 1.246 . S
C127 O133 1.249 . S
O128 C110 1.254 . S
O128 Zn125 2.025 1_556 S
H129 C121 0.952 . S
H130 C112 0.952 1_556 S
H131 C120 0.950 . S
O132 Zn117 2.034 . S
O132 C127 1.246 . S
O133 Zn125 2.024 . S
O133 C127 1.249 . S
H134 C116 0.948 . S
O135 Zn125 2.039 . S
O135 C139 1.251 . S
O136 Zn117 2.025 . S
O136 C139 1.254 . S
O137 C118 1.246 . S
O137 Zn125 2.034 1_556 S
O138 Zn117 2.024 1_556 S
O138 C118 1.249 . S
C139 O135 1.251 . S
C139 O136 1.254 . S
H140 C113 0.949 1_556 S
H141 C115 0.950 . S
H142 C122 0.949 . S
H143 C124 0.950 . S
H144 C150 0.930 . S
H145 C154 0.930 . S
H146 C159 0.929 . S
H147 C157 0.929 . S
H148 C152 0.929 . S
H149 C158 0.929 . S
C150 H144 0.930 . S
C150 C151 1.367 . S
C150 C158 1.378 . S
C151 C150 1.367 . S
C151 C159 1.433 . S
C152 H148 0.929 . S
C152 C154 1.378 . S
C152 C156 1.350 . S
C153 C156 1.463 . S
C153 C158 1.350 . S
C153 N161 1.427 . S
C154 H145 0.930 . S
C154 C152 1.378 . S
C154 C155 1.367 . S
C155 C154 1.367 . S
C155 C157 1.433 . S
C156 C152 1.350 . S
C156 C153 1.463 . S
C156 N160 1.427 . S
C157 H147 0.929 . S
C157 C155 1.433 . S
C157 N160 1.384 . S
C158 H149 0.929 . S
C158 C150 1.378 . S
C158 C153 1.350 . S
C159 H146 0.929 . S
C159 C151 1.433 . S
C159 N161 1.384 . S
N160 C156 1.427 . S
N160 C157 1.384 . S
N161 C153 1.427 . S
N161 C159 1.384 . S
H162 C168 0.930 . S
H163 C172 0.930 . S
H164 C177 0.929 . S
H165 C175 0.929 . S
H166 C170 0.929 . S
H167 C176 0.929 . S
C168 H162 0.930 . S
C168 C169 1.367 . S
C168 C176 1.378 . S
C169 C168 1.367 . S
C169 C177 1.433 1_554 S
C170 H166 0.929 . S
C170 C172 1.378 . S
C170 C174 1.350 1_556 S
C171 C174 1.463 . S
C171 C176 1.350 . S
C171 N179 1.427 1_554 S
C172 H163 0.930 . S
C172 C170 1.378 . S
C172 C173 1.367 1_556 S
C173 C172 1.367 1_554 S
C173 C175 1.433 . S
C174 C170 1.350 1_554 S
C174 C171 1.463 . S
C174 N178 1.427 . S
C175 H165 0.929 . S
C175 C173 1.433 . S
C175 N178 1.384 . S
C176 H167 0.929 . S
C176 C168 1.378 . S
C176 C171 1.350 . S
C177 H164 0.929 . S
C177 C169 1.433 1_556 S
C177 N179 1.384 . S
N178 C174 1.427 . S
N178 C175 1.384 . S
N179 C171 1.427 1_556 S
N179 C177 1.384 . S
H180 C186 0.930 . S
H181 C190 0.930 . S
H182 C195 0.929 . S
H183 C193 0.929 . S
H184 C188 0.929 . S
H185 C194 0.929 . S
C186 H180 0.930 . S
C186 C187 1.367 . S
C186 C194 1.378 . S
C187 C186 1.367 . S
C187 C195 1.433 . S
C188 H184 0.929 . S
C188 C190 1.378 . S
C188 C192 1.350 . S
C189 C192 1.463 . S
C189 C194 1.350 . S
C189 N197 1.427 . S
C190 H181 0.930 . S
C190 C188 1.378 . S
C190 C191 1.367 . S
C191 C190 1.367 . S
C191 C193 1.433 . S
C192 C188 1.350 . S
C192 C189 1.463 . S
C192 N196 1.427 . S
C193 H183 0.929 . S
C193 C191 1.433 . S
C193 N196 1.384 . S
C194 H185 0.929 . S
C194 C186 1.378 . S
C194 C189 1.350 . S
C195 H182 0.929 . S
C195 C187 1.433 . S
C195 N197 1.384 . S
N196 C192 1.427 . S
N196 C193 1.384 . S
N197 C189 1.427 . S
N197 C195 1.384 . S
H198 C204 0.930 . S
H199 C208 0.930 . S
H200 C213 0.929 . S
H201 C211 0.929 . S
H202 C206 0.929 . S
H203 C212 0.929 . S
C204 H198 0.930 . S
C204 C205 1.367 1_556 S
C204 C212 1.378 . S
C205 C204 1.367 1_554 S
C205 C213 1.433 . S
C206 H202 0.929 . S
C206 C208 1.378 . S
C206 C210 1.350 . S
C207 C210 1.463 . S
C207 C212 1.350 1_554 S
C207 N215 1.427 . S
C208 H199 0.930 . S
C208 C206 1.378 . S
C208 C209 1.367 . S
C209 C208 1.367 . S
C209 C211 1.433 1_554 S
C210 C206 1.350 . S
C210 C207 1.463 . S
C210 N214 1.427 1_554 S
C211 H201 0.929 . S
C211 C209 1.433 1_556 S
C211 N214 1.384 . S
C212 H203 0.929 . S
C212 C204 1.378 . S
C212 C207 1.350 1_556 S
C213 H200 0.929 . S
C213 C205 1.433 . S
C213 N215 1.384 . S
N214 C210 1.427 1_556 S
N214 C211 1.384 . S
N215 C207 1.427 . S
N215 C213 1.384 . S
H216 C222 0.930 . S
H217 C226 0.930 . S
H218 C231 0.929 . S
H219 C229 0.929 . S
H220 C224 0.929 . S
H221 C230 0.929 . S
C222 H216 0.930 . S
C222 C223 1.367 . S
C222 C230 1.378 . S
C223 C222 1.367 . S
C223 C231 1.433 . S
C224 H220 0.929 . S
C224 C226 1.378 . S
C224 C228 1.350 . S
C225 C228 1.463 . S
C225 C230 1.350 . S
C225 N233 1.427 . S
C226 H217 0.930 . S
C226 C224 1.378 . S
C226 C227 1.367 . S
C227 C226 1.367 . S
C227 C229 1.433 . S
C228 C224 1.350 . S
C228 C225 1.463 . S
C228 N232 1.427 . S
C229 H219 0.929 . S
C229 C227 1.433 . S
C229 N232 1.384 . S
C230 H221 0.929 . S
C230 C222 1.378 . S
C230 C225 1.350 . S
C231 H218 0.929 . S
C231 C223 1.433 . S
C231 N233 1.384 . S
N232 C228 1.427 . S
N232 C229 1.384 . S
N233 C225 1.427 . S
N233 C231 1.384 . S
H234 C240 0.930 . S
H235 C244 0.930 . S
H236 C249 0.929 . S
H237 C247 0.929 . S
H238 C242 0.929 . S
H239 C248 0.929 . S
C240 H234 0.930 . S
C240 C241 1.367 . S
C240 C248 1.378 . S
C241 C240 1.367 . S
C241 C249 1.433 . S
C242 H238 0.929 . S
C242 C244 1.378 . S
C242 C246 1.350 . S
C243 C246 1.463 . S
C243 C248 1.350 . S
C243 N251 1.427 . S
C244 H235 0.930 . S
C244 C242 1.378 . S
C244 C245 1.367 . S
C245 C244 1.367 . S
C245 C247 1.433 . S
C246 C242 1.350 . S
C246 C243 1.463 . S
C246 N250 1.427 . S
C247 H237 0.929 . S
C247 C245 1.433 . S
C247 N250 1.384 . S
C248 H239 0.929 . S
C248 C240 1.378 . S
C248 C243 1.350 . S
C249 H236 0.929 . S
C249 C241 1.433 . S
C249 N251 1.384 . S
N250 C246 1.427 . S
N250 C247 1.384 . S
N251 C243 1.427 . S
N251 C249 1.384 . S
H252 C258 0.930 . S
H253 C262 0.930 . S
H254 C267 0.929 . S
H255 C265 0.929 . S
H256 C260 0.929 . S
H257 C266 0.929 . S
C258 H252 0.930 . S
C258 C259 1.367 . S
C258 C266 1.378 . S
C259 C258 1.367 . S
C259 C267 1.433 . S
C260 H256 0.929 . S
C260 C262 1.378 . S
C260 C264 1.350 . S
C261 C264 1.463 . S
C261 C266 1.350 . S
C261 N269 1.427 . S
C262 H253 0.930 . S
C262 C260 1.378 . S
C262 C263 1.367 . S
C263 C262 1.367 . S
C263 C265 1.433 . S
C264 C260 1.350 . S
C264 C261 1.463 . S
C264 N268 1.427 . S
C265 H255 0.929 . S
C265 C263 1.433 . S
C265 N268 1.384 . S
C266 H257 0.929 . S
C266 C258 1.378 . S
C266 C261 1.350 . S
C267 H254 0.929 . S
C267 C259 1.433 . S
C267 N269 1.384 . S
N268 C264 1.427 . S
N268 C265 1.384 . S
N269 C261 1.427 . S
N269 C267 1.384 . S
H270 C276 0.930 . S
H271 C280 0.930 . S
H272 C285 0.929 . S
H273 C283 0.929 . S
H274 C278 0.929 . S
H275 C284 0.929 . S
C276 H270 0.930 . S
C276 C277 1.367 . S
C276 C284 1.378 . S
C277 C276 1.367 . S
C277 C285 1.433 . S
C278 H274 0.929 . S
C278 C280 1.378 . S
C278 C282 1.350 . S
C279 C282 1.463 . S
C279 C284 1.350 . S
C279 N287 1.427 . S
C280 H271 0.930 . S
C280 C278 1.378 . S
C280 C281 1.367 . S
C281 C280 1.367 . S
C281 C283 1.433 . S
C282 C278 1.350 . S
C282 C279 1.463 . S
C282 N286 1.427 . S
C283 H273 0.929 . S
C283 C281 1.433 . S
C283 N286 1.384 . S
C284 H275 0.929 . S
C284 C276 1.378 . S
C284 C279 1.350 . S
C285 H272 0.929 . S
C285 C277 1.433 . S
C285 N287 1.384 . S
N286 C282 1.427 . S
N286 C283 1.384 . S
N287 C279 1.427 . S
N287 C285 1.384 . S
H288 C294 0.930 . S
H289 C298 0.930 . S
H290 C303 0.929 . S
H291 C301 0.929 . S
H292 C296 0.929 . S
H293 C302 0.929 . S
C294 H288 0.930 . S
C294 C295 1.367 . S
C294 C302 1.378 . S
C295 C294 1.367 . S
C295 C303 1.433 . S
C296 H292 0.929 . S
C296 C298 1.378 . S
C296 C300 1.350 . S
C297 C300 1.463 . S
C297 C302 1.350 . S
C297 N305 1.427 . S
C298 H289 0.930 . S
C298 C296 1.378 . S
C298 C299 1.367 . S
C299 C298 1.367 . S
C299 C301 1.433 . S
C300 C296 1.350 . S
C300 C297 1.463 . S
C300 N304 1.427 . S
C301 H291 0.929 . S
C301 C299 1.433 . S
C301 N304 1.384 . S
C302 H293 0.929 . S
C302 C294 1.378 . S
C302 C297 1.350 . S
C303 H290 0.929 . S
C303 C295 1.433 . S
C303 N305 1.384 . S
N304 C300 1.427 . S
N304 C301 1.384 . S
N305 C297 1.427 . S
N305 C303 1.384 . S
H306 C312 0.930 . S
H307 C316 0.930 . S
H308 C321 0.929 . S
H309 C319 0.929 . S
H310 C314 0.929 . S
H311 C320 0.929 . S
C312 H306 0.930 . S
C312 C313 1.367 . S
C312 C320 1.378 . S
C313 C312 1.367 . S
C313 C321 1.433 . S
C314 H310 0.929 . S
C314 C316 1.378 . S
C314 C318 1.350 . S
C315 C318 1.463 . S
C315 C320 1.350 . S
C315 N323 1.427 . S
C316 H307 0.930 . S
C316 C314 1.378 . S
C316 C317 1.367 . S
C317 C316 1.367 . S
C317 C319 1.433 . S
C318 C314 1.350 . S
C318 C315 1.463 . S
C318 N322 1.427 . S
C319 H309 0.929 . S
C319 C317 1.433 . S
C319 N322 1.384 . S
C320 H311 0.929 . S
C320 C312 1.378 . S
C320 C315 1.350 . S
C321 H308 0.929 . S
C321 C313 1.433 . S
C321 N323 1.384 . S
N322 C318 1.427 . S
N322 C319 1.384 . S
N323 C315 1.427 . S
N323 C321 1.384 . S
H324 C330 0.930 . S
H325 C334 0.930 . S
H326 C339 0.929 . S
H327 C337 0.929 . S
H328 C332 0.929 . S
H329 C338 0.929 . S
C330 H324 0.930 . S
C330 C331 1.367 . S
C330 C338 1.378 . S
C331 C330 1.367 . S
C331 C339 1.433 . S
C332 H328 0.929 . S
C332 C334 1.378 . S
C332 C336 1.350 . S
C333 C336 1.463 . S
C333 C338 1.350 . S
C333 N341 1.427 . S
C334 H325 0.930 . S
C334 C332 1.378 . S
C334 C335 1.367 . S
C335 C334 1.367 . S
C335 C337 1.433 . S
C336 C332 1.350 . S
C336 C333 1.463 . S
C336 N340 1.427 . S
C337 H327 0.929 . S
C337 C335 1.433 . S
C337 N340 1.384 . S
C338 H329 0.929 . S
C338 C330 1.378 . S
C338 C333 1.350 . S
C339 H326 0.929 . S
C339 C331 1.433 . S
C339 N341 1.384 . S
N340 C336 1.427 . S
N340 C337 1.384 . S
N341 C333 1.427 . S
N341 C339 1.384 . S
H342 C348 0.930 . S
H343 C352 0.930 . S
H344 C357 0.929 . S
H345 C355 0.929 . S
H346 C350 0.929 . S
H347 C356 0.929 . S
C348 H342 0.930 . S
C348 C349 1.367 . S
C348 C356 1.378 . S
C349 C348 1.367 . S
C349 C357 1.433 . S
C350 H346 0.929 . S
C350 C352 1.378 . S
C350 C354 1.350 . S
C351 C354 1.463 . S
C351 C356 1.350 . S
C351 N359 1.427 . S
C352 H343 0.930 . S
C352 C350 1.378 . S
C352 C353 1.367 . S
C353 C352 1.367 . S
C353 C355 1.433 . S
C354 C350 1.350 . S
C354 C351 1.463 . S
C354 N358 1.427 . S
C355 H345 0.929 . S
C355 C353 1.433 . S
C355 N358 1.384 . S
C356 H347 0.929 . S
C356 C348 1.378 . S
C356 C351 1.350 . S
C357 H344 0.929 . S
C357 C349 1.433 . S
C357 N359 1.384 . S
N358 C354 1.427 . S
N358 C355 1.384 . S
N359 C351 1.427 . S
N359 C357 1.384 . S
C155 C80 1.538 . S
C151 C68 1.411 . S
C169 C11 1.425 . S
C173 C123 1.542 . S
C187 C30 1.413 . S
C191 C89 1.542 . S
C205 C49 1.413 . S
C209 C114 1.539 . S
C227 C76 1.624 . S
C223 C2 1.587 . S
C245 C118 1.601 . S
C241 C25 1.602 . S
C259 C40 1.591 . S
C263 C84 1.617 . S
C277 C59 1.565 . S
C281 C110 1.598 . S
C299 C139 1.503 . S
C295 C21 1.468 . S
C317 C105 1.492 . S
C313 C44 1.489 . S
C335 C127 1.507 . S
C331 C63 1.511 . S
C349 C6 1.491 . S
C353 C93 1.489 . S
