# Generated by pormake.
# Topology ctn, (3,4)-cn, num edge types: 1
# Building blocks:
#     Node 0, Type 0, BuildingBlock: QEWDON_clean_linker_0, # of connection points: 3
#     Node 1, Type 0, BuildingBlock: QEWDON_clean_linker_0, # of connection points: 3
#     Node 2, Type 0, BuildingBlock: QEWDON_clean_linker_0, # of connection points: 3
#     Node 3, Type 0, BuildingBlock: QEWDON_clean_linker_0, # of connection points: 3
#     Node 4, Type 0, BuildingBlock: QEWDON_clean_linker_0, # of connection points: 3
#     Node 5, Type 0, BuildingBlock: QEWDON_clean_linker_0, # of connection points: 3
#     Node 6, Type 0, BuildingBlock: QEWDON_clean_linker_0, # of connection points: 3
#     Node 7, Type 0, BuildingBlock: QEWDON_clean_linker_0, # of connection points: 3
#     Node 8, Type 0, BuildingBlock: QEWDON_clean_linker_0, # of connection points: 3
#     Node 9, Type 0, BuildingBlock: QEWDON_clean_linker_0, # of connection points: 3
#     Node 10, Type 0, BuildingBlock: QEWDON_clean_linker_0, # of connection points: 3
#     Node 11, Type 0, BuildingBlock: QEWDON_clean_linker_0, # of connection points: 3
#     Node 12, Type 0, BuildingBlock: QEWDON_clean_linker_0, # of connection points: 3
#     Node 13, Type 0, BuildingBlock: QEWDON_clean_linker_0, # of connection points: 3
#     Node 14, Type 0, BuildingBlock: QEWDON_clean_linker_0, # of connection points: 3
#     Node 15, Type 0, BuildingBlock: QEWDON_clean_linker_0, # of connection points: 3
#     Node 16, Type 1, BuildingBlock: UXUYUI_clean_sbu_0, # of connection points: 4
#     Node 17, Type 1, BuildingBlock: UXUYUI_clean_sbu_0, # of connection points: 4
#     Node 18, Type 1, BuildingBlock: UXUYUI_clean_sbu_0, # of connection points: 4
#     Node 19, Type 1, BuildingBlock: UXUYUI_clean_sbu_0, # of connection points: 4
#     Node 20, Type 1, BuildingBlock: UXUYUI_clean_sbu_0, # of connection points: 4
#     Node 21, Type 1, BuildingBlock: UXUYUI_clean_sbu_0, # of connection points: 4
#     Node 22, Type 1, BuildingBlock: UXUYUI_clean_sbu_0, # of connection points: 4
#     Node 23, Type 1, BuildingBlock: UXUYUI_clean_sbu_0, # of connection points: 4
#     Node 24, Type 1, BuildingBlock: UXUYUI_clean_sbu_0, # of connection points: 4
#     Node 25, Type 1, BuildingBlock: UXUYUI_clean_sbu_0, # of connection points: 4
#     Node 26, Type 1, BuildingBlock: UXUYUI_clean_sbu_0, # of connection points: 4
#     Node 27, Type 1, BuildingBlock: UXUYUI_clean_sbu_0, # of connection points: 4
#     Edge 28, Type (0, 1), BuildingBlock: UVAHIK_clean_linker_0, # of connection points: 2
#     Edge 29, Type (0, 1), BuildingBlock: UVAHIK_clean_linker_0, # of connection points: 2
#     Edge 30, Type (0, 1), BuildingBlock: UVAHIK_clean_linker_0, # of connection points: 2
#     Edge 31, Type (0, 1), BuildingBlock: UVAHIK_clean_linker_0, # of connection points: 2
#     Edge 32, Type (0, 1), BuildingBlock: UVAHIK_clean_linker_0, # of connection points: 2
#     Edge 33, Type (0, 1), BuildingBlock: UVAHIK_clean_linker_0, # of connection points: 2
#     Edge 34, Type (0, 1), BuildingBlock: UVAHIK_clean_linker_0, # of connection points: 2
#     Edge 35, Type (0, 1), BuildingBlock: UVAHIK_clean_linker_0, # of connection points: 2
#     Edge 36, Type (0, 1), BuildingBlock: UVAHIK_clean_linker_0, # of connection points: 2
#     Edge 37, Type (0, 1), BuildingBlock: UVAHIK_clean_linker_0, # of connection points: 2
#     Edge 38, Type (0, 1), BuildingBlock: UVAHIK_clean_linker_0, # of connection points: 2
#     Edge 39, Type (0, 1), BuildingBlock: UVAHIK_clean_linker_0, # of connection points: 2
#     Edge 40, Type (0, 1), BuildingBlock: UVAHIK_clean_linker_0, # of connection points: 2
#     Edge 41, Type (0, 1), BuildingBlock: UVAHIK_clean_linker_0, # of connection points: 2
#     Edge 42, Type (0, 1), BuildingBlock: UVAHIK_clean_linker_0, # of connection points: 2
#     Edge 43, Type (0, 1), BuildingBlock: UVAHIK_clean_linker_0, # of connection points: 2
#     Edge 44, Type (0, 1), BuildingBlock: UVAHIK_clean_linker_0, # of connection points: 2
#     Edge 45, Type (0, 1), BuildingBlock: UVAHIK_clean_linker_0, # of connection points: 2
#     Edge 46, Type (0, 1), BuildingBlock: UVAHIK_clean_linker_0, # of connection points: 2
#     Edge 47, Type (0, 1), BuildingBlock: UVAHIK_clean_linker_0, # of connection points: 2
#     Edge 48, Type (0, 1), BuildingBlock: UVAHIK_clean_linker_0, # of connection points: 2
#     Edge 49, Type (0, 1), BuildingBlock: UVAHIK_clean_linker_0, # of connection points: 2
#     Edge 50, Type (0, 1), BuildingBlock: UVAHIK_clean_linker_0, # of connection points: 2
#     Edge 51, Type (0, 1), BuildingBlock: UVAHIK_clean_linker_0, # of connection points: 2
#     Edge 52, Type (0, 1), BuildingBlock: UVAHIK_clean_linker_0, # of connection points: 2
#     Edge 53, Type (0, 1), BuildingBlock: UVAHIK_clean_linker_0, # of connection points: 2
#     Edge 54, Type (0, 1), BuildingBlock: UVAHIK_clean_linker_0, # of connection points: 2
#     Edge 55, Type (0, 1), BuildingBlock: UVAHIK_clean_linker_0, # of connection points: 2
#     Edge 56, Type (0, 1), BuildingBlock: UVAHIK_clean_linker_0, # of connection points: 2
#     Edge 57, Type (0, 1), BuildingBlock: UVAHIK_clean_linker_0, # of connection points: 2
#     Edge 58, Type (0, 1), BuildingBlock: UVAHIK_clean_linker_0, # of connection points: 2
#     Edge 59, Type (0, 1), BuildingBlock: UVAHIK_clean_linker_0, # of connection points: 2
#     Edge 60, Type (0, 1), BuildingBlock: UVAHIK_clean_linker_0, # of connection points: 2
#     Edge 61, Type (0, 1), BuildingBlock: UVAHIK_clean_linker_0, # of connection points: 2
#     Edge 62, Type (0, 1), BuildingBlock: UVAHIK_clean_linker_0, # of connection points: 2
#     Edge 63, Type (0, 1), BuildingBlock: UVAHIK_clean_linker_0, # of connection points: 2
#     Edge 64, Type (0, 1), BuildingBlock: UVAHIK_clean_linker_0, # of connection points: 2
#     Edge 65, Type (0, 1), BuildingBlock: UVAHIK_clean_linker_0, # of connection points: 2
#     Edge 66, Type (0, 1), BuildingBlock: UVAHIK_clean_linker_0, # of connection points: 2
#     Edge 67, Type (0, 1), BuildingBlock: UVAHIK_clean_linker_0, # of connection points: 2
#     Edge 68, Type (0, 1), BuildingBlock: UVAHIK_clean_linker_0, # of connection points: 2
#     Edge 69, Type (0, 1), BuildingBlock: UVAHIK_clean_linker_0, # of connection points: 2
#     Edge 70, Type (0, 1), BuildingBlock: UVAHIK_clean_linker_0, # of connection points: 2
#     Edge 71, Type (0, 1), BuildingBlock: UVAHIK_clean_linker_0, # of connection points: 2
#     Edge 72, Type (0, 1), BuildingBlock: UVAHIK_clean_linker_0, # of connection points: 2
#     Edge 73, Type (0, 1), BuildingBlock: UVAHIK_clean_linker_0, # of connection points: 2
#     Edge 74, Type (0, 1), BuildingBlock: UVAHIK_clean_linker_0, # of connection points: 2
#     Edge 75, Type (0, 1), BuildingBlock: UVAHIK_clean_linker_0, # of connection points: 2
# Relax obj value: 0.113
# Max RMSD: 0.280
# Mean RMSD: 0.161
data_MOF--net-ctn--node1-UXUYUI_clean_sbu_0--node2-QEWDON_clean_linker_0--edge1-UVAHIK_clean_linker_0
_symmetry_space_group_name_H-M    P1
_symmetry_Int_Tables_number       1
_symmetry_cell_setting            triclinic
loop_
_symmetry_equiv_pos_as_xyz
'x, y, z'
_cell_length_a     80.902234
_cell_length_b     83.983232
_cell_length_c     89.303965
_cell_angle_alpha  97.679074
_cell_angle_beta   91.827572
_cell_angle_gamma 95.232176
loop_
_atom_site_label
_atom_site_type_symbol
_atom_site_fract_x
_atom_site_fract_y
_atom_site_fract_z
_atom_type_partial_charge
H0 H 0.08521 0.05299 0.05899 0.0
C1 C 0.07726 0.0499 0.06792 0.0
C2 C 0.07708 0.0345 0.07258 0.0
C3 C 0.06778 0.06157 0.07521 0.0
H4 H 0.06738 0.01926 0.08855 0.0
C5 C 0.06703 0.03083 0.0845 0.0
C6 C 0.05747 0.04239 0.0919 0.0
C7 C 0.05775 0.05761 0.08697 0.0
C8 C 0.06947 0.07843 0.07175 0.0
H9 H 0.0503 0.06658 0.09248 0.0
C10 C 0.06797 0.08202 0.0568 0.0
C11 C 0.06923 0.09823 0.05394 0.0
C12 C 0.07252 0.09115 0.08373 0.0
H13 H 0.07394 0.08872 0.09529 0.0
C14 C 0.07385 0.10712 0.08096 0.0
H15 H 0.06568 0.07227 0.04751 0.0
C16 C 0.07213 0.11067 0.06623 0.0
H17 H 0.07278 0.12323 0.06453 0.0
H18 H 0.07609 0.11681 0.09029 0.0
H19 H 0.32159 0.74665 0.23899 0.0
C20 C 0.3134 0.73563 0.23603 0.0
C21 C 0.3183 0.72095 0.23965 0.0
C22 C 0.29783 0.73629 0.22889 0.0
H23 H 0.31088 0.69563 0.23945 0.0
C24 C 0.30743 0.70684 0.23605 0.0
C25 C 0.29157 0.7074 0.22934 0.0
C26 C 0.28694 0.72217 0.22557 0.0
C27 C 0.29234 0.75209 0.22657 0.0
H28 H 0.27465 0.72282 0.2206 0.0
C29 C 0.29117 0.7567 0.21202 0.0
C30 C 0.28696 0.77228 0.21017 0.0
C31 C 0.28893 0.76292 0.23919 0.0
H32 H 0.28982 0.75954 0.25047 0.0
C33 C 0.28437 0.77818 0.23738 0.0
H34 H 0.2941 0.74843 0.2023 0.0
C35 C 0.28344 0.78288 0.223 0.0
H36 H 0.27991 0.79482 0.22191 0.0
H37 H 0.28167 0.78645 0.24717 0.0
H38 H 0.01995 0.47277 0.03441 0.0
C39 C 0.0094 0.47971 0.03345 0.0
C40 C 1.00244 0.48708 0.04656 0.0
C41 C 0.00357 0.48215 0.01905 0.0
H42 H 0.98373 0.50234 0.055 0.0
C43 C 0.98917 0.49659 0.045 0.0
C44 C 0.98319 0.49912 0.03063 0.0
C45 C 0.99047 0.49178 0.01773 0.0
C46 C 0.01191 0.47565 0.00535 0.0
H47 H 0.98594 0.49354 0.00657 0.0
C48 C 0.0139 0.45908 1.00214 0.0
C49 C 0.02178 0.45308 0.989 0.0
C50 C 0.01793 0.48618 0.99538 0.0
H51 H 0.01659 0.49899 0.99767 0.0
C52 C 0.0259 0.48032 0.98246 0.0
H53 H 0.00922 0.4509 0.00979 0.0
C54 C 0.02782 0.4639 0.97926 0.0
H55 H 0.03375 0.45962 0.96898 0.0
H56 H 0.03052 0.48853 0.97484 0.0
H57 H 0.76896 0.79201 0.24731 0.0
C58 C 0.76918 0.78688 0.23553 0.0
C59 C 0.77573 0.7963 0.22479 0.0
C60 C 0.76339 0.77061 0.23126 0.0
H61 H 0.78124 0.79609 0.20121 0.0
C62 C 0.77598 0.78915 0.2096 0.0
C63 C 0.76989 0.77294 0.20515 0.0
C64 C 0.76364 0.76375 0.21609 0.0
C65 C 0.75901 0.76017 0.24283 0.0
H66 H 0.75955 0.75104 0.21295 0.0
C67 C 0.74323 0.75964 0.249 0.0
C68 C 0.73906 0.74891 0.25946 0.0
C69 C 0.7707 0.7502 0.24731 0.0
H70 H 0.78289 0.75048 0.24262 0.0
C71 C 0.76674 0.73979 0.25785 0.0
H72 H 0.73413 0.76719 0.24535 0.0
C73 C 0.75103 0.73909 0.26387 0.0
H74 H 0.74827 0.73091 0.27207 0.0
H75 H 0.77584 0.73217 0.26132 0.0
H76 H 0.09574 0.95638 0.49038 0.0
C77 C 0.08632 0.95953 0.48268 0.0
C78 C 0.0873 0.97512 0.47843 0.0
C79 C 0.07366 0.94775 0.47644 0.0
H80 H 0.07633 0.99066 0.46438 0.0
C81 C 0.07521 0.97888 0.46814 0.0
C82 C 0.06249 0.9672 0.46176 0.0
C83 C 0.06181 0.95166 0.46604 0.0
C84 C 0.07385 0.93085 0.47934 0.0
H85 H 0.05216 0.94245 0.46114 0.0
C86 C 0.07178 0.92655 0.49393 0.0
C87 C 0.07191 0.91029 0.49635 0.0
C88 C 0.07611 0.91886 0.46724 0.0
H89 H 0.07773 0.92195 0.45595 0.0
C90 C 0.07645 0.90283 0.46962 0.0
H91 H 0.06997 0.93577 0.50328 0.0
C92 C 0.07436 0.89855 0.48404 0.0
H93 H 0.0743 0.88594 0.4855 0.0
H94 H 0.07821 0.89367 0.46023 0.0
H95 H 0.2681 0.69749 0.78478 0.0
C96 C 0.26507 0.70411 0.79545 0.0
C97 C 0.27101 0.69967 0.80912 0.0
C98 C 0.2553 0.71707 0.79537 0.0
H99 H 0.27179 0.70537 0.83347 0.0
C100 C 0.26683 0.70832 0.82287 0.0
C101 C 0.25722 0.72148 0.82296 0.0
C102 C 0.25133 0.72563 0.80916 0.0
C103 C 0.25044 0.72248 0.78086 0.0
H104 H 0.24409 0.73587 0.80913 0.0
C105 C 0.23387 0.72513 0.77747 0.0
C106 C 0.22959 0.73071 0.7638 0.0
C107 C 0.26263 0.72536 0.77042 0.0
H108 H 0.27547 0.72351 0.77282 0.0
C109 C 0.25843 0.73096 0.75692 0.0
H110 H 0.22437 0.72287 0.78542 0.0
C111 C 0.24204 0.73368 0.75363 0.0
H112 H 0.23903 0.73786 0.743 0.0
H113 H 0.26791 0.73321 0.74898 0.0
H114 H 0.97279 0.57821 0.4625 0.0
C115 C 0.96476 0.56836 0.46584 0.0
C116 C 0.96197 0.56766 0.48123 0.0
C117 C 0.95669 0.55673 0.45461 0.0
H118 H 0.94889 0.55423 0.49695 0.0
C119 C 0.95128 0.55481 0.48516 0.0
C120 C 0.94307 0.54307 0.47401 0.0
C121 C 0.94592 0.54417 0.45872 0.0
C122 C 0.95749 0.55897 0.43854 0.0
H123 H 0.93917 0.53569 0.44992 0.0
C124 C 0.97017 0.55308 0.42956 0.0
C125 C 0.96994 0.55445 0.41399 0.0
C126 C 0.94484 0.56651 0.43202 0.0
H127 H 0.93498 0.57107 0.43881 0.0
C128 C 0.94473 0.56811 0.41669 0.0
H129 H 0.97985 0.54708 0.43455 0.0
C130 C 0.95713 0.56206 0.4077 0.0
H131 H 0.95677 0.56341 0.3958 0.0
H132 H 0.93494 0.57396 0.41173 0.0
H133 H 0.82428 0.8183 0.79969 0.0
C134 C 0.82241 0.80922 0.80718 0.0
C135 C 0.83019 0.79481 0.80455 0.0
C136 C 0.81285 0.81239 0.81988 0.0
H137 H 0.83422 0.77254 0.81315 0.0
C138 C 0.82775 0.78333 0.81465 0.0
C139 C 0.81785 0.78615 0.82724 0.0
C140 C 0.81037 0.80068 0.82963 0.0
C141 C 0.80714 0.82862 0.82409 0.0
H142 H 0.80272 0.80308 0.83927 0.0
C143 C 0.7983 0.83628 0.81368 0.0
C144 C 0.79367 0.85198 0.81793 0.0
C145 C 0.81113 0.83679 0.83874 0.0
H146 H 0.81806 0.83125 0.8469 0.0
C147 C 0.80658 0.8523 0.84293 0.0
H148 H 0.7951 0.8301 0.80237 0.0
C149 C 0.79796 0.85989 0.8326 0.0
H150 H 0.79443 0.87191 0.83615 0.0
H151 H 0.80978 0.85849 0.85421 0.0
H152 H 0.32434 0.31639 0.30012 0.0
C153 C 0.32156 0.307 0.30714 0.0
C154 C 0.32907 0.29248 0.30446 0.0
C155 C 0.31162 0.30997 0.31964 0.0
H156 H 0.33185 0.2695 0.3121 0.0
C157 C 0.3261 0.28071 0.31413 0.0
C158 C 0.31577 0.28331 0.3264 0.0
C159 C 0.30857 0.29796 0.32904 0.0
C160 C 0.30626 0.32628 0.32413 0.0
H161 H 0.3011 0.30033 0.33881 0.0
C162 C 0.29749 0.33423 0.31392 0.0
C163 C 0.29309 0.34996 0.31843 0.0
C164 C 0.31046 0.33417 0.33883 0.0
H165 H 0.31733 0.32837 0.34683 0.0
C166 C 0.30616 0.34974 0.34327 0.0
H167 H 0.29415 0.32824 0.30257 0.0
C168 C 0.29758 0.35762 0.33315 0.0
H169 H 0.29422 0.36966 0.33691 0.0
H170 H 0.30951 0.35573 0.3546 0.0
H171 H 0.51897 0.97527 0.53448 0.0
C172 C 0.50803 0.98169 0.53359 0.0
C173 C 0.50027 0.98783 0.54671 0.0
C174 C 0.50242 0.98466 0.5193 0.0
H175 H 0.47994 1.00079 0.55526 0.0
C176 C 0.48633 0.99651 0.54525 0.0
C177 C 0.48053 0.99959 0.53098 0.0
C178 C 0.48883 0.99371 0.51809 0.0
C179 C 0.51128 0.97904 0.50564 0.0
H180 H 0.4849 0.99632 0.50704 0.0
C181 C 0.51341 0.96258 0.50176 0.0
C182 C 0.5216 0.95727 0.48859 0.0
C183 C 0.51749 0.99019 0.49633 0.0
H184 H 0.51601 1.00292 0.49914 0.0
C185 C 0.52582 0.98503 0.4834 0.0
H186 H 0.50856 0.95394 0.50891 0.0
C187 C 0.52787 0.9687 0.47952 0.0
H188 H 0.53405 0.96497 0.46923 0.0
H189 H 0.5306 0.99371 0.47629 0.0
H190 H 0.27221 0.29148 0.7494 0.0
C191 C 0.27104 0.28636 0.73757 0.0
C192 C 0.27651 0.29569 0.72641 0.0
C193 C 0.26442 0.27031 0.73354 0.0
H194 H 0.28009 0.29572 0.70259 0.0
C195 C 0.27525 0.28874 0.71114 0.0
C196 C 0.26893 0.27252 0.70699 0.0
C197 C 0.26333 0.26347 0.71832 0.0
C198 C 0.26028 0.26007 0.74531 0.0
H199 H 0.25842 0.25096 0.71537 0.0
C200 C 0.24426 0.25883 0.75093 0.0
C201 C 0.24027 0.24826 0.76155 0.0
C202 C 0.27239 0.25093 0.75049 0.0
H203 H 0.28478 0.25175 0.74621 0.0
C204 C 0.26855 0.24059 0.76113 0.0
H205 H 0.23486 0.26577 0.74678 0.0
C206 C 0.25259 0.23919 0.7666 0.0
H207 H 0.24991 0.2311 0.77488 0.0
H208 H 0.27795 0.23357 0.7651 0.0
H209 H 0.82434 0.24544 0.73977 0.0
C210 C 0.81557 0.23487 0.73665 0.0
C211 C 0.81919 0.21991 0.74064 0.0
C212 C 0.8003 0.23649 0.72934 0.0
H213 H 0.80999 0.19497 0.74038 0.0
C214 C 0.80741 0.20648 0.73705 0.0
C215 C 0.79202 0.20792 0.72986 0.0
C216 C 0.78859 0.22298 0.72591 0.0
C217 C 0.79591 0.25271 0.72703 0.0
H218 H 0.77661 0.22434 0.72068 0.0
C219 C 0.79354 0.25691 0.71242 0.0
C220 C 0.79001 0.27269 0.71053 0.0
C221 C 0.79438 0.2642 0.73971 0.0
H222 H 0.79613 0.26114 0.75103 0.0
C223 C 0.79046 0.27966 0.73791 0.0
H224 H 0.79503 0.24811 0.70264 0.0
C225 C 0.7883 0.28391 0.72346 0.0
H226 H 0.78523 0.29601 0.72241 0.0
H227 H 0.78916 0.28841 0.74776 0.0
H228 H 0.58329 0.55258 0.55688 0.0
C229 C 0.5758 0.55027 0.56634 0.0
C230 C 0.5763 0.53567 0.57239 0.0
C231 C 0.56625 0.56227 0.57287 0.0
H232 H 0.56761 0.5222 0.59001 0.0
C233 C 0.5667 0.53309 0.5849 0.0
C234 C 0.55674 0.54487 0.5914 0.0
C235 C 0.55659 0.55939 0.58518 0.0
C236 C 0.56783 0.57852 0.56804 0.0
H237 H 0.54904 0.56865 0.58995 0.0
C238 C 0.56468 0.58073 0.55288 0.0
C239 C 0.56694 0.59629 0.54857 0.0
C240 C 0.57307 0.59197 0.57879 0.0
H241 H 0.57564 0.59053 0.59049 0.0
C242 C 0.57541 0.60735 0.5745 0.0
H243 H 0.56053 0.57045 0.54452 0.0
C244 C 0.57244 0.60951 0.55948 0.0
H245 H 0.57418 0.62159 0.5564 0.0
H246 H 0.57955 0.61762 0.58284 0.0
H247 H 0.59868 0.45883 0.98591 0.0
C248 C 0.58798 0.46147 0.97939 0.0
C249 C 0.58761 0.47668 0.97449 0.0
C250 C 0.57516 0.44917 0.97491 0.0
H251 H 0.57348 0.4912 0.96163 0.0
C252 C 0.57387 0.47955 0.9655 0.0
C253 C 0.56109 0.46728 0.96074 0.0
C254 C 0.56184 0.45208 0.96552 0.0
C255 C 0.57691 0.43261 0.97811 0.0
H256 H 0.55226 0.44237 0.9617 0.0
C257 C 0.57314 0.42788 0.99225 0.0
C258 C 0.57503 0.41197 0.99502 0.0
C259 C 0.58251 0.42143 0.96677 0.0
H260 H 0.58544 0.42491 0.95583 0.0
C261 C 0.58446 0.40573 0.96947 0.0
H262 H 0.56882 0.43653 1.00102 0.0
C263 C 0.58076 0.40101 0.98347 0.0
H264 H 0.5821 0.38865 0.98516 0.0
H265 H 0.58877 0.39716 0.96065 0.0
H266 H 0.76395 0.19425 0.28456 0.0
C267 C 0.7614 0.201 0.29531 0.0
C268 C 0.76857 0.19724 0.3088 0.0
C269 C 0.75109 0.2136 0.29545 0.0
H270 H 0.77096 0.20395 0.33305 0.0
C271 C 0.76512 0.20628 0.32257 0.0
C272 C 0.75455 0.21871 0.32291 0.0
C273 C 0.74735 0.22215 0.30932 0.0
C274 C 0.74603 0.21891 0.28097 0.0
H275 H 0.73972 0.23214 0.30948 0.0
C276 C 0.72922 0.21995 0.27691 0.0
C277 C 0.72481 0.22439 0.26273 0.0
C278 C 0.75836 0.22278 0.27097 0.0
H279 H 0.77136 0.2222 0.27393 0.0
C280 C 0.75408 0.22759 0.25715 0.0
H281 H 0.71965 0.21676 0.2845 0.0
C282 C 0.73746 0.22836 0.25302 0.0
H283 H 0.73449 0.23214 0.2422 0.0
H284 H 0.76368 0.23066 0.24957 0.0
H285 H 0.47184 0.08148 0.96084 0.0
C286 C 0.46448 0.07119 0.96415 0.0
C287 C 0.4619 0.07024 0.97953 0.0
C288 C 0.45715 0.05913 0.95292 0.0
H289 H 0.44984 0.05613 0.99526 0.0
C290 C 0.45205 0.05686 0.98346 0.0
C291 C 0.44443 0.04476 0.9723 0.0
C292 C 0.44718 0.04599 0.95701 0.0
C293 C 0.4579 0.06135 0.93685 0.0
H294 H 0.44093 0.03717 0.94819 0.0
C295 C 0.47021 0.05493 0.92773 0.0
C296 C 0.47007 0.05647 0.9122 0.0
C297 C 0.44567 0.06954 0.9305 0.0
H298 H 0.4361 0.07452 0.9374 0.0
C299 C 0.44559 0.07121 0.91518 0.0
H300 H 0.4796 0.0485 0.93261 0.0
C301 C 0.45764 0.06467 0.90605 0.0
H302 H 0.45735 0.06614 0.89418 0.0
H303 H 0.4361 0.07753 0.91034 0.0
Li304 Li 0.27061 0.89037 0.016 0.0
Li305 Li 0.25833 0.87118 0.03215 0.0
Li306 Li 0.25204 0.86742 0.00473 0.0
Li307 Li 0.241 0.88926 0.02169 0.0
C308 C 0.2805 0.85442 0.00822 0.0
N309 N 0.29255 0.82756 0.9926 0.0
C310 C 0.28059 0.84018 0.01471 0.0
C311 C 0.28666 0.85504 0.99384 0.0
C312 C 0.28673 0.82672 0.00663 0.0
C313 C 0.29264 0.84131 0.9861 0.0
C314 C 0.26653 0.8981 0.05039 0.0
C315 C 0.26261 0.89827 0.07706 0.0
N316 N 0.27914 0.90261 0.07992 0.0
C317 C 0.28346 0.90262 0.05358 0.0
C318 C 0.25598 0.89597 0.06221 0.0
C319 C 0.2896 0.90484 0.06859 0.0
C320 C 0.28838 0.92084 0.01567 0.0
N321 N 0.2896 0.90468 0.01302 0.0
C322 C 0.3175 0.90918 0.00537 0.0
C323 C 0.30384 0.89872 0.00815 0.0
C324 C 0.3165 0.92596 0.00762 0.0
C325 C 0.30167 0.93173 0.01292 0.0
H326 H 0.27696 0.92525 0.01971 0.0
H327 H 0.30461 0.88584 0.0064 0.0
C328 C 0.24948 0.85124 0.05439 0.0
N329 N 0.26234 0.86011 0.04908 0.0
C330 C 0.25204 0.84296 0.0667 0.0
C331 C 0.28106 0.85303 0.06783 0.0
C332 C 0.27796 0.86103 0.05542 0.0
C333 C 0.268 0.84381 0.07362 0.0
H334 H 0.23722 0.85056 0.04905 0.0
H335 H 0.28802 0.86795 0.0508 0.0
C336 C 0.25591 0.90217 0.99362 0.0
N337 N 0.26692 0.92703 0.97794 0.0
C338 C 0.24988 0.91728 0.99677 0.0
C339 C 0.26745 0.89966 0.98242 0.0
C340 C 0.25561 0.9297 0.98873 0.0
C341 C 0.2729 0.9124 0.97466 0.0
C342 C 0.2197 0.86365 0.02186 0.0
C343 C 0.20991 0.85772 0.00878 0.0
C344 C 0.21209 0.86823 0.03539 0.0
C345 C 0.19262 0.85657 0.00944 0.0
C346 C 0.19476 0.86694 0.03558 0.0
N347 N 0.18547 0.86118 0.0227 0.0
C348 C 0.24707 0.8357 0.98888 0.0
C349 C 0.24614 0.85641 0.97335 0.0
C350 C 0.24571 0.82391 0.97618 0.0
N351 N 0.24772 0.85161 0.98722 0.0
C352 C 0.24445 0.84501 0.96035 0.0
C353 C 0.24455 0.82854 0.96168 0.0
H354 H 0.24806 0.8322 1.00007 0.0
H355 H 0.2465 0.86912 0.97235 0.0
C356 C 0.22422 0.91375 0.03765 0.0
N357 N 0.22294 0.90233 0.02525 0.0
C358 C 0.21173 0.92404 0.04049 0.0
C359 C 0.1967 0.91059 0.01781 0.0
C360 C 0.2096 0.90066 0.01531 0.0
C361 C 0.19774 0.92255 0.0305 0.0
H362 H 0.23506 0.91502 0.04525 0.0
H363 H 0.20906 0.89173 0.00535 0.0
O364 O 0.2743 0.86764 0.01586 0.0
O365 O 0.26033 0.89558 0.03575 0.0
O366 O 0.25069 0.88995 1.00157 0.0
O367 O 0.23663 0.86505 0.0214 0.0
H368 H 0.27582 0.83946 0.02581 0.0
H369 H 0.28657 0.86593 0.98861 0.0
H370 H 0.2868 0.81559 0.01148 0.0
H371 H 0.2973 0.84158 0.97491 0.0
H372 H 0.25462 0.89655 0.08631 0.0
H373 H 0.2918 0.90426 0.04456 0.0
H374 H 0.24286 0.89238 0.05991 0.0
H375 H 0.30268 0.90827 0.07123 0.0
H376 H 0.32876 0.90416 1.00161 0.0
H377 H 0.30019 0.94452 0.01467 0.0
H378 H 0.24158 0.83612 0.07087 0.0
H379 H 0.2936 0.85384 0.07268 0.0
H380 H 0.241 0.91946 0.00543 0.0
H381 H 0.2723 0.88807 0.9799 0.0
H382 H 0.25112 0.94148 0.99109 0.0
H383 H 0.28192 0.91067 0.96604 0.0
H384 H 0.2156 0.85414 0.99821 0.0
H385 H 0.21949 0.87295 0.0456 0.0
H386 H 0.18489 0.85206 0.99939 0.0
H387 H 0.1887 0.87055 0.04594 0.0
H388 H 0.24563 0.81131 0.97766 0.0
H389 H 0.24362 0.84905 0.94935 0.0
H390 H 0.21298 0.93304 0.05045 0.0
H391 H 0.18623 0.90918 0.00972 0.0
Li392 Li 0.12414 0.50627 0.2615 0.0
Li393 Li 0.14688 0.49093 0.24989 0.0
Li394 Li 0.14547 0.51904 0.24727 0.0
Li395 Li 0.12528 0.49905 0.23351 0.0
C396 C 0.16091 0.51972 0.27382 0.0
N397 N 0.18639 0.54108 0.28804 0.0
C398 C 0.17733 0.51584 0.27311 0.0
C399 C 0.15742 0.53435 0.28192 0.0
C400 C 0.19004 0.52682 0.28034 0.0
C401 C 0.17049 0.54502 0.28898 0.0
C402 C 0.11864 0.46872 0.24219 0.0
C403 C 0.12418 0.44666 0.22342 0.0
N404 N 0.1111 0.43747 0.22804 0.0
C405 C 0.10525 0.45908 0.24676 0.0
C406 C 0.12819 0.46249 0.23043 0.0
C407 C 0.10164 0.4433 0.23947 0.0
C408 C 0.09335 0.50985 0.27469 0.0
N409 N 0.10969 0.50866 0.27787 0.0
C410 C 0.10522 0.51173 0.3044 0.0
C411 C 0.11577 0.5095 0.29234 0.0
C412 C 0.08826 0.51318 0.30152 0.0
C413 C 0.08239 0.51219 0.28638 0.0
H414 H 0.0889 0.50924 0.26306 0.0
H415 H 0.12884 0.5085 0.29452 0.0
C416 C 0.17581 0.47466 0.24588 0.0
N417 N 0.16109 0.47463 0.25279 0.0
C418 C 0.18685 0.46332 0.24838 0.0
C419 C 0.16718 0.45191 0.26479 0.0
C420 C 0.15656 0.46352 0.26203 0.0
C421 C 0.18265 0.45181 0.25806 0.0
H422 H 0.1791 0.48368 0.23863 0.0
H423 H 0.14479 0.46385 0.26742 0.0
C424 C 0.11393 0.53386 0.24701 0.0
N425 N 0.09928 0.56252 0.25032 0.0
C426 C 0.10718 0.53956 0.23437 0.0
C427 C 0.11315 0.54271 0.26135 0.0
C428 C 0.09986 0.55409 0.23628 0.0
C429 C 0.1057 0.55717 0.26279 0.0
C430 C 0.15349 0.50679 0.21802 0.0
C431 C 0.14541 0.51949 0.21352 0.0
C432 C 0.16532 0.49985 0.20884 0.0
C433 C 0.1493 0.52506 0.19989 0.0
C434 C 0.16887 0.50576 0.19528 0.0
N435 N 0.16085 0.51814 0.19112 0.0
C436 C 0.17589 0.53686 0.2435 0.0
C437 C 0.15363 0.55328 0.24625 0.0
C438 C 0.18699 0.55024 0.24192 0.0
N439 N 0.15956 0.53858 0.24573 0.0
C440 C 0.16422 0.56692 0.24452 0.0
C441 C 0.18121 0.56558 0.24237 0.0
H442 H 0.18031 0.52503 0.24292 0.0
H443 H 0.14068 0.55453 0.24781 0.0
C444 C 0.09593 0.49835 0.21591 0.0
N445 N 0.1115 0.49351 0.21549 0.0
C446 C 0.08561 0.49605 0.20282 0.0
C447 C 0.10725 0.48315 0.18924 0.0
C448 C 0.11721 0.48578 0.2026 0.0
C449 C 0.09132 0.48856 0.18919 0.0
H450 H 0.09167 0.50433 0.22637 0.0
H451 H 0.12961 0.48196 0.20257 0.0
O452 O 0.14833 0.50928 0.26654 0.0
O453 O 0.12226 0.48421 0.2492 0.0
O454 O 0.12101 0.51957 0.24534 0.0
O455 O 0.14989 0.50107 0.23131 0.0
H456 H 0.18024 0.50455 0.26691 0.0
H457 H 0.14478 0.53748 0.28268 0.0
H458 H 0.20282 0.52404 0.2798 0.0
H459 H 0.16798 0.55645 0.2952 0.0
H460 H 0.13146 0.44168 0.21429 0.0
H461 H 0.09773 0.46376 0.25584 0.0
H462 H 0.13859 0.46978 0.22672 0.0
H463 H 0.09131 0.4357 0.24288 0.0
H464 H 0.1103 0.5122 0.31583 0.0
H465 H 0.06952 0.51352 0.28357 0.0
H466 H 0.19856 0.4636 0.24284 0.0
H467 H 0.16352 0.4434 0.27247 0.0
H468 H 0.10762 0.53287 0.22318 0.0
H469 H 0.1183 0.53854 0.27126 0.0
H470 H 0.09463 0.55866 0.22659 0.0
H471 H 0.10506 0.56415 0.27381 0.0
H472 H 0.13625 0.52502 0.22047 0.0
H473 H 0.17166 0.48997 0.21214 0.0
H474 H 0.14314 0.5349 0.19628 0.0
H475 H 0.17799 0.50049 0.18805 0.0
H476 H 0.19998 0.54854 0.24048 0.0
H477 H 0.15902 0.57836 0.24462 0.0
H478 H 0.07331 0.50018 0.20335 0.0
H479 H 0.11219 0.47742 0.17897 0.0
Li480 Li 0.7789 0.63012 0.994 0.0
Li481 Li 0.79242 0.65321 0.01111 0.0
Li482 Li 0.79595 0.65016 0.98264 0.0
Li483 Li 0.80976 0.63293 0.99846 0.0
C484 C 0.75885 0.65278 0.99188 0.0
N485 N 0.72477 0.65055 0.98705 0.0
C486 C 0.74869 0.65666 0.00394 0.0
C487 C 0.75171 0.64796 0.97734 0.0
C488 C 0.73147 0.65541 1.00127 0.0
C489 C 0.73445 0.64685 0.97514 0.0
C490 C 0.7961 0.6268 0.02722 0.0
C491 C 0.81564 0.6293 0.04856 0.0
N492 N 0.80448 0.6204 0.0559 0.0
C493 C 0.78487 0.61758 0.03492 0.0
C494 C 0.81164 0.63264 0.03404 0.0
C495 C 0.78932 0.61451 0.04944 0.0
C496 C 0.75657 0.60369 0.97983 0.0
N497 N 0.7595 0.6152 0.99209 0.0
C498 C 0.73473 0.60542 1.00317 0.0
C499 C 0.749 0.61619 0.00368 0.0
C500 C 0.73136 0.59336 0.99068 0.0
C501 C 0.7425 0.59257 0.97889 0.0
H502 H 0.76523 0.60306 0.97085 0.0
H503 H 0.75179 0.62531 0.01341 0.0
C504 C 0.79725 0.68265 0.03149 0.0
N505 N 0.78961 0.66737 0.02915 0.0
C506 C 0.79525 0.69273 0.04497 0.0
C507 C 0.77727 0.67127 0.05316 0.0
C508 C 0.77959 0.66165 0.03955 0.0
C509 C 0.78519 0.68705 0.05607 0.0
H510 H 0.80492 0.68699 0.02291 0.0
H511 H 0.77337 0.64959 0.03727 0.0
C512 C 0.80013 0.62209 0.96453 0.0
N513 N 0.80792 0.61409 0.93475 0.0
C514 C 0.81605 0.61798 0.96103 0.0
C515 C 0.78812 0.62197 0.95291 0.0
C516 C 0.81975 0.614 0.94589 0.0
C517 C 0.79232 0.61795 0.93791 0.0
C518 C 0.82868 0.66417 1.00247 0.0
C519 C 0.83858 0.66734 0.99047 0.0
C520 C 0.83497 0.66875 0.01735 0.0
C521 C 0.85471 0.6748 0.99354 0.0
C522 C 0.85116 0.67617 0.01995 0.0
N523 N 0.86062 0.679 0.00809 0.0
C524 C 0.7874 0.67351 0.96452 0.0
C525 C 0.80968 0.6592 0.95527 0.0
C526 C 0.78833 0.68272 0.95258 0.0
N527 N 0.79796 0.66199 0.96565 0.0
C528 C 0.81098 0.66804 0.9431 0.0
C529 C 0.80026 0.68006 0.94162 0.0
H530 H 0.77832 0.67569 0.973 0.0
H531 H 0.81815 0.6502 0.95647 0.0
C532 C 0.82409 0.60554 0.00477 0.0
N533 N 0.82818 0.62069 1.00145 0.0
C534 C 0.83647 0.59562 0.00758 0.0
C535 C 0.85711 0.61698 0.00325 0.0
C536 C 0.84432 0.62648 1.00053 0.0
C537 C 0.85327 0.60133 0.0069 0.0
H538 H 0.81115 0.60117 0.0053 0.0
H539 H 0.84736 0.63844 0.99771 0.0
O540 O 0.77569 0.65358 0.99432 0.0
O541 O 0.79188 0.62997 0.01303 0.0
O542 O 0.79628 0.626 0.97928 0.0
O543 O 0.8128 0.657 0.99966 0.0
H544 H 0.75402 0.66047 0.01525 0.0
H545 H 0.75943 0.64503 0.96789 0.0
H546 H 0.72344 0.65828 0.0105 0.0
H547 H 0.72875 0.64304 0.96396 0.0
H548 H 0.82763 0.63375 0.05397 0.0
H549 H 0.77282 0.61288 0.02977 0.0
H550 H 0.82056 0.63953 0.02814 0.0
H551 H 0.78072 0.60745 0.05556 0.0
H552 H 0.72661 0.60632 0.01259 0.0
H553 H 0.7403 0.58352 0.96902 0.0
H554 H 0.80139 0.70489 0.04661 0.0
H555 H 0.76954 0.66628 0.0614 0.0
H556 H 0.82548 0.61796 0.96989 0.0
H557 H 0.77572 0.62504 0.95542 0.0
H558 H 0.83204 0.61086 0.94301 0.0
H559 H 0.78318 0.6179 0.92879 0.0
H560 H 0.83394 0.66396 0.97891 0.0
H561 H 0.82743 0.66671 0.02681 0.0
H562 H 0.86253 0.67722 0.98434 0.0
H563 H 0.85618 0.67973 0.0314 0.0
H564 H 0.77999 0.69204 0.95213 0.0
H565 H 0.82026 0.66538 0.93489 0.0
H566 H 0.83289 0.58356 0.01009 0.0
H567 H 0.86987 0.62195 1.00272 0.0
Li568 Li 0.90991 0.0261 0.2811 0.0
Li569 Li 0.93202 0.00972 0.29246 0.0
Li570 Li 0.93081 0.01392 0.26561 0.0
Li571 Li 0.91028 0.99657 0.27439 0.0
C572 C 0.94685 0.04133 0.28002 0.0
N573 N 0.97194 0.06233 0.27146 0.0
C574 C 0.96314 0.03707 0.27961 0.0
C575 C 0.94331 0.0563 0.27622 0.0
C576 C 0.97565 0.04784 0.2752 0.0
C577 C 0.95618 0.06675 0.2719 0.0
C578 C 0.89449 1.00021 0.29995 0.0
C579 C 0.88355 0.97961 0.31433 0.0
N580 N 0.86789 0.98173 0.30949 0.0
C581 C 0.8783 1.00225 0.29517 0.0
C582 C 0.89717 0.98885 0.30964 0.0
C583 C 0.86501 0.99276 0.3001 0.0
C584 C 0.88223 0.04345 0.2771 0.0
N585 N 0.89648 0.04341 0.28557 0.0
C586 C 0.89112 0.06792 0.30075 0.0
C587 C 0.90105 0.05527 0.29724 0.0
C588 C 0.87636 0.06842 0.2921 0.0
C589 C 0.87202 0.05593 0.28009 0.0
H590 H 0.87882 0.03376 0.26796 0.0
H591 H 0.91238 0.05483 0.30388 0.0
C592 C 0.96106 0.0042 0.30884 0.0
N593 N 0.94527 0.00837 0.31014 0.0
C594 C 0.97051 1.00213 0.32169 0.0
C595 C 0.94742 0.00908 0.33698 0.0
C596 C 0.93843 0.01105 0.32384 0.0
C597 C 0.96363 0.00438 0.336 0.0
H598 H 0.96614 1.00207 0.29778 0.0
H599 H 0.92589 0.0145 0.32453 0.0
C600 C 0.90566 0.01544 0.24637 0.0
N601 N 0.90469 0.02062 0.21646 0.0
C602 C 0.90694 1.00265 0.23487 0.0
C603 C 0.90371 0.03083 0.24267 0.0
C604 C 0.90649 0.00553 0.21982 0.0
C605 C 0.90328 0.03321 0.22748 0.0
C606 C 0.93548 0.97787 0.27166 0.0
C607 C 0.93164 0.96952 0.25717 0.0
C608 C 0.94034 0.96946 0.2833 0.0
C609 C 0.93252 0.95285 0.25461 0.0
C610 C 0.9411 0.95279 0.28027 0.0
N611 N 0.93718 0.9449 0.26612 0.0
C612 C 0.95422 0.00528 0.24372 0.0
C613 C 0.94479 0.03092 0.24226 0.0
C614 C 0.96389 0.00661 0.23118 0.0
N615 N 0.94472 0.01723 0.24888 0.0
C616 C 0.95434 0.0328 0.22974 0.0
C617 C 0.96395 0.02047 0.22394 0.0
H618 H 0.95429 0.99466 0.2493 0.0
H619 H 0.93729 0.04035 0.24657 0.0
C620 C 0.88264 0.97705 0.25949 0.0
N621 N 0.89533 0.9772 0.26987 0.0
C622 C 0.87126 0.9634 0.25599 0.0
C623 C 0.88615 0.95031 0.27397 0.0
C624 C 0.89706 0.96428 0.27728 0.0
C625 C 0.87298 0.94968 0.26318 0.0
H626 H 0.88122 0.98761 0.25404 0.0
H627 H 0.90687 0.96482 0.28585 0.0
O628 O 0.9344 0.03088 0.28411 0.0
O629 O 0.90766 0.0091 0.29493 0.0
O630 O 0.90625 0.01289 0.26119 0.0
O631 O 0.93474 0.99422 0.27439 0.0
H632 H 0.96604 0.02549 0.28249 0.0
H633 H 0.93074 0.05974 0.27647 0.0
H634 H 0.98831 0.04467 0.27472 0.0
H635 H 0.95363 0.07835 0.26884 0.0
H636 H 0.88543 0.9707 0.32175 0.0
H637 H 0.87604 0.01093 0.28759 0.0
H638 H 0.90965 0.987 0.31331 0.0
H639 H 0.85241 0.99414 0.29642 0.0
H640 H 0.89487 0.07709 0.31025 0.0
H641 H 0.86095 0.05585 0.27294 0.0
H642 H 0.98288 0.99834 0.32038 0.0
H643 H 0.94171 0.01119 0.34778 0.0
H644 H 0.90826 0.99064 0.23753 0.0
H645 H 0.90287 0.04091 0.25142 0.0
H646 H 0.90755 0.99575 0.2108 0.0
H647 H 0.90192 0.04509 0.22445 0.0
H648 H 0.92797 0.97584 0.24801 0.0
H649 H 0.94325 0.97566 0.2946 0.0
H650 H 0.9295 0.94624 0.24347 0.0
H651 H 0.94473 0.94612 0.2892 0.0
H652 H 0.97135 0.99694 0.22727 0.0
H653 H 0.95393 0.04366 0.22447 0.0
H654 H 0.86111 0.96371 0.24787 0.0
H655 H 0.88819 0.94007 0.27975 0.0
Li656 Li 0.29046 0.15413 0.51271 0.0
Li657 Li 0.27639 0.13027 0.49536 0.0
Li658 Li 0.30636 0.13337 0.49974 0.0
Li659 Li 0.29343 0.15015 0.48405 0.0
C660 C 0.29488 0.1204 0.52323 0.0
N661 N 0.30818 0.0985 0.53948 0.0
C662 C 0.29105 0.10385 0.51879 0.0
C663 C 0.30537 0.12584 0.53597 0.0
C664 C 0.29793 0.09296 0.52715 0.0
C665 C 0.31199 0.11457 0.54403 0.0
C666 C 0.25635 0.15346 0.49512 0.0
C667 C 0.23016 0.14795 0.48087 0.0
N668 N 0.22207 0.15196 0.49375 0.0
C669 C 0.2478 0.15766 0.50819 0.0
C670 C 0.24749 0.1487 0.48131 0.0
C671 C 0.23046 0.15678 0.50728 0.0
C672 C 0.29295 0.18448 0.53183 0.0
N673 N 0.28801 0.16843 0.53064 0.0
C674 C 0.27811 0.17159 0.55567 0.0
C675 C 0.28072 0.16189 0.54219 0.0
C676 C 0.28305 0.18824 0.5573 0.0
C677 C 0.29065 0.19467 0.54518 0.0
H678 H 0.29861 0.18936 0.52239 0.0
H679 H 0.27683 0.14909 0.54087 0.0
C680 C 0.25393 0.10378 0.48157 0.0
N681 N 0.25699 0.11535 0.49376 0.0
C682 C 0.24001 0.09251 0.48092 0.0
C683 C 0.23268 0.1053 0.50536 0.0
C684 C 0.24681 0.1162 0.5056 0.0
C685 C 0.22917 0.09319 0.49293 0.0
H686 H 0.2624 0.10315 0.47244 0.0
H687 H 0.2498 0.12527 0.51533 0.0
C688 C 0.32732 0.16118 0.50227 0.0
N689 N 0.3613 0.1689 0.50534 0.0
C690 C 0.33753 0.15548 0.49082 0.0
C691 C 0.33438 0.17082 0.51528 0.0
C692 C 0.35469 0.1595 0.49259 0.0
C693 C 0.35159 0.17459 0.51662 0.0
C694 C 0.29585 0.12325 0.46533 0.0
C695 C 0.3114 0.11971 0.46013 0.0
C696 C 0.28274 0.12391 0.45492 0.0
C697 C 0.3136 0.11703 0.44457 0.0
C698 C 0.28545 0.12119 0.43946 0.0
N699 N 0.30069 0.11784 0.43464 0.0
C700 C 0.32374 0.10572 0.49556 0.0
C701 C 0.33748 0.12667 0.51319 0.0
C702 C 0.33604 0.09558 0.49795 0.0
N703 N 0.32473 0.121 0.50302 0.0
C704 C 0.3502 0.11703 0.51576 0.0
C705 C 0.34961 0.10121 0.50811 0.0
H706 H 0.31316 0.10127 0.48796 0.0
H707 H 0.3377 0.13856 0.51953 0.0
C708 C 0.28364 0.17226 0.46495 0.0
N709 N 0.29532 0.16202 0.46706 0.0
C710 C 0.28456 0.18144 0.45299 0.0
C711 C 0.30948 0.16934 0.44548 0.0
C712 C 0.30818 0.16054 0.45768 0.0
C713 C 0.29763 0.18007 0.44301 0.0
H714 H 0.27369 0.17347 0.47269 0.0
H715 H 0.31746 0.15252 0.45959 0.0
O716 O 0.28871 0.13122 0.51492 0.0
O717 O 0.27331 0.15392 0.49584 0.0
O718 O 0.31051 0.15737 0.50079 0.0
O719 O 0.29346 0.12598 0.48052 0.0
H720 H 0.28302 0.09947 0.50889 0.0
H721 H 0.30853 0.13863 0.53947 0.0
H722 H 0.29517 0.0801 0.5238 0.0
H723 H 0.32022 0.11859 0.55386 0.0
H724 H 0.22314 0.14419 0.47028 0.0
H725 H 0.25446 0.16143 0.51896 0.0
H726 H 0.25393 0.14555 0.47107 0.0
H727 H 0.22367 0.15989 0.51733 0.0
H728 H 0.27243 0.16608 0.56477 0.0
H729 H 0.29452 0.20744 0.54593 0.0
H730 H 0.23772 0.08339 0.4711 0.0
H731 H 0.22481 0.10609 0.51497 0.0
H732 H 0.33231 0.14777 0.48083 0.0
H733 H 0.32666 0.17527 0.52428 0.0
H734 H 0.36275 0.15508 0.48386 0.0
H735 H 0.35723 0.18202 0.52664 0.0
H736 H 0.32173 0.11924 0.46799 0.0
H737 H 0.27063 0.12658 0.45874 0.0
H738 H 0.32558 0.11437 0.44039 0.0
H739 H 0.27543 0.12175 0.43129 0.0
H740 H 0.3347 0.08336 0.49209 0.0
H741 H 0.36038 0.12201 0.52365 0.0
H742 H 0.27529 0.18976 0.45179 0.0
H743 H 0.31965 0.16764 0.43803 0.0
Li744 Li 0.43021 0.51132 0.79237 0.0
Li745 Li 0.41028 0.52714 0.78109 0.0
Li746 Li 0.4088 0.49693 0.77345 0.0
Li747 Li 0.43076 0.51562 0.76482 0.0
C748 C 0.39931 0.50325 0.80579 0.0
N749 N 0.38649 0.49064 0.83051 0.0
C750 C 0.3924 0.51324 0.81724 0.0
C751 C 0.39941 0.48679 0.8068 0.0
C752 C 0.38607 0.50666 0.82969 0.0
C753 C 0.39294 0.48066 0.81941 0.0
C754 C 0.43688 0.54783 0.78857 0.0
C755 C 0.43616 0.57548 0.7842 0.0
N756 N 0.43981 0.58044 0.79917 0.0
C757 C 0.44074 0.55319 0.80388 0.0
C758 C 0.4347 0.55904 0.77861 0.0
C759 C 0.44213 0.56974 0.80903 0.0
C760 C 0.45786 0.50238 0.80844 0.0
N761 N 0.44321 0.50904 0.81012 0.0
C762 C 0.44643 0.51093 0.83704 0.0
C763 C 0.43758 0.51364 0.82407 0.0
C764 C 0.46127 0.50348 0.83564 0.0
C765 C 0.46707 0.49938 0.82109 0.0
H766 H 0.46228 0.49916 0.79724 0.0
H767 H 0.42616 0.51932 0.82515 0.0
C768 C 0.38676 0.54843 0.77424 0.0
N769 N 0.39706 0.54485 0.78539 0.0
C770 C 0.37668 0.56105 0.77709 0.0
C771 C 0.38793 0.56608 0.80285 0.0
C772 C 0.39777 0.55334 0.79951 0.0
C773 C 0.37713 0.57005 0.79157 0.0
H774 H 0.38628 0.54141 0.76316 0.0
H775 H 0.40591 0.55014 0.80823 0.0
C776 C 0.43931 0.48094 0.77325 0.0
N777 N 0.45161 0.45113 0.77162 0.0
C778 C 0.44738 0.47482 0.76043 0.0
C779 C 0.43768 0.47197 0.78532 0.0
C780 C 0.45345 0.4597 0.75979 0.0
C781 C 0.44394 0.45692 0.78427 0.0
C782 C 0.40421 0.51503 0.74561 0.0
C783 C 0.39826 0.50121 0.73575 0.0
C784 C 0.40825 0.52953 0.73989 0.0
C785 C 0.39666 0.50207 0.72026 0.0
C786 C 0.40651 0.52989 0.72433 0.0
N787 N 0.40081 0.51626 0.71492 0.0
C788 C 0.37812 0.47789 0.77173 0.0
C789 C 0.40001 0.464 0.7609 0.0
C790 C 0.36706 0.46396 0.76849 0.0
N791 N 0.39429 0.47761 0.76806 0.0
C792 C 0.38947 0.44976 0.75768 0.0
C793 C 0.3728 0.44962 0.76156 0.0
H794 H 0.37387 0.48892 0.77733 0.0
H795 H 0.41273 0.46413 0.75766 0.0
C796 C 0.45663 0.53092 0.74919 0.0
N797 N 0.44456 0.51839 0.74813 0.0
C798 C 0.46635 0.53322 0.73683 0.0
C799 C 0.451 0.50974 0.72254 0.0
C800 C 0.44182 0.50771 0.73524 0.0
C801 C 0.46341 0.52265 0.72324 0.0
H802 H 0.45865 0.53917 0.75961 0.0
H803 H 0.4324 0.49765 0.73477 0.0
O804 O 0.40556 0.50953 0.79352 0.0
O805 O 0.43523 0.53167 0.78337 0.0
O806 O 0.43323 0.49571 0.774 0.0
O807 O 0.40604 0.51437 0.76078 0.0
H808 H 0.39202 0.52596 0.81659 0.0
H809 H 0.40423 0.47878 0.79787 0.0
H810 H 0.38081 0.51428 0.83868 0.0
H811 H 0.39298 0.46796 0.82033 0.0
H812 H 0.4344 0.58429 0.77664 0.0
H813 H 0.44253 0.54467 0.81172 0.0
H814 H 0.43181 0.55507 0.76672 0.0
H815 H 0.44502 0.57407 0.82086 0.0
H816 H 0.44147 0.51429 0.84801 0.0
H817 H 0.47863 0.49393 0.8195 0.0
H818 H 0.36869 0.56378 0.76799 0.0
H819 H 0.38855 0.57254 0.81422 0.0
H820 H 0.4489 0.48163 0.75104 0.0
H821 H 0.43187 0.47665 0.79549 0.0
H822 H 0.45965 0.4548 0.7499 0.0
H823 H 0.44275 0.44986 0.79353 0.0
H824 H 0.39502 0.4899 0.73999 0.0
H825 H 0.41281 0.54035 0.74737 0.0
H826 H 0.39216 0.49144 0.71248 0.0
H827 H 0.4097 0.54099 0.71973 0.0
H828 H 0.35427 0.46429 0.77167 0.0
H829 H 0.39427 0.43899 0.7521 0.0
H830 H 0.47582 0.54334 0.73778 0.0
H831 H 0.44852 0.50122 0.71232 0.0
Li832 Li 0.76898 0.38781 0.51683 0.0
Li833 Li 0.7556 0.36999 0.5324 0.0
Li834 Li 0.74988 0.36531 0.50484 0.0
Li835 Li 0.73964 0.38942 0.52167 0.0
C836 C 0.7843 0.35735 0.51087 0.0
N837 N 0.81165 0.34287 0.49995 0.0
C838 C 0.79582 0.35239 0.52085 0.0
C839 C 0.78664 0.35482 0.49532 0.0
C840 C 0.80959 0.34513 0.51511 0.0
C841 C 0.80056 0.34751 0.49002 0.0
C842 C 0.7705 0.39898 0.54784 0.0
C843 C 0.77977 0.41604 0.57104 0.0
N844 N 0.79425 0.40897 0.57093 0.0
C845 C 0.78547 0.3919 0.54796 0.0
C846 C 0.76761 0.41116 0.55947 0.0
C847 C 0.79732 0.39712 0.55972 0.0
C848 C 0.7873 0.41787 0.51784 0.0
N849 N 0.78868 0.4018 0.51427 0.0
C850 C 0.81638 0.40731 0.50639 0.0
C851 C 0.80296 0.39639 0.50881 0.0
C852 C 0.81513 0.424 0.50953 0.0
C853 C 0.80034 0.42921 0.51546 0.0
H854 H 0.77585 0.42188 0.52224 0.0
H855 H 0.80401 0.38366 0.50619 0.0
C856 C 0.76245 0.34343 0.54713 0.0
N857 N 0.7581 0.35879 0.54952 0.0
C858 C 0.76477 0.33489 0.55932 0.0
C859 C 0.75785 0.35807 0.57619 0.0
C860 C 0.75556 0.36611 0.56367 0.0
C861 C 0.76264 0.34228 0.57411 0.0
H862 H 0.76422 0.33785 0.53573 0.0
H863 H 0.75175 0.37821 0.56525 0.0
C864 C 0.75673 0.40004 0.49355 0.0
N865 N 0.77057 0.42371 0.47777 0.0
C866 C 0.75171 0.41563 0.496 0.0
C867 C 0.76866 0.39644 0.48294 0.0
C868 C 0.75888 0.42743 0.48793 0.0
C869 C 0.77556 0.40859 0.47513 0.0
C870 C 0.72459 0.35836 0.53167 0.0
C871 C 0.72252 0.34153 0.53045 0.0
C872 C 0.7183 0.36765 0.54398 0.0
C873 C 0.71423 0.33425 0.54163 0.0
C874 C 0.71007 0.3599 0.55491 0.0
N875 N 0.70823 0.3435 0.55353 0.0
C876 C 0.7441 0.33366 0.48899 0.0
C877 C 0.74452 0.35449 0.47353 0.0
C878 C 0.74222 0.3219 0.47625 0.0
N879 N 0.74528 0.34958 0.4874 0.0
C880 C 0.74303 0.34317 0.46047 0.0
C881 C 0.74198 0.32655 0.46166 0.0
H882 H 0.745 0.33009 0.50015 0.0
H883 H 0.74562 0.36723 0.47258 0.0
C884 C 0.72605 0.41807 0.53287 0.0
N885 N 0.72233 0.40322 0.52476 0.0
C886 C 0.7137 0.42853 0.53567 0.0
C887 C 0.69388 0.40824 0.52166 0.0
C888 C 0.70664 0.39816 0.51914 0.0
C889 C 0.69732 0.42368 0.53005 0.0
H890 H 0.73865 0.42177 0.53718 0.0
H891 H 0.70406 0.38627 0.51272 0.0
O892 O 0.77064 0.36428 0.51632 0.0
O893 O 0.75865 0.39404 0.53648 0.0
O894 O 0.75013 0.38843 0.50163 0.0
O895 O 0.73319 0.36576 0.52116 0.0
H896 H 0.79416 0.35412 0.53292 0.0
H897 H 0.77792 0.3586 0.48741 0.0
H898 H 0.81862 0.34128 0.52272 0.0
H899 H 0.80255 0.34555 0.47802 0.0
H900 H 0.77768 0.42543 0.58012 0.0
H901 H 0.78795 0.38252 0.53907 0.0
H902 H 0.75606 0.41672 0.55959 0.0
H903 H 0.80896 0.39173 0.55994 0.0
H904 H 0.82762 0.40267 0.50211 0.0
H905 H 0.79864 0.44192 0.5179 0.0
H906 H 0.76855 0.32278 0.55721 0.0
H907 H 0.7558 0.36411 0.58737 0.0
H908 H 0.74247 0.41862 0.50413 0.0
H909 H 0.77274 0.38447 0.48094 0.0
H910 H 0.75518 0.43957 0.48977 0.0
H911 H 0.78492 0.40601 0.467 0.0
H912 H 0.7274 0.33417 0.52105 0.0
H913 H 0.71999 0.38069 0.54521 0.0
H914 H 0.71261 0.32123 0.54087 0.0
H915 H 0.70521 0.36693 0.56454 0.0
H916 H 0.74113 0.30932 0.47788 0.0
H917 H 0.74326 0.3475 0.4496 0.0
H918 H 0.71692 0.44019 0.54236 0.0
H919 H 0.6815 0.40405 0.51695 0.0
Li920 Li 0.64705 0.99186 0.74851 0.0
Li921 Li 0.62414 0.00684 0.76013 0.0
Li922 Li 0.62523 0.99962 0.73217 0.0
Li923 Li 0.64521 0.01992 0.74588 0.0
C924 C 0.61923 0.96925 0.7409 0.0
N925 N 0.61239 0.93788 0.72683 0.0
C926 C 0.60626 0.95926 0.74567 0.0
C927 C 0.62872 0.96331 0.72897 0.0
C928 C 0.60299 0.94342 0.73842 0.0
C929 C 0.62507 0.94742 0.722 0.0
C930 C 0.66096 0.02061 0.7724 0.0
C931 C 0.6707 0.04591 0.7875 0.0
N932 N 0.68656 0.04184 0.7866 0.0
C933 C 0.67734 0.01661 0.77173 0.0
C934 C 0.65757 0.0353 0.78046 0.0
C935 C 0.69012 0.02753 0.77895 0.0
C936 C 0.67604 0.9756 0.74429 0.0
N937 N 0.66145 0.9757 0.75142 0.0
C938 C 0.66777 0.9532 0.76364 0.0
C939 C 0.6571 0.96477 0.76088 0.0
C940 C 0.68311 0.95296 0.75668 0.0
C941 C 0.68712 0.9643 0.74679 0.0
H942 H 0.67918 0.98448 0.73686 0.0
H943 H 0.64543 0.9652 0.76643 0.0
C944 C 0.59331 0.01019 0.77326 0.0
N945 N 0.60966 0.0091 0.77648 0.0
C946 C 0.58231 0.0125 0.78491 0.0
C947 C 0.60512 0.01217 0.80299 0.0
C948 C 0.61571 0.00998 0.79097 0.0
C949 C 0.58814 0.01354 0.80006 0.0
H950 H 0.58889 0.00954 0.76161 0.0
H951 H 0.62879 0.00907 0.79317 0.0
C952 C 0.65327 0.00795 0.71666 0.0
N953 N 0.66032 0.01973 0.68989 0.0
C954 C 0.64469 0.02035 0.71216 0.0
C955 C 0.66544 1.00154 0.70755 0.0
C956 C 0.64843 0.02614 0.69859 0.0
C957 C 0.66883 0.00766 0.69405 0.0
C958 C 0.61319 0.03409 0.7458 0.0
C959 C 0.60573 0.03947 0.73331 0.0
C960 C 0.61272 0.04302 0.76013 0.0
C961 C 0.59798 0.05376 0.73537 0.0
C962 C 0.60483 0.05723 0.76173 0.0
N963 N 0.59769 0.06226 0.74941 0.0
C964 C 0.59553 0.99806 0.71499 0.0
C965 C 0.6171 0.98662 0.70117 0.0
C966 C 0.58497 0.99558 0.70206 0.0
N967 N 0.61134 0.99387 0.71426 0.0
C968 C 0.60693 0.98386 0.68795 0.0
C969 C 0.59071 0.98862 0.68823 0.0
H970 H 0.59124 0.00365 0.7256 0.0
H971 H 0.62969 0.98329 0.7009 0.0
C972 C 0.67537 0.0384 0.74248 0.0
N973 N 0.65889 0.03969 0.74427 0.0
C974 C 0.68617 0.05198 0.74086 0.0
C975 C 0.66279 0.06794 0.74245 0.0
C976 C 0.65251 0.05411 0.74423 0.0
C977 C 0.67992 0.06706 0.74078 0.0
H978 H 0.68014 0.02676 0.74225 0.0
H979 H 0.63943 0.055 0.74535 0.0
O980 O 0.62251 0.98479 0.74788 0.0
O981 O 0.64832 0.01021 0.76515 0.0
O982 O 0.64987 1.00205 0.72991 0.0
O983 O 0.62073 0.02006 0.74397 0.0
H984 H 0.59879 0.9637 0.75489 0.0
H985 H 0.63881 0.97087 0.72511 0.0
H986 H 0.59299 0.93554 0.74199 0.0
H987 H 0.63231 0.94266 0.71276 0.0
H988 H 0.66827 0.05737 0.79369 0.0
H989 H 0.68018 0.00528 0.76558 0.0
H990 H 0.64497 0.03853 0.7812 0.0
H991 H 0.70287 0.02464 0.77843 0.0
H992 H 0.66426 0.94484 0.77149 0.0
H993 H 0.69873 0.96446 0.74107 0.0
H994 H 0.56944 0.01378 0.78206 0.0
H995 H 0.61016 0.01267 0.81444 0.0
H996 H 0.63526 0.02547 0.71904 0.0
H997 H 0.67218 0.99192 0.71085 0.0
H998 H 0.64189 0.03573 0.69499 0.0
H999 H 0.67821 1.0028 0.68688 0.0
H1000 H 0.60597 0.03274 0.72212 0.0
H1001 H 0.61843 0.03909 0.76992 0.0
H1002 H 0.59219 0.05808 0.7258 0.0
H1003 H 0.6044 0.06427 0.77275 0.0
H1004 H 0.57248 0.99918 0.70285 0.0
H1005 H 0.6119 0.97855 0.67753 0.0
H1006 H 0.69927 0.05064 0.73979 0.0
H1007 H 0.65725 0.07915 0.7421 0.0
Li1008 Li 0.04198 0.22341 0.86888 0.0
Li1009 Li 0.0263 0.23896 0.88992 0.0
Li1010 Li 0.0281 0.21 0.88819 0.0
Li1011 Li 0.01151 0.21997 0.86987 0.0
C1012 C 0.05602 0.22374 0.90301 0.0
N1013 N 0.07391 0.21517 0.92707 0.0
C1014 C 0.05383 0.23101 0.91773 0.0
C1015 C 0.06748 0.21229 0.90049 0.0
C1016 C 0.06296 0.22648 0.92975 0.0
C1017 C 0.07635 0.20806 0.91281 0.0
C1018 C 0.01678 0.24682 0.85786 0.0
C1019 C 0.99457 0.26281 0.85256 0.0
N1020 N 0.99691 0.25934 0.83751 0.0
C1021 C 0.01906 0.24349 0.84235 0.0
C1022 C 0.00451 0.25662 0.86305 0.0
C1023 C 0.00885 0.24991 0.83223 0.0
C1024 C 0.05963 0.21789 0.84195 0.0
N1025 N 0.06039 0.22553 0.85641 0.0
C1026 C 0.0879 0.23735 0.85354 0.0
C1027 C 0.07411 0.23513 0.86231 0.0
C1028 C 0.08758 0.22952 0.83859 0.0
C1029 C 0.07322 0.21964 0.83282 0.0
H1030 H 0.04847 0.21045 0.83753 0.0
H1031 H 0.07431 0.24108 0.87384 0.0
C1032 C 0.01793 0.26037 0.91533 0.0
N1033 N 0.02627 0.25908 0.90232 0.0
C1034 C 0.01792 0.27535 0.9243 0.0
C1035 C 0.03505 0.28731 0.90625 0.0
C1036 C 0.03473 0.27212 0.89766 0.0
C1037 C 0.02658 0.28909 0.91979 0.0
H1038 H 0.01136 0.24975 0.91877 0.0
H1039 H 0.04117 0.2707 0.8872 0.0
C1040 C 0.03187 0.18855 0.86058 0.0
N1041 N 0.04173 0.1587 0.84962 0.0
C1042 C 0.02006 0.17594 0.85458 0.0
C1043 C 0.04872 0.18604 0.86084 0.0
C1044 C 0.02528 0.16092 0.84915 0.0
C1045 C 0.05345 0.17085 0.85528 0.0
C1046 C 0.99481 0.21206 0.89497 0.0
C1047 C 0.99223 0.19632 0.88737 0.0
C1048 C 0.98363 0.21749 0.90568 0.0
C1049 C 0.97849 0.18625 0.89061 0.0
C1050 C 0.97002 0.20704 0.90859 0.0
N1051 N 0.96775 0.19177 0.90106 0.0
C1052 C 0.02631 0.19898 0.91617 0.0
C1053 C 0.03397 0.17866 0.89741 0.0
C1054 C 0.02794 0.189 0.92732 0.0
N1055 N 0.02961 0.19384 0.90158 0.0
C1056 C 0.03555 0.16817 0.90819 0.0
C1057 C 0.03272 0.17334 0.92345 0.0
H1058 H 0.02276 0.21106 0.91921 0.0
H1059 H 0.03636 0.17461 0.88582 0.0
C1060 C 0.99283 0.20999 0.84248 0.0
N1061 N 0.99185 0.21691 0.85704 0.0
C1062 C 0.97916 0.20896 0.83231 0.0
C1063 C 0.96358 0.2217 0.85245 0.0
C1064 C 0.97761 0.22267 0.86218 0.0
C1065 C 0.96433 0.21495 0.83725 0.0
H1066 H 0.00439 0.20567 0.83868 0.0
H1067 H 0.97728 0.22842 0.87373 0.0
O1068 O 0.04689 0.22774 0.89115 0.0
O1069 O 0.02622 0.24019 0.8679 0.0
O1070 O 0.02694 0.20338 0.86573 0.0
O1071 O 0.00818 0.22219 0.89202 0.0
H1072 H 0.04504 0.23991 0.91988 0.0
H1073 H 0.06946 0.20667 0.88917 0.0
H1074 H 0.06129 0.23191 0.94122 0.0
H1075 H 0.08517 0.19913 0.91104 0.0
H1076 H 0.98494 0.27032 0.8564 0.0
H1077 H 0.02846 0.23586 0.83818 0.0
H1078 H 1.00255 0.25922 0.87503 0.0
H1079 H 0.01038 0.24734 0.82019 0.0
H1080 H 0.09879 0.24493 0.85847 0.0
H1081 H 0.07242 0.21352 0.82131 0.0
H1082 H 0.01137 0.27613 0.93472 0.0
H1083 H 0.04165 0.29758 0.9022 0.0
H1084 H 0.00698 0.17774 0.85408 0.0
H1085 H 0.05804 0.19566 0.86532 0.0
H1086 H 0.01627 0.15104 0.84453 0.0
H1087 H 0.06643 0.16872 0.85547 0.0
H1088 H 1.00075 0.19191 0.87911 0.0
H1089 H 0.98544 0.22965 0.91164 0.0
H1090 H 0.97636 0.17403 0.88481 0.0
H1091 H 0.96126 0.21109 0.91684 0.0
H1092 H 0.02587 0.19372 0.93892 0.0
H1093 H 0.03896 0.15614 0.90456 0.0
H1094 H 0.9802 0.20359 0.8207 0.0
H1095 H 0.95244 0.22664 0.85665 0.0
Li1096 Li 0.54156 0.72739 0.36903 0.0
Li1097 Li 0.52599 0.74294 0.38845 0.0
Li1098 Li 0.52767 0.71371 0.38835 0.0
Li1099 Li 0.51077 0.72305 0.36901 0.0
C1100 C 0.56031 0.72578 0.39613 0.0
N1101 N 0.58882 0.71391 0.40609 0.0
C1102 C 0.56838 0.7327 0.40983 0.0
C1103 C 0.56673 0.71282 0.38749 0.0
C1104 C 0.58279 0.72653 0.41468 0.0
C1105 C 0.58116 0.707 0.39272 0.0
C1106 C 0.52264 0.75634 0.36022 0.0
C1107 C 0.50452 0.77505 0.35199 0.0
N1108 N 0.51795 0.78413 0.34783 0.0
C1109 C 0.53624 0.76574 0.35567 0.0
C1110 C 0.50663 0.76093 0.35821 0.0
C1111 C 0.53362 0.7798 0.34952 0.0
C1112 C 0.56046 0.71973 0.34329 0.0
N1113 N 0.56024 0.72929 0.3568 0.0
C1114 C 0.58692 0.74249 0.35306 0.0
C1115 C 0.57308 0.7405 0.36182 0.0
C1116 C 0.58756 0.7328 0.33902 0.0
C1117 C 0.57409 0.72126 0.33418 0.0
H1118 H 0.55 0.71097 0.33957 0.0
H1119 H 0.57253 0.74794 0.37262 0.0
C1120 C 0.51801 0.76491 0.41375 0.0
N1121 N 0.52634 0.76343 0.40072 0.0
C1122 C 0.5181 0.77995 0.42263 0.0
C1123 C 0.53584 0.79152 0.40482 0.0
C1124 C 0.5354 0.77628 0.39631 0.0
C1125 C 0.52703 0.79355 0.41815 0.0
H1126 H 0.51129 0.75442 0.41727 0.0
H1127 H 0.54237 0.77469 0.3862 0.0
C1128 C 0.51865 0.69143 0.36277 0.0
N1129 N 0.50144 0.66122 0.35609 0.0
C1130 C 0.5046 0.68738 0.37069 0.0
C1131 C 0.52397 0.68012 0.35148 0.0
C1132 C 0.49606 0.67204 0.36714 0.0
C1133 C 0.51509 0.6649 0.34826 0.0
C1134 C 0.49252 0.72973 0.39541 0.0
C1135 C 0.48235 0.71904 0.40265 0.0
C1136 C 0.48673 0.74417 0.3923 0.0
C1137 C 0.46647 0.72293 0.40652 0.0
C1138 C 0.47079 0.74763 0.39636 0.0
N1139 N 0.46106 0.73702 0.40332 0.0
C1140 C 0.52224 0.69956 0.41485 0.0
C1141 C 0.53824 0.68469 0.39719 0.0
C1142 C 0.52368 0.68837 0.42496 0.0
N1143 N 0.52951 0.69756 0.4013 0.0
C1144 C 0.54025 0.67337 0.40708 0.0
C1145 C 0.53293 0.67517 0.42118 0.0
H1146 H 0.51551 0.70998 0.41788 0.0
H1147 H 0.54382 0.68332 0.38631 0.0
C1148 C 0.49362 0.72193 0.34111 0.0
N1149 N 0.49145 0.71909 0.3556 0.0
C1150 C 0.48001 0.72061 0.33084 0.0
C1151 C 0.4622 0.71307 0.35046 0.0
C1152 C 0.47617 0.71431 0.36028 0.0
C1153 C 0.46401 0.71645 0.33559 0.0
H1154 H 0.50593 0.72561 0.33766 0.0
H1155 H 0.47473 0.71162 0.37165 0.0
O1156 O 0.54613 0.73162 0.39132 0.0
O1157 O 0.525 0.74245 0.36613 0.0
O1158 O 0.52727 0.70636 0.36603 0.0
O1159 O 0.50804 0.726 0.39142 0.0
H1160 H 0.56353 0.74273 0.41666 0.0
H1161 H 0.56057 0.70723 0.37691 0.0
H1162 H 0.58917 0.73176 0.42526 0.0
H1163 H 0.58623 0.69695 0.38616 0.0
H1164 H 0.4922 0.77876 0.3504 0.0
H1165 H 0.5487 0.7623 0.35699 0.0
H1166 H 0.49589 0.75361 0.36124 0.0
H1167 H 0.54405 0.78724 0.34606 0.0
H1168 H 0.5971 0.75137 0.35733 0.0
H1169 H 0.57399 0.71366 0.32337 0.0
H1170 H 0.51141 0.78088 0.43297 0.0
H1171 H 0.54283 0.80164 0.40086 0.0
H1172 H 0.50033 0.69592 0.37951 0.0
H1173 H 0.53485 0.68306 0.34527 0.0
H1174 H 0.48517 0.66875 0.37318 0.0
H1175 H 0.51907 0.65602 0.33954 0.0
H1176 H 0.48662 0.70779 0.4051 0.0
H1177 H 0.49453 0.75268 0.38696 0.0
H1178 H 0.45844 0.71474 0.41206 0.0
H1179 H 0.46616 0.75877 0.39402 0.0
H1180 H 0.518 0.69027 0.4358 0.0
H1181 H 0.54739 0.66328 0.40373 0.0
H1182 H 0.4819 0.72335 0.31947 0.0
H1183 H 0.45008 0.70956 0.35445 0.0
Li1184 Li 0.01687 0.77381 0.64146 0.0
Li1185 Li 0.99802 0.761 0.66076 0.0
Li1186 Li 0.02786 0.75726 0.6592 0.0
Li1187 Li 0.00924 0.7445 0.63961 0.0
C1188 C 0.02745 0.78538 0.67603 0.0
N1189 N 0.04836 0.79912 0.70028 0.0
C1190 C 0.02471 0.78121 0.69045 0.0
C1191 C 0.04074 0.79659 0.67394 0.0
C1192 C 0.03545 0.78827 0.70256 0.0
C1193 C 0.05118 0.8034 0.68635 0.0
C1194 C 0.98194 0.75419 0.62855 0.0
C1195 C 0.9559 0.73778 0.62287 0.0
N1196 N 0.95826 0.73764 0.60784 0.0
C1197 C 0.98408 0.75397 0.61306 0.0
C1198 C 0.96774 0.74608 0.63353 0.0
C1199 C 0.97198 0.74549 0.60277 0.0
C1200 C 0.02363 0.78732 0.61522 0.0
N1201 N 0.02077 0.7913 0.6301 0.0
C1202 C 0.02424 0.81943 0.62768 0.0
C1203 C 0.02096 0.80697 0.63645 0.0
C1204 C 0.02721 0.81567 0.61223 0.0
C1205 C 0.02685 0.79935 0.60604 0.0
H1206 H 0.02358 0.77476 0.61054 0.0
H1207 H 0.0186 0.80978 0.64832 0.0
C1208 C 0.97915 0.75639 0.68615 0.0
N1209 N 0.98016 0.76434 0.67387 0.0
C1210 C 0.96621 0.75852 0.696 0.0
C1211 C 0.95584 0.77735 0.68061 0.0
C1212 C 0.96888 0.7747 0.67095 0.0
C1213 C 0.95435 0.76915 0.6933 0.0
H1214 H 0.98845 0.74842 0.68833 0.0
H1215 H 0.97004 0.7809 0.66111 0.0
C1216 C 0.04736 0.75504 0.63492 0.0
N1217 N 0.08074 0.75278 0.6304 0.0
C1218 C 0.05399 0.74025 0.63492 0.0
C1219 C 0.05765 0.76864 0.63239 0.0
C1220 C 0.07092 0.73937 0.6327 0.0
C1221 C 0.07451 0.76725 0.63018 0.0
C1222 C 0.00554 0.72495 0.66099 0.0
C1223 C 0.01787 0.71456 0.6577 0.0
C1224 C 0.98961 0.71863 0.66407 0.0
C1225 C 0.014 0.69795 0.65732 0.0
C1226 C 0.98624 0.70195 0.66361 0.0
N1227 N 0.99839 0.69205 0.66025 0.0
C1228 C 0.06182 0.7639 0.6707 0.0
C1229 C 0.04528 0.7447 0.68227 0.0
C1230 C 0.07562 0.76206 0.67988 0.0
N1231 N 0.04707 0.75507 0.67185 0.0
C1232 C 0.05871 0.74259 0.6918 0.0
C1233 C 0.07423 0.75124 0.69062 0.0
H1234 H 0.0629 0.77248 0.66274 0.0
H1235 H 0.03334 0.73813 0.6833 0.0
C1236 C 0.01482 0.72491 0.61255 0.0
N1237 N 0.0046 0.7259 0.62437 0.0
C1238 C 0.01234 0.71204 0.60083 0.0
C1239 C 0.98876 0.70135 0.61353 0.0
C1240 C 0.99156 0.71457 0.62491 0.0
C1241 C 0.99924 0.69999 0.60129 0.0
H1242 H 0.02487 0.73422 0.61214 0.0
H1243 H 0.98315 0.71586 0.63403 0.0
O1244 O 0.01734 0.77827 0.66398 0.0
O1245 O 0.99383 0.76206 0.63881 0.0
O1246 O 0.03082 0.75614 0.63704 0.0
O1247 O 0.00911 0.74125 0.66142 0.0
H1248 H 0.01453 0.77248 0.69221 0.0
H1249 H 0.0431 0.79981 0.66282 0.0
H1250 H 0.03356 0.78509 0.71377 0.0
H1251 H 0.06158 0.81202 0.6849 0.0
H1252 H 0.94488 0.73138 0.62654 0.0
H1253 H 0.99505 0.76013 0.60905 0.0
H1254 H 0.96597 0.74604 0.64548 0.0
H1255 H 0.97351 0.74512 0.59074 0.0
H1256 H 0.02428 0.83185 0.63288 0.0
H1257 H 0.02934 0.79589 0.59427 0.0
H1258 H 0.96565 0.75215 0.70577 0.0
H1259 H 0.94691 0.78559 0.6781 0.0
H1260 H 0.04615 0.72956 0.63659 0.0
H1261 H 0.05274 0.78019 0.63236 0.0
H1262 H 0.07623 0.72802 0.63275 0.0
H1263 H 0.08264 0.7777 0.62833 0.0
H1264 H 0.0303 0.71927 0.6555 0.0
H1265 H 0.97987 0.72647 0.66651 0.0
H1266 H 0.02341 0.68977 0.65473 0.0
H1267 H 0.97394 0.69688 0.66585 0.0
H1268 H 0.0873 0.76894 0.67842 0.0
H1269 H 0.05687 0.7344 0.70011 0.0
H1270 H 0.0207 0.71143 0.59158 0.0
H1271 H 0.97831 0.69246 0.61415 0.0
Li1272 Li 0.51591 0.2756 0.14033 0.0
Li1273 Li 0.49681 0.264 0.15986 0.0
Li1274 Li 0.52635 0.25929 0.15868 0.0
Li1275 Li 0.5074 0.24684 0.13872 0.0
C1276 C 0.52799 0.28804 0.17383 0.0
N1277 N 0.55166 0.30184 0.19584 0.0
C1278 C 0.52539 0.2868 0.18904 0.0
C1279 C 0.54256 0.29636 0.16979 0.0
C1280 C 0.53753 0.29384 0.2 0.0
C1281 C 0.5544 0.30324 0.1811 0.0
C1282 C 0.48147 0.25748 0.12656 0.0
C1283 C 0.45638 0.24031 0.11849 0.0
N1284 N 0.45948 0.24187 0.10385 0.0
C1285 C 0.48433 0.25905 0.11146 0.0
C1286 C 0.46732 0.24816 0.13014 0.0
C1287 C 0.4731 0.25101 0.10013 0.0
C1288 C 0.5258 0.28844 0.11448 0.0
N1289 N 0.5208 0.29271 0.12872 0.0
C1290 C 0.52287 0.32055 0.12517 0.0
C1291 C 0.51934 0.30839 0.13423 0.0
C1292 C 0.52785 0.31647 0.1103 0.0
C1293 C 0.52936 0.30015 0.10504 0.0
H1294 H 0.52694 0.27588 0.11045 0.0
H1295 H 0.51536 0.31143 0.14562 0.0
C1296 C 0.47949 0.26152 0.18635 0.0
N1297 N 0.47914 0.2678 0.17309 0.0
C1298 C 0.46654 0.26335 0.19621 0.0
C1299 C 0.45345 0.27873 0.17894 0.0
C1300 C 0.46655 0.27635 0.16925 0.0
C1301 C 0.45329 0.27201 0.19253 0.0
H1302 H 0.48976 0.25492 0.18917 0.0
H1303 H 0.46662 0.28123 0.15864 0.0
C1304 C 0.54183 0.24776 0.1325 0.0
N1305 N 0.56614 0.2277 0.12408 0.0
C1306 C 0.54108 0.23229 0.13671 0.0
C1307 C 0.55491 0.25303 0.12397 0.0
C1308 C 0.55349 0.22233 0.13235 0.0
C1309 C 0.56709 0.24271 0.11983 0.0
C1310 C 0.50058 0.22929 0.16394 0.0
C1311 C 0.51105 0.21775 0.16724 0.0
C1312 C 0.48339 0.22606 0.16479 0.0
C1313 C 0.50413 0.20305 0.17105 0.0
C1314 C 0.47696 0.21123 0.16865 0.0
N1315 N 0.48737 0.20011 0.17166 0.0
C1316 C 0.54242 0.25049 0.18444 0.0
C1317 C 0.56085 0.26044 0.167 0.0
C1318 C 0.55576 0.24775 0.19377 0.0
N1319 N 0.54518 0.25656 0.17127 0.0
C1320 C 0.57456 0.25774 0.1759 0.0
C1321 C 0.57209 0.25118 0.18943 0.0
H1322 H 0.52981 0.24766 0.18762 0.0
H1323 H 0.56273 0.26556 0.15663 0.0
C1324 C 0.50923 0.22966 0.10979 0.0
N1325 N 0.50245 0.22832 0.12337 0.0
C1326 C 0.50671 0.21698 0.09788 0.0
C1327 C 0.49012 0.20171 0.11402 0.0
C1328 C 0.49288 0.21474 0.12559 0.0
C1329 C 0.49713 0.20271 0.09995 0.0
H1330 H 0.51662 0.24065 0.10819 0.0
H1331 H 0.48727 0.21393 0.13624 0.0
O1332 O 0.51654 0.28075 0.16289 0.0
O1333 O 0.4926 0.26481 0.13777 0.0
O1334 O 0.52988 0.25778 0.13671 0.0
O1335 O 0.50717 0.2439 0.1605 0.0
H1336 H 0.5142 0.2803 0.19231 0.0
H1337 H 0.54478 0.2973 0.15804 0.0
H1338 H 0.53575 0.2929 0.21182 0.0
H1339 H 0.56578 0.30964 0.17815 0.0
H1340 H 0.44543 0.23298 0.12109 0.0
H1341 H 0.49523 0.26622 0.1085 0.0
H1342 H 0.46485 0.24695 0.14178 0.0
H1343 H 0.47524 0.25199 0.08838 0.0
H1344 H 0.52145 0.33296 0.12965 0.0
H1345 H 0.53342 0.29647 0.09377 0.0
H1346 H 0.46694 0.25815 0.20667 0.0
H1347 H 0.44342 0.28544 0.17571 0.0
H1348 H 0.53098 0.228 0.14318 0.0
H1349 H 0.55566 0.26499 0.12063 0.0
H1350 H 0.55305 0.21031 0.13553 0.0
H1351 H 0.57731 0.24664 0.11326 0.0
H1352 H 0.5244 0.22013 0.16698 0.0
H1353 H 0.47508 0.23483 0.16234 0.0
H1354 H 0.51209 0.19399 0.17358 0.0
H1355 H 0.46368 0.20855 0.16925 0.0
H1356 H 0.55332 0.24261 0.20407 0.0
H1357 H 0.58695 0.26079 0.17227 0.0
H1358 H 0.51243 0.21826 0.08725 0.0
H1359 H 0.48241 0.19103 0.11601 0.0
C1360 C 0.25772 0.74854 0.83864 0.0
C1361 C 0.25443 0.7317 0.83738 0.0
C1362 C 0.25555 0.75829 0.85223 0.0
C1363 C 0.25125 0.75692 0.89344 0.0
H1364 H 0.23746 0.79975 0.89226 0.0
C1365 C 0.25575 0.80492 0.94656 0.0
C1366 C 0.24407 0.81635 0.94799 0.0
C1367 C 0.25593 0.79395 0.93333 0.0
C1368 C 0.24107 0.78776 0.89288 0.0
H1369 H 0.24614 0.71183 0.84931 0.0
H1370 H 0.24178 0.72888 0.873 0.0
H1371 H 0.23904 0.78179 0.86885 0.0
H1372 H 0.22308 0.82497 0.93698 0.0
H1373 H 0.22292 0.80548 0.9141 0.0
H1374 H 0.25263 0.76269 0.91754 0.0
C1375 C 0.24644 0.73458 0.86359 0.0
C1376 C 0.24227 0.7775 0.87937 0.0
C1377 C 0.24884 0.72479 0.85001 0.0
C1378 C 0.23233 0.81638 0.93608 0.0
C1379 C 0.23232 0.80525 0.92295 0.0
C1380 C 0.24983 0.76711 0.90699 0.0
C1381 C 0.24981 0.75148 0.86491 0.0
C1382 C 0.24761 0.76202 0.87942 0.0
C1383 C 0.24427 0.79401 0.92128 0.0
C1384 C 0.24492 0.78276 0.9069 0.0
H1385 H 0.26234 0.75417 0.82917 0.0
H1386 H 0.2587 0.77118 0.85285 0.0
H1387 H 0.25555 0.74517 0.894 0.0
H1388 H 0.26508 0.80477 0.9555 0.0
H1389 H 0.26552 0.78574 0.93243 0.0
C1390 C 0.99975 0.55195 0.40769 0.0
C1391 C 0.98275 0.54783 0.40406 0.0
C1392 C 0.01165 0.54712 0.39738 0.0
C1393 C 0.01507 0.53396 0.35626 0.0
H1394 H 0.05869 0.52315 0.36829 0.0
C1395 C 0.06024 0.50882 0.31261 0.0
C1396 C 0.07676 0.5159 0.31415 0.0
C1397 C 0.04921 0.51197 0.32413 0.0
C1398 C 0.04658 0.52624 0.36479 0.0
H1399 H 0.96487 0.5346 0.38731 0.0
H1400 H 0.98549 0.52573 0.36959 0.0
H1401 H 0.0386 0.52959 0.38756 0.0
H1402 H 0.09459 0.53173 0.32926 0.0
H1403 H 0.07535 0.53698 0.34944 0.0
H1404 H 0.02297 0.53048 0.33352 0.0
C1405 C 0.98974 0.53318 0.38009 0.0
C1406 C 0.03507 0.52996 0.37582 0.0
C1407 C 0.9779 0.53816 0.39028 0.0
C1408 C 0.08205 0.52589 0.32772 0.0
C1409 C 0.07102 0.52894 0.3393 0.0
C1410 C 0.02649 0.53011 0.34527 0.0
C1411 C 0.00675 0.53792 0.3833 0.0
C1412 C 0.01914 0.53384 0.37169 0.0
C1413 C 0.05441 0.52218 0.33754 0.0
C1414 C 0.04236 0.52618 0.34938 0.0
H1415 H 0.00381 0.55947 0.41821 0.0
H1416 H 0.02461 0.5511 0.40022 0.0
H1417 H 0.00312 0.53729 0.35263 0.0
H1418 H 0.0558 0.50078 0.3025 0.0
H1419 H 0.03656 0.50637 0.32254 0.0
C1420 C 0.81594 0.77996 0.85397 0.0
C1421 C 0.81602 0.77442 0.83839 0.0
C1422 C 0.81387 0.7691 0.86448 0.0
C1423 C 0.81857 0.72728 0.87036 0.0
H1424 H 0.78852 0.73618 0.90277 0.0
C1425 C 0.81734 0.69468 0.92362 0.0
C1426 C 0.80169 0.68993 0.92892 0.0
C1427 C 0.8187 0.70418 0.91191 0.0
C1428 C 0.79686 0.73346 0.89373 0.0
H1429 H 0.81415 0.75294 0.82173 0.0
H1430 H 0.81084 0.73394 0.84018 0.0
H1431 H 0.79155 0.7542 0.88353 0.0
H1432 H 0.77516 0.69123 0.92565 0.0
H1433 H 0.77762 0.70806 0.90545 0.0
H1434 H 0.82395 0.70658 0.88066 0.0
C1435 C 0.81237 0.74676 0.84419 0.0
C1436 C 0.79871 0.74386 0.88279 0.0
C1437 C 0.8143 0.75765 0.83363 0.0
C1438 C 0.78744 0.69488 0.9221 0.0
C1439 C 0.78883 0.70449 0.91047 0.0
C1440 C 0.81684 0.71695 0.8814 0.0
C1441 C 0.81199 0.75238 0.85972 0.0
C1442 C 0.80965 0.74095 0.87102 0.0
C1443 C 0.80448 0.7093 0.90527 0.0
C1444 C 0.80601 0.71996 0.89325 0.0
H1445 H 0.81768 0.79274 0.85813 0.0
H1446 H 0.81397 0.77381 0.87638 0.0
H1447 H 0.82716 0.72477 0.86148 0.0
H1448 H 0.82861 0.69137 0.92874 0.0
H1449 H 0.83096 0.70788 0.9083 0.0
C1450 C 0.04431 0.98607 0.45099 0.0
C1451 C 0.05074 0.97097 0.44983 0.0
C1452 C 0.03408 0.98993 0.43933 0.0
C1453 C 0.00742 0.97173 0.40582 0.0
H1454 H 0.01538 0.0141 0.39323 0.0
C1455 C 0.96516 0.99324 0.36071 0.0
C1456 C 0.97311 1.00138 0.34974 0.0
C1457 C 0.97413 0.98994 0.37339 0.0
C1458 C 0.01305 1.0022 0.39656 0.0
H1459 H 0.05143 0.9481 0.43544 0.0
H1460 H 0.03353 0.95478 0.41521 0.0
H1461 H 0.0318 0.00731 0.41447 0.0
H1462 H 0.99667 0.0127 0.34369 0.0
H1463 H 0.01236 0.00677 0.36574 0.0
H1464 H 0.98893 0.96648 0.38772 0.0
C1465 C 0.03621 0.96357 0.42522 0.0
C1466 C 0.02233 0.99837 0.40885 0.0
C1467 C 0.04646 0.95972 0.43685 0.0
C1468 C 0.9902 0.00629 0.35185 0.0
C1469 C 0.99916 1.00304 0.36457 0.0
C1470 C 0.9981 0.97558 0.39358 0.0
C1471 C 0.03002 0.97876 0.42626 0.0
C1472 C 0.0197 0.98305 0.41357 0.0
C1473 C 0.99125 0.99473 0.37545 0.0
C1474 C 1.00087 0.99083 0.38874 0.0
H1475 H 0.04719 0.99493 0.46092 0.0
H1476 H 0.02932 1.00165 0.44058 0.0
H1477 H 0.00497 0.95988 0.40925 0.0
H1478 H 0.95205 0.98913 0.35935 0.0
H1479 H 0.96762 0.98367 0.38163 0.0
C1480 C 0.2742 0.24898 0.68792 0.0
C1481 C 0.26929 0.26467 0.69106 0.0
C1482 C 0.27482 0.24156 0.67303 0.0
C1483 C 0.27809 0.25001 0.63375 0.0
H1484 H 0.26268 0.20457 0.62421 0.0
C1485 C 0.29274 0.21057 0.57825 0.0
C1486 C 0.28032 0.19868 0.57164 0.0
C1487 C 0.29052 0.21961 0.59226 0.0
C1488 C 0.26688 0.21731 0.62662 0.0
H1489 H 0.26118 0.28487 0.68092 0.0
H1490 H 0.26231 0.27187 0.65481 0.0
H1491 H 0.26011 0.21837 0.64965 0.0
H1492 H 0.25548 0.18757 0.57418 0.0
H1493 H 0.2516 0.20332 0.59855 0.0
H1494 H 0.28477 0.24891 0.61062 0.0
C1495 C 0.26579 0.26538 0.66395 0.0
C1496 C 0.26558 0.22517 0.64126 0.0
C1497 C 0.26513 0.27282 0.67889 0.0
C1498 C 0.26543 0.1964 0.57911 0.0
C1499 C 0.26321 0.20543 0.59308 0.0
C1500 C 0.27943 0.24211 0.61907 0.0
C1501 C 0.27059 0.24964 0.66086 0.0
C1502 C 0.2713 0.24158 0.64505 0.0
C1503 C 0.27582 0.21696 0.59995 0.0
C1504 C 0.27391 0.22564 0.61535 0.0
H1505 H 0.27789 0.2425 0.69698 0.0
H1506 H 0.2789 0.22956 0.67105 0.0
H1507 H 0.28271 0.26263 0.63633 0.0
H1508 H 0.3044 0.21252 0.57284 0.0
H1509 H 0.30055 0.22827 0.5973 0.0
C1510 C 0.53986 0.5269 0.60701 0.0
C1511 C 0.54711 0.54234 0.60505 0.0
C1512 C 0.53096 0.52459 0.61986 0.0
C1513 C 0.50647 0.54521 0.64854 0.0
H1514 H 0.51688 0.51237 0.67312 0.0
C1515 C 0.46493 0.5252 0.69569 0.0
C1516 C 0.47311 0.52508 0.70978 0.0
C1517 C 0.47401 0.52739 0.68293 0.0
C1518 C 0.51387 0.52159 0.66635 0.0
H1519 H 0.55089 0.56738 0.61551 0.0
H1520 H 0.53476 0.56339 0.63748 0.0
H1521 H 0.53258 0.51582 0.65053 0.0
H1522 H 0.49716 0.52698 0.7216 0.0
H1523 H 0.5131 0.53045 0.69915 0.0
H1524 H 0.4876 0.55082 0.66421 0.0
C1525 C 0.53601 0.55312 0.62901 0.0
C1526 C 0.52276 0.52349 0.65341 0.0
C1527 C 0.54516 0.55539 0.61632 0.0
C1528 C 0.49056 0.52711 0.71087 0.0
C1529 C 0.49966 0.52898 0.69804 0.0
C1530 C 0.49738 0.5431 0.66131 0.0
C1531 C 0.52886 0.53771 0.63093 0.0
C1532 C 0.51921 0.53539 0.64444 0.0
C1533 C 0.49146 0.5292 0.68397 0.0
C1534 C 0.50106 0.53134 0.67038 0.0
H1535 H 0.54084 0.51658 0.59852 0.0
H1536 H 0.52545 0.5126 0.62103 0.0
H1537 H 0.50345 0.55442 0.64178 0.0
H1538 H 0.45148 0.52374 0.69457 0.0
H1539 H 0.4674 0.52745 0.6722 0.0
C1540 C 0.77966 0.26778 0.68318 0.0
C1541 C 0.78849 0.27779 0.69524 0.0
C1542 C 0.77755 0.27317 0.6691 0.0
C1543 C 0.79422 0.30453 0.64626 0.0
H1544 H 0.75072 0.29697 0.62569 0.0
C1545 C 0.77463 0.3419 0.60031 0.0
C1546 C 0.76576 0.33373 0.58732 0.0
C1547 C 0.77782 0.33388 0.61268 0.0
C1548 C 0.763 0.29902 0.6312 0.0
H1549 H 0.80262 0.30105 0.70175 0.0
H1550 H 0.79865 0.31054 0.6775 0.0
H1551 H 0.75583 0.2848 0.64855 0.0
H1552 H 0.75309 0.31075 0.57724 0.0
H1553 H 0.75869 0.29672 0.5989 0.0
H1554 H 0.80126 0.31905 0.62912 0.0
C1555 C 0.79343 0.29848 0.67878 0.0
C1556 C 0.76595 0.292 0.64428 0.0
C1557 C 0.79552 0.29311 0.69278 0.0
C1558 C 0.76007 0.31735 0.58703 0.0
C1559 C 0.76316 0.30935 0.59948 0.0
C1560 C 0.79125 0.31159 0.63325 0.0
C1561 C 0.78431 0.28866 0.66677 0.0
C1562 C 0.78153 0.29489 0.65212 0.0
C1563 C 0.77214 0.31751 0.61242 0.0
C1564 C 0.77553 0.30912 0.62569 0.0
H1565 H 0.77404 0.25594 0.68472 0.0
H1566 H 0.77061 0.26522 0.66005 0.0
H1567 H 0.80648 0.30674 0.6518 0.0
H1568 H 0.77932 0.35447 0.60083 0.0
H1569 H 0.78461 0.34057 0.62254 0.0
C1570 C 0.51407 0.97174 0.56459 0.0
C1571 C 0.50736 0.98605 0.56194 0.0
C1572 C 0.52183 0.97059 0.57858 0.0
C1573 C 0.52571 0.98927 0.61864 0.0
H1574 H 0.56849 0.97187 0.61848 0.0
C1575 C 0.57059 0.99949 0.67115 0.0
C1576 C 0.58006 0.98694 0.67411 0.0
C1577 C 0.56087 0.99821 0.65775 0.0
C1578 C 0.55644 0.97652 0.61877 0.0
H1579 H 0.50354 0.01033 0.57206 0.0
H1580 H 0.51685 0.00823 0.59644 0.0
H1581 H 0.55273 0.9715 0.59468 0.0
H1582 H 0.58652 0.96307 0.66539 0.0
H1583 H 0.56944 0.96076 0.64201 0.0
H1584 H 0.52943 0.99438 0.64269 0.0
C1585 C 0.51595 0.99784 0.58775 0.0
C1586 C 0.54741 0.97632 0.60511 0.0
C1587 C 0.50827 0.99902 0.57376 0.0
C1588 C 0.57951 0.97302 0.66337 0.0
C1589 C 0.56973 0.97171 0.64997 0.0
C1590 C 0.5347 0.98941 0.6323 0.0
C1591 C 0.52299 0.98368 0.59027 0.0
C1592 C 0.53204 0.98288 0.60488 0.0
C1593 C 0.56033 0.98432 0.64697 0.0
C1594 C 0.55029 0.98324 0.63252 0.0
H1595 H 0.51337 0.96143 0.55583 0.0
H1596 H 0.52694 0.95945 0.58025 0.0
H1597 H 0.51379 0.99418 0.61886 0.0
H1598 H 0.57097 0.0105 0.67905 0.0
H1599 H 0.55408 0.00829 0.65571 0.0
C1600 C 0.83401 0.21074 0.76253 0.0
C1601 C 0.83467 0.21859 0.7496 0.0
C1602 C 0.84841 0.20987 0.77131 0.0
C1603 C 0.89154 0.22909 0.77934 0.0
H1604 H 0.89665 0.19108 0.79877 0.0
C1605 C 0.95195 0.21958 0.81226 0.0
C1606 C 0.94984 0.21458 0.82654 0.0
C1607 C 0.93824 0.21972 0.80235 0.0
C1608 C 0.89534 0.20181 0.79348 0.0
H1609 H 0.85097 0.23153 0.7356 0.0
H1610 H 0.87627 0.22971 0.75072 0.0
H1611 H 0.87233 0.19179 0.78213 0.0
H1612 H 0.93179 0.20554 0.84154 0.0
H1613 H 0.90784 0.20565 0.82416 0.0
H1614 H 0.91474 0.23897 0.79061 0.0
C1615 C 0.86456 0.2245 0.75429 0.0
C1616 C 0.88138 0.20226 0.78397 0.0
C1617 C 0.85009 0.22549 0.74557 0.0
C1618 C 0.93377 0.20953 0.83063 0.0
C1619 C 0.92009 0.20948 0.82065 0.0
C1620 C 0.9056 0.22856 0.78873 0.0
C1621 C 0.8639 0.21673 0.76732 0.0
C1622 C 0.87919 0.21597 0.77689 0.0
C1623 C 0.92217 0.21466 0.80644 0.0
C1624 C 0.90757 0.21498 0.79601 0.0
H1625 H 0.82225 0.20557 0.76608 0.0
H1626 H 0.84731 0.20411 0.78143 0.0
H1627 H 0.89019 0.23996 0.77431 0.0
H1628 H 0.96418 0.22368 0.80887 0.0
H1629 H 0.94023 0.22368 0.79143 0.0
C1630 C 0.50939 0.92836 0.48417 0.0
C1631 C 0.52311 0.93984 0.48389 0.0
C1632 C 0.5104 0.91215 0.47845 0.0
C1633 C 0.53444 0.88679 0.45184 0.0
H1634 H 0.51212 0.85145 0.46956 0.0
C1635 C 0.54172 0.82044 0.42914 0.0
C1636 C 0.52713 0.80978 0.42722 0.0
C1637 C 0.54166 0.83595 0.43706 0.0
C1638 C 0.51832 0.86121 0.46443 0.0
H1639 H 0.5489 0.94319 0.47815 0.0
H1640 H 0.55077 0.91491 0.46838 0.0
H1641 H 0.51144 0.87915 0.48188 0.0
H1642 H 0.50107 0.80706 0.43231 0.0
H1643 H 0.501 0.83412 0.44621 0.0
H1644 H 0.54127 0.8689 0.43439 0.0
C1645 C 0.53908 0.91847 0.47265 0.0
C1646 C 0.51792 0.87708 0.47148 0.0
C1647 C 0.53804 0.93466 0.47829 0.0
C1648 C 0.51257 0.81489 0.43373 0.0
C1649 C 0.51252 0.8304 0.44169 0.0
C1650 C 0.53488 0.87095 0.44485 0.0
C1651 C 0.52519 0.90705 0.47239 0.0
C1652 C 0.52595 0.89008 0.46524 0.0
C1653 C 0.52703 0.84118 0.4433 0.0
C1654 C 0.5268 0.85797 0.45103 0.0
H1655 H 0.49766 0.93201 0.48827 0.0
H1656 H 0.49941 0.90374 0.47829 0.0
H1657 H 0.54046 0.8965 0.44653 0.0
H1658 H 0.55324 0.8168 0.42455 0.0
H1659 H 0.55311 0.84386 0.43833 0.0
C1660 C 0.21535 0.23107 0.76809 0.0
C1661 C 0.22334 0.2465 0.76739 0.0
C1662 C 0.19989 0.22926 0.7745 0.0
C1663 C 0.16381 0.2514 0.78719 0.0
H1664 H 0.15691 0.21691 0.81185 0.0
C1665 C 0.1107 0.2469 0.82898 0.0
C1666 C 0.10222 0.23156 0.82917 0.0
C1667 C 0.12479 0.24875 0.82048 0.0
C1668 C 0.15857 0.22649 0.80486 0.0
H1669 H 0.22128 0.27215 0.77258 0.0
H1670 H 0.19441 0.26907 0.78414 0.0
H1671 H 0.1827 0.22021 0.79884 0.0
H1672 H 0.10182 0.20614 0.82054 0.0
H1673 H 0.1265 0.20936 0.80573 0.0
H1674 H 0.13975 0.25788 0.79366 0.0
C1675 C 0.19992 0.25832 0.77947 0.0
C1676 C 0.17335 0.22837 0.79735 0.0
C1677 C 0.21534 0.26011 0.77289 0.0
C1678 C 0.10804 0.21813 0.82055 0.0
C1679 C 0.12223 0.21995 0.81217 0.0
C1680 C 0.14907 0.2496 0.79484 0.0
C1681 C 0.19209 0.24285 0.78055 0.0
C1682 C 0.17618 0.24083 0.78838 0.0
C1683 C 0.13081 0.23527 0.81211 0.0
C1684 C 0.14629 0.23711 0.80374 0.0
H1685 H 0.22111 0.22036 0.76371 0.0
H1686 H 0.19408 0.21717 0.77476 0.0
H1687 H 0.16543 0.26099 0.78022 0.0
H1688 H 0.10641 0.2575 0.83541 0.0
H1689 H 0.13121 0.26069 0.82073 0.0
C1690 C 0.54702 0.59558 0.52641 0.0
C1691 C 0.5632 0.59915 0.53288 0.0
C1692 C 0.54285 0.60077 0.51263 0.0
C1693 C 0.5598 0.61506 0.4785 0.0
H1694 H 0.52353 0.64231 0.48047 0.0
C1695 C 0.5514 0.65971 0.43568 0.0
C1696 C 0.5354 0.66369 0.43214 0.0
C1697 C 0.55392 0.64971 0.44671 0.0
C1698 C 0.53345 0.63447 0.4795 0.0
H1699 H 0.5879 0.61013 0.5298 0.0
H1700 H 0.58076 0.61879 0.5055 0.0
H1701 H 0.52936 0.62766 0.50147 0.0
H1702 H 0.50937 0.65984 0.43688 0.0
H1703 H 0.51359 0.64188 0.4557 0.0
H1704 H 0.56389 0.62169 0.45653 0.0
C1705 C 0.57128 0.6121 0.51109 0.0
C1706 C 0.53681 0.6261 0.4916 0.0
C1707 C 0.57535 0.6072 0.52498 0.0
C1708 C 0.52188 0.6571 0.43953 0.0
C1709 C 0.52434 0.64688 0.45038 0.0
C1710 C 0.55628 0.62322 0.46627 0.0
C1711 C 0.55489 0.60933 0.50497 0.0
C1712 C 0.5502 0.61657 0.49135 0.0
C1713 C 0.54044 0.64322 0.45431 0.0
C1714 C 0.54327 0.63333 0.46672 0.0
H1715 H 0.53743 0.58951 0.53238 0.0
H1716 H 0.53015 0.59843 0.50812 0.0
H1717 H 0.57012 0.60768 0.47798 0.0
H1718 H 0.56207 0.66478 0.43027 0.0
H1719 H 0.56653 0.64751 0.44957 0.0
C1720 C 0.843 0.77677 0.78406 0.0
C1721 C 0.84182 0.79226 0.79196 0.0
C1722 C 0.85458 0.77431 0.77286 0.0
C1723 C 0.89363 0.79369 0.75941 0.0
H1724 H 0.88397 0.7615 0.72411 0.0
C1725 C 0.93676 0.7875 0.70895 0.0
C1726 C 0.94068 0.7718 0.70381 0.0
C1727 C 0.9243 0.79003 0.71928 0.0
C1728 C 0.88686 0.77047 0.73396 0.0
H1729 H 0.85204 0.81733 0.79406 0.0
H1730 H 0.87147 0.8132 0.77413 0.0
H1731 H 0.8628 0.766 0.74269 0.0
H1732 H 0.93434 0.74641 0.70516 0.0
H1733 H 0.91243 0.75082 0.7231 0.0
H1734 H 0.91759 0.79832 0.75048 0.0
C1735 C 0.86375 0.80283 0.77681 0.0
C1736 C 0.87476 0.77303 0.74466 0.0
C1737 C 0.85233 0.80526 0.78812 0.0
C1738 C 0.93167 0.75865 0.70901 0.0
C1739 C 0.91905 0.76117 0.71918 0.0
C1740 C 0.90563 0.79127 0.74862 0.0
C1741 C 0.86521 0.78729 0.76914 0.0
C1742 C 0.87798 0.78465 0.75757 0.0
C1743 C 0.91534 0.77689 0.72453 0.0
C1744 C 0.90241 0.77961 0.73581 0.0
H1745 H 0.83501 0.76649 0.78656 0.0
H1746 H 0.85541 0.76214 0.76735 0.0
H1747 H 0.89677 0.80249 0.76933 0.0
H1748 H 0.94356 0.79787 0.70523 0.0
H1749 H 0.92162 0.80228 0.72313 0.0
C1750 C 0.07842 0.89392 0.51691 0.0
C1751 C 0.06883 0.90521 0.51142 0.0
C1752 C 0.07421 0.88737 0.53002 0.0
C1753 C 0.03777 0.87819 0.5518 0.0
H1754 H 0.07047 0.86607 0.5798 0.0
C1755 C 0.02382 0.82693 0.58776 0.0
C1756 C 0.03083 0.82858 0.60256 0.0
C1757 C 0.02792 0.83854 0.57831 0.0
C1758 C 0.06114 0.86954 0.57223 0.0
H1759 H 0.04773 0.91903 0.51575 0.0
H1760 H 0.04041 0.90766 0.53879 0.0
H1761 H 0.07934 0.88311 0.56088 0.0
H1762 H 0.04745 0.84393 0.61911 0.0
H1763 H 0.05453 0.86431 0.60259 0.0
H1764 H 0.0196 0.86445 0.56301 0.0
C1765 C 0.05111 0.90377 0.53284 0.0
C1766 C 0.06625 0.87918 0.56128 0.0
C1767 C 0.0554 0.9104 0.51974 0.0
C1768 C 0.04176 0.84235 0.6078 0.0
C1769 C 0.04593 0.85394 0.59829 0.0
C1770 C 0.03267 0.8685 0.56271 0.0
C1771 C 0.06026 0.89191 0.53795 0.0
C1772 C 0.05467 0.88336 0.55074 0.0
C1773 C 0.03917 0.8521 0.58338 0.0
C1774 C 0.04434 0.86379 0.57286 0.0
H1775 H 0.08894 0.8898 0.51082 0.0
H1776 H 0.08146 0.87819 0.53353 0.0
H1777 H 0.02853 0.88105 0.5438 0.0
H1778 H 0.01522 0.81657 0.58343 0.0
H1779 H 0.02261 0.83663 0.56685 0.0
C1780 C 0.19937 0.72072 0.76004 0.0
C1781 C 0.21216 0.73316 0.75981 0.0
C1782 C 0.18328 0.72243 0.75461 0.0
C1783 C 0.15502 0.75223 0.74577 0.0
H1784 H 0.13558 0.71827 0.71485 0.0
C1785 C 0.10068 0.76203 0.7057 0.0
C1786 C 0.08888 0.74897 0.70043 0.0
C1787 C 0.11475 0.75979 0.71439 0.0
C1788 C 0.1406 0.72775 0.72367 0.0
H1789 H 0.21808 0.75737 0.75445 0.0
H1790 H 0.18994 0.76048 0.74523 0.0
H1791 H 0.16155 0.71492 0.72812 0.0
H1792 H 0.08265 0.72327 0.70044 0.0
H1793 H 0.10673 0.71952 0.71611 0.0
H1794 H 0.13411 0.76506 0.74145 0.0
C1795 C 0.19234 0.74938 0.74949 0.0
C1796 C 0.15553 0.72582 0.73125 0.0
C1797 C 0.20844 0.74758 0.75468 0.0
C1798 C 0.09135 0.73367 0.70439 0.0
C1799 C 0.10534 0.73146 0.71323 0.0
C1800 C 0.13998 0.75408 0.73833 0.0
C1801 C 0.17966 0.73671 0.74912 0.0
C1802 C 0.16303 0.73815 0.74219 0.0
C1803 C 0.11732 0.74446 0.71823 0.0
C1804 C 0.1327 0.74199 0.72698 0.0
H1805 H 0.20195 0.70945 0.76386 0.0
H1806 H 0.17371 0.71251 0.75453 0.0
H1807 H 0.16044 0.76185 0.75428 0.0
H1808 H 0.09911 0.77404 0.70312 0.0
H1809 H 0.12376 0.77007 0.71783 0.0
C1810 C 0.97379 0.57768 0.50764 0.0
C1811 C 0.96896 0.58095 0.49316 0.0
C1812 C 0.97852 0.59026 0.51931 0.0
C1813 C 0.99365 0.63322 0.52764 0.0
H1814 H 0.97081 0.63177 0.56502 0.0
C1815 C 0.99661 0.6887 0.57378 0.0
C1816 C 0.99647 0.68615 0.589 0.0
C1817 C 0.99401 0.67567 0.56218 0.0
C1818 C 0.97756 0.63229 0.55479 0.0
H1819 H 0.96584 0.60021 0.47962 0.0
H1820 H 0.97464 0.62207 0.49986 0.0
H1821 H 0.96589 0.60928 0.54466 0.0
H1822 H 0.99383 0.66797 0.60404 0.0
H1823 H 0.98981 0.64517 0.58387 0.0
H1824 H 0.00557 0.65606 0.53777 0.0
C1825 C 0.97468 0.60972 0.50214 0.0
C1826 C 0.97468 0.61939 0.5431 0.0
C1827 C 0.96972 0.59715 0.49051 0.0
C1828 C 0.9938 0.6703 0.59239 0.0
C1829 C 0.99143 0.65724 0.5808 0.0
C1830 C 0.99673 0.64604 0.53941 0.0
C1831 C 0.9788 0.60641 0.51673 0.0
C1832 C 0.98258 0.61978 0.52936 0.0
C1833 C 0.99144 0.65974 0.56551 0.0
C1834 C 0.98861 0.64583 0.55312 0.0
H1835 H 0.9737 0.56537 0.51005 0.0
H1836 H 0.98187 0.58736 0.53041 0.0
H1837 H 1.00003 0.63376 0.51721 0.0
H1838 H 0.99844 0.70082 0.57084 0.0
H1839 H 0.99377 0.67817 0.55059 0.0
C1840 C 0.79244 0.81745 0.24332 0.0
C1841 C 0.78327 0.81319 0.22946 0.0
C1842 C 0.8005 0.83297 0.24722 0.0
C1843 C 0.82001 0.86638 0.2303 0.0
H1844 H 0.81679 0.89165 0.26955 0.0
C1845 C 0.85447 0.9301 0.24462 0.0
C1846 C 0.86122 0.93481 0.25943 0.0
C1847 C 0.84378 0.91596 0.24103 0.0
C1848 C 0.81805 0.88468 0.2586 0.0
H1849 H 0.77489 0.82235 0.20918 0.0
H1850 H 0.78951 0.84922 0.2158 0.0
H1851 H 0.80032 0.86562 0.26339 0.0
H1852 H 0.86151 0.92833 0.28218 0.0
H1853 H 0.84377 0.90332 0.27577 0.0
H1854 H 0.83821 0.8849 0.22563 0.0
C1855 C 0.7904 0.84045 0.22359 0.0
C1856 C 0.80851 0.86982 0.25507 0.0
C1857 C 0.78211 0.82502 0.21978 0.0
C1858 C 0.85686 0.92501 0.27058 0.0
C1859 C 0.84638 0.91074 0.26694 0.0
C1860 C 0.82975 0.8811 0.2339 0.0
C1861 C 0.79979 0.84452 0.23728 0.0
C1862 C 0.80942 0.86053 0.24089 0.0
C1863 C 0.83973 0.90596 0.2521 0.0
C1864 C 0.82895 0.89046 0.24813 0.0
H1865 H 0.79391 0.80865 0.25096 0.0
H1866 H 0.8078 0.83577 0.25778 0.0
H1867 H 0.8211 0.85934 0.21935 0.0
H1868 H 0.85765 0.93718 0.23566 0.0
H1869 H 0.83871 0.91289 0.22954 0.0
C1870 C 0.78024 0.1741 0.31958 0.0
C1871 C 0.78018 0.18437 0.30836 0.0
C1872 C 0.79107 0.16196 0.31902 0.0
C1873 C 0.82938 0.14886 0.30078 0.0
H1874 H 0.81397 0.10746 0.31253 0.0
C1875 C 0.87257 0.09772 0.3004 0.0
C1876 C 0.86558 0.08185 0.29547 0.0
C1877 C 0.86247 0.11036 0.30317 0.0
C1878 C 0.81845 0.11889 0.30907 0.0
H1879 H 0.79189 0.19008 0.28794 0.0
H1880 H 0.81008 0.16858 0.28657 0.0
H1881 H 0.79578 0.12908 0.31464 0.0
H1882 H 0.84228 0.06689 0.29005 0.0
H1883 H 0.8248 0.08893 0.29418 0.0
H1884 H 0.85172 0.13846 0.2945 0.0
C1885 C 0.80201 0.17004 0.29599 0.0
C1886 C 0.80808 0.13142 0.31051 0.0
C1887 C 0.79132 0.18224 0.29664 0.0
C1888 C 0.84818 0.07896 0.29357 0.0
C1889 C 0.83809 0.09162 0.29619 0.0
C1890 C 0.83968 0.1363 0.2992 0.0
C1891 C 0.80205 0.15971 0.30717 0.0
C1892 C 0.81335 0.14655 0.30627 0.0
C1893 C 0.84509 0.10752 0.30096 0.0
C1894 C 0.83433 0.1211 0.30323 0.0
H1895 H 0.77177 0.17529 0.32872 0.0
H1896 H 0.79087 0.1544 0.32794 0.0
H1897 H 0.83403 0.1604 0.29764 0.0
H1898 H 0.88591 0.10049 0.30186 0.0
H1899 H 0.86833 0.12238 0.30705 0.0
C1900 C 0.43187 0.01581 0.96861 0.0
C1901 C 0.43265 0.03154 0.97653 0.0
C1902 C 0.42025 0.00365 0.97218 0.0
C1903 C 0.39352 0.99221 1.00245 0.0
H1904 H 0.36689 0.96587 0.96983 0.0
C1905 C 0.33448 0.95232 0.01352 0.0
C1906 C 0.33074 0.93736 0.00436 0.0
C1907 C 0.34759 0.96317 0.01026 0.0
C1908 C 0.37438 0.97292 0.97909 0.0
H1909 H 0.42158 0.04674 0.99434 0.0
H1910 H 0.40168 0.02547 1.00073 0.0
H1911 H 0.38884 0.98568 0.96399 0.0
H1912 H 0.338 0.92217 0.98451 0.0
H1913 H 0.36119 0.94082 0.97916 0.0
H1914 H 0.37921 0.97944 0.01757 0.0
C1915 C 0.41017 0.02253 0.99186 0.0
C1916 C 0.38695 0.9843 0.97572 0.0
C1917 C 0.42165 0.03471 0.98822 0.0
C1918 C 0.34061 0.93348 0.99194 0.0
C1919 C 0.35379 0.94429 0.98874 0.0
C1920 C 0.38106 0.98074 0.00582 0.0
C1921 C 0.40925 0.00689 0.98382 0.0
C1922 C 0.39654 0.99419 0.98737 0.0
C1923 C 0.35741 0.95932 0.99781 0.0
C1924 C 0.37119 0.97105 0.99419 0.0
H1925 H 0.44027 0.01287 0.95967 0.0
H1926 H 0.41994 0.99166 0.96588 0.0
H1927 H 0.40087 0.99951 0.01167 0.0
H1928 H 0.32732 0.95565 0.0233 0.0
H1929 H 0.34984 0.97469 0.0174 0.0
C1930 C 0.28904 0.37442 0.30616 0.0
C1931 C 0.2835 0.35856 0.30817 0.0
C1932 C 0.27893 0.38361 0.29853 0.0
C1933 C 0.24008 0.38198 0.27445 0.0
H1934 H 0.24038 0.4263 0.29353 0.0
C1935 C 0.18922 0.4241 0.26278 0.0
C1936 C 0.19464 0.44028 0.26166 0.0
C1937 C 0.20044 0.41354 0.26694 0.0
C1938 C 0.24028 0.41402 0.28793 0.0
H1939 H 0.26337 0.33957 0.30325 0.0
H1940 H 0.24542 0.35573 0.29016 0.0
H1941 H 0.25935 0.40887 0.30311 0.0
H1942 H 0.21615 0.45798 0.26389 0.0
H1943 H 0.23569 0.43957 0.27101 0.0
H1944 H 0.22059 0.38721 0.25951 0.0
C1945 C 0.25771 0.36103 0.29425 0.0
C1946 C 0.25121 0.404 0.2934 0.0
C1947 C 0.26796 0.35175 0.30175 0.0
C1948 C 0.21157 0.44556 0.26452 0.0
C1949 C 0.22275 0.43505 0.26875 0.0
C1950 C 0.22902 0.39203 0.26903 0.0
C1951 C 0.26289 0.37725 0.29293 0.0
C1952 C 0.25133 0.38785 0.28672 0.0
C1953 C 0.21729 0.41897 0.27018 0.0
C1954 C 0.22905 0.40818 0.2757 0.0
H1955 H 0.30107 0.37988 0.31087 0.0
H1956 H 0.28355 0.39588 0.29737 0.0
H1957 H 0.2399 0.36967 0.26895 0.0
H1958 H 0.17628 0.41961 0.26051 0.0
H1959 H 0.19583 0.40125 0.26803 0.0
C1960 C 0.11801 0.98251 0.48233 0.0
C1961 C 0.10176 0.98706 0.48341 0.0
C1962 C 0.13169 0.99411 0.48509 0.0
C1963 C 0.14263 0.03792 0.48528 0.0
H1964 H 0.18475 0.02886 0.50259 0.0
C1965 C 0.199 0.08611 0.49718 0.0
C1966 C 0.21445 0.08119 0.49266 0.0
C1967 C 0.18517 0.0748 0.49702 0.0
C1968 C 0.17309 0.03152 0.49765 0.0
H1969 H 0.0871 0.00719 0.48901 0.0
H1970 H 0.11095 0.02741 0.4942 0.0
H1971 H 0.16071 0.00887 0.50144 0.0
H1972 H 0.22755 0.06053 0.48464 0.0
H1973 H 0.20337 0.04077 0.48432 0.0
H1974 H 0.15504 0.0606 0.48155 0.0
C1975 C 0.11316 0.01495 0.49082 0.0
C1976 C 0.1593 0.02006 0.49697 0.0
C1977 C 0.09949 0.00336 0.48794 0.0
C1978 C 0.21578 0.0647 0.48805 0.0
C1979 C 0.20198 0.05338 0.48802 0.0
C1980 C 0.15638 0.04942 0.48607 0.0
C1981 C 0.12944 0.01053 0.48909 0.0
C1982 C 0.14392 0.02305 0.49065 0.0
C1983 C 0.18652 0.0583 0.49247 0.0
C1984 C 0.17179 0.04629 0.49214 0.0
H1985 H 0.12015 0.97007 0.47865 0.0
H1986 H 0.14399 0.99025 0.48344 0.0
H1987 H 0.13111 0.04056 0.48006 0.0
H1988 H 0.19757 0.09874 0.50069 0.0
H1989 H 0.17345 0.07895 0.5006 0.0
C1990 C 0.7632 0.19587 0.73345 0.0
C1991 C 0.77909 0.19401 0.72796 0.0
C1992 C 0.75171 0.18241 0.73362 0.0
C1993 C 0.74079 0.14003 0.71744 0.0
H1994 H 0.72167 0.13602 0.75619 0.0
C1995 C 0.70466 0.0807 0.72942 0.0
C1996 C 0.69107 0.08174 0.73885 0.0
C1997 C 0.71502 0.09451 0.72756 0.0
C1998 C 0.72662 0.13702 0.74519 0.0
H1999 H 0.79515 0.17677 0.71768 0.0
H2000 H 0.77494 0.15323 0.71773 0.0
H2001 H 0.73966 0.1601 0.75312 0.0
H2002 H 0.67796 0.09832 0.75383 0.0
H2003 H 0.69542 0.12235 0.75001 0.0
H2004 H 0.72756 0.1171 0.70939 0.0
C2005 C 0.77142 0.16509 0.72198 0.0
C2006 C 0.73698 0.15083 0.74347 0.0
C2007 C 0.783 0.17852 0.722 0.0
C2008 C 0.68812 0.097 0.7463 0.0
C2009 C 0.69835 0.11082 0.74429 0.0
C2010 C 0.73022 0.12628 0.7191 0.0
C2011 C 0.75581 0.16686 0.72812 0.0
C2012 C 0.74424 0.15245 0.72961 0.0
C2013 C 0.71199 0.10978 0.73494 0.0
C2014 C 0.72305 0.12454 0.73303 0.0
H2015 H 0.75991 0.20765 0.73824 0.0
H2016 H 0.73971 0.18413 0.73831 0.0
H2017 H 0.74614 0.14102 0.7066 0.0
H2018 H 0.70724 0.06924 0.72331 0.0
H2019 H 0.72552 0.09314 0.72044 0.0
C2020 C 0.45494 0.00576 0.51686 0.0
C2021 C 0.46618 0.00935 0.52948 0.0
C2022 C 0.44212 0.01548 0.51492 0.0
C2023 C 0.41607 0.04393 0.53481 0.0
H2024 H 0.41173 0.05996 0.49627 0.0
C2025 C 0.37085 0.09148 0.5252 0.0
C2026 C 0.36291 0.09058 0.51081 0.0
C2027 C 0.38338 0.08159 0.52767 0.0
C2028 C 0.41252 0.0554 0.50702 0.0
H2029 H 0.47243 0.02598 0.55009 0.0
H2030 H 0.44965 0.04257 0.54691 0.0
H2031 H 0.43317 0.04225 0.50032 0.0
H2032 H 0.36218 0.07844 0.48772 0.0
H2033 H 0.38326 0.06067 0.4922 0.0
H2034 H 0.39517 0.05663 0.54143 0.0
C2035 C 0.45091 0.03223 0.53851 0.0
C2036 C 0.4249 0.0453 0.50935 0.0
C2037 C 0.46391 0.02266 0.54035 0.0
C2038 C 0.36779 0.07938 0.49901 0.0
C2039 C 0.38015 0.06933 0.50153 0.0
C2040 C 0.40351 0.05383 0.53242 0.0
C2041 C 0.44004 0.02886 0.52567 0.0
C2042 C 0.42681 0.03949 0.52326 0.0
C2043 C 0.3882 0.07033 0.51588 0.0
C2044 C 0.40157 0.05974 0.51848 0.0
H2045 H 0.45601 0.99542 0.50842 0.0
H2046 H 0.43376 0.01248 0.50502 0.0
H2047 H 0.41721 0.03949 0.54561 0.0
H2048 H 0.3673 0.09974 0.53465 0.0
H2049 H 0.3894 0.08291 0.53883 0.0
C2050 C 0.60378 0.52862 0.56231 0.0
C2051 C 0.58767 0.52358 0.56636 0.0
C2052 C 0.61476 0.51733 0.55728 0.0
C2053 C 0.62324 0.47527 0.55912 0.0
H2054 H 0.65209 0.48213 0.52626 0.0
C2055 C 0.66792 0.42854 0.53642 0.0
C2056 C 0.68395 0.43463 0.53303 0.0
C2057 C 0.65551 0.43892 0.53963 0.0
C2058 C 0.64424 0.4801 0.53555 0.0
H2059 H 0.5704 0.50262 0.56795 0.0
H2060 H 0.58962 0.48289 0.55928 0.0
H2061 H 0.63162 0.50105 0.53332 0.0
H2062 H 0.6993 0.45643 0.53001 0.0
H2063 H 0.67786 0.47451 0.53595 0.0
H2064 H 0.63602 0.45448 0.56154 0.0
C2065 C 0.59379 0.49562 0.56015 0.0
C2066 C 0.63249 0.49095 0.53958 0.0
C2067 C 0.58278 0.50693 0.56512 0.0
C2068 C 0.68718 0.45133 0.53276 0.0
C2069 C 0.67479 0.46169 0.53598 0.0
C2070 C 0.63504 0.46445 0.55512 0.0
C2071 C 0.60995 0.50069 0.55625 0.0
C2072 C 0.62192 0.48874 0.55149 0.0
C2073 C 0.65881 0.45564 0.53952 0.0
C2074 C 0.64578 0.46679 0.54336 0.0
H2075 H 0.60812 0.54133 0.5634 0.0
H2076 H 0.62719 0.52165 0.55461 0.0
H2077 H 0.61546 0.47333 0.56848 0.0
H2078 H 0.66502 0.41578 0.53688 0.0
H2079 H 0.64331 0.4338 0.54214 0.0
C2080 C 0.76611 0.23707 0.34586 0.0
C2081 C 0.75224 0.22899 0.33735 0.0
C2082 C 0.76412 0.24702 0.35938 0.0
C2083 C 0.73228 0.2682 0.38174 0.0
H2084 H 0.76709 0.27264 0.41323 0.0
C2085 C 0.73389 0.3171 0.4341 0.0
C2086 C 0.74138 0.31426 0.44783 0.0
C2087 C 0.73435 0.30609 0.42093 0.0
C2088 C 0.75705 0.27139 0.40473 0.0
H2089 H 0.72543 0.22478 0.33625 0.0
H2090 H 0.72187 0.24151 0.3603 0.0
H2091 H 0.7692 0.25421 0.39032 0.0
H2092 H 0.75494 0.29712 0.45826 0.0
H2093 H 0.75461 0.27755 0.43579 0.0
H2094 H 0.71968 0.28471 0.39656 0.0
C2095 C 0.73431 0.24065 0.35636 0.0
C2096 C 0.75844 0.261 0.39135 0.0
C2097 C 0.73631 0.23096 0.34263 0.0
C2098 C 0.74881 0.29977 0.44806 0.0
C2099 C 0.74894 0.2886 0.43498 0.0
C2100 C 0.73072 0.27836 0.39528 0.0
C2101 C 0.7482 0.24887 0.36494 0.0
C2102 C 0.74622 0.2594 0.37954 0.0
C2103 C 0.74199 0.2917 0.42114 0.0
C2104 C 0.74318 0.28027 0.40693 0.0
H2105 H 0.77852 0.23591 0.34188 0.0
H2106 H 0.77513 0.25342 0.36534 0.0
H2107 H 0.72265 0.26751 0.37292 0.0
H2108 H 0.72773 0.3279 0.43342 0.0
H2109 H 0.72901 0.3091 0.41053 0.0
C2110 C 0.47765 0.04016 0.88836 0.0
C2111 C 0.48268 0.04958 0.90222 0.0
C2112 C 0.48939 0.0349 0.87817 0.0
C2113 C 0.53461 0.03056 0.87408 0.0
H2114 H 0.52295 0.03146 0.83176 0.0
C2115 C 0.58186 0.02626 0.82624 0.0
C2116 C 0.5766 0.01628 0.81266 0.0
C2117 C 0.57078 0.02936 0.83776 0.0
C2118 C 0.52633 0.03098 0.84352 0.0
H2119 H 0.50392 0.06053 0.9165 0.0
H2120 H 0.52454 0.05172 0.89852 0.0
H2121 H 0.50309 0.0386 0.85078 0.0
H2122 H 0.55563 1.00122 0.80094 0.0
H2123 H 0.5363 0.00694 0.82088 0.0
H2124 H 0.55812 0.02336 0.86665 0.0
C2125 C 0.51152 0.04811 0.89561 0.0
C2126 C 0.51491 0.03502 0.85446 0.0
C2127 C 0.49973 0.0532 0.90592 0.0
C2128 C 0.56006 0.00925 0.81106 0.0
C2129 C 0.54897 0.01247 0.82252 0.0
C2130 C 0.54613 0.02668 0.86311 0.0
C2131 C 0.50648 0.03914 0.88146 0.0
C2132 C 0.51882 0.03477 0.8699 0.0
C2133 C 0.55416 0.02268 0.83593 0.0
C2134 C 0.54206 0.02677 0.8477 0.0
H2135 H 0.46458 0.037 0.88533 0.0
H2136 H 0.48501 0.02764 0.86761 0.0
H2137 H 0.53801 0.03006 0.88582 0.0
H2138 H 0.59442 0.03207 0.82782 0.0
H2139 H 0.57509 0.0374 0.84792 0.0
C2140 C 0.29742 0.267 0.34206 0.0
C2141 C 0.31331 0.27124 0.33708 0.0
C2142 C 0.29523 0.25628 0.35271 0.0
C2143 C 0.31654 0.2259 0.37121 0.0
H2144 H 0.28436 0.23431 0.40185 0.0
C2145 C 0.31471 0.19591 0.4259 0.0
C2146 C 0.29904 0.18991 0.43028 0.0
C2147 C 0.31606 0.20517 0.41401 0.0
C2148 C 0.29328 0.23171 0.39328 0.0
H2149 H 0.33939 0.26762 0.33939 0.0
H2150 H 0.3357 0.24924 0.35819 0.0
H2151 H 0.28748 0.25159 0.38208 0.0
H2152 H 0.27248 0.18888 0.42529 0.0
H2153 H 0.27489 0.20539 0.40482 0.0
H2154 H 0.32261 0.20626 0.38277 0.0
C2155 C 0.32481 0.25382 0.35362 0.0
C2156 C 0.29504 0.24158 0.38189 0.0
C2157 C 0.32696 0.2644 0.34285 0.0
C2158 C 0.28475 0.1935 0.42245 0.0
C2159 C 0.28611 0.20292 0.41067 0.0
C2160 C 0.31489 0.21614 0.3827 0.0
C2161 C 0.30893 0.24967 0.35878 0.0
C2162 C 0.30673 0.23885 0.3707 0.0
C2163 C 0.30179 0.20883 0.40631 0.0
C2164 C 0.30327 0.21896 0.39389 0.0
H2165 H 0.28665 0.27197 0.33768 0.0
H2166 H 0.28277 0.25315 0.35614 0.0
H2167 H 0.32544 0.22319 0.36266 0.0
H2168 H 0.32599 0.19372 0.43182 0.0
H2169 H 0.32831 0.20976 0.41105 0.0
C2170 C 0.54057 0.48466 0.95107 0.0
C2171 C 0.54794 0.47004 0.9496 0.0
C2172 C 0.52966 0.48803 0.93969 0.0
C2173 C 0.50405 0.46929 0.90544 0.0
H2174 H 0.51028 0.51235 0.89407 0.0
C2175 C 0.47735 0.48492 0.84901 0.0
C2176 C 0.47048 0.49974 0.84924 0.0
C2177 C 0.48583 0.48128 0.86181 0.0
C2178 C 0.50821 0.50034 0.89722 0.0
H2179 H 0.54935 0.44735 0.93516 0.0
H2180 H 0.53038 0.4532 0.91532 0.0
H2181 H 0.52626 0.50585 0.91564 0.0
H2182 H 0.46729 0.5224 0.86311 0.0
H2183 H 0.48198 0.51597 0.88551 0.0
H2184 H 0.48617 0.46374 0.88682 0.0
C2185 C 0.53282 0.462 0.92535 0.0
C2186 C 0.51736 0.49661 0.90962 0.0
C2187 C 0.54369 0.45862 0.93675 0.0
C2188 C 0.47232 0.51083 0.86259 0.0
C2189 C 0.48087 0.5072 0.87538 0.0
C2190 C 0.49492 0.47302 0.89301 0.0
C2191 C 0.5259 0.47687 0.92655 0.0
C2192 C 0.51548 0.48101 0.91383 0.0
C2193 C 0.48772 0.49237 0.87515 0.0
C2194 C 0.49698 0.48855 0.88869 0.0
H2195 H 0.54343 0.49362 0.96093 0.0
H2196 H 0.52431 0.49946 0.94113 0.0
H2197 H 0.5021 0.45723 0.90849 0.0
H2198 H 0.47599 0.47603 0.83897 0.0
H2199 H 0.49111 0.46982 0.86119 0.0
C2200 C 0.7573 0.75528 0.18195 0.0
C2201 C 0.77083 0.76533 0.18924 0.0
C2202 C 0.75837 0.74767 0.16715 0.0
C2203 C 0.783 0.7488 0.13278 0.0
H2204 H 0.76352 0.70456 0.12286 0.0
C2205 C 0.79655 0.70732 0.07817 0.0
C2206 C 0.78306 0.69734 0.07066 0.0
C2207 C 0.79469 0.71637 0.09225 0.0
C2208 C 0.76887 0.71698 0.1254 0.0
H2209 H 0.79614 0.77522 0.18675 0.0
H2210 H 0.79811 0.7618 0.16101 0.0
H2211 H 0.76097 0.71886 0.14813 0.0
H2212 H 0.75685 0.68961 0.07186 0.0
H2213 H 0.75369 0.70523 0.09645 0.0
H2214 H 0.79115 0.74673 0.11005 0.0
C2215 C 0.78653 0.76005 0.16659 0.0
C2216 C 0.76738 0.7252 0.13988 0.0
C2217 C 0.78541 0.76773 0.18135 0.0
C2218 C 0.76759 0.69689 0.07745 0.0
C2219 C 0.76576 0.70586 0.09154 0.0
C2220 C 0.78457 0.74053 0.1183 0.0
C2221 C 0.77305 0.74985 0.15932 0.0
C2222 C 0.77443 0.74122 0.14378 0.0
C2223 C 0.77932 0.71559 0.09916 0.0
C2224 C 0.77752 0.72452 0.11445 0.0
H2225 H 0.74584 0.75336 0.18769 0.0
H2226 H 0.74764 0.74015 0.16183 0.0
H2227 H 0.78838 0.7612 0.1353 0.0
H2228 H 0.80868 0.70781 0.07338 0.0
H2229 H 0.80541 0.72362 0.09791 0.0
C2230 C 0.03911 0.02408 0.106 0.0
C2231 C 0.0481 0.03912 0.10544 0.0
C2232 C 0.03032 0.02121 0.1188 0.0
C2233 C 0.02762 0.03673 0.15956 0.0
H2234 H 0.98363 0.01363 0.15487 0.0
C2235 C 0.98298 0.03668 0.2087 0.0
C2236 C 0.97389 0.02199 0.21038 0.0
C2237 C 0.99229 0.03811 0.19594 0.0
C2238 C 0.99598 0.01995 0.15638 0.0
H2239 H 0.0552 0.06278 0.11813 0.0
H2240 H 0.03959 0.05797 0.14011 0.0
H2241 H 0.99946 0.01713 0.13252 0.0
H2242 H 0.96729 0.99734 0.19984 0.0
H2243 H 0.98366 0.99981 0.1776 0.0
H2244 H 0.02403 0.03974 0.18338 0.0
C2245 C 0.03942 0.0483 0.13077 0.0
C2246 C 0.00507 0.02193 0.14357 0.0
C2247 C 0.0482 0.05114 0.11803 0.0
C2248 C 0.97429 0.00878 0.19896 0.0
C2249 C 0.98353 0.01024 0.18615 0.0
C2250 C 0.0185 0.0348 0.17234 0.0
C2251 C 0.03037 0.03331 0.13135 0.0
C2252 C 0.02096 0.03048 0.14499 0.0
C2253 C 0.99267 0.02491 0.1845 0.0
C2254 C 1.00252 0.0265 0.1709 0.0
H2255 H 0.03872 0.01458 0.09648 0.0
H2256 H 0.02362 0.00947 0.11892 0.0
H2257 H 0.03994 0.04308 0.16112 0.0
H2258 H 0.98304 0.04705 0.21734 0.0
H2259 H 0.99905 0.04963 0.19495 0.0
C2260 C 0.29381 0.7933 0.19331 0.0
C2261 C 0.28661 0.77781 0.19504 0.0
C2262 C 0.29279 0.79901 0.17936 0.0
C2263 C 0.26731 0.79388 0.14403 0.0
H2264 H 0.30458 0.81925 0.1298 0.0
C2265 C 0.26355 0.81941 0.08707 0.0
C2266 C 0.27096 0.83517 0.08681 0.0
C2267 C 0.26612 0.81137 0.09957 0.0
C2268 C 0.29399 0.81233 0.13368 0.0
H2269 H 0.27295 0.75605 0.18339 0.0
H2270 H 0.27117 0.76605 0.15889 0.0
H2271 H 0.30808 0.80683 0.15272 0.0
H2272 H 0.2868 0.85489 0.09956 0.0
H2273 H 0.29115 0.84099 0.12142 0.0
H2274 H 0.25311 0.79966 0.1252 0.0
C2275 C 0.27753 0.77379 0.16841 0.0
C2276 C 0.29602 0.80517 0.14679 0.0
C2277 C 0.27866 0.76801 0.18239 0.0
C2278 C 0.28109 0.84267 0.09931 0.0
C2279 C 0.28361 0.83467 0.11184 0.0
C2280 C 0.26526 0.80111 0.13094 0.0
C2281 C 0.28449 0.78941 0.16678 0.0
C2282 C 0.28266 0.79601 0.15222 0.0
C2283 C 0.27613 0.81893 0.11216 0.0
C2284 C 0.27853 0.81058 0.12568 0.0
H2285 H 0.30019 0.80107 0.2028 0.0
H2286 H 0.29815 0.81115 0.17854 0.0
H2287 H 0.25671 0.78708 0.14801 0.0
H2288 H 0.25587 0.81319 0.07752 0.0
H2289 H 0.26038 0.79917 0.0993 0.0
C2290 C 0.01169 0.49921 0.07312 0.0
C2291 C 0.00977 0.48571 0.06182 0.0
C2292 C 0.01932 0.49825 0.08719 0.0
C2293 C 0.04898 0.4757 0.10561 0.0
H2294 H 0.03172 0.4962 0.14259 0.0
C2295 C 0.07988 0.47281 0.16448 0.0
C2296 C 0.08095 0.48701 0.17492 0.0
C2297 C 0.07034 0.47158 0.15094 0.0
C2298 C 0.03681 0.49055 0.13237 0.0
H2299 H 0.01406 0.46048 0.05668 0.0
H2300 H 0.0276 0.45888 0.08122 0.0
H2301 H 0.01651 0.49598 0.11855 0.0
H2302 H 0.07308 0.51114 0.17918 0.0
H2303 H 0.05667 0.50909 0.15559 0.0
H2304 H 0.06948 0.47059 0.11934 0.0
C2305 C 0.02327 0.47024 0.07909 0.0
C2306 C 0.02806 0.49039 0.11859 0.0
C2307 C 0.01553 0.47117 0.06503 0.0
C2308 C 0.07228 0.49992 0.17152 0.0
C2309 C 0.06283 0.49873 0.15797 0.0
C2310 C 0.0578 0.47593 0.11939 0.0
C2311 C 0.02532 0.4838 0.0903 0.0
C2312 C 0.03412 0.48311 0.10504 0.0
C2313 C 0.06173 0.48455 0.14749 0.0
C2314 C 0.05192 0.48351 0.13293 0.0
H2315 H 0.00775 0.51071 0.07097 0.0
H2316 H 0.02094 0.50898 0.09549 0.0
H2317 H 0.05408 0.47015 0.09534 0.0
H2318 H 0.08627 0.46258 0.16685 0.0
H2319 H 0.06961 0.4604 0.14324 0.0
C2320 C 0.33776 0.73151 0.2618 0.0
C2321 C 0.33405 0.7206 0.24851 0.0
C2322 C 0.35204 0.73063 0.27075 0.0
C2323 C 0.39366 0.7174 0.27037 0.0
H2324 H 0.38831 0.7158 0.31315 0.0
C2325 C 0.4487 0.7082 0.31044 0.0
C2326 C 0.44922 0.71623 0.3253 0.0
C2327 C 0.43471 0.70814 0.30079 0.0
C2328 C 0.39013 0.7165 0.30129 0.0
H2329 H 0.34249 0.70046 0.23398 0.0
H2330 H 0.36778 0.69916 0.24954 0.0
H2331 H 0.36409 0.71734 0.2967 0.0
H2332 H 0.43576 0.73087 0.34163 0.0
H2333 H 0.41166 0.73132 0.32475 0.0
H2334 H 0.41974 0.71714 0.27495 0.0
C2335 C 0.35954 0.7083 0.25302 0.0
C2336 C 0.37621 0.71728 0.29186 0.0
C2337 C 0.34508 0.709 0.24418 0.0
C2338 C 0.43558 0.72435 0.33029 0.0
C2339 C 0.42172 0.72452 0.3206 0.0
C2340 C 0.40767 0.71688 0.27985 0.0
C2341 C 0.36302 0.71898 0.26649 0.0
C2342 C 0.37784 0.7178 0.27633 0.0
C2343 C 0.42102 0.71635 0.30573 0.0
C2344 C 0.40611 0.71649 0.29547 0.0
H2345 H 0.32939 0.74047 0.26548 0.0
H2346 H 0.3545 0.73907 0.28103 0.0
H2347 H 0.39525 0.7179 0.25844 0.0
H2348 H 0.45903 0.70175 0.30635 0.0
H2349 H 0.43458 0.70149 0.28953 0.0
C2350 C 0.03814 0.43016 0.97951 0.0
C2351 C 0.02325 0.43554 0.985 0.0
C2352 C 0.03908 0.41388 0.97418 0.0
C2353 C 0.01772 0.37263 0.97336 0.0
H2354 H 0.04065 0.36424 0.93606 0.0
C2355 C 0.01221 0.31024 0.93574 0.0
C2356 C 0.0267 0.30523 0.92901 0.0
C2357 C 0.01218 0.32573 0.94377 0.0
C2358 C 0.03439 0.36634 0.94658 0.0
H2359 H 0.99783 0.428 0.98968 0.0
H2360 H 0.99939 0.39953 0.98022 0.0
H2361 H 0.03999 0.39186 0.94813 0.0
H2362 H 0.05271 0.31238 0.92604 0.0
H2363 H 0.05262 0.33938 0.93995 0.0
H2364 H 0.01191 0.34699 0.97158 0.0
C2365 C 0.01042 0.40787 0.9802 0.0
C2366 C 0.03403 0.3822 0.95353 0.0
C2367 C 0.00951 0.42418 0.98562 0.0
C2368 C 0.04124 0.31595 0.93081 0.0
C2369 C 0.0412 0.33143 0.9388 0.0
C2370 C 0.01804 0.35671 0.96636 0.0
C2371 C 0.02512 0.40258 0.97412 0.0
C2372 C 0.02571 0.38557 0.96702 0.0
C2373 C 0.02663 0.33658 0.94522 0.0
C2374 C 0.0264 0.3534 0.95289 0.0
H2375 H 0.04902 0.4386 0.97913 0.0
H2376 H 0.05072 0.41017 0.96992 0.0
H2377 H 0.01135 0.37477 0.98381 0.0
H2378 H 1.00075 0.30235 0.93444 0.0
H2379 H 1.0007 0.32939 0.94844 0.0
C2380 C 0.71405 0.73238 0.26682 0.0
C2381 C 0.72227 0.74763 0.26572 0.0
C2382 C 0.69884 0.731 0.27369 0.0
C2383 C 0.66326 0.75347 0.28647 0.0
H2384 H 0.65759 0.72061 0.31303 0.0
C2385 C 0.60987 0.75007 0.32811 0.0
C2386 C 0.60225 0.73465 0.32959 0.0
C2387 C 0.62398 0.75179 0.31959 0.0
C2388 C 0.65887 0.72971 0.30552 0.0
H2389 H 0.72074 0.77341 0.27061 0.0
H2390 H 0.69415 0.77103 0.28281 0.0
H2391 H 0.68303 0.72349 0.29944 0.0
H2392 H 0.60346 0.70897 0.32319 0.0
H2393 H 0.62796 0.71197 0.30822 0.0
H2394 H 0.6391 0.75978 0.29277 0.0
C2395 C 0.69941 0.76012 0.27819 0.0
C2396 C 0.67347 0.73137 0.2977 0.0
C2397 C 0.71465 0.7615 0.27122 0.0
C2398 C 0.60895 0.72101 0.3222 0.0
C2399 C 0.62309 0.72273 0.31374 0.0
C2400 C 0.64865 0.75184 0.29435 0.0
C2401 C 0.69146 0.74483 0.27973 0.0
C2402 C 0.67584 0.74322 0.28803 0.0
C2403 C 0.63084 0.73814 0.31242 0.0
C2404 C 0.64628 0.73991 0.30393 0.0
H2405 H 0.71945 0.72147 0.26241 0.0
H2406 H 0.69288 0.71904 0.27433 0.0
H2407 H 0.6646 0.76261 0.27899 0.0
H2408 H 0.60491 0.76083 0.33351 0.0
H2409 H 0.62972 0.76382 0.3189 0.0
C2410 C 0.0543 0.09438 0.02825 0.0
C2411 C 0.06696 0.10251 0.03838 0.0
C2412 C 0.05075 0.10005 0.01453 0.0
C2413 C 0.052 0.13791 0.99922 0.0
H2414 H 0.04686 0.11283 0.95932 0.0
C2415 C 0.02513 0.1634 0.94798 0.0
C2416 C 0.03515 0.16275 0.93535 0.0
C2417 C 0.02827 0.15453 0.95976 0.0
C2418 C 0.04823 0.11994 0.97042 0.0
H2419 H 0.0867 0.12213 0.04139 0.0
H2420 H 0.08018 0.1322 0.01776 0.0
H2421 H 0.05452 0.0998 0.9813 0.0
H2422 H 0.0561 0.15172 0.92514 0.0
H2423 H 0.06121 0.13589 0.94555 0.0
H2424 H 0.04561 0.15799 0.98853 0.0
C2425 C 0.0729 0.12158 0.02051 0.0
C2426 C 0.05253 0.11248 0.98295 0.0
C2427 C 0.07658 0.11583 0.03407 0.0
C2428 C 0.04796 0.15241 0.93455 0.0
C2429 C 0.05095 0.14335 0.94626 0.0
C2430 C 0.04742 0.14526 0.9868 0.0
C2431 C 0.0597 0.11401 0.0108 0.0
C2432 C 0.05464 0.12148 0.99744 0.0
C2433 C 0.04135 0.14459 0.95911 0.0
C2434 C 0.0456 0.1364 0.97226 0.0
H2435 H 0.04659 0.08415 0.03123 0.0
H2436 H 0.04048 0.09402 0.00722 0.0
H2437 H 0.0534 0.14509 0.01029 0.0
H2438 H 0.01489 0.17087 0.94886 0.0
H2439 H 0.02054 0.15554 0.96946 0.0
C2440 C 0.33703 0.29288 0.2775 0.0
C2441 C 0.34104 0.29009 0.29228 0.0
C2442 C 0.34845 0.29062 0.26613 0.0
C2443 C 0.38756 0.27135 0.25739 0.0
H2444 H 0.38986 0.29903 0.22597 0.0
C2445 C 0.43156 0.26039 0.2084 0.0
C2446 C 0.43937 0.27389 0.20284 0.0
C2447 C 0.4188 0.26213 0.21851 0.0
C2448 C 0.38954 0.29129 0.23474 0.0
H2449 H 0.36029 0.28326 0.30689 0.0
H2450 H 0.3804 0.27987 0.28732 0.0
H2451 H 0.36965 0.30288 0.24538 0.0
H2452 H 0.43997 0.29978 0.20342 0.0
H2453 H 0.41815 0.303 0.22153 0.0
H2454 H 0.408 0.26034 0.24731 0.0
C2455 C 0.36826 0.28321 0.28424 0.0
C2456 C 0.37772 0.29333 0.24578 0.0
C2457 C 0.35676 0.28522 0.29552 0.0
C2458 C 0.43406 0.28916 0.20746 0.0
C2459 C 0.42147 0.29096 0.21779 0.0
C2460 C 0.39952 0.26947 0.24651 0.0
C2461 C 0.36426 0.28577 0.26934 0.0
C2462 C 0.37659 0.28342 0.25731 0.0
C2463 C 0.41371 0.27747 0.22354 0.0
C2464 C 0.40071 0.2794 0.23501 0.0
H2465 H 0.32495 0.29658 0.2747 0.0
H2466 H 0.34478 0.29249 0.25478 0.0
H2467 H 0.38694 0.26326 0.26588 0.0
H2468 H 0.43527 0.24844 0.20484 0.0
H2469 H 0.4129 0.25139 0.22232 0.0
C2470 C 0.581 0.39664 0.01651 0.0
C2471 C 0.57067 0.40643 0.00966 0.0
C2472 C 0.5761 0.38976 0.02927 0.0
C2473 C 0.53832 0.37652 0.04767 0.0
H2474 H 0.56965 0.36945 0.07933 0.0
C2475 C 0.5261 0.32608 0.0849 0.0
C2476 C 0.53142 0.32903 0.10024 0.0
C2477 C 0.53004 0.3375 0.07521 0.0
C2478 C 0.56067 0.37148 0.0707 0.0
H2479 H 0.54734 0.4172 0.01123 0.0
H2480 H 0.53878 0.40528 0.03366 0.0
H2481 H 0.57852 0.38668 0.06056 0.0
H2482 H 0.54488 0.34648 0.11747 0.0
H2483 H 0.55166 0.36653 0.10056 0.0
H2484 H 0.52052 0.36121 0.05772 0.0
C2485 C 0.55064 0.4028 0.02903 0.0
C2486 C 0.56581 0.38124 0.05985 0.0
C2487 C 0.5556 0.40976 0.01628 0.0
C2488 C 0.54051 0.34386 0.10574 0.0
C2489 C 0.54452 0.35528 0.09601 0.0
C2490 C 0.53321 0.36673 0.05849 0.0
C2491 C 0.56069 0.39247 0.03551 0.0
C2492 C 0.55478 0.38364 0.04803 0.0
C2493 C 0.53943 0.35219 0.0806 0.0
C2494 C 0.5444 0.36384 0.06998 0.0
H2495 H 0.59277 0.39398 0.01178 0.0
H2496 H 0.5841 0.38178 0.03386 0.0
H2497 H 0.52953 0.37799 0.03867 0.0
H2498 H 0.5189 0.31488 0.08033 0.0
H2499 H 0.52606 0.33462 0.06339 0.0
C2500 C 0.6957 0.23187 0.26725 0.0
C2501 C 0.70716 0.22463 0.25766 0.0
C2502 C 0.67954 0.23332 0.26177 0.0
C2503 C 0.6492 0.21812 0.22956 0.0
H2504 H 0.63197 0.25972 0.23899 0.0
C2505 C 0.59947 0.23977 0.19172 0.0
C2506 C 0.58648 0.24751 0.1987 0.0
C2507 C 0.61293 0.23605 0.20036 0.0
C2508 C 0.6365 0.24797 0.23641 0.0
H2509 H 0.71037 0.21244 0.23511 0.0
H2510 H 0.68254 0.21523 0.22554 0.0
H2511 H 0.65757 0.2544 0.25187 0.0
H2512 H 0.57748 0.25755 0.22021 0.0
H2513 H 0.60116 0.25114 0.23535 0.0
H2514 H 0.62845 0.21191 0.21371 0.0
C2515 C 0.68585 0.21972 0.23728 0.0
C2516 C 0.65115 0.24488 0.24383 0.0
C2517 C 0.70192 0.2183 0.24272 0.0
C2518 C 0.58727 0.2515 0.21453 0.0
C2519 C 0.60086 0.24793 0.22318 0.0
C2520 C 0.63466 0.22124 0.22208 0.0
C2521 C 0.6745 0.22745 0.24664 0.0
C2522 C 0.65788 0.23004 0.24024 0.0
C2523 C 0.61379 0.24009 0.21618 0.0
C2524 C 0.62833 0.23631 0.22519 0.0
H2525 H 0.69939 0.23688 0.2788 0.0
H2526 H 0.67105 0.23919 0.26933 0.0
H2527 H 0.6538 0.20643 0.22676 0.0
H2528 H 0.59914 0.23641 0.17957 0.0
H2529 H 0.62279 0.23018 0.19462 0.0
C2530 C 0.47427 0.08069 0.00562 0.0
C2531 C 0.46828 0.08377 0.99143 0.0
C2532 C 0.47879 0.09338 0.01725 0.0
C2533 C 0.49008 0.13747 0.02515 0.0
H2534 H 0.47335 0.13283 0.0647 0.0
C2535 C 0.49108 0.1916 0.07258 0.0
C2536 C 0.49453 0.18894 0.08752 0.0
C2537 C 0.48869 0.17865 0.06089 0.0
C2538 C 0.47834 0.13427 0.0538 0.0
H2539 H 0.4626 0.10273 0.97834 0.0
H2540 H 0.47071 0.12482 0.99852 0.0
H2541 H 0.46842 0.11045 0.04423 0.0
H2542 H 0.49847 0.17061 0.10185 0.0
H2543 H 0.49448 0.14803 0.08145 0.0
H2544 H 0.50003 0.16128 0.0347 0.0
C2545 C 0.47203 0.11258 1.00062 0.0
C2546 C 0.4755 0.12142 0.04205 0.0
C2547 C 0.46742 0.09989 0.98902 0.0
C2548 C 0.49558 0.17304 0.09049 0.0
C2549 C 0.49328 0.16009 0.07879 0.0
C2550 C 0.493 0.1503 0.03692 0.0
C2551 C 0.47751 0.10946 0.01494 0.0
C2552 C 0.48124 0.1229 0.02757 0.0
C2553 C 0.48977 0.16272 0.06383 0.0
C2554 C 0.48707 0.14891 0.05138 0.0
H2555 H 0.47535 0.06843 0.0078 0.0
H2556 H 0.48323 0.0906 0.02808 0.0
H2557 H 0.49484 0.13892 0.01416 0.0
H2558 H 0.48997 0.20369 0.06995 0.0
H2559 H 0.48571 0.18112 0.04957 0.0
C2560 C 0.28025 0.32508 0.72341 0.0
C2561 C 0.28472 0.31225 0.73078 0.0
C2562 C 0.28843 0.34057 0.72727 0.0
C2563 C 0.31689 0.36549 0.75705 0.0
H2564 H 0.32576 0.39199 0.72529 0.0
C2565 C 0.36651 0.42017 0.76303 0.0
C2566 C 0.36157 0.43449 0.75855 0.0
C2567 C 0.35606 0.40583 0.76013 0.0
C2568 C 0.32322 0.38477 0.73428 0.0
H2569 H 0.3014 0.30545 0.74777 0.0
H2570 H 0.31604 0.33223 0.75417 0.0
H2571 H 0.30961 0.3658 0.71925 0.0
H2572 H 0.34191 0.44508 0.74746 0.0
H2573 H 0.3237 0.41979 0.74206 0.0
H2574 H 0.33117 0.38428 0.77191 0.0
C2575 C 0.30585 0.3306 0.74578 0.0
C2576 C 0.3139 0.36978 0.73086 0.0
C2577 C 0.29752 0.31519 0.74207 0.0
C2578 C 0.34597 0.4342 0.75109 0.0
C2579 C 0.33562 0.41976 0.74793 0.0
C2580 C 0.32643 0.38035 0.7604 0.0
C2581 C 0.30145 0.34353 0.73843 0.0
C2582 C 0.3107 0.35986 0.74218 0.0
C2583 C 0.34056 0.40546 0.75247 0.0
C2584 C 0.32977 0.39008 0.74903 0.0
H2585 H 0.27034 0.32314 0.71472 0.0
H2586 H 0.28447 0.35024 0.72153 0.0
H2587 H 0.31439 0.35843 0.76616 0.0
H2588 H 0.37844 0.42011 0.76889 0.0
H2589 H 0.36021 0.39494 0.76365 0.0
C2590 C 0.29496 0.68554 0.79851 0.0
C2591 C 0.28228 0.68659 0.80891 0.0
C2592 C 0.30544 0.67318 0.79801 0.0
C2593 C 0.30797 0.63225 0.80797 0.0
H2594 H 0.35469 0.64109 0.80061 0.0
C2595 C 0.3498 0.58173 0.78898 0.0
C2596 C 0.36629 0.58339 0.79489 0.0
C2597 C 0.33966 0.59431 0.79191 0.0
C2598 C 0.34172 0.63842 0.80283 0.0
H2599 H 0.27081 0.67551 0.82706 0.0
H2600 H 0.28929 0.65394 0.82631 0.0
H2601 H 0.33708 0.66322 0.80395 0.0
H2602 H 0.38499 0.59963 0.80857 0.0
H2603 H 0.36722 0.62149 0.81387 0.0
H2604 H 0.31266 0.60744 0.80694 0.0
C2605 C 0.29098 0.66263 0.81843 0.0
C2606 C 0.33157 0.65109 0.80457 0.0
C2607 C 0.28049 0.67507 0.81895 0.0
C2608 C 0.37232 0.5979 0.80393 0.0
C2609 C 0.36218 0.61049 0.80684 0.0
C2610 C 0.31812 0.61956 0.8062 0.0
C2611 C 0.30356 0.66153 0.80791 0.0
C2612 C 0.31453 0.64815 0.807 0.0
C2613 C 0.34574 0.60888 0.80082 0.0
C2614 C 0.33509 0.62246 0.80346 0.0
H2615 H 0.29686 0.69436 0.79076 0.0
H2616 H 0.31486 0.67261 0.78966 0.0
H2617 H 0.29489 0.62953 0.80971 0.0
H2618 H 0.34467 0.57065 0.78214 0.0
H2619 H 0.32713 0.5927 0.78695 0.0
C2620 C 0.92917 0.51461 0.47034 0.0
C2621 C 0.93068 0.53036 0.47826 0.0
C2622 C 0.91709 0.5029 0.47398 0.0
C2623 C 0.87739 0.49876 0.49364 0.0
H2624 H 0.88636 0.45396 0.49152 0.0
C2625 C 0.83262 0.45061 0.51597 0.0
C2626 C 0.829 0.43588 0.5064 0.0
C2627 C 0.8453 0.46194 0.51275 0.0
C2628 C 0.88365 0.46641 0.49206 0.0
H2629 H 0.92048 0.54605 0.49625 0.0
H2630 H 0.90004 0.52554 0.50301 0.0
H2631 H 0.90808 0.47405 0.48569 0.0
H2632 H 0.83598 0.42168 0.48584 0.0
H2633 H 0.85833 0.44132 0.48047 0.0
H2634 H 0.85304 0.49111 0.50025 0.0
C2635 C 0.90795 0.52228 0.49376 0.0
C2636 C 0.89607 0.47794 0.48867 0.0
C2637 C 0.91991 0.53401 0.49004 0.0
C2638 C 0.83858 0.43273 0.49363 0.0
C2639 C 0.85137 0.44401 0.49051 0.0
C2640 C 0.86504 0.48727 0.49717 0.0
C2641 C 0.90626 0.5066 0.4857 0.0
C2642 C 0.8931 0.49427 0.48939 0.0
C2643 C 0.85479 0.45878 0.49997 0.0
C2644 C 0.86802 0.47097 0.49639 0.0
H2645 H 0.93733 0.51131 0.46129 0.0
H2646 H 0.91607 0.49103 0.4674 0.0
H2647 H 0.87449 0.51114 0.49402 0.0
H2648 H 0.82575 0.45336 0.52605 0.0
H2649 H 0.8478 0.47314 0.52037 0.0
C2650 C 0.7685 0.85349 0.80122 0.0
C2651 C 0.78411 0.86032 0.80744 0.0
C2652 C 0.75826 0.86265 0.79356 0.0
C2653 C 0.75205 0.90555 0.79194 0.0
H2654 H 0.72089 0.88828 0.75859 0.0
C2655 C 0.71212 0.94669 0.76279 0.0
C2656 C 0.69514 0.94145 0.76024 0.0
C2657 C 0.72334 0.93622 0.76703 0.0
C2658 C 0.72948 0.89324 0.76795 0.0
H2659 H 0.80182 0.88151 0.80962 0.0
H2660 H 0.78434 0.89727 0.79582 0.0
H2661 H 0.74022 0.87084 0.76817 0.0
H2662 H 0.67674 0.92088 0.75963 0.0
H2663 H 0.69636 0.9026 0.76716 0.0
H2664 H 0.74136 0.92788 0.79178 0.0
C2665 C 0.77965 0.8851 0.79726 0.0
C2666 C 0.74054 0.88325 0.77346 0.0
C2667 C 0.78975 0.87604 0.80505 0.0
C2668 C 0.68972 0.92534 0.76166 0.0
C2669 C 0.70098 0.91482 0.76583 0.0
C2670 C 0.74111 0.91551 0.78638 0.0
C2671 C 0.76353 0.87875 0.79188 0.0
C2672 C 0.75199 0.88929 0.78554 0.0
C2673 C 0.71788 0.92022 0.76878 0.0
C2674 C 0.72968 0.9095 0.77434 0.0
H2675 H 0.76385 0.84142 0.80302 0.0
H2676 H 0.74591 0.85736 0.78964 0.0
H2677 H 0.76033 0.91056 0.80151 0.0
H2678 H 0.71671 0.95905 0.76193 0.0
H2679 H 0.73631 0.9407 0.76906 0.0
C2680 C 0.60736 0.49826 0.96613 0.0
C2681 C 0.60213 0.48911 0.97752 0.0
C2682 C 0.621 0.50984 0.96871 0.0
C2683 C 0.65952 0.52115 0.99182 0.0
H2684 H 0.65696 0.56262 0.97769 0.0
C2685 C 0.71745 0.56507 0.9853 0.0
C2686 C 0.7164 0.58158 0.99007 0.0
C2687 C 0.7034 0.55398 0.98486 0.0
C2688 C 0.65784 0.55116 0.98181 0.0
H2689 H 0.6074 0.48495 1.00057 0.0
H2690 H 0.63152 0.5051 0.00499 0.0
H2691 H 0.63246 0.54309 0.97527 0.0
H2692 H 0.69975 0.5994 0.998 0.0
H2693 H 0.67521 0.58003 0.99724 0.0
H2694 H 0.68497 0.52922 0.99827 0.0
C2695 C 0.62492 0.50325 0.99407 0.0
C2696 C 0.64385 0.53992 0.98031 0.0
C2697 C 0.61112 0.49171 0.99152 0.0
C2698 C 0.70098 0.58675 0.99438 0.0
C2699 C 0.68691 0.57567 0.99383 0.0
C2700 C 0.67357 0.53236 0.99321 0.0
C2701 C 0.62994 0.51249 0.98269 0.0
C2702 C 0.64456 0.52474 0.98517 0.0
C2703 C 0.68796 0.55917 0.98907 0.0
C2704 C 0.67291 0.54745 0.98813 0.0
H2705 H 0.60109 0.4963 0.95505 0.0
H2706 H 0.62477 0.51652 0.95961 0.0
H2707 H 0.66048 0.50952 0.99559 0.0
H2708 H 0.72918 0.5607 0.98205 0.0
H2709 H 0.70457 0.54137 0.981 0.0
C2710 C 0.28373 0.67764 0.22214 0.0
C2711 C 0.2793 0.69296 0.22801 0.0
C2712 C 0.27275 0.66383 0.22253 0.0
C2713 C 0.23957 0.64861 0.2449 0.0
H2714 H 0.22908 0.61517 0.21075 0.0
C2715 C 0.19034 0.59531 0.24832 0.0
C2716 C 0.19269 0.58006 0.24048 0.0
C2717 C 0.2008 0.60897 0.24631 0.0
C2718 C 0.23207 0.62425 0.22048 0.0
H2719 H 0.25984 0.70588 0.23871 0.0
H2720 H 0.24073 0.68176 0.23952 0.0
H2721 H 0.24743 0.63916 0.20768 0.0
H2722 H 0.20808 0.5674 0.22431 0.0
H2723 H 0.22681 0.59101 0.22142 0.0
H2724 H 0.22479 0.63367 0.2579 0.0
C2725 C 0.25266 0.68045 0.23454 0.0
C2726 C 0.24251 0.63804 0.21867 0.0
C2727 C 0.26352 0.69425 0.23394 0.0
C2728 C 0.20597 0.57886 0.23071 0.0
C2729 C 0.21658 0.59251 0.22885 0.0
C2730 C 0.22935 0.63476 0.24679 0.0
C2731 C 0.25725 0.66509 0.22905 0.0
C2732 C 0.24625 0.6504 0.23084 0.0
C2733 C 0.21412 0.60778 0.23659 0.0
C2734 C 0.22534 0.62241 0.23458 0.0
H2735 H 0.29582 0.67631 0.2175 0.0
H2736 H 0.27662 0.65213 0.21827 0.0
H2737 H 0.24248 0.65784 0.25455 0.0
H2738 H 0.18045 0.59675 0.25613 0.0
H2739 H 0.19829 0.62051 0.25231 0.0
C2740 C 0.95591 0.50944 0.03807 0.0
C2741 C 0.96981 0.50991 0.02902 0.0
C2742 C 0.94333 0.51954 0.03638 0.0
C2743 C 0.93488 0.55704 0.02096 0.0
H2744 H 0.88875 0.54007 0.02167 0.0
C2745 C 0.88093 0.59092 1.00136 0.0
C2746 C 0.86668 0.59102 0.00997 0.0
C2747 C 0.89351 0.58122 0.00423 0.0
C2748 C 0.90157 0.54505 0.02162 0.0
H2749 H 0.98153 0.52164 0.01133 0.0
H2750 H 0.95948 0.53891 0.00813 0.0
H2751 H 0.91069 0.52284 0.02583 0.0
H2752 H 0.85465 0.58114 0.02854 0.0
H2753 H 0.87656 0.56416 0.03347 0.0
H2754 H 0.92576 0.57919 0.0166 0.0
C2755 C 0.95834 0.53087 0.01665 0.0
C2756 C 0.91416 0.53518 0.02402 0.0
C2757 C 0.97089 0.5208 0.01834 0.0
C2758 C 0.86533 0.58117 0.02153 0.0
C2759 C 0.87789 0.57144 0.02437 0.0
C2760 C 0.92231 0.56689 0.01853 0.0
C2761 C 0.94439 0.53037 0.02563 0.0
C2762 C 0.93097 0.54102 0.02362 0.0
C2763 C 0.89214 0.57136 0.01577 0.0
C2764 C 0.9055 0.56099 0.01873 0.0
H2765 H 0.95465 0.50112 0.04634 0.0
H2766 H 0.93284 0.51896 0.04358 0.0
H2767 H 0.94769 0.56204 0.02086 0.0
H2768 H 0.88227 0.59814 0.99222 0.0
H2769 H 0.9042 0.58125 0.99724 0.0
C2770 C 0.10511 0.02775 0.06386 0.0
C2771 C 0.08839 0.02271 0.06594 0.0
C2772 C 0.1161 0.01656 0.05862 0.0
C2773 C 0.12152 0.97285 0.05543 0.0
H2774 H 0.1573 0.98445 0.02987 0.0
C2775 C 0.16764 0.92774 0.0317 0.0
C2776 C 0.18452 0.93366 0.0332 0.0
C2777 C 0.15526 0.93822 0.03464 0.0
C2778 C 0.14741 0.98106 0.03707 0.0
H2779 H 0.06999 1.00202 0.0637 0.0
H2780 H 0.08908 0.98248 0.05426 0.0
H2781 H 0.13668 0.00334 0.03651 0.0
H2782 H 0.20163 0.95524 0.03858 0.0
H2783 H 0.18007 0.9735 0.04369 0.0
H2784 H 0.1323 0.95052 0.0559 0.0
C2785 C 0.09381 0.99505 0.057 0.0
C2786 C 0.13561 0.99191 0.04092 0.0
C2787 C 0.08284 0.00625 0.06235 0.0
C2788 C 0.18874 0.95029 0.03747 0.0
C2789 C 0.17639 0.96077 0.04025 0.0
C2790 C 0.13326 0.96195 0.05147 0.0
C2791 C 0.11065 1.00003 0.05522 0.0
C2792 C 0.12262 0.98805 0.05032 0.0
C2793 C 0.15951 0.95485 0.03896 0.0
C2794 C 0.14646 0.96602 0.04241 0.0
H2795 H 0.10985 0.04031 0.06678 0.0
H2796 H 0.12901 0.02085 0.05769 0.0
H2797 H 0.11187 0.96953 0.06288 0.0
H2798 H 0.16401 0.91497 0.02851 0.0
H2799 H 0.14236 0.93332 0.03346 0.0
loop_
_geom_bond_atom_site_label_1
_geom_bond_atom_site_label_2
_geom_bond_distance
_geom_bond_site_symmetry_2
_ccdc_geom_bond_type
H0 C1 0.949 . S
C1 H0 0.949 . S
C1 C2 1.395 . S
C1 C3 1.391 . S
C2 C1 1.395 . S
C2 C5 1.390 . S
C3 C1 1.391 . S
C3 C7 1.387 . S
C3 C8 1.491 . S
H4 C5 0.950 . S
C5 C2 1.390 . S
C5 H4 0.950 . S
C5 C6 1.378 . S
C6 C5 1.378 . S
C6 C7 1.409 . S
C7 C3 1.387 . S
C7 C6 1.409 . S
C7 H9 0.951 . S
C8 C3 1.491 . S
C8 C10 1.382 . S
C8 C12 1.404 . S
H9 C7 0.951 . S
C10 C8 1.382 . S
C10 C11 1.390 . S
C10 H15 0.949 . S
C11 C10 1.390 . S
C11 C16 1.399 . S
C12 C8 1.404 . S
C12 H13 0.950 . S
C12 C14 1.375 . S
H13 C12 0.950 . S
C14 C12 1.375 . S
C14 C16 1.382 . S
C14 H18 0.950 . S
H15 C10 0.949 . S
C16 C11 1.399 . S
C16 C14 1.382 . S
C16 H17 0.952 . S
H17 C16 0.952 . S
H18 C14 0.950 . S
H19 C20 0.949 . S
C20 H19 0.949 . S
C20 C21 1.395 . S
C20 C22 1.391 . S
C21 C20 1.395 . S
C21 C24 1.390 . S
C22 C20 1.391 . S
C22 C26 1.387 . S
C22 C27 1.491 . S
H23 C24 0.950 . S
C24 C21 1.390 . S
C24 H23 0.950 . S
C24 C25 1.378 . S
C25 C24 1.378 . S
C25 C26 1.409 . S
C26 C22 1.387 . S
C26 C25 1.409 . S
C26 H28 0.951 . S
C27 C22 1.491 . S
C27 C29 1.382 . S
C27 C31 1.404 . S
H28 C26 0.951 . S
C29 C27 1.382 . S
C29 C30 1.390 . S
C29 H34 0.949 . S
C30 C29 1.390 . S
C30 C35 1.399 . S
C31 C27 1.404 . S
C31 H32 0.950 . S
C31 C33 1.375 . S
H32 C31 0.950 . S
C33 C31 1.375 . S
C33 C35 1.382 . S
C33 H37 0.950 . S
H34 C29 0.949 . S
C35 C30 1.399 . S
C35 C33 1.382 . S
C35 H36 0.952 . S
H36 C35 0.952 . S
H37 C33 0.950 . S
H38 C39 0.949 . S
C39 H38 0.949 . S
C39 C40 1.395 . S
C39 C41 1.391 1_455 S
C40 C39 1.395 . S
C40 C43 1.390 1_455 S
C41 C39 1.391 1_655 S
C41 C45 1.387 . S
C41 C46 1.488 1_654 S
H42 C43 0.950 . S
C43 C40 1.390 1_655 S
C43 H42 0.950 . S
C43 C44 1.378 . S
C44 C43 1.378 . S
C44 C45 1.409 . S
C45 C41 1.387 . S
C45 C44 1.409 . S
C45 H47 0.951 1_554 S
C46 C41 1.488 1_456 S
C46 C48 1.385 . S
C46 C50 1.404 . S
H47 C45 0.951 1_556 S
C48 C46 1.385 . S
C48 C49 1.390 . S
C48 H53 0.949 1_556 S
C49 C48 1.390 . S
C49 C54 1.399 . S
C50 C46 1.404 . S
C50 H51 0.951 1_455 S
C50 C52 1.374 . S
H51 C50 0.951 1_655 S
C52 C50 1.374 . S
C52 C54 1.382 . S
C52 H56 0.950 . S
H53 C48 0.949 1_554 S
C54 C49 1.399 . S
C54 C52 1.382 . S
C54 H55 0.952 . S
H55 C54 0.952 . S
H56 C52 0.950 . S
H57 C58 0.949 . S
C58 H57 0.949 . S
C58 C59 1.395 . S
C58 C60 1.391 . S
C59 C58 1.395 . S
C59 C62 1.390 . S
C60 C58 1.391 . S
C60 C64 1.387 . S
C60 C65 1.491 . S
H61 C62 0.950 . S
C62 C59 1.390 . S
C62 H61 0.950 . S
C62 C63 1.378 . S
C63 C62 1.378 . S
C63 C64 1.409 . S
C64 C60 1.387 . S
C64 C63 1.409 . S
C64 H66 0.951 . S
C65 C60 1.491 . S
C65 C67 1.382 . S
C65 C69 1.404 . S
H66 C64 0.951 . S
C67 C65 1.382 . S
C67 C68 1.390 . S
C67 H72 0.949 . S
C68 C67 1.390 . S
C68 C73 1.399 . S
C69 C65 1.404 . S
C69 H70 0.950 . S
C69 C71 1.375 . S
H70 C69 0.950 . S
C71 C69 1.375 . S
C71 C73 1.382 . S
C71 H75 0.950 . S
H72 C67 0.949 . S
C73 C68 1.399 . S
C73 C71 1.382 . S
C73 H74 0.952 . S
H74 C73 0.952 . S
H75 C71 0.950 . S
H76 C77 0.949 . S
C77 H76 0.949 . S
C77 C78 1.395 . S
C77 C79 1.391 . S
C78 C77 1.395 . S
C78 C81 1.390 . S
C79 C77 1.391 . S
C79 C83 1.387 . S
C79 C84 1.491 . S
H80 C81 0.950 . S
C81 C78 1.390 . S
C81 H80 0.950 . S
C81 C82 1.378 . S
C82 C81 1.378 . S
C82 C83 1.409 . S
C83 C79 1.387 . S
C83 C82 1.409 . S
C83 H85 0.951 . S
C84 C79 1.491 . S
C84 C86 1.382 . S
C84 C88 1.404 . S
H85 C83 0.951 . S
C86 C84 1.382 . S
C86 C87 1.390 . S
C86 H91 0.949 . S
C87 C86 1.390 . S
C87 C92 1.399 . S
C88 C84 1.404 . S
C88 H89 0.950 . S
C88 C90 1.375 . S
H89 C88 0.950 . S
C90 C88 1.375 . S
C90 C92 1.382 . S
C90 H94 0.950 . S
H91 C86 0.949 . S
C92 C87 1.399 . S
C92 C90 1.382 . S
C92 H93 0.952 . S
H93 C92 0.952 . S
H94 C90 0.950 . S
H95 C96 0.949 . S
C96 H95 0.949 . S
C96 C97 1.395 . S
C96 C98 1.391 . S
C97 C96 1.395 . S
C97 C100 1.390 . S
C98 C96 1.391 . S
C98 C102 1.387 . S
C98 C103 1.491 . S
H99 C100 0.950 . S
C100 C97 1.390 . S
C100 H99 0.950 . S
C100 C101 1.378 . S
C101 C100 1.378 . S
C101 C102 1.409 . S
C102 C98 1.387 . S
C102 C101 1.409 . S
C102 H104 0.951 . S
C103 C98 1.491 . S
C103 C105 1.382 . S
C103 C107 1.404 . S
H104 C102 0.951 . S
C105 C103 1.382 . S
C105 C106 1.390 . S
C105 H110 0.949 . S
C106 C105 1.390 . S
C106 C111 1.399 . S
C107 C103 1.404 . S
C107 H108 0.950 . S
C107 C109 1.375 . S
H108 C107 0.950 . S
C109 C107 1.375 . S
C109 C111 1.382 . S
C109 H113 0.950 . S
H110 C105 0.949 . S
C111 C106 1.399 . S
C111 C109 1.382 . S
C111 H112 0.952 . S
H112 C111 0.952 . S
H113 C109 0.950 . S
H114 C115 0.949 . S
C115 H114 0.949 . S
C115 C116 1.395 . S
C115 C117 1.391 . S
C116 C115 1.395 . S
C116 C119 1.390 . S
C117 C115 1.391 . S
C117 C121 1.387 . S
C117 C122 1.491 . S
H118 C119 0.950 . S
C119 C116 1.390 . S
C119 H118 0.950 . S
C119 C120 1.378 . S
C120 C119 1.378 . S
C120 C121 1.409 . S
C121 C117 1.387 . S
C121 C120 1.409 . S
C121 H123 0.951 . S
C122 C117 1.491 . S
C122 C124 1.382 . S
C122 C126 1.404 . S
H123 C121 0.951 . S
C124 C122 1.382 . S
C124 C125 1.390 . S
C124 H129 0.949 1_655 S
C125 C124 1.390 . S
C125 C130 1.399 . S
C126 C122 1.404 . S
C126 H127 0.950 . S
C126 C128 1.375 . S
H127 C126 0.950 . S
C128 C126 1.375 . S
C128 C130 1.382 . S
C128 H132 0.950 . S
H129 C124 0.949 1_455 S
C130 C125 1.399 . S
C130 C128 1.382 . S
C130 H131 0.952 . S
H131 C130 0.952 . S
H132 C128 0.950 . S
H133 C134 0.949 . S
C134 H133 0.949 . S
C134 C135 1.395 . S
C134 C136 1.391 . S
C135 C134 1.395 . S
C135 C138 1.390 . S
C136 C134 1.391 . S
C136 C140 1.387 . S
C136 C141 1.491 . S
H137 C138 0.950 . S
C138 C135 1.390 . S
C138 H137 0.950 . S
C138 C139 1.378 . S
C139 C138 1.378 . S
C139 C140 1.409 . S
C140 C136 1.387 . S
C140 C139 1.409 . S
C140 H142 0.951 . S
C141 C136 1.491 . S
C141 C143 1.382 . S
C141 C145 1.404 . S
H142 C140 0.951 . S
C143 C141 1.382 . S
C143 C144 1.390 . S
C143 H148 0.949 . S
C144 C143 1.390 . S
C144 C149 1.399 . S
C145 C141 1.404 . S
C145 H146 0.950 . S
C145 C147 1.375 . S
H146 C145 0.950 . S
C147 C145 1.375 . S
C147 C149 1.382 . S
C147 H151 0.950 . S
H148 C143 0.949 . S
C149 C144 1.399 . S
C149 C147 1.382 . S
C149 H150 0.952 . S
H150 C149 0.952 . S
H151 C147 0.950 . S
H152 C153 0.949 . S
C153 H152 0.949 . S
C153 C154 1.395 . S
C153 C155 1.391 . S
C154 C153 1.395 . S
C154 C157 1.390 . S
C155 C153 1.391 . S
C155 C159 1.387 . S
C155 C160 1.491 . S
H156 C157 0.950 . S
C157 C154 1.390 . S
C157 H156 0.950 . S
C157 C158 1.378 . S
C158 C157 1.378 . S
C158 C159 1.409 . S
C159 C155 1.387 . S
C159 C158 1.409 . S
C159 H161 0.951 . S
C160 C155 1.491 . S
C160 C162 1.382 . S
C160 C164 1.404 . S
H161 C159 0.951 . S
C162 C160 1.382 . S
C162 C163 1.390 . S
C162 H167 0.949 . S
C163 C162 1.390 . S
C163 C168 1.399 . S
C164 C160 1.404 . S
C164 H165 0.950 . S
C164 C166 1.375 . S
H165 C164 0.950 . S
C166 C164 1.375 . S
C166 C168 1.382 . S
C166 H170 0.950 . S
H167 C162 0.949 . S
C168 C163 1.399 . S
C168 C166 1.382 . S
C168 H169 0.952 . S
H169 C168 0.952 . S
H170 C166 0.950 . S
H171 C172 0.949 . S
C172 H171 0.949 . S
C172 C173 1.395 . S
C172 C174 1.391 . S
C173 C172 1.395 . S
C173 C176 1.390 . S
C174 C172 1.391 . S
C174 C178 1.387 . S
C174 C179 1.491 . S
H175 C176 0.983 . S
C176 C173 1.390 . S
C176 H175 0.983 . S
C176 C177 1.378 . S
C177 C176 1.378 . S
C177 C178 1.409 . S
C178 C174 1.387 . S
C178 C177 1.409 . S
C178 H180 0.951 . S
C179 C174 1.491 . S
C179 C181 1.382 . S
C179 C183 1.404 . S
H180 C178 0.951 . S
C181 C179 1.382 . S
C181 C182 1.390 . S
C181 H186 0.949 . S
C182 C181 1.390 . S
C182 C187 1.399 . S
C183 C179 1.404 . S
C183 H184 0.950 . S
C183 C185 1.375 . S
H184 C183 0.950 . S
C185 C183 1.375 . S
C185 C187 1.382 . S
C185 H189 0.950 . S
H186 C181 0.949 . S
C187 C182 1.399 . S
C187 C185 1.382 . S
C187 H188 0.952 . S
H188 C187 0.952 . S
H189 C185 0.950 . S
H190 C191 0.949 . S
C191 H190 0.949 . S
C191 C192 1.395 . S
C191 C193 1.391 . S
C192 C191 1.395 . S
C192 C195 1.390 . S
C193 C191 1.391 . S
C193 C197 1.387 . S
C193 C198 1.491 . S
H194 C195 0.950 . S
C195 C192 1.390 . S
C195 H194 0.950 . S
C195 C196 1.378 . S
C196 C195 1.378 . S
C196 C197 1.409 . S
C197 C193 1.387 . S
C197 C196 1.409 . S
C197 H199 0.951 . S
C198 C193 1.491 . S
C198 C200 1.382 . S
C198 C202 1.404 . S
H199 C197 0.951 . S
C200 C198 1.382 . S
C200 C201 1.390 . S
C200 H205 0.949 . S
C201 C200 1.390 . S
C201 C206 1.399 . S
C202 C198 1.404 . S
C202 H203 0.950 . S
C202 C204 1.375 . S
H203 C202 0.950 . S
C204 C202 1.375 . S
C204 C206 1.382 . S
C204 H208 0.950 . S
H205 C200 0.949 . S
C206 C201 1.399 . S
C206 C204 1.382 . S
C206 H207 0.952 . S
H207 C206 0.952 . S
H208 C204 0.950 . S
H209 C210 0.949 . S
C210 H209 0.949 . S
C210 C211 1.395 . S
C210 C212 1.391 . S
C211 C210 1.395 . S
C211 C214 1.390 . S
C212 C210 1.391 . S
C212 C216 1.387 . S
C212 C217 1.491 . S
H213 C214 0.950 . S
C214 C211 1.390 . S
C214 H213 0.950 . S
C214 C215 1.378 . S
C215 C214 1.378 . S
C215 C216 1.409 . S
C216 C212 1.387 . S
C216 C215 1.409 . S
C216 H218 0.951 . S
C217 C212 1.491 . S
C217 C219 1.382 . S
C217 C221 1.404 . S
H218 C216 0.951 . S
C219 C217 1.382 . S
C219 C220 1.390 . S
C219 H224 0.949 . S
C220 C219 1.390 . S
C220 C225 1.399 . S
C221 C217 1.404 . S
C221 H222 0.950 . S
C221 C223 1.375 . S
H222 C221 0.950 . S
C223 C221 1.375 . S
C223 C225 1.382 . S
C223 H227 0.950 . S
H224 C219 0.949 . S
C225 C220 1.399 . S
C225 C223 1.382 . S
C225 H226 0.952 . S
H226 C225 0.952 . S
H227 C223 0.950 . S
H228 C229 0.949 . S
C229 H228 0.949 . S
C229 C230 1.395 . S
C229 C231 1.391 . S
C230 C229 1.395 . S
C230 C233 1.390 . S
C231 C229 1.391 . S
C231 C235 1.387 . S
C231 C236 1.491 . S
H232 C233 0.950 . S
C233 C230 1.390 . S
C233 H232 0.950 . S
C233 C234 1.378 . S
C234 C233 1.378 . S
C234 C235 1.409 . S
C235 C231 1.387 . S
C235 C234 1.409 . S
C235 H237 0.951 . S
C236 C231 1.491 . S
C236 C238 1.382 . S
C236 C240 1.404 . S
H237 C235 0.951 . S
C238 C236 1.382 . S
C238 C239 1.390 . S
C238 H243 0.949 . S
C239 C238 1.390 . S
C239 C244 1.399 . S
C240 C236 1.404 . S
C240 H241 0.950 . S
C240 C242 1.375 . S
H241 C240 0.950 . S
C242 C240 1.375 . S
C242 C244 1.382 . S
C242 H246 0.950 . S
H243 C238 0.949 . S
C244 C239 1.399 . S
C244 C242 1.382 . S
C244 H245 0.952 . S
H245 C244 0.952 . S
H246 C242 0.950 . S
H247 C248 0.949 1_554 S
C248 H247 0.949 1_556 S
C248 C249 1.395 . S
C248 C250 1.391 . S
C249 C248 1.395 . S
C249 C252 1.390 . S
C250 C248 1.391 . S
C250 C254 1.387 . S
C250 C255 1.491 . S
H251 C252 0.950 . S
C252 C249 1.390 . S
C252 H251 0.950 . S
C252 C253 1.378 . S
C253 C252 1.378 . S
C253 C254 1.409 . S
C254 C250 1.387 . S
C254 C253 1.409 . S
C254 H256 0.951 . S
C255 C250 1.491 . S
C255 C257 1.382 1_556 S
C255 C259 1.404 . S
H256 C254 0.951 . S
C257 C255 1.382 1_554 S
C257 C258 1.390 . S
C257 H262 0.949 . S
C258 C257 1.390 . S
C258 C263 1.399 . S
C259 C255 1.404 . S
C259 H260 0.950 . S
C259 C261 1.375 . S
H260 C259 0.950 . S
C261 C259 1.375 . S
C261 C263 1.382 1_556 S
C261 H265 0.950 . S
H262 C257 0.949 . S
C263 C258 1.399 . S
C263 C261 1.382 1_554 S
C263 H264 0.952 . S
H264 C263 0.952 . S
H265 C261 0.950 . S
H266 C267 0.949 . S
C267 H266 0.949 . S
C267 C268 1.395 . S
C267 C269 1.391 . S
C268 C267 1.395 . S
C268 C271 1.390 . S
C269 C267 1.391 . S
C269 C273 1.387 . S
C269 C274 1.491 . S
H270 C271 0.950 . S
C271 C268 1.390 . S
C271 H270 0.950 . S
C271 C272 1.378 . S
C272 C271 1.378 . S
C272 C273 1.409 . S
C273 C269 1.387 . S
C273 C272 1.409 . S
C273 H275 0.951 . S
C274 C269 1.491 . S
C274 C276 1.382 . S
C274 C278 1.404 . S
H275 C273 0.951 . S
C276 C274 1.382 . S
C276 C277 1.390 . S
C276 H281 0.949 . S
C277 C276 1.390 . S
C277 C282 1.399 . S
C278 C274 1.404 . S
C278 H279 0.950 . S
C278 C280 1.375 . S
H279 C278 0.950 . S
C280 C278 1.375 . S
C280 C282 1.382 . S
C280 H284 0.950 . S
H281 C276 0.949 . S
C282 C277 1.399 . S
C282 C280 1.382 . S
C282 H283 0.952 . S
H283 C282 0.952 . S
H284 C280 0.950 . S
H285 C286 0.949 . S
C286 H285 0.949 . S
C286 C287 1.395 . S
C286 C288 1.391 . S
C287 C286 1.395 . S
C287 C290 1.390 . S
C288 C286 1.391 . S
C288 C292 1.387 . S
C288 C293 1.491 . S
H289 C290 0.950 . S
C290 C287 1.390 . S
C290 H289 0.950 . S
C290 C291 1.378 . S
C291 C290 1.378 . S
C291 C292 1.409 . S
C292 C288 1.387 . S
C292 C291 1.409 . S
C292 H294 0.951 . S
C293 C288 1.491 . S
C293 C295 1.382 . S
C293 C297 1.404 . S
H294 C292 0.951 . S
C295 C293 1.382 . S
C295 C296 1.390 . S
C295 H300 0.949 . S
C296 C295 1.390 . S
C296 C301 1.399 . S
C297 C293 1.404 . S
C297 H298 0.950 . S
C297 C299 1.375 . S
H298 C297 0.950 . S
C299 C297 1.375 . S
C299 C301 1.382 . S
C299 H303 0.950 . S
H300 C295 0.949 . S
C301 C296 1.399 . S
C301 C299 1.382 . S
C301 H302 0.952 . S
H302 C301 0.952 . S
H303 C299 0.950 . S
Li304 N321 1.990 . S
Li304 O364 1.956 . S
Li304 O365 1.970 . S
Li304 O366 1.961 . S
Li305 N329 1.990 . S
Li305 O364 1.970 . S
Li305 O365 1.956 . S
Li305 O367 1.961 . S
Li306 N351 1.990 1_554 S
Li306 O364 1.961 . S
Li306 O366 1.956 . S
Li306 O367 1.970 . S
Li307 N357 1.990 . S
Li307 O365 1.961 . S
Li307 O366 1.970 . S
Li307 O367 1.956 . S
C308 C310 1.348 . S
C308 C311 1.356 . S
C308 O364 1.325 . S
N309 C312 1.314 . S
N309 C313 1.279 . S
C310 C308 1.348 . S
C310 C312 1.353 . S
C310 H368 0.929 . S
C311 C308 1.356 . S
C311 C313 1.358 . S
C311 H369 0.930 . S
C312 N309 1.314 . S
C312 C310 1.353 . S
C312 H370 0.930 . S
C313 N309 1.279 . S
C313 C311 1.358 . S
C313 H371 0.930 . S
C314 C317 1.348 . S
C314 C318 1.356 . S
C314 O365 1.325 . S
C315 N316 1.279 . S
C315 C318 1.358 . S
C315 H372 0.930 . S
N316 C315 1.279 . S
N316 C319 1.314 . S
C317 C314 1.348 . S
C317 C319 1.353 . S
C317 H373 0.929 . S
C318 C314 1.356 . S
C318 C315 1.358 . S
C318 H374 0.930 . S
C319 N316 1.314 . S
C319 C317 1.353 . S
C319 H375 0.930 . S
C320 N321 1.314 . S
C320 C325 1.353 . S
C320 H326 0.930 . S
N321 Li304 1.990 . S
N321 C320 1.314 . S
N321 C323 1.279 . S
C322 C323 1.358 . S
C322 C324 1.356 . S
C322 H376 0.930 . S
C323 N321 1.279 . S
C323 C322 1.358 . S
C323 H327 0.930 . S
C324 C322 1.356 . S
C324 C325 1.348 . S
C325 C320 1.353 . S
C325 C324 1.348 . S
C325 H377 0.929 . S
H326 C320 0.930 . S
H327 C323 0.930 . S
C328 N329 1.314 . S
C328 C330 1.353 . S
C328 H334 0.930 . S
N329 Li305 1.990 . S
N329 C328 1.314 . S
N329 C332 1.279 . S
C330 C328 1.353 . S
C330 C333 1.348 . S
C330 H378 0.929 . S
C331 C332 1.358 . S
C331 C333 1.356 . S
C331 H379 0.930 . S
C332 N329 1.279 . S
C332 C331 1.358 . S
C332 H335 0.930 . S
C333 C330 1.348 . S
C333 C331 1.356 . S
H334 C328 0.930 . S
H335 C332 0.930 . S
C336 C338 1.347 . S
C336 C339 1.356 1_554 S
C336 O366 1.325 . S
N337 C340 1.314 . S
N337 C341 1.279 . S
C338 C336 1.347 . S
C338 C340 1.355 1_554 S
C338 H380 0.928 . S
C339 C336 1.356 1_556 S
C339 C341 1.358 . S
C339 H381 0.930 . S
C340 N337 1.314 . S
C340 C338 1.355 1_556 S
C340 H382 0.930 . S
C341 N337 1.279 . S
C341 C339 1.358 . S
C341 H383 0.930 . S
C342 C343 1.348 . S
C342 C344 1.356 . S
C342 O367 1.325 . S
C343 C342 1.348 . S
C343 C345 1.353 . S
C343 H384 0.929 . S
C344 C342 1.356 . S
C344 C346 1.358 . S
C344 H385 0.930 . S
C345 C343 1.353 . S
C345 N347 1.314 . S
C345 H386 0.930 . S
C346 C344 1.358 . S
C346 N347 1.279 . S
C346 H387 0.930 . S
N347 C345 1.314 . S
N347 C346 1.279 . S
C348 C350 1.353 . S
C348 N351 1.314 . S
C348 H354 0.930 1_556 S
C349 N351 1.279 . S
C349 C352 1.358 . S
C349 H355 0.930 . S
C350 C348 1.353 . S
C350 C353 1.348 . S
C350 H388 0.929 . S
N351 Li306 1.990 1_556 S
N351 C348 1.314 . S
N351 C349 1.279 . S
C352 C349 1.358 . S
C352 C353 1.356 . S
C352 H389 0.930 . S
C353 C350 1.348 . S
C353 C352 1.356 . S
H354 C348 0.930 1_554 S
H355 C349 0.930 . S
C356 N357 1.314 . S
C356 C358 1.353 . S
C356 H362 0.930 . S
N357 Li307 1.990 . S
N357 C356 1.314 . S
N357 C360 1.279 . S
C358 C356 1.353 . S
C358 C361 1.348 . S
C358 H390 0.929 . S
C359 C360 1.358 . S
C359 C361 1.356 . S
C359 H391 0.930 . S
C360 N357 1.279 . S
C360 C359 1.358 . S
C360 H363 0.930 . S
C361 C358 1.348 . S
C361 C359 1.356 . S
H362 C356 0.930 . S
H363 C360 0.930 . S
O364 Li304 1.956 . S
O364 Li305 1.970 . S
O364 Li306 1.961 . S
O364 C308 1.325 . S
O365 Li304 1.970 . S
O365 Li305 1.956 . S
O365 Li307 1.961 . S
O365 C314 1.325 . S
O366 Li304 1.961 . S
O366 Li306 1.956 . S
O366 Li307 1.970 . S
O366 C336 1.325 . S
O367 Li305 1.961 . S
O367 Li306 1.970 . S
O367 Li307 1.956 . S
O367 C342 1.325 . S
H368 C310 0.929 . S
H369 C311 0.930 . S
H370 C312 0.930 . S
H371 C313 0.930 . S
H372 C315 0.930 . S
H373 C317 0.929 . S
H374 C318 0.930 . S
H375 C319 0.930 . S
H376 C322 0.930 . S
H377 C325 0.929 . S
H378 C330 0.929 . S
H379 C331 0.930 . S
H380 C338 0.928 . S
H381 C339 0.930 . S
H382 C340 0.930 . S
H383 C341 0.930 . S
H384 C343 0.929 . S
H385 C344 0.930 . S
H386 C345 0.930 . S
H387 C346 0.930 . S
H388 C350 0.929 . S
H389 C352 0.930 . S
H390 C358 0.929 . S
H391 C359 0.930 . S
Li392 N409 1.990 . S
Li392 O452 1.956 . S
Li392 O453 1.970 . S
Li392 O454 1.961 . S
Li393 N417 1.990 . S
Li393 O452 1.970 . S
Li393 O453 1.956 . S
Li393 O455 1.961 . S
Li394 N439 1.990 . S
Li394 O452 1.961 . S
Li394 O454 1.956 . S
Li394 O455 1.970 . S
Li395 N445 1.990 . S
Li395 O453 1.961 . S
Li395 O454 1.970 . S
Li395 O455 1.956 . S
C396 C398 1.348 . S
C396 C399 1.356 . S
C396 O452 1.325 . S
N397 C400 1.314 . S
N397 C401 1.279 . S
C398 C396 1.348 . S
C398 C400 1.353 . S
C398 H456 0.929 . S
C399 C396 1.356 . S
C399 C401 1.358 . S
C399 H457 0.930 . S
C400 N397 1.314 . S
C400 C398 1.353 . S
C400 H458 0.930 . S
C401 N397 1.279 . S
C401 C399 1.358 . S
C401 H459 0.930 . S
C402 C405 1.348 . S
C402 C406 1.356 . S
C402 O453 1.325 . S
C403 N404 1.279 . S
C403 C406 1.358 . S
C403 H460 0.930 . S
N404 C403 1.279 . S
N404 C407 1.314 . S
C405 C402 1.348 . S
C405 C407 1.353 . S
C405 H461 0.929 . S
C406 C402 1.356 . S
C406 C403 1.358 . S
C406 H462 0.930 . S
C407 N404 1.314 . S
C407 C405 1.353 . S
C407 H463 0.930 . S
C408 N409 1.314 . S
C408 C413 1.353 . S
C408 H414 0.930 . S
N409 Li392 1.990 . S
N409 C408 1.314 . S
N409 C411 1.279 . S
C410 C411 1.358 . S
C410 C412 1.356 . S
C410 H464 0.930 . S
C411 N409 1.279 . S
C411 C410 1.358 . S
C411 H415 0.930 . S
C412 C410 1.356 . S
C412 C413 1.348 . S
C413 C408 1.353 . S
C413 C412 1.348 . S
C413 H465 0.929 . S
H414 C408 0.930 . S
H415 C411 0.930 . S
C416 N417 1.314 . S
C416 C418 1.353 . S
C416 H422 0.930 . S
N417 Li393 1.990 . S
N417 C416 1.314 . S
N417 C420 1.279 . S
C418 C416 1.353 . S
C418 C421 1.348 . S
C418 H466 0.929 . S
C419 C420 1.358 . S
C419 C421 1.356 . S
C419 H467 0.930 . S
C420 N417 1.279 . S
C420 C419 1.358 . S
C420 H423 0.930 . S
C421 C418 1.348 . S
C421 C419 1.356 . S
H422 C416 0.930 . S
H423 C420 0.930 . S
C424 C426 1.348 . S
C424 C427 1.356 . S
C424 O454 1.325 . S
N425 C428 1.314 . S
N425 C429 1.279 . S
C426 C424 1.348 . S
C426 C428 1.353 . S
C426 H468 0.929 . S
C427 C424 1.356 . S
C427 C429 1.358 . S
C427 H469 0.930 . S
C428 N425 1.314 . S
C428 C426 1.353 . S
C428 H470 0.930 . S
C429 N425 1.279 . S
C429 C427 1.358 . S
C429 H471 0.930 . S
C430 C431 1.348 . S
C430 C432 1.356 . S
C430 O455 1.325 . S
C431 C430 1.348 . S
C431 C433 1.353 . S
C431 H472 0.929 . S
C432 C430 1.356 . S
C432 C434 1.358 . S
C432 H473 0.930 . S
C433 C431 1.353 . S
C433 N435 1.314 . S
C433 H474 0.930 . S
C434 C432 1.358 . S
C434 N435 1.279 . S
C434 H475 0.930 . S
N435 C433 1.314 . S
N435 C434 1.279 . S
C436 C438 1.353 . S
C436 N439 1.314 . S
C436 H442 0.930 . S
C437 N439 1.279 . S
C437 C440 1.358 . S
C437 H443 0.930 . S
C438 C436 1.353 . S
C438 C441 1.348 . S
C438 H476 0.929 . S
N439 Li394 1.990 . S
N439 C436 1.314 . S
N439 C437 1.279 . S
C440 C437 1.358 . S
C440 C441 1.356 . S
C440 H477 0.930 . S
C441 C438 1.348 . S
C441 C440 1.356 . S
H442 C436 0.930 . S
H443 C437 0.930 . S
C444 N445 1.314 . S
C444 C446 1.353 . S
C444 H450 0.930 . S
N445 Li395 1.990 . S
N445 C444 1.314 . S
N445 C448 1.279 . S
C446 C444 1.353 . S
C446 C449 1.348 . S
C446 H478 0.929 . S
C447 C448 1.358 . S
C447 C449 1.356 . S
C447 H479 0.930 . S
C448 N445 1.279 . S
C448 C447 1.358 . S
C448 H451 0.930 . S
C449 C446 1.348 . S
C449 C447 1.356 . S
H450 C444 0.930 . S
H451 C448 0.930 . S
O452 Li392 1.956 . S
O452 Li393 1.970 . S
O452 Li394 1.961 . S
O452 C396 1.325 . S
O453 Li392 1.970 . S
O453 Li393 1.956 . S
O453 Li395 1.961 . S
O453 C402 1.325 . S
O454 Li392 1.961 . S
O454 Li394 1.956 . S
O454 Li395 1.970 . S
O454 C424 1.325 . S
O455 Li393 1.961 . S
O455 Li394 1.970 . S
O455 Li395 1.956 . S
O455 C430 1.325 . S
H456 C398 0.929 . S
H457 C399 0.930 . S
H458 C400 0.930 . S
H459 C401 0.930 . S
H460 C403 0.930 . S
H461 C405 0.929 . S
H462 C406 0.930 . S
H463 C407 0.930 . S
H464 C410 0.930 . S
H465 C413 0.929 . S
H466 C418 0.929 . S
H467 C419 0.930 . S
H468 C426 0.929 . S
H469 C427 0.930 . S
H470 C428 0.930 . S
H471 C429 0.930 . S
H472 C431 0.929 . S
H473 C432 0.930 . S
H474 C433 0.930 . S
H475 C434 0.930 . S
H476 C438 0.929 . S
H477 C440 0.930 . S
H478 C446 0.929 . S
H479 C447 0.930 . S
Li480 N497 1.990 . S
Li480 O540 1.959 1_556 S
Li480 O541 1.970 1_556 S
Li480 O542 1.961 . S
Li481 N505 1.990 . S
Li481 O540 2.022 . S
Li481 O541 1.956 . S
Li481 O543 1.961 . S
Li482 N527 1.990 . S
Li482 O540 1.912 1_556 S
Li482 O542 1.956 . S
Li482 O543 1.970 1_556 S
Li483 N533 1.990 . S
Li483 O541 1.961 . S
Li483 O542 1.970 1_554 S
Li483 O543 1.956 . S
C484 C486 1.383 . S
C484 C487 1.320 1_554 S
C484 O540 1.323 . S
N485 C488 1.298 1_556 S
N485 C489 1.294 . S
C486 C484 1.383 . S
C486 C488 1.353 . S
C486 H544 0.929 . S
C487 C484 1.320 1_556 S
C487 C489 1.358 . S
C487 H545 0.930 . S
C488 N485 1.298 1_554 S
C488 C486 1.353 . S
C488 H546 0.930 . S
C489 N485 1.294 . S
C489 C487 1.358 . S
C489 H547 0.930 . S
C490 C493 1.348 . S
C490 C494 1.356 . S
C490 O541 1.325 . S
C491 N492 1.279 . S
C491 C494 1.358 . S
C491 H548 0.930 . S
N492 C491 1.279 . S
N492 C495 1.314 . S
C493 C490 1.348 . S
C493 C495 1.353 . S
C493 H549 0.929 . S
C494 C490 1.356 . S
C494 C491 1.358 . S
C494 H550 0.930 . S
C495 N492 1.314 . S
C495 C493 1.353 . S
C495 H551 0.930 . S
C496 N497 1.314 . S
C496 C501 1.353 . S
C496 H502 0.930 . S
N497 Li480 1.990 . S
N497 C496 1.314 . S
N497 C499 1.279 . S
C498 C499 1.358 . S
C498 C500 1.356 . S
C498 H552 0.930 . S
C499 N497 1.279 . S
C499 C498 1.358 . S
C499 H503 0.930 1_556 S
C500 C498 1.356 . S
C500 C501 1.348 . S
C501 C496 1.353 . S
C501 C500 1.348 . S
C501 H553 0.929 . S
H502 C496 0.930 . S
H503 C499 0.930 1_554 S
C504 N505 1.314 . S
C504 C506 1.353 . S
C504 H510 0.930 . S
N505 Li481 1.990 . S
N505 C504 1.314 . S
N505 C508 1.279 . S
C506 C504 1.353 . S
C506 C509 1.348 . S
C506 H554 0.929 . S
C507 C508 1.358 . S
C507 C509 1.356 . S
C507 H555 0.930 . S
C508 N505 1.279 . S
C508 C507 1.358 . S
C508 H511 0.930 . S
C509 C506 1.348 . S
C509 C507 1.356 . S
H510 C504 0.930 . S
H511 C508 0.930 . S
C512 C514 1.348 . S
C512 C515 1.356 . S
C512 O542 1.325 . S
N513 C516 1.314 . S
N513 C517 1.279 . S
C514 C512 1.348 . S
C514 C516 1.353 . S
C514 H556 0.929 . S
C515 C512 1.356 . S
C515 C517 1.358 . S
C515 H557 0.930 . S
C516 N513 1.314 . S
C516 C514 1.353 . S
C516 H558 0.930 . S
C517 N513 1.279 . S
C517 C515 1.358 . S
C517 H559 0.930 . S
C518 C519 1.348 1_554 S
C518 C520 1.356 . S
C518 O543 1.325 . S
C519 C518 1.348 1_556 S
C519 C521 1.353 . S
C519 H560 0.929 . S
C520 C518 1.356 . S
C520 C522 1.358 . S
C520 H561 0.930 . S
C521 C519 1.353 . S
C521 N523 1.314 1_556 S
C521 H562 0.930 . S
C522 C520 1.358 . S
C522 N523 1.279 . S
C522 H563 0.930 . S
N523 C521 1.314 1_554 S
N523 C522 1.279 . S
C524 C526 1.353 . S
C524 N527 1.314 . S
C524 H530 0.930 . S
C525 N527 1.279 . S
C525 C528 1.358 . S
C525 H531 0.930 . S
C526 C524 1.353 . S
C526 C529 1.348 . S
C526 H564 0.929 . S
N527 Li482 1.990 . S
N527 C524 1.314 . S
N527 C525 1.279 . S
C528 C525 1.358 . S
C528 C529 1.356 . S
C528 H565 0.930 . S
C529 C526 1.348 . S
C529 C528 1.356 . S
H530 C524 0.930 . S
H531 C525 0.930 . S
C532 N533 1.314 . S
C532 C534 1.353 . S
C532 H538 0.930 . S
N533 Li483 1.990 . S
N533 C532 1.314 . S
N533 C536 1.279 . S
C534 C532 1.353 . S
C534 C537 1.367 . S
C534 H566 0.929 . S
C535 C536 1.359 1_556 S
C535 C537 1.341 1_556 S
C535 H567 0.932 . S
C536 N533 1.279 . S
C536 C535 1.359 1_554 S
C536 H539 0.930 1_554 S
C537 C534 1.367 . S
C537 C535 1.341 1_554 S
H538 C532 0.930 . S
H539 C536 0.930 1_556 S
O540 Li480 1.959 1_554 S
O540 Li481 2.022 . S
O540 Li482 1.912 1_554 S
O540 C484 1.323 . S
O541 Li480 1.970 1_554 S
O541 Li481 1.956 . S
O541 Li483 1.961 . S
O541 C490 1.325 . S
O542 Li480 1.961 . S
O542 Li482 1.956 . S
O542 Li483 1.970 1_556 S
O542 C512 1.325 . S
O543 Li481 1.961 . S
O543 Li482 1.970 1_554 S
O543 Li483 1.956 . S
O543 C518 1.325 . S
H544 C486 0.929 . S
H545 C487 0.930 . S
H546 C488 0.930 . S
H547 C489 0.930 . S
H548 C491 0.930 . S
H549 C493 0.929 . S
H550 C494 0.930 . S
H551 C495 0.930 . S
H552 C498 0.930 . S
H553 C501 0.929 . S
H554 C506 0.929 . S
H555 C507 0.930 . S
H556 C514 0.929 . S
H557 C515 0.930 . S
H558 C516 0.930 . S
H559 C517 0.930 . S
H560 C519 0.929 . S
H561 C520 0.930 . S
H562 C521 0.930 . S
H563 C522 0.930 . S
H564 C526 0.929 . S
H565 C528 0.930 . S
H566 C534 0.929 . S
H567 C535 0.932 . S
Li568 N585 1.990 . S
Li568 O628 1.956 . S
Li568 O629 1.970 . S
Li568 O630 1.961 . S
Li569 N593 1.990 . S
Li569 O628 1.970 . S
Li569 O629 1.956 . S
Li569 O631 1.961 1_545 S
Li570 N615 1.990 . S
Li570 O628 1.961 . S
Li570 O630 1.956 . S
Li570 O631 1.970 1_545 S
Li571 N621 1.990 . S
Li571 O629 1.961 1_565 S
Li571 O630 1.970 1_565 S
Li571 O631 1.956 . S
C572 C574 1.348 . S
C572 C575 1.356 . S
C572 O628 1.325 . S
N573 C576 1.314 . S
N573 C577 1.279 . S
C574 C572 1.348 . S
C574 C576 1.353 . S
C574 H632 0.929 . S
C575 C572 1.356 . S
C575 C577 1.358 . S
C575 H633 0.930 . S
C576 N573 1.314 . S
C576 C574 1.353 . S
C576 H634 0.930 . S
C577 N573 1.279 . S
C577 C575 1.358 . S
C577 H635 0.930 . S
C578 C581 1.348 . S
C578 C582 1.356 1_545 S
C578 O629 1.325 . S
C579 N580 1.279 1_565 S
C579 C582 1.358 . S
C579 H636 0.930 . S
N580 C579 1.279 1_545 S
N580 C583 1.314 . S
C581 C578 1.348 . S
C581 C583 1.353 . S
C581 H637 0.929 . S
C582 C578 1.356 1_565 S
C582 C579 1.358 . S
C582 H638 0.930 . S
C583 N580 1.314 . S
C583 C581 1.353 . S
C583 H639 0.930 . S
C584 N585 1.314 . S
C584 C589 1.353 . S
C584 H590 0.930 . S
N585 Li568 1.990 . S
N585 C584 1.314 . S
N585 C587 1.279 . S
C586 C587 1.358 . S
C586 C588 1.356 . S
C586 H640 0.930 . S
C587 N585 1.279 . S
C587 C586 1.358 . S
C587 H591 0.930 . S
C588 C586 1.356 . S
C588 C589 1.348 . S
C589 C584 1.353 . S
C589 C588 1.348 . S
C589 H641 0.929 . S
H590 C584 0.930 . S
H591 C587 0.930 . S
C592 N593 1.314 . S
C592 C594 1.353 . S
C592 H598 0.930 . S
N593 Li569 1.990 . S
N593 C592 1.314 . S
N593 C596 1.279 . S
C594 C592 1.353 . S
C594 C597 1.348 . S
C594 H642 0.971 . S
C595 C596 1.358 . S
C595 C597 1.356 . S
C595 H643 0.930 . S
C596 N593 1.279 . S
C596 C595 1.358 . S
C596 H599 0.930 . S
C597 C594 1.348 . S
C597 C595 1.356 . S
H598 C592 0.930 . S
H599 C596 0.930 . S
C600 C602 1.348 . S
C600 C603 1.356 . S
C600 O630 1.325 . S
N601 C604 1.314 . S
N601 C605 1.279 . S
C602 C600 1.348 . S
C602 C604 1.353 . S
C602 H644 0.929 1_545 S
C603 C600 1.356 . S
C603 C605 1.358 . S
C603 H645 0.930 . S
C604 N601 1.314 . S
C604 C602 1.353 . S
C604 H646 0.930 1_545 S
C605 N601 1.279 . S
C605 C603 1.358 . S
C605 H647 0.930 . S
C606 C607 1.348 . S
C606 C608 1.356 . S
C606 O631 1.325 . S
C607 C606 1.348 . S
C607 C609 1.353 . S
C607 H648 0.929 . S
C608 C606 1.356 . S
C608 C610 1.358 . S
C608 H649 0.930 . S
C609 C607 1.353 . S
C609 N611 1.314 . S
C609 H650 0.930 . S
C610 C608 1.358 . S
C610 N611 1.279 . S
C610 H651 0.930 . S
N611 C609 1.314 . S
N611 C610 1.279 . S
C612 C614 1.353 . S
C612 N615 1.314 . S
C612 H618 0.930 . S
C613 N615 1.279 . S
C613 C616 1.358 . S
C613 H619 0.930 . S
C614 C612 1.353 . S
C614 C617 1.348 . S
C614 H652 0.929 . S
N615 Li570 1.990 . S
N615 C612 1.314 . S
N615 C613 1.279 . S
C616 C613 1.358 . S
C616 C617 1.356 . S
C616 H653 0.930 . S
C617 C614 1.348 . S
C617 C616 1.356 . S
H618 C612 0.930 . S
H619 C613 0.930 . S
C620 N621 1.314 . S
C620 C622 1.353 . S
C620 H626 0.930 . S
N621 Li571 1.990 . S
N621 C620 1.314 . S
N621 C624 1.279 . S
C622 C620 1.353 . S
C622 C625 1.348 . S
C622 H654 0.929 . S
C623 C624 1.358 . S
C623 C625 1.356 . S
C623 H655 0.930 . S
C624 N621 1.279 . S
C624 C623 1.358 . S
C624 H627 0.930 . S
C625 C622 1.348 . S
C625 C623 1.356 . S
H626 C620 0.930 . S
H627 C624 0.930 . S
O628 Li568 1.956 . S
O628 Li569 1.970 . S
O628 Li570 1.961 . S
O628 C572 1.325 . S
O629 Li568 1.970 . S
O629 Li569 1.956 . S
O629 Li571 1.961 1_545 S
O629 C578 1.325 . S
O630 Li568 1.961 . S
O630 Li570 1.956 . S
O630 Li571 1.970 1_545 S
O630 C600 1.325 . S
O631 Li569 1.961 1_565 S
O631 Li570 1.970 1_565 S
O631 Li571 1.956 . S
O631 C606 1.325 . S
H632 C574 0.929 . S
H633 C575 0.930 . S
H634 C576 0.930 . S
H635 C577 0.930 . S
H636 C579 0.930 . S
H637 C581 0.929 . S
H638 C582 0.930 . S
H639 C583 0.930 . S
H640 C586 0.930 . S
H641 C589 0.929 . S
H642 C594 0.971 . S
H643 C595 0.930 . S
H644 C602 0.929 1_565 S
H645 C603 0.930 . S
H646 C604 0.930 1_565 S
H647 C605 0.930 . S
H648 C607 0.929 . S
H649 C608 0.930 . S
H650 C609 0.930 . S
H651 C610 0.930 . S
H652 C614 0.929 . S
H653 C616 0.930 . S
H654 C622 0.929 . S
H655 C623 0.930 . S
Li656 N673 1.990 . S
Li656 O716 1.956 . S
Li656 O717 1.970 . S
Li656 O718 1.961 . S
Li657 N681 1.990 . S
Li657 O716 1.970 . S
Li657 O717 1.956 . S
Li657 O719 1.961 . S
Li658 N703 1.990 . S
Li658 O716 1.961 . S
Li658 O718 1.956 . S
Li658 O719 1.970 . S
Li659 N709 1.990 . S
Li659 O717 1.961 . S
Li659 O718 1.970 . S
Li659 O719 1.956 . S
C660 C662 1.348 . S
C660 C663 1.356 . S
C660 O716 1.325 . S
N661 C664 1.314 . S
N661 C665 1.279 . S
C662 C660 1.348 . S
C662 C664 1.353 . S
C662 H720 0.929 . S
C663 C660 1.356 . S
C663 C665 1.358 . S
C663 H721 0.930 . S
C664 N661 1.314 . S
C664 C662 1.353 . S
C664 H722 0.930 . S
C665 N661 1.279 . S
C665 C663 1.358 . S
C665 H723 0.930 . S
C666 C669 1.348 . S
C666 C670 1.356 . S
C666 O717 1.325 . S
C667 N668 1.279 . S
C667 C670 1.358 . S
C667 H724 0.930 . S
N668 C667 1.279 . S
N668 C671 1.314 . S
C669 C666 1.348 . S
C669 C671 1.353 . S
C669 H725 0.929 . S
C670 C666 1.356 . S
C670 C667 1.358 . S
C670 H726 0.930 . S
C671 N668 1.314 . S
C671 C669 1.353 . S
C671 H727 0.930 . S
C672 N673 1.314 . S
C672 C677 1.353 . S
C672 H678 0.930 . S
N673 Li656 1.990 . S
N673 C672 1.314 . S
N673 C675 1.279 . S
C674 C675 1.358 . S
C674 C676 1.356 . S
C674 H728 0.930 . S
C675 N673 1.279 . S
C675 C674 1.358 . S
C675 H679 0.930 . S
C676 C674 1.356 . S
C676 C677 1.348 . S
C677 C672 1.353 . S
C677 C676 1.348 . S
C677 H729 0.929 . S
H678 C672 0.930 . S
H679 C675 0.930 . S
C680 N681 1.314 . S
C680 C682 1.353 . S
C680 H686 0.930 . S
N681 Li657 1.990 . S
N681 C680 1.314 . S
N681 C684 1.279 . S
C682 C680 1.353 . S
C682 C685 1.348 . S
C682 H730 0.929 . S
C683 C684 1.358 . S
C683 C685 1.356 . S
C683 H731 0.930 . S
C684 N681 1.279 . S
C684 C683 1.358 . S
C684 H687 0.930 . S
C685 C682 1.348 . S
C685 C683 1.356 . S
H686 C680 0.930 . S
H687 C684 0.930 . S
C688 C690 1.348 . S
C688 C691 1.356 . S
C688 O718 1.325 . S
N689 C692 1.314 . S
N689 C693 1.279 . S
C690 C688 1.348 . S
C690 C692 1.353 . S
C690 H732 0.929 . S
C691 C688 1.356 . S
C691 C693 1.358 . S
C691 H733 0.930 . S
C692 N689 1.314 . S
C692 C690 1.353 . S
C692 H734 0.930 . S
C693 N689 1.279 . S
C693 C691 1.358 . S
C693 H735 0.930 . S
C694 C695 1.348 . S
C694 C696 1.356 . S
C694 O719 1.325 . S
C695 C694 1.348 . S
C695 C697 1.353 . S
C695 H736 0.929 . S
C696 C694 1.356 . S
C696 C698 1.358 . S
C696 H737 0.930 . S
C697 C695 1.353 . S
C697 N699 1.314 . S
C697 H738 0.930 . S
C698 C696 1.358 . S
C698 N699 1.279 . S
C698 H739 0.930 . S
N699 C697 1.314 . S
N699 C698 1.279 . S
C700 C702 1.353 . S
C700 N703 1.314 . S
C700 H706 0.930 . S
C701 N703 1.279 . S
C701 C704 1.358 . S
C701 H707 0.930 . S
C702 C700 1.353 . S
C702 C705 1.348 . S
C702 H740 0.929 . S
N703 Li658 1.990 . S
N703 C700 1.314 . S
N703 C701 1.279 . S
C704 C701 1.358 . S
C704 C705 1.356 . S
C704 H741 0.930 . S
C705 C702 1.348 . S
C705 C704 1.356 . S
H706 C700 0.930 . S
H707 C701 0.930 . S
C708 N709 1.314 . S
C708 C710 1.353 . S
C708 H714 0.930 . S
N709 Li659 1.990 . S
N709 C708 1.314 . S
N709 C712 1.279 . S
C710 C708 1.353 . S
C710 C713 1.348 . S
C710 H742 0.929 . S
C711 C712 1.358 . S
C711 C713 1.356 . S
C711 H743 0.930 . S
C712 N709 1.279 . S
C712 C711 1.358 . S
C712 H715 0.930 . S
C713 C710 1.348 . S
C713 C711 1.356 . S
H714 C708 0.930 . S
H715 C712 0.930 . S
O716 Li656 1.956 . S
O716 Li657 1.970 . S
O716 Li658 1.961 . S
O716 C660 1.325 . S
O717 Li656 1.970 . S
O717 Li657 1.956 . S
O717 Li659 1.961 . S
O717 C666 1.325 . S
O718 Li656 1.961 . S
O718 Li658 1.956 . S
O718 Li659 1.970 . S
O718 C688 1.325 . S
O719 Li657 1.961 . S
O719 Li658 1.970 . S
O719 Li659 1.956 . S
O719 C694 1.325 . S
H720 C662 0.929 . S
H721 C663 0.930 . S
H722 C664 0.930 . S
H723 C665 0.930 . S
H724 C667 0.930 . S
H725 C669 0.929 . S
H726 C670 0.930 . S
H727 C671 0.930 . S
H728 C674 0.930 . S
H729 C677 0.929 . S
H730 C682 0.929 . S
H731 C683 0.930 . S
H732 C690 0.929 . S
H733 C691 0.930 . S
H734 C692 0.930 . S
H735 C693 0.930 . S
H736 C695 0.929 . S
H737 C696 0.930 . S
H738 C697 0.930 . S
H739 C698 0.930 . S
H740 C702 0.929 . S
H741 C704 0.930 . S
H742 C710 0.929 . S
H743 C711 0.930 . S
Li744 N761 1.990 . S
Li744 O804 1.956 . S
Li744 O805 1.970 . S
Li744 O806 1.961 . S
Li745 N769 1.990 . S
Li745 O804 1.970 . S
Li745 O805 1.956 . S
Li745 O807 1.961 . S
Li746 N791 1.990 . S
Li746 O804 1.961 . S
Li746 O806 1.956 . S
Li746 O807 1.970 . S
Li747 N797 1.990 . S
Li747 O805 1.961 . S
Li747 O806 1.970 . S
Li747 O807 1.956 . S
C748 C750 1.348 . S
C748 C751 1.356 . S
C748 O804 1.325 . S
N749 C752 1.314 . S
N749 C753 1.279 . S
C750 C748 1.348 . S
C750 C752 1.353 . S
C750 H808 0.929 . S
C751 C748 1.356 . S
C751 C753 1.358 . S
C751 H809 0.930 . S
C752 N749 1.314 . S
C752 C750 1.353 . S
C752 H810 0.930 . S
C753 N749 1.279 . S
C753 C751 1.358 . S
C753 H811 0.930 . S
C754 C757 1.348 . S
C754 C758 1.356 . S
C754 O805 1.325 . S
C755 N756 1.279 . S
C755 C758 1.358 . S
C755 H812 0.930 . S
N756 C755 1.279 . S
N756 C759 1.314 . S
C757 C754 1.348 . S
C757 C759 1.353 . S
C757 H813 0.929 . S
C758 C754 1.356 . S
C758 C755 1.358 . S
C758 H814 0.930 . S
C759 N756 1.314 . S
C759 C757 1.353 . S
C759 H815 0.930 . S
C760 N761 1.314 . S
C760 C765 1.353 . S
C760 H766 0.930 . S
N761 Li744 1.990 . S
N761 C760 1.314 . S
N761 C763 1.279 . S
C762 C763 1.358 . S
C762 C764 1.356 . S
C762 H816 0.930 . S
C763 N761 1.279 . S
C763 C762 1.358 . S
C763 H767 0.930 . S
C764 C762 1.356 . S
C764 C765 1.348 . S
C765 C760 1.353 . S
C765 C764 1.348 . S
C765 H817 0.929 . S
H766 C760 0.930 . S
H767 C763 0.930 . S
C768 N769 1.314 . S
C768 C770 1.353 . S
C768 H774 0.930 . S
N769 Li745 1.990 . S
N769 C768 1.314 . S
N769 C772 1.279 . S
C770 C768 1.353 . S
C770 C773 1.348 . S
C770 H818 0.929 . S
C771 C772 1.358 . S
C771 C773 1.356 . S
C771 H819 0.930 . S
C772 N769 1.279 . S
C772 C771 1.358 . S
C772 H775 0.930 . S
C773 C770 1.348 . S
C773 C771 1.356 . S
H774 C768 0.930 . S
H775 C772 0.930 . S
C776 C778 1.348 . S
C776 C779 1.356 . S
C776 O806 1.325 . S
N777 C780 1.314 . S
N777 C781 1.279 . S
C778 C776 1.348 . S
C778 C780 1.353 . S
C778 H820 0.929 . S
C779 C776 1.356 . S
C779 C781 1.358 . S
C779 H821 0.930 . S
C780 N777 1.314 . S
C780 C778 1.353 . S
C780 H822 0.930 . S
C781 N777 1.279 . S
C781 C779 1.358 . S
C781 H823 0.930 . S
C782 C783 1.348 . S
C782 C784 1.356 . S
C782 O807 1.325 . S
C783 C782 1.348 . S
C783 C785 1.353 . S
C783 H824 0.929 . S
C784 C782 1.356 . S
C784 C786 1.358 . S
C784 H825 0.930 . S
C785 C783 1.353 . S
C785 N787 1.314 . S
C785 H826 0.930 . S
C786 C784 1.358 . S
C786 N787 1.279 . S
C786 H827 0.930 . S
N787 C785 1.314 . S
N787 C786 1.279 . S
C788 C790 1.353 . S
C788 N791 1.314 . S
C788 H794 0.930 . S
C789 N791 1.279 . S
C789 C792 1.358 . S
C789 H795 0.930 . S
C790 C788 1.353 . S
C790 C793 1.348 . S
C790 H828 0.929 . S
N791 Li746 1.990 . S
N791 C788 1.314 . S
N791 C789 1.279 . S
C792 C789 1.358 . S
C792 C793 1.356 . S
C792 H829 0.930 . S
C793 C790 1.348 . S
C793 C792 1.356 . S
H794 C788 0.930 . S
H795 C789 0.930 . S
C796 N797 1.314 . S
C796 C798 1.353 . S
C796 H802 0.930 . S
N797 Li747 1.990 . S
N797 C796 1.314 . S
N797 C800 1.279 . S
C798 C796 1.353 . S
C798 C801 1.348 . S
C798 H830 0.929 . S
C799 C800 1.358 . S
C799 C801 1.356 . S
C799 H831 0.930 . S
C800 N797 1.279 . S
C800 C799 1.358 . S
C800 H803 0.930 . S
C801 C798 1.348 . S
C801 C799 1.356 . S
H802 C796 0.930 . S
H803 C800 0.930 . S
O804 Li744 1.956 . S
O804 Li745 1.970 . S
O804 Li746 1.961 . S
O804 C748 1.325 . S
O805 Li744 1.970 . S
O805 Li745 1.956 . S
O805 Li747 1.961 . S
O805 C754 1.325 . S
O806 Li744 1.961 . S
O806 Li746 1.956 . S
O806 Li747 1.970 . S
O806 C776 1.325 . S
O807 Li745 1.961 . S
O807 Li746 1.970 . S
O807 Li747 1.956 . S
O807 C782 1.325 . S
H808 C750 0.929 . S
H809 C751 0.930 . S
H810 C752 0.930 . S
H811 C753 0.930 . S
H812 C755 0.930 . S
H813 C757 0.929 . S
H814 C758 0.930 . S
H815 C759 0.930 . S
H816 C762 0.930 . S
H817 C765 0.929 . S
H818 C770 0.929 . S
H819 C771 0.930 . S
H820 C778 0.929 . S
H821 C779 0.930 . S
H822 C780 0.930 . S
H823 C781 0.930 . S
H824 C783 0.929 . S
H825 C784 0.930 . S
H826 C785 0.930 . S
H827 C786 0.930 . S
H828 C790 0.929 . S
H829 C792 0.930 . S
H830 C798 0.929 . S
H831 C799 0.930 . S
Li832 N849 1.990 . S
Li832 O892 1.956 . S
Li832 O893 1.970 . S
Li832 O894 1.961 . S
Li833 N857 1.990 . S
Li833 O892 1.970 . S
Li833 O893 1.956 . S
Li833 O895 1.961 . S
Li834 N879 1.990 . S
Li834 O892 1.961 . S
Li834 O894 1.956 . S
Li834 O895 1.970 . S
Li835 N885 1.990 . S
Li835 O893 1.961 . S
Li835 O894 1.970 . S
Li835 O895 1.956 . S
C836 C838 1.348 . S
C836 C839 1.356 . S
C836 O892 1.325 . S
N837 C840 1.314 . S
N837 C841 1.279 . S
C838 C836 1.348 . S
C838 C840 1.353 . S
C838 H896 0.929 . S
C839 C836 1.356 . S
C839 C841 1.358 . S
C839 H897 0.930 . S
C840 N837 1.314 . S
C840 C838 1.353 . S
C840 H898 0.930 . S
C841 N837 1.279 . S
C841 C839 1.358 . S
C841 H899 0.930 . S
C842 C845 1.348 . S
C842 C846 1.356 . S
C842 O893 1.325 . S
C843 N844 1.279 . S
C843 C846 1.358 . S
C843 H900 0.930 . S
N844 C843 1.279 . S
N844 C847 1.314 . S
C845 C842 1.348 . S
C845 C847 1.353 . S
C845 H901 0.929 . S
C846 C842 1.356 . S
C846 C843 1.358 . S
C846 H902 0.930 . S
C847 N844 1.314 . S
C847 C845 1.353 . S
C847 H903 0.930 . S
C848 N849 1.314 . S
C848 C853 1.353 . S
C848 H854 0.930 . S
N849 Li832 1.990 . S
N849 C848 1.314 . S
N849 C851 1.279 . S
C850 C851 1.358 . S
C850 C852 1.356 . S
C850 H904 0.930 . S
C851 N849 1.279 . S
C851 C850 1.358 . S
C851 H855 0.930 . S
C852 C850 1.356 . S
C852 C853 1.348 . S
C853 C848 1.353 . S
C853 C852 1.348 . S
C853 H905 0.929 . S
H854 C848 0.930 . S
H855 C851 0.930 . S
C856 N857 1.314 . S
C856 C858 1.353 . S
C856 H862 0.930 . S
N857 Li833 1.990 . S
N857 C856 1.314 . S
N857 C860 1.279 . S
C858 C856 1.353 . S
C858 C861 1.348 . S
C858 H906 0.929 . S
C859 C860 1.358 . S
C859 C861 1.356 . S
C859 H907 0.930 . S
C860 N857 1.279 . S
C860 C859 1.358 . S
C860 H863 0.930 . S
C861 C858 1.348 . S
C861 C859 1.356 . S
H862 C856 0.930 . S
H863 C860 0.930 . S
C864 C866 1.348 . S
C864 C867 1.356 . S
C864 O894 1.325 . S
N865 C868 1.314 . S
N865 C869 1.279 . S
C866 C864 1.348 . S
C866 C868 1.353 . S
C866 H908 0.929 . S
C867 C864 1.356 . S
C867 C869 1.358 . S
C867 H909 0.930 . S
C868 N865 1.314 . S
C868 C866 1.353 . S
C868 H910 0.930 . S
C869 N865 1.279 . S
C869 C867 1.358 . S
C869 H911 0.930 . S
C870 C871 1.348 . S
C870 C872 1.356 . S
C870 O895 1.325 . S
C871 C870 1.348 . S
C871 C873 1.353 . S
C871 H912 0.929 . S
C872 C870 1.356 . S
C872 C874 1.358 . S
C872 H913 0.930 . S
C873 C871 1.353 . S
C873 N875 1.314 . S
C873 H914 0.930 . S
C874 C872 1.358 . S
C874 N875 1.279 . S
C874 H915 0.930 . S
N875 C873 1.314 . S
N875 C874 1.279 . S
C876 C878 1.353 . S
C876 N879 1.314 . S
C876 H882 0.930 . S
C877 N879 1.279 . S
C877 C880 1.358 . S
C877 H883 0.930 . S
C878 C876 1.353 . S
C878 C881 1.348 . S
C878 H916 0.929 . S
N879 Li834 1.990 . S
N879 C876 1.314 . S
N879 C877 1.279 . S
C880 C877 1.358 . S
C880 C881 1.356 . S
C880 H917 0.930 . S
C881 C878 1.348 . S
C881 C880 1.356 . S
H882 C876 0.930 . S
H883 C877 0.930 . S
C884 N885 1.314 . S
C884 C886 1.353 . S
C884 H890 0.930 . S
N885 Li835 1.990 . S
N885 C884 1.314 . S
N885 C888 1.279 . S
C886 C884 1.353 . S
C886 C889 1.348 . S
C886 H918 0.929 . S
C887 C888 1.358 . S
C887 C889 1.356 . S
C887 H919 0.930 . S
C888 N885 1.279 . S
C888 C887 1.358 . S
C888 H891 0.930 . S
C889 C886 1.348 . S
C889 C887 1.356 . S
H890 C884 0.930 . S
H891 C888 0.930 . S
O892 Li832 1.956 . S
O892 Li833 1.970 . S
O892 Li834 1.961 . S
O892 C836 1.325 . S
O893 Li832 1.970 . S
O893 Li833 1.956 . S
O893 Li835 1.961 . S
O893 C842 1.325 . S
O894 Li832 1.961 . S
O894 Li834 1.956 . S
O894 Li835 1.970 . S
O894 C864 1.325 . S
O895 Li833 1.961 . S
O895 Li834 1.970 . S
O895 Li835 1.956 . S
O895 C870 1.325 . S
H896 C838 0.929 . S
H897 C839 0.930 . S
H898 C840 0.930 . S
H899 C841 0.930 . S
H900 C843 0.930 . S
H901 C845 0.929 . S
H902 C846 0.930 . S
H903 C847 0.930 . S
H904 C850 0.930 . S
H905 C853 0.929 . S
H906 C858 0.929 . S
H907 C859 0.930 . S
H908 C866 0.929 . S
H909 C867 0.930 . S
H910 C868 0.930 . S
H911 C869 0.930 . S
H912 C871 0.929 . S
H913 C872 0.930 . S
H914 C873 0.930 . S
H915 C874 0.930 . S
H916 C878 0.929 . S
H917 C880 0.930 . S
H918 C886 0.929 . S
H919 C887 0.930 . S
Li920 N937 1.990 1_545 S
Li920 O980 1.956 . S
Li920 O981 1.970 . S
Li920 O982 1.961 . S
Li921 N945 1.990 . S
Li921 O980 1.970 . S
Li921 O981 1.956 . S
Li921 O983 1.961 . S
Li922 N967 1.990 . S
Li922 O980 1.961 . S
Li922 O982 1.956 . S
Li922 O983 1.970 . S
Li923 N973 1.990 . S
Li923 O981 1.961 . S
Li923 O982 1.970 . S
Li923 O983 1.956 . S
C924 C926 1.348 . S
C924 C927 1.356 . S
C924 O980 1.325 1_565 S
N925 C928 1.314 . S
N925 C929 1.279 . S
C926 C924 1.348 . S
C926 C928 1.353 . S
C926 H984 0.929 . S
C927 C924 1.356 . S
C927 C929 1.358 . S
C927 H985 0.930 . S
C928 N925 1.314 . S
C928 C926 1.353 . S
C928 H986 0.930 . S
C929 N925 1.279 . S
C929 C927 1.358 . S
C929 H987 0.930 . S
C930 C933 1.348 . S
C930 C934 1.356 . S
C930 O981 1.325 . S
C931 N932 1.279 . S
C931 C934 1.358 . S
C931 H988 0.930 . S
N932 C931 1.279 . S
N932 C935 1.314 . S
C933 C930 1.348 . S
C933 C935 1.353 . S
C933 H989 0.929 . S
C934 C930 1.356 . S
C934 C931 1.358 . S
C934 H990 0.930 . S
C935 N932 1.314 . S
C935 C933 1.353 . S
C935 H991 0.930 . S
C936 N937 1.314 . S
C936 C941 1.353 . S
C936 H942 0.930 . S
N937 Li920 1.990 1_565 S
N937 C936 1.314 . S
N937 C939 1.279 . S
C938 C939 1.358 . S
C938 C940 1.356 . S
C938 H992 0.930 . S
C939 N937 1.279 . S
C939 C938 1.358 . S
C939 H943 0.930 . S
C940 C938 1.356 . S
C940 C941 1.348 . S
C941 C936 1.353 . S
C941 C940 1.348 . S
C941 H993 0.929 . S
H942 C936 0.930 . S
H943 C939 0.930 . S
C944 N945 1.314 . S
C944 C946 1.353 . S
C944 H950 0.930 . S
N945 Li921 1.990 . S
N945 C944 1.314 . S
N945 C948 1.279 . S
C946 C944 1.353 . S
C946 C949 1.348 . S
C946 H994 0.929 . S
C947 C948 1.358 . S
C947 C949 1.356 . S
C947 H995 0.930 . S
C948 N945 1.279 . S
C948 C947 1.358 . S
C948 H951 0.930 . S
C949 C946 1.348 . S
C949 C947 1.356 . S
H950 C944 0.930 . S
H951 C948 0.930 . S
C952 C954 1.348 . S
C952 C955 1.356 . S
C952 O982 1.325 . S
N953 C956 1.314 . S
N953 C957 1.277 1_545 S
C954 C952 1.348 . S
C954 C956 1.353 . S
C954 H996 0.929 . S
C955 C952 1.356 . S
C955 C957 1.358 1_545 S
C955 H997 0.930 1_545 S
C956 N953 1.314 . S
C956 C954 1.353 . S
C956 H998 0.930 . S
C957 N953 1.277 1_565 S
C957 C955 1.358 1_565 S
C957 H999 0.933 . S
C958 C959 1.348 . S
C958 C960 1.356 . S
C958 O983 1.325 . S
C959 C958 1.348 . S
C959 C961 1.353 . S
C959 H1000 0.929 . S
C960 C958 1.356 . S
C960 C962 1.358 . S
C960 H1001 0.930 . S
C961 C959 1.353 . S
C961 N963 1.314 . S
C961 H1002 0.930 . S
C962 C960 1.358 . S
C962 N963 1.279 . S
C962 H1003 0.930 . S
N963 C961 1.314 . S
N963 C962 1.279 . S
C964 C966 1.353 . S
C964 N967 1.314 . S
C964 H970 0.930 . S
C965 N967 1.279 . S
C965 C968 1.358 . S
C965 H971 0.930 . S
C966 C964 1.353 . S
C966 C969 1.348 . S
C966 H1004 0.916 1_545 S
N967 Li922 1.990 . S
N967 C964 1.314 . S
N967 C965 1.279 . S
C968 C965 1.358 . S
C968 C969 1.356 . S
C968 H1005 0.930 . S
C969 C966 1.348 . S
C969 C968 1.356 . S
H970 C964 0.930 . S
H971 C965 0.930 . S
C972 N973 1.314 . S
C972 C974 1.353 . S
C972 H978 0.930 . S
N973 Li923 1.990 . S
N973 C972 1.314 . S
N973 C976 1.279 . S
C974 C972 1.353 . S
C974 C977 1.348 . S
C974 H1006 0.929 . S
C975 C976 1.358 . S
C975 C977 1.356 . S
C975 H1007 0.930 . S
C976 N973 1.279 . S
C976 C975 1.358 . S
C976 H979 0.930 . S
C977 C974 1.348 . S
C977 C975 1.356 . S
H978 C972 0.930 . S
H979 C976 0.930 . S
O980 Li920 1.956 . S
O980 Li921 1.970 . S
O980 Li922 1.961 . S
O980 C924 1.325 1_545 S
O981 Li920 1.970 . S
O981 Li921 1.956 . S
O981 Li923 1.961 . S
O981 C930 1.325 . S
O982 Li920 1.961 . S
O982 Li922 1.956 . S
O982 Li923 1.970 . S
O982 C952 1.325 . S
O983 Li921 1.961 . S
O983 Li922 1.970 . S
O983 Li923 1.956 . S
O983 C958 1.325 . S
H984 C926 0.929 . S
H985 C927 0.930 . S
H986 C928 0.930 . S
H987 C929 0.930 . S
H988 C931 0.930 . S
H989 C933 0.929 . S
H990 C934 0.930 . S
H991 C935 0.930 . S
H992 C938 0.930 . S
H993 C941 0.929 . S
H994 C946 0.929 . S
H995 C947 0.930 . S
H996 C954 0.929 . S
H997 C955 0.930 1_565 S
H998 C956 0.930 . S
H999 C957 0.933 . S
H1000 C959 0.929 . S
H1001 C960 0.930 . S
H1002 C961 0.930 . S
H1003 C962 0.930 . S
H1004 C966 0.916 1_565 S
H1005 C968 0.930 . S
H1006 C974 0.929 . S
H1007 C975 0.930 . S
Li1008 N1025 1.990 . S
Li1008 O1068 1.956 . S
Li1008 O1069 1.970 . S
Li1008 O1070 1.961 . S
Li1009 N1033 1.990 . S
Li1009 O1068 1.970 . S
Li1009 O1069 1.956 . S
Li1009 O1071 1.961 1_455 S
Li1010 N1055 1.990 . S
Li1010 O1068 1.961 . S
Li1010 O1070 1.956 . S
Li1010 O1071 1.970 1_455 S
Li1011 N1061 1.990 . S
Li1011 O1069 1.961 1_655 S
Li1011 O1070 1.970 1_655 S
Li1011 O1071 1.956 . S
C1012 C1014 1.348 . S
C1012 C1015 1.356 . S
C1012 O1068 1.325 . S
N1013 C1016 1.314 . S
N1013 C1017 1.279 . S
C1014 C1012 1.348 . S
C1014 C1016 1.353 . S
C1014 H1072 0.929 . S
C1015 C1012 1.356 . S
C1015 C1017 1.358 . S
C1015 H1073 0.930 . S
C1016 N1013 1.314 . S
C1016 C1014 1.353 . S
C1016 H1074 0.930 . S
C1017 N1013 1.279 . S
C1017 C1015 1.358 . S
C1017 H1075 0.930 . S
C1018 C1021 1.348 . S
C1018 C1022 1.356 1_455 S
C1018 O1069 1.325 . S
C1019 N1020 1.279 1_655 S
C1019 C1022 1.358 . S
C1019 H1076 0.930 . S
N1020 C1019 1.279 1_455 S
N1020 C1023 1.314 . S
C1021 C1018 1.348 . S
C1021 C1023 1.353 . S
C1021 H1077 0.929 . S
C1022 C1018 1.356 1_655 S
C1022 C1019 1.358 . S
C1022 H1078 0.930 . S
C1023 N1020 1.314 . S
C1023 C1021 1.353 . S
C1023 H1079 0.930 . S
C1024 N1025 1.314 . S
C1024 C1029 1.353 . S
C1024 H1030 0.930 . S
N1025 Li1008 1.990 . S
N1025 C1024 1.314 . S
N1025 C1027 1.279 . S
C1026 C1027 1.358 . S
C1026 C1028 1.356 . S
C1026 H1080 0.930 . S
C1027 N1025 1.279 . S
C1027 C1026 1.358 . S
C1027 H1031 0.930 . S
C1028 C1026 1.356 . S
C1028 C1029 1.348 . S
C1029 C1024 1.353 . S
C1029 C1028 1.348 . S
C1029 H1081 0.929 . S
H1030 C1024 0.930 . S
H1031 C1027 0.930 . S
C1032 N1033 1.314 1_655 S
C1032 C1034 1.353 . S
C1032 H1038 0.930 . S
N1033 Li1009 1.990 . S
N1033 C1032 1.314 1_455 S
N1033 C1036 1.279 . S
C1034 C1032 1.353 . S
C1034 C1037 1.348 1_655 S
C1034 H1082 0.929 . S
C1035 C1036 1.358 . S
C1035 C1037 1.356 . S
C1035 H1083 0.930 . S
C1036 N1033 1.279 . S
C1036 C1035 1.358 . S
C1036 H1039 0.930 . S
C1037 C1034 1.348 1_455 S
C1037 C1035 1.356 . S
H1038 C1032 0.930 . S
H1039 C1036 0.930 . S
C1040 C1042 1.348 1_455 S
C1040 C1043 1.356 . S
C1040 O1070 1.325 . S
N1041 C1044 1.314 1_455 S
N1041 C1045 1.279 . S
C1042 C1040 1.348 1_655 S
C1042 C1044 1.353 . S
C1042 H1084 0.929 . S
C1043 C1040 1.356 . S
C1043 C1045 1.358 . S
C1043 H1085 0.930 . S
C1044 N1041 1.314 1_655 S
C1044 C1042 1.353 . S
C1044 H1086 0.930 . S
C1045 N1041 1.279 . S
C1045 C1043 1.358 . S
C1045 H1087 0.930 . S
C1046 C1047 1.348 . S
C1046 C1048 1.356 . S
C1046 O1071 1.325 . S
C1047 C1046 1.348 . S
C1047 C1049 1.353 . S
C1047 H1088 0.929 . S
C1048 C1046 1.356 . S
C1048 C1050 1.358 . S
C1048 H1089 0.930 . S
C1049 C1047 1.353 . S
C1049 N1051 1.314 . S
C1049 H1090 0.930 . S
C1050 C1048 1.358 . S
C1050 N1051 1.279 . S
C1050 H1091 0.930 . S
N1051 C1049 1.314 . S
N1051 C1050 1.279 . S
C1052 C1054 1.353 . S
C1052 N1055 1.314 . S
C1052 H1058 0.930 . S
C1053 N1055 1.279 . S
C1053 C1056 1.358 . S
C1053 H1059 0.930 . S
C1054 C1052 1.353 . S
C1054 C1057 1.348 . S
C1054 H1092 0.929 . S
N1055 Li1010 1.990 . S
N1055 C1052 1.314 . S
N1055 C1053 1.279 . S
C1056 C1053 1.358 . S
C1056 C1057 1.356 . S
C1056 H1093 0.930 . S
C1057 C1054 1.348 . S
C1057 C1056 1.356 . S
H1058 C1052 0.930 . S
H1059 C1053 0.930 . S
C1060 N1061 1.314 . S
C1060 C1062 1.353 . S
C1060 H1066 0.930 . S
N1061 Li1011 1.990 . S
N1061 C1060 1.314 . S
N1061 C1064 1.279 . S
C1062 C1060 1.353 . S
C1062 C1065 1.348 . S
C1062 H1094 0.929 . S
C1063 C1064 1.358 . S
C1063 C1065 1.356 . S
C1063 H1095 0.930 . S
C1064 N1061 1.279 . S
C1064 C1063 1.358 . S
C1064 H1067 0.930 . S
C1065 C1062 1.348 . S
C1065 C1063 1.356 . S
H1066 C1060 0.930 . S
H1067 C1064 0.930 . S
O1068 Li1008 1.956 . S
O1068 Li1009 1.970 . S
O1068 Li1010 1.961 . S
O1068 C1012 1.325 . S
O1069 Li1008 1.970 . S
O1069 Li1009 1.956 . S
O1069 Li1011 1.961 1_455 S
O1069 C1018 1.325 . S
O1070 Li1008 1.961 . S
O1070 Li1010 1.956 . S
O1070 Li1011 1.970 1_455 S
O1070 C1040 1.325 . S
O1071 Li1009 1.961 1_655 S
O1071 Li1010 1.970 1_655 S
O1071 Li1011 1.956 . S
O1071 C1046 1.325 . S
H1072 C1014 0.929 . S
H1073 C1015 0.930 . S
H1074 C1016 0.930 . S
H1075 C1017 0.930 . S
H1076 C1019 0.930 . S
H1077 C1021 0.929 . S
H1078 C1022 0.930 . S
H1079 C1023 0.930 . S
H1080 C1026 0.930 . S
H1081 C1029 0.929 . S
H1082 C1034 0.929 . S
H1083 C1035 0.930 . S
H1084 C1042 0.929 . S
H1085 C1043 0.930 . S
H1086 C1044 0.930 . S
H1087 C1045 0.930 . S
H1088 C1047 0.929 . S
H1089 C1048 0.930 . S
H1090 C1049 0.930 . S
H1091 C1050 0.930 . S
H1092 C1054 0.929 . S
H1093 C1056 0.930 . S
H1094 C1062 0.929 . S
H1095 C1063 0.930 . S
Li1096 N1113 1.990 . S
Li1096 O1156 1.956 . S
Li1096 O1157 1.970 . S
Li1096 O1158 1.961 . S
Li1097 N1121 1.990 . S
Li1097 O1156 1.970 . S
Li1097 O1157 1.956 . S
Li1097 O1159 1.961 . S
Li1098 N1143 1.990 . S
Li1098 O1156 1.961 . S
Li1098 O1158 1.956 . S
Li1098 O1159 1.970 . S
Li1099 N1149 1.990 . S
Li1099 O1157 1.961 . S
Li1099 O1158 1.970 . S
Li1099 O1159 1.956 . S
C1100 C1102 1.348 . S
C1100 C1103 1.356 . S
C1100 O1156 1.325 . S
N1101 C1104 1.314 . S
N1101 C1105 1.279 . S
C1102 C1100 1.348 . S
C1102 C1104 1.353 . S
C1102 H1160 0.929 . S
C1103 C1100 1.356 . S
C1103 C1105 1.358 . S
C1103 H1161 0.930 . S
C1104 N1101 1.314 . S
C1104 C1102 1.353 . S
C1104 H1162 0.930 . S
C1105 N1101 1.279 . S
C1105 C1103 1.358 . S
C1105 H1163 0.930 . S
C1106 C1109 1.348 . S
C1106 C1110 1.356 . S
C1106 O1157 1.325 . S
C1107 N1108 1.279 . S
C1107 C1110 1.358 . S
C1107 H1164 0.930 . S
N1108 C1107 1.279 . S
N1108 C1111 1.314 . S
C1109 C1106 1.348 . S
C1109 C1111 1.353 . S
C1109 H1165 0.929 . S
C1110 C1106 1.356 . S
C1110 C1107 1.358 . S
C1110 H1166 0.930 . S
C1111 N1108 1.314 . S
C1111 C1109 1.353 . S
C1111 H1167 0.930 . S
C1112 N1113 1.314 . S
C1112 C1117 1.353 . S
C1112 H1118 0.930 . S
N1113 Li1096 1.990 . S
N1113 C1112 1.314 . S
N1113 C1115 1.279 . S
C1114 C1115 1.358 . S
C1114 C1116 1.356 . S
C1114 H1168 0.930 . S
C1115 N1113 1.279 . S
C1115 C1114 1.358 . S
C1115 H1119 0.930 . S
C1116 C1114 1.356 . S
C1116 C1117 1.348 . S
C1117 C1112 1.353 . S
C1117 C1116 1.348 . S
C1117 H1169 0.929 . S
H1118 C1112 0.930 . S
H1119 C1115 0.930 . S
C1120 N1121 1.314 . S
C1120 C1122 1.353 . S
C1120 H1126 0.930 . S
N1121 Li1097 1.990 . S
N1121 C1120 1.314 . S
N1121 C1124 1.279 . S
C1122 C1120 1.353 . S
C1122 C1125 1.348 . S
C1122 H1170 0.929 . S
C1123 C1124 1.358 . S
C1123 C1125 1.356 . S
C1123 H1171 0.930 . S
C1124 N1121 1.279 . S
C1124 C1123 1.358 . S
C1124 H1127 0.930 . S
C1125 C1122 1.348 . S
C1125 C1123 1.356 . S
H1126 C1120 0.930 . S
H1127 C1124 0.930 . S
C1128 C1130 1.348 . S
C1128 C1131 1.356 . S
C1128 O1158 1.325 . S
N1129 C1132 1.314 . S
N1129 C1133 1.279 . S
C1130 C1128 1.348 . S
C1130 C1132 1.353 . S
C1130 H1172 0.929 . S
C1131 C1128 1.356 . S
C1131 C1133 1.358 . S
C1131 H1173 0.930 . S
C1132 N1129 1.314 . S
C1132 C1130 1.353 . S
C1132 H1174 0.930 . S
C1133 N1129 1.279 . S
C1133 C1131 1.358 . S
C1133 H1175 0.930 . S
C1134 C1135 1.348 . S
C1134 C1136 1.356 . S
C1134 O1159 1.325 . S
C1135 C1134 1.348 . S
C1135 C1137 1.353 . S
C1135 H1176 0.929 . S
C1136 C1134 1.356 . S
C1136 C1138 1.358 . S
C1136 H1177 0.930 . S
C1137 C1135 1.353 . S
C1137 N1139 1.314 . S
C1137 H1178 0.930 . S
C1138 C1136 1.358 . S
C1138 N1139 1.279 . S
C1138 H1179 0.930 . S
N1139 C1137 1.314 . S
N1139 C1138 1.279 . S
C1140 C1142 1.353 . S
C1140 N1143 1.314 . S
C1140 H1146 0.930 . S
C1141 N1143 1.279 . S
C1141 C1144 1.358 . S
C1141 H1147 0.930 . S
C1142 C1140 1.353 . S
C1142 C1145 1.348 . S
C1142 H1180 0.929 . S
N1143 Li1098 1.990 . S
N1143 C1140 1.314 . S
N1143 C1141 1.279 . S
C1144 C1141 1.358 . S
C1144 C1145 1.356 . S
C1144 H1181 0.930 . S
C1145 C1142 1.348 . S
C1145 C1144 1.356 . S
H1146 C1140 0.930 . S
H1147 C1141 0.930 . S
C1148 N1149 1.314 . S
C1148 C1150 1.353 . S
C1148 H1154 0.930 . S
N1149 Li1099 1.990 . S
N1149 C1148 1.314 . S
N1149 C1152 1.279 . S
C1150 C1148 1.353 . S
C1150 C1153 1.348 . S
C1150 H1182 0.929 . S
C1151 C1152 1.358 . S
C1151 C1153 1.356 . S
C1151 H1183 0.930 . S
C1152 N1149 1.279 . S
C1152 C1151 1.358 . S
C1152 H1155 0.930 . S
C1153 C1150 1.348 . S
C1153 C1151 1.356 . S
H1154 C1148 0.930 . S
H1155 C1152 0.930 . S
O1156 Li1096 1.956 . S
O1156 Li1097 1.970 . S
O1156 Li1098 1.961 . S
O1156 C1100 1.325 . S
O1157 Li1096 1.970 . S
O1157 Li1097 1.956 . S
O1157 Li1099 1.961 . S
O1157 C1106 1.325 . S
O1158 Li1096 1.961 . S
O1158 Li1098 1.956 . S
O1158 Li1099 1.970 . S
O1158 C1128 1.325 . S
O1159 Li1097 1.961 . S
O1159 Li1098 1.970 . S
O1159 Li1099 1.956 . S
O1159 C1134 1.325 . S
H1160 C1102 0.929 . S
H1161 C1103 0.930 . S
H1162 C1104 0.930 . S
H1163 C1105 0.930 . S
H1164 C1107 0.930 . S
H1165 C1109 0.929 . S
H1166 C1110 0.930 . S
H1167 C1111 0.930 . S
H1168 C1114 0.930 . S
H1169 C1117 0.929 . S
H1170 C1122 0.929 . S
H1171 C1123 0.930 . S
H1172 C1130 0.929 . S
H1173 C1131 0.930 . S
H1174 C1132 0.930 . S
H1175 C1133 0.930 . S
H1176 C1135 0.929 . S
H1177 C1136 0.930 . S
H1178 C1137 0.930 . S
H1179 C1138 0.930 . S
H1180 C1142 0.929 . S
H1181 C1144 0.930 . S
H1182 C1150 0.929 . S
H1183 C1151 0.930 . S
Li1184 N1201 1.990 . S
Li1184 O1244 1.956 . S
Li1184 O1245 1.970 1_455 S
Li1184 O1246 1.961 . S
Li1185 N1209 1.990 . S
Li1185 O1244 1.970 1_655 S
Li1185 O1245 1.956 . S
Li1185 O1247 1.961 . S
Li1186 N1231 1.990 . S
Li1186 O1244 1.961 . S
Li1186 O1246 1.956 . S
Li1186 O1247 1.970 1_455 S
Li1187 N1237 1.990 . S
Li1187 O1245 1.961 . S
Li1187 O1246 1.970 1_655 S
Li1187 O1247 1.956 . S
C1188 C1190 1.348 1_455 S
C1188 C1191 1.356 . S
C1188 O1244 1.325 . S
N1189 C1192 1.315 1_455 S
N1189 C1193 1.279 . S
C1190 C1188 1.348 1_655 S
C1190 C1192 1.353 . S
C1190 H1248 0.929 . S
C1191 C1188 1.356 . S
C1191 C1193 1.358 . S
C1191 H1249 0.930 . S
C1192 N1189 1.315 1_655 S
C1192 C1190 1.353 . S
C1192 H1250 0.929 . S
C1193 N1189 1.279 . S
C1193 C1191 1.358 . S
C1193 H1251 0.930 . S
C1194 C1197 1.348 . S
C1194 C1198 1.356 . S
C1194 O1245 1.325 . S
C1195 N1196 1.279 . S
C1195 C1198 1.358 . S
C1195 H1252 0.930 . S
N1196 C1195 1.279 . S
N1196 C1199 1.314 . S
C1197 C1194 1.348 . S
C1197 C1199 1.353 . S
C1197 H1253 0.929 . S
C1198 C1194 1.356 . S
C1198 C1195 1.358 . S
C1198 H1254 0.930 . S
C1199 N1196 1.314 . S
C1199 C1197 1.353 . S
C1199 H1255 0.930 . S
C1200 N1201 1.314 . S
C1200 C1205 1.353 . S
C1200 H1206 0.930 . S
N1201 Li1184 1.990 . S
N1201 C1200 1.314 . S
N1201 C1203 1.279 . S
C1202 C1203 1.358 . S
C1202 C1204 1.356 . S
C1202 H1256 0.930 . S
C1203 N1201 1.279 . S
C1203 C1202 1.358 . S
C1203 H1207 0.930 . S
C1204 C1202 1.356 . S
C1204 C1205 1.348 . S
C1205 C1200 1.353 . S
C1205 C1204 1.348 . S
C1205 H1257 0.929 . S
H1206 C1200 0.930 . S
H1207 C1203 0.930 . S
C1208 N1209 1.314 . S
C1208 C1210 1.353 . S
C1208 H1214 0.930 . S
N1209 Li1185 1.990 . S
N1209 C1208 1.314 . S
N1209 C1212 1.279 . S
C1210 C1208 1.353 . S
C1210 C1213 1.348 . S
C1210 H1258 0.929 . S
C1211 C1212 1.358 . S
C1211 C1213 1.356 . S
C1211 H1259 0.930 . S
C1212 N1209 1.279 . S
C1212 C1211 1.358 . S
C1212 H1215 0.930 . S
C1213 C1210 1.348 . S
C1213 C1211 1.356 . S
H1214 C1208 0.930 . S
H1215 C1212 0.930 . S
C1216 C1218 1.348 . S
C1216 C1219 1.356 . S
C1216 O1246 1.325 . S
N1217 C1220 1.314 . S
N1217 C1221 1.279 . S
C1218 C1216 1.348 . S
C1218 C1220 1.353 . S
C1218 H1260 0.929 . S
C1219 C1216 1.356 . S
C1219 C1221 1.358 . S
C1219 H1261 0.930 . S
C1220 N1217 1.314 . S
C1220 C1218 1.353 . S
C1220 H1262 0.930 . S
C1221 N1217 1.279 . S
C1221 C1219 1.358 . S
C1221 H1263 0.930 . S
C1222 C1223 1.348 1_655 S
C1222 C1224 1.356 . S
C1222 O1247 1.325 . S
C1223 C1222 1.348 1_455 S
C1223 C1225 1.353 1_455 S
C1223 H1264 0.929 . S
C1224 C1222 1.356 . S
C1224 C1226 1.358 . S
C1224 H1265 0.930 . S
C1225 C1223 1.353 1_655 S
C1225 N1227 1.314 . S
C1225 H1266 0.930 1_655 S
C1226 C1224 1.358 . S
C1226 N1227 1.279 . S
C1226 H1267 0.930 . S
N1227 C1225 1.314 . S
N1227 C1226 1.279 . S
C1228 C1230 1.353 . S
C1228 N1231 1.314 . S
C1228 H1234 0.930 . S
C1229 N1231 1.279 . S
C1229 C1232 1.358 . S
C1229 H1235 0.930 . S
C1230 C1228 1.353 . S
C1230 C1233 1.348 . S
C1230 H1268 0.929 . S
N1231 Li1186 1.990 . S
N1231 C1228 1.314 . S
N1231 C1229 1.279 . S
C1232 C1229 1.358 . S
C1232 C1233 1.356 . S
C1232 H1269 0.930 . S
C1233 C1230 1.348 . S
C1233 C1232 1.356 . S
H1234 C1228 0.930 . S
H1235 C1229 0.930 . S
C1236 N1237 1.314 . S
C1236 C1238 1.353 . S
C1236 H1242 0.930 . S
N1237 Li1187 1.990 . S
N1237 C1236 1.314 . S
N1237 C1240 1.279 . S
C1238 C1236 1.353 . S
C1238 C1241 1.348 . S
C1238 H1270 0.929 . S
C1239 C1240 1.358 . S
C1239 C1241 1.356 . S
C1239 H1271 0.930 . S
C1240 N1237 1.279 . S
C1240 C1239 1.358 . S
C1240 H1243 0.930 . S
C1241 C1238 1.348 . S
C1241 C1239 1.356 . S
H1242 C1236 0.930 . S
H1243 C1240 0.930 . S
O1244 Li1184 1.956 . S
O1244 Li1185 1.970 1_455 S
O1244 Li1186 1.961 . S
O1244 C1188 1.325 . S
O1245 Li1184 1.970 1_655 S
O1245 Li1185 1.956 . S
O1245 Li1187 1.961 . S
O1245 C1194 1.325 . S
O1246 Li1184 1.961 . S
O1246 Li1186 1.956 . S
O1246 Li1187 1.970 1_455 S
O1246 C1216 1.325 . S
O1247 Li1185 1.961 . S
O1247 Li1186 1.970 1_655 S
O1247 Li1187 1.956 . S
O1247 C1222 1.325 . S
H1248 C1190 0.929 . S
H1249 C1191 0.930 . S
H1250 C1192 0.929 . S
H1251 C1193 0.930 . S
H1252 C1195 0.930 . S
H1253 C1197 0.929 . S
H1254 C1198 0.930 . S
H1255 C1199 0.930 . S
H1256 C1202 0.930 . S
H1257 C1205 0.929 . S
H1258 C1210 0.929 . S
H1259 C1211 0.930 . S
H1260 C1218 0.929 . S
H1261 C1219 0.930 . S
H1262 C1220 0.930 . S
H1263 C1221 0.930 . S
H1264 C1223 0.929 . S
H1265 C1224 0.930 . S
H1266 C1225 0.930 1_455 S
H1267 C1226 0.930 . S
H1268 C1230 0.929 . S
H1269 C1232 0.930 . S
H1270 C1238 0.929 . S
H1271 C1239 0.930 . S
Li1272 N1289 1.990 . S
Li1272 O1332 1.956 . S
Li1272 O1333 1.970 . S
Li1272 O1334 1.961 . S
Li1273 N1297 1.990 . S
Li1273 O1332 1.970 . S
Li1273 O1333 1.956 . S
Li1273 O1335 1.961 . S
Li1274 N1319 1.990 . S
Li1274 O1332 1.961 . S
Li1274 O1334 1.956 . S
Li1274 O1335 1.970 . S
Li1275 N1325 1.990 . S
Li1275 O1333 1.961 . S
Li1275 O1334 1.970 . S
Li1275 O1335 1.956 . S
C1276 C1278 1.348 . S
C1276 C1279 1.356 . S
C1276 O1332 1.325 . S
N1277 C1280 1.314 . S
N1277 C1281 1.279 . S
C1278 C1276 1.348 . S
C1278 C1280 1.353 . S
C1278 H1336 0.929 . S
C1279 C1276 1.356 . S
C1279 C1281 1.358 . S
C1279 H1337 0.930 . S
C1280 N1277 1.314 . S
C1280 C1278 1.353 . S
C1280 H1338 0.930 . S
C1281 N1277 1.279 . S
C1281 C1279 1.358 . S
C1281 H1339 0.930 . S
C1282 C1285 1.348 . S
C1282 C1286 1.356 . S
C1282 O1333 1.325 . S
C1283 N1284 1.279 . S
C1283 C1286 1.358 . S
C1283 H1340 0.930 . S
N1284 C1283 1.279 . S
N1284 C1287 1.314 . S
C1285 C1282 1.348 . S
C1285 C1287 1.353 . S
C1285 H1341 0.929 . S
C1286 C1282 1.356 . S
C1286 C1283 1.358 . S
C1286 H1342 0.930 . S
C1287 N1284 1.314 . S
C1287 C1285 1.353 . S
C1287 H1343 0.930 . S
C1288 N1289 1.314 . S
C1288 C1293 1.353 . S
C1288 H1294 0.930 . S
N1289 Li1272 1.990 . S
N1289 C1288 1.314 . S
N1289 C1291 1.279 . S
C1290 C1291 1.358 . S
C1290 C1292 1.356 . S
C1290 H1344 0.930 . S
C1291 N1289 1.279 . S
C1291 C1290 1.358 . S
C1291 H1295 0.930 . S
C1292 C1290 1.356 . S
C1292 C1293 1.348 . S
C1293 C1288 1.353 . S
C1293 C1292 1.348 . S
C1293 H1345 0.929 . S
H1294 C1288 0.930 . S
H1295 C1291 0.930 . S
C1296 N1297 1.314 . S
C1296 C1298 1.353 . S
C1296 H1302 0.930 . S
N1297 Li1273 1.990 . S
N1297 C1296 1.314 . S
N1297 C1300 1.279 . S
C1298 C1296 1.353 . S
C1298 C1301 1.348 . S
C1298 H1346 0.929 . S
C1299 C1300 1.358 . S
C1299 C1301 1.356 . S
C1299 H1347 0.930 . S
C1300 N1297 1.279 . S
C1300 C1299 1.358 . S
C1300 H1303 0.930 . S
C1301 C1298 1.348 . S
C1301 C1299 1.356 . S
H1302 C1296 0.930 . S
H1303 C1300 0.930 . S
C1304 C1306 1.348 . S
C1304 C1307 1.356 . S
C1304 O1334 1.325 . S
N1305 C1308 1.314 . S
N1305 C1309 1.279 . S
C1306 C1304 1.348 . S
C1306 C1308 1.353 . S
C1306 H1348 0.929 . S
C1307 C1304 1.356 . S
C1307 C1309 1.358 . S
C1307 H1349 0.930 . S
C1308 N1305 1.314 . S
C1308 C1306 1.353 . S
C1308 H1350 0.930 . S
C1309 N1305 1.279 . S
C1309 C1307 1.358 . S
C1309 H1351 0.930 . S
C1310 C1311 1.348 . S
C1310 C1312 1.356 . S
C1310 O1335 1.325 . S
C1311 C1310 1.348 . S
C1311 C1313 1.353 . S
C1311 H1352 0.929 . S
C1312 C1310 1.356 . S
C1312 C1314 1.358 . S
C1312 H1353 0.930 . S
C1313 C1311 1.353 . S
C1313 N1315 1.314 . S
C1313 H1354 0.930 . S
C1314 C1312 1.358 . S
C1314 N1315 1.279 . S
C1314 H1355 0.930 . S
N1315 C1313 1.314 . S
N1315 C1314 1.279 . S
C1316 C1318 1.353 . S
C1316 N1319 1.314 . S
C1316 H1322 0.930 . S
C1317 N1319 1.279 . S
C1317 C1320 1.358 . S
C1317 H1323 0.930 . S
C1318 C1316 1.353 . S
C1318 C1321 1.348 . S
C1318 H1356 0.929 . S
N1319 Li1274 1.990 . S
N1319 C1316 1.314 . S
N1319 C1317 1.279 . S
C1320 C1317 1.358 . S
C1320 C1321 1.356 . S
C1320 H1357 0.930 . S
C1321 C1318 1.348 . S
C1321 C1320 1.356 . S
H1322 C1316 0.930 . S
H1323 C1317 0.930 . S
C1324 N1325 1.314 . S
C1324 C1326 1.353 . S
C1324 H1330 0.930 . S
N1325 Li1275 1.990 . S
N1325 C1324 1.314 . S
N1325 C1328 1.279 . S
C1326 C1324 1.353 . S
C1326 C1329 1.348 . S
C1326 H1358 0.929 . S
C1327 C1328 1.358 . S
C1327 C1329 1.356 . S
C1327 H1359 0.930 . S
C1328 N1325 1.279 . S
C1328 C1327 1.358 . S
C1328 H1331 0.930 . S
C1329 C1326 1.348 . S
C1329 C1327 1.356 . S
H1330 C1324 0.930 . S
H1331 C1328 0.930 . S
O1332 Li1272 1.956 . S
O1332 Li1273 1.970 . S
O1332 Li1274 1.961 . S
O1332 C1276 1.325 . S
O1333 Li1272 1.970 . S
O1333 Li1273 1.956 . S
O1333 Li1275 1.961 . S
O1333 C1282 1.325 . S
O1334 Li1272 1.961 . S
O1334 Li1274 1.956 . S
O1334 Li1275 1.970 . S
O1334 C1304 1.325 . S
O1335 Li1273 1.961 . S
O1335 Li1274 1.970 . S
O1335 Li1275 1.956 . S
O1335 C1310 1.325 . S
H1336 C1278 0.929 . S
H1337 C1279 0.930 . S
H1338 C1280 0.930 . S
H1339 C1281 0.930 . S
H1340 C1283 0.930 . S
H1341 C1285 0.929 . S
H1342 C1286 0.930 . S
H1343 C1287 0.930 . S
H1344 C1290 0.930 . S
H1345 C1293 0.929 . S
H1346 C1298 0.929 . S
H1347 C1299 0.930 . S
H1348 C1306 0.929 . S
H1349 C1307 0.930 . S
H1350 C1308 0.930 . S
H1351 C1309 0.930 . S
H1352 C1311 0.929 . S
H1353 C1312 0.930 . S
H1354 C1313 0.930 . S
H1355 C1314 0.930 . S
H1356 C1318 0.929 . S
H1357 C1320 0.930 . S
H1358 C1326 0.929 . S
H1359 C1327 0.930 . S
C1360 C1361 1.349 . S
C1360 C1362 1.327 . S
C1360 H1385 0.950 . S
C1361 C1360 1.349 . S
C1361 C1377 1.349 . S
C1362 C1360 1.327 . S
C1362 C1381 1.429 . S
C1362 H1386 0.950 . S
C1363 C1380 1.574 . S
C1363 C1382 1.368 . S
C1363 H1387 0.949 . S
H1364 C1368 0.949 . S
C1365 C1366 1.349 . S
C1365 C1367 1.327 . S
C1365 H1388 0.950 . S
C1366 C1365 1.349 . S
C1366 C1378 1.349 . S
C1367 C1365 1.327 . S
C1367 C1383 1.429 . S
C1367 H1389 0.950 . S
C1368 H1364 0.949 . S
C1368 C1376 1.574 . S
C1368 C1384 1.368 . S
H1369 C1377 0.950 . S
H1370 C1375 0.950 . S
H1371 C1376 0.949 . S
H1372 C1378 0.950 . S
H1373 C1379 0.950 . S
H1374 C1380 0.949 . S
C1375 H1370 0.950 . S
C1375 C1377 1.327 . S
C1375 C1381 1.429 . S
C1376 C1368 1.574 . S
C1376 H1371 0.949 . S
C1376 C1382 1.368 . S
C1377 C1361 1.349 . S
C1377 H1369 0.950 . S
C1377 C1375 1.327 . S
C1378 C1366 1.349 . S
C1378 H1372 0.950 . S
C1378 C1379 1.327 . S
C1379 H1373 0.950 . S
C1379 C1378 1.327 . S
C1379 C1383 1.429 . S
C1380 C1363 1.574 . S
C1380 H1374 0.949 . S
C1380 C1384 1.368 . S
C1381 C1362 1.429 . S
C1381 C1375 1.429 . S
C1381 C1382 1.523 . S
C1382 C1363 1.368 . S
C1382 C1376 1.368 . S
C1382 C1381 1.523 . S
C1383 C1367 1.429 . S
C1383 C1379 1.429 . S
C1383 C1384 1.523 . S
C1384 C1368 1.368 . S
C1384 C1380 1.368 . S
C1384 C1383 1.523 . S
H1385 C1360 0.950 . S
H1386 C1362 0.950 . S
H1387 C1363 0.949 . S
H1388 C1365 0.950 . S
H1389 C1367 0.950 . S
C1390 C1391 1.349 . S
C1390 C1392 1.327 . S
C1390 H1415 0.950 . S
C1391 C1390 1.349 . S
C1391 C1407 1.349 . S
C1392 C1390 1.327 . S
C1392 C1411 1.429 . S
C1392 H1416 0.950 . S
C1393 C1410 1.574 . S
C1393 C1412 1.368 . S
C1393 H1417 0.949 . S
H1394 C1398 0.949 . S
C1395 C1396 1.349 . S
C1395 C1397 1.327 . S
C1395 H1418 0.950 . S
C1396 C1395 1.349 . S
C1396 C1408 1.349 . S
C1397 C1395 1.327 . S
C1397 C1413 1.429 . S
C1397 H1419 0.950 . S
C1398 H1394 0.949 . S
C1398 C1406 1.574 . S
C1398 C1414 1.368 . S
H1399 C1407 0.950 1_655 S
H1400 C1405 0.950 . S
H1401 C1406 0.949 . S
H1402 C1408 0.950 . S
H1403 C1409 0.950 . S
H1404 C1410 0.949 . S
C1405 H1400 0.950 . S
C1405 C1407 1.327 . S
C1405 C1411 1.429 . S
C1406 C1398 1.574 . S
C1406 H1401 0.949 . S
C1406 C1412 1.368 . S
C1407 C1391 1.349 . S
C1407 H1399 0.950 1_455 S
C1407 C1405 1.327 . S
C1408 C1396 1.349 . S
C1408 H1402 0.950 . S
C1408 C1409 1.327 . S
C1409 H1403 0.950 . S
C1409 C1408 1.327 . S
C1409 C1413 1.429 . S
C1410 C1393 1.574 . S
C1410 H1404 0.949 . S
C1410 C1414 1.368 . S
C1411 C1392 1.429 . S
C1411 C1405 1.429 . S
C1411 C1412 1.523 . S
C1412 C1393 1.368 . S
C1412 C1406 1.368 . S
C1412 C1411 1.523 . S
C1413 C1397 1.429 . S
C1413 C1409 1.429 . S
C1413 C1414 1.523 . S
C1414 C1398 1.368 . S
C1414 C1410 1.368 . S
C1414 C1413 1.523 . S
H1415 C1390 0.950 . S
H1416 C1392 0.950 . S
H1417 C1393 0.949 . S
H1418 C1395 0.950 . S
H1419 C1397 0.950 . S
C1420 C1421 1.349 . S
C1420 C1422 1.327 . S
C1420 H1445 0.950 . S
C1421 C1420 1.349 . S
C1421 C1437 1.349 . S
C1422 C1420 1.327 . S
C1422 C1441 1.429 . S
C1422 H1446 0.950 . S
C1423 C1440 1.574 . S
C1423 C1442 1.368 . S
C1423 H1447 0.949 . S
H1424 C1428 0.949 . S
C1425 C1426 1.349 . S
C1425 C1427 1.327 . S
C1425 H1448 0.950 . S
C1426 C1425 1.349 . S
C1426 C1438 1.349 . S
C1427 C1425 1.327 . S
C1427 C1443 1.429 . S
C1427 H1449 0.950 . S
C1428 H1424 0.949 . S
C1428 C1436 1.574 . S
C1428 C1444 1.368 . S
H1429 C1437 0.950 . S
H1430 C1435 0.950 . S
H1431 C1436 0.949 . S
H1432 C1438 0.950 . S
H1433 C1439 0.950 . S
H1434 C1440 0.949 . S
C1435 H1430 0.950 . S
C1435 C1437 1.327 . S
C1435 C1441 1.429 . S
C1436 C1428 1.574 . S
C1436 H1431 0.949 . S
C1436 C1442 1.368 . S
C1437 C1421 1.349 . S
C1437 H1429 0.950 . S
C1437 C1435 1.327 . S
C1438 C1426 1.349 . S
C1438 H1432 0.950 . S
C1438 C1439 1.327 . S
C1439 H1433 0.950 . S
C1439 C1438 1.327 . S
C1439 C1443 1.429 . S
C1440 C1423 1.574 . S
C1440 H1434 0.949 . S
C1440 C1444 1.368 . S
C1441 C1422 1.429 . S
C1441 C1435 1.429 . S
C1441 C1442 1.523 . S
C1442 C1423 1.368 . S
C1442 C1436 1.368 . S
C1442 C1441 1.523 . S
C1443 C1427 1.429 . S
C1443 C1439 1.429 . S
C1443 C1444 1.523 . S
C1444 C1428 1.368 . S
C1444 C1440 1.368 . S
C1444 C1443 1.523 . S
H1445 C1420 0.950 . S
H1446 C1422 0.950 . S
H1447 C1423 0.949 . S
H1448 C1425 0.950 . S
H1449 C1427 0.950 . S
C1450 C1451 1.349 . S
C1450 C1452 1.327 . S
C1450 H1475 0.950 . S
C1451 C1450 1.349 . S
C1451 C1467 1.349 . S
C1452 C1450 1.327 . S
C1452 C1471 1.429 . S
C1452 H1476 0.950 1_565 S
C1453 C1470 1.574 . S
C1453 C1472 1.368 . S
C1453 H1477 0.949 . S
H1454 C1458 0.949 . S
C1455 C1456 1.349 1_565 S
C1455 C1457 1.327 . S
C1455 H1478 0.950 . S
C1456 C1455 1.349 1_545 S
C1456 C1468 1.349 1_655 S
C1457 C1455 1.327 . S
C1457 C1473 1.429 1_665 S
C1457 H1479 0.950 . S
C1458 H1454 0.949 . S
C1458 C1466 1.574 . S
C1458 C1474 1.368 1_545 S
H1459 C1467 0.950 . S
H1460 C1465 0.950 . S
H1461 C1466 0.949 . S
H1462 C1468 0.950 . S
H1463 C1469 0.950 . S
H1464 C1470 0.949 . S
C1465 H1460 0.950 . S
C1465 C1467 1.327 . S
C1465 C1471 1.429 . S
C1466 C1458 1.574 . S
C1466 H1461 0.949 . S
C1466 C1472 1.368 1_545 S
C1467 C1451 1.349 . S
C1467 H1459 0.950 . S
C1467 C1465 1.327 . S
C1468 C1456 1.349 1_455 S
C1468 H1462 0.950 . S
C1468 C1469 1.327 . S
C1469 H1463 0.950 . S
C1469 C1468 1.327 . S
C1469 C1473 1.429 . S
C1470 C1453 1.574 . S
C1470 H1464 0.949 . S
C1470 C1474 1.368 . S
C1471 C1452 1.429 . S
C1471 C1465 1.429 . S
C1471 C1472 1.523 . S
C1472 C1453 1.368 . S
C1472 C1466 1.368 1_565 S
C1472 C1471 1.523 . S
C1473 C1457 1.429 1_445 S
C1473 C1469 1.429 . S
C1473 C1474 1.523 1_545 S
C1474 C1458 1.368 1_565 S
C1474 C1470 1.368 . S
C1474 C1473 1.523 1_565 S
H1475 C1450 0.950 . S
H1476 C1452 0.950 1_545 S
H1477 C1453 0.949 . S
H1478 C1455 0.950 . S
H1479 C1457 0.950 . S
C1480 C1481 1.349 . S
C1480 C1482 1.327 . S
C1480 H1505 0.950 . S
C1481 C1480 1.349 . S
C1481 C1497 1.349 . S
C1482 C1480 1.327 . S
C1482 C1501 1.429 . S
C1482 H1506 0.950 . S
C1483 C1500 1.574 . S
C1483 C1502 1.368 . S
C1483 H1507 0.949 . S
H1484 C1488 0.949 . S
C1485 C1486 1.349 . S
C1485 C1487 1.327 . S
C1485 H1508 0.950 . S
C1486 C1485 1.349 . S
C1486 C1498 1.349 . S
C1487 C1485 1.327 . S
C1487 C1503 1.429 . S
C1487 H1509 0.950 . S
C1488 H1484 0.949 . S
C1488 C1496 1.574 . S
C1488 C1504 1.368 . S
H1489 C1497 0.950 . S
H1490 C1495 0.950 . S
H1491 C1496 0.949 . S
H1492 C1498 0.950 . S
H1493 C1499 0.950 . S
H1494 C1500 0.949 . S
C1495 H1490 0.950 . S
C1495 C1497 1.327 . S
C1495 C1501 1.429 . S
C1496 C1488 1.574 . S
C1496 H1491 0.949 . S
C1496 C1502 1.368 . S
C1497 C1481 1.349 . S
C1497 H1489 0.950 . S
C1497 C1495 1.327 . S
C1498 C1486 1.349 . S
C1498 H1492 0.950 . S
C1498 C1499 1.327 . S
C1499 H1493 0.950 . S
C1499 C1498 1.327 . S
C1499 C1503 1.429 . S
C1500 C1483 1.574 . S
C1500 H1494 0.949 . S
C1500 C1504 1.368 . S
C1501 C1482 1.429 . S
C1501 C1495 1.429 . S
C1501 C1502 1.523 . S
C1502 C1483 1.368 . S
C1502 C1496 1.368 . S
C1502 C1501 1.523 . S
C1503 C1487 1.429 . S
C1503 C1499 1.429 . S
C1503 C1504 1.523 . S
C1504 C1488 1.368 . S
C1504 C1500 1.368 . S
C1504 C1503 1.523 . S
H1505 C1480 0.950 . S
H1506 C1482 0.950 . S
H1507 C1483 0.949 . S
H1508 C1485 0.950 . S
H1509 C1487 0.950 . S
C1510 C1511 1.349 . S
C1510 C1512 1.327 . S
C1510 H1535 0.950 . S
C1511 C1510 1.349 . S
C1511 C1527 1.349 . S
C1512 C1510 1.327 . S
C1512 C1531 1.429 . S
C1512 H1536 0.950 . S
C1513 C1530 1.574 . S
C1513 C1532 1.368 . S
C1513 H1537 0.949 . S
H1514 C1518 0.949 . S
C1515 C1516 1.349 . S
C1515 C1517 1.327 . S
C1515 H1538 0.950 . S
C1516 C1515 1.349 . S
C1516 C1528 1.349 . S
C1517 C1515 1.327 . S
C1517 C1533 1.429 . S
C1517 H1539 0.950 . S
C1518 H1514 0.949 . S
C1518 C1526 1.574 . S
C1518 C1534 1.368 . S
H1519 C1527 0.950 . S
H1520 C1525 0.950 . S
H1521 C1526 0.949 . S
H1522 C1528 0.950 . S
H1523 C1529 0.950 . S
H1524 C1530 0.949 . S
C1525 H1520 0.950 . S
C1525 C1527 1.327 . S
C1525 C1531 1.429 . S
C1526 C1518 1.574 . S
C1526 H1521 0.949 . S
C1526 C1532 1.368 . S
C1527 C1511 1.349 . S
C1527 H1519 0.950 . S
C1527 C1525 1.327 . S
C1528 C1516 1.349 . S
C1528 H1522 0.950 . S
C1528 C1529 1.327 . S
C1529 H1523 0.950 . S
C1529 C1528 1.327 . S
C1529 C1533 1.429 . S
C1530 C1513 1.574 . S
C1530 H1524 0.949 . S
C1530 C1534 1.368 . S
C1531 C1512 1.429 . S
C1531 C1525 1.429 . S
C1531 C1532 1.523 . S
C1532 C1513 1.368 . S
C1532 C1526 1.368 . S
C1532 C1531 1.523 . S
C1533 C1517 1.429 . S
C1533 C1529 1.429 . S
C1533 C1534 1.523 . S
C1534 C1518 1.368 . S
C1534 C1530 1.368 . S
C1534 C1533 1.523 . S
H1535 C1510 0.950 . S
H1536 C1512 0.950 . S
H1537 C1513 0.949 . S
H1538 C1515 0.950 . S
H1539 C1517 0.950 . S
C1540 C1541 1.349 . S
C1540 C1542 1.327 . S
C1540 H1565 0.950 . S
C1541 C1540 1.349 . S
C1541 C1557 1.349 . S
C1542 C1540 1.327 . S
C1542 C1561 1.429 . S
C1542 H1566 0.950 . S
C1543 C1560 1.574 . S
C1543 C1562 1.368 . S
C1543 H1567 0.949 . S
H1544 C1548 0.949 . S
C1545 C1546 1.349 . S
C1545 C1547 1.327 . S
C1545 H1568 0.950 . S
C1546 C1545 1.349 . S
C1546 C1558 1.349 . S
C1547 C1545 1.327 . S
C1547 C1563 1.429 . S
C1547 H1569 0.950 . S
C1548 H1544 0.949 . S
C1548 C1556 1.574 . S
C1548 C1564 1.368 . S
H1549 C1557 0.950 . S
H1550 C1555 0.950 . S
H1551 C1556 0.949 . S
H1552 C1558 0.950 . S
H1553 C1559 0.950 . S
H1554 C1560 0.949 . S
C1555 H1550 0.950 . S
C1555 C1557 1.327 . S
C1555 C1561 1.429 . S
C1556 C1548 1.574 . S
C1556 H1551 0.949 . S
C1556 C1562 1.368 . S
C1557 C1541 1.349 . S
C1557 H1549 0.950 . S
C1557 C1555 1.327 . S
C1558 C1546 1.349 . S
C1558 H1552 0.950 . S
C1558 C1559 1.327 . S
C1559 H1553 0.950 . S
C1559 C1558 1.327 . S
C1559 C1563 1.429 . S
C1560 C1543 1.574 . S
C1560 H1554 0.949 . S
C1560 C1564 1.368 . S
C1561 C1542 1.429 . S
C1561 C1555 1.429 . S
C1561 C1562 1.523 . S
C1562 C1543 1.368 . S
C1562 C1556 1.368 . S
C1562 C1561 1.523 . S
C1563 C1547 1.429 . S
C1563 C1559 1.429 . S
C1563 C1564 1.523 . S
C1564 C1548 1.368 . S
C1564 C1560 1.368 . S
C1564 C1563 1.523 . S
H1565 C1540 0.950 . S
H1566 C1542 0.950 . S
H1567 C1543 0.949 . S
H1568 C1545 0.950 . S
H1569 C1547 0.950 . S
C1570 C1571 1.349 . S
C1570 C1572 1.327 . S
C1570 H1595 0.950 . S
C1571 C1570 1.349 . S
C1571 C1587 1.349 . S
C1572 C1570 1.327 . S
C1572 C1591 1.429 . S
C1572 H1596 0.950 . S
C1573 C1590 1.574 . S
C1573 C1592 1.368 1_545 S
C1573 H1597 0.949 . S
H1574 C1578 0.949 . S
C1575 C1576 1.404 . S
C1575 C1577 1.327 . S
C1575 H1598 0.950 . S
C1576 C1575 1.404 . S
C1576 C1588 1.298 1_545 S
C1577 C1575 1.327 . S
C1577 C1593 1.429 1_545 S
C1577 H1599 0.950 . S
C1578 H1574 0.949 . S
C1578 C1586 1.574 . S
C1578 C1594 1.368 . S
H1579 C1587 0.914 1_545 S
H1580 C1585 0.950 1_545 S
H1581 C1586 0.949 . S
H1582 C1588 0.950 . S
H1583 C1589 0.950 . S
H1584 C1590 0.949 . S
C1585 H1580 0.950 1_565 S
C1585 C1587 1.327 . S
C1585 C1591 1.429 . S
C1586 C1578 1.574 . S
C1586 H1581 0.949 . S
C1586 C1592 1.368 . S
C1587 C1571 1.349 . S
C1587 H1579 0.914 1_565 S
C1587 C1585 1.327 . S
C1588 C1576 1.298 1_565 S
C1588 H1582 0.950 . S
C1588 C1589 1.327 . S
C1589 H1583 0.950 . S
C1589 C1588 1.327 . S
C1589 C1593 1.429 . S
C1590 C1573 1.574 . S
C1590 H1584 0.949 . S
C1590 C1594 1.368 1_545 S
C1591 C1572 1.429 . S
C1591 C1585 1.429 . S
C1591 C1592 1.523 . S
C1592 C1573 1.368 1_565 S
C1592 C1586 1.368 . S
C1592 C1591 1.523 . S
C1593 C1577 1.429 1_565 S
C1593 C1589 1.429 . S
C1593 C1594 1.523 . S
C1594 C1578 1.368 . S
C1594 C1590 1.368 1_565 S
C1594 C1593 1.523 . S
H1595 C1570 0.950 . S
H1596 C1572 0.950 . S
H1597 C1573 0.949 . S
H1598 C1575 0.950 . S
H1599 C1577 0.950 . S
C1600 C1601 1.349 . S
C1600 C1602 1.327 . S
C1600 H1625 0.950 . S
C1601 C1600 1.349 . S
C1601 C1617 1.349 . S
C1602 C1600 1.327 . S
C1602 C1621 1.429 . S
C1602 H1626 0.950 . S
C1603 C1620 1.574 . S
C1603 C1622 1.368 . S
C1603 H1627 0.949 . S
H1604 C1608 0.949 . S
C1605 C1606 1.349 . S
C1605 C1607 1.327 . S
C1605 H1628 0.950 . S
C1606 C1605 1.349 . S
C1606 C1618 1.349 . S
C1607 C1605 1.327 . S
C1607 C1623 1.429 . S
C1607 H1629 0.950 . S
C1608 H1604 0.949 . S
C1608 C1616 1.574 . S
C1608 C1624 1.368 . S
H1609 C1617 0.950 . S
H1610 C1615 0.950 . S
H1611 C1616 0.949 . S
H1612 C1618 0.950 . S
H1613 C1619 0.950 . S
H1614 C1620 0.949 . S
C1615 H1610 0.950 . S
C1615 C1617 1.327 . S
C1615 C1621 1.429 . S
C1616 C1608 1.574 . S
C1616 H1611 0.949 . S
C1616 C1622 1.368 . S
C1617 C1601 1.349 . S
C1617 H1609 0.950 . S
C1617 C1615 1.327 . S
C1618 C1606 1.349 . S
C1618 H1612 0.950 . S
C1618 C1619 1.327 . S
C1619 H1613 0.950 . S
C1619 C1618 1.327 . S
C1619 C1623 1.429 . S
C1620 C1603 1.574 . S
C1620 H1614 0.949 . S
C1620 C1624 1.368 . S
C1621 C1602 1.429 . S
C1621 C1615 1.429 . S
C1621 C1622 1.523 . S
C1622 C1603 1.368 . S
C1622 C1616 1.368 . S
C1622 C1621 1.523 . S
C1623 C1607 1.429 . S
C1623 C1619 1.429 . S
C1623 C1624 1.523 . S
C1624 C1608 1.368 . S
C1624 C1620 1.368 . S
C1624 C1623 1.523 . S
H1625 C1600 0.950 . S
H1626 C1602 0.950 . S
H1627 C1603 0.949 . S
H1628 C1605 0.950 . S
H1629 C1607 0.950 . S
C1630 C1631 1.349 . S
C1630 C1632 1.327 . S
C1630 H1655 0.950 . S
C1631 C1630 1.349 . S
C1631 C1647 1.349 . S
C1632 C1630 1.327 . S
C1632 C1651 1.429 . S
C1632 H1656 0.950 . S
C1633 C1650 1.574 . S
C1633 C1652 1.368 . S
C1633 H1657 0.949 . S
H1634 C1638 0.949 . S
C1635 C1636 1.349 . S
C1635 C1637 1.327 . S
C1635 H1658 0.950 . S
C1636 C1635 1.349 . S
C1636 C1648 1.349 . S
C1637 C1635 1.327 . S
C1637 C1653 1.429 . S
C1637 H1659 0.950 . S
C1638 H1634 0.949 . S
C1638 C1646 1.574 . S
C1638 C1654 1.368 . S
H1639 C1647 0.950 . S
H1640 C1645 0.950 . S
H1641 C1646 0.949 . S
H1642 C1648 0.950 . S
H1643 C1649 0.950 . S
H1644 C1650 0.949 . S
C1645 H1640 0.950 . S
C1645 C1647 1.327 . S
C1645 C1651 1.429 . S
C1646 C1638 1.574 . S
C1646 H1641 0.949 . S
C1646 C1652 1.368 . S
C1647 C1631 1.349 . S
C1647 H1639 0.950 . S
C1647 C1645 1.327 . S
C1648 C1636 1.349 . S
C1648 H1642 0.950 . S
C1648 C1649 1.327 . S
C1649 H1643 0.950 . S
C1649 C1648 1.327 . S
C1649 C1653 1.429 . S
C1650 C1633 1.574 . S
C1650 H1644 0.949 . S
C1650 C1654 1.368 . S
C1651 C1632 1.429 . S
C1651 C1645 1.429 . S
C1651 C1652 1.523 . S
C1652 C1633 1.368 . S
C1652 C1646 1.368 . S
C1652 C1651 1.523 . S
C1653 C1637 1.429 . S
C1653 C1649 1.429 . S
C1653 C1654 1.523 . S
C1654 C1638 1.368 . S
C1654 C1650 1.368 . S
C1654 C1653 1.523 . S
H1655 C1630 0.950 . S
H1656 C1632 0.950 . S
H1657 C1633 0.949 . S
H1658 C1635 0.950 . S
H1659 C1637 0.950 . S
C1660 C1661 1.349 . S
C1660 C1662 1.327 . S
C1660 H1685 0.950 . S
C1661 C1660 1.349 . S
C1661 C1677 1.349 . S
C1662 C1660 1.327 . S
C1662 C1681 1.429 . S
C1662 H1686 0.950 . S
C1663 C1680 1.574 . S
C1663 C1682 1.368 . S
C1663 H1687 0.949 . S
H1664 C1668 0.949 . S
C1665 C1666 1.349 . S
C1665 C1667 1.327 . S
C1665 H1688 0.950 . S
C1666 C1665 1.349 . S
C1666 C1678 1.349 . S
C1667 C1665 1.327 . S
C1667 C1683 1.429 . S
C1667 H1689 0.950 . S
C1668 H1664 0.949 . S
C1668 C1676 1.574 . S
C1668 C1684 1.368 . S
H1669 C1677 0.950 . S
H1670 C1675 0.950 . S
H1671 C1676 0.949 . S
H1672 C1678 0.950 . S
H1673 C1679 0.950 . S
H1674 C1680 0.949 . S
C1675 H1670 0.950 . S
C1675 C1677 1.327 . S
C1675 C1681 1.429 . S
C1676 C1668 1.574 . S
C1676 H1671 0.949 . S
C1676 C1682 1.368 . S
C1677 C1661 1.349 . S
C1677 H1669 0.950 . S
C1677 C1675 1.327 . S
C1678 C1666 1.349 . S
C1678 H1672 0.950 . S
C1678 C1679 1.327 . S
C1679 H1673 0.950 . S
C1679 C1678 1.327 . S
C1679 C1683 1.429 . S
C1680 C1663 1.574 . S
C1680 H1674 0.949 . S
C1680 C1684 1.368 . S
C1681 C1662 1.429 . S
C1681 C1675 1.429 . S
C1681 C1682 1.523 . S
C1682 C1663 1.368 . S
C1682 C1676 1.368 . S
C1682 C1681 1.523 . S
C1683 C1667 1.429 . S
C1683 C1679 1.429 . S
C1683 C1684 1.523 . S
C1684 C1668 1.368 . S
C1684 C1680 1.368 . S
C1684 C1683 1.523 . S
H1685 C1660 0.950 . S
H1686 C1662 0.950 . S
H1687 C1663 0.949 . S
H1688 C1665 0.950 . S
H1689 C1667 0.950 . S
C1690 C1691 1.349 . S
C1690 C1692 1.327 . S
C1690 H1715 0.950 . S
C1691 C1690 1.349 . S
C1691 C1707 1.349 . S
C1692 C1690 1.327 . S
C1692 C1711 1.429 . S
C1692 H1716 0.950 . S
C1693 C1710 1.574 . S
C1693 C1712 1.368 . S
C1693 H1717 0.949 . S
H1694 C1698 0.949 . S
C1695 C1696 1.349 . S
C1695 C1697 1.327 . S
C1695 H1718 0.950 . S
C1696 C1695 1.349 . S
C1696 C1708 1.349 . S
C1697 C1695 1.327 . S
C1697 C1713 1.429 . S
C1697 H1719 0.950 . S
C1698 H1694 0.949 . S
C1698 C1706 1.574 . S
C1698 C1714 1.368 . S
H1699 C1707 0.950 . S
H1700 C1705 0.950 . S
H1701 C1706 0.949 . S
H1702 C1708 0.950 . S
H1703 C1709 0.950 . S
H1704 C1710 0.949 . S
C1705 H1700 0.950 . S
C1705 C1707 1.327 . S
C1705 C1711 1.429 . S
C1706 C1698 1.574 . S
C1706 H1701 0.949 . S
C1706 C1712 1.368 . S
C1707 C1691 1.349 . S
C1707 H1699 0.950 . S
C1707 C1705 1.327 . S
C1708 C1696 1.349 . S
C1708 H1702 0.950 . S
C1708 C1709 1.327 . S
C1709 H1703 0.950 . S
C1709 C1708 1.327 . S
C1709 C1713 1.429 . S
C1710 C1693 1.574 . S
C1710 H1704 0.949 . S
C1710 C1714 1.368 . S
C1711 C1692 1.429 . S
C1711 C1705 1.429 . S
C1711 C1712 1.523 . S
C1712 C1693 1.368 . S
C1712 C1706 1.368 . S
C1712 C1711 1.523 . S
C1713 C1697 1.429 . S
C1713 C1709 1.429 . S
C1713 C1714 1.523 . S
C1714 C1698 1.368 . S
C1714 C1710 1.368 . S
C1714 C1713 1.523 . S
H1715 C1690 0.950 . S
H1716 C1692 0.950 . S
H1717 C1693 0.949 . S
H1718 C1695 0.950 . S
H1719 C1697 0.950 . S
C1720 C1721 1.349 . S
C1720 C1722 1.327 . S
C1720 H1745 0.950 . S
C1721 C1720 1.349 . S
C1721 C1737 1.349 . S
C1722 C1720 1.327 . S
C1722 C1741 1.429 . S
C1722 H1746 0.950 . S
C1723 C1740 1.574 . S
C1723 C1742 1.368 . S
C1723 H1747 0.949 . S
H1724 C1728 0.949 . S
C1725 C1726 1.349 . S
C1725 C1727 1.327 . S
C1725 H1748 0.950 . S
C1726 C1725 1.349 . S
C1726 C1738 1.349 . S
C1727 C1725 1.327 . S
C1727 C1743 1.429 . S
C1727 H1749 0.950 . S
C1728 H1724 0.949 . S
C1728 C1736 1.574 . S
C1728 C1744 1.368 . S
H1729 C1737 0.950 . S
H1730 C1735 0.950 . S
H1731 C1736 0.949 . S
H1732 C1738 0.950 . S
H1733 C1739 0.950 . S
H1734 C1740 0.949 . S
C1735 H1730 0.950 . S
C1735 C1737 1.327 . S
C1735 C1741 1.429 . S
C1736 C1728 1.574 . S
C1736 H1731 0.949 . S
C1736 C1742 1.368 . S
C1737 C1721 1.349 . S
C1737 H1729 0.950 . S
C1737 C1735 1.327 . S
C1738 C1726 1.349 . S
C1738 H1732 0.950 . S
C1738 C1739 1.327 . S
C1739 H1733 0.950 . S
C1739 C1738 1.327 . S
C1739 C1743 1.429 . S
C1740 C1723 1.574 . S
C1740 H1734 0.949 . S
C1740 C1744 1.368 . S
C1741 C1722 1.429 . S
C1741 C1735 1.429 . S
C1741 C1742 1.523 . S
C1742 C1723 1.368 . S
C1742 C1736 1.368 . S
C1742 C1741 1.523 . S
C1743 C1727 1.429 . S
C1743 C1739 1.429 . S
C1743 C1744 1.523 . S
C1744 C1728 1.368 . S
C1744 C1740 1.368 . S
C1744 C1743 1.523 . S
H1745 C1720 0.950 . S
H1746 C1722 0.950 . S
H1747 C1723 0.949 . S
H1748 C1725 0.950 . S
H1749 C1727 0.950 . S
C1750 C1751 1.349 . S
C1750 C1752 1.327 . S
C1750 H1775 0.950 . S
C1751 C1750 1.349 . S
C1751 C1767 1.349 . S
C1752 C1750 1.327 . S
C1752 C1771 1.429 . S
C1752 H1776 0.950 . S
C1753 C1770 1.574 . S
C1753 C1772 1.368 . S
C1753 H1777 0.949 . S
H1754 C1758 0.949 . S
C1755 C1756 1.349 . S
C1755 C1757 1.327 . S
C1755 H1778 0.950 . S
C1756 C1755 1.349 . S
C1756 C1768 1.349 . S
C1757 C1755 1.327 . S
C1757 C1773 1.429 . S
C1757 H1779 0.950 . S
C1758 H1754 0.949 . S
C1758 C1766 1.574 . S
C1758 C1774 1.368 . S
H1759 C1767 0.950 . S
H1760 C1765 0.950 . S
H1761 C1766 0.949 . S
H1762 C1768 0.950 . S
H1763 C1769 0.950 . S
H1764 C1770 0.949 . S
C1765 H1760 0.950 . S
C1765 C1767 1.327 . S
C1765 C1771 1.429 . S
C1766 C1758 1.574 . S
C1766 H1761 0.949 . S
C1766 C1772 1.368 . S
C1767 C1751 1.349 . S
C1767 H1759 0.950 . S
C1767 C1765 1.327 . S
C1768 C1756 1.349 . S
C1768 H1762 0.950 . S
C1768 C1769 1.327 . S
C1769 H1763 0.950 . S
C1769 C1768 1.327 . S
C1769 C1773 1.429 . S
C1770 C1753 1.574 . S
C1770 H1764 0.949 . S
C1770 C1774 1.368 . S
C1771 C1752 1.429 . S
C1771 C1765 1.429 . S
C1771 C1772 1.523 . S
C1772 C1753 1.368 . S
C1772 C1766 1.368 . S
C1772 C1771 1.523 . S
C1773 C1757 1.429 . S
C1773 C1769 1.429 . S
C1773 C1774 1.523 . S
C1774 C1758 1.368 . S
C1774 C1770 1.368 . S
C1774 C1773 1.523 . S
H1775 C1750 0.950 . S
H1776 C1752 0.950 . S
H1777 C1753 0.949 . S
H1778 C1755 0.950 . S
H1779 C1757 0.950 . S
C1780 C1781 1.349 . S
C1780 C1782 1.327 . S
C1780 H1805 0.950 . S
C1781 C1780 1.349 . S
C1781 C1797 1.349 . S
C1782 C1780 1.327 . S
C1782 C1801 1.429 . S
C1782 H1806 0.950 . S
C1783 C1800 1.574 . S
C1783 C1802 1.368 . S
C1783 H1807 0.949 . S
H1784 C1788 0.949 . S
C1785 C1786 1.349 . S
C1785 C1787 1.327 . S
C1785 H1808 0.950 . S
C1786 C1785 1.349 . S
C1786 C1798 1.349 . S
C1787 C1785 1.327 . S
C1787 C1803 1.429 . S
C1787 H1809 0.950 . S
C1788 H1784 0.949 . S
C1788 C1796 1.574 . S
C1788 C1804 1.368 . S
H1789 C1797 0.950 . S
H1790 C1795 0.950 . S
H1791 C1796 0.949 . S
H1792 C1798 0.950 . S
H1793 C1799 0.950 . S
H1794 C1800 0.949 . S
C1795 H1790 0.950 . S
C1795 C1797 1.327 . S
C1795 C1801 1.429 . S
C1796 C1788 1.574 . S
C1796 H1791 0.949 . S
C1796 C1802 1.368 . S
C1797 C1781 1.349 . S
C1797 H1789 0.950 . S
C1797 C1795 1.327 . S
C1798 C1786 1.349 . S
C1798 H1792 0.950 . S
C1798 C1799 1.327 . S
C1799 H1793 0.950 . S
C1799 C1798 1.327 . S
C1799 C1803 1.429 . S
C1800 C1783 1.574 . S
C1800 H1794 0.949 . S
C1800 C1804 1.368 . S
C1801 C1782 1.429 . S
C1801 C1795 1.429 . S
C1801 C1802 1.523 . S
C1802 C1783 1.368 . S
C1802 C1796 1.368 . S
C1802 C1801 1.523 . S
C1803 C1787 1.429 . S
C1803 C1799 1.429 . S
C1803 C1804 1.523 . S
C1804 C1788 1.368 . S
C1804 C1800 1.368 . S
C1804 C1803 1.523 . S
H1805 C1780 0.950 . S
H1806 C1782 0.950 . S
H1807 C1783 0.949 . S
H1808 C1785 0.950 . S
H1809 C1787 0.950 . S
C1810 C1811 1.349 . S
C1810 C1812 1.327 . S
C1810 H1835 0.950 . S
C1811 C1810 1.349 . S
C1811 C1827 1.349 . S
C1812 C1810 1.327 . S
C1812 C1831 1.429 . S
C1812 H1836 0.950 . S
C1813 C1830 1.574 . S
C1813 C1832 1.368 . S
C1813 H1837 0.949 . S
H1814 C1818 0.949 . S
C1815 C1816 1.349 . S
C1815 C1817 1.327 . S
C1815 H1838 0.950 . S
C1816 C1815 1.349 . S
C1816 C1828 1.349 . S
C1817 C1815 1.327 . S
C1817 C1833 1.429 . S
C1817 H1839 0.950 . S
C1818 H1814 0.949 . S
C1818 C1826 1.574 . S
C1818 C1834 1.368 . S
H1819 C1827 0.950 . S
H1820 C1825 0.950 . S
H1821 C1826 0.949 . S
H1822 C1828 0.950 . S
H1823 C1829 0.950 . S
H1824 C1830 0.949 . S
C1825 H1820 0.950 . S
C1825 C1827 1.327 . S
C1825 C1831 1.429 . S
C1826 C1818 1.574 . S
C1826 H1821 0.949 . S
C1826 C1832 1.368 . S
C1827 C1811 1.349 . S
C1827 H1819 0.950 . S
C1827 C1825 1.327 . S
C1828 C1816 1.349 . S
C1828 H1822 0.950 . S
C1828 C1829 1.327 . S
C1829 H1823 0.950 . S
C1829 C1828 1.327 . S
C1829 C1833 1.429 . S
C1830 C1813 1.574 . S
C1830 H1824 0.949 . S
C1830 C1834 1.368 . S
C1831 C1812 1.429 . S
C1831 C1825 1.429 . S
C1831 C1832 1.523 . S
C1832 C1813 1.368 . S
C1832 C1826 1.368 . S
C1832 C1831 1.523 . S
C1833 C1817 1.429 . S
C1833 C1829 1.429 . S
C1833 C1834 1.523 . S
C1834 C1818 1.368 . S
C1834 C1830 1.368 . S
C1834 C1833 1.523 . S
H1835 C1810 0.950 . S
H1836 C1812 0.950 . S
H1837 C1813 0.949 . S
H1838 C1815 0.950 . S
H1839 C1817 0.950 . S
C1840 C1841 1.349 . S
C1840 C1842 1.327 . S
C1840 H1865 0.950 . S
C1841 C1840 1.349 . S
C1841 C1857 1.349 . S
C1842 C1840 1.327 . S
C1842 C1861 1.429 . S
C1842 H1866 0.950 . S
C1843 C1860 1.574 . S
C1843 C1862 1.368 . S
C1843 H1867 0.949 . S
H1844 C1848 0.949 . S
C1845 C1846 1.349 . S
C1845 C1847 1.327 . S
C1845 H1868 0.950 . S
C1846 C1845 1.349 . S
C1846 C1858 1.349 . S
C1847 C1845 1.327 . S
C1847 C1863 1.429 . S
C1847 H1869 0.950 . S
C1848 H1844 0.949 . S
C1848 C1856 1.574 . S
C1848 C1864 1.368 . S
H1849 C1857 0.950 . S
H1850 C1855 0.950 . S
H1851 C1856 0.949 . S
H1852 C1858 0.950 . S
H1853 C1859 0.950 . S
H1854 C1860 0.949 . S
C1855 H1850 0.950 . S
C1855 C1857 1.327 . S
C1855 C1861 1.429 . S
C1856 C1848 1.574 . S
C1856 H1851 0.949 . S
C1856 C1862 1.368 . S
C1857 C1841 1.349 . S
C1857 H1849 0.950 . S
C1857 C1855 1.327 . S
C1858 C1846 1.349 . S
C1858 H1852 0.950 . S
C1858 C1859 1.327 . S
C1859 H1853 0.950 . S
C1859 C1858 1.327 . S
C1859 C1863 1.429 . S
C1860 C1843 1.574 . S
C1860 H1854 0.949 . S
C1860 C1864 1.368 . S
C1861 C1842 1.429 . S
C1861 C1855 1.429 . S
C1861 C1862 1.523 . S
C1862 C1843 1.368 . S
C1862 C1856 1.368 . S
C1862 C1861 1.523 . S
C1863 C1847 1.429 . S
C1863 C1859 1.429 . S
C1863 C1864 1.523 . S
C1864 C1848 1.368 . S
C1864 C1860 1.368 . S
C1864 C1863 1.523 . S
H1865 C1840 0.950 . S
H1866 C1842 0.950 . S
H1867 C1843 0.949 . S
H1868 C1845 0.950 . S
H1869 C1847 0.950 . S
C1870 C1871 1.349 . S
C1870 C1872 1.327 . S
C1870 H1895 0.950 . S
C1871 C1870 1.349 . S
C1871 C1887 1.349 . S
C1872 C1870 1.327 . S
C1872 C1891 1.429 . S
C1872 H1896 0.950 . S
C1873 C1890 1.574 . S
C1873 C1892 1.368 . S
C1873 H1897 0.949 . S
H1874 C1878 0.949 . S
C1875 C1876 1.349 . S
C1875 C1877 1.327 . S
C1875 H1898 0.950 . S
C1876 C1875 1.349 . S
C1876 C1888 1.349 . S
C1877 C1875 1.327 . S
C1877 C1893 1.429 . S
C1877 H1899 0.950 . S
C1878 H1874 0.949 . S
C1878 C1886 1.574 . S
C1878 C1894 1.368 . S
H1879 C1887 0.950 . S
H1880 C1885 0.950 . S
H1881 C1886 0.949 . S
H1882 C1888 0.950 . S
H1883 C1889 0.950 . S
H1884 C1890 0.949 . S
C1885 H1880 0.950 . S
C1885 C1887 1.327 . S
C1885 C1891 1.429 . S
C1886 C1878 1.574 . S
C1886 H1881 0.949 . S
C1886 C1892 1.368 . S
C1887 C1871 1.349 . S
C1887 H1879 0.950 . S
C1887 C1885 1.327 . S
C1888 C1876 1.349 . S
C1888 H1882 0.950 . S
C1888 C1889 1.327 . S
C1889 H1883 0.950 . S
C1889 C1888 1.327 . S
C1889 C1893 1.429 . S
C1890 C1873 1.574 . S
C1890 H1884 0.949 . S
C1890 C1894 1.368 . S
C1891 C1872 1.429 . S
C1891 C1885 1.429 . S
C1891 C1892 1.523 . S
C1892 C1873 1.368 . S
C1892 C1886 1.368 . S
C1892 C1891 1.523 . S
C1893 C1877 1.429 . S
C1893 C1889 1.429 . S
C1893 C1894 1.523 . S
C1894 C1878 1.368 . S
C1894 C1890 1.368 . S
C1894 C1893 1.523 . S
H1895 C1870 0.950 . S
H1896 C1872 0.950 . S
H1897 C1873 0.949 . S
H1898 C1875 0.950 . S
H1899 C1877 0.950 . S
C1900 C1901 1.349 . S
C1900 C1902 1.327 1_545 S
C1900 H1925 0.950 . S
C1901 C1900 1.349 . S
C1901 C1917 1.349 . S
C1902 C1900 1.327 1_565 S
C1902 C1921 1.429 1_565 S
C1902 H1926 0.950 . S
C1903 C1920 1.574 . S
C1903 C1922 1.368 1_554 S
C1903 H1927 0.949 1_565 S
H1904 C1908 0.949 . S
C1905 C1906 1.349 . S
C1905 C1907 1.327 . S
C1905 H1928 0.950 . S
C1906 C1905 1.349 . S
C1906 C1918 1.349 . S
C1907 C1905 1.327 . S
C1907 C1923 1.429 . S
C1907 H1929 0.950 . S
C1908 H1904 0.949 . S
C1908 C1916 1.574 . S
C1908 C1924 1.317 1_556 S
H1909 C1917 0.950 . S
H1910 C1915 0.959 . S
H1911 C1916 0.949 . S
H1912 C1918 0.968 . S
H1913 C1919 0.950 . S
H1914 C1920 0.949 . S
C1915 H1910 0.959 . S
C1915 C1917 1.327 . S
C1915 C1921 1.429 . S
C1916 C1908 1.574 . S
C1916 H1911 0.949 . S
C1916 C1922 1.368 . S
C1917 C1901 1.349 . S
C1917 H1909 0.950 . S
C1917 C1915 1.327 . S
C1918 C1906 1.349 . S
C1918 H1912 0.968 . S
C1918 C1919 1.327 1_554 S
C1919 H1913 0.950 . S
C1919 C1918 1.327 1_556 S
C1919 C1923 1.428 1_556 S
C1920 C1903 1.574 . S
C1920 H1914 0.949 . S
C1920 C1924 1.398 . S
C1921 C1902 1.429 1_545 S
C1921 C1915 1.429 . S
C1921 C1922 1.523 1_545 S
C1922 C1903 1.368 1_556 S
C1922 C1916 1.368 . S
C1922 C1921 1.523 1_565 S
C1923 C1907 1.429 . S
C1923 C1919 1.428 1_554 S
C1923 C1924 1.554 . S
C1924 C1908 1.317 1_554 S
C1924 C1920 1.398 . S
C1924 C1923 1.554 . S
H1925 C1900 0.950 . S
H1926 C1902 0.950 . S
H1927 C1903 0.949 1_545 S
H1928 C1905 0.950 . S
H1929 C1907 0.950 . S
C1930 C1931 1.349 . S
C1930 C1932 1.327 . S
C1930 H1955 0.950 . S
C1931 C1930 1.349 . S
C1931 C1947 1.349 . S
C1932 C1930 1.327 . S
C1932 C1951 1.429 . S
C1932 H1956 0.950 . S
C1933 C1950 1.574 . S
C1933 C1952 1.368 . S
C1933 H1957 0.949 . S
H1934 C1938 0.949 . S
C1935 C1936 1.349 . S
C1935 C1937 1.327 . S
C1935 H1958 0.950 . S
C1936 C1935 1.349 . S
C1936 C1948 1.349 . S
C1937 C1935 1.327 . S
C1937 C1953 1.429 . S
C1937 H1959 0.950 . S
C1938 H1934 0.949 . S
C1938 C1946 1.574 . S
C1938 C1954 1.368 . S
H1939 C1947 0.950 . S
H1940 C1945 0.950 . S
H1941 C1946 0.949 . S
H1942 C1948 0.950 . S
H1943 C1949 0.950 . S
H1944 C1950 0.949 . S
C1945 H1940 0.950 . S
C1945 C1947 1.327 . S
C1945 C1951 1.429 . S
C1946 C1938 1.574 . S
C1946 H1941 0.949 . S
C1946 C1952 1.368 . S
C1947 C1931 1.349 . S
C1947 H1939 0.950 . S
C1947 C1945 1.327 . S
C1948 C1936 1.349 . S
C1948 H1942 0.950 . S
C1948 C1949 1.327 . S
C1949 H1943 0.950 . S
C1949 C1948 1.327 . S
C1949 C1953 1.429 . S
C1950 C1933 1.574 . S
C1950 H1944 0.949 . S
C1950 C1954 1.368 . S
C1951 C1932 1.429 . S
C1951 C1945 1.429 . S
C1951 C1952 1.523 . S
C1952 C1933 1.368 . S
C1952 C1946 1.368 . S
C1952 C1951 1.523 . S
C1953 C1937 1.429 . S
C1953 C1949 1.429 . S
C1953 C1954 1.523 . S
C1954 C1938 1.368 . S
C1954 C1950 1.368 . S
C1954 C1953 1.523 . S
H1955 C1930 0.950 . S
H1956 C1932 0.950 . S
H1957 C1933 0.949 . S
H1958 C1935 0.950 . S
H1959 C1937 0.950 . S
C1960 C1961 1.349 . S
C1960 C1962 1.327 1_565 S
C1960 H1985 0.950 . S
C1961 C1960 1.349 . S
C1961 C1977 1.349 1_565 S
C1962 C1960 1.327 1_545 S
C1962 C1981 1.429 . S
C1962 H1986 0.950 . S
C1963 C1980 1.574 . S
C1963 C1982 1.368 . S
C1963 H1987 0.949 . S
H1964 C1968 0.949 . S
C1965 C1966 1.349 . S
C1965 C1967 1.327 . S
C1965 H1988 0.950 . S
C1966 C1965 1.349 . S
C1966 C1978 1.349 . S
C1967 C1965 1.327 . S
C1967 C1983 1.429 . S
C1967 H1989 0.950 . S
C1968 H1964 0.949 . S
C1968 C1976 1.574 . S
C1968 C1984 1.368 . S
H1969 C1977 0.950 . S
H1970 C1975 0.950 . S
H1971 C1976 0.949 . S
H1972 C1978 0.950 . S
H1973 C1979 0.950 . S
H1974 C1980 0.949 . S
C1975 H1970 0.950 . S
C1975 C1977 1.327 . S
C1975 C1981 1.429 . S
C1976 C1968 1.574 . S
C1976 H1971 0.949 . S
C1976 C1982 1.368 . S
C1977 C1961 1.349 1_545 S
C1977 H1969 0.950 . S
C1977 C1975 1.327 . S
C1978 C1966 1.349 . S
C1978 H1972 0.950 . S
C1978 C1979 1.327 . S
C1979 H1973 0.950 . S
C1979 C1978 1.327 . S
C1979 C1983 1.429 . S
C1980 C1963 1.574 . S
C1980 H1974 0.949 . S
C1980 C1984 1.368 . S
C1981 C1962 1.429 . S
C1981 C1975 1.429 . S
C1981 C1982 1.523 . S
C1982 C1963 1.368 . S
C1982 C1976 1.368 . S
C1982 C1981 1.523 . S
C1983 C1967 1.429 . S
C1983 C1979 1.429 . S
C1983 C1984 1.523 . S
C1984 C1968 1.368 . S
C1984 C1980 1.368 . S
C1984 C1983 1.523 . S
H1985 C1960 0.950 . S
H1986 C1962 0.950 . S
H1987 C1963 0.949 . S
H1988 C1965 0.950 . S
H1989 C1967 0.950 . S
C1990 C1991 1.349 . S
C1990 C1992 1.327 . S
C1990 H2015 0.950 . S
C1991 C1990 1.349 . S
C1991 C2007 1.349 . S
C1992 C1990 1.327 . S
C1992 C2011 1.429 . S
C1992 H2016 0.950 . S
C1993 C2010 1.574 . S
C1993 C2012 1.368 . S
C1993 H2017 0.949 . S
H1994 C1998 0.949 . S
C1995 C1996 1.349 . S
C1995 C1997 1.327 . S
C1995 H2018 0.950 . S
C1996 C1995 1.349 . S
C1996 C2008 1.349 . S
C1997 C1995 1.327 . S
C1997 C2013 1.429 . S
C1997 H2019 0.950 . S
C1998 H1994 0.949 . S
C1998 C2006 1.574 . S
C1998 C2014 1.368 . S
H1999 C2007 0.950 . S
H2000 C2005 0.950 . S
H2001 C2006 0.949 . S
H2002 C2008 0.950 . S
H2003 C2009 0.950 . S
H2004 C2010 0.949 . S
C2005 H2000 0.950 . S
C2005 C2007 1.327 . S
C2005 C2011 1.429 . S
C2006 C1998 1.574 . S
C2006 H2001 0.949 . S
C2006 C2012 1.368 . S
C2007 C1991 1.349 . S
C2007 H1999 0.950 . S
C2007 C2005 1.327 . S
C2008 C1996 1.349 . S
C2008 H2002 0.950 . S
C2008 C2009 1.327 . S
C2009 H2003 0.950 . S
C2009 C2008 1.327 . S
C2009 C2013 1.429 . S
C2010 C1993 1.574 . S
C2010 H2004 0.949 . S
C2010 C2014 1.368 . S
C2011 C1992 1.429 . S
C2011 C2005 1.429 . S
C2011 C2012 1.523 . S
C2012 C1993 1.368 . S
C2012 C2006 1.368 . S
C2012 C2011 1.523 . S
C2013 C1997 1.429 . S
C2013 C2009 1.429 . S
C2013 C2014 1.523 . S
C2014 C1998 1.368 . S
C2014 C2010 1.368 . S
C2014 C2013 1.523 . S
H2015 C1990 0.950 . S
H2016 C1992 0.950 . S
H2017 C1993 0.949 . S
H2018 C1995 0.950 . S
H2019 C1997 0.950 . S
C2020 C2021 1.349 . S
C2020 C2022 1.327 . S
C2020 H2045 0.950 1_545 S
C2021 C2020 1.349 . S
C2021 C2037 1.349 . S
C2022 C2020 1.327 . S
C2022 C2041 1.429 . S
C2022 H2046 0.950 . S
C2023 C2040 1.574 . S
C2023 C2042 1.368 . S
C2023 H2047 0.949 . S
H2024 C2028 0.949 . S
C2025 C2026 1.349 . S
C2025 C2027 1.327 . S
C2025 H2048 0.950 . S
C2026 C2025 1.349 . S
C2026 C2038 1.349 . S
C2027 C2025 1.327 . S
C2027 C2043 1.429 . S
C2027 H2049 0.950 . S
C2028 H2024 0.949 . S
C2028 C2036 1.574 . S
C2028 C2044 1.368 . S
H2029 C2037 0.950 . S
H2030 C2035 0.950 . S
H2031 C2036 0.949 . S
H2032 C2038 0.950 . S
H2033 C2039 0.950 . S
H2034 C2040 0.949 . S
C2035 H2030 0.950 . S
C2035 C2037 1.327 . S
C2035 C2041 1.429 . S
C2036 C2028 1.574 . S
C2036 H2031 0.949 . S
C2036 C2042 1.368 . S
C2037 C2021 1.349 . S
C2037 H2029 0.950 . S
C2037 C2035 1.327 . S
C2038 C2026 1.349 . S
C2038 H2032 0.950 . S
C2038 C2039 1.327 . S
C2039 H2033 0.950 . S
C2039 C2038 1.327 . S
C2039 C2043 1.429 . S
C2040 C2023 1.574 . S
C2040 H2034 0.949 . S
C2040 C2044 1.368 . S
C2041 C2022 1.429 . S
C2041 C2035 1.429 . S
C2041 C2042 1.523 . S
C2042 C2023 1.368 . S
C2042 C2036 1.368 . S
C2042 C2041 1.523 . S
C2043 C2027 1.429 . S
C2043 C2039 1.429 . S
C2043 C2044 1.523 . S
C2044 C2028 1.368 . S
C2044 C2040 1.368 . S
C2044 C2043 1.523 . S
H2045 C2020 0.950 1_565 S
H2046 C2022 0.950 . S
H2047 C2023 0.949 . S
H2048 C2025 0.950 . S
H2049 C2027 0.950 . S
C2050 C2051 1.349 . S
C2050 C2052 1.327 . S
C2050 H2075 0.950 . S
C2051 C2050 1.349 . S
C2051 C2067 1.349 . S
C2052 C2050 1.327 . S
C2052 C2071 1.429 . S
C2052 H2076 0.950 . S
C2053 C2070 1.574 . S
C2053 C2072 1.368 . S
C2053 H2077 0.949 . S
H2054 C2058 0.949 . S
C2055 C2056 1.349 . S
C2055 C2057 1.327 . S
C2055 H2078 0.950 . S
C2056 C2055 1.349 . S
C2056 C2068 1.349 . S
C2057 C2055 1.327 . S
C2057 C2073 1.429 . S
C2057 H2079 0.950 . S
C2058 H2054 0.949 . S
C2058 C2066 1.574 . S
C2058 C2074 1.368 . S
H2059 C2067 0.950 . S
H2060 C2065 0.950 . S
H2061 C2066 0.949 . S
H2062 C2068 0.950 . S
H2063 C2069 0.950 . S
H2064 C2070 0.949 . S
C2065 H2060 0.950 . S
C2065 C2067 1.327 . S
C2065 C2071 1.429 . S
C2066 C2058 1.574 . S
C2066 H2061 0.949 . S
C2066 C2072 1.368 . S
C2067 C2051 1.349 . S
C2067 H2059 0.950 . S
C2067 C2065 1.327 . S
C2068 C2056 1.349 . S
C2068 H2062 0.950 . S
C2068 C2069 1.327 . S
C2069 H2063 0.950 . S
C2069 C2068 1.327 . S
C2069 C2073 1.429 . S
C2070 C2053 1.574 . S
C2070 H2064 0.949 . S
C2070 C2074 1.368 . S
C2071 C2052 1.429 . S
C2071 C2065 1.429 . S
C2071 C2072 1.523 . S
C2072 C2053 1.368 . S
C2072 C2066 1.368 . S
C2072 C2071 1.523 . S
C2073 C2057 1.429 . S
C2073 C2069 1.429 . S
C2073 C2074 1.523 . S
C2074 C2058 1.368 . S
C2074 C2070 1.368 . S
C2074 C2073 1.523 . S
H2075 C2050 0.950 . S
H2076 C2052 0.950 . S
H2077 C2053 0.949 . S
H2078 C2055 0.950 . S
H2079 C2057 0.950 . S
C2080 C2081 1.349 . S
C2080 C2082 1.327 . S
C2080 H2105 0.950 . S
C2081 C2080 1.349 . S
C2081 C2097 1.349 . S
C2082 C2080 1.327 . S
C2082 C2101 1.429 . S
C2082 H2106 0.950 . S
C2083 C2100 1.574 . S
C2083 C2102 1.368 . S
C2083 H2107 0.949 . S
H2084 C2088 0.949 . S
C2085 C2086 1.349 . S
C2085 C2087 1.327 . S
C2085 H2108 0.950 . S
C2086 C2085 1.349 . S
C2086 C2098 1.349 . S
C2087 C2085 1.327 . S
C2087 C2103 1.429 . S
C2087 H2109 0.950 . S
C2088 H2084 0.949 . S
C2088 C2096 1.574 . S
C2088 C2104 1.368 . S
H2089 C2097 0.950 . S
H2090 C2095 0.950 . S
H2091 C2096 0.949 . S
H2092 C2098 0.950 . S
H2093 C2099 0.950 . S
H2094 C2100 0.949 . S
C2095 H2090 0.950 . S
C2095 C2097 1.327 . S
C2095 C2101 1.429 . S
C2096 C2088 1.574 . S
C2096 H2091 0.949 . S
C2096 C2102 1.368 . S
C2097 C2081 1.349 . S
C2097 H2089 0.950 . S
C2097 C2095 1.327 . S
C2098 C2086 1.349 . S
C2098 H2092 0.950 . S
C2098 C2099 1.327 . S
C2099 H2093 0.950 . S
C2099 C2098 1.327 . S
C2099 C2103 1.429 . S
C2100 C2083 1.574 . S
C2100 H2094 0.949 . S
C2100 C2104 1.368 . S
C2101 C2082 1.429 . S
C2101 C2095 1.429 . S
C2101 C2102 1.523 . S
C2102 C2083 1.368 . S
C2102 C2096 1.368 . S
C2102 C2101 1.523 . S
C2103 C2087 1.429 . S
C2103 C2099 1.429 . S
C2103 C2104 1.523 . S
C2104 C2088 1.368 . S
C2104 C2100 1.368 . S
C2104 C2103 1.523 . S
H2105 C2080 0.950 . S
H2106 C2082 0.950 . S
H2107 C2083 0.949 . S
H2108 C2085 0.950 . S
H2109 C2087 0.950 . S
C2110 C2111 1.349 . S
C2110 C2112 1.327 . S
C2110 H2135 0.950 . S
C2111 C2110 1.349 . S
C2111 C2127 1.349 . S
C2112 C2110 1.327 . S
C2112 C2131 1.429 . S
C2112 H2136 0.950 . S
C2113 C2130 1.574 . S
C2113 C2132 1.368 . S
C2113 H2137 0.949 . S
H2114 C2118 0.949 . S
C2115 C2116 1.349 . S
C2115 C2117 1.327 . S
C2115 H2138 0.950 . S
C2116 C2115 1.349 . S
C2116 C2128 1.349 . S
C2117 C2115 1.327 . S
C2117 C2133 1.429 . S
C2117 H2139 0.950 . S
C2118 H2114 0.949 . S
C2118 C2126 1.574 . S
C2118 C2134 1.368 . S
H2119 C2127 0.950 . S
H2120 C2125 0.950 . S
H2121 C2126 0.949 . S
H2122 C2128 0.950 . S
H2123 C2129 0.950 . S
H2124 C2130 0.949 . S
C2125 H2120 0.950 . S
C2125 C2127 1.327 . S
C2125 C2131 1.429 . S
C2126 C2118 1.574 . S
C2126 H2121 0.949 . S
C2126 C2132 1.368 . S
C2127 C2111 1.349 . S
C2127 H2119 0.950 . S
C2127 C2125 1.327 . S
C2128 C2116 1.349 . S
C2128 H2122 0.950 . S
C2128 C2129 1.327 . S
C2129 H2123 0.950 . S
C2129 C2128 1.327 . S
C2129 C2133 1.429 . S
C2130 C2113 1.574 . S
C2130 H2124 0.949 . S
C2130 C2134 1.368 . S
C2131 C2112 1.429 . S
C2131 C2125 1.429 . S
C2131 C2132 1.523 . S
C2132 C2113 1.368 . S
C2132 C2126 1.368 . S
C2132 C2131 1.523 . S
C2133 C2117 1.429 . S
C2133 C2129 1.429 . S
C2133 C2134 1.523 . S
C2134 C2118 1.368 . S
C2134 C2130 1.368 . S
C2134 C2133 1.523 . S
H2135 C2110 0.950 . S
H2136 C2112 0.950 . S
H2137 C2113 0.949 . S
H2138 C2115 0.950 . S
H2139 C2117 0.950 . S
C2140 C2141 1.349 . S
C2140 C2142 1.327 . S
C2140 H2165 0.950 . S
C2141 C2140 1.349 . S
C2141 C2157 1.349 . S
C2142 C2140 1.327 . S
C2142 C2161 1.429 . S
C2142 H2166 0.950 . S
C2143 C2160 1.574 . S
C2143 C2162 1.368 . S
C2143 H2167 0.949 . S
H2144 C2148 0.949 . S
C2145 C2146 1.349 . S
C2145 C2147 1.327 . S
C2145 H2168 0.950 . S
C2146 C2145 1.349 . S
C2146 C2158 1.349 . S
C2147 C2145 1.327 . S
C2147 C2163 1.429 . S
C2147 H2169 0.950 . S
C2148 H2144 0.949 . S
C2148 C2156 1.574 . S
C2148 C2164 1.368 . S
H2149 C2157 0.950 . S
H2150 C2155 0.950 . S
H2151 C2156 0.949 . S
H2152 C2158 0.950 . S
H2153 C2159 0.950 . S
H2154 C2160 0.949 . S
C2155 H2150 0.950 . S
C2155 C2157 1.327 . S
C2155 C2161 1.429 . S
C2156 C2148 1.574 . S
C2156 H2151 0.949 . S
C2156 C2162 1.368 . S
C2157 C2141 1.349 . S
C2157 H2149 0.950 . S
C2157 C2155 1.327 . S
C2158 C2146 1.349 . S
C2158 H2152 0.950 . S
C2158 C2159 1.327 . S
C2159 H2153 0.950 . S
C2159 C2158 1.327 . S
C2159 C2163 1.429 . S
C2160 C2143 1.574 . S
C2160 H2154 0.949 . S
C2160 C2164 1.368 . S
C2161 C2142 1.429 . S
C2161 C2155 1.429 . S
C2161 C2162 1.523 . S
C2162 C2143 1.368 . S
C2162 C2156 1.368 . S
C2162 C2161 1.523 . S
C2163 C2147 1.429 . S
C2163 C2159 1.429 . S
C2163 C2164 1.523 . S
C2164 C2148 1.368 . S
C2164 C2160 1.368 . S
C2164 C2163 1.523 . S
H2165 C2140 0.950 . S
H2166 C2142 0.950 . S
H2167 C2143 0.949 . S
H2168 C2145 0.950 . S
H2169 C2147 0.950 . S
C2170 C2171 1.349 . S
C2170 C2172 1.327 . S
C2170 H2195 0.950 . S
C2171 C2170 1.349 . S
C2171 C2187 1.349 . S
C2172 C2170 1.327 . S
C2172 C2191 1.429 . S
C2172 H2196 0.950 . S
C2173 C2190 1.574 . S
C2173 C2192 1.368 . S
C2173 H2197 0.949 . S
H2174 C2178 0.949 . S
C2175 C2176 1.349 . S
C2175 C2177 1.327 . S
C2175 H2198 0.950 . S
C2176 C2175 1.349 . S
C2176 C2188 1.349 . S
C2177 C2175 1.327 . S
C2177 C2193 1.429 . S
C2177 H2199 0.950 . S
C2178 H2174 0.949 . S
C2178 C2186 1.574 . S
C2178 C2194 1.368 . S
H2179 C2187 0.950 . S
H2180 C2185 0.950 . S
H2181 C2186 0.949 . S
H2182 C2188 0.950 . S
H2183 C2189 0.950 . S
H2184 C2190 0.949 . S
C2185 H2180 0.950 . S
C2185 C2187 1.327 . S
C2185 C2191 1.429 . S
C2186 C2178 1.574 . S
C2186 H2181 0.949 . S
C2186 C2192 1.368 . S
C2187 C2171 1.349 . S
C2187 H2179 0.950 . S
C2187 C2185 1.327 . S
C2188 C2176 1.349 . S
C2188 H2182 0.950 . S
C2188 C2189 1.327 . S
C2189 H2183 0.950 . S
C2189 C2188 1.327 . S
C2189 C2193 1.429 . S
C2190 C2173 1.574 . S
C2190 H2184 0.949 . S
C2190 C2194 1.368 . S
C2191 C2172 1.429 . S
C2191 C2185 1.429 . S
C2191 C2192 1.523 . S
C2192 C2173 1.368 . S
C2192 C2186 1.368 . S
C2192 C2191 1.523 . S
C2193 C2177 1.429 . S
C2193 C2189 1.429 . S
C2193 C2194 1.523 . S
C2194 C2178 1.368 . S
C2194 C2190 1.368 . S
C2194 C2193 1.523 . S
H2195 C2170 0.950 . S
H2196 C2172 0.950 . S
H2197 C2173 0.949 . S
H2198 C2175 0.950 . S
H2199 C2177 0.950 . S
C2200 C2201 1.349 . S
C2200 C2202 1.327 . S
C2200 H2225 0.950 . S
C2201 C2200 1.349 . S
C2201 C2217 1.349 . S
C2202 C2200 1.327 . S
C2202 C2221 1.429 . S
C2202 H2226 0.950 . S
C2203 C2220 1.574 . S
C2203 C2222 1.368 . S
C2203 H2227 0.949 . S
H2204 C2208 0.949 . S
C2205 C2206 1.349 . S
C2205 C2207 1.327 . S
C2205 H2228 0.950 . S
C2206 C2205 1.349 . S
C2206 C2218 1.349 . S
C2207 C2205 1.327 . S
C2207 C2223 1.429 . S
C2207 H2229 0.950 . S
C2208 H2204 0.949 . S
C2208 C2216 1.574 . S
C2208 C2224 1.368 . S
H2209 C2217 0.950 . S
H2210 C2215 0.950 . S
H2211 C2216 0.949 . S
H2212 C2218 0.950 . S
H2213 C2219 0.950 . S
H2214 C2220 0.949 . S
C2215 H2210 0.950 . S
C2215 C2217 1.327 . S
C2215 C2221 1.429 . S
C2216 C2208 1.574 . S
C2216 H2211 0.949 . S
C2216 C2222 1.368 . S
C2217 C2201 1.349 . S
C2217 H2209 0.950 . S
C2217 C2215 1.327 . S
C2218 C2206 1.349 . S
C2218 H2212 0.950 . S
C2218 C2219 1.327 . S
C2219 H2213 0.950 . S
C2219 C2218 1.327 . S
C2219 C2223 1.429 . S
C2220 C2203 1.574 . S
C2220 H2214 0.949 . S
C2220 C2224 1.368 . S
C2221 C2202 1.429 . S
C2221 C2215 1.429 . S
C2221 C2222 1.523 . S
C2222 C2203 1.368 . S
C2222 C2216 1.368 . S
C2222 C2221 1.523 . S
C2223 C2207 1.429 . S
C2223 C2219 1.429 . S
C2223 C2224 1.523 . S
C2224 C2208 1.368 . S
C2224 C2220 1.368 . S
C2224 C2223 1.523 . S
H2225 C2200 0.950 . S
H2226 C2202 0.950 . S
H2227 C2203 0.949 . S
H2228 C2205 0.950 . S
H2229 C2207 0.950 . S
C2230 C2231 1.349 . S
C2230 C2232 1.327 . S
C2230 H2255 0.950 . S
C2231 C2230 1.349 . S
C2231 C2247 1.349 . S
C2232 C2230 1.327 . S
C2232 C2251 1.429 . S
C2232 H2256 0.950 . S
C2233 C2250 1.574 1_455 S
C2233 C2252 1.368 . S
C2233 H2257 0.945 1_455 S
H2234 C2238 0.949 . S
C2235 C2236 1.349 . S
C2235 C2237 1.327 . S
C2235 H2258 0.950 . S
C2236 C2235 1.349 . S
C2236 C2248 1.349 . S
C2237 C2235 1.327 . S
C2237 C2253 1.429 . S
C2237 H2259 0.950 . S
C2238 H2234 0.949 . S
C2238 C2246 1.574 . S
C2238 C2254 1.368 . S
H2239 C2247 0.950 . S
H2240 C2245 0.950 . S
H2241 C2246 0.949 . S
H2242 C2248 0.952 1_455 S
H2243 C2249 0.950 . S
H2244 C2250 0.949 . S
C2245 H2240 0.950 . S
C2245 C2247 1.327 . S
C2245 C2251 1.429 . S
C2246 C2238 1.574 . S
C2246 H2241 0.949 . S
C2246 C2252 1.368 . S
C2247 C2231 1.349 . S
C2247 H2239 0.950 . S
C2247 C2245 1.327 . S
C2248 C2236 1.349 . S
C2248 H2242 0.952 1_655 S
C2248 C2249 1.327 1_655 S
C2249 H2243 0.950 . S
C2249 C2248 1.327 1_455 S
C2249 C2253 1.429 1_455 S
C2250 C2233 1.574 1_655 S
C2250 H2244 0.949 . S
C2250 C2254 1.368 1_655 S
C2251 C2232 1.429 . S
C2251 C2245 1.429 . S
C2251 C2252 1.523 . S
C2252 C2233 1.368 . S
C2252 C2246 1.368 . S
C2252 C2251 1.523 . S
C2253 C2237 1.429 . S
C2253 C2249 1.429 1_655 S
C2253 C2254 1.523 1_655 S
C2254 C2238 1.368 . S
C2254 C2250 1.368 1_455 S
C2254 C2253 1.523 1_455 S
H2255 C2230 0.950 . S
H2256 C2232 0.950 . S
H2257 C2233 0.945 1_655 S
H2258 C2235 0.950 . S
H2259 C2237 0.950 . S
C2260 C2261 1.349 . S
C2260 C2262 1.327 . S
C2260 H2285 0.950 . S
C2261 C2260 1.349 . S
C2261 C2277 1.349 . S
C2262 C2260 1.327 . S
C2262 C2281 1.429 . S
C2262 H2286 0.950 . S
C2263 C2280 1.574 . S
C2263 C2282 1.368 . S
C2263 H2287 0.949 . S
H2264 C2268 0.949 . S
C2265 C2266 1.349 . S
C2265 C2267 1.327 . S
C2265 H2288 0.950 . S
C2266 C2265 1.349 . S
C2266 C2278 1.349 . S
C2267 C2265 1.327 . S
C2267 C2283 1.429 . S
C2267 H2289 0.950 . S
C2268 H2264 0.949 . S
C2268 C2276 1.574 . S
C2268 C2284 1.368 . S
H2269 C2277 0.950 . S
H2270 C2275 0.950 . S
H2271 C2276 0.949 . S
H2272 C2278 0.950 . S
H2273 C2279 0.950 . S
H2274 C2280 0.949 . S
C2275 H2270 0.950 . S
C2275 C2277 1.327 . S
C2275 C2281 1.429 . S
C2276 C2268 1.574 . S
C2276 H2271 0.949 . S
C2276 C2282 1.368 . S
C2277 C2261 1.349 . S
C2277 H2269 0.950 . S
C2277 C2275 1.327 . S
C2278 C2266 1.349 . S
C2278 H2272 0.950 . S
C2278 C2279 1.327 . S
C2279 H2273 0.950 . S
C2279 C2278 1.327 . S
C2279 C2283 1.429 . S
C2280 C2263 1.574 . S
C2280 H2274 0.949 . S
C2280 C2284 1.368 . S
C2281 C2262 1.429 . S
C2281 C2275 1.429 . S
C2281 C2282 1.523 . S
C2282 C2263 1.368 . S
C2282 C2276 1.368 . S
C2282 C2281 1.523 . S
C2283 C2267 1.429 . S
C2283 C2279 1.429 . S
C2283 C2284 1.523 . S
C2284 C2268 1.368 . S
C2284 C2280 1.368 . S
C2284 C2283 1.523 . S
H2285 C2260 0.950 . S
H2286 C2262 0.950 . S
H2287 C2263 0.949 . S
H2288 C2265 0.950 . S
H2289 C2267 0.950 . S
C2290 C2291 1.349 . S
C2290 C2292 1.327 . S
C2290 H2315 0.950 . S
C2291 C2290 1.349 . S
C2291 C2307 1.349 . S
C2292 C2290 1.327 . S
C2292 C2311 1.429 . S
C2292 H2316 0.950 . S
C2293 C2310 1.574 . S
C2293 C2312 1.368 . S
C2293 H2317 0.949 . S
H2294 C2298 0.949 . S
C2295 C2296 1.349 . S
C2295 C2297 1.327 . S
C2295 H2318 0.950 . S
C2296 C2295 1.349 . S
C2296 C2308 1.349 . S
C2297 C2295 1.327 . S
C2297 C2313 1.429 . S
C2297 H2319 0.950 . S
C2298 H2294 0.949 . S
C2298 C2306 1.574 . S
C2298 C2314 1.368 . S
H2299 C2307 0.950 . S
H2300 C2305 0.950 . S
H2301 C2306 0.949 . S
H2302 C2308 0.950 . S
H2303 C2309 0.950 . S
H2304 C2310 0.949 . S
C2305 H2300 0.950 . S
C2305 C2307 1.327 . S
C2305 C2311 1.429 . S
C2306 C2298 1.574 . S
C2306 H2301 0.949 . S
C2306 C2312 1.368 . S
C2307 C2291 1.349 . S
C2307 H2299 0.950 . S
C2307 C2305 1.327 . S
C2308 C2296 1.349 . S
C2308 H2302 0.950 . S
C2308 C2309 1.327 . S
C2309 H2303 0.950 . S
C2309 C2308 1.327 . S
C2309 C2313 1.429 . S
C2310 C2293 1.574 . S
C2310 H2304 0.949 . S
C2310 C2314 1.368 . S
C2311 C2292 1.429 . S
C2311 C2305 1.429 . S
C2311 C2312 1.523 . S
C2312 C2293 1.368 . S
C2312 C2306 1.368 . S
C2312 C2311 1.523 . S
C2313 C2297 1.429 . S
C2313 C2309 1.429 . S
C2313 C2314 1.523 . S
C2314 C2298 1.368 . S
C2314 C2310 1.368 . S
C2314 C2313 1.523 . S
H2315 C2290 0.950 . S
H2316 C2292 0.950 . S
H2317 C2293 0.949 . S
H2318 C2295 0.950 . S
H2319 C2297 0.950 . S
C2320 C2321 1.349 . S
C2320 C2322 1.327 . S
C2320 H2345 0.950 . S
C2321 C2320 1.349 . S
C2321 C2337 1.349 . S
C2322 C2320 1.327 . S
C2322 C2341 1.429 . S
C2322 H2346 0.950 . S
C2323 C2340 1.574 . S
C2323 C2342 1.368 . S
C2323 H2347 0.949 . S
H2324 C2328 0.949 . S
C2325 C2326 1.349 . S
C2325 C2327 1.327 . S
C2325 H2348 0.950 . S
C2326 C2325 1.349 . S
C2326 C2338 1.349 . S
C2327 C2325 1.327 . S
C2327 C2343 1.429 . S
C2327 H2349 0.950 . S
C2328 H2324 0.949 . S
C2328 C2336 1.574 . S
C2328 C2344 1.368 . S
H2329 C2337 0.950 . S
H2330 C2335 0.950 . S
H2331 C2336 0.949 . S
H2332 C2338 0.950 . S
H2333 C2339 0.950 . S
H2334 C2340 0.949 . S
C2335 H2330 0.950 . S
C2335 C2337 1.327 . S
C2335 C2341 1.429 . S
C2336 C2328 1.574 . S
C2336 H2331 0.949 . S
C2336 C2342 1.368 . S
C2337 C2321 1.349 . S
C2337 H2329 0.950 . S
C2337 C2335 1.327 . S
C2338 C2326 1.349 . S
C2338 H2332 0.950 . S
C2338 C2339 1.327 . S
C2339 H2333 0.950 . S
C2339 C2338 1.327 . S
C2339 C2343 1.429 . S
C2340 C2323 1.574 . S
C2340 H2334 0.949 . S
C2340 C2344 1.368 . S
C2341 C2322 1.429 . S
C2341 C2335 1.429 . S
C2341 C2342 1.523 . S
C2342 C2323 1.368 . S
C2342 C2336 1.368 . S
C2342 C2341 1.523 . S
C2343 C2327 1.429 . S
C2343 C2339 1.429 . S
C2343 C2344 1.523 . S
C2344 C2328 1.368 . S
C2344 C2340 1.368 . S
C2344 C2343 1.523 . S
H2345 C2320 0.950 . S
H2346 C2322 0.950 . S
H2347 C2323 0.949 . S
H2348 C2325 0.950 . S
H2349 C2327 0.950 . S
C2350 C2351 1.349 . S
C2350 C2352 1.327 . S
C2350 H2375 0.950 . S
C2351 C2350 1.349 . S
C2351 C2367 1.349 1_455 S
C2352 C2350 1.327 . S
C2352 C2371 1.429 . S
C2352 H2376 0.950 . S
C2353 C2370 1.574 . S
C2353 C2372 1.368 1_655 S
C2353 H2377 0.949 . S
H2354 C2358 0.949 . S
C2355 C2356 1.349 1_655 S
C2355 C2357 1.327 . S
C2355 H2378 0.950 . S
C2356 C2355 1.349 1_455 S
C2356 C2368 1.349 . S
C2357 C2355 1.327 . S
C2357 C2373 1.429 1_655 S
C2357 H2379 0.950 . S
C2358 H2354 0.949 . S
C2358 C2366 1.574 . S
C2358 C2374 1.368 . S
H2359 C2367 0.950 . S
H2360 C2365 0.950 . S
H2361 C2366 0.949 . S
H2362 C2368 0.950 . S
H2363 C2369 0.950 . S
H2364 C2370 0.949 . S
C2365 H2360 0.950 . S
C2365 C2367 1.327 . S
C2365 C2371 1.429 1_655 S
C2366 C2358 1.574 . S
C2366 H2361 0.949 . S
C2366 C2372 1.368 . S
C2367 C2351 1.349 1_655 S
C2367 H2359 0.950 . S
C2367 C2365 1.327 . S
C2368 C2356 1.349 . S
C2368 H2362 0.950 . S
C2368 C2369 1.327 . S
C2369 H2363 0.950 . S
C2369 C2368 1.327 . S
C2369 C2373 1.429 . S
C2370 C2353 1.574 . S
C2370 H2364 0.949 . S
C2370 C2374 1.368 1_655 S
C2371 C2352 1.429 . S
C2371 C2365 1.429 1_455 S
C2371 C2372 1.523 . S
C2372 C2353 1.368 1_455 S
C2372 C2366 1.368 . S
C2372 C2371 1.523 . S
C2373 C2357 1.429 1_455 S
C2373 C2369 1.429 . S
C2373 C2374 1.523 . S
C2374 C2358 1.368 . S
C2374 C2370 1.368 1_455 S
C2374 C2373 1.523 . S
H2375 C2350 0.950 . S
H2376 C2352 0.950 . S
H2377 C2353 0.949 . S
H2378 C2355 0.950 . S
H2379 C2357 0.950 . S
C2380 C2381 1.349 . S
C2380 C2382 1.327 . S
C2380 H2405 0.950 . S
C2381 C2380 1.349 . S
C2381 C2397 1.349 . S
C2382 C2380 1.327 . S
C2382 C2401 1.429 . S
C2382 H2406 0.950 . S
C2383 C2400 1.574 . S
C2383 C2402 1.368 . S
C2383 H2407 0.949 . S
H2384 C2388 0.949 . S
C2385 C2386 1.349 . S
C2385 C2387 1.327 . S
C2385 H2408 0.950 . S
C2386 C2385 1.349 . S
C2386 C2398 1.349 . S
C2387 C2385 1.327 . S
C2387 C2403 1.429 . S
C2387 H2409 0.950 . S
C2388 H2384 0.949 . S
C2388 C2396 1.574 . S
C2388 C2404 1.368 . S
H2389 C2397 0.950 . S
H2390 C2395 0.950 . S
H2391 C2396 0.949 . S
H2392 C2398 0.950 . S
H2393 C2399 0.950 . S
H2394 C2400 0.949 . S
C2395 H2390 0.950 . S
C2395 C2397 1.327 . S
C2395 C2401 1.429 . S
C2396 C2388 1.574 . S
C2396 H2391 0.949 . S
C2396 C2402 1.368 . S
C2397 C2381 1.349 . S
C2397 H2389 0.950 . S
C2397 C2395 1.327 . S
C2398 C2386 1.349 . S
C2398 H2392 0.950 . S
C2398 C2399 1.327 . S
C2399 H2393 0.950 . S
C2399 C2398 1.327 . S
C2399 C2403 1.429 . S
C2400 C2383 1.574 . S
C2400 H2394 0.949 . S
C2400 C2404 1.368 . S
C2401 C2382 1.429 . S
C2401 C2395 1.429 . S
C2401 C2402 1.523 . S
C2402 C2383 1.368 . S
C2402 C2396 1.368 . S
C2402 C2401 1.523 . S
C2403 C2387 1.429 . S
C2403 C2399 1.429 . S
C2403 C2404 1.523 . S
C2404 C2388 1.368 . S
C2404 C2400 1.368 . S
C2404 C2403 1.523 . S
H2405 C2380 0.950 . S
H2406 C2382 0.950 . S
H2407 C2383 0.949 . S
H2408 C2385 0.950 . S
H2409 C2387 0.950 . S
C2410 C2411 1.349 . S
C2410 C2412 1.327 . S
C2410 H2435 0.950 . S
C2411 C2410 1.349 . S
C2411 C2427 1.349 1_556 S
C2412 C2410 1.327 . S
C2412 C2431 1.429 . S
C2412 H2436 0.950 . S
C2413 C2430 1.574 . S
C2413 C2432 1.368 . S
C2413 H2437 0.949 . S
H2414 C2418 0.949 . S
C2415 C2416 1.349 . S
C2415 C2417 1.327 . S
C2415 H2438 0.950 . S
C2416 C2415 1.349 . S
C2416 C2428 1.349 . S
C2417 C2415 1.327 . S
C2417 C2433 1.429 . S
C2417 H2439 0.950 . S
C2418 H2414 0.949 . S
C2418 C2426 1.574 . S
C2418 C2434 1.368 . S
H2419 C2427 0.950 . S
H2420 C2425 0.950 . S
H2421 C2426 0.949 . S
H2422 C2428 0.950 . S
H2423 C2429 0.950 . S
H2424 C2430 0.949 . S
C2425 H2420 0.950 . S
C2425 C2427 1.327 1_556 S
C2425 C2431 1.429 . S
C2426 C2418 1.574 . S
C2426 H2421 0.949 . S
C2426 C2432 1.368 . S
C2427 C2411 1.349 1_554 S
C2427 H2419 0.950 . S
C2427 C2425 1.327 1_554 S
C2428 C2416 1.349 . S
C2428 H2422 0.950 . S
C2428 C2429 1.327 . S
C2429 H2423 0.950 . S
C2429 C2428 1.327 . S
C2429 C2433 1.429 . S
C2430 C2413 1.574 . S
C2430 H2424 0.949 . S
C2430 C2434 1.368 . S
C2431 C2412 1.429 . S
C2431 C2425 1.429 . S
C2431 C2432 1.523 . S
C2432 C2413 1.368 . S
C2432 C2426 1.368 . S
C2432 C2431 1.523 . S
C2433 C2417 1.429 . S
C2433 C2429 1.429 . S
C2433 C2434 1.523 . S
C2434 C2418 1.368 . S
C2434 C2430 1.368 . S
C2434 C2433 1.523 . S
H2435 C2410 0.950 . S
H2436 C2412 0.950 . S
H2437 C2413 0.949 . S
H2438 C2415 0.950 . S
H2439 C2417 0.950 . S
C2440 C2441 1.349 . S
C2440 C2442 1.327 . S
C2440 H2465 0.950 . S
C2441 C2440 1.349 . S
C2441 C2457 1.349 . S
C2442 C2440 1.327 . S
C2442 C2461 1.429 . S
C2442 H2466 0.950 . S
C2443 C2460 1.574 . S
C2443 C2462 1.368 . S
C2443 H2467 0.949 . S
H2444 C2448 0.949 . S
C2445 C2446 1.349 . S
C2445 C2447 1.327 . S
C2445 H2468 0.950 . S
C2446 C2445 1.349 . S
C2446 C2458 1.349 . S
C2447 C2445 1.327 . S
C2447 C2463 1.429 . S
C2447 H2469 0.950 . S
C2448 H2444 0.949 . S
C2448 C2456 1.574 . S
C2448 C2464 1.368 . S
H2449 C2457 0.950 . S
H2450 C2455 0.950 . S
H2451 C2456 0.949 . S
H2452 C2458 0.950 . S
H2453 C2459 0.950 . S
H2454 C2460 0.949 . S
C2455 H2450 0.950 . S
C2455 C2457 1.327 . S
C2455 C2461 1.429 . S
C2456 C2448 1.574 . S
C2456 H2451 0.949 . S
C2456 C2462 1.368 . S
C2457 C2441 1.349 . S
C2457 H2449 0.950 . S
C2457 C2455 1.327 . S
C2458 C2446 1.349 . S
C2458 H2452 0.950 . S
C2458 C2459 1.327 . S
C2459 H2453 0.950 . S
C2459 C2458 1.327 . S
C2459 C2463 1.429 . S
C2460 C2443 1.574 . S
C2460 H2454 0.949 . S
C2460 C2464 1.368 . S
C2461 C2442 1.429 . S
C2461 C2455 1.429 . S
C2461 C2462 1.523 . S
C2462 C2443 1.368 . S
C2462 C2456 1.368 . S
C2462 C2461 1.523 . S
C2463 C2447 1.429 . S
C2463 C2459 1.429 . S
C2463 C2464 1.523 . S
C2464 C2448 1.368 . S
C2464 C2460 1.368 . S
C2464 C2463 1.523 . S
H2465 C2440 0.950 . S
H2466 C2442 0.950 . S
H2467 C2443 0.949 . S
H2468 C2445 0.950 . S
H2469 C2447 0.950 . S
C2470 C2471 1.349 . S
C2470 C2472 1.327 . S
C2470 H2495 0.950 . S
C2471 C2470 1.349 . S
C2471 C2487 1.349 . S
C2472 C2470 1.327 . S
C2472 C2491 1.429 . S
C2472 H2496 0.950 . S
C2473 C2490 1.574 . S
C2473 C2492 1.368 . S
C2473 H2497 0.949 . S
H2474 C2478 0.949 . S
C2475 C2476 1.349 . S
C2475 C2477 1.327 . S
C2475 H2498 0.950 . S
C2476 C2475 1.349 . S
C2476 C2488 1.349 . S
C2477 C2475 1.327 . S
C2477 C2493 1.429 . S
C2477 H2499 0.950 . S
C2478 H2474 0.949 . S
C2478 C2486 1.574 . S
C2478 C2494 1.368 . S
H2479 C2487 0.950 . S
H2480 C2485 0.950 . S
H2481 C2486 0.949 . S
H2482 C2488 0.950 . S
H2483 C2489 0.950 . S
H2484 C2490 0.949 . S
C2485 H2480 0.950 . S
C2485 C2487 1.327 . S
C2485 C2491 1.429 . S
C2486 C2478 1.574 . S
C2486 H2481 0.949 . S
C2486 C2492 1.368 . S
C2487 C2471 1.349 . S
C2487 H2479 0.950 . S
C2487 C2485 1.327 . S
C2488 C2476 1.349 . S
C2488 H2482 0.950 . S
C2488 C2489 1.327 . S
C2489 H2483 0.950 . S
C2489 C2488 1.327 . S
C2489 C2493 1.429 . S
C2490 C2473 1.574 . S
C2490 H2484 0.949 . S
C2490 C2494 1.368 . S
C2491 C2472 1.429 . S
C2491 C2485 1.429 . S
C2491 C2492 1.523 . S
C2492 C2473 1.368 . S
C2492 C2486 1.368 . S
C2492 C2491 1.523 . S
C2493 C2477 1.429 . S
C2493 C2489 1.429 . S
C2493 C2494 1.523 . S
C2494 C2478 1.368 . S
C2494 C2490 1.368 . S
C2494 C2493 1.523 . S
H2495 C2470 0.950 . S
H2496 C2472 0.950 . S
H2497 C2473 0.949 . S
H2498 C2475 0.950 . S
H2499 C2477 0.950 . S
C2500 C2501 1.349 . S
C2500 C2502 1.327 . S
C2500 H2525 0.950 . S
C2501 C2500 1.349 . S
C2501 C2517 1.349 . S
C2502 C2500 1.327 . S
C2502 C2521 1.429 . S
C2502 H2526 0.950 . S
C2503 C2520 1.574 . S
C2503 C2522 1.368 . S
C2503 H2527 0.949 . S
H2504 C2508 0.949 . S
C2505 C2506 1.349 . S
C2505 C2507 1.327 . S
C2505 H2528 0.950 . S
C2506 C2505 1.349 . S
C2506 C2518 1.349 . S
C2507 C2505 1.327 . S
C2507 C2523 1.429 . S
C2507 H2529 0.950 . S
C2508 H2504 0.949 . S
C2508 C2516 1.574 . S
C2508 C2524 1.368 . S
H2509 C2517 0.950 . S
H2510 C2515 0.950 . S
H2511 C2516 0.949 . S
H2512 C2518 0.950 . S
H2513 C2519 0.950 . S
H2514 C2520 0.949 . S
C2515 H2510 0.950 . S
C2515 C2517 1.327 . S
C2515 C2521 1.429 . S
C2516 C2508 1.574 . S
C2516 H2511 0.949 . S
C2516 C2522 1.368 . S
C2517 C2501 1.349 . S
C2517 H2509 0.950 . S
C2517 C2515 1.327 . S
C2518 C2506 1.349 . S
C2518 H2512 0.950 . S
C2518 C2519 1.327 . S
C2519 H2513 0.950 . S
C2519 C2518 1.327 . S
C2519 C2523 1.429 . S
C2520 C2503 1.574 . S
C2520 H2514 0.949 . S
C2520 C2524 1.368 . S
C2521 C2502 1.429 . S
C2521 C2515 1.429 . S
C2521 C2522 1.523 . S
C2522 C2503 1.368 . S
C2522 C2516 1.368 . S
C2522 C2521 1.523 . S
C2523 C2507 1.429 . S
C2523 C2519 1.429 . S
C2523 C2524 1.523 . S
C2524 C2508 1.368 . S
C2524 C2520 1.368 . S
C2524 C2523 1.523 . S
H2525 C2500 0.950 . S
H2526 C2502 0.950 . S
H2527 C2503 0.949 . S
H2528 C2505 0.950 . S
H2529 C2507 0.950 . S
C2530 C2531 1.349 . S
C2530 C2532 1.327 1_556 S
C2530 H2555 0.950 . S
C2531 C2530 1.349 . S
C2531 C2547 1.349 . S
C2532 C2530 1.327 1_554 S
C2532 C2551 1.429 . S
C2532 H2556 0.950 . S
C2533 C2550 1.574 . S
C2533 C2552 1.368 . S
C2533 H2557 0.949 . S
H2534 C2538 0.949 . S
C2535 C2536 1.349 . S
C2535 C2537 1.327 . S
C2535 H2558 0.950 . S
C2536 C2535 1.349 . S
C2536 C2548 1.349 . S
C2537 C2535 1.327 . S
C2537 C2553 1.429 . S
C2537 H2559 0.950 . S
C2538 H2534 0.949 . S
C2538 C2546 1.574 . S
C2538 C2554 1.368 . S
H2539 C2547 0.950 . S
H2540 C2545 0.950 . S
H2541 C2546 0.949 . S
H2542 C2548 0.950 . S
H2543 C2549 0.950 . S
H2544 C2550 0.949 . S
C2545 H2540 0.950 . S
C2545 C2547 1.327 . S
C2545 C2551 1.429 1_556 S
C2546 C2538 1.574 . S
C2546 H2541 0.949 . S
C2546 C2552 1.368 . S
C2547 C2531 1.349 . S
C2547 H2539 0.950 . S
C2547 C2545 1.327 . S
C2548 C2536 1.349 . S
C2548 H2542 0.950 . S
C2548 C2549 1.327 . S
C2549 H2543 0.950 . S
C2549 C2548 1.327 . S
C2549 C2553 1.429 . S
C2550 C2533 1.574 . S
C2550 H2544 0.949 . S
C2550 C2554 1.368 . S
C2551 C2532 1.429 . S
C2551 C2545 1.429 1_554 S
C2551 C2552 1.523 . S
C2552 C2533 1.368 . S
C2552 C2546 1.368 . S
C2552 C2551 1.523 . S
C2553 C2537 1.429 . S
C2553 C2549 1.429 . S
C2553 C2554 1.523 . S
C2554 C2538 1.368 . S
C2554 C2550 1.368 . S
C2554 C2553 1.523 . S
H2555 C2530 0.950 . S
H2556 C2532 0.950 . S
H2557 C2533 0.949 . S
H2558 C2535 0.950 . S
H2559 C2537 0.950 . S
C2560 C2561 1.349 . S
C2560 C2562 1.327 . S
C2560 H2585 0.950 . S
C2561 C2560 1.349 . S
C2561 C2577 1.349 . S
C2562 C2560 1.327 . S
C2562 C2581 1.429 . S
C2562 H2586 0.950 . S
C2563 C2580 1.574 . S
C2563 C2582 1.368 . S
C2563 H2587 0.949 . S
H2564 C2568 0.949 . S
C2565 C2566 1.349 . S
C2565 C2567 1.327 . S
C2565 H2588 0.950 . S
C2566 C2565 1.349 . S
C2566 C2578 1.349 . S
C2567 C2565 1.327 . S
C2567 C2583 1.429 . S
C2567 H2589 0.950 . S
C2568 H2564 0.949 . S
C2568 C2576 1.574 . S
C2568 C2584 1.368 . S
H2569 C2577 0.950 . S
H2570 C2575 0.950 . S
H2571 C2576 0.949 . S
H2572 C2578 0.950 . S
H2573 C2579 0.950 . S
H2574 C2580 0.949 . S
C2575 H2570 0.950 . S
C2575 C2577 1.327 . S
C2575 C2581 1.429 . S
C2576 C2568 1.574 . S
C2576 H2571 0.949 . S
C2576 C2582 1.368 . S
C2577 C2561 1.349 . S
C2577 H2569 0.950 . S
C2577 C2575 1.327 . S
C2578 C2566 1.349 . S
C2578 H2572 0.950 . S
C2578 C2579 1.327 . S
C2579 H2573 0.950 . S
C2579 C2578 1.327 . S
C2579 C2583 1.429 . S
C2580 C2563 1.574 . S
C2580 H2574 0.949 . S
C2580 C2584 1.368 . S
C2581 C2562 1.429 . S
C2581 C2575 1.429 . S
C2581 C2582 1.523 . S
C2582 C2563 1.368 . S
C2582 C2576 1.368 . S
C2582 C2581 1.523 . S
C2583 C2567 1.429 . S
C2583 C2579 1.429 . S
C2583 C2584 1.523 . S
C2584 C2568 1.368 . S
C2584 C2580 1.368 . S
C2584 C2583 1.523 . S
H2585 C2560 0.950 . S
H2586 C2562 0.950 . S
H2587 C2563 0.949 . S
H2588 C2565 0.950 . S
H2589 C2567 0.950 . S
C2590 C2591 1.349 . S
C2590 C2592 1.327 . S
C2590 H2615 0.950 . S
C2591 C2590 1.349 . S
C2591 C2607 1.349 . S
C2592 C2590 1.327 . S
C2592 C2611 1.429 . S
C2592 H2616 0.950 . S
C2593 C2610 1.574 . S
C2593 C2612 1.368 . S
C2593 H2617 0.949 . S
H2594 C2598 0.949 . S
C2595 C2596 1.349 . S
C2595 C2597 1.327 . S
C2595 H2618 0.950 . S
C2596 C2595 1.349 . S
C2596 C2608 1.349 . S
C2597 C2595 1.327 . S
C2597 C2613 1.429 . S
C2597 H2619 0.950 . S
C2598 H2594 0.949 . S
C2598 C2606 1.574 . S
C2598 C2614 1.368 . S
H2599 C2607 0.950 . S
H2600 C2605 0.950 . S
H2601 C2606 0.949 . S
H2602 C2608 0.950 . S
H2603 C2609 0.950 . S
H2604 C2610 0.949 . S
C2605 H2600 0.950 . S
C2605 C2607 1.327 . S
C2605 C2611 1.429 . S
C2606 C2598 1.574 . S
C2606 H2601 0.949 . S
C2606 C2612 1.368 . S
C2607 C2591 1.349 . S
C2607 H2599 0.950 . S
C2607 C2605 1.327 . S
C2608 C2596 1.349 . S
C2608 H2602 0.950 . S
C2608 C2609 1.327 . S
C2609 H2603 0.950 . S
C2609 C2608 1.327 . S
C2609 C2613 1.429 . S
C2610 C2593 1.574 . S
C2610 H2604 0.949 . S
C2610 C2614 1.368 . S
C2611 C2592 1.429 . S
C2611 C2605 1.429 . S
C2611 C2612 1.523 . S
C2612 C2593 1.368 . S
C2612 C2606 1.368 . S
C2612 C2611 1.523 . S
C2613 C2597 1.429 . S
C2613 C2609 1.429 . S
C2613 C2614 1.523 . S
C2614 C2598 1.368 . S
C2614 C2610 1.368 . S
C2614 C2613 1.523 . S
H2615 C2590 0.950 . S
H2616 C2592 0.950 . S
H2617 C2593 0.949 . S
H2618 C2595 0.950 . S
H2619 C2597 0.950 . S
C2620 C2621 1.349 . S
C2620 C2622 1.327 . S
C2620 H2645 0.950 . S
C2621 C2620 1.349 . S
C2621 C2637 1.349 . S
C2622 C2620 1.327 . S
C2622 C2641 1.429 . S
C2622 H2646 0.950 . S
C2623 C2640 1.574 . S
C2623 C2642 1.368 . S
C2623 H2647 0.949 . S
H2624 C2628 0.949 . S
C2625 C2626 1.349 . S
C2625 C2627 1.327 . S
C2625 H2648 0.950 . S
C2626 C2625 1.349 . S
C2626 C2638 1.349 . S
C2627 C2625 1.327 . S
C2627 C2643 1.429 . S
C2627 H2649 0.950 . S
C2628 H2624 0.949 . S
C2628 C2636 1.574 . S
C2628 C2644 1.368 . S
H2629 C2637 0.950 . S
H2630 C2635 0.950 . S
H2631 C2636 0.949 . S
H2632 C2638 0.950 . S
H2633 C2639 0.950 . S
H2634 C2640 0.949 . S
C2635 H2630 0.950 . S
C2635 C2637 1.327 . S
C2635 C2641 1.429 . S
C2636 C2628 1.574 . S
C2636 H2631 0.949 . S
C2636 C2642 1.368 . S
C2637 C2621 1.349 . S
C2637 H2629 0.950 . S
C2637 C2635 1.327 . S
C2638 C2626 1.349 . S
C2638 H2632 0.950 . S
C2638 C2639 1.327 . S
C2639 H2633 0.950 . S
C2639 C2638 1.327 . S
C2639 C2643 1.429 . S
C2640 C2623 1.574 . S
C2640 H2634 0.949 . S
C2640 C2644 1.368 . S
C2641 C2622 1.429 . S
C2641 C2635 1.429 . S
C2641 C2642 1.523 . S
C2642 C2623 1.368 . S
C2642 C2636 1.368 . S
C2642 C2641 1.523 . S
C2643 C2627 1.429 . S
C2643 C2639 1.429 . S
C2643 C2644 1.523 . S
C2644 C2628 1.368 . S
C2644 C2640 1.368 . S
C2644 C2643 1.523 . S
H2645 C2620 0.950 . S
H2646 C2622 0.950 . S
H2647 C2623 0.949 . S
H2648 C2625 0.950 . S
H2649 C2627 0.950 . S
C2650 C2651 1.349 . S
C2650 C2652 1.327 . S
C2650 H2675 0.950 . S
C2651 C2650 1.349 . S
C2651 C2667 1.349 . S
C2652 C2650 1.327 . S
C2652 C2671 1.429 . S
C2652 H2676 0.950 . S
C2653 C2670 1.574 . S
C2653 C2672 1.368 . S
C2653 H2677 0.949 . S
H2654 C2658 0.949 . S
C2655 C2656 1.349 . S
C2655 C2657 1.327 . S
C2655 H2678 0.950 . S
C2656 C2655 1.349 . S
C2656 C2668 1.349 . S
C2657 C2655 1.327 . S
C2657 C2673 1.429 . S
C2657 H2679 0.950 . S
C2658 H2654 0.949 . S
C2658 C2666 1.574 . S
C2658 C2674 1.368 . S
H2659 C2667 0.950 . S
H2660 C2665 0.950 . S
H2661 C2666 0.949 . S
H2662 C2668 0.950 . S
H2663 C2669 0.950 . S
H2664 C2670 0.949 . S
C2665 H2660 0.950 . S
C2665 C2667 1.327 . S
C2665 C2671 1.429 . S
C2666 C2658 1.574 . S
C2666 H2661 0.949 . S
C2666 C2672 1.368 . S
C2667 C2651 1.349 . S
C2667 H2659 0.950 . S
C2667 C2665 1.327 . S
C2668 C2656 1.349 . S
C2668 H2662 0.950 . S
C2668 C2669 1.327 . S
C2669 H2663 0.950 . S
C2669 C2668 1.327 . S
C2669 C2673 1.429 . S
C2670 C2653 1.574 . S
C2670 H2664 0.949 . S
C2670 C2674 1.368 . S
C2671 C2652 1.429 . S
C2671 C2665 1.429 . S
C2671 C2672 1.523 . S
C2672 C2653 1.368 . S
C2672 C2666 1.368 . S
C2672 C2671 1.523 . S
C2673 C2657 1.429 . S
C2673 C2669 1.429 . S
C2673 C2674 1.523 . S
C2674 C2658 1.368 . S
C2674 C2670 1.368 . S
C2674 C2673 1.523 . S
H2675 C2650 0.950 . S
H2676 C2652 0.950 . S
H2677 C2653 0.949 . S
H2678 C2655 0.950 . S
H2679 C2657 0.950 . S
C2680 C2681 1.349 . S
C2680 C2682 1.327 . S
C2680 H2705 0.950 . S
C2681 C2680 1.349 . S
C2681 C2697 1.349 1_556 S
C2682 C2680 1.327 . S
C2682 C2701 1.429 . S
C2682 H2706 0.950 . S
C2683 C2700 1.574 . S
C2683 C2702 1.368 1_554 S
C2683 H2707 0.949 . S
H2684 C2688 0.949 . S
C2685 C2686 1.349 1_554 S
C2685 C2687 1.327 . S
C2685 H2708 0.950 . S
C2686 C2685 1.349 1_556 S
C2686 C2698 1.349 . S
C2687 C2685 1.327 . S
C2687 C2703 1.429 1_554 S
C2687 H2709 0.950 . S
C2688 H2684 0.949 . S
C2688 C2696 1.574 . S
C2688 C2704 1.368 . S
H2689 C2697 0.950 . S
H2690 C2695 0.950 . S
H2691 C2696 0.949 . S
H2692 C2698 0.950 . S
H2693 C2699 0.950 . S
H2694 C2700 0.949 . S
C2695 H2690 0.950 . S
C2695 C2697 1.327 . S
C2695 C2701 1.429 1_554 S
C2696 C2688 1.574 . S
C2696 H2691 0.949 . S
C2696 C2702 1.368 . S
C2697 C2681 1.349 1_554 S
C2697 H2689 0.950 . S
C2697 C2695 1.327 . S
C2698 C2686 1.349 . S
C2698 H2692 0.950 . S
C2698 C2699 1.327 . S
C2699 H2693 0.950 . S
C2699 C2698 1.327 . S
C2699 C2703 1.429 . S
C2700 C2683 1.574 . S
C2700 H2694 0.949 . S
C2700 C2704 1.368 1_554 S
C2701 C2682 1.429 . S
C2701 C2695 1.429 1_556 S
C2701 C2702 1.523 . S
C2702 C2683 1.368 1_556 S
C2702 C2696 1.368 . S
C2702 C2701 1.523 . S
C2703 C2687 1.429 1_556 S
C2703 C2699 1.429 . S
C2703 C2704 1.523 . S
C2704 C2688 1.368 . S
C2704 C2700 1.368 1_556 S
C2704 C2703 1.523 . S
H2705 C2680 0.950 . S
H2706 C2682 0.950 . S
H2707 C2683 0.949 . S
H2708 C2685 0.950 . S
H2709 C2687 0.950 . S
C2710 C2711 1.349 . S
C2710 C2712 1.327 . S
C2710 H2735 0.950 . S
C2711 C2710 1.349 . S
C2711 C2727 1.349 . S
C2712 C2710 1.327 . S
C2712 C2731 1.429 . S
C2712 H2736 0.950 . S
C2713 C2730 1.574 . S
C2713 C2732 1.368 . S
C2713 H2737 0.949 . S
H2714 C2718 0.949 . S
C2715 C2716 1.349 . S
C2715 C2717 1.327 . S
C2715 H2738 0.950 . S
C2716 C2715 1.349 . S
C2716 C2728 1.349 . S
C2717 C2715 1.327 . S
C2717 C2733 1.429 . S
C2717 H2739 0.950 . S
C2718 H2714 0.949 . S
C2718 C2726 1.574 . S
C2718 C2734 1.368 . S
H2719 C2727 0.950 . S
H2720 C2725 0.950 . S
H2721 C2726 0.949 . S
H2722 C2728 0.950 . S
H2723 C2729 0.950 . S
H2724 C2730 0.949 . S
C2725 H2720 0.950 . S
C2725 C2727 1.327 . S
C2725 C2731 1.429 . S
C2726 C2718 1.574 . S
C2726 H2721 0.949 . S
C2726 C2732 1.368 . S
C2727 C2711 1.349 . S
C2727 H2719 0.950 . S
C2727 C2725 1.327 . S
C2728 C2716 1.349 . S
C2728 H2722 0.950 . S
C2728 C2729 1.327 . S
C2729 H2723 0.950 . S
C2729 C2728 1.327 . S
C2729 C2733 1.429 . S
C2730 C2713 1.574 . S
C2730 H2724 0.949 . S
C2730 C2734 1.368 . S
C2731 C2712 1.429 . S
C2731 C2725 1.429 . S
C2731 C2732 1.523 . S
C2732 C2713 1.368 . S
C2732 C2726 1.368 . S
C2732 C2731 1.523 . S
C2733 C2717 1.429 . S
C2733 C2729 1.429 . S
C2733 C2734 1.523 . S
C2734 C2718 1.368 . S
C2734 C2730 1.368 . S
C2734 C2733 1.523 . S
H2735 C2710 0.950 . S
H2736 C2712 0.950 . S
H2737 C2713 0.949 . S
H2738 C2715 0.950 . S
H2739 C2717 0.950 . S
C2740 C2741 1.349 . S
C2740 C2742 1.327 . S
C2740 H2765 0.950 . S
C2741 C2740 1.349 . S
C2741 C2757 1.349 . S
C2742 C2740 1.327 . S
C2742 C2761 1.429 . S
C2742 H2766 0.950 . S
C2743 C2760 1.586 . S
C2743 C2762 1.321 1_556 S
C2743 H2767 0.984 . S
H2744 C2748 0.949 . S
C2745 C2746 1.349 1_556 S
C2745 C2747 1.327 . S
C2745 H2768 0.950 . S
C2746 C2745 1.349 1_554 S
C2746 C2758 1.349 . S
C2747 C2745 1.327 . S
C2747 C2763 1.429 1_556 S
C2747 H2769 0.950 . S
C2748 H2744 0.949 . S
C2748 C2756 1.574 . S
C2748 C2764 1.368 . S
H2749 C2757 0.905 1_556 S
H2750 C2755 0.950 1_556 S
H2751 C2756 0.949 . S
H2752 C2758 0.950 . S
H2753 C2759 0.950 . S
H2754 C2760 0.949 . S
C2755 H2750 0.950 1_554 S
C2755 C2757 1.327 . S
C2755 C2761 1.429 . S
C2756 C2748 1.574 . S
C2756 H2751 0.949 . S
C2756 C2762 1.368 . S
C2757 C2741 1.349 . S
C2757 H2749 0.905 1_554 S
C2757 C2755 1.327 . S
C2758 C2746 1.349 . S
C2758 H2752 0.950 . S
C2758 C2759 1.327 . S
C2759 H2753 0.950 . S
C2759 C2758 1.327 . S
C2759 C2763 1.429 . S
C2760 C2743 1.586 . S
C2760 H2754 0.949 . S
C2760 C2764 1.368 1_556 S
C2761 C2742 1.429 . S
C2761 C2755 1.429 . S
C2761 C2762 1.523 . S
C2762 C2743 1.321 1_554 S
C2762 C2756 1.368 . S
C2762 C2761 1.523 . S
C2763 C2747 1.429 1_554 S
C2763 C2759 1.429 . S
C2763 C2764 1.523 . S
C2764 C2748 1.368 . S
C2764 C2760 1.368 1_554 S
C2764 C2763 1.523 . S
H2765 C2740 0.950 . S
H2766 C2742 0.950 . S
H2767 C2743 0.984 . S
H2768 C2745 0.950 . S
H2769 C2747 0.950 . S
C2770 C2771 1.349 . S
C2770 C2772 1.327 . S
C2770 H2795 0.950 . S
C2771 C2770 1.349 . S
C2771 C2787 1.349 1_545 S
C2772 C2770 1.327 . S
C2772 C2791 1.429 1_545 S
C2772 H2796 0.950 . S
C2773 C2790 1.574 . S
C2773 C2792 1.368 . S
C2773 H2797 0.949 . S
H2774 C2778 0.949 . S
C2775 C2776 1.349 . S
C2775 C2777 1.327 . S
C2775 H2798 0.950 . S
C2776 C2775 1.349 . S
C2776 C2788 1.349 . S
C2777 C2775 1.327 . S
C2777 C2793 1.429 . S
C2777 H2799 0.950 . S
C2778 H2774 0.949 . S
C2778 C2786 1.574 . S
C2778 C2794 1.368 . S
H2779 C2787 0.950 . S
H2780 C2785 0.950 . S
H2781 C2786 0.949 . S
H2782 C2788 0.950 . S
H2783 C2789 0.950 . S
H2784 C2790 0.949 . S
C2785 H2780 0.950 . S
C2785 C2787 1.327 . S
C2785 C2791 1.429 . S
C2786 C2778 1.574 . S
C2786 H2781 0.949 . S
C2786 C2792 1.368 . S
C2787 C2771 1.349 1_565 S
C2787 H2779 0.950 . S
C2787 C2785 1.327 . S
C2788 C2776 1.349 . S
C2788 H2782 0.950 . S
C2788 C2789 1.327 . S
C2789 H2783 0.950 . S
C2789 C2788 1.327 . S
C2789 C2793 1.429 . S
C2790 C2773 1.574 . S
C2790 H2784 0.949 . S
C2790 C2794 1.368 . S
C2791 C2772 1.429 1_565 S
C2791 C2785 1.429 . S
C2791 C2792 1.523 . S
C2792 C2773 1.368 . S
C2792 C2786 1.368 . S
C2792 C2791 1.523 . S
C2793 C2777 1.429 . S
C2793 C2789 1.429 . S
C2793 C2794 1.523 . S
C2794 C2778 1.368 . S
C2794 C2790 1.368 . S
C2794 C2793 1.523 . S
H2795 C2770 0.950 . S
H2796 C2772 0.950 . S
H2797 C2773 0.949 . S
H2798 C2775 0.950 . S
H2799 C2777 0.950 . S
C1366 C353 1.908 . S
C1361 C101 1.902 . S
C1396 C412 0.908 . S
C1391 C125 0.867 1_455 S
C1421 C139 2.204 . S
C1426 C529 2.198 . S
C1456 C597 1.913 . S
C1451 C82 1.935 . S
C1486 C676 1.601 . S
C1481 C196 1.618 . S
C1516 C801 1.906 . S
C1511 C234 1.916 . S
C1541 C220 0.643 . S
C1546 C861 0.597 . S
C1576 C969 1.727 . S
C1571 C173 1.715 . S
C1601 C211 1.133 . S
C1606 C1065 1.138 . S
C1636 C1125 0.966 . S
C1631 C182 0.933 . S
C1661 C201 1.351 . S
C1666 C1028 1.470 . S
C1696 C1145 1.270 . S
C1691 C239 1.192 . S
C1721 C135 1.674 . S
C1726 C1213 1.691 . S
C1751 C87 1.991 . S
C1756 C1204 2.168 . S
C1781 C106 1.041 . S
C1786 C1233 1.139 . S
C1811 C116 1.169 . S
C1816 C1241 1.185 . S
C1841 C59 2.058 . S
C1846 C625 2.077 . S
C1871 C268 2.463 . S
C1876 C588 2.475 . S
C1906 C324 1.074 . S
C1901 C291 1.082 . S
C1936 C421 1.442 . S
C1931 C163 1.328 . S
C1961 C78 2.240 . S
C1966 C685 2.274 . S
C1996 C977 1.028 . S
C1991 C215 1.027 . S
C2026 C705 1.678 . S
C2021 C177 1.694 1_545 S
C2056 C889 1.934 . S
C2051 C230 1.918 . S
C2086 C881 1.931 . S
C2081 C272 1.925 . S
C2111 C296 0.880 . S
C2116 C949 0.924 . S
C2141 C158 2.200 . S
C2146 C713 2.195 . S
C2176 C764 1.882 . S
C2171 C253 1.904 . S
C2201 C63 1.602 . S
C2206 C509 1.585 . S
C2236 C617 1.912 . S
C2231 C6 1.922 . S
C2266 C333 0.595 . S
C2261 C30 0.642 . S
C2296 C449 1.743 . S
C2291 C40 1.737 . S
C2321 C21 1.163 . S
C2326 C1153 1.169 . S
C2351 C49 0.907 . S
C2356 C1037 0.939 . S
C2381 C68 1.332 . S
C2386 C1116 1.448 . S
C2411 C11 1.190 1_556 S
C2416 C1057 1.267 . S
C2446 C1301 1.639 . S
C2441 C154 1.629 . S
C2476 C1292 2.182 . S
C2471 C258 2.000 . S
C2506 C1321 1.208 . S
C2501 C277 1.093 . S
C2531 C287 1.172 . S
C2536 C1329 1.188 . S
C2561 C192 2.056 . S
C2566 C793 2.075 . S
C2596 C773 2.441 . S
C2591 C97 2.430 . S
C2626 C852 1.078 . S
C2621 C120 1.086 . S
C2656 C940 1.453 . S
C2651 C144 1.337 . S
C2681 C249 2.238 . S
C2686 C500 2.273 . S
C2716 C441 1.056 . S
C2711 C25 1.054 . S
C2741 C44 1.634 . S
C2746 C537 1.619 . S
C2776 C361 1.935 . S
C2771 C2 1.918 . S
