# Generated by pormake.
# Topology zzz, (3,6)-cn, num edge types: 1
# Building blocks:
#     Node 0, Type 0, BuildingBlock: BELTOD_clean_linker_0, # of connection points: 3
#     Node 1, Type 0, BuildingBlock: BELTOD_clean_linker_0, # of connection points: 3
#     Node 2, Type 0, BuildingBlock: BELTOD_clean_linker_0, # of connection points: 3
#     Node 3, Type 0, BuildingBlock: BELTOD_clean_linker_0, # of connection points: 3
#     Node 4, Type 0, BuildingBlock: BELTOD_clean_linker_0, # of connection points: 3
#     Node 5, Type 0, BuildingBlock: BELTOD_clean_linker_0, # of connection points: 3
#     Node 6, Type 0, BuildingBlock: BELTOD_clean_linker_0, # of connection points: 3
#     Node 7, Type 0, BuildingBlock: BELTOD_clean_linker_0, # of connection points: 3
#     Node 8, Type 1, BuildingBlock: LEVNOQ01_clean_sbu_1, # of connection points: 6
#     Node 9, Type 1, BuildingBlock: LEVNOQ01_clean_sbu_1, # of connection points: 6
#     Node 10, Type 1, BuildingBlock: LEVNOQ01_clean_sbu_1, # of connection points: 6
#     Node 11, Type 1, BuildingBlock: LEVNOQ01_clean_sbu_1, # of connection points: 6
#     Edge 12, Type (0, 1), BuildingBlock: CIFDUS_clean_linker_0, # of connection points: 2
#     Edge 13, Type (0, 1), BuildingBlock: CIFDUS_clean_linker_0, # of connection points: 2
#     Edge 14, Type (0, 1), BuildingBlock: CIFDUS_clean_linker_0, # of connection points: 2
#     Edge 15, Type (0, 1), BuildingBlock: CIFDUS_clean_linker_0, # of connection points: 2
#     Edge 16, Type (0, 1), BuildingBlock: CIFDUS_clean_linker_0, # of connection points: 2
#     Edge 17, Type (0, 1), BuildingBlock: CIFDUS_clean_linker_0, # of connection points: 2
#     Edge 18, Type (0, 1), BuildingBlock: CIFDUS_clean_linker_0, # of connection points: 2
#     Edge 19, Type (0, 1), BuildingBlock: CIFDUS_clean_linker_0, # of connection points: 2
#     Edge 20, Type (0, 1), BuildingBlock: CIFDUS_clean_linker_0, # of connection points: 2
#     Edge 21, Type (0, 1), BuildingBlock: CIFDUS_clean_linker_0, # of connection points: 2
#     Edge 22, Type (0, 1), BuildingBlock: CIFDUS_clean_linker_0, # of connection points: 2
#     Edge 23, Type (0, 1), BuildingBlock: CIFDUS_clean_linker_0, # of connection points: 2
#     Edge 24, Type (0, 1), BuildingBlock: CIFDUS_clean_linker_0, # of connection points: 2
#     Edge 25, Type (0, 1), BuildingBlock: CIFDUS_clean_linker_0, # of connection points: 2
#     Edge 26, Type (0, 1), BuildingBlock: CIFDUS_clean_linker_0, # of connection points: 2
#     Edge 27, Type (0, 1), BuildingBlock: CIFDUS_clean_linker_0, # of connection points: 2
#     Edge 28, Type (0, 1), BuildingBlock: CIFDUS_clean_linker_0, # of connection points: 2
#     Edge 29, Type (0, 1), BuildingBlock: CIFDUS_clean_linker_0, # of connection points: 2
#     Edge 30, Type (0, 1), BuildingBlock: CIFDUS_clean_linker_0, # of connection points: 2
#     Edge 31, Type (0, 1), BuildingBlock: CIFDUS_clean_linker_0, # of connection points: 2
#     Edge 32, Type (0, 1), BuildingBlock: CIFDUS_clean_linker_0, # of connection points: 2
#     Edge 33, Type (0, 1), BuildingBlock: CIFDUS_clean_linker_0, # of connection points: 2
#     Edge 34, Type (0, 1), BuildingBlock: CIFDUS_clean_linker_0, # of connection points: 2
#     Edge 35, Type (0, 1), BuildingBlock: CIFDUS_clean_linker_0, # of connection points: 2
# Relax obj value: 0.282
# Max RMSD: 0.213
# Mean RMSD: 0.196
data_MOF--net-zzz--node1-LEVNOQ01_clean_sbu_1--node2-BELTOD_clean_linker_0--edge1-CIFDUS_clean_linker_0
_symmetry_space_group_name_H-M    P1
_symmetry_Int_Tables_number       1
_symmetry_cell_setting            triclinic
loop_
_symmetry_equiv_pos_as_xyz
'x, y, z'
_cell_length_a     45.710766
_cell_length_b     48.272975
_cell_length_c     17.334626
_cell_angle_alpha  89.983523
_cell_angle_beta   90.007767
_cell_angle_gamma 88.292509
loop_
_atom_site_label
_atom_site_type_symbol
_atom_site_fract_x
_atom_site_fract_y
_atom_site_fract_z
_atom_type_partial_charge
P0 P 0.76527 0.58563 0.14616 0.0
H1 H 0.76684 0.54183 0.26123 0.0
H2 H 0.79777 0.5355 0.37431 0.0
H3 H 0.8189 0.62202 0.3673 0.0
H4 H 0.78636 0.62859 0.25536 0.0
H5 H 0.71517 0.55062 0.16339 0.0
H6 H 0.66832 0.55102 0.0953 0.0
H7 H 0.6845 0.63279 0.00817 0.0
H8 H 0.73106 0.63289 0.07922 0.0
H9 H 0.82341 0.61017 0.16883 0.0
H10 H 0.76112 0.60096 0.98383 0.0
O11 O 0.77244 0.5533 0.11576 0.0
H12 H 0.86091 0.61928 0.07715 0.0
H13 H 0.79978 0.60878 0.89109 0.0
C14 C 0.77566 0.58534 0.24707 0.0
C15 C 0.77729 0.55974 0.28517 0.0
C16 C 0.79529 0.55605 0.34955 0.0
C17 C 0.81202 0.57791 0.37715 0.0
C18 C 0.80682 0.6046 0.3463 0.0
C19 C 0.78818 0.60837 0.28232 0.0
C20 C 0.72688 0.5915 0.12528 0.0
C21 C 0.70811 0.56921 0.13276 0.0
C22 C 0.68139 0.56937 0.09353 0.0
C23 C 0.67308 0.59183 0.04611 0.0
C24 C 0.69056 0.61524 0.04434 0.0
C25 C 0.71709 0.61529 0.08506 0.0
C26 C 0.78862 0.60561 0.08468 0.0
C27 C 0.8168 0.61225 0.10947 0.0
C28 C 0.83869 0.61757 0.05612 0.0
C29 C 0.8333 0.61447 0.97707 0.0
C30 C 0.80437 0.61161 0.95187 0.0
C31 C 0.78222 0.60695 0.00541 0.0
P32 P 0.03091 0.74617 0.19218 0.0
H33 H 0.05546 0.75487 0.34532 0.0
H34 H 0.04376 0.79001 0.44134 0.0
H35 H 0.96249 0.80999 0.32382 0.0
H36 H 0.97455 0.77442 0.22675 0.0
H37 H 0.05362 0.68933 0.20095 0.0
H38 H 0.04003 0.64748 0.134 0.0
H39 H 0.96102 0.68912 0.05193 0.0
H40 H 0.97501 0.73143 0.11974 0.0
H41 H 0.03464 0.80582 0.19712 0.0
H42 H 0.02173 0.74366 0.02208 0.0
O43 O 0.06689 0.74097 0.20446 0.0
H44 H 0.02779 0.84197 0.10188 0.0
H45 H 0.01549 0.78054 0.9248 0.0
C46 C 0.01594 0.76195 0.27864 0.0
C47 C 0.03454 0.76591 0.34161 0.0
C48 C 0.02783 0.78625 0.39659 0.0
C49 C 0.00232 0.80317 0.38983 0.0
C50 C 0.98248 0.7976 0.33012 0.0
C51 C 0.9891 0.7769 0.27544 0.0
C52 C 0.01563 0.71368 0.16397 0.0
C53 C 0.03293 0.68934 0.17054 0.0
C54 C 0.02501 0.66526 0.13238 0.0
C55 C 0.99957 0.66501 0.08674 0.0
C56 C 0.98093 0.68877 0.08584 0.0
C57 C 0.9888 0.71289 0.12489 0.0
C58 C 0.02696 0.77202 0.11789 0.0
C59 C 0.02962 0.79987 0.13852 0.0
C60 C 0.02569 0.82061 0.08397 0.0
C61 C 0.02 0.81397 0.00685 0.0
C62 C 0.019 0.78605 0.98459 0.0
C63 C 0.02248 0.76508 0.04011 0.0
P64 P 0.74142 0.92783 0.15852 0.0
H65 H 0.74411 0.96468 0.29117 0.0
H66 H 0.71345 0.96761 0.40628 0.0
H67 H 0.68127 0.88627 0.35906 0.0
H68 H 0.71363 0.8826 0.24585 0.0
H69 H 0.79292 0.95979 0.18611 0.0
H70 H 0.84037 0.95946 0.12238 0.0
H71 H 0.82186 0.88099 0.01642 0.0
H72 H 0.77456 0.8808 0.08398 0.0
H73 H 0.67941 0.91833 0.17422 0.0
H74 H 0.74483 0.90735 0.99657 0.0
O75 O 0.73614 0.9615 0.13918 0.0
H76 H 0.64205 0.90943 0.08461 0.0
H77 H 0.70665 0.89769 0.90402 0.0
C78 C 0.73046 0.92382 0.25832 0.0
C79 C 0.73151 0.94692 0.30711 0.0
C80 C 0.71373 0.9487 0.3726 0.0
C81 C 0.69438 0.92751 0.39004 0.0
C82 C 0.69564 0.90308 0.34597 0.0
C83 C 0.71437 0.9009 0.28184 0.0
C84 C 0.77969 0.92087 0.13744 0.0
C85 C 0.79945 0.94192 0.15174 0.0
C86 C 0.82668 0.94171 0.11512 0.0
C87 C 0.83464 0.92045 0.06311 0.0
C88 C 0.8161 0.89785 0.05529 0.0
C89 C 0.78904 0.89778 0.09372 0.0
C90 C 0.71564 0.91177 0.09485 0.0
C91 C 0.68624 0.91172 0.11735 0.0
C92 C 0.66435 0.9067 0.06442 0.0
C93 C 0.67095 0.90287 0.98581 0.0
C94 C 0.7006 0.90074 0.96387 0.0
C95 C 0.7227 0.90584 0.01756 0.0
P96 P 0.46266 0.75899 0.1895 0.0
H97 H 0.44968 0.75354 0.35353 0.0
H98 H 0.46396 0.71693 0.44383 0.0
H99 H 0.53176 0.68834 0.28731 0.0
H100 H 0.51755 0.72537 0.19685 0.0
H101 H 0.43204 0.81053 0.15219 0.0
H102 H 0.44628 0.85225 0.08642 0.0
H103 H 0.53565 0.82106 0.07582 0.0
H104 H 0.52131 0.77892 0.1456 0.0
H105 H 0.42556 0.71256 0.16837 0.0
H106 H 0.49877 0.74756 0.04999 0.0
O107 O 0.42817 0.76456 0.21887 0.0
H108 H 0.43048 0.67121 0.09077 0.0
H109 H 0.50326 0.70632 0.96895 0.0
C110 C 0.48216 0.74197 0.26763 0.0
C111 C 0.46839 0.7402 0.33961 0.0
C112 C 0.47642 0.71905 0.3911 0.0
C113 C 0.49848 0.69934 0.3717 0.0
C114 C 0.51461 0.70315 0.30367 0.0
C115 C 0.50652 0.72441 0.25199 0.0
C116 C 0.47563 0.79158 0.15446 0.0
C117 C 0.45493 0.81278 0.13832 0.0
C118 C 0.46309 0.83677 0.10059 0.0
C119 C 0.49209 0.83997 0.0766 0.0
C120 C 0.51317 0.81909 0.09423 0.0
C121 C 0.50502 0.79512 0.13398 0.0
C122 C 0.46149 0.73336 0.11458 0.0
C123 C 0.44199 0.71183 0.12334 0.0
C124 C 0.44487 0.68806 0.07844 0.0
C125 C 0.46735 0.68526 0.0233 0.0
C126 C 0.48594 0.7076 0.01154 0.0
C127 C 0.48314 0.73142 0.05727 0.0
P128 P 0.24239 0.36514 0.26322 0.0
H129 H 0.22679 0.35733 0.09942 0.0
H130 H 0.18899 0.37965 0.0179 0.0
H131 H 0.1688 0.43805 0.20007 0.0
H132 H 0.20691 0.41629 0.28028 0.0
H133 H 0.29834 0.3426 0.32102 0.0
H134 H 0.34198 0.36443 0.37224 0.0
H135 H 0.30334 0.445 0.319 0.0
H136 H 0.26059 0.42307 0.26613 0.0
H137 H 0.18321 0.34644 0.28422 0.0
H138 H 0.25032 0.38062 0.42739 0.0
O139 O 0.24899 0.33327 0.22898 0.0
H140 H 0.14586 0.36839 0.36413 0.0
H141 H 0.2131 0.40066 0.51194 0.0
C142 C 0.21992 0.38517 0.19587 0.0
C143 C 0.21478 0.37536 0.12109 0.0
C144 C 0.193 0.38799 0.0748 0.0
C145 C 0.17565 0.41034 0.10312 0.0
C146 C 0.1815 0.42064 0.17709 0.0
C147 C 0.20361 0.4084 0.22254 0.0
C148 C 0.27644 0.38112 0.2879 0.0
C149 C 0.29968 0.36494 0.31853 0.0
C150 C 0.32448 0.37748 0.34876 0.0
C151 C 0.32639 0.40653 0.34959 0.0
C152 C 0.30309 0.42258 0.31788 0.0
C153 C 0.27842 0.41002 0.28757 0.0
C154 C 0.21942 0.36327 0.34717 0.0
C155 C 0.18994 0.3572 0.33582 0.0
C156 C 0.16845 0.36995 0.38192 0.0
C157 C 0.1765 0.3879 0.44174 0.0
C158 C 0.20619 0.38843 0.46321 0.0
C159 C 0.22762 0.37657 0.41531 0.0
P160 P 0.06105 0.25509 0.23446 0.0
H161 H 0.0807 0.24273 0.07737 0.0
H162 H 0.0655 0.2081 0.98483 0.0
H163 H 0.98925 0.19252 0.12361 0.0
H164 H 0.00477 0.22727 0.21667 0.0
H165 H 0.0899 0.30125 0.30449 0.0
H166 H 0.07161 0.34109 0.37738 0.0
H167 H 0.98307 0.32136 0.31503 0.0
H168 H 0.00188 0.28194 0.23876 0.0
H169 H 0.09502 0.20595 0.27942 0.0
H170 H 0.01807 0.25113 0.36034 0.0
O171 O 0.09662 0.25775 0.21495 0.0
H172 H 0.08327 0.1673 0.3636 0.0
H173 H 0.00636 0.21271 0.44417 0.0
C174 C 0.04398 0.23772 0.15434 0.0
C175 C 0.06023 0.23256 0.087 0.0
C176 C 0.05153 0.21254 0.03402 0.0
C177 C 0.02635 0.19711 0.04719 0.0
C178 C 0.00907 0.20358 0.11235 0.0
C179 C 0.01772 0.22381 0.16513 0.0
C180 C 0.0473 0.2887 0.26548 0.0
C181 C 0.0666 0.306 0.30399 0.0
C182 C 0.05606 0.32858 0.34697 0.0
C183 C 0.02582 0.3341 0.35378 0.0
C184 C 0.00652 0.3178 0.31094 0.0
C185 C 0.01722 0.29529 0.26693 0.0
C186 C 0.05761 0.23152 0.31375 0.0
C187 C 0.07625 0.20803 0.31734 0.0
C188 C 0.06949 0.18595 0.36536 0.0
C189 C 0.04371 0.18698 0.40945 0.0
C190 C 0.02619 0.21133 0.40996 0.0
C191 C 0.03307 0.23344 0.36233 0.0
P192 P 0.2556 0.1354 0.264 0.0
H193 H 0.27249 0.14561 0.10256 0.0
H194 H 0.31021 0.12388 0.02005 0.0
H195 H 0.32597 0.06065 0.19231 0.0
H196 H 0.28768 0.0819 0.2735 0.0
H197 H 0.20872 0.16002 0.3561 0.0
H198 H 0.16457 0.14146 0.41404 0.0
H199 H 0.18145 0.06376 0.29645 0.0
H200 H 0.22572 0.08251 0.2389 0.0
H201 H 0.31089 0.16129 0.29466 0.0
H202 H 0.25281 0.10677 0.41358 0.0
O203 O 0.25121 0.16799 0.23303 0.0
H204 H 0.35054 0.14713 0.38234 0.0
H205 H 0.292 0.09286 0.50067 0.0
C206 C 0.27697 0.11535 0.19421 0.0
C207 C 0.28339 0.12662 0.12171 0.0
C208 C 0.30519 0.11431 0.07481 0.0
C209 C 0.3214 0.09076 0.10013 0.0
C210 C 0.3142 0.07899 0.17161 0.0
C211 C 0.292 0.09096 0.21766 0.0
C212 C 0.22027 0.12281 0.29217 0.0
C213 C 0.20253 0.13919 0.34132 0.0
C214 C 0.17745 0.12848 0.37509 0.0
C215 C 0.16946 0.10111 0.36007 0.0
C216 C 0.18677 0.08504 0.30853 0.0
C217 C 0.2121 0.09572 0.27543 0.0
C218 C 0.2789 0.13514 0.34739 0.0
C219 C 0.30623 0.1474 0.34186 0.0
C220 C 0.32891 0.13914 0.39147 0.0
C221 C 0.32436 0.11865 0.44733 0.0
C222 C 0.29606 0.10884 0.4584 0.0
C223 C 0.27352 0.11687 0.40836 0.0
P224 P 0.45015 0.24847 0.23241 0.0
H225 H 0.4298 0.26929 0.0828 0.0
H226 H 0.44645 0.30854 0.00974 0.0
H227 H 0.52815 0.30526 0.13563 0.0
H228 H 0.5104 0.26699 0.21195 0.0
H229 H 0.42022 0.1968 0.25967 0.0
H230 H 0.43398 0.15555 0.33406 0.0
H231 H 0.52191 0.18463 0.35559 0.0
H232 H 0.50832 0.22572 0.27928 0.0
H233 H 0.43613 0.30695 0.23644 0.0
H234 H 0.47172 0.24598 0.3955 0.0
O235 O 0.41465 0.2468 0.21078 0.0
H236 H 0.45408 0.34358 0.31597 0.0
H237 H 0.48821 0.28283 0.47923 0.0
C238 C 0.46876 0.26487 0.15316 0.0
C239 C 0.45181 0.27616 0.09274 0.0
C240 C 0.46141 0.29895 0.05087 0.0
C241 C 0.48844 0.31082 0.06781 0.0
C242 C 0.50682 0.29735 0.12232 0.0
C243 C 0.49701 0.27473 0.16476 0.0
C244 C 0.4632 0.21455 0.26373 0.0
C245 C 0.44278 0.19396 0.27769 0.0
C246 C 0.4506 0.17033 0.32044 0.0
C247 C 0.47887 0.16713 0.35121 0.0
C248 C 0.4999 0.18675 0.33275 0.0
C249 C 0.4922 0.21014 0.28846 0.0
C250 C 0.45352 0.27369 0.30811 0.0
C251 C 0.447 0.30143 0.29005 0.0
C252 C 0.45722 0.32253 0.33641 0.0
C253 C 0.47326 0.31636 0.40392 0.0
C254 C 0.47694 0.28842 0.42629 0.0
C255 C 0.46728 0.26722 0.37847 0.0
O256 O 0.05014 0.96882 0.81627 0.0
Mg257 Mg 0.0536 0.97727 0.69833 0.0
O258 O 0.00322 0.97363 0.79132 0.0
Mg259 Mg 0.99439 0.00694 0.69815 0.0
O260 O 0.04284 0.01654 0.66305 0.0
O261 O 0.08863 -0.00138 0.66023 0.0
O262 O 0.98491 0.03964 0.60662 0.0
O263 O 0.99729 0.04247 0.79112 0.0
Mg264 Mg 0.9337 0.03992 0.70851 0.0
O265 O 0.9459 -0.00091 0.72788 0.0
O266 O 0.93946 0.05526 0.59492 0.0
O267 O 0.95354 0.06409 0.79621 0.0
O268 O 0.89962 0.01476 0.73557 0.0
C269 C 0.00888 0.94985 0.59413 0.0
C270 C 0.02396 0.96324 0.83173 0.0
C271 C 0.07049 0.01902 0.64665 0.0
C272 C 0.96583 0.0549 0.57259 0.0
C273 C 0.97991 0.06127 0.81885 0.0
C274 C 0.91868 -0.00523 0.74448 0.0
O275 O 0.03392 0.94781 0.62574 0.0
O276 O 0.99161 0.97078 0.60665 0.0
O277 O 0.41723 -0.00316 0.74931 0.0
Mg278 Mg 0.43551 0.96797 0.666 0.0
O279 O 0.45594 0.01954 0.79357 0.0
Mg280 Mg 0.49482 0.00323 0.71317 0.0
O281 O 0.47553 0.96154 0.71116 0.0
O282 O 0.44705 0.92631 0.69803 0.0
O283 O 0.53288 0.98628 0.63274 0.0
O284 O 0.5213 0.98564 0.81446 0.0
Mg285 Mg 0.553 0.03366 0.76385 0.0
O286 O 0.51505 0.04605 0.71141 0.0
O287 O 0.57267 0.00509 0.68286 0.0
O288 O 0.54575 0.01727 0.875 0.0
O289 O 0.5493 0.07588 0.73973 0.0
C290 C 0.45087 0.01141 0.55724 0.0
C291 C 0.42836 0.01485 0.79379 0.0
C292 C 0.47105 0.93587 0.72435 0.0
C293 C 0.56077 0.98866 0.63545 0.0
C294 C 0.53735 0.99259 0.87043 0.0
C295 C 0.52476 0.07091 0.70653 0.0
O296 O 0.44155 0.98689 0.55612 0.0
O297 O 0.46749 0.01931 0.61131 0.0
O298 O 0.54176 0.45819 0.84657 0.0
Mg299 Mg 0.55448 0.47537 0.74088 0.0
O300 O 0.50091 0.46315 0.78112 0.0
Mg301 Mg 0.50286 0.50276 0.69917 0.0
O302 O 0.55001 0.51828 0.73638 0.0
O303 O 0.59301 0.49407 0.74354 0.0
O304 O 0.50002 0.54207 0.61818 0.0
O305 O 0.48808 0.53128 0.8014 0.0
Mg306 Mg 0.4445 0.51978 0.71065 0.0
O307 O 0.45788 0.48529 0.65282 0.0
O308 O 0.45509 0.55614 0.64999 0.0
O309 O 0.4439 0.5198 0.83143 0.0
O310 O 0.41079 0.49977 0.66316 0.0
C311 C 0.5316 0.45412 0.59331 0.0
C312 C 0.51572 0.45127 0.83499 0.0
C313 C 0.57836 0.51731 0.74735 0.0
C314 C 0.47867 0.55978 0.61314 0.0
C315 C 0.46623 0.53345 0.84662 0.0
C316 C 0.43022 0.48217 0.63764 0.0
O317 O 0.54883 0.44747 0.64761 0.0
O318 O 0.5176 0.47714 0.59569 0.0
O319 O 0.95538 0.48054 0.87574 0.0
Mg320 Mg 0.94524 0.4646 0.76589 0.0
O321 O 0.97423 0.51651 0.81966 0.0
Mg322 Mg 0.00386 0.5002 0.72111 0.0
O323 O 0.985 0.45736 0.71863 0.0
O324 O 0.95446 0.42339 0.73092 0.0
O325 O 0.03232 0.48447 0.61947 0.0
O326 O 0.04243 0.48517 0.80331 0.0
Mg327 Mg 0.06134 0.53656 0.67497 0.0
O328 O 0.0215 0.54311 0.72127 0.0
O329 O 0.05647 0.51826 0.5649 0.0
O330 O 0.08058 0.50819 0.75731 0.0
O331 O 0.05036 0.57815 0.70406 0.0
C332 C 0.93857 0.51077 0.63793 0.0
C333 C 0.95797 0.50654 0.87167 0.0
C334 C 0.97893 0.43198 0.7048 0.0
C335 C 0.04866 0.49324 0.56575 0.0
C336 C 0.06992 0.49015 0.80241 0.0
C337 C 0.02643 0.56893 0.73196 0.0
O338 O 0.92646 0.49371 0.68338 0.0
O339 O 0.96617 0.51476 0.63873 0.0
H340 H 0.15602 0.10499 0.51323 0.0
H341 H 0.12646 0.06923 0.3001 0.0
H342 H 0.0887 0.04455 0.3699 0.0
H343 H 0.06851 0.0283 0.49348 0.0
H344 H 0.10045 0.0615 0.70677 0.0
H345 H 0.13219 0.09254 0.63545 0.0
C346 C 0.14092 0.09225 0.48181 0.0
C347 C 0.14431 0.08875 0.40149 0.0
C348 C 0.11961 0.07767 0.52264 0.0
C349 C 0.1247 0.07192 0.36197 0.0
C350 C 0.10301 0.05788 0.40187 0.0
C351 C 0.08162 0.04314 0.52396 0.0
C352 C 0.08173 0.04316 0.60509 0.0
C353 C 0.1008 0.05994 0.48245 0.0
C354 C 0.09953 0.06169 0.64431 0.0
C355 C 0.11797 0.07913 0.60349 0.0
H356 H 0.4985 0.17454 0.49605 0.0
H357 H 0.47231 0.11115 0.33766 0.0
H358 H 0.48166 0.0756 0.43659 0.0
H359 H 0.49841 0.06261 0.56776 0.0
H360 H 0.52458 0.12652 0.72482 0.0
H361 H 0.51308 0.16192 0.62792 0.0
C362 C 0.49492 0.1529 0.48331 0.0
C363 C 0.4852 0.14533 0.4096 0.0
C364 C 0.49953 0.13279 0.54092 0.0
C365 C 0.48 0.11736 0.39401 0.0
C366 C 0.48507 0.09711 0.45071 0.0
C367 C 0.50067 0.08433 0.58149 0.0
C368 C 0.51185 0.092 0.6538 0.0
C369 C 0.49474 0.10458 0.52456 0.0
C370 C 0.51569 0.12018 0.66985 0.0
C371 C 0.50937 0.1404 0.61426 0.0
H372 H 0.35607 0.39151 0.48176 0.0
H373 H 0.35393 0.45287 0.30031 0.0
H374 H 0.38984 0.47972 0.36932 0.0
H375 H 0.41685 0.48889 0.48866 0.0
H376 H 0.41922 0.42828 0.67073 0.0
H377 H 0.38916 0.39747 0.59302 0.0
C378 C 0.36397 0.41037 0.45623 0.0
C379 C 0.35168 0.42038 0.38645 0.0
C380 C 0.38479 0.42582 0.49636 0.0
C381 C 0.36225 0.44501 0.35482 0.0
C382 C 0.38298 0.46033 0.39403 0.0
C383 C 0.41155 0.4685 0.50997 0.0
C384 C 0.42032 0.4606 0.58459 0.0
C385 C 0.39368 0.4514 0.46588 0.0
C386 C 0.41301 0.43448 0.61277 0.0
C387 C 0.39555 0.41707 0.5687 0.0
H388 H 0.04684 0.34504 0.49755 0.0
H389 H 0.97938 0.37094 0.3363 0.0
H390 H 0.95999 0.40447 0.43021 0.0
H391 H 0.9613 0.42541 0.55963 0.0
H392 H 0.02964 0.4011 0.71886 0.0
H393 H 0.05021 0.36827 0.62336 0.0
C394 C 0.02816 0.35828 0.48224 0.0
C395 C 0.01463 0.35541 0.40959 0.0
C396 C 0.01736 0.37776 0.53617 0.0
C397 C 0.99007 0.37244 0.39183 0.0
C398 C 0.97906 0.39174 0.44536 0.0
C399 C 0.98099 0.41317 0.57259 0.0
C400 C 0.99425 0.4156 0.64525 0.0
C401 C 0.99244 0.39444 0.51773 0.0
C402 C 0.01947 0.39965 0.66262 0.0
C403 C 0.03096 0.38077 0.60841 0.0
H404 H 0.83414 0.9167 0.90721 0.0
H405 H 0.89055 0.93491 0.09861 0.0
H406 H 0.92652 0.95396 0.01009 0.0
H407 H 0.93639 0.97446 0.88241 0.0
H408 H 0.87711 0.96039 0.69458 0.0
H409 H 0.84829 0.93016 0.77614 0.0
C410 C 0.85479 0.92391 0.92923 0.0
C411 C 0.85958 0.92459 0.00942 0.0
C412 C 0.87476 0.93591 0.87823 0.0
C413 C 0.88627 0.93437 0.03717 0.0
C414 C 0.90678 0.94538 0.98655 0.0
C415 C 0.91801 0.96362 0.85863 0.0
C416 C 0.90902 0.96929 0.78252 0.0
C417 C 0.90057 0.94756 0.90741 0.0
C418 C 0.88458 0.95598 0.75275 0.0
C419 C 0.8679 0.93899 0.79973 0.0
H420 H 0.5148 0.83834 0.93227 0.0
H421 H 0.48189 0.89461 0.10681 0.0
H422 H 0.47783 0.93191 0.01181 0.0
H423 H 0.47543 0.94595 0.87566 0.0
H424 H 0.50265 0.88811 0.69903 0.0
H425 H 0.51847 0.85444 0.79765 0.0
C426 C 0.50792 0.85909 0.94986 0.0
C427 C 0.49858 0.86379 0.02615 0.0
C428 C 0.50456 0.88015 0.8941 0.0
C429 C 0.48916 0.89059 0.04826 0.0
C430 C 0.48659 0.91182 0.99382 0.0
C431 C 0.48581 0.92632 0.85914 0.0
C432 C 0.4883 0.91949 0.78067 0.0
C433 C 0.49305 0.90652 0.91602 0.0
C434 C 0.50096 0.89381 0.75935 0.0
C435 C 0.50971 0.87451 0.81571 0.0
H436 H 0.67824 0.58311 0.89365 0.0
H437 H 0.61443 0.59125 0.07538 0.0
H438 H 0.57622 0.57498 0.98831 0.0
H439 H 0.56375 0.54981 0.86928 0.0
H440 H 0.62967 0.53644 0.69466 0.0
H441 H 0.66404 0.56381 0.76837 0.0
C442 C 0.65573 0.58212 0.91313 0.0
C443 C 0.64894 0.58844 0.99031 0.0
C444 C 0.63434 0.5715 0.86387 0.0
C445 C 0.61995 0.58658 0.01593 0.0
C446 C 0.59822 0.57714 0.96628 0.0
C447 C 0.58519 0.55401 0.84601 0.0
C448 C 0.59414 0.54141 0.7764 0.0
C449 C 0.60544 0.56836 0.89118 0.0
C450 C 0.62226 0.54624 0.7477 0.0
C451 C 0.64203 0.56159 0.79034 0.0
H452 H 0.98434 0.66817 0.93547 0.0
H453 H 0.0064 0.60928 0.115 0.0
H454 H 0.01171 0.57238 0.01902 0.0
H455 H 0.01833 0.55892 0.88272 0.0
H456 H 0.99929 0.6186 0.70371 0.0
H457 H 0.98373 0.65295 0.8005 0.0
C458 C 0.98935 0.6471 0.95398 0.0
C459 C 0.99535 0.6416 0.03227 0.0
C460 C 0.99317 0.62616 0.89824 0.0
C461 C 0.00211 0.61416 0.05498 0.0
C462 C 0.00523 0.59306 0.0001 0.0
C463 C 0.00978 0.57916 0.86512 0.0
C464 C 0.00945 0.58625 0.78654 0.0
C465 C 0.00208 0.5991 0.92132 0.0
C466 C 0.9992 0.61269 0.76402 0.0
C467 C 0.9906 0.63236 0.81936 0.0
H468 H 0.98949 0.1664 0.40019 0.0
H469 H 0.07499 0.15045 0.49937 0.0
H470 H 0.05883 0.10625 0.55031 0.0
H471 H 0.02089 0.0728 0.5667 0.0
H472 H 0.93412 0.08947 0.47591 0.0
H473 H 0.95074 0.13272 0.41879 0.0
C474 C 0.00445 0.15337 0.43383 0.0
C475 C 0.03334 0.16159 0.44644 0.0
C476 C 0.99509 0.12799 0.46231 0.0
C477 C 0.0527 0.1444 0.48883 0.0
C478 C 0.04354 0.11914 0.51747 0.0
C479 C 0.00562 0.0855 0.53307 0.0
C480 C 0.97634 0.07776 0.52468 0.0
C481 C 0.01492 0.11068 0.50384 0.0
C482 C 0.95683 0.09485 0.48231 0.0
C483 C 0.96625 0.11967 0.45051 0.0
H484 H 0.37227 0.09781 0.37468 0.0
H485 H 0.33146 0.10436 0.59868 0.0
H486 H 0.36865 0.07237 0.65226 0.0
H487 H 0.41028 0.04015 0.63278 0.0
H488 H 0.44914 0.03046 0.40777 0.0
H489 H 0.41531 0.06663 0.35635 0.0
C490 C 0.37205 0.09282 0.43569 0.0
C491 C 0.34946 0.10362 0.48311 0.0
C492 C 0.39285 0.07373 0.46519 0.0
C493 C 0.34881 0.0964 0.5615 0.0
C494 C 0.36991 0.07803 0.59188 0.0
C495 C 0.41134 0.04616 0.57253 0.0
C496 C 0.43188 0.03304 0.5236 0.0
C497 C 0.39157 0.06618 0.54383 0.0
C498 C 0.43324 0.04044 0.44575 0.0
C499 C 0.41402 0.06105 0.41679 0.0
H500 H 0.454 0.37001 0.42176 0.0
H501 H 0.52597 0.31389 0.48129 0.0
H502 H 0.55161 0.35195 0.54055 0.0
H503 H 0.5538 0.40146 0.5741 0.0
H504 H 0.48394 0.4576 0.49959 0.0
H505 H 0.45834 0.41934 0.4428 0.0
C506 C 0.47557 0.36598 0.446 0.0
C507 C 0.48789 0.33894 0.44632 0.0
C508 C 0.49104 0.38815 0.47559 0.0
C509 C 0.51546 0.33428 0.48118 0.0
C510 C 0.53047 0.35616 0.514 0.0
C511 C 0.53337 0.40542 0.54364 0.0
C512 C 0.5209 0.43241 0.54136 0.0
C513 C 0.51859 0.38325 0.51076 0.0
C514 C 0.49428 0.43714 0.5019 0.0
C515 C 0.47935 0.41519 0.47017 0.0
H516 H 0.11693 0.38526 0.4629 0.0
H517 H 0.18877 0.44142 0.47695 0.0
H518 H 0.15498 0.47941 0.50648 0.0
H519 H 0.10545 0.49705 0.52928 0.0
H520 H 0.03301 0.44215 0.51521 0.0
H521 H 0.06671 0.40388 0.4777 0.0
C522 C 0.12526 0.40579 0.47202 0.0
C523 C 0.15559 0.41005 0.46883 0.0
C524 C 0.10555 0.42808 0.48637 0.0
C525 C 0.16577 0.43695 0.48165 0.0
C526 C 0.14638 0.459 0.49703 0.0
C527 C 0.09683 0.47688 0.51618 0.0
C528 C 0.06677 0.47242 0.5242 0.0
C529 C 0.11627 0.45483 0.49907 0.0
C530 C 0.05608 0.44602 0.50884 0.0
C531 C 0.0753 0.42411 0.48886 0.0
H532 H 0.9837 0.85884 0.01414 0.0
H533 H 0.05226 0.82044 0.87677 0.0
H534 H 0.05958 0.86436 0.80989 0.0
H535 H 0.05102 0.91467 0.80414 0.0
H536 H 0.98242 0.95344 0.94042 0.0
H537 H 0.97081 0.9083 0.99627 0.0
C538 C 0.99974 0.86007 0.9682 0.0
C539 C 0.01778 0.83682 0.95086 0.0
C540 C 0.00452 0.8855 0.93252 0.0
C541 C 0.03818 0.83819 0.89072 0.0
C542 C 0.04269 0.86335 0.85359 0.0
C543 C 0.0339 0.91322 0.84725 0.0
C544 C 0.01844 0.93724 0.87154 0.0
C545 C 0.02697 0.88733 0.87689 0.0
C546 C 0.99517 0.93517 0.92356 0.0
C547 C 0.98839 0.90943 0.95456 0.0
H548 H 0.61248 0.89131 0.99333 0.0
H549 H 0.67602 0.93022 0.84733 0.0
H550 H 0.6382 0.96095 0.79574 0.0
H551 H 0.59087 0.98451 0.81619 0.0
H552 H 0.52884 0.95132 0.97518 0.0
H553 H 0.56272 0.91186 0.0026 0.0
C554 C 0.618 0.90631 0.94949 0.0
C555 C 0.64751 0.90954 0.92847 0.0
C556 C 0.59678 0.92609 0.92619 0.0
C557 C 0.65383 0.92753 0.86705 0.0
C558 C 0.63225 0.94575 0.83855 0.0
C559 C 0.58493 0.96868 0.85727 0.0
C560 C 0.55796 0.97079 0.89559 0.0
C561 C 0.60447 0.94664 0.87254 0.0
C562 C 0.54983 0.94996 0.94658 0.0
C563 C 0.56906 0.92749 0.96146 0.0
H564 H 0.42661 0.64946 0.9742 0.0
H565 H 0.52005 0.6597 0.9854 0.0
H566 H 0.52827 0.61267 0.93647 0.0
H567 H 0.50865 0.56809 0.89399 0.0
H568 H 0.41513 0.55731 0.89724 0.0
H569 H 0.40741 0.60462 0.94179 0.0
C570 C 0.44883 0.64139 0.96715 0.0
C571 C 0.47259 0.65814 0.98426 0.0
C572 C 0.45345 0.61392 0.94362 0.0
C573 C 0.50123 0.64751 0.9718 0.0
C574 C 0.506 0.62042 0.94504 0.0
C575 C 0.48665 0.5759 0.90629 0.0
C576 C 0.46257 0.55906 0.89252 0.0
C577 C 0.48224 0.60329 0.93198 0.0
C578 C 0.43415 0.56957 0.90826 0.0
C579 C 0.42963 0.59681 0.93267 0.0
H580 H 0.83481 0.56352 0.92145 0.0
H581 H 0.88639 0.63651 0.93921 0.0
H582 H 0.93078 0.60883 0.90744 0.0
H583 H 0.95497 0.56255 0.89107 0.0
H584 H 0.90242 0.48976 0.89359 0.0
H585 H 0.85828 0.51858 0.90383 0.0
C586 C 0.85561 0.5736 0.91551 0.0
C587 C 0.85741 0.602 0.93128 0.0
C588 C 0.88096 0.55732 0.90464 0.0
C589 C 0.88456 0.61472 0.92574 0.0
C590 C 0.90991 0.5988 0.90929 0.0
C591 C 0.93395 0.55309 0.89529 0.0
C592 C 0.93226 0.52404 0.89335 0.0
C593 C 0.90847 0.56986 0.90221 0.0
C594 C 0.90464 0.51199 0.89737 0.0
C595 C 0.87926 0.52847 0.90177 0.0
H596 H 0.00698 0.14567 0.08584 0.0
H597 H 0.02968 0.19579 0.8897 0.0
H598 H 0.01991 0.15735 0.80309 0.0
H599 H 0.00331 0.10989 0.78182 0.0
H600 H 0.97903 0.05996 0.97595 0.0
H601 H 0.99097 0.09773 0.06458 0.0
C602 C 0.0095 0.14829 0.0241 0.0
C603 C 0.01903 0.17376 0.99457 0.0
C604 C 0.00376 0.126 0.97426 0.0
C605 C 0.02265 0.17647 0.91434 0.0
C606 C 0.017 0.15448 0.8646 0.0
C607 C 0.00117 0.10722 0.84371 0.0
C608 C 0.99088 0.08217 0.87283 0.0
C609 C 0.00753 0.12918 0.8938 0.0
C610 C 0.98747 0.07897 0.95272 0.0
C611 C 0.99406 0.10063 0.00315 0.0
H612 H 0.32028 0.07783 0.94778 0.0
H613 H 0.37729 0.07622 0.14565 0.0
H614 H 0.41674 0.05484 0.06795 0.0
H615 H 0.43433 0.03422 0.94344 0.0
H616 H 0.37485 0.03343 0.75025 0.0
H617 H 0.33762 0.05828 0.82532 0.0
C618 C 0.34142 0.07301 0.97371 0.0
C619 C 0.34575 0.07854 0.05238 0.0
C620 C 0.36373 0.06018 0.92916 0.0
C621 C 0.37324 0.07189 0.08532 0.0
C622 C 0.39586 0.05974 0.0408 0.0
C623 C 0.41333 0.03979 0.91782 0.0
C624 C 0.40748 0.03196 0.84109 0.0
C625 C 0.3913 0.05343 0.96262 0.0
C626 C 0.37998 0.0391 0.80908 0.0
C627 C 0.35856 0.0533 0.85205 0.0
H628 H 0.47512 0.33197 0.9242 0.0
H629 H 0.5179 0.35277 0.13792 0.0
H630 H 0.5292 0.39812 0.08648 0.0
H631 H 0.52776 0.43199 0.97965 0.0
H632 H 0.48102 0.41277 0.77126 0.0
H633 H 0.46975 0.36719 0.82271 0.0
C634 C 0.48664 0.34641 0.96016 0.0
C635 C 0.49603 0.33839 0.03462 0.0
C636 C 0.49215 0.37303 0.93138 0.0
C637 C 0.51119 0.35767 0.07947 0.0
C638 C 0.51735 0.3839 0.0505 0.0
C639 C 0.51473 0.41793 0.94614 0.0
C640 C 0.50515 0.42578 0.87193 0.0
C641 C 0.50806 0.39179 0.97642 0.0
C642 C 0.48828 0.40741 0.82902 0.0
C643 C 0.48208 0.3812 0.85809 0.0
H644 H 0.17856 0.42775 0.95494 0.0
H645 H 0.11881 0.42158 0.14582 0.0
H646 H 0.07973 0.44403 0.06903 0.0
H647 H 0.0631 0.46738 0.94763 0.0
H648 H 0.12493 0.47518 0.76124 0.0
H649 H 0.16223 0.45015 0.83547 0.0
C650 C 0.1569 0.4311 0.97941 0.0
C651 C 0.15159 0.42303 0.05578 0.0
C652 C 0.1348 0.44449 0.93558 0.0
C653 C 0.12349 0.42782 0.08718 0.0
C654 C 0.10112 0.4406 0.04322 0.0
C655 C 0.08467 0.46337 0.92333 0.0
C656 C 0.09118 0.47334 0.84908 0.0
C657 C 0.10657 0.44933 0.96737 0.0
C658 C 0.11934 0.46808 0.81854 0.0
C659 C 0.14077 0.45367 0.86087 0.0
H660 H 0.98383 0.8561 0.3514 0.0
H661 H 0.01195 0.80554 0.54476 0.0
H662 H 0.01414 0.84663 0.62579 0.0
H663 H 0.01307 0.89699 0.63858 0.0
H664 H 0.98404 0.94857 0.44911 0.0
H665 H 0.97658 0.90701 0.36988 0.0
C666 C 0.98972 0.854 0.41176 0.0
C667 C 0.99818 0.8277 0.44154 0.0
C668 C 0.99098 0.87791 0.45844 0.0
C669 C 0.00591 0.82549 0.51985 0.0
C670 C 0.00712 0.84899 0.56635 0.0
C671 C 0.0047 0.8991 0.58018 0.0
C672 C 0.99939 0.92568 0.54918 0.0
C673 C 0.00056 0.8753 0.53566 0.0
C674 C 0.98822 0.92826 0.47404 0.0
C675 C 0.98415 0.90451 0.42878 0.0
H676 H 0.63514 0.92938 0.37102 0.0
H677 H 0.70276 0.9382 0.54179 0.0
H678 H 0.66649 0.95552 0.63511 0.0
H679 H 0.61703 0.97322 0.6629 0.0
H680 H 0.54879 0.96617 0.49293 0.0
H681 H 0.58368 0.94305 0.40443 0.0
C682 C 0.6417 0.93449 0.42932 0.0
C683 C 0.67157 0.93253 0.44982 0.0
C684 C 0.62074 0.94526 0.48205 0.0
C685 C 0.67993 0.93955 0.525 0.0
C686 C 0.65923 0.9496 0.57807 0.0
C687 C 0.60967 0.9665 0.60664 0.0
C688 C 0.58045 0.97191 0.58403 0.0
C689 C 0.62981 0.95343 0.55636 0.0
C690 C 0.57119 0.96246 0.51159 0.0
C691 C 0.59117 0.9493 0.46094 0.0
H692 H 0.45473 0.66659 0.41271 0.0
H693 H 0.54839 0.67247 0.42721 0.0
H694 H 0.55138 0.62875 0.50033 0.0
H695 H 0.52641 0.58933 0.56427 0.0
H696 H 0.43236 0.58544 0.54577 0.0
H697 H 0.43058 0.62763 0.47012 0.0
C698 C 0.47582 0.65848 0.43257 0.0
C699 C 0.50122 0.67301 0.41608 0.0
C700 C 0.4773 0.63351 0.47371 0.0
C701 C 0.52847 0.66175 0.43991 0.0
C702 C 0.53015 0.63677 0.48164 0.0
C703 C 0.50565 0.59766 0.543 0.0
C704 C 0.47954 0.58432 0.56162 0.0
C705 C 0.50462 0.62247 0.49938 0.0
C706 C 0.45278 0.59541 0.53353 0.0
C707 C 0.45166 0.6196 0.49003 0.0
H708 H 0.8519 0.53583 0.36573 0.0
H709 H 0.82879 0.60662 0.50704 0.0
H710 H 0.86826 0.59371 0.5977 0.0
H711 H 0.90664 0.55943 0.64231 0.0
H712 H 0.9285 0.48894 0.49883 0.0
H713 H 0.89207 0.50439 0.4036 0.0
C714 C 0.85532 0.54839 0.41667 0.0
C715 C 0.83687 0.5717 0.43079 0.0
C716 C 0.87784 0.54081 0.46808 0.0
C717 C 0.8424 0.58835 0.4954 0.0
C718 C 0.86493 0.58093 0.54726 0.0
C719 C 0.90371 0.54792 0.58927 0.0
C720 C 0.92024 0.52326 0.57667 0.0
C721 C 0.88243 0.55685 0.535 0.0
C722 C 0.91618 0.50815 0.50873 0.0
C723 C 0.89526 0.51688 0.4547 0.0
loop_
_geom_bond_atom_site_label_1
_geom_bond_atom_site_label_2
_geom_bond_distance
_geom_bond_site_symmetry_2
_ccdc_geom_bond_type
P0 O11 1.490 . S
P0 C14 1.812 . S
P0 C20 1.803 . S
P0 C26 1.819 . S
H1 C15 0.941 . S
H2 C16 0.939 . S
H3 C18 0.940 . S
H4 C19 0.940 . S
H5 C21 0.939 . S
H6 C22 0.942 1_556 S
H7 C24 0.940 . S
H8 C25 0.939 . S
H9 C27 0.941 . S
H10 C31 0.939 . S
O11 P0 1.490 . S
H12 C28 0.939 . S
H13 C30 0.940 . S
C14 P0 1.812 . S
C14 C15 1.389 . S
C14 C19 1.391 . S
C15 H1 0.941 . S
C15 C14 1.389 . S
C15 C16 1.397 . S
C16 H2 0.939 . S
C16 C15 1.397 . S
C16 C17 1.378 . S
C17 C16 1.378 . S
C17 C18 1.378 . S
C18 H3 0.940 . S
C18 C17 1.378 . S
C18 C19 1.396 . S
C19 H4 0.940 . S
C19 C14 1.391 . S
C19 C18 1.396 . S
C20 P0 1.803 . S
C20 C21 1.378 . S
C20 C25 1.400 . S
C21 H5 0.939 . S
C21 C20 1.378 . S
C21 C22 1.361 . S
C22 H6 0.942 1_554 S
C22 C21 1.361 . S
C22 C23 1.369 . S
C23 C22 1.369 . S
C23 C24 1.404 . S
C24 H7 0.940 . S
C24 C23 1.404 . S
C24 C25 1.389 . S
C25 H8 0.939 . S
C25 C20 1.400 . S
C25 C24 1.389 . S
C26 P0 1.819 . S
C26 C27 1.391 . S
C26 C31 1.391 1_554 S
C27 H9 0.941 . S
C27 C26 1.391 . S
C27 C28 1.396 1_554 S
C28 H12 0.939 . S
C28 C27 1.396 1_556 S
C28 C29 1.397 . S
C29 C28 1.397 . S
C29 C30 1.385 . S
C30 H13 0.940 . S
C30 C29 1.385 . S
C30 C31 1.388 . S
C31 H10 0.939 . S
C31 C26 1.391 1_556 S
C31 C30 1.388 . S
P32 O43 1.490 . S
P32 C46 1.812 . S
P32 C52 1.803 . S
P32 C58 1.819 . S
H33 C47 0.941 . S
H34 C48 0.939 . S
H35 C50 0.940 . S
H36 C51 0.950 . S
H37 C53 0.939 . S
H38 C54 0.947 . S
H39 C56 0.940 . S
H40 C57 0.959 . S
H41 C59 0.941 . S
H42 C63 0.928 1_655 S
O43 P32 1.490 . S
H44 C60 0.939 . S
H45 C62 0.940 . S
C46 P32 1.812 . S
C46 C47 1.389 . S
C46 C51 1.375 1_455 S
C47 H33 0.941 . S
C47 C46 1.389 . S
C47 C48 1.397 . S
C48 H34 0.939 . S
C48 C47 1.397 . S
C48 C49 1.378 . S
C49 C48 1.378 . S
C49 C50 1.378 1_455 S
C50 H35 0.940 . S
C50 C49 1.378 1_655 S
C50 C51 1.402 . S
C51 H36 0.950 . S
C51 C46 1.375 1_655 S
C51 C50 1.402 . S
C52 P32 1.803 . S
C52 C53 1.378 . S
C52 C57 1.368 1_455 S
C53 H37 0.939 . S
C53 C52 1.378 . S
C53 C54 1.361 . S
C54 H38 0.947 . S
C54 C53 1.361 . S
C54 C55 1.369 . S
C55 C54 1.369 . S
C55 C56 1.404 1_455 S
C56 H39 0.940 . S
C56 C55 1.404 1_655 S
C56 C57 1.403 . S
C57 H40 0.959 . S
C57 C52 1.368 1_655 S
C57 C56 1.403 . S
C58 P32 1.819 . S
C58 C59 1.391 . S
C58 C63 1.391 1_554 S
C59 H41 0.941 . S
C59 C58 1.391 . S
C59 C60 1.396 1_554 S
C60 H44 0.939 . S
C60 C59 1.396 1_556 S
C60 C61 1.397 . S
C61 C60 1.397 . S
C61 C62 1.385 1_455 S
C62 H45 0.940 . S
C62 C61 1.385 1_655 S
C62 C63 1.388 1_655 S
C63 H42 0.928 1_455 S
C63 C58 1.391 1_556 S
C63 C62 1.388 1_455 S
P64 O75 1.490 . S
P64 C78 1.812 . S
P64 C84 1.803 . S
P64 C90 1.819 . S
H65 C79 0.941 . S
H66 C80 0.939 . S
H67 C82 0.940 . S
H68 C83 0.940 . S
H69 C85 0.939 . S
H70 C86 0.942 1_556 S
H71 C88 0.940 . S
H72 C89 0.939 . S
H73 C91 0.941 . S
H74 C95 0.939 . S
O75 P64 1.490 . S
H76 C92 0.939 . S
H77 C94 0.940 . S
C78 P64 1.812 . S
C78 C79 1.389 . S
C78 C83 1.391 . S
C79 H65 0.941 . S
C79 C78 1.389 . S
C79 C80 1.397 . S
C80 H66 0.939 . S
C80 C79 1.397 . S
C80 C81 1.378 . S
C81 C80 1.378 . S
C81 C82 1.378 . S
C82 H67 0.940 . S
C82 C81 1.378 . S
C82 C83 1.396 . S
C83 H68 0.940 . S
C83 C78 1.391 . S
C83 C82 1.396 . S
C84 P64 1.803 . S
C84 C85 1.378 . S
C84 C89 1.400 . S
C85 H69 0.939 . S
C85 C84 1.378 . S
C85 C86 1.361 . S
C86 H70 0.942 1_554 S
C86 C85 1.361 . S
C86 C87 1.369 . S
C87 C86 1.369 . S
C87 C88 1.404 . S
C88 H71 0.940 . S
C88 C87 1.404 . S
C88 C89 1.389 . S
C89 H72 0.939 . S
C89 C84 1.400 . S
C89 C88 1.389 . S
C90 P64 1.819 . S
C90 C91 1.391 . S
C90 C95 1.391 1_554 S
C91 H73 0.941 . S
C91 C90 1.391 . S
C91 C92 1.396 1_554 S
C92 H76 0.939 . S
C92 C91 1.396 1_556 S
C92 C93 1.397 . S
C93 C92 1.397 . S
C93 C94 1.385 . S
C94 H77 0.940 . S
C94 C93 1.385 . S
C94 C95 1.388 . S
C95 H74 0.939 . S
C95 C90 1.391 1_556 S
C95 C94 1.388 . S
P96 O107 1.490 . S
P96 C110 1.812 . S
P96 C116 1.803 . S
P96 C122 1.819 . S
H97 C111 0.941 . S
H98 C112 0.939 . S
H99 C114 0.940 . S
H100 C115 0.940 . S
H101 C117 0.939 . S
H102 C118 0.942 . S
H103 C120 0.940 . S
H104 C121 0.939 . S
H105 C123 0.941 . S
H106 C127 0.939 . S
O107 P96 1.490 . S
H108 C124 0.939 . S
H109 C126 0.940 . S
C110 P96 1.812 . S
C110 C111 1.389 . S
C110 C115 1.391 . S
C111 H97 0.941 . S
C111 C110 1.389 . S
C111 C112 1.397 . S
C112 H98 0.939 . S
C112 C111 1.397 . S
C112 C113 1.378 . S
C113 C112 1.378 . S
C113 C114 1.378 . S
C114 H99 0.940 . S
C114 C113 1.378 . S
C114 C115 1.396 . S
C115 H100 0.940 . S
C115 C110 1.391 . S
C115 C114 1.396 . S
C116 P96 1.803 . S
C116 C117 1.378 . S
C116 C121 1.400 . S
C117 H101 0.939 . S
C117 C116 1.378 . S
C117 C118 1.361 . S
C118 H102 0.942 . S
C118 C117 1.361 . S
C118 C119 1.369 . S
C119 C118 1.369 . S
C119 C120 1.404 . S
C120 H103 0.940 . S
C120 C119 1.404 . S
C120 C121 1.389 . S
C121 H104 0.939 . S
C121 C116 1.400 . S
C121 C120 1.389 . S
C122 P96 1.819 . S
C122 C123 1.391 . S
C122 C127 1.391 1_554 S
C123 H105 0.941 . S
C123 C122 1.391 . S
C123 C124 1.396 1_554 S
C124 H108 0.939 . S
C124 C123 1.396 1_556 S
C124 C125 1.397 . S
C125 C124 1.397 . S
C125 C126 1.385 . S
C126 H109 0.940 . S
C126 C125 1.385 . S
C126 C127 1.388 . S
C127 H106 0.939 . S
C127 C122 1.391 1_556 S
C127 C126 1.388 . S
P128 O139 1.490 . S
P128 C142 1.812 . S
P128 C148 1.803 . S
P128 C154 1.819 . S
H129 C143 0.941 . S
H130 C144 0.939 . S
H131 C146 0.940 . S
H132 C147 0.940 . S
H133 C149 0.939 . S
H134 C150 0.942 . S
H135 C152 0.940 . S
H136 C153 0.939 . S
H137 C155 0.941 . S
H138 C159 0.939 . S
O139 P128 1.490 . S
H140 C156 0.939 . S
H141 C158 0.940 . S
C142 P128 1.812 . S
C142 C143 1.389 . S
C142 C147 1.391 . S
C143 H129 0.941 . S
C143 C142 1.389 . S
C143 C144 1.397 . S
C144 H130 0.939 . S
C144 C143 1.397 . S
C144 C145 1.378 . S
C145 C144 1.378 . S
C145 C146 1.378 . S
C146 H131 0.940 . S
C146 C145 1.378 . S
C146 C147 1.396 . S
C147 H132 0.940 . S
C147 C142 1.391 . S
C147 C146 1.396 . S
C148 P128 1.803 . S
C148 C149 1.378 . S
C148 C153 1.400 . S
C149 H133 0.939 . S
C149 C148 1.378 . S
C149 C150 1.361 . S
C150 H134 0.942 . S
C150 C149 1.361 . S
C150 C151 1.369 . S
C151 C150 1.369 . S
C151 C152 1.404 . S
C152 H135 0.940 . S
C152 C151 1.404 . S
C152 C153 1.389 . S
C153 H136 0.939 . S
C153 C148 1.400 . S
C153 C152 1.389 . S
C154 P128 1.819 . S
C154 C155 1.391 . S
C154 C159 1.391 . S
C155 H137 0.941 . S
C155 C154 1.391 . S
C155 C156 1.396 . S
C156 H140 0.939 . S
C156 C155 1.396 . S
C156 C157 1.397 . S
C157 C156 1.397 . S
C157 C158 1.385 . S
C158 H141 0.940 . S
C158 C157 1.385 . S
C158 C159 1.388 . S
C159 H138 0.939 . S
C159 C154 1.391 . S
C159 C158 1.388 . S
P160 O171 1.490 . S
P160 C174 1.812 . S
P160 C180 1.803 . S
P160 C186 1.819 . S
H161 C175 0.941 . S
H162 C176 0.939 . S
H163 C178 0.940 . S
H164 C179 0.945 . S
H165 C181 0.939 . S
H166 C182 0.942 . S
H167 C184 0.940 . S
H168 C185 0.954 . S
H169 C187 0.941 . S
H170 C191 0.933 1_655 S
O171 P160 1.490 . S
H172 C188 0.939 . S
H173 C190 0.940 . S
C174 P160 1.812 . S
C174 C175 1.389 . S
C174 C179 1.383 1_455 S
C175 H161 0.941 . S
C175 C174 1.389 . S
C175 C176 1.397 . S
C176 H162 0.939 . S
C176 C175 1.397 . S
C176 C177 1.378 . S
C177 C176 1.378 . S
C177 C178 1.378 1_455 S
C178 H163 0.940 . S
C178 C177 1.378 1_655 S
C178 C179 1.400 . S
C179 H164 0.945 . S
C179 C174 1.383 1_655 S
C179 C178 1.400 . S
C180 P160 1.803 . S
C180 C181 1.378 . S
C180 C185 1.377 1_455 S
C181 H165 0.939 . S
C181 C180 1.378 . S
C181 C182 1.361 . S
C182 H166 0.942 . S
C182 C181 1.361 . S
C182 C183 1.369 . S
C183 C182 1.369 . S
C183 C184 1.404 1_455 S
C184 H167 0.940 . S
C184 C183 1.404 1_655 S
C184 C185 1.398 . S
C185 H168 0.954 . S
C185 C180 1.377 1_655 S
C185 C184 1.398 . S
C186 P160 1.819 . S
C186 C187 1.391 . S
C186 C191 1.391 . S
C187 H169 0.941 . S
C187 C186 1.391 . S
C187 C188 1.396 . S
C188 H172 0.939 . S
C188 C187 1.396 . S
C188 C189 1.397 . S
C189 C188 1.397 . S
C189 C190 1.385 1_455 S
C190 H173 0.940 . S
C190 C189 1.385 1_655 S
C190 C191 1.388 1_655 S
C191 H170 0.933 1_455 S
C191 C186 1.391 . S
C191 C190 1.388 1_455 S
P192 O203 1.490 . S
P192 C206 1.812 . S
P192 C212 1.803 . S
P192 C218 1.819 . S
H193 C207 0.941 . S
H194 C208 0.939 . S
H195 C210 0.940 . S
H196 C211 0.940 . S
H197 C213 0.939 . S
H198 C214 0.942 . S
H199 C216 0.940 . S
H200 C217 0.939 . S
H201 C219 0.941 . S
H202 C223 0.939 . S
O203 P192 1.490 . S
H204 C220 0.939 . S
H205 C222 0.940 . S
C206 P192 1.812 . S
C206 C207 1.389 . S
C206 C211 1.391 . S
C207 H193 0.941 . S
C207 C206 1.389 . S
C207 C208 1.397 . S
C208 H194 0.939 . S
C208 C207 1.397 . S
C208 C209 1.378 . S
C209 C208 1.378 . S
C209 C210 1.378 . S
C210 H195 0.940 . S
C210 C209 1.378 . S
C210 C211 1.396 . S
C211 H196 0.940 . S
C211 C206 1.391 . S
C211 C210 1.396 . S
C212 P192 1.803 . S
C212 C213 1.378 . S
C212 C217 1.400 . S
C213 H197 0.939 . S
C213 C212 1.378 . S
C213 C214 1.361 . S
C214 H198 0.942 . S
C214 C213 1.361 . S
C214 C215 1.369 . S
C215 C214 1.369 . S
C215 C216 1.404 . S
C216 H199 0.940 . S
C216 C215 1.404 . S
C216 C217 1.389 . S
C217 H200 0.939 . S
C217 C212 1.400 . S
C217 C216 1.389 . S
C218 P192 1.819 . S
C218 C219 1.391 . S
C218 C223 1.391 . S
C219 H201 0.941 . S
C219 C218 1.391 . S
C219 C220 1.396 . S
C220 H204 0.939 . S
C220 C219 1.396 . S
C220 C221 1.397 . S
C221 C220 1.397 . S
C221 C222 1.385 . S
C222 H205 0.940 . S
C222 C221 1.385 . S
C222 C223 1.388 . S
C223 H202 0.939 . S
C223 C218 1.391 . S
C223 C222 1.388 . S
P224 O235 1.490 . S
P224 C238 1.812 . S
P224 C244 1.803 . S
P224 C250 1.819 . S
H225 C239 0.941 . S
H226 C240 0.939 . S
H227 C242 0.940 . S
H228 C243 0.940 . S
H229 C245 0.939 . S
H230 C246 0.942 . S
H231 C248 0.940 . S
H232 C249 0.939 . S
H233 C251 0.941 . S
H234 C255 0.939 . S
O235 P224 1.490 . S
H236 C252 0.939 . S
H237 C254 0.940 . S
C238 P224 1.812 . S
C238 C239 1.389 . S
C238 C243 1.391 . S
C239 H225 0.941 . S
C239 C238 1.389 . S
C239 C240 1.397 . S
C240 H226 0.939 . S
C240 C239 1.397 . S
C240 C241 1.378 . S
C241 C240 1.378 . S
C241 C242 1.378 . S
C242 H227 0.940 . S
C242 C241 1.378 . S
C242 C243 1.396 . S
C243 H228 0.940 . S
C243 C238 1.391 . S
C243 C242 1.396 . S
C244 P224 1.803 . S
C244 C245 1.378 . S
C244 C249 1.400 . S
C245 H229 0.939 . S
C245 C244 1.378 . S
C245 C246 1.361 . S
C246 H230 0.942 . S
C246 C245 1.361 . S
C246 C247 1.369 . S
C247 C246 1.369 . S
C247 C248 1.404 . S
C248 H231 0.940 . S
C248 C247 1.404 . S
C248 C249 1.389 . S
C249 H232 0.939 . S
C249 C244 1.400 . S
C249 C248 1.389 . S
C250 P224 1.819 . S
C250 C251 1.391 . S
C250 C255 1.391 . S
C251 H233 0.941 . S
C251 C250 1.391 . S
C251 C252 1.396 . S
C252 H236 0.939 . S
C252 C251 1.396 . S
C252 C253 1.397 . S
C253 C252 1.397 . S
C253 C254 1.385 . S
C254 H237 0.940 . S
C254 C253 1.385 . S
C254 C255 1.388 . S
C255 H234 0.939 . S
C255 C250 1.391 . S
C255 C254 1.388 . S
O256 Mg257 1.990 . S
O256 C270 1.253 . S
Mg257 O256 1.990 . S
Mg257 O260 2.180 1_565 S
Mg257 O261 2.117 . S
Mg257 O275 2.030 . S
O258 Mg259 2.072 1_465 S
O258 C270 1.260 . S
Mg259 O258 2.072 1_645 S
Mg259 O260 2.099 1_655 S
Mg259 O262 2.079 . S
Mg259 O263 2.072 1_655 S
Mg259 O265 2.099 . S
Mg259 O276 2.079 1_545 S
O260 Mg257 2.180 1_545 S
O260 Mg259 2.099 1_455 S
O260 C271 1.279 . S
O261 Mg257 2.117 . S
O261 C271 1.250 1_565 S
O262 Mg259 2.079 . S
O262 C272 1.264 . S
O263 Mg259 2.072 1_455 S
O263 C273 1.260 . S
Mg264 O265 2.180 . S
Mg264 O266 2.030 . S
Mg264 O267 1.990 . S
Mg264 O268 2.117 . S
O265 Mg259 2.099 . S
O265 Mg264 2.180 . S
O265 C274 1.279 . S
O266 Mg264 2.030 . S
O266 C272 1.248 . S
O267 Mg264 1.990 . S
O267 C273 1.253 1_655 S
O268 Mg264 2.117 . S
O268 C274 1.250 . S
C269 O275 1.248 1_655 S
C269 O276 1.264 . S
C270 O256 1.253 . S
C270 O258 1.260 . S
C271 O260 1.279 . S
C271 O261 1.250 1_545 S
C272 O262 1.264 . S
C272 O266 1.248 . S
C273 O263 1.260 . S
C273 O267 1.253 1_455 S
C274 O265 1.279 . S
C274 O268 1.250 . S
O275 Mg257 2.030 . S
O275 C269 1.248 1_455 S
O276 Mg259 2.079 1_565 S
O276 C269 1.264 . S
O277 Mg278 1.990 1_545 S
O277 C291 1.253 . S
Mg278 O277 1.990 1_565 S
Mg278 O281 2.180 . S
Mg278 O282 2.117 . S
Mg278 O296 2.030 1_565 S
O279 Mg280 2.072 . S
O279 C291 1.260 . S
Mg280 O279 2.072 . S
Mg280 O281 2.099 1_545 S
Mg280 O283 2.079 1_545 S
Mg280 O284 2.072 1_545 S
Mg280 O286 2.099 . S
Mg280 O297 2.079 . S
O281 Mg278 2.180 . S
O281 Mg280 2.099 1_565 S
O281 C292 1.279 . S
O282 Mg278 2.117 . S
O282 C292 1.250 . S
O283 Mg280 2.079 1_565 S
O283 C293 1.264 . S
O284 Mg280 2.072 1_565 S
O284 C294 1.260 1_565 S
Mg285 O286 2.180 . S
Mg285 O287 2.030 . S
Mg285 O288 1.990 . S
Mg285 O289 2.117 . S
O286 Mg280 2.099 . S
O286 Mg285 2.180 . S
O286 C295 1.279 . S
O287 Mg285 2.030 . S
O287 C293 1.248 1_545 S
O288 Mg285 1.990 . S
O288 C294 1.253 . S
O289 Mg285 2.117 . S
O289 C295 1.250 . S
C290 O296 1.248 . S
C290 O297 1.264 . S
C291 O277 1.253 . S
C291 O279 1.260 . S
C292 O281 1.279 . S
C292 O282 1.250 . S
C293 O283 1.264 . S
C293 O287 1.248 1_565 S
C294 O284 1.260 1_545 S
C294 O288 1.253 . S
C295 O286 1.279 . S
C295 O289 1.250 . S
O296 Mg278 2.030 1_545 S
O296 C290 1.248 . S
O297 Mg280 2.079 . S
O297 C290 1.264 . S
O298 Mg299 1.990 . S
O298 C312 1.253 . S
Mg299 O298 1.990 . S
Mg299 O302 2.180 . S
Mg299 O303 2.117 . S
Mg299 O317 2.030 . S
O300 Mg301 2.072 . S
O300 C312 1.260 . S
Mg301 O300 2.072 . S
Mg301 O302 2.099 . S
Mg301 O304 2.079 . S
Mg301 O305 2.072 . S
Mg301 O307 2.099 . S
Mg301 O318 2.079 . S
O302 Mg299 2.180 . S
O302 Mg301 2.099 . S
O302 C313 1.279 . S
O303 Mg299 2.117 . S
O303 C313 1.250 . S
O304 Mg301 2.079 . S
O304 C314 1.264 . S
O305 Mg301 2.072 . S
O305 C315 1.260 . S
Mg306 O307 2.180 . S
Mg306 O308 2.030 . S
Mg306 O309 1.990 . S
Mg306 O310 2.117 . S
O307 Mg301 2.099 . S
O307 Mg306 2.180 . S
O307 C316 1.279 . S
O308 Mg306 2.030 . S
O308 C314 1.248 . S
O309 Mg306 1.990 . S
O309 C315 1.253 . S
O310 Mg306 2.117 . S
O310 C316 1.250 . S
C311 O317 1.248 . S
C311 O318 1.264 . S
C312 O298 1.253 . S
C312 O300 1.260 . S
C313 O302 1.279 . S
C313 O303 1.250 . S
C314 O304 1.264 . S
C314 O308 1.248 . S
C315 O305 1.260 . S
C315 O309 1.253 . S
C316 O307 1.279 . S
C316 O310 1.250 . S
O317 Mg299 2.030 . S
O317 C311 1.248 . S
O318 Mg301 2.079 . S
O318 C311 1.264 . S
O319 Mg320 1.990 . S
O319 C333 1.253 . S
Mg320 O319 1.990 . S
Mg320 O323 2.180 . S
Mg320 O324 2.117 . S
Mg320 O338 2.030 . S
O321 Mg322 2.072 1_655 S
O321 C333 1.260 . S
Mg322 O321 2.072 1_455 S
Mg322 O323 2.099 1_455 S
Mg322 O325 2.079 . S
Mg322 O326 2.072 . S
Mg322 O328 2.099 . S
Mg322 O339 2.079 1_455 S
O323 Mg320 2.180 . S
O323 Mg322 2.099 1_655 S
O323 C334 1.279 . S
O324 Mg320 2.117 . S
O324 C334 1.250 . S
O325 Mg322 2.079 . S
O325 C335 1.264 . S
O326 Mg322 2.072 . S
O326 C336 1.260 . S
Mg327 O328 2.180 . S
Mg327 O329 2.030 . S
Mg327 O330 1.990 . S
Mg327 O331 2.117 . S
O328 Mg322 2.099 . S
O328 Mg327 2.180 . S
O328 C337 1.279 . S
O329 Mg327 2.030 . S
O329 C335 1.248 . S
O330 Mg327 1.990 . S
O330 C336 1.253 . S
O331 Mg327 2.117 . S
O331 C337 1.250 . S
C332 O338 1.248 . S
C332 O339 1.264 . S
C333 O319 1.253 . S
C333 O321 1.260 . S
C334 O323 1.279 . S
C334 O324 1.250 . S
C335 O325 1.264 . S
C335 O329 1.248 . S
C336 O326 1.260 . S
C336 O330 1.253 . S
C337 O328 1.279 . S
C337 O331 1.250 . S
O338 Mg320 2.030 . S
O338 C332 1.248 . S
O339 Mg322 2.079 1_655 S
O339 C332 1.264 . S
H340 C346 0.930 . S
H341 C349 0.930 . S
H342 C350 0.930 . S
H343 C351 0.930 . S
H344 C354 0.930 . S
H345 C355 0.930 . S
C346 H340 0.930 . S
C346 C347 1.355 . S
C346 C348 1.415 . S
C347 C346 1.355 . S
C347 C349 1.419 . S
C348 C346 1.415 . S
C348 C353 1.425 . S
C348 C355 1.409 . S
C349 H341 0.930 . S
C349 C347 1.419 . S
C349 C350 1.362 . S
C350 H342 0.930 . S
C350 C349 1.362 . S
C350 C353 1.409 . S
C351 H343 0.930 . S
C351 C352 1.355 . S
C351 C353 1.415 . S
C352 C351 1.355 . S
C352 C354 1.419 . S
C353 C348 1.425 . S
C353 C350 1.409 . S
C353 C351 1.415 . S
C354 H344 0.930 . S
C354 C352 1.419 . S
C354 C355 1.362 . S
C355 H345 0.930 . S
C355 C348 1.409 . S
C355 C354 1.362 . S
H356 C362 0.930 . S
H357 C365 0.930 . S
H358 C366 0.930 . S
H359 C367 0.930 . S
H360 C370 0.930 . S
H361 C371 0.930 . S
C362 H356 0.930 . S
C362 C363 1.355 . S
C362 C364 1.415 . S
C363 C362 1.355 . S
C363 C365 1.419 . S
C364 C362 1.415 . S
C364 C369 1.425 . S
C364 C371 1.409 . S
C365 H357 0.930 . S
C365 C363 1.419 . S
C365 C366 1.362 . S
C366 H358 0.930 . S
C366 C365 1.362 . S
C366 C369 1.409 . S
C367 H359 0.930 . S
C367 C368 1.355 . S
C367 C369 1.415 . S
C368 C367 1.355 . S
C368 C370 1.419 . S
C369 C364 1.425 . S
C369 C366 1.409 . S
C369 C367 1.415 . S
C370 H360 0.930 . S
C370 C368 1.419 . S
C370 C371 1.362 . S
C371 H361 0.930 . S
C371 C364 1.409 . S
C371 C370 1.362 . S
H372 C378 0.930 . S
H373 C381 0.930 . S
H374 C382 0.930 . S
H375 C383 0.930 . S
H376 C386 0.930 . S
H377 C387 0.930 . S
C378 H372 0.930 . S
C378 C379 1.355 . S
C378 C380 1.415 . S
C379 C378 1.355 . S
C379 C381 1.419 . S
C380 C378 1.415 . S
C380 C385 1.425 . S
C380 C387 1.409 . S
C381 H373 0.930 . S
C381 C379 1.419 . S
C381 C382 1.362 . S
C382 H374 0.930 . S
C382 C381 1.362 . S
C382 C385 1.409 . S
C383 H375 0.930 . S
C383 C384 1.355 . S
C383 C385 1.415 . S
C384 C383 1.355 . S
C384 C386 1.419 . S
C385 C380 1.425 . S
C385 C382 1.409 . S
C385 C383 1.415 . S
C386 H376 0.930 . S
C386 C384 1.419 . S
C386 C387 1.362 . S
C387 H377 0.930 . S
C387 C380 1.409 . S
C387 C386 1.362 . S
H388 C394 0.930 . S
H389 C397 0.930 . S
H390 C398 0.930 . S
H391 C399 0.930 . S
H392 C402 0.930 . S
H393 C403 0.930 . S
C394 H388 0.930 . S
C394 C395 1.355 1_455 S
C394 C396 1.415 . S
C395 C394 1.355 1_655 S
C395 C397 1.419 . S
C396 C394 1.415 . S
C396 C401 1.425 1_455 S
C396 C403 1.409 . S
C397 H389 0.930 . S
C397 C395 1.419 . S
C397 C398 1.362 . S
C398 H390 0.930 . S
C398 C397 1.362 . S
C398 C401 1.409 . S
C399 H391 0.930 . S
C399 C400 1.355 . S
C399 C401 1.415 . S
C400 C399 1.355 . S
C400 C402 1.419 1_655 S
C401 C396 1.425 1_655 S
C401 C398 1.409 . S
C401 C399 1.415 . S
C402 H392 0.930 . S
C402 C400 1.419 1_455 S
C402 C403 1.362 . S
C403 H393 0.930 . S
C403 C396 1.409 . S
C403 C402 1.362 . S
H404 C410 0.930 . S
H405 C413 0.930 1_554 S
H406 C414 0.930 . S
H407 C415 0.930 . S
H408 C418 0.930 1_545 S
H409 C419 0.930 . S
C410 H404 0.930 . S
C410 C411 1.355 . S
C410 C412 1.415 . S
C411 C410 1.355 . S
C411 C413 1.419 . S
C412 C410 1.415 . S
C412 C417 1.425 . S
C412 C419 1.409 . S
C413 H405 0.930 1_556 S
C413 C411 1.419 . S
C413 C414 1.362 . S
C414 H406 0.930 . S
C414 C413 1.362 . S
C414 C417 1.409 . S
C415 H407 0.930 . S
C415 C416 1.355 . S
C415 C417 1.415 . S
C416 C415 1.355 . S
C416 C418 1.419 . S
C417 C412 1.425 . S
C417 C414 1.409 . S
C417 C415 1.415 . S
C418 H408 0.930 1_565 S
C418 C416 1.419 . S
C418 C419 1.362 . S
C419 H409 0.930 . S
C419 C412 1.409 . S
C419 C418 1.362 . S
H420 C426 0.930 . S
H421 C429 0.930 . S
H422 C430 0.930 . S
H423 C431 0.930 . S
H424 C434 0.930 . S
H425 C435 0.930 . S
C426 H420 0.930 . S
C426 C427 1.355 1_556 S
C426 C428 1.415 . S
C427 C426 1.355 1_554 S
C427 C429 1.419 . S
C428 C426 1.415 . S
C428 C433 1.425 . S
C428 C435 1.409 . S
C429 H421 0.930 . S
C429 C427 1.419 . S
C429 C430 1.362 1_554 S
C430 H422 0.930 . S
C430 C429 1.362 1_556 S
C430 C433 1.409 . S
C431 H423 0.930 . S
C431 C432 1.355 . S
C431 C433 1.415 . S
C432 C431 1.355 . S
C432 C434 1.419 . S
C433 C428 1.425 . S
C433 C430 1.409 . S
C433 C431 1.415 . S
C434 H424 0.930 . S
C434 C432 1.419 . S
C434 C435 1.362 . S
C435 H425 0.930 . S
C435 C428 1.409 . S
C435 C434 1.362 . S
H436 C442 0.930 . S
H437 C445 0.930 . S
H438 C446 0.930 . S
H439 C447 0.930 . S
H440 C450 0.930 . S
H441 C451 0.930 . S
C442 H436 0.930 . S
C442 C443 1.355 . S
C442 C444 1.415 . S
C443 C442 1.355 . S
C443 C445 1.419 . S
C444 C442 1.415 . S
C444 C449 1.425 . S
C444 C451 1.409 . S
C445 H437 0.930 . S
C445 C443 1.419 . S
C445 C446 1.362 . S
C446 H438 0.930 . S
C446 C445 1.362 . S
C446 C449 1.409 . S
C447 H439 0.930 . S
C447 C448 1.355 . S
C447 C449 1.415 . S
C448 C447 1.355 . S
C448 C450 1.419 . S
C449 C444 1.425 . S
C449 C446 1.409 . S
C449 C447 1.415 . S
C450 H440 0.930 . S
C450 C448 1.419 . S
C450 C451 1.362 . S
C451 H441 0.930 . S
C451 C444 1.409 . S
C451 C450 1.362 . S
H452 C458 0.930 . S
H453 C461 0.930 . S
H454 C462 0.930 1_554 S
H455 C463 0.930 . S
H456 C466 0.930 . S
H457 C467 0.930 . S
C458 H452 0.930 . S
C458 C459 1.355 1_656 S
C458 C460 1.415 . S
C459 C458 1.355 1_454 S
C459 C461 1.419 . S
C460 C458 1.415 . S
C460 C465 1.425 1_655 S
C460 C467 1.409 . S
C461 H453 0.930 . S
C461 C459 1.419 . S
C461 C462 1.362 1_554 S
C462 H454 0.930 1_556 S
C462 C461 1.362 1_556 S
C462 C465 1.409 . S
C463 H455 0.930 . S
C463 C464 1.355 . S
C463 C465 1.415 . S
C464 C463 1.355 . S
C464 C466 1.419 1_455 S
C465 C460 1.425 1_455 S
C465 C462 1.409 . S
C465 C463 1.415 . S
C466 H456 0.930 . S
C466 C464 1.419 1_655 S
C466 C467 1.362 . S
C467 H457 0.930 . S
C467 C460 1.409 . S
C467 C466 1.362 . S
H468 C474 0.930 . S
H469 C477 0.930 . S
H470 C478 0.930 . S
H471 C479 0.930 . S
H472 C482 0.930 . S
H473 C483 0.930 . S
C474 H468 0.930 . S
C474 C475 1.355 1_655 S
C474 C476 1.415 . S
C475 C474 1.355 1_455 S
C475 C477 1.419 . S
C476 C474 1.415 . S
C476 C481 1.425 1_655 S
C476 C483 1.409 . S
C477 H469 0.930 . S
C477 C475 1.419 . S
C477 C478 1.362 . S
C478 H470 0.930 . S
C478 C477 1.362 . S
C478 C481 1.409 . S
C479 H471 0.930 . S
C479 C480 1.355 1_455 S
C479 C481 1.415 . S
C480 C479 1.355 1_655 S
C480 C482 1.419 . S
C481 C476 1.425 1_455 S
C481 C478 1.409 . S
C481 C479 1.415 . S
C482 H472 0.930 . S
C482 C480 1.419 . S
C482 C483 1.362 . S
C483 H473 0.930 . S
C483 C476 1.409 . S
C483 C482 1.362 . S
H484 C490 0.930 . S
H485 C493 0.930 . S
H486 C494 0.930 . S
H487 C495 0.930 . S
H488 C498 0.930 . S
H489 C499 0.930 . S
C490 H484 0.930 . S
C490 C491 1.355 . S
C490 C492 1.415 . S
C491 C490 1.355 . S
C491 C493 1.419 . S
C492 C490 1.415 . S
C492 C497 1.425 . S
C492 C499 1.409 . S
C493 H485 0.930 . S
C493 C491 1.419 . S
C493 C494 1.362 . S
C494 H486 0.930 . S
C494 C493 1.362 . S
C494 C497 1.409 . S
C495 H487 0.930 . S
C495 C496 1.355 . S
C495 C497 1.415 . S
C496 C495 1.355 . S
C496 C498 1.419 . S
C497 C492 1.425 . S
C497 C494 1.409 . S
C497 C495 1.415 . S
C498 H488 0.930 . S
C498 C496 1.419 . S
C498 C499 1.362 . S
C499 H489 0.930 . S
C499 C492 1.409 . S
C499 C498 1.362 . S
H500 C506 0.930 . S
H501 C509 0.930 . S
H502 C510 0.930 . S
H503 C511 0.930 . S
H504 C514 0.930 . S
H505 C515 0.930 . S
C506 H500 0.930 . S
C506 C507 1.355 . S
C506 C508 1.415 . S
C507 C506 1.355 . S
C507 C509 1.419 . S
C508 C506 1.415 . S
C508 C513 1.425 . S
C508 C515 1.409 . S
C509 H501 0.930 . S
C509 C507 1.419 . S
C509 C510 1.362 . S
C510 H502 0.930 . S
C510 C509 1.362 . S
C510 C513 1.409 . S
C511 H503 0.930 . S
C511 C512 1.355 . S
C511 C513 1.415 . S
C512 C511 1.355 . S
C512 C514 1.419 . S
C513 C508 1.425 . S
C513 C510 1.409 . S
C513 C511 1.415 . S
C514 H504 0.930 . S
C514 C512 1.419 . S
C514 C515 1.362 . S
C515 H505 0.930 . S
C515 C508 1.409 . S
C515 C514 1.362 . S
H516 C522 0.930 . S
H517 C525 0.930 . S
H518 C526 0.930 . S
H519 C527 0.930 . S
H520 C530 0.930 . S
H521 C531 0.930 . S
C522 H516 0.930 . S
C522 C523 1.355 . S
C522 C524 1.415 . S
C523 C522 1.355 . S
C523 C525 1.419 . S
C524 C522 1.415 . S
C524 C529 1.425 . S
C524 C531 1.409 . S
C525 H517 0.930 . S
C525 C523 1.419 . S
C525 C526 1.362 . S
C526 H518 0.930 . S
C526 C525 1.362 . S
C526 C529 1.409 . S
C527 H519 0.930 . S
C527 C528 1.355 . S
C527 C529 1.415 . S
C528 C527 1.355 . S
C528 C530 1.419 . S
C529 C524 1.425 . S
C529 C526 1.409 . S
C529 C527 1.415 . S
C530 H520 0.930 . S
C530 C528 1.419 . S
C530 C531 1.362 . S
C531 H521 0.930 . S
C531 C524 1.409 . S
C531 C530 1.362 . S
H532 C538 0.930 . S
H533 C541 0.930 . S
H534 C542 0.930 . S
H535 C543 0.930 . S
H536 C546 0.930 . S
H537 C547 0.930 . S
C538 H532 0.930 . S
C538 C539 1.355 1_655 S
C538 C540 1.415 . S
C539 C538 1.355 1_455 S
C539 C541 1.419 . S
C540 C538 1.415 . S
C540 C545 1.425 1_655 S
C540 C547 1.409 . S
C541 H533 0.930 . S
C541 C539 1.419 . S
C541 C542 1.362 . S
C542 H534 0.930 . S
C542 C541 1.362 . S
C542 C545 1.409 . S
C543 H535 0.930 . S
C543 C544 1.355 . S
C543 C545 1.415 . S
C544 C543 1.355 . S
C544 C546 1.419 1_455 S
C545 C540 1.425 1_455 S
C545 C542 1.409 . S
C545 C543 1.415 . S
C546 H536 0.930 . S
C546 C544 1.419 1_655 S
C546 C547 1.362 . S
C547 H537 0.930 . S
C547 C540 1.409 . S
C547 C546 1.362 . S
H548 C554 0.930 . S
H549 C557 0.930 . S
H550 C558 0.930 . S
H551 C559 0.930 1_545 S
H552 C562 0.930 . S
H553 C563 0.930 . S
C554 H548 0.930 . S
C554 C555 1.355 . S
C554 C556 1.415 . S
C555 C554 1.355 . S
C555 C557 1.419 . S
C556 C554 1.415 . S
C556 C561 1.425 . S
C556 C563 1.409 . S
C557 H549 0.930 . S
C557 C555 1.419 . S
C557 C558 1.362 . S
C558 H550 0.930 . S
C558 C557 1.362 . S
C558 C561 1.409 . S
C559 H551 0.930 1_565 S
C559 C560 1.355 . S
C559 C561 1.415 . S
C560 C559 1.355 . S
C560 C562 1.419 . S
C561 C556 1.425 . S
C561 C558 1.409 . S
C561 C559 1.415 . S
C562 H552 0.930 . S
C562 C560 1.419 . S
C562 C563 1.362 . S
C563 H553 0.930 . S
C563 C556 1.409 . S
C563 C562 1.362 . S
H564 C570 0.930 . S
H565 C573 0.930 . S
H566 C574 0.930 . S
H567 C575 0.930 . S
H568 C578 0.930 . S
H569 C579 0.930 . S
C570 H564 0.930 . S
C570 C571 1.355 . S
C570 C572 1.415 . S
C571 C570 1.355 . S
C571 C573 1.419 . S
C572 C570 1.415 . S
C572 C577 1.425 . S
C572 C579 1.409 . S
C573 H565 0.930 . S
C573 C571 1.419 . S
C573 C574 1.362 . S
C574 H566 0.930 . S
C574 C573 1.362 . S
C574 C577 1.409 . S
C575 H567 0.930 . S
C575 C576 1.355 . S
C575 C577 1.415 . S
C576 C575 1.355 . S
C576 C578 1.419 . S
C577 C572 1.425 . S
C577 C574 1.409 . S
C577 C575 1.415 . S
C578 H568 0.930 . S
C578 C576 1.419 . S
C578 C579 1.362 . S
C579 H569 0.930 . S
C579 C572 1.409 . S
C579 C578 1.362 . S
H580 C586 0.930 . S
H581 C589 0.930 . S
H582 C590 0.930 . S
H583 C591 0.930 . S
H584 C594 0.930 . S
H585 C595 0.930 . S
C586 H580 0.930 . S
C586 C587 1.355 . S
C586 C588 1.415 . S
C587 C586 1.355 . S
C587 C589 1.419 . S
C588 C586 1.415 . S
C588 C593 1.425 . S
C588 C595 1.409 . S
C589 H581 0.930 . S
C589 C587 1.419 . S
C589 C590 1.362 . S
C590 H582 0.930 . S
C590 C589 1.362 . S
C590 C593 1.409 . S
C591 H583 0.930 . S
C591 C592 1.355 . S
C591 C593 1.415 . S
C592 C591 1.355 . S
C592 C594 1.419 . S
C593 C588 1.425 . S
C593 C590 1.409 . S
C593 C591 1.415 . S
C594 H584 0.930 . S
C594 C592 1.419 . S
C594 C595 1.362 . S
C595 H585 0.930 . S
C595 C588 1.409 . S
C595 C594 1.362 . S
H596 C602 0.930 . S
H597 C605 0.930 . S
H598 C606 0.930 . S
H599 C607 0.930 . S
H600 C610 0.930 . S
H601 C611 0.930 1_554 S
C602 H596 0.930 . S
C602 C603 1.355 1_655 S
C602 C604 1.415 1_554 S
C603 C602 1.355 1_455 S
C603 C605 1.419 1_554 S
C604 C602 1.415 1_556 S
C604 C609 1.425 1_655 S
C604 C611 1.409 . S
C605 H597 0.930 . S
C605 C603 1.419 1_556 S
C605 C606 1.362 . S
C606 H598 0.930 . S
C606 C605 1.362 . S
C606 C609 1.409 . S
C607 H599 0.930 . S
C607 C608 1.355 . S
C607 C609 1.415 . S
C608 C607 1.355 . S
C608 C610 1.419 1_455 S
C609 C604 1.425 1_455 S
C609 C606 1.409 . S
C609 C607 1.415 . S
C610 H600 0.930 . S
C610 C608 1.419 1_655 S
C610 C611 1.362 . S
C611 H601 0.930 1_556 S
C611 C604 1.409 . S
C611 C610 1.362 . S
H612 C618 0.930 . S
H613 C621 0.930 . S
H614 C622 0.930 . S
H615 C623 0.930 . S
H616 C626 0.930 . S
H617 C627 0.930 . S
C618 H612 0.930 . S
C618 C619 1.355 1_556 S
C618 C620 1.415 . S
C619 C618 1.355 1_554 S
C619 C621 1.419 . S
C620 C618 1.415 . S
C620 C625 1.425 . S
C620 C627 1.409 . S
C621 H613 0.930 . S
C621 C619 1.419 . S
C621 C622 1.362 . S
C622 H614 0.930 . S
C622 C621 1.362 . S
C622 C625 1.409 1_554 S
C623 H615 0.930 . S
C623 C624 1.355 . S
C623 C625 1.415 . S
C624 C623 1.355 . S
C624 C626 1.419 . S
C625 C620 1.425 . S
C625 C622 1.409 1_556 S
C625 C623 1.415 . S
C626 H616 0.930 . S
C626 C624 1.419 . S
C626 C627 1.362 . S
C627 H617 0.930 . S
C627 C620 1.409 . S
C627 C626 1.362 . S
H628 C634 0.930 . S
H629 C637 0.930 . S
H630 C638 0.930 . S
H631 C639 0.930 . S
H632 C642 0.930 . S
H633 C643 0.930 . S
C634 H628 0.930 . S
C634 C635 1.355 1_556 S
C634 C636 1.415 . S
C635 C634 1.355 1_554 S
C635 C637 1.419 . S
C636 C634 1.415 . S
C636 C641 1.425 . S
C636 C643 1.409 . S
C637 H629 0.930 . S
C637 C635 1.419 . S
C637 C638 1.362 . S
C638 H630 0.930 . S
C638 C637 1.362 . S
C638 C641 1.409 1_554 S
C639 H631 0.930 . S
C639 C640 1.355 . S
C639 C641 1.415 . S
C640 C639 1.355 . S
C640 C642 1.419 . S
C641 C636 1.425 . S
C641 C638 1.409 1_556 S
C641 C639 1.415 . S
C642 H632 0.930 . S
C642 C640 1.419 . S
C642 C643 1.362 . S
C643 H633 0.930 . S
C643 C636 1.409 . S
C643 C642 1.362 . S
H644 C650 0.930 . S
H645 C653 0.930 . S
H646 C654 0.930 . S
H647 C655 0.930 . S
H648 C658 0.930 . S
H649 C659 0.930 . S
C650 H644 0.930 . S
C650 C651 1.355 1_556 S
C650 C652 1.415 . S
C651 C650 1.355 1_554 S
C651 C653 1.419 . S
C652 C650 1.415 . S
C652 C657 1.425 . S
C652 C659 1.409 . S
C653 H645 0.930 . S
C653 C651 1.419 . S
C653 C654 1.362 . S
C654 H646 0.930 . S
C654 C653 1.362 . S
C654 C657 1.409 1_554 S
C655 H647 0.930 . S
C655 C656 1.355 . S
C655 C657 1.415 . S
C656 C655 1.355 . S
C656 C658 1.419 . S
C657 C652 1.425 . S
C657 C654 1.409 1_556 S
C657 C655 1.415 . S
C658 H648 0.930 . S
C658 C656 1.419 . S
C658 C659 1.362 . S
C659 H649 0.930 . S
C659 C652 1.409 . S
C659 C658 1.362 . S
H660 C666 0.930 . S
H661 C669 0.930 . S
H662 C670 0.930 . S
H663 C671 0.944 . S
H664 C674 0.930 . S
H665 C675 0.930 . S
C666 H660 0.930 . S
C666 C667 1.346 1_655 S
C666 C668 1.415 . S
C667 C666 1.346 1_455 S
C667 C669 1.429 . S
C668 C666 1.415 . S
C668 C673 1.425 1_655 S
C668 C675 1.409 . S
C669 H661 0.930 . S
C669 C667 1.429 . S
C669 C670 1.362 . S
C670 H662 0.930 . S
C670 C669 1.362 . S
C670 C673 1.409 . S
C671 H663 0.944 . S
C671 C672 1.342 1_455 S
C671 C673 1.415 . S
C672 C671 1.342 1_655 S
C672 C674 1.419 . S
C673 C668 1.425 1_455 S
C673 C670 1.409 . S
C673 C671 1.415 . S
C674 H664 0.930 . S
C674 C672 1.419 . S
C674 C675 1.362 . S
C675 H665 0.930 . S
C675 C668 1.409 . S
C675 C674 1.362 . S
H676 C682 0.930 . S
H677 C685 0.930 . S
H678 C686 0.930 . S
H679 C687 0.930 . S
H680 C690 0.930 . S
H681 C691 0.930 . S
C682 H676 0.930 . S
C682 C683 1.355 . S
C682 C684 1.415 . S
C683 C682 1.355 . S
C683 C685 1.419 . S
C684 C682 1.415 . S
C684 C689 1.425 . S
C684 C691 1.409 . S
C685 H677 0.930 . S
C685 C683 1.419 . S
C685 C686 1.362 . S
C686 H678 0.930 . S
C686 C685 1.362 . S
C686 C689 1.409 . S
C687 H679 0.930 . S
C687 C688 1.355 . S
C687 C689 1.415 . S
C688 C687 1.355 . S
C688 C690 1.419 . S
C689 C684 1.425 . S
C689 C686 1.409 . S
C689 C687 1.415 . S
C690 H680 0.930 . S
C690 C688 1.419 . S
C690 C691 1.362 . S
C691 H681 0.930 . S
C691 C684 1.409 . S
C691 C690 1.362 . S
H692 C698 0.930 . S
H693 C701 0.930 . S
H694 C702 0.930 . S
H695 C703 0.930 . S
H696 C706 0.930 . S
H697 C707 0.930 . S
C698 H692 0.930 . S
C698 C699 1.355 . S
C698 C700 1.415 . S
C699 C698 1.355 . S
C699 C701 1.419 . S
C700 C698 1.415 . S
C700 C705 1.425 . S
C700 C707 1.409 . S
C701 H693 0.930 . S
C701 C699 1.419 . S
C701 C702 1.362 . S
C702 H694 0.930 . S
C702 C701 1.362 . S
C702 C705 1.409 . S
C703 H695 0.930 . S
C703 C704 1.355 . S
C703 C705 1.415 . S
C704 C703 1.355 . S
C704 C706 1.419 . S
C705 C700 1.425 . S
C705 C702 1.409 . S
C705 C703 1.415 . S
C706 H696 0.930 . S
C706 C704 1.419 . S
C706 C707 1.362 . S
C707 H697 0.930 . S
C707 C700 1.409 . S
C707 C706 1.362 . S
H708 C714 0.930 . S
H709 C717 0.930 . S
H710 C718 0.930 . S
H711 C719 0.930 . S
H712 C722 0.930 . S
H713 C723 0.930 . S
C714 H708 0.930 . S
C714 C715 1.355 . S
C714 C716 1.415 . S
C715 C714 1.355 . S
C715 C717 1.419 . S
C716 C714 1.415 . S
C716 C721 1.425 . S
C716 C723 1.409 . S
C717 H709 0.930 . S
C717 C715 1.419 . S
C717 C718 1.362 . S
C718 H710 0.930 . S
C718 C717 1.362 . S
C718 C721 1.409 . S
C719 H711 0.930 . S
C719 C720 1.355 . S
C719 C721 1.415 . S
C720 C719 1.355 . S
C720 C722 1.419 . S
C721 C716 1.425 . S
C721 C718 1.409 . S
C721 C719 1.415 . S
C722 H712 0.930 . S
C722 C720 1.419 . S
C722 C723 1.362 . S
C723 H713 0.930 . S
C723 C716 1.409 . S
C723 C722 1.362 . S
C347 C215 1.951 . S
C352 C271 1.840 . S
C368 C295 1.421 . S
C363 C247 1.594 . S
C384 C316 1.831 . S
C379 C151 1.918 . S
C400 C334 1.479 . S
C395 C183 1.614 1_655 S
C416 C274 1.666 1_565 S
C411 C87 1.699 1_556 S
C427 C119 1.455 . S
C432 C292 1.340 . S
C443 C23 1.680 1_556 S
C448 C313 1.635 . S
C459 C55 1.455 . S
C464 C337 1.363 . S
C480 C272 0.624 . S
C475 C189 0.539 . S
C496 C290 0.856 . S
C491 C221 0.850 . S
C512 C311 0.612 . S
C507 C253 0.617 . S
C523 C157 0.818 . S
C528 C335 0.797 . S
C539 C61 0.551 . S
C544 C270 0.648 . S
C560 C294 0.956 1_565 S
C555 C93 0.786 . S
C576 C315 0.547 . S
C571 C125 0.656 . S
C587 C29 0.874 . S
C592 C333 0.904 . S
C603 C177 1.740 . S
C608 C273 1.723 . S
C619 C209 1.971 . S
C624 C291 1.945 . S
C640 C312 1.719 . S
C635 C241 1.693 . S
C656 C336 1.955 . S
C651 C145 1.981 . S
C667 C49 1.668 . S
C672 C269 1.675 . S
C688 C293 1.866 . S
C683 C81 1.756 . S
C704 C314 1.584 . S
C699 C113 1.680 . S
C715 C17 1.803 . S
C720 C332 1.832 . S
