# Generated by pormake.
# Topology pth, (4,4)-cn, num edge types: 1
# Building blocks:
#     Node 0, Type 0, BuildingBlock: CEKHIL_clean_sbu_0, # of connection points: 4
#     Node 1, Type 0, BuildingBlock: CEKHIL_clean_sbu_0, # of connection points: 4
#     Node 2, Type 0, BuildingBlock: CEKHIL_clean_sbu_0, # of connection points: 4
#     Node 3, Type 1, BuildingBlock: NAWXER_clean_linker_0, # of connection points: 4
#     Node 4, Type 1, BuildingBlock: NAWXER_clean_linker_0, # of connection points: 4
#     Node 5, Type 1, BuildingBlock: NAWXER_clean_linker_0, # of connection points: 4
#     Edge 6, Type (0, 1), BuildingBlock: XUDNAN_clean_linker_2, # of connection points: 2
#     Edge 7, Type (0, 1), BuildingBlock: XUDNAN_clean_linker_2, # of connection points: 2
#     Edge 8, Type (0, 1), BuildingBlock: XUDNAN_clean_linker_2, # of connection points: 2
#     Edge 9, Type (0, 1), BuildingBlock: XUDNAN_clean_linker_2, # of connection points: 2
#     Edge 10, Type (0, 1), BuildingBlock: XUDNAN_clean_linker_2, # of connection points: 2
#     Edge 11, Type (0, 1), BuildingBlock: XUDNAN_clean_linker_2, # of connection points: 2
#     Edge 12, Type (0, 1), BuildingBlock: XUDNAN_clean_linker_2, # of connection points: 2
#     Edge 13, Type (0, 1), BuildingBlock: XUDNAN_clean_linker_2, # of connection points: 2
#     Edge 14, Type (0, 1), BuildingBlock: XUDNAN_clean_linker_2, # of connection points: 2
#     Edge 15, Type (0, 1), BuildingBlock: XUDNAN_clean_linker_2, # of connection points: 2
#     Edge 16, Type (0, 1), BuildingBlock: XUDNAN_clean_linker_2, # of connection points: 2
#     Edge 17, Type (0, 1), BuildingBlock: XUDNAN_clean_linker_2, # of connection points: 2
# Relax obj value: 0.006
# Max RMSD: 0.048
# Mean RMSD: 0.037
data_MOF--net-pth--node1-CEKHIL_clean_sbu_0--node2-NAWXER_clean_linker_0--edge1-XUDNAN_clean_linker_2
_symmetry_space_group_name_H-M    P1
_symmetry_Int_Tables_number       1
_symmetry_cell_setting            triclinic
loop_
_symmetry_equiv_pos_as_xyz
'x, y, z'
_cell_length_a     28.530043
_cell_length_b     28.613867
_cell_length_c     65.728558
_cell_angle_alpha  90.899113
_cell_angle_beta   89.884481
_cell_angle_gamma 120.39087
loop_
_atom_site_label
_atom_site_type_symbol
_atom_site_fract_x
_atom_site_fract_y
_atom_site_fract_z
_atom_type_partial_charge
Co0 Co 0.04444 0.03934 0.06701 0.0
O1 O 0.01223 0.97934 0.08529 0.0
O2 O 0.08139 0.99817 0.06501 0.0
C3 C 0.04931 0.10088 0.09008 0.0
O4 O 0.09068 0.09963 0.04706 0.0
Co5 Co 0.98335 0.09646 0.05439 0.0
O6 O 0.05662 0.15524 0.04648 0.0
C7 C 0.95183 0.99101 0.03551 0.0
C8 C 0.04822 0.96759 0.07903 0.0
C9 C 0.09408 0.14483 0.04246 0.0
O10 O 0.99238 0.9929 0.04479 0.0
O11 O 0.93864 0.02732 0.03808 0.0
O12 O 0.08628 0.08724 0.08928 0.0
O13 O 0.00791 0.07394 0.07798 0.0
Co14 Co 0.00519 0.03174 0.38191 0.0
O15 O 0.96944 0.05435 0.36281 0.0
O16 O 0.02875 0.10747 0.38633 0.0
C17 C 0.02765 0.98752 0.35854 0.0
O18 O 0.05358 0.02545 0.40325 0.0
Co19 Co 0.96616 0.91162 0.39027 0.0
O20 O 0.03623 0.93986 0.40496 0.0
C21 C 0.90794 0.96272 0.40896 0.0
C22 C 0.99767 0.10237 0.371 0.0
C23 C 0.06456 0.98988 0.40987 0.0
O24 O 0.94398 0.00938 0.40222 0.0
O25 O 0.90791 0.91896 0.4045 0.0
O26 O 0.0574 0.03971 0.36099 0.0
O27 O 0.9837 0.9643 0.36916 0.0
Co28 Co 0.01992 0.04567 0.71513 0.0
O29 O 0.0751 0.09151 0.69638 0.0
O30 O 0.06307 0.01321 0.70689 0.0
C31 C 0.95249 0.0513 0.69933 0.0
O32 O 0.96557 0.98684 0.73401 0.0
Co33 Co 0.96391 0.09335 0.74128 0.0
O34 O 0.91852 0.01844 0.75109 0.0
C35 C 0.07563 0.12199 0.75138 0.0
C36 C 0.09027 0.05585 0.69572 0.0
C37 C 0.92838 0.98073 0.7467 0.0
O38 O 0.07136 0.08536 0.73863 0.0
O39 O 0.03901 0.135 0.75332 0.0
O40 O 0.96579 0.01618 0.69325 0.0
O41 O 0.98251 0.08406 0.71373 0.0
C42 C 0.98499 0.37135 0.26708 0.0
C43 C 0.02266 0.38957 0.28333 0.0
C44 C 0.98866 0.4071 0.25198 0.0
C45 C 0.02998 0.46179 0.25283 0.0
C46 C 0.06465 0.4442 0.28377 0.0
C47 C 0.06786 0.4799 0.26884 0.0
C48 C 0.0321 0.50145 0.23805 0.0
C49 C 0.07663 0.39549 0.2005 0.0
C50 C 0.03668 0.36289 0.1859 0.0
C51 C 0.0742 0.43709 0.21098 0.0
C52 C 0.03221 0.44758 0.20695 0.0
C53 C 0.99435 0.37343 0.18208 0.0
C54 C 0.99256 0.41575 0.19233 0.0
C55 C 0.0319 0.49427 0.21677 0.0
C56 C 0.08835 0.67737 0.16865 0.0
C57 C 0.04795 0.69156 0.16678 0.0
C58 C 0.0846 0.64126 0.18348 0.0
C59 C 0.04129 0.61956 0.1972 0.0
C60 C 0.00445 0.66962 0.18066 0.0
C61 C 1.00133 0.63418 0.1958 0.0
C62 C 0.03719 0.57948 0.21208 0.0
C63 C 0.01515 0.6725 0.27237 0.0
C64 C 0.05164 0.72574 0.26622 0.0
C65 C 0.00965 0.628 0.26123 0.0
C66 C 0.04064 0.6352 0.24368 0.0
C67 C 0.0823 0.73295 0.24849 0.0
C68 C 0.07747 0.68829 0.23754 0.0
C69 C 0.03729 0.58682 0.23343 0.0
H70 H 0.95167 0.32987 0.26632 0.0
H71 H 0.95824 0.39236 0.24 0.0
H72 H 0.09522 0.45962 0.29569 0.0
H73 H 0.10012 0.52191 0.26981 0.0
H74 H 0.11071 0.38989 0.20355 0.0
H75 H 0.106 0.46206 0.22184 0.0
H76 H 0.96236 0.34893 0.17125 0.0
H77 H 0.95999 0.4235 0.18891 0.0
H78 H 0.12322 0.69427 0.1587 0.0
H79 H 0.11592 0.63052 0.18435 0.0
H80 H 0.97206 0.67872 0.1796 0.0
H81 H 0.96715 0.61724 0.20609 0.0
H82 H 0.99171 0.66488 0.28615 0.0
H83 H 0.98155 0.58765 0.26657 0.0
H84 H 0.11052 0.77314 0.24309 0.0
H85 H 0.10384 0.69566 0.22466 0.0
N86 N 0.03474 0.54735 0.24549 0.0
N87 N 0.03456 0.53356 0.20463 0.0
C88 C 0.67856 0.04018 0.51709 0.0
C89 C 0.65649 0.99315 0.50468 0.0
C90 C 0.64488 0.05016 0.52984 0.0
C91 C 0.58866 0.01301 0.53052 0.0
C92 C 0.6 0.95721 0.50498 0.0
C93 C 0.56662 0.96707 0.51768 0.0
C94 C 0.55126 0.02237 0.54338 0.0
C95 C 0.6714 0.01839 0.58843 0.0
C96 C 0.69211 0.0602 0.60335 0.0
C97 C 0.62863 0.01007 0.57548 0.0
C98 C 0.60683 0.04448 0.57671 0.0
C99 C 0.66904 0.0935 0.60474 0.0
C100 C 0.62764 0.0861 0.59153 0.0
C101 C 0.55913 0.03563 0.56444 0.0
C102 C 0.34456 0.01153 0.59036 0.0
C103 C 0.36438 0.0556 0.60417 0.0
C104 C 0.38029 0.00516 0.57749 0.0
C105 C 0.43641 0.04277 0.57824 0.0
C106 C 0.42062 0.0924 0.60512 0.0
C107 C 0.45618 0.08586 0.59241 0.0
C108 C 0.47552 0.03645 0.56524 0.0
C109 C 0.3757 0.07079 0.52167 0.0
C110 C 0.34982 0.03264 0.50576 0.0
C111 C 0.41357 0.06813 0.53433 0.0
C112 C 0.42559 0.02644 0.53177 0.0
C113 C 0.36205 0.99102 0.50318 0.0
C114 C 0.39958 0.98808 0.516 0.0
C115 C 0.46882 0.02561 0.54408 0.0
H116 H 0.72186 0.06875 0.5172 0.0
H117 H 0.66272 0.08683 0.53912 0.0
H118 H 0.58133 0.92131 0.49527 0.0
H119 H 0.52331 0.93836 0.51758 0.0
H120 H 0.68793 0.99186 0.58674 0.0
H121 H 0.61212 0.97614 0.56484 0.0
H122 H 0.68192 0.12487 0.61636 0.0
H123 H 0.61114 0.11275 0.59318 0.0
H124 H 0.30143 0.98257 0.58927 0.0
H125 H 0.36413 0.97076 0.56705 0.0
H126 H 0.43726 0.12627 0.61582 0.0
H127 H 0.49931 0.11497 0.5935 0.0
H128 H 0.36707 0.10313 0.52429 0.0
H129 H 0.43439 0.09962 0.54579 0.0
H130 H 0.34379 0.96148 0.4909 0.0
H131 H 0.40879 0.95609 0.51343 0.0
N132 N 0.50646 0.01804 0.53414 0.0
N133 N 0.52062 0.04169 0.57437 0.0
C134 C 0.4262 0.36918 0.84576 0.0
C135 C 0.37071 0.35201 0.84778 0.0
C136 C 0.46524 0.41151 0.8579 0.0
C137 C 0.44999 0.4378 0.87241 0.0
C138 C 0.35535 0.37778 0.86258 0.0
C139 C 0.39456 0.42051 0.87462 0.0
C140 C 0.49289 0.48673 0.8833 0.0
C141 C 0.38395 0.45007 0.94507 0.0
C142 C 0.37328 0.39713 0.94857 0.0
C143 C 0.42091 0.48205 0.93022 0.0
C144 C 0.44719 0.46164 0.91812 0.0
C145 C 0.39858 0.37612 0.936 0.0
C146 C 0.4352 0.4081 0.9209 0.0
C147 C 0.49058 0.49856 0.90413 0.0
C148 C 0.64835 0.69699 0.93966 0.0
C149 C 0.70274 0.71059 0.93706 0.0
C150 C 0.60711 0.65693 0.92736 0.0
C151 C 0.6193 0.62993 0.91205 0.0
C152 C 0.71502 0.68469 0.92131 0.0
C153 C 0.67383 0.64454 0.9091 0.0
C154 C 0.57458 0.58245 0.90107 0.0
C155 C 0.68472 0.6291 0.83965 0.0
C156 C 0.69185 0.68109 0.83693 0.0
C157 C 0.64759 0.5937 0.85385 0.0
C158 C 0.61795 0.60994 0.86612 0.0
C159 C 0.66171 0.69697 0.84933 0.0
C160 C 0.62557 0.66198 0.86386 0.0
C161 C 0.57629 0.57108 0.88018 0.0
H162 H 0.43986 0.35121 0.83432 0.0
H163 H 0.50772 0.4245 0.85564 0.0
H164 H 0.31302 0.36547 0.8647 0.0
H165 H 0.38147 0.44108 0.88512 0.0
H166 H 0.36425 0.46728 0.95399 0.0
H167 H 0.42943 0.52318 0.92833 0.0
H168 H 0.39178 0.33579 0.93832 0.0
H169 H 0.45567 0.39174 0.91195 0.0
H170 H 0.63727 0.71559 0.95178 0.0
H171 H 0.56538 0.64604 0.93016 0.0
H172 H 0.75649 0.69448 0.91872 0.0
H173 H 0.68463 0.62338 0.89797 0.0
H174 H 0.70777 0.61546 0.83084 0.0
H175 H 0.6422 0.55361 0.85533 0.0
H176 H 0.66469 0.7359 0.84752 0.0
H177 H 0.60229 0.67496 0.8729 0.0
N178 N 0.53572 0.52362 0.8722 0.0
N179 N 0.53151 0.54587 0.91212 0.0
H180 H 0.00901 0.17082 0.09026 0.0
H181 H 0.09146 0.11052 0.12769 0.0
H182 H 0.09328 0.16769 0.15642 0.0
H183 H 0.08705 0.30867 0.10925 0.0
H184 H 0.03108 0.321 0.10837 0.0
H185 H 0.03296 0.27278 0.09094 0.0
H186 H 0.93809 0.1988 0.10329 0.0
H187 H 0.93608 0.24678 0.12083 0.0
H188 H 0.92742 0.18387 0.13001 0.0
H189 H 0.08451 0.22881 0.18132 0.0
H190 H 0.07397 0.29768 0.20019 0.0
H191 H 0.00563 0.32669 0.14604 0.0
C192 C 0.02702 0.16956 0.10457 0.0
C193 C 0.04977 0.13606 0.10684 0.0
C194 C 0.07391 0.13601 0.12564 0.0
C195 C 0.0749 0.16811 0.14209 0.0
C196 C 0.05237 0.20082 0.13944 0.0
C197 C 0.02955 0.20253 0.12112 0.0
C198 C 0.01129 0.24398 0.12215 0.0
C199 C 0.04247 0.2893 0.10677 0.0
C200 C 0.94955 0.21671 0.11888 0.0
C201 C 0.0272 0.26485 0.14391 0.0
C202 C 0.05016 0.23878 0.15361 0.0
C203 C 0.06726 0.25013 0.17382 0.0
C204 C 0.06152 0.28982 0.18437 0.0
C205 C 0.03974 0.31869 0.17466 0.0
C206 C 0.02202 0.3054 0.15411 0.0
H207 H 0.89092 0.04438 0.42426 0.0
H208 H 0.8282 0.87079 0.42643 0.0
H209 H 0.76022 0.86163 0.45132 0.0
H210 H 0.87362 0.06321 0.47757 0.0
H211 H 0.85215 0.11179 0.47363 0.0
H212 H 0.8968 0.10606 0.45564 0.0
H213 H 0.8291 0.08937 0.4264 0.0
H214 H 0.78443 0.09543 0.44428 0.0
H215 H 0.75944 0.03544 0.42843 0.0
H216 H 0.70055 0.86974 0.47643 0.0
H217 H 0.64785 0.89444 0.49924 0.0
H218 H 0.74481 0.06222 0.48096 0.0
C219 C 0.86274 0.00444 0.42989 0.0
C220 C 0.86539 0.95839 0.42327 0.0
C221 C 0.82751 0.90688 0.43112 0.0
C222 C 0.78858 0.9011 0.44537 0.0
C223 C 0.78747 0.94708 0.45171 0.0
C224 C 0.82308 0.99774 0.44419 0.0
C225 C 0.81206 0.04014 0.4536 0.0
C226 C 0.86162 0.08282 0.46584 0.0
C227 C 0.79525 0.06665 0.4372 0.0
C228 C 0.76484 0.00516 0.46753 0.0
C229 C 0.75175 0.95168 0.46618 0.0
C230 C 0.71002 0.9114 0.47751 0.0
C231 C 0.68009 0.92585 0.49036 0.0
C232 C 0.69153 0.98013 0.49175 0.0
C233 C 0.73511 0.02042 0.48032 0.0
H234 H 0.88434 0.96571 0.78454 0.0
H235 H 0.90044 0.87837 0.73302 0.0
H236 H 0.84305 0.79161 0.75067 0.0
H237 H 0.89129 0.88015 0.82331 0.0
H238 H 0.84354 0.88589 0.83963 0.0
H239 H 0.88606 0.94033 0.8229 0.0
H240 H 0.8005 0.93548 0.80709 0.0
H241 H 0.75772 0.88085 0.82369 0.0
H242 H 0.74747 0.87206 0.79653 0.0
H243 H 0.77781 0.71416 0.77332 0.0
H244 H 0.71689 0.65335 0.79961 0.0
H245 H 0.75174 0.79328 0.83753 0.0
C246 C 0.87586 0.92834 0.77694 0.0
C247 C 0.89638 0.92864 0.75732 0.0
C248 C 0.8851 0.87899 0.74805 0.0
C249 C 0.85246 0.8296 0.75794 0.0
C250 C 0.8324 0.83081 0.77723 0.0
C251 C 0.84442 0.87905 0.78673 0.0
C252 C 0.81878 0.86972 0.80757 0.0
C253 C 0.86253 0.89555 0.82434 0.0
C254 C 0.77874 0.89077 0.80878 0.0
C255 C 0.78938 0.80852 0.80822 0.0
C256 C 0.79744 0.78672 0.79057 0.0
C257 C 0.7721 0.73091 0.78735 0.0
C258 C 0.73777 0.69659 0.80255 0.0
C259 C 0.72941 0.71798 0.82097 0.0
C260 C 0.75626 0.77498 0.8237 0.0
H261 H 0.01136 0.92392 0.11626 0.0
H262 H 0.09524 0.91184 0.06312 0.0
H263 H 0.10196 0.83773 0.07934 0.0
H264 H 0.09263 0.90441 0.15274 0.0
H265 H 0.037 0.86684 0.16989 0.0
H266 H 0.03653 0.91661 0.1536 0.0
H267 H 0.94284 0.84389 0.13898 0.0
H268 H 0.9431 0.79383 0.15518 0.0
H269 H 0.93494 0.78208 0.12806 0.0
H270 H 0.09721 0.76345 0.10133 0.0
H271 H 0.08813 0.69992 0.12795 0.0
H272 H 0.0145 0.76706 0.16789 0.0
C273 C 0.03073 0.90536 0.10794 0.0
C274 C 0.0523 0.92309 0.08834 0.0
C275 C 0.07832 0.89863 0.07812 0.0
C276 C 0.08216 0.85649 0.08719 0.0
C277 C 0.06045 0.84 0.10658 0.0
C278 C 0.03578 0.86413 0.11691 0.0
C279 C 0.01807 0.84091 0.13794 0.0
C280 C 0.04785 0.88481 0.15452 0.0
C281 C 0.95605 0.81355 0.14016 0.0
C282 C 0.03634 0.79962 0.13786 0.0
C283 C 0.06018 0.79933 0.11957 0.0
C284 C 0.07924 0.76386 0.1158 0.0
C285 C 0.07429 0.72817 0.13117 0.0
C286 C 0.05123 0.72859 0.15031 0.0
C287 C 0.03187 0.76493 0.1535 0.0
H288 H 0.09167 0.92573 0.43183 0.0
H289 H 0.1437 0.09396 0.41994 0.0
H290 H 0.2218 0.1231 0.44323 0.0
H291 H 0.12685 0.94466 0.48513 0.0
H292 H 0.1492 0.89594 0.48499 0.0
H293 H 0.09758 0.88835 0.4673 0.0
H294 H 0.15556 0.88641 0.43725 0.0
H295 H 0.2074 0.89409 0.45484 0.0
H296 H 0.22442 0.94148 0.43451 0.0
H297 H 0.29546 0.13388 0.46729 0.0
H298 H 0.35797 0.1257 0.49081 0.0
H299 H 0.25563 0.9504 0.48811 0.0
C300 C 0.11945 0.96875 0.43406 0.0
C301 C 0.11144 0.00753 0.42396 0.0
C302 C 0.14877 0.0634 0.42748 0.0
C303 C 0.19335 0.08039 0.44067 0.0
C304 C 0.19996 0.04107 0.45034 0.0
C305 C 0.16392 0.98642 0.44727 0.0
C306 C 0.17997 0.95239 0.45965 0.0
C307 C 0.13577 0.91833 0.47519 0.0
C308 C 0.19259 0.91648 0.44573 0.0
C309 C 0.2309 0.99645 0.47009 0.0
C310 C 0.24176 0.0473 0.46449 0.0
C311 C 0.28707 0.09426 0.47192 0.0
C312 C 0.32216 0.08914 0.48543 0.0
C313 C 0.31174 0.03739 0.49154 0.0
C314 C 0.26526 0.99057 0.48368 0.0
H315 H 0.10946 0.21394 0.77484 0.0
H316 H 0.1518 0.09223 0.75861 0.0
H317 H 0.23054 0.13631 0.78212 0.0
H318 H 0.24671 0.32626 0.77801 0.0
H319 H 0.23276 0.3583 0.79911 0.0
H320 H 0.17961 0.31663 0.78119 0.0
H321 H 0.11944 0.25792 0.81077 0.0
H322 H 0.17258 0.29917 0.82876 0.0
H323 H 0.14517 0.22694 0.82766 0.0
H324 H 0.30357 0.19278 0.8082 0.0
H325 H 0.36821 0.26013 0.833 0.0
H326 H 0.27999 0.34695 0.83075 0.0
C327 C 0.13517 0.19639 0.7762 0.0
C328 C 0.12416 0.14936 0.76491 0.0
C329 C 0.15932 0.12821 0.76705 0.0
C330 C 0.20406 0.15286 0.78043 0.0
C331 C 0.21338 0.19887 0.79144 0.0
C332 C 0.18018 0.22069 0.78932 0.0
C333 C 0.19967 0.27111 0.80252 0.0
C334 C 0.21565 0.32102 0.78943 0.0
C335 C 0.15665 0.26328 0.81837 0.0
C336 C 0.24895 0.27418 0.8125 0.0
C337 C 0.25602 0.232 0.80602 0.0
C338 C 0.29864 0.22621 0.81325 0.0
C339 C 0.33536 0.26492 0.82728 0.0
C340 C 0.32961 0.30924 0.83385 0.0
C341 C 0.28539 0.31336 0.82635 0.0
H342 H 0.86748 0.97899 0.67495 0.0
H343 H 0.95189 0.14578 0.69692 0.0
H344 H 0.89589 0.16606 0.67423 0.0
H345 H 0.85181 0.00365 0.62344 0.0
H346 H 0.78396 0.94656 0.62035 0.0
H347 H 0.82976 0.94411 0.63855 0.0
H348 H 0.75999 0.92325 0.66731 0.0
H349 H 0.71362 0.92479 0.64914 0.0
H350 H 0.73335 0.96782 0.67156 0.0
H351 H 0.83833 0.17065 0.64674 0.0
H352 H 0.77153 0.15666 0.62041 0.0
H353 H 0.71533 0.98411 0.61897 0.0
C354 C 0.87361 0.01957 0.67512 0.0
C355 C 0.91412 0.06093 0.68761 0.0
C356 C 0.92091 0.11347 0.68754 0.0
C357 C 0.88956 0.12546 0.67461 0.0
C358 C 0.85081 0.08418 0.66215 0.0
C359 C 0.84166 0.03196 0.66264 0.0
C360 C 0.79614 0.99489 0.64809 0.0
C361 C 0.81667 0.9709 0.63163 0.0
C362 C 0.74791 0.95004 0.65972 0.0
C363 C 0.78193 0.03474 0.6391 0.0
C364 C 0.81458 0.08609 0.64726 0.0
C365 C 0.81142 0.13033 0.64065 0.0
C366 C 0.77278 0.12172 0.62573 0.0
C367 C 0.73644 0.06892 0.61782 0.0
C368 C 0.74199 0.02505 0.62452 0.0
H369 H 0.86211 0.96937 0.012 0.0
H370 H 0.96906 0.90733 0.02641 0.0
H371 H 0.91779 0.83071 1.0027 0.0
H372 H 0.73894 0.83916 0.00794 0.0
H373 H 0.71162 0.85791 0.98695 0.0
H374 H 0.75687 0.90881 1.005 0.0
H375 H 0.82049 0.96444 0.97564 0.0
H376 H 0.77544 0.91368 0.9575 0.0
H377 H 0.84609 0.93285 0.95851 0.0
H378 H 0.85562 0.76051 0.97778 0.0
H379 H 0.78491 0.6999 0.95329 0.0
H380 H 0.71771 0.80639 0.95419 0.0
C381 C 0.87479 0.93971 0.01018 0.0
C382 C 0.91989 0.94476 0.02115 0.0
C383 C 0.93487 0.90478 0.01826 0.0
C384 C 0.90598 0.86093 1.00478 0.0
C385 C 0.862 0.85728 0.99423 0.0
C386 C 0.84627 0.89541 0.99674 0.0
C387 C 0.7971 0.88132 0.98352 0.0
C388 C 0.74824 0.87119 0.99664 0.0
C389 C 0.81061 0.92572 0.96787 0.0
C390 C 0.78777 0.82935 0.97326 0.0
C391 C 0.82585 0.81643 0.97967 0.0
C392 C 0.82574 0.77034 0.97253 0.0
C393 C 0.78559 0.73634 0.95847 0.0
C394 C 0.74592 0.74848 0.95158 0.0
C395 C 0.74723 0.79576 0.95917 0.0
H396 H 0.96198 0.8845 0.34371 0.0
H397 H 0.12678 0.0209 0.34121 0.0
H398 H 0.15117 0.96929 0.31714 0.0
H399 H 0.99449 0.77857 0.341 0.0
H400 H 0.93706 0.73481 0.32499 0.0
H401 H 0.93324 0.78212 0.34233 0.0
H402 H 0.90793 0.82326 0.31239 0.0
H403 H 0.91171 0.7761 0.29496 0.0
H404 H 0.9519 0.84787 0.29061 0.0
H405 H 0.15771 0.90126 0.29397 0.0
H406 H 0.14559 0.82411 0.27277 0.0
H407 H 0.97431 0.7352 0.28844 0.0
C408 C 0.00329 0.90341 0.33818 0.0
C409 C 0.04264 0.95657 0.3444 0.0
C410 C 0.09606 0.98017 0.33664 0.0
C411 C 0.11026 0.95116 0.32299 0.0
C412 C 0.07039 0.89886 0.31708 0.0
C413 C 0.0179 0.87537 0.32433 0.0
C414 C 0.9823 0.81918 0.31523 0.0
C415 C 0.96051 0.77614 0.33188 0.0
C416 C 0.93572 0.81648 0.30254 0.0
C417 C 0.02304 0.81448 0.30185 0.0
C418 C 0.07366 0.86069 0.30319 0.0
C419 C 0.11806 0.8651 0.29262 0.0
C420 C 0.11056 0.82106 0.28043 0.0
C421 C 0.05885 0.7732 0.27867 0.0
C422 C 0.0146 0.77055 0.28951 0.0
H423 H 0.11882 0.98134 0.68192 0.0
H424 H 0.1658 0.15119 0.67978 0.0
H425 H 0.24016 0.16856 0.65651 0.0
H426 H 0.25644 0.00266 0.67978 0.0
H427 H 0.23744 0.94427 0.66357 0.0
H428 H 0.18863 0.9448 0.68088 0.0
H429 H 0.1221 0.92421 0.65079 0.0
H430 H 0.17084 0.92398 0.63338 0.0
H431 H 0.14421 0.96831 0.6292 0.0
H432 H 0.30775 0.16852 0.63312 0.0
H433 H 0.36667 0.15086 0.61077 0.0
H434 H 0.27752 0.98106 0.62694 0.0
C435 C 0.14519 0.0222 0.6767 0.0
C436 C 0.13648 0.06493 0.68271 0.0
C437 C 0.17147 0.11775 0.67537 0.0
C438 C 0.21396 0.12813 0.66214 0.0
C439 C 0.22104 0.08526 0.65625 0.0
C440 C 0.18789 0.03333 0.66324 0.0
C441 C 0.20416 0.99465 0.65395 0.0
C442 C 0.22278 0.97016 0.67054 0.0
C443 C 0.15754 0.95016 0.64107 0.0
C444 C 0.25138 0.03308 0.64069 0.0
C445 C 0.26031 0.08514 0.64237 0.0
C446 C 0.30143 0.12799 0.63173 0.0
C447 C 0.33481 0.11758 0.61913 0.0
C448 C 0.32697 0.06472 0.61719 0.0
C449 C 0.28428 0.02182 0.62802 0.0
H450 H 0.13963 0.13734 1.00649 0.0
H451 H 0.15677 0.24841 0.05539 0.0
H452 H 0.23426 0.32329 0.03768 0.0
H453 H 0.28522 0.19948 0.99367 0.0
H454 H 0.27223 0.18953 0.96666 0.0
H455 H 0.22238 0.14308 0.98422 0.0
H456 H 0.14991 0.16072 0.96828 0.0
H457 H 0.19953 0.20731 0.95075 0.0
H458 H 0.16303 0.22921 0.96697 0.0
H459 H 0.30675 0.38632 0.01448 0.0
H460 H 0.36745 0.43595 0.98628 0.0
H461 H 0.29958 0.28653 0.95049 0.0
C462 C 0.16074 0.17723 0.0136 0.0
C463 C 0.14321 0.18726 0.03244 0.0
C464 C 0.17025 0.24013 0.04106 0.0
C465 C 0.21425 0.28276 0.03114 0.0
C466 C 0.23018 0.272 0.01243 0.0
C467 C 0.20419 0.22071 1.00363 0.0
C468 C 0.22665 0.22153 0.98257 0.0
C469 C 0.2532 0.18631 0.98174 0.0
C470 C 0.18212 0.20364 0.96618 0.0
C471 C 0.26887 0.28128 0.9809 0.0
C472 C 0.27055 0.30931 0.99844 0.0
C473 C 0.30564 0.3649 1.00061 0.0
C474 C 0.33964 0.39285 0.98435 0.0
C475 C 0.33795 0.36557 0.9659 0.0
C476 C 0.3023 0.30874 0.96434 0.0
H477 H 0.97006 0.11231 0.33216 0.0
H478 H 0.02863 0.20015 0.38954 0.0
H479 H 0.03639 0.28177 0.37379 0.0
H480 H 0.06095 0.2206 0.30135 0.0
H481 H 0.01344 0.20465 0.28071 0.0
H482 H 0.00704 0.15171 0.29696 0.0
H483 H 0.90782 0.12526 0.30514 0.0
H484 H 0.91386 0.17806 0.28884 0.0
H485 H 0.89381 0.17609 0.31498 0.0
H486 H 0.04043 0.35441 0.35145 0.0
H487 H 0.0443 0.41406 0.32411 0.0
H488 H 0.98954 0.28049 0.28055 0.0
C489 C 0.98343 0.1484 0.34152 0.0
C490 C 0.99805 0.14979 0.36215 0.0
C491 C 0.01685 0.19818 0.37375 0.0
C492 C 0.02131 0.24465 0.36493 0.0
C493 C 0.00735 0.24219 0.34445 0.0
C494 C 0.98902 0.19537 0.33286 0.0
C495 C 0.98042 0.20452 0.31085 0.0
C496 C 0.01769 0.1948 0.29664 0.0
C497 C 0.9204 0.16886 0.30459 0.0
C498 C 0.99709 0.2639 0.31183 0.0
C499 C 0.01191 0.28466 0.33139 0.0
C500 C 0.02916 0.33863 0.33606 0.0
C501 C 0.03172 0.37237 0.32032 0.0
C502 C 0.01785 0.35244 0.29999 0.0
C503 C 0.99994 0.29716 0.29586 0.0
loop_
_geom_bond_atom_site_label_1
_geom_bond_atom_site_label_2
_geom_bond_distance
_geom_bond_site_symmetry_2
_ccdc_geom_bond_type
Co0 O1 2.216 1_445 S
Co0 O2 2.091 1_545 S
Co0 O4 2.004 . S
Co0 O10 2.021 1_445 S
Co0 O12 2.137 . S
Co0 O13 2.244 1_455 S
O1 Co0 2.216 1_665 S
O1 C8 1.247 1_655 S
O2 Co0 2.091 1_565 S
O2 C8 1.261 . S
C3 O12 1.247 . S
C3 O13 1.272 1_455 S
O4 Co0 2.004 . S
O4 C9 1.259 . S
Co5 O6 2.061 1_655 S
Co5 O11 2.052 . S
Co5 O13 2.135 . S
O6 Co5 2.061 1_455 S
O6 C9 1.235 . S
C7 O10 1.238 . S
C7 O11 1.241 1_565 S
C8 O1 1.247 1_455 S
C8 O2 1.261 . S
C9 O4 1.259 . S
C9 O6 1.235 . S
O10 Co0 2.021 1_665 S
O10 C7 1.238 . S
O11 Co5 2.052 . S
O11 C7 1.241 1_545 S
O12 Co0 2.137 . S
O12 C3 1.247 . S
O13 Co0 2.244 1_655 S
O13 C3 1.272 1_655 S
O13 Co5 2.135 . S
Co14 O15 2.216 1_455 S
Co14 O16 2.091 . S
Co14 O18 2.004 . S
Co14 O24 2.008 1_455 S
Co14 O26 2.137 . S
Co14 O27 2.244 1_445 S
O15 Co14 2.216 1_655 S
O15 C22 1.247 1_655 S
O16 Co14 2.091 . S
O16 C22 1.261 . S
C17 O26 1.247 1_565 S
C17 O27 1.268 1_455 S
O18 Co14 2.004 . S
O18 C23 1.259 . S
Co19 O20 2.061 1_655 S
Co19 O25 2.052 . S
Co19 O27 2.135 . S
O20 Co19 2.061 1_455 S
O20 C23 1.235 1_565 S
C21 O24 1.247 . S
C21 O25 1.241 1_545 S
C22 O15 1.247 1_455 S
C22 O16 1.261 . S
C23 O18 1.259 . S
C23 O20 1.235 1_545 S
O24 Co14 2.008 1_655 S
O24 C21 1.247 . S
O25 Co19 2.052 . S
O25 C21 1.241 1_565 S
O26 Co14 2.137 . S
O26 C17 1.247 1_545 S
O27 Co14 2.244 1_665 S
O27 C17 1.268 1_655 S
O27 Co19 2.135 . S
Co28 O29 2.216 . S
Co28 O30 2.091 1_545 S
Co28 O32 2.004 1_445 S
Co28 O38 2.021 . S
Co28 O40 2.137 1_445 S
Co28 O41 2.244 1_455 S
O29 Co28 2.216 . S
O29 C36 1.247 . S
O30 Co28 2.091 1_565 S
O30 C36 1.261 1_565 S
C31 O40 1.247 1_545 S
C31 O41 1.272 . S
O32 Co28 2.004 1_665 S
O32 C37 1.259 . S
Co33 O34 2.064 . S
Co33 O39 2.052 1_655 S
Co33 O41 2.135 . S
O34 Co33 2.064 . S
O34 C37 1.232 1_545 S
C35 O38 1.238 . S
C35 O39 1.241 . S
C36 O29 1.247 . S
C36 O30 1.261 1_545 S
C37 O32 1.259 . S
C37 O34 1.232 1_565 S
O38 Co28 2.021 . S
O38 C35 1.238 . S
O39 Co33 2.052 1_455 S
O39 C35 1.241 . S
O40 Co28 2.137 1_665 S
O40 C31 1.247 1_565 S
O41 Co28 2.244 1_655 S
O41 C31 1.272 . S
O41 Co33 2.135 . S
C42 C43 1.384 1_655 S
C42 C44 1.384 . S
C42 H70 0.931 . S
C43 C42 1.384 1_455 S
C43 C46 1.382 . S
C44 C42 1.384 . S
C44 C45 1.381 1_655 S
C44 H71 0.930 . S
C45 C44 1.381 1_455 S
C45 C47 1.381 . S
C45 C48 1.487 . S
C46 C43 1.382 . S
C46 C47 1.387 . S
C46 H72 0.930 . S
C47 C45 1.381 . S
C47 C46 1.387 . S
C47 H73 0.931 . S
C48 C45 1.487 . S
C48 C55 1.399 . S
C48 N86 1.343 . S
C49 C50 1.384 . S
C49 C51 1.384 . S
C49 H74 0.931 . S
C50 C49 1.384 . S
C50 C53 1.382 1_455 S
C51 C49 1.384 . S
C51 C52 1.381 . S
C51 H75 0.930 . S
C52 C51 1.381 . S
C52 C54 1.381 1_455 S
C52 C55 1.487 . S
C53 C50 1.382 1_655 S
C53 C54 1.387 . S
C53 H76 0.930 . S
C54 C52 1.381 1_655 S
C54 C53 1.387 . S
C54 H77 0.931 . S
C55 C48 1.399 . S
C55 C52 1.487 . S
C55 N87 1.343 . S
C56 C57 1.384 . S
C56 C58 1.384 . S
C56 H78 0.931 . S
C57 C56 1.384 . S
C57 C60 1.382 1_455 S
C58 C56 1.384 . S
C58 C59 1.381 . S
C58 H79 0.930 . S
C59 C58 1.381 . S
C59 C61 1.381 1_455 S
C59 C62 1.487 . S
C60 C57 1.382 1_655 S
C60 C61 1.387 . S
C60 H80 0.930 . S
C61 C59 1.381 1_655 S
C61 C60 1.387 . S
C61 H81 0.931 . S
C62 C59 1.487 . S
C62 C69 1.399 . S
C62 N87 1.343 . S
C63 C64 1.384 1_655 S
C63 C65 1.384 . S
C63 H82 0.931 . S
C64 C63 1.384 1_455 S
C64 C67 1.382 . S
C65 C63 1.384 . S
C65 C66 1.381 1_655 S
C65 H83 0.930 . S
C66 C65 1.381 1_455 S
C66 C68 1.381 . S
C66 C69 1.487 . S
C67 C64 1.382 . S
C67 C68 1.387 . S
C67 H84 0.930 . S
C68 C66 1.381 . S
C68 C67 1.387 . S
C68 H85 0.931 . S
C69 C62 1.399 . S
C69 C66 1.487 . S
C69 N86 1.343 . S
H70 C42 0.931 . S
H71 C44 0.930 . S
H72 C46 0.930 . S
H73 C47 0.931 . S
H74 C49 0.931 . S
H75 C51 0.930 . S
H76 C53 0.930 . S
H77 C54 0.931 . S
H78 C56 0.931 . S
H79 C58 0.930 . S
H80 C60 0.930 . S
H81 C61 0.931 . S
H82 C63 0.931 . S
H83 C65 0.930 . S
H84 C67 0.930 . S
H85 C68 0.931 . S
N86 C48 1.343 . S
N86 C69 1.343 . S
N87 C55 1.343 . S
N87 C62 1.343 . S
C88 C89 1.384 . S
C88 C90 1.384 . S
C88 H116 0.931 . S
C89 C88 1.384 . S
C89 C92 1.382 1_545 S
C90 C88 1.384 . S
C90 C91 1.381 . S
C90 H117 0.930 . S
C91 C90 1.381 . S
C91 C93 1.381 1_545 S
C91 C94 1.487 . S
C92 C89 1.382 1_565 S
C92 C93 1.387 . S
C92 H118 0.930 . S
C93 C91 1.381 1_565 S
C93 C92 1.387 . S
C93 H119 0.931 . S
C94 C91 1.487 . S
C94 C101 1.399 . S
C94 N132 1.343 . S
C95 C96 1.384 1_565 S
C95 C97 1.384 . S
C95 H120 0.931 . S
C96 C95 1.384 1_545 S
C96 C99 1.382 . S
C97 C95 1.384 . S
C97 C98 1.381 1_565 S
C97 H121 0.930 . S
C98 C97 1.381 1_545 S
C98 C100 1.381 . S
C98 C101 1.487 . S
C99 C96 1.382 . S
C99 C100 1.387 . S
C99 H122 0.930 . S
C100 C98 1.381 . S
C100 C99 1.387 . S
C100 H123 0.931 . S
C101 C94 1.399 . S
C101 C98 1.487 . S
C101 N133 1.343 . S
C102 C103 1.384 1_565 S
C102 C104 1.384 . S
C102 H124 0.931 . S
C103 C102 1.384 1_545 S
C103 C106 1.382 . S
C104 C102 1.384 . S
C104 C105 1.381 1_565 S
C104 H125 0.930 . S
C105 C104 1.381 1_545 S
C105 C107 1.381 . S
C105 C108 1.487 . S
C106 C103 1.382 . S
C106 C107 1.387 . S
C106 H126 0.930 . S
C107 C105 1.381 . S
C107 C106 1.387 . S
C107 H127 0.931 . S
C108 C105 1.487 . S
C108 C115 1.399 . S
C108 N133 1.343 . S
C109 C110 1.384 . S
C109 C111 1.384 . S
C109 H128 0.931 . S
C110 C109 1.384 . S
C110 C113 1.382 1_545 S
C111 C109 1.384 . S
C111 C112 1.381 . S
C111 H129 0.930 . S
C112 C111 1.381 . S
C112 C114 1.381 1_545 S
C112 C115 1.487 . S
C113 C110 1.382 1_565 S
C113 C114 1.387 . S
C113 H130 0.930 . S
C114 C112 1.381 1_565 S
C114 C113 1.387 . S
C114 H131 0.931 . S
C115 C108 1.399 . S
C115 C112 1.487 . S
C115 N132 1.343 . S
H116 C88 0.931 . S
H117 C90 0.930 . S
H118 C92 0.930 . S
H119 C93 0.931 . S
H120 C95 0.931 . S
H121 C97 0.930 . S
H122 C99 0.930 . S
H123 C100 0.931 . S
H124 C102 0.931 . S
H125 C104 0.930 . S
H126 C106 0.930 . S
H127 C107 0.931 . S
H128 C109 0.931 . S
H129 C111 0.930 . S
H130 C113 0.930 . S
H131 C114 0.931 . S
N132 C94 1.343 . S
N132 C115 1.343 . S
N133 C101 1.343 . S
N133 C108 1.343 . S
C134 C135 1.384 . S
C134 C136 1.384 . S
C134 H162 0.931 . S
C135 C134 1.384 . S
C135 C138 1.382 . S
C136 C134 1.384 . S
C136 C137 1.381 . S
C136 H163 0.930 . S
C137 C136 1.381 . S
C137 C139 1.381 . S
C137 C140 1.487 . S
C138 C135 1.382 . S
C138 C139 1.387 . S
C138 H164 0.930 . S
C139 C137 1.381 . S
C139 C138 1.387 . S
C139 H165 0.931 . S
C140 C137 1.487 . S
C140 C147 1.399 . S
C140 N178 1.343 . S
C141 C142 1.384 . S
C141 C143 1.384 . S
C141 H166 0.931 . S
C142 C141 1.384 . S
C142 C145 1.382 . S
C143 C141 1.384 . S
C143 C144 1.381 . S
C143 H167 0.930 . S
C144 C143 1.381 . S
C144 C146 1.381 . S
C144 C147 1.487 . S
C145 C142 1.382 . S
C145 C146 1.387 . S
C145 H168 0.930 . S
C146 C144 1.381 . S
C146 C145 1.387 . S
C146 H169 0.931 . S
C147 C140 1.399 . S
C147 C144 1.487 . S
C147 N179 1.343 . S
C148 C149 1.384 . S
C148 C150 1.384 . S
C148 H170 0.931 . S
C149 C148 1.384 . S
C149 C152 1.382 . S
C150 C148 1.384 . S
C150 C151 1.381 . S
C150 H171 0.930 . S
C151 C150 1.381 . S
C151 C153 1.381 . S
C151 C154 1.487 . S
C152 C149 1.382 . S
C152 C153 1.387 . S
C152 H172 0.930 . S
C153 C151 1.381 . S
C153 C152 1.387 . S
C153 H173 0.931 . S
C154 C151 1.487 . S
C154 C161 1.399 . S
C154 N179 1.343 . S
C155 C156 1.384 . S
C155 C157 1.384 . S
C155 H174 0.931 . S
C156 C155 1.384 . S
C156 C159 1.382 . S
C157 C155 1.384 . S
C157 C158 1.381 . S
C157 H175 0.930 . S
C158 C157 1.381 . S
C158 C160 1.381 . S
C158 C161 1.487 . S
C159 C156 1.382 . S
C159 C160 1.387 . S
C159 H176 0.930 . S
C160 C158 1.381 . S
C160 C159 1.387 . S
C160 H177 0.931 . S
C161 C154 1.399 . S
C161 C158 1.487 . S
C161 N178 1.343 . S
H162 C134 0.931 . S
H163 C136 0.930 . S
H164 C138 0.930 . S
H165 C139 0.931 . S
H166 C141 0.931 . S
H167 C143 0.930 . S
H168 C145 0.930 . S
H169 C146 0.931 . S
H170 C148 0.931 . S
H171 C150 0.930 . S
H172 C152 0.930 . S
H173 C153 0.931 . S
H174 C155 0.931 . S
H175 C157 0.930 . S
H176 C159 0.930 . S
H177 C160 0.931 . S
N178 C140 1.343 . S
N178 C161 1.343 . S
N179 C147 1.343 . S
N179 C154 1.343 . S
H180 C192 0.930 . S
H181 C194 0.930 . S
H182 C195 0.930 . S
H183 C199 0.959 . S
H184 C199 0.959 . S
H185 C199 0.961 . S
H186 C200 0.960 . S
H187 C200 0.961 . S
H188 C200 0.959 . S
H189 C203 0.929 . S
H190 C204 0.931 . S
H191 C206 0.930 . S
C192 H180 0.930 . S
C192 C193 1.399 . S
C192 C197 1.399 . S
C193 C192 1.399 . S
C193 C194 1.376 1_455 S
C194 H181 0.930 . S
C194 C193 1.376 1_655 S
C194 C195 1.388 . S
C195 H182 0.930 . S
C195 C194 1.388 . S
C195 C196 1.390 1_655 S
C196 C195 1.390 1_455 S
C196 C197 1.394 . S
C196 C202 1.465 . S
C197 C192 1.399 . S
C197 C196 1.394 . S
C197 C198 1.516 . S
C198 C197 1.516 . S
C198 C199 1.502 . S
C198 C200 1.561 1_455 S
C198 C201 1.526 . S
C199 H183 0.959 . S
C199 H184 0.959 . S
C199 H185 0.961 . S
C199 C198 1.502 . S
C200 H186 0.960 . S
C200 H187 0.961 . S
C200 H188 0.959 . S
C200 C198 1.561 1_655 S
C201 C198 1.526 . S
C201 C202 1.396 . S
C201 C206 1.390 . S
C202 C196 1.465 . S
C202 C201 1.396 . S
C202 C203 1.399 1_455 S
C203 H189 0.929 . S
C203 C202 1.399 1_655 S
C203 C204 1.385 . S
C204 H190 0.931 . S
C204 C203 1.385 . S
C204 C205 1.389 1_655 S
C205 C204 1.389 1_455 S
C205 C206 1.387 . S
C206 H191 0.930 . S
C206 C201 1.390 . S
C206 C205 1.387 . S
H207 C219 0.930 . S
H208 C221 0.930 . S
H209 C222 0.930 . S
H210 C226 0.959 . S
H211 C226 0.959 . S
H212 C226 0.961 . S
H213 C227 0.960 . S
H214 C227 0.961 . S
H215 C227 0.959 . S
H216 C230 0.929 . S
H217 C231 0.931 . S
H218 C233 0.930 . S
C219 H207 0.930 . S
C219 C220 1.399 . S
C219 C224 1.399 . S
C220 C219 1.399 . S
C220 C221 1.376 1_545 S
C221 H208 0.930 . S
C221 C220 1.376 1_565 S
C221 C222 1.388 . S
C222 H209 0.930 . S
C222 C221 1.388 . S
C222 C223 1.390 1_565 S
C223 C222 1.390 1_545 S
C223 C224 1.394 . S
C223 C229 1.465 . S
C224 C219 1.399 . S
C224 C223 1.394 . S
C224 C225 1.516 . S
C225 C224 1.516 . S
C225 C226 1.502 . S
C225 C227 1.561 . S
C225 C228 1.526 . S
C226 H210 0.959 . S
C226 H211 0.959 . S
C226 H212 0.961 . S
C226 C225 1.502 . S
C227 H213 0.960 . S
C227 H214 0.961 . S
C227 H215 0.959 . S
C227 C225 1.561 . S
C228 C225 1.526 . S
C228 C229 1.396 . S
C228 C233 1.390 . S
C229 C223 1.465 . S
C229 C228 1.396 . S
C229 C230 1.399 1_545 S
C230 H216 0.929 . S
C230 C229 1.399 1_565 S
C230 C231 1.385 . S
C231 H217 0.931 . S
C231 C230 1.385 . S
C231 C232 1.389 1_565 S
C232 C231 1.389 1_545 S
C232 C233 1.387 . S
C233 H218 0.930 . S
C233 C228 1.390 . S
C233 C232 1.387 . S
H234 C246 0.930 . S
H235 C248 0.930 . S
H236 C249 0.930 . S
H237 C253 0.959 . S
H238 C253 0.959 . S
H239 C253 0.961 . S
H240 C254 0.960 . S
H241 C254 0.961 . S
H242 C254 0.959 . S
H243 C257 0.929 . S
H244 C258 0.931 . S
H245 C260 0.930 . S
C246 H234 0.930 . S
C246 C247 1.399 . S
C246 C251 1.399 . S
C247 C246 1.399 . S
C247 C248 1.376 . S
C248 H235 0.930 . S
C248 C247 1.376 . S
C248 C249 1.388 . S
C249 H236 0.930 . S
C249 C248 1.388 . S
C249 C250 1.390 . S
C250 C249 1.390 . S
C250 C251 1.394 . S
C250 C256 1.465 . S
C251 C246 1.399 . S
C251 C250 1.394 . S
C251 C252 1.516 . S
C252 C251 1.516 . S
C252 C253 1.502 . S
C252 C254 1.561 . S
C252 C255 1.526 . S
C253 H237 0.959 . S
C253 H238 0.959 . S
C253 H239 0.961 . S
C253 C252 1.502 . S
C254 H240 0.960 . S
C254 H241 0.961 . S
C254 H242 0.959 . S
C254 C252 1.561 . S
C255 C252 1.526 . S
C255 C256 1.396 . S
C255 C260 1.390 . S
C256 C250 1.465 . S
C256 C255 1.396 . S
C256 C257 1.399 . S
C257 H243 0.929 . S
C257 C256 1.399 . S
C257 C258 1.385 . S
C258 H244 0.931 . S
C258 C257 1.385 . S
C258 C259 1.389 . S
C259 C258 1.389 . S
C259 C260 1.387 . S
C260 H245 0.930 . S
C260 C255 1.390 . S
C260 C259 1.387 . S
H261 C273 0.915 1_655 S
H262 C275 0.930 . S
H263 C276 0.930 . S
H264 C280 0.959 1_455 S
H265 C280 0.959 . S
H266 C280 0.961 . S
H267 C281 0.960 . S
H268 C281 0.961 . S
H269 C281 0.959 . S
H270 C284 0.929 . S
H271 C285 0.931 . S
H272 C287 0.930 . S
C273 H261 0.915 1_455 S
C273 C274 1.405 . S
C273 C278 1.408 . S
C274 C273 1.405 . S
C274 C275 1.376 . S
C275 H262 0.930 . S
C275 C274 1.376 . S
C275 C276 1.388 . S
C276 H263 0.930 . S
C276 C275 1.388 . S
C276 C277 1.390 . S
C277 C276 1.390 . S
C277 C278 1.394 . S
C277 C283 1.465 . S
C278 C273 1.408 . S
C278 C277 1.394 . S
C278 C279 1.516 1_455 S
C279 C278 1.516 1_655 S
C279 C280 1.502 . S
C279 C281 1.561 . S
C279 C282 1.512 1_655 S
C280 H264 0.959 1_655 S
C280 H265 0.959 . S
C280 H266 0.961 . S
C280 C279 1.502 . S
C281 H267 0.960 . S
C281 H268 0.961 . S
C281 H269 0.959 . S
C281 C279 1.561 . S
C282 C279 1.512 1_455 S
C282 C283 1.407 . S
C282 C287 1.394 1_455 S
C283 C277 1.465 . S
C283 C282 1.407 . S
C283 C284 1.399 . S
C284 H270 0.929 . S
C284 C283 1.399 . S
C284 C285 1.385 . S
C285 H271 0.931 . S
C285 C284 1.385 . S
C285 C286 1.389 . S
C286 C285 1.389 . S
C286 C287 1.387 1_455 S
C287 H272 0.930 . S
C287 C282 1.394 1_655 S
C287 C286 1.387 1_655 S
H288 C300 0.930 1_565 S
H289 C302 0.930 . S
H290 C303 0.930 . S
H291 C307 0.959 . S
H292 C307 0.959 . S
H293 C307 0.961 . S
H294 C308 0.960 . S
H295 C308 0.961 . S
H296 C308 0.959 . S
H297 C311 0.929 . S
H298 C312 0.931 . S
H299 C314 0.930 . S
C300 H288 0.930 1_545 S
C300 C301 1.399 . S
C300 C305 1.399 . S
C301 C300 1.399 . S
C301 C302 1.376 . S
C302 H289 0.930 . S
C302 C301 1.376 . S
C302 C303 1.388 . S
C303 H290 0.930 . S
C303 C302 1.388 . S
C303 C304 1.390 . S
C304 C303 1.390 . S
C304 C305 1.394 . S
C304 C310 1.465 . S
C305 C300 1.399 . S
C305 C304 1.394 . S
C305 C306 1.516 1_545 S
C306 C305 1.516 1_565 S
C306 C307 1.502 . S
C306 C308 1.561 . S
C306 C309 1.526 1_565 S
C307 H291 0.959 . S
C307 H292 0.959 . S
C307 H293 0.961 . S
C307 C306 1.502 . S
C308 H294 0.960 . S
C308 H295 0.961 . S
C308 H296 0.959 . S
C308 C306 1.561 . S
C309 C306 1.526 1_545 S
C309 C310 1.396 . S
C309 C314 1.390 1_545 S
C310 C304 1.465 . S
C310 C309 1.396 . S
C310 C311 1.399 . S
C311 H297 0.929 . S
C311 C310 1.399 . S
C311 C312 1.385 . S
C312 H298 0.931 . S
C312 C311 1.385 . S
C312 C313 1.389 . S
C313 C312 1.389 . S
C313 C314 1.387 1_545 S
C314 H299 0.930 . S
C314 C309 1.390 1_565 S
C314 C313 1.387 1_565 S
H315 C327 0.930 . S
H316 C329 0.930 . S
H317 C330 0.930 . S
H318 C334 0.959 . S
H319 C334 0.959 . S
H320 C334 0.961 . S
H321 C335 0.960 . S
H322 C335 0.961 . S
H323 C335 0.959 . S
H324 C338 0.929 . S
H325 C339 0.931 . S
H326 C341 0.930 . S
C327 H315 0.930 . S
C327 C328 1.399 . S
C327 C332 1.399 . S
C328 C327 1.399 . S
C328 C329 1.376 . S
C329 H316 0.930 . S
C329 C328 1.376 . S
C329 C330 1.388 . S
C330 H317 0.930 . S
C330 C329 1.388 . S
C330 C331 1.390 . S
C331 C330 1.390 . S
C331 C332 1.394 . S
C331 C337 1.465 . S
C332 C327 1.399 . S
C332 C331 1.394 . S
C332 C333 1.516 . S
C333 C332 1.516 . S
C333 C334 1.502 . S
C333 C335 1.561 . S
C333 C336 1.526 . S
C334 H318 0.959 . S
C334 H319 0.959 . S
C334 H320 0.961 . S
C334 C333 1.502 . S
C335 H321 0.960 . S
C335 H322 0.961 . S
C335 H323 0.959 . S
C335 C333 1.561 . S
C336 C333 1.526 . S
C336 C337 1.396 . S
C336 C341 1.390 . S
C337 C331 1.465 . S
C337 C336 1.396 . S
C337 C338 1.399 . S
C338 H324 0.929 . S
C338 C337 1.399 . S
C338 C339 1.385 . S
C339 H325 0.931 . S
C339 C338 1.385 . S
C339 C340 1.389 . S
C340 C339 1.389 . S
C340 C341 1.387 . S
C341 H326 0.930 . S
C341 C336 1.390 . S
C341 C340 1.387 . S
H342 C354 0.930 . S
H343 C356 0.930 . S
H344 C357 0.930 . S
H345 C361 0.959 . S
H346 C361 0.959 . S
H347 C361 0.961 . S
H348 C362 0.960 . S
H349 C362 0.961 . S
H350 C362 0.959 . S
H351 C365 0.929 . S
H352 C366 0.931 . S
H353 C368 0.930 . S
C354 H342 0.930 . S
C354 C355 1.399 1_565 S
C354 C359 1.399 1_565 S
C355 C354 1.399 1_545 S
C355 C356 1.376 . S
C356 H343 0.930 . S
C356 C355 1.376 . S
C356 C357 1.388 . S
C357 H344 0.930 . S
C357 C356 1.388 . S
C357 C358 1.390 . S
C358 C357 1.390 . S
C358 C359 1.394 . S
C358 C364 1.465 . S
C359 C354 1.399 1_545 S
C359 C358 1.394 . S
C359 C360 1.516 1_545 S
C360 C359 1.516 1_565 S
C360 C361 1.502 . S
C360 C362 1.561 . S
C360 C363 1.517 1_565 S
C361 H345 0.959 . S
C361 H346 0.959 . S
C361 H347 0.961 . S
C361 C360 1.502 . S
C362 H348 0.960 . S
C362 H349 0.961 . S
C362 H350 0.959 . S
C362 C360 1.561 . S
C363 C360 1.517 1_545 S
C363 C364 1.404 . S
C363 C368 1.392 1_545 S
C364 C358 1.465 . S
C364 C363 1.404 . S
C364 C365 1.399 . S
C365 H351 0.929 . S
C365 C364 1.399 . S
C365 C366 1.385 . S
C366 H352 0.931 . S
C366 C365 1.385 . S
C366 C367 1.389 . S
C367 C366 1.389 . S
C367 C368 1.387 1_545 S
C368 H353 0.930 . S
C368 C363 1.392 1_565 S
C368 C367 1.387 1_565 S
H369 C381 0.930 . S
H370 C383 0.930 . S
H371 C384 0.930 . S
H372 C388 0.959 . S
H373 C388 0.959 . S
H374 C388 0.961 . S
H375 C389 0.960 . S
H376 C389 0.961 . S
H377 C389 0.959 . S
H378 C392 0.929 . S
H379 C393 0.931 . S
H380 C395 0.930 . S
C381 H369 0.930 . S
C381 C382 1.399 1_556 S
C381 C386 1.399 . S
C382 C381 1.399 1_554 S
C382 C383 1.376 . S
C383 H370 0.930 . S
C383 C382 1.376 . S
C383 C384 1.388 . S
C384 H371 0.930 . S
C384 C383 1.388 . S
C384 C385 1.390 1_554 S
C385 C384 1.390 1_556 S
C385 C386 1.394 . S
C385 C391 1.465 . S
C386 C381 1.399 . S
C386 C385 1.394 . S
C386 C387 1.516 . S
C387 C386 1.516 . S
C387 C388 1.502 . S
C387 C389 1.561 . S
C387 C390 1.526 . S
C388 H372 0.959 . S
C388 H373 0.959 . S
C388 H374 0.961 . S
C388 C387 1.502 . S
C389 H375 0.960 . S
C389 H376 0.961 . S
C389 H377 0.959 . S
C389 C387 1.561 . S
C390 C387 1.526 . S
C390 C391 1.396 . S
C390 C395 1.390 . S
C391 C385 1.465 . S
C391 C390 1.396 . S
C391 C392 1.399 . S
C392 H378 0.929 . S
C392 C391 1.399 . S
C392 C393 1.385 . S
C393 H379 0.931 . S
C393 C392 1.385 . S
C393 C394 1.389 . S
C394 C393 1.389 . S
C394 C395 1.387 . S
C395 H380 0.930 . S
C395 C390 1.390 . S
C395 C394 1.387 . S
H396 C408 0.930 1_655 S
H397 C410 0.930 . S
H398 C411 0.930 . S
H399 C415 0.959 . S
H400 C415 0.959 . S
H401 C415 0.961 . S
H402 C416 0.960 . S
H403 C416 0.961 . S
H404 C416 0.959 . S
H405 C419 0.929 . S
H406 C420 0.931 . S
H407 C422 0.930 1_655 S
C408 H396 0.930 1_455 S
C408 C409 1.399 . S
C408 C413 1.399 . S
C409 C408 1.399 . S
C409 C410 1.376 . S
C410 H397 0.930 . S
C410 C409 1.376 . S
C410 C411 1.388 . S
C411 H398 0.930 . S
C411 C410 1.388 . S
C411 C412 1.390 . S
C412 C411 1.390 . S
C412 C413 1.394 . S
C412 C418 1.465 . S
C413 C408 1.399 . S
C413 C412 1.394 . S
C413 C414 1.516 1_455 S
C414 C413 1.516 1_655 S
C414 C415 1.502 . S
C414 C416 1.561 1_655 S
C414 C417 1.526 1_655 S
C415 H399 0.959 . S
C415 H400 0.959 . S
C415 H401 0.961 . S
C415 C414 1.502 . S
C416 H402 0.960 . S
C416 H403 0.961 . S
C416 H404 0.959 . S
C416 C414 1.561 1_455 S
C417 C414 1.526 1_455 S
C417 C418 1.396 . S
C417 C422 1.390 . S
C418 C412 1.465 . S
C418 C417 1.396 . S
C418 C419 1.399 . S
C419 H405 0.929 . S
C419 C418 1.399 . S
C419 C420 1.385 . S
C420 H406 0.931 . S
C420 C419 1.385 . S
C420 C421 1.389 . S
C421 C420 1.389 . S
C421 C422 1.387 . S
C422 H407 0.930 1_455 S
C422 C417 1.390 . S
C422 C421 1.387 . S
H423 C435 0.930 . S
H424 C437 0.930 . S
H425 C438 0.930 . S
H426 C442 0.959 . S
H427 C442 0.959 . S
H428 C442 0.961 . S
H429 C443 0.960 . S
H430 C443 0.961 . S
H431 C443 0.959 1_545 S
H432 C446 0.929 . S
H433 C447 0.931 . S
H434 C449 0.930 . S
C435 H423 0.930 . S
C435 C436 1.399 1_565 S
C435 C440 1.399 1_565 S
C436 C435 1.399 1_545 S
C436 C437 1.376 . S
C437 H424 0.930 . S
C437 C436 1.376 . S
C437 C438 1.388 . S
C438 H425 0.930 . S
C438 C437 1.388 . S
C438 C439 1.390 . S
C439 C438 1.390 . S
C439 C440 1.394 . S
C439 C445 1.465 . S
C440 C435 1.399 1_545 S
C440 C439 1.394 . S
C440 C441 1.516 1_545 S
C441 C440 1.516 1_565 S
C441 C442 1.502 . S
C441 C443 1.561 . S
C441 C444 1.526 1_565 S
C442 H426 0.959 . S
C442 H427 0.959 . S
C442 H428 0.961 . S
C442 C441 1.502 . S
C443 H429 0.960 . S
C443 H430 0.961 . S
C443 H431 0.959 1_565 S
C443 C441 1.561 . S
C444 C441 1.526 1_545 S
C444 C445 1.396 . S
C444 C449 1.390 1_545 S
C445 C439 1.465 . S
C445 C444 1.396 . S
C445 C446 1.399 . S
C446 H432 0.929 . S
C446 C445 1.399 . S
C446 C447 1.385 . S
C447 H433 0.931 . S
C447 C446 1.385 . S
C447 C448 1.389 . S
C448 C447 1.389 . S
C448 C449 1.387 1_545 S
C449 H434 0.930 . S
C449 C444 1.390 1_565 S
C449 C448 1.387 1_565 S
H450 C462 0.933 . S
H451 C464 0.930 . S
H452 C465 0.930 . S
H453 C469 0.959 . S
H454 C469 0.959 . S
H455 C469 0.961 . S
H456 C470 0.960 . S
H457 C470 0.961 . S
H458 C470 0.959 . S
H459 C473 0.929 . S
H460 C474 0.931 . S
H461 C476 0.930 . S
C462 H450 0.933 . S
C462 C463 1.367 1_556 S
C462 C467 1.431 . S
C463 C462 1.367 1_554 S
C463 C464 1.376 . S
C464 H451 0.930 . S
C464 C463 1.376 . S
C464 C465 1.388 . S
C465 H452 0.930 . S
C465 C464 1.388 . S
C465 C466 1.390 1_554 S
C466 C465 1.390 1_556 S
C466 C467 1.394 . S
C466 C472 1.465 . S
C467 C462 1.431 . S
C467 C466 1.394 . S
C467 C468 1.516 . S
C468 C467 1.516 . S
C468 C469 1.502 . S
C468 C470 1.561 . S
C468 C471 1.526 . S
C469 H453 0.959 . S
C469 H454 0.959 . S
C469 H455 0.961 . S
C469 C468 1.502 . S
C470 H456 0.960 . S
C470 H457 0.961 . S
C470 H458 0.959 . S
C470 C468 1.561 . S
C471 C468 1.526 . S
C471 C472 1.396 . S
C471 C476 1.390 . S
C472 C466 1.465 . S
C472 C471 1.396 . S
C472 C473 1.399 . S
C473 H459 0.929 . S
C473 C472 1.399 . S
C473 C474 1.385 . S
C474 H460 0.931 . S
C474 C473 1.385 . S
C474 C475 1.389 . S
C475 C474 1.389 . S
C475 C476 1.387 . S
C476 H461 0.930 . S
C476 C471 1.390 . S
C476 C475 1.387 . S
H477 C489 0.930 . S
H478 C491 0.930 . S
H479 C492 0.930 . S
H480 C496 0.959 . S
H481 C496 0.959 . S
H482 C496 0.961 . S
H483 C497 0.960 . S
H484 C497 0.961 . S
H485 C497 0.959 . S
H486 C500 0.929 . S
H487 C501 0.931 . S
H488 C503 0.930 . S
C489 H477 0.930 . S
C489 C490 1.399 . S
C489 C494 1.399 . S
C490 C489 1.399 . S
C490 C491 1.376 . S
C491 H478 0.930 . S
C491 C490 1.376 . S
C491 C492 1.388 . S
C492 H479 0.930 . S
C492 C491 1.388 . S
C492 C493 1.390 . S
C493 C492 1.390 . S
C493 C494 1.394 . S
C493 C499 1.465 . S
C494 C489 1.399 . S
C494 C493 1.394 . S
C494 C495 1.516 . S
C495 C494 1.516 . S
C495 C496 1.502 . S
C495 C497 1.561 1_455 S
C495 C498 1.526 . S
C496 H480 0.959 . S
C496 H481 0.959 . S
C496 H482 0.961 . S
C496 C495 1.502 . S
C497 H483 0.960 . S
C497 H484 0.961 . S
C497 H485 0.959 . S
C497 C495 1.561 1_655 S
C498 C495 1.526 . S
C498 C499 1.396 . S
C498 C503 1.390 . S
C499 C493 1.465 . S
C499 C498 1.396 . S
C499 C500 1.399 . S
C500 H486 0.929 . S
C500 C499 1.399 . S
C500 C501 1.385 . S
C501 H487 0.931 . S
C501 C500 1.385 . S
C501 C502 1.389 . S
C502 C501 1.389 . S
C502 C503 1.387 . S
C503 H488 0.930 . S
C503 C498 1.390 . S
C503 C502 1.387 . S
C205 C50 1.486 . S
C193 C3 1.488 . S
C220 C21 1.486 . S
C232 C89 1.520 . S
C247 C37 1.462 . S
C259 C156 1.507 . S
C274 C8 1.495 . S
C286 C57 1.496 . S
C313 C110 1.509 . S
C301 C23 1.507 . S
C328 C35 1.456 . S
C340 C135 1.502 . S
C367 C96 1.477 . S
C355 C31 1.489 . S
C382 C7 1.506 . S
C394 C149 1.499 . S
C421 C64 1.488 . S
C409 C17 1.481 . S
C448 C103 1.465 . S
C436 C36 1.471 . S
C475 C142 1.511 . S
C463 C9 1.455 . S
C490 C22 1.496 . S
C502 C43 1.495 . S
