# Generated by pormake.
# Topology ftw, (4,12)-cn, num edge types: 1
# Building blocks:
#     Node 0, Type 0, BuildingBlock: NAWXER_clean_linker_0, # of connection points: 4
#     Node 1, Type 0, BuildingBlock: NAWXER_clean_linker_0, # of connection points: 4
#     Node 2, Type 0, BuildingBlock: NAWXER_clean_linker_0, # of connection points: 4
#     Node 3, Type 1, BuildingBlock: EZIPEK_clean_sbu_0, # of connection points: 12
#     Edge 4, Type (0, 1), BuildingBlock: CIFDUS_clean_linker_0, # of connection points: 2
#     Edge 5, Type (0, 1), BuildingBlock: CIFDUS_clean_linker_0, # of connection points: 2
#     Edge 6, Type (0, 1), BuildingBlock: CIFDUS_clean_linker_0, # of connection points: 2
#     Edge 7, Type (0, 1), BuildingBlock: CIFDUS_clean_linker_0, # of connection points: 2
#     Edge 8, Type (0, 1), BuildingBlock: CIFDUS_clean_linker_0, # of connection points: 2
#     Edge 9, Type (0, 1), BuildingBlock: CIFDUS_clean_linker_0, # of connection points: 2
#     Edge 10, Type (0, 1), BuildingBlock: CIFDUS_clean_linker_0, # of connection points: 2
#     Edge 11, Type (0, 1), BuildingBlock: CIFDUS_clean_linker_0, # of connection points: 2
#     Edge 12, Type (0, 1), BuildingBlock: CIFDUS_clean_linker_0, # of connection points: 2
#     Edge 13, Type (0, 1), BuildingBlock: CIFDUS_clean_linker_0, # of connection points: 2
#     Edge 14, Type (0, 1), BuildingBlock: CIFDUS_clean_linker_0, # of connection points: 2
#     Edge 15, Type (0, 1), BuildingBlock: CIFDUS_clean_linker_0, # of connection points: 2
# Relax obj value: 0.032
# Max RMSD: 0.131
# Mean RMSD: 0.100
data_MOF--net-ftw--node1-EZIPEK_clean_sbu_0--node2-NAWXER_clean_linker_0--edge1-CIFDUS_clean_linker_0
_symmetry_space_group_name_H-M    P1
_symmetry_Int_Tables_number       1
_symmetry_cell_setting            triclinic
loop_
_symmetry_equiv_pos_as_xyz
'x, y, z'
_cell_length_a     25.372337
_cell_length_b     26.041393
_cell_length_c     25.469347
_cell_angle_alpha  90.140694
_cell_angle_beta   90.014199
_cell_angle_gamma 89.936539
loop_
_atom_site_label
_atom_site_type_symbol
_atom_site_fract_x
_atom_site_fract_y
_atom_site_fract_z
_atom_type_partial_charge
C0 C 0.03008 0.68612 0.61292 0.0
C1 C -0.01037 0.69373 0.64993 0.0
C2 C 0.02502 0.64867 0.57365 0.0
C3 C 0.97967 0.61789 0.57115 0.0
C4 C 0.94329 0.66454 0.64566 0.0
C5 C 0.93864 0.62663 0.60704 0.0
C6 C 0.97858 0.5711 0.53813 0.0
C7 C 0.95922 0.70077 0.42297 0.0
C8 C -0.00393 0.70271 0.38172 0.0
C9 C 0.9575 0.6585 0.45689 0.0
C10 C -0.00694 0.61738 0.4509 0.0
C11 C 0.03192 0.66175 0.37613 0.0
C12 C 0.03025 0.61958 0.4101 0.0
C13 C -0.01113 0.57018 0.48366 0.0
C14 C 0.95282 0.34756 0.4244 0.0
C15 C -0.01034 0.34459 0.38314 0.0
C16 C 0.95239 0.38979 0.45877 0.0
C17 C -0.01068 0.42971 0.45317 0.0
C18 C 0.02708 0.3841 0.37827 0.0
C19 C 0.02678 0.42608 0.41267 0.0
C20 C 0.98619 0.47781 0.48496 0.0
C21 C 0.01256 0.3632 0.62044 0.0
C22 C 0.97214 0.36325 0.65846 0.0
C23 C 0.01173 0.39828 0.57868 0.0
C24 C 0.97041 0.43391 0.57411 0.0
C25 C 0.9295 0.39715 0.65187 0.0
C26 C 0.92887 0.43221 0.61047 0.0
C27 C 0.97493 0.47929 0.53942 0.0
H28 H 0.0661 0.7083 0.61517 0.0
H29 H 0.05766 0.64189 0.5471 0.0
H30 H 0.91168 0.66923 0.67386 0.0
H31 H 0.90366 0.6028 0.60633 0.0
H32 H 0.93036 0.73106 0.4279 0.0
H33 H 0.92701 0.6573 0.48657 0.0
H34 H 0.06125 0.66213 0.34524 0.0
H35 H 0.05793 0.58838 0.40423 0.0
H36 H 0.92295 0.31822 0.42888 0.0
H37 H 0.92176 0.39207 0.48824 0.0
H38 H 0.0565 0.38281 0.34749 0.0
H39 H 0.05561 0.45625 0.4071 0.0
H40 H 0.0462 0.33789 0.62438 0.0
H41 H 0.04491 0.39964 0.55197 0.0
H42 H 0.89708 0.39754 0.67952 0.0
H43 H 0.89676 0.45958 0.60805 0.0
N44 N 0.97173 0.52581 0.56336 0.0
N45 N -0.00744 0.52349 0.45947 0.0
C46 C 0.57679 0.04709 0.68794 0.0
C47 C 0.6126 1.00647 0.69434 0.0
C48 C 0.54437 0.04895 0.64379 0.0
C49 C 0.5467 1.00975 0.60588 0.0
C50 C 0.61422 0.96687 0.6568 0.0
C51 C 0.58167 0.96865 0.61278 0.0
C52 C 0.51535 1.01302 0.55738 0.0
C53 C 0.39801 0.99095 0.68675 0.0
C54 C 0.36204 0.03154 0.6925 0.0
C55 C 0.43104 0.98886 0.64308 0.0
C56 C 0.42913 0.02784 0.60512 0.0
C57 C 0.36079 0.07087 0.6549 0.0
C58 C 0.39397 0.0689 0.61141 0.0
C59 C 0.46107 0.02439 0.55707 0.0
C60 C 0.4 0.99294 0.33272 0.0
C61 C 0.36482 0.03414 0.32677 0.0
C62 C 0.4323 0.9901 0.37692 0.0
C63 C 0.4304 0.02886 0.4153 0.0
C64 C 0.36374 0.07334 0.36475 0.0
C65 C 0.39611 0.07056 0.40881 0.0
C66 C 0.46165 0.02476 0.46377 0.0
C67 C 0.57841 0.04794 0.33443 0.0
C68 C 0.61446 1.00752 0.32819 0.0
C69 C 0.54567 0.04963 0.3783 0.0
C70 C 0.54783 1.01037 0.41595 0.0
C71 C 0.61614 0.96796 0.36554 0.0
C72 C 0.58314 0.96949 0.4092 0.0
C73 C 0.51592 1.01334 0.46406 0.0
H74 H 0.57552 0.07854 0.71583 0.0
H75 H 0.51868 0.08177 0.6385 0.0
H76 H 0.64137 0.93501 0.66106 0.0
H77 H 0.58414 0.93818 0.58383 0.0
H78 H 0.39899 0.95974 0.71478 0.0
H79 H 0.45687 0.95606 0.63822 0.0
H80 H 0.33349 0.10268 0.65873 0.0
H81 H 0.39184 0.09919 0.58239 0.0
H82 H 0.40086 0.96181 0.30444 0.0
H83 H 0.45758 0.95692 0.38184 0.0
H84 H 0.33711 0.10565 0.36082 0.0
H85 H 0.39406 0.10075 0.43811 0.0
H86 H 0.57718 0.07935 0.30664 0.0
H87 H 0.51981 0.08237 0.38355 0.0
H88 H 0.64365 0.93636 0.36138 0.0
H89 H 0.58553 0.93901 0.43801 0.0
N90 N 0.54076 1.00766 0.51085 0.0
N91 N 0.43625 0.03008 0.51029 0.0
C92 C 0.39716 0.35044 0.96837 0.0
C93 C 0.35171 0.35004 1.00012 0.0
C94 C 0.43307 0.39103 0.97121 0.0
C95 C 0.42573 0.43118 1.00751 0.0
C96 C 0.34434 0.39058 0.03607 0.0
C97 C 0.38104 0.43025 0.03998 0.0
C98 C 0.46024 0.47726 1.00801 0.0
C99 C 0.57577 0.34827 0.03666 0.0
C100 C 0.61598 0.34338 0.99898 0.0
C101 C 0.54198 0.39078 0.03607 0.0
C102 C 0.54727 0.42878 0.9973 0.0
C103 C 0.62063 0.38109 0.95984 0.0
C104 C 0.58682 0.42341 0.95919 0.0
C105 C 0.51511 0.47631 0.99872 0.0
C106 C 0.59759 0.68468 0.03655 0.0
C107 C 0.63492 0.68543 0.99552 0.0
C108 C 0.55582 0.64937 0.03599 0.0
C109 C 0.55068 0.61425 0.9944 0.0
C110 C 0.62748 0.65225 0.95254 0.0
C111 C 0.58616 0.61692 0.95221 0.0
C112 C 0.51674 0.56831 0.99909 0.0
C113 C 0.38072 0.68537 0.97733 0.0
C114 C 0.34555 0.68687 0.02022 0.0
C115 C 0.42273 0.65025 0.97634 0.0
C116 C 0.43023 0.61603 0.01815 0.0
C117 C 0.35568 0.65487 0.06346 0.0
C118 C 0.39719 0.61965 0.0622 0.0
C119 C 0.46253 0.56918 0.01154 0.0
H120 H 0.40486 0.31982 0.94061 0.0
H121 H 0.46561 0.39149 0.94378 0.0
H122 H 0.30937 0.39285 0.06027 0.0
H123 H 0.37366 0.46107 0.06769 0.0
H124 H 0.57169 0.32025 0.06775 0.0
H125 H 0.51278 0.39468 0.06683 0.0
H126 H 0.65081 0.37813 0.92991 0.0
H127 H 0.59188 0.45231 0.92907 0.0
H128 H 0.60219 0.70942 0.07046 0.0
H129 H 0.52981 0.64728 0.06963 0.0
H130 H 0.65451 0.65256 0.91964 0.0
H131 H 0.58321 0.58999 0.91983 0.0
H132 H 0.37409 0.70919 0.94318 0.0
H133 H 0.44686 0.64733 0.94137 0.0
H134 H 0.33043 0.65579 0.09773 0.0
H135 H 0.40191 0.59327 0.09472 0.0
N136 N 0.43664 0.52366 0.01477 0.0
N137 N 0.54075 0.52184 0.99381 0.0
C138 C -0.00768 0.14587 0.88041 0.0
C139 C -0.01133 0.14982 0.1373 0.0
C140 C 0.98144 0.89911 0.88285 0.0
C141 C -0.00682 0.89892 0.13824 0.0
C142 C 0.11782 0.90023 1.00436 0.0
C143 C 0.11666 0.14729 0.01362 0.0
C144 C 0.85868 0.90195 0.01638 0.0
C145 C 0.86165 0.15031 1.00739 0.0
C146 C 0.86256 0.02198 0.13849 0.0
C147 C 0.11653 0.02761 0.1363 0.0
C148 C 0.86036 1.01984 0.88514 0.0
C149 C 0.11407 0.02465 0.88278 0.0
Eu150 Eu -0.011 0.12199 1.0093 0.0
O151 O 0.03485 0.06955 0.05595 0.0
O152 O 0.94127 0.07044 0.96343 0.0
Eu153 Eu 0.08733 0.02362 1.00972 0.0
Eu154 Eu 0.8895 0.02556 0.01157 0.0
O155 O 0.03493 0.06931 0.96316 0.0
O156 O 0.94258 0.07121 0.05773 0.0
Eu157 Eu 0.98751 0.02281 0.91208 0.0
Eu158 Eu -0.0107 0.0243 0.10976 0.0
O159 O 0.03486 0.97674 0.96361 0.0
O160 O 0.03543 0.97745 0.05699 0.0
O161 O 0.94276 0.97875 0.05683 0.0
O162 O 0.94152 0.9781 0.96558 0.0
Eu163 Eu -0.01157 0.92509 0.01054 0.0
O164 O -0.0077 0.16362 0.92991 0.0
O165 O -0.01144 0.16479 0.08708 0.0
O166 O 0.98429 0.88225 0.93233 0.0
O167 O -0.00816 0.88336 0.08823 0.0
O168 O 0.1321 0.94939 1.00594 0.0
O169 O 0.13239 0.09853 0.01088 0.0
O170 O 0.84467 0.95128 0.01555 0.0
O171 O 0.84519 0.10161 1.00955 0.0
O172 O 0.91266 1.02095 0.15404 0.0
O173 O 0.06668 0.02806 0.15262 0.0
O174 O 0.91019 1.02173 0.86888 0.0
O175 O 0.06401 0.02198 0.86728 0.0
O176 O 0.9083 0.88408 0.01411 0.0
O177 O 0.06808 0.88282 1.00648 0.0
O178 O 0.91191 0.16531 1.00698 0.0
O179 O 0.06698 0.16404 0.01405 0.0
O180 O -0.01161 0.10097 0.15368 0.0
O181 O -0.00763 0.94798 0.15431 0.0
O182 O -0.01031 0.09659 0.86656 0.0
O183 O 0.9822 0.94798 0.86761 0.0
O184 O 0.13066 0.02599 0.93242 0.0
O185 O 0.13231 0.02468 0.08643 0.0
O186 O 0.84449 1.02097 0.93504 0.0
O187 O 0.84605 0.02526 0.08892 0.0
H188 H 0.00056 0.35099 0.277 0.0
H189 H 0.97424 0.24162 0.40109 0.0
H190 H 0.9714 0.17175 0.33662 0.0
H191 H 0.97704 0.14159 0.24454 0.0
H192 H 0.00328 0.25257 0.12139 0.0
H193 H 0.00597 0.32133 0.18592 0.0
C194 C -0.00525 0.31182 0.29012 0.0
C195 C -0.01205 0.30172 0.344 0.0
C196 C -0.00689 0.27188 0.25286 0.0
C197 C 0.97926 0.2507 0.35992 0.0
C198 C 0.97786 0.21064 0.32304 0.0
C199 C 0.98339 0.18076 0.23173 0.0
C200 C -0.01015 0.19141 0.17778 0.0
C201 C 0.98477 0.22073 0.2693 0.0
C202 C -0.00212 0.24273 0.16232 0.0
C203 C -0.00044 0.28236 0.19932 0.0
H204 H 0.71908 0.99495 0.33774 0.0
H205 H 0.59718 0.0253 0.22395 0.0
H206 H 0.66365 0.03254 0.15457 0.0
H207 H 0.75626 0.03145 0.1273 0.0
H208 H 0.87778 1.00228 0.24264 0.0
H209 H 0.81121 0.99327 0.31056 0.0
C210 C 0.70709 1.00241 0.29757 0.0
C211 C 0.6536 1.00915 0.28559 0.0
C212 C 0.7453 1.0071 0.25842 0.0
C213 C 0.63837 1.02001 0.2338 0.0
C214 C 0.67624 0.02413 0.1943 0.0
C215 C 0.7683 0.02313 0.16725 0.0
C216 C 0.82202 1.01774 0.17973 0.0
C217 C 0.72985 1.01806 0.2063 0.0
C218 C 0.83678 1.007 0.23181 0.0
C219 C 0.79875 1.00163 0.27076 0.0
H220 H 0.00793 0.69731 0.27562 0.0
H221 H 0.98239 0.80583 0.40127 0.0
H222 H 0.97942 0.8762 0.33779 0.0
H223 H 0.9836 0.90697 0.24588 0.0
H224 H 0.00978 0.79661 0.12148 0.0
H225 H 0.01356 0.72764 0.18515 0.0
C226 C 0.00243 0.7364 0.28934 0.0
C227 C -0.00438 0.74606 0.34332 0.0
C228 C 0.00078 0.77666 0.25268 0.0
C229 C 0.98732 0.79704 0.35998 0.0
C230 C 0.98584 0.83741 0.32367 0.0
C231 C -0.00969 0.8679 0.23266 0.0
C232 C -0.00382 0.8575 0.17857 0.0
C233 C -0.00762 0.82771 0.26978 0.0
C234 C 0.00471 0.8063 0.16255 0.0
C235 C 0.00702 0.76651 0.19904 0.0
H236 H 0.26077 0.05139 0.3355 0.0
H237 H 0.38167 1.01464 0.22248 0.0
H238 H 0.3152 1.00974 0.1528 0.0
H239 H 0.22256 1.0144 0.12507 0.0
H240 H 0.10242 0.05045 0.23988 0.0
H241 H 0.16915 0.05743 0.30786 0.0
C242 C 0.27265 0.04311 0.29543 0.0
C243 C 0.32584 0.0338 0.28384 0.0
C244 C 0.23445 0.03993 0.25609 0.0
C245 C 0.34074 1.02184 0.23213 0.0
C246 C 0.30286 1.0191 0.19242 0.0
C247 C 0.21093 0.0239 0.1649 0.0
C248 C 0.15747 0.03162 0.17723 0.0
C249 C 0.24952 0.02775 0.20409 0.0
C250 C 0.14318 0.04382 0.22916 0.0
C251 C 0.18131 0.04803 0.26817 0.0
H252 H 0.92101 0.76618 0.68517 0.0
H253 H 0.07399 0.7007 0.71598 0.0
H254 H 0.08389 0.75589 0.79329 0.0
H255 H 0.0488 0.82349 0.85237 0.0
H256 H 0.8984 0.89238 0.81763 0.0
H257 H 0.88709 0.83479 0.74237 0.0
C258 C 0.95646 0.76405 0.70889 0.0
C259 C -0.0033 0.7295 0.6949 0.0
C260 C 0.96202 0.79617 0.75294 0.0
C261 C 0.04271 0.72744 0.72563 0.0
C262 C 0.04821 0.75869 0.77005 0.0
C263 C 0.01341 0.82519 0.82853 0.0
C264 C 0.97404 0.86122 0.84061 0.0
C265 C 0.00806 0.79313 0.78423 0.0
C266 C 0.92883 0.86435 0.80903 0.0
C267 C 0.9225 0.83166 0.76598 0.0
H268 H 0.2576 0.04617 0.68296 0.0
H269 H 0.37886 1.01331 0.79675 0.0
H270 H 0.31232 1.00804 0.86622 0.0
H271 H 0.21985 1.01195 0.8937 0.0
H272 H 0.09895 0.04424 0.7787 0.0
H273 H 0.16558 0.05068 0.71037 0.0
C274 C 0.26947 0.03857 0.72314 0.0
C275 C 0.3228 0.03057 0.73508 0.0
C276 C 0.23122 0.0352 0.76239 0.0
C277 C 0.33781 1.01953 0.7869 0.0
C278 C 0.2999 1.01658 0.82647 0.0
C279 C 0.20802 1.02053 0.85374 0.0
C280 C 0.15448 0.02751 0.84139 0.0
C281 C 0.24647 0.02414 0.81454 0.0
C282 C 0.13984 0.03827 0.78931 0.0
C283 C 0.1779 0.04219 0.75018 0.0
H284 H 0.0062 0.26391 0.66463 0.0
H285 H 0.9454 0.38774 0.75985 0.0
H286 H 0.94793 0.33287 0.83737 0.0
H287 H 0.96532 0.24831 0.87823 0.0
H288 H 0.02734 0.12572 0.78178 0.0
H289 H 0.02731 0.1816 0.70565 0.0
C290 C -0.00595 0.27916 0.70239 0.0
C291 C 0.97516 0.32983 0.70598 0.0
C292 C -0.00412 0.24751 0.74703 0.0
C293 C 0.95909 0.34856 0.75543 0.0
C294 C 0.9609 0.31731 0.80004 0.0
C295 C 0.9793 0.23406 0.84069 0.0
C296 C -0.00423 0.18263 0.83595 0.0
C297 C 0.97888 0.26649 0.79633 0.0
C298 C 0.01365 0.16485 0.78675 0.0
C299 C 0.01379 0.19683 0.74295 0.0
H300 H 0.71698 0.99054 0.68605 0.0
H301 H 0.59528 0.02704 0.7983 0.0
H302 H 0.66152 0.03419 0.86796 0.0
H303 H 0.75417 0.03167 0.8959 0.0
H304 H 0.87518 0.99576 0.782 0.0
H305 H 0.80871 0.9865 0.71398 0.0
C306 C 0.70489 0.99925 0.72596 0.0
C307 C 0.65152 1.00787 0.73732 0.0
C308 C 0.74297 1.00375 0.76531 0.0
C309 C 0.63634 1.02036 0.78882 0.0
C310 C 0.6741 0.0244 0.82852 0.0
C311 C 0.76603 1.02172 0.85625 0.0
C312 C 0.81964 1.01476 0.84413 0.0
C313 C 0.72759 1.01653 0.81707 0.0
C314 C 0.83428 1.00195 0.79246 0.0
C315 C 0.79629 0.99639 0.75346 0.0
H316 H 0.2874 0.31016 0.07618 0.0
H317 H 0.32332 0.29709 0.9107 0.0
H318 H 0.25588 0.23149 0.90105 0.0
H319 H 0.18406 0.17944 0.93881 0.0
H320 H 0.14136 0.20038 0.10108 0.0
H321 H 0.2129 0.26266 0.11244 0.0
C322 C 0.28015 0.29384 0.03768 0.0
C323 C 0.31106 0.30892 0.9944 0.0
C324 C 0.23955 0.25779 0.0317 0.0
C325 C 0.30143 0.28578 0.94524 0.0
C326 C 0.26226 0.24855 0.93939 0.0
C327 C 0.19059 0.19799 0.97644 0.0
C328 C 0.15809 0.18591 0.01912 0.0
C329 C 0.23086 0.23451 0.98223 0.0
C330 C 0.16618 0.20974 0.06783 0.0
C331 C 0.20703 0.24506 0.07429 0.0
H332 H 0.33466 0.78389 0.9811 0.0
H333 H 0.24655 0.66295 0.05614 0.0
H334 H 0.1676 0.71654 0.05608 0.0
H335 H 0.12354 0.79944 0.03672 0.0
H336 H 0.21287 0.91872 0.95999 0.0
H337 H 0.29021 0.86387 0.95772 0.0
C338 C 0.29812 0.76891 0.99692 0.0
C339 C 0.29708 0.71954 0.01907 0.0
C340 C 0.25257 0.79973 0.99634 0.0
C341 C 0.24915 0.70123 0.03986 0.0
C342 C 0.20366 0.73172 0.03945 0.0
C343 C 0.15975 0.81308 0.01899 0.0
C344 C 0.16228 0.86339 0.99913 0.0
C345 C 0.20489 0.78128 0.01809 0.0
C346 C 0.20975 0.88048 0.97639 0.0
C347 C 0.25423 0.8491 0.97494 0.0
H348 H 0.72185 0.34992 0.98789 0.0
H349 H 0.59735 0.24124 0.01769 0.0
H350 H 0.66214 0.17163 0.02317 0.0
H351 H 0.75447 0.14186 0.01899 0.0
H352 H 0.87796 0.25226 0.98897 0.0
H353 H 0.8131 0.32062 0.98362 0.0
C354 C 0.70877 0.3109 0.99498 0.0
C355 C 0.65484 0.30073 1.00196 0.0
C356 C 0.74609 0.27129 0.9981 0.0
C357 C 0.6387 0.25013 0.0124 0.0
C358 C 0.6757 0.21031 0.01534 0.0
C359 C 0.76725 0.18082 0.0112 0.0
C360 C 0.82127 0.19156 1.00449 0.0
C361 C 0.72958 0.22045 1.00823 0.0
C362 C 0.83686 0.24251 0.99461 0.0
C363 C 0.79974 0.28186 0.9914 0.0
H364 H 0.64212 0.78394 0.0319 0.0
H365 H 0.736 0.66151 0.966 0.0
H366 H 0.81399 0.7162 0.96828 0.0
H367 H 0.8556 0.80022 0.98694 0.0
H368 H 0.76065 0.9213 0.05443 0.0
H369 H 0.68405 0.86556 0.05447 0.0
C370 C 0.6797 0.76893 0.01857 0.0
C371 C 0.68273 0.71876 0.99831 0.0
C372 C 0.72465 0.80045 0.02035 0.0
C373 C 0.73196 0.70035 0.98074 0.0
C374 C 0.77685 0.73149 0.98242 0.0
C375 C 0.8183 0.81416 1.00215 0.0
C376 C 0.8141 0.86514 0.0201 0.0
C377 C 0.77368 0.78182 1.00181 0.0
C378 C 0.7652 0.88253 0.03957 0.0
C379 C 0.72112 0.85063 0.03975 0.0
loop_
_geom_bond_atom_site_label_1
_geom_bond_atom_site_label_2
_geom_bond_distance
_geom_bond_site_symmetry_2
_ccdc_geom_bond_type
C0 C1 1.384 1_455 S
C0 C2 1.384 . S
C0 H28 0.931 . S
C1 C0 1.384 1_655 S
C1 C4 1.382 . S
C2 C0 1.384 . S
C2 C3 1.381 1_455 S
C2 H29 0.930 . S
C3 C2 1.381 1_655 S
C3 C5 1.381 . S
C3 C6 1.487 . S
C4 C1 1.382 . S
C4 C5 1.387 . S
C4 H30 0.930 . S
C5 C3 1.381 . S
C5 C4 1.387 . S
C5 H31 0.931 . S
C6 C3 1.487 . S
C6 C13 1.399 1_655 S
C6 N44 1.343 . S
C7 C8 1.384 1_655 S
C7 C9 1.384 . S
C7 H32 0.931 . S
C8 C7 1.384 1_455 S
C8 C11 1.382 . S
C9 C7 1.384 . S
C9 C10 1.381 1_655 S
C9 H33 0.930 . S
C10 C9 1.381 1_455 S
C10 C12 1.381 . S
C10 C13 1.487 . S
C11 C8 1.382 . S
C11 C12 1.387 . S
C11 H34 0.930 . S
C12 C10 1.381 . S
C12 C11 1.387 . S
C12 H35 0.931 . S
C13 C6 1.399 1_455 S
C13 C10 1.487 . S
C13 N45 1.343 . S
C14 C15 1.384 1_655 S
C14 C16 1.384 . S
C14 H36 0.931 . S
C15 C14 1.384 1_455 S
C15 C18 1.382 . S
C16 C14 1.384 . S
C16 C17 1.381 1_655 S
C16 H37 0.930 . S
C17 C16 1.381 1_455 S
C17 C19 1.381 . S
C17 C20 1.487 . S
C18 C15 1.382 . S
C18 C19 1.387 . S
C18 H38 0.930 . S
C19 C17 1.381 . S
C19 C18 1.387 . S
C19 H39 0.931 . S
C20 C17 1.487 . S
C20 C27 1.399 1_455 S
C20 N45 1.343 . S
C21 C22 1.384 1_455 S
C21 C23 1.384 . S
C21 H40 0.931 . S
C22 C21 1.384 1_655 S
C22 C25 1.382 . S
C23 C21 1.384 . S
C23 C24 1.381 1_455 S
C23 H41 0.930 . S
C24 C23 1.381 1_655 S
C24 C26 1.381 . S
C24 C27 1.487 . S
C25 C22 1.382 . S
C25 C26 1.387 . S
C25 H42 0.930 . S
C26 C24 1.381 . S
C26 C25 1.387 . S
C26 H43 0.931 . S
C27 C20 1.399 1_655 S
C27 C24 1.487 . S
C27 N44 1.343 . S
H28 C0 0.931 . S
H29 C2 0.930 . S
H30 C4 0.930 . S
H31 C5 0.931 . S
H32 C7 0.931 . S
H33 C9 0.930 . S
H34 C11 0.930 . S
H35 C12 0.931 . S
H36 C14 0.931 . S
H37 C16 0.930 . S
H38 C18 0.930 . S
H39 C19 0.931 . S
H40 C21 0.931 . S
H41 C23 0.930 . S
H42 C25 0.930 . S
H43 C26 0.931 . S
N44 C6 1.343 . S
N44 C27 1.343 . S
N45 C13 1.343 . S
N45 C20 1.343 . S
C46 C47 1.384 1_545 S
C46 C48 1.384 . S
C46 H74 0.931 . S
C47 C46 1.384 1_565 S
C47 C50 1.382 . S
C48 C46 1.384 . S
C48 C49 1.381 1_545 S
C48 H75 0.930 . S
C49 C48 1.381 1_565 S
C49 C51 1.381 . S
C49 C52 1.487 . S
C50 C47 1.382 . S
C50 C51 1.387 . S
C50 H76 0.930 . S
C51 C49 1.381 . S
C51 C50 1.387 . S
C51 H77 0.931 . S
C52 C49 1.487 . S
C52 C59 1.399 1_565 S
C52 N90 1.343 . S
C53 C54 1.384 1_565 S
C53 C55 1.384 . S
C53 H78 0.931 . S
C54 C53 1.384 1_545 S
C54 C57 1.382 . S
C55 C53 1.384 . S
C55 C56 1.381 1_565 S
C55 H79 0.930 . S
C56 C55 1.381 1_545 S
C56 C58 1.381 . S
C56 C59 1.487 . S
C57 C54 1.382 . S
C57 C58 1.387 . S
C57 H80 0.930 . S
C58 C56 1.381 . S
C58 C57 1.387 . S
C58 H81 0.931 . S
C59 C52 1.399 1_545 S
C59 C56 1.487 . S
C59 N91 1.343 . S
C60 C61 1.384 1_565 S
C60 C62 1.384 . S
C60 H82 0.931 . S
C61 C60 1.384 1_545 S
C61 C64 1.382 . S
C62 C60 1.384 . S
C62 C63 1.381 1_565 S
C62 H83 0.930 . S
C63 C62 1.381 1_545 S
C63 C65 1.381 . S
C63 C66 1.487 . S
C64 C61 1.382 . S
C64 C65 1.387 . S
C64 H84 0.930 . S
C65 C63 1.381 . S
C65 C64 1.387 . S
C65 H85 0.931 . S
C66 C63 1.487 . S
C66 C73 1.399 1_545 S
C66 N91 1.343 . S
C67 C68 1.384 1_545 S
C67 C69 1.384 . S
C67 H86 0.931 . S
C68 C67 1.384 1_565 S
C68 C71 1.382 . S
C69 C67 1.384 . S
C69 C70 1.381 1_545 S
C69 H87 0.930 . S
C70 C69 1.381 1_565 S
C70 C72 1.381 . S
C70 C73 1.487 . S
C71 C68 1.382 . S
C71 C72 1.387 . S
C71 H88 0.930 . S
C72 C70 1.381 . S
C72 C71 1.387 . S
C72 H89 0.931 . S
C73 C66 1.399 1_565 S
C73 C70 1.487 . S
C73 N90 1.343 . S
H74 C46 0.931 . S
H75 C48 0.930 . S
H76 C50 0.930 . S
H77 C51 0.931 . S
H78 C53 0.931 . S
H79 C55 0.930 . S
H80 C57 0.930 . S
H81 C58 0.931 . S
H82 C60 0.931 . S
H83 C62 0.930 . S
H84 C64 0.930 . S
H85 C65 0.931 . S
H86 C67 0.931 . S
H87 C69 0.930 . S
H88 C71 0.930 . S
H89 C72 0.931 . S
N90 C52 1.343 . S
N90 C73 1.343 . S
N91 C59 1.343 . S
N91 C66 1.343 . S
C92 C93 1.384 1_556 S
C92 C94 1.384 . S
C92 H120 0.931 . S
C93 C92 1.384 1_554 S
C93 C96 1.382 . S
C94 C92 1.384 . S
C94 C95 1.381 1_556 S
C94 H121 0.930 . S
C95 C94 1.381 1_554 S
C95 C97 1.381 . S
C95 C98 1.487 . S
C96 C93 1.382 . S
C96 C97 1.387 . S
C96 H122 0.930 . S
C97 C95 1.381 . S
C97 C96 1.387 . S
C97 H123 0.931 . S
C98 C95 1.487 . S
C98 C105 1.399 1_554 S
C98 N136 1.343 . S
C99 C100 1.384 1_554 S
C99 C101 1.384 . S
C99 H124 0.931 . S
C100 C99 1.384 1_556 S
C100 C103 1.382 . S
C101 C99 1.384 . S
C101 C102 1.381 1_554 S
C101 H125 0.930 . S
C102 C101 1.381 1_556 S
C102 C104 1.381 . S
C102 C105 1.487 . S
C103 C100 1.382 . S
C103 C104 1.387 . S
C103 H126 0.930 . S
C104 C102 1.381 . S
C104 C103 1.387 . S
C104 H127 0.931 . S
C105 C98 1.399 1_556 S
C105 C102 1.487 . S
C105 N137 1.343 . S
C106 C107 1.384 1_554 S
C106 C108 1.384 . S
C106 H128 0.931 . S
C107 C106 1.384 1_556 S
C107 C110 1.382 . S
C108 C106 1.384 . S
C108 C109 1.381 1_554 S
C108 H129 0.930 . S
C109 C108 1.381 1_556 S
C109 C111 1.381 . S
C109 C112 1.487 . S
C110 C107 1.382 . S
C110 C111 1.387 . S
C110 H130 0.930 . S
C111 C109 1.381 . S
C111 C110 1.387 . S
C111 H131 0.931 . S
C112 C109 1.487 . S
C112 C119 1.399 1_556 S
C112 N137 1.343 . S
C113 C114 1.384 1_556 S
C113 C115 1.384 . S
C113 H132 0.931 . S
C114 C113 1.384 1_554 S
C114 C117 1.382 . S
C115 C113 1.384 . S
C115 C116 1.381 1_556 S
C115 H133 0.930 . S
C116 C115 1.381 1_554 S
C116 C118 1.381 . S
C116 C119 1.487 . S
C117 C114 1.382 . S
C117 C118 1.387 . S
C117 H134 0.930 . S
C118 C116 1.381 . S
C118 C117 1.387 . S
C118 H135 0.931 . S
C119 C112 1.399 1_554 S
C119 C116 1.487 . S
C119 N136 1.343 . S
H120 C92 0.931 . S
H121 C94 0.930 . S
H122 C96 0.930 . S
H123 C97 0.931 . S
H124 C99 0.931 . S
H125 C101 0.930 . S
H126 C103 0.930 . S
H127 C104 0.931 . S
H128 C106 0.931 . S
H129 C108 0.930 . S
H130 C110 0.930 . S
H131 C111 0.931 . S
H132 C113 0.931 . S
H133 C115 0.930 . S
H134 C117 0.930 . S
H135 C118 0.931 . S
N136 C98 1.343 . S
N136 C119 1.343 . S
N137 C105 1.343 . S
N137 C112 1.343 . S
C138 O164 1.283 . S
C138 O182 1.283 . S
C139 O165 1.283 . S
C139 O180 1.283 . S
C140 O166 1.283 . S
C140 O183 1.283 . S
C141 O167 1.283 . S
C141 O181 1.283 . S
C142 O168 1.283 . S
C142 O177 1.283 . S
C143 O169 1.283 . S
C143 O179 1.283 . S
C144 O170 1.283 . S
C144 O176 1.283 . S
C145 O171 1.283 . S
C145 O178 1.283 . S
C146 O172 1.283 . S
C146 O187 1.283 . S
C147 O173 1.283 . S
C147 O185 1.283 . S
C148 O174 1.283 . S
C148 O186 1.283 . S
C149 O175 1.283 . S
C149 O184 1.283 . S
Eu150 O151 2.370 . S
Eu150 O152 2.370 1_454 S
Eu150 O155 2.370 1_554 S
Eu150 O156 2.370 1_455 S
Eu150 O164 2.363 1_554 S
Eu150 O165 2.363 . S
Eu150 O178 2.363 1_455 S
Eu150 O179 2.363 . S
O151 Eu150 2.370 . S
O151 Eu153 2.370 . S
O151 Eu158 2.370 . S
O152 Eu150 2.370 1_656 S
O152 Eu154 2.370 1_556 S
O152 Eu157 2.370 1_655 S
Eu153 O151 2.370 . S
Eu153 O155 2.370 1_554 S
Eu153 O159 2.370 1_544 S
Eu153 O160 2.370 1_545 S
Eu153 O168 2.363 1_545 S
Eu153 O169 2.363 . S
Eu153 O184 2.363 1_554 S
Eu153 O185 2.363 . S
Eu154 O152 2.370 1_554 S
Eu154 O156 2.370 . S
Eu154 O161 2.370 1_545 S
Eu154 O162 2.370 1_544 S
Eu154 O170 2.363 1_545 S
Eu154 O171 2.363 . S
Eu154 O186 2.363 1_554 S
Eu154 O187 2.363 . S
O155 Eu150 2.370 1_556 S
O155 Eu153 2.370 1_556 S
O155 Eu157 2.370 . S
O156 Eu150 2.370 1_655 S
O156 Eu154 2.370 . S
O156 Eu158 2.370 1_655 S
Eu157 O152 2.370 1_455 S
Eu157 O155 2.370 . S
Eu157 O159 2.370 1_545 S
Eu157 O162 2.370 1_445 S
Eu157 O174 2.363 1_455 S
Eu157 O175 2.363 . S
Eu157 O182 2.363 . S
Eu157 O183 2.363 1_545 S
Eu158 O151 2.370 . S
Eu158 O156 2.370 1_455 S
Eu158 O160 2.370 1_545 S
Eu158 O161 2.370 1_445 S
Eu158 O172 2.363 1_455 S
Eu158 O173 2.363 . S
Eu158 O180 2.363 . S
Eu158 O181 2.363 1_545 S
O159 Eu153 2.370 1_566 S
O159 Eu157 2.370 1_565 S
O159 Eu163 2.370 1_556 S
O160 Eu153 2.370 1_565 S
O160 Eu158 2.370 1_565 S
O160 Eu163 2.370 . S
O161 Eu154 2.370 1_565 S
O161 Eu158 2.370 1_665 S
O161 Eu163 2.370 1_655 S
O162 Eu154 2.370 1_566 S
O162 Eu157 2.370 1_665 S
O162 Eu163 2.370 1_656 S
Eu163 O159 2.370 1_554 S
Eu163 O160 2.370 . S
Eu163 O161 2.370 1_455 S
Eu163 O162 2.370 1_454 S
Eu163 O166 2.363 1_554 S
Eu163 O167 2.363 . S
Eu163 O176 2.363 1_455 S
Eu163 O177 2.363 . S
O164 C138 1.283 . S
O164 Eu150 2.363 1_556 S
O165 C139 1.283 . S
O165 Eu150 2.363 . S
O166 C140 1.283 . S
O166 Eu163 2.363 1_556 S
O167 C141 1.283 . S
O167 Eu163 2.363 . S
O168 C142 1.283 . S
O168 Eu153 2.363 1_565 S
O169 C143 1.283 . S
O169 Eu153 2.363 . S
O170 C144 1.283 . S
O170 Eu154 2.363 1_565 S
O171 C145 1.283 . S
O171 Eu154 2.363 . S
O172 C146 1.283 . S
O172 Eu158 2.363 1_655 S
O173 C147 1.283 . S
O173 Eu158 2.363 . S
O174 C148 1.283 . S
O174 Eu157 2.363 1_655 S
O175 C149 1.283 . S
O175 Eu157 2.363 . S
O176 C144 1.283 . S
O176 Eu163 2.363 1_655 S
O177 C142 1.283 . S
O177 Eu163 2.363 . S
O178 C145 1.283 . S
O178 Eu150 2.363 1_655 S
O179 C143 1.283 . S
O179 Eu150 2.363 . S
O180 C139 1.283 . S
O180 Eu158 2.363 . S
O181 C141 1.283 . S
O181 Eu158 2.363 1_565 S
O182 C138 1.283 . S
O182 Eu157 2.363 . S
O183 C140 1.283 . S
O183 Eu157 2.363 1_565 S
O184 C149 1.283 . S
O184 Eu153 2.363 1_556 S
O185 C147 1.283 . S
O185 Eu153 2.363 . S
O186 C148 1.283 . S
O186 Eu154 2.363 1_556 S
O187 C146 1.283 . S
O187 Eu154 2.363 . S
H188 C194 0.930 . S
H189 C197 0.930 . S
H190 C198 0.930 . S
H191 C199 0.930 . S
H192 C202 0.930 . S
H193 C203 0.930 . S
C194 H188 0.930 . S
C194 C195 1.357 . S
C194 C196 1.415 . S
C195 C194 1.357 . S
C195 C197 1.417 1_655 S
C196 C194 1.415 . S
C196 C201 1.425 1_655 S
C196 C203 1.409 . S
C197 H189 0.930 . S
C197 C195 1.417 1_455 S
C197 C198 1.362 . S
C198 H190 0.930 . S
C198 C197 1.362 . S
C198 C201 1.409 . S
C199 H191 0.930 . S
C199 C200 1.357 . S
C199 C201 1.415 . S
C200 C199 1.357 . S
C200 C202 1.416 1_455 S
C201 C196 1.425 1_455 S
C201 C198 1.409 . S
C201 C199 1.415 . S
C202 H192 0.930 . S
C202 C200 1.416 1_655 S
C202 C203 1.362 . S
C203 H193 0.930 . S
C203 C196 1.409 . S
C203 C202 1.362 . S
H204 C210 0.930 . S
H205 C213 0.930 . S
H206 C214 0.930 . S
H207 C215 0.930 . S
H208 C218 0.930 . S
H209 C219 0.930 . S
C210 H204 0.930 . S
C210 C211 1.355 1_565 S
C210 C212 1.415 . S
C211 C210 1.355 1_545 S
C211 C213 1.419 . S
C212 C210 1.415 . S
C212 C217 1.425 1_565 S
C212 C219 1.409 . S
C213 H205 0.930 . S
C213 C211 1.419 . S
C213 C214 1.362 . S
C214 H206 0.930 . S
C214 C213 1.362 . S
C214 C217 1.409 . S
C215 H207 0.930 . S
C215 C216 1.355 1_545 S
C215 C217 1.415 . S
C216 C215 1.355 1_565 S
C216 C218 1.419 . S
C217 C212 1.425 1_545 S
C217 C214 1.409 . S
C217 C215 1.415 . S
C218 H208 0.930 . S
C218 C216 1.419 . S
C218 C219 1.362 . S
C219 H209 0.930 . S
C219 C212 1.409 . S
C219 C218 1.362 . S
H220 C226 0.930 . S
H221 C229 0.930 . S
H222 C230 0.930 . S
H223 C231 0.930 . S
H224 C234 0.930 . S
H225 C235 0.930 . S
C226 H220 0.930 . S
C226 C227 1.355 1_655 S
C226 C228 1.415 . S
C227 C226 1.355 1_455 S
C227 C229 1.419 . S
C228 C226 1.415 . S
C228 C233 1.425 1_655 S
C228 C235 1.409 . S
C229 H221 0.930 . S
C229 C227 1.419 . S
C229 C230 1.362 . S
C230 H222 0.930 . S
C230 C229 1.362 . S
C230 C233 1.409 . S
C231 H223 0.930 . S
C231 C232 1.355 1_455 S
C231 C233 1.415 . S
C232 C231 1.355 1_655 S
C232 C234 1.419 . S
C233 C228 1.425 1_455 S
C233 C230 1.409 . S
C233 C231 1.415 . S
C234 H224 0.930 . S
C234 C232 1.419 . S
C234 C235 1.362 . S
C235 H225 0.930 . S
C235 C228 1.409 . S
C235 C234 1.362 . S
H236 C242 0.930 . S
H237 C245 0.930 . S
H238 C246 0.930 . S
H239 C247 0.930 . S
H240 C250 0.930 . S
H241 C251 0.930 . S
C242 H236 0.930 . S
C242 C243 1.355 1_545 S
C242 C244 1.415 . S
C243 C242 1.355 1_565 S
C243 C245 1.419 . S
C244 C242 1.415 . S
C244 C249 1.425 1_545 S
C244 C251 1.409 . S
C245 H237 0.930 . S
C245 C243 1.419 . S
C245 C246 1.362 . S
C246 H238 0.930 . S
C246 C245 1.362 . S
C246 C249 1.409 . S
C247 H239 0.930 . S
C247 C248 1.355 1_565 S
C247 C249 1.415 . S
C248 C247 1.355 1_545 S
C248 C250 1.419 . S
C249 C244 1.425 1_565 S
C249 C246 1.409 . S
C249 C247 1.415 . S
C250 H240 0.930 . S
C250 C248 1.419 . S
C250 C251 1.362 . S
C251 H241 0.930 . S
C251 C244 1.409 . S
C251 C250 1.362 . S
H252 C258 0.930 . S
H253 C261 0.930 . S
H254 C262 0.930 . S
H255 C263 0.930 . S
H256 C266 0.930 . S
H257 C267 0.930 . S
C258 H252 0.930 . S
C258 C259 1.355 1_655 S
C258 C260 1.415 . S
C259 C258 1.355 1_455 S
C259 C261 1.419 . S
C260 C258 1.415 . S
C260 C265 1.425 1_655 S
C260 C267 1.409 . S
C261 H253 0.930 . S
C261 C259 1.419 . S
C261 C262 1.362 . S
C262 H254 0.930 . S
C262 C261 1.362 . S
C262 C265 1.409 . S
C263 H255 0.930 . S
C263 C264 1.355 1_455 S
C263 C265 1.415 . S
C264 C263 1.355 1_655 S
C264 C266 1.419 . S
C265 C260 1.425 1_455 S
C265 C262 1.409 . S
C265 C263 1.415 . S
C266 H256 0.930 . S
C266 C264 1.419 . S
C266 C267 1.362 . S
C267 H257 0.930 . S
C267 C260 1.409 . S
C267 C266 1.362 . S
H268 C274 0.930 . S
H269 C277 0.930 . S
H270 C278 0.930 . S
H271 C279 0.930 . S
H272 C282 0.930 . S
H273 C283 0.930 . S
C274 H268 0.930 . S
C274 C275 1.355 1_565 S
C274 C276 1.415 . S
C275 C274 1.355 1_545 S
C275 C277 1.419 . S
C276 C274 1.415 . S
C276 C281 1.425 1_565 S
C276 C283 1.409 . S
C277 H269 0.930 . S
C277 C275 1.419 . S
C277 C278 1.362 . S
C278 H270 0.930 . S
C278 C277 1.362 . S
C278 C281 1.409 . S
C279 H271 0.930 . S
C279 C280 1.355 1_545 S
C279 C281 1.415 . S
C280 C279 1.355 1_565 S
C280 C282 1.419 . S
C281 C276 1.425 1_545 S
C281 C278 1.409 . S
C281 C279 1.415 . S
C282 H272 0.930 . S
C282 C280 1.419 . S
C282 C283 1.362 . S
C283 H273 0.930 . S
C283 C276 1.409 . S
C283 C282 1.362 . S
H284 C290 0.930 . S
H285 C293 0.930 . S
H286 C294 0.930 . S
H287 C295 0.930 . S
H288 C298 0.930 . S
H289 C299 0.930 . S
C290 H284 0.930 . S
C290 C291 1.355 . S
C290 C292 1.415 . S
C291 C290 1.355 . S
C291 C293 1.419 1_655 S
C292 C290 1.415 . S
C292 C297 1.425 1_655 S
C292 C299 1.409 . S
C293 H285 0.930 . S
C293 C291 1.419 1_455 S
C293 C294 1.362 . S
C294 H286 0.930 . S
C294 C293 1.362 . S
C294 C297 1.409 . S
C295 H287 0.930 . S
C295 C296 1.355 . S
C295 C297 1.415 . S
C296 C295 1.355 . S
C296 C298 1.419 1_455 S
C297 C292 1.425 1_455 S
C297 C294 1.409 . S
C297 C295 1.415 . S
C298 H288 0.930 . S
C298 C296 1.419 1_655 S
C298 C299 1.362 . S
C299 H289 0.930 . S
C299 C292 1.409 . S
C299 C298 1.362 . S
H300 C306 0.930 . S
H301 C309 0.930 . S
H302 C310 0.930 . S
H303 C311 0.930 . S
H304 C314 0.930 . S
H305 C315 0.930 . S
C306 H300 0.930 . S
C306 C307 1.355 1_545 S
C306 C308 1.415 . S
C307 C306 1.355 1_565 S
C307 C309 1.419 . S
C308 C306 1.415 . S
C308 C313 1.425 1_545 S
C308 C315 1.409 . S
C309 H301 0.930 . S
C309 C307 1.419 . S
C309 C310 1.362 . S
C310 H302 0.930 . S
C310 C309 1.362 . S
C310 C313 1.409 . S
C311 H303 0.930 . S
C311 C312 1.355 1_565 S
C311 C313 1.415 . S
C312 C311 1.355 1_545 S
C312 C314 1.419 . S
C313 C308 1.425 1_565 S
C313 C310 1.409 . S
C313 C311 1.415 . S
C314 H304 0.930 . S
C314 C312 1.419 . S
C314 C315 1.362 . S
C315 H305 0.930 . S
C315 C308 1.409 . S
C315 C314 1.362 . S
H316 C322 0.930 . S
H317 C325 0.930 . S
H318 C326 0.930 . S
H319 C327 0.930 . S
H320 C330 0.930 . S
H321 C331 0.930 . S
C322 H316 0.930 . S
C322 C323 1.355 1_554 S
C322 C324 1.415 . S
C323 C322 1.355 1_556 S
C323 C325 1.419 . S
C324 C322 1.415 . S
C324 C329 1.425 1_554 S
C324 C331 1.409 . S
C325 H317 0.930 . S
C325 C323 1.419 . S
C325 C326 1.362 . S
C326 H318 0.930 . S
C326 C325 1.362 . S
C326 C329 1.409 . S
C327 H319 0.930 . S
C327 C328 1.355 1_556 S
C327 C329 1.415 . S
C328 C327 1.355 1_554 S
C328 C330 1.419 . S
C329 C324 1.425 1_556 S
C329 C326 1.409 . S
C329 C327 1.415 . S
C330 H320 0.930 . S
C330 C328 1.419 . S
C330 C331 1.362 . S
C331 H321 0.930 . S
C331 C324 1.409 . S
C331 C330 1.362 . S
H332 C338 0.930 . S
H333 C341 0.930 . S
H334 C342 0.930 . S
H335 C343 0.930 . S
H336 C346 0.930 . S
H337 C347 0.930 . S
C338 H332 0.930 . S
C338 C339 1.355 1_556 S
C338 C340 1.415 . S
C339 C338 1.355 1_554 S
C339 C341 1.419 . S
C340 C338 1.415 . S
C340 C345 1.425 1_556 S
C340 C347 1.409 . S
C341 H333 0.930 . S
C341 C339 1.419 . S
C341 C342 1.362 . S
C342 H334 0.930 . S
C342 C341 1.362 . S
C342 C345 1.409 . S
C343 H335 0.930 . S
C343 C344 1.355 1_554 S
C343 C345 1.415 . S
C344 C343 1.355 1_556 S
C344 C346 1.419 . S
C345 C340 1.425 1_554 S
C345 C342 1.409 . S
C345 C343 1.415 . S
C346 H336 0.930 . S
C346 C344 1.419 . S
C346 C347 1.362 . S
C347 H337 0.930 . S
C347 C340 1.409 . S
C347 C346 1.362 . S
H348 C354 0.930 . S
H349 C357 0.930 . S
H350 C358 0.930 . S
H351 C359 0.930 . S
H352 C362 0.930 . S
H353 C363 0.930 . S
C354 H348 0.930 . S
C354 C355 1.355 1_554 S
C354 C356 1.415 . S
C355 C354 1.355 1_556 S
C355 C357 1.419 . S
C356 C354 1.415 . S
C356 C361 1.425 1_554 S
C356 C363 1.409 . S
C357 H349 0.930 . S
C357 C355 1.419 . S
C357 C358 1.362 . S
C358 H350 0.930 . S
C358 C357 1.362 . S
C358 C361 1.409 . S
C359 H351 0.930 . S
C359 C360 1.355 1_556 S
C359 C361 1.415 . S
C360 C359 1.355 1_554 S
C360 C362 1.419 . S
C361 C356 1.425 1_556 S
C361 C358 1.409 . S
C361 C359 1.415 . S
C362 H352 0.930 . S
C362 C360 1.419 . S
C362 C363 1.362 . S
C363 H353 0.930 . S
C363 C356 1.409 . S
C363 C362 1.362 . S
H364 C370 0.930 . S
H365 C373 0.930 . S
H366 C374 0.930 . S
H367 C375 0.930 . S
H368 C378 0.930 . S
H369 C379 0.930 . S
C370 H364 0.930 . S
C370 C371 1.355 1_556 S
C370 C372 1.415 . S
C371 C370 1.355 1_554 S
C371 C373 1.419 . S
C372 C370 1.415 . S
C372 C377 1.425 1_556 S
C372 C379 1.409 . S
C373 H365 0.930 . S
C373 C371 1.419 . S
C373 C374 1.362 . S
C374 H366 0.930 . S
C374 C373 1.362 . S
C374 C377 1.409 . S
C375 H367 0.930 . S
C375 C376 1.346 1_554 S
C375 C377 1.415 . S
C376 C375 1.346 1_556 S
C376 C378 1.431 . S
C377 C372 1.425 1_554 S
C377 C374 1.409 . S
C377 C375 1.415 . S
C378 H368 0.930 . S
C378 C376 1.431 . S
C378 C379 1.362 . S
C379 H369 0.930 . S
C379 C372 1.409 . S
C379 C378 1.362 . S
C200 C139 1.754 . S
C195 C15 1.751 1_655 S
C216 C146 1.325 1_565 S
C211 C68 1.327 1_545 S
C232 C141 1.754 1_655 S
C227 C8 1.751 . S
C248 C147 1.329 . S
C243 C61 1.329 1_565 S
C259 C1 1.745 1_455 S
C264 C140 1.752 1_655 S
C280 C149 1.329 1_565 S
C275 C54 1.328 . S
C291 C22 1.734 . S
C296 C138 1.746 . S
C307 C47 1.325 . S
C312 C148 1.331 . S
C323 C93 1.527 1_556 S
C328 C143 1.520 . S
C339 C114 1.513 . S
C344 C142 1.520 1_556 S
C360 C145 1.522 . S
C355 C100 1.519 . S
C376 C144 1.520 1_556 S
C371 C107 1.516 1_554 S
