# Generated by pormake.
# Topology zzz, (3,6)-cn, num edge types: 1
# Building blocks:
#     Node 0, Type 0, BuildingBlock: BETDIP_clean_linker_0, # of connection points: 3
#     Node 1, Type 0, BuildingBlock: BETDIP_clean_linker_0, # of connection points: 3
#     Node 2, Type 0, BuildingBlock: BETDIP_clean_linker_0, # of connection points: 3
#     Node 3, Type 0, BuildingBlock: BETDIP_clean_linker_0, # of connection points: 3
#     Node 4, Type 0, BuildingBlock: BETDIP_clean_linker_0, # of connection points: 3
#     Node 5, Type 0, BuildingBlock: BETDIP_clean_linker_0, # of connection points: 3
#     Node 6, Type 0, BuildingBlock: BETDIP_clean_linker_0, # of connection points: 3
#     Node 7, Type 0, BuildingBlock: BETDIP_clean_linker_0, # of connection points: 3
#     Node 8, Type 1, BuildingBlock: INOVEN_clean_sbu_0, # of connection points: 6
#     Node 9, Type 1, BuildingBlock: INOVEN_clean_sbu_0, # of connection points: 6
#     Node 10, Type 1, BuildingBlock: INOVEN_clean_sbu_0, # of connection points: 6
#     Node 11, Type 1, BuildingBlock: INOVEN_clean_sbu_0, # of connection points: 6
#     Edge 12, Type (0, 1), BuildingBlock: CIFDUS_clean_linker_0, # of connection points: 2
#     Edge 13, Type (0, 1), BuildingBlock: CIFDUS_clean_linker_0, # of connection points: 2
#     Edge 14, Type (0, 1), BuildingBlock: CIFDUS_clean_linker_0, # of connection points: 2
#     Edge 15, Type (0, 1), BuildingBlock: CIFDUS_clean_linker_0, # of connection points: 2
#     Edge 16, Type (0, 1), BuildingBlock: CIFDUS_clean_linker_0, # of connection points: 2
#     Edge 17, Type (0, 1), BuildingBlock: CIFDUS_clean_linker_0, # of connection points: 2
#     Edge 18, Type (0, 1), BuildingBlock: CIFDUS_clean_linker_0, # of connection points: 2
#     Edge 19, Type (0, 1), BuildingBlock: CIFDUS_clean_linker_0, # of connection points: 2
#     Edge 20, Type (0, 1), BuildingBlock: CIFDUS_clean_linker_0, # of connection points: 2
#     Edge 21, Type (0, 1), BuildingBlock: CIFDUS_clean_linker_0, # of connection points: 2
#     Edge 22, Type (0, 1), BuildingBlock: CIFDUS_clean_linker_0, # of connection points: 2
#     Edge 23, Type (0, 1), BuildingBlock: CIFDUS_clean_linker_0, # of connection points: 2
#     Edge 24, Type (0, 1), BuildingBlock: CIFDUS_clean_linker_0, # of connection points: 2
#     Edge 25, Type (0, 1), BuildingBlock: CIFDUS_clean_linker_0, # of connection points: 2
#     Edge 26, Type (0, 1), BuildingBlock: CIFDUS_clean_linker_0, # of connection points: 2
#     Edge 27, Type (0, 1), BuildingBlock: CIFDUS_clean_linker_0, # of connection points: 2
#     Edge 28, Type (0, 1), BuildingBlock: CIFDUS_clean_linker_0, # of connection points: 2
#     Edge 29, Type (0, 1), BuildingBlock: CIFDUS_clean_linker_0, # of connection points: 2
#     Edge 30, Type (0, 1), BuildingBlock: CIFDUS_clean_linker_0, # of connection points: 2
#     Edge 31, Type (0, 1), BuildingBlock: CIFDUS_clean_linker_0, # of connection points: 2
#     Edge 32, Type (0, 1), BuildingBlock: CIFDUS_clean_linker_0, # of connection points: 2
#     Edge 33, Type (0, 1), BuildingBlock: CIFDUS_clean_linker_0, # of connection points: 2
#     Edge 34, Type (0, 1), BuildingBlock: CIFDUS_clean_linker_0, # of connection points: 2
#     Edge 35, Type (0, 1), BuildingBlock: CIFDUS_clean_linker_0, # of connection points: 2
# Relax obj value: 0.295
# Max RMSD: 0.193
# Mean RMSD: 0.159
data_MOF--net-zzz--node1-INOVEN_clean_sbu_0--node2-BETDIP_clean_linker_0--edge1-CIFDUS_clean_linker_0
_symmetry_space_group_name_H-M    P1
_symmetry_Int_Tables_number       1
_symmetry_cell_setting            triclinic
loop_
_symmetry_equiv_pos_as_xyz
'x, y, z'
_cell_length_a     45.760894
_cell_length_b     45.735049
_cell_length_c     11.717262
_cell_angle_alpha  90.344385
_cell_angle_beta   89.751107
_cell_angle_gamma 89.805062
loop_
_atom_site_label
_atom_site_type_symbol
_atom_site_fract_x
_atom_site_fract_y
_atom_site_fract_z
_atom_type_partial_charge
H0 H 0.75394 0.54899 0.61252 0.0
H1 H 0.73649 0.52168 0.26472 0.0
H2 H 0.82419 0.52158 0.38911 0.0
H3 H 0.69939 0.57713 0.34415 0.0
C4 C 0.69226 0.55536 0.36776 0.0
C5 C 0.76171 0.54157 0.52988 0.0
C6 C 0.79249 0.53624 0.51229 0.0
C7 C 0.74114 0.53705 0.43791 0.0
C8 C 0.75164 0.52668 0.33296 0.0
C9 C 0.78115 0.52067 0.31783 0.0
C10 C 0.8012 0.52616 0.4049 0.0
N11 N 0.70988 0.53996 0.45021 0.0
H12 H 0.03412 0.75546 0.63178 0.0
H13 H 1.00864 0.72862 0.2919 0.0
H14 H 0.99849 0.81762 0.39497 0.0
H15 H 0.99557 0.67699 0.49056 0.0
C16 C 1.01512 0.68283 0.44324 0.0
C17 C 0.02425 0.76051 0.55044 0.0
C18 C 1.01465 0.78986 0.52779 0.0
C19 C 1.02053 0.73764 0.46635 0.0
C20 C 1.00924 0.74486 0.3595 0.0
C21 C 1.00173 0.77353 0.3347 0.0
C22 C 1.00334 0.79526 0.41912 0.0
N23 N 0.03093 0.70826 0.48212 0.0
H24 H 0.78158 0.05175 0.57071 0.0
H25 H 0.8016 0.99201 0.29707 0.0
H26 H 0.73179 0.97321 0.52238 0.0
H27 H 0.85235 0.99413 0.42428 0.0
C28 C 0.85124 1.01626 0.39108 0.0
C29 C 0.77771 0.03109 0.52802 0.0
C30 C 0.75207 1.01436 0.55432 0.0
C31 C 0.79834 1.01999 0.44534 0.0
C32 C 0.78918 0.997 0.37372 0.0
C33 C 0.76118 0.98524 0.38755 0.0
C34 C 0.74963 0.98735 0.49856 0.0
N35 N 0.82601 0.03359 0.42176 0.0
H36 H 0.4955 0.78875 0.58951 0.0
H37 H 0.54738 0.80677 0.29024 0.0
H38 H 0.55583 0.72442 0.45712 0.0
H39 H 0.55224 0.85545 0.45633 0.0
C40 C 0.53107 0.85676 0.41486 0.0
C41 C 0.51284 0.78253 0.53107 0.0
C42 C 0.52579 0.7538 0.5384 0.0
C43 C 0.52303 0.80314 0.44677 0.0
C44 C 0.54287 0.79321 0.36382 0.0
C45 C 0.55309 0.76448 0.3643 0.0
C46 C 0.54749 0.74668 0.45863 0.0
N47 N 0.51157 0.83244 0.43365 0.0
H48 H 0.28995 0.51774 0.92109 0.0
H49 H 0.3011 0.50305 0.28207 0.0
H50 H 0.21644 0.49531 0.1347 0.0
H51 H 0.32869 0.55388 0.20072 0.0
C52 C 0.34284 0.53553 0.1784 0.0
C53 C 0.28113 0.51077 1.00231 0.0
C54 C 0.25024 0.50525 0.01366 0.0
C55 C 0.30017 0.50828 0.09983 0.0
C56 C 0.28772 0.5021 0.20596 0.0
C57 C 0.2578 0.49854 0.21795 0.0
C58 C 0.23987 0.49731 0.12162 0.0
N59 N 0.33104 0.51466 0.09827 0.0
H60 H 0.02505 0.29213 0.90405 0.0
H61 H 0.02803 0.31243 0.26577 0.0
H62 H 0.03338 0.22363 0.15362 0.0
H63 H 0.98387 0.35051 0.14183 0.0
C64 C 1.00683 0.35628 0.13559 0.0
C65 C 0.02691 0.28505 0.99169 0.0
C66 C 0.02959 0.25434 0.01645 0.0
C67 C 0.02647 0.30646 0.08311 0.0
C68 C 0.02853 0.29686 0.19567 0.0
C69 C 0.03164 0.26744 0.21919 0.0
C70 C 0.03218 0.24661 0.13114 0.0
N71 N 0.02511 0.33755 0.06565 0.0
H72 H 0.25048 0.03745 0.89697 0.0
H73 H 0.23422 0.02985 0.26036 0.0
H74 H 0.32155 0.0253 0.13306 0.0
H75 H 0.19477 0.99699 0.15941 0.0
C76 C 0.18695 1.01834 0.13269 0.0
C77 C 0.2584 0.03421 0.9829 0.0
C78 C 0.28923 0.03066 1.0026 0.0
C79 C 0.23793 0.03282 0.0769 0.0
C80 C 0.24885 0.02975 0.18758 0.0
C81 C 0.27858 0.02754 0.20626 0.0
C82 C 0.29834 0.02724 0.11508 0.0
N83 N 0.20672 0.03565 0.06468 0.0
H84 H 0.48538 0.25702 0.93774 0.0
H85 H 0.5303 0.23309 0.24714 0.0
H86 H 0.5398 0.31919 0.11461 0.0
H87 H 0.53917 0.1878 0.10052 0.0
C88 C 0.51612 0.18653 0.12287 0.0
C89 C 0.50086 0.26218 1.00439 0.0
C90 C 0.51304 0.29118 0.01174 0.0
C91 C 0.50907 0.24004 0.08577 0.0
C92 C 0.52667 0.24819 0.1776 0.0
C93 C 0.53696 0.27648 0.18805 0.0
C94 C 0.53202 0.29698 0.10208 0.0
N95 N 0.49792 0.21056 0.08583 0.0
Gd96 Gd 0.04594 1.01649 0.85334 0.0
Gd97 Gd 0.99878 0.02871 0.67992 0.0
C98 C 1.01645 0.96017 0.72108 0.0
C99 C 0.06849 0.99825 0.03845 0.0
C100 C 0.06052 0.96983 0.08408 0.0
C101 C 0.08111 0.95171 0.13656 0.0
C102 C 0.03449 0.95792 0.04349 0.0
C103 C 0.05037 0.9094 0.09553 0.0
C104 C 0.02977 0.92815 0.04598 0.0
C105 C 0.07579 0.92163 0.14434 0.0
C106 C 0.07598 0.02981 0.66053 0.0
C107 C 0.02894 0.08517 0.80994 0.0
C108 C 0.97423 0.03996 0.48927 0.0
C109 C 0.98211 0.06548 0.42312 0.0
C110 C 0.96011 0.08301 0.37684 0.0
C111 C 1.00928 0.07769 0.44892 0.0
C112 C 0.98996 0.12614 0.41306 0.0
C113 C 1.01275 0.10765 0.44886 0.0
C114 C 0.96429 0.1132 0.36922 0.0
C115 C 0.97092 1.02011 0.88475 0.0
O116 O 0.03643 0.96948 0.79387 0.0
O117 O 0.99945 0.97911 0.66773 0.0
O118 O 0.08208 0.9961 0.94059 0.0
O119 O 0.04756 1.01798 0.0384 0.0
O120 O 0.087 0.02432 0.75929 0.0
O121 O 0.0479 0.02942 0.66738 0.0
O122 O 1.01172 0.07615 0.72536 0.0
O123 O 0.04307 0.06596 0.87462 0.0
O124 O 0.96266 0.04735 0.58759 0.0
O125 O 0.99466 1.01992 0.49832 0.0
O126 O 0.95787 0.02666 0.7908 0.0
O127 O 0.99818 1.01902 0.86393 0.0
H128 H 0.10174 0.9605 0.16579 0.0
H129 H 1.01906 0.9714 0.99826 0.0
H130 H 1.01051 0.91998 1.00331 0.0
H131 H 0.09192 0.908 0.18569 0.0
H132 H 0.93889 0.07387 0.35705 0.0
H133 H 0.02652 0.0646 0.48624 0.0
H134 H 0.03269 0.11576 0.48602 0.0
H135 H 0.94669 0.12625 0.33496 0.0
Gd136 Gd 0.51984 0.04587 0.84647 0.0
Gd137 Gd 0.51831 0.99467 0.67482 0.0
C138 C 0.58209 1.01995 0.73244 0.0
C139 C 0.53514 0.0734 0.02619 0.0
C140 C 0.56331 0.06693 0.07891 0.0
C141 C 0.58077 0.08891 0.12696 0.0
C142 C 0.57513 0.03895 0.06076 0.0
C143 C 0.62031 0.05395 0.14759 0.0
C144 C 0.60351 0.03275 0.09245 0.0
C145 C 0.60906 0.08223 0.16465 0.0
C146 C 0.51112 0.06929 0.6351 0.0
C147 C 0.45588 1.02095 0.78853 0.0
C148 C 0.50775 0.96954 0.48453 0.0
C149 C 0.48104 0.97672 0.42358 0.0
C150 C 0.46312 0.95428 0.38305 0.0
C151 C 0.46884 1.00419 0.44774 0.0
C152 C 0.42014 0.98482 0.41916 0.0
C153 C 0.43885 1.00785 0.45046 0.0
C154 C 0.4329 0.95855 0.37798 0.0
C155 C 0.52238 0.96942 0.88497 0.0
O156 O 0.5687 0.03829 0.80407 0.0
O157 O 0.56723 1.0005 0.67289 0.0
O158 O 0.53784 0.08478 0.92483 0.0
O159 O 0.51586 0.05219 0.02972 0.0
O160 O 0.51092 0.08424 0.72915 0.0
O161 O 0.51382 0.0424 0.66083 0.0
O162 O 0.46937 1.00327 0.71362 0.0
O163 O 0.4708 0.03929 0.85408 0.0
O164 O 0.50232 0.95702 0.58234 0.0
O165 O 0.52691 0.99074 0.49277 0.0
O166 O 0.52332 0.95572 0.78805 0.0
O167 O 0.52166 0.99706 0.86537 0.0
H168 H 0.57262 0.11099 0.13481 0.0
H169 H 0.56257 0.02184 0.01994 0.0
H170 H 0.6119 1.01077 0.07931 0.0
H171 H 0.6218 0.09874 0.20835 0.0
H172 H 0.47212 0.9328 0.36507 0.0
H173 H 0.48215 0.02188 0.48034 0.0
H174 H 0.43094 0.02831 0.48515 0.0
H175 H 0.41972 0.94065 0.3469 0.0
Gd176 Gd 0.491 0.52603 0.86274 0.0
Gd177 Gd 0.54241 0.52031 0.688 0.0
C178 C 0.51865 0.58605 0.74267 0.0
C179 C 0.46606 0.54133 0.04862 0.0
C180 C 0.47589 0.56794 0.10685 0.0
C181 C 0.4558 0.58901 0.14552 0.0
C182 C 0.50511 0.57594 0.0905 0.0
C183 C 0.49382 0.62632 0.13888 0.0
C184 C 0.51373 0.60475 0.10321 0.0
C185 C 0.46484 0.61791 0.16406 0.0
C186 C 0.46747 0.51663 0.65099 0.0
C187 C 0.51433 0.4599 0.80507 0.0
C188 C 0.56905 0.50881 0.50089 0.0
C189 C 0.56742 0.48044 0.44451 0.0
C190 C 0.59315 0.46682 0.40835 0.0
C191 C 0.54237 0.46365 0.46282 0.0
C192 C 0.57057 0.41889 0.43396 0.0
C193 C 0.54391 0.43338 0.45873 0.0
C194 C 0.59461 0.43644 0.40103 0.0
C195 C 0.56664 0.52894 0.89945 0.0
O196 O 0.50083 0.57433 0.81989 0.0
O197 O 0.53649 0.56955 0.68015 0.0
O198 O 0.45442 0.54672 0.94913 0.0
O199 O 0.48505 0.5197 0.04507 0.0
O200 O 0.45236 0.51884 0.74443 0.0
O201 O 0.49438 0.51834 0.67733 0.0
O202 O 0.53212 0.47213 0.72834 0.0
O203 O 0.49686 0.47628 0.87082 0.0
O204 O 0.58185 0.5072 0.60017 0.0
O205 O 0.54479 0.52417 0.50365 0.0
O206 O 0.58131 0.52607 0.80547 0.0
O207 O 0.53945 0.52748 0.87492 0.0
H208 H 0.4329 0.58361 0.15388 0.0
H209 H 0.52086 0.56047 0.05654 0.0
H210 H 0.53573 0.61025 0.07824 0.0
H211 H 0.44885 0.63373 0.19372 0.0
H212 H 0.61281 0.47948 0.39535 0.0
H213 H 0.52213 0.47374 0.49152 0.0
H214 H 0.52401 0.42217 0.47988 0.0
H215 H 0.61523 0.4274 0.37351 0.0
Gd216 Gd 1.01844 0.49751 0.85619 0.0
Gd217 Gd 0.02485 0.54988 0.68444 0.0
C218 C 0.95844 0.52661 0.7431 0.0
C219 C 1.00695 0.46903 0.03871 0.0
C220 C 0.97764 0.46319 0.08525 0.0
C221 C 0.96372 0.43654 0.05997 0.0
C222 C 0.96128 0.48614 0.13391 0.0
C223 C 0.91712 0.4577 0.11265 0.0
C224 C 0.93123 0.48349 0.14638 0.0
C225 C 0.93359 0.4337 0.07479 0.0
C226 C 0.0239 0.47522 0.63855 0.0
C227 C 0.08464 0.5183 0.79299 0.0
C228 C 0.03494 0.5781 0.50006 0.0
C229 C 0.06253 0.57781 0.43595 0.0
C230 C 0.08055 0.60261 0.44075 0.0
C231 C 0.07452 0.55091 0.40107 0.0
C232 C 0.12301 0.57191 0.40756 0.0
C233 C 0.1045 0.54804 0.38662 0.0
C234 C 0.11074 0.59964 0.42767 0.0
C235 C 0.02107 0.57244 0.90153 0.0
O236 O 0.97036 0.50737 0.81461 0.0
O237 O 0.97487 0.54523 0.68411 0.0
O238 O 1.0126 0.45611 0.94126 0.0
O239 O 1.01547 0.49636 0.0406 0.0
O240 O 0.0213 0.45959 0.72973 0.0
O241 O 0.0242 0.50191 0.6703 0.0
O242 O 0.07344 0.53658 0.71537 0.0
O243 O 0.06753 0.50244 0.86002 0.0
O244 O 0.03717 0.58996 0.60138 0.0
O245 O 1.01996 0.55369 0.50096 0.0
O246 O 0.02342 0.58786 0.80978 0.0
O247 O 1.02016 0.54564 0.87104 0.0
H248 H 0.97587 0.41843 0.02294 0.0
H249 H 0.97126 0.50686 0.1555 0.0
H250 H 0.91882 0.502 0.17895 0.0
H251 H 0.92301 0.41343 0.05085 0.0
H252 H 0.07168 0.62363 0.46677 0.0
H253 H 0.06123 0.5314 0.39512 0.0
H254 H 0.11329 0.52668 0.36505 0.0
H255 H 0.12447 0.61856 0.44147 0.0
H256 H 0.18868 0.03963 0.3501 0.0
H257 H 0.12844 1.02022 0.0801 0.0
H258 H 0.08715 0.02557 0.21635 0.0
H259 H 0.06877 0.02681 0.41823 0.0
H260 H 0.13102 0.04829 0.68157 0.0
H261 H 0.17002 0.05006 0.54257 0.0
C262 C 0.16651 0.03736 0.31937 0.0
C263 C 0.16191 0.03008 0.20374 0.0
C264 C 0.1429 0.03942 0.39799 0.0
C265 C 0.13281 0.02642 0.16766 0.0
C266 C 0.10919 0.02881 0.24567 0.0
C267 C 0.09065 0.03264 0.44482 0.0
C268 C 0.0965 0.03679 0.56253 0.0
C269 C 0.1139 0.03404 0.36241 0.0
C270 C 0.12539 0.04433 0.59312 0.0
C271 C 0.14808 0.04542 0.51315 0.0
H272 H 0.55311 0.15012 0.23161 0.0
H273 H 0.46164 0.17163 0.21601 0.0
H274 H 0.45137 0.13501 0.36433 0.0
H275 H 0.46934 0.09872 0.50939 0.0
H276 H 0.56068 0.07575 0.51194 0.0
H277 H 0.57008 0.11062 0.35896 0.0
C278 C 0.53077 0.1463 0.25835 0.0
C279 C 0.50821 0.16367 0.21099 0.0
C280 C 0.52505 0.12471 0.34195 0.0
C281 C 0.47953 0.15889 0.25019 0.0
C282 C 0.47368 0.13777 0.33513 0.0
C283 C 0.49108 0.1005 0.47307 0.0
C284 C 0.51416 0.08373 0.52068 0.0
C285 C 0.49631 0.12066 0.3827 0.0
C286 C 0.54234 0.08732 0.47491 0.0
C287 C 0.54777 0.10763 0.38781 0.0
H288 H 0.3783 0.48771 0.25038 0.0
H289 H 0.3721 0.5818 0.25543 0.0
H290 H 0.4127 0.58471 0.3879 0.0
H291 H 0.44637 0.5611 0.5222 0.0
H292 H 0.45291 0.46739 0.52814 0.0
H293 H 0.41701 0.46379 0.37293 0.0
C294 C 0.3864 0.50883 0.27777 0.0
C295 C 0.37186 0.53461 0.24086 0.0
C296 C 0.41008 0.51048 0.35764 0.0
C297 C 0.38259 0.5616 0.28095 0.0
C298 C 0.40589 0.56334 0.35783 0.0
C299 C 0.44081 0.5399 0.48658 0.0
C300 C 0.45322 0.51461 0.5354 0.0
C301 C 0.41942 0.53803 0.39919 0.0
C302 C 0.4446 0.48732 0.49052 0.0
C303 C 0.42363 0.48526 0.40231 0.0
H304 H 0.97349 0.39777 0.23999 0.0
H305 H 0.06308 0.36968 0.21076 0.0
H306 H 0.07718 0.40622 0.35541 0.0
H307 H 0.06279 0.44342 0.50512 0.0
H308 H 0.9738 0.47429 0.51639 0.0
H309 H 0.96094 0.44048 0.36188 0.0
C310 C 0.99631 0.4002 0.26234 0.0
C311 C 1.01715 0.3809 0.21273 0.0
C312 C 1.00437 0.42205 0.34276 0.0
C313 C 0.04649 0.38413 0.24581 0.0
C314 C 0.05454 0.4051 0.32919 0.0
C315 C 0.04085 0.4436 0.47056 0.0
C316 C 1.01944 0.46216 0.52158 0.0
C317 C 0.03358 0.42394 0.37995 0.0
C318 C 0.99094 0.46117 0.4774 0.0
C319 C 0.98346 0.44137 0.38991 0.0
H320 H 0.89916 0.98483 0.32882 0.0
H321 H 0.85494 0.06585 0.25551 0.0
H322 H 0.88986 0.0753 0.10019 0.0
H323 H 0.93047 0.05818 0.97306 0.0
H324 H 0.97296 0.9763 0.04473 0.0
H325 H 0.94196 0.9698 0.2124 0.0
C326 C 0.89731 1.00477 0.2797 0.0
C327 C 0.87409 0.02448 0.30385 0.0
C328 C 0.91743 1.00992 0.18976 0.0
C329 C 0.87229 0.05021 0.23923 0.0
C330 C 0.89232 0.05555 0.14989 0.0
C331 C 0.93339 0.03922 0.02695 0.0
C332 C 0.95514 1.01827 0.99758 0.0
C333 C 0.91462 0.03526 0.12258 0.0
C334 C 0.95795 0.99358 0.06748 0.0
C335 C 0.93957 0.98955 0.16261 0.0
H336 H 0.49301 0.8659 0.22803 0.0
H337 H 0.5602 0.90769 0.42609 0.0
H338 H 0.5618 0.94832 0.29234 0.0
H339 H 0.54849 0.97001 0.10378 0.0
H340 H 0.48125 0.92811 0.90613 0.0
H341 H 0.47535 0.89083 0.05199 0.0
C342 C 0.50754 0.88415 0.24339 0.0
C343 C 0.52656 0.88323 0.33833 0.0
C344 C 0.5087 0.90785 0.16393 0.0
C345 C 0.54536 0.90735 0.35432 0.0
C346 C 0.54641 0.93079 0.27704 0.0
C347 C 0.53189 0.95334 0.09421 0.0
C348 C 0.51519 0.95246 0.99268 0.0
C349 C 0.52878 0.93111 0.1793 0.0
C350 C 0.49437 0.92984 0.98265 0.0
C351 C 0.49105 0.90814 0.06631 0.0
H352 H 0.6472 0.58642 0.27735 0.0
H353 H 0.67794 0.49784 0.31067 0.0
H354 H 0.63968 0.48116 0.17847 0.0
H355 H 0.60027 0.49277 0.03584 0.0
H356 H 0.57132 0.58173 1.00215 0.0
H357 H 0.60476 0.59702 0.15345 0.0
C358 C 0.64518 0.5633 0.25787 0.0
C359 C 0.66573 0.54351 0.30504 0.0
C360 C 0.6229 0.55388 0.18176 0.0
C361 C 0.66258 0.51368 0.27747 0.0
C362 C 0.64069 0.50417 0.20062 0.0
C363 C 0.60048 0.51532 0.06482 0.0
C364 C 0.58159 0.53587 0.01134 0.0
C365 C 0.62099 0.52413 0.15017 0.0
C366 C 0.58366 0.56518 0.04663 0.0
C367 C 0.60354 0.57401 0.13146 0.0
H368 H 0.99656 0.62726 0.39589 0.0
H369 H 0.05193 0.69497 0.26115 0.0
H370 H 0.05928 0.66613 0.08614 0.0
H371 H 0.04713 0.62326 0.96482 0.0
H372 H 0.99486 0.55365 0.10267 0.0
H373 H 0.98968 0.5811 0.28314 0.0
C374 C 1.0106 0.63557 0.32883 0.0
C375 C 0.02338 0.66367 0.34214 0.0
C376 C 1.01526 0.61839 0.22865 0.0
C377 C 0.04169 0.67373 0.25426 0.0
C378 C 0.04583 0.65716 0.15362 0.0
C379 C 0.03489 0.61381 0.03486 0.0
C380 C 0.02124 0.58624 0.01901 0.0
C381 C 0.03231 0.62971 0.13886 0.0
C382 C 1.00573 0.5745 0.1117 0.0
C383 C 1.0026 0.59043 0.21485 0.0
H384 H 0.98397 0.26055 0.34802 0.0
H385 H 0.07715 0.24848 0.34659 0.0
H386 H 0.07162 0.20023 0.43019 0.0
H387 H 0.04058 0.15813 0.42593 0.0
H388 H 0.94634 0.16827 0.43013 0.0
H389 H 0.95208 0.2208 0.41282 0.0
C390 C 1.00302 0.24804 0.37373 0.0
C391 C 0.03074 0.25673 0.33609 0.0
C392 C 0.99938 0.2194 0.41179 0.0
C393 C 0.05554 0.24145 0.37259 0.0
C394 C 0.05229 0.21352 0.41689 0.0
C395 C 0.02093 0.17125 0.42939 0.0
C396 C 0.99299 0.15847 0.42392 0.0
C397 C 0.02425 0.20143 0.42474 0.0
C398 C 0.96827 0.17696 0.42667 0.0
C399 C 0.97144 0.20721 0.41969 0.0
H400 H 0.28702 0.97946 0.33163 0.0
H401 H 0.29871 0.07271 0.33081 0.0
H402 H 0.34612 0.0674 0.42176 0.0
H403 H 0.38818 0.03602 0.42877 0.0
H404 H 0.3777 0.94188 0.43934 0.0
H405 H 0.32555 0.94789 0.41086 0.0
C406 C 0.29918 0.99859 0.35897 0.0
C407 C 0.29054 0.02625 0.32114 0.0
C408 C 0.32715 0.99513 0.4043 0.0
C409 C 0.30558 0.05117 0.35818 0.0
C410 C 0.333 0.04804 0.40722 0.0
C411 C 0.37502 1.01648 0.43072 0.0
C412 C 0.38779 0.98837 0.42905 0.0
C413 C 0.34495 1.01999 0.41943 0.0
C414 C 0.36917 0.96385 0.43181 0.0
C415 C 0.33909 0.9672 0.41827 0.0
H416 H 0.58993 0.2927 0.26689 0.0
H417 H 0.49873 0.28765 0.35524 0.0
H418 H 0.50252 0.33194 0.46999 0.0
H419 H 0.52794 0.37746 0.49146 0.0
H420 H 0.62002 0.38278 0.40486 0.0
H421 H 0.6198 0.33223 0.34963 0.0
C422 C 0.57151 0.30035 0.31762 0.0
C423 C 0.54401 0.28797 0.30085 0.0
C424 C 0.5736 0.32642 0.37965 0.0
C425 C 0.52011 0.29734 0.36724 0.0
C426 C 0.52214 0.32299 0.43087 0.0
C427 C 0.54819 0.36847 0.45945 0.0
C428 C 0.57289 0.38607 0.43721 0.0
C429 C 0.54818 0.33898 0.42831 0.0
C430 C 0.5994 0.37159 0.41002 0.0
C431 C 0.59967 0.34208 0.38049 0.0
H432 H 0.25161 0.55403 0.26591 0.0
H433 H 0.2311 0.46823 0.39132 0.0
H434 H 0.18935 0.48837 0.49833 0.0
H435 H 0.15167 0.52642 0.50273 0.0
H436 H 0.16588 0.60707 0.32108 0.0
H437 H 0.21682 0.59359 0.28913 0.0
C438 C 0.23869 0.54013 0.32147 0.0
C439 C 0.24389 0.5099 0.32148 0.0
C440 C 0.21278 0.551 0.36782 0.0
C441 C 0.22724 0.49161 0.39128 0.0
C442 C 0.20314 0.50307 0.45006 0.0
C443 C 0.16604 0.54113 0.45693 0.0
C444 C 0.15489 0.56719 0.41059 0.0
C445 C 0.19441 0.5321 0.43026 0.0
C446 C 0.17389 0.58675 0.35634 0.0
C447 C 0.20297 0.57897 0.3376 0.0
H448 H 0.04683 0.77581 0.19102 0.0
H449 H 0.95522 0.79599 0.21888 0.0
H450 H 0.9631 0.84266 0.12455 0.0
H451 H 0.99759 0.88218 0.10486 0.0
H452 H 0.09038 0.86418 0.08607 0.0
H453 H 0.08075 0.81237 0.11586 0.0
C454 C 0.02839 0.78968 0.16937 0.0
C455 C 1.0008 0.78361 0.21639 0.0
C456 C 0.03373 0.81762 0.12642 0.0
C457 C 0.97676 0.80082 0.18534 0.0
C458 C 0.98148 0.82791 0.13496 0.0
C459 C 1.01587 0.8671 0.1016 0.0
C460 C 0.0448 0.87744 0.09632 0.0
C461 C 1.01019 0.83745 0.11623 0.0
C462 C 0.06795 0.85711 0.09506 0.0
C463 C 0.06245 0.82738 0.10989 0.0
H464 H 0.70336 0.96856 0.3818 0.0
H465 H 0.76814 1.01055 0.16978 0.0
H466 H 0.72945 0.03784 0.07535 0.0
H467 H 0.67739 0.05577 0.07605 0.0
H468 H 0.62009 0.02664 0.34543 0.0
H469 H 0.65706 0.99231 0.41041 0.0
C470 C 0.70974 0.98441 0.31831 0.0
C471 C 0.7394 0.98912 0.29273 0.0
C472 C 0.68881 1.00429 0.2813 0.0
C473 C 0.74588 1.00705 0.19773 0.0
C474 C 0.7238 0.02348 0.14524 0.0
C475 C 0.67362 0.04262 0.15142 0.0
C476 C 0.64626 0.04339 0.20639 0.0
C477 C 0.69548 0.02369 0.19171 0.0
C478 C 0.64122 0.0263 0.3032 0.0
C479 C 0.66198 1.00623 0.33833 0.0
H480 H 0.51323 0.76103 0.20019 0.0
H481 H 0.59911 0.73043 0.29016 0.0
H482 H 0.58741 0.68188 0.21617 0.0
H483 H 0.54854 0.6467 0.18736 0.0
H484 H 0.46135 0.67637 0.10336 0.0
H485 H 0.4771 0.72687 0.12605 0.0
C486 C 0.52999 0.74418 0.19726 0.0
C487 C 0.55647 0.74865 0.25539 0.0
C488 C 0.52198 0.7158 0.16581 0.0
C489 C 0.57838 0.72717 0.24776 0.0
C490 C 0.57127 0.69916 0.20931 0.0
C491 C 0.533 0.66393 0.16889 0.0
C492 C 0.50354 0.65734 0.14525 0.0
C493 C 0.54237 0.69286 0.178 0.0
C494 C 0.48388 0.6805 0.12573 0.0
C495 C 0.49301 0.70948 0.13624 0.0
H496 H 0.79317 0.46418 0.30546 0.0
H497 H 0.79541 0.54375 0.11192 0.0
H498 H 0.83671 0.52506 0.99957 0.0
H499 H 0.88045 0.49406 1.00557 0.0
H500 H 0.88296 0.41967 0.22929 0.0
H501 H 0.83177 0.42786 0.28175 0.0
C502 C 0.8018 0.47654 0.23406 0.0
C503 C 0.79198 0.50521 0.2168 0.0
C504 C 0.82723 0.46694 0.17936 0.0
C505 C 0.80293 0.52156 0.12563 0.0
C506 C 0.82687 0.5111 0.06345 0.0
C507 C 0.8693 0.47915 0.06274 0.0
C508 C 0.88513 0.45675 0.11591 0.0
C509 C 0.84062 0.48506 0.09697 0.0
C510 C 0.87091 0.43713 0.18844 0.0
C511 C 0.8418 0.44194 0.21871 0.0
H512 H 0.07003 0.21078 0.98767 0.0
H513 H 0.98551 0.23741 0.86655 0.0
H514 H 0.978 0.18831 0.78419 0.0
H515 H 0.99327 0.13493 0.76748 0.0
H516 H 0.07699 0.10975 0.90468 0.0
H517 H 0.08662 0.16017 0.95865 0.0
C518 C 0.05026 0.20626 0.94011 0.0
C519 C 0.02864 0.22855 0.93266 0.0
C520 C 0.04551 0.17742 0.89794 0.0
C521 C 1.00299 0.22148 0.87211 0.0
C522 C 0.99846 0.19296 0.82664 0.0
C523 C 1.01373 0.14048 0.80832 0.0
C524 C 0.03416 0.1177 0.83287 0.0
C525 C 1.01915 0.17026 0.8423 0.0
C526 C 0.06049 0.12603 0.88582 0.0
C527 C 0.06616 0.15518 0.91666 0.0
H528 H 0.32513 0.98642 0.92477 0.0
H529 H 0.31205 0.07936 0.90079 0.0
H530 H 0.36235 0.08514 0.83123 0.0
H531 H 0.41281 0.06435 0.8021 0.0
H532 H 0.42453 0.97093 0.81529 0.0
H533 H 0.37283 0.96488 0.8642 0.0
C534 C 0.33276 1.00783 0.89914 0.0
C535 C 0.31401 0.03236 0.91609 0.0
C536 C 0.3622 1.01103 0.86071 0.0
C537 C 0.32517 0.05994 0.88588 0.0
C538 C 0.35437 0.06331 0.84818 0.0
C539 C 0.40398 0.04263 0.81428 0.0
C540 C 0.42309 1.01811 0.80616 0.0
C541 C 0.37355 0.03916 0.83941 0.0
C542 C 0.41076 0.99021 0.82088 0.0
C543 C 0.38101 0.98673 0.84913 0.0
H544 H 0.54373 0.32273 0.84924 0.0
H545 H 0.46321 0.32329 0.04001 0.0
H546 H 0.45609 0.37512 0.99567 0.0
H547 H 0.47544 0.42246 0.91954 0.0
H548 H 0.55481 0.42083 0.71956 0.0
H549 H 0.55919 0.36823 0.74857 0.0
C550 C 0.52389 0.33377 0.87678 0.0
C551 C 0.50358 0.31822 0.94573 0.0
C552 C 0.52005 0.36411 0.85148 0.0
C553 C 0.47871 0.33382 0.98364 0.0
C554 C 0.47494 0.36389 0.96002 0.0
C555 C 0.49366 0.41069 0.88157 0.0
C556 C 0.51505 0.42655 0.81876 0.0
C557 C 0.4959 0.37966 0.89695 0.0
C558 C 0.53807 0.41005 0.76937 0.0
C559 C 0.54065 0.37961 0.78598 0.0
H560 H 0.2102 0.46768 0.91979 0.0
H561 H 0.23339 0.55866 0.92661 0.0
H562 H 0.18517 0.57156 0.8496 0.0
H563 H 0.13292 0.55725 0.80452 0.0
H564 H 0.11093 0.46565 0.80805 0.0
H565 H 0.16124 0.4531 0.85387 0.0
C566 C 0.20527 0.49028 0.89985 0.0
C567 C 0.22632 0.51197 0.92701 0.0
C568 C 0.17687 0.49764 0.85917 0.0
C569 C 0.21854 0.54122 0.90367 0.0
C570 C 0.19047 0.54868 0.86142 0.0
C571 C 0.13925 0.53452 0.81295 0.0
C572 C 0.11742 0.51247 0.80288 0.0
C573 C 0.16889 0.52718 0.84232 0.0
C574 C 0.12663 0.48323 0.81581 0.0
C575 C 0.15566 0.47593 0.8423 0.0
H576 H 0.97445 0.83308 0.56852 0.0
H577 H 0.06246 0.809 0.6572 0.0
H578 H 0.07053 0.85863 0.73417 0.0
H579 H 0.05422 0.91167 0.75318 0.0
H580 H 0.96728 0.93429 0.64137 0.0
H581 H 0.95776 0.88342 0.59477 0.0
C582 C 0.99544 0.83838 0.60585 0.0
C583 C 1.01782 0.81676 0.60522 0.0
C584 C 1.00047 0.86749 0.64321 0.0
C585 C 0.04458 0.82457 0.65628 0.0
C586 C 0.04936 0.85334 0.69876 0.0
C587 C 0.03315 0.90547 0.71907 0.0
C588 C 1.01166 0.9276 0.69976 0.0
C589 C 0.0278 0.87548 0.68885 0.0
C590 C 0.98452 0.91849 0.65599 0.0
C591 C 0.97892 0.8891 0.62954 0.0
H592 H 0.71753 0.98719 0.71535 0.0
H593 H 0.72173 0.06515 0.51205 0.0
H594 H 0.66996 0.07504 0.55256 0.0
H595 H 0.62125 0.05835 0.62857 0.0
H596 H 0.61753 0.97842 0.82056 0.0
H597 H 0.67052 0.97252 0.80157 0.0
C598 C 0.70745 1.00691 0.6827 0.0
C599 C 0.72426 0.02562 0.61181 0.0
C600 C 0.67712 1.01178 0.70249 0.0
C601 C 0.71014 0.05072 0.56937 0.0
C602 C 0.68013 0.05608 0.59085 0.0
C603 C 0.63214 0.03989 0.66768 0.0
C604 C 0.61511 1.01885 0.72669 0.0
C605 C 0.66305 0.03632 0.65458 0.0
C606 C 0.6298 0.99492 0.77503 0.0
C607 C 0.66025 0.99155 0.76414 0.0
H608 H 0.55796 0.71891 0.6814 0.0
H609 H 0.47143 0.72755 0.54331 0.0
H610 H 0.46047 0.67705 0.59953 0.0
H611 H 0.4777 0.62759 0.66784 0.0
H612 H 0.56583 0.61935 0.79169 0.0
H613 H 0.57371 0.67165 0.76233 0.0
C614 C 0.53624 0.71022 0.66748 0.0
C615 C 0.51538 0.72794 0.60996 0.0
C616 C 0.53057 0.68047 0.69544 0.0
C617 C 0.48773 0.71539 0.59026 0.0
C618 C 0.48166 0.68603 0.62056 0.0
C619 C 0.49849 0.63734 0.68995 0.0
C620 C 0.5212 0.61908 0.7324 0.0
C621 C 0.50319 0.66791 0.67004 0.0
C622 C 0.54801 0.63243 0.75877 0.0
C623 C 0.55252 0.66254 0.74197 0.0
H624 H 0.82628 0.49418 0.61538 0.0
H625 H 0.81804 0.58751 0.58512 0.0
H626 H 0.86832 0.59347 0.65392 0.0
H627 H 0.91762 0.57154 0.6995 0.0
H628 H 0.92407 0.47806 0.73836 0.0
H629 H 0.87252 0.47296 0.68932 0.0
C630 C 0.83495 0.51597 0.62859 0.0
C631 C 0.81749 0.5404 0.59676 0.0
C632 C 0.86441 0.51919 0.66638 0.0
C633 C 0.83007 0.56828 0.61137 0.0
C634 C 0.8593 0.57164 0.64877 0.0
C635 C 0.90774 0.55005 0.6983 0.0
C636 C 0.92551 0.52514 0.7217 0.0
C637 C 0.87721 0.5472 0.67253 0.0
C638 C 0.91158 0.49768 0.72095 0.0
C639 C 0.88182 0.49471 0.69262 0.0
loop_
_geom_bond_atom_site_label_1
_geom_bond_atom_site_label_2
_geom_bond_distance
_geom_bond_site_symmetry_2
_ccdc_geom_bond_type
H0 C5 0.930 . S
H1 C8 0.930 . S
H2 C10 0.930 . S
H3 C4 1.016 . S
C4 H3 1.016 . S
C4 N11 1.286 . S
C5 H0 0.930 . S
C5 C6 1.397 . S
C5 C7 1.361 . S
C6 C5 1.397 . S
C6 C10 1.390 . S
C7 C5 1.361 . S
C7 C8 1.393 . S
C7 N11 1.413 . S
C8 H1 0.930 . S
C8 C7 1.393 . S
C8 C9 1.399 . S
C9 C8 1.399 . S
C9 C10 1.381 . S
C10 H2 0.930 . S
C10 C6 1.390 . S
C10 C9 1.381 . S
N11 C4 1.286 . S
N11 C7 1.413 . S
H12 C17 0.930 . S
H13 C20 0.930 . S
H14 C22 0.930 . S
H15 C16 1.029 . S
C16 H15 1.029 . S
C16 N23 1.268 1_655 S
C17 H12 0.930 . S
C17 C18 1.397 . S
C17 C19 1.361 . S
C18 C17 1.397 . S
C18 C22 1.390 1_455 S
C19 C17 1.361 . S
C19 C20 1.393 . S
C19 N23 1.413 . S
C20 H13 0.930 . S
C20 C19 1.393 . S
C20 C21 1.402 . S
C21 C20 1.402 . S
C21 C22 1.379 1_455 S
C22 H14 0.930 . S
C22 C18 1.390 1_655 S
C22 C21 1.379 1_655 S
N23 C16 1.268 1_455 S
N23 C19 1.413 . S
H24 C29 0.930 . S
H25 C32 0.930 . S
H26 C34 0.930 . S
H27 C28 1.029 . S
C28 H27 1.029 . S
C28 N35 1.268 1_565 S
C29 H24 0.930 . S
C29 C30 1.397 . S
C29 C31 1.361 . S
C30 C29 1.397 . S
C30 C34 1.390 1_545 S
C31 C29 1.361 . S
C31 C32 1.393 . S
C31 N35 1.413 . S
C32 H25 0.930 . S
C32 C31 1.393 . S
C32 C33 1.402 . S
C33 C32 1.402 . S
C33 C34 1.379 1_545 S
C34 H26 0.930 . S
C34 C30 1.390 1_565 S
C34 C33 1.379 1_565 S
N35 C28 1.268 1_545 S
N35 C31 1.413 . S
H36 C41 0.930 . S
H37 C44 0.930 . S
H38 C46 0.930 . S
H39 C40 1.016 . S
C40 H39 1.016 . S
C40 N47 1.286 . S
C41 H36 0.930 . S
C41 C42 1.397 . S
C41 C43 1.361 . S
C42 C41 1.397 . S
C42 C46 1.390 . S
C43 C41 1.361 . S
C43 C44 1.393 . S
C43 N47 1.413 . S
C44 H37 0.930 . S
C44 C43 1.393 . S
C44 C45 1.399 . S
C45 C44 1.399 . S
C45 C46 1.381 . S
C46 H38 0.930 . S
C46 C42 1.390 . S
C46 C45 1.381 . S
N47 C40 1.286 . S
N47 C43 1.413 . S
H48 C53 0.930 . S
H49 C56 0.930 . S
H50 C58 0.930 . S
H51 C52 1.016 . S
C52 H51 1.016 . S
C52 N59 1.286 . S
C53 H48 0.930 . S
C53 C54 1.397 . S
C53 C55 1.361 1_556 S
C54 C53 1.397 . S
C54 C58 1.390 . S
C55 C53 1.361 1_554 S
C55 C56 1.393 . S
C55 N59 1.413 . S
C56 H49 0.930 . S
C56 C55 1.393 . S
C56 C57 1.399 . S
C57 C56 1.399 . S
C57 C58 1.381 1_554 S
C58 H50 0.930 . S
C58 C54 1.390 . S
C58 C57 1.381 1_556 S
N59 C52 1.286 . S
N59 C55 1.413 . S
H60 C65 0.930 . S
H61 C68 0.930 . S
H62 C70 0.930 . S
H63 C64 1.026 . S
C64 H63 1.026 . S
C64 N71 1.272 1_655 S
C65 H60 0.930 . S
C65 C66 1.397 . S
C65 C67 1.361 1_556 S
C66 C65 1.397 . S
C66 C70 1.390 1_455 S
C67 C65 1.361 1_554 S
C67 C68 1.393 . S
C67 N71 1.413 . S
C68 H61 0.930 . S
C68 C67 1.393 . S
C68 C69 1.404 . S
C69 C68 1.404 . S
C69 C70 1.378 1_454 S
C70 H62 0.930 . S
C70 C66 1.390 1_655 S
C70 C69 1.378 1_656 S
N71 C64 1.272 1_455 S
N71 C67 1.413 . S
H72 C77 0.930 . S
H73 C80 0.930 . S
H74 C82 0.930 . S
H75 C76 1.026 . S
C76 H75 1.026 . S
C76 N83 1.272 1_565 S
C77 H72 0.930 . S
C77 C78 1.397 . S
C77 C79 1.361 1_556 S
C78 C77 1.397 . S
C78 C82 1.390 1_545 S
C79 C77 1.361 1_554 S
C79 C80 1.393 . S
C79 N83 1.413 . S
C80 H73 0.930 . S
C80 C79 1.393 . S
C80 C81 1.404 . S
C81 C80 1.404 . S
C81 C82 1.378 1_544 S
C82 H74 0.930 . S
C82 C78 1.390 1_565 S
C82 C81 1.378 1_566 S
N83 C76 1.272 1_545 S
N83 C79 1.413 . S
H84 C89 0.930 . S
H85 C92 0.930 . S
H86 C94 0.930 . S
H87 C88 1.016 . S
C88 H87 1.016 . S
C88 N95 1.286 . S
C89 H84 0.930 . S
C89 C90 1.397 . S
C89 C91 1.361 1_556 S
C90 C89 1.397 . S
C90 C94 1.390 . S
C91 C89 1.361 1_554 S
C91 C92 1.393 . S
C91 N95 1.413 . S
C92 H85 0.930 . S
C92 C91 1.393 . S
C92 C93 1.399 . S
C93 C92 1.399 . S
C93 C94 1.381 1_554 S
C94 H86 0.930 . S
C94 C90 1.390 . S
C94 C93 1.381 1_556 S
N95 C88 1.286 . S
N95 C91 1.413 . S
Gd96 C99 2.818 1_556 S
Gd96 O116 2.377 . S
Gd96 O118 2.448 . S
Gd96 O119 2.506 1_556 S
Gd96 O120 2.435 . S
Gd96 O121 2.717 1_565 S
Gd96 O123 2.395 1_565 S
Gd96 O127 2.327 1_455 S
Gd97 C108 2.818 . S
Gd97 O117 2.395 1_545 S
Gd97 O121 2.327 1_655 S
Gd97 O122 2.377 . S
Gd97 O124 2.448 . S
Gd97 O125 2.506 . S
Gd97 O126 2.435 . S
Gd97 O127 2.717 1_545 S
C98 O116 1.240 1_655 S
C98 O117 1.240 . S
C99 Gd96 2.818 1_554 S
C99 C100 1.510 . S
C99 O118 1.249 1_554 S
C99 O119 1.252 . S
C100 C99 1.510 . S
C100 C101 1.404 . S
C100 C102 1.352 . S
C101 C100 1.404 . S
C101 C105 1.389 . S
C101 H128 0.930 . S
C102 C100 1.352 . S
C102 C104 1.374 . S
C102 H129 0.931 1_455 S
C103 C104 1.359 . S
C103 C105 1.364 . S
C104 C102 1.374 . S
C104 C103 1.359 . S
C104 H130 0.931 1_455 S
C105 C101 1.389 . S
C105 C103 1.364 . S
C105 H131 0.931 . S
C106 O120 1.256 . S
C106 O121 1.257 1_565 S
C107 O122 1.240 1_455 S
C107 O123 1.240 . S
C108 Gd97 2.818 . S
C108 C109 1.510 . S
C108 O124 1.249 . S
C108 O125 1.252 . S
C109 C108 1.510 . S
C109 C110 1.404 . S
C109 C111 1.352 . S
C110 C109 1.404 . S
C110 C114 1.389 . S
C110 H132 0.930 . S
C111 C109 1.352 . S
C111 C113 1.374 . S
C111 H133 0.931 1_655 S
C112 C113 1.359 . S
C112 C114 1.364 . S
C113 C111 1.374 . S
C113 C112 1.359 . S
C113 H134 0.931 1_655 S
C114 C110 1.389 . S
C114 C112 1.364 . S
C114 H135 0.931 . S
C115 O126 1.256 . S
C115 O127 1.257 1_545 S
O116 Gd96 2.377 . S
O116 C98 1.240 1_455 S
O117 Gd97 2.395 1_565 S
O117 C98 1.240 . S
O118 Gd96 2.448 . S
O118 C99 1.249 1_556 S
O119 Gd96 2.506 1_554 S
O119 C99 1.252 . S
O120 Gd96 2.435 . S
O120 C106 1.256 . S
O121 Gd96 2.717 1_545 S
O121 Gd97 2.327 1_455 S
O121 C106 1.257 1_545 S
O122 Gd97 2.377 . S
O122 C107 1.240 1_655 S
O123 Gd96 2.395 1_545 S
O123 C107 1.240 . S
O124 Gd97 2.448 . S
O124 C108 1.249 . S
O125 Gd97 2.506 . S
O125 C108 1.252 . S
O126 Gd97 2.435 . S
O126 C115 1.256 . S
O127 Gd96 2.327 1_655 S
O127 Gd97 2.717 1_565 S
O127 C115 1.257 1_565 S
H128 C101 0.930 . S
H129 C102 0.931 1_655 S
H130 C104 0.931 1_655 S
H131 C105 0.931 . S
H132 C110 0.930 . S
H133 C111 0.931 1_455 S
H134 C113 0.931 1_455 S
H135 C114 0.931 . S
Gd136 C139 2.818 1_556 S
Gd136 O156 2.377 . S
Gd136 O158 2.448 . S
Gd136 O159 2.506 1_556 S
Gd136 O160 2.435 . S
Gd136 O161 2.717 . S
Gd136 O163 2.395 . S
Gd136 O167 2.327 1_545 S
Gd137 C148 2.818 . S
Gd137 O157 2.395 . S
Gd137 O161 2.327 1_565 S
Gd137 O162 2.377 . S
Gd137 O164 2.448 . S
Gd137 O165 2.506 . S
Gd137 O166 2.435 . S
Gd137 O167 2.717 . S
C138 O156 1.240 1_565 S
C138 O157 1.240 . S
C139 Gd136 2.818 1_554 S
C139 C140 1.510 . S
C139 O158 1.249 1_554 S
C139 O159 1.252 . S
C140 C139 1.510 . S
C140 C141 1.404 . S
C140 C142 1.352 . S
C141 C140 1.404 . S
C141 C145 1.389 . S
C141 H168 0.930 . S
C142 C140 1.352 . S
C142 C144 1.374 . S
C142 H169 0.931 1_545 S
C143 C144 1.359 . S
C143 C145 1.364 . S
C144 C142 1.374 . S
C144 C143 1.359 . S
C144 H170 0.931 1_545 S
C145 C141 1.389 . S
C145 C143 1.364 . S
C145 H171 0.931 . S
C146 O160 1.256 . S
C146 O161 1.257 . S
C147 O162 1.240 1_545 S
C147 O163 1.240 . S
C148 Gd137 2.818 . S
C148 C149 1.510 . S
C148 O164 1.249 . S
C148 O165 1.252 . S
C149 C148 1.510 . S
C149 C150 1.404 . S
C149 C151 1.352 . S
C150 C149 1.404 . S
C150 C154 1.389 . S
C150 H172 0.930 . S
C151 C149 1.352 . S
C151 C153 1.374 . S
C151 H173 0.931 1_565 S
C152 C153 1.359 . S
C152 C154 1.364 . S
C153 C151 1.374 . S
C153 C152 1.359 . S
C153 H174 0.931 1_565 S
C154 C150 1.389 . S
C154 C152 1.364 . S
C154 H175 0.931 . S
C155 O166 1.256 . S
C155 O167 1.257 . S
O156 Gd136 2.377 . S
O156 C138 1.240 1_545 S
O157 Gd137 2.395 . S
O157 C138 1.240 . S
O158 Gd136 2.448 . S
O158 C139 1.249 1_556 S
O159 Gd136 2.506 1_554 S
O159 C139 1.252 . S
O160 Gd136 2.435 . S
O160 C146 1.256 . S
O161 Gd136 2.717 . S
O161 Gd137 2.327 1_545 S
O161 C146 1.257 . S
O162 Gd137 2.377 . S
O162 C147 1.240 1_565 S
O163 Gd136 2.395 . S
O163 C147 1.240 . S
O164 Gd137 2.448 . S
O164 C148 1.249 . S
O165 Gd137 2.506 . S
O165 C148 1.252 . S
O166 Gd137 2.435 . S
O166 C155 1.256 . S
O167 Gd136 2.327 1_565 S
O167 Gd137 2.717 . S
O167 C155 1.257 . S
H168 C141 0.930 . S
H169 C142 0.931 1_565 S
H170 C144 0.931 1_565 S
H171 C145 0.931 . S
H172 C150 0.930 . S
H173 C151 0.931 1_545 S
H174 C153 0.931 1_545 S
H175 C154 0.931 . S
Gd176 C179 2.818 1_556 S
Gd176 O196 2.377 . S
Gd176 O198 2.448 . S
Gd176 O199 2.506 1_556 S
Gd176 O200 2.435 . S
Gd176 O201 2.717 . S
Gd176 O203 2.395 . S
Gd176 O207 2.327 . S
Gd177 C188 2.818 . S
Gd177 O197 2.395 . S
Gd177 O201 2.327 . S
Gd177 O202 2.377 . S
Gd177 O204 2.448 . S
Gd177 O205 2.506 . S
Gd177 O206 2.435 . S
Gd177 O207 2.717 . S
C178 O196 1.240 . S
C178 O197 1.240 . S
C179 Gd176 2.818 1_554 S
C179 C180 1.510 . S
C179 O198 1.249 1_554 S
C179 O199 1.252 . S
C180 C179 1.510 . S
C180 C181 1.404 . S
C180 C182 1.352 . S
C181 C180 1.404 . S
C181 C185 1.389 . S
C181 H208 0.930 . S
C182 C180 1.352 . S
C182 C184 1.374 . S
C182 H209 0.931 . S
C183 C184 1.359 . S
C183 C185 1.364 . S
C184 C182 1.374 . S
C184 C183 1.359 . S
C184 H210 0.931 . S
C185 C181 1.389 . S
C185 C183 1.364 . S
C185 H211 0.931 . S
C186 O200 1.256 . S
C186 O201 1.257 . S
C187 O202 1.240 . S
C187 O203 1.240 . S
C188 Gd177 2.818 . S
C188 C189 1.510 . S
C188 O204 1.249 . S
C188 O205 1.252 . S
C189 C188 1.510 . S
C189 C190 1.404 . S
C189 C191 1.352 . S
C190 C189 1.404 . S
C190 C194 1.389 . S
C190 H212 0.930 . S
C191 C189 1.352 . S
C191 C193 1.374 . S
C191 H213 0.931 . S
C192 C193 1.359 . S
C192 C194 1.364 . S
C193 C191 1.374 . S
C193 C192 1.359 . S
C193 H214 0.931 . S
C194 C190 1.389 . S
C194 C192 1.364 . S
C194 H215 0.931 . S
C195 O206 1.256 . S
C195 O207 1.257 . S
O196 Gd176 2.377 . S
O196 C178 1.240 . S
O197 Gd177 2.395 . S
O197 C178 1.240 . S
O198 Gd176 2.448 . S
O198 C179 1.249 1_556 S
O199 Gd176 2.506 1_554 S
O199 C179 1.252 . S
O200 Gd176 2.435 . S
O200 C186 1.256 . S
O201 Gd176 2.717 . S
O201 Gd177 2.327 . S
O201 C186 1.257 . S
O202 Gd177 2.377 . S
O202 C187 1.240 . S
O203 Gd176 2.395 . S
O203 C187 1.240 . S
O204 Gd177 2.448 . S
O204 C188 1.249 . S
O205 Gd177 2.506 . S
O205 C188 1.252 . S
O206 Gd177 2.435 . S
O206 C195 1.256 . S
O207 Gd176 2.327 . S
O207 Gd177 2.717 . S
O207 C195 1.257 . S
H208 C181 0.930 . S
H209 C182 0.931 . S
H210 C184 0.931 . S
H211 C185 0.931 . S
H212 C190 0.930 . S
H213 C191 0.931 . S
H214 C193 0.931 . S
H215 C194 0.931 . S
Gd216 C219 2.818 1_556 S
Gd216 O236 2.377 . S
Gd216 O238 2.448 . S
Gd216 O239 2.506 1_556 S
Gd216 O240 2.435 . S
Gd216 O241 2.717 1_655 S
Gd216 O243 2.395 1_655 S
Gd216 O247 2.327 . S
Gd217 C228 2.818 . S
Gd217 O237 2.395 1_455 S
Gd217 O241 2.327 . S
Gd217 O242 2.377 . S
Gd217 O244 2.448 . S
Gd217 O245 2.506 . S
Gd217 O246 2.435 . S
Gd217 O247 2.717 1_455 S
C218 O236 1.240 . S
C218 O237 1.240 . S
C219 Gd216 2.818 1_554 S
C219 C220 1.510 . S
C219 O238 1.249 1_554 S
C219 O239 1.252 . S
C220 C219 1.510 . S
C220 C221 1.404 . S
C220 C222 1.352 . S
C221 C220 1.404 . S
C221 C225 1.389 . S
C221 H248 0.930 . S
C222 C220 1.352 . S
C222 C224 1.374 . S
C222 H249 0.931 . S
C223 C224 1.359 . S
C223 C225 1.364 . S
C224 C222 1.374 . S
C224 C223 1.359 . S
C224 H250 0.931 . S
C225 C221 1.389 . S
C225 C223 1.364 . S
C225 H251 0.931 . S
C226 O240 1.276 . S
C226 O241 1.247 1_655 S
C227 O242 1.240 . S
C227 O243 1.240 . S
C228 Gd217 2.818 . S
C228 C229 1.510 . S
C228 O244 1.249 . S
C228 O245 1.252 . S
C229 C228 1.510 . S
C229 C230 1.404 . S
C229 C231 1.352 . S
C230 C229 1.404 . S
C230 C234 1.389 . S
C230 H252 0.930 . S
C231 C229 1.352 . S
C231 C233 1.374 . S
C231 H253 0.931 . S
C232 C233 1.359 . S
C232 C234 1.364 . S
C233 C231 1.374 . S
C233 C232 1.359 . S
C233 H254 0.931 . S
C234 C230 1.389 . S
C234 C232 1.364 . S
C234 H255 0.931 . S
C235 O246 1.256 . S
C235 O247 1.257 1_455 S
O236 Gd216 2.377 . S
O236 C218 1.240 . S
O237 Gd217 2.395 1_655 S
O237 C218 1.240 . S
O238 Gd216 2.448 . S
O238 C219 1.249 1_556 S
O239 Gd216 2.506 1_554 S
O239 C219 1.252 . S
O240 Gd216 2.435 . S
O240 C226 1.276 . S
O241 Gd216 2.717 1_455 S
O241 Gd217 2.327 . S
O241 C226 1.247 1_455 S
O242 Gd217 2.377 . S
O242 C227 1.240 . S
O243 Gd216 2.395 1_455 S
O243 C227 1.240 . S
O244 Gd217 2.448 . S
O244 C228 1.249 . S
O245 Gd217 2.506 . S
O245 C228 1.252 . S
O246 Gd217 2.435 . S
O246 C235 1.256 . S
O247 Gd216 2.327 . S
O247 Gd217 2.717 1_655 S
O247 C235 1.257 1_655 S
H248 C221 0.930 . S
H249 C222 0.931 . S
H250 C224 0.931 . S
H251 C225 0.931 . S
H252 C230 0.930 . S
H253 C231 0.931 . S
H254 C233 0.931 . S
H255 C234 0.931 . S
H256 C262 0.930 . S
H257 C265 0.930 . S
H258 C266 0.930 . S
H259 C267 0.930 . S
H260 C270 0.930 . S
H261 C271 0.930 . S
C262 H256 0.930 . S
C262 C263 1.355 1_545 S
C262 C264 1.415 . S
C263 C262 1.355 1_565 S
C263 C265 1.419 . S
C264 C262 1.415 . S
C264 C269 1.425 1_545 S
C264 C271 1.409 . S
C265 H257 0.930 . S
C265 C263 1.419 . S
C265 C266 1.362 . S
C266 H258 0.930 . S
C266 C265 1.362 . S
C266 C269 1.409 . S
C267 H259 0.930 . S
C267 C268 1.355 1_565 S
C267 C269 1.415 . S
C268 C267 1.355 1_545 S
C268 C270 1.419 . S
C269 C264 1.425 1_565 S
C269 C266 1.409 . S
C269 C267 1.415 . S
C270 H260 0.930 . S
C270 C268 1.419 . S
C270 C271 1.362 . S
C271 H261 0.930 . S
C271 C264 1.409 . S
C271 C270 1.362 . S
H272 C278 0.930 . S
H273 C281 0.930 . S
H274 C282 0.930 . S
H275 C283 0.930 . S
H276 C286 0.930 . S
H277 C287 0.930 . S
C278 H272 0.930 . S
C278 C279 1.355 . S
C278 C280 1.415 . S
C279 C278 1.355 . S
C279 C281 1.419 . S
C280 C278 1.415 . S
C280 C285 1.425 . S
C280 C287 1.409 . S
C281 H273 0.930 . S
C281 C279 1.419 . S
C281 C282 1.362 . S
C282 H274 0.930 . S
C282 C281 1.362 . S
C282 C285 1.409 . S
C283 H275 0.930 . S
C283 C284 1.355 . S
C283 C285 1.415 . S
C284 C283 1.355 . S
C284 C286 1.419 . S
C285 C280 1.425 . S
C285 C282 1.409 . S
C285 C283 1.415 . S
C286 H276 0.930 . S
C286 C284 1.419 . S
C286 C287 1.362 . S
C287 H277 0.930 . S
C287 C280 1.409 . S
C287 C286 1.362 . S
H288 C294 0.930 . S
H289 C297 0.930 . S
H290 C298 0.930 . S
H291 C299 0.930 . S
H292 C302 0.930 . S
H293 C303 0.930 . S
C294 H288 0.930 . S
C294 C295 1.355 . S
C294 C296 1.415 . S
C295 C294 1.355 . S
C295 C297 1.419 . S
C296 C294 1.415 . S
C296 C301 1.425 . S
C296 C303 1.409 . S
C297 H289 0.930 . S
C297 C295 1.419 . S
C297 C298 1.362 . S
C298 H290 0.930 . S
C298 C297 1.362 . S
C298 C301 1.409 . S
C299 H291 0.930 . S
C299 C300 1.355 . S
C299 C301 1.415 . S
C300 C299 1.355 . S
C300 C302 1.419 . S
C301 C296 1.425 . S
C301 C298 1.409 . S
C301 C299 1.415 . S
C302 H292 0.930 . S
C302 C300 1.419 . S
C302 C303 1.362 . S
C303 H293 0.930 . S
C303 C296 1.409 . S
C303 C302 1.362 . S
H304 C310 0.930 . S
H305 C313 0.930 . S
H306 C314 0.930 . S
H307 C315 0.930 . S
H308 C318 0.930 . S
H309 C319 0.930 . S
C310 H304 0.930 . S
C310 C311 1.355 1_655 S
C310 C312 1.415 . S
C311 C310 1.355 1_455 S
C311 C313 1.419 . S
C312 C310 1.415 . S
C312 C317 1.425 1_655 S
C312 C319 1.409 . S
C313 H305 0.930 . S
C313 C311 1.419 . S
C313 C314 1.362 . S
C314 H306 0.930 . S
C314 C313 1.362 . S
C314 C317 1.409 . S
C315 H307 0.930 . S
C315 C316 1.333 1_455 S
C315 C317 1.415 . S
C316 C315 1.333 1_655 S
C316 C318 1.447 . S
C317 C312 1.425 1_455 S
C317 C314 1.409 . S
C317 C315 1.415 . S
C318 H308 0.930 . S
C318 C316 1.447 . S
C318 C319 1.362 . S
C319 H309 0.930 . S
C319 C312 1.409 . S
C319 C318 1.362 . S
H320 C326 0.930 . S
H321 C329 0.930 . S
H322 C330 0.930 . S
H323 C331 0.930 . S
H324 C334 0.930 1_556 S
H325 C335 0.930 . S
C326 H320 0.930 . S
C326 C327 1.355 1_565 S
C326 C328 1.415 . S
C327 C326 1.355 1_545 S
C327 C329 1.419 . S
C328 C326 1.415 . S
C328 C333 1.425 1_565 S
C328 C335 1.409 . S
C329 H321 0.930 . S
C329 C327 1.419 . S
C329 C330 1.362 . S
C330 H322 0.930 . S
C330 C329 1.362 . S
C330 C333 1.409 . S
C331 H323 0.930 . S
C331 C332 1.355 1_544 S
C331 C333 1.415 . S
C332 C331 1.355 1_566 S
C332 C334 1.419 1_556 S
C333 C328 1.425 1_545 S
C333 C330 1.409 . S
C333 C331 1.415 . S
C334 H324 0.930 1_554 S
C334 C332 1.419 1_554 S
C334 C335 1.362 . S
C335 H325 0.930 . S
C335 C328 1.409 . S
C335 C334 1.362 . S
H336 C342 0.930 . S
H337 C345 0.930 . S
H338 C346 0.930 . S
H339 C347 0.930 . S
H340 C350 0.930 . S
H341 C351 0.930 . S
C342 H336 0.930 . S
C342 C343 1.355 . S
C342 C344 1.415 . S
C343 C342 1.355 . S
C343 C345 1.419 . S
C344 C342 1.415 . S
C344 C349 1.425 . S
C344 C351 1.409 . S
C345 H337 0.930 . S
C345 C343 1.419 . S
C345 C346 1.362 . S
C346 H338 0.930 . S
C346 C345 1.362 . S
C346 C349 1.409 . S
C347 H339 0.930 . S
C347 C348 1.355 1_554 S
C347 C349 1.415 . S
C348 C347 1.355 1_556 S
C348 C350 1.419 . S
C349 C344 1.425 . S
C349 C346 1.409 . S
C349 C347 1.415 . S
C350 H340 0.930 . S
C350 C348 1.419 . S
C350 C351 1.362 1_556 S
C351 H341 0.930 . S
C351 C344 1.409 . S
C351 C350 1.362 1_554 S
H352 C358 0.930 . S
H353 C361 0.930 . S
H354 C362 0.930 . S
H355 C363 0.930 . S
H356 C366 0.930 . S
H357 C367 0.930 . S
C358 H352 0.930 . S
C358 C359 1.355 . S
C358 C360 1.415 . S
C359 C358 1.355 . S
C359 C361 1.419 . S
C360 C358 1.415 . S
C360 C365 1.425 . S
C360 C367 1.409 . S
C361 H353 0.930 . S
C361 C359 1.419 . S
C361 C362 1.362 . S
C362 H354 0.930 . S
C362 C361 1.362 . S
C362 C365 1.409 . S
C363 H355 0.930 . S
C363 C364 1.355 1_554 S
C363 C365 1.415 . S
C364 C363 1.355 1_556 S
C364 C366 1.419 . S
C365 C360 1.425 . S
C365 C362 1.409 . S
C365 C363 1.415 . S
C366 H356 0.930 . S
C366 C364 1.419 . S
C366 C367 1.362 1_556 S
C367 H357 0.930 . S
C367 C360 1.409 . S
C367 C366 1.362 1_554 S
H368 C374 0.930 . S
H369 C377 0.930 . S
H370 C378 0.930 . S
H371 C379 0.930 1_556 S
H372 C382 0.930 . S
H373 C383 0.930 . S
C374 H368 0.930 . S
C374 C375 1.355 1_655 S
C374 C376 1.415 . S
C375 C374 1.355 1_455 S
C375 C377 1.419 . S
C376 C374 1.415 . S
C376 C381 1.425 1_655 S
C376 C383 1.409 . S
C377 H369 0.930 . S
C377 C375 1.419 . S
C377 C378 1.362 . S
C378 H370 0.930 . S
C378 C377 1.362 . S
C378 C381 1.409 . S
C379 H371 0.930 1_554 S
C379 C380 1.355 1_454 S
C379 C381 1.415 . S
C380 C379 1.355 1_656 S
C380 C382 1.419 1_556 S
C381 C376 1.425 1_455 S
C381 C378 1.409 . S
C381 C379 1.415 . S
C382 H372 0.930 . S
C382 C380 1.419 1_554 S
C382 C383 1.362 . S
C383 H373 0.930 . S
C383 C376 1.409 . S
C383 C382 1.362 . S
H384 C390 0.930 . S
H385 C393 0.930 . S
H386 C394 0.930 . S
H387 C395 0.930 . S
H388 C398 0.930 . S
H389 C399 0.930 . S
C390 H384 0.930 . S
C390 C391 1.355 1_655 S
C390 C392 1.415 . S
C391 C390 1.355 1_455 S
C391 C393 1.419 . S
C392 C390 1.415 . S
C392 C397 1.425 . S
C392 C399 1.409 . S
C393 H385 0.930 . S
C393 C391 1.419 . S
C393 C394 1.362 . S
C394 H386 0.930 . S
C394 C393 1.362 . S
C394 C397 1.409 1_455 S
C395 H387 0.930 . S
C395 C396 1.355 . S
C395 C397 1.415 . S
C396 C395 1.355 . S
C396 C398 1.419 . S
C397 C392 1.425 . S
C397 C394 1.409 1_655 S
C397 C395 1.415 . S
C398 H388 0.930 . S
C398 C396 1.419 . S
C398 C399 1.362 . S
C399 H389 0.930 . S
C399 C392 1.409 . S
C399 C398 1.362 . S
H400 C406 0.930 . S
H401 C409 0.930 . S
H402 C410 0.930 . S
H403 C411 0.930 . S
H404 C414 0.930 . S
H405 C415 0.930 . S
C406 H400 0.930 . S
C406 C407 1.355 1_565 S
C406 C408 1.415 . S
C407 C406 1.355 1_545 S
C407 C409 1.419 . S
C408 C406 1.415 . S
C408 C413 1.425 . S
C408 C415 1.409 . S
C409 H401 0.930 . S
C409 C407 1.419 . S
C409 C410 1.362 . S
C410 H402 0.930 . S
C410 C409 1.362 . S
C410 C413 1.409 1_545 S
C411 H403 0.930 . S
C411 C412 1.355 . S
C411 C413 1.415 . S
C412 C411 1.355 . S
C412 C414 1.419 . S
C413 C408 1.425 . S
C413 C410 1.409 1_565 S
C413 C411 1.415 . S
C414 H404 0.930 . S
C414 C412 1.419 . S
C414 C415 1.362 . S
C415 H405 0.930 . S
C415 C408 1.409 . S
C415 C414 1.362 . S
H416 C422 0.930 . S
H417 C425 0.930 . S
H418 C426 0.930 . S
H419 C427 0.930 . S
H420 C430 0.930 . S
H421 C431 0.930 . S
C422 H416 0.930 . S
C422 C423 1.355 . S
C422 C424 1.415 . S
C423 C422 1.355 . S
C423 C425 1.419 . S
C424 C422 1.415 . S
C424 C429 1.425 . S
C424 C431 1.409 . S
C425 H417 0.930 . S
C425 C423 1.419 . S
C425 C426 1.362 . S
C426 H418 0.930 . S
C426 C425 1.362 . S
C426 C429 1.409 . S
C427 H419 0.930 . S
C427 C428 1.355 . S
C427 C429 1.415 . S
C428 C427 1.355 . S
C428 C430 1.419 . S
C429 C424 1.425 . S
C429 C426 1.409 . S
C429 C427 1.415 . S
C430 H420 0.930 . S
C430 C428 1.419 . S
C430 C431 1.362 . S
C431 H421 0.930 . S
C431 C424 1.409 . S
C431 C430 1.362 . S
H432 C438 0.930 . S
H433 C441 0.930 . S
H434 C442 0.930 . S
H435 C443 0.930 . S
H436 C446 0.930 . S
H437 C447 0.930 . S
C438 H432 0.930 . S
C438 C439 1.355 . S
C438 C440 1.415 . S
C439 C438 1.355 . S
C439 C441 1.419 . S
C440 C438 1.415 . S
C440 C445 1.425 . S
C440 C447 1.409 . S
C441 H433 0.930 . S
C441 C439 1.419 . S
C441 C442 1.362 . S
C442 H434 0.930 . S
C442 C441 1.362 . S
C442 C445 1.409 . S
C443 H435 0.930 . S
C443 C444 1.355 . S
C443 C445 1.415 . S
C444 C443 1.355 . S
C444 C446 1.419 . S
C445 C440 1.425 . S
C445 C442 1.409 . S
C445 C443 1.415 . S
C446 H436 0.930 . S
C446 C444 1.419 . S
C446 C447 1.362 . S
C447 H437 0.930 . S
C447 C440 1.409 . S
C447 C446 1.362 . S
H448 C454 0.930 . S
H449 C457 0.930 . S
H450 C458 0.930 . S
H451 C459 0.930 . S
H452 C462 0.930 . S
H453 C463 0.930 . S
C454 H448 0.930 . S
C454 C455 1.355 1_455 S
C454 C456 1.415 . S
C455 C454 1.355 1_655 S
C455 C457 1.419 . S
C456 C454 1.415 . S
C456 C461 1.425 . S
C456 C463 1.409 . S
C457 H449 0.930 . S
C457 C455 1.419 . S
C457 C458 1.362 . S
C458 H450 0.930 . S
C458 C457 1.362 . S
C458 C461 1.409 1_655 S
C459 H451 0.930 . S
C459 C460 1.355 . S
C459 C461 1.415 . S
C460 C459 1.355 . S
C460 C462 1.419 . S
C461 C456 1.425 . S
C461 C458 1.409 1_455 S
C461 C459 1.415 . S
C462 H452 0.930 . S
C462 C460 1.419 . S
C462 C463 1.362 . S
C463 H453 0.930 . S
C463 C456 1.409 . S
C463 C462 1.362 . S
H464 C470 0.930 . S
H465 C473 0.930 . S
H466 C474 0.930 . S
H467 C475 0.930 . S
H468 C478 0.930 . S
H469 C479 0.930 . S
C470 H464 0.930 . S
C470 C471 1.355 . S
C470 C472 1.415 1_565 S
C471 C470 1.355 . S
C471 C473 1.419 1_565 S
C472 C470 1.415 1_545 S
C472 C477 1.425 . S
C472 C479 1.409 . S
C473 H465 0.930 . S
C473 C471 1.419 1_545 S
C473 C474 1.362 . S
C474 H466 0.930 . S
C474 C473 1.362 . S
C474 C477 1.409 . S
C475 H467 0.930 . S
C475 C476 1.355 . S
C475 C477 1.415 . S
C476 C475 1.355 . S
C476 C478 1.419 . S
C477 C472 1.425 . S
C477 C474 1.409 . S
C477 C475 1.415 . S
C478 H468 0.930 . S
C478 C476 1.419 . S
C478 C479 1.362 . S
C479 H469 0.930 . S
C479 C472 1.409 . S
C479 C478 1.362 . S
H480 C486 0.930 . S
H481 C489 0.930 . S
H482 C490 0.930 . S
H483 C491 0.930 . S
H484 C494 0.930 . S
H485 C495 0.930 . S
C486 H480 0.930 . S
C486 C487 1.355 . S
C486 C488 1.415 . S
C487 C486 1.355 . S
C487 C489 1.419 . S
C488 C486 1.415 . S
C488 C493 1.425 . S
C488 C495 1.409 . S
C489 H481 0.930 . S
C489 C487 1.419 . S
C489 C490 1.362 . S
C490 H482 0.930 . S
C490 C489 1.362 . S
C490 C493 1.409 . S
C491 H483 0.930 . S
C491 C492 1.355 . S
C491 C493 1.415 . S
C492 C491 1.355 . S
C492 C494 1.419 . S
C493 C488 1.425 . S
C493 C490 1.409 . S
C493 C491 1.415 . S
C494 H484 0.930 . S
C494 C492 1.419 . S
C494 C495 1.362 . S
C495 H485 0.930 . S
C495 C488 1.409 . S
C495 C494 1.362 . S
H496 C502 0.930 . S
H497 C505 0.930 . S
H498 C506 0.930 . S
H499 C507 0.930 . S
H500 C510 0.930 . S
H501 C511 0.930 . S
C502 H496 0.930 . S
C502 C503 1.355 . S
C502 C504 1.415 . S
C503 C502 1.355 . S
C503 C505 1.419 . S
C504 C502 1.415 . S
C504 C509 1.425 . S
C504 C511 1.409 . S
C505 H497 0.930 . S
C505 C503 1.419 . S
C505 C506 1.362 . S
C506 H498 0.930 . S
C506 C505 1.362 . S
C506 C509 1.409 . S
C507 H499 0.930 . S
C507 C508 1.355 . S
C507 C509 1.415 . S
C508 C507 1.355 . S
C508 C510 1.419 . S
C509 C504 1.425 . S
C509 C506 1.409 . S
C509 C507 1.415 . S
C510 H500 0.930 . S
C510 C508 1.419 . S
C510 C511 1.362 . S
C511 H501 0.930 . S
C511 C504 1.409 . S
C511 C510 1.362 . S
H512 C518 0.930 . S
H513 C521 0.930 . S
H514 C522 0.930 . S
H515 C523 0.930 . S
H516 C526 0.930 . S
H517 C527 0.930 . S
C518 H512 0.930 . S
C518 C519 1.359 . S
C518 C520 1.415 . S
C519 C518 1.359 . S
C519 C521 1.415 1_455 S
C520 C518 1.415 . S
C520 C525 1.425 1_455 S
C520 C527 1.409 . S
C521 H513 0.930 . S
C521 C519 1.415 1_655 S
C521 C522 1.362 . S
C522 H514 0.930 . S
C522 C521 1.362 . S
C522 C525 1.409 . S
C523 H515 0.930 . S
C523 C524 1.355 1_655 S
C523 C525 1.415 . S
C524 C523 1.355 1_455 S
C524 C526 1.419 . S
C525 C520 1.425 1_655 S
C525 C522 1.409 . S
C525 C523 1.415 . S
C526 H516 0.930 . S
C526 C524 1.419 . S
C526 C527 1.362 . S
C527 H517 0.930 . S
C527 C520 1.409 . S
C527 C526 1.362 . S
H528 C534 0.930 . S
H529 C537 0.930 . S
H530 C538 0.930 . S
H531 C539 0.930 . S
H532 C542 0.930 . S
H533 C543 0.930 . S
C534 H528 0.930 . S
C534 C535 1.355 1_565 S
C534 C536 1.415 . S
C535 C534 1.355 1_545 S
C535 C537 1.419 . S
C536 C534 1.415 . S
C536 C541 1.425 1_565 S
C536 C543 1.409 . S
C537 H529 0.930 . S
C537 C535 1.419 . S
C537 C538 1.362 . S
C538 H530 0.930 . S
C538 C537 1.362 . S
C538 C541 1.409 . S
C539 H531 0.930 . S
C539 C540 1.355 . S
C539 C541 1.415 . S
C540 C539 1.355 . S
C540 C542 1.419 1_545 S
C541 C536 1.425 1_545 S
C541 C538 1.409 . S
C541 C539 1.415 . S
C542 H532 0.930 . S
C542 C540 1.419 1_565 S
C542 C543 1.362 . S
C543 H533 0.930 . S
C543 C536 1.409 . S
C543 C542 1.362 . S
H544 C550 0.930 . S
H545 C553 0.930 1_554 S
H546 C554 0.930 1_554 S
H547 C555 0.930 . S
H548 C558 0.930 . S
H549 C559 0.930 . S
C550 H544 0.930 . S
C550 C551 1.355 . S
C550 C552 1.415 . S
C551 C550 1.355 . S
C551 C553 1.419 . S
C552 C550 1.415 . S
C552 C557 1.425 . S
C552 C559 1.409 . S
C553 H545 0.930 1_556 S
C553 C551 1.419 . S
C553 C554 1.362 . S
C554 H546 0.930 1_556 S
C554 C553 1.362 . S
C554 C557 1.409 . S
C555 H547 0.930 . S
C555 C556 1.355 . S
C555 C557 1.415 . S
C556 C555 1.355 . S
C556 C558 1.419 . S
C557 C552 1.425 . S
C557 C554 1.409 . S
C557 C555 1.415 . S
C558 H548 0.930 . S
C558 C556 1.419 . S
C558 C559 1.362 . S
C559 H549 0.930 . S
C559 C552 1.409 . S
C559 C558 1.362 . S
H560 C566 0.930 . S
H561 C569 0.930 . S
H562 C570 0.930 . S
H563 C571 0.930 . S
H564 C574 0.930 . S
H565 C575 0.930 . S
C566 H560 0.930 . S
C566 C567 1.355 . S
C566 C568 1.415 . S
C567 C566 1.355 . S
C567 C569 1.419 . S
C568 C566 1.415 . S
C568 C573 1.425 . S
C568 C575 1.409 . S
C569 H561 0.930 . S
C569 C567 1.419 . S
C569 C570 1.362 . S
C570 H562 0.930 . S
C570 C569 1.362 . S
C570 C573 1.409 . S
C571 H563 0.930 . S
C571 C572 1.355 . S
C571 C573 1.415 . S
C572 C571 1.355 . S
C572 C574 1.419 . S
C573 C568 1.425 . S
C573 C570 1.409 . S
C573 C571 1.415 . S
C574 H564 0.930 . S
C574 C572 1.419 . S
C574 C575 1.362 . S
C575 H565 0.930 . S
C575 C568 1.409 . S
C575 C574 1.362 . S
H576 C582 0.930 . S
H577 C585 0.930 . S
H578 C586 0.930 . S
H579 C587 0.930 . S
H580 C590 0.930 . S
H581 C591 0.930 . S
C582 H576 0.930 . S
C582 C583 1.362 . S
C582 C584 1.415 . S
C583 C582 1.362 . S
C583 C585 1.411 1_655 S
C584 C582 1.415 . S
C584 C589 1.425 1_655 S
C584 C591 1.409 . S
C585 H577 0.930 . S
C585 C583 1.411 1_455 S
C585 C586 1.362 . S
C586 H578 0.930 . S
C586 C585 1.362 . S
C586 C589 1.409 . S
C587 H579 0.930 . S
C587 C588 1.355 1_455 S
C587 C589 1.415 . S
C588 C587 1.355 1_655 S
C588 C590 1.419 . S
C589 C584 1.425 1_455 S
C589 C586 1.409 . S
C589 C587 1.415 . S
C590 H580 0.930 . S
C590 C588 1.419 . S
C590 C591 1.362 . S
C591 H581 0.930 . S
C591 C584 1.409 . S
C591 C590 1.362 . S
H592 C598 0.930 . S
H593 C601 0.930 . S
H594 C602 0.930 . S
H595 C603 0.930 . S
H596 C606 0.930 . S
H597 C607 0.930 . S
C598 H592 0.930 . S
C598 C599 1.355 . S
C598 C600 1.415 . S
C599 C598 1.355 . S
C599 C601 1.419 . S
C600 C598 1.415 . S
C600 C605 1.425 . S
C600 C607 1.409 . S
C601 H593 0.930 . S
C601 C599 1.419 . S
C601 C602 1.362 . S
C602 H594 0.930 . S
C602 C601 1.362 . S
C602 C605 1.409 . S
C603 H595 0.930 . S
C603 C604 1.355 . S
C603 C605 1.415 . S
C604 C603 1.355 . S
C604 C606 1.419 . S
C605 C600 1.425 . S
C605 C602 1.409 . S
C605 C603 1.415 . S
C606 H596 0.930 . S
C606 C604 1.419 . S
C606 C607 1.362 . S
C607 H597 0.930 . S
C607 C600 1.409 . S
C607 C606 1.362 . S
H608 C614 0.930 . S
H609 C617 0.930 . S
H610 C618 0.930 . S
H611 C619 0.930 . S
H612 C622 0.930 . S
H613 C623 0.930 . S
C614 H608 0.930 . S
C614 C615 1.355 . S
C614 C616 1.415 . S
C615 C614 1.355 . S
C615 C617 1.419 . S
C616 C614 1.415 . S
C616 C621 1.425 . S
C616 C623 1.409 . S
C617 H609 0.930 . S
C617 C615 1.419 . S
C617 C618 1.362 . S
C618 H610 0.930 . S
C618 C617 1.362 . S
C618 C621 1.409 . S
C619 H611 0.930 . S
C619 C620 1.355 . S
C619 C621 1.415 . S
C620 C619 1.355 . S
C620 C622 1.419 . S
C621 C616 1.425 . S
C621 C618 1.409 . S
C621 C619 1.415 . S
C622 H612 0.930 . S
C622 C620 1.419 . S
C622 C623 1.362 . S
C623 H613 0.930 . S
C623 C616 1.409 . S
C623 C622 1.362 . S
H624 C630 0.930 . S
H625 C633 0.930 . S
H626 C634 0.930 . S
H627 C635 0.930 . S
H628 C638 0.930 . S
H629 C639 0.930 . S
C630 H624 0.930 . S
C630 C631 1.355 . S
C630 C632 1.415 . S
C631 C630 1.355 . S
C631 C633 1.419 . S
C632 C630 1.415 . S
C632 C637 1.425 . S
C632 C639 1.409 . S
C633 H625 0.930 . S
C633 C631 1.419 . S
C633 C634 1.362 . S
C634 H626 0.930 . S
C634 C633 1.362 . S
C634 C637 1.409 . S
C635 H627 0.930 . S
C635 C636 1.355 . S
C635 C637 1.415 . S
C636 C635 1.355 . S
C636 C638 1.419 . S
C637 C632 1.425 . S
C637 C634 1.409 . S
C637 C635 1.415 . S
C638 H628 0.930 . S
C638 C636 1.419 . S
C638 C639 1.362 . S
C639 H629 0.930 . S
C639 C632 1.409 . S
C639 C638 1.362 . S
C263 C76 1.898 . S
C268 C106 2.066 1_545 S
C284 C146 2.054 . S
C279 C88 1.894 . S
C300 C186 2.076 . S
C295 C52 1.859 . S
C316 C226 2.051 . S
C311 C64 1.879 1_455 S
C332 C115 2.072 1_565 S
C327 C28 1.884 1_545 S
C343 C40 1.885 . S
C348 C155 2.054 . S
C359 C4 1.904 . S
C364 C195 2.072 . S
C375 C16 1.838 1_455 S
C380 C235 2.072 1_655 S
C396 C112 0.724 . S
C391 C69 0.706 . S
C412 C152 0.709 . S
C407 C81 0.642 . S
C428 C192 0.723 . S
C423 C93 0.662 . S
C439 C57 0.710 . S
C444 C232 0.681 . S
C455 C21 0.641 1_655 S
C460 C103 0.706 . S
C476 C143 0.638 . S
C471 C33 0.696 1_565 S
C492 C183 0.713 . S
C487 C45 0.659 . S
C503 C9 0.723 . S
C508 C223 0.692 . S
C519 C66 2.115 . S
C524 C107 2.400 . S
C535 C78 2.095 . S
C540 C147 2.368 . S
C556 C187 2.381 . S
C551 C90 2.056 . S
C572 C227 2.402 . S
C567 C54 2.102 . S
C583 C18 2.126 1_655 S
C588 C98 2.411 . S
C604 C138 2.376 . S
C599 C30 2.068 1_565 S
C620 C178 2.383 . S
C615 C42 2.066 . S
C631 C6 2.107 . S
C636 C218 2.375 . S
