# Generated by pormake.
# Topology pyr, (3,6)-cn, num edge types: 1
# Building blocks:
#     Node 0, Type 0, BuildingBlock: BELTOD_clean_linker_0, # of connection points: 3
#     Node 1, Type 0, BuildingBlock: BELTOD_clean_linker_0, # of connection points: 3
#     Node 2, Type 0, BuildingBlock: BELTOD_clean_linker_0, # of connection points: 3
#     Node 3, Type 0, BuildingBlock: BELTOD_clean_linker_0, # of connection points: 3
#     Node 4, Type 0, BuildingBlock: BELTOD_clean_linker_0, # of connection points: 3
#     Node 5, Type 0, BuildingBlock: BELTOD_clean_linker_0, # of connection points: 3
#     Node 6, Type 0, BuildingBlock: BELTOD_clean_linker_0, # of connection points: 3
#     Node 7, Type 0, BuildingBlock: BELTOD_clean_linker_0, # of connection points: 3
#     Node 8, Type 1, BuildingBlock: VOLQOD_clean_sbu_1, # of connection points: 6
#     Node 9, Type 1, BuildingBlock: VOLQOD_clean_sbu_1, # of connection points: 6
#     Node 10, Type 1, BuildingBlock: VOLQOD_clean_sbu_1, # of connection points: 6
#     Node 11, Type 1, BuildingBlock: VOLQOD_clean_sbu_1, # of connection points: 6
#     Edge 12, Type (0, 1), BuildingBlock: KIFKEQ_clean_linker_1, # of connection points: 2
#     Edge 13, Type (0, 1), BuildingBlock: KIFKEQ_clean_linker_1, # of connection points: 2
#     Edge 14, Type (0, 1), BuildingBlock: KIFKEQ_clean_linker_1, # of connection points: 2
#     Edge 15, Type (0, 1), BuildingBlock: KIFKEQ_clean_linker_1, # of connection points: 2
#     Edge 16, Type (0, 1), BuildingBlock: KIFKEQ_clean_linker_1, # of connection points: 2
#     Edge 17, Type (0, 1), BuildingBlock: KIFKEQ_clean_linker_1, # of connection points: 2
#     Edge 18, Type (0, 1), BuildingBlock: KIFKEQ_clean_linker_1, # of connection points: 2
#     Edge 19, Type (0, 1), BuildingBlock: KIFKEQ_clean_linker_1, # of connection points: 2
#     Edge 20, Type (0, 1), BuildingBlock: KIFKEQ_clean_linker_1, # of connection points: 2
#     Edge 21, Type (0, 1), BuildingBlock: KIFKEQ_clean_linker_1, # of connection points: 2
#     Edge 22, Type (0, 1), BuildingBlock: KIFKEQ_clean_linker_1, # of connection points: 2
#     Edge 23, Type (0, 1), BuildingBlock: KIFKEQ_clean_linker_1, # of connection points: 2
#     Edge 24, Type (0, 1), BuildingBlock: KIFKEQ_clean_linker_1, # of connection points: 2
#     Edge 25, Type (0, 1), BuildingBlock: KIFKEQ_clean_linker_1, # of connection points: 2
#     Edge 26, Type (0, 1), BuildingBlock: KIFKEQ_clean_linker_1, # of connection points: 2
#     Edge 27, Type (0, 1), BuildingBlock: KIFKEQ_clean_linker_1, # of connection points: 2
#     Edge 28, Type (0, 1), BuildingBlock: KIFKEQ_clean_linker_1, # of connection points: 2
#     Edge 29, Type (0, 1), BuildingBlock: KIFKEQ_clean_linker_1, # of connection points: 2
#     Edge 30, Type (0, 1), BuildingBlock: KIFKEQ_clean_linker_1, # of connection points: 2
#     Edge 31, Type (0, 1), BuildingBlock: KIFKEQ_clean_linker_1, # of connection points: 2
#     Edge 32, Type (0, 1), BuildingBlock: KIFKEQ_clean_linker_1, # of connection points: 2
#     Edge 33, Type (0, 1), BuildingBlock: KIFKEQ_clean_linker_1, # of connection points: 2
#     Edge 34, Type (0, 1), BuildingBlock: KIFKEQ_clean_linker_1, # of connection points: 2
#     Edge 35, Type (0, 1), BuildingBlock: KIFKEQ_clean_linker_1, # of connection points: 2
# Relax obj value: 0.036
# Max RMSD: 0.117
# Mean RMSD: 0.050
data_MOF--net-pry--node1-VOLQOD_clean_sbu_1--node2-BELTOD_clean_linker_0--edge1-KIFKEQ_clean_linker_1
_symmetry_space_group_name_H-M    P1
_symmetry_Int_Tables_number       1
_symmetry_cell_setting            triclinic
loop_
_symmetry_equiv_pos_as_xyz
'x, y, z'
_cell_length_a     42.810023
_cell_length_b     43.183866
_cell_length_c     42.726996
_cell_angle_alpha  89.88216
_cell_angle_beta   90.254154
_cell_angle_gamma 90.102347
loop_
_atom_site_label
_atom_site_type_symbol
_atom_site_fract_x
_atom_site_fract_y
_atom_site_fract_z
_atom_type_partial_charge
P0 P 0.15976 0.16869 0.16563 0.0
H1 H 0.20532 0.18417 0.11793 0.0
H2 H 0.24331 0.15375 0.08925 0.0
H3 H 0.21029 0.0708 0.13561 0.0
H4 H 0.17058 0.10118 0.16213 0.0
H5 H 0.10076 0.19557 0.1853 0.0
H6 H 0.0646 0.23101 0.15984 0.0
H7 H 0.11781 0.22425 0.07433 0.0
H8 H 0.1524 0.1871 0.09928 0.0
H9 H 0.18051 0.15969 0.22994 0.0
H10 H 0.1044 0.12861 0.17143 0.0
O11 O 0.1822 0.19652 0.18087 0.0
H12 H 0.15769 0.13301 0.27466 0.0
H13 H 0.08099 0.10199 0.21651 0.0
C14 C 0.18486 0.14501 0.14192 0.0
C15 C 0.20564 0.15929 0.1212 0.0
C16 C 0.2278 0.14184 0.10521 0.0
C17 C 0.23042 0.10974 0.11042 0.0
C18 C 0.20889 0.09535 0.13065 0.0
C19 C 0.18619 0.11281 0.14609 0.0
C20 C 0.12926 0.18832 0.14424 0.0
C21 C 0.104 0.20076 0.16072 0.0
C22 C 0.08357 0.22151 0.14622 0.0
C23 C 0.08854 0.23106 0.11513 0.0
C24 C 0.11299 0.21733 0.09819 0.0
C25 C 0.13311 0.19613 0.11262 0.0
C26 C 0.14366 0.14681 0.19766 0.0
C27 C 0.15879 0.14718 0.22674 0.0
C28 C 0.14566 0.13198 0.25232 0.0
C29 C 0.11722 0.11592 0.24924 0.0
C30 C 0.10287 0.11427 0.21961 0.0
C31 C 0.11609 0.12958 0.19394 0.0
P32 P 0.42903 0.91336 0.59807 0.0
H33 H 0.487 0.9208 0.63355 0.0
H34 H 0.49799 0.92596 0.68981 0.0
H35 H 0.39952 0.91752 0.70934 0.0
H36 H 0.38874 0.91116 0.65352 0.0
H37 H 0.46496 0.88425 0.54783 0.0
H38 H 0.47139 0.83023 0.53203 0.0
H39 H 0.41202 0.80131 0.6083 0.0
H40 H 0.4054 0.85541 0.62365 0.0
H41 H 0.39238 0.96684 0.61713 0.0
H42 H 0.37892 0.88597 0.55949 0.0
O43 O 0.45334 0.93642 0.57837 0.0
H44 H 0.33745 0.98042 0.6103 0.0
H45 H 0.32441 0.89997 0.5515 0.0
C46 C 0.43698 0.91677 0.6393 0.0
C47 C 0.46781 0.92009 0.64997 0.0
C48 C 0.47408 0.92286 0.682 0.0
C49 C 0.4495 0.92256 0.70365 0.0
C50 C 0.41876 0.91834 0.69296 0.0
C51 C 0.41261 0.91493 0.66106 0.0
C52 C 0.43504 0.87369 0.58713 0.0
C53 C 0.45351 0.86626 0.56125 0.0
C54 C 0.4572 0.83539 0.55228 0.0
C55 C 0.44223 0.81152 0.56894 0.0
C56 C 0.42359 0.81919 0.5948 0.0
C57 C 0.42003 0.85004 0.60379 0.0
C58 C 0.38951 0.92495 0.58962 0.0
C59 C 0.37764 0.95217 0.60276 0.0
C60 C 0.34625 0.95999 0.59865 0.0
C61 C 0.32631 0.94104 0.5807 0.0
C62 C 0.33883 0.91461 0.56621 0.0
C63 C 0.37014 0.90666 0.57063 0.0
P64 P 0.6541 0.33732 0.84309 0.0
H65 H 0.71862 0.32741 0.86228 0.0
H66 H 0.75369 0.35547 0.89728 0.0
H67 H 0.67873 0.41799 0.92105 0.0
H68 H 0.64376 0.38984 0.88543 0.0
H69 H 0.62225 0.28338 0.81806 0.0
H70 H 0.5937 0.24085 0.84214 0.0
H71 H 0.61221 0.27993 0.93358 0.0
H72 H 0.63875 0.32353 0.90898 0.0
H73 H 0.66411 0.40021 0.82048 0.0
H74 H 0.58934 0.3331 0.81945 0.0
O75 O 0.67688 0.32133 0.81599 0.0
H76 H 0.63374 0.43394 0.78623 0.0
H77 H 0.55979 0.3656 0.78372 0.0
C78 C 0.6789 0.35707 0.87071 0.0
C79 C 0.70971 0.34712 0.87504 0.0
C80 C 0.72965 0.36304 0.89532 0.0
C81 C 0.71904 0.38908 0.91187 0.0
C82 C 0.68772 0.39832 0.90828 0.0
C83 C 0.66774 0.38226 0.88799 0.0
C84 C 0.6327 0.30653 0.86168 0.0
C85 C 0.61987 0.28289 0.84329 0.0
C86 C 0.60379 0.25838 0.85719 0.0
C87 C 0.60085 0.25658 0.88995 0.0
C88 C 0.61356 0.28062 0.9083 0.0
C89 C 0.62909 0.30551 0.89425 0.0
C90 C 0.62897 0.36423 0.8229 0.0
C91 C 0.64094 0.39293 0.81335 0.0
C92 C 0.62367 0.41204 0.79338 0.0
C93 C 0.59439 0.4024 0.78182 0.0
C94 C 0.58201 0.37407 0.7924 0.0
C95 C 0.59913 0.3552 0.81276 0.0
P96 P 0.85578 0.66201 0.37624 0.0
H97 H 0.89085 0.71629 0.35809 0.0
H98 H 0.92575 0.751 0.38644 0.0
H99 H 0.91267 0.69688 0.47061 0.0
H100 H 0.87741 0.66207 0.44186 0.0
H101 H 0.83645 0.6103 0.33749 0.0
H102 H 0.86479 0.57784 0.30044 0.0
H103 H 0.95162 0.62022 0.32963 0.0
H104 H 0.92327 0.65255 0.36653 0.0
H105 H 0.79533 0.68237 0.39837 0.0
H106 H 0.8543 0.60219 0.40914 0.0
O107 O 0.83655 0.68358 0.35006 0.0
H108 H 0.75399 0.65644 0.42738 0.0
H109 H 0.81312 0.57609 0.43895 0.0
C110 C 0.88108 0.68713 0.39808 0.0
C111 C 0.89541 0.71194 0.38266 0.0
C112 C 0.91567 0.7315 0.39881 0.0
C113 C 0.92207 0.72654 0.43072 0.0
C114 C 0.908 0.70131 0.44607 0.0
C115 C 0.88782 0.68152 0.42973 0.0
C116 C 0.87767 0.63389 0.35463 0.0
C117 C 0.86167 0.61201 0.33647 0.0
C118 C 0.87791 0.59338 0.31544 0.0
C119 C 0.91039 0.59668 0.31207 0.0
C120 C 0.92655 0.61743 0.33159 0.0
C121 C 0.9103 0.63592 0.35272 0.0
C122 C 0.8274 0.64383 0.40096 0.0
C123 C 0.79945 0.65926 0.40734 0.0
C124 C 0.77596 0.64448 0.42422 0.0
C125 C 0.78018 0.61408 0.43531 0.0
C126 C 0.80899 0.5993 0.43026 0.0
C127 C 0.83251 0.61418 0.41329 0.0
P128 P 0.92584 0.93074 0.94821 0.0
H129 H 0.89178 0.94201 0.00582 0.0
H130 H 0.83622 0.94716 0.0174 0.0
H131 H 0.81499 0.93957 0.91861 0.0
H132 H 0.87023 0.93258 0.90765 0.0
H133 H 0.96954 0.89902 0.99071 0.0
H134 H 0.97754 0.84427 0.00318 0.0
H135 H 0.90509 0.81951 0.93695 0.0
H136 H 0.89687 0.87427 0.92516 0.0
H137 H 0.91266 0.98378 0.90788 0.0
H138 H 0.96157 0.89687 0.90056 0.0
O139 O 0.94759 0.95318 0.97144 0.0
H140 H 0.92323 0.99448 0.85268 0.0
H141 H 0.97282 0.90766 0.84579 0.0
C142 C 0.88521 0.93788 0.95583 0.0
C143 C 0.87511 0.94183 0.98668 0.0
C144 C 0.8433 0.94485 0.99323 0.0
C145 C 0.82097 0.94398 0.96894 0.0
C146 C 0.83136 0.94001 0.93799 0.0
C147 C 0.86311 0.93655 0.93158 0.0
C148 C 0.9325 0.8906 0.95715 0.0
C149 C 0.95537 0.88179 0.97894 0.0
C150 C 0.96003 0.85047 0.98592 0.0
C151 C 0.94186 0.82751 0.97116 0.0
C152 C 0.91911 0.8366 0.94915 0.0
C153 C 0.91448 0.86786 0.94225 0.0
C154 C 0.93553 0.93918 0.9081 0.0
C155 C 0.92575 0.96706 0.8944 0.0
C156 C 0.932 0.97322 0.86291 0.0
C157 C 0.94855 0.95173 0.84467 0.0
C158 C 0.95934 0.92434 0.85892 0.0
C159 C 0.95298 0.91818 0.89036 0.0
P160 P 0.64876 0.14183 0.36671 0.0
H161 H 0.66566 0.20569 0.37808 0.0
H162 H 0.64183 0.24686 0.40836 0.0
H163 H 0.57269 0.18241 0.44302 0.0
H164 H 0.59689 0.14096 0.41214 0.0
H165 H 0.71583 0.13913 0.35588 0.0
H166 H 0.7584 0.11321 0.38296 0.0
H167 H 0.6929 0.07429 0.449 0.0
H168 H 0.64999 0.10104 0.42173 0.0
H169 H 0.58254 0.14905 0.35117 0.0
H170 H 0.65319 0.07845 0.34372 0.0
O171 O 0.66388 0.16045 0.33601 0.0
H172 H 0.54804 0.11905 0.31739 0.0
H173 H 0.61951 0.04904 0.30858 0.0
C174 C 0.63242 0.1706 0.39214 0.0
C175 C 0.64548 0.20031 0.3923 0.0
C176 C 0.63198 0.2238 0.40993 0.0
C177 C 0.60524 0.21796 0.42802 0.0
C178 C 0.59303 0.18769 0.42898 0.0
C179 C 0.6068 0.16404 0.4114 0.0
C180 C 0.67975 0.12186 0.38674 0.0
C181 C 0.71047 0.12496 0.37608 0.0
C182 C 0.73485 0.10992 0.39152 0.0
C183 C 0.72903 0.09141 0.41797 0.0
C184 C 0.69814 0.08849 0.42877 0.0
C185 C 0.67363 0.1036 0.41318 0.0
C186 C 0.62022 0.11569 0.3506 0.0
C187 C 0.59023 0.12654 0.34326 0.0
C188 C 0.57065 0.10952 0.3235 0.0
C189 C 0.58111 0.0818 0.30986 0.0
C190 C 0.61044 0.07004 0.31891 0.0
C191 C 0.62984 0.08692 0.33903 0.0
P192 P 0.40953 0.57144 0.08079 0.0
H193 H 0.37657 0.53103 0.03635 0.0
H194 H 0.32113 0.52406 0.02407 0.0
H195 H 0.29758 0.59247 0.09374 0.0
H196 H 0.35308 0.59956 0.10559 0.0
H197 H 0.46447 0.60719 0.09898 0.0
H198 H 0.47967 0.66122 0.09061 0.0
H199 H 0.39665 0.67543 0.03459 0.0
H200 H 0.3817 0.62146 0.04284 0.0
H201 H 0.42183 0.51407 0.115 0.0
H202 H 0.40777 0.61045 0.1368 0.0
O203 O 0.43134 0.54734 0.05966 0.0
H204 H 0.42918 0.50263 0.1706 0.0
H205 H 0.41695 0.59976 0.19194 0.0
C206 C 0.36883 0.56578 0.0719 0.0
C207 C 0.35947 0.54449 0.049 0.0
C208 C 0.32777 0.54043 0.04209 0.0
C209 C 0.30497 0.55775 0.0579 0.0
C210 C 0.31457 0.57907 0.08087 0.0
C211 C 0.34624 0.58298 0.08783 0.0
C212 C 0.42154 0.61055 0.0723 0.0
C213 C 0.44956 0.62196 0.0849 0.0
C214 C 0.45815 0.65284 0.08022 0.0
C215 C 0.43913 0.67265 0.0623 0.0
C216 C 0.41177 0.66072 0.04852 0.0
C217 C 0.40309 0.62988 0.05342 0.0
C218 C 0.41522 0.56322 0.12171 0.0
C219 C 0.42079 0.53284 0.13174 0.0
C220 C 0.42516 0.52639 0.16355 0.0
C221 C 0.42404 0.5503 0.18591 0.0
C222 C 0.41771 0.58065 0.17561 0.0
C223 C 0.4129 0.58693 0.14391 0.0
P224 P 0.12779 0.39287 0.66462 0.0
H225 H 0.15163 0.32978 0.66547 0.0
H226 H 0.13144 0.28118 0.64471 0.0
H227 H 0.05174 0.32965 0.60608 0.0
H228 H 0.07179 0.37823 0.62793 0.0
H229 H 0.1738 0.44176 0.67072 0.0
H230 H 0.21129 0.46372 0.63404 0.0
H231 H 0.16827 0.41208 0.55872 0.0
H232 H 0.13099 0.38994 0.59567 0.0
H233 H 0.07687 0.37426 0.70415 0.0
H234 H 0.11059 0.45923 0.66313 0.0
O235 O 0.15198 0.38401 0.69403 0.0
H236 H 0.04041 0.40315 0.73585 0.0
H237 H 0.07332 0.48867 0.69447 0.0
C238 C 0.11291 0.35738 0.64861 0.0
C239 C 0.12973 0.32992 0.65268 0.0
C240 C 0.11827 0.30219 0.64055 0.0
C241 C 0.08996 0.30154 0.62372 0.0
C242 C 0.07335 0.3293 0.61934 0.0
C243 C 0.08482 0.35706 0.63166 0.0
C244 C 0.15005 0.41384 0.63604 0.0
C245 C 0.17203 0.43569 0.64618 0.0
C246 C 0.19331 0.44839 0.62512 0.0
C247 C 0.19293 0.43937 0.59351 0.0
C248 C 0.16939 0.41909 0.58302 0.0
C249 C 0.14802 0.40647 0.60415 0.0
C250 C 0.09634 0.41455 0.68129 0.0
C251 C 0.07563 0.39915 0.7012 0.0
C252 C 0.05455 0.41581 0.71921 0.0
C253 C 0.05385 0.44836 0.71778 0.0
C254 C 0.07346 0.46366 0.69634 0.0
C255 C 0.09471 0.44684 0.67831 0.0
O256 O -3e-05 0.07551 0.56304 0.0
Zn257 Zn 0.98476 0.03135 0.55806 0.0
O258 O 0.0142 0.00661 0.53335 0.0
Zn259 Zn 0.99429 0.99243 0.49463 0.0
Zn260 Zn 0.04979 0.03191 0.522 0.0
Zn261 Zn 0.02892 0.97115 0.55813 0.0
O262 O 0.99581 0.94617 0.49241 0.0
O263 O 0.01626 0.93088 0.53779 0.0
O264 O 0.94222 0.03254 0.53715 0.0
O265 O 0.94909 0.00483 0.49395 0.0
O266 O 0.01464 0.00975 0.45533 0.0
O267 O 0.05407 0.03606 0.47591 0.0
O268 O 0.08988 0.01408 0.5376 0.0
O269 O 0.98008 0.01354 0.60156 0.0
O270 O 0.07611 0.971 0.56232 0.0
O271 O 0.01089 0.97221 0.60155 0.0
C272 C 0.02472 0.08906 0.55378 0.0
C273 C 0.00423 0.92479 0.51118 0.0
C274 C 0.03885 0.02665 0.45219 0.0
C275 C 0.93167 0.02068 0.51192 0.0
C276 C 0.09704 0.9898 0.55288 0.0
C277 C 0.99197 0.99022 0.61549 0.0
O278 O 0.0455 0.07474 0.53838 0.0
O279 O 0.4952 0.04638 0.97686 0.0
Zn280 Zn 0.47724 0.0044 0.98716 0.0
O281 O 0.50425 0.98173 0.01599 0.0
Zn282 Zn 0.52331 0.94731 0.99361 0.0
Zn283 Zn 0.5369 0.00947 0.03086 0.0
Zn284 Zn 0.47979 0.96637 0.05166 0.0
O285 O 0.50878 0.90694 0.01179 0.0
O286 O 0.47804 0.91946 0.05159 0.0
O287 O 0.47233 0.98199 0.94627 0.0
O288 O 0.51046 0.94718 0.94811 0.0
O289 O 0.57039 0.94883 0.99583 0.0
O290 O 0.57953 0.9929 0.0209 0.0
O291 O 0.53438 0.01462 0.07718 0.0
O292 O 0.43507 0.01128 0.00612 0.0
O293 O 0.49806 0.98137 0.09297 0.0
O294 O 0.43567 0.98331 0.04982 0.0
C295 C 0.51726 0.06228 0.98886 0.0
C296 C 0.49092 0.89917 0.03425 0.0
C297 C 0.58932 0.9687 0.00714 0.0
C298 C 0.48864 0.961 0.93335 0.0
C299 C 0.5189 0.00167 0.09896 0.0
C300 C 0.42166 0.00135 0.03074 0.0
O301 O 0.5343 0.05142 0.01072 0.0
O302 O 0.51438 0.51085 0.57142 0.0
Zn303 Zn 0.51298 0.52894 0.52827 0.0
O304 O 0.48857 0.50319 0.49976 0.0
Zn305 Zn 0.51515 0.49029 0.46522 0.0
Zn306 Zn 0.47312 0.46662 0.52223 0.0
Zn307 Zn 0.45347 0.52722 0.48322 0.0
O308 O 0.49654 0.50194 0.42346 0.0
O309 O 0.45318 0.52708 0.43605 0.0
O310 O 0.55731 0.53352 0.51391 0.0
O311 O 0.55792 0.50924 0.46824 0.0
O312 O 0.52129 0.44432 0.46621 0.0
O313 O 0.49051 0.42698 0.5041 0.0
O314 O 0.4261 0.46518 0.52122 0.0
O315 O 0.49537 0.57177 0.53083 0.0
O316 O 0.4127 0.50879 0.497 0.0
O317 O 0.45496 0.57163 0.49812 0.0
C318 C 0.50303 0.48645 0.58369 0.0
C319 C 0.47176 0.51632 0.41559 0.0
C320 C 0.51013 0.42211 0.48233 0.0
C321 C 0.57161 0.52507 0.48934 0.0
C322 C 0.40533 0.48386 0.51112 0.0
C323 C 0.47281 0.58568 0.51738 0.0
O324 O 0.48667 0.46755 0.56763 0.0
O325 O 0.96078 0.50437 0.08717 0.0
Zn326 Zn 0.96242 0.48775 0.04337 0.0
O327 O 0.98796 0.5142 0.01655 0.0
Zn328 Zn 0.96126 0.53358 0.98493 0.0
Zn329 Zn 0.00791 0.54641 0.04163 0.0
Zn330 Zn 0.01993 0.48904 0.99631 0.0
O331 O 0.97693 0.52462 0.94166 0.0
O332 O 0.01358 0.489 0.94967 0.0
O333 O 0.91864 0.48357 0.02658 0.0
O334 O 0.91754 0.51626 0.98647 0.0
O335 O 0.95975 0.57982 0.98997 0.0
O336 O 0.99424 0.58905 0.02776 0.0
O337 O 0.05467 0.5444 0.03839 0.0
O338 O 0.98043 0.44486 0.04627 0.0
O339 O 0.06322 0.50564 0.00551 0.0
O340 O 0.01912 0.44492 0.01191 0.0
C341 C 0.97662 0.52506 0.10134 0.0
C342 C 0.99669 0.50524 0.93133 0.0
C343 C 0.97464 0.59865 0.00745 0.0
C344 C 0.90415 0.49635 0.00391 0.0
C345 C 0.07334 0.52735 0.02301 0.0
C346 C 0.00248 0.43098 0.03219 0.0
O347 O 0.99632 0.54193 0.08694 0.0
H348 H 0.11084 0.14223 0.30649 0.0
H349 H 0.0896 0.05863 0.25525 0.0
H350 H 0.09026 0.11895 0.35395 0.0
H351 H 0.06884 0.0351 0.30322 0.0
H352 H 0.00931 0.01907 0.39514 0.0
H353 H 0.02612 0.03974 0.34435 0.0
H354 H 0.10932 0.07686 0.38787 0.0
H355 H 0.09271 0.05684 0.43807 0.0
C356 C 0.10186 0.11879 0.30542 0.0
C357 C 0.10238 0.10205 0.27729 0.0
C358 C 0.09003 0.10546 0.3326 0.0
C359 C 0.07844 0.07501 0.33241 0.0
C360 C 0.07761 0.05863 0.30402 0.0
C361 C 0.0895 0.07206 0.27663 0.0
C362 C 0.03127 0.03148 0.39374 0.0
C363 C 0.04944 0.03663 0.42077 0.0
C364 C 0.0409 0.04322 0.36468 0.0
C365 C 0.06877 0.06035 0.36228 0.0
C366 C 0.08737 0.0644 0.3891 0.0
C367 C 0.07785 0.05276 0.41791 0.0
H368 H 0.42435 0.96647 0.74099 0.0
H369 H 0.48843 0.88956 0.74175 0.0
H370 H 0.43423 0.97513 0.79642 0.0
H371 H 0.49714 0.89675 0.79781 0.0
H372 H 0.52963 0.93727 0.891 0.0
H373 H 0.52065 0.92786 0.83552 0.0
H374 H 0.42439 0.95628 0.84604 0.0
H375 H 0.43411 0.96743 0.90097 0.0
C376 C 0.44031 0.9512 0.75328 0.0
C377 C 0.45564 0.92738 0.73731 0.0
C378 C 0.44582 0.95593 0.78512 0.0
C379 C 0.46633 0.9365 0.8019 0.0
C380 C 0.4816 0.91253 0.78571 0.0
C381 C 0.47653 0.90823 0.75365 0.0
C382 C 0.50655 0.94139 0.88138 0.0
C383 C 0.48262 0.95326 0.90022 0.0
C384 C 0.5013 0.93583 0.84957 0.0
C385 C 0.4718 0.94145 0.83602 0.0
C386 C 0.44764 0.95244 0.85529 0.0
C387 C 0.4531 0.95861 0.8869 0.0
H388 H 0.5312 0.41119 0.77298 0.0
H389 H 0.62112 0.4333 0.73284 0.0
H390 H 0.50537 0.43514 0.72788 0.0
H391 H 0.59533 0.45789 0.68874 0.0
H392 H 0.54178 0.51853 0.62301 0.0
H393 H 0.56074 0.50253 0.67435 0.0
H394 H 0.50233 0.42103 0.67016 0.0
H395 H 0.48311 0.43698 0.61874 0.0
C396 C 0.54547 0.42135 0.75478 0.0
C397 C 0.5783 0.4202 0.75662 0.0
C398 C 0.53065 0.43513 0.72905 0.0
C399 C 0.54835 0.4484 0.70488 0.0
C400 C 0.58106 0.44831 0.70728 0.0
C401 C 0.59585 0.43427 0.73272 0.0
C402 C 0.53256 0.49741 0.63315 0.0
C403 C 0.51121 0.47881 0.61653 0.0
C404 C 0.54352 0.48825 0.66254 0.0
C405 C 0.53322 0.46042 0.67607 0.0
C406 C 0.51053 0.4427 0.66035 0.0
C407 C 0.49968 0.45176 0.63081 0.0
H408 H 0.90563 0.53642 0.29253 0.0
H409 H 0.95057 0.6235 0.27126 0.0
H410 H 0.92644 0.51437 0.24428 0.0
H411 H 0.97051 0.60208 0.22296 0.0
H412 H 0.01472 0.55524 0.14263 0.0
H413 H 0.0041 0.56745 0.19716 0.0
H414 H 0.91522 0.52014 0.19013 0.0
H415 H 0.92653 0.5068 0.13612 0.0
C416 C 0.92024 0.55069 0.27769 0.0
C417 C 0.92648 0.58164 0.28559 0.0
C418 C 0.93203 0.53817 0.25001 0.0
C419 C 0.94996 0.5565 0.22956 0.0
C420 C 0.95728 0.58705 0.23831 0.0
C421 C 0.94579 0.59941 0.26605 0.0
C422 C 0.99307 0.54718 0.15288 0.0
C423 C 0.97129 0.53038 0.13501 0.0
C424 C 0.98693 0.55424 0.18411 0.0
C425 C 0.95865 0.54509 0.198 0.0
C426 C 0.93743 0.52723 0.1804 0.0
C427 C 0.94378 0.51979 0.1493 0.0
H428 H 0.29016 0.1297 0.09934 0.0
H429 H 0.23074 0.049 0.09008 0.0
H430 H 0.33318 0.1011 0.07667 0.0
H431 H 0.27489 0.01991 0.06893 0.0
H432 H 0.381 0.9799 0.0754 0.0
H433 H 0.33216 0.00414 0.09222 0.0
H434 H 0.34318 0.07465 0.02144 0.0
H435 H 0.3915 0.05047 0.00423 0.0
C436 C 0.28599 0.10603 0.09213 0.0
C437 C 0.25662 0.09191 0.09628 0.0
C438 C 0.31083 0.08959 0.07935 0.0
C439 C 0.30721 0.05843 0.07095 0.0
C440 C 0.27818 0.04396 0.07535 0.0
C441 C 0.25302 0.06062 0.08762 0.0
C442 C 0.37273 0.00028 0.0631 0.0
C443 C 0.39029 0.01337 0.03863 0.0
C444 C 0.34476 0.01402 0.07264 0.0
C445 C 0.33417 0.04131 0.05821 0.0
C446 C 0.35103 0.0537 0.03303 0.0
C447 C 0.37864 0.03975 0.02316 0.0
H448 H 0.27687 0.90065 0.58011 0.0
H449 H 0.29908 0.99819 0.57454 0.0
H450 H 0.22169 0.91257 0.57405 0.0
H451 H 0.24376 0.01023 0.57059 0.0
H452 H 0.14732 0.01853 0.52677 0.0
H453 H 0.20218 0.00665 0.53416 0.0
H454 H 0.17776 0.9345 0.6 0.0
H455 H 0.12247 0.94571 0.59166 0.0
C456 C 0.27002 0.92465 0.57759 0.0
C457 C 0.29252 0.94844 0.57758 0.0
C458 C 0.23827 0.93152 0.57463 0.0
C459 C 0.2282 0.96237 0.57185 0.0
C460 C 0.25067 0.98617 0.57224 0.0
C461 C 0.28243 0.97929 0.57492 0.0
C462 C 0.15357 0.00019 0.54294 0.0
C463 C 0.13046 0.98305 0.55862 0.0
C464 C 0.18514 0.99349 0.54733 0.0
C465 C 0.19449 0.96968 0.56776 0.0
C466 C 0.17138 0.95271 0.58374 0.0
C467 C 0.13969 0.95925 0.57912 0.0
H468 H 0.72449 0.45212 0.91603 0.0
H469 H 0.76388 0.36703 0.95182 0.0
H470 H 0.76475 0.48163 0.94352 0.0
H471 H 0.80481 0.39632 0.97812 0.0
H472 H 0.86739 0.45536 0.03614 0.0
H473 H 0.81822 0.43238 0.01896 0.0
H474 H 0.82002 0.48925 0.93565 0.0
H475 H 0.86865 0.51277 0.95314 0.0
C476 C 0.74144 0.43974 0.93015 0.0
C477 C 0.74117 0.4072 0.9315 0.0
C478 C 0.76471 0.45663 0.94563 0.0
C479 C 0.78819 0.44135 0.96281 0.0
C480 C 0.78698 0.4089 0.96536 0.0
C481 C 0.76372 0.39205 0.94993 0.0
C482 C 0.85704 0.46335 0.01441 0.0
C483 C 0.8722 0.48566 0.99584 0.0
C484 C 0.82891 0.45005 0.00449 0.0
C485 C 0.81535 0.45868 0.97575 0.0
C486 C 0.82963 0.48223 0.95805 0.0
C487 C 0.85768 0.49561 0.96801 0.0
H488 H 0.73738 0.63623 0.47705 0.0
H489 H 0.76253 0.554 0.42556 0.0
H490 H 0.68883 0.6116 0.49304 0.0
H491 H 0.71474 0.52875 0.44292 0.0
H492 H 0.6077 0.51701 0.43743 0.0
H493 H 0.6607 0.53527 0.4289 0.0
H494 H 0.66364 0.57165 0.52304 0.0
H495 H 0.61017 0.55413 0.53132 0.0
C496 C 0.73278 0.61269 0.4696 0.0
C497 C 0.7536 0.59725 0.44967 0.0
C498 C 0.70511 0.59842 0.47907 0.0
C499 C 0.69773 0.56832 0.46895 0.0
C500 C 0.71948 0.55217 0.45064 0.0
C501 C 0.74709 0.56651 0.44104 0.0
C502 C 0.61969 0.5287 0.45641 0.0
C503 C 0.60457 0.53437 0.48494 0.0
C504 C 0.65022 0.53895 0.45162 0.0
C505 C 0.66643 0.55494 0.4753 0.0
C506 C 0.65165 0.55977 0.50418 0.0
C507 C 0.62103 0.54965 0.50894 0.0
H508 H 0.06866 0.23954 0.05418 0.0
H509 H 0.06828 0.28302 0.1453 0.0
H510 H 0.04407 0.28565 0.03172 0.0
H511 H 0.04299 0.32818 0.12304 0.0
H512 H 0.97693 0.39638 0.07928 0.0
H513 H 0.99325 0.34536 0.0974 0.0
H514 H 0.06174 0.34129 0.02367 0.0
H515 H 0.04542 0.39235 0.00531 0.0
C516 C 0.06316 0.25871 0.06948 0.0
C517 C 0.07048 0.2574 0.10162 0.0
C518 C 0.049 0.28505 0.0566 0.0
C519 C 0.04154 0.31044 0.07565 0.0
C520 C 0.04795 0.30876 0.10785 0.0
C521 C 0.06237 0.28269 0.12064 0.0
C522 C 0.9952 0.38451 0.06663 0.0
C523 C 0.0101 0.39865 0.04103 0.0
C524 C 0.00458 0.35531 0.0771 0.0
C525 C 0.0289 0.33948 0.06208 0.0
C526 C 0.04278 0.35288 0.03557 0.0
C527 C 0.03356 0.38222 0.0252 0.0
H528 H 0.6021 0.19608 0.87053 0.0
H529 H 0.56492 0.25482 0.94335 0.0
H530 H 0.57739 0.15139 0.89471 0.0
H531 H 0.5417 0.20938 0.96837 0.0
H532 H 0.54978 0.10914 0.01696 0.0
H533 H 0.56666 0.158 0.99333 0.0
H534 H 0.51939 0.13352 0.90745 0.0
H535 H 0.50198 0.08489 0.9311 0.0
C536 C 0.58838 0.19967 0.89143 0.0
C537 C 0.58545 0.2293 0.90479 0.0
C538 C 0.57437 0.17394 0.90534 0.0
C539 C 0.5576 0.17707 0.93326 0.0
C540 C 0.55466 0.20646 0.94685 0.0
C541 C 0.56818 0.23238 0.93261 0.0
C542 C 0.54263 0.11438 0.99318 0.0
C543 C 0.5247 0.09313 0.97582 0.0
C544 C 0.55215 0.14237 0.97977 0.0
C545 C 0.54439 0.14932 0.9486 0.0
C546 C 0.52575 0.12853 0.93151 0.0
C547 C 0.51572 0.10082 0.94509 0.0
H548 H 0.97748 0.75161 0.41208 0.0
H549 H 0.91103 0.75249 0.48786 0.0
H550 H 0.00402 0.79636 0.43477 0.0
H551 H 0.93773 0.79714 0.51065 0.0
H552 H 0.00107 0.8735 0.549 0.0
H553 H 0.98775 0.82051 0.53326 0.0
H554 H 0.98234 0.85021 0.43681 0.0
H555 H 0.99548 0.90273 0.45231 0.0
C556 C 0.96891 0.76104 0.43388 0.0
C557 C 0.94185 0.74899 0.4479 0.0
C558 C 0.98412 0.78656 0.44688 0.0
C559 C 0.97261 0.80044 0.47417 0.0
C560 C 0.94718 0.78678 0.48966 0.0
C561 C 0.93189 0.76124 0.47661 0.0
C562 C 0.99746 0.86853 0.52441 0.0
C563 C -0.00094 0.89228 0.50189 0.0
C564 C 0.98977 0.83829 0.51547 0.0
C565 C 0.98415 0.83129 0.48384 0.0
C566 C 0.98699 0.85483 0.46131 0.0
C567 C 0.99422 0.88499 0.47023 0.0
H568 H 0.49608 0.78247 0.55171 0.0
H569 H 0.3974 0.76645 0.56512 0.0
H570 H 0.50296 0.72821 0.53761 0.0
H571 H 0.40445 0.71193 0.55188 0.0
H572 H 0.42548 0.62315 0.49614 0.0
H573 H 0.41787 0.67811 0.50711 0.0
H574 H 0.50082 0.67816 0.56502 0.0
H575 H 0.50871 0.62358 0.55388 0.0
C576 C 0.47584 0.76739 0.55147 0.0
C577 C 0.44622 0.7787 0.55961 0.0
C578 C 0.47982 0.73626 0.5437 0.0
C579 C 0.45426 0.71578 0.5438 0.0
C580 C 0.42454 0.7272 0.55139 0.0
C581 C 0.42057 0.75832 0.55929 0.0
C582 C 0.44211 0.63489 0.51119 0.0
C583 C 0.46772 0.61892 0.5241 0.0
C584 C 0.43766 0.66633 0.51757 0.0
C585 C 0.45882 0.68246 0.53683 0.0
C586 C 0.48437 0.66649 0.54973 0.0
C587 C 0.48875 0.63511 0.54349 0.0
H588 H 0.96451 0.00648 0.81618 0.0
H589 H 0.94514 0.9102 0.79653 0.0
H590 H 0.97385 0.01575 0.76063 0.0
H591 H 0.95477 0.91944 0.74114 0.0
H592 H 0.00995 0.94101 0.65172 0.0
H593 H -0.00103 0.93207 0.70686 0.0
H594 H 0.94566 0.01681 0.71 0.0
H595 H 0.95692 0.02607 0.65484 0.0
C596 C 0.962 0.98735 0.80001 0.0
C597 C 0.9542 0.95757 0.81085 0.0
C598 C 0.96735 0.99267 0.76818 0.0
C599 C 0.96512 0.96831 0.74651 0.0
C600 C 0.95716 0.93859 0.75732 0.0
C601 C 0.95171 0.93329 0.78908 0.0
C602 C 0.99581 0.95774 0.66408 0.0
C603 C 0.98435 0.98429 0.64879 0.0
C604 C 0.98939 0.95251 0.69568 0.0
C605 C 0.97146 0.97374 0.71279 0.0
C606 C 0.95985 0.00021 0.69752 0.0
C607 C 0.96614 0.00539 0.66585 0.0
H608 H 0.57306 0.02012 0.29503 0.0
H609 H 0.55158 0.1126 0.26253 0.0
H610 H 0.55423 -0.00088 0.24513 0.0
H611 H 0.532 0.09155 0.2137 0.0
H612 H 0.55462 0.05012 0.11835 0.0
H613 H 0.56423 0.06764 0.17133 0.0
H614 H 0.50672 0.99358 0.2073 0.0
H615 H 0.49688 0.97565 0.15362 0.0
C616 C 0.56376 0.03588 0.2776 0.0
C617 C 0.56412 0.06808 0.28276 0.0
C618 C 0.55276 0.02382 0.24918 0.0
C619 C 0.54211 0.04379 0.22544 0.0
C620 C 0.54049 0.07568 0.23145 0.0
C621 C 0.55139 0.08769 0.2597 0.0
C622 C 0.54394 0.03741 0.1374 0.0
C623 C 0.52489 0.01148 0.13166 0.0
C624 C 0.54928 0.04766 0.16781 0.0
C625 C 0.53589 0.03221 0.19339 0.0
C626 C 0.51726 0.00592 0.18793 0.0
C627 C 0.5116 0.99576 0.15726 0.0
H628 H 0.39618 0.57723 0.23681 0.0
H629 H 0.46516 0.50868 0.21187 0.0
H630 H 0.40812 0.56921 0.29175 0.0
H631 H 0.47522 0.49877 0.26695 0.0
H632 H 0.51166 0.51268 0.36603 0.0
H633 H 0.49964 0.52041 0.31086 0.0
H634 H 0.40256 0.53535 0.33398 0.0
H635 H 0.41502 0.52916 0.38924 0.0
C636 C 0.41382 0.56034 0.24298 0.0
C637 C 0.42985 0.54382 0.21971 0.0
C638 C 0.42033 0.55534 0.27464 0.0
C639 C 0.44269 0.53332 0.28399 0.0
C640 C 0.45823 0.5163 0.26074 0.0
C641 C 0.45205 0.52162 0.22904 0.0
C642 C 0.48776 0.51764 0.35929 0.0
C643 C 0.46432 0.52045 0.382 0.0
C644 C 0.48078 0.52185 0.32759 0.0
C645 C 0.45007 0.52849 0.31777 0.0
C646 C 0.42658 0.53089 0.34059 0.0
C647 C 0.43367 0.52717 0.37232 0.0
H648 H 0.07242 0.50058 0.74904 0.0
H649 H 0.99617 0.43501 0.74226 0.0
H650 H 0.05145 0.51952 0.7983 0.0
H651 H 0.97637 0.45311 0.79253 0.0
H652 H 0.01227 0.45241 0.90108 0.0
H653 H 0.01791 0.44482 0.84478 0.0
H654 H 0.99422 0.54057 0.82841 0.0
H655 H 0.98747 0.54811 0.88503 0.0
C656 C 0.05057 0.49098 0.75732 0.0
C657 C 0.03636 0.46574 0.74201 0.0
C658 C 0.03869 0.50181 0.78563 0.0
C659 C 0.01267 0.48739 0.79913 0.0
C660 C 0.99664 0.46435 0.78247 0.0
C661 C 0.00814 0.45391 0.75389 0.0
C662 C 0.00803 0.47179 0.88549 0.0
C663 C -0.00043 0.50086 0.89732 0.0
C664 C 0.01096 0.46737 0.85337 0.0
C665 C 0.00614 0.49208 0.83255 0.0
C666 C 0.99771 0.5212 0.84419 0.0
C667 C 0.99396 0.52546 0.87641 0.0
H668 H 0.77206 0.91393 0.94036 0.0
H669 H 0.7927 0.98021 0.01331 0.0
H670 H 0.71663 0.91995 0.95013 0.0
H671 H 0.73734 0.98435 0.02477 0.0
H672 H 0.63539 0.01203 0.01319 0.0
H673 H 0.69105 0.00553 0.00458 0.0
H674 H 0.67617 0.90835 0.98519 0.0
H675 H 0.62021 0.91528 0.9924 0.0
C676 C 0.76484 0.92977 0.95853 0.0
C677 C 0.78701 0.94677 0.97584 0.0
C678 C 0.73295 0.93282 0.96453 0.0
C679 C 0.72234 0.95262 0.9883 0.0
C680 C 0.74453 0.96923 0.00596 0.0
C681 C 0.77641 0.96649 -0.00031 0.0
C682 C 0.64401 0.98924 0.0072 0.0
C683 C 0.62336 0.96419 0.00338 0.0
C684 C 0.67603 0.98544 0.00244 0.0
C685 C 0.68827 0.95639 0.99417 0.0
C686 C 0.6676 0.9312 0.99094 0.0
C687 C 0.63549 0.9351 0.99527 0.0
H688 H 0.73986 0.0862 0.48115 0.0
H689 H 0.77806 0.06139 0.39125 0.0
H690 H 0.786 0.06459 0.50705 0.0
H691 H 0.82453 0.04132 0.41677 0.0
H692 H 0.89745 0.98922 0.46833 0.0
H693 H 0.84551 0.00154 0.44876 0.0
H694 H 0.8402 0.07828 0.5133 0.0
H695 H 0.89181 0.06519 0.5337 0.0
C696 C 0.75793 0.07584 0.46696 0.0
C697 C 0.75545 0.07578 0.43413 0.0
C698 C 0.78452 0.06378 0.48176 0.0
C699 C 0.80912 0.05137 0.46402 0.0
C700 C 0.80598 0.05033 0.43127 0.0
C701 C 0.77947 0.06225 0.41656 0.0
C702 C 0.88508 0.00853 0.47859 0.0
C703 C 0.89893 0.02646 0.50231 0.0
C704 C 0.85531 0.01568 0.46727 0.0
C705 C 0.8388 0.04119 0.47911 0.0
C706 C 0.85209 0.05831 0.50381 0.0
C707 C 0.88179 0.05092 0.51539 0.0
H708 H 0.26053 0.6026 0.05078 0.0
H709 H 0.27327 0.50344 0.04857 0.0
H710 H 0.2049 0.59576 0.04044 0.0
H711 H 0.21757 0.49653 0.0385 0.0
H712 H 0.12079 0.4968 0.9932 0.0
H713 H 0.17689 0.50468 -0.00036 0.0
H714 H 0.15918 0.57683 0.06716 0.0
H715 H 0.10328 0.56951 0.06025 0.0
C716 C 0.25139 0.57933 0.04826 0.0
C717 C 0.27127 0.55356 0.05064 0.0
C718 C 0.21952 0.57539 0.04235 0.0
C719 C 0.20672 0.54559 0.03877 0.0
C720 C 0.2267 0.51983 0.04069 0.0
C721 C 0.25863 0.52377 0.04652 0.0
C722 C 0.12886 0.51444 0.00931 0.0
C723 C 0.10747 0.5325 0.0262 0.0
C724 C 0.16103 0.51884 0.01313 0.0
C725 C 0.17255 0.54137 0.03394 0.0
C726 C 0.15114 0.55958 0.0506 0.0
C727 C 0.11903 0.55524 0.04676 0.0
H728 H 0.22444 0.40197 0.55327 0.0
H729 H 0.22167 0.49585 0.58793 0.0
H730 H 0.27353 0.41309 0.52691 0.0
H731 H 0.27136 0.50667 0.56233 0.0
H732 H 0.35489 0.52108 0.49927 0.0
H733 H 0.30035 0.5111 0.51236 0.0
H734 H 0.32593 0.42152 0.54953 0.0
H735 H 0.38024 0.43121 0.53622 0.0
C736 C 0.23389 0.42522 0.55462 0.0
C737 C 0.21932 0.44799 0.57289 0.0
C738 C 0.26221 0.43145 0.53982 0.0
C739 C 0.2765 0.46058 0.54295 0.0
C740 C 0.26087 0.48401 0.55941 0.0
C741 C 0.23256 0.47776 0.57428 0.0
C742 C 0.34884 0.4991 0.50993 0.0
C743 C 0.37198 0.47702 0.51692 0.0
C744 C 0.31761 0.49347 0.51748 0.0
C745 C 0.30889 0.46556 0.53195 0.0
C746 C 0.33186 0.44309 0.53799 0.0
C747 C 0.36306 0.44877 0.53061 0.0
H748 H 0.99719 0.79678 0.97979 0.0
H749 H 0.89721 0.78287 0.9792 0.0
H750 H 0.00482 0.7417 0.99007 0.0
H751 H 0.90487 0.72784 0.98929 0.0
H752 H 0.93294 0.62746 0.96848 0.0
H753 H 0.92515 0.6828 0.96113 0.0
H754 H 0.99628 0.70177 0.03053 0.0
H755 H 0.00448 0.6463 0.03766 0.0
C756 C 0.97684 0.78205 0.98221 0.0
C757 C 0.94659 0.7942 0.97851 0.0
C758 C 0.98122 0.75049 0.98809 0.0
C759 C 0.95545 0.7304 0.99035 0.0
C760 C 0.92521 0.74264 0.98714 0.0
C761 C 0.92083 0.77416 0.98133 0.0
C762 C 0.94691 0.64337 0.98226 0.0
C763 C 0.96937 0.63237 0.00365 0.0
C764 C 0.94229 0.67512 0.97816 0.0
C765 C 0.96007 0.69666 0.99528 0.0
C766 C 0.98245 0.68573 0.01676 0.0
C767 C 0.98701 0.65393 0.02096 0.0
H768 H 0.43743 0.70733 0.00874 0.0
H769 H 0.45946 0.71282 0.10732 0.0
H770 H 0.45013 0.76217 0.00275 0.0
H771 H 0.47275 0.76755 0.10121 0.0
H772 H 0.45781 0.87236 0.08209 0.0
H773 H 0.4457 0.81748 0.08918 0.0
H774 H 0.49716 0.79579 0.00537 0.0
H775 H 0.5091 0.85041 -0.00194 0.0
C776 C 0.44497 0.72028 0.02911 0.0
C777 C 0.44749 0.70579 0.05848 0.0
C778 C 0.45249 0.75158 0.02565 0.0
C779 C 0.46247 0.76913 0.05152 0.0
C780 C 0.4649 0.75467 0.08091 0.0
C781 C 0.45761 0.72329 0.08433 0.0
C782 C 0.46662 0.85589 0.06523 0.0
C783 C 0.48437 0.86585 0.03947 0.0
C784 C 0.4598 0.82445 0.06938 0.0
C785 C 0.47038 0.80238 0.04775 0.0
C786 C 0.48834 0.8123 0.0222 0.0
C787 C 0.49533 0.84363 0.01815 0.0
H788 H 0.02952 0.28029 0.62256 0.0
H789 H 0.12348 0.25575 0.59574 0.0
H790 H 0.01059 0.23064 0.60275 0.0
H791 H 0.105 0.20575 0.57771 0.0
H792 H 0.06272 0.12917 0.52312 0.0
H793 H 0.07541 0.18216 0.53723 0.0
H794 H 0.01258 0.17623 0.61597 0.0
H795 H -0.00109 0.1233 0.60099 0.0
C796 C 0.04609 0.26439 0.6123 0.0
C797 C 0.07803 0.27191 0.61083 0.0
C798 C 0.0353 0.23581 0.60131 0.0
C799 C 0.05625 0.21421 0.58865 0.0
C800 C 0.0881 0.22198 0.58687 0.0
C801 C 0.09881 0.25051 0.59766 0.0
C802 C 0.05142 0.13924 0.54332 0.0
C803 C 0.03012 0.12198 0.56121 0.0
C804 C 0.0588 0.16958 0.55149 0.0
C805 C 0.04544 0.18328 0.57804 0.0
C806 C 0.02315 0.16644 0.59526 0.0
C807 C 0.01542 0.13609 0.5868 0.0
H808 H 0.54247 0.23009 0.43035 0.0
H809 H 0.63207 0.2653 0.46088 0.0
H810 H 0.51762 0.27813 0.44745 0.0
H811 H 0.6073 0.31337 0.4773 0.0
H812 H 0.5612 0.40563 0.44864 0.0
H813 H 0.58257 0.35415 0.44108 0.0
H814 H 0.50765 0.31483 0.49561 0.0
H815 H 0.48605 0.36684 0.5036 0.0
C816 C 0.55673 0.2477 0.44144 0.0
C817 C 0.58932 0.24413 0.44378 0.0
C818 C 0.5425 0.27521 0.45113 0.0
C819 C 0.56067 0.29957 0.46315 0.0
C820 C 0.59287 0.29511 0.46755 0.0
C821 C 0.60702 0.26764 0.45811 0.0
C822 C 0.54911 0.38611 0.459 0.0
C823 C 0.52189 0.39038 0.47675 0.0
C824 C 0.56155 0.35663 0.45488 0.0
C825 C 0.54696 0.33061 0.46809 0.0
C826 C 0.51936 0.33459 0.48528 0.0
C827 C 0.50707 0.3643 0.48983 0.0
loop_
_geom_bond_atom_site_label_1
_geom_bond_atom_site_label_2
_geom_bond_distance
_geom_bond_site_symmetry_2
_ccdc_geom_bond_type
P0 O11 1.490 . S
P0 C14 1.812 . S
P0 C20 1.803 . S
P0 C26 1.819 . S
H1 C15 0.941 . S
H2 C16 0.939 . S
H3 C18 0.940 . S
H4 C19 0.940 . S
H5 C21 0.939 . S
H6 C22 0.942 . S
H7 C24 0.940 . S
H8 C25 0.939 . S
H9 C27 0.941 . S
H10 C31 0.939 . S
O11 P0 1.490 . S
H12 C28 0.939 . S
H13 C30 0.940 . S
C14 P0 1.812 . S
C14 C15 1.389 . S
C14 C19 1.391 . S
C15 H1 0.941 . S
C15 C14 1.389 . S
C15 C16 1.397 . S
C16 H2 0.939 . S
C16 C15 1.397 . S
C16 C17 1.378 . S
C17 C16 1.378 . S
C17 C18 1.378 . S
C18 H3 0.940 . S
C18 C17 1.378 . S
C18 C19 1.396 . S
C19 H4 0.940 . S
C19 C14 1.391 . S
C19 C18 1.396 . S
C20 P0 1.803 . S
C20 C21 1.378 . S
C20 C25 1.400 . S
C21 H5 0.939 . S
C21 C20 1.378 . S
C21 C22 1.361 . S
C22 H6 0.942 . S
C22 C21 1.361 . S
C22 C23 1.369 . S
C23 C22 1.369 . S
C23 C24 1.404 . S
C24 H7 0.940 . S
C24 C23 1.404 . S
C24 C25 1.389 . S
C25 H8 0.939 . S
C25 C20 1.400 . S
C25 C24 1.389 . S
C26 P0 1.819 . S
C26 C27 1.391 . S
C26 C31 1.391 . S
C27 H9 0.941 . S
C27 C26 1.391 . S
C27 C28 1.396 . S
C28 H12 0.939 . S
C28 C27 1.396 . S
C28 C29 1.397 . S
C29 C28 1.397 . S
C29 C30 1.385 . S
C30 H13 0.940 . S
C30 C29 1.385 . S
C30 C31 1.388 . S
C31 H10 0.939 . S
C31 C26 1.391 . S
C31 C30 1.388 . S
P32 O43 1.490 . S
P32 C46 1.812 . S
P32 C52 1.803 . S
P32 C58 1.819 . S
H33 C47 0.941 . S
H34 C48 0.939 . S
H35 C50 0.940 . S
H36 C51 0.940 . S
H37 C53 0.939 . S
H38 C54 0.942 . S
H39 C56 0.940 . S
H40 C57 0.939 . S
H41 C59 0.941 . S
H42 C63 0.939 . S
O43 P32 1.490 . S
H44 C60 0.939 . S
H45 C62 0.940 . S
C46 P32 1.812 . S
C46 C47 1.389 . S
C46 C51 1.391 . S
C47 H33 0.941 . S
C47 C46 1.389 . S
C47 C48 1.397 . S
C48 H34 0.939 . S
C48 C47 1.397 . S
C48 C49 1.378 . S
C49 C48 1.378 . S
C49 C50 1.378 . S
C50 H35 0.940 . S
C50 C49 1.378 . S
C50 C51 1.396 . S
C51 H36 0.940 . S
C51 C46 1.391 . S
C51 C50 1.396 . S
C52 P32 1.803 . S
C52 C53 1.378 . S
C52 C57 1.400 . S
C53 H37 0.939 . S
C53 C52 1.378 . S
C53 C54 1.361 . S
C54 H38 0.942 . S
C54 C53 1.361 . S
C54 C55 1.369 . S
C55 C54 1.369 . S
C55 C56 1.404 . S
C56 H39 0.940 . S
C56 C55 1.404 . S
C56 C57 1.389 . S
C57 H40 0.939 . S
C57 C52 1.400 . S
C57 C56 1.389 . S
C58 P32 1.819 . S
C58 C59 1.391 . S
C58 C63 1.391 . S
C59 H41 0.941 . S
C59 C58 1.391 . S
C59 C60 1.396 . S
C60 H44 0.939 . S
C60 C59 1.396 . S
C60 C61 1.397 . S
C61 C60 1.397 . S
C61 C62 1.385 . S
C62 H45 0.940 . S
C62 C61 1.385 . S
C62 C63 1.388 . S
C63 H42 0.939 . S
C63 C58 1.391 . S
C63 C62 1.388 . S
P64 O75 1.490 . S
P64 C78 1.812 . S
P64 C84 1.803 . S
P64 C90 1.819 . S
H65 C79 0.941 . S
H66 C80 0.939 . S
H67 C82 0.940 . S
H68 C83 0.940 . S
H69 C85 0.939 . S
H70 C86 0.942 . S
H71 C88 0.940 . S
H72 C89 0.939 . S
H73 C91 0.941 . S
H74 C95 0.939 . S
O75 P64 1.490 . S
H76 C92 0.939 . S
H77 C94 0.940 . S
C78 P64 1.812 . S
C78 C79 1.389 . S
C78 C83 1.391 . S
C79 H65 0.941 . S
C79 C78 1.389 . S
C79 C80 1.397 . S
C80 H66 0.939 . S
C80 C79 1.397 . S
C80 C81 1.378 . S
C81 C80 1.378 . S
C81 C82 1.378 . S
C82 H67 0.940 . S
C82 C81 1.378 . S
C82 C83 1.396 . S
C83 H68 0.940 . S
C83 C78 1.391 . S
C83 C82 1.396 . S
C84 P64 1.803 . S
C84 C85 1.378 . S
C84 C89 1.400 . S
C85 H69 0.939 . S
C85 C84 1.378 . S
C85 C86 1.361 . S
C86 H70 0.942 . S
C86 C85 1.361 . S
C86 C87 1.369 . S
C87 C86 1.369 . S
C87 C88 1.404 . S
C88 H71 0.940 . S
C88 C87 1.404 . S
C88 C89 1.389 . S
C89 H72 0.939 . S
C89 C84 1.400 . S
C89 C88 1.389 . S
C90 P64 1.819 . S
C90 C91 1.391 . S
C90 C95 1.391 . S
C91 H73 0.941 . S
C91 C90 1.391 . S
C91 C92 1.396 . S
C92 H76 0.939 . S
C92 C91 1.396 . S
C92 C93 1.397 . S
C93 C92 1.397 . S
C93 C94 1.385 . S
C94 H77 0.940 . S
C94 C93 1.385 . S
C94 C95 1.388 . S
C95 H74 0.939 . S
C95 C90 1.391 . S
C95 C94 1.388 . S
P96 O107 1.490 . S
P96 C110 1.812 . S
P96 C116 1.803 . S
P96 C122 1.819 . S
H97 C111 0.941 . S
H98 C112 0.939 . S
H99 C114 0.940 . S
H100 C115 0.940 . S
H101 C117 0.939 . S
H102 C118 0.942 . S
H103 C120 0.940 . S
H104 C121 0.939 . S
H105 C123 0.941 . S
H106 C127 0.939 . S
O107 P96 1.490 . S
H108 C124 0.939 . S
H109 C126 0.940 . S
C110 P96 1.812 . S
C110 C111 1.389 . S
C110 C115 1.391 . S
C111 H97 0.941 . S
C111 C110 1.389 . S
C111 C112 1.397 . S
C112 H98 0.939 . S
C112 C111 1.397 . S
C112 C113 1.378 . S
C113 C112 1.378 . S
C113 C114 1.378 . S
C114 H99 0.940 . S
C114 C113 1.378 . S
C114 C115 1.396 . S
C115 H100 0.940 . S
C115 C110 1.391 . S
C115 C114 1.396 . S
C116 P96 1.803 . S
C116 C117 1.378 . S
C116 C121 1.400 . S
C117 H101 0.939 . S
C117 C116 1.378 . S
C117 C118 1.361 . S
C118 H102 0.942 . S
C118 C117 1.361 . S
C118 C119 1.369 . S
C119 C118 1.369 . S
C119 C120 1.404 . S
C120 H103 0.940 . S
C120 C119 1.404 . S
C120 C121 1.389 . S
C121 H104 0.939 . S
C121 C116 1.400 . S
C121 C120 1.389 . S
C122 P96 1.819 . S
C122 C123 1.391 . S
C122 C127 1.391 . S
C123 H105 0.941 . S
C123 C122 1.391 . S
C123 C124 1.396 . S
C124 H108 0.939 . S
C124 C123 1.396 . S
C124 C125 1.397 . S
C125 C124 1.397 . S
C125 C126 1.385 . S
C126 H109 0.940 . S
C126 C125 1.385 . S
C126 C127 1.388 . S
C127 H106 0.939 . S
C127 C122 1.391 . S
C127 C126 1.388 . S
P128 O139 1.490 . S
P128 C142 1.812 . S
P128 C148 1.803 . S
P128 C154 1.819 . S
H129 C143 0.941 . S
H130 C144 0.939 1_554 S
H131 C146 0.940 . S
H132 C147 0.940 . S
H133 C149 0.939 . S
H134 C150 0.942 . S
H135 C152 0.940 . S
H136 C153 0.939 . S
H137 C155 0.941 1_545 S
H138 C159 0.939 . S
O139 P128 1.490 . S
H140 C156 0.939 1_545 S
H141 C158 0.940 . S
C142 P128 1.812 . S
C142 C143 1.389 . S
C142 C147 1.391 . S
C143 H129 0.941 . S
C143 C142 1.389 . S
C143 C144 1.397 . S
C144 H130 0.939 1_556 S
C144 C143 1.397 . S
C144 C145 1.378 . S
C145 C144 1.378 . S
C145 C146 1.378 . S
C146 H131 0.940 . S
C146 C145 1.378 . S
C146 C147 1.396 . S
C147 H132 0.940 . S
C147 C142 1.391 . S
C147 C146 1.396 . S
C148 P128 1.803 . S
C148 C149 1.378 . S
C148 C153 1.400 . S
C149 H133 0.939 . S
C149 C148 1.378 . S
C149 C150 1.361 . S
C150 H134 0.942 . S
C150 C149 1.361 . S
C150 C151 1.369 . S
C151 C150 1.369 . S
C151 C152 1.404 . S
C152 H135 0.940 . S
C152 C151 1.404 . S
C152 C153 1.389 . S
C153 H136 0.939 . S
C153 C148 1.400 . S
C153 C152 1.389 . S
C154 P128 1.819 . S
C154 C155 1.391 . S
C154 C159 1.391 . S
C155 H137 0.941 1_565 S
C155 C154 1.391 . S
C155 C156 1.396 . S
C156 H140 0.939 1_565 S
C156 C155 1.396 . S
C156 C157 1.397 . S
C157 C156 1.397 . S
C157 C158 1.385 . S
C158 H141 0.940 . S
C158 C157 1.385 . S
C158 C159 1.388 . S
C159 H138 0.939 . S
C159 C154 1.391 . S
C159 C158 1.388 . S
P160 O171 1.490 . S
P160 C174 1.812 . S
P160 C180 1.803 . S
P160 C186 1.819 . S
H161 C175 0.941 . S
H162 C176 0.939 . S
H163 C178 0.940 . S
H164 C179 0.940 . S
H165 C181 0.939 . S
H166 C182 0.942 . S
H167 C184 0.940 . S
H168 C185 0.939 . S
H169 C187 0.941 . S
H170 C191 0.939 . S
O171 P160 1.490 . S
H172 C188 0.939 . S
H173 C190 0.940 . S
C174 P160 1.812 . S
C174 C175 1.389 . S
C174 C179 1.391 . S
C175 H161 0.941 . S
C175 C174 1.389 . S
C175 C176 1.397 . S
C176 H162 0.939 . S
C176 C175 1.397 . S
C176 C177 1.378 . S
C177 C176 1.378 . S
C177 C178 1.378 . S
C178 H163 0.940 . S
C178 C177 1.378 . S
C178 C179 1.396 . S
C179 H164 0.940 . S
C179 C174 1.391 . S
C179 C178 1.396 . S
C180 P160 1.803 . S
C180 C181 1.378 . S
C180 C185 1.400 . S
C181 H165 0.939 . S
C181 C180 1.378 . S
C181 C182 1.361 . S
C182 H166 0.942 . S
C182 C181 1.361 . S
C182 C183 1.369 . S
C183 C182 1.369 . S
C183 C184 1.404 . S
C184 H167 0.940 . S
C184 C183 1.404 . S
C184 C185 1.389 . S
C185 H168 0.939 . S
C185 C180 1.400 . S
C185 C184 1.389 . S
C186 P160 1.819 . S
C186 C187 1.391 . S
C186 C191 1.391 . S
C187 H169 0.941 . S
C187 C186 1.391 . S
C187 C188 1.396 . S
C188 H172 0.939 . S
C188 C187 1.396 . S
C188 C189 1.397 . S
C189 C188 1.397 . S
C189 C190 1.385 . S
C190 H173 0.940 . S
C190 C189 1.385 . S
C190 C191 1.388 . S
C191 H170 0.939 . S
C191 C186 1.391 . S
C191 C190 1.388 . S
P192 O203 1.490 . S
P192 C206 1.812 . S
P192 C212 1.803 . S
P192 C218 1.819 . S
H193 C207 0.941 . S
H194 C208 0.939 . S
H195 C210 0.940 . S
H196 C211 0.940 . S
H197 C213 0.939 . S
H198 C214 0.942 . S
H199 C216 0.940 . S
H200 C217 0.939 . S
H201 C219 0.941 . S
H202 C223 0.939 . S
O203 P192 1.490 . S
H204 C220 0.939 . S
H205 C222 0.940 . S
C206 P192 1.812 . S
C206 C207 1.389 . S
C206 C211 1.391 . S
C207 H193 0.941 . S
C207 C206 1.389 . S
C207 C208 1.397 . S
C208 H194 0.939 . S
C208 C207 1.397 . S
C208 C209 1.378 . S
C209 C208 1.378 . S
C209 C210 1.378 . S
C210 H195 0.940 . S
C210 C209 1.378 . S
C210 C211 1.396 . S
C211 H196 0.940 . S
C211 C206 1.391 . S
C211 C210 1.396 . S
C212 P192 1.803 . S
C212 C213 1.378 . S
C212 C217 1.400 . S
C213 H197 0.939 . S
C213 C212 1.378 . S
C213 C214 1.361 . S
C214 H198 0.942 . S
C214 C213 1.361 . S
C214 C215 1.369 . S
C215 C214 1.369 . S
C215 C216 1.404 . S
C216 H199 0.940 . S
C216 C215 1.404 . S
C216 C217 1.389 . S
C217 H200 0.939 . S
C217 C212 1.400 . S
C217 C216 1.389 . S
C218 P192 1.819 . S
C218 C219 1.391 . S
C218 C223 1.391 . S
C219 H201 0.941 . S
C219 C218 1.391 . S
C219 C220 1.396 . S
C220 H204 0.939 . S
C220 C219 1.396 . S
C220 C221 1.397 . S
C221 C220 1.397 . S
C221 C222 1.385 . S
C222 H205 0.940 . S
C222 C221 1.385 . S
C222 C223 1.388 . S
C223 H202 0.939 . S
C223 C218 1.391 . S
C223 C222 1.388 . S
P224 O235 1.490 . S
P224 C238 1.812 . S
P224 C244 1.803 . S
P224 C250 1.819 . S
H225 C239 0.941 . S
H226 C240 0.939 . S
H227 C242 0.940 . S
H228 C243 0.940 . S
H229 C245 0.939 . S
H230 C246 0.942 . S
H231 C248 0.940 . S
H232 C249 0.939 . S
H233 C251 0.941 . S
H234 C255 0.939 . S
O235 P224 1.490 . S
H236 C252 0.939 . S
H237 C254 0.940 . S
C238 P224 1.812 . S
C238 C239 1.389 . S
C238 C243 1.391 . S
C239 H225 0.941 . S
C239 C238 1.389 . S
C239 C240 1.397 . S
C240 H226 0.939 . S
C240 C239 1.397 . S
C240 C241 1.378 . S
C241 C240 1.378 . S
C241 C242 1.378 . S
C242 H227 0.940 . S
C242 C241 1.378 . S
C242 C243 1.396 . S
C243 H228 0.940 . S
C243 C238 1.391 . S
C243 C242 1.396 . S
C244 P224 1.803 . S
C244 C245 1.378 . S
C244 C249 1.400 . S
C245 H229 0.939 . S
C245 C244 1.378 . S
C245 C246 1.361 . S
C246 H230 0.942 . S
C246 C245 1.361 . S
C246 C247 1.369 . S
C247 C246 1.369 . S
C247 C248 1.404 . S
C248 H231 0.940 . S
C248 C247 1.404 . S
C248 C249 1.389 . S
C249 H232 0.939 . S
C249 C244 1.400 . S
C249 C248 1.389 . S
C250 P224 1.819 . S
C250 C251 1.391 . S
C250 C255 1.391 . S
C251 H233 0.941 . S
C251 C250 1.391 . S
C251 C252 1.396 . S
C252 H236 0.939 . S
C252 C251 1.396 . S
C252 C253 1.397 . S
C253 C252 1.397 . S
C253 C254 1.385 . S
C254 H237 0.940 . S
C254 C253 1.385 . S
C254 C255 1.388 . S
C255 H234 0.939 . S
C255 C250 1.391 . S
C255 C254 1.388 . S
O256 Zn257 1.953 . S
O256 C272 1.225 1_655 S
Zn257 O256 1.953 . S
Zn257 O258 1.949 1_655 S
Zn257 O264 1.919 . S
Zn257 O269 1.924 . S
O258 Zn257 1.949 1_455 S
O258 Zn259 1.923 1_445 S
O258 Zn260 1.950 . S
O258 Zn261 1.945 1_545 S
Zn259 O258 1.923 1_665 S
Zn259 O262 1.933 . S
Zn259 O265 1.941 1_565 S
Zn259 O266 1.965 1_665 S
Zn260 O258 1.950 . S
Zn260 O267 1.938 . S
Zn260 O268 1.906 1_545 S
Zn260 O278 1.953 . S
Zn261 O258 1.945 1_565 S
Zn261 O263 1.932 1_455 S
Zn261 O270 1.977 . S
Zn261 O271 1.910 1_455 S
O262 Zn259 1.933 . S
O262 C273 1.226 . S
O263 Zn261 1.932 1_655 S
O263 C273 1.307 . S
O264 Zn257 1.919 . S
O264 C275 1.253 . S
O265 Zn259 1.941 1_545 S
O265 C275 1.283 . S
O266 Zn259 1.965 1_445 S
O266 C274 1.303 . S
O267 Zn260 1.938 . S
O267 C274 1.247 . S
O268 Zn260 1.906 1_565 S
O268 C276 1.304 . S
O269 Zn257 1.924 . S
O269 C277 1.311 1_545 S
O270 Zn261 1.977 . S
O270 C276 1.272 . S
O271 Zn261 1.910 1_655 S
O271 C277 1.231 . S
C272 O256 1.225 1_455 S
C272 O278 1.298 . S
C273 O262 1.226 . S
C273 O263 1.307 . S
C274 O266 1.303 . S
C274 O267 1.247 . S
C275 O264 1.253 . S
C275 O265 1.283 . S
C276 O268 1.304 . S
C276 O270 1.272 . S
C277 O269 1.311 1_565 S
C277 O271 1.231 . S
O278 Zn260 1.953 . S
O278 C272 1.298 . S
O279 Zn280 1.953 . S
O279 C295 1.225 . S
Zn280 O279 1.953 . S
Zn280 O281 1.949 1_556 S
Zn280 O287 1.919 . S
Zn280 O292 1.924 1_556 S
O281 Zn280 1.949 1_554 S
O281 Zn282 1.923 1_545 S
O281 Zn283 1.950 . S
O281 Zn284 1.945 1_545 S
Zn282 O281 1.923 1_565 S
Zn282 O285 1.933 . S
Zn282 O288 1.941 1_554 S
Zn282 O289 1.965 . S
Zn283 O281 1.950 . S
Zn283 O290 1.938 . S
Zn283 O291 1.906 . S
Zn283 O301 1.953 . S
Zn284 O281 1.945 1_565 S
Zn284 O286 1.932 . S
Zn284 O293 1.977 1_565 S
Zn284 O294 1.910 1_565 S
O285 Zn282 1.933 . S
O285 C296 1.226 . S
O286 Zn284 1.932 . S
O286 C296 1.307 . S
O287 Zn280 1.919 . S
O287 C298 1.253 1_545 S
O288 Zn282 1.941 1_556 S
O288 C298 1.283 . S
O289 Zn282 1.965 . S
O289 C297 1.303 . S
O290 Zn283 1.938 . S
O290 C297 1.247 1_545 S
O291 Zn283 1.906 . S
O291 C299 1.304 . S
O292 Zn280 1.924 1_554 S
O292 C300 1.311 . S
O293 Zn284 1.977 1_545 S
O293 C299 1.272 . S
O294 Zn284 1.910 1_545 S
O294 C300 1.231 . S
C295 O279 1.225 . S
C295 O301 1.298 1_556 S
C296 O285 1.226 . S
C296 O286 1.307 . S
C297 O289 1.303 . S
C297 O290 1.247 1_565 S
C298 O287 1.253 1_565 S
C298 O288 1.283 . S
C299 O291 1.304 . S
C299 O293 1.272 . S
C300 O292 1.311 . S
C300 O294 1.231 . S
O301 Zn283 1.953 . S
O301 C295 1.298 1_554 S
O302 Zn303 1.953 . S
O302 C318 1.225 . S
Zn303 O302 1.953 . S
Zn303 O304 1.949 . S
Zn303 O310 1.919 . S
Zn303 O315 1.924 . S
O304 Zn303 1.949 . S
O304 Zn305 1.923 . S
O304 Zn306 1.950 . S
O304 Zn307 1.945 . S
Zn305 O304 1.923 . S
Zn305 O308 1.933 . S
Zn305 O311 1.941 . S
Zn305 O312 1.965 . S
Zn306 O304 1.950 . S
Zn306 O313 1.938 . S
Zn306 O314 1.906 . S
Zn306 O324 1.953 . S
Zn307 O304 1.945 . S
Zn307 O309 1.932 . S
Zn307 O316 1.977 . S
Zn307 O317 1.910 . S
O308 Zn305 1.933 . S
O308 C319 1.226 . S
O309 Zn307 1.932 . S
O309 C319 1.307 . S
O310 Zn303 1.919 . S
O310 C321 1.253 . S
O311 Zn305 1.941 . S
O311 C321 1.283 . S
O312 Zn305 1.965 . S
O312 C320 1.303 . S
O313 Zn306 1.938 . S
O313 C320 1.247 . S
O314 Zn306 1.906 . S
O314 C322 1.304 . S
O315 Zn303 1.924 . S
O315 C323 1.311 . S
O316 Zn307 1.977 . S
O316 C322 1.272 . S
O317 Zn307 1.910 . S
O317 C323 1.231 . S
C318 O302 1.225 . S
C318 O324 1.298 . S
C319 O308 1.226 . S
C319 O309 1.307 . S
C320 O312 1.303 . S
C320 O313 1.247 . S
C321 O310 1.253 . S
C321 O311 1.283 . S
C322 O314 1.304 . S
C322 O316 1.272 . S
C323 O315 1.311 . S
C323 O317 1.231 . S
O324 Zn306 1.953 . S
O324 C318 1.298 . S
O325 Zn326 1.953 . S
O325 C341 1.225 . S
Zn326 O325 1.953 . S
Zn326 O327 1.949 1_655 S
Zn326 O333 1.919 . S
Zn326 O338 1.924 . S
O327 Zn326 1.949 1_455 S
O327 Zn328 1.923 1_454 S
O327 Zn329 1.950 . S
O327 Zn330 1.945 1_554 S
Zn328 O327 1.923 1_656 S
Zn328 O331 1.933 1_655 S
Zn328 O334 1.941 . S
Zn328 O335 1.965 . S
Zn329 O327 1.950 . S
Zn329 O336 1.938 . S
Zn329 O337 1.906 . S
Zn329 O347 1.953 . S
Zn330 O327 1.945 1_556 S
Zn330 O332 1.932 . S
Zn330 O339 1.977 1_556 S
Zn330 O340 1.910 1_556 S
O331 Zn328 1.933 1_455 S
O331 C342 1.226 . S
O332 Zn330 1.932 . S
O332 C342 1.307 . S
O333 Zn326 1.919 . S
O333 C344 1.253 1_554 S
O334 Zn328 1.941 . S
O334 C344 1.283 . S
O335 Zn328 1.965 . S
O335 C343 1.303 . S
O336 Zn329 1.938 . S
O336 C343 1.247 1_454 S
O337 Zn329 1.906 . S
O337 C345 1.304 . S
O338 Zn326 1.924 . S
O338 C346 1.311 1_655 S
O339 Zn330 1.977 1_554 S
O339 C345 1.272 . S
O340 Zn330 1.910 1_554 S
O340 C346 1.231 . S
C341 O325 1.225 . S
C341 O347 1.298 1_655 S
C342 O331 1.226 . S
C342 O332 1.307 . S
C343 O335 1.303 . S
C343 O336 1.247 1_656 S
C344 O333 1.253 1_556 S
C344 O334 1.283 . S
C345 O337 1.304 . S
C345 O339 1.272 . S
C346 O338 1.311 1_455 S
C346 O340 1.231 . S
O347 Zn329 1.953 . S
O347 C341 1.298 1_455 S
H348 C356 0.950 . S
H349 C361 0.950 . S
H350 C358 0.950 . S
H351 C360 0.950 . S
H352 C362 0.969 . S
H353 C364 0.950 . S
H354 C366 0.950 . S
H355 C367 0.950 . S
C356 H348 0.950 . S
C356 C357 1.386 . S
C356 C358 1.391 . S
C357 C356 1.386 . S
C357 C361 1.393 . S
C358 H350 0.950 . S
C358 C356 1.391 . S
C358 C359 1.400 . S
C359 C358 1.400 . S
C359 C360 1.398 . S
C359 C365 1.491 . S
C360 H351 0.950 . S
C360 C359 1.398 . S
C360 C361 1.391 . S
C361 H349 0.950 . S
C361 C357 1.393 . S
C361 C360 1.391 . S
C362 H352 0.969 . S
C362 C363 1.386 . S
C362 C364 1.391 . S
C363 C362 1.386 . S
C363 C367 1.393 . S
C364 H353 0.950 . S
C364 C362 1.391 . S
C364 C365 1.400 . S
C365 C359 1.491 . S
C365 C364 1.400 . S
C365 C366 1.398 . S
C366 H354 0.950 . S
C366 C365 1.398 . S
C366 C367 1.391 . S
C367 H355 0.950 . S
C367 C363 1.393 . S
C367 C366 1.391 . S
H368 C376 0.950 . S
H369 C381 0.950 . S
H370 C378 0.950 . S
H371 C380 0.950 . S
H372 C382 0.950 . S
H373 C384 0.950 . S
H374 C386 0.950 . S
H375 C387 0.950 . S
C376 H368 0.950 . S
C376 C377 1.386 . S
C376 C378 1.391 . S
C377 C376 1.386 . S
C377 C381 1.393 . S
C378 H370 0.950 . S
C378 C376 1.391 . S
C378 C379 1.400 . S
C379 C378 1.400 . S
C379 C380 1.398 . S
C379 C385 1.491 . S
C380 H371 0.950 . S
C380 C379 1.398 . S
C380 C381 1.391 . S
C381 H369 0.950 . S
C381 C377 1.393 . S
C381 C380 1.391 . S
C382 H372 0.950 . S
C382 C383 1.386 . S
C382 C384 1.391 . S
C383 C382 1.386 . S
C383 C387 1.393 . S
C384 H373 0.950 . S
C384 C382 1.391 . S
C384 C385 1.400 . S
C385 C379 1.491 . S
C385 C384 1.400 . S
C385 C386 1.398 . S
C386 H374 0.950 . S
C386 C385 1.398 . S
C386 C387 1.391 . S
C387 H375 0.950 . S
C387 C383 1.393 . S
C387 C386 1.391 . S
H388 C396 0.950 . S
H389 C401 0.950 . S
H390 C398 0.950 . S
H391 C400 0.950 . S
H392 C402 0.950 . S
H393 C404 0.950 . S
H394 C406 0.950 . S
H395 C407 0.950 . S
C396 H388 0.950 . S
C396 C397 1.386 . S
C396 C398 1.391 . S
C397 C396 1.386 . S
C397 C401 1.393 . S
C398 H390 0.950 . S
C398 C396 1.391 . S
C398 C399 1.400 . S
C399 C398 1.400 . S
C399 C400 1.398 . S
C399 C405 1.491 . S
C400 H391 0.950 . S
C400 C399 1.398 . S
C400 C401 1.391 . S
C401 H389 0.950 . S
C401 C397 1.393 . S
C401 C400 1.391 . S
C402 H392 0.950 . S
C402 C403 1.386 . S
C402 C404 1.391 . S
C403 C402 1.386 . S
C403 C407 1.393 . S
C404 H393 0.950 . S
C404 C402 1.391 . S
C404 C405 1.400 . S
C405 C399 1.491 . S
C405 C404 1.400 . S
C405 C406 1.398 . S
C406 H394 0.950 . S
C406 C405 1.398 . S
C406 C407 1.391 . S
C407 H395 0.950 . S
C407 C403 1.393 . S
C407 C406 1.391 . S
H408 C416 0.950 . S
H409 C421 0.950 . S
H410 C418 0.950 . S
H411 C420 0.950 . S
H412 C422 0.950 1_455 S
H413 C424 0.950 . S
H414 C426 0.950 . S
H415 C427 0.950 . S
C416 H408 0.950 . S
C416 C417 1.386 . S
C416 C418 1.391 . S
C417 C416 1.386 . S
C417 C421 1.393 . S
C418 H410 0.950 . S
C418 C416 1.391 . S
C418 C419 1.400 . S
C419 C418 1.400 . S
C419 C420 1.398 . S
C419 C425 1.491 . S
C420 H411 0.950 . S
C420 C419 1.398 . S
C420 C421 1.391 . S
C421 H409 0.950 . S
C421 C417 1.393 . S
C421 C420 1.391 . S
C422 H412 0.950 1_655 S
C422 C423 1.386 . S
C422 C424 1.391 . S
C423 C422 1.386 . S
C423 C427 1.393 . S
C424 H413 0.950 . S
C424 C422 1.391 . S
C424 C425 1.400 . S
C425 C419 1.491 . S
C425 C424 1.400 . S
C425 C426 1.398 . S
C426 H414 0.950 . S
C426 C425 1.398 . S
C426 C427 1.391 . S
C427 H415 0.950 . S
C427 C423 1.393 . S
C427 C426 1.391 . S
H428 C436 0.950 . S
H429 C441 0.950 . S
H430 C438 0.950 . S
H431 C440 0.950 . S
H432 C442 0.950 . S
H433 C444 0.950 . S
H434 C446 0.950 . S
H435 C447 0.950 . S
C436 H428 0.950 . S
C436 C437 1.386 . S
C436 C438 1.391 . S
C437 C436 1.386 . S
C437 C441 1.393 . S
C438 H430 0.950 . S
C438 C436 1.391 . S
C438 C439 1.400 . S
C439 C438 1.400 . S
C439 C440 1.398 . S
C439 C445 1.491 . S
C440 H431 0.950 . S
C440 C439 1.398 . S
C440 C441 1.391 . S
C441 H429 0.950 . S
C441 C437 1.393 . S
C441 C440 1.391 . S
C442 H432 0.950 . S
C442 C443 1.386 . S
C442 C444 1.391 . S
C443 C442 1.386 . S
C443 C447 1.393 . S
C444 H433 0.950 . S
C444 C442 1.391 . S
C444 C445 1.400 . S
C445 C439 1.491 . S
C445 C444 1.400 . S
C445 C446 1.398 . S
C446 H434 0.950 . S
C446 C445 1.398 . S
C446 C447 1.391 . S
C447 H435 0.950 . S
C447 C443 1.393 . S
C447 C446 1.391 . S
H448 C456 0.950 . S
H449 C461 0.950 . S
H450 C458 0.950 . S
H451 C460 0.950 . S
H452 C462 0.950 . S
H453 C464 0.950 . S
H454 C466 0.950 . S
H455 C467 0.950 . S
C456 H448 0.950 . S
C456 C457 1.386 . S
C456 C458 1.391 . S
C457 C456 1.386 . S
C457 C461 1.393 . S
C458 H450 0.950 . S
C458 C456 1.391 . S
C458 C459 1.400 . S
C459 C458 1.400 . S
C459 C460 1.398 . S
C459 C465 1.491 . S
C460 H451 0.950 . S
C460 C459 1.398 . S
C460 C461 1.391 . S
C461 H449 0.950 . S
C461 C457 1.393 . S
C461 C460 1.391 . S
C462 H452 0.950 . S
C462 C463 1.386 . S
C462 C464 1.391 . S
C463 C462 1.386 . S
C463 C467 1.393 . S
C464 H453 0.950 . S
C464 C462 1.391 . S
C464 C465 1.400 . S
C465 C459 1.491 . S
C465 C464 1.400 . S
C465 C466 1.398 . S
C466 H454 0.950 . S
C466 C465 1.398 . S
C466 C467 1.391 . S
C467 H455 0.950 . S
C467 C463 1.393 . S
C467 C466 1.391 . S
H468 C476 0.950 . S
H469 C481 0.950 . S
H470 C478 0.950 . S
H471 C480 0.950 . S
H472 C482 0.950 1_554 S
H473 C484 0.950 . S
H474 C486 0.950 . S
H475 C487 0.950 . S
C476 H468 0.950 . S
C476 C477 1.386 . S
C476 C478 1.391 . S
C477 C476 1.386 . S
C477 C481 1.393 . S
C478 H470 0.950 . S
C478 C476 1.391 . S
C478 C479 1.400 . S
C479 C478 1.400 . S
C479 C480 1.398 . S
C479 C485 1.491 . S
C480 H471 0.950 . S
C480 C479 1.398 . S
C480 C481 1.391 . S
C481 H469 0.950 . S
C481 C477 1.393 . S
C481 C480 1.391 . S
C482 H472 0.950 1_556 S
C482 C483 1.386 . S
C482 C484 1.391 . S
C483 C482 1.386 . S
C483 C487 1.393 . S
C484 H473 0.950 . S
C484 C482 1.391 . S
C484 C485 1.400 . S
C485 C479 1.491 . S
C485 C484 1.400 . S
C485 C486 1.398 . S
C486 H474 0.950 . S
C486 C485 1.398 . S
C486 C487 1.391 . S
C487 H475 0.950 . S
C487 C483 1.393 . S
C487 C486 1.391 . S
H488 C496 0.950 . S
H489 C501 0.950 . S
H490 C498 0.950 . S
H491 C500 0.950 . S
H492 C502 0.950 . S
H493 C504 0.950 . S
H494 C506 0.950 . S
H495 C507 0.950 . S
C496 H488 0.950 . S
C496 C497 1.386 . S
C496 C498 1.391 . S
C497 C496 1.386 . S
C497 C501 1.393 . S
C498 H490 0.950 . S
C498 C496 1.391 . S
C498 C499 1.400 . S
C499 C498 1.400 . S
C499 C500 1.398 . S
C499 C505 1.491 . S
C500 H491 0.950 . S
C500 C499 1.398 . S
C500 C501 1.391 . S
C501 H489 0.950 . S
C501 C497 1.393 . S
C501 C500 1.391 . S
C502 H492 0.950 . S
C502 C503 1.386 . S
C502 C504 1.391 . S
C503 C502 1.386 . S
C503 C507 1.393 . S
C504 H493 0.950 . S
C504 C502 1.391 . S
C504 C505 1.400 . S
C505 C499 1.491 . S
C505 C504 1.400 . S
C505 C506 1.398 . S
C506 H494 0.950 . S
C506 C505 1.398 . S
C506 C507 1.391 . S
C507 H495 0.950 . S
C507 C503 1.393 . S
C507 C506 1.391 . S
H508 C516 0.950 . S
H509 C521 0.950 . S
H510 C518 0.950 . S
H511 C520 0.950 . S
H512 C522 0.950 . S
H513 C524 0.950 . S
H514 C526 0.950 . S
H515 C527 0.950 . S
C516 H508 0.950 . S
C516 C517 1.386 . S
C516 C518 1.391 . S
C517 C516 1.386 . S
C517 C521 1.393 . S
C518 H510 0.950 . S
C518 C516 1.391 . S
C518 C519 1.400 . S
C519 C518 1.400 . S
C519 C520 1.398 . S
C519 C525 1.491 . S
C520 H511 0.950 . S
C520 C519 1.398 . S
C520 C521 1.391 . S
C521 H509 0.950 . S
C521 C517 1.393 . S
C521 C520 1.391 . S
C522 H512 0.950 . S
C522 C523 1.386 . S
C522 C524 1.391 . S
C523 C522 1.386 . S
C523 C527 1.393 . S
C524 H513 0.950 . S
C524 C522 1.391 . S
C524 C525 1.400 . S
C525 C519 1.491 . S
C525 C524 1.400 . S
C525 C526 1.398 . S
C526 H514 0.950 . S
C526 C525 1.398 . S
C526 C527 1.391 . S
C527 H515 0.950 . S
C527 C523 1.393 . S
C527 C526 1.391 . S
H528 C536 0.950 . S
H529 C541 0.950 . S
H530 C538 0.950 . S
H531 C540 0.950 . S
H532 C542 0.950 1_554 S
H533 C544 0.962 . S
H534 C546 0.950 . S
H535 C547 0.950 . S
C536 H528 0.950 . S
C536 C537 1.386 . S
C536 C538 1.391 . S
C537 C536 1.386 . S
C537 C541 1.393 . S
C538 H530 0.950 . S
C538 C536 1.391 . S
C538 C539 1.400 . S
C539 C538 1.400 . S
C539 C540 1.398 . S
C539 C545 1.491 . S
C540 H531 0.950 . S
C540 C539 1.398 . S
C540 C541 1.391 . S
C541 H529 0.950 . S
C541 C537 1.393 . S
C541 C540 1.391 . S
C542 H532 0.950 1_556 S
C542 C543 1.386 . S
C542 C544 1.391 . S
C543 C542 1.386 . S
C543 C547 1.393 . S
C544 H533 0.962 . S
C544 C542 1.391 . S
C544 C545 1.400 . S
C545 C539 1.491 . S
C545 C544 1.400 . S
C545 C546 1.398 . S
C546 H534 0.950 . S
C546 C545 1.398 . S
C546 C547 1.391 . S
C547 H535 0.950 . S
C547 C543 1.393 . S
C547 C546 1.391 . S
H548 C556 0.950 . S
H549 C561 0.950 . S
H550 C558 0.950 . S
H551 C560 0.950 . S
H552 C562 0.950 . S
H553 C564 0.950 . S
H554 C566 0.950 . S
H555 C567 0.950 1_455 S
C556 H548 0.950 . S
C556 C557 1.386 . S
C556 C558 1.391 . S
C557 C556 1.386 . S
C557 C561 1.393 . S
C558 H550 0.950 . S
C558 C556 1.391 . S
C558 C559 1.400 . S
C559 C558 1.400 . S
C559 C560 1.398 . S
C559 C565 1.491 . S
C560 H551 0.950 . S
C560 C559 1.398 . S
C560 C561 1.391 . S
C561 H549 0.950 . S
C561 C557 1.393 . S
C561 C560 1.391 . S
C562 H552 0.950 . S
C562 C563 1.386 . S
C562 C564 1.391 . S
C563 C562 1.386 . S
C563 C567 1.393 . S
C564 H553 0.950 . S
C564 C562 1.391 . S
C564 C565 1.400 . S
C565 C559 1.491 . S
C565 C564 1.400 . S
C565 C566 1.398 . S
C566 H554 0.950 . S
C566 C565 1.398 . S
C566 C567 1.391 . S
C567 H555 0.950 1_655 S
C567 C563 1.393 . S
C567 C566 1.391 . S
H568 C576 0.950 . S
H569 C581 0.950 . S
H570 C578 0.950 . S
H571 C580 0.950 . S
H572 C582 0.950 . S
H573 C584 0.950 . S
H574 C586 0.950 . S
H575 C587 0.950 . S
C576 H568 0.950 . S
C576 C577 1.386 . S
C576 C578 1.391 . S
C577 C576 1.386 . S
C577 C581 1.393 . S
C578 H570 0.950 . S
C578 C576 1.391 . S
C578 C579 1.400 . S
C579 C578 1.400 . S
C579 C580 1.398 . S
C579 C585 1.491 . S
C580 H571 0.950 . S
C580 C579 1.398 . S
C580 C581 1.391 . S
C581 H569 0.950 . S
C581 C577 1.393 . S
C581 C580 1.391 . S
C582 H572 0.950 . S
C582 C583 1.386 . S
C582 C584 1.391 . S
C583 C582 1.386 . S
C583 C587 1.393 . S
C584 H573 0.950 . S
C584 C582 1.391 . S
C584 C585 1.400 . S
C585 C579 1.491 . S
C585 C584 1.400 . S
C585 C586 1.398 . S
C586 H574 0.950 . S
C586 C585 1.398 . S
C586 C587 1.391 . S
C587 H575 0.950 . S
C587 C583 1.393 . S
C587 C586 1.391 . S
H588 C596 0.950 . S
H589 C601 0.950 . S
H590 C598 0.950 . S
H591 C600 0.950 . S
H592 C602 0.950 . S
H593 C604 0.950 . S
H594 C606 0.950 . S
H595 C607 0.950 . S
C596 H588 0.950 . S
C596 C597 1.386 1_545 S
C596 C598 1.391 . S
C597 C596 1.386 1_565 S
C597 C601 1.393 . S
C598 H590 0.950 . S
C598 C596 1.391 . S
C598 C599 1.400 1_545 S
C599 C598 1.400 1_565 S
C599 C600 1.398 . S
C599 C605 1.491 . S
C600 H591 0.950 . S
C600 C599 1.398 . S
C600 C601 1.391 . S
C601 H589 0.950 . S
C601 C597 1.393 . S
C601 C600 1.391 . S
C602 H592 0.950 . S
C602 C603 1.386 . S
C602 C604 1.391 . S
C603 C602 1.386 . S
C603 C607 1.393 1_565 S
C604 H593 0.950 . S
C604 C602 1.391 . S
C604 C605 1.400 . S
C605 C599 1.491 . S
C605 C604 1.400 . S
C605 C606 1.398 1_565 S
C606 H594 0.950 . S
C606 C605 1.398 1_545 S
C606 C607 1.391 . S
C607 H595 0.950 . S
C607 C603 1.393 1_545 S
C607 C606 1.391 . S
H608 C616 0.950 1_565 S
H609 C621 0.950 . S
H610 C618 0.950 1_565 S
H611 C620 0.950 . S
H612 C622 0.950 . S
H613 C624 0.950 . S
H614 C626 0.950 . S
H615 C627 0.950 . S
C616 H608 0.950 1_545 S
C616 C617 1.386 . S
C616 C618 1.391 . S
C617 C616 1.386 . S
C617 C621 1.393 . S
C618 H610 0.950 1_545 S
C618 C616 1.391 . S
C618 C619 1.400 . S
C619 C618 1.400 . S
C619 C620 1.398 . S
C619 C625 1.491 . S
C620 H611 0.950 . S
C620 C619 1.398 . S
C620 C621 1.391 . S
C621 H609 0.950 . S
C621 C617 1.393 . S
C621 C620 1.391 . S
C622 H612 0.950 . S
C622 C623 1.386 . S
C622 C624 1.391 . S
C623 C622 1.386 . S
C623 C627 1.393 1_545 S
C624 H613 0.950 . S
C624 C622 1.391 . S
C624 C625 1.400 . S
C625 C619 1.491 . S
C625 C624 1.400 . S
C625 C626 1.398 1_545 S
C626 H614 0.950 . S
C626 C625 1.398 1_565 S
C626 C627 1.391 . S
C627 H615 0.950 . S
C627 C623 1.393 1_565 S
C627 C626 1.391 . S
H628 C636 0.950 . S
H629 C641 0.950 . S
H630 C638 0.950 . S
H631 C640 0.950 . S
H632 C642 0.950 . S
H633 C644 0.950 . S
H634 C646 0.950 . S
H635 C647 0.950 . S
C636 H628 0.950 . S
C636 C637 1.386 . S
C636 C638 1.391 . S
C637 C636 1.386 . S
C637 C641 1.393 . S
C638 H630 0.950 . S
C638 C636 1.391 . S
C638 C639 1.400 . S
C639 C638 1.400 . S
C639 C640 1.398 . S
C639 C645 1.491 . S
C640 H631 0.950 . S
C640 C639 1.398 . S
C640 C641 1.391 . S
C641 H629 0.950 . S
C641 C637 1.393 . S
C641 C640 1.391 . S
C642 H632 0.950 . S
C642 C643 1.386 . S
C642 C644 1.391 . S
C643 C642 1.386 . S
C643 C647 1.393 . S
C644 H633 0.950 . S
C644 C642 1.391 . S
C644 C645 1.400 . S
C645 C639 1.491 . S
C645 C644 1.400 . S
C645 C646 1.398 . S
C646 H634 0.950 . S
C646 C645 1.398 . S
C646 C647 1.391 . S
C647 H635 0.950 . S
C647 C643 1.393 . S
C647 C646 1.391 . S
H648 C656 0.950 . S
H649 C661 0.950 . S
H650 C658 0.950 . S
H651 C660 0.950 . S
H652 C662 0.950 . S
H653 C664 0.950 . S
H654 C666 0.950 . S
H655 C667 0.950 . S
C656 H648 0.950 . S
C656 C657 1.386 . S
C656 C658 1.391 . S
C657 C656 1.386 . S
C657 C661 1.393 . S
C658 H650 0.950 . S
C658 C656 1.391 . S
C658 C659 1.400 . S
C659 C658 1.400 . S
C659 C660 1.398 . S
C659 C665 1.491 . S
C660 H651 0.950 . S
C660 C659 1.398 . S
C660 C661 1.391 . S
C661 H649 0.950 . S
C661 C657 1.393 . S
C661 C660 1.391 . S
C662 H652 0.950 . S
C662 C663 1.386 . S
C662 C664 1.391 . S
C663 C662 1.386 . S
C663 C667 1.393 . S
C664 H653 0.950 . S
C664 C662 1.391 . S
C664 C665 1.400 . S
C665 C659 1.491 . S
C665 C664 1.400 . S
C665 C666 1.398 . S
C666 H654 0.950 . S
C666 C665 1.398 . S
C666 C667 1.391 . S
C667 H655 0.950 . S
C667 C663 1.393 . S
C667 C666 1.391 . S
H668 C676 0.950 . S
H669 C681 0.950 . S
H670 C678 0.950 . S
H671 C680 0.950 . S
H672 C682 0.950 . S
H673 C684 0.950 . S
H674 C686 0.950 . S
H675 C687 0.950 . S
C676 H668 0.950 . S
C676 C677 1.386 . S
C676 C678 1.391 . S
C677 C676 1.386 . S
C677 C681 1.393 1_565 S
C678 H670 0.950 . S
C678 C676 1.391 . S
C678 C679 1.400 . S
C679 C678 1.400 . S
C679 C680 1.398 1_565 S
C679 C685 1.491 . S
C680 H671 0.950 . S
C680 C679 1.398 1_545 S
C680 C681 1.391 . S
C681 H669 0.950 . S
C681 C677 1.393 1_545 S
C681 C680 1.391 . S
C682 H672 0.950 . S
C682 C683 1.386 1_545 S
C682 C684 1.391 . S
C683 C682 1.386 1_565 S
C683 C687 1.393 . S
C684 H673 0.950 . S
C684 C682 1.391 . S
C684 C685 1.400 1_545 S
C685 C679 1.491 . S
C685 C684 1.400 1_565 S
C685 C686 1.398 . S
C686 H674 0.950 . S
C686 C685 1.398 . S
C686 C687 1.391 . S
C687 H675 0.950 . S
C687 C683 1.393 . S
C687 C686 1.391 . S
H688 C696 0.950 . S
H689 C701 0.950 1_565 S
H690 C698 0.950 . S
H691 C700 0.950 1_565 S
H692 C702 0.934 1_565 S
H693 C704 0.950 1_565 S
H694 C706 0.950 . S
H695 C707 0.950 . S
C696 H688 0.950 . S
C696 C697 1.386 . S
C696 C698 1.391 . S
C697 C696 1.386 . S
C697 C701 1.393 . S
C698 H690 0.950 . S
C698 C696 1.391 . S
C698 C699 1.400 . S
C699 C698 1.400 . S
C699 C700 1.398 . S
C699 C705 1.491 . S
C700 H691 0.950 1_545 S
C700 C699 1.398 . S
C700 C701 1.391 . S
C701 H689 0.950 1_545 S
C701 C697 1.393 . S
C701 C700 1.391 . S
C702 H692 0.934 1_545 S
C702 C703 1.399 . S
C702 C704 1.393 . S
C703 C702 1.399 . S
C703 C707 1.393 . S
C704 H693 0.950 1_545 S
C704 C702 1.393 . S
C704 C705 1.400 . S
C705 C699 1.491 . S
C705 C704 1.400 . S
C705 C706 1.398 . S
C706 H694 0.950 . S
C706 C705 1.398 . S
C706 C707 1.391 . S
C707 H695 0.950 . S
C707 C703 1.393 . S
C707 C706 1.391 . S
H708 C716 0.950 . S
H709 C721 0.950 . S
H710 C718 0.950 . S
H711 C720 0.954 . S
H712 C722 0.950 . S
H713 C724 0.950 1_556 S
H714 C726 0.950 . S
H715 C727 0.950 . S
C716 H708 0.950 . S
C716 C717 1.386 . S
C716 C718 1.391 . S
C717 C716 1.386 . S
C717 C721 1.393 . S
C718 H710 0.950 . S
C718 C716 1.391 . S
C718 C719 1.400 . S
C719 C718 1.400 . S
C719 C720 1.398 . S
C719 C725 1.491 . S
C720 H711 0.954 . S
C720 C719 1.398 . S
C720 C721 1.391 . S
C721 H709 0.950 . S
C721 C717 1.393 . S
C721 C720 1.391 . S
C722 H712 0.950 . S
C722 C723 1.386 1_556 S
C722 C724 1.391 1_556 S
C723 C722 1.386 1_554 S
C723 C727 1.393 . S
C724 H713 0.950 1_554 S
C724 C722 1.391 1_554 S
C724 C725 1.400 . S
C725 C719 1.491 . S
C725 C724 1.400 . S
C725 C726 1.398 . S
C726 H714 0.950 . S
C726 C725 1.398 . S
C726 C727 1.391 . S
C727 H715 0.950 . S
C727 C723 1.393 . S
C727 C726 1.391 . S
H728 C736 0.950 . S
H729 C741 0.950 . S
H730 C738 0.950 . S
H731 C740 0.950 . S
H732 C742 0.950 . S
H733 C744 0.950 . S
H734 C746 0.950 . S
H735 C747 0.950 . S
C736 H728 0.950 . S
C736 C737 1.386 . S
C736 C738 1.391 . S
C737 C736 1.386 . S
C737 C741 1.393 . S
C738 H730 0.950 . S
C738 C736 1.391 . S
C738 C739 1.400 . S
C739 C738 1.400 . S
C739 C740 1.398 . S
C739 C745 1.491 . S
C740 H731 0.950 . S
C740 C739 1.398 . S
C740 C741 1.391 . S
C741 H729 0.950 . S
C741 C737 1.393 . S
C741 C740 1.391 . S
C742 H732 0.950 . S
C742 C743 1.386 . S
C742 C744 1.391 . S
C743 C742 1.386 . S
C743 C747 1.393 . S
C744 H733 0.950 . S
C744 C742 1.391 . S
C744 C745 1.400 . S
C745 C739 1.491 . S
C745 C744 1.400 . S
C745 C746 1.398 . S
C746 H734 0.950 . S
C746 C745 1.398 . S
C746 C747 1.391 . S
C747 H735 0.950 . S
C747 C743 1.393 . S
C747 C746 1.391 . S
H748 C756 0.964 . S
H749 C761 0.950 . S
H750 C758 0.950 1_455 S
H751 C760 0.950 . S
H752 C762 0.950 . S
H753 C764 0.950 . S
H754 C766 0.950 1_455 S
H755 C767 0.944 1_455 S
C756 H748 0.964 . S
C756 C757 1.386 . S
C756 C758 1.391 . S
C757 C756 1.386 . S
C757 C761 1.393 . S
C758 H750 0.950 1_655 S
C758 C756 1.391 . S
C758 C759 1.400 . S
C759 C758 1.400 . S
C759 C760 1.398 . S
C759 C765 1.491 . S
C760 H751 0.950 . S
C760 C759 1.398 . S
C760 C761 1.391 . S
C761 H749 0.950 . S
C761 C757 1.393 . S
C761 C760 1.391 . S
C762 H752 0.950 . S
C762 C763 1.386 . S
C762 C764 1.391 . S
C763 C762 1.386 . S
C763 C767 1.398 . S
C764 H753 0.950 . S
C764 C762 1.391 . S
C764 C765 1.400 . S
C765 C759 1.491 . S
C765 C764 1.400 . S
C765 C766 1.398 . S
C766 H754 0.950 1_655 S
C766 C765 1.398 . S
C766 C767 1.392 . S
C767 H755 0.944 1_655 S
C767 C763 1.398 . S
C767 C766 1.392 . S
H768 C776 0.950 . S
H769 C781 0.950 . S
H770 C778 0.950 . S
H771 C780 0.950 . S
H772 C782 0.950 . S
H773 C784 0.950 . S
H774 C786 0.950 . S
H775 C787 0.950 . S
C776 H768 0.950 . S
C776 C777 1.386 . S
C776 C778 1.391 . S
C777 C776 1.386 . S
C777 C781 1.393 . S
C778 H770 0.950 . S
C778 C776 1.391 . S
C778 C779 1.400 . S
C779 C778 1.400 . S
C779 C780 1.398 . S
C779 C785 1.491 . S
C780 H771 0.950 . S
C780 C779 1.398 . S
C780 C781 1.391 . S
C781 H769 0.950 . S
C781 C777 1.393 . S
C781 C780 1.391 . S
C782 H772 0.950 . S
C782 C783 1.386 . S
C782 C784 1.391 . S
C783 C782 1.386 . S
C783 C787 1.393 . S
C784 H773 0.950 . S
C784 C782 1.391 . S
C784 C785 1.400 . S
C785 C779 1.491 . S
C785 C784 1.400 . S
C785 C786 1.398 . S
C786 H774 0.950 . S
C786 C785 1.398 . S
C786 C787 1.391 . S
C787 H775 0.950 . S
C787 C783 1.393 . S
C787 C786 1.391 . S
H788 C796 0.950 . S
H789 C801 0.950 . S
H790 C798 0.950 . S
H791 C800 0.950 . S
H792 C802 0.950 . S
H793 C804 0.950 . S
H794 C806 0.950 . S
H795 C807 0.950 . S
C796 H788 0.950 . S
C796 C797 1.386 . S
C796 C798 1.391 . S
C797 C796 1.386 . S
C797 C801 1.393 . S
C798 H790 0.950 . S
C798 C796 1.391 . S
C798 C799 1.400 . S
C799 C798 1.400 . S
C799 C800 1.398 . S
C799 C805 1.491 . S
C800 H791 0.950 . S
C800 C799 1.398 . S
C800 C801 1.391 . S
C801 H789 0.950 . S
C801 C797 1.393 . S
C801 C800 1.391 . S
C802 H792 0.950 . S
C802 C803 1.386 . S
C802 C804 1.391 . S
C803 C802 1.386 . S
C803 C807 1.393 . S
C804 H793 0.950 . S
C804 C802 1.391 . S
C804 C805 1.400 . S
C805 C799 1.491 . S
C805 C804 1.400 . S
C805 C806 1.398 . S
C806 H794 0.950 . S
C806 C805 1.398 . S
C806 C807 1.391 . S
C807 H795 0.950 . S
C807 C803 1.393 . S
C807 C806 1.391 . S
H808 C816 0.950 . S
H809 C821 0.950 . S
H810 C818 0.950 . S
H811 C820 0.950 . S
H812 C822 0.950 . S
H813 C824 0.950 . S
H814 C826 0.950 . S
H815 C827 0.950 . S
C816 H808 0.950 . S
C816 C817 1.386 . S
C816 C818 1.391 . S
C817 C816 1.386 . S
C817 C821 1.393 . S
C818 H810 0.950 . S
C818 C816 1.391 . S
C818 C819 1.400 . S
C819 C818 1.400 . S
C819 C820 1.398 . S
C819 C825 1.491 . S
C820 H811 0.950 . S
C820 C819 1.398 . S
C820 C821 1.391 . S
C821 H809 0.950 . S
C821 C817 1.393 . S
C821 C820 1.391 . S
C822 H812 0.950 . S
C822 C823 1.386 . S
C822 C824 1.391 . S
C823 C822 1.386 . S
C823 C827 1.393 . S
C824 H813 0.950 . S
C824 C822 1.391 . S
C824 C825 1.400 . S
C825 C819 1.491 . S
C825 C824 1.400 . S
C825 C826 1.398 . S
C826 H814 0.950 . S
C826 C825 1.398 . S
C826 C827 1.391 . S
C827 H815 0.950 . S
C827 C823 1.393 . S
C827 C826 1.391 . S
C357 C29 1.567 . S
C363 C274 1.608 . S
C377 C49 1.553 . S
C383 C298 1.517 . S
C403 C318 1.456 . S
C397 C93 1.375 . S
C417 C119 1.304 . S
C423 C341 1.394 . S
C443 C300 1.647 . S
C437 C17 1.630 . S
C463 C276 1.684 . S
C457 C61 1.712 . S
C483 C344 1.548 . S
C477 C81 1.522 . S
C503 C321 1.584 . S
C497 C125 1.535 . S
C517 C23 1.330 . S
C523 C346 1.333 . S
C543 C295 1.606 . S
C537 C87 1.528 . S
C557 C113 1.566 . S
C563 C273 1.656 . S
C577 C55 1.383 . S
C583 C323 1.337 . S
C603 C277 1.638 . S
C597 C157 1.650 . S
C617 C189 1.520 . S
C623 C299 1.614 . S
C637 C221 1.776 . S
C643 C319 1.773 . S
C657 C253 1.662 . S
C663 C342 1.786 . S
C677 C145 1.630 . S
C683 C297 1.593 1_556 S
C703 C275 1.543 . S
C697 C183 1.446 . S
C723 C345 1.486 . S
C717 C209 1.535 . S
C743 C322 1.487 . S
C737 C247 1.454 . S
C757 C151 1.895 . S
C763 C343 1.830 . S
C783 C296 1.553 . S
C777 C215 1.569 . S
C803 C272 1.601 . S
C797 C241 1.507 . S
C817 C177 1.783 . S
C823 C320 1.846 . S
