# Generated by pormake.
# Topology eea, (3,6)-cn, num edge types: 1
# Building blocks:
#     Node 0, Type 0, BuildingBlock: MIDCAF_clean_linker_0, # of connection points: 3
#     Node 1, Type 0, BuildingBlock: MIDCAF_clean_linker_0, # of connection points: 3
#     Node 2, Type 0, BuildingBlock: MIDCAF_clean_linker_0, # of connection points: 3
#     Node 3, Type 0, BuildingBlock: MIDCAF_clean_linker_0, # of connection points: 3
#     Node 4, Type 0, BuildingBlock: MIDCAF_clean_linker_0, # of connection points: 3
#     Node 5, Type 0, BuildingBlock: MIDCAF_clean_linker_0, # of connection points: 3
#     Node 6, Type 0, BuildingBlock: MIDCAF_clean_linker_0, # of connection points: 3
#     Node 7, Type 0, BuildingBlock: MIDCAF_clean_linker_0, # of connection points: 3
#     Node 8, Type 0, BuildingBlock: MIDCAF_clean_linker_0, # of connection points: 3
#     Node 9, Type 0, BuildingBlock: MIDCAF_clean_linker_0, # of connection points: 3
#     Node 10, Type 0, BuildingBlock: MIDCAF_clean_linker_0, # of connection points: 3
#     Node 11, Type 0, BuildingBlock: MIDCAF_clean_linker_0, # of connection points: 3
#     Node 12, Type 0, BuildingBlock: MIDCAF_clean_linker_0, # of connection points: 3
#     Node 13, Type 0, BuildingBlock: MIDCAF_clean_linker_0, # of connection points: 3
#     Node 14, Type 0, BuildingBlock: MIDCAF_clean_linker_0, # of connection points: 3
#     Node 15, Type 0, BuildingBlock: MIDCAF_clean_linker_0, # of connection points: 3
#     Node 16, Type 0, BuildingBlock: MIDCAF_clean_linker_0, # of connection points: 3
#     Node 17, Type 0, BuildingBlock: MIDCAF_clean_linker_0, # of connection points: 3
#     Node 18, Type 1, BuildingBlock: NUHQIS_clean_sbu_0, # of connection points: 6
#     Node 19, Type 1, BuildingBlock: NUHQIS_clean_sbu_0, # of connection points: 6
#     Node 20, Type 1, BuildingBlock: NUHQIS_clean_sbu_0, # of connection points: 6
#     Node 21, Type 1, BuildingBlock: NUHQIS_clean_sbu_0, # of connection points: 6
#     Node 22, Type 1, BuildingBlock: NUHQIS_clean_sbu_0, # of connection points: 6
#     Node 23, Type 1, BuildingBlock: NUHQIS_clean_sbu_0, # of connection points: 6
#     Node 24, Type 1, BuildingBlock: NUHQIS_clean_sbu_0, # of connection points: 6
#     Node 25, Type 1, BuildingBlock: NUHQIS_clean_sbu_0, # of connection points: 6
#     Node 26, Type 1, BuildingBlock: NUHQIS_clean_sbu_0, # of connection points: 6
#     Edge 27, Type (0, 1), BuildingBlock: UVAHIK_clean_linker_0, # of connection points: 2
#     Edge 28, Type (0, 1), BuildingBlock: UVAHIK_clean_linker_0, # of connection points: 2
#     Edge 29, Type (0, 1), BuildingBlock: UVAHIK_clean_linker_0, # of connection points: 2
#     Edge 30, Type (0, 1), BuildingBlock: UVAHIK_clean_linker_0, # of connection points: 2
#     Edge 31, Type (0, 1), BuildingBlock: UVAHIK_clean_linker_0, # of connection points: 2
#     Edge 32, Type (0, 1), BuildingBlock: UVAHIK_clean_linker_0, # of connection points: 2
#     Edge 33, Type (0, 1), BuildingBlock: UVAHIK_clean_linker_0, # of connection points: 2
#     Edge 34, Type (0, 1), BuildingBlock: UVAHIK_clean_linker_0, # of connection points: 2
#     Edge 35, Type (0, 1), BuildingBlock: UVAHIK_clean_linker_0, # of connection points: 2
#     Edge 36, Type (0, 1), BuildingBlock: UVAHIK_clean_linker_0, # of connection points: 2
#     Edge 37, Type (0, 1), BuildingBlock: UVAHIK_clean_linker_0, # of connection points: 2
#     Edge 38, Type (0, 1), BuildingBlock: UVAHIK_clean_linker_0, # of connection points: 2
#     Edge 39, Type (0, 1), BuildingBlock: UVAHIK_clean_linker_0, # of connection points: 2
#     Edge 40, Type (0, 1), BuildingBlock: UVAHIK_clean_linker_0, # of connection points: 2
#     Edge 41, Type (0, 1), BuildingBlock: UVAHIK_clean_linker_0, # of connection points: 2
#     Edge 42, Type (0, 1), BuildingBlock: UVAHIK_clean_linker_0, # of connection points: 2
#     Edge 43, Type (0, 1), BuildingBlock: UVAHIK_clean_linker_0, # of connection points: 2
#     Edge 44, Type (0, 1), BuildingBlock: UVAHIK_clean_linker_0, # of connection points: 2
#     Edge 45, Type (0, 1), BuildingBlock: UVAHIK_clean_linker_0, # of connection points: 2
#     Edge 46, Type (0, 1), BuildingBlock: UVAHIK_clean_linker_0, # of connection points: 2
#     Edge 47, Type (0, 1), BuildingBlock: UVAHIK_clean_linker_0, # of connection points: 2
#     Edge 48, Type (0, 1), BuildingBlock: UVAHIK_clean_linker_0, # of connection points: 2
#     Edge 49, Type (0, 1), BuildingBlock: UVAHIK_clean_linker_0, # of connection points: 2
#     Edge 50, Type (0, 1), BuildingBlock: UVAHIK_clean_linker_0, # of connection points: 2
#     Edge 51, Type (0, 1), BuildingBlock: UVAHIK_clean_linker_0, # of connection points: 2
#     Edge 52, Type (0, 1), BuildingBlock: UVAHIK_clean_linker_0, # of connection points: 2
#     Edge 53, Type (0, 1), BuildingBlock: UVAHIK_clean_linker_0, # of connection points: 2
#     Edge 54, Type (0, 1), BuildingBlock: UVAHIK_clean_linker_0, # of connection points: 2
#     Edge 55, Type (0, 1), BuildingBlock: UVAHIK_clean_linker_0, # of connection points: 2
#     Edge 56, Type (0, 1), BuildingBlock: UVAHIK_clean_linker_0, # of connection points: 2
#     Edge 57, Type (0, 1), BuildingBlock: UVAHIK_clean_linker_0, # of connection points: 2
#     Edge 58, Type (0, 1), BuildingBlock: UVAHIK_clean_linker_0, # of connection points: 2
#     Edge 59, Type (0, 1), BuildingBlock: UVAHIK_clean_linker_0, # of connection points: 2
#     Edge 60, Type (0, 1), BuildingBlock: UVAHIK_clean_linker_0, # of connection points: 2
#     Edge 61, Type (0, 1), BuildingBlock: UVAHIK_clean_linker_0, # of connection points: 2
#     Edge 62, Type (0, 1), BuildingBlock: UVAHIK_clean_linker_0, # of connection points: 2
#     Edge 63, Type (0, 1), BuildingBlock: UVAHIK_clean_linker_0, # of connection points: 2
#     Edge 64, Type (0, 1), BuildingBlock: UVAHIK_clean_linker_0, # of connection points: 2
#     Edge 65, Type (0, 1), BuildingBlock: UVAHIK_clean_linker_0, # of connection points: 2
#     Edge 66, Type (0, 1), BuildingBlock: UVAHIK_clean_linker_0, # of connection points: 2
#     Edge 67, Type (0, 1), BuildingBlock: UVAHIK_clean_linker_0, # of connection points: 2
#     Edge 68, Type (0, 1), BuildingBlock: UVAHIK_clean_linker_0, # of connection points: 2
#     Edge 69, Type (0, 1), BuildingBlock: UVAHIK_clean_linker_0, # of connection points: 2
#     Edge 70, Type (0, 1), BuildingBlock: UVAHIK_clean_linker_0, # of connection points: 2
#     Edge 71, Type (0, 1), BuildingBlock: UVAHIK_clean_linker_0, # of connection points: 2
#     Edge 72, Type (0, 1), BuildingBlock: UVAHIK_clean_linker_0, # of connection points: 2
#     Edge 73, Type (0, 1), BuildingBlock: UVAHIK_clean_linker_0, # of connection points: 2
#     Edge 74, Type (0, 1), BuildingBlock: UVAHIK_clean_linker_0, # of connection points: 2
#     Edge 75, Type (0, 1), BuildingBlock: UVAHIK_clean_linker_0, # of connection points: 2
#     Edge 76, Type (0, 1), BuildingBlock: UVAHIK_clean_linker_0, # of connection points: 2
#     Edge 77, Type (0, 1), BuildingBlock: UVAHIK_clean_linker_0, # of connection points: 2
#     Edge 78, Type (0, 1), BuildingBlock: UVAHIK_clean_linker_0, # of connection points: 2
#     Edge 79, Type (0, 1), BuildingBlock: UVAHIK_clean_linker_0, # of connection points: 2
#     Edge 80, Type (0, 1), BuildingBlock: UVAHIK_clean_linker_0, # of connection points: 2
# Relax obj value: 0.035
# Max RMSD: 0.134
# Mean RMSD: 0.067
data_MOF--net-eea--node1-NUHQIS_clean_sbu_0--node2-MIDCAF_clean_linker_0--edge1-UVAHIK_clean_linker_0
_symmetry_space_group_name_H-M    P1
_symmetry_Int_Tables_number       1
_symmetry_cell_setting            triclinic
loop_
_symmetry_equiv_pos_as_xyz
'x, y, z'
_cell_length_a     77.996993
_cell_length_b     78.176457
_cell_length_c     107.9832
_cell_angle_alpha  93.487293
_cell_angle_beta   93.695024
_cell_angle_gamma 119.71592
loop_
_atom_site_label
_atom_site_type_symbol
_atom_site_fract_x
_atom_site_fract_y
_atom_site_fract_z
_atom_type_partial_charge
C0 C 0.2742 0.07575 0.40204 0.0
C1 C 0.26412 0.06936 0.38995 0.0
C2 C 0.26138 0.08279 0.38321 0.0
C3 C 0.26782 0.10197 0.38867 0.0
H4 H 0.2695 0.15407 0.38234 0.0
H5 H 0.25882 0.17438 0.37179 0.0
H6 H 0.27121 0.21102 0.40649 0.0
H7 H 0.28232 0.19107 0.41702 0.0
H8 H 0.29905 0.18173 0.44155 0.0
H9 H 0.30585 0.18667 0.46427 0.0
H10 H 0.30408 0.13056 0.46394 0.0
H11 H 0.29715 0.12544 0.44136 0.0
H12 H 0.28796 0.09909 0.41695 0.0
H13 H 0.27687 0.06584 0.40738 0.0
H14 H 0.25357 0.07826 0.37389 0.0
H15 H 0.26492 0.11174 0.38336 0.0
N16 N 0.2786 0.14037 0.40116 0.0
N17 N 0.28817 0.16185 0.41961 0.0
N18 N 0.28851 0.13208 0.4197 0.0
C19 C 0.28172 0.15759 0.40721 0.0
C20 C 0.29168 0.14918 0.42591 0.0
C21 C 0.28204 0.12756 0.40734 0.0
C22 C 0.27667 0.17082 0.40057 0.0
C23 C 0.27012 0.16655 0.38773 0.0
C24 C 0.26389 0.17813 0.38167 0.0
C25 C 0.26403 0.19423 0.38831 0.0
C26 C 0.27111 0.19886 0.40107 0.0
C27 C 0.27739 0.18731 0.40712 0.0
C28 C 0.29738 0.15311 0.43959 0.0
C29 C 0.30023 0.17049 0.4463 0.0
C30 C 0.3042 0.17338 0.45931 0.0
C31 C 0.30528 0.1589 0.46587 0.0
C32 C 0.30298 0.14181 0.45915 0.0
C33 C 0.29912 0.13896 0.44618 0.0
C34 C 0.27714 0.10808 0.40099 0.0
C35 C 0.28064 0.09487 0.4075 0.0
C36 C 0.94642 0.19486 0.41365 0.0
C37 C 0.94623 0.19453 0.40059 0.0
C38 C 0.92799 0.18279 0.39313 0.0
C39 C 0.91061 0.17123 0.39855 0.0
H40 H 0.86103 0.11498 0.39152 0.0
H41 H 0.8367 0.08323 0.38014 0.0
H42 H 0.80352 0.06763 0.41214 0.0
H43 H 0.82754 0.09944 0.42347 0.0
H44 H 0.84683 0.12483 0.44906 0.0
H45 H 0.843 0.13168 0.47066 0.0
H46 H 0.89268 0.19111 0.47179 0.0
H47 H 0.89658 0.18436 0.45007 0.0
H48 H 0.9297 0.18386 0.42916 0.0
H49 H 0.96016 0.20342 0.41973 0.0
H50 H 0.92709 0.18249 0.38307 0.0
H51 H 0.89689 0.16216 0.39252 0.0
N52 N 0.87814 0.14137 0.41049 0.0
N53 N 0.85991 0.13294 0.42773 0.0
N54 N 0.89072 0.16228 0.42931 0.0
C55 C 0.8617 0.12863 0.41567 0.0
C56 C 0.87426 0.14975 0.4346 0.0
C57 C 0.89271 0.15819 0.41724 0.0
C58 C 0.84635 0.1098 0.40846 0.0
C59 C 0.84848 0.10487 0.39613 0.0
C60 C 0.83459 0.08661 0.3896 0.0
C61 C 0.81822 0.07287 0.39524 0.0
C62 C 0.81584 0.07797 0.40746 0.0
C63 C 0.82972 0.0962 0.41399 0.0
C64 C 0.87204 0.15404 0.44779 0.0
C65 C 0.85697 0.13939 0.45386 0.0
C66 C 0.85483 0.14325 0.46628 0.0
C67 C 0.86758 0.1619 0.47292 0.0
C68 C 0.88256 0.17663 0.46687 0.0
C69 C 0.88484 0.17272 0.45445 0.0
C70 C 0.91092 0.17137 0.41158 0.0
C71 C 0.92894 0.18355 0.41909 0.0
C72 C 0.81795 0.7548 0.41544 0.0
C73 C 0.82466 0.77098 0.40837 0.0
C74 C 0.84496 0.78205 0.4069 0.0
C75 C 0.85832 0.77691 0.41234 0.0
H76 H 0.9081 0.77305 0.40456 0.0
H77 H 0.93791 0.78037 0.39488 0.0
H78 H 0.95564 0.75538 0.42425 0.0
H79 H 0.92588 0.7483 0.43414 0.0
H80 H 0.89779 0.73088 0.45604 0.0
H81 H 0.89179 0.71773 0.47624 0.0
H82 H 0.83768 0.72028 0.47531 0.0
H83 H 0.84368 0.73359 0.45528 0.0
H84 H 0.82581 0.73747 0.42661 0.0
H85 H 0.80235 0.74609 0.41671 0.0
H86 H 0.85043 0.79455 0.40144 0.0
H87 H 0.87389 0.78568 0.41103 0.0
N88 N 0.88291 0.76008 0.42053 0.0
N89 N 0.89221 0.74669 0.43676 0.0
N90 N 0.86217 0.74687 0.43628 0.0
C91 C 0.8961 0.75549 0.42599 0.0
C92 C 0.87527 0.74237 0.44199 0.0
C93 C 0.8659 0.75575 0.42558 0.0
C94 C 0.91448 0.76004 0.42017 0.0
C95 C 0.9183 0.76909 0.40901 0.0
C96 C 0.93539 0.77319 0.40339 0.0
C97 C 0.94915 0.76838 0.40874 0.0
C98 C 0.94544 0.75945 0.41994 0.0
C99 C 0.9283 0.75531 0.42558 0.0
C100 C 0.8713 0.73345 0.45401 0.0
C101 C 0.88457 0.72859 0.46011 0.0
C102 C 0.88109 0.72095 0.47167 0.0
C103 C 0.86433 0.71808 0.47743 0.0
C104 C 0.85091 0.72261 0.47123 0.0
C105 C 0.85432 0.73016 0.45968 0.0
C106 C 0.85168 0.76089 0.41958 0.0
C107 C 0.83137 0.74994 0.42113 0.0
C108 C 0.03764 0.22876 0.5873 0.0
C109 C 0.03435 0.21969 0.59845 0.0
C110 C 0.04883 0.21584 0.6038 0.0
C111 C 0.06617 0.22097 0.59821 0.0
H112 H 0.11383 0.21171 0.59952 0.0
H113 H 0.13787 0.20371 0.60883 0.0
H114 H 0.18191 0.24381 0.5866 0.0
H115 H 0.15764 0.25123 0.57695 0.0
H116 H 0.14244 0.26354 0.55346 0.0
H117 H 0.14871 0.27817 0.5339 0.0
H118 H 0.09074 0.27286 0.53088 0.0
H119 H 0.0842 0.25781 0.55047 0.0
H120 H 0.0571 0.24098 0.57316 0.0
H121 H 0.02687 0.23211 0.58299 0.0
H122 H 0.04666 0.20859 0.61227 0.0
H123 H 0.07691 0.21769 0.60265 0.0
N124 N 0.10182 0.23161 0.58664 0.0
N125 N 0.12235 0.24576 0.57095 0.0
N126 N 0.09171 0.24468 0.57058 0.0
C127 C 0.11897 0.23665 0.58156 0.0
C128 C 0.10883 0.2498 0.56536 0.0
C129 C 0.08813 0.23561 0.58127 0.0
C130 C 0.13376 0.2321 0.58745 0.0
C131 C 0.12865 0.21885 0.59662 0.0
C132 C 0.1425 0.21433 0.60202 0.0
C133 C 0.1619 0.22311 0.5985 0.0
C134 C 0.16703 0.23648 0.5894 0.0
C135 C 0.15312 0.24084 0.5839 0.0
C136 C 0.11276 0.2594 0.55359 0.0
C137 C 0.13097 0.26549 0.5487 0.0
C138 C 0.13466 0.27404 0.53748 0.0
C139 C 0.12026 0.27675 0.53082 0.0
C140 C 0.10208 0.27081 0.53572 0.0
C141 C 0.09839 0.26227 0.547 0.0
C142 C 0.06954 0.23011 0.58709 0.0
C143 C 0.05504 0.23394 0.5817 0.0
C144 C 0.71605 0.78555 0.60334 0.0
C145 C 0.71856 0.78619 0.61641 0.0
C146 C 0.71373 0.79838 0.62375 0.0
C147 C 0.7071 0.81003 0.61816 0.0
H148 H 0.71175 0.86526 0.62462 0.0
H149 H 0.72155 0.89758 0.63538 0.0
H150 H 0.70196 0.91362 0.60198 0.0
H151 H 0.69179 0.88128 0.59127 0.0
H152 H 0.67637 0.85227 0.56653 0.0
H153 H 0.66886 0.84778 0.54395 0.0
H154 H 0.68034 0.79905 0.54173 0.0
H155 H 0.68734 0.80314 0.56431 0.0
H156 H 0.70779 0.79632 0.58768 0.0
H157 H 0.71998 0.77669 0.59735 0.0
H158 H 0.71514 0.799 0.63383 0.0
H159 H 0.70377 0.81946 0.62408 0.0
N160 N 0.70118 0.83908 0.60572 0.0
N161 N 0.69065 0.84802 0.58765 0.0
N162 N 0.69272 0.8191 0.58673 0.0
C163 C 0.69703 0.85186 0.60005 0.0
C164 C 0.68838 0.83162 0.58093 0.0
C165 C 0.69901 0.82265 0.59912 0.0
C166 C 0.70112 0.87067 0.60702 0.0
C167 C 0.7093 0.87557 0.61959 0.0
C168 C 0.71503 0.89414 0.62576 0.0
C169 C 0.71268 0.90822 0.61951 0.0
C170 C 0.7038 0.90305 0.60711 0.0
C171 C 0.69807 0.8845 0.60094 0.0
C172 C 0.68258 0.82815 0.56727 0.0
C173 C 0.67716 0.8405 0.56126 0.0
C174 C 0.67296 0.838 0.54829 0.0
C175 C 0.67415 0.82315 0.54102 0.0
C176 C 0.67907 0.81049 0.54705 0.0
C177 C 0.68319 0.81293 0.56002 0.0
C178 C 0.70488 0.80954 0.60511 0.0
C179 C 0.70915 0.79695 0.59776 0.0
C180 C 0.1765 0.9186 0.59639 0.0
C181 C 0.17311 0.92601 0.60758 0.0
C182 C 0.15558 0.91406 0.61293 0.0
C183 C 0.14158 0.89529 0.60708 0.0
H184 H 0.08468 0.85063 0.60787 0.0
H185 H 0.05438 0.83105 0.61727 0.0
H186 H 0.04009 0.78023 0.59139 0.0
H187 H 0.07021 0.80017 0.58161 0.0
H188 H 0.09268 0.81153 0.55538 0.0
H189 H 0.09658 0.80407 0.53374 0.0
H190 H 0.15292 0.85851 0.53676 0.0
H191 H 0.14914 0.86607 0.55816 0.0
H192 H 0.1656 0.89475 0.58186 0.0
H193 H 0.19001 0.92729 0.59213 0.0
H194 H 0.15241 0.91941 0.62148 0.0
H195 H 0.1281 0.88664 0.61137 0.0
N196 N 0.11268 0.85685 0.59434 0.0
N197 N 0.10103 0.83341 0.57669 0.0
N198 N 0.13192 0.86256 0.57769 0.0
C199 C 0.0984 0.83925 0.58821 0.0
C200 C 0.11782 0.84506 0.57136 0.0
C201 C 0.12953 0.86856 0.58917 0.0
C202 C 0.07993 0.82698 0.59397 0.0
C203 C 0.07514 0.83527 0.60417 0.0
C204 C 0.05775 0.82396 0.60963 0.0
C205 C 0.04477 0.80397 0.60517 0.0
C206 C 0.04958 0.79564 0.59498 0.0
C207 C 0.06692 0.80705 0.58941 0.0
C208 C 0.12049 0.8395 0.55853 0.0
C209 C 0.10595 0.82185 0.55145 0.0
C210 C 0.1082 0.81752 0.53907 0.0
C211 C 0.12494 0.83083 0.53352 0.0
C212 C 0.13968 0.84814 0.5407 0.0
C213 C 0.13751 0.85241 0.55303 0.0
C214 C 0.14478 0.88804 0.59573 0.0
C215 C 0.16251 0.89986 0.59053 0.0
C216 C 0.94169 0.40542 0.73516 0.0
C217 C 0.92998 0.39821 0.72358 0.0
C218 C 0.9253 0.41085 0.71729 0.0
C219 C 0.93158 0.43 0.72269 0.0
H220 H 0.93201 0.48152 0.71629 0.0
H221 H 0.92132 0.50203 0.70598 0.0
H222 H 0.93822 0.54088 0.74021 0.0
H223 H 0.94931 0.52073 0.75047 0.0
H224 H 0.96673 0.51177 0.77456 0.0
H225 H 0.97623 0.51826 0.79703 0.0
H226 H 0.97488 0.46234 0.79703 0.0
H227 H 0.96587 0.45602 0.77462 0.0
H228 H 0.95657 0.42941 0.74964 0.0
H229 H 0.94588 0.3962 0.74014 0.0
H230 H 0.91616 0.40569 0.70839 0.0
H231 H 0.92722 0.43912 0.71773 0.0
N232 N 0.94348 0.46894 0.73477 0.0
N233 N 0.95434 0.49104 0.753 0.0
N234 N 0.95501 0.46143 0.75305 0.0
C235 C 0.94691 0.48631 0.74076 0.0
C236 C 0.95848 0.47869 0.75921 0.0
C237 C 0.94757 0.45644 0.74084 0.0
C238 C 0.94146 0.49938 0.73425 0.0
C239 C 0.93359 0.49451 0.72161 0.0
C240 C 0.92735 0.50621 0.7157 0.0
C241 C 0.92883 0.52304 0.72228 0.0
C242 C 0.93709 0.52815 0.73482 0.0
C243 C 0.94336 0.51649 0.74073 0.0
C244 C 0.96544 0.48332 0.77274 0.0
C245 C 0.96861 0.50092 0.77932 0.0
C246 C 0.97394 0.5046 0.79223 0.0
C247 C 0.97624 0.49079 0.79884 0.0
C248 C 0.97349 0.47342 0.79222 0.0
C249 C 0.9682 0.46974 0.77934 0.0
C250 C 0.9426 0.43692 0.73452 0.0
C251 C 0.9479 0.42453 0.74058 0.0
C252 C 0.61104 0.53234 0.74632 0.0
C253 C 0.61361 0.52703 0.73419 0.0
C254 C 0.5981 0.50976 0.72736 0.0
C255 C 0.58054 0.498 0.73254 0.0
H256 H 0.52778 0.44671 0.72458 0.0
H257 H 0.50295 0.4152 0.71314 0.0
H258 H 0.46921 0.40064 0.74491 0.0
H259 H 0.49369 0.43219 0.75626 0.0
H260 H 0.51049 0.45848 0.78083 0.0
H261 H 0.50648 0.46458 0.80244 0.0
H262 H 0.5607 0.52115 0.80576 0.0
H263 H 0.56477 0.51519 0.78393 0.0
H264 H 0.59202 0.52502 0.76093 0.0
H265 H 0.62261 0.54568 0.75178 0.0
H266 H 0.59967 0.50506 0.71806 0.0
H267 H 0.56906 0.48471 0.727 0.0
N268 N 0.54504 0.47322 0.74359 0.0
N269 N 0.52623 0.46533 0.76053 0.0
N270 N 0.55722 0.49446 0.76227 0.0
C271 C 0.52831 0.46077 0.74861 0.0
C272 C 0.54053 0.48211 0.76744 0.0
C273 C 0.55957 0.4901 0.75032 0.0
C274 C 0.51283 0.44202 0.74138 0.0
C275 C 0.51501 0.43687 0.72911 0.0
C276 C 0.50082 0.41875 0.72256 0.0
C277 C 0.48412 0.40539 0.72812 0.0
C278 C 0.48176 0.4107 0.74029 0.0
C279 C 0.49591 0.42879 0.74684 0.0
C280 C 0.53802 0.48631 0.78059 0.0
C281 C 0.52161 0.47228 0.78609 0.0
C282 C 0.51934 0.4757 0.79854 0.0
C283 C 0.53336 0.49326 0.80583 0.0
C284 C 0.54961 0.5075 0.80034 0.0
C285 C 0.55197 0.50403 0.78785 0.0
C286 C 0.57801 0.50314 0.74473 0.0
C287 C 0.59344 0.52054 0.75154 0.0
C288 C 0.48565 0.09449 0.75214 0.0
C289 C 0.48938 0.10396 0.74115 0.0
C290 C 0.50703 0.10861 0.73592 0.0
C291 C 0.52064 0.10394 0.74153 0.0
H292 H 0.57657 0.11247 0.7398 0.0
H293 H 0.60629 0.12007 0.72996 0.0
H294 H 0.61721 0.08307 0.75362 0.0
H295 H 0.58774 0.07602 0.76383 0.0
H296 H 0.56425 0.06553 0.78895 0.0
H297 H 0.55897 0.05309 0.80938 0.0
H298 H 0.50577 0.05721 0.80936 0.0
H299 H 0.51106 0.06982 0.78912 0.0
H300 H 0.49584 0.0825 0.7662 0.0
H301 H 0.47208 0.09044 0.75633 0.0
H302 H 0.51052 0.11615 0.72756 0.0
H303 H 0.53411 0.10785 0.73724 0.0
N304 N 0.54812 0.09347 0.7532 0.0
N305 N 0.55816 0.08095 0.76961 0.0
N306 N 0.52838 0.08156 0.76953 0.0
C307 C 0.56152 0.08914 0.75862 0.0
C308 C 0.54161 0.07716 0.77515 0.0
C309 C 0.53148 0.08968 0.75855 0.0
C310 C 0.57969 0.09359 0.75262 0.0
C311 C 0.58526 0.1059 0.74293 0.0
C312 C 0.6023 0.11019 0.7372 0.0
C313 C 0.61418 0.10211 0.74091 0.0
C314 C 0.60861 0.08979 0.75062 0.0
C315 C 0.59163 0.08565 0.75644 0.0
C316 C 0.53816 0.06882 0.78736 0.0
C317 C 0.5514 0.06376 0.79328 0.0
C318 C 0.54833 0.05652 0.80497 0.0
C319 C 0.53202 0.05428 0.81104 0.0
C320 C 0.51866 0.05906 0.80504 0.0
C321 C 0.52166 0.0662 0.79337 0.0
C322 C 0.51695 0.09452 0.75254 0.0
C323 C 0.49926 0.08984 0.75777 0.0
C324 C 0.70357 0.55711 0.92045 0.0
C325 C 0.70169 0.55104 0.93254 0.0
C326 C 0.71776 0.5506 0.9389 0.0
C327 C 0.73513 0.5559 0.9333 0.0
H328 H 0.78181 0.54415 0.93366 0.0
H329 H 0.80603 0.53627 0.94281 0.0
H330 H 0.84977 0.57669 0.92056 0.0
H331 H 0.82529 0.58396 0.91104 0.0
H332 H 0.80927 0.59477 0.88712 0.0
H333 H 0.81514 0.60881 0.86736 0.0
H334 H 0.75679 0.6026 0.86425 0.0
H335 H 0.75066 0.58813 0.88405 0.0
H336 H 0.72188 0.56701 0.90552 0.0
H337 H 0.69143 0.5574 0.91519 0.0
H338 H 0.71705 0.5464 0.9483 0.0
H339 H 0.74714 0.55538 0.93855 0.0
N340 N 0.76949 0.56388 0.92082 0.0
N341 N 0.78961 0.57751 0.90487 0.0
N342 N 0.75875 0.57596 0.90445 0.0
C343 C 0.78656 0.56888 0.91565 0.0
C344 C 0.77582 0.58108 0.89917 0.0
C345 C 0.75553 0.56741 0.91532 0.0
C346 C 0.80156 0.56464 0.92158 0.0
C347 C 0.79661 0.5514 0.93074 0.0
C348 C 0.81057 0.54696 0.93604 0.0
C349 C 0.82993 0.55582 0.93245 0.0
C350 C 0.83493 0.56928 0.9234 0.0
C351 C 0.8209 0.57355 0.91799 0.0
C352 C 0.77944 0.59023 0.88723 0.0
C353 C 0.79763 0.59638 0.88229 0.0
C354 C 0.80109 0.6046 0.87096 0.0
C355 C 0.78647 0.6069 0.86423 0.0
C356 C 0.7683 0.60086 0.86916 0.0
C357 C 0.76484 0.59266 0.88055 0.0
C358 C 0.73701 0.56192 0.92121 0.0
C359 C 0.72103 0.56254 0.91486 0.0
C360 C 0.37419 0.1158 0.93537 0.0
C361 C 0.38632 0.12291 0.94681 0.0
C362 C 0.39048 0.14119 0.95287 0.0
C363 C 0.38325 0.15244 0.94739 0.0
H364 H 0.38877 0.20731 0.95108 0.0
H365 H 0.40138 0.24141 0.9597 0.0
H366 H 0.3699 0.24992 0.92848 0.0
H367 H 0.35763 0.216 0.91968 0.0
H368 H 0.34953 0.18884 0.89457 0.0
H369 H 0.33985 0.18105 0.87216 0.0
H370 H 0.3282 0.12141 0.8747 0.0
H371 H 0.33789 0.12907 0.89719 0.0
H372 H 0.35801 0.12123 0.92094 0.0
H373 H 0.37042 0.1016 0.93058 0.0
H374 H 0.39991 0.14717 0.96164 0.0
H375 H 0.38721 0.1667 0.95217 0.0
N376 N 0.37036 0.17644 0.93491 0.0
N377 N 0.35732 0.18296 0.91682 0.0
N378 N 0.35689 0.15285 0.91735 0.0
C379 C 0.36609 0.18876 0.92876 0.0
C380 C 0.35261 0.16503 0.91106 0.0
C381 C 0.36571 0.15841 0.92929 0.0
C382 C 0.37231 0.20891 0.93461 0.0
C383 C 0.38438 0.21637 0.94609 0.0
C384 C 0.39156 0.23592 0.95107 0.0
C385 C 0.38678 0.24844 0.94473 0.0
C386 C 0.37418 0.24078 0.93348 0.0
C387 C 0.36705 0.22127 0.92847 0.0
C388 C 0.34468 0.15963 0.89769 0.0
C389 C 0.3447 0.17397 0.89042 0.0
C390 C 0.33926 0.16958 0.87757 0.0
C391 C 0.33347 0.1507 0.87171 0.0
C392 C 0.33255 0.13607 0.87901 0.0
C393 C 0.3382 0.14051 0.89187 0.0
C394 C 0.37174 0.14567 0.93571 0.0
C395 C 0.36699 0.12703 0.92988 0.0
C396 C 0.8427 0.25206 0.92923 0.0
C397 C 0.83923 0.25969 0.94031 0.0
C398 C 0.82158 0.24796 0.94559 0.0
C399 C 0.80753 0.22919 0.93979 0.0
H400 H 0.75056 0.18533 0.94052 0.0
H401 H 0.72045 0.1662 0.95018 0.0
H402 H 0.70575 0.11455 0.92499 0.0
H403 H 0.73573 0.13403 0.91495 0.0
H404 H 0.75781 0.14551 0.88822 0.0
H405 H 0.76254 0.13685 0.86707 0.0
H406 H 0.82078 0.18915 0.87089 0.0
H407 H 0.81636 0.19755 0.89192 0.0
H408 H 0.83177 0.22802 0.91483 0.0
H409 H 0.85629 0.2606 0.92503 0.0
H410 H 0.81835 0.25348 0.95405 0.0
H411 H 0.79396 0.22071 0.94403 0.0
N412 N 0.77849 0.19082 0.92718 0.0
N413 N 0.76684 0.16697 0.90975 0.0
N414 N 0.79794 0.19588 0.9107 0.0
C415 C 0.76413 0.17318 0.92115 0.0
C416 C 0.78377 0.17832 0.90446 0.0
C417 C 0.79546 0.20223 0.92205 0.0
C418 C 0.74563 0.16122 0.92695 0.0
C419 C 0.74097 0.16988 0.93702 0.0
C420 C 0.72369 0.15884 0.94264 0.0
C421 C 0.71067 0.13874 0.93847 0.0
C422 C 0.7153 0.13005 0.92837 0.0
C423 C 0.73254 0.14119 0.92264 0.0
C424 C 0.78667 0.17226 0.89182 0.0
C425 C 0.77168 0.15507 0.88458 0.0
C426 C 0.77434 0.15015 0.87242 0.0
C427 C 0.79205 0.16228 0.86728 0.0
C428 C 0.80708 0.17927 0.8746 0.0
C429 C 0.80445 0.18418 0.88668 0.0
C430 C 0.81079 0.22172 0.92855 0.0
C431 C 0.82865 0.23331 0.92341 0.0
C432 C 0.59942 0.73996 0.07259 0.0
C433 C 0.58983 0.73354 0.06038 0.0
C434 C 0.58836 0.74723 0.05318 0.0
C435 C 0.59585 0.76682 0.05823 0.0
H436 H 0.5866 0.81421 0.05498 0.0
H437 H 0.57641 0.83516 0.04493 0.0
H438 H 0.62013 0.88577 0.06992 0.0
H439 H 0.62968 0.86454 0.08037 0.0
H440 H 0.63577 0.85163 0.10869 0.0
H441 H 0.64671 0.85908 0.13102 0.0
H442 H 0.64532 0.80319 0.1314 0.0
H443 H 0.6349 0.7959 0.10917 0.0
H444 H 0.61405 0.76383 0.08714 0.0
H445 H 0.60105 0.72981 0.07829 0.0
H446 H 0.58093 0.74267 0.04376 0.0
H447 H 0.59412 0.77689 0.05251 0.0
N448 N 0.60837 0.80614 0.06991 0.0
N449 N 0.6226 0.83014 0.08727 0.0
N450 N 0.62064 0.79937 0.08819 0.0
C451 C 0.61379 0.8245 0.07532 0.0
C452 C 0.62609 0.81763 0.09377 0.0
C453 C 0.61186 0.79351 0.07626 0.0
C454 C 0.60886 0.83767 0.06855 0.0
C455 C 0.59416 0.82984 0.05828 0.0
C456 C 0.58838 0.84192 0.05245 0.0
C457 C 0.59735 0.8622 0.05662 0.0
C458 C 0.61257 0.87015 0.06662 0.0
C459 C 0.61815 0.858 0.07257 0.0
C460 C 0.63432 0.8231 0.1071 0.0
C461 C 0.63801 0.84102 0.1135 0.0
C462 C 0.64417 0.84526 0.12632 0.0
C463 C 0.64681 0.8317 0.13301 0.0
C464 C 0.64368 0.81408 0.12653 0.0
C465 C 0.63755 0.80984 0.11375 0.0
C466 C 0.60504 0.77314 0.07057 0.0
C467 C 0.60698 0.75952 0.07763 0.0
C468 C 0.2768 0.8671 0.0792 0.0
C469 C 0.27942 0.86193 0.06705 0.0
C470 C 0.26401 0.84463 0.06019 0.0
C471 C 0.24651 0.83269 0.06537 0.0
H472 H 0.19451 0.78083 0.05746 0.0
H473 H 0.17013 0.74913 0.04601 0.0
H474 H 0.13611 0.73406 0.07765 0.0
H475 H 0.16014 0.76579 0.08901 0.0
H476 H 0.17694 0.79177 0.11374 0.0
H477 H 0.17289 0.79755 0.13539 0.0
H478 H 0.22626 0.85482 0.13868 0.0
H479 H 0.23038 0.84918 0.11681 0.0
H480 H 0.25779 0.85948 0.09382 0.0
H481 H 0.28829 0.88046 0.08468 0.0
H482 H 0.26563 0.84003 0.05088 0.0
H483 H 0.23512 0.81937 0.0598 0.0
N484 N 0.21124 0.80743 0.07642 0.0
N485 N 0.19247 0.79912 0.09339 0.0
N486 N 0.22319 0.82859 0.09514 0.0
C487 C 0.19462 0.79473 0.08145 0.0
C488 C 0.2066 0.81598 0.10031 0.0
C489 C 0.22559 0.82439 0.08317 0.0
C490 C 0.17938 0.77589 0.0742 0.0
C491 C 0.18177 0.77084 0.06196 0.0
C492 C 0.16785 0.75262 0.0554 0.0
C493 C 0.15121 0.73906 0.06092 0.0
C494 C 0.14862 0.74427 0.07306 0.0
C495 C 0.16251 0.76246 0.07961 0.0
C496 C 0.20406 0.81998 0.11348 0.0
C497 C 0.18786 0.80565 0.119 0.0
C498 C 0.18557 0.80889 0.13147 0.0
C499 C 0.19934 0.82656 0.13876 0.0
C500 C 0.21537 0.84109 0.13325 0.0
C501 C 0.21776 0.8378 0.12074 0.0
C502 C 0.24394 0.83767 0.07758 0.0
C503 C 0.25925 0.85512 0.08441 0.0
C504 C 0.15314 0.42658 0.08553 0.0
C505 C 0.15677 0.43573 0.07443 0.0
C506 C 0.17418 0.43984 0.06904 0.0
C507 C 0.18765 0.43497 0.07463 0.0
H508 H 0.23919 0.4357 0.06978 0.0
H509 H 0.2687 0.44257 0.05987 0.0
H510 H 0.28748 0.41925 0.08979 0.0
H511 H 0.25807 0.4127 0.09992 0.0
H512 H 0.23094 0.39675 0.12237 0.0
H513 H 0.22569 0.38457 0.14287 0.0
H514 H 0.17378 0.39088 0.14333 0.0
H515 H 0.17905 0.40323 0.12301 0.0
H516 H 0.16327 0.41469 0.09968 0.0
H517 H 0.13974 0.42293 0.08984 0.0
H518 H 0.17759 0.44712 0.06059 0.0
H519 H 0.20095 0.43849 0.07024 0.0
N520 N 0.21487 0.42414 0.08632 0.0
N521 N 0.2251 0.41225 0.10302 0.0
N522 N 0.19561 0.41341 0.10298 0.0
C523 C 0.22824 0.41982 0.09182 0.0
C524 C 0.20879 0.409 0.10866 0.0
C525 C 0.1985 0.42096 0.09182 0.0
C526 C 0.24617 0.42364 0.08569 0.0
C527 C 0.24954 0.43198 0.07429 0.0
C528 C 0.26645 0.43582 0.06853 0.0
C529 C 0.28047 0.43142 0.074 0.0
C530 C 0.27711 0.42303 0.08539 0.0
C531 C 0.26016 0.41918 0.09116 0.0
C532 C 0.20548 0.40108 0.121 0.0
C533 C 0.21839 0.39553 0.12682 0.0
C534 C 0.21533 0.38844 0.13855 0.0
C535 C 0.19938 0.38685 0.14476 0.0
C536 C 0.18639 0.39221 0.13889 0.0
C537 C 0.18937 0.3992 0.12717 0.0
C538 C 0.18407 0.42591 0.08578 0.0
C539 C 0.16662 0.42174 0.09114 0.0
C540 C 0.37444 0.89758 0.25633 0.0
C541 C 0.36864 0.88422 0.26547 0.0
C542 C 0.38055 0.87598 0.26869 0.0
C543 C 0.3979 0.88115 0.26309 0.0
H544 H 0.44754 0.87513 0.26589 0.0
H545 H 0.47135 0.86663 0.27497 0.0
H546 H 0.51605 0.90811 0.25367 0.0
H547 H 0.49202 0.91604 0.24425 0.0
H548 H 0.47799 0.93074 0.22161 0.0
H549 H 0.4846 0.94565 0.20214 0.0
H550 H 0.42558 0.93771 0.19789 0.0
H551 H 0.41872 0.92241 0.2174 0.0
H552 H 0.39582 0.91308 0.24372 0.0
H553 H 0.36583 0.90445 0.25371 0.0
H554 H 0.3764 0.86533 0.27548 0.0
H555 H 0.40665 0.87448 0.26586 0.0
N556 N 0.4359 0.89582 0.25352 0.0
N557 N 0.45688 0.91081 0.23818 0.0
N558 N 0.42635 0.90994 0.23785 0.0
C559 C 0.45319 0.90111 0.24855 0.0
C560 C 0.44357 0.91523 0.23272 0.0
C561 C 0.42243 0.90024 0.24828 0.0
C562 C 0.46782 0.89624 0.25431 0.0
C563 C 0.46245 0.88246 0.26315 0.0
C564 C 0.47618 0.87766 0.26841 0.0
C565 C 0.49569 0.88667 0.26508 0.0
C566 C 0.50108 0.90059 0.25631 0.0
C567 C 0.4873 0.90523 0.25095 0.0
C568 C 0.44776 0.92526 0.22111 0.0
C569 C 0.46637 0.93219 0.2166 0.0
C570 C 0.47025 0.9409 0.20544 0.0
C571 C 0.45564 0.94291 0.19845 0.0
C572 C 0.43709 0.93621 0.203 0.0
C573 C 0.43321 0.92754 0.21423 0.0
C574 C 0.40375 0.89456 0.254 0.0
C575 C 0.39173 0.90262 0.25063 0.0
C576 C 0.04094 0.44929 0.27021 0.0
C577 C 0.05295 0.45616 0.2817 0.0
C578 C 0.05701 0.4743 0.28792 0.0
C579 C 0.04976 0.48563 0.28258 0.0
H580 H 0.05303 0.53939 0.28744 0.0
H581 H 0.06521 0.57318 0.29653 0.0
H582 H 0.03502 0.58284 0.26513 0.0
H583 H 0.02316 0.54923 0.25586 0.0
H584 H 0.00594 0.5183 0.23193 0.0
H585 H -0.00295 0.51235 0.20945 0.0
H586 H 0.00755 0.46299 0.20802 0.0
H587 H 0.01593 0.46854 0.23053 0.0
H588 H 0.02482 0.45498 0.25589 0.0
H589 H 0.03723 0.43519 0.26529 0.0
H590 H 0.06636 0.4801 0.29673 0.0
H591 H 0.05362 0.49978 0.2875 0.0
N592 N 0.03612 0.50947 0.27058 0.0
N593 N 0.02323 0.5164 0.2526 0.0
N594 N 0.02387 0.48677 0.2526 0.0
C595 C 0.03159 0.52178 0.26464 0.0
C596 C 0.01929 0.49891 0.24651 0.0
C597 C 0.03218 0.49187 0.26465 0.0
C598 C 0.03726 0.5416 0.27084 0.0
C599 C 0.0488 0.54862 0.28251 0.0
C600 C 0.05573 0.568 0.28777 0.0
C601 C 0.05124 0.58077 0.2815 0.0
C602 C 0.03906 0.5735 0.27008 0.0
C603 C 0.03217 0.55416 0.2648 0.0
C604 C 0.01186 0.49404 0.23306 0.0
C605 C 0.00616 0.50604 0.22686 0.0
C606 C 0.00116 0.5027 0.21395 0.0
C607 C 0.00183 0.48735 0.20691 0.0
C608 C 0.00672 0.47484 0.21316 0.0
C609 C 0.01163 0.47811 0.22609 0.0
C610 C 0.03834 0.47909 0.27087 0.0
C611 C 0.03373 0.46061 0.26486 0.0
C612 C 0.51182 0.58498 0.2652 0.0
C613 C 0.50839 0.59232 0.2764 0.0
C614 C 0.49063 0.5805 0.28157 0.0
C615 C 0.47636 0.56203 0.27546 0.0
H616 H 0.4255 0.50969 0.27981 0.0
H617 H 0.39498 0.4902 0.28909 0.0
H618 H 0.36585 0.45771 0.25308 0.0
H619 H 0.39664 0.4769 0.2438 0.0
H620 H 0.4252 0.48276 0.2213 0.0
H621 H 0.42906 0.47675 0.19941 0.0
H622 H 0.48614 0.53049 0.2036 0.0
H623 H 0.48237 0.53664 0.22523 0.0
H624 H 0.50062 0.56158 0.25035 0.0
H625 H 0.52551 0.59353 0.26109 0.0
H626 H 0.48745 0.58578 0.29014 0.0
H627 H 0.46265 0.55353 0.27955 0.0
N628 N 0.44693 0.52423 0.26203 0.0
N629 N 0.43418 0.50283 0.2434 0.0
N630 N 0.46568 0.53131 0.24507 0.0
C631 C 0.43208 0.50749 0.25536 0.0
C632 C 0.45104 0.5147 0.23821 0.0
C633 C 0.46379 0.53621 0.25696 0.0
C634 C 0.41356 0.49496 0.26102 0.0
C635 C 0.41264 0.49837 0.27384 0.0
C636 C 0.39506 0.48725 0.27917 0.0
C637 C 0.37787 0.47249 0.27183 0.0
C638 C 0.37885 0.46883 0.25904 0.0
C639 C 0.39651 0.4799 0.2537 0.0
C640 C 0.45339 0.51026 0.22506 0.0
C641 C 0.43859 0.49327 0.21756 0.0
C642 C 0.44082 0.48977 0.20503 0.0
C643 C 0.45781 0.50326 0.19976 0.0
C644 C 0.47271 0.52001 0.20732 0.0
C645 C 0.47055 0.52345 0.21978 0.0
C646 C 0.47951 0.555 0.26401 0.0
C647 C 0.49755 0.56658 0.25907 0.0
Tb648 Tb 0.489 0.98532 0.9908 0.0
Eu649 Eu 0.50493 0.01221 0.01847 0.0
C650 C 0.51141 0.9754 0.01173 0.0
C651 C 0.46328 0.9725 0.01345 0.0
C652 C 0.48243 0.97349 0.95671 0.0
C653 C 0.48011 0.9659 0.93431 0.0
C654 C 0.47556 0.95961 0.94614 0.0
C655 C 0.49394 0.99374 0.95536 0.0
C656 C 0.49845 4e-05 0.94355 0.0
C657 C 0.49158 0.9862 0.93287 0.0
C658 C 0.47781 0.96689 0.96914 0.0
O659 O 0.48916 0.01272 0.98832 0.0
O660 O 0.48381 0.01947 0.00811 0.0
O661 O 0.52629 0.03136 0.00549 0.0
O662 O 0.52031 0.00646 0.99027 0.0
C663 C 0.48275 0.02122 0.99613 0.0
O664 O 0.49912 0.02738 0.03383 0.0
O665 O 0.52659 0.0268 0.03497 0.0
O666 O 0.51919 0.99343 0.01732 0.0
O667 O 0.49651 0.96812 0.00285 0.0
O668 O 0.46338 0.9745 1.00144 0.0
O669 O 0.47946 0.98251 0.02124 0.0
C670 C 0.53111 0.02478 0.99557 0.0
O671 O 0.49265 0.96846 0.9764 0.0
O672 O 0.46777 0.97337 0.97507 0.0
C673 C 0.5115 0.02461 0.0535 0.0
C674 C 0.50285 0.01222 0.07746 0.0
C675 C 0.51347 0.03251 0.07584 0.0
C676 C 0.51772 0.03864 0.06395 0.0
C677 C 0.50113 0.00437 0.05506 0.0
C678 C 0.49684 -0.00178 0.06693 0.0
C679 C 0.51496 0.03107 0.04095 0.0
H680 H 0.47442 0.95488 0.92627 0.0
H681 H 0.46667 0.94393 0.94703 0.0
H682 H 0.49948 0.00467 0.96345 0.0
H683 H 0.50755 0.01575 0.94281 0.0
H684 H 0.51811 0.04367 0.08371 0.0
H685 H 0.52561 0.05433 0.06289 0.0
H686 H 0.4962 0.99332 0.04708 0.0
H687 H 0.48888 0.98249 0.06786 0.0
Tb688 Tb 0.00775 0.50207 0.99083 0.0
Eu689 Eu 0.98348 0.49505 0.01561 0.0
C690 C 0.01896 0.53654 0.01098 0.0
C691 C 0.02153 0.48976 0.01536 0.0
C692 C 0.02132 0.50703 0.95835 0.0
C693 C 0.03209 0.5144 0.93781 0.0
C694 C 0.03657 0.51501 0.95061 0.0
C695 C 0.00148 0.49845 0.9532 0.0
C696 C -0.00303 0.49775 0.94037 0.0
C697 C 0.01224 0.50576 0.93254 0.0
C698 C 0.02635 0.50812 0.97179 0.0
O699 O 0.97994 0.47438 0.98631 0.0
O700 O 0.97546 0.46523 0.00607 0.0
O701 O 0.96348 0.49596 1.00016 0.0
O702 O 0.98649 0.51194 0.98648 0.0
C703 C 0.97206 0.46068 0.99392 0.0
O704 O 0.96036 0.47629 0.02691 0.0
O705 O 0.9789 0.50769 0.03276 0.0
O706 O 0.00041 0.52753 0.0133 0.0
O707 O 0.02598 0.52674 0.00495 0.0
O708 O 0.01906 0.48789 0.00308 0.0
O709 O 0.01186 0.49591 0.02215 0.0
C710 C 0.96888 0.50577 0.99035 0.0
O711 O 0.02549 0.52191 0.97866 0.0
O712 O 0.01822 0.49133 0.97664 0.0
C713 C 0.9673 0.48683 0.04864 0.0
C714 C 0.97355 0.48245 0.07392 0.0
C715 C 0.97832 0.47268 0.06457 0.0
C716 C 0.97536 0.47498 0.05199 0.0
C717 C 0.96211 0.49617 0.05793 0.0
C718 C 0.96525 0.49405 0.07046 0.0
C719 C 0.96518 0.49067 0.03565 0.0
H720 H 0.04415 0.52046 0.932 0.0
H721 H 0.05196 0.52171 0.95447 0.0
H722 H 0.98954 0.49236 0.9591 0.0
H723 H 0.98156 0.49118 0.9366 0.0
H724 H 0.98488 0.46378 0.06701 0.0
H725 H 0.97966 0.46781 0.04494 0.0
H726 H 0.95594 0.50541 0.05549 0.0
H727 H 0.96125 0.50157 0.07747 0.0
Tb728 Tb 0.49928 0.48679 0.01498 0.0
Eu729 Eu 0.48103 0.49579 0.98941 0.0
C730 C 0.47686 0.45406 0.99228 0.0
C731 C 0.52432 0.50018 0.99232 0.0
C732 C 0.50864 0.48263 0.04831 0.0
C733 C 0.5099 0.47509 0.06971 0.0
C734 C 0.51396 0.47355 0.05739 0.0
C735 C 0.49939 0.49343 0.05167 0.0
C736 C 0.49534 0.495 0.06398 0.0
C737 C 0.50042 0.48573 0.07313 0.0
C738 C 0.51154 0.47967 0.03522 0.0
O739 O 0.51237 0.5188 0.01572 0.0
O740 O 0.48769 0.52039 0.00412 0.0
O741 O 0.45565 0.48038 1.00103 0.0
O742 O 0.474 0.48919 0.02018 0.0
C743 C 0.50342 0.52853 0.01235 0.0
O744 O 0.48243 0.51676 0.97653 0.0
O745 O 0.45953 0.48589 0.97286 0.0
O746 O 0.48157 0.46775 0.98466 0.0
O747 O 0.47868 0.45843 0.00439 0.0
O748 O 0.51881 0.48802 1.00105 0.0
O749 O 0.51371 0.50801 0.98843 0.0
C750 C 0.45696 0.48242 0.01329 0.0
O751 O 0.49556 0.46685 0.02812 0.0
O752 O 0.52182 0.49562 0.02981 0.0
C753 C 0.47368 0.50292 0.95568 0.0
C754 C 0.48532 0.50427 0.9314 0.0
C755 C 0.47258 0.51143 0.93451 0.0
C756 C 0.46683 0.51076 0.94657 0.0
C757 C 0.48628 0.49566 0.95264 0.0
C758 C 0.49201 0.49628 0.94061 0.0
C759 C 0.46842 0.50307 0.96848 0.0
H760 H 0.51422 0.46798 0.07656 0.0
H761 H 0.52101 0.46506 0.05492 0.0
H762 H 0.49499 0.50038 0.04473 0.0
H763 H 0.4878 0.50308 0.06626 0.0
H764 H 0.46735 0.5179 0.92771 0.0
H765 H 0.45723 0.51658 0.94881 0.0
H766 H 0.49178 0.48963 0.95961 0.0
H767 H 0.50158 0.49038 0.9385 0.0
Tb768 Tb 0.15559 0.31779 0.32426 0.0
Eu769 Eu 0.17272 0.34541 0.35156 0.0
C770 C 0.17807 0.30798 0.34483 0.0
C771 C 0.13032 0.306 0.34725 0.0
C772 C 0.14895 0.30566 0.29024 0.0
C773 C 0.14597 0.29807 0.26779 0.0
C774 C 0.14141 0.29182 0.27963 0.0
C775 C 0.16116 0.32583 0.28892 0.0
C776 C 0.16568 0.33209 0.27712 0.0
C777 C 0.15811 0.31829 0.2664 0.0
C778 C 0.14423 0.29914 0.30267 0.0
O779 O 0.15555 0.34512 0.32176 0.0
O780 O 0.15097 0.35227 0.34166 0.0
O781 O 0.193 0.36407 0.33795 0.0
O782 O 0.18716 0.33812 0.32378 0.0
C783 C 0.14937 0.35372 0.32967 0.0
O784 O 0.16941 0.36311 0.36663 0.0
O785 O 0.19449 0.35844 0.36809 0.0
O786 O 0.18684 0.32648 0.34976 0.0
O787 O 0.16224 0.30051 0.33667 0.0
O788 O 0.1302 0.30681 0.3351 0.0
O789 O 0.14652 0.31663 0.35496 0.0
C790 C 0.1979 0.35683 0.32839 0.0
O791 O 0.15898 0.30059 0.30996 0.0
O792 O 0.13432 0.30585 0.30854 0.0
C793 C 0.17974 0.35862 0.38643 0.0
C794 C 0.16945 0.34666 0.41028 0.0
C795 C 0.18152 0.36683 0.40871 0.0
C796 C 0.18659 0.37275 0.39686 0.0
C797 C 0.16788 0.33848 0.38795 0.0
C798 C 0.16277 0.33255 0.39975 0.0
C799 C 0.18429 0.36485 0.3739 0.0
H800 H 0.13975 0.28709 0.25972 0.0
H801 H 0.13196 0.27619 0.28049 0.0
H802 H 0.16723 0.33672 0.29705 0.0
H803 H 0.1753 0.34773 0.2764 0.0
H804 H 0.18673 0.37809 0.41658 0.0
H805 H 0.19566 0.38837 0.39583 0.0
H806 H 0.16247 0.32735 0.37998 0.0
H807 H 0.1537 0.31689 0.40065 0.0
Tb808 Tb 0.67485 0.83545 0.32458 0.0
Eu809 Eu 0.65134 0.82963 0.34956 0.0
C810 C 0.6862 0.87071 0.34416 0.0
C811 C 0.6891 0.82403 0.34921 0.0
C812 C 0.68857 0.84036 0.29208 0.0
C813 C 0.69988 0.84864 0.27174 0.0
C814 C 0.70403 0.84853 0.2845 0.0
C815 C 0.66885 0.83224 0.2868 0.0
C816 C 0.66467 0.83225 0.27401 0.0
C817 C 0.68017 0.84053 0.26636 0.0
C818 C 0.69333 0.84103 0.30551 0.0
O819 O 0.64704 0.80761 0.32054 0.0
O820 O 0.64318 0.79946 0.34055 0.0
O821 O 0.63088 0.82988 0.33413 0.0
O822 O 0.65329 0.84484 0.31992 0.0
C823 C 0.63949 0.79431 0.32846 0.0
O824 O 0.62841 0.81156 0.36119 0.0
O825 O 0.64763 0.84296 0.36674 0.0
O826 O 0.66767 0.86179 0.3465 0.0
O827 O 0.6932 0.86065 0.33839 0.0
O828 O 0.68589 0.82118 0.33695 0.0
O829 O 0.68014 0.83112 0.35594 0.0
C830 C 0.63587 0.83898 0.32402 0.0
O831 O 0.69299 0.85505 0.31246 0.0
O832 O 0.68465 0.82417 0.31026 0.0
C833 C 0.63615 0.82256 0.38283 0.0
C834 C 0.64309 0.81871 0.40813 0.0
C835 C 0.64777 0.80889 0.39876 0.0
C836 C 0.64446 0.81091 0.38617 0.0
C837 C 0.63105 0.83195 0.39214 0.0
C838 C 0.63452 0.83009 0.40468 0.0
C839 C 0.63376 0.82619 0.36984 0.0
H840 H 0.7121 0.85489 0.26607 0.0
H841 H 0.71933 0.8549 0.28846 0.0
H842 H 0.65675 0.82604 0.29258 0.0
H843 H 0.64936 0.82607 0.27014 0.0
H844 H 0.65453 0.80015 0.40118 0.0
H845 H 0.64869 0.80372 0.3791 0.0
H846 H 0.62469 0.84104 0.38972 0.0
H847 H 0.63058 0.83763 0.41171 0.0
Tb848 Tb 0.16689 0.82196 0.34818 0.0
Eu849 Eu 0.1471 0.82871 0.32232 0.0
C850 C 0.14232 0.7873 0.32701 0.0
C851 C 0.19036 0.83224 0.3245 0.0
C852 C 0.1739 0.81547 0.38141 0.0
C853 C 0.17451 0.80556 0.40225 0.0
C854 C 0.18009 0.80654 0.39014 0.0
C855 C 0.16171 0.82305 0.38485 0.0
C856 C 0.15615 0.82211 0.39694 0.0
C857 C 0.16267 0.81356 0.40583 0.0
C858 C 0.18039 0.81716 0.36883 0.0
O859 O 0.18197 0.85348 0.34615 0.0
O860 O 0.15595 0.85476 0.33639 0.0
O861 O 0.12242 0.81474 0.33457 0.0
O862 O 0.14159 0.82436 0.35349 0.0
C863 C 0.17305 0.86342 0.34333 0.0
O864 O 0.1474 0.84878 0.30908 0.0
O865 O 0.12503 0.81765 0.30599 0.0
O866 O 0.14704 0.80014 0.3188 0.0
O867 O 0.14463 0.79297 0.33899 0.0
O868 O 0.1863 0.82238 0.33439 0.0
O869 O 0.17899 0.83877 0.31976 0.0
C870 C 0.12431 0.81746 0.34683 0.0
O871 O 0.16874 0.80271 0.36035 0.0
O872 O 0.18637 0.83428 0.36467 0.0
C873 C 0.13835 0.83405 0.28844 0.0
C874 C 0.14991 0.83524 0.26416 0.0
C875 C 0.13684 0.84202 0.26718 0.0
C876 C 0.13114 0.84145 0.27923 0.0
C877 C 0.15122 0.82709 0.28548 0.0
C878 C 0.15692 0.82764 0.27345 0.0
C879 C 0.13338 0.83458 0.30128 0.0
H880 H 0.1799 0.79904 0.40892 0.0
H881 H 0.18948 0.80059 0.38763 0.0
H882 H 0.15675 0.82997 0.37824 0.0
H883 H 0.1468 0.82814 0.39933 0.0
H884 H 0.13137 0.84819 0.2603 0.0
H885 H 0.12134 0.84705 0.28142 0.0
H886 H 0.15701 0.82142 0.29253 0.0
H887 H 0.16676 0.82203 0.27141 0.0
Tb888 Tb 0.82234 0.64818 0.65694 0.0
Eu889 Eu 0.83952 0.67522 0.68453 0.0
C890 C 0.84597 0.6389 0.6771 0.0
C891 C 0.79723 0.63599 0.67989 0.0
C892 C 0.81507 0.63593 0.62291 0.0
C893 C 0.8126 0.62828 0.6005 0.0
C894 C 0.80835 0.62201 0.61237 0.0
C895 C 0.82615 0.65619 0.62149 0.0
C896 C 0.83036 0.66247 0.60965 0.0
C897 C 0.82362 0.64859 0.599 0.0
C898 C 0.8108 0.62938 0.6354 0.0
O899 O 0.82156 0.67511 0.65454 0.0
O900 O 0.8186 0.68324 0.67472 0.0
O901 O 0.86012 0.69453 0.67135 0.0
O902 O 0.85342 0.66975 0.65581 0.0
C903 C 0.81628 0.68424 0.6627 0.0
O904 O 0.83592 0.69231 0.69985 0.0
O905 O 0.86096 0.68756 0.70123 0.0
O906 O 0.85464 0.6574 0.68196 0.0
O907 O 0.82981 0.63119 0.66921 0.0
O908 O 0.79704 0.63773 0.66784 0.0
O909 O 0.81363 0.64586 0.68751 0.0
C910 C 0.86442 0.68805 0.66115 0.0
O911 O 0.82588 0.63124 0.64254 0.0
O912 O 0.80071 0.6357 0.64142 0.0
C913 C 0.8461 0.68745 0.71958 0.0
C914 C 0.83559 0.67527 0.74336 0.0
C915 C 0.84755 0.69548 0.74184 0.0
C916 C 0.85272 0.70151 0.73004 0.0
C917 C 0.83434 0.66728 0.72104 0.0
C918 C 0.82913 0.66124 0.73281 0.0
C919 C 0.85073 0.69387 0.70711 0.0
H920 H 0.80703 0.61723 0.59248 0.0
H921 H 0.7998 0.60631 0.6133 0.0
H922 H 0.83159 0.66716 0.62956 0.0
H923 H 0.83912 0.6782 0.60886 0.0
H924 H 0.85258 0.70669 0.74974 0.0
H925 H 0.86169 0.71716 0.72906 0.0
H926 H 0.82909 0.65621 0.71304 0.0
H927 H 0.82014 0.64555 0.73366 0.0
Tb928 Tb 0.33909 0.16907 0.65759 0.0
Eu929 Eu 0.31492 0.16176 0.68242 0.0
C930 C 0.35003 0.20343 0.67788 0.0
C931 C 0.35322 0.1567 0.68194 0.0
C932 C 0.35225 0.17453 0.6251 0.0
C933 C 0.36247 0.1815 0.60441 0.0
C934 C 0.36724 0.18194 0.61716 0.0
C935 C 0.33239 0.16671 0.62023 0.0
C936 C 0.32758 0.16619 0.60746 0.0
C937 C 0.34259 0.17359 0.59942 0.0
C938 C 0.35753 0.17538 0.63848 0.0
O939 O 0.31136 0.14123 0.65322 0.0
O940 O 0.3078 0.13217 0.673 0.0
O941 O 0.29506 0.16351 0.66723 0.0
O942 O 0.31778 0.17883 0.65325 0.0
C943 C 0.30406 0.1275 0.66087 0.0
O944 O 0.2902 0.14316 0.69281 0.0
O945 O 0.31208 0.17298 0.70063 0.0
O946 O 0.33152 0.19431 0.6803 0.0
O947 O 0.3571 0.1937 0.6718 0.0
O948 O 0.35091 0.15513 0.66966 0.0
O949 O 0.34332 0.1625 0.68877 0.0
C950 C 0.30035 0.17305 0.65731 0.0
O951 O 0.35686 0.18912 0.64553 0.0
O952 O 0.34938 0.15848 0.6432 0.0
C953 C 0.29809 0.14921 0.71467 0.0
C954 C 0.30217 0.13955 0.73895 0.0
C955 C 0.28489 0.13962 0.73442 0.0
C956 C 0.28291 0.14448 0.72237 0.0
C957 C 0.31499 0.14835 0.71894 0.0
C958 C 0.31705 0.14361 0.73101 0.0
C959 C 0.29676 0.15625 0.70257 0.0
H960 H 0.37432 0.18708 0.59843 0.0
H961 H 0.38265 0.18806 0.62081 0.0
H962 H 0.32065 0.16107 0.62629 0.0
H963 H 0.31216 0.1602 0.60391 0.0
H964 H 0.27328 0.13674 0.74036 0.0
H965 H 0.26979 0.14511 0.7192 0.0
H966 H 0.32682 0.15187 0.71307 0.0
H967 H 0.33042 0.14345 0.7342 0.0
Tb968 Tb 0.83168 0.15078 0.68159 0.0
Eu969 Eu 0.81233 0.15727 0.65541 0.0
C970 C 0.80421 0.11544 0.66201 0.0
C971 C 0.85507 0.16044 0.65773 0.0
C972 C 0.84078 0.14679 0.71499 0.0
C973 C 0.84169 0.13832 0.73618 0.0
C974 C 0.84637 0.13773 0.72393 0.0
C975 C 0.83048 0.15652 0.7184 0.0
C976 C 0.82588 0.15721 0.73066 0.0
C977 C 0.83136 0.14804 0.73967 0.0
C978 C 0.8449 0.14523 0.70201 0.0
O979 O 0.83316 0.17922 0.68451 0.0
O980 O 0.83666 0.18692 0.66445 0.0
O981 O 0.79264 0.15733 0.66972 0.0
O982 O 0.80146 0.14275 0.68494 0.0
C983 C 0.83917 0.19239 0.67645 0.0
O984 O 0.80672 0.17585 0.64331 0.0
O985 O 0.79591 0.14505 0.63701 0.0
O986 O 0.7954 0.12522 0.65863 0.0
O987 O 0.82186 0.12474 0.66837 0.0
O988 O 0.85609 0.16303 0.66997 0.0
O989 O 0.83841 0.15431 0.65056 0.0
C990 C 0.78967 0.14876 0.68011 0.0
O991 O 0.83015 0.13123 0.69454 0.0
O992 O 0.85365 0.16178 0.69692 0.0
C993 C 0.80679 0.16748 0.62194 0.0
C994 C 0.82058 0.17491 0.59823 0.0
C995 C 0.80399 0.17646 0.60109 0.0
C996 C 0.79714 0.17271 0.61284 0.0
C997 C 0.8237 0.16655 0.61931 0.0
C998 C 0.83049 0.17015 0.60757 0.0
C999 C 0.79868 0.16204 0.63392 0.0
H1000 H 0.84629 0.13129 0.74294 0.0
H1001 H 0.85424 0.13007 0.72142 0.0
H1002 H 0.82582 0.1634 0.71156 0.0
H1003 H 0.81771 0.1646 0.73303 0.0
H1004 H 0.7962 0.18041 0.59421 0.0
H1005 H 0.7841 0.17358 0.61474 0.0
H1006 H 0.83134 0.16252 0.62624 0.0
H1007 H 0.84313 0.16854 0.60569 0.0
C1008 C 0.2981 0.87737 0.04894 0.0
C1009 C 0.2983 0.87414 0.06161 0.0
C1010 C 0.31585 0.88789 0.04363 0.0
C1011 C 0.36906 0.90303 0.04839 0.0
H1012 H 0.37444 0.93958 0.02419 0.0
C1013 C 0.44415 0.95678 0.03126 0.0
C1014 C 0.44433 0.9596 0.01851 0.0
C1015 C 0.42624 0.9457 0.03627 0.0
C1016 C 0.37308 0.92924 0.03082 0.0
H1017 H 0.31739 0.87968 0.07866 0.0
H1018 H 0.34836 0.8985 0.06949 0.0
H1019 H 0.3435 0.92229 0.03365 0.0
H1020 H 0.42577 0.95262 1.001 0.0
H1021 H 0.39447 0.93317 0.00976 0.0
H1022 H 0.39872 0.91015 0.04564 0.0
C1023 C 0.33445 0.8926 0.0636 0.0
C1024 C 0.35535 0.91933 0.03625 0.0
C1025 C 0.31669 0.88204 0.0689 0.0
C1026 C 0.42618 0.95076 0.01085 0.0
C1027 C 0.40823 0.93973 0.01588 0.0
C1028 C 0.3868 0.91299 0.04299 0.0
C1029 C 0.33425 0.89549 0.05087 0.0
C1030 C 0.35314 0.90613 0.04512 0.0
C1031 C 0.40806 0.93722 0.02867 0.0
C1032 C 0.38902 0.92623 0.03416 0.0
H1033 H 0.2842 0.8717 0.04309 0.0
H1034 H 0.31514 0.8897 0.03378 0.0
H1035 H 0.36774 0.89269 0.05502 0.0
H1036 H 0.45785 0.96339 0.03745 0.0
H1037 H 0.42661 0.94421 0.04617 0.0
C1038 C 0.13325 0.44888 0.07587 0.0
C1039 C 0.14251 0.44105 0.06852 0.0
C1040 C 0.11993 0.45397 0.07032 0.0
C1041 C 0.08784 0.44494 0.04102 0.0
H1042 H 0.08916 0.49307 0.05381 0.0
C1043 C 0.04527 0.47693 0.01463 0.0
C1044 C 0.03533 0.4843 0.02168 0.0
C1045 C 0.0581 0.47154 0.02052 0.0
C1046 C 0.08846 0.47947 0.05022 0.0
H1047 H 0.14476 0.43223 0.04953 0.0
H1048 H 0.12192 0.44153 0.03984 0.0
H1049 H 0.112 0.48388 0.06371 0.0
H1050 H 0.03118 0.4918 0.04051 0.0
H1051 H 0.05356 0.48233 0.05078 0.0
H1052 H 0.0644 0.44063 0.02747 0.0
C1053 C 0.12478 0.44352 0.04992 0.0
C1054 C 0.10154 0.47419 0.05589 0.0
C1055 C 0.13808 0.43842 0.05547 0.0
C1056 C 0.03861 0.48623 0.03478 0.0
C1057 C 0.05152 0.48089 0.04068 0.0
C1058 C 0.07481 0.45026 0.03533 0.0
C1059 C 0.11554 0.45137 0.05727 0.0
C1060 C 0.10144 0.45688 0.05134 0.0
C1061 C 0.06136 0.47342 0.03361 0.0
C1062 C 0.075 0.46762 0.03983 0.0
H1063 H 0.13648 0.45131 0.08594 0.0
H1064 H 0.11294 0.45977 0.07628 0.0
H1065 H 0.0871 0.43134 0.03741 0.0
H1066 H 0.04316 0.47528 0.00452 0.0
H1067 H 0.06565 0.46609 0.0148 0.0
C1068 C 0.58313 0.70732 0.0431 0.0
C1069 C 0.58088 0.71249 0.05533 0.0
C1070 C 0.57467 0.68742 0.03842 0.0
C1071 C 0.55504 0.63738 0.04868 0.0
H1072 H 0.53059 0.61989 0.01448 0.0
C1073 C 0.52969 0.559 0.02551 0.0
C1074 C 0.51179 0.54939 0.01758 0.0
C1075 C 0.53797 0.57887 0.03013 0.0
C1076 C 0.5372 0.6245 0.02409 0.0
H1077 H 0.56757 0.7009 0.07213 0.0
H1078 H 0.55266 0.66624 0.06396 0.0
H1079 H 0.54508 0.65462 0.02249 0.0
H1080 H 0.48838 0.55305 0.00844 0.0
H1081 H 0.50267 0.58763 0.01669 0.0
H1082 H 0.54674 0.60721 0.05039 0.0
C1083 C 0.56134 0.67751 0.05807 0.0
C1084 C 0.54574 0.64446 0.02863 0.0
C1085 C 0.56986 0.69737 0.06275 0.0
C1086 C 0.50224 0.56003 0.01448 0.0
C1087 C 0.5105 0.5799 0.01915 0.0
C1088 C 0.54647 0.61744 0.04416 0.0
C1089 C 0.56369 0.67229 0.04587 0.0
C1090 C 0.55474 0.65112 0.04098 0.0
C1091 C 0.52851 0.58957 0.02698 0.0
C1092 C 0.53746 0.61076 0.03181 0.0
H1093 H 0.59171 0.71867 0.03721 0.0
H1094 H 0.57698 0.6839 0.02905 0.0
H1095 H 0.56206 0.64206 0.0582 0.0
H1096 H 0.5375 0.55127 0.02805 0.0
H1097 H 0.552 0.58594 0.03601 0.0
C1098 C 0.8627 0.29563 0.93858 0.0
C1099 C 0.85365 0.28008 0.94609 0.0
C1100 C 0.87576 0.31494 0.94398 0.0
C1101 C 0.90764 0.34404 0.9729 0.0
H1102 H 0.9037 0.38689 0.95928 0.0
C1103 C 0.95021 0.42474 0.99658 0.0
C1104 C 0.95881 0.43981 0.98869 0.0
C1105 C 0.93752 0.40508 0.99158 0.0
C1106 C 0.90513 0.37511 0.96311 0.0
H1107 H 0.85154 0.2726 0.96516 0.0
H1108 H 0.8741 0.30644 0.9746 0.0
H1109 H 0.88138 0.35289 0.95022 0.0
H1110 H 0.96097 0.44601 0.96934 0.0
H1111 H 0.93896 0.41177 0.96066 0.0
H1112 H 0.9314 0.36636 0.98582 0.0
C1113 C 0.87121 0.30363 0.96453 0.0
C1114 C 0.89235 0.35563 0.95791 0.0
C1115 C 0.85812 0.28428 0.95913 0.0
C1116 C 0.95454 0.43479 0.9757 0.0
C1117 C 0.94183 0.41517 0.97071 0.0
C1118 C 0.92043 0.36357 0.97811 0.0
C1119 C 0.88006 0.3192 0.95701 0.0
C1120 C 0.89352 0.33987 0.9627 0.0
C1121 C 0.93312 0.40011 0.97859 0.0
C1122 C 0.91937 0.37932 0.97323 0.0
H1123 H 0.85941 0.29296 0.92852 0.0
H1124 H 0.88253 0.32655 0.93791 0.0
H1125 H 0.90907 0.33226 0.97671 0.0
H1126 H 0.95318 0.4281 0.00663 0.0
H1127 H 0.93088 0.39383 0.99789 0.0
C1128 C 0.67263 0.55539 0.93691 0.0
C1129 C 0.68312 0.5452 0.93853 0.0
C1130 C 0.65535 0.55003 0.94267 0.0
C1131 C 0.62916 0.52476 0.969 0.0
H1132 H 0.58329 0.5216 0.95041 0.0
C1133 C 0.55349 0.49546 0.98917 0.0
C1134 C 0.54268 0.50503 0.98646 0.0
C1135 C 0.57056 0.4999 0.98334 0.0
C1136 C 0.59603 0.52264 0.9558 0.0
H1137 H 0.68326 0.52103 0.94735 0.0
H1138 H 0.65334 0.51193 0.95752 0.0
H1139 H 0.61314 0.53042 0.94023 0.0
H1140 H 0.54156 0.527 0.97559 0.0
H1141 H 0.57135 0.53499 0.96571 0.0
H1142 H 0.61219 0.51728 0.98463 0.0
C1143 C 0.65863 0.52421 0.95188 0.0
C1144 C 0.61314 0.52767 0.94994 0.0
C1145 C 0.67582 0.52947 0.94606 0.0
C1146 C 0.54942 0.51923 0.97787 0.0
C1147 C 0.56648 0.52373 0.97212 0.0
C1148 C 0.61208 0.51985 0.97489 0.0
C1149 C 0.64819 0.53442 0.95026 0.0
C1150 C 0.62993 0.52885 0.95647 0.0
C1151 C 0.57724 0.51406 0.9747 0.0
C1152 C 0.5953 0.51881 0.96838 0.0
H1153 H 0.67795 0.56777 0.93136 0.0
H1154 H 0.64779 0.55836 0.94136 0.0
H1155 H 0.64193 0.52576 0.97433 0.0
H1156 H 0.54868 0.48438 0.99569 0.0
H1157 H 0.57832 0.49199 0.98547 0.0
C1158 C 0.39681 0.11031 0.965 0.0
C1159 C 0.39537 0.11175 0.9521 0.0
C1160 C 0.406 0.10039 0.96995 0.0
C1161 C 0.42101 0.06367 0.96119 0.0
H1162 H 0.45736 0.08715 0.99151 0.0
C1163 C 0.47192 0.03422 0.97844 0.0
C1164 C 0.47368 0.03255 0.99129 0.0
C1165 C 0.46252 0.04412 0.9738 0.0
C1166 C 0.44709 0.0803 0.98311 0.0
H1167 H 0.40269 0.10411 0.93433 0.0
H1168 H 0.41862 0.08678 0.94295 0.0
H1169 H 0.44008 0.10353 0.98323 0.0
H1170 H 0.46715 0.04021 0.00935 0.0
H1171 H 0.45062 0.05734 1.00123 0.0
H1172 H 0.42802 0.04046 0.96105 0.0
C1173 C 0.41237 0.09303 0.94921 0.0
C1174 C 0.43718 0.08967 0.97838 0.0
C1175 C 0.40321 0.10294 0.94427 0.0
C1176 C 0.46609 0.04126 0.99941 0.0
C1177 C 0.4567 0.05116 0.99476 0.0
C1178 C 0.43092 0.0543 0.96592 0.0
C1179 C 0.41394 0.09169 0.96211 0.0
C1180 C 0.42408 0.08149 0.96734 0.0
C1181 C 0.45466 0.05257 0.98189 0.0
C1182 C 0.44412 0.06255 0.97691 0.0
H1183 H 0.39071 0.11674 0.97126 0.0
H1184 H 0.40674 0.09938 0.97991 0.0
H1185 H 0.41078 0.05683 0.95278 0.0
H1186 H 0.47765 0.02774 0.97192 0.0
H1187 H 0.46146 0.04521 0.96386 0.0
C1188 C 0.69244 0.13039 0.95759 0.0
C1189 C 0.69234 0.12708 0.94462 0.0
C1190 C 0.67509 0.12012 0.96333 0.0
C1191 C 0.62017 0.0908 0.95619 0.0
H1192 H 0.62241 0.07454 0.9892 0.0
C1193 C 0.55123 0.03374 0.97752 0.0
C1194 C 0.54934 0.03814 0.99001 0.0
C1195 C 0.56858 0.04574 0.97222 0.0
C1196 C 0.62161 0.07921 0.98004 0.0
H1197 H 0.67376 0.11006 0.92757 0.0
H1198 H 0.64374 0.09153 0.93763 0.0
H1199 H 0.65294 0.09241 0.97939 0.0
H1200 H 0.56408 0.05869 0.0067 0.0
H1201 H 0.59472 0.07959 0.99742 0.0
H1202 H 0.58871 0.07697 0.95674 0.0
C1203 C 0.65715 0.10247 0.94334 0.0
C1204 C 0.63909 0.08947 0.97441 0.0
C1205 C 0.67448 0.1129 0.93758 0.0
C1206 C 0.56511 0.05496 0.99705 0.0
C1207 C 0.58265 0.06683 0.99178 0.0
C1208 C 0.60268 0.08034 0.96177 0.0
C1209 C 0.65718 0.10608 0.95628 0.0
C1210 C 0.6386 0.09533 0.96237 0.0
C1211 C 0.58454 0.06229 0.97932 0.0
C1212 C 0.60322 0.07436 0.97372 0.0
H1213 H 0.70597 0.14095 0.96336 0.0
H1214 H 0.67569 0.12346 0.97328 0.0
H1215 H 0.61921 0.09543 0.94705 0.0
H1216 H 0.5393 0.02096 0.97181 0.0
H1217 H 0.56968 0.0418 0.96263 0.0
C1218 C 0.8584 0.54942 0.93075 0.0
C1219 C 0.84474 0.5509 0.93802 0.0
C1220 C 0.87209 0.54453 0.93595 0.0
C1221 C 0.87978 0.51902 0.96115 0.0
H1222 H 0.93561 0.54955 0.95647 0.0
C1223 C 0.93838 0.50876 0.98945 0.0
C1224 C 0.95476 0.51047 0.98372 0.0
C1225 C 0.92512 0.51344 0.98341 0.0
C1226 C 0.92003 0.54065 0.95771 0.0
H1227 H 0.83526 0.54883 0.95661 0.0
H1228 H 0.85877 0.53978 0.96554 0.0
H1229 H 0.9122 0.55824 0.94675 0.0
H1230 H 0.96992 0.51825 0.96706 0.0
H1231 H 0.94642 0.52593 0.95632 0.0
H1232 H 0.88734 0.50117 0.97188 0.0
C1233 C 0.85875 0.54231 0.95579 0.0
C1234 C 0.90665 0.5457 0.95218 0.0
C1235 C 0.84522 0.54743 0.95064 0.0
C1236 C 0.95751 0.51688 0.97175 0.0
C1237 C 0.94408 0.52138 0.96563 0.0
C1238 C 0.89308 0.51382 0.96656 0.0
C1239 C 0.87229 0.54077 0.9485 0.0
C1240 C 0.88644 0.53507 0.95397 0.0
C1241 C 0.92771 0.51974 0.9714 0.0
C1242 C 0.91344 0.52471 0.96505 0.0
H1243 H 0.85829 0.55165 0.92095 0.0
H1244 H 0.88225 0.54325 0.93009 0.0
H1245 H 0.86422 0.51035 0.96251 0.0
H1246 H 0.93592 0.50407 0.99872 0.0
H1247 H 0.91299 0.51241 0.98828 0.0
C1248 C 0.39749 0.27528 0.96242 0.0
C1249 C 0.3955 0.2696 0.94957 0.0
C1250 C 0.40631 0.29527 0.96695 0.0
C1251 C 0.41869 0.34424 0.9574 0.0
H1252 H 0.45682 0.36413 0.98695 0.0
C1253 C 0.46606 0.42776 0.97428 0.0
C1254 C 0.4684 0.43312 0.9872 0.0
C1255 C 0.45751 0.40787 0.96955 0.0
C1256 C 0.44606 0.35877 0.97876 0.0
H1257 H 0.40139 0.28052 0.93142 0.0
H1258 H 0.41661 0.31534 0.93933 0.0
H1259 H 0.44069 0.32918 0.97908 0.0
H1260 H 0.46371 0.42177 0.00529 0.0
H1261 H 0.44864 0.3872 0.99704 0.0
H1262 H 0.42395 0.3738 0.95712 0.0
C1263 C 0.41112 0.30432 0.94588 0.0
C1264 C 0.43681 0.33875 0.97426 0.0
C1265 C 0.40237 0.28435 0.94135 0.0
C1266 C 0.46219 0.41819 0.99528 0.0
C1267 C 0.45364 0.39835 0.99056 0.0
C1268 C 0.4279 0.36426 0.96192 0.0
C1269 C 0.41328 0.31001 0.95873 0.0
C1270 C 0.423 0.33126 0.96354 0.0
C1271 C 0.45114 0.39294 0.97764 0.0
C1272 C 0.44166 0.37175 0.97266 0.0
H1273 H 0.39211 0.26427 0.96898 0.0
H1274 H 0.40751 0.29919 0.97689 0.0
H1275 H 0.40793 0.33885 0.9492 0.0
H1276 H 0.47075 0.43891 0.9678 0.0
H1277 H 0.45602 0.40421 0.95956 0.0
C1278 C 0.11646 0.71077 0.05505 0.0
C1279 C 0.13696 0.71923 0.05429 0.0
C1280 C 0.10318 0.69158 0.04953 0.0
C1281 C 0.09792 0.65226 0.02615 0.0
H1282 H 0.0576 0.61731 0.04605 0.0
C1283 C 0.05228 0.56748 0.01346 0.0
C1284 C 0.03206 0.55781 0.01531 0.0
C1285 C 0.06468 0.58753 0.01767 0.0
C1286 C 0.06858 0.62693 0.04029 0.0
H1287 H 0.15954 0.71424 0.04696 0.0
H1288 H 0.13636 0.68078 0.03727 0.0
H1289 H 0.07978 0.65184 0.05411 0.0
H1290 H 0.00895 0.56168 0.02288 0.0
H1291 H 0.03052 0.59667 0.03008 0.0
H1292 H 0.08676 0.62729 0.01235 0.0
C1293 C 0.13054 0.68907 0.04204 0.0
C1294 C 0.0813 0.64673 0.04492 0.0
C1295 C 0.14382 0.70826 0.04758 0.0
C1296 C 0.02448 0.56865 0.02137 0.0
C1297 C 0.03687 0.5887 0.02555 0.0
C1298 C 0.08516 0.63245 0.02151 0.0
C1299 C 0.1101 0.68043 0.0431 0.0
C1300 C 0.09616 0.6596 0.03792 0.0
C1301 C 0.05713 0.59835 0.0238 0.0
C1302 C 0.0704 0.61954 0.02856 0.0
H1303 H 0.11066 0.71897 0.05997 0.0
H1304 H 0.08748 0.68544 0.05032 0.0
H1305 H 0.10907 0.66188 0.02048 0.0
H1306 H 0.0586 0.55955 0.00885 0.0
H1307 H 0.08027 0.59446 0.01632 0.0
C1308 C 0.31716 0.44376 0.07495 0.0
C1309 C 0.29857 0.43578 0.06787 0.0
C1310 C 0.33424 0.44848 0.06912 0.0
C1311 C 0.35429 0.46006 0.03873 0.0
H1312 H 0.39399 0.44866 0.05295 0.0
C1313 C 0.42025 0.46944 0.01252 0.0
C1314 C 0.43886 0.47726 0.01954 0.0
C1315 C 0.40317 0.46431 0.01845 0.0
C1316 C 0.38317 0.45217 0.04893 0.0
H1317 H 0.28335 0.42591 0.04909 0.0
H1318 H 0.31312 0.43417 0.03894 0.0
H1319 H 0.36417 0.43965 0.06325 0.0
H1320 H 0.45406 0.48592 0.03835 0.0
H1321 H 0.42435 0.47725 0.04864 0.0
H1322 H 0.37329 0.47266 0.02444 0.0
C1323 C 0.31454 0.43711 0.04899 0.0
C1324 C 0.36606 0.44698 0.05484 0.0
C1325 C 0.29747 0.43238 0.05482 0.0
C1326 C 0.43998 0.47989 0.03263 0.0
C1327 C 0.4229 0.47479 0.03855 0.0
C1328 C 0.37141 0.46528 0.03284 0.0
C1329 C 0.33316 0.44534 0.05606 0.0
C1330 C 0.35139 0.45084 0.0498 0.0
C1331 C 0.40427 0.4669 0.03154 0.0
C1332 C 0.38606 0.46139 0.03785 0.0
H1333 H 0.3186 0.44683 0.085 0.0
H1334 H 0.34838 0.45501 0.07483 0.0
H1335 H 0.34345 0.46355 0.03471 0.0
H1336 H 0.41881 0.46712 0.00243 0.0
H1337 H 0.38904 0.45803 0.01276 0.0
C1338 C 0.58365 0.87159 0.03811 0.0
C1339 C 0.59022 0.87474 0.05094 0.0
C1340 C 0.57582 0.88259 0.03299 0.0
C1341 C 0.57554 0.92911 0.03788 0.0
H1342 H 0.52355 0.90094 0.01884 0.0
C1343 C 0.53132 0.96806 0.02725 0.0
C1344 C 0.51985 0.96308 0.01566 0.0
C1345 C 0.54008 0.95709 0.03088 0.0
C1346 C 0.53822 0.90909 0.02395 0.0
H1347 H 0.59369 0.89211 0.06837 0.0
H1348 H 0.58068 0.91168 0.05932 0.0
H1349 H 0.53936 0.88257 0.02609 0.0
H1350 H 0.50842 0.94262 0.99878 0.0
H1351 H 0.52419 0.9237 0.00496 0.0
H1352 H 0.5747 0.95564 0.03567 0.0
C1353 C 0.58163 0.90067 0.05326 0.0
C1354 C 0.54723 0.89855 0.02812 0.0
C1355 C 0.58919 0.88951 0.05843 0.0
C1356 C 0.5171 0.94673 0.00781 0.0
C1357 C 0.5261 0.93586 0.01137 0.0
C1358 C 0.56668 0.93968 0.03359 0.0
C1359 C 0.57469 0.89718 0.04053 0.0
C1360 C 0.56582 0.90844 0.03529 0.0
C1361 C 0.53783 0.94101 0.02293 0.0
C1362 C 0.54774 0.92978 0.02677 0.0
H1363 H 0.58455 0.86061 0.032 0.0
H1364 H 0.57074 0.87977 0.02311 0.0
H1365 H 0.59002 0.93711 0.04325 0.0
H1366 H 0.53351 0.98043 0.03359 0.0
H1367 H 0.54854 0.96118 0.03998 0.0
C1368 C 0.96787 0.19833 0.3834 0.0
C1369 C 0.96499 0.20593 0.39476 0.0
C1370 C 0.98555 0.20883 0.37802 0.0
C1371 C 0.03799 0.24442 0.38571 0.0
H1372 H 0.03735 0.25545 0.35121 0.0
C1373 C 0.10986 0.29706 0.36518 0.0
C1374 C 0.11153 0.29343 0.35253 0.0
C1375 C 0.09196 0.2859 0.37016 0.0
C1376 C 0.03785 0.25221 0.36079 0.0
H1377 H 0.97859 0.2309 0.40917 0.0
H1378 H 0.00972 0.24877 0.39997 0.0
H1379 H 0.0061 0.23685 0.36016 0.0
H1380 H 0.09583 0.27491 0.33525 0.0
H1381 H 0.06475 0.25482 0.34405 0.0
H1382 H 0.06958 0.25911 0.38635 0.0
C1383 C -0.00185 0.23466 0.39529 0.0
C1384 C 0.01992 0.24166 0.36592 0.0
C1385 C 0.98034 0.22434 0.40057 0.0
C1386 C 0.09497 0.27814 0.34502 0.0
C1387 C 0.0771 0.26672 0.35006 0.0
C1388 C 0.05591 0.25465 0.38053 0.0
C1389 C 0.0009 0.227 0.38397 0.0
C1390 C 0.01985 0.23784 0.37845 0.0
C1391 C 0.0753 0.27055 0.36268 0.0
C1392 C 0.05612 0.25888 0.36803 0.0
H1393 H 0.95664 0.18404 0.37876 0.0
H1394 H 0.98741 0.20253 0.36935 0.0
H1395 H 0.0383 0.2414 0.39536 0.0
H1396 H 0.12228 0.30889 0.3712 0.0
H1397 H 0.09112 0.28964 0.37983 0.0
C1398 C 0.79425 0.76246 0.39417 0.0
C1399 C 0.81053 0.77634 0.40254 0.0
C1400 C 0.78111 0.76767 0.38848 0.0
C1401 C 0.75962 0.79882 0.39248 0.0
H1402 H 0.75257 0.79559 0.35638 0.0
C1403 C 0.71296 0.82795 0.36734 0.0
C1404 C 0.70279 0.81855 0.35554 0.0
C1405 C 0.7262 0.82295 0.37316 0.0
C1406 C 0.75398 0.79624 0.36646 0.0
H1407 H 0.82572 0.80629 0.41172 0.0
H1408 H 0.80225 0.8152 0.40205 0.0
H1409 H 0.77486 0.78593 0.36645 0.0
H1410 H 0.69795 0.79613 0.34075 0.0
H1411 H 0.72007 0.78663 0.35111 0.0
H1412 H 0.73819 0.80826 0.39262 0.0
C1413 C 0.79988 0.80044 0.3998 0.0
C1414 C 0.7669 0.79083 0.37221 0.0
C1415 C 0.8133 0.79539 0.40526 0.0
C1416 C 0.7058 0.80382 0.34978 0.0
C1417 C 0.71865 0.79848 0.35571 0.0
C1418 C 0.74632 0.8038 0.38674 0.0
C1419 C 0.78378 0.78667 0.39129 0.0
C1420 C 0.76989 0.79217 0.38525 0.0
C1421 C 0.72923 0.80809 0.36745 0.0
C1422 C 0.74334 0.80267 0.37363 0.0
H1423 H 0.79189 0.7477 0.39191 0.0
H1424 H 0.76875 0.7568 0.38196 0.0
H1425 H 0.76161 0.79982 0.40257 0.0
H1426 H 0.71102 0.83947 0.37196 0.0
H1427 H 0.73427 0.83101 0.38206 0.0
C1428 C 0.25686 0.04358 0.37217 0.0
C1429 C 0.25558 0.04844 0.3847 0.0
C1430 C 0.2485 0.02377 0.3673 0.0
C1431 C 0.23123 0.97376 0.37706 0.0
H1432 H 0.20229 0.95578 0.34398 0.0
C1433 C 0.20199 0.89455 0.35414 0.0
C1434 C 0.18286 0.88479 0.34763 0.0
C1435 C 0.21136 0.91472 0.35822 0.0
C1436 C 0.21022 0.96056 0.35326 0.0
H1437 H 0.24408 0.03635 0.40183 0.0
H1438 H 0.22948 0.0019 0.39335 0.0
H1439 H 0.21761 0.99064 0.35202 0.0
H1440 H 0.15855 0.88859 0.34026 0.0
H1441 H 0.17479 0.92378 0.34758 0.0
H1442 H 0.22339 0.94366 0.37849 0.0
C1443 C 0.23731 0.01335 0.38735 0.0
C1444 C 0.2192 0.98057 0.35781 0.0
C1445 C 0.24569 0.0331 0.39221 0.0
C1446 C 0.17331 0.89568 0.34524 0.0
C1447 C 0.18267 0.91587 0.34936 0.0
C1448 C 0.22224 0.95379 0.37254 0.0
C1449 C 0.23866 0.00844 0.37486 0.0
C1450 C 0.2297 0.98736 0.36979 0.0
C1451 C 0.20178 0.9256 0.35593 0.0
C1452 C 0.21157 0.94693 0.36061 0.0
H1453 H 0.26453 0.0551 0.36619 0.0
H1454 H 0.24997 0.02047 0.35768 0.0
H1455 H 0.23941 0.97856 0.38627 0.0
H1456 H 0.20983 0.88664 0.35607 0.0
H1457 H 0.22619 0.92183 0.36309 0.0
C1458 C 0.52731 0.61655 0.29541 0.0
C1459 C 0.52292 0.61258 0.28236 0.0
C1460 C 0.54066 0.63577 0.30092 0.0
C1461 C 0.58128 0.68411 0.29397 0.0
H1462 H 0.56778 0.70518 0.32281 0.0
C1463 C 0.62225 0.76744 0.31071 0.0
C1464 C 0.62659 0.77319 0.32363 0.0
C1465 C 0.61016 0.74753 0.30612 0.0
C1466 C 0.5719 0.69944 0.31486 0.0
H1467 H 0.52886 0.62582 0.26491 0.0
H1468 H 0.55213 0.65921 0.27451 0.0
H1469 H 0.54584 0.67084 0.31407 0.0
H1470 H 0.62162 0.76245 0.34187 0.0
H1471 H 0.60063 0.72765 0.33384 0.0
H1472 H 0.60724 0.7127 0.29469 0.0
C1473 C 0.54555 0.64742 0.28047 0.0
C1474 C 0.55933 0.67976 0.30986 0.0
C1475 C 0.53221 0.62826 0.27497 0.0
C1476 C 0.61853 0.75855 0.33186 0.0
C1477 C 0.60642 0.73861 0.32726 0.0
C1478 C 0.59384 0.70375 0.29897 0.0
C1479 C 0.5499 0.65142 0.2935 0.0
C1480 C 0.56378 0.67195 0.29927 0.0
C1481 C 0.60212 0.73287 0.31434 0.0
C1482 C 0.58919 0.71171 0.30939 0.0
H1483 H 0.52058 0.60476 0.30135 0.0
H1484 H 0.54388 0.63835 0.31099 0.0
H1485 H 0.58529 0.67842 0.28594 0.0
H1486 H 0.62815 0.77833 0.3041 0.0
H1487 H 0.60689 0.74364 0.29611 0.0
C1488 C 0.34972 0.87576 0.28436 0.0
C1489 C 0.3503 0.8789 0.27165 0.0
C1490 C 0.33246 0.87044 0.29012 0.0
C1491 C 0.28647 0.87273 0.28762 0.0
H1492 H 0.26744 0.8298 0.30864 0.0
C1493 C 0.21026 0.84219 0.30629 0.0
C1494 C 0.20838 0.83644 0.31844 0.0
C1495 C 0.22745 0.8469 0.30063 0.0
C1496 C 0.27267 0.84201 0.30295 0.0
H1497 H 0.3329 0.87873 0.25507 0.0
H1498 H 0.30299 0.86991 0.26522 0.0
H1499 H 0.29778 0.83929 0.29881 0.0
H1500 H 0.22309 0.83098 0.33414 0.0
H1501 H 0.25338 0.83972 0.3244 0.0
H1502 H 0.26171 0.87582 0.2919 0.0
C1503 C 0.31598 0.87164 0.27071 0.0
C1504 C 0.29004 0.8474 0.29729 0.0
C1505 C 0.33318 0.87677 0.26491 0.0
C1506 C 0.22403 0.83527 0.32475 0.0
C1507 C 0.24138 0.8402 0.31912 0.0
C1508 C 0.26922 0.86749 0.29337 0.0
C1509 C 0.3154 0.86834 0.28337 0.0
C1510 C 0.29707 0.86275 0.28951 0.0
C1511 C 0.24337 0.84622 0.30701 0.0
C1512 C 0.26199 0.85197 0.30106 0.0
H1513 H 0.36269 0.87764 0.28994 0.0
H1514 H 0.33257 0.86828 0.29993 0.0
H1515 H 0.29168 0.88482 0.28183 0.0
H1516 H 0.19838 0.84302 0.30109 0.0
H1517 H 0.22818 0.85098 0.29119 0.0
C1518 C 0.0633 0.44318 0.29972 0.0
C1519 C 0.06195 0.44489 0.28686 0.0
C1520 C 0.07241 0.43311 0.30456 0.0
C1521 C 0.0872 0.39638 0.29547 0.0
H1522 H 0.12381 0.41951 0.3257 0.0
C1523 C 0.13811 0.36661 0.31212 0.0
C1524 C 0.14011 0.36494 0.32495 0.0
C1525 C 0.12862 0.37651 0.30762 0.0
C1526 C 0.11346 0.41275 0.31733 0.0
H1527 H 0.06935 0.43757 0.26902 0.0
H1528 H 0.08512 0.41996 0.27743 0.0
H1529 H 0.10657 0.43607 0.31766 0.0
H1530 H 0.13389 0.37257 0.34314 0.0
H1531 H 0.11721 0.38968 0.33526 0.0
H1532 H 0.09408 0.37307 0.29512 0.0
C1533 C 0.07886 0.42612 0.28376 0.0
C1534 C 0.10358 0.42223 0.31273 0.0
C1535 C 0.0698 0.4362 0.27894 0.0
C1536 C 0.13265 0.37362 0.3332 0.0
C1537 C 0.12316 0.38352 0.32869 0.0
C1538 C 0.09707 0.3869 0.30007 0.0
C1539 C 0.08034 0.42453 0.29663 0.0
C1540 C 0.0904 0.41418 0.30172 0.0
C1541 C 0.12092 0.38496 0.31585 0.0
C1542 C 0.11037 0.39502 0.31102 0.0
H1543 H 0.05719 0.4495 0.30605 0.0
H1544 H 0.0731 0.4319 0.31449 0.0
H1545 H 0.07691 0.38966 0.28707 0.0
H1546 H 0.14374 0.36015 0.30551 0.0
H1547 H 0.1274 0.37763 0.29769 0.0
C1548 C 0.34635 0.44079 0.27395 0.0
C1549 C 0.35899 0.46117 0.27751 0.0
C1550 C 0.3287 0.43021 0.27938 0.0
C1551 C 0.30443 0.4313 0.30732 0.0
H1552 H 0.25619 0.39321 0.2866 0.0
C1553 C 0.22833 0.38987 0.327 0.0
C1554 C 0.21619 0.3697 0.32265 0.0
C1555 C 0.24555 0.40178 0.32145 0.0
C1556 C 0.26957 0.40364 0.29255 0.0
H1557 H 0.36269 0.48645 0.28939 0.0
H1558 H 0.33206 0.46791 0.29894 0.0
H1559 H 0.28666 0.41229 0.27701 0.0
H1560 H 0.21271 0.34627 0.30902 0.0
H1561 H 0.24271 0.36682 0.29959 0.0
H1562 H 0.28743 0.42244 0.32289 0.0
C1563 C 0.33593 0.46009 0.29206 0.0
C1564 C 0.28703 0.41458 0.28704 0.0
C1565 C 0.35351 0.4707 0.28659 0.0
C1566 C 0.22165 0.36174 0.31263 0.0
C1567 C 0.23883 0.37359 0.30713 0.0
C1568 C 0.28698 0.42028 0.31285 0.0
C1569 C 0.32333 0.43973 0.28852 0.0
C1570 C 0.30468 0.42844 0.29436 0.0
C1571 C 0.25099 0.39377 0.31144 0.0
C1572 C 0.26936 0.4062 0.30554 0.0
H1573 H 0.35023 0.43291 0.26713 0.0
H1574 H 0.31943 0.41446 0.27657 0.0
H1575 H 0.31786 0.44173 0.31323 0.0
H1576 H 0.22452 0.39649 0.33466 0.0
H1577 H 0.25448 0.41732 0.32491 0.0
C1578 C 0.51047 0.87773 0.28326 0.0
C1579 C 0.51033 0.88155 0.27069 0.0
C1580 C 0.52401 0.87268 0.28848 0.0
C1581 C 0.57242 0.87693 0.28517 0.0
H1582 H 0.55357 0.83266 0.30508 0.0
C1583 C 0.62406 0.84933 0.3052 0.0
C1584 C 0.62147 0.84321 0.31725 0.0
C1585 C 0.61043 0.85345 0.29897 0.0
C1586 C 0.55917 0.84523 0.29969 0.0
H1587 H 0.52441 0.88288 0.25379 0.0
H1588 H 0.54834 0.87454 0.26304 0.0
H1589 H 0.53015 0.8413 0.29549 0.0
H1590 H 0.60262 0.83688 0.33225 0.0
H1591 H 0.5793 0.84452 0.32158 0.0
H1592 H 0.60153 0.88123 0.28961 0.0
C1593 C 0.53794 0.87553 0.26882 0.0
C1594 C 0.54571 0.85012 0.29416 0.0
C1595 C 0.52426 0.88038 0.26354 0.0
C1596 C 0.60499 0.84136 0.32292 0.0
C1597 C 0.59151 0.84565 0.31676 0.0
C1598 C 0.58596 0.87217 0.29081 0.0
C1599 C 0.53789 0.87153 0.28132 0.0
C1600 C 0.55219 0.86609 0.28691 0.0
C1601 C 0.59398 0.8517 0.30468 0.0
C1602 C 0.57953 0.85633 0.29822 0.0
H1603 H 0.50027 0.87887 0.28914 0.0
H1604 H 0.52381 0.86995 0.2982 0.0
H1605 H 0.57786 0.88943 0.27971 0.0
H1606 H 0.63654 0.85079 0.30054 0.0
H1607 H 0.61268 0.85781 0.28961 0.0
C1608 C 0.06747 0.61683 0.2785 0.0
C1609 C 0.06002 0.60186 0.28654 0.0
C1610 C 0.07643 0.63673 0.2832 0.0
C1611 C 0.08032 0.66984 0.31042 0.0
H1612 H 0.12786 0.70791 0.29685 0.0
C1613 C 0.12697 0.75179 0.33126 0.0
C1614 C 0.13348 0.76602 0.32269 0.0
C1615 C 0.11827 0.73166 0.32714 0.0
C1616 C 0.1145 0.69749 0.30065 0.0
H1617 H 0.05585 0.59608 0.30583 0.0
H1618 H 0.07183 0.63092 0.31408 0.0
H1619 H 0.112 0.67292 0.28917 0.0
H1620 H 0.13606 0.77025 0.30307 0.0
H1621 H 0.12082 0.73515 0.2959 0.0
H1622 H 0.08286 0.69447 0.32191 0.0
C1623 C 0.07056 0.62721 0.30411 0.0
C1624 C 0.1054 0.67744 0.29625 0.0
C1625 C 0.06159 0.60727 0.2994 0.0
C1626 C 0.13124 0.75969 0.30992 0.0
C1627 C 0.1226 0.73958 0.30582 0.0
C1628 C 0.08946 0.6899 0.31485 0.0
C1629 C 0.0782 0.64217 0.29606 0.0
C1630 C 0.08812 0.6634 0.30102 0.0
C1631 C 0.11597 0.72534 0.31437 0.0
C1632 C 0.10657 0.70396 0.30995 0.0
H1633 H 0.06675 0.6132 0.26857 0.0
H1634 H 0.08191 0.64786 0.27672 0.0
H1635 H 0.0669 0.65943 0.31418 0.0
H1636 H 0.12851 0.75617 0.34116 0.0
H1637 H 0.11351 0.72106 0.33396 0.0
C1638 C 0.78357 0.04428 0.38952 0.0
C1639 C 0.80406 0.053 0.38862 0.0
C1640 C 0.77039 0.02511 0.3839 0.0
C1641 C 0.76542 0.98639 0.36007 0.0
H1642 H 0.72492 0.95082 0.37963 0.0
C1643 C 0.71958 0.90164 0.34663 0.0
C1644 C 0.69935 0.892 0.34844 0.0
C1645 C 0.73204 0.92165 0.35095 0.0
C1646 C 0.73596 0.96062 0.37396 0.0
H1647 H 0.82674 0.04845 0.38101 0.0
H1648 H 0.80375 0.01502 0.3712 0.0
H1649 H 0.74706 0.98519 0.38802 0.0
H1650 H 0.67626 0.89591 0.35601 0.0
H1651 H 0.69792 0.93079 0.36341 0.0
H1652 H 0.75437 0.96172 0.34603 0.0
C1653 C 0.79784 0.02311 0.37611 0.0
C1654 C 0.74865 0.98033 0.37878 0.0
C1655 C 0.81101 0.04227 0.38174 0.0
C1656 C 0.6918 0.90285 0.35452 0.0
C1657 C 0.70424 0.92283 0.35883 0.0
C1658 C 0.7527 0.96665 0.35524 0.0
C1659 C 0.77741 0.01422 0.37725 0.0
C1660 C 0.76356 0.99343 0.37191 0.0
C1661 C 0.72453 0.93244 0.35717 0.0
C1662 C 0.73786 0.95352 0.36215 0.0
H1663 H 0.7777 0.05227 0.39458 0.0
H1664 H 0.7547 0.0188 0.38477 0.0
H1665 H 0.77661 -0.00382 0.35448 0.0
H1666 H 0.72587 0.89371 0.34198 0.0
H1667 H 0.74765 0.92856 0.34965 0.0
C1668 C 0.96621 0.7695 0.38957 0.0
C1669 C 0.96726 0.7727 0.40262 0.0
C1670 C 0.98325 0.774 0.38375 0.0
C1671 C 0.03803 0.8044 0.3887 0.0
H1672 H 0.0354 0.76974 0.36047 0.0
C1673 C 0.10801 0.81564 0.36643 0.0
C1674 C 0.10649 0.81266 0.35333 0.0
C1675 C 0.09116 0.81071 0.37257 0.0
C1676 C 0.03635 0.7797 0.36825 0.0
H1677 H 0.98717 0.78312 0.41979 0.0
H1678 H 0.01686 0.79065 0.40966 0.0
H1679 H 0.00585 0.76095 0.37101 0.0
H1680 H 0.08592 0.80225 0.33644 0.0
H1681 H 0.05662 0.79386 0.34714 0.0
H1682 H 0.06853 0.82316 0.38592 0.0
C1683 C 0.00285 0.78485 0.40391 0.0
C1684 C 0.0194 0.77465 0.37431 0.0
C1685 C 0.98578 0.78032 0.40973 0.0
C1686 C 0.08769 0.80472 0.34654 0.0
C1687 C 0.07083 0.79977 0.35268 0.0
C1688 C 0.05499 0.80944 0.38265 0.0
C1689 C 0.00181 0.78181 0.39084 0.0
C1690 C 0.01999 0.78697 0.38458 0.0
C1691 C 0.07234 0.80265 0.36578 0.0
C1692 C 0.05435 0.7972 0.37232 0.0
H1693 H 0.95216 0.76342 0.38381 0.0
H1694 H 0.9819 0.77164 0.37367 0.0
H1695 H 0.03896 0.81438 0.39646 0.0
H1696 H 0.12221 0.82169 0.37199 0.0
H1697 H 0.09285 0.81292 0.38268 0.0
C1698 C 0.26535 0.22632 0.38487 0.0
C1699 C 0.25604 0.20566 0.38213 0.0
C1700 C 0.25711 0.23689 0.37964 0.0
C1701 C 0.20939 0.23021 0.36601 0.0
H1702 H 0.24259 0.28255 0.35593 0.0
C1703 C 0.17731 0.27544 0.34374 0.0
C1704 C 0.18657 0.29554 0.34841 0.0
C1705 C 0.18569 0.26391 0.34701 0.0
C1706 C 0.23314 0.26799 0.35877 0.0
H1707 H 0.23087 0.17994 0.3716 0.0
H1708 H 0.21677 0.19845 0.36225 0.0
H1709 H 0.25772 0.26347 0.36287 0.0
H1710 H 0.21187 0.31926 0.36021 0.0
H1711 H 0.22635 0.29917 0.36591 0.0
H1712 H 0.18483 0.23483 0.36198 0.0
C1713 C 0.23031 0.20644 0.36858 0.0
C1714 C 0.2418 0.25707 0.36276 0.0
C1715 C 0.23854 0.19587 0.37382 0.0
C1716 C 0.20434 0.30384 0.35642 0.0
C1717 C 0.21274 0.29237 0.35963 0.0
C1718 C 0.20072 0.24111 0.36198 0.0
C1719 C 0.23938 0.22704 0.37154 0.0
C1720 C 0.23006 0.23815 0.36657 0.0
C1721 C 0.20355 0.2723 0.35494 0.0
C1722 C 0.21254 0.26022 0.35848 0.0
H1723 H 0.27896 0.23434 0.39113 0.0
H1724 H 0.26438 0.25272 0.38222 0.0
H1725 H 0.19995 0.21579 0.36904 0.0
H1726 H 0.16362 0.26859 0.33754 0.0
H1727 H 0.17834 0.24851 0.34319 0.0
C1728 C 0.63233 0.54226 0.71604 0.0
C1729 C 0.63251 0.5391 0.72872 0.0
C1730 C 0.65009 0.55275 0.71073 0.0
C1731 C 0.70357 0.58837 0.71856 0.0
H1732 H 0.70824 0.5678 0.68613 0.0
C1733 C 0.77845 0.62089 0.69795 0.0
C1734 C 0.77837 0.62347 0.68517 0.0
C1735 C 0.76065 0.61019 0.70316 0.0
C1736 C 0.70711 0.57387 0.69513 0.0
H1737 H 0.65159 0.54462 0.74577 0.0
H1738 H 0.68259 0.56306 0.73653 0.0
H1739 H 0.67717 0.55048 0.69547 0.0
H1740 H 0.75946 0.6165 0.66782 0.0
H1741 H 0.72839 0.59801 0.67694 0.0
H1742 H 0.73343 0.61182 0.71822 0.0
C1743 C 0.66867 0.55756 0.73072 0.0
C1744 C 0.68931 0.56394 0.70048 0.0
C1745 C 0.6509 0.54702 0.73602 0.0
C1746 C 0.76007 0.61474 0.67768 0.0
C1747 C 0.74224 0.60407 0.68291 0.0
C1748 C 0.72135 0.59833 0.7132 0.0
C1749 C 0.66846 0.56039 0.71799 0.0
C1750 C 0.68734 0.57106 0.71226 0.0
C1751 C 0.74231 0.60184 0.69574 0.0
C1752 C 0.72336 0.59118 0.70143 0.0
H1753 H 0.61843 0.53668 0.7102 0.0
H1754 H 0.64942 0.55498 0.70095 0.0
H1755 H 0.70243 0.59439 0.72758 0.0
H1756 H 0.79226 0.62731 0.704 0.0
H1757 H 0.76127 0.60846 0.71303 0.0
C1758 C 0.4653 0.11643 0.74253 0.0
C1759 C 0.47496 0.10905 0.73521 0.0
C1760 C 0.45189 0.12136 0.73694 0.0
C1761 C 0.4203 0.11262 0.70746 0.0
H1762 H 0.42078 0.16019 0.7205 0.0
C1763 C 0.37729 0.14428 0.68115 0.0
C1764 C 0.36713 0.15135 0.68822 0.0
C1765 C 0.39022 0.13899 0.68702 0.0
C1766 C 0.4203 0.14674 0.71683 0.0
H1767 H 0.4778 0.10081 0.71622 0.0
H1768 H 0.45477 0.10983 0.70646 0.0
H1769 H 0.4437 0.15116 0.73045 0.0
H1770 H 0.36268 0.15843 0.70707 0.0
H1771 H 0.38518 0.14911 0.7173 0.0
H1772 H 0.397 0.10829 0.69378 0.0
C1773 C 0.45741 0.11161 0.71655 0.0
C1774 C 0.43344 0.14155 0.72254 0.0
C1775 C 0.47081 0.10666 0.72215 0.0
C1776 C 0.37028 0.15308 0.70132 0.0
C1777 C 0.38326 0.14783 0.7072 0.0
C1778 C 0.40721 0.11784 0.70173 0.0
C1779 C 0.44779 0.11904 0.72388 0.0
C1780 C 0.43364 0.12444 0.7179 0.0
C1781 C 0.39334 0.14067 0.70011 0.0
C1782 C 0.40709 0.13499 0.70633 0.0
H1783 H 0.46829 0.11865 0.75261 0.0
H1784 H 0.44459 0.12684 0.74287 0.0
H1785 H 0.41981 0.09916 0.70377 0.0
H1786 H 0.37528 0.14279 0.67104 0.0
H1787 H 0.39795 0.13378 0.6813 0.0
C1788 C 0.91426 0.36212 0.72634 0.0
C1789 C 0.92176 0.37726 0.71842 0.0
C1790 C 0.9057 0.34232 0.72152 0.0
C1791 C 0.90272 0.30977 0.69424 0.0
H1792 H 0.85464 0.27134 0.70715 0.0
C1793 C 0.85586 0.22814 0.67259 0.0
C1794 C 0.84874 0.21367 0.68099 0.0
C1795 C 0.86491 0.24824 0.67691 0.0
C1796 C 0.86817 0.28186 0.70353 0.0
H1797 H 0.92648 0.38347 0.69924 0.0
H1798 H 0.91118 0.34878 0.69077 0.0
H1799 H 0.87033 0.30619 0.71509 0.0
H1800 H 0.84564 0.20899 0.70052 0.0
H1801 H 0.86148 0.24401 0.70803 0.0
H1802 H 0.90047 0.28535 0.68266 0.0
C1803 C 0.9121 0.35228 0.70074 0.0
C1804 C 0.87717 0.30183 0.70809 0.0
C1805 C 0.92069 0.37214 0.70557 0.0
C1806 C 0.85089 0.21974 0.69379 0.0
C1807 C 0.85987 0.23981 0.69809 0.0
C1808 C 0.89368 0.28977 0.68966 0.0
C1809 C 0.90436 0.33715 0.70866 0.0
C1810 C 0.89462 0.316 0.70356 0.0
C1811 C 0.86696 0.25428 0.6897 0.0
C1812 C 0.87637 0.27559 0.69432 0.0
H1813 H 0.9146 0.36551 0.73625 0.0
H1814 H 0.90012 0.33103 0.72789 0.0
H1815 H 0.91627 0.32029 0.69066 0.0
H1816 H 0.85444 0.22398 0.66267 0.0
H1817 H 0.87004 0.25904 0.67021 0.0
C1818 C 0.19653 0.96204 0.60602 0.0
C1819 C 0.18754 0.94636 0.61345 0.0
C1820 C 0.2098 0.98125 0.61149 0.0
C1821 C 0.2239 0.0134 0.64105 0.0
H1822 H 0.27143 0.04687 0.62569 0.0
C1823 C 0.28333 0.0915 0.66373 0.0
C1824 C 0.29127 0.10651 0.65574 0.0
C1825 C 0.2712 0.0717 0.65886 0.0
C1826 C 0.25813 0.03777 0.63003 0.0
H1827 H 0.18573 0.93856 0.63245 0.0
H1828 H 0.20891 0.97219 0.642 0.0
H1829 H 0.24941 0.01271 0.61671 0.0
H1830 H 0.29268 0.11245 0.63634 0.0
H1831 H 0.27138 0.07797 0.62788 0.0
H1832 H 0.23252 0.03852 0.6543 0.0
C1833 C 0.20548 0.96961 0.63195 0.0
C1834 C 0.24552 0.0182 0.62489 0.0
C1835 C 0.1922 0.95035 0.62648 0.0
C1836 C 0.28686 0.10127 0.64277 0.0
C1837 C 0.27474 0.08147 0.63791 0.0
C1838 C 0.23651 0.03299 0.64619 0.0
C1839 C 0.21439 0.98528 0.62451 0.0
C1840 C 0.22819 0.00583 0.63028 0.0
C1841 C 0.26676 0.06646 0.64589 0.0
C1842 C 0.25369 0.04544 0.64068 0.0
H1843 H 0.19299 0.95955 0.59598 0.0
H1844 H 0.21615 0.99305 0.60551 0.0
H1845 H 0.21053 0.00433 0.64533 0.0
H1846 H 0.28649 0.09502 0.67377 0.0
H1847 H 0.26548 0.06046 0.66526 0.0
C1848 C -0.00266 0.20558 0.59728 0.0
C1849 C 0.0159 0.21413 0.60448 0.0
C1850 C 0.97996 0.19978 0.60301 0.0
C1851 C 0.96173 0.20758 0.63251 0.0
H1852 H 0.91458 0.15757 0.62033 0.0
C1853 C 0.89193 0.17391 0.65897 0.0
C1854 C 0.87339 0.16543 0.65176 0.0
C1855 C 0.90929 0.17955 0.65325 0.0
C1856 C 0.92755 0.17168 0.62378 0.0
H1857 H 0.03071 0.22375 0.62336 0.0
H1858 H 0.00043 0.21335 0.63335 0.0
H1859 H 0.9448 0.1684 0.61017 0.0
H1860 H 0.85865 0.15592 0.63284 0.0
H1861 H 0.88886 0.16593 0.62292 0.0
H1862 H 0.94448 0.21086 0.64611 0.0
C1863 C -0.0007 0.21123 0.62326 0.0
C1864 C 0.94488 0.1779 0.61793 0.0
C1865 C 0.01666 0.21699 0.61753 0.0
C1866 C 0.87263 0.16244 0.63871 0.0
C1867 C 0.88998 0.16806 0.633 0.0
C1868 C 0.9444 0.20135 0.63835 0.0
C1869 C 0.98072 0.20245 0.61608 0.0
C1870 C 0.9622 0.19593 0.62223 0.0
C1871 C 0.90856 0.17682 0.64019 0.0
C1872 C 0.92708 0.18332 0.63406 0.0
H1873 H -0.00381 0.20301 0.58721 0.0
H1874 H 0.96593 0.19328 0.59719 0.0
H1875 H 0.9747 0.22168 0.63595 0.0
H1876 H 0.89309 0.17642 0.66904 0.0
H1877 H 0.92331 0.186 0.65909 0.0
C1878 C 0.74023 0.78283 0.63326 0.0
C1879 C 0.72696 0.77479 0.62226 0.0
C1880 C 0.74928 0.77279 0.6382 0.0
C1881 C 0.76659 0.73954 0.62861 0.0
H1882 H 0.76588 0.7279 0.66302 0.0
C1883 C 0.79796 0.69133 0.64587 0.0
C1884 C 0.80694 0.69546 0.65819 0.0
C1885 C 0.78822 0.70118 0.64173 0.0
C1886 C 0.76655 0.73134 0.65344 0.0
H1887 H 0.71209 0.7493 0.60824 0.0
H1888 H 0.72857 0.73225 0.61663 0.0
H1889 H 0.74849 0.74471 0.65562 0.0
H1890 H 0.81326 0.71349 0.67577 0.0
H1891 H 0.79705 0.73134 0.66841 0.0
H1892 H 0.78517 0.72696 0.62641 0.0
C1893 C 0.73191 0.74636 0.62136 0.0
C1894 C 0.75646 0.74083 0.64921 0.0
C1895 C 0.72259 0.75621 0.61654 0.0
C1896 C 0.80633 0.7099 0.66624 0.0
C1897 C 0.79689 0.72002 0.66203 0.0
C1898 C 0.77698 0.73039 0.63288 0.0
C1899 C 0.74549 0.75468 0.63214 0.0
C1900 C 0.75627 0.74484 0.63674 0.0
C1901 C 0.78754 0.71567 0.64975 0.0
C1902 C 0.77697 0.726 0.64533 0.0
H1903 H 0.7442 0.79722 0.63784 0.0
H1904 H 0.75981 0.77952 0.6465 0.0
H1905 H 0.76687 0.74276 0.61898 0.0
H1906 H 0.798 0.68011 0.63948 0.0
H1907 H 0.78087 0.69709 0.63229 0.0
C1908 C 0.00855 0.77801 0.60384 0.0
C1909 C 0.02625 0.79203 0.61109 0.0
C1910 C 0.99107 0.76726 0.60939 0.0
C1911 C 0.97238 0.75297 0.64016 0.0
H1912 H 0.92216 0.74067 0.62235 0.0
C1913 C 0.8984 0.71816 0.66259 0.0
C1914 C 0.88255 0.70144 0.65551 0.0
C1915 C 0.91591 0.73004 0.65732 0.0
C1916 C 0.93608 0.74396 0.62741 0.0
H1917 H 0.03943 0.80528 0.63 0.0
H1918 H 0.00889 0.78724 0.63956 0.0
H1919 H 0.95284 0.75958 0.6129 0.0
H1920 H 0.87235 0.68446 0.63726 0.0
H1921 H 0.90275 0.70536 0.62806 0.0
H1922 H 0.9555 0.73756 0.65475 0.0
C1923 C 0.00853 0.78426 0.62959 0.0
C1924 C 0.95367 0.75469 0.62197 0.0
C1925 C 0.02603 0.79486 0.62407 0.0
C1926 C 0.88435 0.69717 0.64299 0.0
C1927 C 0.9017 0.7092 0.63768 0.0
C1928 C 0.9548 0.74244 0.64565 0.0
C1929 C 0.99078 0.77035 0.62233 0.0
C1930 C 0.97206 0.7592 0.62823 0.0
C1931 C 0.91774 0.72561 0.64482 0.0
C1932 C 0.93647 0.7377 0.63928 0.0
H1933 H 0.00806 0.77555 0.59381 0.0
H1934 H 0.97779 0.75644 0.60351 0.0
H1935 H 0.98618 0.75585 0.64519 0.0
H1936 H 0.89745 0.7218 0.67226 0.0
H1937 H 0.92803 0.74271 0.663 0.0
C1938 C 0.19043 0.21671 0.59719 0.0
C1939 C 0.17669 0.21833 0.60429 0.0
C1940 C 0.20431 0.21226 0.60264 0.0
C1941 C 0.22799 0.21171 0.63355 0.0
H1942 H 0.24194 0.17733 0.61475 0.0
C1943 C 0.2703 0.17687 0.65659 0.0
C1944 C 0.28639 0.17803 0.65075 0.0
C1945 C 0.25741 0.18213 0.65065 0.0
C1946 C 0.23831 0.1871 0.62007 0.0
H1947 H 0.16705 0.21667 0.62281 0.0
H1948 H 0.19058 0.20811 0.63215 0.0
H1949 H 0.21834 0.18571 0.60498 0.0
H1950 H 0.30132 0.18529 0.63395 0.0
H1951 H 0.27854 0.19425 0.6235 0.0
H1952 H 0.2476 0.21262 0.64874 0.0
C1953 C 0.19094 0.21068 0.62241 0.0
C1954 C 0.22484 0.19197 0.61447 0.0
C1955 C 0.17718 0.2153 0.61699 0.0
C1956 C 0.28911 0.1843 0.63873 0.0
C1957 C 0.27604 0.18933 0.63272 0.0
C1958 C 0.24128 0.20666 0.63918 0.0
C1959 C 0.20473 0.20915 0.61533 0.0
C1960 C 0.21942 0.20427 0.62116 0.0
C1961 C 0.26016 0.18846 0.63868 0.0
C1962 C 0.24651 0.19424 0.63252 0.0
H1963 H 0.19036 0.21868 0.58735 0.0
H1964 H 0.21483 0.21145 0.59692 0.0
H1965 H 0.22456 0.22157 0.63892 0.0
H1966 H 0.26777 0.17214 0.66585 0.0
H1967 H 0.24518 0.1811 0.65541 0.0
C1968 C 0.70985 0.93862 0.62382 0.0
C1969 C 0.72048 0.92862 0.62561 0.0
C1970 C 0.71801 0.95839 0.62867 0.0
C1971 C 0.75708 -0.0023 0.65161 0.0
H1972 H 0.75313 0.03289 0.62927 0.0
C1973 C 0.80368 0.08306 0.66143 0.0
C1974 C 0.7942 0.09382 0.65848 0.0
C1975 C 0.79418 0.06264 0.65796 0.0
C1976 C 0.75415 0.02324 0.63569 0.0
H1977 H 0.74788 0.93148 0.6341 0.0
H1978 H 0.76206 0.96593 0.6426 0.0
H1979 H 0.73699 -0.00243 0.62257 0.0
H1980 H 0.76716 0.09152 0.64977 0.0
H1981 H 0.75056 0.05598 0.64388 0.0
H1982 H 0.77436 0.02344 0.66471 0.0
C1983 C 0.74733 0.95841 0.63756 0.0
C1984 C 0.74488 0.00299 0.63186 0.0
C1985 C 0.73918 0.93865 0.6327 0.0
C1986 C 0.77496 0.08372 0.65211 0.0
C1987 C 0.76546 0.06334 0.64868 0.0
C1988 C 0.76634 0.01798 0.65546 0.0
C1989 C 0.73697 0.96859 0.63543 0.0
C1990 C 0.74628 0.98999 0.63976 0.0
C1991 C 0.77498 0.05257 0.6515 0.0
C1992 C 0.76501 0.03098 0.64753 0.0
H1993 H 0.69528 0.93121 0.61858 0.0
H1994 H 0.70952 0.96573 0.62706 0.0
H1995 H 0.75825 0.98802 0.65796 0.0
H1996 H 0.81852 0.0904 0.66632 0.0
H1997 H 0.80201 0.05482 0.66015 0.0
C1998 C 0.44911 0.37751 0.72235 0.0
C1999 C 0.46955 0.38566 0.72147 0.0
C2000 C 0.43553 0.35842 0.7168 0.0
C2001 C 0.42935 0.31902 0.69313 0.0
H2002 H 0.38903 0.2842 0.71308 0.0
C2003 C 0.38331 0.23437 0.6803 0.0
C2004 C 0.36313 0.22469 0.68223 0.0
C2005 C 0.39575 0.2544 0.68452 0.0
C2006 C 0.4 0.29379 0.7073 0.0
H2007 H 0.49171 0.3802 0.71392 0.0
H2008 H 0.46801 0.34693 0.70418 0.0
H2009 H 0.41158 0.31864 0.72121 0.0
H2010 H 0.34011 0.22853 0.68997 0.0
H2011 H 0.36177 0.26353 0.69721 0.0
H2012 H 0.41783 0.29412 0.67924 0.0
C2013 C 0.46247 0.3554 0.70905 0.0
C2014 C 0.41293 0.31353 0.71197 0.0
C2015 C 0.47605 0.37448 0.71463 0.0
C2016 C 0.35562 0.23551 0.68839 0.0
C2017 C 0.36805 0.25556 0.69259 0.0
C2018 C 0.41638 0.29927 0.68844 0.0
C2019 C 0.44209 0.34706 0.71021 0.0
C2020 C 0.42783 0.32633 0.70497 0.0
C2021 C 0.38828 0.26522 0.69075 0.0
C2022 C 0.40164 0.28639 0.69551 0.0
H2023 H 0.44359 0.38587 0.72737 0.0
H2024 H 0.41989 0.35252 0.71768 0.0
H2025 H 0.44051 0.32859 0.68745 0.0
H2026 H 0.38959 0.22646 0.67561 0.0
H2027 H 0.41132 0.26132 0.6831 0.0
C2028 C 0.63246 0.1085 0.72179 0.0
C2029 C 0.63226 0.10662 0.73466 0.0
C2030 C 0.64954 0.11326 0.71596 0.0
C2031 C 0.70411 0.13458 0.72281 0.0
H2032 H 0.69932 0.11172 0.68899 0.0
C2033 C 0.7709 0.1404 0.6989 0.0
C2034 C 0.77208 0.1451 0.68649 0.0
C2035 C 0.75407 0.13629 0.70484 0.0
C2036 C 0.70087 0.11836 0.69839 0.0
H2037 H 0.65009 0.10825 0.75146 0.0
H2038 H 0.67955 0.11573 0.74122 0.0
H2039 H 0.6695 0.10274 0.69925 0.0
H2040 H 0.7565 0.1493 0.67065 0.0
H2041 H 0.727 0.14191 0.68102 0.0
H2042 H 0.73558 0.14983 0.72198 0.0
C2043 C 0.66661 0.11396 0.73565 0.0
C2044 C 0.68378 0.11326 0.70429 0.0
C2045 C 0.64957 0.10936 0.74151 0.0
C2046 C 0.75609 0.14576 0.68021 0.0
C2047 C 0.73914 0.1414 0.68612 0.0
C2048 C 0.72121 0.1395 0.71695 0.0
C2049 C 0.66687 0.11609 0.7228 0.0
C2050 C 0.68514 0.12134 0.71657 0.0
C2051 C 0.73793 0.13657 0.69848 0.0
C2052 C 0.71978 0.13149 0.70467 0.0
H2053 H 0.61936 0.1062 0.71614 0.0
H2054 H 0.64918 0.115 0.70609 0.0
H2055 H 0.70579 0.1414 0.73217 0.0
H2056 H 0.78299 0.13985 0.70403 0.0
H2057 H 0.75352 0.13249 0.71434 0.0
C2058 C 0.90305 0.52544 0.70853 0.0
C2059 C 0.92117 0.53487 0.71626 0.0
C2060 C 0.8952 0.5365 0.70352 0.0
C2061 C 0.89672 0.58392 0.70961 0.0
H2062 H 0.87232 0.57297 0.67547 0.0
C2063 C 0.87275 0.63531 0.68844 0.0
C2064 C 0.85455 0.6266 0.68084 0.0
C2065 C 0.88086 0.62385 0.69224 0.0
C2066 C 0.87888 0.57605 0.68506 0.0
H2067 H 0.94566 0.56338 0.72435 0.0
H2068 H 0.93189 0.58264 0.71568 0.0
H2069 H 0.88686 0.55354 0.68288 0.0
H2070 H 0.83068 0.59899 0.67117 0.0
H2071 H 0.84474 0.57887 0.678 0.0
H2072 H 0.88862 0.60622 0.71189 0.0
C2073 C 0.92362 0.56667 0.71365 0.0
C2074 C 0.88724 0.56495 0.6893 0.0
C2075 C 0.93149 0.55564 0.71862 0.0
C2076 C 0.84473 0.60616 0.67702 0.0
C2077 C 0.85284 0.59465 0.68087 0.0
C2078 C 0.88832 0.59493 0.7054 0.0
C2079 C 0.90526 0.5572 0.70619 0.0
C2080 C 0.89635 0.56887 0.70159 0.0
C2081 C 0.87094 0.60336 0.68861 0.0
C2082 C 0.87941 0.59122 0.69307 0.0
H2083 H 0.89459 0.50946 0.70666 0.0
H2084 H 0.88093 0.52878 0.69791 0.0
H2085 H 0.90327 0.58701 0.71921 0.0
H2086 H 0.88082 0.65104 0.69148 0.0
H2087 H 0.895 0.63111 0.69799 0.0
C2088 C 0.4783 0.96794 0.18497 0.0
C2089 C 0.45971 0.95149 0.18632 0.0
C2090 C 0.48265 0.97523 0.17339 0.0
C2091 C 0.45956 0.97446 0.14206 0.0
H2092 H 0.5117 0.98934 0.13222 0.0
C2093 C 0.479 0.9897 0.09158 0.0
C2094 C 0.49781 0.00566 0.09005 0.0
C2095 C 0.47422 0.98356 0.1034 0.0
C2096 C 0.49716 0.98548 0.13487 0.0
H2097 H 0.43104 0.92996 0.17652 0.0
H2098 H 0.43863 0.94266 0.15629 0.0
H2099 H 0.50348 0.97805 0.15268 0.0
H2100 H 0.5264 0.02758 0.09978 0.0
H2101 H 0.51797 0.01705 0.12042 0.0
H2102 H 0.45323 0.98179 0.12419 0.0
C2103 C 0.44977 0.95008 0.16424 0.0
C2104 C 0.49244 0.97901 0.14662 0.0
C2105 C 0.44541 0.9428 0.17585 0.0
C2106 C 0.51172 0.01535 0.10064 0.0
C2107 C 0.50695 0.00917 0.11246 0.0
C2108 C 0.46429 0.98092 0.1303 0.0
C2109 C 0.46854 0.96625 0.16284 0.0
C2110 C 0.47358 0.9734 0.15037 0.0
C2111 C 0.48815 0.99319 0.11399 0.0
C2112 C 0.48314 0.98649 0.12655 0.0
H2113 H 0.48953 0.9752 0.19289 0.0
H2114 H 0.4971 0.98795 0.17271 0.0
H2115 H 0.44499 0.97052 0.14471 0.0
H2116 H 0.46785 0.98206 0.08366 0.0
H2117 H 0.45967 0.97108 0.10422 0.0
C2118 C 0.00659 0.50204 0.18656 0.0
C2119 C -0.00138 0.48516 0.19305 0.0
C2120 C 0.00438 0.50016 0.17354 0.0
C2121 C 0.97421 0.46555 0.14582 0.0
H2122 H 0.01823 0.50229 0.1289 0.0
C2123 C 0.97191 0.46286 0.09184 0.0
C2124 C 0.97777 0.48122 0.08729 0.0
C2125 C 0.97519 0.46186 0.10461 0.0
C2126 C 0.00581 0.49195 0.1335 0.0
H2127 H 0.9818 0.45303 0.19092 0.0
H2128 H 0.97828 0.44975 0.16813 0.0
H2129 H 0.02231 0.50316 0.15153 0.0
H2130 H 0.99224 0.51292 0.09237 0.0
H2131 H -0.00197 0.5112 0.11459 0.0
H2132 H 0.95772 0.45445 0.12771 0.0
C2133 C 0.98609 0.46445 0.17314 0.0
C2134 C 0.0081 0.49249 0.14646 0.0
C2135 C 0.98826 0.46633 0.1862 0.0
C2136 C 0.9874 0.49856 0.09565 0.0
C2137 C 0.99087 0.49759 0.10835 0.0
C2138 C 0.97196 0.46494 0.13282 0.0
C2139 C -0.00575 0.48136 0.16667 0.0
C2140 C 0.99221 0.47959 0.15281 0.0
C2141 C 0.98466 0.47924 0.11298 0.0
C2142 C 0.98762 0.47841 0.12657 0.0
H2143 H 0.0149 0.51676 0.19152 0.0
H2144 H 0.01057 0.51351 0.16887 0.0
H2145 H 0.96163 0.45551 0.15043 0.0
H2146 H 0.9644 0.44928 0.08558 0.0
H2147 H 0.97035 0.44754 0.10794 0.0
C2148 C 0.46748 0.51633 0.1792 0.0
C2149 C 0.46015 0.50024 0.18639 0.0
C2150 C 0.47101 0.51403 0.16688 0.0
C2151 C 0.4595 0.47687 0.14007 0.0
H2152 H 0.50797 0.51888 0.12961 0.0
C2153 C 0.48801 0.47018 0.09276 0.0
C2154 C 0.49561 0.48694 0.08614 0.0
C2155 C 0.48332 0.47128 0.10496 0.0
C2156 C 0.49427 0.50711 0.13234 0.0
H2157 H 0.4503 0.46897 0.18618 0.0
H2158 H 0.45656 0.46493 0.16458 0.0
H2159 H 0.50009 0.52151 0.15084 0.0
H2160 H 0.5044 0.51805 0.0872 0.0
H2161 H 0.49598 0.51993 0.1084 0.0
H2162 H 0.45377 0.46246 0.12152 0.0
C2163 C 0.45943 0.47931 0.16848 0.0
C2164 C 0.48973 0.50862 0.14451 0.0
C2165 C 0.45584 0.48161 0.18084 0.0
C2166 C 0.49842 0.50483 0.092 0.0
C2167 C 0.49379 0.50595 0.1042 0.0
C2168 C 0.46406 0.47534 0.12787 0.0
C2169 C 0.46734 0.49559 0.16142 0.0
C2170 C 0.47222 0.4936 0.14851 0.0
C2171 C 0.4862 0.4892 0.11083 0.0
C2172 C 0.48145 0.49052 0.12385 0.0
H2173 H 0.47056 0.53078 0.18313 0.0
H2174 H 0.47664 0.52676 0.16162 0.0
H2175 H 0.4458 0.46513 0.14281 0.0
H2176 H 0.48546 0.45611 0.08846 0.0
H2177 H 0.47765 0.45816 0.10984 0.0
C2178 C -0.00609 0.48883 0.81851 0.0
C2179 C 0.98082 0.49408 0.81264 0.0
C2180 C -0.00272 0.49078 0.83151 0.0
C2181 C -0.0065 0.51612 0.86022 0.0
H2182 H -0.00656 0.47263 0.87573 0.0
C2183 C 0.01881 0.52148 0.91252 0.0
C2184 C 0.00757 0.50496 0.91891 0.0
C2185 C 0.01494 0.5205 0.89961 0.0
C2186 C -0.00665 0.48483 0.87155 0.0
H2187 H 0.96116 0.5057 0.81586 0.0
H2188 H 0.96723 0.5093 0.83857 0.0
H2189 H 0.9882 0.47053 0.85306 0.0
H2190 H 0.98336 0.47454 0.9168 0.0
H2191 H 0.9765 0.47288 0.89424 0.0
H2192 H -0.00148 0.53035 0.87874 0.0
C2193 C 0.97498 0.5038 0.83309 0.0
C2194 C 0.99058 0.48373 0.85856 0.0
C2195 C 0.97155 0.50178 0.82008 0.0
C2196 C 0.99219 0.48754 0.91214 0.0
C2197 C 0.98839 0.48653 0.89922 0.0
C2198 C -0.00361 0.51728 0.87322 0.0
C2199 C 0.98771 0.49811 0.83894 0.0
C2200 C 0.99067 0.49937 0.85275 0.0
C2201 C -0.00018 0.50296 0.8928 0.0
C2202 C -0.00365 0.50164 0.87902 0.0
H2203 H 0.00156 0.48318 0.81306 0.0
H2204 H 0.00744 0.4866 0.83576 0.0
H2205 H -0.00624 0.52846 0.856 0.0
H2206 H 0.03063 0.53517 0.9175 0.0
H2207 H 0.0241 0.53335 0.89491 0.0
C2208 C 0.5253 0.48093 0.82675 0.0
C2209 C 0.53094 0.49644 0.81915 0.0
C2210 C 0.52208 0.48345 0.83912 0.0
C2211 C 0.50881 0.5128 0.86004 0.0
H2212 H 0.52606 0.49074 0.886 0.0
C2213 C 0.47822 0.50094 0.90806 0.0
C2214 C 0.4917 0.5052 0.91865 0.0
C2215 C 0.48415 0.50142 0.89607 0.0
C2216 C 0.52129 0.49715 0.87889 0.0
H2217 H 0.53784 0.52686 0.81863 0.0
H2218 H 0.53229 0.53132 0.84036 0.0
H2219 H 0.53512 0.48919 0.86493 0.0
H2220 H 0.52218 0.51389 0.92493 0.0
H2221 H 0.53245 0.51454 0.90404 0.0
H2222 H 0.49496 0.52074 0.87401 0.0
C2223 C 0.53026 0.51716 0.83667 0.0
C2224 C 0.52633 0.49609 0.86679 0.0
C2225 C 0.53361 0.51468 0.82428 0.0
C2226 C 0.51131 0.51016 0.91698 0.0
C2227 C 0.51722 0.51058 0.905 0.0
C2228 C 0.50369 0.51378 0.87213 0.0
C2229 C 0.52434 0.50152 0.8442 0.0
C2230 C 0.52 0.50374 0.85721 0.0
C2231 C 0.50368 0.50611 0.89441 0.0
C2232 C 0.50975 0.50583 0.88167 0.0
H2233 H 0.52333 0.46678 0.82311 0.0
H2234 H 0.51735 0.47105 0.84463 0.0
H2235 H 0.50358 0.51869 0.85283 0.0
H2236 H 0.46294 0.4968 0.909 0.0
H2237 H 0.47328 0.49763 0.8881 0.0
C2238 C 0.53172 0.03147 0.82664 0.0
C2239 C 0.52903 0.04731 0.82366 0.0
C2240 C 0.52847 0.02475 0.83846 0.0
C2241 C 0.52543 0.0402 0.87094 0.0
H2242 H 0.49576 0.9838 0.8738 0.0
C2243 C 0.4955 0.00965 0.91693 0.0
C2244 C 0.49631 0.99296 0.92031 0.0
C2245 C 0.50006 0.01613 0.90517 0.0
C2246 C 0.5043 -0.0004 0.87319 0.0
H2247 H 0.52129 0.0688 0.83089 0.0
H2248 H 0.51544 0.05699 0.85141 0.0
H2249 H 0.50305 -0.00454 0.85329 0.0
H2250 H 0.50276 0.9701 0.91396 0.0
H2251 H 0.51082 0.98147 0.89345 0.0
H2252 H 0.5267 0.04439 0.89081 0.0
C2253 C 0.52013 0.04978 0.84464 0.0
C2254 C 0.50847 0.00628 0.86142 0.0
C2255 C 0.52327 0.05641 0.83282 0.0
C2256 C 0.50174 0.98286 0.9116 0.0
C2257 C 0.50635 0.98937 0.89984 0.0
C2258 C 0.52131 0.03354 0.88269 0.0
C2259 C 0.52263 0.03384 0.8476 0.0
C2260 C 0.51893 0.02667 0.86015 0.0
C2261 C 0.50561 0.00612 0.89648 0.0
C2262 C 0.51054 0.01315 0.88397 0.0
H2263 H 0.53602 0.02405 0.81976 0.0
H2264 H 0.53069 0.01254 0.84048 0.0
H2265 H 0.53382 0.056 0.87031 0.0
H2266 H 0.49105 0.01757 0.92333 0.0
H2267 H 0.49895 0.02885 0.90283 0.0
C2268 C 0.10938 0.27722 0.50845 0.0
C2269 C 0.12416 0.28533 0.51868 0.0
C2270 C 0.11348 0.28453 0.49683 0.0
C2271 C 0.14896 0.32765 0.48151 0.0
H2272 H 0.13002 0.28955 0.45208 0.0
C2273 C 0.17752 0.3491 0.4335 0.0
C2274 C 0.16369 0.3403 0.42281 0.0
C2275 C 0.17215 0.34287 0.44523 0.0
C2276 C 0.13522 0.30042 0.46017 0.0
H2277 H 0.15463 0.30799 0.52481 0.0
H2278 H 0.16185 0.32051 0.50454 0.0
H2279 H 0.12139 0.27803 0.47245 0.0
H2280 H 0.13316 0.31839 0.41616 0.0
H2281 H 0.1238 0.30754 0.43659 0.0
H2282 H 0.16291 0.35003 0.46922 0.0
C2283 C 0.14705 0.30857 0.50549 0.0
C2284 C 0.13025 0.29381 0.47187 0.0
C2285 C 0.14297 0.30124 0.51709 0.0
C2286 C 0.14429 0.32525 0.42416 0.0
C2287 C 0.13892 0.31902 0.43588 0.0
C2288 C 0.15393 0.33427 0.46981 0.0
C2289 C 0.13243 0.30017 0.49518 0.0
C2290 C 0.13713 0.30732 0.48269 0.0
C2291 C 0.1528 0.32769 0.44656 0.0
C2292 C 0.14719 0.32073 0.459 0.0
H2293 H 0.09478 0.26487 0.50932 0.0
H2294 H 0.10179 0.27788 0.48913 0.0
H2295 H 0.15428 0.33849 0.48962 0.0
H2296 H 0.19265 0.36055 0.43278 0.0
H2297 H 0.1833 0.34967 0.45322 0.0
C2298 C 0.67866 0.83842 0.52086 0.0
C2299 C 0.67101 0.82135 0.52717 0.0
C2300 C 0.67626 0.83685 0.50785 0.0
C2301 C 0.64583 0.80242 0.48008 0.0
H2302 H 0.68894 0.83995 0.46289 0.0
C2303 C 0.64228 0.79953 0.42612 0.0
C2304 C 0.64767 0.81774 0.42149 0.0
C2305 C 0.64592 0.79875 0.43887 0.0
C2306 C 0.67676 0.8294 0.46757 0.0
H2307 H 0.6546 0.78921 0.52473 0.0
H2308 H 0.65081 0.78648 0.50197 0.0
H2309 H 0.6936 0.84077 0.4855 0.0
H2310 H 0.66168 0.84944 0.42643 0.0
H2311 H 0.66807 0.8481 0.44865 0.0
H2312 H 0.62901 0.79114 0.46208 0.0
C2313 C 0.65849 0.80109 0.50711 0.0
C2314 C 0.67939 0.82991 0.48052 0.0
C2315 C 0.66084 0.80266 0.52015 0.0
C2316 C 0.65719 0.83518 0.42978 0.0
C2317 C 0.66101 0.83443 0.44246 0.0
C2318 C 0.64325 0.80184 0.4671 0.0
C2319 C 0.66625 0.81818 0.50081 0.0
C2320 C 0.66384 0.81667 0.48696 0.0
C2321 C 0.65528 0.8162 0.44716 0.0
C2322 C 0.65858 0.81556 0.46075 0.0
H2323 H 0.68681 0.85305 0.52596 0.0
H2324 H 0.68216 0.85032 0.50331 0.0
H2325 H 0.63349 0.79214 0.48475 0.0
H2326 H 0.63486 0.78587 0.41992 0.0
H2327 H 0.64146 0.78452 0.44225 0.0
C2328 C 0.12328 0.80859 0.51503 0.0
C2329 C 0.127 0.82722 0.52018 0.0
C2330 C 0.12651 0.80582 0.50263 0.0
C2331 C 0.15471 0.83458 0.47775 0.0
H2332 H 0.11918 0.78715 0.45558 0.0
C2333 C 0.15914 0.83093 0.42492 0.0
C2334 C 0.15782 0.8138 0.4189 0.0
C2335 C 0.15509 0.83152 0.43729 0.0
C2336 C 0.12934 0.80038 0.46172 0.0
H2337 H 0.1359 0.85717 0.51622 0.0
H2338 H 0.14127 0.85233 0.49467 0.0
H2339 H 0.11228 0.78995 0.47718 0.0
H2340 H 0.15088 0.78373 0.4211 0.0
H2341 H 0.14388 0.7848 0.44283 0.0
H2342 H 0.17164 0.84513 0.46232 0.0
C2343 C 0.13646 0.84 0.50025 0.0
C2344 C 0.12541 0.80199 0.47408 0.0
C2345 C 0.13333 0.84277 0.51259 0.0
C2346 C 0.15217 0.79719 0.42552 0.0
C2347 C 0.148 0.79774 0.43791 0.0
C2348 C 0.15858 0.83301 0.46542 0.0
C2349 C 0.13343 0.82161 0.49516 0.0
C2350 C 0.13792 0.81924 0.48219 0.0
C2351 C 0.14959 0.81499 0.44396 0.0
C2352 C 0.14583 0.81602 0.45722 0.0
H2353 H 0.11846 0.79636 0.52068 0.0
H2354 H 0.12413 0.79149 0.49901 0.0
H2355 H 0.16494 0.84787 0.48381 0.0
H2356 H 0.16365 0.84405 0.42014 0.0
H2357 H 0.15622 0.84495 0.44164 0.0
C2358 C 0.66505 0.83006 0.15251 0.0
C2359 C 0.65188 0.83533 0.14677 0.0
C2360 C 0.66841 0.83174 0.1655 0.0
C2361 C 0.66404 0.8557 0.19464 0.0
H2362 H 0.66295 0.81097 0.20908 0.0
C2363 C 0.68751 0.85761 0.24685 0.0
C2364 C 0.67589 0.84066 0.25279 0.0
C2365 C 0.68405 0.85749 0.23399 0.0
C2366 C 0.66314 0.82351 0.2052 0.0
H2367 H 0.63227 0.84693 0.15021 0.0
H2368 H 0.63833 0.85006 0.17291 0.0
H2369 H 0.65854 0.81027 0.18646 0.0
H2370 H 0.6514 0.81038 0.24993 0.0
H2371 H 0.64528 0.81021 0.22744 0.0
H2372 H 0.6685 0.86886 0.21342 0.0
C2373 C 0.64612 0.84473 0.16733 0.0
C2374 C 0.66086 0.82321 0.19224 0.0
C2375 C 0.64269 0.84297 0.15433 0.0
C2376 C 0.66052 0.8237 0.24563 0.0
C2377 C 0.65714 0.82354 0.23274 0.0
C2378 C 0.66644 0.85604 0.20761 0.0
C2379 C 0.65875 0.8388 0.17305 0.0
C2380 C 0.66132 0.83931 0.18682 0.0
C2381 C 0.66897 0.84039 0.22677 0.0
C2382 C 0.66602 0.83994 0.21302 0.0
H2383 H 0.67265 0.82447 0.14696 0.0
H2384 H 0.67852 0.82742 0.16964 0.0
H2385 H 0.66454 0.86835 0.19073 0.0
H2386 H 0.69932 0.87097 0.25216 0.0
H2387 H 0.69351 0.87065 0.22964 0.0
C2388 C 0.19169 0.81408 0.15967 0.0
C2389 C 0.19689 0.82956 0.1521 0.0
C2390 C 0.18835 0.81638 0.17205 0.0
C2391 C 0.17385 0.84465 0.19293 0.0
H2392 H 0.19194 0.82329 0.21891 0.0
C2393 C 0.14287 0.83165 0.2408 0.0
C2394 C 0.15639 0.83625 0.25144 0.0
C2395 C 0.14894 0.83233 0.22885 0.0
C2396 C 0.18693 0.8295 0.21179 0.0
H2397 H 0.20294 0.85971 0.15161 0.0
H2398 H 0.1972 0.8638 0.17334 0.0
H2399 H 0.20134 0.82226 0.19788 0.0
H2400 H 0.18704 0.84573 0.25782 0.0
H2401 H 0.19755 0.84675 0.23697 0.0
H2402 H 0.15943 0.85186 0.20685 0.0
C2403 C 0.19559 0.84983 0.16964 0.0
C2404 C 0.19216 0.82874 0.19972 0.0
C2405 C 0.19905 0.84756 0.15725 0.0
C2406 C 0.17615 0.84173 0.24983 0.0
C2407 C 0.18219 0.84236 0.23788 0.0
C2408 C 0.16854 0.84533 0.205 0.0
C2409 C 0.19007 0.8342 0.17714 0.0
C2410 C 0.18554 0.83614 0.19013 0.0
C2411 C 0.16864 0.83759 0.22725 0.0
C2412 C 0.1749 0.83762 0.21454 0.0
H2413 H 0.19012 0.80011 0.15601 0.0
H2414 H 0.18395 0.80399 0.17754 0.0
H2415 H 0.16838 0.85033 0.18572 0.0
H2416 H 0.12749 0.82711 0.24169 0.0
H2417 H 0.13807 0.82829 0.22084 0.0
C2418 C 0.19829 0.36354 0.1602 0.0
C2419 C 0.19631 0.37985 0.15737 0.0
C2420 C 0.19492 0.35676 0.172 0.0
C2421 C 0.19283 0.37242 0.20462 0.0
H2422 H 0.16135 0.31606 0.20723 0.0
C2423 C 0.16273 0.34216 0.25063 0.0
C2424 C 0.16282 0.32504 0.25383 0.0
C2425 C 0.16733 0.34866 0.23887 0.0
C2426 C 0.17039 0.33183 0.20669 0.0
H2427 H 0.18971 0.40207 0.16482 0.0
H2428 H 0.18365 0.39015 0.1853 0.0
H2429 H 0.16882 0.32783 0.18676 0.0
H2430 H 0.16799 0.30142 0.24719 0.0
H2431 H 0.17612 0.31282 0.22669 0.0
H2432 H 0.19444 0.37648 0.22451 0.0
C2433 C 0.18788 0.38264 0.17844 0.0
C2434 C 0.17467 0.33857 0.19494 0.0
C2435 C 0.19114 0.38934 0.16665 0.0
C2436 C 0.16754 0.31452 0.24496 0.0
C2437 C 0.17219 0.32106 0.2332 0.0
C2438 C 0.18862 0.36569 0.21635 0.0
C2439 C 0.18965 0.36623 0.18125 0.0
C2440 C 0.1858 0.35896 0.19376 0.0
C2441 C 0.17219 0.33825 0.23002 0.0
C2442 C 0.1772 0.34532 0.21754 0.0
H2443 H 0.20212 0.35582 0.15323 0.0
H2444 H 0.19657 0.34418 0.17391 0.0
H2445 H 0.20173 0.3882 0.20405 0.0
H2446 H 0.15884 0.35042 0.25716 0.0
H2447 H 0.16679 0.36173 0.23667 0.0
C2448 C 0.77539 0.60676 0.84178 0.0
C2449 C 0.79019 0.61523 0.852 0.0
C2450 C 0.77935 0.61385 0.8301 0.0
C2451 C 0.81439 0.65686 0.8145 0.0
H2452 H 0.79604 0.61831 0.78534 0.0
C2453 C 0.84343 0.67779 0.76661 0.0
C2454 C 0.82973 0.66884 0.75586 0.0
C2455 C 0.83794 0.67162 0.77833 0.0
C2456 C 0.80106 0.6293 0.79336 0.0
H2457 H 0.82053 0.6383 0.85803 0.0
H2458 H 0.82753 0.65042 0.83766 0.0
H2459 H 0.78739 0.60711 0.80578 0.0
H2460 H 0.79934 0.64668 0.74911 0.0
H2461 H 0.78978 0.63593 0.76953 0.0
H2462 H 0.82821 0.67904 0.80208 0.0
C2463 C 0.81281 0.63837 0.83867 0.0
C2464 C 0.79608 0.62287 0.80509 0.0
C2465 C 0.80887 0.63127 0.85033 0.0
C2466 C 0.81037 0.65366 0.75715 0.0
C2467 C 0.80488 0.6475 0.76887 0.0
C2468 C 0.81937 0.66329 0.80277 0.0
C2469 C 0.79818 0.62962 0.82837 0.0
C2470 C 0.80278 0.63656 0.81582 0.0
C2471 C 0.81861 0.65637 0.7796 0.0
C2472 C 0.81287 0.64958 0.79206 0.0
H2473 H 0.76089 0.5943 0.84272 0.0
H2474 H 0.76766 0.60692 0.82241 0.0
H2475 H 0.81954 0.66782 0.82254 0.0
H2476 H 0.85854 0.68932 0.76593 0.0
H2477 H 0.84899 0.67857 0.78637 0.0
C2478 C 0.31263 0.1294 0.85218 0.0
C2479 C 0.32949 0.1467 0.85794 0.0
C2480 C 0.30907 0.12583 0.83916 0.0
C2481 C 0.33421 0.13877 0.81074 0.0
H2482 H 0.28305 0.1265 0.79446 0.0
C2483 C 0.32347 0.14959 0.75933 0.0
C2484 C 0.30527 0.1367 0.75218 0.0
C2485 C 0.32603 0.14811 0.77205 0.0
C2486 C 0.2973 0.12952 0.79883 0.0
H2487 H 0.35606 0.17356 0.85467 0.0
H2488 H 0.3499 0.16728 0.83197 0.0
H2489 H 0.2881 0.12872 0.81716 0.0
H2490 H 0.27573 0.11169 0.75262 0.0
H2491 H 0.2803 0.10882 0.77485 0.0
H2492 H 0.34352 0.13964 0.79249 0.0
C2493 C 0.33943 0.15652 0.83749 0.0
C2494 C 0.30018 0.13084 0.81184 0.0
C2495 C 0.34284 0.16021 0.85047 0.0
C2496 C 0.28985 0.12194 0.75794 0.0
C2497 C 0.29246 0.12036 0.77067 0.0
C2498 C 0.33129 0.13726 0.79774 0.0
C2499 C 0.3225 0.13933 0.83171 0.0
C2500 C 0.3188 0.13591 0.81792 0.0
C2501 C 0.31051 0.1336 0.77791 0.0
C2502 C 0.31294 0.13306 0.79163 0.0
H2503 H 0.30209 0.11879 0.85775 0.0
H2504 H 0.29594 0.11244 0.83491 0.0
H2505 H 0.34862 0.14239 0.8152 0.0
H2506 H 0.33551 0.16133 0.7552 0.0
H2507 H 0.33999 0.15882 0.77735 0.0
C2508 C 0.81342 0.1611 0.85119 0.0
C2509 C 0.79481 0.15779 0.8542 0.0
C2510 C 0.81667 0.15878 0.83879 0.0
C2511 C 0.79174 0.13606 0.80715 0.0
H2512 H 0.84013 0.1782 0.79667 0.0
C2513 C 0.81884 0.13146 0.75897 0.0
C2514 C 0.82629 0.14855 0.75267 0.0
C2515 C 0.81428 0.132 0.77125 0.0
C2516 C 0.8265 0.16637 0.79943 0.0
H2517 H 0.76482 0.14881 0.8465 0.0
H2518 H 0.77045 0.14451 0.82482 0.0
H2519 H 0.83335 0.17965 0.81832 0.0
H2520 H 0.83484 0.17961 0.75433 0.0
H2521 H 0.82684 0.18055 0.77577 0.0
H2522 H 0.78486 0.12287 0.78818 0.0
C2523 C 0.78251 0.14888 0.83211 0.0
C2524 C 0.82272 0.16709 0.81186 0.0
C2525 C 0.77928 0.1513 0.84453 0.0
C2526 C 0.829 0.16617 0.7589 0.0
C2527 C 0.82458 0.16674 0.77121 0.0
C2528 C 0.7956 0.13526 0.79471 0.0
C2529 C 0.80135 0.15297 0.82909 0.0
C2530 C 0.80531 0.15195 0.81587 0.0
C2531 C 0.81723 0.14968 0.77753 0.0
C2532 C 0.81301 0.15045 0.79071 0.0
H2533 H 0.8256 0.1657 0.85843 0.0
H2534 H 0.83124 0.16166 0.83678 0.0
H2535 H 0.77825 0.12414 0.80997 0.0
H2536 H 0.8164 0.11761 0.75437 0.0
H2537 H 0.80877 0.11865 0.7759 0.0
C2538 C 0.29677 0.14515 0.48635 0.0
C2539 C 0.30826 0.16123 0.4797 0.0
C2540 C 0.29979 0.147 0.49934 0.0
C2541 C 0.32214 0.18379 0.52727 0.0
H2542 H 0.32095 0.13982 0.54281 0.0
C2543 C 0.34907 0.18908 0.57931 0.0
C2544 C 0.33757 0.17284 0.58584 0.0
C2545 C 0.3448 0.18808 0.56643 0.0
C2546 C 0.32109 0.15213 0.53862 0.0
H2547 H 0.3318 0.19192 0.48146 0.0
H2548 H 0.33729 0.19513 0.50422 0.0
H2549 H 0.31504 0.13743 0.5202 0.0
H2550 H 0.31249 0.14289 0.58403 0.0
H2551 H 0.30493 0.1412 0.56155 0.0
H2552 H 0.32848 0.19855 0.54576 0.0
C2553 C 0.32573 0.18116 0.49938 0.0
C2554 C 0.3177 0.15077 0.52566 0.0
C2555 C 0.32263 0.17932 0.48635 0.0
C2556 C 0.32153 0.15569 0.57926 0.0
C2557 C 0.31733 0.15465 0.56638 0.0
C2558 C 0.32563 0.18518 0.54025 0.0
C2559 C 0.31445 0.16495 0.50602 0.0
C2560 C 0.31813 0.16655 0.51982 0.0
C2561 C 0.32902 0.17078 0.55981 0.0
C2562 C 0.3251 0.16934 0.54606 0.0
H2563 H 0.28532 0.13113 0.48149 0.0
H2564 H 0.29055 0.13436 0.50417 0.0
H2565 H 0.32232 0.19611 0.52308 0.0
H2566 H 0.36139 0.20257 0.58415 0.0
H2567 H 0.35416 0.2007 0.56161 0.0
C2568 C 0.86199 0.15182 0.49455 0.0
C2569 C 0.86513 0.16585 0.48612 0.0
C2570 C 0.85895 0.15512 0.50686 0.0
C2571 C 0.84113 0.18182 0.52624 0.0
H2572 H 0.86572 0.16888 0.5537 0.0
C2573 C 0.81279 0.16968 0.57488 0.0
C2574 C 0.82697 0.17726 0.58544 0.0
C2575 C 0.81868 0.17062 0.56287 0.0
C2576 C 0.85889 0.17275 0.54615 0.0
H2577 H 0.86765 0.19437 0.484 0.0
H2578 H 0.86229 0.20013 0.50558 0.0
H2579 H 0.87429 0.16626 0.53258 0.0
H2580 H 0.85857 0.19254 0.59155 0.0
H2581 H 0.86877 0.19384 0.57057 0.0
H2582 H 0.82553 0.18806 0.5398 0.0
C2583 C 0.86216 0.18658 0.50262 0.0
C2584 C 0.86366 0.17107 0.53405 0.0
C2585 C 0.86539 0.18336 0.49031 0.0
C2586 C 0.84722 0.18622 0.58365 0.0
C2587 C 0.85309 0.18702 0.57163 0.0
C2588 C 0.83623 0.18333 0.53833 0.0
C2589 C 0.85884 0.17245 0.51101 0.0
C2590 C 0.85469 0.17541 0.52395 0.0
C2591 C 0.83886 0.17904 0.56112 0.0
C2592 C 0.84493 0.17865 0.5484 0.0
H2593 H 0.86188 0.13826 0.49161 0.0
H2594 H 0.85625 0.14387 0.51308 0.0
H2595 H 0.83387 0.18512 0.51863 0.0
H2596 H 0.79707 0.16238 0.57588 0.0
H2597 H 0.80735 0.16411 0.55496 0.0
C2598 C 0.85452 0.71942 0.49901 0.0
C2599 C 0.86096 0.71081 0.48997 0.0
C2600 C 0.85116 0.71259 0.51077 0.0
C2601 C 0.8403 0.66921 0.52754 0.0
H2602 H 0.85722 0.70705 0.55696 0.0
C2603 C 0.8338 0.64557 0.57768 0.0
C2604 C 0.82806 0.65535 0.5864 0.0
C2605 C 0.83826 0.65216 0.56591 0.0
C2606 C 0.85218 0.69626 0.54884 0.0
H2607 H 0.86887 0.68818 0.48622 0.0
H2608 H 0.86313 0.67632 0.50684 0.0
H2609 H 0.86434 0.71888 0.53652 0.0
H2610 H 0.82201 0.67944 0.58943 0.0
H2611 H 0.8296 0.69082 0.56893 0.0
H2612 H 0.82794 0.64658 0.53984 0.0
C2613 C 0.86057 0.6883 0.50477 0.0
C2614 C 0.8563 0.70305 0.53711 0.0
C2615 C 0.86404 0.69522 0.493 0.0
C2616 C 0.82671 0.67177 0.58302 0.0
C2617 C 0.8311 0.67832 0.57126 0.0
C2618 C 0.83611 0.6624 0.53928 0.0
C2619 C 0.8541 0.69693 0.51379 0.0
C2620 C 0.8503 0.68963 0.52631 0.0
C2621 C 0.83702 0.66866 0.56256 0.0
C2622 C 0.84189 0.67584 0.55007 0.0
H2623 H 0.85221 0.7316 0.49703 0.0
H2624 H 0.84599 0.71944 0.51745 0.0
H2625 H 0.83527 0.65847 0.51938 0.0
H2626 H 0.83523 0.63303 0.58004 0.0
H2627 H 0.84302 0.64452 0.55953 0.0
loop_
_geom_bond_atom_site_label_1
_geom_bond_atom_site_label_2
_geom_bond_distance
_geom_bond_site_symmetry_2
_ccdc_geom_bond_type
C0 C1 1.384 . S
C0 H13 0.947 . S
C0 C35 1.382 . S
C1 C0 1.384 . S
C1 C2 1.378 . S
C2 C1 1.378 . S
C2 C3 1.378 . S
C2 H14 0.952 . S
C3 C2 1.378 . S
C3 H15 0.950 . S
C3 C34 1.383 . S
H4 C23 0.947 . S
H5 C24 0.946 . S
H6 C26 0.953 . S
H7 C27 0.945 . S
H8 C29 0.952 . S
H9 C30 0.949 . S
H10 C32 0.950 . S
H11 C33 0.948 . S
H12 C35 0.951 . S
H13 C0 0.947 . S
H14 C2 0.952 . S
H15 C3 0.950 . S
N16 C19 1.382 . S
N16 C21 1.363 . S
N17 C19 1.371 . S
N17 C20 1.372 . S
N18 C20 1.361 . S
N18 C21 1.377 . S
C19 N16 1.382 . S
C19 N17 1.371 . S
C19 C22 1.480 . S
C20 N17 1.372 . S
C20 N18 1.361 . S
C20 C28 1.457 . S
C21 N16 1.363 . S
C21 N18 1.377 . S
C21 C34 1.479 . S
C22 C19 1.480 . S
C22 C23 1.383 . S
C22 C27 1.385 . S
C23 H4 0.947 . S
C23 C22 1.383 . S
C23 C24 1.388 . S
C24 H5 0.946 . S
C24 C23 1.388 . S
C24 C25 1.384 . S
C25 C24 1.384 . S
C25 C26 1.377 . S
C26 H6 0.953 . S
C26 C25 1.377 . S
C26 C27 1.369 . S
C27 H7 0.945 . S
C27 C22 1.385 . S
C27 C26 1.369 . S
C28 C20 1.457 . S
C28 C29 1.372 . S
C28 C33 1.364 . S
C29 H8 0.952 . S
C29 C28 1.372 . S
C29 C30 1.389 . S
C30 H9 0.949 . S
C30 C29 1.389 . S
C30 C31 1.387 . S
C31 C30 1.387 . S
C31 C32 1.372 . S
C32 H10 0.950 . S
C32 C31 1.372 . S
C32 C33 1.379 . S
C33 H11 0.948 . S
C33 C28 1.364 . S
C33 C32 1.379 . S
C34 C3 1.383 . S
C34 C21 1.479 . S
C34 C35 1.398 . S
C35 C0 1.382 . S
C35 H12 0.951 . S
C35 C34 1.398 . S
C36 C37 1.384 . S
C36 H49 0.947 . S
C36 C71 1.382 . S
C37 C36 1.384 . S
C37 C38 1.378 . S
C38 C37 1.378 . S
C38 C39 1.378 . S
C38 H50 0.952 . S
C39 C38 1.378 . S
C39 H51 0.950 . S
C39 C70 1.383 . S
H40 C59 0.947 . S
H41 C60 0.946 . S
H42 C62 0.953 . S
H43 C63 0.945 . S
H44 C65 0.952 . S
H45 C66 0.949 . S
H46 C68 0.950 . S
H47 C69 0.948 . S
H48 C71 0.951 . S
H49 C36 0.947 . S
H50 C38 0.952 . S
H51 C39 0.950 . S
N52 C55 1.382 . S
N52 C57 1.363 . S
N53 C55 1.371 . S
N53 C56 1.372 . S
N54 C56 1.361 . S
N54 C57 1.377 . S
C55 N52 1.382 . S
C55 N53 1.371 . S
C55 C58 1.480 . S
C56 N53 1.372 . S
C56 N54 1.361 . S
C56 C64 1.457 . S
C57 N52 1.363 . S
C57 N54 1.377 . S
C57 C70 1.479 . S
C58 C55 1.480 . S
C58 C59 1.383 . S
C58 C63 1.385 . S
C59 H40 0.947 . S
C59 C58 1.383 . S
C59 C60 1.388 . S
C60 H41 0.946 . S
C60 C59 1.388 . S
C60 C61 1.384 . S
C61 C60 1.384 . S
C61 C62 1.377 . S
C62 H42 0.953 . S
C62 C61 1.377 . S
C62 C63 1.369 . S
C63 H43 0.945 . S
C63 C58 1.385 . S
C63 C62 1.369 . S
C64 C56 1.457 . S
C64 C65 1.372 . S
C64 C69 1.364 . S
C65 H44 0.952 . S
C65 C64 1.372 . S
C65 C66 1.389 . S
C66 H45 0.949 . S
C66 C65 1.389 . S
C66 C67 1.387 . S
C67 C66 1.387 . S
C67 C68 1.372 . S
C68 H46 0.950 . S
C68 C67 1.372 . S
C68 C69 1.379 . S
C69 H47 0.948 . S
C69 C64 1.364 . S
C69 C68 1.379 . S
C70 C39 1.383 . S
C70 C57 1.479 . S
C70 C71 1.398 . S
C71 C36 1.382 . S
C71 H48 0.951 . S
C71 C70 1.398 . S
C72 C73 1.384 . S
C72 H85 0.947 . S
C72 C107 1.382 . S
C73 C72 1.384 . S
C73 C74 1.378 . S
C74 C73 1.378 . S
C74 C75 1.378 . S
C74 H86 0.952 . S
C75 C74 1.378 . S
C75 H87 0.950 . S
C75 C106 1.383 . S
H76 C95 0.947 . S
H77 C96 0.946 . S
H78 C98 0.953 . S
H79 C99 0.945 . S
H80 C101 0.952 . S
H81 C102 0.949 . S
H82 C104 0.950 . S
H83 C105 0.948 . S
H84 C107 0.951 . S
H85 C72 0.947 . S
H86 C74 0.952 . S
H87 C75 0.950 . S
N88 C91 1.382 . S
N88 C93 1.363 . S
N89 C91 1.371 . S
N89 C92 1.372 . S
N90 C92 1.361 . S
N90 C93 1.377 . S
C91 N88 1.382 . S
C91 N89 1.371 . S
C91 C94 1.480 . S
C92 N89 1.372 . S
C92 N90 1.361 . S
C92 C100 1.457 . S
C93 N88 1.363 . S
C93 N90 1.377 . S
C93 C106 1.479 . S
C94 C91 1.480 . S
C94 C95 1.383 . S
C94 C99 1.385 . S
C95 H76 0.947 . S
C95 C94 1.383 . S
C95 C96 1.388 . S
C96 H77 0.946 . S
C96 C95 1.388 . S
C96 C97 1.384 . S
C97 C96 1.384 . S
C97 C98 1.377 . S
C98 H78 0.953 . S
C98 C97 1.377 . S
C98 C99 1.369 . S
C99 H79 0.945 . S
C99 C94 1.385 . S
C99 C98 1.369 . S
C100 C92 1.457 . S
C100 C101 1.372 . S
C100 C105 1.364 . S
C101 H80 0.952 . S
C101 C100 1.372 . S
C101 C102 1.389 . S
C102 H81 0.949 . S
C102 C101 1.389 . S
C102 C103 1.387 . S
C103 C102 1.387 . S
C103 C104 1.372 . S
C104 H82 0.950 . S
C104 C103 1.372 . S
C104 C105 1.379 . S
C105 H83 0.948 . S
C105 C100 1.364 . S
C105 C104 1.379 . S
C106 C75 1.383 . S
C106 C93 1.479 . S
C106 C107 1.398 . S
C107 C72 1.382 . S
C107 H84 0.951 . S
C107 C106 1.398 . S
C108 C109 1.384 . S
C108 H121 0.947 . S
C108 C143 1.382 . S
C109 C108 1.384 . S
C109 C110 1.378 . S
C110 C109 1.378 . S
C110 C111 1.378 . S
C110 H122 0.952 . S
C111 C110 1.378 . S
C111 H123 0.950 . S
C111 C142 1.383 . S
H112 C131 0.947 . S
H113 C132 0.946 . S
H114 C134 0.953 . S
H115 C135 0.945 . S
H116 C137 0.952 . S
H117 C138 0.949 . S
H118 C140 0.950 . S
H119 C141 0.948 . S
H120 C143 0.951 . S
H121 C108 0.947 . S
H122 C110 0.952 . S
H123 C111 0.950 . S
N124 C127 1.382 . S
N124 C129 1.363 . S
N125 C127 1.371 . S
N125 C128 1.372 . S
N126 C128 1.361 . S
N126 C129 1.377 . S
C127 N124 1.382 . S
C127 N125 1.371 . S
C127 C130 1.480 . S
C128 N125 1.372 . S
C128 N126 1.361 . S
C128 C136 1.457 . S
C129 N124 1.363 . S
C129 N126 1.377 . S
C129 C142 1.479 . S
C130 C127 1.480 . S
C130 C131 1.383 . S
C130 C135 1.385 . S
C131 H112 0.947 . S
C131 C130 1.383 . S
C131 C132 1.388 . S
C132 H113 0.946 . S
C132 C131 1.388 . S
C132 C133 1.384 . S
C133 C132 1.384 . S
C133 C134 1.377 . S
C134 H114 0.953 . S
C134 C133 1.377 . S
C134 C135 1.369 . S
C135 H115 0.945 . S
C135 C130 1.385 . S
C135 C134 1.369 . S
C136 C128 1.457 . S
C136 C137 1.372 . S
C136 C141 1.364 . S
C137 H116 0.952 . S
C137 C136 1.372 . S
C137 C138 1.389 . S
C138 H117 0.949 . S
C138 C137 1.389 . S
C138 C139 1.387 . S
C139 C138 1.387 . S
C139 C140 1.372 . S
C140 H118 0.950 . S
C140 C139 1.372 . S
C140 C141 1.379 . S
C141 H119 0.948 . S
C141 C136 1.364 . S
C141 C140 1.379 . S
C142 C111 1.383 . S
C142 C129 1.479 . S
C142 C143 1.398 . S
C143 C108 1.382 . S
C143 H120 0.951 . S
C143 C142 1.398 . S
C144 C145 1.384 . S
C144 H157 0.947 . S
C144 C179 1.382 . S
C145 C144 1.384 . S
C145 C146 1.378 . S
C146 C145 1.378 . S
C146 C147 1.378 . S
C146 H158 0.952 . S
C147 C146 1.378 . S
C147 H159 0.950 . S
C147 C178 1.383 . S
H148 C167 0.947 . S
H149 C168 0.946 . S
H150 C170 0.953 . S
H151 C171 0.945 . S
H152 C173 0.952 . S
H153 C174 0.949 . S
H154 C176 0.950 . S
H155 C177 0.948 . S
H156 C179 0.951 . S
H157 C144 0.947 . S
H158 C146 0.952 . S
H159 C147 0.950 . S
N160 C163 1.382 . S
N160 C165 1.363 . S
N161 C163 1.371 . S
N161 C164 1.372 . S
N162 C164 1.361 . S
N162 C165 1.377 . S
C163 N160 1.382 . S
C163 N161 1.371 . S
C163 C166 1.480 . S
C164 N161 1.372 . S
C164 N162 1.361 . S
C164 C172 1.457 . S
C165 N160 1.363 . S
C165 N162 1.377 . S
C165 C178 1.479 . S
C166 C163 1.480 . S
C166 C167 1.383 . S
C166 C171 1.385 . S
C167 H148 0.947 . S
C167 C166 1.383 . S
C167 C168 1.388 . S
C168 H149 0.946 . S
C168 C167 1.388 . S
C168 C169 1.384 . S
C169 C168 1.384 . S
C169 C170 1.377 . S
C170 H150 0.953 . S
C170 C169 1.377 . S
C170 C171 1.369 . S
C171 H151 0.945 . S
C171 C166 1.385 . S
C171 C170 1.369 . S
C172 C164 1.457 . S
C172 C173 1.372 . S
C172 C177 1.364 . S
C173 H152 0.952 . S
C173 C172 1.372 . S
C173 C174 1.389 . S
C174 H153 0.949 . S
C174 C173 1.389 . S
C174 C175 1.387 . S
C175 C174 1.387 . S
C175 C176 1.372 . S
C176 H154 0.950 . S
C176 C175 1.372 . S
C176 C177 1.379 . S
C177 H155 0.948 . S
C177 C172 1.364 . S
C177 C176 1.379 . S
C178 C147 1.383 . S
C178 C165 1.479 . S
C178 C179 1.398 . S
C179 C144 1.382 . S
C179 H156 0.951 . S
C179 C178 1.398 . S
C180 C181 1.384 . S
C180 H193 0.947 . S
C180 C215 1.382 . S
C181 C180 1.384 . S
C181 C182 1.378 . S
C182 C181 1.378 . S
C182 C183 1.378 . S
C182 H194 0.952 . S
C183 C182 1.378 . S
C183 H195 0.950 . S
C183 C214 1.383 . S
H184 C203 0.947 . S
H185 C204 0.946 . S
H186 C206 0.953 . S
H187 C207 0.945 . S
H188 C209 0.952 . S
H189 C210 0.949 . S
H190 C212 0.950 . S
H191 C213 0.948 . S
H192 C215 0.951 . S
H193 C180 0.947 . S
H194 C182 0.952 . S
H195 C183 0.950 . S
N196 C199 1.382 . S
N196 C201 1.363 . S
N197 C199 1.371 . S
N197 C200 1.372 . S
N198 C200 1.361 . S
N198 C201 1.377 . S
C199 N196 1.382 . S
C199 N197 1.371 . S
C199 C202 1.480 . S
C200 N197 1.372 . S
C200 N198 1.361 . S
C200 C208 1.457 . S
C201 N196 1.363 . S
C201 N198 1.377 . S
C201 C214 1.479 . S
C202 C199 1.480 . S
C202 C203 1.383 . S
C202 C207 1.385 . S
C203 H184 0.947 . S
C203 C202 1.383 . S
C203 C204 1.388 . S
C204 H185 0.946 . S
C204 C203 1.388 . S
C204 C205 1.384 . S
C205 C204 1.384 . S
C205 C206 1.377 . S
C206 H186 0.953 . S
C206 C205 1.377 . S
C206 C207 1.369 . S
C207 H187 0.945 . S
C207 C202 1.385 . S
C207 C206 1.369 . S
C208 C200 1.457 . S
C208 C209 1.372 . S
C208 C213 1.364 . S
C209 H188 0.952 . S
C209 C208 1.372 . S
C209 C210 1.389 . S
C210 H189 0.949 . S
C210 C209 1.389 . S
C210 C211 1.387 . S
C211 C210 1.387 . S
C211 C212 1.372 . S
C212 H190 0.950 . S
C212 C211 1.372 . S
C212 C213 1.379 . S
C213 H191 0.948 . S
C213 C208 1.364 . S
C213 C212 1.379 . S
C214 C183 1.383 . S
C214 C201 1.479 . S
C214 C215 1.398 . S
C215 C180 1.382 . S
C215 H192 0.951 . S
C215 C214 1.398 . S
C216 C217 1.384 . S
C216 H229 0.947 . S
C216 C251 1.382 . S
C217 C216 1.384 . S
C217 C218 1.378 . S
C218 C217 1.378 . S
C218 C219 1.378 . S
C218 H230 0.952 . S
C219 C218 1.378 . S
C219 H231 0.950 . S
C219 C250 1.383 . S
H220 C239 0.947 . S
H221 C240 0.946 . S
H222 C242 0.953 . S
H223 C243 0.945 . S
H224 C245 0.952 . S
H225 C246 0.949 . S
H226 C248 0.950 . S
H227 C249 0.948 . S
H228 C251 0.951 . S
H229 C216 0.947 . S
H230 C218 0.952 . S
H231 C219 0.950 . S
N232 C235 1.382 . S
N232 C237 1.363 . S
N233 C235 1.371 . S
N233 C236 1.372 . S
N234 C236 1.361 . S
N234 C237 1.377 . S
C235 N232 1.382 . S
C235 N233 1.371 . S
C235 C238 1.480 . S
C236 N233 1.372 . S
C236 N234 1.361 . S
C236 C244 1.457 . S
C237 N232 1.363 . S
C237 N234 1.377 . S
C237 C250 1.479 . S
C238 C235 1.480 . S
C238 C239 1.383 . S
C238 C243 1.385 . S
C239 H220 0.947 . S
C239 C238 1.383 . S
C239 C240 1.388 . S
C240 H221 0.946 . S
C240 C239 1.388 . S
C240 C241 1.384 . S
C241 C240 1.384 . S
C241 C242 1.377 . S
C242 H222 0.953 . S
C242 C241 1.377 . S
C242 C243 1.369 . S
C243 H223 0.945 . S
C243 C238 1.385 . S
C243 C242 1.369 . S
C244 C236 1.457 . S
C244 C245 1.372 . S
C244 C249 1.364 . S
C245 H224 0.952 . S
C245 C244 1.372 . S
C245 C246 1.389 . S
C246 H225 0.949 . S
C246 C245 1.389 . S
C246 C247 1.387 . S
C247 C246 1.387 . S
C247 C248 1.372 . S
C248 H226 0.950 . S
C248 C247 1.372 . S
C248 C249 1.379 . S
C249 H227 0.948 . S
C249 C244 1.364 . S
C249 C248 1.379 . S
C250 C219 1.383 . S
C250 C237 1.479 . S
C250 C251 1.398 . S
C251 C216 1.382 . S
C251 H228 0.951 . S
C251 C250 1.398 . S
C252 C253 1.384 . S
C252 H265 0.947 . S
C252 C287 1.382 . S
C253 C252 1.384 . S
C253 C254 1.378 . S
C254 C253 1.378 . S
C254 C255 1.378 . S
C254 H266 0.952 . S
C255 C254 1.378 . S
C255 H267 0.950 . S
C255 C286 1.383 . S
H256 C275 0.947 . S
H257 C276 0.946 . S
H258 C278 0.953 . S
H259 C279 0.945 . S
H260 C281 0.952 . S
H261 C282 0.949 . S
H262 C284 0.950 . S
H263 C285 0.948 . S
H264 C287 0.951 . S
H265 C252 0.947 . S
H266 C254 0.952 . S
H267 C255 0.950 . S
N268 C271 1.382 . S
N268 C273 1.363 . S
N269 C271 1.371 . S
N269 C272 1.372 . S
N270 C272 1.361 . S
N270 C273 1.377 . S
C271 N268 1.382 . S
C271 N269 1.371 . S
C271 C274 1.480 . S
C272 N269 1.372 . S
C272 N270 1.361 . S
C272 C280 1.457 . S
C273 N268 1.363 . S
C273 N270 1.377 . S
C273 C286 1.479 . S
C274 C271 1.480 . S
C274 C275 1.383 . S
C274 C279 1.385 . S
C275 H256 0.947 . S
C275 C274 1.383 . S
C275 C276 1.388 . S
C276 H257 0.946 . S
C276 C275 1.388 . S
C276 C277 1.384 . S
C277 C276 1.384 . S
C277 C278 1.377 . S
C278 H258 0.953 . S
C278 C277 1.377 . S
C278 C279 1.369 . S
C279 H259 0.945 . S
C279 C274 1.385 . S
C279 C278 1.369 . S
C280 C272 1.457 . S
C280 C281 1.372 . S
C280 C285 1.364 . S
C281 H260 0.952 . S
C281 C280 1.372 . S
C281 C282 1.389 . S
C282 H261 0.949 . S
C282 C281 1.389 . S
C282 C283 1.387 . S
C283 C282 1.387 . S
C283 C284 1.372 . S
C284 H262 0.950 . S
C284 C283 1.372 . S
C284 C285 1.379 . S
C285 H263 0.948 . S
C285 C280 1.364 . S
C285 C284 1.379 . S
C286 C255 1.383 . S
C286 C273 1.479 . S
C286 C287 1.398 . S
C287 C252 1.382 . S
C287 H264 0.951 . S
C287 C286 1.398 . S
C288 C289 1.384 . S
C288 H301 0.947 . S
C288 C323 1.382 . S
C289 C288 1.384 . S
C289 C290 1.378 . S
C290 C289 1.378 . S
C290 C291 1.378 . S
C290 H302 0.952 . S
C291 C290 1.378 . S
C291 H303 0.950 . S
C291 C322 1.383 . S
H292 C311 0.947 . S
H293 C312 0.946 . S
H294 C314 0.953 . S
H295 C315 0.945 . S
H296 C317 0.952 . S
H297 C318 0.949 . S
H298 C320 0.950 . S
H299 C321 0.948 . S
H300 C323 0.951 . S
H301 C288 0.947 . S
H302 C290 0.952 . S
H303 C291 0.950 . S
N304 C307 1.382 . S
N304 C309 1.363 . S
N305 C307 1.371 . S
N305 C308 1.372 . S
N306 C308 1.361 . S
N306 C309 1.377 . S
C307 N304 1.382 . S
C307 N305 1.371 . S
C307 C310 1.480 . S
C308 N305 1.372 . S
C308 N306 1.361 . S
C308 C316 1.457 . S
C309 N304 1.363 . S
C309 N306 1.377 . S
C309 C322 1.479 . S
C310 C307 1.480 . S
C310 C311 1.383 . S
C310 C315 1.385 . S
C311 H292 0.947 . S
C311 C310 1.383 . S
C311 C312 1.388 . S
C312 H293 0.946 . S
C312 C311 1.388 . S
C312 C313 1.384 . S
C313 C312 1.384 . S
C313 C314 1.377 . S
C314 H294 0.953 . S
C314 C313 1.377 . S
C314 C315 1.369 . S
C315 H295 0.945 . S
C315 C310 1.385 . S
C315 C314 1.369 . S
C316 C308 1.457 . S
C316 C317 1.372 . S
C316 C321 1.364 . S
C317 H296 0.952 . S
C317 C316 1.372 . S
C317 C318 1.389 . S
C318 H297 0.949 . S
C318 C317 1.389 . S
C318 C319 1.387 . S
C319 C318 1.387 . S
C319 C320 1.372 . S
C320 H298 0.950 . S
C320 C319 1.372 . S
C320 C321 1.379 . S
C321 H299 0.948 . S
C321 C316 1.364 . S
C321 C320 1.379 . S
C322 C291 1.383 . S
C322 C309 1.479 . S
C322 C323 1.398 . S
C323 C288 1.382 . S
C323 H300 0.951 . S
C323 C322 1.398 . S
C324 C325 1.384 . S
C324 H337 0.947 . S
C324 C359 1.382 . S
C325 C324 1.384 . S
C325 C326 1.378 . S
C326 C325 1.378 . S
C326 C327 1.378 . S
C326 H338 0.952 . S
C327 C326 1.378 . S
C327 H339 0.950 . S
C327 C358 1.383 . S
H328 C347 0.947 . S
H329 C348 0.946 . S
H330 C350 0.953 . S
H331 C351 0.945 . S
H332 C353 0.952 . S
H333 C354 0.949 . S
H334 C356 0.950 . S
H335 C357 0.948 . S
H336 C359 0.951 . S
H337 C324 0.947 . S
H338 C326 0.952 . S
H339 C327 0.950 . S
N340 C343 1.382 . S
N340 C345 1.363 . S
N341 C343 1.371 . S
N341 C344 1.372 . S
N342 C344 1.361 . S
N342 C345 1.377 . S
C343 N340 1.382 . S
C343 N341 1.371 . S
C343 C346 1.480 . S
C344 N341 1.372 . S
C344 N342 1.361 . S
C344 C352 1.457 . S
C345 N340 1.363 . S
C345 N342 1.377 . S
C345 C358 1.479 . S
C346 C343 1.480 . S
C346 C347 1.383 . S
C346 C351 1.385 . S
C347 H328 0.947 . S
C347 C346 1.383 . S
C347 C348 1.388 . S
C348 H329 0.946 . S
C348 C347 1.388 . S
C348 C349 1.384 . S
C349 C348 1.384 . S
C349 C350 1.377 . S
C350 H330 0.953 . S
C350 C349 1.377 . S
C350 C351 1.369 . S
C351 H331 0.945 . S
C351 C346 1.385 . S
C351 C350 1.369 . S
C352 C344 1.457 . S
C352 C353 1.372 . S
C352 C357 1.364 . S
C353 H332 0.952 . S
C353 C352 1.372 . S
C353 C354 1.389 . S
C354 H333 0.949 . S
C354 C353 1.389 . S
C354 C355 1.387 . S
C355 C354 1.387 . S
C355 C356 1.372 . S
C356 H334 0.950 . S
C356 C355 1.372 . S
C356 C357 1.379 . S
C357 H335 0.948 . S
C357 C352 1.364 . S
C357 C356 1.379 . S
C358 C327 1.383 . S
C358 C345 1.479 . S
C358 C359 1.398 . S
C359 C324 1.382 . S
C359 H336 0.951 . S
C359 C358 1.398 . S
C360 C361 1.384 . S
C360 H373 0.947 . S
C360 C395 1.382 . S
C361 C360 1.384 . S
C361 C362 1.378 . S
C362 C361 1.378 . S
C362 C363 1.378 . S
C362 H374 0.952 . S
C363 C362 1.378 . S
C363 H375 0.950 . S
C363 C394 1.383 . S
H364 C383 0.947 . S
H365 C384 0.946 . S
H366 C386 0.953 . S
H367 C387 0.945 . S
H368 C389 0.952 . S
H369 C390 0.949 . S
H370 C392 0.950 . S
H371 C393 0.948 . S
H372 C395 0.951 . S
H373 C360 0.947 . S
H374 C362 0.952 . S
H375 C363 0.950 . S
N376 C379 1.382 . S
N376 C381 1.363 . S
N377 C379 1.371 . S
N377 C380 1.372 . S
N378 C380 1.361 . S
N378 C381 1.377 . S
C379 N376 1.382 . S
C379 N377 1.371 . S
C379 C382 1.480 . S
C380 N377 1.372 . S
C380 N378 1.361 . S
C380 C388 1.457 . S
C381 N376 1.363 . S
C381 N378 1.377 . S
C381 C394 1.479 . S
C382 C379 1.480 . S
C382 C383 1.383 . S
C382 C387 1.385 . S
C383 H364 0.947 . S
C383 C382 1.383 . S
C383 C384 1.388 . S
C384 H365 0.946 . S
C384 C383 1.388 . S
C384 C385 1.384 . S
C385 C384 1.384 . S
C385 C386 1.377 . S
C386 H366 0.953 . S
C386 C385 1.377 . S
C386 C387 1.369 . S
C387 H367 0.945 . S
C387 C382 1.385 . S
C387 C386 1.369 . S
C388 C380 1.457 . S
C388 C389 1.372 . S
C388 C393 1.364 . S
C389 H368 0.952 . S
C389 C388 1.372 . S
C389 C390 1.389 . S
C390 H369 0.949 . S
C390 C389 1.389 . S
C390 C391 1.387 . S
C391 C390 1.387 . S
C391 C392 1.372 . S
C392 H370 0.950 . S
C392 C391 1.372 . S
C392 C393 1.379 . S
C393 H371 0.948 . S
C393 C388 1.364 . S
C393 C392 1.379 . S
C394 C363 1.383 . S
C394 C381 1.479 . S
C394 C395 1.398 . S
C395 C360 1.382 . S
C395 H372 0.951 . S
C395 C394 1.398 . S
C396 C397 1.384 . S
C396 H409 0.947 . S
C396 C431 1.382 . S
C397 C396 1.384 . S
C397 C398 1.378 . S
C398 C397 1.378 . S
C398 C399 1.378 . S
C398 H410 0.952 . S
C399 C398 1.378 . S
C399 H411 0.950 . S
C399 C430 1.383 . S
H400 C419 0.947 . S
H401 C420 0.946 . S
H402 C422 0.953 . S
H403 C423 0.945 . S
H404 C425 0.952 . S
H405 C426 0.949 . S
H406 C428 0.950 . S
H407 C429 0.948 . S
H408 C431 0.951 . S
H409 C396 0.947 . S
H410 C398 0.952 . S
H411 C399 0.950 . S
N412 C415 1.382 . S
N412 C417 1.363 . S
N413 C415 1.371 . S
N413 C416 1.372 . S
N414 C416 1.361 . S
N414 C417 1.377 . S
C415 N412 1.382 . S
C415 N413 1.371 . S
C415 C418 1.480 . S
C416 N413 1.372 . S
C416 N414 1.361 . S
C416 C424 1.457 . S
C417 N412 1.363 . S
C417 N414 1.377 . S
C417 C430 1.479 . S
C418 C415 1.480 . S
C418 C419 1.383 . S
C418 C423 1.385 . S
C419 H400 0.947 . S
C419 C418 1.383 . S
C419 C420 1.388 . S
C420 H401 0.946 . S
C420 C419 1.388 . S
C420 C421 1.384 . S
C421 C420 1.384 . S
C421 C422 1.377 . S
C422 H402 0.953 . S
C422 C421 1.377 . S
C422 C423 1.369 . S
C423 H403 0.945 . S
C423 C418 1.385 . S
C423 C422 1.369 . S
C424 C416 1.457 . S
C424 C425 1.372 . S
C424 C429 1.364 . S
C425 H404 0.952 . S
C425 C424 1.372 . S
C425 C426 1.389 . S
C426 H405 0.949 . S
C426 C425 1.389 . S
C426 C427 1.387 . S
C427 C426 1.387 . S
C427 C428 1.372 . S
C428 H406 0.950 . S
C428 C427 1.372 . S
C428 C429 1.379 . S
C429 H407 0.948 . S
C429 C424 1.364 . S
C429 C428 1.379 . S
C430 C399 1.383 . S
C430 C417 1.479 . S
C430 C431 1.398 . S
C431 C396 1.382 . S
C431 H408 0.951 . S
C431 C430 1.398 . S
C432 C433 1.384 . S
C432 H445 0.947 . S
C432 C467 1.382 . S
C433 C432 1.384 . S
C433 C434 1.378 . S
C434 C433 1.378 . S
C434 C435 1.378 . S
C434 H446 0.952 . S
C435 C434 1.378 . S
C435 H447 0.950 . S
C435 C466 1.383 . S
H436 C455 0.947 . S
H437 C456 0.946 . S
H438 C458 0.953 . S
H439 C459 0.945 . S
H440 C461 0.952 . S
H441 C462 0.949 . S
H442 C464 0.950 . S
H443 C465 0.948 . S
H444 C467 0.951 . S
H445 C432 0.947 . S
H446 C434 0.952 . S
H447 C435 0.950 . S
N448 C451 1.382 . S
N448 C453 1.363 . S
N449 C451 1.371 . S
N449 C452 1.372 . S
N450 C452 1.361 . S
N450 C453 1.377 . S
C451 N448 1.382 . S
C451 N449 1.371 . S
C451 C454 1.480 . S
C452 N449 1.372 . S
C452 N450 1.361 . S
C452 C460 1.457 . S
C453 N448 1.363 . S
C453 N450 1.377 . S
C453 C466 1.479 . S
C454 C451 1.480 . S
C454 C455 1.383 . S
C454 C459 1.385 . S
C455 H436 0.947 . S
C455 C454 1.383 . S
C455 C456 1.388 . S
C456 H437 0.946 . S
C456 C455 1.388 . S
C456 C457 1.384 . S
C457 C456 1.384 . S
C457 C458 1.377 . S
C458 H438 0.953 . S
C458 C457 1.377 . S
C458 C459 1.369 . S
C459 H439 0.945 . S
C459 C454 1.385 . S
C459 C458 1.369 . S
C460 C452 1.457 . S
C460 C461 1.372 . S
C460 C465 1.364 . S
C461 H440 0.952 . S
C461 C460 1.372 . S
C461 C462 1.389 . S
C462 H441 0.949 . S
C462 C461 1.389 . S
C462 C463 1.387 . S
C463 C462 1.387 . S
C463 C464 1.372 . S
C464 H442 0.950 . S
C464 C463 1.372 . S
C464 C465 1.379 . S
C465 H443 0.948 . S
C465 C460 1.364 . S
C465 C464 1.379 . S
C466 C435 1.383 . S
C466 C453 1.479 . S
C466 C467 1.398 . S
C467 C432 1.382 . S
C467 H444 0.951 . S
C467 C466 1.398 . S
C468 C469 1.384 . S
C468 H481 0.947 . S
C468 C503 1.382 . S
C469 C468 1.384 . S
C469 C470 1.378 . S
C470 C469 1.378 . S
C470 C471 1.378 . S
C470 H482 0.952 . S
C471 C470 1.378 . S
C471 H483 0.950 . S
C471 C502 1.383 . S
H472 C491 0.947 . S
H473 C492 0.946 . S
H474 C494 0.953 . S
H475 C495 0.945 . S
H476 C497 0.952 . S
H477 C498 0.949 . S
H478 C500 0.950 . S
H479 C501 0.948 . S
H480 C503 0.951 . S
H481 C468 0.947 . S
H482 C470 0.952 . S
H483 C471 0.950 . S
N484 C487 1.382 . S
N484 C489 1.363 . S
N485 C487 1.371 . S
N485 C488 1.372 . S
N486 C488 1.361 . S
N486 C489 1.377 . S
C487 N484 1.382 . S
C487 N485 1.371 . S
C487 C490 1.480 . S
C488 N485 1.372 . S
C488 N486 1.361 . S
C488 C496 1.457 . S
C489 N484 1.363 . S
C489 N486 1.377 . S
C489 C502 1.479 . S
C490 C487 1.480 . S
C490 C491 1.383 . S
C490 C495 1.385 . S
C491 H472 0.947 . S
C491 C490 1.383 . S
C491 C492 1.388 . S
C492 H473 0.946 . S
C492 C491 1.388 . S
C492 C493 1.384 . S
C493 C492 1.384 . S
C493 C494 1.377 . S
C494 H474 0.953 . S
C494 C493 1.377 . S
C494 C495 1.369 . S
C495 H475 0.945 . S
C495 C490 1.385 . S
C495 C494 1.369 . S
C496 C488 1.457 . S
C496 C497 1.372 . S
C496 C501 1.364 . S
C497 H476 0.952 . S
C497 C496 1.372 . S
C497 C498 1.389 . S
C498 H477 0.949 . S
C498 C497 1.389 . S
C498 C499 1.387 . S
C499 C498 1.387 . S
C499 C500 1.372 . S
C500 H478 0.950 . S
C500 C499 1.372 . S
C500 C501 1.379 . S
C501 H479 0.948 . S
C501 C496 1.364 . S
C501 C500 1.379 . S
C502 C471 1.383 . S
C502 C489 1.479 . S
C502 C503 1.398 . S
C503 C468 1.382 . S
C503 H480 0.951 . S
C503 C502 1.398 . S
C504 C505 1.384 . S
C504 H517 0.947 . S
C504 C539 1.382 . S
C505 C504 1.384 . S
C505 C506 1.378 . S
C506 C505 1.378 . S
C506 C507 1.378 . S
C506 H518 0.952 . S
C507 C506 1.378 . S
C507 H519 0.950 . S
C507 C538 1.383 . S
H508 C527 0.947 . S
H509 C528 0.946 . S
H510 C530 0.953 . S
H511 C531 0.945 . S
H512 C533 0.952 . S
H513 C534 0.949 . S
H514 C536 0.950 . S
H515 C537 0.948 . S
H516 C539 0.951 . S
H517 C504 0.947 . S
H518 C506 0.952 . S
H519 C507 0.950 . S
N520 C523 1.382 . S
N520 C525 1.363 . S
N521 C523 1.371 . S
N521 C524 1.372 . S
N522 C524 1.361 . S
N522 C525 1.377 . S
C523 N520 1.382 . S
C523 N521 1.371 . S
C523 C526 1.480 . S
C524 N521 1.372 . S
C524 N522 1.361 . S
C524 C532 1.457 . S
C525 N520 1.363 . S
C525 N522 1.377 . S
C525 C538 1.479 . S
C526 C523 1.480 . S
C526 C527 1.383 . S
C526 C531 1.385 . S
C527 H508 0.947 . S
C527 C526 1.383 . S
C527 C528 1.388 . S
C528 H509 0.946 . S
C528 C527 1.388 . S
C528 C529 1.384 . S
C529 C528 1.384 . S
C529 C530 1.377 . S
C530 H510 0.953 . S
C530 C529 1.377 . S
C530 C531 1.369 . S
C531 H511 0.945 . S
C531 C526 1.385 . S
C531 C530 1.369 . S
C532 C524 1.457 . S
C532 C533 1.372 . S
C532 C537 1.364 . S
C533 H512 0.952 . S
C533 C532 1.372 . S
C533 C534 1.389 . S
C534 H513 0.949 . S
C534 C533 1.389 . S
C534 C535 1.387 . S
C535 C534 1.387 . S
C535 C536 1.372 . S
C536 H514 0.950 . S
C536 C535 1.372 . S
C536 C537 1.379 . S
C537 H515 0.948 . S
C537 C532 1.364 . S
C537 C536 1.379 . S
C538 C507 1.383 . S
C538 C525 1.479 . S
C538 C539 1.398 . S
C539 C504 1.382 . S
C539 H516 0.951 . S
C539 C538 1.398 . S
C540 C541 1.384 . S
C540 H553 0.947 . S
C540 C575 1.382 . S
C541 C540 1.384 . S
C541 C542 1.378 . S
C542 C541 1.378 . S
C542 C543 1.378 . S
C542 H554 0.952 . S
C543 C542 1.378 . S
C543 H555 0.950 . S
C543 C574 1.383 . S
H544 C563 0.947 . S
H545 C564 0.946 . S
H546 C566 0.953 . S
H547 C567 0.945 . S
H548 C569 0.952 . S
H549 C570 0.949 . S
H550 C572 0.950 . S
H551 C573 0.948 . S
H552 C575 0.951 . S
H553 C540 0.947 . S
H554 C542 0.952 . S
H555 C543 0.950 . S
N556 C559 1.382 . S
N556 C561 1.363 . S
N557 C559 1.371 . S
N557 C560 1.372 . S
N558 C560 1.361 . S
N558 C561 1.377 . S
C559 N556 1.382 . S
C559 N557 1.371 . S
C559 C562 1.480 . S
C560 N557 1.372 . S
C560 N558 1.361 . S
C560 C568 1.457 . S
C561 N556 1.363 . S
C561 N558 1.377 . S
C561 C574 1.479 . S
C562 C559 1.480 . S
C562 C563 1.383 . S
C562 C567 1.385 . S
C563 H544 0.947 . S
C563 C562 1.383 . S
C563 C564 1.388 . S
C564 H545 0.946 . S
C564 C563 1.388 . S
C564 C565 1.384 . S
C565 C564 1.384 . S
C565 C566 1.377 . S
C566 H546 0.953 . S
C566 C565 1.377 . S
C566 C567 1.369 . S
C567 H547 0.945 . S
C567 C562 1.385 . S
C567 C566 1.369 . S
C568 C560 1.457 . S
C568 C569 1.372 . S
C568 C573 1.364 . S
C569 H548 0.952 . S
C569 C568 1.372 . S
C569 C570 1.389 . S
C570 H549 0.949 . S
C570 C569 1.389 . S
C570 C571 1.387 . S
C571 C570 1.387 . S
C571 C572 1.372 . S
C572 H550 0.950 . S
C572 C571 1.372 . S
C572 C573 1.379 . S
C573 H551 0.948 . S
C573 C568 1.364 . S
C573 C572 1.379 . S
C574 C543 1.383 . S
C574 C561 1.479 . S
C574 C575 1.398 . S
C575 C540 1.382 . S
C575 H552 0.951 . S
C575 C574 1.398 . S
C576 C577 1.384 . S
C576 H589 0.947 . S
C576 C611 1.382 . S
C577 C576 1.384 . S
C577 C578 1.378 . S
C578 C577 1.378 . S
C578 C579 1.378 . S
C578 H590 0.952 . S
C579 C578 1.378 . S
C579 H591 0.950 . S
C579 C610 1.383 . S
H580 C599 0.947 . S
H581 C600 0.946 . S
H582 C602 0.953 . S
H583 C603 0.945 . S
H584 C605 0.952 . S
H585 C606 0.949 . S
H586 C608 0.950 . S
H587 C609 0.948 . S
H588 C611 0.951 . S
H589 C576 0.947 . S
H590 C578 0.952 . S
H591 C579 0.950 . S
N592 C595 1.382 . S
N592 C597 1.363 . S
N593 C595 1.371 . S
N593 C596 1.372 . S
N594 C596 1.361 . S
N594 C597 1.377 . S
C595 N592 1.382 . S
C595 N593 1.371 . S
C595 C598 1.480 . S
C596 N593 1.372 . S
C596 N594 1.361 . S
C596 C604 1.457 . S
C597 N592 1.363 . S
C597 N594 1.377 . S
C597 C610 1.479 . S
C598 C595 1.480 . S
C598 C599 1.383 . S
C598 C603 1.385 . S
C599 H580 0.947 . S
C599 C598 1.383 . S
C599 C600 1.388 . S
C600 H581 0.946 . S
C600 C599 1.388 . S
C600 C601 1.384 . S
C601 C600 1.384 . S
C601 C602 1.377 . S
C602 H582 0.953 . S
C602 C601 1.377 . S
C602 C603 1.369 . S
C603 H583 0.945 . S
C603 C598 1.385 . S
C603 C602 1.369 . S
C604 C596 1.457 . S
C604 C605 1.372 . S
C604 C609 1.364 . S
C605 H584 0.952 . S
C605 C604 1.372 . S
C605 C606 1.389 . S
C606 H585 0.949 . S
C606 C605 1.389 . S
C606 C607 1.387 . S
C607 C606 1.387 . S
C607 C608 1.372 . S
C608 H586 0.950 . S
C608 C607 1.372 . S
C608 C609 1.379 . S
C609 H587 0.948 . S
C609 C604 1.364 . S
C609 C608 1.379 . S
C610 C579 1.383 . S
C610 C597 1.479 . S
C610 C611 1.398 . S
C611 C576 1.382 . S
C611 H588 0.951 . S
C611 C610 1.398 . S
C612 C613 1.384 . S
C612 H625 0.947 . S
C612 C647 1.382 . S
C613 C612 1.384 . S
C613 C614 1.378 . S
C614 C613 1.378 . S
C614 C615 1.378 . S
C614 H626 0.952 . S
C615 C614 1.378 . S
C615 H627 0.950 . S
C615 C646 1.383 . S
H616 C635 0.947 . S
H617 C636 0.946 . S
H618 C638 0.953 . S
H619 C639 0.945 . S
H620 C641 0.952 . S
H621 C642 0.949 . S
H622 C644 0.950 . S
H623 C645 0.948 . S
H624 C647 0.951 . S
H625 C612 0.947 . S
H626 C614 0.952 . S
H627 C615 0.950 . S
N628 C631 1.382 . S
N628 C633 1.363 . S
N629 C631 1.371 . S
N629 C632 1.372 . S
N630 C632 1.361 . S
N630 C633 1.377 . S
C631 N628 1.382 . S
C631 N629 1.371 . S
C631 C634 1.480 . S
C632 N629 1.372 . S
C632 N630 1.361 . S
C632 C640 1.457 . S
C633 N628 1.363 . S
C633 N630 1.377 . S
C633 C646 1.479 . S
C634 C631 1.480 . S
C634 C635 1.383 . S
C634 C639 1.385 . S
C635 H616 0.947 . S
C635 C634 1.383 . S
C635 C636 1.388 . S
C636 H617 0.946 . S
C636 C635 1.388 . S
C636 C637 1.384 . S
C637 C636 1.384 . S
C637 C638 1.377 . S
C638 H618 0.953 . S
C638 C637 1.377 . S
C638 C639 1.369 . S
C639 H619 0.945 . S
C639 C634 1.385 . S
C639 C638 1.369 . S
C640 C632 1.457 . S
C640 C641 1.372 . S
C640 C645 1.364 . S
C641 H620 0.952 . S
C641 C640 1.372 . S
C641 C642 1.389 . S
C642 H621 0.949 . S
C642 C641 1.389 . S
C642 C643 1.387 . S
C643 C642 1.387 . S
C643 C644 1.372 . S
C644 H622 0.950 . S
C644 C643 1.372 . S
C644 C645 1.379 . S
C645 H623 0.948 . S
C645 C640 1.364 . S
C645 C644 1.379 . S
C646 C615 1.383 . S
C646 C633 1.479 . S
C646 C647 1.398 . S
C647 C612 1.382 . S
C647 H624 0.951 . S
C647 C646 1.398 . S
Tb648 C658 2.825 . S
Tb648 O659 2.347 1_565 S
Tb648 O662 2.366 1_565 S
Tb648 O667 2.418 . S
Tb648 O668 2.444 . S
Tb648 O671 2.479 . S
Tb648 O672 2.471 1_565 S
Eu649 O660 2.418 . S
Eu649 O661 2.384 . S
Eu649 O664 2.479 . S
Eu649 O665 2.440 1_545 S
Eu649 O666 2.347 1_545 S
Eu649 O669 2.366 1_545 S
Eu649 C679 2.825 . S
C650 O666 1.259 . S
C650 O667 1.265 1_554 S
C651 O668 1.184 1_554 S
C651 O669 1.265 . S
C652 C654 1.380 . S
C652 C655 1.374 1_565 S
C652 C658 1.507 . S
C653 C654 1.384 . S
C653 C657 1.387 1_565 S
C653 H680 0.930 . S
C654 C652 1.380 . S
C654 C653 1.384 . S
C654 H681 0.931 . S
C655 C652 1.374 1_545 S
C655 C656 1.390 . S
C655 H682 0.930 . S
C656 C655 1.390 . S
C656 C657 1.391 . S
C656 H683 0.930 . S
C657 C653 1.387 1_545 S
C657 C656 1.391 . S
C658 Tb648 2.825 . S
C658 C652 1.507 . S
C658 O671 1.238 . S
C658 O672 1.247 1_565 S
O659 Tb648 2.347 1_545 S
O659 C663 1.259 . S
O660 Eu649 2.418 . S
O660 C663 1.265 1_554 S
O661 Eu649 2.384 . S
O661 C670 1.255 1_554 S
O662 Tb648 2.366 1_545 S
O662 C670 1.265 . S
C663 O659 1.259 . S
C663 O660 1.265 1_556 S
O664 Eu649 2.479 . S
O664 C679 1.238 . S
O665 Eu649 2.440 1_565 S
O665 C679 1.200 1_565 S
O666 Eu649 2.347 1_565 S
O666 C650 1.259 . S
O667 Tb648 2.418 . S
O667 C650 1.265 1_556 S
O668 Tb648 2.444 . S
O668 C651 1.184 1_556 S
O669 Eu649 2.366 1_565 S
O669 C651 1.265 . S
C670 O661 1.255 1_556 S
C670 O662 1.265 . S
O671 Tb648 2.479 . S
O671 C658 1.238 . S
O672 Tb648 2.471 1_545 S
O672 C658 1.247 1_545 S
C673 C676 1.380 . S
C673 C677 1.374 1_545 S
C673 C679 1.507 . S
C674 C675 1.387 1_565 S
C674 C678 1.391 . S
C675 C674 1.387 1_545 S
C675 C676 1.384 . S
C675 H684 0.930 . S
C676 C673 1.380 . S
C676 C675 1.384 . S
C676 H685 0.931 . S
C677 C673 1.374 1_565 S
C677 C678 1.390 . S
C677 H686 0.930 . S
C678 C674 1.391 . S
C678 C677 1.390 . S
C678 H687 0.930 . S
C679 Eu649 2.825 . S
C679 O664 1.238 . S
C679 O665 1.200 1_545 S
C679 C673 1.507 . S
H680 C653 0.930 . S
H681 C654 0.931 . S
H682 C655 0.930 . S
H683 C656 0.930 . S
H684 C675 0.930 . S
H685 C676 0.931 . S
H686 C677 0.930 . S
H687 C678 0.930 . S
Tb688 C698 2.825 . S
Tb688 O699 2.347 1_455 S
Tb688 O702 2.366 1_455 S
Tb688 O707 2.418 . S
Tb688 O708 2.384 1_556 S
Tb688 O711 2.479 . S
Tb688 O712 2.471 1_455 S
Eu689 O700 2.418 . S
Eu689 O701 2.351 1_554 S
Eu689 O704 2.479 . S
Eu689 O705 2.471 1_655 S
Eu689 O706 2.347 1_655 S
Eu689 O709 2.366 1_655 S
Eu689 C719 2.825 . S
C690 O706 1.259 . S
C690 O707 1.265 1_554 S
C691 O708 1.255 . S
C691 O709 1.265 . S
C692 C694 1.380 . S
C692 C695 1.374 1_455 S
C692 C698 1.507 . S
C693 C694 1.384 . S
C693 C697 1.387 1_455 S
C693 H720 0.930 . S
C694 C692 1.380 . S
C694 C693 1.384 . S
C694 H721 0.931 . S
C695 C692 1.374 1_655 S
C695 C696 1.390 . S
C695 H722 0.930 . S
C696 C695 1.390 . S
C696 C697 1.391 . S
C696 H723 0.930 . S
C697 C693 1.387 1_655 S
C697 C696 1.391 . S
C698 Tb688 2.825 . S
C698 C692 1.507 . S
C698 O711 1.238 . S
C698 O712 1.247 1_455 S
O699 Tb688 2.347 1_655 S
O699 C703 1.259 . S
O700 Eu689 2.418 . S
O700 C703 1.265 1_554 S
O701 Eu689 2.351 1_556 S
O701 C710 1.296 . S
O702 Tb688 2.366 1_655 S
O702 C710 1.265 . S
C703 O699 1.259 . S
C703 O700 1.265 1_556 S
O704 Eu689 2.479 . S
O704 C719 1.238 . S
O705 Eu689 2.471 1_455 S
O705 C719 1.247 1_455 S
O706 Eu689 2.347 1_455 S
O706 C690 1.259 . S
O707 Tb688 2.418 . S
O707 C690 1.265 1_556 S
O708 Tb688 2.384 1_554 S
O708 C691 1.255 . S
O709 Eu689 2.366 1_455 S
O709 C691 1.265 . S
C710 O701 1.296 . S
C710 O702 1.265 . S
O711 Tb688 2.479 . S
O711 C698 1.238 . S
O712 Tb688 2.471 1_655 S
O712 C698 1.247 1_655 S
C713 C716 1.403 . S
C713 C717 1.336 1_655 S
C713 C719 1.525 . S
C714 C715 1.387 1_455 S
C714 C718 1.391 . S
C715 C714 1.387 1_655 S
C715 C716 1.384 . S
C715 H724 0.930 . S
C716 C713 1.403 . S
C716 C715 1.384 . S
C716 H725 0.931 . S
C717 C713 1.336 1_455 S
C717 C718 1.390 . S
C717 H726 0.930 . S
C718 C714 1.391 . S
C718 C717 1.390 . S
C718 H727 0.930 . S
C719 Eu689 2.825 . S
C719 O704 1.238 . S
C719 O705 1.247 1_655 S
C719 C713 1.525 . S
H720 C693 0.930 . S
H721 C694 0.931 . S
H722 C695 0.930 . S
H723 C696 0.930 . S
H724 C715 0.930 . S
H725 C716 0.931 . S
H726 C717 0.930 . S
H727 C718 0.930 . S
Tb728 C738 2.825 . S
Tb728 O739 2.347 . S
Tb728 O742 2.366 . S
Tb728 O747 2.418 . S
Tb728 O748 2.384 . S
Tb728 O751 2.479 . S
Tb728 O752 2.471 . S
Eu729 O740 2.418 . S
Eu729 O741 2.384 1_556 S
Eu729 O744 2.479 . S
Eu729 O745 2.471 . S
Eu729 O746 2.347 . S
Eu729 O749 2.366 . S
Eu729 C759 2.825 . S
C730 O746 1.259 . S
C730 O747 1.265 1_556 S
C731 O748 1.255 1_556 S
C731 O749 1.265 . S
C732 C734 1.380 . S
C732 C735 1.374 . S
C732 C738 1.507 . S
C733 C734 1.384 . S
C733 C737 1.387 . S
C733 H760 0.930 . S
C734 C732 1.380 . S
C734 C733 1.384 . S
C734 H761 0.931 . S
C735 C732 1.374 . S
C735 C736 1.390 . S
C735 H762 0.930 . S
C736 C735 1.390 . S
C736 C737 1.391 . S
C736 H763 0.930 . S
C737 C733 1.387 . S
C737 C736 1.391 . S
C738 Tb728 2.825 . S
C738 C732 1.507 . S
C738 O751 1.238 . S
C738 O752 1.247 . S
O739 Tb728 2.347 . S
O739 C743 1.259 . S
O740 Eu729 2.418 . S
O740 C743 1.265 1_556 S
O741 Eu729 2.384 1_554 S
O741 C750 1.255 . S
O742 Tb728 2.366 . S
O742 C750 1.265 . S
C743 O739 1.259 . S
C743 O740 1.265 1_554 S
O744 Eu729 2.479 . S
O744 C759 1.238 . S
O745 Eu729 2.471 . S
O745 C759 1.247 . S
O746 Eu729 2.347 . S
O746 C730 1.259 . S
O747 Tb728 2.418 . S
O747 C730 1.265 1_554 S
O748 Tb728 2.384 . S
O748 C731 1.255 1_554 S
O749 Eu729 2.366 . S
O749 C731 1.265 . S
C750 O741 1.255 . S
C750 O742 1.265 . S
O751 Tb728 2.479 . S
O751 C738 1.238 . S
O752 Tb728 2.471 . S
O752 C738 1.247 . S
C753 C756 1.380 . S
C753 C757 1.374 . S
C753 C759 1.507 . S
C754 C755 1.387 . S
C754 C758 1.391 . S
C755 C754 1.387 . S
C755 C756 1.384 . S
C755 H764 0.930 . S
C756 C753 1.380 . S
C756 C755 1.384 . S
C756 H765 0.931 . S
C757 C753 1.374 . S
C757 C758 1.390 . S
C757 H766 0.930 . S
C758 C754 1.391 . S
C758 C757 1.390 . S
C758 H767 0.930 . S
C759 Eu729 2.825 . S
C759 O744 1.238 . S
C759 O745 1.247 . S
C759 C753 1.507 . S
H760 C733 0.930 . S
H761 C734 0.931 . S
H762 C735 0.930 . S
H763 C736 0.930 . S
H764 C755 0.930 . S
H765 C756 0.931 . S
H766 C757 0.930 . S
H767 C758 0.930 . S
Tb768 C778 2.825 . S
Tb768 O779 2.347 . S
Tb768 O782 2.366 . S
Tb768 O787 2.418 . S
Tb768 O788 2.384 . S
Tb768 O791 2.479 . S
Tb768 O792 2.471 . S
Eu769 O780 2.418 . S
Eu769 O781 2.384 . S
Eu769 O784 2.479 . S
Eu769 O785 2.471 . S
Eu769 O786 2.347 . S
Eu769 O789 2.366 . S
Eu769 C799 2.825 . S
C770 O786 1.259 . S
C770 O787 1.265 . S
C771 O788 1.255 . S
C771 O789 1.265 . S
C772 C774 1.380 . S
C772 C775 1.374 . S
C772 C778 1.507 . S
C773 C774 1.384 . S
C773 C777 1.387 . S
C773 H800 0.930 . S
C774 C772 1.380 . S
C774 C773 1.384 . S
C774 H801 0.931 . S
C775 C772 1.374 . S
C775 C776 1.390 . S
C775 H802 0.930 . S
C776 C775 1.390 . S
C776 C777 1.391 . S
C776 H803 0.930 . S
C777 C773 1.387 . S
C777 C776 1.391 . S
C778 Tb768 2.825 . S
C778 C772 1.507 . S
C778 O791 1.238 . S
C778 O792 1.247 . S
O779 Tb768 2.347 . S
O779 C783 1.259 . S
O780 Eu769 2.418 . S
O780 C783 1.265 . S
O781 Eu769 2.384 . S
O781 C790 1.255 . S
O782 Tb768 2.366 . S
O782 C790 1.265 . S
C783 O779 1.259 . S
C783 O780 1.265 . S
O784 Eu769 2.479 . S
O784 C799 1.238 . S
O785 Eu769 2.471 . S
O785 C799 1.247 . S
O786 Eu769 2.347 . S
O786 C770 1.259 . S
O787 Tb768 2.418 . S
O787 C770 1.265 . S
O788 Tb768 2.384 . S
O788 C771 1.255 . S
O789 Eu769 2.366 . S
O789 C771 1.265 . S
C790 O781 1.255 . S
C790 O782 1.265 . S
O791 Tb768 2.479 . S
O791 C778 1.238 . S
O792 Tb768 2.471 . S
O792 C778 1.247 . S
C793 C796 1.380 . S
C793 C797 1.374 . S
C793 C799 1.507 . S
C794 C795 1.387 . S
C794 C798 1.391 . S
C795 C794 1.387 . S
C795 C796 1.384 . S
C795 H804 0.930 . S
C796 C793 1.380 . S
C796 C795 1.384 . S
C796 H805 0.931 . S
C797 C793 1.374 . S
C797 C798 1.390 . S
C797 H806 0.930 . S
C798 C794 1.391 . S
C798 C797 1.390 . S
C798 H807 0.930 . S
C799 Eu769 2.825 . S
C799 O784 1.238 . S
C799 O785 1.247 . S
C799 C793 1.507 . S
H800 C773 0.930 . S
H801 C774 0.931 . S
H802 C775 0.930 . S
H803 C776 0.930 . S
H804 C795 0.930 . S
H805 C796 0.931 . S
H806 C797 0.930 . S
H807 C798 0.930 . S
Tb808 C818 2.825 . S
Tb808 O819 2.347 . S
Tb808 O822 2.366 . S
Tb808 O827 2.418 . S
Tb808 O828 2.384 . S
Tb808 O831 2.479 . S
Tb808 O832 2.471 . S
Eu809 O820 2.418 . S
Eu809 O821 2.384 . S
Eu809 O824 2.479 . S
Eu809 O825 2.471 . S
Eu809 O826 2.347 . S
Eu809 O829 2.366 . S
Eu809 C839 2.825 . S
C810 O826 1.259 . S
C810 O827 1.265 . S
C811 O828 1.255 . S
C811 O829 1.265 . S
C812 C814 1.380 . S
C812 C815 1.374 . S
C812 C818 1.507 . S
C813 C814 1.384 . S
C813 C817 1.387 . S
C813 H840 0.930 . S
C814 C812 1.380 . S
C814 C813 1.384 . S
C814 H841 0.931 . S
C815 C812 1.374 . S
C815 C816 1.390 . S
C815 H842 0.930 . S
C816 C815 1.390 . S
C816 C817 1.391 . S
C816 H843 0.930 . S
C817 C813 1.387 . S
C817 C816 1.391 . S
C818 Tb808 2.825 . S
C818 C812 1.507 . S
C818 O831 1.238 . S
C818 O832 1.247 . S
O819 Tb808 2.347 . S
O819 C823 1.259 . S
O820 Eu809 2.418 . S
O820 C823 1.265 . S
O821 Eu809 2.384 . S
O821 C830 1.255 . S
O822 Tb808 2.366 . S
O822 C830 1.265 . S
C823 O819 1.259 . S
C823 O820 1.265 . S
O824 Eu809 2.479 . S
O824 C839 1.238 . S
O825 Eu809 2.471 . S
O825 C839 1.247 . S
O826 Eu809 2.347 . S
O826 C810 1.259 . S
O827 Tb808 2.418 . S
O827 C810 1.265 . S
O828 Tb808 2.384 . S
O828 C811 1.255 . S
O829 Eu809 2.366 . S
O829 C811 1.265 . S
C830 O821 1.255 . S
C830 O822 1.265 . S
O831 Tb808 2.479 . S
O831 C818 1.238 . S
O832 Tb808 2.471 . S
O832 C818 1.247 . S
C833 C836 1.380 . S
C833 C837 1.374 . S
C833 C839 1.507 . S
C834 C835 1.387 . S
C834 C838 1.391 . S
C835 C834 1.387 . S
C835 C836 1.384 . S
C835 H844 0.930 . S
C836 C833 1.380 . S
C836 C835 1.384 . S
C836 H845 0.931 . S
C837 C833 1.374 . S
C837 C838 1.390 . S
C837 H846 0.930 . S
C838 C834 1.391 . S
C838 C837 1.390 . S
C838 H847 0.930 . S
C839 Eu809 2.825 . S
C839 O824 1.238 . S
C839 O825 1.247 . S
C839 C833 1.507 . S
H840 C813 0.930 . S
H841 C814 0.931 . S
H842 C815 0.930 . S
H843 C816 0.930 . S
H844 C835 0.930 . S
H845 C836 0.931 . S
H846 C837 0.930 . S
H847 C838 0.930 . S
Tb848 C858 2.825 . S
Tb848 O859 2.347 . S
Tb848 O862 2.366 . S
Tb848 O867 2.418 . S
Tb848 O868 2.384 . S
Tb848 O871 2.479 . S
Tb848 O872 2.471 . S
Eu849 O860 2.418 . S
Eu849 O861 2.384 . S
Eu849 O864 2.479 . S
Eu849 O865 2.471 . S
Eu849 O866 2.347 . S
Eu849 O869 2.366 . S
Eu849 C879 2.825 . S
C850 O866 1.259 . S
C850 O867 1.265 . S
C851 O868 1.255 . S
C851 O869 1.265 . S
C852 C854 1.380 . S
C852 C855 1.374 . S
C852 C858 1.507 . S
C853 C854 1.384 . S
C853 C857 1.387 . S
C853 H880 0.930 . S
C854 C852 1.380 . S
C854 C853 1.384 . S
C854 H881 0.931 . S
C855 C852 1.374 . S
C855 C856 1.390 . S
C855 H882 0.930 . S
C856 C855 1.390 . S
C856 C857 1.391 . S
C856 H883 0.930 . S
C857 C853 1.387 . S
C857 C856 1.391 . S
C858 Tb848 2.825 . S
C858 C852 1.507 . S
C858 O871 1.238 . S
C858 O872 1.247 . S
O859 Tb848 2.347 . S
O859 C863 1.259 . S
O860 Eu849 2.418 . S
O860 C863 1.265 . S
O861 Eu849 2.384 . S
O861 C870 1.255 . S
O862 Tb848 2.366 . S
O862 C870 1.265 . S
C863 O859 1.259 . S
C863 O860 1.265 . S
O864 Eu849 2.479 . S
O864 C879 1.238 . S
O865 Eu849 2.471 . S
O865 C879 1.247 . S
O866 Eu849 2.347 . S
O866 C850 1.259 . S
O867 Tb848 2.418 . S
O867 C850 1.265 . S
O868 Tb848 2.384 . S
O868 C851 1.255 . S
O869 Eu849 2.366 . S
O869 C851 1.265 . S
C870 O861 1.255 . S
C870 O862 1.265 . S
O871 Tb848 2.479 . S
O871 C858 1.238 . S
O872 Tb848 2.471 . S
O872 C858 1.247 . S
C873 C876 1.380 . S
C873 C877 1.374 . S
C873 C879 1.507 . S
C874 C875 1.387 . S
C874 C878 1.391 . S
C875 C874 1.387 . S
C875 C876 1.384 . S
C875 H884 0.930 . S
C876 C873 1.380 . S
C876 C875 1.384 . S
C876 H885 0.931 . S
C877 C873 1.374 . S
C877 C878 1.390 . S
C877 H886 0.930 . S
C878 C874 1.391 . S
C878 C877 1.390 . S
C878 H887 0.930 . S
C879 Eu849 2.825 . S
C879 O864 1.238 . S
C879 O865 1.247 . S
C879 C873 1.507 . S
H880 C853 0.930 . S
H881 C854 0.931 . S
H882 C855 0.930 . S
H883 C856 0.930 . S
H884 C875 0.930 . S
H885 C876 0.931 . S
H886 C877 0.930 . S
H887 C878 0.930 . S
Tb888 C898 2.825 . S
Tb888 O899 2.347 . S
Tb888 O902 2.366 . S
Tb888 O907 2.418 . S
Tb888 O908 2.384 . S
Tb888 O911 2.479 . S
Tb888 O912 2.471 . S
Eu889 O900 2.418 . S
Eu889 O901 2.384 . S
Eu889 O904 2.479 . S
Eu889 O905 2.471 . S
Eu889 O906 2.347 . S
Eu889 O909 2.366 . S
Eu889 C919 2.825 . S
C890 O906 1.259 . S
C890 O907 1.265 . S
C891 O908 1.255 . S
C891 O909 1.265 . S
C892 C894 1.380 . S
C892 C895 1.374 . S
C892 C898 1.507 . S
C893 C894 1.384 . S
C893 C897 1.387 . S
C893 H920 0.930 . S
C894 C892 1.380 . S
C894 C893 1.384 . S
C894 H921 0.931 . S
C895 C892 1.374 . S
C895 C896 1.390 . S
C895 H922 0.930 . S
C896 C895 1.390 . S
C896 C897 1.391 . S
C896 H923 0.930 . S
C897 C893 1.387 . S
C897 C896 1.391 . S
C898 Tb888 2.825 . S
C898 C892 1.507 . S
C898 O911 1.238 . S
C898 O912 1.247 . S
O899 Tb888 2.347 . S
O899 C903 1.259 . S
O900 Eu889 2.418 . S
O900 C903 1.265 . S
O901 Eu889 2.384 . S
O901 C910 1.255 . S
O902 Tb888 2.366 . S
O902 C910 1.265 . S
C903 O899 1.259 . S
C903 O900 1.265 . S
O904 Eu889 2.479 . S
O904 C919 1.238 . S
O905 Eu889 2.471 . S
O905 C919 1.247 . S
O906 Eu889 2.347 . S
O906 C890 1.259 . S
O907 Tb888 2.418 . S
O907 C890 1.265 . S
O908 Tb888 2.384 . S
O908 C891 1.255 . S
O909 Eu889 2.366 . S
O909 C891 1.265 . S
C910 O901 1.255 . S
C910 O902 1.265 . S
O911 Tb888 2.479 . S
O911 C898 1.238 . S
O912 Tb888 2.471 . S
O912 C898 1.247 . S
C913 C916 1.380 . S
C913 C917 1.374 . S
C913 C919 1.507 . S
C914 C915 1.387 . S
C914 C918 1.391 . S
C915 C914 1.387 . S
C915 C916 1.384 . S
C915 H924 0.930 . S
C916 C913 1.380 . S
C916 C915 1.384 . S
C916 H925 0.931 . S
C917 C913 1.374 . S
C917 C918 1.390 . S
C917 H926 0.930 . S
C918 C914 1.391 . S
C918 C917 1.390 . S
C918 H927 0.930 . S
C919 Eu889 2.825 . S
C919 O904 1.238 . S
C919 O905 1.247 . S
C919 C913 1.507 . S
H920 C893 0.930 . S
H921 C894 0.931 . S
H922 C895 0.930 . S
H923 C896 0.930 . S
H924 C915 0.930 . S
H925 C916 0.931 . S
H926 C917 0.930 . S
H927 C918 0.930 . S
Tb928 C938 2.825 . S
Tb928 O939 2.347 . S
Tb928 O942 2.366 . S
Tb928 O947 2.418 . S
Tb928 O948 2.384 . S
Tb928 O951 2.479 . S
Tb928 O952 2.471 . S
Eu929 O940 2.418 . S
Eu929 O941 2.384 . S
Eu929 O944 2.479 . S
Eu929 O945 2.471 . S
Eu929 O946 2.347 . S
Eu929 O949 2.366 . S
Eu929 C959 2.825 . S
C930 O946 1.259 . S
C930 O947 1.265 . S
C931 O948 1.255 . S
C931 O949 1.265 . S
C932 C934 1.380 . S
C932 C935 1.374 . S
C932 C938 1.507 . S
C933 C934 1.384 . S
C933 C937 1.387 . S
C933 H960 0.930 . S
C934 C932 1.380 . S
C934 C933 1.384 . S
C934 H961 0.931 . S
C935 C932 1.374 . S
C935 C936 1.390 . S
C935 H962 0.930 . S
C936 C935 1.390 . S
C936 C937 1.391 . S
C936 H963 0.930 . S
C937 C933 1.387 . S
C937 C936 1.391 . S
C938 Tb928 2.825 . S
C938 C932 1.507 . S
C938 O951 1.238 . S
C938 O952 1.247 . S
O939 Tb928 2.347 . S
O939 C943 1.259 . S
O940 Eu929 2.418 . S
O940 C943 1.265 . S
O941 Eu929 2.384 . S
O941 C950 1.255 . S
O942 Tb928 2.366 . S
O942 C950 1.265 . S
C943 O939 1.259 . S
C943 O940 1.265 . S
O944 Eu929 2.479 . S
O944 C959 1.238 . S
O945 Eu929 2.471 . S
O945 C959 1.247 . S
O946 Eu929 2.347 . S
O946 C930 1.259 . S
O947 Tb928 2.418 . S
O947 C930 1.265 . S
O948 Tb928 2.384 . S
O948 C931 1.255 . S
O949 Eu929 2.366 . S
O949 C931 1.265 . S
C950 O941 1.255 . S
C950 O942 1.265 . S
O951 Tb928 2.479 . S
O951 C938 1.238 . S
O952 Tb928 2.471 . S
O952 C938 1.247 . S
C953 C956 1.380 . S
C953 C957 1.374 . S
C953 C959 1.507 . S
C954 C955 1.387 . S
C954 C958 1.391 . S
C955 C954 1.387 . S
C955 C956 1.384 . S
C955 H964 0.930 . S
C956 C953 1.380 . S
C956 C955 1.384 . S
C956 H965 0.931 . S
C957 C953 1.374 . S
C957 C958 1.390 . S
C957 H966 0.930 . S
C958 C954 1.391 . S
C958 C957 1.390 . S
C958 H967 0.930 . S
C959 Eu929 2.825 . S
C959 O944 1.238 . S
C959 O945 1.247 . S
C959 C953 1.507 . S
H960 C933 0.930 . S
H961 C934 0.931 . S
H962 C935 0.930 . S
H963 C936 0.930 . S
H964 C955 0.930 . S
H965 C956 0.931 . S
H966 C957 0.930 . S
H967 C958 0.930 . S
Tb968 C978 2.825 . S
Tb968 O979 2.347 . S
Tb968 O982 2.366 . S
Tb968 O987 2.418 . S
Tb968 O988 2.384 . S
Tb968 O991 2.479 . S
Tb968 O992 2.471 . S
Eu969 O980 2.418 . S
Eu969 O981 2.384 . S
Eu969 O984 2.479 . S
Eu969 O985 2.471 . S
Eu969 O986 2.347 . S
Eu969 O989 2.366 . S
Eu969 C999 2.825 . S
C970 O986 1.259 . S
C970 O987 1.265 . S
C971 O988 1.255 . S
C971 O989 1.265 . S
C972 C974 1.380 . S
C972 C975 1.374 . S
C972 C978 1.507 . S
C973 C974 1.384 . S
C973 C977 1.387 . S
C973 H1000 0.930 . S
C974 C972 1.380 . S
C974 C973 1.384 . S
C974 H1001 0.931 . S
C975 C972 1.374 . S
C975 C976 1.390 . S
C975 H1002 0.930 . S
C976 C975 1.390 . S
C976 C977 1.391 . S
C976 H1003 0.930 . S
C977 C973 1.387 . S
C977 C976 1.391 . S
C978 Tb968 2.825 . S
C978 C972 1.507 . S
C978 O991 1.238 . S
C978 O992 1.247 . S
O979 Tb968 2.347 . S
O979 C983 1.259 . S
O980 Eu969 2.418 . S
O980 C983 1.265 . S
O981 Eu969 2.384 . S
O981 C990 1.255 . S
O982 Tb968 2.366 . S
O982 C990 1.265 . S
C983 O979 1.259 . S
C983 O980 1.265 . S
O984 Eu969 2.479 . S
O984 C999 1.238 . S
O985 Eu969 2.471 . S
O985 C999 1.247 . S
O986 Eu969 2.347 . S
O986 C970 1.259 . S
O987 Tb968 2.418 . S
O987 C970 1.265 . S
O988 Tb968 2.384 . S
O988 C971 1.255 . S
O989 Eu969 2.366 . S
O989 C971 1.265 . S
C990 O981 1.255 . S
C990 O982 1.265 . S
O991 Tb968 2.479 . S
O991 C978 1.238 . S
O992 Tb968 2.471 . S
O992 C978 1.247 . S
C993 C996 1.380 . S
C993 C997 1.374 . S
C993 C999 1.507 . S
C994 C995 1.387 . S
C994 C998 1.391 . S
C995 C994 1.387 . S
C995 C996 1.384 . S
C995 H1004 0.930 . S
C996 C993 1.380 . S
C996 C995 1.384 . S
C996 H1005 0.931 . S
C997 C993 1.374 . S
C997 C998 1.390 . S
C997 H1006 0.930 . S
C998 C994 1.391 . S
C998 C997 1.390 . S
C998 H1007 0.930 . S
C999 Eu969 2.825 . S
C999 O984 1.238 . S
C999 O985 1.247 . S
C999 C993 1.507 . S
H1000 C973 0.930 . S
H1001 C974 0.931 . S
H1002 C975 0.930 . S
H1003 C976 0.930 . S
H1004 C995 0.930 . S
H1005 C996 0.931 . S
H1006 C997 0.930 . S
H1007 C998 0.930 . S
C1008 C1009 1.349 . S
C1008 C1010 1.327 . S
C1008 H1033 0.950 . S
C1009 C1008 1.349 . S
C1009 C1025 1.349 . S
C1010 C1008 1.327 . S
C1010 C1029 1.429 . S
C1010 H1034 0.950 . S
C1011 C1028 1.574 . S
C1011 C1030 1.368 . S
C1011 H1035 0.949 . S
H1012 C1016 0.949 . S
C1013 C1014 1.349 . S
C1013 C1015 1.327 . S
C1013 H1036 0.950 . S
C1014 C1013 1.349 . S
C1014 C1026 1.349 . S
C1015 C1013 1.327 . S
C1015 C1031 1.429 . S
C1015 H1037 0.950 . S
C1016 H1012 0.949 . S
C1016 C1024 1.574 . S
C1016 C1032 1.368 . S
H1017 C1025 0.950 . S
H1018 C1023 0.950 . S
H1019 C1024 0.949 . S
H1020 C1026 0.998 . S
H1021 C1027 0.950 . S
H1022 C1028 0.949 . S
C1023 H1018 0.950 . S
C1023 C1025 1.327 . S
C1023 C1029 1.429 . S
C1024 C1016 1.574 . S
C1024 H1019 0.949 . S
C1024 C1030 1.368 . S
C1025 C1009 1.349 . S
C1025 H1017 0.950 . S
C1025 C1023 1.327 . S
C1026 C1014 1.349 . S
C1026 H1020 0.998 . S
C1026 C1027 1.327 . S
C1027 H1021 0.950 . S
C1027 C1026 1.327 . S
C1027 C1031 1.429 . S
C1028 C1011 1.574 . S
C1028 H1022 0.949 . S
C1028 C1032 1.368 . S
C1029 C1010 1.429 . S
C1029 C1023 1.429 . S
C1029 C1030 1.523 . S
C1030 C1011 1.368 . S
C1030 C1024 1.368 . S
C1030 C1029 1.523 . S
C1031 C1015 1.429 . S
C1031 C1027 1.429 . S
C1031 C1032 1.523 . S
C1032 C1016 1.368 . S
C1032 C1028 1.368 . S
C1032 C1031 1.523 . S
H1033 C1008 0.950 . S
H1034 C1010 0.950 . S
H1035 C1011 0.949 . S
H1036 C1013 0.950 . S
H1037 C1015 0.950 . S
C1038 C1039 1.349 . S
C1038 C1040 1.327 . S
C1038 H1063 0.950 . S
C1039 C1038 1.349 . S
C1039 C1055 1.349 . S
C1040 C1038 1.327 . S
C1040 C1059 1.429 . S
C1040 H1064 0.950 . S
C1041 C1058 1.574 . S
C1041 C1060 1.368 . S
C1041 H1065 0.949 . S
H1042 C1046 0.949 . S
C1043 C1044 1.349 . S
C1043 C1045 1.327 . S
C1043 H1066 0.950 . S
C1044 C1043 1.349 . S
C1044 C1056 1.349 . S
C1045 C1043 1.327 . S
C1045 C1061 1.429 . S
C1045 H1067 0.950 . S
C1046 H1042 0.949 . S
C1046 C1054 1.574 . S
C1046 C1062 1.368 . S
H1047 C1055 0.950 . S
H1048 C1053 0.950 . S
H1049 C1054 0.949 . S
H1050 C1056 0.950 . S
H1051 C1057 0.950 . S
H1052 C1058 0.949 . S
C1053 H1048 0.950 . S
C1053 C1055 1.327 . S
C1053 C1059 1.429 . S
C1054 C1046 1.574 . S
C1054 H1049 0.949 . S
C1054 C1060 1.368 . S
C1055 C1039 1.349 . S
C1055 H1047 0.950 . S
C1055 C1053 1.327 . S
C1056 C1044 1.349 . S
C1056 H1050 0.950 . S
C1056 C1057 1.327 . S
C1057 H1051 0.950 . S
C1057 C1056 1.327 . S
C1057 C1061 1.429 . S
C1058 C1041 1.574 . S
C1058 H1052 0.949 . S
C1058 C1062 1.368 . S
C1059 C1040 1.429 . S
C1059 C1053 1.429 . S
C1059 C1060 1.523 . S
C1060 C1041 1.368 . S
C1060 C1054 1.368 . S
C1060 C1059 1.523 . S
C1061 C1045 1.429 . S
C1061 C1057 1.429 . S
C1061 C1062 1.523 . S
C1062 C1046 1.368 . S
C1062 C1058 1.368 . S
C1062 C1061 1.523 . S
H1063 C1038 0.950 . S
H1064 C1040 0.950 . S
H1065 C1041 0.949 . S
H1066 C1043 0.950 . S
H1067 C1045 0.950 . S
C1068 C1069 1.349 . S
C1068 C1070 1.327 . S
C1068 H1093 0.950 . S
C1069 C1068 1.349 . S
C1069 C1085 1.349 . S
C1070 C1068 1.327 . S
C1070 C1089 1.429 . S
C1070 H1094 0.950 . S
C1071 C1088 1.574 . S
C1071 C1090 1.368 . S
C1071 H1095 0.949 . S
H1072 C1076 0.949 . S
C1073 C1074 1.349 . S
C1073 C1075 1.327 . S
C1073 H1096 0.950 . S
C1074 C1073 1.349 . S
C1074 C1086 1.349 . S
C1075 C1073 1.327 . S
C1075 C1091 1.429 . S
C1075 H1097 0.950 . S
C1076 H1072 0.949 . S
C1076 C1084 1.574 . S
C1076 C1092 1.368 . S
H1077 C1085 0.950 . S
H1078 C1083 0.950 . S
H1079 C1084 0.949 . S
H1080 C1086 0.950 1_556 S
H1081 C1087 0.950 . S
H1082 C1088 0.949 . S
C1083 H1078 0.950 . S
C1083 C1085 1.327 . S
C1083 C1089 1.429 . S
C1084 C1076 1.574 . S
C1084 H1079 0.949 . S
C1084 C1090 1.368 . S
C1085 C1069 1.349 . S
C1085 H1077 0.950 . S
C1085 C1083 1.327 . S
C1086 C1074 1.349 . S
C1086 H1080 0.950 1_554 S
C1086 C1087 1.327 . S
C1087 H1081 0.950 . S
C1087 C1086 1.327 . S
C1087 C1091 1.429 . S
C1088 C1071 1.574 . S
C1088 H1082 0.949 . S
C1088 C1092 1.368 . S
C1089 C1070 1.429 . S
C1089 C1083 1.429 . S
C1089 C1090 1.523 . S
C1090 C1071 1.368 . S
C1090 C1084 1.368 . S
C1090 C1089 1.523 . S
C1091 C1075 1.429 . S
C1091 C1087 1.429 . S
C1091 C1092 1.523 . S
C1092 C1076 1.368 . S
C1092 C1088 1.368 . S
C1092 C1091 1.523 . S
H1093 C1068 0.950 . S
H1094 C1070 0.950 . S
H1095 C1071 0.949 . S
H1096 C1073 0.950 . S
H1097 C1075 0.950 . S
C1098 C1099 1.349 . S
C1098 C1100 1.327 . S
C1098 H1123 0.950 . S
C1099 C1098 1.349 . S
C1099 C1115 1.349 . S
C1100 C1098 1.327 . S
C1100 C1119 1.429 . S
C1100 H1124 0.950 . S
C1101 C1118 1.574 . S
C1101 C1120 1.368 . S
C1101 H1125 0.949 . S
H1102 C1106 0.949 . S
C1103 C1104 1.349 . S
C1103 C1105 1.327 . S
C1103 H1126 0.950 1_556 S
C1104 C1103 1.349 . S
C1104 C1116 1.349 . S
C1105 C1103 1.327 . S
C1105 C1121 1.429 . S
C1105 H1127 0.950 . S
C1106 H1102 0.949 . S
C1106 C1114 1.574 . S
C1106 C1122 1.368 . S
H1107 C1115 0.950 . S
H1108 C1113 0.950 . S
H1109 C1114 0.949 . S
H1110 C1116 0.950 . S
H1111 C1117 0.950 . S
H1112 C1118 0.949 . S
C1113 H1108 0.950 . S
C1113 C1115 1.327 . S
C1113 C1119 1.429 . S
C1114 C1106 1.574 . S
C1114 H1109 0.949 . S
C1114 C1120 1.368 . S
C1115 C1099 1.349 . S
C1115 H1107 0.950 . S
C1115 C1113 1.327 . S
C1116 C1104 1.349 . S
C1116 H1110 0.950 . S
C1116 C1117 1.327 . S
C1117 H1111 0.950 . S
C1117 C1116 1.327 . S
C1117 C1121 1.429 . S
C1118 C1101 1.574 . S
C1118 H1112 0.949 . S
C1118 C1122 1.368 . S
C1119 C1100 1.429 . S
C1119 C1113 1.429 . S
C1119 C1120 1.523 . S
C1120 C1101 1.368 . S
C1120 C1114 1.368 . S
C1120 C1119 1.523 . S
C1121 C1105 1.429 . S
C1121 C1117 1.429 . S
C1121 C1122 1.523 . S
C1122 C1106 1.368 . S
C1122 C1118 1.368 . S
C1122 C1121 1.523 . S
H1123 C1098 0.950 . S
H1124 C1100 0.950 . S
H1125 C1101 0.949 . S
H1126 C1103 0.950 1_554 S
H1127 C1105 0.950 . S
C1128 C1129 1.349 . S
C1128 C1130 1.327 . S
C1128 H1153 0.950 . S
C1129 C1128 1.349 . S
C1129 C1145 1.349 . S
C1130 C1128 1.327 . S
C1130 C1149 1.429 . S
C1130 H1154 0.950 . S
C1131 C1148 1.574 . S
C1131 C1150 1.368 . S
C1131 H1155 0.949 . S
H1132 C1136 0.949 . S
C1133 C1134 1.349 . S
C1133 C1135 1.327 . S
C1133 H1156 0.950 . S
C1134 C1133 1.349 . S
C1134 C1146 1.349 . S
C1135 C1133 1.327 . S
C1135 C1151 1.429 . S
C1135 H1157 0.950 . S
C1136 H1132 0.949 . S
C1136 C1144 1.574 . S
C1136 C1152 1.368 . S
H1137 C1145 0.950 . S
H1138 C1143 0.950 . S
H1139 C1144 0.949 . S
H1140 C1146 0.950 . S
H1141 C1147 0.950 . S
H1142 C1148 0.949 . S
C1143 H1138 0.950 . S
C1143 C1145 1.327 . S
C1143 C1149 1.429 . S
C1144 C1136 1.574 . S
C1144 H1139 0.949 . S
C1144 C1150 1.368 . S
C1145 C1129 1.349 . S
C1145 H1137 0.950 . S
C1145 C1143 1.327 . S
C1146 C1134 1.349 . S
C1146 H1140 0.950 . S
C1146 C1147 1.327 . S
C1147 H1141 0.950 . S
C1147 C1146 1.327 . S
C1147 C1151 1.429 . S
C1148 C1131 1.574 . S
C1148 H1142 0.949 . S
C1148 C1152 1.368 . S
C1149 C1130 1.429 . S
C1149 C1143 1.429 . S
C1149 C1150 1.523 . S
C1150 C1131 1.368 . S
C1150 C1144 1.368 . S
C1150 C1149 1.523 . S
C1151 C1135 1.429 . S
C1151 C1147 1.429 . S
C1151 C1152 1.523 . S
C1152 C1136 1.368 . S
C1152 C1148 1.368 . S
C1152 C1151 1.523 . S
H1153 C1128 0.950 . S
H1154 C1130 0.950 . S
H1155 C1131 0.949 . S
H1156 C1133 0.950 . S
H1157 C1135 0.950 . S
C1158 C1159 1.349 . S
C1158 C1160 1.327 . S
C1158 H1183 0.950 . S
C1159 C1158 1.349 . S
C1159 C1175 1.349 . S
C1160 C1158 1.327 . S
C1160 C1179 1.429 . S
C1160 H1184 0.950 . S
C1161 C1178 1.574 . S
C1161 C1180 1.368 . S
C1161 H1185 0.949 . S
H1162 C1166 0.895 1_554 S
C1163 C1164 1.349 . S
C1163 C1165 1.327 . S
C1163 H1186 0.950 . S
C1164 C1163 1.349 . S
C1164 C1176 1.349 1_556 S
C1165 C1163 1.327 . S
C1165 C1181 1.429 . S
C1165 H1187 0.950 . S
C1166 H1162 0.895 1_556 S
C1166 C1174 1.574 . S
C1166 C1182 1.368 . S
H1167 C1175 0.950 . S
H1168 C1173 0.950 . S
H1169 C1174 0.949 . S
H1170 C1176 0.950 . S
H1171 C1177 0.950 1_554 S
H1172 C1178 0.949 . S
C1173 H1168 0.950 . S
C1173 C1175 1.327 . S
C1173 C1179 1.429 . S
C1174 C1166 1.574 . S
C1174 H1169 0.949 . S
C1174 C1180 1.368 . S
C1175 C1159 1.349 . S
C1175 H1167 0.950 . S
C1175 C1173 1.327 . S
C1176 C1164 1.349 1_554 S
C1176 H1170 0.950 . S
C1176 C1177 1.327 1_554 S
C1177 H1171 0.950 1_556 S
C1177 C1176 1.327 1_556 S
C1177 C1181 1.429 . S
C1178 C1161 1.574 . S
C1178 H1172 0.949 . S
C1178 C1182 1.368 . S
C1179 C1160 1.429 . S
C1179 C1173 1.429 . S
C1179 C1180 1.523 . S
C1180 C1161 1.368 . S
C1180 C1174 1.368 . S
C1180 C1179 1.523 . S
C1181 C1165 1.429 . S
C1181 C1177 1.429 . S
C1181 C1182 1.523 . S
C1182 C1166 1.368 . S
C1182 C1178 1.368 . S
C1182 C1181 1.523 . S
H1183 C1158 0.950 . S
H1184 C1160 0.950 . S
H1185 C1161 0.949 . S
H1186 C1163 0.950 . S
H1187 C1165 0.950 . S
C1188 C1189 1.349 . S
C1188 C1190 1.327 . S
C1188 H1213 0.950 . S
C1189 C1188 1.349 . S
C1189 C1205 1.349 . S
C1190 C1188 1.327 . S
C1190 C1209 1.429 . S
C1190 H1214 0.950 . S
C1191 C1208 1.574 . S
C1191 C1210 1.368 . S
C1191 H1215 0.949 . S
H1192 C1196 0.949 . S
C1193 C1194 1.349 . S
C1193 C1195 1.327 . S
C1193 H1216 0.950 . S
C1194 C1193 1.349 . S
C1194 C1206 1.349 . S
C1195 C1193 1.327 . S
C1195 C1211 1.429 . S
C1195 H1217 0.950 . S
C1196 H1192 0.949 . S
C1196 C1204 1.574 . S
C1196 C1212 1.368 . S
H1197 C1205 0.950 . S
H1198 C1203 0.950 . S
H1199 C1204 0.949 . S
H1200 C1206 0.950 . S
H1201 C1207 0.950 . S
H1202 C1208 0.949 . S
C1203 H1198 0.950 . S
C1203 C1205 1.327 . S
C1203 C1209 1.429 . S
C1204 C1196 1.574 . S
C1204 H1199 0.949 . S
C1204 C1210 1.368 . S
C1205 C1189 1.349 . S
C1205 H1197 0.950 . S
C1205 C1203 1.327 . S
C1206 C1194 1.349 . S
C1206 H1200 0.950 . S
C1206 C1207 1.327 . S
C1207 H1201 0.950 . S
C1207 C1206 1.327 . S
C1207 C1211 1.429 . S
C1208 C1191 1.574 . S
C1208 H1202 0.949 . S
C1208 C1212 1.368 . S
C1209 C1190 1.429 . S
C1209 C1203 1.429 . S
C1209 C1210 1.523 . S
C1210 C1191 1.368 . S
C1210 C1204 1.368 . S
C1210 C1209 1.523 . S
C1211 C1195 1.429 . S
C1211 C1207 1.429 . S
C1211 C1212 1.523 . S
C1212 C1196 1.368 . S
C1212 C1208 1.368 . S
C1212 C1211 1.523 . S
H1213 C1188 0.950 . S
H1214 C1190 0.950 . S
H1215 C1191 0.949 . S
H1216 C1193 0.950 . S
H1217 C1195 0.950 . S
C1218 C1219 1.349 . S
C1218 C1220 1.327 . S
C1218 H1243 0.950 . S
C1219 C1218 1.349 . S
C1219 C1235 1.349 . S
C1220 C1218 1.327 . S
C1220 C1239 1.429 . S
C1220 H1244 0.950 . S
C1221 C1238 1.574 . S
C1221 C1240 1.368 . S
C1221 H1245 0.949 . S
H1222 C1226 0.949 . S
C1223 C1224 1.349 . S
C1223 C1225 1.327 . S
C1223 H1246 0.950 . S
C1224 C1223 1.349 . S
C1224 C1236 1.349 . S
C1225 C1223 1.327 . S
C1225 C1241 1.429 . S
C1225 H1247 0.950 . S
C1226 H1222 0.949 . S
C1226 C1234 1.574 . S
C1226 C1242 1.368 . S
H1227 C1235 0.950 . S
H1228 C1233 0.950 . S
H1229 C1234 0.949 . S
H1230 C1236 0.950 . S
H1231 C1237 0.950 . S
H1232 C1238 0.949 . S
C1233 H1228 0.950 . S
C1233 C1235 1.327 . S
C1233 C1239 1.429 . S
C1234 C1226 1.574 . S
C1234 H1229 0.949 . S
C1234 C1240 1.368 . S
C1235 C1219 1.349 . S
C1235 H1227 0.950 . S
C1235 C1233 1.327 . S
C1236 C1224 1.349 . S
C1236 H1230 0.950 . S
C1236 C1237 1.327 . S
C1237 H1231 0.950 . S
C1237 C1236 1.327 . S
C1237 C1241 1.429 . S
C1238 C1221 1.574 . S
C1238 H1232 0.949 . S
C1238 C1242 1.368 . S
C1239 C1220 1.429 . S
C1239 C1233 1.429 . S
C1239 C1240 1.523 . S
C1240 C1221 1.368 . S
C1240 C1234 1.368 . S
C1240 C1239 1.523 . S
C1241 C1225 1.429 . S
C1241 C1237 1.429 . S
C1241 C1242 1.523 . S
C1242 C1226 1.368 . S
C1242 C1238 1.368 . S
C1242 C1241 1.523 . S
H1243 C1218 0.950 . S
H1244 C1220 0.950 . S
H1245 C1221 0.949 . S
H1246 C1223 0.950 . S
H1247 C1225 0.950 . S
C1248 C1249 1.349 . S
C1248 C1250 1.327 . S
C1248 H1273 0.950 . S
C1249 C1248 1.349 . S
C1249 C1265 1.349 . S
C1250 C1248 1.327 . S
C1250 C1269 1.429 . S
C1250 H1274 0.950 . S
C1251 C1268 1.574 . S
C1251 C1270 1.368 . S
C1251 H1275 0.949 . S
H1252 C1256 0.882 1_554 S
C1253 C1254 1.349 . S
C1253 C1255 1.327 . S
C1253 H1276 0.950 . S
C1254 C1253 1.349 . S
C1254 C1266 1.329 1_556 S
C1255 C1253 1.327 . S
C1255 C1271 1.429 . S
C1255 H1277 0.950 . S
C1256 H1252 0.882 1_556 S
C1256 C1264 1.574 . S
C1256 C1272 1.368 . S
H1257 C1265 0.950 . S
H1258 C1263 0.950 . S
H1259 C1264 0.949 . S
H1260 C1266 0.973 . S
H1261 C1267 0.950 1_554 S
H1262 C1268 0.949 . S
C1263 H1258 0.950 . S
C1263 C1265 1.327 . S
C1263 C1269 1.429 . S
C1264 C1256 1.574 . S
C1264 H1259 0.949 . S
C1264 C1270 1.368 . S
C1265 C1249 1.349 . S
C1265 H1257 0.950 . S
C1265 C1263 1.327 . S
C1266 C1254 1.329 1_554 S
C1266 H1260 0.973 . S
C1266 C1267 1.325 1_554 S
C1267 H1261 0.950 1_556 S
C1267 C1266 1.325 1_556 S
C1267 C1271 1.429 . S
C1268 C1251 1.574 . S
C1268 H1262 0.949 . S
C1268 C1272 1.368 . S
C1269 C1250 1.429 . S
C1269 C1263 1.429 . S
C1269 C1270 1.523 . S
C1270 C1251 1.368 . S
C1270 C1264 1.368 . S
C1270 C1269 1.523 . S
C1271 C1255 1.429 . S
C1271 C1267 1.429 . S
C1271 C1272 1.523 . S
C1272 C1256 1.368 . S
C1272 C1268 1.368 . S
C1272 C1271 1.523 . S
H1273 C1248 0.950 . S
H1274 C1250 0.950 . S
H1275 C1251 0.949 . S
H1276 C1253 0.950 . S
H1277 C1255 0.950 . S
C1278 C1279 1.349 . S
C1278 C1280 1.327 . S
C1278 H1303 0.950 . S
C1279 C1278 1.349 . S
C1279 C1295 1.349 . S
C1280 C1278 1.327 . S
C1280 C1299 1.429 . S
C1280 H1304 0.950 . S
C1281 C1298 1.574 . S
C1281 C1300 1.368 . S
C1281 H1305 0.949 . S
H1282 C1286 0.949 . S
C1283 C1284 1.349 . S
C1283 C1285 1.327 . S
C1283 H1306 0.947 . S
C1284 C1283 1.349 . S
C1284 C1296 1.349 . S
C1285 C1283 1.327 . S
C1285 C1301 1.429 . S
C1285 H1307 0.950 . S
C1286 H1282 0.949 . S
C1286 C1294 1.574 . S
C1286 C1302 1.368 . S
H1287 C1295 0.950 . S
H1288 C1293 0.950 . S
H1289 C1294 0.949 . S
H1290 C1296 0.950 . S
H1291 C1297 0.950 . S
H1292 C1298 0.949 . S
C1293 H1288 0.950 . S
C1293 C1295 1.327 . S
C1293 C1299 1.429 . S
C1294 C1286 1.574 . S
C1294 H1289 0.949 . S
C1294 C1300 1.368 . S
C1295 C1279 1.349 . S
C1295 H1287 0.950 . S
C1295 C1293 1.327 . S
C1296 C1284 1.349 . S
C1296 H1290 0.950 . S
C1296 C1297 1.327 . S
C1297 H1291 0.950 . S
C1297 C1296 1.327 . S
C1297 C1301 1.429 . S
C1298 C1281 1.574 . S
C1298 H1292 0.949 . S
C1298 C1302 1.368 . S
C1299 C1280 1.429 . S
C1299 C1293 1.429 . S
C1299 C1300 1.523 . S
C1300 C1281 1.368 . S
C1300 C1294 1.368 . S
C1300 C1299 1.523 . S
C1301 C1285 1.429 . S
C1301 C1297 1.429 . S
C1301 C1302 1.523 . S
C1302 C1286 1.368 . S
C1302 C1298 1.368 . S
C1302 C1301 1.523 . S
H1303 C1278 0.950 . S
H1304 C1280 0.950 . S
H1305 C1281 0.949 . S
H1306 C1283 0.947 . S
H1307 C1285 0.950 . S
C1308 C1309 1.349 . S
C1308 C1310 1.327 . S
C1308 H1333 0.950 . S
C1309 C1308 1.349 . S
C1309 C1325 1.349 . S
C1310 C1308 1.327 . S
C1310 C1329 1.429 . S
C1310 H1334 0.950 . S
C1311 C1328 1.574 . S
C1311 C1330 1.368 . S
C1311 H1335 0.949 . S
H1312 C1316 0.949 . S
C1313 C1314 1.349 . S
C1313 C1315 1.327 . S
C1313 H1336 0.950 . S
C1314 C1313 1.349 . S
C1314 C1326 1.349 . S
C1315 C1313 1.327 . S
C1315 C1331 1.429 . S
C1315 H1337 0.950 . S
C1316 H1312 0.949 . S
C1316 C1324 1.574 . S
C1316 C1332 1.368 . S
H1317 C1325 0.950 . S
H1318 C1323 0.950 . S
H1319 C1324 0.949 . S
H1320 C1326 0.950 . S
H1321 C1327 0.950 . S
H1322 C1328 0.949 . S
C1323 H1318 0.950 . S
C1323 C1325 1.327 . S
C1323 C1329 1.429 . S
C1324 C1316 1.574 . S
C1324 H1319 0.949 . S
C1324 C1330 1.368 . S
C1325 C1309 1.349 . S
C1325 H1317 0.950 . S
C1325 C1323 1.327 . S
C1326 C1314 1.349 . S
C1326 H1320 0.950 . S
C1326 C1327 1.327 . S
C1327 H1321 0.950 . S
C1327 C1326 1.327 . S
C1327 C1331 1.429 . S
C1328 C1311 1.574 . S
C1328 H1322 0.949 . S
C1328 C1332 1.368 . S
C1329 C1310 1.429 . S
C1329 C1323 1.429 . S
C1329 C1330 1.523 . S
C1330 C1311 1.368 . S
C1330 C1324 1.368 . S
C1330 C1329 1.523 . S
C1331 C1315 1.429 . S
C1331 C1327 1.429 . S
C1331 C1332 1.523 . S
C1332 C1316 1.368 . S
C1332 C1328 1.368 . S
C1332 C1331 1.523 . S
H1333 C1308 0.950 . S
H1334 C1310 0.950 . S
H1335 C1311 0.949 . S
H1336 C1313 0.950 . S
H1337 C1315 0.950 . S
C1338 C1339 1.349 . S
C1338 C1340 1.327 . S
C1338 H1363 0.950 . S
C1339 C1338 1.349 . S
C1339 C1355 1.349 . S
C1340 C1338 1.327 . S
C1340 C1359 1.429 . S
C1340 H1364 0.950 . S
C1341 C1358 1.574 . S
C1341 C1360 1.368 . S
C1341 H1365 0.949 . S
H1342 C1346 0.949 . S
C1343 C1344 1.349 . S
C1343 C1345 1.327 . S
C1343 H1366 0.950 . S
C1344 C1343 1.349 . S
C1344 C1356 1.384 . S
C1345 C1343 1.327 . S
C1345 C1361 1.429 . S
C1345 H1367 0.950 . S
C1346 H1342 0.949 . S
C1346 C1354 1.574 . S
C1346 C1362 1.368 . S
H1347 C1355 0.950 . S
H1348 C1353 0.950 . S
H1349 C1354 0.949 . S
H1350 C1356 0.901 1_556 S
H1351 C1357 0.950 1_556 S
H1352 C1358 0.949 . S
C1353 H1348 0.950 . S
C1353 C1355 1.327 . S
C1353 C1359 1.429 . S
C1354 C1346 1.574 . S
C1354 H1349 0.949 . S
C1354 C1360 1.368 . S
C1355 C1339 1.349 . S
C1355 H1347 0.950 . S
C1355 C1353 1.327 . S
C1356 C1344 1.384 . S
C1356 H1350 0.901 1_554 S
C1356 C1357 1.342 . S
C1357 H1351 0.950 1_554 S
C1357 C1356 1.342 . S
C1357 C1361 1.429 . S
C1358 C1341 1.574 . S
C1358 H1352 0.949 . S
C1358 C1362 1.368 . S
C1359 C1340 1.429 . S
C1359 C1353 1.429 . S
C1359 C1360 1.523 . S
C1360 C1341 1.368 . S
C1360 C1354 1.368 . S
C1360 C1359 1.523 . S
C1361 C1345 1.429 . S
C1361 C1357 1.429 . S
C1361 C1362 1.523 . S
C1362 C1346 1.368 . S
C1362 C1358 1.368 . S
C1362 C1361 1.523 . S
H1363 C1338 0.950 . S
H1364 C1340 0.950 . S
H1365 C1341 0.949 . S
H1366 C1343 0.950 . S
H1367 C1345 0.950 . S
C1368 C1369 1.349 . S
C1368 C1370 1.327 . S
C1368 H1393 0.950 . S
C1369 C1368 1.349 . S
C1369 C1385 1.349 . S
C1370 C1368 1.327 . S
C1370 C1389 1.429 . S
C1370 H1394 0.950 . S
C1371 C1388 1.574 . S
C1371 C1390 1.368 . S
C1371 H1395 0.949 . S
H1372 C1376 0.949 . S
C1373 C1374 1.349 . S
C1373 C1375 1.327 . S
C1373 H1396 0.950 . S
C1374 C1373 1.349 . S
C1374 C1386 1.349 . S
C1375 C1373 1.327 . S
C1375 C1391 1.429 . S
C1375 H1397 0.950 . S
C1376 H1372 0.949 . S
C1376 C1384 1.574 . S
C1376 C1392 1.368 . S
H1377 C1385 0.950 . S
H1378 C1383 0.959 . S
H1379 C1384 0.949 . S
H1380 C1386 0.950 . S
H1381 C1387 0.950 . S
H1382 C1388 0.949 . S
C1383 H1378 0.959 . S
C1383 C1385 1.327 . S
C1383 C1389 1.429 . S
C1384 C1376 1.574 . S
C1384 H1379 0.949 . S
C1384 C1390 1.368 . S
C1385 C1369 1.349 . S
C1385 H1377 0.950 . S
C1385 C1383 1.327 . S
C1386 C1374 1.349 . S
C1386 H1380 0.950 . S
C1386 C1387 1.327 . S
C1387 H1381 0.950 . S
C1387 C1386 1.327 . S
C1387 C1391 1.429 . S
C1388 C1371 1.574 . S
C1388 H1382 0.949 . S
C1388 C1392 1.368 . S
C1389 C1370 1.429 . S
C1389 C1383 1.429 . S
C1389 C1390 1.523 1_655 S
C1390 C1371 1.368 . S
C1390 C1384 1.368 . S
C1390 C1389 1.523 1_455 S
C1391 C1375 1.429 . S
C1391 C1387 1.429 . S
C1391 C1392 1.523 . S
C1392 C1376 1.368 . S
C1392 C1388 1.368 . S
C1392 C1391 1.523 . S
H1393 C1368 0.950 . S
H1394 C1370 0.950 . S
H1395 C1371 0.949 . S
H1396 C1373 0.950 . S
H1397 C1375 0.950 . S
C1398 C1399 1.349 . S
C1398 C1400 1.327 . S
C1398 H1423 0.950 . S
C1399 C1398 1.349 . S
C1399 C1415 1.349 . S
C1400 C1398 1.327 . S
C1400 C1419 1.429 . S
C1400 H1424 0.950 . S
C1401 C1418 1.574 . S
C1401 C1420 1.368 . S
C1401 H1425 0.949 . S
H1402 C1406 0.949 . S
C1403 C1404 1.349 . S
C1403 C1405 1.327 . S
C1403 H1426 0.950 . S
C1404 C1403 1.349 . S
C1404 C1416 1.349 . S
C1405 C1403 1.327 . S
C1405 C1421 1.429 . S
C1405 H1427 0.950 . S
C1406 H1402 0.949 . S
C1406 C1414 1.574 . S
C1406 C1422 1.368 . S
H1407 C1415 0.950 . S
H1408 C1413 0.950 . S
H1409 C1414 0.949 . S
H1410 C1416 0.950 . S
H1411 C1417 0.950 . S
H1412 C1418 0.949 . S
C1413 H1408 0.950 . S
C1413 C1415 1.327 . S
C1413 C1419 1.429 . S
C1414 C1406 1.574 . S
C1414 H1409 0.949 . S
C1414 C1420 1.368 . S
C1415 C1399 1.349 . S
C1415 H1407 0.950 . S
C1415 C1413 1.327 . S
C1416 C1404 1.349 . S
C1416 H1410 0.950 . S
C1416 C1417 1.327 . S
C1417 H1411 0.950 . S
C1417 C1416 1.327 . S
C1417 C1421 1.429 . S
C1418 C1401 1.574 . S
C1418 H1412 0.949 . S
C1418 C1422 1.368 . S
C1419 C1400 1.429 . S
C1419 C1413 1.429 . S
C1419 C1420 1.523 . S
C1420 C1401 1.368 . S
C1420 C1414 1.368 . S
C1420 C1419 1.523 . S
C1421 C1405 1.429 . S
C1421 C1417 1.429 . S
C1421 C1422 1.523 . S
C1422 C1406 1.368 . S
C1422 C1418 1.368 . S
C1422 C1421 1.523 . S
H1423 C1398 0.950 . S
H1424 C1400 0.950 . S
H1425 C1401 0.949 . S
H1426 C1403 0.950 . S
H1427 C1405 0.950 . S
C1428 C1429 1.349 . S
C1428 C1430 1.327 . S
C1428 H1453 0.950 . S
C1429 C1428 1.349 . S
C1429 C1445 1.349 . S
C1430 C1428 1.327 . S
C1430 C1449 1.429 . S
C1430 H1454 0.950 . S
C1431 C1448 1.574 . S
C1431 C1450 1.369 . S
C1431 H1455 0.949 . S
H1432 C1436 0.949 . S
C1433 C1434 1.349 . S
C1433 C1435 1.327 . S
C1433 H1456 0.950 . S
C1434 C1433 1.349 . S
C1434 C1446 1.349 . S
C1435 C1433 1.327 . S
C1435 C1451 1.429 . S
C1435 H1457 0.950 . S
C1436 H1432 0.949 . S
C1436 C1444 1.574 . S
C1436 C1452 1.368 . S
H1437 C1445 0.950 . S
H1438 C1443 0.950 . S
H1439 C1444 0.949 1_545 S
H1440 C1446 0.950 . S
H1441 C1447 0.950 . S
H1442 C1448 0.949 . S
C1443 H1438 0.950 . S
C1443 C1445 1.327 . S
C1443 C1449 1.429 . S
C1444 C1436 1.574 . S
C1444 H1439 0.949 1_565 S
C1444 C1450 1.369 . S
C1445 C1429 1.349 . S
C1445 H1437 0.950 . S
C1445 C1443 1.327 . S
C1446 C1434 1.349 . S
C1446 H1440 0.950 . S
C1446 C1447 1.327 . S
C1447 H1441 0.950 . S
C1447 C1446 1.327 . S
C1447 C1451 1.429 . S
C1448 C1431 1.574 . S
C1448 H1442 0.949 . S
C1448 C1452 1.368 . S
C1449 C1430 1.429 . S
C1449 C1443 1.429 . S
C1449 C1450 1.522 1_545 S
C1450 C1431 1.369 . S
C1450 C1444 1.369 . S
C1450 C1449 1.522 1_565 S
C1451 C1435 1.429 . S
C1451 C1447 1.429 . S
C1451 C1452 1.523 . S
C1452 C1436 1.368 . S
C1452 C1448 1.368 . S
C1452 C1451 1.523 . S
H1453 C1428 0.950 . S
H1454 C1430 0.950 . S
H1455 C1431 0.949 . S
H1456 C1433 0.950 . S
H1457 C1435 0.950 . S
C1458 C1459 1.349 . S
C1458 C1460 1.327 . S
C1458 H1483 0.950 . S
C1459 C1458 1.349 . S
C1459 C1475 1.349 . S
C1460 C1458 1.327 . S
C1460 C1479 1.429 . S
C1460 H1484 0.950 . S
C1461 C1478 1.574 . S
C1461 C1480 1.368 . S
C1461 H1485 0.949 . S
H1462 C1466 0.949 . S
C1463 C1464 1.349 . S
C1463 C1465 1.327 . S
C1463 H1486 0.950 . S
C1464 C1463 1.349 . S
C1464 C1476 1.349 . S
C1465 C1463 1.327 . S
C1465 C1481 1.429 . S
C1465 H1487 0.950 . S
C1466 H1462 0.949 . S
C1466 C1474 1.574 . S
C1466 C1482 1.368 . S
H1467 C1475 0.950 . S
H1468 C1473 0.950 . S
H1469 C1474 0.949 . S
H1470 C1476 0.950 . S
H1471 C1477 0.950 . S
H1472 C1478 0.949 . S
C1473 H1468 0.950 . S
C1473 C1475 1.327 . S
C1473 C1479 1.429 . S
C1474 C1466 1.574 . S
C1474 H1469 0.949 . S
C1474 C1480 1.368 . S
C1475 C1459 1.349 . S
C1475 H1467 0.950 . S
C1475 C1473 1.327 . S
C1476 C1464 1.349 . S
C1476 H1470 0.950 . S
C1476 C1477 1.327 . S
C1477 H1471 0.950 . S
C1477 C1476 1.327 . S
C1477 C1481 1.429 . S
C1478 C1461 1.574 . S
C1478 H1472 0.949 . S
C1478 C1482 1.368 . S
C1479 C1460 1.429 . S
C1479 C1473 1.429 . S
C1479 C1480 1.523 . S
C1480 C1461 1.368 . S
C1480 C1474 1.368 . S
C1480 C1479 1.523 . S
C1481 C1465 1.429 . S
C1481 C1477 1.429 . S
C1481 C1482 1.523 . S
C1482 C1466 1.368 . S
C1482 C1478 1.368 . S
C1482 C1481 1.523 . S
H1483 C1458 0.950 . S
H1484 C1460 0.950 . S
H1485 C1461 0.949 . S
H1486 C1463 0.950 . S
H1487 C1465 0.950 . S
C1488 C1489 1.349 . S
C1488 C1490 1.327 . S
C1488 H1513 0.950 . S
C1489 C1488 1.349 . S
C1489 C1505 1.349 . S
C1490 C1488 1.327 . S
C1490 C1509 1.429 . S
C1490 H1514 0.950 . S
C1491 C1508 1.574 . S
C1491 C1510 1.368 . S
C1491 H1515 0.949 . S
H1492 C1496 0.949 . S
C1493 C1494 1.349 . S
C1493 C1495 1.327 . S
C1493 H1516 0.950 . S
C1494 C1493 1.349 . S
C1494 C1506 1.349 . S
C1495 C1493 1.327 . S
C1495 C1511 1.429 . S
C1495 H1517 0.950 . S
C1496 H1492 0.949 . S
C1496 C1504 1.574 . S
C1496 C1512 1.368 . S
H1497 C1505 0.950 . S
H1498 C1503 0.950 . S
H1499 C1504 0.949 . S
H1500 C1506 0.950 . S
H1501 C1507 0.950 . S
H1502 C1508 0.949 . S
C1503 H1498 0.950 . S
C1503 C1505 1.327 . S
C1503 C1509 1.429 . S
C1504 C1496 1.574 . S
C1504 H1499 0.949 . S
C1504 C1510 1.368 . S
C1505 C1489 1.349 . S
C1505 H1497 0.950 . S
C1505 C1503 1.327 . S
C1506 C1494 1.349 . S
C1506 H1500 0.950 . S
C1506 C1507 1.327 . S
C1507 H1501 0.950 . S
C1507 C1506 1.327 . S
C1507 C1511 1.429 . S
C1508 C1491 1.574 . S
C1508 H1502 0.949 . S
C1508 C1512 1.368 . S
C1509 C1490 1.429 . S
C1509 C1503 1.429 . S
C1509 C1510 1.523 . S
C1510 C1491 1.368 . S
C1510 C1504 1.368 . S
C1510 C1509 1.523 . S
C1511 C1495 1.429 . S
C1511 C1507 1.429 . S
C1511 C1512 1.523 . S
C1512 C1496 1.368 . S
C1512 C1508 1.368 . S
C1512 C1511 1.523 . S
H1513 C1488 0.950 . S
H1514 C1490 0.950 . S
H1515 C1491 0.949 . S
H1516 C1493 0.950 . S
H1517 C1495 0.950 . S
C1518 C1519 1.349 . S
C1518 C1520 1.327 . S
C1518 H1543 0.950 . S
C1519 C1518 1.349 . S
C1519 C1535 1.349 . S
C1520 C1518 1.327 . S
C1520 C1539 1.429 . S
C1520 H1544 0.950 . S
C1521 C1538 1.574 . S
C1521 C1540 1.368 . S
C1521 H1545 0.949 . S
H1522 C1526 0.949 . S
C1523 C1524 1.349 . S
C1523 C1525 1.327 . S
C1523 H1546 0.950 . S
C1524 C1523 1.349 . S
C1524 C1536 1.349 . S
C1525 C1523 1.327 . S
C1525 C1541 1.429 . S
C1525 H1547 0.950 . S
C1526 H1522 0.949 . S
C1526 C1534 1.574 . S
C1526 C1542 1.368 . S
H1527 C1535 0.950 . S
H1528 C1533 0.950 . S
H1529 C1534 0.949 . S
H1530 C1536 0.950 . S
H1531 C1537 0.950 . S
H1532 C1538 0.949 . S
C1533 H1528 0.950 . S
C1533 C1535 1.327 . S
C1533 C1539 1.429 . S
C1534 C1526 1.574 . S
C1534 H1529 0.949 . S
C1534 C1540 1.368 . S
C1535 C1519 1.349 . S
C1535 H1527 0.950 . S
C1535 C1533 1.327 . S
C1536 C1524 1.349 . S
C1536 H1530 0.950 . S
C1536 C1537 1.327 . S
C1537 H1531 0.950 . S
C1537 C1536 1.327 . S
C1537 C1541 1.429 . S
C1538 C1521 1.574 . S
C1538 H1532 0.949 . S
C1538 C1542 1.368 . S
C1539 C1520 1.429 . S
C1539 C1533 1.429 . S
C1539 C1540 1.523 . S
C1540 C1521 1.368 . S
C1540 C1534 1.368 . S
C1540 C1539 1.523 . S
C1541 C1525 1.429 . S
C1541 C1537 1.429 . S
C1541 C1542 1.523 . S
C1542 C1526 1.368 . S
C1542 C1538 1.368 . S
C1542 C1541 1.523 . S
H1543 C1518 0.950 . S
H1544 C1520 0.950 . S
H1545 C1521 0.949 . S
H1546 C1523 0.950 . S
H1547 C1525 0.950 . S
C1548 C1549 1.349 . S
C1548 C1550 1.327 . S
C1548 H1573 0.950 . S
C1549 C1548 1.349 . S
C1549 C1565 1.349 . S
C1550 C1548 1.327 . S
C1550 C1569 1.429 . S
C1550 H1574 0.950 . S
C1551 C1568 1.574 . S
C1551 C1570 1.368 . S
C1551 H1575 0.949 . S
H1552 C1556 0.949 . S
C1553 C1554 1.349 . S
C1553 C1555 1.327 . S
C1553 H1576 0.950 . S
C1554 C1553 1.349 . S
C1554 C1566 1.349 . S
C1555 C1553 1.327 . S
C1555 C1571 1.429 . S
C1555 H1577 0.950 . S
C1556 H1552 0.949 . S
C1556 C1564 1.574 . S
C1556 C1572 1.368 . S
H1557 C1565 0.950 . S
H1558 C1563 0.950 . S
H1559 C1564 0.949 . S
H1560 C1566 0.950 . S
H1561 C1567 0.950 . S
H1562 C1568 0.949 . S
C1563 H1558 0.950 . S
C1563 C1565 1.327 . S
C1563 C1569 1.429 . S
C1564 C1556 1.574 . S
C1564 H1559 0.949 . S
C1564 C1570 1.368 . S
C1565 C1549 1.349 . S
C1565 H1557 0.950 . S
C1565 C1563 1.327 . S
C1566 C1554 1.349 . S
C1566 H1560 0.950 . S
C1566 C1567 1.327 . S
C1567 H1561 0.950 . S
C1567 C1566 1.327 . S
C1567 C1571 1.429 . S
C1568 C1551 1.574 . S
C1568 H1562 0.949 . S
C1568 C1572 1.368 . S
C1569 C1550 1.429 . S
C1569 C1563 1.429 . S
C1569 C1570 1.523 . S
C1570 C1551 1.368 . S
C1570 C1564 1.368 . S
C1570 C1569 1.523 . S
C1571 C1555 1.429 . S
C1571 C1567 1.429 . S
C1571 C1572 1.523 . S
C1572 C1556 1.368 . S
C1572 C1568 1.368 . S
C1572 C1571 1.523 . S
H1573 C1548 0.950 . S
H1574 C1550 0.950 . S
H1575 C1551 0.949 . S
H1576 C1553 0.950 . S
H1577 C1555 0.950 . S
C1578 C1579 1.349 . S
C1578 C1580 1.327 . S
C1578 H1603 0.950 . S
C1579 C1578 1.349 . S
C1579 C1595 1.349 . S
C1580 C1578 1.327 . S
C1580 C1599 1.429 . S
C1580 H1604 0.950 . S
C1581 C1598 1.574 . S
C1581 C1600 1.368 . S
C1581 H1605 0.949 . S
H1582 C1586 0.949 . S
C1583 C1584 1.349 . S
C1583 C1585 1.327 . S
C1583 H1606 0.950 . S
C1584 C1583 1.349 . S
C1584 C1596 1.349 . S
C1585 C1583 1.327 . S
C1585 C1601 1.429 . S
C1585 H1607 0.950 . S
C1586 H1582 0.949 . S
C1586 C1594 1.574 . S
C1586 C1602 1.368 . S
H1587 C1595 0.950 . S
H1588 C1593 0.950 . S
H1589 C1594 0.949 . S
H1590 C1596 0.950 . S
H1591 C1597 0.950 . S
H1592 C1598 0.949 . S
C1593 H1588 0.950 . S
C1593 C1595 1.327 . S
C1593 C1599 1.429 . S
C1594 C1586 1.574 . S
C1594 H1589 0.949 . S
C1594 C1600 1.368 . S
C1595 C1579 1.349 . S
C1595 H1587 0.950 . S
C1595 C1593 1.327 . S
C1596 C1584 1.349 . S
C1596 H1590 0.950 . S
C1596 C1597 1.327 . S
C1597 H1591 0.950 . S
C1597 C1596 1.327 . S
C1597 C1601 1.429 . S
C1598 C1581 1.574 . S
C1598 H1592 0.949 . S
C1598 C1602 1.368 . S
C1599 C1580 1.429 . S
C1599 C1593 1.429 . S
C1599 C1600 1.523 . S
C1600 C1581 1.368 . S
C1600 C1594 1.368 . S
C1600 C1599 1.523 . S
C1601 C1585 1.429 . S
C1601 C1597 1.429 . S
C1601 C1602 1.523 . S
C1602 C1586 1.368 . S
C1602 C1598 1.368 . S
C1602 C1601 1.523 . S
H1603 C1578 0.950 . S
H1604 C1580 0.950 . S
H1605 C1581 0.949 . S
H1606 C1583 0.950 . S
H1607 C1585 0.950 . S
C1608 C1609 1.349 . S
C1608 C1610 1.327 . S
C1608 H1633 0.950 . S
C1609 C1608 1.349 . S
C1609 C1625 1.349 . S
C1610 C1608 1.327 . S
C1610 C1629 1.429 . S
C1610 H1634 0.950 . S
C1611 C1628 1.574 . S
C1611 C1630 1.368 . S
C1611 H1635 0.949 . S
H1612 C1616 0.949 . S
C1613 C1614 1.349 . S
C1613 C1615 1.327 . S
C1613 H1636 0.950 . S
C1614 C1613 1.349 . S
C1614 C1626 1.349 . S
C1615 C1613 1.327 . S
C1615 C1631 1.429 . S
C1615 H1637 0.950 . S
C1616 H1612 0.949 . S
C1616 C1624 1.574 . S
C1616 C1632 1.368 . S
H1617 C1625 0.950 . S
H1618 C1623 0.950 . S
H1619 C1624 0.949 . S
H1620 C1626 0.950 . S
H1621 C1627 0.950 . S
H1622 C1628 0.949 . S
C1623 H1618 0.950 . S
C1623 C1625 1.327 . S
C1623 C1629 1.429 . S
C1624 C1616 1.574 . S
C1624 H1619 0.949 . S
C1624 C1630 1.368 . S
C1625 C1609 1.349 . S
C1625 H1617 0.950 . S
C1625 C1623 1.327 . S
C1626 C1614 1.349 . S
C1626 H1620 0.950 . S
C1626 C1627 1.327 . S
C1627 H1621 0.950 . S
C1627 C1626 1.327 . S
C1627 C1631 1.429 . S
C1628 C1611 1.574 . S
C1628 H1622 0.949 . S
C1628 C1632 1.368 . S
C1629 C1610 1.429 . S
C1629 C1623 1.429 . S
C1629 C1630 1.523 . S
C1630 C1611 1.368 . S
C1630 C1624 1.368 . S
C1630 C1629 1.523 . S
C1631 C1615 1.429 . S
C1631 C1627 1.429 . S
C1631 C1632 1.523 . S
C1632 C1616 1.368 . S
C1632 C1628 1.368 . S
C1632 C1631 1.523 . S
H1633 C1608 0.950 . S
H1634 C1610 0.950 . S
H1635 C1611 0.949 . S
H1636 C1613 0.950 . S
H1637 C1615 0.950 . S
C1638 C1639 1.349 . S
C1638 C1640 1.327 . S
C1638 H1663 0.950 . S
C1639 C1638 1.349 . S
C1639 C1655 1.349 . S
C1640 C1638 1.327 . S
C1640 C1659 1.429 . S
C1640 H1664 0.950 . S
C1641 C1658 1.574 . S
C1641 C1660 1.368 . S
C1641 H1665 0.949 . S
H1642 C1646 0.949 . S
C1643 C1644 1.349 . S
C1643 C1645 1.327 . S
C1643 H1666 0.950 . S
C1644 C1643 1.349 . S
C1644 C1656 1.349 . S
C1645 C1643 1.327 . S
C1645 C1661 1.429 . S
C1645 H1667 0.950 . S
C1646 H1642 0.949 . S
C1646 C1654 1.574 . S
C1646 C1662 1.368 . S
H1647 C1655 0.950 . S
H1648 C1653 0.950 . S
H1649 C1654 0.949 . S
H1650 C1656 0.950 . S
H1651 C1657 0.950 . S
H1652 C1658 0.949 . S
C1653 H1648 0.950 . S
C1653 C1655 1.327 . S
C1653 C1659 1.429 . S
C1654 C1646 1.574 . S
C1654 H1649 0.949 . S
C1654 C1660 1.368 . S
C1655 C1639 1.349 . S
C1655 H1647 0.950 . S
C1655 C1653 1.327 . S
C1656 C1644 1.349 . S
C1656 H1650 0.950 . S
C1656 C1657 1.327 . S
C1657 H1651 0.950 . S
C1657 C1656 1.327 . S
C1657 C1661 1.429 . S
C1658 C1641 1.574 . S
C1658 H1652 0.949 . S
C1658 C1662 1.368 . S
C1659 C1640 1.429 . S
C1659 C1653 1.429 . S
C1659 C1660 1.523 1_545 S
C1660 C1641 1.368 . S
C1660 C1654 1.368 . S
C1660 C1659 1.523 1_565 S
C1661 C1645 1.429 . S
C1661 C1657 1.429 . S
C1661 C1662 1.523 . S
C1662 C1646 1.368 . S
C1662 C1658 1.368 . S
C1662 C1661 1.523 . S
H1663 C1638 0.950 . S
H1664 C1640 0.950 . S
H1665 C1641 0.949 . S
H1666 C1643 0.950 . S
H1667 C1645 0.950 . S
C1668 C1669 1.349 . S
C1668 C1670 1.327 . S
C1668 H1693 0.950 . S
C1669 C1668 1.349 . S
C1669 C1685 1.349 . S
C1670 C1668 1.327 . S
C1670 C1689 1.429 1_655 S
C1670 H1694 0.950 . S
C1671 C1688 1.574 . S
C1671 C1690 1.368 . S
C1671 H1695 0.949 . S
H1672 C1676 0.949 . S
C1673 C1674 1.349 . S
C1673 C1675 1.327 . S
C1673 H1696 0.950 . S
C1674 C1673 1.349 . S
C1674 C1686 1.349 . S
C1675 C1673 1.327 . S
C1675 C1691 1.429 . S
C1675 H1697 0.950 . S
C1676 H1672 0.949 . S
C1676 C1684 1.574 . S
C1676 C1692 1.368 . S
H1677 C1685 0.950 . S
H1678 C1683 0.950 . S
H1679 C1684 0.949 . S
H1680 C1686 0.950 . S
H1681 C1687 0.950 . S
H1682 C1688 0.949 . S
C1683 H1678 0.950 . S
C1683 C1685 1.327 1_455 S
C1683 C1689 1.429 . S
C1684 C1676 1.574 . S
C1684 H1679 0.949 . S
C1684 C1690 1.368 . S
C1685 C1669 1.349 . S
C1685 H1677 0.950 . S
C1685 C1683 1.327 1_655 S
C1686 C1674 1.349 . S
C1686 H1680 0.950 . S
C1686 C1687 1.327 . S
C1687 H1681 0.950 . S
C1687 C1686 1.327 . S
C1687 C1691 1.429 . S
C1688 C1671 1.574 . S
C1688 H1682 0.949 . S
C1688 C1692 1.368 . S
C1689 C1670 1.429 1_455 S
C1689 C1683 1.429 . S
C1689 C1690 1.523 . S
C1690 C1671 1.368 . S
C1690 C1684 1.368 . S
C1690 C1689 1.523 . S
C1691 C1675 1.429 . S
C1691 C1687 1.429 . S
C1691 C1692 1.523 . S
C1692 C1676 1.368 . S
C1692 C1688 1.368 . S
C1692 C1691 1.523 . S
H1693 C1668 0.950 . S
H1694 C1670 0.950 . S
H1695 C1671 0.949 . S
H1696 C1673 0.950 . S
H1697 C1675 0.950 . S
C1698 C1699 1.349 . S
C1698 C1700 1.327 . S
C1698 H1723 0.950 . S
C1699 C1698 1.349 . S
C1699 C1715 1.349 . S
C1700 C1698 1.327 . S
C1700 C1719 1.429 . S
C1700 H1724 0.950 . S
C1701 C1718 1.574 . S
C1701 C1720 1.368 . S
C1701 H1725 0.949 . S
H1702 C1706 0.949 . S
C1703 C1704 1.349 . S
C1703 C1705 1.327 . S
C1703 H1726 0.950 . S
C1704 C1703 1.349 . S
C1704 C1716 1.349 . S
C1705 C1703 1.327 . S
C1705 C1721 1.429 . S
C1705 H1727 0.950 . S
C1706 H1702 0.949 . S
C1706 C1714 1.574 . S
C1706 C1722 1.368 . S
H1707 C1715 0.950 . S
H1708 C1713 0.950 . S
H1709 C1714 0.949 . S
H1710 C1716 0.950 . S
H1711 C1717 0.950 . S
H1712 C1718 0.949 . S
C1713 H1708 0.950 . S
C1713 C1715 1.327 . S
C1713 C1719 1.429 . S
C1714 C1706 1.574 . S
C1714 H1709 0.949 . S
C1714 C1720 1.368 . S
C1715 C1699 1.349 . S
C1715 H1707 0.950 . S
C1715 C1713 1.327 . S
C1716 C1704 1.349 . S
C1716 H1710 0.950 . S
C1716 C1717 1.327 . S
C1717 H1711 0.950 . S
C1717 C1716 1.327 . S
C1717 C1721 1.429 . S
C1718 C1701 1.574 . S
C1718 H1712 0.949 . S
C1718 C1722 1.368 . S
C1719 C1700 1.429 . S
C1719 C1713 1.429 . S
C1719 C1720 1.523 . S
C1720 C1701 1.368 . S
C1720 C1714 1.368 . S
C1720 C1719 1.523 . S
C1721 C1705 1.429 . S
C1721 C1717 1.429 . S
C1721 C1722 1.523 . S
C1722 C1706 1.368 . S
C1722 C1718 1.368 . S
C1722 C1721 1.523 . S
H1723 C1698 0.950 . S
H1724 C1700 0.950 . S
H1725 C1701 0.949 . S
H1726 C1703 0.950 . S
H1727 C1705 0.950 . S
C1728 C1729 1.349 . S
C1728 C1730 1.327 . S
C1728 H1753 0.950 . S
C1729 C1728 1.349 . S
C1729 C1745 1.349 . S
C1730 C1728 1.327 . S
C1730 C1749 1.429 . S
C1730 H1754 0.950 . S
C1731 C1748 1.574 . S
C1731 C1750 1.368 . S
C1731 H1755 0.949 . S
H1732 C1736 0.949 . S
C1733 C1734 1.349 . S
C1733 C1735 1.327 . S
C1733 H1756 0.950 . S
C1734 C1733 1.349 . S
C1734 C1746 1.349 . S
C1735 C1733 1.327 . S
C1735 C1751 1.429 . S
C1735 H1757 0.950 . S
C1736 H1732 0.949 . S
C1736 C1744 1.574 . S
C1736 C1752 1.368 . S
H1737 C1745 0.950 . S
H1738 C1743 0.950 . S
H1739 C1744 0.949 . S
H1740 C1746 0.950 . S
H1741 C1747 0.950 . S
H1742 C1748 0.949 . S
C1743 H1738 0.950 . S
C1743 C1745 1.327 . S
C1743 C1749 1.429 . S
C1744 C1736 1.574 . S
C1744 H1739 0.949 . S
C1744 C1750 1.368 . S
C1745 C1729 1.349 . S
C1745 H1737 0.950 . S
C1745 C1743 1.327 . S
C1746 C1734 1.349 . S
C1746 H1740 0.950 . S
C1746 C1747 1.327 . S
C1747 H1741 0.950 . S
C1747 C1746 1.327 . S
C1747 C1751 1.429 . S
C1748 C1731 1.574 . S
C1748 H1742 0.949 . S
C1748 C1752 1.368 . S
C1749 C1730 1.429 . S
C1749 C1743 1.429 . S
C1749 C1750 1.523 . S
C1750 C1731 1.368 . S
C1750 C1744 1.368 . S
C1750 C1749 1.523 . S
C1751 C1735 1.429 . S
C1751 C1747 1.429 . S
C1751 C1752 1.523 . S
C1752 C1736 1.368 . S
C1752 C1748 1.368 . S
C1752 C1751 1.523 . S
H1753 C1728 0.950 . S
H1754 C1730 0.950 . S
H1755 C1731 0.949 . S
H1756 C1733 0.950 . S
H1757 C1735 0.950 . S
C1758 C1759 1.349 . S
C1758 C1760 1.327 . S
C1758 H1783 0.950 . S
C1759 C1758 1.349 . S
C1759 C1775 1.349 . S
C1760 C1758 1.327 . S
C1760 C1779 1.429 . S
C1760 H1784 0.950 . S
C1761 C1778 1.574 . S
C1761 C1780 1.368 . S
C1761 H1785 0.949 . S
H1762 C1766 0.949 . S
C1763 C1764 1.349 . S
C1763 C1765 1.327 . S
C1763 H1786 0.950 . S
C1764 C1763 1.349 . S
C1764 C1776 1.349 . S
C1765 C1763 1.327 . S
C1765 C1781 1.429 . S
C1765 H1787 0.950 . S
C1766 H1762 0.949 . S
C1766 C1774 1.574 . S
C1766 C1782 1.368 . S
H1767 C1775 0.950 . S
H1768 C1773 0.950 . S
H1769 C1774 0.949 . S
H1770 C1776 0.950 . S
H1771 C1777 0.950 . S
H1772 C1778 0.949 . S
C1773 H1768 0.950 . S
C1773 C1775 1.327 . S
C1773 C1779 1.429 . S
C1774 C1766 1.574 . S
C1774 H1769 0.949 . S
C1774 C1780 1.368 . S
C1775 C1759 1.349 . S
C1775 H1767 0.950 . S
C1775 C1773 1.327 . S
C1776 C1764 1.349 . S
C1776 H1770 0.950 . S
C1776 C1777 1.327 . S
C1777 H1771 0.950 . S
C1777 C1776 1.327 . S
C1777 C1781 1.429 . S
C1778 C1761 1.574 . S
C1778 H1772 0.949 . S
C1778 C1782 1.368 . S
C1779 C1760 1.429 . S
C1779 C1773 1.429 . S
C1779 C1780 1.523 . S
C1780 C1761 1.368 . S
C1780 C1774 1.368 . S
C1780 C1779 1.523 . S
C1781 C1765 1.429 . S
C1781 C1777 1.429 . S
C1781 C1782 1.523 . S
C1782 C1766 1.368 . S
C1782 C1778 1.368 . S
C1782 C1781 1.523 . S
H1783 C1758 0.950 . S
H1784 C1760 0.950 . S
H1785 C1761 0.949 . S
H1786 C1763 0.950 . S
H1787 C1765 0.950 . S
C1788 C1789 1.349 . S
C1788 C1790 1.327 . S
C1788 H1813 0.950 . S
C1789 C1788 1.349 . S
C1789 C1805 1.349 . S
C1790 C1788 1.327 . S
C1790 C1809 1.429 . S
C1790 H1814 0.950 . S
C1791 C1808 1.574 . S
C1791 C1810 1.368 . S
C1791 H1815 0.949 . S
H1792 C1796 0.949 . S
C1793 C1794 1.349 . S
C1793 C1795 1.327 . S
C1793 H1816 0.950 . S
C1794 C1793 1.349 . S
C1794 C1806 1.349 . S
C1795 C1793 1.327 . S
C1795 C1811 1.429 . S
C1795 H1817 0.950 . S
C1796 H1792 0.949 . S
C1796 C1804 1.574 . S
C1796 C1812 1.368 . S
H1797 C1805 0.950 . S
H1798 C1803 0.950 . S
H1799 C1804 0.949 . S
H1800 C1806 0.950 . S
H1801 C1807 0.950 . S
H1802 C1808 0.949 . S
C1803 H1798 0.950 . S
C1803 C1805 1.327 . S
C1803 C1809 1.429 . S
C1804 C1796 1.574 . S
C1804 H1799 0.949 . S
C1804 C1810 1.368 . S
C1805 C1789 1.349 . S
C1805 H1797 0.950 . S
C1805 C1803 1.327 . S
C1806 C1794 1.349 . S
C1806 H1800 0.950 . S
C1806 C1807 1.327 . S
C1807 H1801 0.950 . S
C1807 C1806 1.327 . S
C1807 C1811 1.429 . S
C1808 C1791 1.574 . S
C1808 H1802 0.949 . S
C1808 C1812 1.368 . S
C1809 C1790 1.429 . S
C1809 C1803 1.429 . S
C1809 C1810 1.523 . S
C1810 C1791 1.368 . S
C1810 C1804 1.368 . S
C1810 C1809 1.523 . S
C1811 C1795 1.429 . S
C1811 C1807 1.429 . S
C1811 C1812 1.523 . S
C1812 C1796 1.368 . S
C1812 C1808 1.368 . S
C1812 C1811 1.523 . S
H1813 C1788 0.950 . S
H1814 C1790 0.950 . S
H1815 C1791 0.949 . S
H1816 C1793 0.950 . S
H1817 C1795 0.950 . S
C1818 C1819 1.349 . S
C1818 C1820 1.327 . S
C1818 H1843 0.950 . S
C1819 C1818 1.349 . S
C1819 C1835 1.349 . S
C1820 C1818 1.327 . S
C1820 C1839 1.429 . S
C1820 H1844 0.950 . S
C1821 C1838 1.574 . S
C1821 C1840 1.368 . S
C1821 H1845 0.916 1_545 S
H1822 C1826 0.949 . S
C1823 C1824 1.349 . S
C1823 C1825 1.327 . S
C1823 H1846 0.950 . S
C1824 C1823 1.349 . S
C1824 C1836 1.349 . S
C1825 C1823 1.327 . S
C1825 C1841 1.429 . S
C1825 H1847 0.950 . S
C1826 H1822 0.949 . S
C1826 C1834 1.574 . S
C1826 C1842 1.368 . S
H1827 C1835 0.950 . S
H1828 C1833 0.950 . S
H1829 C1834 0.949 . S
H1830 C1836 0.950 . S
H1831 C1837 0.950 . S
H1832 C1838 0.949 . S
C1833 H1828 0.950 . S
C1833 C1835 1.327 . S
C1833 C1839 1.429 . S
C1834 C1826 1.574 . S
C1834 H1829 0.949 . S
C1834 C1840 1.368 . S
C1835 C1819 1.349 . S
C1835 H1827 0.950 . S
C1835 C1833 1.327 . S
C1836 C1824 1.349 . S
C1836 H1830 0.950 . S
C1836 C1837 1.327 . S
C1837 H1831 0.950 . S
C1837 C1836 1.327 . S
C1837 C1841 1.429 . S
C1838 C1821 1.574 . S
C1838 H1832 0.949 . S
C1838 C1842 1.368 . S
C1839 C1820 1.429 . S
C1839 C1833 1.429 . S
C1839 C1840 1.523 1_565 S
C1840 C1821 1.368 . S
C1840 C1834 1.368 . S
C1840 C1839 1.523 1_545 S
C1841 C1825 1.429 . S
C1841 C1837 1.429 . S
C1841 C1842 1.523 . S
C1842 C1826 1.368 . S
C1842 C1838 1.368 . S
C1842 C1841 1.523 . S
H1843 C1818 0.950 . S
H1844 C1820 0.950 . S
H1845 C1821 0.916 1_565 S
H1846 C1823 0.950 . S
H1847 C1825 0.950 . S
C1848 C1849 1.349 . S
C1848 C1850 1.308 1_455 S
C1848 H1873 0.950 . S
C1849 C1848 1.349 . S
C1849 C1865 1.349 . S
C1850 C1848 1.308 1_655 S
C1850 C1869 1.443 . S
C1850 H1874 0.955 . S
C1851 C1868 1.574 . S
C1851 C1870 1.368 . S
C1851 H1875 0.949 . S
H1852 C1856 0.949 . S
C1853 C1854 1.349 . S
C1853 C1855 1.327 . S
C1853 H1876 0.950 . S
C1854 C1853 1.349 . S
C1854 C1866 1.349 . S
C1855 C1853 1.327 . S
C1855 C1871 1.429 . S
C1855 H1877 0.950 . S
C1856 H1852 0.949 . S
C1856 C1864 1.574 . S
C1856 C1872 1.368 . S
H1857 C1865 0.950 . S
H1858 C1863 0.950 . S
H1859 C1864 0.949 . S
H1860 C1866 0.950 . S
H1861 C1867 0.950 . S
H1862 C1868 0.949 . S
C1863 H1858 0.950 . S
C1863 C1865 1.327 . S
C1863 C1869 1.429 1_455 S
C1864 C1856 1.574 . S
C1864 H1859 0.949 . S
C1864 C1870 1.368 . S
C1865 C1849 1.349 . S
C1865 H1857 0.950 . S
C1865 C1863 1.327 . S
C1866 C1854 1.349 . S
C1866 H1860 0.950 . S
C1866 C1867 1.327 . S
C1867 H1861 0.950 . S
C1867 C1866 1.327 . S
C1867 C1871 1.429 . S
C1868 C1851 1.574 . S
C1868 H1862 0.949 . S
C1868 C1872 1.368 . S
C1869 C1850 1.443 . S
C1869 C1863 1.429 1_655 S
C1869 C1870 1.523 . S
C1870 C1851 1.368 . S
C1870 C1864 1.368 . S
C1870 C1869 1.523 . S
C1871 C1855 1.429 . S
C1871 C1867 1.429 . S
C1871 C1872 1.523 . S
C1872 C1856 1.368 . S
C1872 C1868 1.368 . S
C1872 C1871 1.523 . S
H1873 C1848 0.950 . S
H1874 C1850 0.955 . S
H1875 C1851 0.949 . S
H1876 C1853 0.950 . S
H1877 C1855 0.950 . S
C1878 C1879 1.349 . S
C1878 C1880 1.327 . S
C1878 H1903 0.950 . S
C1879 C1878 1.349 . S
C1879 C1895 1.349 . S
C1880 C1878 1.327 . S
C1880 C1899 1.429 . S
C1880 H1904 0.950 . S
C1881 C1898 1.574 . S
C1881 C1900 1.368 . S
C1881 H1905 0.949 . S
H1882 C1886 0.949 . S
C1883 C1884 1.349 . S
C1883 C1885 1.327 . S
C1883 H1906 0.950 . S
C1884 C1883 1.349 . S
C1884 C1896 1.349 . S
C1885 C1883 1.327 . S
C1885 C1901 1.429 . S
C1885 H1907 0.950 . S
C1886 H1882 0.949 . S
C1886 C1894 1.574 . S
C1886 C1902 1.368 . S
H1887 C1895 0.950 . S
H1888 C1893 0.950 . S
H1889 C1894 0.949 . S
H1890 C1896 0.950 . S
H1891 C1897 0.950 . S
H1892 C1898 0.949 . S
C1893 H1888 0.950 . S
C1893 C1895 1.327 . S
C1893 C1899 1.429 . S
C1894 C1886 1.574 . S
C1894 H1889 0.949 . S
C1894 C1900 1.368 . S
C1895 C1879 1.349 . S
C1895 H1887 0.950 . S
C1895 C1893 1.327 . S
C1896 C1884 1.349 . S
C1896 H1890 0.950 . S
C1896 C1897 1.327 . S
C1897 H1891 0.950 . S
C1897 C1896 1.327 . S
C1897 C1901 1.429 . S
C1898 C1881 1.574 . S
C1898 H1892 0.949 . S
C1898 C1902 1.368 . S
C1899 C1880 1.429 . S
C1899 C1893 1.429 . S
C1899 C1900 1.523 . S
C1900 C1881 1.368 . S
C1900 C1894 1.368 . S
C1900 C1899 1.523 . S
C1901 C1885 1.429 . S
C1901 C1897 1.429 . S
C1901 C1902 1.523 . S
C1902 C1886 1.368 . S
C1902 C1898 1.368 . S
C1902 C1901 1.523 . S
H1903 C1878 0.950 . S
H1904 C1880 0.950 . S
H1905 C1881 0.949 . S
H1906 C1883 0.950 . S
H1907 C1885 0.950 . S
C1908 C1909 1.349 . S
C1908 C1910 1.327 . S
C1908 H1933 0.950 . S
C1909 C1908 1.349 . S
C1909 C1925 1.349 . S
C1910 C1908 1.327 . S
C1910 C1929 1.429 . S
C1910 H1934 0.950 . S
C1911 C1928 1.574 . S
C1911 C1930 1.368 . S
C1911 H1935 0.949 . S
H1912 C1916 0.949 . S
C1913 C1914 1.349 . S
C1913 C1915 1.327 . S
C1913 H1936 0.950 . S
C1914 C1913 1.349 . S
C1914 C1926 1.349 . S
C1915 C1913 1.327 . S
C1915 C1931 1.429 . S
C1915 H1937 0.950 . S
C1916 H1912 0.949 . S
C1916 C1924 1.574 . S
C1916 C1932 1.368 . S
H1917 C1925 0.950 . S
H1918 C1923 0.950 . S
H1919 C1924 0.949 . S
H1920 C1926 0.950 . S
H1921 C1927 0.950 . S
H1922 C1928 0.949 . S
C1923 H1918 0.950 . S
C1923 C1925 1.327 . S
C1923 C1929 1.429 . S
C1924 C1916 1.574 . S
C1924 H1919 0.949 . S
C1924 C1930 1.368 . S
C1925 C1909 1.349 . S
C1925 H1917 0.950 . S
C1925 C1923 1.327 . S
C1926 C1914 1.349 . S
C1926 H1920 0.950 . S
C1926 C1927 1.327 . S
C1927 H1921 0.950 . S
C1927 C1926 1.327 . S
C1927 C1931 1.429 . S
C1928 C1911 1.574 . S
C1928 H1922 0.949 . S
C1928 C1932 1.368 . S
C1929 C1910 1.429 . S
C1929 C1923 1.429 . S
C1929 C1930 1.523 1_455 S
C1930 C1911 1.368 . S
C1930 C1924 1.368 . S
C1930 C1929 1.523 1_655 S
C1931 C1915 1.429 . S
C1931 C1927 1.429 . S
C1931 C1932 1.523 . S
C1932 C1916 1.368 . S
C1932 C1928 1.368 . S
C1932 C1931 1.523 . S
H1933 C1908 0.950 . S
H1934 C1910 0.950 . S
H1935 C1911 0.949 . S
H1936 C1913 0.950 . S
H1937 C1915 0.950 . S
C1938 C1939 1.349 . S
C1938 C1940 1.327 . S
C1938 H1963 0.950 . S
C1939 C1938 1.349 . S
C1939 C1955 1.349 . S
C1940 C1938 1.327 . S
C1940 C1959 1.429 . S
C1940 H1964 0.950 . S
C1941 C1958 1.574 . S
C1941 C1960 1.368 . S
C1941 H1965 0.949 . S
H1942 C1946 0.949 . S
C1943 C1944 1.349 . S
C1943 C1945 1.327 . S
C1943 H1966 0.950 . S
C1944 C1943 1.349 . S
C1944 C1956 1.349 . S
C1945 C1943 1.327 . S
C1945 C1961 1.429 . S
C1945 H1967 0.950 . S
C1946 H1942 0.949 . S
C1946 C1954 1.574 . S
C1946 C1962 1.368 . S
H1947 C1955 0.950 . S
H1948 C1953 0.950 . S
H1949 C1954 0.949 . S
H1950 C1956 0.950 . S
H1951 C1957 0.950 . S
H1952 C1958 0.949 . S
C1953 H1948 0.950 . S
C1953 C1955 1.327 . S
C1953 C1959 1.429 . S
C1954 C1946 1.574 . S
C1954 H1949 0.949 . S
C1954 C1960 1.368 . S
C1955 C1939 1.349 . S
C1955 H1947 0.950 . S
C1955 C1953 1.327 . S
C1956 C1944 1.349 . S
C1956 H1950 0.950 . S
C1956 C1957 1.327 . S
C1957 H1951 0.950 . S
C1957 C1956 1.327 . S
C1957 C1961 1.429 . S
C1958 C1941 1.574 . S
C1958 H1952 0.949 . S
C1958 C1962 1.368 . S
C1959 C1940 1.429 . S
C1959 C1953 1.429 . S
C1959 C1960 1.523 . S
C1960 C1941 1.368 . S
C1960 C1954 1.368 . S
C1960 C1959 1.523 . S
C1961 C1945 1.429 . S
C1961 C1957 1.429 . S
C1961 C1962 1.523 . S
C1962 C1946 1.368 . S
C1962 C1958 1.368 . S
C1962 C1961 1.523 . S
H1963 C1938 0.950 . S
H1964 C1940 0.950 . S
H1965 C1941 0.949 . S
H1966 C1943 0.950 . S
H1967 C1945 0.950 . S
C1968 C1969 1.349 . S
C1968 C1970 1.327 . S
C1968 H1993 0.950 . S
C1969 C1968 1.349 . S
C1969 C1985 1.349 . S
C1970 C1968 1.327 . S
C1970 C1989 1.429 . S
C1970 H1994 0.950 . S
C1971 C1988 1.574 . S
C1971 C1990 1.367 . S
C1971 H1995 0.949 1_545 S
H1972 C1976 0.949 . S
C1973 C1974 1.349 . S
C1973 C1975 1.327 . S
C1973 H1996 0.950 . S
C1974 C1973 1.349 . S
C1974 C1986 1.349 . S
C1975 C1973 1.327 . S
C1975 C1991 1.429 . S
C1975 H1997 0.950 . S
C1976 H1972 0.949 . S
C1976 C1984 1.574 . S
C1976 C1992 1.368 . S
H1977 C1985 0.950 . S
H1978 C1983 0.950 . S
H1979 C1984 0.949 . S
H1980 C1986 0.950 . S
H1981 C1987 0.950 . S
H1982 C1988 0.949 . S
C1983 H1978 0.950 . S
C1983 C1985 1.327 . S
C1983 C1989 1.429 . S
C1984 C1976 1.574 . S
C1984 H1979 0.949 . S
C1984 C1990 1.411 . S
C1985 C1969 1.349 . S
C1985 H1977 0.950 . S
C1985 C1983 1.327 . S
C1986 C1974 1.349 . S
C1986 H1980 0.950 . S
C1986 C1987 1.327 . S
C1987 H1981 0.950 . S
C1987 C1986 1.327 . S
C1987 C1991 1.429 . S
C1988 C1971 1.574 . S
C1988 H1982 0.949 . S
C1988 C1992 1.368 . S
C1989 C1970 1.429 . S
C1989 C1983 1.429 . S
C1989 C1990 1.473 1_565 S
C1990 C1971 1.367 . S
C1990 C1984 1.411 . S
C1990 C1989 1.473 1_545 S
C1991 C1975 1.429 . S
C1991 C1987 1.429 . S
C1991 C1992 1.523 . S
C1992 C1976 1.368 . S
C1992 C1988 1.368 . S
C1992 C1991 1.523 . S
H1993 C1968 0.950 . S
H1994 C1970 0.950 . S
H1995 C1971 0.949 1_565 S
H1996 C1973 0.950 . S
H1997 C1975 0.950 . S
C1998 C1999 1.349 . S
C1998 C2000 1.327 . S
C1998 H2023 0.950 . S
C1999 C1998 1.349 . S
C1999 C2015 1.349 . S
C2000 C1998 1.327 . S
C2000 C2019 1.429 . S
C2000 H2024 0.950 . S
C2001 C2018 1.574 . S
C2001 C2020 1.368 . S
C2001 H2025 0.949 . S
H2002 C2006 0.949 . S
C2003 C2004 1.349 . S
C2003 C2005 1.327 . S
C2003 H2026 0.950 . S
C2004 C2003 1.349 . S
C2004 C2016 1.349 . S
C2005 C2003 1.327 . S
C2005 C2021 1.429 . S
C2005 H2027 0.950 . S
C2006 H2002 0.949 . S
C2006 C2014 1.574 . S
C2006 C2022 1.368 . S
H2007 C2015 0.950 . S
H2008 C2013 0.950 . S
H2009 C2014 0.949 . S
H2010 C2016 0.950 . S
H2011 C2017 0.950 . S
H2012 C2018 0.949 . S
C2013 H2008 0.950 . S
C2013 C2015 1.327 . S
C2013 C2019 1.429 . S
C2014 C2006 1.574 . S
C2014 H2009 0.949 . S
C2014 C2020 1.368 . S
C2015 C1999 1.349 . S
C2015 H2007 0.950 . S
C2015 C2013 1.327 . S
C2016 C2004 1.349 . S
C2016 H2010 0.950 . S
C2016 C2017 1.327 . S
C2017 H2011 0.950 . S
C2017 C2016 1.327 . S
C2017 C2021 1.429 . S
C2018 C2001 1.574 . S
C2018 H2012 0.949 . S
C2018 C2022 1.368 . S
C2019 C2000 1.429 . S
C2019 C2013 1.429 . S
C2019 C2020 1.523 . S
C2020 C2001 1.368 . S
C2020 C2014 1.368 . S
C2020 C2019 1.523 . S
C2021 C2005 1.429 . S
C2021 C2017 1.429 . S
C2021 C2022 1.523 . S
C2022 C2006 1.368 . S
C2022 C2018 1.368 . S
C2022 C2021 1.523 . S
H2023 C1998 0.950 . S
H2024 C2000 0.950 . S
H2025 C2001 0.949 . S
H2026 C2003 0.950 . S
H2027 C2005 0.950 . S
C2028 C2029 1.349 . S
C2028 C2030 1.327 . S
C2028 H2053 0.950 . S
C2029 C2028 1.349 . S
C2029 C2045 1.349 . S
C2030 C2028 1.327 . S
C2030 C2049 1.429 . S
C2030 H2054 0.950 . S
C2031 C2048 1.574 . S
C2031 C2050 1.368 . S
C2031 H2055 0.949 . S
H2032 C2036 0.949 . S
C2033 C2034 1.349 . S
C2033 C2035 1.327 . S
C2033 H2056 0.950 . S
C2034 C2033 1.349 . S
C2034 C2046 1.349 . S
C2035 C2033 1.327 . S
C2035 C2051 1.429 . S
C2035 H2057 0.950 . S
C2036 H2032 0.949 . S
C2036 C2044 1.574 . S
C2036 C2052 1.368 . S
H2037 C2045 0.950 . S
H2038 C2043 0.950 . S
H2039 C2044 0.949 . S
H2040 C2046 0.950 . S
H2041 C2047 0.950 . S
H2042 C2048 0.949 . S
C2043 H2038 0.950 . S
C2043 C2045 1.327 . S
C2043 C2049 1.429 . S
C2044 C2036 1.574 . S
C2044 H2039 0.949 . S
C2044 C2050 1.368 . S
C2045 C2029 1.349 . S
C2045 H2037 0.950 . S
C2045 C2043 1.327 . S
C2046 C2034 1.349 . S
C2046 H2040 0.950 . S
C2046 C2047 1.327 . S
C2047 H2041 0.950 . S
C2047 C2046 1.327 . S
C2047 C2051 1.429 . S
C2048 C2031 1.574 . S
C2048 H2042 0.949 . S
C2048 C2052 1.368 . S
C2049 C2030 1.429 . S
C2049 C2043 1.429 . S
C2049 C2050 1.523 . S
C2050 C2031 1.368 . S
C2050 C2044 1.368 . S
C2050 C2049 1.523 . S
C2051 C2035 1.429 . S
C2051 C2047 1.429 . S
C2051 C2052 1.523 . S
C2052 C2036 1.368 . S
C2052 C2048 1.368 . S
C2052 C2051 1.523 . S
H2053 C2028 0.950 . S
H2054 C2030 0.950 . S
H2055 C2031 0.949 . S
H2056 C2033 0.950 . S
H2057 C2035 0.950 . S
C2058 C2059 1.349 . S
C2058 C2060 1.327 . S
C2058 H2083 0.950 . S
C2059 C2058 1.349 . S
C2059 C2075 1.349 . S
C2060 C2058 1.327 . S
C2060 C2079 1.429 . S
C2060 H2084 0.950 . S
C2061 C2078 1.574 . S
C2061 C2080 1.368 . S
C2061 H2085 0.949 . S
H2062 C2066 0.949 . S
C2063 C2064 1.349 . S
C2063 C2065 1.327 . S
C2063 H2086 0.950 . S
C2064 C2063 1.349 . S
C2064 C2076 1.349 . S
C2065 C2063 1.327 . S
C2065 C2081 1.429 . S
C2065 H2087 0.950 . S
C2066 H2062 0.949 . S
C2066 C2074 1.574 . S
C2066 C2082 1.368 . S
H2067 C2075 0.950 . S
H2068 C2073 0.950 . S
H2069 C2074 0.949 . S
H2070 C2076 0.950 . S
H2071 C2077 0.950 . S
H2072 C2078 0.949 . S
C2073 H2068 0.950 . S
C2073 C2075 1.327 . S
C2073 C2079 1.429 . S
C2074 C2066 1.574 . S
C2074 H2069 0.949 . S
C2074 C2080 1.368 . S
C2075 C2059 1.349 . S
C2075 H2067 0.950 . S
C2075 C2073 1.327 . S
C2076 C2064 1.349 . S
C2076 H2070 0.950 . S
C2076 C2077 1.327 . S
C2077 H2071 0.950 . S
C2077 C2076 1.327 . S
C2077 C2081 1.429 . S
C2078 C2061 1.574 . S
C2078 H2072 0.949 . S
C2078 C2082 1.368 . S
C2079 C2060 1.429 . S
C2079 C2073 1.429 . S
C2079 C2080 1.523 . S
C2080 C2061 1.368 . S
C2080 C2074 1.368 . S
C2080 C2079 1.523 . S
C2081 C2065 1.429 . S
C2081 C2077 1.429 . S
C2081 C2082 1.523 . S
C2082 C2066 1.368 . S
C2082 C2078 1.368 . S
C2082 C2081 1.523 . S
H2083 C2058 0.950 . S
H2084 C2060 0.950 . S
H2085 C2061 0.949 . S
H2086 C2063 0.950 . S
H2087 C2065 0.950 . S
C2088 C2089 1.349 . S
C2088 C2090 1.327 . S
C2088 H2113 0.950 . S
C2089 C2088 1.349 . S
C2089 C2105 1.349 . S
C2090 C2088 1.327 . S
C2090 C2109 1.429 . S
C2090 H2114 0.950 . S
C2091 C2108 1.574 . S
C2091 C2110 1.368 . S
C2091 H2115 0.949 . S
H2092 C2096 0.924 1_545 S
C2093 C2094 1.349 . S
C2093 C2095 1.327 . S
C2093 H2116 0.950 . S
C2094 C2093 1.349 . S
C2094 C2106 1.349 1_565 S
C2095 C2093 1.327 . S
C2095 C2111 1.429 . S
C2095 H2117 0.950 . S
C2096 H2092 0.924 1_565 S
C2096 C2104 1.574 . S
C2096 C2112 1.368 . S
H2097 C2105 0.950 . S
H2098 C2103 0.950 . S
H2099 C2104 0.949 . S
H2100 C2106 0.950 . S
H2101 C2107 0.950 1_545 S
H2102 C2108 0.949 . S
C2103 H2098 0.950 . S
C2103 C2105 1.327 . S
C2103 C2109 1.429 . S
C2104 C2096 1.574 . S
C2104 H2099 0.949 . S
C2104 C2110 1.368 . S
C2105 C2089 1.349 . S
C2105 H2097 0.950 . S
C2105 C2103 1.327 . S
C2106 C2094 1.349 1_545 S
C2106 H2100 0.950 . S
C2106 C2107 1.327 1_545 S
C2107 H2101 0.950 1_565 S
C2107 C2106 1.327 1_565 S
C2107 C2111 1.429 . S
C2108 C2091 1.574 . S
C2108 H2102 0.949 . S
C2108 C2112 1.368 . S
C2109 C2090 1.429 . S
C2109 C2103 1.429 . S
C2109 C2110 1.523 . S
C2110 C2091 1.368 . S
C2110 C2104 1.368 . S
C2110 C2109 1.523 . S
C2111 C2095 1.429 . S
C2111 C2107 1.429 . S
C2111 C2112 1.523 . S
C2112 C2096 1.368 . S
C2112 C2108 1.368 . S
C2112 C2111 1.523 . S
H2113 C2088 0.950 . S
H2114 C2090 0.950 . S
H2115 C2091 0.949 . S
H2116 C2093 0.950 . S
H2117 C2095 0.950 . S
C2118 C2119 1.349 . S
C2118 C2120 1.327 . S
C2118 H2143 0.950 . S
C2119 C2118 1.349 . S
C2119 C2135 1.349 1_455 S
C2120 C2118 1.327 . S
C2120 C2139 1.429 . S
C2120 H2144 0.950 . S
C2121 C2138 1.574 . S
C2121 C2140 1.368 1_655 S
C2121 H2145 0.949 . S
H2122 C2126 0.949 . S
C2123 C2124 1.349 1_655 S
C2123 C2125 1.327 . S
C2123 H2146 0.950 . S
C2124 C2123 1.349 1_455 S
C2124 C2136 1.349 . S
C2125 C2123 1.327 . S
C2125 C2141 1.429 1_655 S
C2125 H2147 0.950 . S
C2126 H2122 0.949 . S
C2126 C2134 1.574 . S
C2126 C2142 1.368 . S
H2127 C2135 0.950 . S
H2128 C2133 0.950 . S
H2129 C2134 0.949 . S
H2130 C2136 0.950 . S
H2131 C2137 0.950 . S
H2132 C2138 0.949 . S
C2133 H2128 0.950 . S
C2133 C2135 1.327 . S
C2133 C2139 1.429 1_655 S
C2134 C2126 1.574 . S
C2134 H2129 0.949 . S
C2134 C2140 1.368 . S
C2135 C2119 1.349 1_655 S
C2135 H2127 0.950 . S
C2135 C2133 1.327 . S
C2136 C2124 1.349 . S
C2136 H2130 0.950 . S
C2136 C2137 1.327 . S
C2137 H2131 0.950 . S
C2137 C2136 1.327 . S
C2137 C2141 1.429 . S
C2138 C2121 1.574 . S
C2138 H2132 0.949 . S
C2138 C2142 1.368 1_655 S
C2139 C2120 1.429 . S
C2139 C2133 1.429 1_455 S
C2139 C2140 1.523 . S
C2140 C2121 1.368 1_455 S
C2140 C2134 1.368 . S
C2140 C2139 1.523 . S
C2141 C2125 1.429 1_455 S
C2141 C2137 1.429 . S
C2141 C2142 1.523 . S
C2142 C2126 1.368 . S
C2142 C2138 1.368 1_455 S
C2142 C2141 1.523 . S
H2143 C2118 0.950 . S
H2144 C2120 0.950 . S
H2145 C2121 0.949 . S
H2146 C2123 0.950 . S
H2147 C2125 0.950 . S
C2148 C2149 1.349 . S
C2148 C2150 1.327 . S
C2148 H2173 0.950 . S
C2149 C2148 1.349 . S
C2149 C2165 1.349 . S
C2150 C2148 1.327 . S
C2150 C2169 1.429 . S
C2150 H2174 0.950 . S
C2151 C2168 1.574 . S
C2151 C2170 1.368 . S
C2151 H2175 0.949 . S
H2152 C2156 0.949 . S
C2153 C2154 1.349 . S
C2153 C2155 1.327 . S
C2153 H2176 0.950 . S
C2154 C2153 1.349 . S
C2154 C2166 1.349 . S
C2155 C2153 1.327 . S
C2155 C2171 1.429 . S
C2155 H2177 0.950 . S
C2156 H2152 0.949 . S
C2156 C2164 1.574 . S
C2156 C2172 1.368 . S
H2157 C2165 0.950 . S
H2158 C2163 0.950 . S
H2159 C2164 0.949 . S
H2160 C2166 0.950 . S
H2161 C2167 0.950 . S
H2162 C2168 0.949 . S
C2163 H2158 0.950 . S
C2163 C2165 1.327 . S
C2163 C2169 1.429 . S
C2164 C2156 1.574 . S
C2164 H2159 0.949 . S
C2164 C2170 1.368 . S
C2165 C2149 1.349 . S
C2165 H2157 0.950 . S
C2165 C2163 1.327 . S
C2166 C2154 1.349 . S
C2166 H2160 0.950 . S
C2166 C2167 1.327 . S
C2167 H2161 0.950 . S
C2167 C2166 1.327 . S
C2167 C2171 1.429 . S
C2168 C2151 1.574 . S
C2168 H2162 0.949 . S
C2168 C2172 1.368 . S
C2169 C2150 1.429 . S
C2169 C2163 1.429 . S
C2169 C2170 1.523 . S
C2170 C2151 1.368 . S
C2170 C2164 1.368 . S
C2170 C2169 1.523 . S
C2171 C2155 1.429 . S
C2171 C2167 1.429 . S
C2171 C2172 1.523 . S
C2172 C2156 1.368 . S
C2172 C2168 1.368 . S
C2172 C2171 1.523 . S
H2173 C2148 0.950 . S
H2174 C2150 0.950 . S
H2175 C2151 0.949 . S
H2176 C2153 0.950 . S
H2177 C2155 0.950 . S
C2178 C2179 1.349 . S
C2178 C2180 1.327 . S
C2178 H2203 0.950 . S
C2179 C2178 1.349 . S
C2179 C2195 1.349 . S
C2180 C2178 1.327 . S
C2180 C2199 1.429 . S
C2180 H2204 0.950 . S
C2181 C2198 1.574 . S
C2181 C2200 1.368 . S
C2181 H2205 0.949 . S
H2182 C2186 0.949 . S
C2183 C2184 1.349 . S
C2183 C2185 1.327 . S
C2183 H2206 0.950 . S
C2184 C2183 1.349 . S
C2184 C2196 1.349 . S
C2185 C2183 1.327 . S
C2185 C2201 1.429 . S
C2185 H2207 0.950 . S
C2186 H2182 0.949 . S
C2186 C2194 1.574 . S
C2186 C2202 1.368 . S
H2187 C2195 0.950 . S
H2188 C2193 0.950 . S
H2189 C2194 0.949 . S
H2190 C2196 0.950 . S
H2191 C2197 0.950 . S
H2192 C2198 0.949 . S
C2193 H2188 0.950 . S
C2193 C2195 1.327 . S
C2193 C2199 1.429 . S
C2194 C2186 1.574 . S
C2194 H2189 0.949 . S
C2194 C2200 1.368 . S
C2195 C2179 1.349 . S
C2195 H2187 0.950 . S
C2195 C2193 1.327 . S
C2196 C2184 1.349 . S
C2196 H2190 0.950 . S
C2196 C2197 1.327 . S
C2197 H2191 0.950 . S
C2197 C2196 1.327 . S
C2197 C2201 1.429 . S
C2198 C2181 1.574 . S
C2198 H2192 0.949 . S
C2198 C2202 1.368 . S
C2199 C2180 1.429 . S
C2199 C2193 1.429 . S
C2199 C2200 1.523 . S
C2200 C2181 1.368 . S
C2200 C2194 1.368 . S
C2200 C2199 1.523 . S
C2201 C2185 1.429 . S
C2201 C2197 1.429 . S
C2201 C2202 1.523 . S
C2202 C2186 1.368 . S
C2202 C2198 1.368 . S
C2202 C2201 1.523 . S
H2203 C2178 0.950 . S
H2204 C2180 0.950 . S
H2205 C2181 0.949 . S
H2206 C2183 0.950 . S
H2207 C2185 0.950 . S
C2208 C2209 1.349 . S
C2208 C2210 1.327 . S
C2208 H2233 0.950 . S
C2209 C2208 1.349 . S
C2209 C2225 1.349 . S
C2210 C2208 1.327 . S
C2210 C2229 1.429 . S
C2210 H2234 0.950 . S
C2211 C2228 1.574 . S
C2211 C2230 1.368 . S
C2211 H2235 0.949 . S
H2212 C2216 0.949 . S
C2213 C2214 1.349 . S
C2213 C2215 1.327 . S
C2213 H2236 0.950 . S
C2214 C2213 1.349 . S
C2214 C2226 1.349 . S
C2215 C2213 1.327 . S
C2215 C2231 1.429 . S
C2215 H2237 0.950 . S
C2216 H2212 0.949 . S
C2216 C2224 1.574 . S
C2216 C2232 1.368 . S
H2217 C2225 0.950 . S
H2218 C2223 0.950 . S
H2219 C2224 0.949 . S
H2220 C2226 0.950 . S
H2221 C2227 0.950 . S
H2222 C2228 0.949 . S
C2223 H2218 0.950 . S
C2223 C2225 1.327 . S
C2223 C2229 1.429 . S
C2224 C2216 1.574 . S
C2224 H2219 0.949 . S
C2224 C2230 1.368 . S
C2225 C2209 1.349 . S
C2225 H2217 0.950 . S
C2225 C2223 1.327 . S
C2226 C2214 1.349 . S
C2226 H2220 0.950 . S
C2226 C2227 1.327 . S
C2227 H2221 0.950 . S
C2227 C2226 1.327 . S
C2227 C2231 1.429 . S
C2228 C2211 1.574 . S
C2228 H2222 0.949 . S
C2228 C2232 1.368 . S
C2229 C2210 1.429 . S
C2229 C2223 1.429 . S
C2229 C2230 1.523 . S
C2230 C2211 1.368 . S
C2230 C2224 1.368 . S
C2230 C2229 1.523 . S
C2231 C2215 1.429 . S
C2231 C2227 1.429 . S
C2231 C2232 1.523 . S
C2232 C2216 1.368 . S
C2232 C2228 1.368 . S
C2232 C2231 1.523 . S
H2233 C2208 0.950 . S
H2234 C2210 0.950 . S
H2235 C2211 0.949 . S
H2236 C2213 0.950 . S
H2237 C2215 0.950 . S
C2238 C2239 1.349 . S
C2238 C2240 1.327 . S
C2238 H2263 0.950 . S
C2239 C2238 1.349 . S
C2239 C2255 1.349 . S
C2240 C2238 1.327 . S
C2240 C2259 1.429 . S
C2240 H2264 0.950 . S
C2241 C2258 1.574 . S
C2241 C2260 1.368 . S
C2241 H2265 0.949 . S
H2242 C2246 0.949 1_565 S
C2243 C2244 1.349 . S
C2243 C2245 1.327 . S
C2243 H2266 0.950 . S
C2244 C2243 1.349 . S
C2244 C2256 1.349 1_545 S
C2245 C2243 1.327 . S
C2245 C2261 1.429 . S
C2245 H2267 0.950 . S
C2246 H2242 0.949 1_545 S
C2246 C2254 1.574 . S
C2246 C2262 1.368 . S
H2247 C2255 0.950 . S
H2248 C2253 0.950 . S
H2249 C2254 0.949 . S
H2250 C2256 0.950 . S
H2251 C2257 0.950 1_565 S
H2252 C2258 0.949 . S
C2253 H2248 0.950 . S
C2253 C2255 1.327 . S
C2253 C2259 1.429 . S
C2254 C2246 1.574 . S
C2254 H2249 0.949 . S
C2254 C2260 1.368 . S
C2255 C2239 1.349 . S
C2255 H2247 0.950 . S
C2255 C2253 1.327 . S
C2256 C2244 1.349 1_565 S
C2256 H2250 0.950 . S
C2256 C2257 1.327 1_565 S
C2257 H2251 0.950 1_545 S
C2257 C2256 1.327 1_545 S
C2257 C2261 1.429 . S
C2258 C2241 1.574 . S
C2258 H2252 0.949 . S
C2258 C2262 1.368 . S
C2259 C2240 1.429 . S
C2259 C2253 1.429 . S
C2259 C2260 1.523 . S
C2260 C2241 1.368 . S
C2260 C2254 1.368 . S
C2260 C2259 1.523 . S
C2261 C2245 1.429 . S
C2261 C2257 1.429 . S
C2261 C2262 1.523 . S
C2262 C2246 1.368 . S
C2262 C2258 1.368 . S
C2262 C2261 1.523 . S
H2263 C2238 0.950 . S
H2264 C2240 0.950 . S
H2265 C2241 0.949 . S
H2266 C2243 0.950 . S
H2267 C2245 0.950 . S
C2268 C2269 1.349 . S
C2268 C2270 1.327 . S
C2268 H2293 0.950 . S
C2269 C2268 1.349 . S
C2269 C2285 1.349 . S
C2270 C2268 1.327 . S
C2270 C2289 1.429 . S
C2270 H2294 0.950 . S
C2271 C2288 1.574 . S
C2271 C2290 1.368 . S
C2271 H2295 0.949 . S
H2272 C2276 0.949 . S
C2273 C2274 1.349 . S
C2273 C2275 1.327 . S
C2273 H2296 0.950 . S
C2274 C2273 1.349 . S
C2274 C2286 1.349 . S
C2275 C2273 1.327 . S
C2275 C2291 1.429 . S
C2275 H2297 0.950 . S
C2276 H2272 0.949 . S
C2276 C2284 1.574 . S
C2276 C2292 1.368 . S
H2277 C2285 0.950 . S
H2278 C2283 0.950 . S
H2279 C2284 0.949 . S
H2280 C2286 0.950 . S
H2281 C2287 0.950 . S
H2282 C2288 0.949 . S
C2283 H2278 0.950 . S
C2283 C2285 1.327 . S
C2283 C2289 1.429 . S
C2284 C2276 1.574 . S
C2284 H2279 0.949 . S
C2284 C2290 1.368 . S
C2285 C2269 1.349 . S
C2285 H2277 0.950 . S
C2285 C2283 1.327 . S
C2286 C2274 1.349 . S
C2286 H2280 0.950 . S
C2286 C2287 1.327 . S
C2287 H2281 0.950 . S
C2287 C2286 1.327 . S
C2287 C2291 1.429 . S
C2288 C2271 1.574 . S
C2288 H2282 0.949 . S
C2288 C2292 1.368 . S
C2289 C2270 1.429 . S
C2289 C2283 1.429 . S
C2289 C2290 1.523 . S
C2290 C2271 1.368 . S
C2290 C2284 1.368 . S
C2290 C2289 1.523 . S
C2291 C2275 1.429 . S
C2291 C2287 1.429 . S
C2291 C2292 1.523 . S
C2292 C2276 1.368 . S
C2292 C2288 1.368 . S
C2292 C2291 1.523 . S
H2293 C2268 0.950 . S
H2294 C2270 0.950 . S
H2295 C2271 0.949 . S
H2296 C2273 0.950 . S
H2297 C2275 0.950 . S
C2298 C2299 1.349 . S
C2298 C2300 1.327 . S
C2298 H2323 0.950 . S
C2299 C2298 1.349 . S
C2299 C2315 1.349 . S
C2300 C2298 1.327 . S
C2300 C2319 1.429 . S
C2300 H2324 0.950 . S
C2301 C2318 1.574 . S
C2301 C2320 1.368 . S
C2301 H2325 0.949 . S
H2302 C2306 0.949 . S
C2303 C2304 1.349 . S
C2303 C2305 1.327 . S
C2303 H2326 0.950 . S
C2304 C2303 1.349 . S
C2304 C2316 1.349 . S
C2305 C2303 1.327 . S
C2305 C2321 1.429 . S
C2305 H2327 0.950 . S
C2306 H2302 0.949 . S
C2306 C2314 1.574 . S
C2306 C2322 1.368 . S
H2307 C2315 0.950 . S
H2308 C2313 0.950 . S
H2309 C2314 0.949 . S
H2310 C2316 0.950 . S
H2311 C2317 0.950 . S
H2312 C2318 0.949 . S
C2313 H2308 0.950 . S
C2313 C2315 1.327 . S
C2313 C2319 1.429 . S
C2314 C2306 1.574 . S
C2314 H2309 0.949 . S
C2314 C2320 1.368 . S
C2315 C2299 1.349 . S
C2315 H2307 0.950 . S
C2315 C2313 1.327 . S
C2316 C2304 1.349 . S
C2316 H2310 0.950 . S
C2316 C2317 1.327 . S
C2317 H2311 0.950 . S
C2317 C2316 1.327 . S
C2317 C2321 1.429 . S
C2318 C2301 1.574 . S
C2318 H2312 0.949 . S
C2318 C2322 1.368 . S
C2319 C2300 1.429 . S
C2319 C2313 1.429 . S
C2319 C2320 1.523 . S
C2320 C2301 1.368 . S
C2320 C2314 1.368 . S
C2320 C2319 1.523 . S
C2321 C2305 1.429 . S
C2321 C2317 1.429 . S
C2321 C2322 1.523 . S
C2322 C2306 1.368 . S
C2322 C2318 1.368 . S
C2322 C2321 1.523 . S
H2323 C2298 0.950 . S
H2324 C2300 0.950 . S
H2325 C2301 0.949 . S
H2326 C2303 0.950 . S
H2327 C2305 0.950 . S
C2328 C2329 1.349 . S
C2328 C2330 1.327 . S
C2328 H2353 0.950 . S
C2329 C2328 1.349 . S
C2329 C2345 1.349 . S
C2330 C2328 1.327 . S
C2330 C2349 1.429 . S
C2330 H2354 0.950 . S
C2331 C2348 1.574 . S
C2331 C2350 1.368 . S
C2331 H2355 0.949 . S
H2332 C2336 0.949 . S
C2333 C2334 1.349 . S
C2333 C2335 1.327 . S
C2333 H2356 0.950 . S
C2334 C2333 1.349 . S
C2334 C2346 1.349 . S
C2335 C2333 1.327 . S
C2335 C2351 1.429 . S
C2335 H2357 0.950 . S
C2336 H2332 0.949 . S
C2336 C2344 1.574 . S
C2336 C2352 1.368 . S
H2337 C2345 0.950 . S
H2338 C2343 0.950 . S
H2339 C2344 0.949 . S
H2340 C2346 0.950 . S
H2341 C2347 0.950 . S
H2342 C2348 0.949 . S
C2343 H2338 0.950 . S
C2343 C2345 1.327 . S
C2343 C2349 1.429 . S
C2344 C2336 1.574 . S
C2344 H2339 0.949 . S
C2344 C2350 1.368 . S
C2345 C2329 1.349 . S
C2345 H2337 0.950 . S
C2345 C2343 1.327 . S
C2346 C2334 1.349 . S
C2346 H2340 0.950 . S
C2346 C2347 1.327 . S
C2347 H2341 0.950 . S
C2347 C2346 1.327 . S
C2347 C2351 1.429 . S
C2348 C2331 1.574 . S
C2348 H2342 0.949 . S
C2348 C2352 1.368 . S
C2349 C2330 1.429 . S
C2349 C2343 1.429 . S
C2349 C2350 1.523 . S
C2350 C2331 1.368 . S
C2350 C2344 1.368 . S
C2350 C2349 1.523 . S
C2351 C2335 1.429 . S
C2351 C2347 1.429 . S
C2351 C2352 1.523 . S
C2352 C2336 1.368 . S
C2352 C2348 1.368 . S
C2352 C2351 1.523 . S
H2353 C2328 0.950 . S
H2354 C2330 0.950 . S
H2355 C2331 0.949 . S
H2356 C2333 0.950 . S
H2357 C2335 0.950 . S
C2358 C2359 1.349 . S
C2358 C2360 1.327 . S
C2358 H2383 0.950 . S
C2359 C2358 1.349 . S
C2359 C2375 1.349 . S
C2360 C2358 1.327 . S
C2360 C2379 1.429 . S
C2360 H2384 0.950 . S
C2361 C2378 1.574 . S
C2361 C2380 1.368 . S
C2361 H2385 0.949 . S
H2362 C2366 0.949 . S
C2363 C2364 1.349 . S
C2363 C2365 1.327 . S
C2363 H2386 0.950 . S
C2364 C2363 1.349 . S
C2364 C2376 1.349 . S
C2365 C2363 1.327 . S
C2365 C2381 1.429 . S
C2365 H2387 0.950 . S
C2366 H2362 0.949 . S
C2366 C2374 1.574 . S
C2366 C2382 1.368 . S
H2367 C2375 0.950 . S
H2368 C2373 0.950 . S
H2369 C2374 0.949 . S
H2370 C2376 0.950 . S
H2371 C2377 0.950 . S
H2372 C2378 0.949 . S
C2373 H2368 0.950 . S
C2373 C2375 1.327 . S
C2373 C2379 1.429 . S
C2374 C2366 1.574 . S
C2374 H2369 0.949 . S
C2374 C2380 1.368 . S
C2375 C2359 1.349 . S
C2375 H2367 0.950 . S
C2375 C2373 1.327 . S
C2376 C2364 1.349 . S
C2376 H2370 0.950 . S
C2376 C2377 1.327 . S
C2377 H2371 0.950 . S
C2377 C2376 1.327 . S
C2377 C2381 1.429 . S
C2378 C2361 1.574 . S
C2378 H2372 0.949 . S
C2378 C2382 1.368 . S
C2379 C2360 1.429 . S
C2379 C2373 1.429 . S
C2379 C2380 1.523 . S
C2380 C2361 1.368 . S
C2380 C2374 1.368 . S
C2380 C2379 1.523 . S
C2381 C2365 1.429 . S
C2381 C2377 1.429 . S
C2381 C2382 1.523 . S
C2382 C2366 1.368 . S
C2382 C2378 1.368 . S
C2382 C2381 1.523 . S
H2383 C2358 0.950 . S
H2384 C2360 0.950 . S
H2385 C2361 0.949 . S
H2386 C2363 0.950 . S
H2387 C2365 0.950 . S
C2388 C2389 1.349 . S
C2388 C2390 1.327 . S
C2388 H2413 0.950 . S
C2389 C2388 1.349 . S
C2389 C2405 1.349 . S
C2390 C2388 1.327 . S
C2390 C2409 1.429 . S
C2390 H2414 0.950 . S
C2391 C2408 1.574 . S
C2391 C2410 1.368 . S
C2391 H2415 0.949 . S
H2392 C2396 0.949 . S
C2393 C2394 1.349 . S
C2393 C2395 1.327 . S
C2393 H2416 0.950 . S
C2394 C2393 1.349 . S
C2394 C2406 1.349 . S
C2395 C2393 1.327 . S
C2395 C2411 1.429 . S
C2395 H2417 0.950 . S
C2396 H2392 0.949 . S
C2396 C2404 1.574 . S
C2396 C2412 1.368 . S
H2397 C2405 0.950 . S
H2398 C2403 0.950 . S
H2399 C2404 0.949 . S
H2400 C2406 0.950 . S
H2401 C2407 0.950 . S
H2402 C2408 0.949 . S
C2403 H2398 0.950 . S
C2403 C2405 1.327 . S
C2403 C2409 1.429 . S
C2404 C2396 1.574 . S
C2404 H2399 0.949 . S
C2404 C2410 1.368 . S
C2405 C2389 1.349 . S
C2405 H2397 0.950 . S
C2405 C2403 1.327 . S
C2406 C2394 1.349 . S
C2406 H2400 0.950 . S
C2406 C2407 1.327 . S
C2407 H2401 0.950 . S
C2407 C2406 1.327 . S
C2407 C2411 1.429 . S
C2408 C2391 1.574 . S
C2408 H2402 0.949 . S
C2408 C2412 1.368 . S
C2409 C2390 1.429 . S
C2409 C2403 1.429 . S
C2409 C2410 1.523 . S
C2410 C2391 1.368 . S
C2410 C2404 1.368 . S
C2410 C2409 1.523 . S
C2411 C2395 1.429 . S
C2411 C2407 1.429 . S
C2411 C2412 1.523 . S
C2412 C2396 1.368 . S
C2412 C2408 1.368 . S
C2412 C2411 1.523 . S
H2413 C2388 0.950 . S
H2414 C2390 0.950 . S
H2415 C2391 0.949 . S
H2416 C2393 0.950 . S
H2417 C2395 0.950 . S
C2418 C2419 1.349 . S
C2418 C2420 1.327 . S
C2418 H2443 0.950 . S
C2419 C2418 1.349 . S
C2419 C2435 1.349 . S
C2420 C2418 1.327 . S
C2420 C2439 1.429 . S
C2420 H2444 0.950 . S
C2421 C2438 1.574 . S
C2421 C2440 1.368 . S
C2421 H2445 0.949 . S
H2422 C2426 0.949 . S
C2423 C2424 1.349 . S
C2423 C2425 1.327 . S
C2423 H2446 0.950 . S
C2424 C2423 1.349 . S
C2424 C2436 1.349 . S
C2425 C2423 1.327 . S
C2425 C2441 1.429 . S
C2425 H2447 0.950 . S
C2426 H2422 0.949 . S
C2426 C2434 1.574 . S
C2426 C2442 1.368 . S
H2427 C2435 0.950 . S
H2428 C2433 0.950 . S
H2429 C2434 0.949 . S
H2430 C2436 0.950 . S
H2431 C2437 0.950 . S
H2432 C2438 0.949 . S
C2433 H2428 0.950 . S
C2433 C2435 1.327 . S
C2433 C2439 1.429 . S
C2434 C2426 1.574 . S
C2434 H2429 0.949 . S
C2434 C2440 1.368 . S
C2435 C2419 1.349 . S
C2435 H2427 0.950 . S
C2435 C2433 1.327 . S
C2436 C2424 1.349 . S
C2436 H2430 0.950 . S
C2436 C2437 1.327 . S
C2437 H2431 0.950 . S
C2437 C2436 1.327 . S
C2437 C2441 1.429 . S
C2438 C2421 1.574 . S
C2438 H2432 0.949 . S
C2438 C2442 1.368 . S
C2439 C2420 1.429 . S
C2439 C2433 1.429 . S
C2439 C2440 1.523 . S
C2440 C2421 1.368 . S
C2440 C2434 1.368 . S
C2440 C2439 1.523 . S
C2441 C2425 1.429 . S
C2441 C2437 1.429 . S
C2441 C2442 1.523 . S
C2442 C2426 1.368 . S
C2442 C2438 1.368 . S
C2442 C2441 1.523 . S
H2443 C2418 0.950 . S
H2444 C2420 0.950 . S
H2445 C2421 0.949 . S
H2446 C2423 0.950 . S
H2447 C2425 0.950 . S
C2448 C2449 1.349 . S
C2448 C2450 1.327 . S
C2448 H2473 0.950 . S
C2449 C2448 1.349 . S
C2449 C2465 1.349 . S
C2450 C2448 1.327 . S
C2450 C2469 1.429 . S
C2450 H2474 0.950 . S
C2451 C2468 1.574 . S
C2451 C2470 1.368 . S
C2451 H2475 0.949 . S
H2452 C2456 0.949 . S
C2453 C2454 1.349 . S
C2453 C2455 1.327 . S
C2453 H2476 0.950 . S
C2454 C2453 1.349 . S
C2454 C2466 1.349 . S
C2455 C2453 1.327 . S
C2455 C2471 1.429 . S
C2455 H2477 0.950 . S
C2456 H2452 0.949 . S
C2456 C2464 1.574 . S
C2456 C2472 1.368 . S
H2457 C2465 0.950 . S
H2458 C2463 0.950 . S
H2459 C2464 0.949 . S
H2460 C2466 0.950 . S
H2461 C2467 0.950 . S
H2462 C2468 0.949 . S
C2463 H2458 0.950 . S
C2463 C2465 1.327 . S
C2463 C2469 1.429 . S
C2464 C2456 1.574 . S
C2464 H2459 0.949 . S
C2464 C2470 1.368 . S
C2465 C2449 1.349 . S
C2465 H2457 0.950 . S
C2465 C2463 1.327 . S
C2466 C2454 1.349 . S
C2466 H2460 0.950 . S
C2466 C2467 1.327 . S
C2467 H2461 0.950 . S
C2467 C2466 1.327 . S
C2467 C2471 1.429 . S
C2468 C2451 1.574 . S
C2468 H2462 0.949 . S
C2468 C2472 1.368 . S
C2469 C2450 1.429 . S
C2469 C2463 1.429 . S
C2469 C2470 1.523 . S
C2470 C2451 1.368 . S
C2470 C2464 1.368 . S
C2470 C2469 1.523 . S
C2471 C2455 1.429 . S
C2471 C2467 1.429 . S
C2471 C2472 1.523 . S
C2472 C2456 1.368 . S
C2472 C2468 1.368 . S
C2472 C2471 1.523 . S
H2473 C2448 0.950 . S
H2474 C2450 0.950 . S
H2475 C2451 0.949 . S
H2476 C2453 0.950 . S
H2477 C2455 0.950 . S
C2478 C2479 1.349 . S
C2478 C2480 1.327 . S
C2478 H2503 0.950 . S
C2479 C2478 1.349 . S
C2479 C2495 1.349 . S
C2480 C2478 1.327 . S
C2480 C2499 1.429 . S
C2480 H2504 0.950 . S
C2481 C2498 1.574 . S
C2481 C2500 1.368 . S
C2481 H2505 0.949 . S
H2482 C2486 0.949 . S
C2483 C2484 1.349 . S
C2483 C2485 1.327 . S
C2483 H2506 0.950 . S
C2484 C2483 1.349 . S
C2484 C2496 1.349 . S
C2485 C2483 1.327 . S
C2485 C2501 1.429 . S
C2485 H2507 0.950 . S
C2486 H2482 0.949 . S
C2486 C2494 1.574 . S
C2486 C2502 1.368 . S
H2487 C2495 0.950 . S
H2488 C2493 0.950 . S
H2489 C2494 0.949 . S
H2490 C2496 0.950 . S
H2491 C2497 0.950 . S
H2492 C2498 0.949 . S
C2493 H2488 0.950 . S
C2493 C2495 1.327 . S
C2493 C2499 1.429 . S
C2494 C2486 1.574 . S
C2494 H2489 0.949 . S
C2494 C2500 1.368 . S
C2495 C2479 1.349 . S
C2495 H2487 0.950 . S
C2495 C2493 1.327 . S
C2496 C2484 1.349 . S
C2496 H2490 0.950 . S
C2496 C2497 1.327 . S
C2497 H2491 0.950 . S
C2497 C2496 1.327 . S
C2497 C2501 1.429 . S
C2498 C2481 1.574 . S
C2498 H2492 0.949 . S
C2498 C2502 1.368 . S
C2499 C2480 1.429 . S
C2499 C2493 1.429 . S
C2499 C2500 1.523 . S
C2500 C2481 1.368 . S
C2500 C2494 1.368 . S
C2500 C2499 1.523 . S
C2501 C2485 1.429 . S
C2501 C2497 1.429 . S
C2501 C2502 1.523 . S
C2502 C2486 1.368 . S
C2502 C2498 1.368 . S
C2502 C2501 1.523 . S
H2503 C2478 0.950 . S
H2504 C2480 0.950 . S
H2505 C2481 0.949 . S
H2506 C2483 0.950 . S
H2507 C2485 0.950 . S
C2508 C2509 1.349 . S
C2508 C2510 1.327 . S
C2508 H2533 0.950 . S
C2509 C2508 1.349 . S
C2509 C2525 1.349 . S
C2510 C2508 1.327 . S
C2510 C2529 1.429 . S
C2510 H2534 0.950 . S
C2511 C2528 1.574 . S
C2511 C2530 1.368 . S
C2511 H2535 0.949 . S
H2512 C2516 0.949 . S
C2513 C2514 1.349 . S
C2513 C2515 1.327 . S
C2513 H2536 0.950 . S
C2514 C2513 1.349 . S
C2514 C2526 1.349 . S
C2515 C2513 1.327 . S
C2515 C2531 1.429 . S
C2515 H2537 0.950 . S
C2516 H2512 0.949 . S
C2516 C2524 1.574 . S
C2516 C2532 1.368 . S
H2517 C2525 0.950 . S
H2518 C2523 0.950 . S
H2519 C2524 0.949 . S
H2520 C2526 0.950 . S
H2521 C2527 0.950 . S
H2522 C2528 0.949 . S
C2523 H2518 0.950 . S
C2523 C2525 1.327 . S
C2523 C2529 1.429 . S
C2524 C2516 1.574 . S
C2524 H2519 0.949 . S
C2524 C2530 1.368 . S
C2525 C2509 1.349 . S
C2525 H2517 0.950 . S
C2525 C2523 1.327 . S
C2526 C2514 1.349 . S
C2526 H2520 0.950 . S
C2526 C2527 1.327 . S
C2527 H2521 0.950 . S
C2527 C2526 1.327 . S
C2527 C2531 1.429 . S
C2528 C2511 1.574 . S
C2528 H2522 0.949 . S
C2528 C2532 1.368 . S
C2529 C2510 1.429 . S
C2529 C2523 1.429 . S
C2529 C2530 1.523 . S
C2530 C2511 1.368 . S
C2530 C2524 1.368 . S
C2530 C2529 1.523 . S
C2531 C2515 1.429 . S
C2531 C2527 1.429 . S
C2531 C2532 1.523 . S
C2532 C2516 1.368 . S
C2532 C2528 1.368 . S
C2532 C2531 1.523 . S
H2533 C2508 0.950 . S
H2534 C2510 0.950 . S
H2535 C2511 0.949 . S
H2536 C2513 0.950 . S
H2537 C2515 0.950 . S
C2538 C2539 1.349 . S
C2538 C2540 1.327 . S
C2538 H2563 0.950 . S
C2539 C2538 1.349 . S
C2539 C2555 1.349 . S
C2540 C2538 1.327 . S
C2540 C2559 1.429 . S
C2540 H2564 0.950 . S
C2541 C2558 1.574 . S
C2541 C2560 1.368 . S
C2541 H2565 0.949 . S
H2542 C2546 0.949 . S
C2543 C2544 1.349 . S
C2543 C2545 1.327 . S
C2543 H2566 0.950 . S
C2544 C2543 1.349 . S
C2544 C2556 1.349 . S
C2545 C2543 1.327 . S
C2545 C2561 1.429 . S
C2545 H2567 0.950 . S
C2546 H2542 0.949 . S
C2546 C2554 1.574 . S
C2546 C2562 1.368 . S
H2547 C2555 0.950 . S
H2548 C2553 0.950 . S
H2549 C2554 0.949 . S
H2550 C2556 0.950 . S
H2551 C2557 0.950 . S
H2552 C2558 0.949 . S
C2553 H2548 0.950 . S
C2553 C2555 1.327 . S
C2553 C2559 1.429 . S
C2554 C2546 1.574 . S
C2554 H2549 0.949 . S
C2554 C2560 1.368 . S
C2555 C2539 1.349 . S
C2555 H2547 0.950 . S
C2555 C2553 1.327 . S
C2556 C2544 1.349 . S
C2556 H2550 0.950 . S
C2556 C2557 1.327 . S
C2557 H2551 0.950 . S
C2557 C2556 1.327 . S
C2557 C2561 1.429 . S
C2558 C2541 1.574 . S
C2558 H2552 0.949 . S
C2558 C2562 1.368 . S
C2559 C2540 1.429 . S
C2559 C2553 1.429 . S
C2559 C2560 1.523 . S
C2560 C2541 1.368 . S
C2560 C2554 1.368 . S
C2560 C2559 1.523 . S
C2561 C2545 1.429 . S
C2561 C2557 1.429 . S
C2561 C2562 1.523 . S
C2562 C2546 1.368 . S
C2562 C2558 1.368 . S
C2562 C2561 1.523 . S
H2563 C2538 0.950 . S
H2564 C2540 0.950 . S
H2565 C2541 0.949 . S
H2566 C2543 0.950 . S
H2567 C2545 0.950 . S
C2568 C2569 1.349 . S
C2568 C2570 1.327 . S
C2568 H2593 0.950 . S
C2569 C2568 1.349 . S
C2569 C2585 1.349 . S
C2570 C2568 1.327 . S
C2570 C2589 1.429 . S
C2570 H2594 0.950 . S
C2571 C2588 1.574 . S
C2571 C2590 1.368 . S
C2571 H2595 0.949 . S
H2572 C2576 0.949 . S
C2573 C2574 1.349 . S
C2573 C2575 1.327 . S
C2573 H2596 0.950 . S
C2574 C2573 1.349 . S
C2574 C2586 1.349 . S
C2575 C2573 1.327 . S
C2575 C2591 1.429 . S
C2575 H2597 0.950 . S
C2576 H2572 0.949 . S
C2576 C2584 1.574 . S
C2576 C2592 1.368 . S
H2577 C2585 0.950 . S
H2578 C2583 0.950 . S
H2579 C2584 0.949 . S
H2580 C2586 0.950 . S
H2581 C2587 0.950 . S
H2582 C2588 0.949 . S
C2583 H2578 0.950 . S
C2583 C2585 1.327 . S
C2583 C2589 1.429 . S
C2584 C2576 1.574 . S
C2584 H2579 0.949 . S
C2584 C2590 1.368 . S
C2585 C2569 1.349 . S
C2585 H2577 0.950 . S
C2585 C2583 1.327 . S
C2586 C2574 1.349 . S
C2586 H2580 0.950 . S
C2586 C2587 1.327 . S
C2587 H2581 0.950 . S
C2587 C2586 1.327 . S
C2587 C2591 1.429 . S
C2588 C2571 1.574 . S
C2588 H2582 0.949 . S
C2588 C2592 1.368 . S
C2589 C2570 1.429 . S
C2589 C2583 1.429 . S
C2589 C2590 1.523 . S
C2590 C2571 1.368 . S
C2590 C2584 1.368 . S
C2590 C2589 1.523 . S
C2591 C2575 1.429 . S
C2591 C2587 1.429 . S
C2591 C2592 1.523 . S
C2592 C2576 1.368 . S
C2592 C2588 1.368 . S
C2592 C2591 1.523 . S
H2593 C2568 0.950 . S
H2594 C2570 0.950 . S
H2595 C2571 0.949 . S
H2596 C2573 0.950 . S
H2597 C2575 0.950 . S
C2598 C2599 1.349 . S
C2598 C2600 1.327 . S
C2598 H2623 0.950 . S
C2599 C2598 1.349 . S
C2599 C2615 1.349 . S
C2600 C2598 1.327 . S
C2600 C2619 1.429 . S
C2600 H2624 0.950 . S
C2601 C2618 1.574 . S
C2601 C2620 1.368 . S
C2601 H2625 0.949 . S
H2602 C2606 0.949 . S
C2603 C2604 1.349 . S
C2603 C2605 1.327 . S
C2603 H2626 0.950 . S
C2604 C2603 1.349 . S
C2604 C2616 1.349 . S
C2605 C2603 1.327 . S
C2605 C2621 1.429 . S
C2605 H2627 0.950 . S
C2606 H2602 0.949 . S
C2606 C2614 1.574 . S
C2606 C2622 1.368 . S
H2607 C2615 0.950 . S
H2608 C2613 0.950 . S
H2609 C2614 0.949 . S
H2610 C2616 0.950 . S
H2611 C2617 0.950 . S
H2612 C2618 0.949 . S
C2613 H2608 0.950 . S
C2613 C2615 1.327 . S
C2613 C2619 1.429 . S
C2614 C2606 1.574 . S
C2614 H2609 0.949 . S
C2614 C2620 1.368 . S
C2615 C2599 1.349 . S
C2615 H2607 0.950 . S
C2615 C2613 1.327 . S
C2616 C2604 1.349 . S
C2616 H2610 0.950 . S
C2616 C2617 1.327 . S
C2617 H2611 0.950 . S
C2617 C2616 1.327 . S
C2617 C2621 1.429 . S
C2618 C2601 1.574 . S
C2618 H2612 0.949 . S
C2618 C2622 1.368 . S
C2619 C2600 1.429 . S
C2619 C2613 1.429 . S
C2619 C2620 1.523 . S
C2620 C2601 1.368 . S
C2620 C2614 1.368 . S
C2620 C2619 1.523 . S
C2621 C2605 1.429 . S
C2621 C2617 1.429 . S
C2621 C2622 1.523 . S
C2622 C2606 1.368 . S
C2622 C2618 1.368 . S
C2622 C2621 1.523 . S
H2623 C2598 0.950 . S
H2624 C2600 0.950 . S
H2625 C2601 0.949 . S
H2626 C2603 0.950 . S
H2627 C2605 0.950 . S
C1009 C469 1.665 . S
C1014 C651 1.670 . S
C1039 C505 1.836 . S
C1044 C691 1.829 . S
C1069 C433 1.740 . S
C1074 C743 1.728 . S
C1099 C397 1.550 . S
C1104 C703 1.532 . S
C1134 C731 1.441 . S
C1129 C325 1.437 . S
C1159 C361 1.346 . S
C1164 C663 1.348 . S
C1194 C670 1.670 . S
C1189 C421 1.671 . S
C1224 C710 1.830 . S
C1219 C349 1.835 . S
C1249 C385 1.734 . S
C1254 C730 1.730 . S
C1279 C493 1.546 . S
C1284 C690 1.533 . S
C1309 C529 1.443 . S
C1314 C750 1.441 . S
C1344 C650 1.350 . S
C1339 C457 1.349 . S
C1374 C771 1.670 . S
C1369 C37 1.666 . S
C1399 C73 1.836 . S
C1404 C811 1.832 . S
C1429 C1 1.740 . S
C1434 C863 1.728 . S
C1459 C613 1.550 . S
C1464 C823 1.532 . S
C1489 C541 1.437 . S
C1494 C851 1.441 . S
C1519 C577 1.346 . S
C1524 C783 1.348 . S
C1549 C637 1.671 . S
C1554 C790 1.670 . S
C1579 C565 1.833 . S
C1584 C830 1.830 . S
C1614 C850 1.729 . S
C1609 C601 1.734 . S
C1639 C61 1.546 . S
C1644 C810 1.533 . S
C1674 C870 1.441 . S
C1669 C97 1.443 . S
C1699 C25 1.349 . S
C1704 C770 1.350 . S
C1734 C891 1.669 . S
C1729 C253 1.665 . S
C1759 C289 1.836 . S
C1764 C931 1.832 . S
C1794 C983 1.728 . S
C1789 C217 1.740 . S
C1824 C943 1.532 . S
C1819 C181 1.550 . S
C1854 C971 1.441 . S
C1849 C109 1.437 . S
C1879 C145 1.346 . S
C1884 C903 1.348 . S
C1909 C205 1.671 . S
C1914 C910 1.670 . S
C1939 C133 1.833 . S
C1944 C950 1.830 . S
C1974 C970 1.730 . S
C1969 C169 1.735 . S
C1999 C277 1.546 . S
C2004 C930 1.533 . S
C2029 C313 1.443 . S
C2034 C990 1.441 . S
C2059 C241 1.349 . S
C2064 C890 1.350 . S
C2089 C571 1.254 . S
C2094 C674 1.248 . S
C2124 C714 1.906 . S
C2119 C607 1.925 . S
C2149 C643 1.581 . S
C2154 C737 1.579 . S
C2179 C247 1.923 . S
C2184 C697 1.905 . S
C2209 C283 1.585 . S
C2214 C754 1.580 . S
C2244 C657 1.247 . S
C2239 C319 1.253 . S
C2269 C139 1.254 . S
C2274 C794 1.248 . S
C2299 C175 1.925 . S
C2304 C834 1.906 . S
C2329 C211 1.581 . S
C2334 C857 1.579 . S
C2359 C463 1.923 . S
C2364 C817 1.905 . S
C2394 C874 1.580 . S
C2389 C499 1.585 . S
C2419 C535 1.253 . S
C2424 C777 1.247 . S
C2449 C355 1.255 . S
C2454 C914 1.248 . S
C2479 C391 1.925 . S
C2484 C954 1.906 . S
C2514 C977 1.579 . S
C2509 C427 1.581 . S
C2539 C31 1.923 . S
C2544 C937 1.905 . S
C2569 C67 1.585 . S
C2574 C994 1.580 . S
C2599 C103 1.253 . S
C2604 C897 1.247 . S
