# Generated by pormake.
# Topology ana-f, (3,3)-cn, num edge types: 1
# Building blocks:
#     Node 0, Type 0, BuildingBlock: WUSLED_clean_sbu_0, # of connection points: 3
#     Node 1, Type 0, BuildingBlock: WUSLED_clean_sbu_0, # of connection points: 3
#     Node 2, Type 0, BuildingBlock: WUSLED_clean_sbu_0, # of connection points: 3
#     Node 3, Type 0, BuildingBlock: WUSLED_clean_sbu_0, # of connection points: 3
#     Node 4, Type 0, BuildingBlock: WUSLED_clean_sbu_0, # of connection points: 3
#     Node 5, Type 0, BuildingBlock: WUSLED_clean_sbu_0, # of connection points: 3
#     Node 6, Type 0, BuildingBlock: WUSLED_clean_sbu_0, # of connection points: 3
#     Node 7, Type 0, BuildingBlock: WUSLED_clean_sbu_0, # of connection points: 3
#     Node 8, Type 0, BuildingBlock: WUSLED_clean_sbu_0, # of connection points: 3
#     Node 9, Type 0, BuildingBlock: WUSLED_clean_sbu_0, # of connection points: 3
#     Node 10, Type 0, BuildingBlock: WUSLED_clean_sbu_0, # of connection points: 3
#     Node 11, Type 0, BuildingBlock: WUSLED_clean_sbu_0, # of connection points: 3
#     Node 12, Type 0, BuildingBlock: WUSLED_clean_sbu_0, # of connection points: 3
#     Node 13, Type 0, BuildingBlock: WUSLED_clean_sbu_0, # of connection points: 3
#     Node 14, Type 0, BuildingBlock: WUSLED_clean_sbu_0, # of connection points: 3
#     Node 15, Type 0, BuildingBlock: WUSLED_clean_sbu_0, # of connection points: 3
#     Node 16, Type 0, BuildingBlock: WUSLED_clean_sbu_0, # of connection points: 3
#     Node 17, Type 0, BuildingBlock: WUSLED_clean_sbu_0, # of connection points: 3
#     Node 18, Type 0, BuildingBlock: WUSLED_clean_sbu_0, # of connection points: 3
#     Node 19, Type 0, BuildingBlock: WUSLED_clean_sbu_0, # of connection points: 3
#     Node 20, Type 0, BuildingBlock: WUSLED_clean_sbu_0, # of connection points: 3
#     Node 21, Type 0, BuildingBlock: WUSLED_clean_sbu_0, # of connection points: 3
#     Node 22, Type 0, BuildingBlock: WUSLED_clean_sbu_0, # of connection points: 3
#     Node 23, Type 0, BuildingBlock: WUSLED_clean_sbu_0, # of connection points: 3
#     Node 24, Type 0, BuildingBlock: WUSLED_clean_sbu_0, # of connection points: 3
#     Node 25, Type 0, BuildingBlock: WUSLED_clean_sbu_0, # of connection points: 3
#     Node 26, Type 0, BuildingBlock: WUSLED_clean_sbu_0, # of connection points: 3
#     Node 27, Type 0, BuildingBlock: WUSLED_clean_sbu_0, # of connection points: 3
#     Node 28, Type 0, BuildingBlock: WUSLED_clean_sbu_0, # of connection points: 3
#     Node 29, Type 0, BuildingBlock: WUSLED_clean_sbu_0, # of connection points: 3
#     Node 30, Type 0, BuildingBlock: WUSLED_clean_sbu_0, # of connection points: 3
#     Node 31, Type 0, BuildingBlock: WUSLED_clean_sbu_0, # of connection points: 3
#     Node 32, Type 0, BuildingBlock: WUSLED_clean_sbu_0, # of connection points: 3
#     Node 33, Type 0, BuildingBlock: WUSLED_clean_sbu_0, # of connection points: 3
#     Node 34, Type 0, BuildingBlock: WUSLED_clean_sbu_0, # of connection points: 3
#     Node 35, Type 0, BuildingBlock: WUSLED_clean_sbu_0, # of connection points: 3
#     Node 36, Type 0, BuildingBlock: WUSLED_clean_sbu_0, # of connection points: 3
#     Node 37, Type 0, BuildingBlock: WUSLED_clean_sbu_0, # of connection points: 3
#     Node 38, Type 0, BuildingBlock: WUSLED_clean_sbu_0, # of connection points: 3
#     Node 39, Type 0, BuildingBlock: WUSLED_clean_sbu_0, # of connection points: 3
#     Node 40, Type 0, BuildingBlock: WUSLED_clean_sbu_0, # of connection points: 3
#     Node 41, Type 0, BuildingBlock: WUSLED_clean_sbu_0, # of connection points: 3
#     Node 42, Type 0, BuildingBlock: WUSLED_clean_sbu_0, # of connection points: 3
#     Node 43, Type 0, BuildingBlock: WUSLED_clean_sbu_0, # of connection points: 3
#     Node 44, Type 0, BuildingBlock: WUSLED_clean_sbu_0, # of connection points: 3
#     Node 45, Type 0, BuildingBlock: WUSLED_clean_sbu_0, # of connection points: 3
#     Node 46, Type 0, BuildingBlock: WUSLED_clean_sbu_0, # of connection points: 3
#     Node 47, Type 0, BuildingBlock: WUSLED_clean_sbu_0, # of connection points: 3
#     Node 48, Type 0, BuildingBlock: WUSLED_clean_sbu_0, # of connection points: 3
#     Node 49, Type 0, BuildingBlock: WUSLED_clean_sbu_0, # of connection points: 3
#     Node 50, Type 0, BuildingBlock: WUSLED_clean_sbu_0, # of connection points: 3
#     Node 51, Type 0, BuildingBlock: WUSLED_clean_sbu_0, # of connection points: 3
#     Node 52, Type 0, BuildingBlock: WUSLED_clean_sbu_0, # of connection points: 3
#     Node 53, Type 0, BuildingBlock: WUSLED_clean_sbu_0, # of connection points: 3
#     Node 54, Type 0, BuildingBlock: WUSLED_clean_sbu_0, # of connection points: 3
#     Node 55, Type 0, BuildingBlock: WUSLED_clean_sbu_0, # of connection points: 3
#     Node 56, Type 0, BuildingBlock: WUSLED_clean_sbu_0, # of connection points: 3
#     Node 57, Type 0, BuildingBlock: WUSLED_clean_sbu_0, # of connection points: 3
#     Node 58, Type 0, BuildingBlock: WUSLED_clean_sbu_0, # of connection points: 3
#     Node 59, Type 0, BuildingBlock: WUSLED_clean_sbu_0, # of connection points: 3
#     Node 60, Type 0, BuildingBlock: WUSLED_clean_sbu_0, # of connection points: 3
#     Node 61, Type 0, BuildingBlock: WUSLED_clean_sbu_0, # of connection points: 3
#     Node 62, Type 0, BuildingBlock: WUSLED_clean_sbu_0, # of connection points: 3
#     Node 63, Type 0, BuildingBlock: WUSLED_clean_sbu_0, # of connection points: 3
#     Node 64, Type 0, BuildingBlock: WUSLED_clean_sbu_0, # of connection points: 3
#     Node 65, Type 0, BuildingBlock: WUSLED_clean_sbu_0, # of connection points: 3
#     Node 66, Type 0, BuildingBlock: WUSLED_clean_sbu_0, # of connection points: 3
#     Node 67, Type 0, BuildingBlock: WUSLED_clean_sbu_0, # of connection points: 3
#     Node 68, Type 0, BuildingBlock: WUSLED_clean_sbu_0, # of connection points: 3
#     Node 69, Type 0, BuildingBlock: WUSLED_clean_sbu_0, # of connection points: 3
#     Node 70, Type 0, BuildingBlock: WUSLED_clean_sbu_0, # of connection points: 3
#     Node 71, Type 0, BuildingBlock: WUSLED_clean_sbu_0, # of connection points: 3
#     Node 72, Type 0, BuildingBlock: WUSLED_clean_sbu_0, # of connection points: 3
#     Node 73, Type 0, BuildingBlock: WUSLED_clean_sbu_0, # of connection points: 3
#     Node 74, Type 0, BuildingBlock: WUSLED_clean_sbu_0, # of connection points: 3
#     Node 75, Type 0, BuildingBlock: WUSLED_clean_sbu_0, # of connection points: 3
#     Node 76, Type 0, BuildingBlock: WUSLED_clean_sbu_0, # of connection points: 3
#     Node 77, Type 0, BuildingBlock: WUSLED_clean_sbu_0, # of connection points: 3
#     Node 78, Type 0, BuildingBlock: WUSLED_clean_sbu_0, # of connection points: 3
#     Node 79, Type 0, BuildingBlock: WUSLED_clean_sbu_0, # of connection points: 3
#     Node 80, Type 0, BuildingBlock: WUSLED_clean_sbu_0, # of connection points: 3
#     Node 81, Type 0, BuildingBlock: WUSLED_clean_sbu_0, # of connection points: 3
#     Node 82, Type 0, BuildingBlock: WUSLED_clean_sbu_0, # of connection points: 3
#     Node 83, Type 0, BuildingBlock: WUSLED_clean_sbu_0, # of connection points: 3
#     Node 84, Type 0, BuildingBlock: WUSLED_clean_sbu_0, # of connection points: 3
#     Node 85, Type 0, BuildingBlock: WUSLED_clean_sbu_0, # of connection points: 3
#     Node 86, Type 0, BuildingBlock: WUSLED_clean_sbu_0, # of connection points: 3
#     Node 87, Type 0, BuildingBlock: WUSLED_clean_sbu_0, # of connection points: 3
#     Node 88, Type 0, BuildingBlock: WUSLED_clean_sbu_0, # of connection points: 3
#     Node 89, Type 0, BuildingBlock: WUSLED_clean_sbu_0, # of connection points: 3
#     Node 90, Type 0, BuildingBlock: WUSLED_clean_sbu_0, # of connection points: 3
#     Node 91, Type 0, BuildingBlock: WUSLED_clean_sbu_0, # of connection points: 3
#     Node 92, Type 0, BuildingBlock: WUSLED_clean_sbu_0, # of connection points: 3
#     Node 93, Type 0, BuildingBlock: WUSLED_clean_sbu_0, # of connection points: 3
#     Node 94, Type 0, BuildingBlock: WUSLED_clean_sbu_0, # of connection points: 3
#     Node 95, Type 0, BuildingBlock: WUSLED_clean_sbu_0, # of connection points: 3
#     Node 96, Type 1, BuildingBlock: ESEHIV_clean_linker_0, # of connection points: 3
#     Node 97, Type 1, BuildingBlock: ESEHIV_clean_linker_0, # of connection points: 3
#     Node 98, Type 1, BuildingBlock: ESEHIV_clean_linker_0, # of connection points: 3
#     Node 99, Type 1, BuildingBlock: ESEHIV_clean_linker_0, # of connection points: 3
#     Node 100, Type 1, BuildingBlock: ESEHIV_clean_linker_0, # of connection points: 3
#     Node 101, Type 1, BuildingBlock: ESEHIV_clean_linker_0, # of connection points: 3
#     Node 102, Type 1, BuildingBlock: ESEHIV_clean_linker_0, # of connection points: 3
#     Node 103, Type 1, BuildingBlock: ESEHIV_clean_linker_0, # of connection points: 3
#     Node 104, Type 1, BuildingBlock: ESEHIV_clean_linker_0, # of connection points: 3
#     Node 105, Type 1, BuildingBlock: ESEHIV_clean_linker_0, # of connection points: 3
#     Node 106, Type 1, BuildingBlock: ESEHIV_clean_linker_0, # of connection points: 3
#     Node 107, Type 1, BuildingBlock: ESEHIV_clean_linker_0, # of connection points: 3
#     Node 108, Type 1, BuildingBlock: ESEHIV_clean_linker_0, # of connection points: 3
#     Node 109, Type 1, BuildingBlock: ESEHIV_clean_linker_0, # of connection points: 3
#     Node 110, Type 1, BuildingBlock: ESEHIV_clean_linker_0, # of connection points: 3
#     Node 111, Type 1, BuildingBlock: ESEHIV_clean_linker_0, # of connection points: 3
#     Node 112, Type 1, BuildingBlock: ESEHIV_clean_linker_0, # of connection points: 3
#     Node 113, Type 1, BuildingBlock: ESEHIV_clean_linker_0, # of connection points: 3
#     Node 114, Type 1, BuildingBlock: ESEHIV_clean_linker_0, # of connection points: 3
#     Node 115, Type 1, BuildingBlock: ESEHIV_clean_linker_0, # of connection points: 3
#     Node 116, Type 1, BuildingBlock: ESEHIV_clean_linker_0, # of connection points: 3
#     Node 117, Type 1, BuildingBlock: ESEHIV_clean_linker_0, # of connection points: 3
#     Node 118, Type 1, BuildingBlock: ESEHIV_clean_linker_0, # of connection points: 3
#     Node 119, Type 1, BuildingBlock: ESEHIV_clean_linker_0, # of connection points: 3
#     Node 120, Type 1, BuildingBlock: ESEHIV_clean_linker_0, # of connection points: 3
#     Node 121, Type 1, BuildingBlock: ESEHIV_clean_linker_0, # of connection points: 3
#     Node 122, Type 1, BuildingBlock: ESEHIV_clean_linker_0, # of connection points: 3
#     Node 123, Type 1, BuildingBlock: ESEHIV_clean_linker_0, # of connection points: 3
#     Node 124, Type 1, BuildingBlock: ESEHIV_clean_linker_0, # of connection points: 3
#     Node 125, Type 1, BuildingBlock: ESEHIV_clean_linker_0, # of connection points: 3
#     Node 126, Type 1, BuildingBlock: ESEHIV_clean_linker_0, # of connection points: 3
#     Node 127, Type 1, BuildingBlock: ESEHIV_clean_linker_0, # of connection points: 3
#     Node 128, Type 1, BuildingBlock: ESEHIV_clean_linker_0, # of connection points: 3
#     Node 129, Type 1, BuildingBlock: ESEHIV_clean_linker_0, # of connection points: 3
#     Node 130, Type 1, BuildingBlock: ESEHIV_clean_linker_0, # of connection points: 3
#     Node 131, Type 1, BuildingBlock: ESEHIV_clean_linker_0, # of connection points: 3
#     Node 132, Type 1, BuildingBlock: ESEHIV_clean_linker_0, # of connection points: 3
#     Node 133, Type 1, BuildingBlock: ESEHIV_clean_linker_0, # of connection points: 3
#     Node 134, Type 1, BuildingBlock: ESEHIV_clean_linker_0, # of connection points: 3
#     Node 135, Type 1, BuildingBlock: ESEHIV_clean_linker_0, # of connection points: 3
#     Node 136, Type 1, BuildingBlock: ESEHIV_clean_linker_0, # of connection points: 3
#     Node 137, Type 1, BuildingBlock: ESEHIV_clean_linker_0, # of connection points: 3
#     Node 138, Type 1, BuildingBlock: ESEHIV_clean_linker_0, # of connection points: 3
#     Node 139, Type 1, BuildingBlock: ESEHIV_clean_linker_0, # of connection points: 3
#     Node 140, Type 1, BuildingBlock: ESEHIV_clean_linker_0, # of connection points: 3
#     Node 141, Type 1, BuildingBlock: ESEHIV_clean_linker_0, # of connection points: 3
#     Node 142, Type 1, BuildingBlock: ESEHIV_clean_linker_0, # of connection points: 3
#     Node 143, Type 1, BuildingBlock: ESEHIV_clean_linker_0, # of connection points: 3
#     Node 144, Type 1, BuildingBlock: ESEHIV_clean_linker_0, # of connection points: 3
#     Node 145, Type 1, BuildingBlock: ESEHIV_clean_linker_0, # of connection points: 3
#     Node 146, Type 1, BuildingBlock: ESEHIV_clean_linker_0, # of connection points: 3
#     Node 147, Type 1, BuildingBlock: ESEHIV_clean_linker_0, # of connection points: 3
#     Node 148, Type 1, BuildingBlock: ESEHIV_clean_linker_0, # of connection points: 3
#     Node 149, Type 1, BuildingBlock: ESEHIV_clean_linker_0, # of connection points: 3
#     Node 150, Type 1, BuildingBlock: ESEHIV_clean_linker_0, # of connection points: 3
#     Node 151, Type 1, BuildingBlock: ESEHIV_clean_linker_0, # of connection points: 3
#     Node 152, Type 1, BuildingBlock: ESEHIV_clean_linker_0, # of connection points: 3
#     Node 153, Type 1, BuildingBlock: ESEHIV_clean_linker_0, # of connection points: 3
#     Node 154, Type 1, BuildingBlock: ESEHIV_clean_linker_0, # of connection points: 3
#     Node 155, Type 1, BuildingBlock: ESEHIV_clean_linker_0, # of connection points: 3
#     Node 156, Type 1, BuildingBlock: ESEHIV_clean_linker_0, # of connection points: 3
#     Node 157, Type 1, BuildingBlock: ESEHIV_clean_linker_0, # of connection points: 3
#     Node 158, Type 1, BuildingBlock: ESEHIV_clean_linker_0, # of connection points: 3
#     Node 159, Type 1, BuildingBlock: ESEHIV_clean_linker_0, # of connection points: 3
#     Node 160, Type 1, BuildingBlock: ESEHIV_clean_linker_0, # of connection points: 3
#     Node 161, Type 1, BuildingBlock: ESEHIV_clean_linker_0, # of connection points: 3
#     Node 162, Type 1, BuildingBlock: ESEHIV_clean_linker_0, # of connection points: 3
#     Node 163, Type 1, BuildingBlock: ESEHIV_clean_linker_0, # of connection points: 3
#     Node 164, Type 1, BuildingBlock: ESEHIV_clean_linker_0, # of connection points: 3
#     Node 165, Type 1, BuildingBlock: ESEHIV_clean_linker_0, # of connection points: 3
#     Node 166, Type 1, BuildingBlock: ESEHIV_clean_linker_0, # of connection points: 3
#     Node 167, Type 1, BuildingBlock: ESEHIV_clean_linker_0, # of connection points: 3
#     Node 168, Type 1, BuildingBlock: ESEHIV_clean_linker_0, # of connection points: 3
#     Node 169, Type 1, BuildingBlock: ESEHIV_clean_linker_0, # of connection points: 3
#     Node 170, Type 1, BuildingBlock: ESEHIV_clean_linker_0, # of connection points: 3
#     Node 171, Type 1, BuildingBlock: ESEHIV_clean_linker_0, # of connection points: 3
#     Node 172, Type 1, BuildingBlock: ESEHIV_clean_linker_0, # of connection points: 3
#     Node 173, Type 1, BuildingBlock: ESEHIV_clean_linker_0, # of connection points: 3
#     Node 174, Type 1, BuildingBlock: ESEHIV_clean_linker_0, # of connection points: 3
#     Node 175, Type 1, BuildingBlock: ESEHIV_clean_linker_0, # of connection points: 3
#     Node 176, Type 1, BuildingBlock: ESEHIV_clean_linker_0, # of connection points: 3
#     Node 177, Type 1, BuildingBlock: ESEHIV_clean_linker_0, # of connection points: 3
#     Node 178, Type 1, BuildingBlock: ESEHIV_clean_linker_0, # of connection points: 3
#     Node 179, Type 1, BuildingBlock: ESEHIV_clean_linker_0, # of connection points: 3
#     Node 180, Type 1, BuildingBlock: ESEHIV_clean_linker_0, # of connection points: 3
#     Node 181, Type 1, BuildingBlock: ESEHIV_clean_linker_0, # of connection points: 3
#     Node 182, Type 1, BuildingBlock: ESEHIV_clean_linker_0, # of connection points: 3
#     Node 183, Type 1, BuildingBlock: ESEHIV_clean_linker_0, # of connection points: 3
#     Node 184, Type 1, BuildingBlock: ESEHIV_clean_linker_0, # of connection points: 3
#     Node 185, Type 1, BuildingBlock: ESEHIV_clean_linker_0, # of connection points: 3
#     Node 186, Type 1, BuildingBlock: ESEHIV_clean_linker_0, # of connection points: 3
#     Node 187, Type 1, BuildingBlock: ESEHIV_clean_linker_0, # of connection points: 3
#     Node 188, Type 1, BuildingBlock: ESEHIV_clean_linker_0, # of connection points: 3
#     Node 189, Type 1, BuildingBlock: ESEHIV_clean_linker_0, # of connection points: 3
#     Node 190, Type 1, BuildingBlock: ESEHIV_clean_linker_0, # of connection points: 3
#     Node 191, Type 1, BuildingBlock: ESEHIV_clean_linker_0, # of connection points: 3
#     Edge 192, Type (0, 1), BuildingBlock: AJUNOK_clean_linker_0, # of connection points: 2
#     Edge 193, Type (0, 1), BuildingBlock: AJUNOK_clean_linker_0, # of connection points: 2
#     Edge 194, Type (0, 1), BuildingBlock: AJUNOK_clean_linker_0, # of connection points: 2
#     Edge 195, Type (0, 1), BuildingBlock: AJUNOK_clean_linker_0, # of connection points: 2
#     Edge 196, Type (0, 1), BuildingBlock: AJUNOK_clean_linker_0, # of connection points: 2
#     Edge 197, Type (0, 1), BuildingBlock: AJUNOK_clean_linker_0, # of connection points: 2
#     Edge 198, Type (0, 1), BuildingBlock: AJUNOK_clean_linker_0, # of connection points: 2
#     Edge 199, Type (0, 1), BuildingBlock: AJUNOK_clean_linker_0, # of connection points: 2
#     Edge 200, Type (0, 1), BuildingBlock: AJUNOK_clean_linker_0, # of connection points: 2
#     Edge 201, Type (0, 1), BuildingBlock: AJUNOK_clean_linker_0, # of connection points: 2
#     Edge 202, Type (0, 1), BuildingBlock: AJUNOK_clean_linker_0, # of connection points: 2
#     Edge 203, Type (0, 1), BuildingBlock: AJUNOK_clean_linker_0, # of connection points: 2
#     Edge 204, Type (0, 1), BuildingBlock: AJUNOK_clean_linker_0, # of connection points: 2
#     Edge 205, Type (0, 1), BuildingBlock: AJUNOK_clean_linker_0, # of connection points: 2
#     Edge 206, Type (0, 1), BuildingBlock: AJUNOK_clean_linker_0, # of connection points: 2
#     Edge 207, Type (0, 1), BuildingBlock: AJUNOK_clean_linker_0, # of connection points: 2
#     Edge 208, Type (0, 1), BuildingBlock: AJUNOK_clean_linker_0, # of connection points: 2
#     Edge 209, Type (0, 1), BuildingBlock: AJUNOK_clean_linker_0, # of connection points: 2
#     Edge 210, Type (0, 1), BuildingBlock: AJUNOK_clean_linker_0, # of connection points: 2
#     Edge 211, Type (0, 1), BuildingBlock: AJUNOK_clean_linker_0, # of connection points: 2
#     Edge 212, Type (0, 1), BuildingBlock: AJUNOK_clean_linker_0, # of connection points: 2
#     Edge 213, Type (0, 1), BuildingBlock: AJUNOK_clean_linker_0, # of connection points: 2
#     Edge 214, Type (0, 1), BuildingBlock: AJUNOK_clean_linker_0, # of connection points: 2
#     Edge 215, Type (0, 1), BuildingBlock: AJUNOK_clean_linker_0, # of connection points: 2
#     Edge 216, Type (0, 1), BuildingBlock: AJUNOK_clean_linker_0, # of connection points: 2
#     Edge 217, Type (0, 1), BuildingBlock: AJUNOK_clean_linker_0, # of connection points: 2
#     Edge 218, Type (0, 1), BuildingBlock: AJUNOK_clean_linker_0, # of connection points: 2
#     Edge 219, Type (0, 1), BuildingBlock: AJUNOK_clean_linker_0, # of connection points: 2
#     Edge 220, Type (0, 1), BuildingBlock: AJUNOK_clean_linker_0, # of connection points: 2
#     Edge 221, Type (0, 1), BuildingBlock: AJUNOK_clean_linker_0, # of connection points: 2
#     Edge 222, Type (0, 1), BuildingBlock: AJUNOK_clean_linker_0, # of connection points: 2
#     Edge 223, Type (0, 1), BuildingBlock: AJUNOK_clean_linker_0, # of connection points: 2
#     Edge 224, Type (0, 1), BuildingBlock: AJUNOK_clean_linker_0, # of connection points: 2
#     Edge 225, Type (0, 1), BuildingBlock: AJUNOK_clean_linker_0, # of connection points: 2
#     Edge 226, Type (0, 1), BuildingBlock: AJUNOK_clean_linker_0, # of connection points: 2
#     Edge 227, Type (0, 1), BuildingBlock: AJUNOK_clean_linker_0, # of connection points: 2
#     Edge 228, Type (0, 1), BuildingBlock: AJUNOK_clean_linker_0, # of connection points: 2
#     Edge 229, Type (0, 1), BuildingBlock: AJUNOK_clean_linker_0, # of connection points: 2
#     Edge 230, Type (0, 1), BuildingBlock: AJUNOK_clean_linker_0, # of connection points: 2
#     Edge 231, Type (0, 1), BuildingBlock: AJUNOK_clean_linker_0, # of connection points: 2
#     Edge 232, Type (0, 1), BuildingBlock: AJUNOK_clean_linker_0, # of connection points: 2
#     Edge 233, Type (0, 1), BuildingBlock: AJUNOK_clean_linker_0, # of connection points: 2
#     Edge 234, Type (0, 1), BuildingBlock: AJUNOK_clean_linker_0, # of connection points: 2
#     Edge 235, Type (0, 1), BuildingBlock: AJUNOK_clean_linker_0, # of connection points: 2
#     Edge 236, Type (0, 1), BuildingBlock: AJUNOK_clean_linker_0, # of connection points: 2
#     Edge 237, Type (0, 1), BuildingBlock: AJUNOK_clean_linker_0, # of connection points: 2
#     Edge 238, Type (0, 1), BuildingBlock: AJUNOK_clean_linker_0, # of connection points: 2
#     Edge 239, Type (0, 1), BuildingBlock: AJUNOK_clean_linker_0, # of connection points: 2
#     Edge 240, Type (0, 1), BuildingBlock: AJUNOK_clean_linker_0, # of connection points: 2
#     Edge 241, Type (0, 1), BuildingBlock: AJUNOK_clean_linker_0, # of connection points: 2
#     Edge 242, Type (0, 1), BuildingBlock: AJUNOK_clean_linker_0, # of connection points: 2
#     Edge 243, Type (0, 1), BuildingBlock: AJUNOK_clean_linker_0, # of connection points: 2
#     Edge 244, Type (0, 1), BuildingBlock: AJUNOK_clean_linker_0, # of connection points: 2
#     Edge 245, Type (0, 1), BuildingBlock: AJUNOK_clean_linker_0, # of connection points: 2
#     Edge 246, Type (0, 1), BuildingBlock: AJUNOK_clean_linker_0, # of connection points: 2
#     Edge 247, Type (0, 1), BuildingBlock: AJUNOK_clean_linker_0, # of connection points: 2
#     Edge 248, Type (0, 1), BuildingBlock: AJUNOK_clean_linker_0, # of connection points: 2
#     Edge 249, Type (0, 1), BuildingBlock: AJUNOK_clean_linker_0, # of connection points: 2
#     Edge 250, Type (0, 1), BuildingBlock: AJUNOK_clean_linker_0, # of connection points: 2
#     Edge 251, Type (0, 1), BuildingBlock: AJUNOK_clean_linker_0, # of connection points: 2
#     Edge 252, Type (0, 1), BuildingBlock: AJUNOK_clean_linker_0, # of connection points: 2
#     Edge 253, Type (0, 1), BuildingBlock: AJUNOK_clean_linker_0, # of connection points: 2
#     Edge 254, Type (0, 1), BuildingBlock: AJUNOK_clean_linker_0, # of connection points: 2
#     Edge 255, Type (0, 1), BuildingBlock: AJUNOK_clean_linker_0, # of connection points: 2
#     Edge 256, Type (0, 1), BuildingBlock: AJUNOK_clean_linker_0, # of connection points: 2
#     Edge 257, Type (0, 1), BuildingBlock: AJUNOK_clean_linker_0, # of connection points: 2
#     Edge 258, Type (0, 1), BuildingBlock: AJUNOK_clean_linker_0, # of connection points: 2
#     Edge 259, Type (0, 1), BuildingBlock: AJUNOK_clean_linker_0, # of connection points: 2
#     Edge 260, Type (0, 1), BuildingBlock: AJUNOK_clean_linker_0, # of connection points: 2
#     Edge 261, Type (0, 1), BuildingBlock: AJUNOK_clean_linker_0, # of connection points: 2
#     Edge 262, Type (0, 1), BuildingBlock: AJUNOK_clean_linker_0, # of connection points: 2
#     Edge 263, Type (0, 1), BuildingBlock: AJUNOK_clean_linker_0, # of connection points: 2
#     Edge 264, Type (0, 1), BuildingBlock: AJUNOK_clean_linker_0, # of connection points: 2
#     Edge 265, Type (0, 1), BuildingBlock: AJUNOK_clean_linker_0, # of connection points: 2
#     Edge 266, Type (0, 1), BuildingBlock: AJUNOK_clean_linker_0, # of connection points: 2
#     Edge 267, Type (0, 1), BuildingBlock: AJUNOK_clean_linker_0, # of connection points: 2
#     Edge 268, Type (0, 1), BuildingBlock: AJUNOK_clean_linker_0, # of connection points: 2
#     Edge 269, Type (0, 1), BuildingBlock: AJUNOK_clean_linker_0, # of connection points: 2
#     Edge 270, Type (0, 1), BuildingBlock: AJUNOK_clean_linker_0, # of connection points: 2
#     Edge 271, Type (0, 1), BuildingBlock: AJUNOK_clean_linker_0, # of connection points: 2
#     Edge 272, Type (0, 1), BuildingBlock: AJUNOK_clean_linker_0, # of connection points: 2
#     Edge 273, Type (0, 1), BuildingBlock: AJUNOK_clean_linker_0, # of connection points: 2
#     Edge 274, Type (0, 1), BuildingBlock: AJUNOK_clean_linker_0, # of connection points: 2
#     Edge 275, Type (0, 1), BuildingBlock: AJUNOK_clean_linker_0, # of connection points: 2
#     Edge 276, Type (0, 1), BuildingBlock: AJUNOK_clean_linker_0, # of connection points: 2
#     Edge 277, Type (0, 1), BuildingBlock: AJUNOK_clean_linker_0, # of connection points: 2
#     Edge 278, Type (0, 1), BuildingBlock: AJUNOK_clean_linker_0, # of connection points: 2
#     Edge 279, Type (0, 1), BuildingBlock: AJUNOK_clean_linker_0, # of connection points: 2
#     Edge 280, Type (0, 1), BuildingBlock: AJUNOK_clean_linker_0, # of connection points: 2
#     Edge 281, Type (0, 1), BuildingBlock: AJUNOK_clean_linker_0, # of connection points: 2
#     Edge 282, Type (0, 1), BuildingBlock: AJUNOK_clean_linker_0, # of connection points: 2
#     Edge 283, Type (0, 1), BuildingBlock: AJUNOK_clean_linker_0, # of connection points: 2
#     Edge 284, Type (0, 1), BuildingBlock: AJUNOK_clean_linker_0, # of connection points: 2
#     Edge 285, Type (0, 1), BuildingBlock: AJUNOK_clean_linker_0, # of connection points: 2
#     Edge 286, Type (0, 1), BuildingBlock: AJUNOK_clean_linker_0, # of connection points: 2
#     Edge 287, Type (0, 1), BuildingBlock: AJUNOK_clean_linker_0, # of connection points: 2
#     Edge 288, Type (0, 1), BuildingBlock: AJUNOK_clean_linker_0, # of connection points: 2
#     Edge 289, Type (0, 1), BuildingBlock: AJUNOK_clean_linker_0, # of connection points: 2
#     Edge 290, Type (0, 1), BuildingBlock: AJUNOK_clean_linker_0, # of connection points: 2
#     Edge 291, Type (0, 1), BuildingBlock: AJUNOK_clean_linker_0, # of connection points: 2
#     Edge 292, Type (0, 1), BuildingBlock: AJUNOK_clean_linker_0, # of connection points: 2
#     Edge 293, Type (0, 1), BuildingBlock: AJUNOK_clean_linker_0, # of connection points: 2
#     Edge 294, Type (0, 1), BuildingBlock: AJUNOK_clean_linker_0, # of connection points: 2
#     Edge 295, Type (0, 1), BuildingBlock: AJUNOK_clean_linker_0, # of connection points: 2
#     Edge 296, Type (0, 1), BuildingBlock: AJUNOK_clean_linker_0, # of connection points: 2
#     Edge 297, Type (0, 1), BuildingBlock: AJUNOK_clean_linker_0, # of connection points: 2
#     Edge 298, Type (0, 1), BuildingBlock: AJUNOK_clean_linker_0, # of connection points: 2
#     Edge 299, Type (0, 1), BuildingBlock: AJUNOK_clean_linker_0, # of connection points: 2
#     Edge 300, Type (0, 1), BuildingBlock: AJUNOK_clean_linker_0, # of connection points: 2
#     Edge 301, Type (0, 1), BuildingBlock: AJUNOK_clean_linker_0, # of connection points: 2
#     Edge 302, Type (0, 1), BuildingBlock: AJUNOK_clean_linker_0, # of connection points: 2
#     Edge 303, Type (0, 1), BuildingBlock: AJUNOK_clean_linker_0, # of connection points: 2
#     Edge 304, Type (0, 1), BuildingBlock: AJUNOK_clean_linker_0, # of connection points: 2
#     Edge 305, Type (0, 1), BuildingBlock: AJUNOK_clean_linker_0, # of connection points: 2
#     Edge 306, Type (0, 1), BuildingBlock: AJUNOK_clean_linker_0, # of connection points: 2
#     Edge 307, Type (0, 1), BuildingBlock: AJUNOK_clean_linker_0, # of connection points: 2
#     Edge 308, Type (0, 1), BuildingBlock: AJUNOK_clean_linker_0, # of connection points: 2
#     Edge 309, Type (0, 1), BuildingBlock: AJUNOK_clean_linker_0, # of connection points: 2
#     Edge 310, Type (0, 1), BuildingBlock: AJUNOK_clean_linker_0, # of connection points: 2
#     Edge 311, Type (0, 1), BuildingBlock: AJUNOK_clean_linker_0, # of connection points: 2
#     Edge 312, Type (0, 1), BuildingBlock: AJUNOK_clean_linker_0, # of connection points: 2
#     Edge 313, Type (0, 1), BuildingBlock: AJUNOK_clean_linker_0, # of connection points: 2
#     Edge 314, Type (0, 1), BuildingBlock: AJUNOK_clean_linker_0, # of connection points: 2
#     Edge 315, Type (0, 1), BuildingBlock: AJUNOK_clean_linker_0, # of connection points: 2
#     Edge 316, Type (0, 1), BuildingBlock: AJUNOK_clean_linker_0, # of connection points: 2
#     Edge 317, Type (0, 1), BuildingBlock: AJUNOK_clean_linker_0, # of connection points: 2
#     Edge 318, Type (0, 1), BuildingBlock: AJUNOK_clean_linker_0, # of connection points: 2
#     Edge 319, Type (0, 1), BuildingBlock: AJUNOK_clean_linker_0, # of connection points: 2
#     Edge 320, Type (0, 1), BuildingBlock: AJUNOK_clean_linker_0, # of connection points: 2
#     Edge 321, Type (0, 1), BuildingBlock: AJUNOK_clean_linker_0, # of connection points: 2
#     Edge 322, Type (0, 1), BuildingBlock: AJUNOK_clean_linker_0, # of connection points: 2
#     Edge 323, Type (0, 1), BuildingBlock: AJUNOK_clean_linker_0, # of connection points: 2
#     Edge 324, Type (0, 1), BuildingBlock: AJUNOK_clean_linker_0, # of connection points: 2
#     Edge 325, Type (0, 1), BuildingBlock: AJUNOK_clean_linker_0, # of connection points: 2
#     Edge 326, Type (0, 1), BuildingBlock: AJUNOK_clean_linker_0, # of connection points: 2
#     Edge 327, Type (0, 1), BuildingBlock: AJUNOK_clean_linker_0, # of connection points: 2
#     Edge 328, Type (0, 1), BuildingBlock: AJUNOK_clean_linker_0, # of connection points: 2
#     Edge 329, Type (0, 1), BuildingBlock: AJUNOK_clean_linker_0, # of connection points: 2
#     Edge 330, Type (0, 1), BuildingBlock: AJUNOK_clean_linker_0, # of connection points: 2
#     Edge 331, Type (0, 1), BuildingBlock: AJUNOK_clean_linker_0, # of connection points: 2
#     Edge 332, Type (0, 1), BuildingBlock: AJUNOK_clean_linker_0, # of connection points: 2
#     Edge 333, Type (0, 1), BuildingBlock: AJUNOK_clean_linker_0, # of connection points: 2
#     Edge 334, Type (0, 1), BuildingBlock: AJUNOK_clean_linker_0, # of connection points: 2
#     Edge 335, Type (0, 1), BuildingBlock: AJUNOK_clean_linker_0, # of connection points: 2
#     Edge 336, Type (0, 1), BuildingBlock: AJUNOK_clean_linker_0, # of connection points: 2
#     Edge 337, Type (0, 1), BuildingBlock: AJUNOK_clean_linker_0, # of connection points: 2
#     Edge 338, Type (0, 1), BuildingBlock: AJUNOK_clean_linker_0, # of connection points: 2
#     Edge 339, Type (0, 1), BuildingBlock: AJUNOK_clean_linker_0, # of connection points: 2
#     Edge 340, Type (0, 1), BuildingBlock: AJUNOK_clean_linker_0, # of connection points: 2
#     Edge 341, Type (0, 1), BuildingBlock: AJUNOK_clean_linker_0, # of connection points: 2
#     Edge 342, Type (0, 1), BuildingBlock: AJUNOK_clean_linker_0, # of connection points: 2
#     Edge 343, Type (0, 1), BuildingBlock: AJUNOK_clean_linker_0, # of connection points: 2
#     Edge 344, Type (0, 1), BuildingBlock: AJUNOK_clean_linker_0, # of connection points: 2
#     Edge 345, Type (0, 1), BuildingBlock: AJUNOK_clean_linker_0, # of connection points: 2
#     Edge 346, Type (0, 1), BuildingBlock: AJUNOK_clean_linker_0, # of connection points: 2
#     Edge 347, Type (0, 1), BuildingBlock: AJUNOK_clean_linker_0, # of connection points: 2
#     Edge 348, Type (0, 1), BuildingBlock: AJUNOK_clean_linker_0, # of connection points: 2
#     Edge 349, Type (0, 1), BuildingBlock: AJUNOK_clean_linker_0, # of connection points: 2
#     Edge 350, Type (0, 1), BuildingBlock: AJUNOK_clean_linker_0, # of connection points: 2
#     Edge 351, Type (0, 1), BuildingBlock: AJUNOK_clean_linker_0, # of connection points: 2
#     Edge 352, Type (0, 1), BuildingBlock: AJUNOK_clean_linker_0, # of connection points: 2
#     Edge 353, Type (0, 1), BuildingBlock: AJUNOK_clean_linker_0, # of connection points: 2
#     Edge 354, Type (0, 1), BuildingBlock: AJUNOK_clean_linker_0, # of connection points: 2
#     Edge 355, Type (0, 1), BuildingBlock: AJUNOK_clean_linker_0, # of connection points: 2
#     Edge 356, Type (0, 1), BuildingBlock: AJUNOK_clean_linker_0, # of connection points: 2
#     Edge 357, Type (0, 1), BuildingBlock: AJUNOK_clean_linker_0, # of connection points: 2
#     Edge 358, Type (0, 1), BuildingBlock: AJUNOK_clean_linker_0, # of connection points: 2
#     Edge 359, Type (0, 1), BuildingBlock: AJUNOK_clean_linker_0, # of connection points: 2
#     Edge 360, Type (0, 1), BuildingBlock: AJUNOK_clean_linker_0, # of connection points: 2
#     Edge 361, Type (0, 1), BuildingBlock: AJUNOK_clean_linker_0, # of connection points: 2
#     Edge 362, Type (0, 1), BuildingBlock: AJUNOK_clean_linker_0, # of connection points: 2
#     Edge 363, Type (0, 1), BuildingBlock: AJUNOK_clean_linker_0, # of connection points: 2
#     Edge 364, Type (0, 1), BuildingBlock: AJUNOK_clean_linker_0, # of connection points: 2
#     Edge 365, Type (0, 1), BuildingBlock: AJUNOK_clean_linker_0, # of connection points: 2
#     Edge 366, Type (0, 1), BuildingBlock: AJUNOK_clean_linker_0, # of connection points: 2
#     Edge 367, Type (0, 1), BuildingBlock: AJUNOK_clean_linker_0, # of connection points: 2
#     Edge 368, Type (0, 1), BuildingBlock: AJUNOK_clean_linker_0, # of connection points: 2
#     Edge 369, Type (0, 1), BuildingBlock: AJUNOK_clean_linker_0, # of connection points: 2
#     Edge 370, Type (0, 1), BuildingBlock: AJUNOK_clean_linker_0, # of connection points: 2
#     Edge 371, Type (0, 1), BuildingBlock: AJUNOK_clean_linker_0, # of connection points: 2
#     Edge 372, Type (0, 1), BuildingBlock: AJUNOK_clean_linker_0, # of connection points: 2
#     Edge 373, Type (0, 1), BuildingBlock: AJUNOK_clean_linker_0, # of connection points: 2
#     Edge 374, Type (0, 1), BuildingBlock: AJUNOK_clean_linker_0, # of connection points: 2
#     Edge 375, Type (0, 1), BuildingBlock: AJUNOK_clean_linker_0, # of connection points: 2
#     Edge 376, Type (0, 1), BuildingBlock: AJUNOK_clean_linker_0, # of connection points: 2
#     Edge 377, Type (0, 1), BuildingBlock: AJUNOK_clean_linker_0, # of connection points: 2
#     Edge 378, Type (0, 1), BuildingBlock: AJUNOK_clean_linker_0, # of connection points: 2
#     Edge 379, Type (0, 1), BuildingBlock: AJUNOK_clean_linker_0, # of connection points: 2
#     Edge 380, Type (0, 1), BuildingBlock: AJUNOK_clean_linker_0, # of connection points: 2
#     Edge 381, Type (0, 1), BuildingBlock: AJUNOK_clean_linker_0, # of connection points: 2
#     Edge 382, Type (0, 1), BuildingBlock: AJUNOK_clean_linker_0, # of connection points: 2
#     Edge 383, Type (0, 1), BuildingBlock: AJUNOK_clean_linker_0, # of connection points: 2
#     Edge 384, Type (0, 1), BuildingBlock: AJUNOK_clean_linker_0, # of connection points: 2
#     Edge 385, Type (0, 1), BuildingBlock: AJUNOK_clean_linker_0, # of connection points: 2
#     Edge 386, Type (0, 1), BuildingBlock: AJUNOK_clean_linker_0, # of connection points: 2
#     Edge 387, Type (0, 1), BuildingBlock: AJUNOK_clean_linker_0, # of connection points: 2
#     Edge 388, Type (0, 1), BuildingBlock: AJUNOK_clean_linker_0, # of connection points: 2
#     Edge 389, Type (0, 1), BuildingBlock: AJUNOK_clean_linker_0, # of connection points: 2
#     Edge 390, Type (0, 1), BuildingBlock: AJUNOK_clean_linker_0, # of connection points: 2
#     Edge 391, Type (0, 1), BuildingBlock: AJUNOK_clean_linker_0, # of connection points: 2
#     Edge 392, Type (0, 1), BuildingBlock: AJUNOK_clean_linker_0, # of connection points: 2
#     Edge 393, Type (0, 1), BuildingBlock: AJUNOK_clean_linker_0, # of connection points: 2
#     Edge 394, Type (0, 1), BuildingBlock: AJUNOK_clean_linker_0, # of connection points: 2
#     Edge 395, Type (0, 1), BuildingBlock: AJUNOK_clean_linker_0, # of connection points: 2
#     Edge 396, Type (0, 1), BuildingBlock: AJUNOK_clean_linker_0, # of connection points: 2
#     Edge 397, Type (0, 1), BuildingBlock: AJUNOK_clean_linker_0, # of connection points: 2
#     Edge 398, Type (0, 1), BuildingBlock: AJUNOK_clean_linker_0, # of connection points: 2
#     Edge 399, Type (0, 1), BuildingBlock: AJUNOK_clean_linker_0, # of connection points: 2
#     Edge 400, Type (0, 1), BuildingBlock: AJUNOK_clean_linker_0, # of connection points: 2
#     Edge 401, Type (0, 1), BuildingBlock: AJUNOK_clean_linker_0, # of connection points: 2
#     Edge 402, Type (0, 1), BuildingBlock: AJUNOK_clean_linker_0, # of connection points: 2
#     Edge 403, Type (0, 1), BuildingBlock: AJUNOK_clean_linker_0, # of connection points: 2
#     Edge 404, Type (0, 1), BuildingBlock: AJUNOK_clean_linker_0, # of connection points: 2
#     Edge 405, Type (0, 1), BuildingBlock: AJUNOK_clean_linker_0, # of connection points: 2
#     Edge 406, Type (0, 1), BuildingBlock: AJUNOK_clean_linker_0, # of connection points: 2
#     Edge 407, Type (0, 1), BuildingBlock: AJUNOK_clean_linker_0, # of connection points: 2
#     Edge 408, Type (0, 1), BuildingBlock: AJUNOK_clean_linker_0, # of connection points: 2
#     Edge 409, Type (0, 1), BuildingBlock: AJUNOK_clean_linker_0, # of connection points: 2
#     Edge 410, Type (0, 1), BuildingBlock: AJUNOK_clean_linker_0, # of connection points: 2
#     Edge 411, Type (0, 1), BuildingBlock: AJUNOK_clean_linker_0, # of connection points: 2
#     Edge 412, Type (0, 1), BuildingBlock: AJUNOK_clean_linker_0, # of connection points: 2
#     Edge 413, Type (0, 1), BuildingBlock: AJUNOK_clean_linker_0, # of connection points: 2
#     Edge 414, Type (0, 1), BuildingBlock: AJUNOK_clean_linker_0, # of connection points: 2
#     Edge 415, Type (0, 1), BuildingBlock: AJUNOK_clean_linker_0, # of connection points: 2
#     Edge 416, Type (0, 1), BuildingBlock: AJUNOK_clean_linker_0, # of connection points: 2
#     Edge 417, Type (0, 1), BuildingBlock: AJUNOK_clean_linker_0, # of connection points: 2
#     Edge 418, Type (0, 1), BuildingBlock: AJUNOK_clean_linker_0, # of connection points: 2
#     Edge 419, Type (0, 1), BuildingBlock: AJUNOK_clean_linker_0, # of connection points: 2
#     Edge 420, Type (0, 1), BuildingBlock: AJUNOK_clean_linker_0, # of connection points: 2
#     Edge 421, Type (0, 1), BuildingBlock: AJUNOK_clean_linker_0, # of connection points: 2
#     Edge 422, Type (0, 1), BuildingBlock: AJUNOK_clean_linker_0, # of connection points: 2
#     Edge 423, Type (0, 1), BuildingBlock: AJUNOK_clean_linker_0, # of connection points: 2
#     Edge 424, Type (0, 1), BuildingBlock: AJUNOK_clean_linker_0, # of connection points: 2
#     Edge 425, Type (0, 1), BuildingBlock: AJUNOK_clean_linker_0, # of connection points: 2
#     Edge 426, Type (0, 1), BuildingBlock: AJUNOK_clean_linker_0, # of connection points: 2
#     Edge 427, Type (0, 1), BuildingBlock: AJUNOK_clean_linker_0, # of connection points: 2
#     Edge 428, Type (0, 1), BuildingBlock: AJUNOK_clean_linker_0, # of connection points: 2
#     Edge 429, Type (0, 1), BuildingBlock: AJUNOK_clean_linker_0, # of connection points: 2
#     Edge 430, Type (0, 1), BuildingBlock: AJUNOK_clean_linker_0, # of connection points: 2
#     Edge 431, Type (0, 1), BuildingBlock: AJUNOK_clean_linker_0, # of connection points: 2
#     Edge 432, Type (0, 1), BuildingBlock: AJUNOK_clean_linker_0, # of connection points: 2
#     Edge 433, Type (0, 1), BuildingBlock: AJUNOK_clean_linker_0, # of connection points: 2
#     Edge 434, Type (0, 1), BuildingBlock: AJUNOK_clean_linker_0, # of connection points: 2
#     Edge 435, Type (0, 1), BuildingBlock: AJUNOK_clean_linker_0, # of connection points: 2
#     Edge 436, Type (0, 1), BuildingBlock: AJUNOK_clean_linker_0, # of connection points: 2
#     Edge 437, Type (0, 1), BuildingBlock: AJUNOK_clean_linker_0, # of connection points: 2
#     Edge 438, Type (0, 1), BuildingBlock: AJUNOK_clean_linker_0, # of connection points: 2
#     Edge 439, Type (0, 1), BuildingBlock: AJUNOK_clean_linker_0, # of connection points: 2
#     Edge 440, Type (0, 1), BuildingBlock: AJUNOK_clean_linker_0, # of connection points: 2
#     Edge 441, Type (0, 1), BuildingBlock: AJUNOK_clean_linker_0, # of connection points: 2
#     Edge 442, Type (0, 1), BuildingBlock: AJUNOK_clean_linker_0, # of connection points: 2
#     Edge 443, Type (0, 1), BuildingBlock: AJUNOK_clean_linker_0, # of connection points: 2
#     Edge 444, Type (0, 1), BuildingBlock: AJUNOK_clean_linker_0, # of connection points: 2
#     Edge 445, Type (0, 1), BuildingBlock: AJUNOK_clean_linker_0, # of connection points: 2
#     Edge 446, Type (0, 1), BuildingBlock: AJUNOK_clean_linker_0, # of connection points: 2
#     Edge 447, Type (0, 1), BuildingBlock: AJUNOK_clean_linker_0, # of connection points: 2
#     Edge 448, Type (0, 1), BuildingBlock: AJUNOK_clean_linker_0, # of connection points: 2
#     Edge 449, Type (0, 1), BuildingBlock: AJUNOK_clean_linker_0, # of connection points: 2
#     Edge 450, Type (0, 1), BuildingBlock: AJUNOK_clean_linker_0, # of connection points: 2
#     Edge 451, Type (0, 1), BuildingBlock: AJUNOK_clean_linker_0, # of connection points: 2
#     Edge 452, Type (0, 1), BuildingBlock: AJUNOK_clean_linker_0, # of connection points: 2
#     Edge 453, Type (0, 1), BuildingBlock: AJUNOK_clean_linker_0, # of connection points: 2
#     Edge 454, Type (0, 1), BuildingBlock: AJUNOK_clean_linker_0, # of connection points: 2
#     Edge 455, Type (0, 1), BuildingBlock: AJUNOK_clean_linker_0, # of connection points: 2
#     Edge 456, Type (0, 1), BuildingBlock: AJUNOK_clean_linker_0, # of connection points: 2
#     Edge 457, Type (0, 1), BuildingBlock: AJUNOK_clean_linker_0, # of connection points: 2
#     Edge 458, Type (0, 1), BuildingBlock: AJUNOK_clean_linker_0, # of connection points: 2
#     Edge 459, Type (0, 1), BuildingBlock: AJUNOK_clean_linker_0, # of connection points: 2
#     Edge 460, Type (0, 1), BuildingBlock: AJUNOK_clean_linker_0, # of connection points: 2
#     Edge 461, Type (0, 1), BuildingBlock: AJUNOK_clean_linker_0, # of connection points: 2
#     Edge 462, Type (0, 1), BuildingBlock: AJUNOK_clean_linker_0, # of connection points: 2
#     Edge 463, Type (0, 1), BuildingBlock: AJUNOK_clean_linker_0, # of connection points: 2
#     Edge 464, Type (0, 1), BuildingBlock: AJUNOK_clean_linker_0, # of connection points: 2
#     Edge 465, Type (0, 1), BuildingBlock: AJUNOK_clean_linker_0, # of connection points: 2
#     Edge 466, Type (0, 1), BuildingBlock: AJUNOK_clean_linker_0, # of connection points: 2
#     Edge 467, Type (0, 1), BuildingBlock: AJUNOK_clean_linker_0, # of connection points: 2
#     Edge 468, Type (0, 1), BuildingBlock: AJUNOK_clean_linker_0, # of connection points: 2
#     Edge 469, Type (0, 1), BuildingBlock: AJUNOK_clean_linker_0, # of connection points: 2
#     Edge 470, Type (0, 1), BuildingBlock: AJUNOK_clean_linker_0, # of connection points: 2
#     Edge 471, Type (0, 1), BuildingBlock: AJUNOK_clean_linker_0, # of connection points: 2
#     Edge 472, Type (0, 1), BuildingBlock: AJUNOK_clean_linker_0, # of connection points: 2
#     Edge 473, Type (0, 1), BuildingBlock: AJUNOK_clean_linker_0, # of connection points: 2
#     Edge 474, Type (0, 1), BuildingBlock: AJUNOK_clean_linker_0, # of connection points: 2
#     Edge 475, Type (0, 1), BuildingBlock: AJUNOK_clean_linker_0, # of connection points: 2
#     Edge 476, Type (0, 1), BuildingBlock: AJUNOK_clean_linker_0, # of connection points: 2
#     Edge 477, Type (0, 1), BuildingBlock: AJUNOK_clean_linker_0, # of connection points: 2
#     Edge 478, Type (0, 1), BuildingBlock: AJUNOK_clean_linker_0, # of connection points: 2
#     Edge 479, Type (0, 1), BuildingBlock: AJUNOK_clean_linker_0, # of connection points: 2
# Relax obj value: 0.120
# Max RMSD: 0.111
# Mean RMSD: 0.097
data_MOF--net-ana-f--node1-WUSLED_clean_sbu_0--node2-ESEHIV_clean_linker_0--edge1-AJUNOK_clean_linker_0
_symmetry_space_group_name_H-M    P1
_symmetry_Int_Tables_number       1
_symmetry_cell_setting            triclinic
loop_
_symmetry_equiv_pos_as_xyz
'x, y, z'
_cell_length_a     132.4105
_cell_length_b     132.05711
_cell_length_c     132.14375
_cell_angle_alpha  89.987725
_cell_angle_beta   89.996151
_cell_angle_gamma 89.983527
loop_
_atom_site_label
_atom_site_type_symbol
_atom_site_fract_x
_atom_site_fract_y
_atom_site_fract_z
_atom_type_partial_charge
C0 C 0.08761 0.11061 0.4034 0.0
C1 C 0.09777 0.11268 0.4013 0.0
C2 C 0.10267 0.10531 0.41755 0.0
C3 C 0.10526 0.11003 0.40834 0.0
C4 C 0.09257 0.10268 0.4193 0.0
C5 C 0.0851 0.10533 0.41229 0.0
U6 U 0.06807 0.12476 0.38434 0.0
O7 O 0.05368 0.11696 0.38066 0.0
O8 O 0.05393 0.12965 0.39154 0.0
C9 C 0.0486 0.12251 0.38717 0.0
C10 C 0.07935 0.11484 0.39724 0.0
C11 C 0.03761 0.12394 0.38616 0.0
C12 C 0.021 0.11948 0.39263 0.0
C13 C 0.03139 0.11778 0.39213 0.0
C14 C 0.02275 0.13339 0.38082 0.0
C15 C 0.01651 0.1273 0.38698 0.0
C16 C 0.03325 0.13176 0.38045 0.0
C17 C 0.08269 0.14292 0.36483 0.0
C18 C 0.08617 0.15539 0.3517 0.0
C19 C 0.09942 0.15046 0.36332 0.0
C20 C 0.09274 0.14371 0.36814 0.0
C21 C 0.09612 0.15658 0.35519 0.0
C22 C 0.07958 0.14864 0.35645 0.0
C23 C 0.07482 0.13727 0.37039 0.0
O24 O 0.07629 0.12416 0.39882 0.0
O25 O 0.07717 0.11119 0.38824 0.0
O26 O 0.0736 0.12752 0.36874 0.0
O27 O 0.07279 0.14004 0.37973 0.0
H28 H 0.09985 0.11676 0.3945 0.0
H29 H 0.11301 0.11218 0.40686 0.0
H30 H 0.09037 0.09917 0.42638 0.0
H31 H 0.07727 0.10372 0.41406 0.0
H32 H 0.01655 0.11484 0.3977 0.0
H33 H 0.03464 0.11183 0.39675 0.0
H34 H 0.01952 0.13946 0.37635 0.0
H35 H 0.03794 0.13668 0.37588 0.0
H36 H 0.0834 0.15989 0.34544 0.0
H37 H 0.10701 0.15127 0.36628 0.0
H38 H 0.0953 0.13942 0.37464 0.0
H39 H 0.07185 0.14819 0.35379 0.0
C40 C 0.1399 0.85422 0.65438 0.0
C41 C 0.14029 0.8645 0.65194 0.0
C42 C 0.145 0.86853 0.66925 0.0
C43 C 0.14281 0.87161 0.6593 0.0
C44 C 0.14535 0.85812 0.67148 0.0
C45 C 0.14277 0.85099 0.66408 0.0
U46 U 0.12799 0.83348 0.63513 0.0
O47 O 0.13796 0.82056 0.63142 0.0
O48 O 0.12609 0.81906 0.643 0.0
C49 C 0.13354 0.81469 0.63813 0.0
C50 C 0.13548 0.8472 0.64705 0.0
C51 C 0.13217 0.80394 0.63581 0.0
C52 C 0.13645 0.7868 0.64069 0.0
C53 C 0.13839 0.79714 0.64098 0.0
C54 C 0.12219 0.78984 0.62957 0.0
C55 C 0.12823 0.78305 0.63515 0.0
C56 C 0.12412 0.80028 0.62994 0.0
C57 C 0.10776 0.84558 0.61685 0.0
C58 C 0.09276 0.84866 0.60676 0.0
C59 C 0.10036 0.8624 0.61623 0.0
C60 C 0.10792 0.85581 0.61972 0.0
C61 C 0.09252 0.85879 0.60994 0.0
C62 C 0.10034 0.84217 0.61013 0.0
C63 C 0.11436 0.83786 0.62137 0.0
O64 O 0.12721 0.84217 0.64926 0.0
O65 O 0.13972 0.84505 0.63831 0.0
O66 O 0.12413 0.83834 0.6196 0.0
O67 O 0.11212 0.83503 0.63063 0.0
H68 H 0.13808 0.86709 0.64447 0.0
H69 H 0.14253 0.87957 0.65735 0.0
H70 H 0.14687 0.85551 0.6791 0.0
H71 H 0.14254 0.84303 0.66606 0.0
H72 H 0.14128 0.78174 0.64495 0.0
H73 H 0.14456 0.79987 0.64564 0.0
H74 H 0.11575 0.78713 0.62531 0.0
H75 H 0.11915 0.80547 0.626 0.0
H76 H 0.08673 0.84553 0.60219 0.0
H77 H 0.10038 0.8702 0.61878 0.0
H78 H 0.1136 0.85859 0.62493 0.0
H79 H 0.10007 0.83428 0.6079 0.0
C80 C 0.44071 0.87761 0.93623 0.0
C81 C 0.43107 0.87331 0.93548 0.0
C82 C 0.42348 0.88913 0.94153 0.0
C83 C 0.42254 0.87898 0.93822 0.0
C84 C 0.43322 0.89333 0.94214 0.0
C85 C 0.44171 0.88758 0.93968 0.0
U86 U 0.45791 0.8576 0.92245 0.0
O87 O 0.47274 0.86144 0.91619 0.0
O88 O 0.47165 0.85017 0.92869 0.0
C89 C 0.47742 0.85515 0.92229 0.0
C90 C 0.44999 0.87214 0.93346 0.0
C91 C 0.48849 0.85492 0.92258 0.0
C92 C 0.50457 0.8638 0.92273 0.0
C93 C 0.49409 0.8638 0.92416 0.0
C94 C 0.50394 0.84595 0.9185 0.0
C95 C 0.50955 0.85493 0.91957 0.0
C96 C 0.49351 0.84594 0.92004 0.0
C97 C 0.44065 0.83968 0.90436 0.0
C98 C 0.43903 0.82856 0.88984 0.0
C99 C 0.42415 0.83351 0.89933 0.0
C100 C 0.4302 0.83915 0.90591 0.0
C101 C 0.4285 0.82819 0.89119 0.0
C102 C 0.44505 0.83431 0.89636 0.0
C103 C 0.44688 0.84613 0.91086 0.0
O104 O 0.4511 0.86281 0.93676 0.0
O105 O 0.45327 0.87349 0.92418 0.0
O106 O 0.45075 0.8547 0.90762 0.0
O107 O 0.4487 0.84381 0.92036 0.0
H108 H 0.43013 0.86561 0.9328 0.0
H109 H 0.41521 0.87538 0.93772 0.0
H110 H 0.43437 0.90118 0.94415 0.0
H111 H 0.44911 0.89103 0.94025 0.0
H112 H 0.50867 0.87085 0.92348 0.0
H113 H 0.4903 0.87082 0.92608 0.0
H114 H 0.50759 0.83902 0.91609 0.0
H115 H 0.48929 0.83904 0.91872 0.0
H116 H 0.44259 0.82451 0.88367 0.0
H117 H 0.41605 0.83359 0.90042 0.0
H118 H 0.42669 0.84332 0.91204 0.0
H119 H 0.45313 0.83463 0.8951 0.0
C120 C 0.36533 0.16992 0.1655 0.0
C121 C 0.37009 0.16071 0.16308 0.0
C122 C 0.36335 0.15309 0.17845 0.0
C123 C 0.36913 0.15235 0.16955 0.0
C124 C 0.3582 0.16212 0.18055 0.0
C125 C 0.35922 0.17048 0.17414 0.0
U126 U 0.37933 0.18463 0.1448 0.0
O127 O 0.37464 0.19756 0.13525 0.0
O128 O 0.38731 0.19914 0.14597 0.0
C129 C 0.38169 0.20347 0.13901 0.0
C130 C 0.3675 0.1793 0.15984 0.0
C131 C 0.3796 0.21436 0.14015 0.0
C132 C 0.37613 0.22942 0.15023 0.0
C133 C 0.37616 0.2188 0.14918 0.0
C134 C 0.3824 0.23105 0.13309 0.0
C135 C 0.37955 0.23564 0.14224 0.0
C136 C 0.38248 0.22057 0.13209 0.0
C137 C 0.39763 0.16717 0.12886 0.0
C138 C 0.41184 0.17052 0.11768 0.0
C139 C 0.40811 0.15337 0.12301 0.0
C140 C 0.39982 0.15684 0.12841 0.0
C141 C 0.4144 0.16014 0.11776 0.0
C142 C 0.40353 0.17405 0.1233 0.0
C143 C 0.38983 0.17022 0.13613 0.0
O144 O 0.37667 0.18287 0.16109 0.0
O145 O 0.36441 0.17969 0.15039 0.0
O146 O 0.38102 0.17323 0.13269 0.0
O147 O 0.3929 0.17514 0.1442 0.0
H148 H 0.37489 0.16014 0.15646 0.0
H149 H 0.37323 0.14545 0.16786 0.0
H150 H 0.35385 0.16289 0.18745 0.0
H151 H 0.35557 0.17754 0.17617 0.0
H152 H 0.37394 0.23267 0.15742 0.0
H153 H 0.37394 0.2141 0.15552 0.0
H154 H 0.38484 0.23556 0.12669 0.0
H155 H 0.3852 0.21729 0.12508 0.0
H156 H 0.41637 0.17591 0.1135 0.0
H157 H 0.40987 0.14537 0.12341 0.0
H158 H 0.39536 0.15145 0.13269 0.0
H159 H 0.40191 0.18208 0.12355 0.0
C160 C 0.08774 0.89961 0.10556 0.0
C161 C 0.09779 0.89695 0.10756 0.0
C162 C 0.10309 0.90498 0.09177 0.0
C163 C 0.10542 0.89961 0.10069 0.0
C164 C 0.09311 0.90807 0.09008 0.0
C165 C 0.08551 0.9054 0.09692 0.0
U166 U 0.06818 0.88571 0.12463 0.0
O167 O 0.05376 0.89342 0.12839 0.0
O168 O 0.05401 0.88064 0.11765 0.0
C169 C 0.04864 0.88776 0.12201 0.0
C170 C 0.07924 0.89565 0.11154 0.0
C171 C 0.0377 0.88616 0.1233 0.0
C172 C 0.02079 0.89088 0.11783 0.0
C173 C 0.03119 0.89261 0.11797 0.0
C174 C 0.02315 0.8762 0.12855 0.0
C175 C 0.0166 0.88263 0.12306 0.0
C176 C 0.03363 0.87794 0.12866 0.0
C177 C 0.08247 0.86748 0.14454 0.0
C178 C 0.08479 0.8535 0.15627 0.0
C179 C 0.09933 0.86094 0.14801 0.0
C180 C 0.09297 0.8679 0.14302 0.0
C181 C 0.0952 0.85345 0.15439 0.0
C182 C 0.07851 0.86044 0.15141 0.0
C183 C 0.07511 0.8734 0.13859 0.0
O184 O 0.07624 0.88628 0.11008 0.0
O185 O 0.07709 0.89933 0.12054 0.0
O186 O 0.074 0.88318 0.14016 0.0
O187 O 0.07305 0.87048 0.12931 0.0
H188 H 0.09964 0.89245 0.11416 0.0
H189 H 0.11308 0.89707 0.10207 0.0
H190 H 0.09112 0.91205 0.0832 0.0
H191 H 0.07777 0.90745 0.09521 0.0
H192 H 0.01602 0.89601 0.11358 0.0
H193 H 0.03421 0.89891 0.11367 0.0
H194 H 0.02022 0.86965 0.1325 0.0
H195 H 0.03854 0.87277 0.1327 0.0
H196 H 0.08143 0.84787 0.16121 0.0
H197 H 0.10736 0.86103 0.14645 0.0
H198 H 0.09618 0.87329 0.13775 0.0
H199 H 0.07044 0.86001 0.1527 0.0
C200 C 0.36875 0.84564 0.347 0.0
C201 C 0.37062 0.85596 0.34845 0.0
C202 C 0.36454 0.85953 0.33153 0.0
C203 C 0.36854 0.86288 0.34077 0.0
C204 C 0.36197 0.84927 0.33035 0.0
C205 C 0.36412 0.84232 0.33804 0.0
U206 U 0.3799 0.82451 0.36625 0.0
O207 O 0.36974 0.81163 0.36953 0.0
O208 O 0.38201 0.81011 0.35835 0.0
C209 C 0.37434 0.80579 0.36291 0.0
C210 C 0.37297 0.83848 0.35429 0.0
C211 C 0.37537 0.79497 0.36506 0.0
C212 C 0.37103 0.77804 0.35958 0.0
C213 C 0.36945 0.78843 0.35925 0.0
C214 C 0.38416 0.78046 0.37213 0.0
C215 C 0.37848 0.77391 0.3659 0.0
C216 C 0.3827 0.79098 0.37163 0.0
C217 C 0.39953 0.83655 0.38514 0.0
C218 C 0.41355 0.83986 0.39651 0.0
C219 C 0.40702 0.85332 0.3859 0.0
C220 C 0.39978 0.84666 0.38189 0.0
C221 C 0.41414 0.8499 0.39309 0.0
C222 C 0.40628 0.8333 0.39262 0.0
C223 C 0.39316 0.82877 0.38039 0.0
O224 O 0.38125 0.8334 0.35225 0.0
O225 O 0.36834 0.83611 0.36277 0.0
O226 O 0.38335 0.82916 0.38193 0.0
O227 O 0.39565 0.82603 0.37117 0.0
H228 H 0.37427 0.85858 0.35531 0.0
H229 H 0.37067 0.87073 0.3418 0.0
H230 H 0.35882 0.84657 0.32327 0.0
H231 H 0.36263 0.83435 0.33682 0.0
H232 H 0.36659 0.77328 0.35461 0.0
H233 H 0.36385 0.79142 0.35406 0.0
H234 H 0.38976 0.77749 0.3773 0.0
H235 H 0.38738 0.79596 0.37614 0.0
H236 H 0.41905 0.83686 0.40177 0.0
H237 H 0.40727 0.86104 0.38314 0.0
H238 H 0.39464 0.8493 0.37608 0.0
H239 H 0.40624 0.82549 0.39514 0.0
C240 C 0.44064 0.1315 0.57344 0.0
C241 C 0.43154 0.13675 0.57204 0.0
C242 C 0.42281 0.12079 0.5685 0.0
C243 C 0.42274 0.13145 0.56943 0.0
C244 C 0.43203 0.11566 0.56976 0.0
C245 C 0.44083 0.12097 0.57214 0.0
U246 U 0.45848 0.15132 0.58646 0.0
O247 O 0.47334 0.14725 0.59279 0.0
O248 O 0.47227 0.15838 0.58016 0.0
C249 C 0.47805 0.15333 0.5865 0.0
C250 C 0.45022 0.13664 0.57588 0.0
C251 C 0.48909 0.15427 0.58649 0.0
C252 C 0.50563 0.14631 0.58699 0.0
C253 C 0.49519 0.14564 0.58546 0.0
C254 C 0.50398 0.1643 0.59019 0.0
C255 C 0.51006 0.15557 0.58976 0.0
C256 C 0.49357 0.16365 0.58855 0.0
C257 C 0.44161 0.16979 0.60448 0.0
C258 C 0.43829 0.17664 0.62123 0.0
C259 C 0.42656 0.17979 0.60752 0.0
C260 C 0.43275 0.17435 0.60092 0.0
C261 C 0.42905 0.18067 0.61785 0.0
C262 C 0.4445 0.17122 0.6146 0.0
C263 C 0.44756 0.16316 0.59781 0.0
O264 O 0.45166 0.14582 0.57228 0.0
O265 O 0.45356 0.13547 0.58516 0.0
O266 O 0.45147 0.15465 0.60117 0.0
O267 O 0.44934 0.16528 0.58825 0.0
H268 H 0.43124 0.1449 0.57286 0.0
H269 H 0.41592 0.13575 0.56808 0.0
H270 H 0.43243 0.1075 0.56913 0.0
H271 H 0.44782 0.1168 0.57306 0.0
H272 H 0.51013 0.13947 0.58663 0.0
H273 H 0.49184 0.13834 0.58385 0.0
H274 H 0.50723 0.17155 0.5922 0.0
H275 H 0.48896 0.17037 0.5894 0.0
H276 H 0.4405 0.17726 0.62909 0.0
H277 H 0.41972 0.18317 0.60456 0.0
H278 H 0.43045 0.17343 0.5931 0.0
H279 H 0.45143 0.16791 0.61744 0.0
C280 C 0.14099 0.15577 0.85517 0.0
C281 C 0.13734 0.14596 0.85678 0.0
C282 C 0.14455 0.14075 0.84069 0.0
C283 C 0.13914 0.13845 0.84954 0.0
C284 C 0.14866 0.15042 0.83939 0.0
C285 C 0.1469 0.15789 0.84663 0.0
U286 U 0.12845 0.17617 0.87405 0.0
O287 O 0.13758 0.18951 0.87849 0.0
O288 O 0.12571 0.19081 0.86685 0.0
C289 C 0.13303 0.19531 0.8718 0.0
C290 C 0.13763 0.16431 0.86129 0.0
C291 C 0.13188 0.20615 0.87373 0.0
C292 C 0.13814 0.22299 0.87 0.0
C293 C 0.13952 0.21254 0.87019 0.0
C294 C 0.12138 0.22083 0.87699 0.0
C295 C 0.12887 0.2273 0.87295 0.0
C296 C 0.12289 0.21034 0.87743 0.0
C297 C 0.10809 0.16287 0.89186 0.0
C298 C 0.09503 0.15982 0.90439 0.0
C299 C 0.09813 0.14742 0.89125 0.0
C300 C 0.10596 0.15347 0.88738 0.0
C301 C 0.09231 0.15078 0.89954 0.0
C302 C 0.1028 0.16581 0.90055 0.0
C303 C 0.11464 0.17052 0.88712 0.0
O304 O 0.12879 0.1684 0.85939 0.0
O305 O 0.14104 0.16572 0.87054 0.0
O306 O 0.12434 0.17061 0.88931 0.0
O307 O 0.11257 0.17317 0.87776 0.0
H308 H 0.13267 0.14428 0.8633 0.0
H309 H 0.13576 0.13104 0.85052 0.0
H310 H 0.15265 0.15237 0.8325 0.0
H311 H 0.14965 0.1655 0.84524 0.0
H312 H 0.14438 0.22762 0.86749 0.0
H313 H 0.14651 0.20941 0.86728 0.0
H314 H 0.11414 0.22376 0.8794 0.0
H315 H 0.11688 0.20549 0.88015 0.0
H316 H 0.0909 0.16246 0.91096 0.0
H317 H 0.09624 0.14043 0.8874 0.0
H318 H 0.10997 0.15106 0.88065 0.0
H319 H 0.10436 0.17303 0.90412 0.0
C320 C 0.45087 0.06927 0.14921 0.0
C321 C 0.44715 0.07866 0.15256 0.0
C322 C 0.45566 0.08711 0.13849 0.0
C323 C 0.44953 0.08754 0.14719 0.0
C324 C 0.45972 0.07779 0.13549 0.0
C325 C 0.45732 0.06897 0.1408 0.0
U326 U 0.43597 0.05006 0.1666 0.0
O327 O 0.4287 0.03618 0.16128 0.0
O328 O 0.44148 0.03509 0.17192 0.0
C329 C 0.4345 0.03026 0.16675 0.0
C330 C 0.44759 0.05949 0.15349 0.0
C331 C 0.43637 0.01997 0.16288 0.0
C332 C 0.43931 0.00829 0.14892 0.0
C333 C 0.44023 0.01803 0.15316 0.0
C334 C 0.43127 1.00238 0.16429 0.0
C335 C 0.43435 1.00054 0.1543 0.0
C336 C 0.43229 0.01198 0.16852 0.0
C337 C 0.41818 0.06566 0.18631 0.0
C338 C 0.40166 0.06928 0.19346 0.0
C339 C 0.41583 0.08031 0.19707 0.0
C340 C 0.42212 0.07413 0.19129 0.0
C341 C 0.40543 0.07823 0.19782 0.0
C342 C 0.408 0.06305 0.18771 0.0
C343 C 0.42456 0.06001 0.1792 0.0
O344 O 0.45061 0.05706 0.16266 0.0
O345 O 0.43827 0.0567 0.15154 0.0
O346 O 0.42141 0.05747 0.17011 0.0
O347 O 0.4339 0.05747 0.18143 0.0
H348 H 0.44215 0.07906 0.15903 0.0
H349 H 0.44629 0.09468 0.14958 0.0
H350 H 0.46433 0.07726 0.12874 0.0
H351 H 0.46021 0.06179 0.13807 0.0
H352 H 0.44176 0.00703 0.1412 0.0
H353 H 0.44336 0.02412 0.14866 0.0
H354 H 0.42749 0.99652 0.16861 0.0
H355 H 0.42919 0.01335 0.176 0.0
H356 H 0.39372 0.06739 0.19401 0.0
H357 H 0.41907 0.0869 0.2007 0.0
H358 H 0.42999 0.07619 0.19039 0.0
H359 H 0.40488 0.05641 0.18406 0.0
C360 C 0.19194 0.1868 0.38122 0.0
C361 C 0.18233 0.18379 0.38465 0.0
C362 C 0.17443 0.19201 0.37008 0.0
C363 C 0.17363 0.18644 0.37914 0.0
C364 C 0.18402 0.19509 0.3668 0.0
C365 C 0.19266 0.19252 0.37231 0.0
U366 U 0.20767 0.1728 0.40175 0.0
O367 O 0.22206 0.16465 0.3999 0.0
O368 O 0.22128 0.17791 0.41008 0.0
C369 C 0.22678 0.17045 0.40644 0.0
C370 C 0.20141 0.18395 0.38646 0.0
C371 C 0.2379 0.17126 0.40595 0.0
C372 C 0.25379 0.17465 0.39726 0.0
C373 C 0.24317 0.17538 0.39769 0.0
C374 C 0.25382 0.16584 0.41332 0.0
C375 C 0.25923 0.1697 0.40502 0.0
C376 C 0.24334 0.1667 0.4138 0.0
C377 C 0.18974 0.15641 0.41991 0.0
C378 C 0.1901 0.14061 0.42937 0.0
C379 C 0.17445 0.14998 0.4277 0.0
C380 C 0.17948 0.15746 0.42224 0.0
C381 C 0.17965 0.14138 0.43104 0.0
C382 C 0.19515 0.14809 0.42374 0.0
C383 C 0.19376 0.16329 0.41214 0.0
O384 O 0.20276 0.18755 0.39564 0.0
O385 O 0.20426 0.17447 0.38553 0.0
O386 O 0.19827 0.15934 0.40422 0.0
O387 O 0.19709 0.1723 0.41472 0.0
H388 H 0.18158 0.17934 0.3915 0.0
H389 H 0.1663 0.18396 0.38182 0.0
H390 H 0.18485 0.19948 0.35992 0.0
H391 H 0.19997 0.19494 0.36955 0.0
H392 H 0.25771 0.17771 0.39075 0.0
H393 H 0.23911 0.17889 0.3915 0.0
H394 H 0.25761 0.16166 0.41926 0.0
H395 H 0.23941 0.16336 0.42017 0.0
H396 H 0.19419 0.13395 0.43187 0.0
H397 H 0.16637 0.15066 0.42885 0.0
H398 H 0.17517 0.16377 0.41926 0.0
H399 H 0.20308 0.14712 0.42196 0.0
C400 C 0.05458 0.94945 0.64737 0.0
C401 C 0.05944 0.94021 0.64939 0.0
C402 C 0.04962 0.93207 0.63605 0.0
C403 C 0.05698 0.93157 0.64372 0.0
C404 C 0.04448 0.94119 0.6344 0.0
C405 C 0.04696 0.9498 0.64 0.0
U406 U 0.07 0.96761 0.66518 0.0
O407 O 0.07734 0.98171 0.66054 0.0
O408 O 0.06486 0.98227 0.67155 0.0
C409 C 0.07174 0.98736 0.66649 0.0
C410 C 0.05788 0.95911 0.65188 0.0
C411 C 0.06952 0.99768 0.66295 0.0
C412 C 0.06561 0.00954 0.64943 0.0
C413 C 0.0652 0.9997 0.65345 0.0
C414 C 0.07402 0.01544 0.66461 0.0
C415 C 0.07033 0.01738 0.65486 0.0
C416 C 0.07359 0.00567 0.66861 0.0
C417 C 0.08843 0.95094 0.68326 0.0
C418 C 0.10244 0.94994 0.69509 0.0
C419 C 0.09523 0.93461 0.68804 0.0
C420 C 0.08824 0.94037 0.68263 0.0
C421 C 0.10252 0.93932 0.69423 0.0
C422 C 0.09549 0.9557 0.68957 0.0
C423 C 0.0818 0.95695 0.67676 0.0
O424 O 0.05514 0.96107 0.66125 0.0
O425 O 0.06715 0.96198 0.64981 0.0
O426 O 0.08448 0.95967 0.66759 0.0
O427 O 0.07263 0.95952 0.67958 0.0
H428 H 0.06536 0.93979 0.65503 0.0
H429 H 0.06104 0.92457 0.64508 0.0
H430 H 0.03888 0.94177 0.62845 0.0
H431 H 0.0432 0.95688 0.63828 0.0
H432 H 0.06287 0.01089 0.64182 0.0
H433 H 0.06213 0.9936 0.64892 0.0
H434 H 0.07789 0.02131 0.66882 0.0
H435 H 0.07711 1.00422 0.67587 0.0
H436 H 0.10775 0.9538 0.69998 0.0
H437 H 0.09513 0.92646 0.68713 0.0
H438 H 0.08286 0.9366 0.67774 0.0
H439 H 0.09571 0.96389 0.69012 0.0
C440 C 0.33835 0.85629 0.86076 0.0
C441 C 0.34849 0.85808 0.86314 0.0
C442 C 0.35335 0.84233 0.85467 0.0
C443 C 0.35593 0.85117 0.8601 0.0
C444 C 0.34321 0.84091 0.85187 0.0
C445 C 0.33578 0.84778 0.85495 0.0
U446 U 0.31816 0.8751 0.87439 0.0
O447 O 0.30374 0.87833 0.8665 0.0
O448 O 0.30426 0.86718 0.87889 0.0
C449 C 0.2988 0.87155 0.87186 0.0
C450 C 0.33019 0.86253 0.86503 0.0
C451 C 0.28785 0.87265 0.87369 0.0
C452 C 0.27151 0.86426 0.87397 0.0
C453 C 0.28186 0.86411 0.87199 0.0
C454 C 0.27273 0.88192 0.87858 0.0
C455 C 0.26666 0.87312 0.87741 0.0
C456 C 0.28325 0.88162 0.87698 0.0
C457 C 0.33186 0.89515 0.89263 0.0
C458 C 0.33467 0.90786 0.90565 0.0
C459 C 0.34869 0.89775 0.89963 0.0
C460 C 0.34218 0.89268 0.89288 0.0
C461 C 0.3449 0.9052 0.90628 0.0
C462 C 0.32826 0.90292 0.89888 0.0
C463 C 0.32424 0.88934 0.88688 0.0
O464 O 0.32701 0.86097 0.87431 0.0
O465 O 0.32762 0.8713 0.86107 0.0
O466 O 0.32322 0.89086 0.87709 0.0
O467 O 0.32235 0.88 0.88974 0.0
H468 H 0.35059 0.8646 0.86763 0.0
H469 H 0.36367 0.85253 0.8624 0.0
H470 H 0.34096 0.83441 0.84741 0.0
H471 H 0.32796 0.84629 0.85303 0.0
H472 H 0.26746 0.85723 0.87301 0.0
H473 H 0.28525 0.85712 0.86934 0.0
H474 H 0.26948 0.88915 0.88052 0.0
H475 H 0.28772 0.88838 0.87819 0.0
H476 H 0.33155 0.9136 0.91061 0.0
H477 H 0.35655 0.8955 0.90001 0.0
H478 H 0.34512 0.88667 0.88814 0.0
H479 H 0.32032 0.90493 0.89882 0.0
C480 C 0.45072 0.94268 0.36192 0.0
C481 C 0.45034 0.93338 0.35679 0.0
C482 C 0.45646 0.9246 0.37195 0.0
C483 C 0.45329 0.92443 0.36173 0.0
C484 C 0.45674 0.934 0.37695 0.0
C485 C 0.45407 0.9429 0.37195 0.0
U486 U 0.43542 0.95917 0.343 0.0
O487 O 0.42604 0.97245 0.34633 0.0
O488 O 0.43946 0.97416 0.33667 0.0
C489 C 0.43177 0.97865 0.3411 0.0
C490 C 0.4473 0.9523 0.35738 0.0
C491 C 0.43315 0.98888 0.34541 0.0
C492 C 0.4401 1.00096 0.35753 0.0
C493 C 0.44009 0.99123 0.35312 0.0
C494 C 0.42632 0.00588 0.34656 0.0
C495 C 0.43297 0.00836 0.35451 0.0
C496 C 0.4265 0.99636 0.34205 0.0
C497 C 0.41939 0.94238 0.32355 0.0
C498 C 0.40338 0.94316 0.31449 0.0
C499 C 0.41368 0.92802 0.31368 0.0
C500 C 0.42089 0.93259 0.31981 0.0
C501 C 0.4048 0.93318 0.31105 0.0
C502 C 0.41067 0.94778 0.32073 0.0
C503 C 0.42642 0.94578 0.33147 0.0
O504 O 0.45054 0.95451 0.34824 0.0
O505 O 0.43774 0.95453 0.35879 0.0
O506 O 0.42261 0.94905 0.34004 0.0
O507 O 0.43503 0.95005 0.32894 0.0
H508 H 0.4477 0.93302 0.34903 0.0
H509 H 0.45299 0.91738 0.35756 0.0
H510 H 0.4586 0.93454 0.3849 0.0
H511 H 0.45431 0.95 0.37606 0.0
H512 H 0.44563 1.00261 0.36332 0.0
H513 H 0.44534 0.98555 0.35582 0.0
H514 H 0.42058 0.01114 0.34404 0.0
H515 H 0.42108 0.99471 0.33613 0.0
H516 H 0.39655 0.94726 0.31258 0.0
H517 H 0.41487 0.92024 0.31134 0.0
H518 H 0.42747 0.92824 0.32204 0.0
H519 H 0.40932 0.95532 0.32363 0.0
C520 C 0.33564 0.15538 0.64931 0.0
C521 C 0.3456 0.15313 0.64639 0.0
C522 C 0.35175 0.16844 0.65502 0.0
C523 C 0.35359 0.1596 0.64927 0.0
C524 C 0.34181 0.17031 0.65825 0.0
C525 C 0.3339 0.16391 0.65539 0.0
U526 U 0.31833 0.13521 0.63479 0.0
O527 O 0.30387 0.12894 0.6406 0.0
O528 O 0.30395 0.13954 0.62759 0.0
C529 C 0.29864 0.13364 0.63356 0.0
C530 C 0.32667 0.14965 0.64576 0.0
C531 C 0.28754 0.13467 0.63406 0.0
C532 C 0.27214 0.14402 0.63798 0.0
C533 C 0.28271 0.14298 0.63861 0.0
C534 C 0.27121 0.12847 0.62835 0.0
C535 C 0.26628 0.13683 0.63269 0.0
C536 C 0.28169 0.12741 0.62904 0.0
C537 C 0.33474 0.11571 0.61738 0.0
C538 C 0.33493 0.10399 0.60319 0.0
C539 C 0.3507 0.10976 0.61047 0.0
C540 C 0.34532 0.11549 0.61756 0.0
C541 C 0.34556 0.10414 0.60307 0.0
C542 C 0.32955 0.10973 0.61031 0.0
C543 C 0.32945 0.12297 0.62397 0.0
O544 O 0.32392 0.15083 0.63629 0.0
O545 O 0.32503 0.14046 0.64923 0.0
O546 O 0.32673 0.12075 0.63328 0.0
O547 O 0.32605 0.13162 0.62043 0.0
H548 H 0.34716 0.14658 0.64172 0.0
H549 H 0.36115 0.15787 0.64667 0.0
H550 H 0.3401 0.1768 0.66296 0.0
H551 H 0.32629 0.16576 0.65778 0.0
H552 H 0.26857 0.15045 0.64159 0.0
H553 H 0.2871 0.1487 0.64251 0.0
H554 H 0.267 0.12283 0.62415 0.0
H555 H 0.28527 0.121 0.6254 0.0
H556 H 0.33082 0.0997 0.59754 0.0
H557 H 0.35887 0.11013 0.61046 0.0
H558 H 0.34944 0.12012 0.62292 0.0
H559 H 0.32137 0.10979 0.61005 0.0
C560 C 0.05432 0.06005 0.86269 0.0
C561 C 0.05904 0.06921 0.86006 0.0
C562 C 0.04962 0.07797 0.87328 0.0
C563 C 0.05673 0.07811 0.86536 0.0
C564 C 0.04459 0.06891 0.87554 0.0
C565 C 0.04694 0.06003 0.8703 0.0
U566 U 0.07005 0.04343 0.84455 0.0
O567 O 0.07913 0.03001 0.84813 0.0
O568 O 0.06617 0.02859 0.83778 0.0
C569 C 0.07367 0.02399 0.84243 0.0
C570 C 0.05762 0.05027 0.85846 0.0
C571 C 0.07232 0.01354 0.84613 0.0
C572 C 0.06544 1.00065 0.85744 0.0
C573 C 0.06531 0.01063 0.85359 0.0
C574 C 0.0795 0.99668 0.84645 0.0
C575 C 0.07277 0.99359 0.85411 0.0
C576 C 0.07917 0.0064 0.84246 0.0
C577 C 0.08705 0.06074 0.82626 0.0
C578 C 0.10296 0.05992 0.81702 0.0
C579 C 0.0937 0.07571 0.81801 0.0
C580 C 0.08618 0.07094 0.8236 0.0
C581 C 0.10229 0.07036 0.8148 0.0
C582 C 0.09541 0.05514 0.82282 0.0
C583 C 0.0797 0.05692 0.83369 0.0
O584 O 0.05474 0.04815 0.84918 0.0
O585 O 0.06707 0.04785 0.86027 0.0
O586 O 0.0831 0.05344 0.84236 0.0
O587 O 0.07121 0.05275 0.83065 0.0
H588 H 0.06478 0.06939 0.85421 0.0
H589 H 0.06069 0.08505 0.8635 0.0
H590 H 0.03917 0.06859 0.88168 0.0
H591 H 0.04327 0.05302 0.87246 0.0
H592 H 0.05985 0.99856 0.86304 0.0
H593 H 0.05992 0.01604 0.85652 0.0
H594 H 0.08543 0.99174 0.84374 0.0
H595 H 0.08466 0.0085 0.83675 0.0
H596 H 0.10938 0.05552 0.81448 0.0
H597 H 0.09297 0.08376 0.81659 0.0
H598 H 0.07986 0.07541 0.82628 0.0
H599 H 0.09623 0.04723 0.82484 0.0
C600 C 0.18914 0.8242 0.12649 0.0
C601 C 0.17961 0.82842 0.12473 0.0
C602 C 0.17282 0.81888 0.13899 0.0
C603 C 0.17148 0.82577 0.13097 0.0
C604 C 0.18234 0.81455 0.1406 0.0
C605 C 0.19044 0.81721 0.13439 0.0
U606 U 0.20857 0.83732 0.10731 0.0
O607 O 0.22328 0.84169 0.11359 0.0
O608 O 0.22241 0.82937 0.10232 0.0
C609 C 0.22809 0.8346 0.10858 0.0
C610 C 0.19814 0.82736 0.12088 0.0
C611 C 0.23885 0.83613 0.10644 0.0
C612 C 0.25589 0.83449 0.11292 0.0
C613 C 0.24563 0.83238 0.11365 0.0
C614 C 0.25289 0.84372 0.09735 0.0
C615 C 0.25959 0.84033 0.10491 0.0
C616 C 0.2425 0.84168 0.09814 0.0
C617 C 0.19341 0.85589 0.08869 0.0
C618 C 0.18993 0.86838 0.07567 0.0
C619 C 0.17661 0.86309 0.08706 0.0
C620 C 0.18332 0.85639 0.09187 0.0
C621 C 0.17995 0.86938 0.07909 0.0
C622 C 0.19659 0.86179 0.08048 0.0
C623 C 0.2012 0.85 0.09397 0.0
O624 O 0.1997 0.82383 0.1117 0.0
O625 O 0.20149 0.8366 0.12232 0.0
O626 O 0.20377 0.85273 0.10319 0.0
O627 O 0.20205 0.84023 0.09219 0.0
H628 H 0.17851 0.83387 0.1187 0.0
H629 H 0.16416 0.82918 0.12962 0.0
H630 H 0.18359 0.80935 0.14681 0.0
H631 H 0.19781 0.81398 0.13592 0.0
H632 H 0.26091 0.83182 0.11883 0.0
H633 H 0.24292 0.8281 0.1201 0.0
H634 H 0.25563 0.84833 0.09114 0.0
H635 H 0.23734 0.84467 0.09252 0.0
H636 H 0.19266 0.87276 0.06931 0.0
H637 H 0.16892 0.86362 0.08982 0.0
H638 H 0.18072 0.85185 0.09818 0.0
H639 H 0.20435 0.86144 0.07788 0.0
C640 C 0.11663 0.41523 0.09107 0.0
C641 C 0.11583 0.41103 0.1008 0.0
C642 C 0.11357 0.42797 0.10796 0.0
C643 C 0.11422 0.41736 0.10919 0.0
C644 C 0.11403 0.432 0.09815 0.0
C645 C 0.11551 0.4257 0.08983 0.0
U646 U 0.12952 0.39466 0.07389 0.0
O647 O 0.12312 0.38699 0.06044 0.0
O648 O 0.13568 0.39807 0.05889 0.0
C649 C 0.1297 0.39149 0.05448 0.0
C650 C 0.11863 0.40924 0.08188 0.0
C651 C 0.12831 0.39195 0.04355 0.0
C652 C 0.12351 0.40061 0.02807 0.0
C653 C 0.12341 0.40002 0.03868 0.0
C654 C 0.13329 0.38508 0.02736 0.0
C655 C 0.12857 0.39317 0.02238 0.0
C656 C 0.13315 0.38449 0.03784 0.0
C657 C 0.14913 0.3777 0.09024 0.0
C658 C 0.16196 0.36459 0.09051 0.0
C659 C 0.15911 0.37506 0.10533 0.0
C660 C 0.1515 0.38021 0.10023 0.0
C661 C 0.16448 0.36726 0.1005 0.0
C662 C 0.15427 0.36978 0.0854 0.0
C663 C 0.14192 0.38411 0.08489 0.0
O664 O 0.12752 0.41068 0.07771 0.0
O665 O 0.11554 0.39977 0.08147 0.0
O666 O 0.13265 0.38105 0.08304 0.0
O667 O 0.14456 0.39281 0.08088 0.0
H668 H 0.11656 0.40293 0.10193 0.0
H669 H 0.11367 0.41399 0.11664 0.0
H670 H 0.11366 0.44009 0.0969 0.0
H671 H 0.11603 0.42908 0.08238 0.0
H672 H 0.11973 0.40684 0.02433 0.0
H673 H 0.11973 0.40591 0.04304 0.0
H674 H 0.13729 0.3793 0.02313 0.0
H675 H 0.1371 0.37831 0.04153 0.0
H676 H 0.16605 0.35863 0.08664 0.0
H677 H 0.16107 0.37744 0.11292 0.0
H678 H 0.14765 0.38641 0.10399 0.0
H679 H 0.15256 0.36782 0.07762 0.0
C680 C 0.61921 0.09667 0.91505 0.0
C681 C 0.61822 0.09941 0.90488 0.0
C682 C 0.61432 0.08196 0.90044 0.0
C683 C 0.61581 0.09213 0.89764 0.0
C684 C 0.61465 0.07937 0.91077 0.0
C685 C 0.61712 0.08668 0.91803 0.0
U686 U 0.6299 0.11628 0.93618 0.0
O687 O 0.61944 0.11953 0.94884 0.0
O688 O 0.63167 0.1084 0.95061 0.0
C689 C 0.62407 0.11311 0.95488 0.0
C690 C 0.62317 0.10414 0.92223 0.0
C691 C 0.62553 0.11598 0.96551 0.0
C692 C 0.61987 0.11373 0.98282 0.0
C693 C 0.61811 0.11302 0.97245 0.0
C694 C 0.6365 0.12061 0.97949 0.0
C695 C 0.62916 0.11734 0.98649 0.0
C696 C 0.63467 0.12001 0.96906 0.0
C697 C 0.64971 0.13568 0.92486 0.0
C698 C 0.66552 0.14462 0.92209 0.0
C699 C 0.65494 0.14019 0.90781 0.0
C700 C 0.64784 0.13582 0.9144 0.0
C701 C 0.664 0.14435 0.9116 0.0
C702 C 0.65846 0.14032 0.92862 0.0
C703 C 0.64304 0.13068 0.93227 0.0
O704 O 0.63141 0.10223 0.92744 0.0
O705 O 0.61858 0.11273 0.9243 0.0
O706 O 0.64562 0.12151 0.93512 0.0
O707 O 0.63322 0.13199 0.9315 0.0
H708 H 0.61979 0.1071 0.90248 0.0
H709 H 0.61557 0.09436 0.88975 0.0
H710 H 0.61369 0.07158 0.91315 0.0
H711 H 0.6178 0.08446 0.9259 0.0
H712 H 0.61399 0.11128 0.98797 0.0
H713 H 0.61106 0.10978 0.96983 0.0
H714 H 0.64383 0.12322 0.98201 0.0
H715 H 0.64056 0.1222 0.96381 0.0
H716 H 0.67245 0.14765 0.92522 0.0
H717 H 0.65356 0.13995 0.89973 0.0
H718 H 0.64108 0.13236 0.91134 0.0
H719 H 0.65999 0.14034 0.93668 0.0
C720 C 0.20007 0.39916 0.19146 0.0
C721 C 0.19957 0.404 0.18203 0.0
C722 C 0.20584 0.38859 0.17365 0.0
C723 C 0.20261 0.39883 0.17323 0.0
C724 C 0.20614 0.3839 0.18322 0.0
C725 C 0.20355 0.38919 0.19196 0.0
U726 U 0.18531 0.41734 0.21001 0.0
O727 O 0.17775 0.41244 0.22386 0.0
O728 O 0.19074 0.42278 0.22493 0.0
C729 C 0.18371 0.41772 0.2298 0.0
C730 C 0.19681 0.40386 0.20102 0.0
C731 C 0.18596 0.4133 0.23978 0.0
C732 C 0.18587 0.39869 0.25098 0.0
C733 C 0.18687 0.40281 0.24124 0.0
C734 C 0.1842 0.41556 0.25793 0.0
C735 C 0.18392 0.40501 0.25937 0.0
C736 C 0.18505 0.41964 0.24822 0.0
C737 C 0.16775 0.43653 0.19378 0.0
C738 C 0.15443 0.44908 0.19233 0.0
C739 C 0.16145 0.44127 0.17727 0.0
C740 C 0.16801 0.43556 0.18325 0.0
C741 C 0.15459 0.44808 0.18175 0.0
C742 C 0.16099 0.44334 0.1983 0.0
C743 C 0.17386 0.42991 0.20015 0.0
O744 O 0.1999 0.41309 0.20312 0.0
O745 O 0.18748 0.40204 0.20387 0.0
O746 O 0.17093 0.42066 0.20231 0.0
O747 O 0.1832 0.43222 0.20264 0.0
H748 H 0.19686 0.41172 0.18146 0.0
H749 H 0.20234 0.40289 0.16613 0.0
H750 H 0.20785 0.37597 0.18411 0.0
H751 H 0.20391 0.38529 0.19918 0.0
H752 H 0.18587 0.39054 0.2518 0.0
H753 H 0.18761 0.39777 0.23482 0.0
H754 H 0.18327 0.4207 0.26424 0.0
H755 H 0.18434 0.42777 0.24725 0.0
H756 H 0.14921 0.45424 0.19596 0.0
H757 H 0.16155 0.44013 0.16916 0.0
H758 H 0.1731 0.43022 0.17969 0.0
H759 H 0.16065 0.44407 0.20647 0.0
C760 C 0.89092 0.90435 0.40546 0.0
C761 C 0.88896 0.9021 0.39533 0.0
C762 C 0.89522 0.91876 0.39046 0.0
C763 C 0.89116 0.90924 0.38785 0.0
C764 C 0.89773 0.92069 0.4006 0.0
C765 C 0.89561 0.91351 0.40804 0.0
U766 U 0.87847 0.88518 0.42583 0.0
O767 O 0.88771 0.88093 0.43913 0.0
O768 O 0.876 0.89275 0.44032 0.0
C769 C 0.8833 0.88779 0.44484 0.0
C770 C 0.88708 0.89793 0.41357 0.0
C771 C 0.88202 0.88596 0.45566 0.0
C772 C 0.88564 0.89212 0.47253 0.0
C773 C 0.88754 0.89219 0.46219 0.0
C774 C 0.87292 0.87914 0.47006 0.0
C775 C 0.87818 0.88577 0.47652 0.0
C776 C 0.87475 0.87931 0.45961 0.0
C777 C 0.8578 0.86747 0.4131 0.0
C778 C 0.84228 0.85808 0.41028 0.0
C779 C 0.85087 0.86599 0.39615 0.0
C780 C 0.85846 0.8695 0.4027 0.0
C781 C 0.8425 0.86058 0.39998 0.0
C782 C 0.84986 0.86149 0.41675 0.0
C783 C 0.86456 0.872 0.42068 0.0
O784 O 0.87829 0.8998 0.41779 0.0
O785 O 0.89075 0.8888 0.41513 0.0
O786 O 0.87428 0.86995 0.42032 0.0
O787 O 0.86252 0.88131 0.42353 0.0
H788 H 0.88529 0.89506 0.39326 0.0
H789 H 0.8892 0.90754 0.38008 0.0
H790 H 0.90064 0.92801 0.40289 0.0
H791 H 0.89711 0.91535 0.4159 0.0
H792 H 0.88991 0.89715 0.47739 0.0
H793 H 0.89312 0.89742 0.45922 0.0
H794 H 0.86718 0.87413 0.47306 0.0
H795 H 0.87034 0.87452 0.45462 0.0
H796 H 0.83594 0.85399 0.41347 0.0
H797 H 0.85131 0.86786 0.38818 0.0
H798 H 0.86457 0.87407 0.39973 0.0
H799 H 0.84925 0.85984 0.42476 0.0
C800 C 0.80462 0.11215 0.19894 0.0
C801 C 0.80941 0.10993 0.18972 0.0
C802 C 0.79959 0.12318 0.18144 0.0
C803 C 0.80691 0.11546 0.18101 0.0
C804 C 0.79451 0.12501 0.19054 0.0
C805 C 0.79702 0.11954 0.19922 0.0
U806 U 0.82012 0.09468 0.21729 0.0
O807 O 0.82776 0.09967 0.2311 0.0
O808 O 0.81506 0.08887 0.23219 0.0
C809 C 0.8222 0.0939 0.23695 0.0
C810 C 0.80802 0.10787 0.20864 0.0
C811 C 0.82084 0.09715 0.24747 0.0
C812 C 0.8137 0.1077 0.26077 0.0
C813 C 0.81353 0.10414 0.25072 0.0
C814 C 0.82845 0.0974 0.2641 0.0
C815 C 0.8214 0.1046 0.26753 0.0
C816 C 0.82806 0.09365 0.25431 0.0
C817 C 0.83847 0.07597 0.20122 0.0
C818 C 0.85509 0.06849 0.19899 0.0
C819 C 0.84225 0.06642 0.18608 0.0
C820 C 0.83544 0.07192 0.19195 0.0
C821 C 0.85224 0.06488 0.18939 0.0
C822 C 0.84824 0.07402 0.20487 0.0
C823 C 0.83158 0.08269 0.2067 0.0
O824 O 0.80521 0.09858 0.21088 0.0
O825 O 0.81736 0.10993 0.2113 0.0
O826 O 0.83447 0.09179 0.20947 0.0
O827 O 0.82236 0.08006 0.20933 0.0
H828 H 0.81532 0.10426 0.18936 0.0
H829 H 0.81094 0.11398 0.17402 0.0
H830 H 0.78895 0.13101 0.19106 0.0
H831 H 0.79332 0.1214 0.2063 0.0
H832 H 0.80786 0.11292 0.26314 0.0
H833 H 0.80786 0.10693 0.2455 0.0
H834 H 0.83465 0.0949 0.26882 0.0
H835 H 0.8338 0.08831 0.25191 0.0
H836 H 0.86276 0.06758 0.2017 0.0
H837 H 0.83979 0.06366 0.17877 0.0
H838 H 0.82792 0.07335 0.18905 0.0
H839 H 0.85067 0.07705 0.21209 0.0
C840 C 0.39022 0.606 0.60428 0.0
C841 C 0.38674 0.60705 0.61421 0.0
C842 C 0.39487 0.59117 0.6187 0.0
C843 C 0.38906 0.59967 0.62141 0.0
C844 C 0.39877 0.59045 0.60885 0.0
C845 C 0.39644 0.59783 0.60167 0.0
U846 U 0.3779 0.62453 0.58329 0.0
O847 O 0.38743 0.6284 0.57011 0.0
O848 O 0.3757 0.61664 0.56892 0.0
C849 C 0.38305 0.62153 0.56441 0.0
C850 C 0.38622 0.61239 0.59626 0.0
C851 C 0.38168 0.62357 0.55364 0.0
C852 C 0.38604 0.61848 0.53658 0.0
C853 C 0.38784 0.61815 0.54694 0.0
C854 C 0.37204 0.63 0.53941 0.0
C855 C 0.37806 0.62427 0.53279 0.0
C856 C 0.37381 0.62962 0.54986 0.0
C857 C 0.35773 0.64223 0.5962 0.0
C858 C 0.34445 0.65422 0.60017 0.0
C859 C 0.34901 0.64128 0.61236 0.0
C860 C 0.35647 0.63767 0.60572 0.0
C861 C 0.34274 0.64941 0.60948 0.0
C862 C 0.35188 0.65067 0.59363 0.0
C863 C 0.36405 0.63785 0.58818 0.0
O864 O 0.37756 0.61028 0.5919 0.0
O865 O 0.39007 0.62135 0.59427 0.0
O866 O 0.37376 0.63997 0.58819 0.0
O867 O 0.36198 0.62851 0.58547 0.0
H868 H 0.3818 0.61327 0.61624 0.0
H869 H 0.38577 0.6003 0.62888 0.0
H870 H 0.40325 0.58397 0.60659 0.0
H871 H 0.39908 0.59688 0.59396 0.0
H872 H 0.39079 0.61409 0.53154 0.0
H873 H 0.39387 0.61337 0.54977 0.0
H874 H 0.36592 0.6346 0.5365 0.0
H875 H 0.36893 0.63377 0.55497 0.0
H876 H 0.33976 0.66051 0.59779 0.0
H877 H 0.34776 0.63737 0.61946 0.0
H878 H 0.3609 0.63109 0.60781 0.0
H879 H 0.35274 0.65425 0.5863 0.0
C880 C 0.2003 0.61124 0.31847 0.0
C881 C 0.19726 0.60759 0.328 0.0
C882 C 0.20551 0.62199 0.33618 0.0
C883 C 0.19992 0.61293 0.33683 0.0
C884 C 0.20872 0.62538 0.32667 0.0
C885 C 0.2062 0.62003 0.31793 0.0
U886 U 0.1859 0.59296 0.29972 0.0
O887 O 0.17809 0.59763 0.28589 0.0
O888 O 0.19136 0.58767 0.28476 0.0
C889 C 0.18409 0.59243 0.27994 0.0
C890 C 0.19704 0.60673 0.30878 0.0
C891 C 0.18601 0.59672 0.26983 0.0
C892 C 0.18904 0.61111 0.25875 0.0
C893 C 0.18964 0.60661 0.26837 0.0
C894 C 0.18184 0.59568 0.25195 0.0
C895 C 0.18486 0.60575 0.25054 0.0
C896 C 0.18241 0.59122 0.26151 0.0
C897 C 0.16891 0.57273 0.31536 0.0
C898 C 0.15377 0.56241 0.31589 0.0
C899 C 0.16375 0.56487 0.33109 0.0
C900 C 0.17057 0.57077 0.32563 0.0
C901 C 0.15521 0.56085 0.32629 0.0
C902 C 0.16061 0.56836 0.31042 0.0
C903 C 0.17538 0.58013 0.3103 0.0
O904 O 0.20046 0.59769 0.30637 0.0
O905 O 0.1876 0.60822 0.30612 0.0
O906 O 0.1718 0.58899 0.30754 0.0
O907 O 0.18465 0.57806 0.30737 0.0
H908 H 0.19267 0.60083 0.32858 0.0
H909 H 0.19729 0.61022 0.34411 0.0
H910 H 0.21304 0.63231 0.32597 0.0
H911 H 0.20861 0.62295 0.31066 0.0
H912 H 0.19135 0.61892 0.25782 0.0
H913 H 0.19235 0.61101 0.27472 0.0
H914 H 0.17843 0.59147 0.2458 0.0
H915 H 0.17943 0.58364 0.26252 0.0
H916 H 0.14716 0.55937 0.31212 0.0
H917 H 0.16488 0.56385 0.33914 0.0
H918 H 0.17691 0.57419 0.32954 0.0
H919 H 0.15923 0.56983 0.30247 0.0
C920 C 0.30433 0.39818 0.81139 0.0
C921 C 0.30867 0.40068 0.82076 0.0
C922 C 0.29914 0.38707 0.82882 0.0
C923 C 0.30607 0.39512 0.82945 0.0
C924 C 0.29457 0.38488 0.81953 0.0
C925 C 0.29714 0.3904 0.8109 0.0
U926 U 0.31956 0.41548 0.79228 0.0
O927 O 0.32634 0.40981 0.77828 0.0
O928 O 0.31396 0.42102 0.77744 0.0
C929 C 0.32076 0.41568 0.77255 0.0
C930 C 0.30774 0.40261 0.80175 0.0
C931 C 0.31927 0.4127 0.76197 0.0
C932 C 0.31575 0.39998 0.74916 0.0
C933 C 0.31476 0.4035 0.75915 0.0
C934 C 0.3253 0.41502 0.74482 0.0
C935 C 0.3214 0.40555 0.74206 0.0
C936 C 0.3242 0.41857 0.75467 0.0
C937 C 0.33828 0.43382 0.80804 0.0
C938 C 0.35175 0.44612 0.81006 0.0
C939 C 0.34556 0.43674 0.82455 0.0
C940 C 0.33856 0.43177 0.8184 0.0
C941 C 0.35237 0.44384 0.82043 0.0
C942 C 0.34482 0.44107 0.80391 0.0
C943 C 0.33197 0.42789 0.80119 0.0
O944 O 0.30495 0.41192 0.79953 0.0
O945 O 0.317 0.40046 0.7989 0.0
O946 O 0.33432 0.41842 0.79927 0.0
O947 O 0.32257 0.43044 0.79926 0.0
H948 H 0.31429 0.4066 0.82128 0.0
H949 H 0.30978 0.3968 0.83656 0.0
H950 H 0.28936 0.37859 0.81885 0.0
H951 H 0.2938 0.38831 0.80371 0.0
H952 H 0.31273 0.39261 0.74719 0.0
H953 H 0.31102 0.39883 0.76474 0.0
H954 H 0.32968 0.41943 0.73948 0.0
H955 H 0.32781 0.42564 0.75675 0.0
H956 H 0.35661 0.45177 0.80667 0.0
H957 H 0.34585 0.43475 0.8325 0.0
H958 H 0.33358 0.42614 0.82167 0.0
H959 H 0.34469 0.44269 0.79587 0.0
C960 C 0.93513 0.86215 0.56443 0.0
C961 C 0.92608 0.85662 0.56494 0.0
C962 C 0.91771 0.86962 0.55491 0.0
C963 C 0.91738 0.86034 0.56012 0.0
C964 C 0.92676 0.87504 0.5544 0.0
C965 C 0.9354 0.8713 0.55909 0.0
U966 U 0.95245 0.8472 0.58335 0.0
O967 O 0.96835 0.8428 0.58077 0.0
O968 O 0.96443 0.85388 0.59262 0.0
C969 C 0.97157 0.84862 0.58817 0.0
C970 C 0.94448 0.85894 0.56947 0.0
C971 C 0.98157 0.85334 0.5875 0.0
C972 C 0.99362 0.86563 0.58101 0.0
C973 C 0.98422 0.86069 0.58029 0.0
C974 C 0.99763 0.8557 0.59591 0.0
C975 C 1.00027 0.86332 0.58901 0.0
C976 C 0.98841 0.85077 0.59514 0.0
C977 C 0.93537 0.82769 0.59973 0.0
C978 C 0.93333 0.8155 0.61333 0.0
C979 C 0.91878 0.82123 0.60374 0.0
C980 C 0.92498 0.82744 0.59791 0.0
C981 C 0.9229 0.81518 0.61146 0.0
C982 C 0.93955 0.82171 0.60745 0.0
C983 C 0.94174 0.83462 0.59398 0.0
O984 O 0.94551 0.86165 0.57897 0.0
O985 O 0.94794 0.8498 0.56751 0.0
O986 O 0.94605 0.8319 0.58543 0.0
O987 O 0.94269 0.84417 0.59654 0.0
H988 H 0.92573 0.84953 0.56905 0.0
H989 H 0.91041 0.85606 0.56052 0.0
H990 H 0.92715 0.88215 0.55033 0.0
H991 H 0.94234 0.87563 0.55861 0.0
H992 H 0.9955 0.87154 0.57564 0.0
H993 H 0.97898 0.8628 0.57436 0.0
H994 H 1.00263 0.85375 0.6021 0.0
H995 H 0.98646 0.84514 0.60078 0.0
H996 H 0.93664 0.81092 0.61928 0.0
H997 H 0.91073 0.82126 0.60231 0.0
H998 H 0.92167 0.83213 0.59206 0.0
H999 H 0.94759 0.82193 0.60899 0.0
C1000 C 0.88615 0.18493 0.31997 0.0
C1001 C 0.8893 0.17481 0.32006 0.0
C1002 C 0.87234 0.16949 0.31519 0.0
C1003 C 0.88242 0.16711 0.31764 0.0
C1004 C 0.8694 0.17968 0.31469 0.0
C1005 C 0.87625 0.18733 0.3171 0.0
U1006 U 0.90653 0.20487 0.33121 0.0
O1007 O 0.90897 0.21929 0.32289 0.0
O1008 O 0.89976 0.21896 0.33681 0.0
C1009 C 0.90308 0.22431 0.32914 0.0
C1010 C 0.89268 0.19321 0.32339 0.0
C1011 C 0.90384 0.23538 0.33029 0.0
C1012 C 0.89532 0.25156 0.32801 0.0
C1013 C 0.89626 0.24126 0.32579 0.0
C1014 C 0.91009 0.25049 0.33874 0.0
C1015 C 0.90211 0.25633 0.33465 0.0
C1016 C 0.91089 0.24007 0.33667 0.0
C1017 C 0.92787 0.19009 0.34664 0.0
C1018 C 0.94113 0.18589 0.35864 0.0
C1019 C 0.93148 0.17248 0.35074 0.0
C1020 C 0.92589 0.17973 0.34528 0.0
C1021 C 0.93901 0.17553 0.35766 0.0
C1022 C 0.93561 0.19306 0.35323 0.0
C1023 C 0.92195 0.19825 0.34185 0.0
O1024 O 0.89224 0.19643 0.33278 0.0
O1025 O 0.90101 0.19552 0.31849 0.0
O1026 O 0.92228 0.19935 0.33196 0.0
O1027 O 0.91313 0.20047 0.34584 0.0
H1028 H 0.89693 0.17285 0.32227 0.0
H1029 H 0.88486 0.15929 0.31808 0.0
H1030 H 0.86174 0.18172 0.31266 0.0
H1031 H 0.87372 0.19513 0.31695 0.0
H1032 H 0.88891 0.2556 0.32494 0.0
H1033 H 0.89065 0.23774 0.32096 0.0
H1034 H 0.91553 0.25391 0.34382 0.0
H1035 H 0.91676 0.23566 0.34028 0.0
H1036 H 0.94704 0.18848 0.36368 0.0
H1037 H 0.92972 0.16452 0.3498 0.0
H1038 H 0.91995 0.17727 0.34021 0.0
H1039 H 0.93729 0.20101 0.35433 0.0
C1040 C 0.5695 0.15182 0.0675 0.0
C1041 C 0.57892 0.15618 0.06978 0.0
C1042 C 0.58729 0.14309 0.05988 0.0
C1043 C 0.58779 0.1518 0.06598 0.0
C1044 C 0.57784 0.13902 0.05737 0.0
C1045 C 0.56903 0.14333 0.06118 0.0
U1046 U 0.55409 0.16908 0.08523 0.0
O1047 O 0.53857 0.1749 0.0833 0.0
O1048 O 0.54222 0.16475 0.09597 0.0
C1049 C 0.53517 0.16984 0.09118 0.0
C1050 C 0.56007 0.1554 0.07214 0.0
C1051 C 0.52531 0.16475 0.09025 0.0
C1052 C 0.51456 0.15073 0.08497 0.0
C1053 C 0.52384 0.15591 0.08448 0.0
C1054 C 0.50817 0.16337 0.09661 0.0
C1055 C 0.50674 0.15438 0.09118 0.0
C1056 C 0.51736 0.16849 0.09615 0.0
C1057 C 0.57251 0.18897 0.09893 0.0
C1058 C 0.57282 0.20082 0.11305 0.0
C1059 C 0.58789 0.19796 0.10302 0.0
C1060 C 0.58267 0.19112 0.09703 0.0
C1061 C 0.58304 0.20293 0.11104 0.0
C1062 C 0.56753 0.19384 0.10697 0.0
C1063 C 0.56794 0.18107 0.09263 0.0
O1064 O 0.55921 0.15364 0.08188 0.0
O1065 O 0.55689 0.16444 0.06945 0.0
O1066 O 0.56244 0.18356 0.08473 0.0
O1067 O 0.56555 0.17237 0.0968 0.0
H1068 H 0.5794 0.16275 0.07465 0.0
H1069 H 0.59503 0.15512 0.06788 0.0
H1070 H 0.5773 0.1323 0.0527 0.0
H1071 H 0.56183 0.13987 0.0594 0.0
H1072 H 0.51358 0.14377 0.08074 0.0
H1073 H 0.52991 0.15287 0.07991 0.0
H1074 H 0.50225 0.16626 0.1015 0.0
H1075 H 0.51838 0.17524 0.10069 0.0
H1076 H 0.56898 0.20454 0.11925 0.0
H1077 H 0.59582 0.19928 0.10147 0.0
H1078 H 0.58666 0.18731 0.09095 0.0
H1079 H 0.55968 0.19219 0.1086 0.0
C1080 C 0.6211 0.82155 0.81128 0.0
C1081 C 0.6187 0.83103 0.81536 0.0
C1082 C 0.63309 0.83854 0.80649 0.0
C1083 C 0.62468 0.83947 0.813 0.0
C1084 C 0.63521 0.82904 0.80223 0.0
C1085 C 0.62929 0.82064 0.80462 0.0
U1086 U 0.60412 0.79936 0.82367 0.0
O1087 O 0.60119 0.78529 0.81491 0.0
O1088 O 0.6124 0.78543 0.82723 0.0
C1089 C 0.60818 0.78025 0.81988 0.0
C1090 C 0.61603 0.81221 0.81449 0.0
C1091 C 0.60752 0.76915 0.82108 0.0
C1092 C 0.61466 0.75283 0.81629 0.0
C1093 C 0.61319 0.76315 0.8144 0.0
C1094 C 0.60436 0.7542 0.83136 0.0
C1095 C 0.61049 0.74832 0.82494 0.0
C1096 C 0.60287 0.76457 0.82946 0.0
C1097 C 0.58475 0.81229 0.84274 0.0
C1098 C 0.57173 0.81565 0.85529 0.0
C1099 C 0.58399 0.82862 0.85125 0.0
C1100 C 0.58845 0.82216 0.84406 0.0
C1101 C 0.57581 0.82527 0.85725 0.0
C1102 C 0.57622 0.80922 0.84821 0.0
C1103 C 0.5901 0.80449 0.83681 0.0
O1104 O 0.61794 0.80856 0.82353 0.0
O1105 O 0.60718 0.80965 0.81077 0.0
O1106 O 0.58834 0.80379 0.82703 0.0
O1107 O 0.59952 0.80258 0.83931 0.0
H1108 H 0.61247 0.83182 0.82061 0.0
H1109 H 0.62296 0.84661 0.81663 0.0
H1110 H 0.64157 0.82805 0.79717 0.0
H1111 H 0.63129 0.81333 0.80147 0.0
H1112 H 0.61954 0.74851 0.81131 0.0
H1113 H 0.61697 0.76658 0.80798 0.0
H1114 H 0.60111 0.75087 0.83811 0.0
H1115 H 0.59856 0.76907 0.83477 0.0
H1116 H 0.56516 0.81296 0.85935 0.0
H1117 H 0.58728 0.83603 0.85246 0.0
H1118 H 0.59502 0.82471 0.83988 0.0
H1119 H 0.57321 0.80165 0.84726 0.0
C1120 C 0.9365 0.14828 0.94576 0.0
C1121 C 0.9273 0.15345 0.94455 0.0
C1122 C 0.91865 0.14022 0.95411 0.0
C1123 C 0.91841 0.14946 0.94877 0.0
C1124 C 0.92794 0.13531 0.95551 0.0
C1125 C 0.93675 0.13931 0.95139 0.0
U1126 U 0.9522 0.16332 0.9261 0.0
O1127 O 0.9679 0.16885 0.92731 0.0
O1128 O 0.96388 0.15732 0.91599 0.0
C1129 C 0.97107 0.16282 0.92004 0.0
C1130 C 0.94588 0.15146 0.94074 0.0
C1131 C 0.98092 0.15779 0.92129 0.0
C1132 C 0.99175 0.1443 0.92766 0.0
C1133 C 0.9825 0.14956 0.92786 0.0
C1134 C 0.99785 0.15565 0.91462 0.0
C1135 C 0.99944 0.1472 0.92087 0.0
C1136 C 0.98871 0.16086 0.91484 0.0
C1137 C 0.93369 0.18149 0.90999 0.0
C1138 C 0.93314 0.19443 0.89688 0.0
C1139 C 0.91762 0.18772 0.90395 0.0
C1140 C 0.92315 0.18138 0.91022 0.0
C1141 C 0.92252 0.19443 0.89734 0.0
C1142 C 0.93875 0.18798 0.90324 0.0
C1143 C 0.93878 0.17452 0.91695 0.0
O1144 O 0.94683 0.14849 0.93131 0.0
O1145 O 0.94902 0.16077 0.9423 0.0
O1146 O 0.94434 0.17798 0.92444 0.0
O1147 O 0.94082 0.16522 0.91409 0.0
H1148 H 0.92695 0.1604 0.94021 0.0
H1149 H 0.91137 0.15352 0.94776 0.0
H1150 H 0.92835 0.12818 0.95954 0.0
H1151 H 0.94377 0.13521 0.95236 0.0
H1152 H 0.99282 0.13789 0.93267 0.0
H1153 H 0.97654 0.14705 0.93289 0.0
H1154 H 1.00357 0.15802 0.90926 0.0
H1155 H 0.9876 0.16713 0.90967 0.0
H1156 H 0.93704 0.19953 0.89178 0.0
H1157 H 0.90945 0.18743 0.90432 0.0
H1158 H 0.91914 0.17636 0.91532 0.0
H1159 H 0.94692 0.1881 0.90293 0.0
C1160 C 0.62268 0.19123 0.69934 0.0
C1161 C 0.6182 0.18166 0.69842 0.0
C1162 C 0.63414 0.17339 0.7036 0.0
C1163 C 0.62379 0.17287 0.70074 0.0
C1164 C 0.63841 0.18317 0.70433 0.0
C1165 C 0.6327 0.19185 0.70255 0.0
U1166 U 0.60398 0.21074 0.68617 0.0
O1167 O 0.5985 0.22532 0.6926 0.0
O1168 O 0.60918 0.22514 0.67973 0.0
C1169 C 0.60345 0.23057 0.68574 0.0
C1170 C 0.6176 0.20086 0.69678 0.0
C1171 C 0.6058 0.2414 0.68709 0.0
C1172 C 0.61759 0.25502 0.69086 0.0
C1173 C 0.6148 0.24477 0.69159 0.0
C1174 C 0.60223 0.25863 0.68159 0.0
C1175 C 0.61142 0.26198 0.68566 0.0
C1176 C 0.59947 0.24844 0.68229 0.0
C1177 C 0.58529 0.19543 0.66731 0.0
C1178 C 0.57422 0.19434 0.65274 0.0
C1179 C 0.58189 0.17915 0.65961 0.0
C1180 C 0.58656 0.18491 0.66716 0.0
C1181 C 0.57599 0.18387 0.65209 0.0
C1182 C 0.5789 0.20007 0.66025 0.0
C1183 C 0.59146 0.2019 0.67382 0.0
O1184 O 0.61928 0.20449 0.68769 0.0
O1185 O 0.60839 0.20258 0.70012 0.0
O1186 O 0.58919 0.20343 0.68339 0.0
O1187 O 0.60069 0.20435 0.67115 0.0
H1188 H 0.61043 0.18097 0.69594 0.0
H1189 H 0.61985 0.16573 0.70023 0.0
H1190 H 0.6463 0.18443 0.70571 0.0
H1191 H 0.63633 0.19918 0.70324 0.0
H1192 H 0.62475 0.25745 0.694 0.0
H1193 H 0.61984 0.23944 0.69522 0.0
H1194 H 0.59744 0.2638 0.6774 0.0
H1195 H 0.59259 0.24595 0.67861 0.0
H1196 H 0.56946 0.19814 0.64726 0.0
H1197 H 0.58334 0.17108 0.65933 0.0
H1198 H 0.5915 0.18124 0.67257 0.0
H1199 H 0.57785 0.20821 0.6603 0.0
C1200 C 0.57014 0.85843 0.44174 0.0
C1201 C 0.57908 0.8527 0.44198 0.0
C1202 C 0.58833 0.86739 0.44842 0.0
C1203 C 0.58808 0.85711 0.44547 0.0
C1204 C 0.57925 0.87292 0.44831 0.0
C1205 C 0.57028 0.86846 0.44511 0.0
U1206 U 0.55429 0.84089 0.42456 0.0
O1207 O 0.53853 0.83573 0.4266 0.0
O1208 O 0.54269 0.84529 0.41358 0.0
C1209 C 0.53545 0.84054 0.41843 0.0
C1210 C 0.56065 0.85462 0.43741 0.0
C1211 C 0.52552 0.84559 0.41844 0.0
C1212 C 0.51222 0.85623 0.42555 0.0
C1213 C 0.52182 0.85165 0.42639 0.0
C1214 C 0.51031 0.84896 0.40884 0.0
C1215 C 0.5063 0.85477 0.41679 0.0
C1216 C 0.51969 0.84435 0.40973 0.0
C1217 C 0.57241 0.82097 0.41042 0.0
C1218 C 0.57237 0.80823 0.39709 0.0
C1219 C 0.58802 0.81299 0.40532 0.0
C1220 C 0.58284 0.81978 0.41139 0.0
C1221 C 0.5829 0.80706 0.39816 0.0
C1222 C 0.56712 0.81521 0.4032 0.0
C1223 C 0.56783 0.82876 0.41685 0.0
O1224 O 0.55948 0.85634 0.4277 0.0
O1225 O 0.55758 0.84557 0.44024 0.0
O1226 O 0.5623 0.8262 0.42472 0.0
O1227 O 0.56566 0.83761 0.4129 0.0
H1228 H 0.57912 0.84491 0.43941 0.0
H1229 H 0.59481 0.85246 0.44583 0.0
H1230 H 0.57906 0.88084 0.45041 0.0
H1231 H 0.56346 0.87298 0.44495 0.0
H1232 H 0.50939 0.86078 0.43175 0.0
H1233 H 0.52628 0.85282 0.43315 0.0
H1234 H 0.50623 0.84804 0.40181 0.0
H1235 H 0.52247 0.83984 0.40346 0.0
H1236 H 0.56823 0.80371 0.39165 0.0
H1237 H 0.59614 0.81243 0.40621 0.0
H1238 H 0.58705 0.82425 0.41683 0.0
H1239 H 0.55904 0.81612 0.4023 0.0
C1240 C 0.88392 0.82121 0.19025 0.0
C1241 C 0.88877 0.83039 0.1926 0.0
C1242 C 0.87238 0.83897 0.19414 0.0
C1243 C 0.88305 0.83913 0.19468 0.0
C1244 C 0.86765 0.82967 0.19202 0.0
C1245 C 0.87334 0.82094 0.19016 0.0
U1246 U 0.90563 0.80531 0.17813 0.0
O1247 O 0.91263 0.79096 0.18341 0.0
O1248 O 0.90425 0.79142 0.16905 0.0
C1249 C 0.9096 0.78593 0.17536 0.0
C1250 C 0.88948 0.81172 0.18789 0.0
C1251 C 0.9071 0.77498 0.17616 0.0
C1252 C 0.89548 0.7609 0.17911 0.0
C1253 C 0.89794 0.77126 0.18008 0.0
C1254 C 0.91146 0.75784 0.17079 0.0
C1255 C 0.90217 0.75414 0.17426 0.0
C1256 C 0.91388 0.76812 0.17172 0.0
C1257 C 0.92528 0.82408 0.16411 0.0
C1258 C 0.93851 0.82416 0.15128 0.0
C1259 C 0.93251 0.83995 0.15838 0.0
C1260 C 0.92588 0.83463 0.16459 0.0
C1261 C 0.93886 0.83484 0.15155 0.0
C1262 C 0.93169 0.81879 0.15748 0.0
C1263 C 0.91715 0.81927 0.17003 0.0
O1264 O 0.8894 0.80893 0.17835 0.0
O1265 O 0.89825 0.81019 0.19232 0.0
O1266 O 0.91896 0.81544 0.17904 0.0
O1267 O 0.90949 0.81515 0.16526 0.0
H1268 H 0.89693 0.83081 0.19284 0.0
H1269 H 0.88703 0.84598 0.19672 0.0
H1270 H 0.8595 0.82916 0.19149 0.0
H1271 H 0.86943 0.81394 0.18846 0.0
H1272 H 0.88826 0.75821 0.18185 0.0
H1273 H 0.89256 0.7764 0.18351 0.0
H1274 H 0.91671 0.75284 0.16696 0.0
H1275 H 0.92095 0.77079 0.16856 0.0
H1276 H 0.94345 0.81996 0.14627 0.0
H1277 H 0.93241 0.84814 0.15873 0.0
H1278 H 0.92093 0.83885 0.16959 0.0
H1279 H 0.93132 0.81062 0.15698 0.0
C1280 C 0.60684 0.91705 0.89542 0.0
C1281 C 0.60895 0.90765 0.89103 0.0
C1282 C 0.59427 0.90043 0.89953 0.0
C1283 C 0.6027 0.89936 0.89311 0.0
C1284 C 0.59251 0.90974 0.90429 0.0
C1285 C 0.59876 0.91799 0.90223 0.0
U1286 U 0.62431 0.93809 0.88221 0.0
O1287 O 0.61653 0.95219 0.87825 0.0
O1288 O 0.62801 0.95226 0.89032 0.0
C1289 C 0.62117 0.95743 0.88528 0.0
C1290 C 0.61192 0.92633 0.89217 0.0
C1291 C 0.62276 0.96824 0.88333 0.0
C1292 C 0.61644 0.98528 0.88598 0.0
C1293 C 0.61624 0.97499 0.88825 0.0
C1294 C 0.62992 0.98229 0.87392 0.0
C1295 C 0.62315 0.989 0.87868 0.0
C1296 C 0.62972 0.97191 0.87622 0.0
C1297 C 0.64349 0.9247 0.86298 0.0
C1298 C 0.65462 0.92195 0.84861 0.0
C1299 C 0.64671 0.90763 0.85691 0.0
C1300 C 0.64206 0.9142 0.86386 0.0
C1301 C 0.65285 0.91152 0.84912 0.0
C1302 C 0.64996 0.92847 0.85547 0.0
C1303 C 0.63796 0.93219 0.86908 0.0
O1304 O 0.621 0.92852 0.89557 0.0
O1305 O 0.61005 0.92969 0.88301 0.0
O1306 O 0.62854 0.93414 0.86661 0.0
O1307 O 0.63983 0.93291 0.87884 0.0
H1308 H 0.61511 0.90684 0.8857 0.0
H1309 H 0.60418 0.89223 0.88935 0.0
H1310 H 0.58597 0.9108 0.90911 0.0
H1311 H 0.59698 0.92527 0.90558 0.0
H1312 H 0.6111 0.99028 0.88967 0.0
H1313 H 0.61074 0.97224 0.89367 0.0
H1314 H 0.63521 0.98505 0.86831 0.0
H1315 H 0.63477 0.96677 0.87231 0.0
H1316 H 0.65916 0.92511 0.84256 0.0
H1317 H 0.64519 0.89958 0.85733 0.0
H1318 H 0.63709 0.91115 0.86961 0.0
H1319 H 0.6511 0.93655 0.85466 0.0
C1320 C 0.8199 0.81835 0.60834 0.0
C1321 C 0.82939 0.82017 0.60393 0.0
C1322 C 0.83746 0.81056 0.61745 0.0
C1323 C 0.83815 0.81629 0.60849 0.0
C1324 C 0.82794 0.80868 0.62169 0.0
C1325 C 0.81925 0.81252 0.61716 0.0
U1326 U 0.80414 0.83525 0.5903 0.0
O1327 O 0.78864 0.83271 0.58468 0.0
O1328 O 0.79203 0.84579 0.59443 0.0
C1329 C 0.78508 0.84065 0.58952 0.0
C1330 C 0.81053 0.82287 0.60446 0.0
C1331 C 0.77517 0.83971 0.59452 0.0
C1332 C 0.76463 0.83788 0.60953 0.0
C1333 C 0.77403 0.83677 0.60469 0.0
C1334 C 0.7574 0.84409 0.59389 0.0
C1335 C 0.75633 0.84202 0.60426 0.0
C1336 C 0.76673 0.84305 0.58912 0.0
C1337 C 0.82124 0.84874 0.56923 0.0
C1338 C 0.82218 0.86459 0.55981 0.0
C1339 C 0.8358 0.85236 0.55881 0.0
C1340 C 0.83054 0.84587 0.56516 0.0
C1341 C 0.83191 0.86196 0.55641 0.0
C1342 C 0.81686 0.85799 0.56628 0.0
C1343 C 0.81748 0.84248 0.57762 0.0
O1344 O 0.80964 0.83269 0.60576 0.0
O1345 O 0.80734 0.81974 0.59558 0.0
O1346 O 0.81226 0.83423 0.5757 0.0
O1347 O 0.8152 0.84693 0.58621 0.0
H1348 H 0.83002 0.8247 0.59712 0.0
H1349 H 0.84544 0.81778 0.60507 0.0
H1350 H 0.82722 0.80441 0.62865 0.0
H1351 H 0.812 0.81111 0.62068 0.0
H1352 H 0.764 0.83607 0.6175 0.0
H1353 H 0.78047 0.83409 0.60899 0.0
H1354 H 0.75108 0.8469 0.5895 0.0
H1355 H 0.76744 0.84529 0.58126 0.0
H1356 H 0.81903 0.87195 0.55807 0.0
H1357 H 0.84324 0.85011 0.55623 0.0
H1358 H 0.83407 0.8388 0.56739 0.0
H1359 H 0.80966 0.86034 0.56939 0.0
C1360 C 0.91012 0.08442 0.39235 0.0
C1361 C 0.90943 0.09388 0.38763 0.0
C1362 C 0.92445 0.09957 0.3967 0.0
C1363 C 0.91652 0.10142 0.38982 0.0
C1364 C 0.92476 0.09024 0.40179 0.0
C1365 C 0.91768 0.08272 0.39959 0.0
U1366 U 0.8903 0.06442 0.38052 0.0
O1367 O 0.8972 0.05057 0.37451 0.0
O1368 O 0.88788 0.04979 0.3883 0.0
C1369 C 0.89373 0.04492 0.3819 0.0
C1370 C 0.90404 0.07576 0.38904 0.0
C1371 C 0.89183 0.0342 0.37972 0.0
C1372 C 0.89826 0.01703 0.38093 0.0
C1373 C 0.89887 0.02724 0.38348 0.0
C1374 C 0.88331 0.02049 0.37092 0.0
C1375 C 0.89052 0.01354 0.37459 0.0
C1376 C 0.88396 0.0308 0.37348 0.0
C1377 C 0.86857 0.07923 0.36571 0.0
C1378 C 0.8553 0.08337 0.35369 0.0
C1379 C 0.86546 0.09675 0.36103 0.0
C1380 C 0.87082 0.08956 0.36676 0.0
C1381 C 0.85785 0.09364 0.35426 0.0
C1382 C 0.86064 0.07624 0.35935 0.0
C1383 C 0.87471 0.07112 0.37023 0.0
O1384 O 0.89573 0.07313 0.39382 0.0
O1385 O 0.9044 0.07305 0.37948 0.0
O1386 O 0.88356 0.06926 0.36611 0.0
O1387 O 0.87447 0.06975 0.38009 0.0
H1388 H 0.90368 0.09528 0.38196 0.0
H1389 H 0.91611 0.10853 0.38575 0.0
H1390 H 0.93062 0.08865 0.40729 0.0
H1391 H 0.91835 0.07541 0.40327 0.0
H1392 H 0.90403 0.01191 0.38369 0.0
H1393 H 0.90507 0.02976 0.3882 0.0
H1394 H 0.87726 0.01796 0.36602 0.0
H1395 H 0.87849 0.0361 0.37044 0.0
H1396 H 0.84959 0.08079 0.34842 0.0
H1397 H 0.86756 0.10466 0.36153 0.0
H1398 H 0.87693 0.09201 0.37163 0.0
H1399 H 0.85884 0.06829 0.35841 0.0
C1400 C 0.68452 0.19387 0.1113 0.0
C1401 C 0.67497 0.19139 0.10742 0.0
C1402 C 0.66719 0.20281 0.1196 0.0
C1403 C 0.6663 0.19586 0.11159 0.0
C1404 C 0.67676 0.20537 0.12328 0.0
C1405 C 0.68534 0.20091 0.11918 0.0
U1406 U 0.70314 0.17601 0.09621 0.0
O1407 O 0.71898 0.17987 0.09261 0.0
O1408 O 0.7154 0.16757 0.10339 0.0
C1409 C 0.72239 0.1725 0.09836 0.0
C1410 C 0.69387 0.18902 0.10792 0.0
C1411 C 0.73235 0.17322 0.10299 0.0
C1412 C 0.74421 0.17952 0.11548 0.0
C1413 C 0.73488 0.18032 0.11046 0.0
C1414 C 0.74835 0.16477 0.10533 0.0
C1415 C 0.75084 0.17154 0.11309 0.0
C1416 C 0.7392 0.16563 0.10032 0.0
C1417 C 0.68728 0.15933 0.07638 0.0
C1418 C 0.68416 0.14648 0.06366 0.0
C1419 C 0.67016 0.15491 0.07201 0.0
C1420 C 0.67691 0.1607 0.07768 0.0
C1421 C 0.67373 0.1477 0.065 0.0
C1422 C 0.69089 0.15224 0.06936 0.0
C1423 C 0.69461 0.16446 0.08277 0.0
O1424 O 0.69511 0.17945 0.11032 0.0
O1425 O 0.69745 0.19146 0.09895 0.0
O1426 O 0.69504 0.16205 0.0924 0.0
O1427 O 0.69776 0.17364 0.08054 0.0
H1428 H 0.67423 0.18596 0.10132 0.0
H1429 H 0.65894 0.19392 0.10858 0.0
H1430 H 0.67758 0.21073 0.12944 0.0
H1431 H 0.69267 0.20285 0.12228 0.0
H1432 H 0.74602 0.18478 0.1215 0.0
H1433 H 0.72959 0.18618 0.11263 0.0
H1434 H 0.75338 0.1586 0.10337 0.0
H1435 H 0.73729 0.16007 0.0946 0.0
H1436 H 0.68712 0.14116 0.05818 0.0
H1437 H 0.66213 0.15597 0.07321 0.0
H1438 H 0.67406 0.16608 0.08317 0.0
H1439 H 0.69893 0.15108 0.06837 0.0
C1440 C 0.60352 0.08987 0.61385 0.0
C1441 C 0.60638 0.09908 0.61836 0.0
C1442 C 0.59259 0.10783 0.60966 0.0
C1443 C 0.60095 0.108 0.61627 0.0
C1444 C 0.59004 0.09866 0.60493 0.0
C1445 C 0.59545 0.0898 0.607 0.0
U1446 U 0.62279 0.07304 0.62817 0.0
O1447 O 0.61989 0.05894 0.63662 0.0
O1448 O 0.63018 0.05873 0.62344 0.0
C1449 C 0.62608 0.05363 0.63095 0.0
C1450 C 0.60814 0.08007 0.61668 0.0
C1451 C 0.62489 0.0425 0.6304 0.0
C1452 C 0.61684 0.0268 0.6248 0.0
C1453 C 0.61772 0.03747 0.62437 0.0
C1454 C 0.62997 0.02632 0.63748 0.0
C1455 C 0.62288 0.02101 0.63153 0.0
C1456 C 0.63106 0.03678 0.63677 0.0
C1457 C 0.64143 0.09021 0.64482 0.0
C1458 C 0.65195 0.08857 0.65983 0.0
C1459 C 0.6493 0.10504 0.65222 0.0
C1460 C 0.64344 0.1006 0.6447 0.0
C1461 C 0.65356 0.09915 0.65997 0.0
C1462 C 0.64585 0.08412 0.65234 0.0
C1463 C 0.63366 0.08658 0.63775 0.0
O1464 O 0.61729 0.07821 0.61326 0.0
O1465 O 0.60686 0.07724 0.62612 0.0
O1466 O 0.62539 0.0826 0.64152 0.0
O1467 O 0.63632 0.08285 0.62892 0.0
H1468 H 0.61257 0.09931 0.62372 0.0
H1469 H 0.60303 0.11491 0.62017 0.0
H1470 H 0.58371 0.09828 0.59976 0.0
H1471 H 0.59311 0.08279 0.60345 0.0
H1472 H 0.61153 0.0232 0.61975 0.0
H1473 H 0.61285 0.04174 0.61935 0.0
H1474 H 0.63462 0.02248 0.64301 0.0
H1475 H 0.63661 0.04049 0.64153 0.0
H1476 H 0.65512 0.0838 0.66569 0.0
H1477 H 0.64994 0.11321 0.65224 0.0
H1478 H 0.63996 0.10543 0.63905 0.0
H1479 H 0.64431 0.07607 0.65261 0.0
C1480 C 0.68596 0.81455 0.39714 0.0
C1481 C 0.67672 0.81682 0.40182 0.0
C1482 C 0.66794 0.80585 0.38984 0.0
C1483 C 0.66775 0.81248 0.3982 0.0
C1484 C 0.67729 0.80331 0.38552 0.0
C1485 C 0.68619 0.80769 0.38908 0.0
U1486 U 0.70167 0.83398 0.41223 0.0
O1487 O 0.71731 0.83267 0.41794 0.0
O1488 O 0.71346 0.84418 0.40654 0.0
C1489 C 0.72058 0.84 0.41205 0.0
C1490 C 0.69543 0.81962 0.4 0.0
C1491 C 0.73059 0.83883 0.40724 0.0
C1492 C 0.74155 0.83457 0.393 0.0
C1493 C 0.7321 0.83396 0.39788 0.0
C1494 C 0.74804 0.84443 0.40701 0.0
C1495 C 0.74954 0.8401 0.39741 0.0
C1496 C 0.7387 0.84381 0.41183 0.0
C1497 C 0.68391 0.84945 0.43149 0.0
C1498 C 0.68396 0.86484 0.44169 0.0
C1499 C 0.66905 0.85423 0.44106 0.0
C1500 C 0.674 0.84758 0.4346 0.0
C1501 C 0.67391 0.86296 0.44468 0.0
C1502 C 0.68896 0.8581 0.4351 0.0
C1503 C 0.68812 0.84242 0.42396 0.0
O1504 O 0.69613 0.82917 0.39733 0.0
O1505 O 0.6989 0.81781 0.40914 0.0
O1506 O 0.69368 0.83471 0.42691 0.0
O1507 O 0.69027 0.84581 0.41487 0.0
H1508 H 0.67641 0.82211 0.40809 0.0
H1509 H 0.66066 0.81452 0.40175 0.0
H1510 H 0.67776 0.79794 0.37935 0.0
H1511 H 0.69327 0.8058 0.38543 0.0
H1512 H 0.74242 0.83121 0.38558 0.0
H1513 H 0.72591 0.83008 0.39419 0.0
H1514 H 0.75404 0.84862 0.41068 0.0
H1515 H 0.7377 0.84762 0.41902 0.0
H1516 H 0.6879 0.87148 0.44443 0.0
H1517 H 0.66128 0.85263 0.44308 0.0
H1518 H 0.66995 0.84101 0.43182 0.0
H1519 H 0.69663 0.8597 0.43273 0.0
C1520 C 0.91094 0.92624 0.11684 0.0
C1521 C 0.90805 0.91627 0.1189 0.0
C1522 C 0.92464 0.91029 0.11337 0.0
C1523 C 0.91484 0.90833 0.11709 0.0
C1524 C 0.92725 0.92028 0.11084 0.0
C1525 C 0.92043 0.92816 0.11253 0.0
U1526 U 0.89067 0.94579 0.12853 0.0
O1527 O 0.89703 0.95983 0.13468 0.0
O1528 O 0.88793 0.96039 0.12074 0.0
C1529 C 0.89348 0.96542 0.12728 0.0
C1530 C 0.90487 0.93497 0.12001 0.0
C1531 C 0.89114 0.97607 0.12953 0.0
C1532 C 0.89576 0.99364 0.12668 0.0
C1533 C 0.89642 0.98343 0.12405 0.0
C1534 C 0.88426 0.98933 0.14025 0.0
C1535 C 0.88994 0.99673 0.13502 0.0
C1536 C 0.88488 0.97906 0.13755 0.0
C1537 C 0.86889 0.93079 0.14336 0.0
C1538 C 0.8555 0.92705 0.15539 0.0
C1539 C 0.86501 0.91336 0.14775 0.0
C1540 C 0.8707 0.9204 0.14216 0.0
C1541 C 0.85751 0.91665 0.1546 0.0
C1542 C 0.86113 0.93402 0.14981 0.0
C1543 C 0.87522 0.9387 0.13874 0.0
O1544 O 0.89639 0.9372 0.11533 0.0
O1545 O 0.90515 0.93774 0.12956 0.0
O1546 O 0.88403 0.94063 0.14289 0.0
O1547 O 0.87498 0.94007 0.12888 0.0
H1548 H 0.90075 0.91467 0.12224 0.0
H1549 H 0.91259 0.90069 0.11904 0.0
H1550 H 0.93476 0.92211 0.10819 0.0
H1551 H 0.92278 0.93587 0.11095 0.0
H1552 H 0.89988 0.99909 0.12217 0.0
H1553 H 0.90131 0.98126 0.11784 0.0
H1554 H 0.87964 0.99143 0.14668 0.0
H1555 H 0.88077 0.97346 0.1419 0.0
H1556 H 0.84999 0.92986 0.16075 0.0
H1557 H 0.86672 0.90537 0.14701 0.0
H1558 H 0.87666 0.91776 0.13721 0.0
H1559 H 0.85967 0.94202 0.15086 0.0
C1560 C 0.81989 0.19133 0.9011 0.0
C1561 C 0.82915 0.18991 0.90612 0.0
C1562 C 0.83781 0.19889 0.89259 0.0
C1563 C 0.83809 0.19371 0.90187 0.0
C1564 C 0.82855 0.20047 0.88774 0.0
C1565 C 0.81967 0.19671 0.89197 0.0
U1566 U 0.80353 0.17473 0.9189 0.0
O1567 O 0.78789 0.17745 0.92409 0.0
O1568 O 0.79144 0.16421 0.91464 0.0
C1569 C 0.78442 0.1694 0.91937 0.0
C1570 C 0.81037 0.18689 0.90475 0.0
C1571 C 0.77447 0.17008 0.91436 0.0
C1572 C 0.76372 0.17235 0.89953 0.0
C1573 C 0.77313 0.17354 0.90438 0.0
C1574 C 0.75692 0.16477 0.91475 0.0
C1575 C 0.75559 0.16764 0.90459 0.0
C1576 C 0.76622 0.16596 0.91953 0.0
C1577 C 0.82004 0.16156 0.94074 0.0
C1578 C 0.82289 0.14531 0.94905 0.0
C1579 C 0.83341 0.15974 0.9531 0.0
C1580 C 0.82788 0.16573 0.94646 0.0
C1581 C 0.83132 0.14936 0.95411 0.0
C1582 C 0.81727 0.15139 0.94233 0.0
C1583 C 0.81651 0.16763 0.93207 0.0
O1584 O 0.80947 0.17706 0.90356 0.0
O1585 O 0.80693 0.19015 0.91349 0.0
O1586 O 0.81135 0.176 0.93365 0.0
O1587 O 0.8144 0.16304 0.92351 0.0
H1588 H 0.82947 0.18576 0.91319 0.0
H1589 H 0.84522 0.19251 0.90572 0.0
H1590 H 0.82822 0.2045 0.88061 0.0
H1591 H 0.8126 0.19786 0.888 0.0
H1592 H 0.76299 0.1746 0.89168 0.0
H1593 H 0.77942 0.17674 0.90022 0.0
H1594 H 0.75081 0.16128 0.91894 0.0
H1595 H 0.76709 0.16323 0.92722 0.0
H1596 H 0.82113 0.13732 0.94967 0.0
H1597 H 0.83981 0.1631 0.95696 0.0
H1598 H 0.83021 0.17352 0.9453 0.0
H1599 H 0.81124 0.14801 0.93795 0.0
C1600 C 0.87158 0.56099 0.93855 0.0
C1601 C 0.86745 0.56075 0.92881 0.0
C1602 C 0.88387 0.55571 0.9219 0.0
C1603 C 0.87352 0.55802 0.92056 0.0
C1604 C 0.88779 0.5557 0.93178 0.0
C1605 C 0.88167 0.55818 0.94 0.0
U1606 U 0.85376 0.57396 0.95983 0.0
O1607 O 0.85074 0.56587 0.97426 0.0
O1608 O 0.86211 0.57811 0.97357 0.0
C1609 C 0.85783 0.571 0.97901 0.0
C1610 C 0.86598 0.56471 0.94737 0.0
C1611 C 0.85802 0.57191 0.99012 0.0
C1612 C 0.86839 0.5707 0.00524 0.0
C1613 C 0.86688 0.56881 0.99498 0.0
C1614 C 0.85168 0.57801 0.00631 0.0
C1615 C 0.86095 0.57557 0.01111 0.0
C1616 C 0.85032 0.5764 0.99585 0.0
C1617 C 0.83452 0.5932 0.94674 0.0
C1618 C 0.82258 0.60688 0.94393 0.0
C1619 C 0.83273 0.60068 0.93001 0.0
C1620 C 0.83718 0.59347 0.93646 0.0
C1621 C 0.82567 0.60774 0.9338 0.0
C1622 C 0.82702 0.59976 0.95032 0.0
C1623 C 0.83995 0.58713 0.95435 0.0
O1624 O 0.86783 0.5738 0.95093 0.0
O1625 O 0.85708 0.56097 0.94979 0.0
O1626 O 0.83808 0.57737 0.9551 0.0
O1627 O 0.84938 0.58958 0.95622 0.0
H1628 H 0.85965 0.5629 0.92756 0.0
H1629 H 0.87016 0.55799 0.91309 0.0
H1630 H 0.89572 0.55436 0.9332 0.0
H1631 H 0.88498 0.55835 0.9475 0.0
H1632 H 0.87567 0.56873 0.00838 0.0
H1633 H 0.87292 0.5653 0.99068 0.0
H1634 H 0.84547 0.58122 0.01052 0.0
H1635 H 0.84336 0.57879 0.99225 0.0
H1636 H 0.81688 0.61188 0.94702 0.0
H1637 H 0.83518 0.60107 0.9222 0.0
H1638 H 0.84294 0.58843 0.93353 0.0
H1639 H 0.82483 0.59962 0.95822 0.0
C1640 C 0.37183 0.94956 0.06963 0.0
C1641 C 0.36793 0.94739 0.07928 0.0
C1642 C 0.38353 0.95358 0.08702 0.0
C1643 C 0.37375 0.94946 0.08796 0.0
C1644 C 0.38712 0.95614 0.07737 0.0
C1645 C 0.38134 0.95413 0.0688 0.0
U1646 U 0.35358 0.93621 0.04966 0.0
O1647 O 0.34854 0.94299 0.03509 0.0
O1648 O 0.35957 0.93033 0.03531 0.0
C1649 C 0.35397 0.93647 0.02988 0.0
C1650 C 0.3668 0.94674 0.06009 0.0
C1651 C 0.35583 0.93751 0.01894 0.0
C1652 C 0.36714 0.94111 0.00489 0.0
C1653 C 0.36468 0.942 0.01519 0.0
C1654 C 0.35173 0.93169 1.00196 0.0
C1655 C 0.36079 0.93574 0.99824 0.0
C1656 C 0.34929 0.93255 0.01222 0.0
C1657 C 0.33473 0.91712 0.06434 0.0
C1658 C 0.3232 0.90291 0.06572 0.0
C1659 C 0.33161 0.90937 0.08067 0.0
C1660 C 0.33636 0.91682 0.0748 0.0
C1661 C 0.32527 0.90211 0.07611 0.0
C1662 C 0.32795 0.9103 0.05989 0.0
C1663 C 0.34069 0.92356 0.05759 0.0
O1664 O 0.36859 0.93761 0.05657 0.0
O1665 O 0.35762 0.95005 0.0582 0.0
O1666 O 0.33852 0.9332 0.05633 0.0
O1667 O 0.35003 0.92102 0.05543 0.0
H1668 H 0.36059 0.94387 0.08009 0.0
H1669 H 0.37082 0.94745 0.09535 0.0
H1670 H 0.39455 0.95944 0.07644 0.0
H1671 H 0.38446 0.9559 0.06142 0.0
H1672 H 0.3742 0.94425 1.00218 0.0
H1673 H 0.36987 0.94577 0.02027 0.0
H1674 H 0.34681 0.92737 0.99703 0.0
H1675 H 0.34252 0.92888 0.01502 0.0
H1676 H 0.31809 0.89767 0.06204 0.0
H1677 H 0.3333 0.90898 0.08868 0.0
H1678 H 0.34159 0.92204 0.07833 0.0
H1679 H 0.32659 0.91047 0.0518 0.0
C1680 C 0.85605 0.64469 0.8427 0.0
C1681 C 0.8585 0.64125 0.85243 0.0
C1682 C 0.84364 0.64979 0.85914 0.0
C1683 C 0.85232 0.64385 0.86065 0.0
C1684 C 0.84142 0.65346 0.84946 0.0
C1685 C 0.84762 0.65098 0.84131 0.0
U1686 U 0.87348 0.63161 0.82132 0.0
O1687 O 0.86546 0.62798 0.80726 0.0
O1688 O 0.87692 0.64005 0.80727 0.0
C1689 C 0.87006 0.63507 0.80207 0.0
C1690 C 0.86136 0.64116 0.83364 0.0
C1691 C 0.87169 0.63316 0.79125 0.0
C1692 C 0.86579 0.63634 0.77414 0.0
C1693 C 0.86551 0.63845 0.78447 0.0
C1694 C 0.87867 0.62365 0.77715 0.0
C1695 C 0.87229 0.62886 0.77034 0.0
C1696 C 0.87837 0.62579 0.78756 0.0
C1697 C 0.89272 0.61211 0.83414 0.0
C1698 C 0.90208 0.59657 0.83699 0.0
C1699 C 0.89916 0.60813 0.85091 0.0
C1700 C 0.89393 0.6147 0.84437 0.0
C1701 C 0.90326 0.59895 0.84726 0.0
C1702 C 0.89692 0.60309 0.83053 0.0
C1703 C 0.88722 0.61837 0.82674 0.0
O1704 O 0.87033 0.64472 0.83128 0.0
O1705 O 0.85942 0.63206 0.83014 0.0
O1706 O 0.87783 0.61589 0.82469 0.0
O1707 O 0.88904 0.62815 0.82625 0.0
H1708 H 0.86493 0.63631 0.85359 0.0
H1709 H 0.85405 0.64086 0.86808 0.0
H1710 H 0.8347 0.65797 0.84816 0.0
H1711 H 0.8456 0.65363 0.83382 0.0
H1712 H 0.86085 0.64054 0.76913 0.0
H1713 H 0.86024 0.64411 0.7872 0.0
H1714 H 0.88364 0.61771 0.77447 0.0
H1715 H 0.88311 0.62153 0.79272 0.0
H1716 H 0.90481 0.58945 0.83397 0.0
H1717 H 0.8999 0.61013 0.85882 0.0
H1718 H 0.89075 0.62167 0.84731 0.0
H1719 H 0.89606 0.60096 0.82265 0.0
C1720 C 0.13633 0.07044 0.57476 0.0
C1721 C 0.14044 0.06685 0.58383 0.0
C1722 C 0.12348 0.06552 0.59103 0.0
C1723 C 0.13404 0.06426 0.59186 0.0
C1724 C 0.11944 0.06854 0.58168 0.0
C1725 C 0.12581 0.07093 0.57363 0.0
U1726 U 0.15637 0.08154 0.55442 0.0
O1727 O 0.15868 0.07313 0.54 0.0
O1728 O 0.14919 0.0868 0.54047 0.0
C1729 C 0.15262 0.07925 0.53501 0.0
C1730 C 0.14262 0.07374 0.56623 0.0
C1731 C 0.15405 0.08112 0.52409 0.0
C1732 C 0.14878 0.07686 0.50691 0.0
C1733 C 0.14938 0.07448 0.51723 0.0
C1734 C 0.15757 0.09258 0.51014 0.0
C1735 C 0.15279 0.08598 0.50319 0.0
C1736 C 0.15829 0.09012 0.52044 0.0
C1737 C 0.17767 0.09766 0.56875 0.0
C1738 C 0.18886 0.11169 0.57297 0.0
C1739 C 0.18402 0.09972 0.58593 0.0
C1740 C 0.17813 0.09438 0.57884 0.0
C1741 C 0.18946 0.10853 0.58311 0.0
C1742 C 0.18318 0.10626 0.56591 0.0
C1743 C 0.17172 0.09254 0.56075 0.0
O1744 O 0.14209 0.08309 0.56289 0.0
O1745 O 0.15102 0.06892 0.56396 0.0
O1746 O 0.17214 0.08261 0.55988 0.0
O1747 O 0.16286 0.09637 0.55843 0.0
H1748 H 0.14854 0.06619 0.58476 0.0
H1749 H 0.1374 0.06148 0.59879 0.0
H1750 H 0.11138 0.06953 0.58071 0.0
H1751 H 0.12251 0.07348 0.56656 0.0
H1752 H 0.14505 0.07158 0.50187 0.0
H1753 H 0.14584 0.06759 0.51993 0.0
H1754 H 0.1604 0.09987 0.50774 0.0
H1755 H 0.1617 0.09549 0.52562 0.0
H1756 H 0.19244 0.1186 0.57045 0.0
H1757 H 0.1843 0.09693 0.59363 0.0
H1758 H 0.17396 0.08774 0.58124 0.0
H1759 H 0.18293 0.10893 0.55816 0.0
C1760 C 0.16205 0.86625 0.83155 0.0
C1761 C 0.15958 0.87055 0.84094 0.0
C1762 C 0.17513 0.86379 0.84814 0.0
C1763 C 0.16612 0.86934 0.8492 0.0
C1764 C 0.17722 0.85897 0.83893 0.0
C1765 C 0.17073 0.86021 0.8307 0.0
U1766 U 0.14109 0.87893 0.81503 0.0
O1767 O 0.14422 0.8877 0.80118 0.0
O1768 O 0.1351 0.87355 0.80034 0.0
C1769 C 0.13914 0.88129 0.79555 0.0
C1770 C 0.15675 0.86901 0.82217 0.0
C1771 C 0.139 0.88217 0.78446 0.0
C1772 C 0.147 0.88068 0.76795 0.0
C1773 C 0.14713 0.87896 0.77844 0.0
C1774 C 0.13068 0.88882 0.76952 0.0
C1775 C 0.13878 0.8857 0.76338 0.0
C1776 C 0.13077 0.88699 0.77992 0.0
C1777 C 0.12004 0.89281 0.83229 0.0
C1778 C 0.10807 0.90676 0.83188 0.0
C1779 C 0.11134 0.89797 0.84764 0.0
C1780 C 0.11804 0.89155 0.84263 0.0
C1781 C 0.10644 0.90579 0.84238 0.0
C1782 C 0.11485 0.90031 0.82685 0.0
C1783 C 0.12849 0.88696 0.82802 0.0
O1784 O 0.14804 0.86464 0.82028 0.0
O1785 O 0.15692 0.87868 0.81984 0.0
O1786 O 0.13638 0.89182 0.82445 0.0
O1787 O 0.12702 0.87794 0.82408 0.0
H1788 H 0.15293 0.87528 0.84173 0.0
H1789 H 0.16442 0.87315 0.85626 0.0
H1790 H 0.18419 0.8548 0.83791 0.0
H1791 H 0.17279 0.85693 0.82348 0.0
H1792 H 0.15335 0.87818 0.76343 0.0
H1793 H 0.1536 0.87526 0.78184 0.0
H1794 H 0.12438 0.89297 0.76635 0.0
H1795 H 0.1245 0.88963 0.78449 0.0
H1796 H 0.10438 0.91276 0.82767 0.0
H1797 H 0.11045 0.89718 0.85575 0.0
H1798 H 0.12208 0.88588 0.84697 0.0
H1799 H 0.11633 0.90144 0.81887 0.0
C1800 C 0.63517 0.44129 0.43662 0.0
C1801 C 0.63845 0.43875 0.42683 0.0
C1802 C 0.62251 0.44489 0.41985 0.0
C1803 C 0.63212 0.44053 0.41848 0.0
C1804 C 0.61944 0.44773 0.42958 0.0
C1805 C 0.62572 0.44593 0.43787 0.0
U1806 U 0.65604 0.42891 0.45422 0.0
O1807 O 0.66161 0.43513 0.46883 0.0
O1808 O 0.65241 0.42114 0.46846 0.0
C1809 C 0.65765 0.42755 0.47393 0.0
C1810 C 0.64077 0.43857 0.44588 0.0
C1811 C 0.65595 0.42803 0.48496 0.0
C1812 C 0.645 0.42966 0.49972 0.0
C1813 C 0.64675 0.4311 0.4893 0.0
C1814 C 0.66171 0.42245 0.50151 0.0
C1815 C 0.65237 0.425 0.50588 0.0
C1816 C 0.66347 0.42396 0.49121 0.0
C1817 C 0.67658 0.41381 0.43693 0.0
C1818 C 0.68973 0.40113 0.43487 0.0
C1819 C 0.68239 0.40923 0.42013 0.0
C1820 C 0.67612 0.415 0.42641 0.0
C1821 C 0.68912 0.40216 0.42432 0.0
C1822 C 0.68351 0.40695 0.44114 0.0
C1823 C 0.66938 0.41908 0.44353 0.0
O1824 O 0.6404 0.42903 0.44868 0.0
O1825 O 0.64958 0.44286 0.44756 0.0
O1826 O 0.67054 0.42867 0.44593 0.0
O1827 O 0.66087 0.41488 0.44644 0.0
H1828 H 0.6457 0.43511 0.4257 0.0
H1829 H 0.63455 0.43821 0.411 0.0
H1830 H 0.61202 0.45095 0.43081 0.0
H1831 H 0.62303 0.44788 0.44537 0.0
H1832 H 0.63769 0.43163 0.50282 0.0
H1833 H 0.64081 0.43419 0.48459 0.0
H1834 H 0.66758 0.41894 0.50602 0.0
H1835 H 0.67059 0.42147 0.488 0.0
H1836 H 0.69489 0.3957 0.43821 0.0
H1837 H 0.68178 0.41006 0.412 0.0
H1838 H 0.67075 0.42021 0.42305 0.0
H1839 H 0.68394 0.40593 0.44927 0.0
C1840 C 0.85634 0.36467 0.66693 0.0
C1841 C 0.85895 0.36838 0.65737 0.0
C1842 C 0.84402 0.36028 0.65018 0.0
C1843 C 0.85284 0.36616 0.64902 0.0
C1844 C 0.84173 0.3562 0.6597 0.0
C1845 C 0.84786 0.35839 0.668 0.0
U1846 U 0.87367 0.37799 0.68806 0.0
O1847 O 0.8658 0.38185 0.70215 0.0
O1848 O 0.87732 0.36981 0.70221 0.0
C1849 C 0.87044 0.37479 0.70736 0.0
C1850 C 0.86143 0.36802 0.67617 0.0
C1851 C 0.87189 0.37661 0.71821 0.0
C1852 C 0.86489 0.37453 0.73505 0.0
C1853 C 0.86474 0.37233 0.72475 0.0
C1854 C 0.8797 0.38503 0.73254 0.0
C1855 C 0.87227 0.38099 0.739 0.0
C1856 C 0.87948 0.3829 0.72213 0.0
C1857 C 0.89289 0.397 0.67452 0.0
C1858 C 0.90567 0.40982 0.67148 0.0
C1859 C 0.89551 0.40366 0.65755 0.0
C1860 C 0.89046 0.39703 0.66418 0.0
C1861 C 0.90308 0.41027 0.66118 0.0
C1862 C 0.9006 0.40332 0.67805 0.0
C1863 C 0.88732 0.39112 0.68217 0.0
O1864 O 0.87052 0.36466 0.6784 0.0
O1865 O 0.85946 0.37716 0.67955 0.0
O1866 O 0.87788 0.39359 0.68401 0.0
O1867 O 0.88924 0.38139 0.68313 0.0
H1868 H 0.86544 0.37329 0.65645 0.0
H1869 H 0.85475 0.36938 0.64173 0.0
H1870 H 0.83491 0.35183 0.66085 0.0
H1871 H 0.8457 0.35555 0.67539 0.0
H1872 H 0.85911 0.37135 0.73992 0.0
H1873 H 0.85881 0.36748 0.72183 0.0
H1874 H 0.88543 0.39007 0.73551 0.0
H1875 H 0.88502 0.38632 0.71716 0.0
H1876 H 0.91152 0.41465 0.67455 0.0
H1877 H 0.89317 0.40392 0.64971 0.0
H1878 H 0.88449 0.39221 0.66132 0.0
H1879 H 0.90258 0.4034 0.68601 0.0
C1880 C 0.66216 0.64246 0.18008 0.0
C1881 C 0.65993 0.63765 0.17084 0.0
C1882 C 0.67448 0.6458 0.1629 0.0
C1883 C 0.66604 0.63933 0.1623 0.0
C1884 C 0.6763 0.65098 0.172 0.0
C1885 C 0.67019 0.64935 0.18047 0.0
U1886 U 0.64074 0.6301 0.19576 0.0
O1887 O 0.64194 0.62088 0.20958 0.0
O1888 O 0.63333 0.63519 0.20993 0.0
C1889 C 0.63627 0.62707 0.21489 0.0
C1890 C 0.65699 0.6398 0.18965 0.0
C1891 C 0.63751 0.62738 0.22602 0.0
C1892 C 0.64764 0.62718 0.24146 0.0
C1893 C 0.64689 0.62852 0.23089 0.0
C1894 C 0.62967 0.62391 0.24231 0.0
C1895 C 0.63902 0.62473 0.24723 0.0
C1896 C 0.62894 0.62523 0.23186 0.0
C1897 C 0.6203 0.61738 0.17734 0.0
C1898 C 0.60936 0.60259 0.17658 0.0
C1899 C 0.61093 0.61365 0.16203 0.0
C1900 C 0.61741 0.6199 0.16747 0.0
C1901 C 0.60714 0.60474 0.16638 0.0
C1902 C 0.61599 0.60886 0.18204 0.0
C1903 C 0.62899 0.62292 0.18152 0.0
O1904 O 0.64838 0.64437 0.19156 0.0
O1905 O 0.6569 0.63014 0.19201 0.0
O1906 O 0.63644 0.61772 0.18554 0.0
O1907 O 0.62765 0.63193 0.18551 0.0
H1908 H 0.65375 0.63229 0.17036 0.0
H1909 H 0.66451 0.63514 0.15542 0.0
H1910 H 0.6827 0.65604 0.17267 0.0
H1911 H 0.67203 0.65316 0.18749 0.0
H1912 H 0.65494 0.62785 0.24509 0.0
H1913 H 0.65363 0.63012 0.22654 0.0
H1914 H 0.62295 0.62186 0.24651 0.0
H1915 H 0.62167 0.62417 0.22826 0.0
H1916 H 0.6066 0.5957 0.18006 0.0
H1917 H 0.60934 0.61548 0.1542 0.0
H1918 H 0.62071 0.6264 0.1637 0.0
H1919 H 0.61817 0.60676 0.18965 0.0
C1920 C 0.58852 0.61112 0.90343 0.0
C1921 C 0.59869 0.61333 0.90158 0.0
C1922 C 0.60351 0.6048 0.91729 0.0
C1923 C 0.60612 0.61021 0.90845 0.0
C1924 C 0.59331 0.60243 0.91896 0.0
C1925 C 0.58589 0.60555 0.91209 0.0
U1926 U 0.56856 0.62458 0.8843 0.0
O1927 O 0.55418 0.61668 0.88093 0.0
O1928 O 0.55465 0.62902 0.89217 0.0
C1929 C 0.54923 0.62198 0.88775 0.0
C1930 C 0.58043 0.61533 0.89709 0.0
C1931 C 0.53829 0.6237 0.88682 0.0
C1932 C 0.52219 0.62417 0.89561 0.0
C1933 C 0.53252 0.62223 0.89557 0.0
C1934 C 0.52299 0.62846 0.87782 0.0
C1935 C 0.51721 0.62746 0.8868 0.0
C1936 C 0.53349 0.62678 0.87788 0.0
C1937 C 0.58213 0.64319 0.86448 0.0
C1938 C 0.58506 0.65794 0.85383 0.0
C1939 C 0.59926 0.64831 0.86019 0.0
C1940 C 0.5926 0.64162 0.86512 0.0
C1941 C 0.59556 0.6567 0.85464 0.0
C1942 C 0.57847 0.65123 0.85862 0.0
C1943 C 0.5746 0.63721 0.87015 0.0
O1944 O 0.57722 0.62463 0.89854 0.0
O1945 O 0.57803 0.61133 0.8883 0.0
O1946 O 0.57389 0.62738 0.86866 0.0
O1947 O 0.57249 0.64003 0.87945 0.0
H1948 H 0.60083 0.61774 0.895 0.0
H1949 H 0.61387 0.6124 0.90704 0.0
H1950 H 0.59104 0.59827 0.92565 0.0
H1951 H 0.57805 0.60385 0.91369 0.0
H1952 H 0.51819 0.62335 0.9027 0.0
H1953 H 0.53608 0.61977 0.90253 0.0
H1954 H 0.51947 0.63043 0.87071 0.0
H1955 H 0.5378 0.62784 0.87099 0.0
H1956 H 0.58187 0.66441 0.84995 0.0
H1957 H 0.60732 0.6471 0.86095 0.0
H1958 H 0.5956 0.63544 0.8696 0.0
H1959 H 0.57042 0.65259 0.85806 0.0
C1960 C 0.64128 0.35307 0.1552 0.0
C1961 C 0.64033 0.36322 0.15239 0.0
C1962 C 0.64573 0.36829 0.16929 0.0
C1963 C 0.64262 0.37081 0.1594 0.0
C1964 C 0.64713 0.35806 0.17182 0.0
C1965 C 0.64498 0.35053 0.16479 0.0
U1966 U 0.62828 0.33382 0.13553 0.0
O1967 O 0.63688 0.32026 0.13072 0.0
O1968 O 0.62483 0.31912 0.14226 0.0
C1969 C 0.63207 0.31453 0.13729 0.0
C1970 C 0.63771 0.34482 0.14882 0.0
C1971 C 0.63097 0.30369 0.13557 0.0
C1972 C 0.63631 0.28697 0.14079 0.0
C1973 C 0.63778 0.29738 0.14065 0.0
C1974 C 0.62127 0.28898 0.13049 0.0
C1975 C 0.628 0.28274 0.13584 0.0
C1976 C 0.62272 0.29949 0.13038 0.0
C1977 C 0.60788 0.34736 0.1177 0.0
C1978 C 0.59294 0.34915 0.10729 0.0
C1979 C 0.59964 0.36372 0.11622 0.0
C1980 C 0.6075 0.35771 0.1201 0.0
C1981 C 0.59212 0.35933 0.1101 0.0
C1982 C 0.60076 0.34324 0.11105 0.0
C1983 C 0.61467 0.34015 0.12268 0.0
O1984 O 0.62875 0.34093 0.15053 0.0
O1985 O 0.64111 0.3437 0.13953 0.0
O1986 O 0.62437 0.34012 0.12052 0.0
O1987 O 0.61249 0.33736 0.13198 0.0
H1988 H 0.63746 0.36525 0.14498 0.0
H1989 H 0.64151 0.37865 0.15724 0.0
H1990 H 0.64921 0.35582 0.17942 0.0
H1991 H 0.64571 0.34267 0.16705 0.0
H1992 H 0.64158 0.28223 0.14491 0.0
H1993 H 0.64407 0.30056 0.14483 0.0
H1994 H 0.61488 0.28574 0.12654 0.0
H1995 H 0.61733 0.30432 0.12653 0.0
H1996 H 0.58721 0.34564 0.1026 0.0
H1997 H 0.59906 0.37158 0.1185 0.0
H1998 H 0.61293 0.36099 0.12527 0.0
H1999 H 0.60095 0.33525 0.10915 0.0
C2000 C 0.94009 0.37755 0.43604 0.0
C2001 C 0.93076 0.37581 0.4313 0.0
C2002 C 0.92318 0.38941 0.44122 0.0
C2003 C 0.92235 0.38176 0.43386 0.0
C2004 C 0.93244 0.39093 0.44611 0.0
C2005 C 0.94082 0.38506 0.44351 0.0
U2006 U 0.95755 0.35802 0.4218 0.0
O2007 O 0.97225 0.36217 0.41511 0.0
O2008 O 0.9715 0.35108 0.42781 0.0
C2009 C 0.9771 0.35612 0.42132 0.0
C2010 C 0.94944 0.37235 0.43298 0.0
C2011 C 0.98812 0.35521 0.42116 0.0
C2012 C 1.00466 0.36224 0.42483 0.0
C2013 C 0.99416 0.36238 0.4261 0.0
C2014 C 1.0031 0.34767 0.4138 0.0
C2015 C 0.00924 0.35498 0.41853 0.0
C2016 C 0.99264 0.34775 0.41517 0.0
C2017 C 0.94061 0.33969 0.40391 0.0
C2018 C 0.93959 0.32789 0.38989 0.0
C2019 C 0.92429 0.33404 0.39789 0.0
C2020 C 0.93007 0.33974 0.40462 0.0
C2021 C 0.92898 0.32809 0.39043 0.0
C2022 C 0.94537 0.33369 0.39659 0.0
C2023 C 0.94646 0.34639 0.41048 0.0
O2024 O 0.95092 0.36307 0.43628 0.0
O2025 O 0.95244 0.37373 0.42361 0.0
O2026 O 0.9487 0.34396 0.41986 0.0
O2027 O 0.95011 0.35503 0.40717 0.0
H2028 H 0.93006 0.37007 0.42548 0.0
H2029 H 0.91524 0.3805 0.43001 0.0
H2030 H 0.93326 0.39684 0.45173 0.0
H2031 H 0.94799 0.38656 0.44718 0.0
H2032 H 0.00916 0.36796 0.42859 0.0
H2033 H 0.99074 0.36825 0.43069 0.0
H2034 H 0.0063 0.34217 0.40864 0.0
H2035 H 0.98805 0.34226 0.41119 0.0
H2036 H 0.94338 0.32335 0.38422 0.0
H2037 H 0.91614 0.33456 0.39833 0.0
H2038 H 0.92631 0.34443 0.4102 0.0
H2039 H 0.95353 0.3336 0.39595 0.0
C2040 C 0.86707 0.66657 0.66364 0.0
C2041 C 0.86964 0.65672 0.66074 0.0
C2042 C 0.8644 0.65059 0.67734 0.0
C2043 C 0.86818 0.64873 0.66754 0.0
C2044 C 0.86123 0.66039 0.6799 0.0
C2045 C 0.86256 0.66831 0.67308 0.0
U2046 U 0.87927 0.68609 0.644 0.0
O2047 O 0.87074 0.69963 0.6391 0.0
O2048 O 0.88301 0.70091 0.6504 0.0
C2049 C 0.87568 0.70543 0.6455 0.0
C2050 C 0.8698 0.67542 0.65765 0.0
C2051 C 0.87659 0.71627 0.64371 0.0
C2052 C 0.87275 0.73303 0.65002 0.0
C2053 C 0.87139 0.72262 0.6504 0.0
C2054 C 0.88432 0.73094 0.63592 0.0
C2055 C 0.87927 0.73727 0.64285 0.0
C2056 C 0.88305 0.72042 0.6364 0.0
C2057 C 0.89907 0.67222 0.62565 0.0
C2058 C 0.91258 0.67013 0.61341 0.0
C2059 C 0.90811 0.65628 0.6246 0.0
C2060 C 0.90046 0.66221 0.62893 0.0
C2061 C 0.91434 0.66032 0.61698 0.0
C2062 C 0.90499 0.67602 0.61772 0.0
C2063 C 0.89252 0.67945 0.63091 0.0
O2064 O 0.87879 0.67933 0.65913 0.0
O2065 O 0.86636 0.67642 0.64835 0.0
O2066 O 0.88278 0.67969 0.62894 0.0
O2067 O 0.89492 0.68213 0.64019 0.0
H2068 H 0.87309 0.65529 0.65345 0.0
H2069 H 0.87048 0.64118 0.66532 0.0
H2070 H 0.85834 0.66205 0.68739 0.0
H2071 H 0.86054 0.67592 0.67539 0.0
H2072 H 0.86872 0.73779 0.65534 0.0
H2073 H 0.86645 0.71947 0.65613 0.0
H2074 H 0.8894 0.73413 0.63034 0.0
H2075 H 0.88721 0.71556 0.63127 0.0
H2076 H 0.91743 0.67341 0.60767 0.0
H2077 H 0.90947 0.64872 0.62748 0.0
H2078 H 0.89598 0.65918 0.63509 0.0
H2079 H 0.90406 0.68377 0.61518 0.0
C2080 C 0.58823 0.39903 0.60585 0.0
C2081 C 0.59846 0.39796 0.60831 0.0
C2082 C 0.60325 0.40547 0.59208 0.0
C2083 C 0.60592 0.40114 0.60148 0.0
C2084 C 0.59296 0.40681 0.58984 0.0
C2085 C 0.58554 0.40361 0.59666 0.0
U2086 U 0.56814 0.38545 0.62484 0.0
O2087 O 0.55383 0.39353 0.62814 0.0
O2088 O 0.55411 0.38106 0.61708 0.0
C2089 C 0.54878 0.38823 0.62141 0.0
C2090 C 0.58024 0.39461 0.6122 0.0
C2091 C 0.53778 0.38671 0.62245 0.0
C2092 C 0.52135 0.38764 0.61421 0.0
C2093 C 0.53175 0.38942 0.61417 0.0
C2094 C 0.52269 0.38087 0.63117 0.0
C2095 C 0.51666 0.38314 0.62261 0.0
C2096 C 0.53319 0.38252 0.63105 0.0
C2097 C 0.58207 0.36714 0.64463 0.0
C2098 C 0.58526 0.35407 0.65721 0.0
C2099 C 0.59897 0.3601 0.6467 0.0
C2100 C 0.59233 0.36691 0.64187 0.0
C2101 C 0.59541 0.35341 0.65423 0.0
C2102 C 0.57871 0.36087 0.65248 0.0
C2103 C 0.57428 0.37289 0.63903 0.0
O2104 O 0.57686 0.38541 0.61059 0.0
O2105 O 0.57775 0.3986 0.62098 0.0
O2106 O 0.57333 0.38269 0.64055 0.0
O2107 O 0.57222 0.37006 0.62973 0.0
H2108 H 0.60066 0.39435 0.61533 0.0
H2109 H 0.61375 0.39978 0.60337 0.0
H2110 H 0.59065 0.41015 0.58273 0.0
H2111 H 0.57765 0.40446 0.59461 0.0
H2112 H 0.51706 0.38949 0.60748 0.0
H2113 H 0.53514 0.39274 0.60748 0.0
H2114 H 0.51931 0.37777 0.63796 0.0
H2115 H 0.53768 0.38046 0.63758 0.0
H2116 H 0.5823 0.3491 0.66302 0.0
H2117 H 0.60675 0.35971 0.64419 0.0
H2118 H 0.59509 0.37167 0.6358 0.0
H2119 H 0.57084 0.36092 0.65472 0.0
C2120 C 0.86834 0.34517 0.84651 0.0
C2121 C 0.86988 0.35551 0.84817 0.0
C2122 C 0.86355 0.35917 0.83136 0.0
C2123 C 0.8675 0.3625 0.84063 0.0
C2124 C 0.86143 0.34885 0.82995 0.0
C2125 C 0.86383 0.34185 0.8375 0.0
U2126 U 0.88026 0.32432 0.86559 0.0
O2127 O 0.87041 0.31123 0.86892 0.0
O2128 O 0.88275 0.3099 0.85782 0.0
C2129 C 0.87513 0.30544 0.86235 0.0
C2130 C 0.87276 0.33798 0.85363 0.0
C2131 C 0.87633 0.29465 0.86461 0.0
C2132 C 0.87205 0.27751 0.85967 0.0
C2133 C 0.87053 0.2879 0.85887 0.0
C2134 C 0.88503 0.28041 0.8723 0.0
C2135 C 0.87937 0.27372 0.86628 0.0
C2136 C 0.88357 0.2909 0.87141 0.0
C2137 C 0.89941 0.33716 0.88458 0.0
C2138 C 0.91098 0.3412 0.89824 0.0
C2139 C 0.90915 0.35278 0.88415 0.0
C2140 C 0.90187 0.34636 0.87982 0.0
C2141 C 0.91408 0.35002 0.8932 0.0
C2142 C 0.90378 0.33482 0.89393 0.0
C2143 C 0.89339 0.32916 0.87967 0.0
O2144 O 0.88119 0.33318 0.85151 0.0
O2145 O 0.86834 0.33556 0.86221 0.0
O2146 O 0.88359 0.329 0.8813 0.0
O2147 O 0.89595 0.32659 0.87041 0.0
H2148 H 0.87347 0.35812 0.85506 0.0
H2149 H 0.86936 0.3704 0.84179 0.0
H2150 H 0.8584 0.34618 0.82281 0.0
H2151 H 0.86264 0.33385 0.83612 0.0
H2152 H 0.86756 0.27242 0.85506 0.0
H2153 H 0.86496 0.2907 0.85354 0.0
H2154 H 0.89065 0.27752 0.87751 0.0
H2155 H 0.88817 0.29603 0.87585 0.0
H2156 H 0.91438 0.33902 0.90537 0.0
H2157 H 0.91134 0.35959 0.88013 0.0
H2158 H 0.89854 0.34833 0.87259 0.0
H2159 H 0.90195 0.32779 0.89773 0.0
C2160 C 0.94145 0.63135 0.07394 0.0
C2161 C 0.93179 0.63451 0.07705 0.0
C2162 C 0.92412 0.62001 0.06841 0.0
C2163 C 0.92319 0.62888 0.07429 0.0
C2164 C 0.93379 0.61697 0.06531 0.0
C2165 C 0.94233 0.62259 0.06801 0.0
U2166 U 0.95712 0.65206 0.088 0.0
O2167 O 0.97163 0.65028 0.09597 0.0
O2168 O 0.97068 0.66036 0.08266 0.0
C2169 C 0.97628 0.65679 0.09007 0.0
C2170 C 0.95083 0.63673 0.07687 0.0
C2171 C 0.9874 0.65627 0.08911 0.0
C2172 C 1.00318 0.64787 0.08463 0.0
C2173 C 0.99256 0.64847 0.08405 0.0
C2174 C 1.00346 0.66292 0.09505 0.0
C2175 C 0.00874 0.65491 0.09046 0.0
C2176 C 0.99297 0.6636 0.09433 0.0
C2177 C 0.93964 0.67061 0.10454 0.0
C2178 C 0.93865 0.67863 0.12115 0.0
C2179 C 0.92531 0.68123 0.10891 0.0
C2180 C 0.93046 0.67519 0.10197 0.0
C2181 C 0.9291 0.68275 0.11875 0.0
C2182 C 0.9439 0.67263 0.11408 0.0
C2183 C 0.94336 0.66257 0.09771 0.0
O2184 O 0.95211 0.64594 0.0733 0.0
O2185 O 0.95368 0.63582 0.08636 0.0
O2186 O 0.94792 0.65464 0.10162 0.0
O2187 O 0.94647 0.66496 0.08856 0.0
H2188 H 0.93092 0.64122 0.08168 0.0
H2189 H 0.91584 0.63134 0.07692 0.0
H2190 H 0.93476 0.61022 0.06075 0.0
H2191 H 0.94969 0.62002 0.06552 0.0
H2192 H 0.00699 0.64178 0.08069 0.0
H2193 H 0.98841 0.64275 0.0799 0.0
H2194 H 0.00736 0.66845 0.09966 0.0
H2195 H 0.98914 0.66968 0.09829 0.0
H2196 H 0.94179 0.67946 0.12866 0.0
H2197 H 0.91813 0.68442 0.10664 0.0
H2198 H 0.92698 0.67368 0.0947 0.0
H2199 H 0.95096 0.66912 0.11628 0.0
C2200 C 0.6415 0.6571 0.35493 0.0
C2201 C 0.64122 0.64699 0.35804 0.0
C2202 C 0.64558 0.64173 0.3409 0.0
C2203 C 0.64338 0.63932 0.35107 0.0
C2204 C 0.64656 0.65192 0.3381 0.0
C2205 C 0.64456 0.65954 0.34508 0.0
U2206 U 0.62864 0.67657 0.37454 0.0
O2207 O 0.63744 0.68994 0.37954 0.0
O2208 O 0.62578 0.6913 0.36764 0.0
C2209 C 0.63297 0.69575 0.3728 0.0
C2210 C 0.63798 0.66535 0.36134 0.0
C2211 C 0.63192 0.7066 0.3745 0.0
C2212 C 0.63735 0.72325 0.36914 0.0
C2213 C 0.63885 0.71285 0.36951 0.0
C2214 C 0.62202 0.72135 0.37903 0.0
C2215 C 0.62886 0.72753 0.37375 0.0
C2216 C 0.62353 0.71085 0.37939 0.0
C2217 C 0.60739 0.66345 0.39167 0.0
C2218 C 0.59115 0.66141 0.39993 0.0
C2219 C 0.60106 0.64663 0.39552 0.0
C2220 C 0.60866 0.65291 0.39154 0.0
C2221 C 0.59213 0.65084 0.3996 0.0
C2222 C 0.59872 0.66761 0.39608 0.0
C2223 C 0.61449 0.67062 0.38703 0.0
O2224 O 0.62916 0.66951 0.3595 0.0
O2225 O 0.64125 0.66633 0.3707 0.0
O2226 O 0.62415 0.67027 0.38937 0.0
O2227 O 0.61263 0.67364 0.37774 0.0
H2228 H 0.63897 0.64503 0.36567 0.0
H2229 H 0.64285 0.63151 0.35349 0.0
H2230 H 0.64821 0.65402 0.33035 0.0
H2231 H 0.64489 0.66737 0.34262 0.0
H2232 H 0.64268 0.72794 0.36503 0.0
H2233 H 0.64525 0.70962 0.36552 0.0
H2234 H 0.61547 0.72462 0.3827 0.0
H2235 H 0.61803 0.70607 0.38313 0.0
H2236 H 0.5843 0.66493 0.40269 0.0
H2237 H 0.60201 0.63849 0.39514 0.0
H2238 H 0.61533 0.64955 0.38818 0.0
H2239 H 0.59762 0.67574 0.39622 0.0
C2240 C 0.95006 0.56842 0.64845 0.0
C2241 C 0.95136 0.57741 0.65397 0.0
C2242 C 0.95506 0.5866 0.63828 0.0
C2243 C 0.95402 0.58639 0.64894 0.0
C2244 C 0.95395 0.57746 0.63295 0.0
C2245 C 0.95159 0.56851 0.63798 0.0
U2246 U 0.93563 0.54986 0.66659 0.0
O2247 O 0.92787 0.53615 0.66156 0.0
O2248 O 0.94083 0.53486 0.67202 0.0
C2249 C 0.93361 0.53019 0.66702 0.0
C2250 C 0.94713 0.55871 0.65305 0.0
C2251 C 0.93498 0.51975 0.66349 0.0
C2252 C 0.93828 0.5072 0.65044 0.0
C2253 C 0.9392 0.51716 0.65414 0.0
C2254 C 0.92879 0.50266 0.66534 0.0
C2255 C 0.93259 0.49972 0.65574 0.0
C2256 C 0.93021 0.51233 0.66918 0.0
C2257 C 0.91812 0.56612 0.68588 0.0
C2258 C 0.90518 0.5671 0.69887 0.0
C2259 C 0.91123 0.58237 0.69069 0.0
C2260 C 0.9179 0.57664 0.68488 0.0
C2261 C 0.9047 0.57768 0.69768 0.0
C2262 C 0.9118 0.56135 0.69294 0.0
C2263 C 0.92437 0.56013 0.67902 0.0
O2264 O 0.95026 0.55662 0.66227 0.0
O2265 O 0.93785 0.55574 0.65124 0.0
O2266 O 0.92137 0.55789 0.66982 0.0
O2267 O 0.93358 0.5573 0.68143 0.0
H2268 H 0.95034 0.57749 0.6621 0.0
H2269 H 0.95529 0.59311 0.65344 0.0
H2270 H 0.95457 0.5772 0.62479 0.0
H2271 H 0.95072 0.56162 0.6336 0.0
H2272 H 0.94183 0.50567 0.64327 0.0
H2273 H 0.94293 0.52286 0.64958 0.0
H2274 H 0.92403 0.49809 0.66999 0.0
H2275 H 0.92678 0.51424 0.67639 0.0
H2276 H 0.90048 0.56326 0.70437 0.0
H2277 H 0.91101 0.59047 0.68948 0.0
H2278 H 0.9227 0.5804 0.67941 0.0
H2279 H 0.91189 0.55319 0.69377 0.0
C2280 C 0.69052 0.6858 0.8819 0.0
C2281 C 0.6808 0.68262 0.8847 0.0
C2282 C 0.67376 0.69111 0.86984 0.0
C2283 C 0.67246 0.68531 0.87872 0.0
C2284 C 0.68349 0.69438 0.86724 0.0
C2285 C 0.69177 0.69172 0.8732 0.0
U2286 U 0.70819 0.67235 0.90202 0.0
O2287 O 0.72317 0.6664 0.89771 0.0
O2288 O 0.72191 0.67906 0.90879 0.0
C2289 C 0.72777 0.67281 0.90373 0.0
C2290 C 0.69966 0.68292 0.88751 0.0
C2291 C 0.73879 0.67311 0.90462 0.0
C2292 C 0.75518 0.67456 0.89647 0.0
C2293 C 0.74472 0.67611 0.89635 0.0
C2294 C 0.75386 0.66737 0.91331 0.0
C2295 C 0.75975 0.66981 0.90481 0.0
C2296 C 0.74344 0.66904 0.91322 0.0
C2297 C 0.69126 0.65425 0.91998 0.0
C2298 C 0.6883 0.64226 0.93357 0.0
C2299 C 0.67472 0.64672 0.92209 0.0
C2300 C 0.6812 0.65329 0.9169 0.0
C2301 C 0.67822 0.64111 0.93048 0.0
C2302 C 0.69475 0.64876 0.92834 0.0
C2303 C 0.69854 0.66037 0.91434 0.0
O2304 O 0.70081 0.68639 0.89678 0.0
O2305 O 0.70294 0.67362 0.8863 0.0
O2306 O 0.70163 0.65741 0.90536 0.0
O2307 O 0.69987 0.67003 0.91635 0.0
H2308 H 0.6797 0.67802 0.8914 0.0
H2309 H 0.66502 0.68269 0.8809 0.0
H2310 H 0.68471 0.69903 0.8606 0.0
H2311 H 0.69922 0.69426 0.87094 0.0
H2312 H 0.75958 0.67641 0.88981 0.0
H2313 H 0.74121 0.6792 0.88962 0.0
H2314 H 0.75724 0.66366 0.91979 0.0
H2315 H 0.73895 0.66659 0.91963 0.0
H2316 H 0.69122 0.6381 0.94 0.0
H2317 H 0.66707 0.64581 0.91934 0.0
H2318 H 0.67843 0.65742 0.91038 0.0
H2319 H 0.70255 0.64938 0.93075 0.0
C2320 C 0.55523 0.44766 0.1489 0.0
C2321 C 0.55936 0.43815 0.15119 0.0
C2322 C 0.55016 0.43081 0.137 0.0
C2323 C 0.55681 0.42973 0.14523 0.0
C2324 C 0.54576 0.44023 0.13503 0.0
C2325 C 0.54827 0.44859 0.14096 0.0
U2326 U 0.5699 0.46768 0.16608 0.0
O2327 O 0.57559 0.48163 0.15919 0.0
O2328 O 0.56338 0.48247 0.17072 0.0
C2329 C 0.56968 0.48733 0.16475 0.0
C2330 C 0.55875 0.45707 0.15362 0.0
C2331 C 0.56857 0.49805 0.16227 0.0
C2332 C 0.56566 0.51124 0.14981 0.0
C2333 C 0.56431 0.50123 0.15308 0.0
C2334 C 0.57502 0.51495 0.16514 0.0
C2335 C 0.57145 0.51801 0.15562 0.0
C2336 C 0.57359 0.50504 0.16843 0.0
C2337 C 0.58913 0.45331 0.18473 0.0
C2338 C 0.60479 0.45031 0.19378 0.0
C2339 C 0.59288 0.43661 0.19122 0.0
C2340 C 0.58638 0.44318 0.18606 0.0
C2341 C 0.60224 0.44007 0.19498 0.0
C2342 C 0.59825 0.45687 0.18878 0.0
C2343 C 0.58298 0.46049 0.17901 0.0
O2344 O 0.55577 0.45937 0.16284 0.0
O2345 O 0.56798 0.46004 0.15148 0.0
O2346 O 0.58523 0.46223 0.16949 0.0
O2347 O 0.57338 0.46172 0.18129 0.0
H2348 H 0.56482 0.43733 0.15724 0.0
H2349 H 0.56034 0.42249 0.14676 0.0
H2350 H 0.54075 0.44123 0.12863 0.0
H2351 H 0.54511 0.45591 0.13904 0.0
H2352 H 0.56284 0.51347 0.14244 0.0
H2353 H 0.56049 0.49587 0.1482 0.0
H2354 H 0.57945 0.52007 0.16976 0.0
H2355 H 0.57702 0.50265 0.17548 0.0
H2356 H 0.61203 0.4532 0.19627 0.0
H2357 H 0.59066 0.42876 0.19209 0.0
H2358 H 0.57934 0.44034 0.183 0.0
H2359 H 0.60045 0.46472 0.18779 0.0
C2360 C 0.83744 0.35625 0.36024 0.0
C2361 C 0.84756 0.35904 0.36145 0.0
C2362 C 0.85292 0.34266 0.35465 0.0
C2363 C 0.85525 0.35229 0.35865 0.0
C2364 C 0.84276 0.34016 0.35296 0.0
C2365 C 0.8351 0.34691 0.35574 0.0
U2366 U 0.81795 0.37559 0.37396 0.0
O2367 O 0.80363 0.37922 0.36602 0.0
O2368 O 0.80378 0.36855 0.37889 0.0
C2369 C 0.79849 0.37282 0.37165 0.0
C2370 C 0.82911 0.3624 0.3643 0.0
C2371 C 0.78755 0.37401 0.37312 0.0
C2372 C 0.77083 0.36792 0.36858 0.0
C2373 C 0.7812 0.36838 0.36677 0.0
C2374 C 0.77289 0.3791 0.38296 0.0
C2375 C 0.76656 0.37312 0.37679 0.0
C2376 C 0.78335 0.37949 0.38118 0.0
C2377 C 0.83246 0.39533 0.39191 0.0
C2378 C 0.83586 0.40783 0.40503 0.0
C2379 C 0.84927 0.39683 0.39917 0.0
C2380 C 0.8426 0.39227 0.39225 0.0
C2381 C 0.84583 0.40437 0.40591 0.0
C2382 C 0.82926 0.40334 0.39811 0.0
C2383 C 0.82462 0.38975 0.38625 0.0
O2384 O 0.82604 0.361 0.37365 0.0
O2385 O 0.82703 0.37139 0.36053 0.0
O2386 O 0.8236 0.3912 0.37645 0.0
O2387 O 0.82252 0.38048 0.38918 0.0
H2388 H 0.8495 0.36622 0.3649 0.0
H2389 H 0.86303 0.35442 0.36002 0.0
H2390 H 0.84071 0.33277 0.35006 0.0
H2391 H 0.8273 0.34464 0.35476 0.0
H2392 H 0.76619 0.36322 0.36373 0.0
H2393 H 0.78433 0.364 0.36059 0.0
H2394 H 0.76977 0.38336 0.38923 0.0
H2395 H 0.78814 0.38384 0.3862 0.0
H2396 H 0.83299 0.41358 0.41013 0.0
H2397 H 0.85698 0.39413 0.39958 0.0
H2398 H 0.84524 0.38612 0.38751 0.0
H2399 H 0.82145 0.40579 0.39798 0.0
C2400 C 0.95018 0.44027 0.86026 0.0
C2401 C 0.94733 0.43064 0.85675 0.0
C2402 C 0.95598 0.42283 0.87111 0.0
C2403 C 0.95028 0.42194 0.86215 0.0
C2404 C 0.959 0.43246 0.87436 0.0
C2405 C 0.95617 0.44106 0.86895 0.0
U2406 U 0.93533 0.45948 0.84254 0.0
O2407 O 0.92829 0.47338 0.8481 0.0
O2408 O 0.94116 0.47444 0.83755 0.0
C2409 C 0.93422 0.47929 0.84277 0.0
C2410 C 0.94666 0.4498 0.85567 0.0
C2411 C 0.93628 0.48944 0.84686 0.0
C2412 C 0.93669 0.50099 0.86118 0.0
C2413 C 0.93776 0.49118 0.85723 0.0
C2414 C 0.93358 0.50743 0.84431 0.0
C2415 C 0.93402 0.50912 0.85481 0.0
C2416 C 0.9346 0.49768 0.84041 0.0
C2417 C 0.91757 0.44397 0.8231 0.0
C2418 C 0.90395 0.44196 0.811 0.0
C2419 C 0.91201 0.42719 0.81834 0.0
C2420 C 0.91845 0.43345 0.82392 0.0
C2421 C 0.90466 0.4314 0.81187 0.0
C2422 C 0.91037 0.44819 0.81657 0.0
C2423 C 0.92348 0.4508 0.82945 0.0
O2424 O 0.9498 0.45218 0.84653 0.0
O2425 O 0.93729 0.45251 0.85751 0.0
O2426 O 0.92068 0.45257 0.83881 0.0
O2427 O 0.933 0.45278 0.82739 0.0
H2428 H 0.94266 0.42988 0.85007 0.0
H2429 H 0.94778 0.41456 0.85956 0.0
H2430 H 0.96338 0.43334 0.88123 0.0
H2431 H 0.95844 0.44843 0.87177 0.0
H2432 H 0.93721 0.50205 0.86928 0.0
H2433 H 0.93905 0.4849 0.86235 0.0
H2434 H 0.93195 0.51358 0.83914 0.0
H2435 H 0.9334 0.49648 0.83238 0.0
H2436 H 0.89836 0.44539 0.80607 0.0
H2437 H 0.91256 0.41907 0.81933 0.0
H2438 H 0.92391 0.43011 0.82903 0.0
H2439 H 0.90958 0.45634 0.81593 0.0
C2440 C 0.8363 0.65498 0.14951 0.0
C2441 C 0.84636 0.65217 0.14754 0.0
C2442 C 0.85231 0.66821 0.1548 0.0
C2443 C 0.85433 0.65875 0.15022 0.0
C2444 C 0.84227 0.67061 0.1572 0.0
C2445 C 0.8344 0.66412 0.15452 0.0
U2446 U 0.81852 0.63494 0.13531 0.0
O2447 O 0.8041 0.62889 0.14151 0.0
O2448 O 0.80409 0.63974 0.12867 0.0
C2449 C 0.79881 0.63392 0.13473 0.0
C2450 C 0.82739 0.64915 0.14607 0.0
C2451 C 0.78775 0.63506 0.1353 0.0
C2452 C 0.77265 0.64542 0.13726 0.0
C2453 C 0.78314 0.64412 0.13831 0.0
C2454 C 0.77125 0.6283 0.13103 0.0
C2455 C 0.7664 0.63756 0.13347 0.0
C2456 C 0.78171 0.62718 0.13172 0.0
C2457 C 0.83441 0.6154 0.11749 0.0
C2458 C 0.83574 0.60537 0.1021 0.0
C2459 C 0.8506 0.6086 0.11229 0.0
C2460 C 0.84473 0.61401 0.11922 0.0
C2461 C 0.84624 0.60449 0.10347 0.0
C2462 C 0.82987 0.61081 0.10906 0.0
C2463 C 0.82865 0.62244 0.12389 0.0
O2464 O 0.8244 0.65045 0.13669 0.0
O2465 O 0.82584 0.63994 0.14954 0.0
O2466 O 0.82662 0.62042 0.13342 0.0
O2467 O 0.8255 0.63126 0.12055 0.0
H2468 H 0.84802 0.64511 0.14372 0.0
H2469 H 0.862 0.65663 0.14834 0.0
H2470 H 0.84044 0.67763 0.16101 0.0
H2471 H 0.82671 0.66639 0.15619 0.0
H2472 H 0.76979 0.65285 0.13896 0.0
H2473 H 0.78771 0.65035 0.14104 0.0
H2474 H 0.76708 0.62174 0.12854 0.0
H2475 H 0.78513 0.62013 0.12929 0.0
H2476 H 0.83214 0.60247 0.09534 0.0
H2477 H 0.85865 0.60799 0.11362 0.0
H2478 H 0.84836 0.61751 0.12569 0.0
H2479 H 0.82188 0.61181 0.10763 0.0
C2480 C 0.55465 0.5611 0.36203 0.0
C2481 C 0.55875 0.57059 0.3595 0.0
C2482 C 0.54921 0.57843 0.37325 0.0
C2483 C 0.55602 0.57923 0.36511 0.0
C2484 C 0.5449 0.56902 0.37548 0.0
C2485 C 0.54757 0.56046 0.36989 0.0
U2486 U 0.5697 0.54244 0.34406 0.0
O2487 O 0.57719 0.52854 0.34917 0.0
O2488 O 0.56432 0.52749 0.3386 0.0
C2489 C 0.57144 0.52267 0.3436 0.0
C2490 C 0.55814 0.55149 0.35749 0.0
C2491 C 0.56997 0.51214 0.34697 0.0
C2492 C 0.56556 0.49952 0.35968 0.0
C2493 C 0.56481 0.50947 0.35589 0.0
C2494 C 0.57621 0.49492 0.3455 0.0
C2495 C 0.57159 0.4923 0.35468 0.0
C2496 C 0.57535 0.50471 0.34168 0.0
C2497 C 0.58742 0.55813 0.32436 0.0
C2498 C 0.60272 0.55888 0.31419 0.0
C2499 C 0.59312 0.57416 0.31751 0.0
C2500 C 0.58604 0.56854 0.32295 0.0
C2501 C 0.60164 0.56942 0.31331 0.0
C2502 C 0.59565 0.55325 0.31974 0.0
C2503 C 0.58084 0.55279 0.33152 0.0
O2504 O 0.555 0.54914 0.34835 0.0
O2505 O 0.56755 0.54887 0.35924 0.0
O2506 O 0.58406 0.55014 0.34054 0.0
O2507 O 0.57158 0.55004 0.32922 0.0
H2508 H 0.56427 0.57125 0.35349 0.0
H2509 H 0.55949 0.58645 0.36335 0.0
H2510 H 0.53973 0.56823 0.38179 0.0
H2511 H 0.54438 0.5532 0.372 0.0
H2512 H 0.562 0.49766 0.36683 0.0
H2513 H 0.56069 0.51513 0.36013 0.0
H2514 H 0.58093 0.48952 0.34155 0.0
H2515 H 0.57944 0.50664 0.33484 0.0
H2516 H 0.60936 0.55515 0.31119 0.0
H2517 H 0.59229 0.58231 0.31712 0.0
H2518 H 0.57979 0.57242 0.32655 0.0
H2519 H 0.59685 0.54521 0.3208 0.0
C2520 C 0.69151 0.32382 0.628 0.0
C2521 C 0.68218 0.32837 0.6258 0.0
C2522 C 0.6742 0.31887 0.63958 0.0
C2523 C 0.6736 0.32591 0.63155 0.0
C2524 C 0.68354 0.31419 0.64151 0.0
C2525 C 0.69208 0.3167 0.63583 0.0
U2526 U 0.70785 0.33782 0.60776 0.0
O2527 O 0.72269 0.34478 0.61025 0.0
O2528 O 0.72123 0.33206 0.5994 0.0
C2529 C 0.72712 0.33894 0.60353 0.0
C2530 C 0.70091 0.32651 0.62262 0.0
C2531 C 0.73819 0.33782 0.60376 0.0
C2532 C 0.75411 0.33663 0.61292 0.0
C2533 C 0.74356 0.33538 0.61261 0.0
C2534 C 0.75394 0.3422 0.59545 0.0
C2535 C 0.7593 0.34049 0.60446 0.0
C2536 C 0.7435 0.34086 0.59512 0.0
C2537 C 0.68948 0.35563 0.59076 0.0
C2538 C 0.68815 0.3677 0.5769 0.0
C2539 C 0.67348 0.36369 0.5871 0.0
C2540 C 0.67923 0.35698 0.59281 0.0
C2541 C 0.67779 0.36906 0.57898 0.0
C2542 C 0.69399 0.36102 0.58278 0.0
C2543 C 0.69516 0.34884 0.59746 0.0
O2544 O 0.70191 0.32322 0.61328 0.0
O2545 O 0.70417 0.33582 0.62387 0.0
O2546 O 0.69961 0.35222 0.60567 0.0
O2547 O 0.69775 0.33967 0.59458 0.0
H2548 H 0.68157 0.3339 0.61977 0.0
H2549 H 0.66653 0.32968 0.62984 0.0
H2550 H 0.68425 0.30849 0.64736 0.0
H2551 H 0.69921 0.31307 0.63761 0.0
H2552 H 0.7581 0.3353 0.61995 0.0
H2553 H 0.73959 0.33306 0.61938 0.0
H2554 H 0.75776 0.34518 0.58884 0.0
H2555 H 0.73948 0.34284 0.58825 0.0
H2556 H 0.69172 0.37176 0.57075 0.0
H2557 H 0.66568 0.36485 0.58926 0.0
H2558 H 0.67568 0.35297 0.59902 0.0
H2559 H 0.70195 0.36013 0.58116 0.0
C2560 C 0.61566 0.91569 0.58914 0.0
C2561 C 0.61651 0.91159 0.59892 0.0
C2562 C 0.61315 0.92825 0.60631 0.0
C2563 C 0.61513 0.9178 0.60744 0.0
C2564 C 0.61185 0.93213 0.5965 0.0
C2565 C 0.61308 0.92592 0.58804 0.0
U2566 U 0.63 0.89482 0.57471 0.0
O2567 O 0.62546 0.88537 0.56166 0.0
O2568 O 0.63815 0.8961 0.56029 0.0
C2569 C 0.6326 0.88915 0.55586 0.0
C2570 C 0.61806 0.90983 0.57993 0.0
C2571 C 0.63074 0.89025 0.54493 0.0
C2572 C 0.62508 0.89937 0.52991 0.0
C2573 C 0.62559 0.89848 0.54053 0.0
C2574 C 0.63472 0.88387 0.52821 0.0
C2575 C 0.62969 0.89204 0.5237 0.0
C2576 C 0.6352 0.88298 0.53868 0.0
C2577 C 0.64817 0.87883 0.59239 0.0
C2578 C 0.66307 0.86845 0.58944 0.0
C2579 C 0.65777 0.87231 0.60657 0.0
C2580 C 0.64957 0.87769 0.60281 0.0
C2581 C 0.66479 0.86785 0.59996 0.0
C2582 C 0.65482 0.87399 0.58565 0.0
C2583 C 0.64043 0.88613 0.58918 0.0
O2584 O 0.62726 0.91112 0.57644 0.0
O2585 O 0.61504 0.90035 0.57956 0.0
O2586 O 0.63164 0.88268 0.58611 0.0
O2587 O 0.64353 0.89419 0.58427 0.0
H2588 H 0.61848 0.9037 0.59998 0.0
H2589 H 0.61591 0.91449 0.6149 0.0
H2590 H 0.6104 0.94011 0.59531 0.0
H2591 H 0.61239 0.92922 0.58056 0.0
H2592 H 0.62111 0.90572 0.52656 0.0
H2593 H 0.62215 0.90422 0.54526 0.0
H2594 H 0.63842 0.87818 0.5236 0.0
H2595 H 0.63931 0.87666 0.54191 0.0
H2596 H 0.66826 0.86493 0.58417 0.0
H2597 H 0.65892 0.87211 0.61468 0.0
H2598 H 0.64455 0.88143 0.60811 0.0
H2599 H 0.65384 0.87478 0.57755 0.0
C2600 C 0.11599 0.59531 0.4175 0.0
C2601 C 0.11773 0.59853 0.40755 0.0
C2602 C 0.11343 0.58161 0.40147 0.0
C2603 C 0.11638 0.5917 0.39955 0.0
C2604 C 0.11134 0.57865 0.41144 0.0
C2605 C 0.11254 0.58547 0.41935 0.0
U2606 U 0.12879 0.61567 0.43538 0.0
O2607 O 0.12174 0.62192 0.4491 0.0
O2608 O 0.13412 0.61049 0.45033 0.0
C2609 C 0.12748 0.61624 0.45492 0.0
C2610 C 0.11846 0.60142 0.42636 0.0
C2611 C 0.12687 0.61686 0.46588 0.0
C2612 C 0.12519 0.60802 0.48182 0.0
C2613 C 0.1241 0.60824 0.47135 0.0
C2614 C 0.13127 0.62535 0.48145 0.0
C2615 C 0.12912 0.61646 0.48696 0.0
C2616 C 0.1303 0.6255 0.47095 0.0
C2617 C 0.14858 0.6334 0.42023 0.0
C2618 C 0.16206 0.64577 0.41927 0.0
C2619 C 0.1583 0.63511 0.40481 0.0
C2620 C 0.15046 0.63052 0.41022 0.0
C2621 C 0.16439 0.64252 0.40944 0.0
C2622 C 0.15422 0.64121 0.42464 0.0
C2623 C 0.14168 0.62767 0.42665 0.0
O2624 O 0.1275 0.60001 0.43019 0.0
O2625 O 0.11522 0.61082 0.42695 0.0
O2626 O 0.1321 0.63014 0.42759 0.0
O2627 O 0.14411 0.6185 0.42967 0.0
H2628 H 0.12044 0.60611 0.40603 0.0
H2629 H 0.11805 0.59417 0.39191 0.0
H2630 H 0.10938 0.5709 0.41323 0.0
H2631 H 0.11125 0.58287 0.42703 0.0
H2632 H 0.12337 0.6011 0.48582 0.0
H2633 H 0.12148 0.60152 0.46745 0.0
H2634 H 0.13384 0.63214 0.48523 0.0
H2635 H 0.1325 0.63222 0.46678 0.0
H2636 H 0.16652 0.65159 0.42293 0.0
H2637 H 0.15996 0.63248 0.39723 0.0
H2638 H 0.14617 0.62446 0.40675 0.0
H2639 H 0.15284 0.64348 0.4324 0.0
C2640 C 0.69981 0.89896 0.6908 0.0
C2641 C 0.69506 0.90118 0.68156 0.0
C2642 C 0.70498 0.88797 0.67316 0.0
C2643 C 0.69766 0.89574 0.67279 0.0
C2644 C 0.71008 0.88626 0.68233 0.0
C2645 C 0.70747 0.89165 0.69103 0.0
U2646 U 0.68514 0.91676 0.7098 0.0
O2647 O 0.67775 0.91185 0.72376 0.0
O2648 O 0.69077 0.92218 0.72466 0.0
C2649 C 0.68376 0.91716 0.72961 0.0
C2650 C 0.69649 0.90327 0.70056 0.0
C2651 C 0.686 0.91295 0.73969 0.0
C2652 C 0.68665 0.89851 0.75112 0.0
C2653 C 0.68747 0.90254 0.74132 0.0
C2654 C 0.6839 0.91536 0.75779 0.0
C2655 C 0.68428 0.90483 0.75939 0.0
C2656 C 0.68463 0.91934 0.74803 0.0
C2657 C 0.66768 0.93694 0.69441 0.0
C2658 C 0.65107 0.94404 0.69104 0.0
C2659 C 0.66534 0.94876 0.6806 0.0
C2660 C 0.67166 0.94264 0.68644 0.0
C2661 C 0.65488 0.94911 0.68251 0.0
C2662 C 0.65742 0.93796 0.69694 0.0
C2663 C 0.67415 0.92971 0.69983 0.0
O2664 O 0.69977 0.91233 0.70305 0.0
O2665 O 0.68707 0.9016 0.70322 0.0
O2666 O 0.6708 0.9207 0.70239 0.0
O2667 O 0.68358 0.93167 0.70225 0.0
H2668 H 0.68914 0.90683 0.6812 0.0
H2669 H 0.69364 0.8973 0.66582 0.0
H2670 H 0.716 0.88063 0.68284 0.0
H2671 H 0.71127 0.88987 0.69808 0.0
H2672 H 0.68713 0.89039 0.7521 0.0
H2673 H 0.68854 0.89746 0.73497 0.0
H2674 H 0.68255 0.92051 0.76401 0.0
H2675 H 0.68349 0.9274 0.74694 0.0
H2676 H 0.64308 0.94427 0.6928 0.0
H2677 H 0.6686 0.95292 0.67434 0.0
H2678 H 0.67959 0.94209 0.68448 0.0
H2679 H 0.65427 0.93379 0.70326 0.0
C2680 C 0.39039 0.40424 0.90524 0.0
C2681 C 0.38794 0.40312 0.89499 0.0
C2682 C 0.39483 0.41981 0.89153 0.0
C2683 C 0.39017 0.41087 0.88816 0.0
C2684 C 0.398 0.42052 0.90165 0.0
C2685 C 0.39573 0.41279 0.90849 0.0
U2686 U 0.37798 0.3853 0.92596 0.0
O2687 O 0.38753 0.38158 0.93919 0.0
O2688 O 0.37556 0.39311 0.94037 0.0
C2689 C 0.38298 0.38834 0.94491 0.0
C2690 C 0.38593 0.39742 0.9127 0.0
C2691 C 0.38167 0.38629 0.95573 0.0
C2692 C 0.3857 0.3917 0.9728 0.0
C2693 C 0.38742 0.39216 0.96242 0.0
C2694 C 0.37266 0.37911 0.97004 0.0
C2695 C 0.37824 0.38528 0.97666 0.0
C2696 C 0.37431 0.37966 0.95956 0.0
C2697 C 0.35813 0.36719 0.91294 0.0
C2698 C 0.34553 0.35443 0.90899 0.0
C2699 C 0.34841 0.3683 0.89734 0.0
C2700 C 0.35602 0.37208 0.90372 0.0
C2701 C 0.34279 0.35969 0.90018 0.0
C2702 C 0.35307 0.35819 0.91531 0.0
C2703 C 0.36438 0.37174 0.92095 0.0
O2704 O 0.37737 0.39955 0.91726 0.0
O2705 O 0.39004 0.38863 0.91491 0.0
O2706 O 0.37412 0.36977 0.92103 0.0
O2707 O 0.36214 0.38104 0.92366 0.0
H2708 H 0.38373 0.39658 0.89242 0.0
H2709 H 0.38761 0.41019 0.8804 0.0
H2710 H 0.40171 0.4273 0.90439 0.0
H2711 H 0.39762 0.41375 0.91641 0.0
H2712 H 0.39012 0.39644 0.97781 0.0
H2713 H 0.39307 0.39737 0.95957 0.0
H2714 H 0.36691 0.37406 0.97298 0.0
H2715 H 0.36973 0.37514 0.95448 0.0
H2716 H 0.34154 0.34764 0.91123 0.0
H2717 H 0.34649 0.37246 0.89055 0.0
H2718 H 0.35986 0.37904 0.90174 0.0
H2719 H 0.35461 0.3543 0.92237 0.0
C2720 C 0.30494 0.61218 0.69863 0.0
C2721 C 0.30839 0.60898 0.6891 0.0
C2722 C 0.29945 0.62306 0.68113 0.0
C2723 C 0.3056 0.61439 0.68037 0.0
C2724 C 0.29581 0.62598 0.69065 0.0
C2725 C 0.29851 0.62057 0.69929 0.0
U2726 U 0.32009 0.59461 0.71749 0.0
O2727 O 0.32699 0.60002 0.73155 0.0
O2728 O 0.31449 0.58896 0.73228 0.0
C2729 C 0.32133 0.59419 0.73725 0.0
C2730 C 0.30833 0.60766 0.70822 0.0
C2731 C 0.31963 0.59733 0.74777 0.0
C2732 C 0.31524 0.60997 0.76043 0.0
C2733 C 0.31459 0.6063 0.75045 0.0
C2734 C 0.32552 0.59551 0.76505 0.0
C2735 C 0.32107 0.60477 0.76768 0.0
C2736 C 0.32476 0.59181 0.75522 0.0
C2737 C 0.3386 0.57611 0.70151 0.0
C2738 C 0.35285 0.56468 0.6998 0.0
C2739 C 0.34469 0.57153 0.68487 0.0
C2740 C 0.33784 0.57677 0.69098 0.0
C2741 C 0.3524 0.56561 0.68922 0.0
C2742 C 0.34603 0.56996 0.7059 0.0
C2743 C 0.33228 0.58234 0.70811 0.0
O2744 O 0.30548 0.59836 0.71036 0.0
O2745 O 0.3176 0.60974 0.71108 0.0
O2746 O 0.33482 0.5917 0.71029 0.0
O2747 O 0.3229 0.57981 0.7102 0.0
H2748 H 0.31342 0.60254 0.68845 0.0
H2749 H 0.3086 0.61207 0.6731 0.0
H2750 H 0.29106 0.63261 0.69145 0.0
H2751 H 0.29579 0.62316 0.70658 0.0
H2752 H 0.31182 0.61719 0.7623 0.0
H2753 H 0.31068 0.61072 0.74476 0.0
H2754 H 0.33008 0.59139 0.77048 0.0
H2755 H 0.32877 0.58493 0.75326 0.0
H2756 H 0.35851 0.55997 0.70338 0.0
H2757 H 0.34418 0.57241 0.67674 0.0
H2758 H 0.33214 0.58153 0.68751 0.0
H2759 H 0.34669 0.56939 0.71405 0.0
C2760 C 0.89248 0.1037 0.10015 0.0
C2761 C 0.89015 0.10678 0.11005 0.0
C2762 C 0.8955 0.09022 0.11648 0.0
C2763 C 0.89172 0.10009 0.11818 0.0
C2764 C 0.89805 0.0874 0.10656 0.0
C2765 C 0.89663 0.09409 0.09854 0.0
U2766 U 0.87863 0.12406 0.08341 0.0
O2767 O 0.88447 0.13179 0.06972 0.0
O2768 O 0.87199 0.12066 0.06863 0.0
C2769 C 0.87769 0.12732 0.06397 0.0
C2770 C 0.89002 0.10969 0.09108 0.0
C2771 C 0.87924 0.12615 0.05308 0.0
C2772 C 0.88455 0.11667 0.03826 0.0
C2773 C 0.88474 0.11814 0.04878 0.0
C2774 C 0.87345 0.13117 0.03644 0.0
C2775 C 0.87869 0.12307 0.03206 0.0
C2776 C 0.87378 0.13272 0.04683 0.0
C2777 C 0.85895 0.14034 0.1003 0.0
C2778 C 0.84543 0.15272 0.10083 0.0
C2779 C 0.8486 0.14184 0.11528 0.0
C2780 C 0.8566 0.13734 0.11016 0.0
C2781 C 0.84284 0.14945 0.11062 0.0
C2782 C 0.85348 0.14817 0.09567 0.0
C2783 C 0.86618 0.13421 0.09468 0.0
O2784 O 0.88105 0.10808 0.08719 0.0
O2785 O 0.8929 0.11922 0.09066 0.0
O2786 O 0.87532 0.13755 0.09265 0.0
O2787 O 0.86373 0.12541 0.09077 0.0
H2788 H 0.88688 0.11417 0.11145 0.0
H2789 H 0.88968 0.1025 0.12574 0.0
H2790 H 0.90061 0.07981 0.10485 0.0
H2791 H 0.89838 0.09156 0.09094 0.0
H2792 H 0.88868 0.11039 0.03499 0.0
H2793 H 0.8889 0.11293 0.05354 0.0
H2794 H 0.86901 0.13628 0.03181 0.0
H2795 H 0.86941 0.13887 0.05006 0.0
H2796 H 0.84104 0.15855 0.09708 0.0
H2797 H 0.84662 0.13898 0.1227 0.0
H2798 H 0.86068 0.13119 0.11373 0.0
H2799 H 0.85516 0.15047 0.08798 0.0
C2800 C 0.70224 0.11129 0.817 0.0
C2801 C 0.70204 0.10628 0.82635 0.0
C2802 C 0.70753 0.12183 0.8348 0.0
C2803 C 0.70484 0.11147 0.83517 0.0
C2804 C 0.70831 0.12655 0.82534 0.0
C2805 C 0.70571 0.12131 0.81654 0.0
U2806 U 0.68627 0.09326 0.7995 0.0
O2807 O 0.67802 0.09817 0.78603 0.0
O2808 O 0.69079 0.08755 0.78443 0.0
C2809 C 0.68356 0.09266 0.7799 0.0
C2810 C 0.69854 0.10668 0.80755 0.0
C2811 C 0.68526 0.09678 0.76975 0.0
C2812 C 0.69029 0.11009 0.75804 0.0
C2813 C 0.69053 0.1058 0.7678 0.0
C2814 C 0.67941 0.09647 0.75244 0.0
C2815 C 0.68459 0.1055 0.75025 0.0
C2816 C 0.67994 0.09207 0.76195 0.0
C2817 C 0.66882 0.07416 0.81607 0.0
C2818 C 0.65478 0.06231 0.81658 0.0
C2819 C 0.66271 0.0679 0.83214 0.0
C2820 C 0.66946 0.07377 0.82661 0.0
C2821 C 0.65521 0.0622 0.82723 0.0
C2822 C 0.66152 0.06834 0.81101 0.0
C2823 C 0.67546 0.08126 0.81076 0.0
O2824 O 0.70132 0.09735 0.80542 0.0
O2825 O 0.6891 0.10862 0.80519 0.0
O2826 O 0.67233 0.09033 0.80815 0.0
O2827 O 0.68439 0.07857 0.80734 0.0
H2828 H 0.6995 0.0985 0.82687 0.0
H2829 H 0.70449 0.10751 0.84235 0.0
H2830 H 0.71036 0.13447 0.82477 0.0
H2831 H 0.70602 0.12526 0.80936 0.0
H2832 H 0.69432 0.11709 0.75667 0.0
H2833 H 0.69454 0.10964 0.77382 0.0
H2834 H 0.67444 0.09296 0.74697 0.0
H2835 H 0.67562 0.08525 0.76339 0.0
H2836 H 0.64924 0.05782 0.81257 0.0
H2837 H 0.6632 0.06806 0.84032 0.0
H2838 H 0.67503 0.07827 0.83059 0.0
H2839 H 0.66094 0.06856 0.80284 0.0
C2840 C 0.80515 0.8977 0.31143 0.0
C2841 C 0.80853 0.90049 0.32111 0.0
C2842 C 0.79942 0.88618 0.32843 0.0
C2843 C 0.80562 0.89476 0.32961 0.0
C2844 C 0.79583 0.88366 0.31881 0.0
C2845 C 0.79862 0.88941 0.31041 0.0
U2846 U 0.82025 0.91532 0.29216 0.0
O2847 O 0.8268 0.90949 0.27814 0.0
O2848 O 0.81426 0.9205 0.27731 0.0
C2849 C 0.82098 0.91508 0.27235 0.0
C2850 C 0.80878 0.90244 0.30202 0.0
C2851 C 0.81911 0.9116 0.26193 0.0
C2852 C 0.81887 0.898 0.24952 0.0
C2853 C 0.81774 0.90134 0.25955 0.0
C2854 C 0.82175 0.91526 0.2441 0.0
C2855 C 0.82145 0.90486 0.24175 0.0
C2856 C 0.82074 0.91856 0.25409 0.0
C2857 C 0.83857 0.93416 0.30773 0.0
C2858 C 0.85156 0.9469 0.31017 0.0
C2859 C 0.84536 0.93721 0.32446 0.0
C2860 C 0.83866 0.93205 0.31809 0.0
C2861 C 0.85203 0.94457 0.32053 0.0
C2862 C 0.84496 0.94166 0.30383 0.0
C2863 C 0.83257 0.92822 0.30059 0.0
O2864 O 0.80581 0.91168 0.29976 0.0
O2865 O 0.81808 0.90041 0.2992 0.0
O2866 O 0.83508 0.91877 0.29878 0.0
O2867 O 0.82306 0.93047 0.29878 0.0
H2868 H 0.81363 0.90684 0.32205 0.0
H2869 H 0.80854 0.89675 0.33701 0.0
H2870 H 0.79111 0.87705 0.31774 0.0
H2871 H 0.79596 0.88712 0.303 0.0
H2872 H 0.81843 0.88996 0.24801 0.0
H2873 H 0.81648 0.89584 0.26549 0.0
H2874 H 0.8232 0.92085 0.23829 0.0
H2875 H 0.82182 0.92652 0.25577 0.0
H2876 H 0.85628 0.95274 0.30692 0.0
H2877 H 0.84553 0.9352 0.3324 0.0
H2878 H 0.83379 0.92624 0.3212 0.0
H2879 H 0.84496 0.94337 0.2958 0.0
C2880 C 0.43553 0.36213 0.06514 0.0
C2881 C 0.42717 0.35603 0.06283 0.0
C2882 C 0.41854 0.37071 0.05547 0.0
C2883 C 0.41876 0.36029 0.05795 0.0
C2884 C 0.42692 0.37669 0.05802 0.0
C2885 C 0.43535 0.37241 0.06261 0.0
U2886 U 0.45286 0.34621 0.08351 0.0
O2887 O 0.46877 0.342 0.08057 0.0
O2888 O 0.46489 0.35268 0.0928 0.0
C2889 C 0.47201 0.34764 0.0881 0.0
C2890 C 0.44475 0.35835 0.07006 0.0
C2891 C 0.4819 0.35256 0.08746 0.0
C2892 C 0.49333 0.36584 0.08186 0.0
C2893 C 0.48415 0.36058 0.08083 0.0
C2894 C 0.49796 0.35489 0.09585 0.0
C2895 C 0.50013 0.36319 0.08962 0.0
C2896 C 0.48894 0.34965 0.09477 0.0
C2897 C 0.43676 0.32608 0.10022 0.0
C2898 C 0.43398 0.31777 0.11641 0.0
C2899 C 0.42178 0.316 0.10285 0.0
C2900 C 0.42777 0.32195 0.09658 0.0
C2901 C 0.42463 0.31411 0.11294 0.0
C2902 C 0.44002 0.32376 0.11007 0.0
C2903 C 0.4422 0.33331 0.09384 0.0
O2904 O 0.44596 0.3608 0.07962 0.0
O2905 O 0.448 0.3492 0.06782 0.0
O2906 O 0.44631 0.33083 0.08513 0.0
O2907 O 0.44354 0.34271 0.09682 0.0
H2908 H 0.42715 0.34806 0.06473 0.0
H2909 H 0.41246 0.3554 0.05608 0.0
H2910 H 0.42694 0.38478 0.05676 0.0
H2911 H 0.44173 0.37724 0.06438 0.0
H2912 H 0.49491 0.37223 0.07697 0.0
H2913 H 0.47872 0.36297 0.07517 0.0
H2914 H 0.50312 0.35265 0.1018 0.0
H2915 H 0.48728 0.34353 0.09998 0.0
H2916 H 0.43633 0.31653 0.12416 0.0
H2917 H 0.41467 0.3132 0.09992 0.0
H2918 H 0.42518 0.32367 0.08899 0.0
H2919 H 0.44702 0.32687 0.11296 0.0
C2920 C 0.38528 0.68644 0.81933 0.0
C2921 C 0.38798 0.67676 0.82277 0.0
C2922 C 0.3725 0.66979 0.81543 0.0
C2923 C 0.38162 0.66849 0.82082 0.0
C2924 C 0.37019 0.67943 0.8116 0.0
C2925 C 0.37646 0.68766 0.81362 0.0
U2926 U 0.40586 0.70464 0.83145 0.0
O2927 O 0.41037 0.7194 0.82497 0.0
O2928 O 0.40134 0.71878 0.83916 0.0
C2929 C 0.40598 0.72436 0.83239 0.0
C2930 C 0.39082 0.69565 0.82217 0.0
C2931 C 0.40536 0.73547 0.83248 0.0
C2932 C 0.39646 0.7511 0.82853 0.0
C2933 C 0.39775 0.74063 0.82719 0.0
C2934 C 0.41051 0.75129 0.84026 0.0
C2935 C 0.40276 0.75653 0.83518 0.0
C2936 C 0.4118 0.74088 0.8389 0.0
C2937 C 0.42682 0.68801 0.84642 0.0
C2938 C 0.43999 0.68541 0.85894 0.0
C2939 C 0.43166 0.67097 0.85126 0.0
C2940 C 0.42568 0.67751 0.84542 0.0
C2941 C 0.4387 0.67492 0.85817 0.0
C2942 C 0.43411 0.6919 0.85307 0.0
C2943 C 0.42005 0.69522 0.84141 0.0
O2944 O 0.39057 0.69827 0.83175 0.0
O2945 O 0.39947 0.69761 0.81769 0.0
O2946 O 0.42085 0.69721 0.83168 0.0
O2947 O 0.41132 0.69754 0.84551 0.0
H2948 H 0.39478 0.67568 0.8272 0.0
H2949 H 0.38367 0.66115 0.82385 0.0
H2950 H 0.36348 0.68068 0.80708 0.0
H2951 H 0.37429 0.69509 0.81088 0.0
H2952 H 0.39044 0.75491 0.8245 0.0
H2953 H 0.39264 0.73653 0.82228 0.0
H2954 H 0.41534 0.75516 0.84563 0.0
H2955 H 0.41761 0.73699 0.84317 0.0
H2956 H 0.44539 0.68856 0.86423 0.0
H2957 H 0.4306 0.66286 0.85061 0.0
H2958 H 0.42005 0.6744 0.84036 0.0
H2959 H 0.43503 0.70001 0.85394 0.0
C2960 C 0.07105 0.65337 0.56893 0.0
C2961 C 0.08045 0.65822 0.56965 0.0
C2962 C 0.08833 0.64394 0.56104 0.0
C2963 C 0.08907 0.65352 0.56567 0.0
C2964 C 0.07885 0.63934 0.5601 0.0
C2965 C 0.07032 0.644 0.56405 0.0
U2966 U 0.05287 0.67047 0.5853 0.0
O2967 O 0.03725 0.67444 0.58098 0.0
O2968 O 0.0402 0.66451 0.59407 0.0
C2969 C 0.03346 0.66932 0.58862 0.0
C2970 C 0.06176 0.65746 0.57329 0.0
C2971 C 0.02363 0.66444 0.58753 0.0
C2972 C 0.01285 0.65044 0.58256 0.0
C2973 C 0.02211 0.65557 0.58188 0.0
C2974 C 0.00664 0.66326 0.59415 0.0
C2975 C 1.00515 0.65421 0.58886 0.0
C2976 C 0.01581 0.66832 0.59349 0.0
C2977 C 0.06965 0.6908 0.60043 0.0
C2978 C 0.07335 0.70481 0.61168 0.0
C2979 C 0.08687 0.69407 0.60547 0.0
C2980 C 0.0799 0.68831 0.60003 0.0
C2981 C 0.08364 0.70238 0.61134 0.0
C2982 C 0.06641 0.69906 0.60624 0.0
C2983 C 0.06196 0.68441 0.59582 0.0
O2984 O 0.06025 0.65577 0.58298 0.0
O2985 O 0.05863 0.6664 0.57019 0.0
O2986 O 0.06106 0.67502 0.59897 0.0
O2987 O 0.05888 0.68606 0.5865 0.0
H2988 H 0.08112 0.6655 0.57338 0.0
H2989 H 0.09633 0.65724 0.5664 0.0
H2990 H 0.07803 0.63212 0.5563 0.0
H2991 H 0.06309 0.64021 0.56337 0.0
H2992 H 0.01181 0.64338 0.57853 0.0
H2993 H 0.02815 0.65243 0.57733 0.0
H2994 H 1.00086 0.66615 0.59919 0.0
H2995 H 0.01695 0.67507 0.59801 0.0
H2996 H 0.07068 0.71116 0.61612 0.0
H2997 H 0.09476 0.69191 0.60527 0.0
H2998 H 0.08246 0.68183 0.5957 0.0
H2999 H 0.05845 0.70094 0.60673 0.0
C3000 C 0.12087 0.3215 0.31105 0.0
C3001 C 0.11771 0.33155 0.31239 0.0
C3002 C 0.13379 0.33753 0.3057 0.0
C3003 C 0.12414 0.33954 0.30967 0.0
C3004 C 0.13668 0.32747 0.30391 0.0
C3005 C 0.13025 0.31952 0.30656 0.0
U3006 U 0.10358 0.29959 0.32403 0.0
O3007 O 0.10097 0.28543 0.3153 0.0
O3008 O 0.11218 0.28585 0.3276 0.0
C3009 C 0.10806 0.28054 0.32029 0.0
C3010 C 0.11513 0.31297 0.31526 0.0
C3011 C 0.10766 0.26941 0.32151 0.0
C3012 C 0.11548 0.25329 0.31709 0.0
C3013 C 0.11386 0.26358 0.31518 0.0
C3014 C 0.10411 0.25424 0.33138 0.0
C3015 C 0.11078 0.24846 0.32534 0.0
C3016 C 0.10263 0.26464 0.32955 0.0
C3017 C 0.08423 0.31229 0.34328 0.0
C3018 C 0.07333 0.31558 0.35774 0.0
C3019 C 0.08153 0.32957 0.34922 0.0
C3020 C 0.08599 0.32276 0.34232 0.0
C3021 C 0.07533 0.32596 0.35708 0.0
C3022 C 0.07771 0.30884 0.3509 0.0
C3023 C 0.08953 0.30451 0.33725 0.0
O3024 O 0.11725 0.30918 0.32419 0.0
O3025 O 0.10646 0.3101 0.31132 0.0
O3026 O 0.08778 0.30392 0.32746 0.0
O3027 O 0.09893 0.30255 0.33973 0.0
H3028 H 0.11051 0.33319 0.31592 0.0
H3029 H 0.12181 0.34726 0.31118 0.0
H3030 H 0.14408 0.32576 0.30085 0.0
H3031 H 0.13281 0.3118 0.30549 0.0
H3032 H 0.12089 0.24929 0.31243 0.0
H3033 H 0.11796 0.26715 0.30903 0.0
H3034 H 0.10028 0.25079 0.33775 0.0
H3035 H 0.09788 0.269 0.33461 0.0
H3036 H 0.06865 0.31264 0.36379 0.0
H3037 H 0.08321 0.33758 0.34864 0.0
H3038 H 0.09102 0.3256 0.33652 0.0
H3039 H 0.07628 0.30081 0.35179 0.0
C3040 C 0.43629 0.64732 0.44532 0.0
C3041 C 0.42754 0.65328 0.4461 0.0
C3042 C 0.41869 0.63925 0.45436 0.0
C3043 C 0.41884 0.64931 0.45071 0.0
C3044 C 0.42745 0.63334 0.45322 0.0
C3045 C 0.43617 0.6374 0.44898 0.0
U3046 U 0.45143 0.6635 0.42619 0.0
O3047 O 0.46722 0.66879 0.42724 0.0
O3048 O 0.46272 0.65813 0.41528 0.0
C3049 C 0.47011 0.66322 0.41951 0.0
C3050 C 0.44555 0.65077 0.44024 0.0
C3051 C 0.47994 0.65799 0.42008 0.0
C3052 C 0.4918 0.64566 0.42703 0.0
C3053 C 0.48242 0.65071 0.42746 0.0
C3054 C 0.49608 0.65507 0.41191 0.0
C3055 C 0.49871 0.64771 0.41914 0.0
C3056 C 0.48689 0.66016 0.41244 0.0
C3057 C 0.43388 0.68287 0.41101 0.0
C3058 C 0.43488 0.69281 0.39551 0.0
C3059 C 0.41907 0.69158 0.40469 0.0
C3060 C 0.42371 0.68555 0.41195 0.0
C3061 C 0.42455 0.69512 0.39635 0.0
C3062 C 0.43956 0.68663 0.40283 0.0
C3063 C 0.43766 0.67534 0.41828 0.0
O3064 O 0.44622 0.64837 0.43063 0.0
O3065 O 0.44881 0.65995 0.44229 0.0
O3066 O 0.44353 0.67825 0.42576 0.0
O3067 O 0.43957 0.66619 0.4149 0.0
H3068 H 0.42743 0.66094 0.44316 0.0
H3069 H 0.41226 0.65413 0.45141 0.0
H3070 H 0.42758 0.62542 0.45527 0.0
H3071 H 0.4428 0.63264 0.44827 0.0
H3072 H 0.49362 0.64022 0.43288 0.0
H3073 H 0.47712 0.64891 0.43344 0.0
H3074 H 0.50103 0.65678 0.40562 0.0
H3075 H 0.48511 0.66569 0.40664 0.0
H3076 H 0.4392 0.6955 0.38909 0.0
H3077 H 0.4111 0.69328 0.40545 0.0
H3078 H 0.4192 0.68267 0.41816 0.0
H3079 H 0.44743 0.68457 0.40196 0.0
C3080 C 0.12201 0.69002 0.19909 0.0
C3081 C 0.11841 0.68024 0.19703 0.0
C3082 C 0.13414 0.6731 0.20353 0.0
C3083 C 0.12445 0.67178 0.19932 0.0
C3084 C 0.13743 0.68287 0.20597 0.0
C3085 C 0.13142 0.69123 0.20376 0.0
U3086 U 0.10372 0.70989 0.18544 0.0
O3087 O 0.09928 0.72453 0.1923 0.0
O3088 O 0.11026 0.72409 0.17956 0.0
C3089 C 0.10506 0.72959 0.18597 0.0
C3090 C 0.11681 0.69932 0.19591 0.0
C3091 C 0.10654 0.74059 0.18675 0.0
C3092 C 0.1166 0.75513 0.19189 0.0
C3093 C 0.1144 0.74474 0.19252 0.0
C3094 C 0.10315 0.7572 0.17966 0.0
C3095 C 0.1111 0.7615 0.18532 0.0
C3096 C 0.10082 0.74692 0.18049 0.0
C3097 C 0.08467 0.69521 0.16658 0.0
C3098 C 0.07299 0.69323 0.15255 0.0
C3099 C 0.08155 0.67856 0.15945 0.0
C3100 C 0.08641 0.68475 0.1666 0.0
C3101 C 0.07493 0.68279 0.15221 0.0
C3102 C 0.07781 0.69936 0.15966 0.0
C3103 C 0.09053 0.70232 0.1728 0.0
O3104 O 0.11854 0.70259 0.18669 0.0
O3105 O 0.10767 0.70131 0.19928 0.0
O3106 O 0.08848 0.70361 0.18246 0.0
O3107 O 0.0999 0.70431 0.17024 0.0
H3108 H 0.11115 0.67917 0.19341 0.0
H3109 H 0.12177 0.66427 0.19739 0.0
H3110 H 0.1448 0.68407 0.20932 0.0
H3111 H 0.1343 0.69873 0.20542 0.0
H3112 H 0.12276 0.75812 0.19638 0.0
H3113 H 0.11901 0.73992 0.19729 0.0
H3114 H 0.099 0.76161 0.17416 0.0
H3115 H 0.09487 0.7438 0.17581 0.0
H3116 H 0.0679 0.69672 0.14716 0.0
H3117 H 0.08334 0.67056 0.15929 0.0
H3118 H 0.09175 0.68144 0.17184 0.0
H3119 H 0.07642 0.70745 0.15951 0.0
C3120 C 0.07054 0.35813 0.94171 0.0
C3121 C 0.07977 0.35423 0.93821 0.0
C3122 C 0.08889 0.36617 0.9489 0.0
C3123 C 0.08889 0.35827 0.94173 0.0
C3124 C 0.07961 0.36974 0.95262 0.0
C3125 C 0.07053 0.36577 0.94902 0.0
U3126 U 0.05471 0.34123 0.92436 0.0
O3127 O 0.03901 0.33586 0.92618 0.0
O3128 O 0.04319 0.34545 0.91321 0.0
C3129 C 0.03594 0.34066 0.91801 0.0
C3130 C 0.06087 0.35498 0.93726 0.0
C3131 C 0.02602 0.34573 0.91814 0.0
C3132 C 0.01288 0.35641 0.92551 0.0
C3133 C 0.02249 0.35182 0.92615 0.0
C3134 C 0.01057 0.34905 0.9089 0.0
C3135 C 0.00677 0.35493 0.91689 0.0
C3136 C 0.01998 0.34444 0.90958 0.0
C3137 C 0.07247 0.32082 0.91078 0.0
C3138 C 0.0724 0.31018 0.89572 0.0
C3139 C 0.08718 0.31081 0.90653 0.0
C3140 C 0.08228 0.31756 0.91291 0.0
C3141 C 0.08236 0.30709 0.89784 0.0
C3142 C 0.06745 0.31706 0.90218 0.0
C3143 C 0.06849 0.32892 0.91726 0.0
O3144 O 0.05999 0.35664 0.9275 0.0
O3145 O 0.05739 0.3461 0.94009 0.0
O3146 O 0.06284 0.32661 0.92512 0.0
O3147 O 0.06634 0.33767 0.91307 0.0
H3148 H 0.07992 0.34833 0.93251 0.0
H3149 H 0.0959 0.35548 0.93856 0.0
H3150 H 0.07934 0.3757 0.95824 0.0
H3151 H 0.06347 0.36886 0.95179 0.0
H3152 H 0.01021 0.36101 0.93175 0.0
H3153 H 0.0271 0.35301 0.93281 0.0
H3154 H 0.0063 0.34808 0.90197 0.0
H3155 H 0.02261 0.33989 0.90328 0.0
H3156 H 0.06853 0.30737 0.88907 0.0
H3157 H 0.09489 0.30869 0.90827 0.0
H3158 H 0.08632 0.3205 0.91942 0.0
H3159 H 0.05988 0.31958 0.90037 0.0
C3160 C 0.38564 0.32474 0.69047 0.0
C3161 C 0.38971 0.33431 0.69245 0.0
C3162 C 0.37269 0.34104 0.69495 0.0
C3163 C 0.38328 0.34238 0.69484 0.0
C3164 C 0.36876 0.33128 0.69358 0.0
C3165 C 0.37519 0.32321 0.69139 0.0
U3166 U 0.4057 0.30474 0.67899 0.0
O3167 O 0.40828 0.29019 0.68707 0.0
O3168 O 0.39882 0.29076 0.67339 0.0
C3169 C 0.40237 0.28521 0.68081 0.0
C3170 C 0.39182 0.31613 0.68722 0.0
C3171 C 0.40398 0.27433 0.67879 0.0
C3172 C 0.39865 0.25709 0.68266 0.0
C3173 C 0.39924 0.26735 0.68523 0.0
C3174 C 0.40796 0.26049 0.66728 0.0
C3175 C 0.40285 0.25352 0.67356 0.0
C3176 C 0.40851 0.2708 0.66985 0.0
C3177 C 0.42695 0.31947 0.66322 0.0
C3178 C 0.43997 0.3234 0.65085 0.0
C3179 C 0.43091 0.33701 0.65913 0.0
C3180 C 0.42529 0.32988 0.66471 0.0
C3181 C 0.43814 0.3338 0.65197 0.0
C3182 C 0.43442 0.31635 0.65639 0.0
C3183 C 0.42094 0.31145 0.66814 0.0
O3184 O 0.39129 0.31299 0.67781 0.0
O3185 O 0.40033 0.31395 0.69188 0.0
O3186 O 0.42144 0.3103 0.67802 0.0
O3187 O 0.41204 0.30933 0.66429 0.0
H3188 H 0.39777 0.33558 0.69196 0.0
H3189 H 0.38658 0.34973 0.69631 0.0
H3190 H 0.36069 0.32996 0.69367 0.0
H3191 H 0.37196 0.31579 0.69005 0.0
H3192 H 0.39473 0.25197 0.68772 0.0
H3193 H 0.39555 0.26993 0.69209 0.0
H3194 H 0.41113 0.25808 0.66012 0.0
H3195 H 0.41205 0.27607 0.66467 0.0
H3196 H 0.44565 0.3207 0.6456 0.0
H3197 H 0.42939 0.345 0.66018 0.0
H3198 H 0.41957 0.33246 0.66997 0.0
H3199 H 0.43586 0.30836 0.6552 0.0
C3200 C 0.10603 0.41698 0.39427 0.0
C3201 C 0.10868 0.40724 0.39106 0.0
C3202 C 0.09378 0.40039 0.39951 0.0
C3203 C 0.10259 0.39897 0.3937 0.0
C3204 C 0.09136 0.41015 0.40292 0.0
C3205 C 0.09745 0.41836 0.40034 0.0
U3206 U 0.12365 0.43839 0.38152 0.0
O3207 O 0.11572 0.45254 0.37807 0.0
O3208 O 0.1272 0.45233 0.39011 0.0
C3209 C 0.12038 0.45765 0.38519 0.0
C3210 C 0.11139 0.42605 0.39086 0.0
C3211 C 0.12222 0.46843 0.38321 0.0
C3212 C 0.11658 0.48567 0.3862 0.0
C3213 C 0.11627 0.47539 0.38855 0.0
C3214 C 0.12904 0.48226 0.3732 0.0
C3215 C 0.12281 0.48918 0.37839 0.0
C3216 C 0.12875 0.4719 0.37559 0.0
C3217 C 0.14268 0.42542 0.362 0.0
C3218 C 0.15181 0.42226 0.34639 0.0
C3219 C 0.1489 0.40852 0.35818 0.0
C3220 C 0.14382 0.4152 0.36472 0.0
C3221 C 0.15292 0.412 0.34891 0.0
C3222 C 0.1468 0.42887 0.35287 0.0
C3223 C 0.13737 0.43297 0.36825 0.0
O3224 O 0.12037 0.4283 0.39447 0.0
O3225 O 0.10951 0.42967 0.38179 0.0
O3226 O 0.12802 0.43521 0.36578 0.0
O3227 O 0.13917 0.43335 0.37804 0.0
H3228 H 0.11524 0.40608 0.3863 0.0
H3229 H 0.10453 0.39154 0.39082 0.0
H3230 H 0.08464 0.41146 0.40741 0.0
H3231 H 0.09528 0.42587 0.40284 0.0
H3232 H 0.11167 0.49084 0.39024 0.0
H3233 H 0.1111 0.47281 0.39436 0.0
H3234 H 0.13396 0.48486 0.36718 0.0
H3235 H 0.13334 0.46662 0.37134 0.0
H3236 H 0.1545 0.42514 0.3392 0.0
H3237 H 0.14959 0.40062 0.36028 0.0
H3238 H 0.14072 0.4124 0.37177 0.0
H3239 H 0.14598 0.43673 0.35065 0.0
C3240 C 0.32001 0.31886 0.10696 0.0
C3241 C 0.32855 0.31682 0.10101 0.0
C3242 C 0.33763 0.31119 0.1161 0.0
C3243 C 0.33727 0.31286 0.10554 0.0
C3244 C 0.32897 0.31315 0.12189 0.0
C3245 C 0.32026 0.31687 0.11735 0.0
U3246 U 0.30277 0.33521 0.08929 0.0
O3247 O 0.28716 0.33157 0.08459 0.0
O3248 O 0.29029 0.34482 0.09425 0.0
C3249 C 0.2835 0.33948 0.08939 0.0
C3250 C 0.31058 0.32299 0.10283 0.0
C3251 C 0.27358 0.33882 0.09421 0.0
C3252 C 0.26208 0.33336 0.10746 0.0
C3253 C 0.27135 0.33236 0.10236 0.0
C3254 C 0.25739 0.34703 0.09613 0.0
C3255 C 0.25519 0.34092 0.1045 0.0
C3256 C 0.26647 0.34597 0.09104 0.0
C3257 C 0.31963 0.35049 0.06872 0.0
C3258 C 0.32315 0.36626 0.05995 0.0
C3259 C 0.33441 0.35189 0.05813 0.0
C3260 C 0.32824 0.34617 0.06443 0.0
C3261 C 0.33212 0.3621 0.05606 0.0
C3262 C 0.31693 0.36047 0.06626 0.0
C3263 C 0.31387 0.34463 0.07612 0.0
O3264 O 0.309 0.33268 0.10446 0.0
O3265 O 0.30765 0.31992 0.09382 0.0
O3266 O 0.31007 0.33563 0.07419 0.0
O3267 O 0.31201 0.34836 0.08515 0.0
H3268 H 0.32846 0.31821 0.09293 0.0
H3269 H 0.34366 0.31106 0.10077 0.0
H3270 H 0.32896 0.312 0.13 0.0
H3271 H 0.3137 0.31834 0.12202 0.0
H3272 H 0.2605 0.32861 0.11395 0.0
H3273 H 0.27684 0.32686 0.10496 0.0
H3274 H 0.25218 0.35289 0.09373 0.0
H3275 H 0.26814 0.35106 0.08482 0.0
H3276 H 0.32123 0.37412 0.05861 0.0
H3277 H 0.34119 0.34842 0.05514 0.0
H3278 H 0.33039 0.33846 0.06624 0.0
H3279 H 0.31021 0.36388 0.06948 0.0
C3280 C 0.41035 0.58421 0.89231 0.0
C3281 C 0.40887 0.5942 0.88908 0.0
C3282 C 0.42513 0.59892 0.8963 0.0
C3283 C 0.41621 0.60154 0.89113 0.0
C3284 C 0.42624 0.58904 0.90005 0.0
C3285 C 0.41891 0.58174 0.89804 0.0
U3286 U 0.39039 0.56443 0.88026 0.0
O3287 O 0.3974 0.55053 0.87449 0.0
O3288 O 0.38798 0.54988 0.88819 0.0
C3289 C 0.39381 0.54491 0.88185 0.0
C3290 C 0.40395 0.57593 0.88874 0.0
C3291 C 0.39139 0.53434 0.87943 0.0
C3292 C 0.39648 0.51674 0.8809 0.0
C3293 C 0.39762 0.52687 0.8836 0.0
C3294 C 0.38288 0.52137 0.86957 0.0
C3295 C 0.38922 0.51379 0.8737 0.0
C3296 C 0.38387 0.53154 0.87252 0.0
C3297 C 0.36872 0.57911 0.86525 0.0
C3298 C 0.35432 0.58292 0.85455 0.0
C3299 C 0.36591 0.59631 0.85925 0.0
C3300 C 0.37161 0.58934 0.86495 0.0
C3301 C 0.35735 0.59307 0.85377 0.0
C3302 C 0.35995 0.57605 0.86021 0.0
C3303 C 0.37493 0.57106 0.86979 0.0
O3304 O 0.3956 0.57335 0.89348 0.0
O3305 O 0.40448 0.57311 0.87923 0.0
O3306 O 0.38383 0.56927 0.86577 0.0
O3307 O 0.37453 0.56959 0.87963 0.0
H3308 H 0.40232 0.59618 0.88459 0.0
H3309 H 0.41519 0.60912 0.88814 0.0
H3310 H 0.43297 0.58687 0.90418 0.0
H3311 H 0.42016 0.57403 0.90055 0.0
H3312 H 0.4014 0.51125 0.88446 0.0
H3313 H 0.40354 0.52892 0.88889 0.0
H3314 H 0.37745 0.51962 0.86373 0.0
H3315 H 0.37906 0.53725 0.86912 0.0
H3316 H 0.34775 0.58021 0.8505 0.0
H3317 H 0.36851 0.60406 0.8587 0.0
H3318 H 0.3784 0.59185 0.86878 0.0
H3319 H 0.35762 0.56818 0.86034 0.0
C3320 C 0.18484 0.69471 0.61098 0.0
C3321 C 0.1757 0.69513 0.60567 0.0
C3322 C 0.16815 0.7047 0.61961 0.0
C3323 C 0.16741 0.70018 0.60994 0.0
C3324 C 0.17736 0.70406 0.62483 0.0
C3325 C 0.18563 0.69929 0.62048 0.0
U3326 U 0.2029 0.67604 0.5959 0.0
O3327 O 0.2189 0.67949 0.5926 0.0
O3328 O 0.2148 0.66745 0.6035 0.0
C3329 C 0.222 0.67215 0.59858 0.0
C3330 C 0.19383 0.68943 0.60729 0.0
C3331 C 0.2319 0.67264 0.60338 0.0
C3332 C 0.24435 0.67968 0.61486 0.0
C3333 C 0.2349 0.68032 0.61006 0.0
C3334 C 0.24755 0.66375 0.60631 0.0
C3335 C 0.25071 0.67128 0.6131 0.0
C3336 C 0.2383 0.66447 0.60148 0.0
C3337 C 0.18678 0.65928 0.57637 0.0
C3338 C 0.18332 0.64645 0.56372 0.0
C3339 C 0.16954 0.65467 0.57262 0.0
C3340 C 0.17644 0.66048 0.5781 0.0
C3341 C 0.17295 0.64761 0.5654 0.0
C3342 C 0.19019 0.65229 0.56916 0.0
C3343 C 0.1943 0.66432 0.58262 0.0
O3344 O 0.19488 0.67989 0.60991 0.0
O3345 O 0.19733 0.69161 0.59822 0.0
O3346 O 0.19458 0.66217 0.59232 0.0
O3347 O 0.1977 0.67336 0.5802 0.0
H3348 H 0.17496 0.69157 0.59832 0.0
H3349 H 0.16043 0.70053 0.60568 0.0
H3350 H 0.17816 0.70693 0.63246 0.0
H3351 H 0.19264 0.69894 0.6247 0.0
H3352 H 0.24666 0.6857 0.61992 0.0
H3353 H 0.22996 0.68668 0.61162 0.0
H3354 H 0.25213 0.6571 0.6049 0.0
H3355 H 0.23603 0.65844 0.5964 0.0
H3356 H 0.1861 0.64107 0.55819 0.0
H3357 H 0.16155 0.65556 0.57414 0.0
H3358 H 0.17373 0.66574 0.58379 0.0
H3359 H 0.19821 0.65119 0.56789 0.0
C3360 C 0.10668 0.59315 0.11495 0.0
C3361 C 0.10895 0.60283 0.11864 0.0
C3362 C 0.09413 0.60958 0.11003 0.0
C3363 C 0.10269 0.61104 0.11615 0.0
C3364 C 0.09212 0.59996 0.10607 0.0
C3365 C 0.09839 0.59182 0.10848 0.0
U3366 U 0.12422 0.57177 0.12794 0.0
O3367 O 0.11637 0.55767 0.13182 0.0
O3368 O 0.12748 0.5577 0.11943 0.0
C3369 C 0.12077 0.55249 0.12459 0.0
C3370 C 0.11199 0.58406 0.11845 0.0
C3371 C 0.12238 0.5416 0.12632 0.0
C3372 C 0.11754 0.52449 0.12162 0.0
C3373 C 0.11745 0.53488 0.11978 0.0
C3374 C 0.12767 0.52729 0.13661 0.0
C3375 C 0.12238 0.52053 0.13022 0.0
C3376 C 0.12766 0.53776 0.13468 0.0
C3377 C 0.14365 0.58498 0.14686 0.0
C3378 C 0.15437 0.58813 0.16146 0.0
C3379 C 0.14681 0.60221 0.15249 0.0
C3380 C 0.14232 0.59545 0.14561 0.0
C3381 C 0.15263 0.59856 0.16065 0.0
C3382 C 0.1499 0.58143 0.15466 0.0
C3383 C 0.13822 0.57731 0.14088 0.0
O3384 O 0.12091 0.58165 0.1148 0.0
O3385 O 0.11016 0.58062 0.1276 0.0
O3386 O 0.12886 0.5753 0.14351 0.0
O3387 O 0.13987 0.5767 0.13108 0.0
H3388 H 0.11527 0.60396 0.12372 0.0
H3389 H 0.10424 0.61841 0.1194 0.0
H3390 H 0.08547 0.59867 0.10147 0.0
H3391 H 0.09649 0.58435 0.10564 0.0
H3392 H 0.11379 0.51957 0.11625 0.0
H3393 H 0.11332 0.53772 0.11329 0.0
H3394 H 0.13153 0.52454 0.14329 0.0
H3395 H 0.13148 0.54283 0.13985 0.0
H3396 H 0.15871 0.5851 0.16773 0.0
H3397 H 0.14539 0.61026 0.1517 0.0
H3398 H 0.13754 0.59835 0.13962 0.0
H3399 H 0.15101 0.57337 0.15574 0.0
C3400 C 0.18561 0.31461 0.89736 0.0
C3401 C 0.17691 0.31512 0.90343 0.0
C3402 C 0.16754 0.30557 0.89076 0.0
C3403 C 0.16792 0.31056 0.90016 0.0
C3404 C 0.17628 0.30501 0.88481 0.0
C3405 C 0.18524 0.30946 0.88811 0.0
U3406 U 0.20125 0.33406 0.91241 0.0
O3407 O 0.21712 0.33308 0.91752 0.0
O3408 O 0.2125 0.34482 0.90664 0.0
C3409 C 0.21994 0.34071 0.91178 0.0
C3410 C 0.19507 0.31975 0.9001 0.0
C3411 C 0.22981 0.34015 0.90661 0.0
C3412 C 0.24183 0.33322 0.89441 0.0
C3413 C 0.23236 0.33282 0.8993 0.0
C3414 C 0.24601 0.34828 0.90396 0.0
C3415 C 0.24881 0.34094 0.89677 0.0
C3416 C 0.23674 0.3478 0.90887 0.0
C3417 C 0.18386 0.34918 0.93212 0.0
C3418 C 0.18416 0.36506 0.9415 0.0
C3419 C 0.16941 0.35422 0.94222 0.0
C3420 C 0.17414 0.34731 0.93583 0.0
C3421 C 0.17432 0.36318 0.94504 0.0
C3422 C 0.18896 0.35806 0.93506 0.0
C3423 C 0.1877 0.34204 0.92449 0.0
O3424 O 0.19557 0.32934 0.89754 0.0
O3425 O 0.19876 0.31789 0.90915 0.0
O3426 O 0.19358 0.33452 0.92729 0.0
O3427 O 0.18952 0.34546 0.91534 0.0
H3428 H 0.17703 0.31914 0.91057 0.0
H3429 H 0.16122 0.3111 0.90484 0.0
H3430 H 0.17617 0.30113 0.87759 0.0
H3431 H 0.19188 0.30901 0.88333 0.0
H3432 H 0.24372 0.3275 0.88884 0.0
H3433 H 0.22705 0.32689 0.89735 0.0
H3434 H 0.25095 0.35458 0.90569 0.0
H3435 H 0.23487 0.35361 0.91436 0.0
H3436 H 0.18804 0.37197 0.9436 0.0
H3437 H 0.16178 0.35268 0.94475 0.0
H3438 H 0.17004 0.34059 0.93354 0.0
H3439 H 0.19645 0.35966 0.9322 0.0
C3440 C 0.41207 0.42854 0.61743 0.0
C3441 C 0.41018 0.4192 0.62215 0.0
C3442 C 0.42527 0.41209 0.61422 0.0
C3443 C 0.41673 0.411 0.62051 0.0
C3444 C 0.42683 0.42132 0.60923 0.0
C3445 C 0.42027 0.42944 0.61079 0.0
U3446 U 0.39115 0.44608 0.62949 0.0
O3447 O 0.39491 0.46033 0.63721 0.0
O3448 O 0.38549 0.46057 0.62322 0.0
C3449 C 0.3898 0.46568 0.63059 0.0
C3450 C 0.4066 0.43786 0.62011 0.0
C3451 C 0.38972 0.47674 0.63105 0.0
C3452 C 0.39872 0.49273 0.63134 0.0
C3453 C 0.39861 0.48229 0.62954 0.0
C3454 C 0.38103 0.49208 0.63604 0.0
C3455 C 0.38996 0.49769 0.63474 0.0
C3456 C 0.3809 0.4817 0.63413 0.0
C3457 C 0.36982 0.42938 0.64395 0.0
C3458 C 0.35818 0.4275 0.65802 0.0
C3459 C 0.36103 0.41353 0.64647 0.0
C3460 C 0.36768 0.41949 0.64087 0.0
C3461 C 0.35639 0.41738 0.65525 0.0
C3462 C 0.36488 0.43346 0.65241 0.0
C3463 C 0.37755 0.43519 0.63857 0.0
O3464 O 0.39795 0.43973 0.61559 0.0
O3465 O 0.40673 0.44047 0.6297 0.0
O3466 O 0.38572 0.43839 0.64323 0.0
O3467 O 0.37672 0.43763 0.62896 0.0
H3468 H 0.40393 0.41839 0.62738 0.0
H3469 H 0.41542 0.40399 0.62455 0.0
H3470 H 0.43331 0.42236 0.60433 0.0
H3471 H 0.42187 0.43661 0.60713 0.0
H3472 H 0.40569 0.4969 0.63026 0.0
H3473 H 0.4055 0.47852 0.62723 0.0
H3474 H 0.37424 0.49564 0.6389 0.0
H3475 H 0.37403 0.47746 0.63549 0.0
H3476 H 0.3549 0.43063 0.66485 0.0
H3477 H 0.35979 0.40576 0.64414 0.0
H3478 H 0.37144 0.41625 0.63434 0.0
H3479 H 0.36644 0.44114 0.65484 0.0
C3480 C 0.32013 0.69213 0.40196 0.0
C3481 C 0.32934 0.68924 0.40638 0.0
C3482 C 0.33849 0.69953 0.39409 0.0
C3483 C 0.33846 0.69289 0.40243 0.0
C3484 C 0.32921 0.70254 0.38989 0.0
C3485 C 0.32014 0.69885 0.39378 0.0
U3486 U 0.30404 0.67461 0.41865 0.0
O3487 O 0.28855 0.6767 0.42449 0.0
O3488 O 0.292 0.66415 0.41411 0.0
C3489 C 0.28505 0.66892 0.41936 0.0
C3490 C 0.31045 0.68778 0.40523 0.0
C3491 C 0.27511 0.66993 0.41447 0.0
C3492 C 0.26418 0.67516 0.40059 0.0
C3493 C 0.27354 0.67564 0.40562 0.0
C3494 C 0.25791 0.66366 0.41343 0.0
C3495 C 0.25639 0.66902 0.40442 0.0
C3496 C 0.26719 0.66412 0.41839 0.0
C3497 C 0.32259 0.6603 0.43814 0.0
C3498 C 0.32296 0.64764 0.45153 0.0
C3499 C 0.33854 0.65496 0.44525 0.0
C3500 C 0.33311 0.66088 0.43851 0.0
C3501 C 0.33356 0.64839 0.45192 0.0
C3502 C 0.31745 0.65362 0.44464 0.0
C3503 C 0.31764 0.66663 0.43051 0.0
O3504 O 0.3093 0.6781 0.40329 0.0
O3505 O 0.30721 0.6904 0.41427 0.0
O3506 O 0.31227 0.67456 0.4332 0.0
O3507 O 0.31527 0.66271 0.42169 0.0
H3508 H 0.32947 0.68398 0.41267 0.0
H3509 H 0.34549 0.69027 0.40572 0.0
H3510 H 0.32897 0.70772 0.38353 0.0
H3511 H 0.3131 0.70113 0.39027 0.0
H3512 H 0.26312 0.67931 0.3936 0.0
H3513 H 0.27959 0.68014 0.40244 0.0
H3514 H 0.25203 0.65881 0.41643 0.0
H3515 H 0.2683 0.6596 0.42515 0.0
H3516 H 0.31899 0.64255 0.45658 0.0
H3517 H 0.34671 0.65551 0.44522 0.0
H3518 H 0.33719 0.6659 0.43346 0.0
H3519 H 0.3093 0.65304 0.44438 0.0
C3520 C 0.37061 0.06175 0.43777 0.0
C3521 C 0.36765 0.06368 0.42778 0.0
C3522 C 0.38343 0.05641 0.42162 0.0
C3523 C 0.374 0.06098 0.41974 0.0
C3524 C 0.38608 0.05401 0.43163 0.0
C3525 C 0.37974 0.05671 0.43964 0.0
U3526 U 0.35356 0.07442 0.46002 0.0
O3527 O 0.35119 0.06561 0.47415 0.0
O3528 O 0.36251 0.07781 0.47357 0.0
C3529 C 0.35843 0.07051 0.4789 0.0
C3530 C 0.36494 0.06584 0.44638 0.0
C3531 C 0.3582 0.07175 0.49 0.0
C3532 C 0.36728 0.06903 0.50579 0.0
C3533 C 0.36583 0.06692 0.49553 0.0
C3534 C 0.35286 0.08027 0.50544 0.0
C3535 C 0.36103 0.07598 0.51086 0.0
C3536 C 0.35155 0.07831 0.49504 0.0
C3537 C 0.33406 0.09367 0.44778 0.0
C3538 C 0.32251 0.10764 0.44459 0.0
C3539 C 0.3321 0.10043 0.43075 0.0
C3540 C 0.33653 0.09343 0.43744 0.0
C3541 C 0.32519 0.10774 0.43432 0.0
C3542 C 0.32688 0.10067 0.45121 0.0
C3543 C 0.3394 0.08765 0.45553 0.0
O3544 O 0.36704 0.07478 0.45018 0.0
O3545 O 0.35636 0.0618 0.44936 0.0
O3546 O 0.33768 0.07785 0.45607 0.0
O3547 O 0.34883 0.09013 0.45736 0.0
H3548 H 0.36063 0.0676 0.42623 0.0
H3549 H 0.37177 0.06292 0.4121 0.0
H3550 H 0.39318 0.05028 0.43329 0.0
H3551 H 0.38214 0.05516 0.44732 0.0
H3552 H 0.37364 0.06556 0.50958 0.0
H3553 H 0.37106 0.06184 0.49178 0.0
H3554 H 0.3476 0.08532 0.50915 0.0
H3555 H 0.34557 0.0821 0.49093 0.0
H3556 H 0.3174 0.11328 0.44763 0.0
H3557 H 0.33428 0.10033 0.42285 0.0
H3558 H 0.34208 0.0881 0.43464 0.0
H3559 H 0.32494 0.10104 0.45917 0.0
C3560 C 0.87159 0.4509 0.56863 0.0
C3561 C 0.86693 0.44947 0.57804 0.0
C3562 C 0.88255 0.45449 0.58664 0.0
C3563 C 0.8723 0.45146 0.58697 0.0
C3564 C 0.88689 0.4565 0.57716 0.0
C3565 C 0.88145 0.45476 0.56828 0.0
U3566 U 0.85389 0.43685 0.54888 0.0
O3567 O 0.84874 0.44318 0.53415 0.0
O3568 O 0.86005 0.43076 0.5347 0.0
C3569 C 0.85438 0.43671 0.52912 0.0
C3570 C 0.86688 0.44802 0.55896 0.0
C3571 C 0.85628 0.43755 0.51819 0.0
C3572 C 0.86761 0.44071 0.50403 0.0
C3573 C 0.86521 0.44176 0.51433 0.0
C3574 C 0.85195 0.43164 0.50134 0.0
C3575 C 0.86112 0.43536 0.49745 0.0
C3576 C 0.84958 0.4327 0.51158 0.0
C3577 C 0.83537 0.41773 0.56407 0.0
C3578 C 0.82244 0.40481 0.56595 0.0
C3579 C 0.83371 0.40856 0.57988 0.0
C3580 C 0.83845 0.41605 0.57406 0.0
C3581 C 0.82585 0.40262 0.57578 0.0
C3582 C 0.82722 0.41222 0.56013 0.0
C3583 C 0.84119 0.42416 0.55714 0.0
O3584 O 0.86889 0.43887 0.55565 0.0
O3585 O 0.8576 0.45102 0.557 0.0
O3586 O 0.8388 0.4337 0.55552 0.0
O3587 O 0.85062 0.4218 0.55513 0.0
H3588 H 0.85926 0.44664 0.57849 0.0
H3589 H 0.8685 0.45036 0.59414 0.0
H3590 H 0.89469 0.45889 0.57654 0.0
H3591 H 0.88513 0.45604 0.56106 0.0
H3592 H 0.87481 0.44354 0.50137 0.0
H3593 H 0.87053 0.44544 0.51936 0.0
H3594 H 0.84672 0.42759 0.49651 0.0
H3595 H 0.8427 0.42931 0.51444 0.0
H3596 H 0.81617 0.40071 0.56266 0.0
H3597 H 0.83653 0.40713 0.58743 0.0
H3598 H 0.84475 0.42022 0.57721 0.0
H3599 H 0.82475 0.41344 0.5524 0.0
C3600 C 0.35584 0.14446 0.34244 0.0
C3601 C 0.35826 0.14086 0.35211 0.0
C3602 C 0.34356 0.14963 0.35901 0.0
C3603 C 0.35215 0.14345 0.36037 0.0
C3604 C 0.34141 0.15343 0.34934 0.0
C3605 C 0.34751 0.15087 0.34114 0.0
U3606 U 0.37372 0.13118 0.32175 0.0
O3607 O 0.36635 0.12687 0.30753 0.0
O3608 O 0.37742 0.13934 0.30758 0.0
C3609 C 0.37083 0.13405 0.30234 0.0
C3610 C 0.3611 0.14104 0.33333 0.0
C3611 C 0.37242 0.13234 0.29147 0.0
C3612 C 0.36716 0.13673 0.27442 0.0
C3613 C 0.36721 0.1387 0.28478 0.0
C3614 C 0.37785 0.12211 0.27719 0.0
C3615 C 0.37222 0.12825 0.2705 0.0
C3616 C 0.37792 0.12412 0.28763 0.0
C3617 C 0.39328 0.11249 0.33551 0.0
C3618 C 0.40546 0.09898 0.33795 0.0
C3619 C 0.39641 0.10576 0.35237 0.0
C3620 C 0.3914 0.11265 0.34597 0.0
C3621 C 0.40331 0.09866 0.34835 0.0
C3622 C 0.40048 0.10578 0.33164 0.0
C3623 C 0.38754 0.11846 0.32808 0.0
O3624 O 0.37012 0.14458 0.33113 0.0
O3625 O 0.35937 0.13182 0.33005 0.0
O3626 O 0.3782 0.11574 0.32608 0.0
O3627 O 0.38925 0.12823 0.32715 0.0
H3628 H 0.36462 0.13582 0.35319 0.0
H3629 H 0.35387 0.14026 0.36771 0.0
H3630 H 0.33487 0.1582 0.34808 0.0
H3631 H 0.34553 0.15366 0.33369 0.0
H3632 H 0.36306 0.14183 0.26949 0.0
H3633 H 0.36291 0.14508 0.28762 0.0
H3634 H 0.3819 0.11555 0.2744 0.0
H3635 H 0.38195 0.11909 0.2927 0.0
H3636 H 0.41079 0.09373 0.33462 0.0
H3637 H 0.39449 0.10563 0.36034 0.0
H3638 H 0.38584 0.11778 0.34911 0.0
H3639 H 0.40204 0.10555 0.32359 0.0
C3640 C 0.63484 0.56969 0.07302 0.0
C3641 C 0.63811 0.57165 0.08294 0.0
C3642 C 0.62181 0.56587 0.08953 0.0
C3643 C 0.63163 0.56971 0.09116 0.0
C3644 C 0.61885 0.56352 0.07961 0.0
C3645 C 0.62526 0.56547 0.07148 0.0
U3646 U 0.65604 0.58147 0.05516 0.0
O3647 O 0.66127 0.57474 0.04062 0.0
O3648 O 0.65214 0.58881 0.04078 0.0
C3649 C 0.65719 0.58217 0.0354 0.0
C3650 C 0.64072 0.57233 0.06392 0.0
C3651 C 0.6557 0.58173 0.02433 0.0
C3652 C 0.64472 0.58128 0.00951 0.0
C3653 C 0.64625 0.57969 0.01993 0.0
C3654 C 0.66215 0.58651 0.00778 0.0
C3655 C 0.65256 0.58512 1.00341 0.0
C3656 C 0.66368 0.58483 0.01811 0.0
C3657 C 0.67683 0.59662 0.07203 0.0
C3658 C 0.6897 0.6095 0.0745 0.0
C3659 C 0.6827 0.60065 0.08896 0.0
C3660 C 0.67649 0.59498 0.0825 0.0
C3661 C 0.68924 0.60806 0.08501 0.0
C3662 C 0.68358 0.60378 0.06807 0.0
C3663 C 0.66985 0.59148 0.06508 0.0
O3664 O 0.6405 0.58183 0.061 0.0
O3665 O 0.64944 0.56784 0.06231 0.0
O3666 O 0.67069 0.58174 0.06316 0.0
O3667 O 0.66129 0.59567 0.06231 0.0
H3668 H 0.6455 0.57489 0.0843 0.0
H3669 H 0.63415 0.57155 0.09874 0.0
H3670 H 0.6115 0.56027 0.0781 0.0
H3671 H 0.62263 0.56384 0.06388 0.0
H3672 H 0.63726 0.58013 0.00635 0.0
H3673 H 0.63996 0.57732 0.02461 0.0
H3674 H 0.66838 0.58933 1.00327 0.0
H3675 H 0.67102 0.58651 0.02135 0.0
H3676 H 0.6947 0.61515 0.0713 0.0
H3677 H 0.68215 0.59949 0.09706 0.0
H3678 H 0.67128 0.58951 0.08568 0.0
H3679 H 0.68393 0.60513 0.05999 0.0
C3680 C 0.66056 0.36778 0.33352 0.0
C3681 C 0.65859 0.3705 0.34356 0.0
C3682 C 0.67494 0.36363 0.34864 0.0
C3683 C 0.66574 0.3684 0.3511 0.0
C3684 C 0.67665 0.3606 0.33861 0.0
C3685 C 0.66951 0.36264 0.33112 0.0
U3686 U 0.64027 0.37914 0.3136 0.0
O3687 O 0.64717 0.385 0.29969 0.0
O3688 O 0.63802 0.37111 0.29908 0.0
C3689 C 0.64375 0.37754 0.29411 0.0
C3690 C 0.65411 0.37114 0.32516 0.0
C3691 C 0.64147 0.37981 0.28346 0.0
C3692 C 0.64723 0.37874 0.26604 0.0
C3693 C 0.64823 0.37609 0.2762 0.0
C3694 C 0.63254 0.38887 0.27018 0.0
C3695 C 0.63947 0.38524 0.26297 0.0
C3696 C 0.63351 0.38615 0.28042 0.0
C3697 C 0.61837 0.39401 0.32807 0.0
C3698 C 0.60541 0.40644 0.332 0.0
C3699 C 0.61501 0.39866 0.34553 0.0
C3700 C 0.62034 0.39281 0.33844 0.0
C3701 C 0.60773 0.40577 0.34231 0.0
C3702 C 0.6107 0.40064 0.32496 0.0
C3703 C 0.62454 0.38937 0.32006 0.0
O3704 O 0.64589 0.36616 0.32262 0.0
O3705 O 0.65435 0.38066 0.32227 0.0
O3706 O 0.63332 0.39356 0.31808 0.0
O3707 O 0.62444 0.37947 0.31893 0.0
H3708 H 0.65176 0.37457 0.34549 0.0
H3709 H 0.6643 0.371 0.35874 0.0
H3710 H 0.68366 0.35692 0.3365 0.0
H3711 H 0.67116 0.36056 0.32336 0.0
H3712 H 0.65269 0.37593 0.26061 0.0
H3713 H 0.65448 0.37129 0.27844 0.0
H3714 H 0.62648 0.3939 0.2679 0.0
H3715 H 0.62826 0.38916 0.28594 0.0
H3716 H 0.59995 0.41193 0.32931 0.0
H3717 H 0.6169 0.39801 0.35348 0.0
H3718 H 0.62622 0.38771 0.34099 0.0
H3719 H 0.6091 0.40167 0.31698 0.0
C3720 C 0.13573 0.94067 0.93505 0.0
C3721 C 0.13988 0.9416 0.92535 0.0
C3722 C 0.123 0.94453 0.91835 0.0
C3723 C 0.13357 0.94368 0.91709 0.0
C3724 C 0.11903 0.94419 0.92819 0.0
C3725 C 0.12535 0.94231 0.93644 0.0
U3726 U 0.15589 0.92913 0.95481 0.0
O3727 O 0.15902 0.93681 0.96941 0.0
O3728 O 0.14933 0.92319 0.96892 0.0
C3729 C 0.15307 0.93058 0.97439 0.0
C3730 C 0.14172 0.93773 0.94395 0.0
C3731 C 0.15375 0.92938 0.98547 0.0
C3732 C 0.14463 0.92933 1.00148 0.0
C3733 C 0.14505 0.93148 0.99114 0.0
C3734 C 0.16197 0.92359 1.00089 0.0
C3735 C 0.15297 0.92506 0.00649 0.0
C3736 C 0.16232 0.92559 0.99043 0.0
C3737 C 0.17683 0.91323 0.93957 0.0
C3738 C 0.1909 0.90202 0.93568 0.0
C3739 C 0.17955 0.90733 0.92234 0.0
C3740 C 0.17402 0.91315 0.92933 0.0
C3741 C 0.18791 0.90148 0.9255 0.0
C3742 C 0.18538 0.90777 0.94262 0.0
C3743 C 0.17082 0.91817 0.94758 0.0
O3744 O 0.1412 0.92831 0.94708 0.0
O3745 O 0.15036 0.94223 0.94593 0.0
O3746 O 0.17152 0.92802 0.94893 0.0
O3747 O 0.16186 0.91444 0.94968 0.0
H3748 H 0.1479 0.94054 0.92415 0.0
H3749 H 0.13696 0.94436 0.90966 0.0
H3750 H 0.11099 0.94488 0.92948 0.0
H3751 H 0.12205 0.94177 0.94393 0.0
H3752 H 0.13758 0.93058 0.00543 0.0
H3753 H 0.13836 0.93444 0.98745 0.0
H3754 H 0.1687 0.92068 1.00453 0.0
H3755 H 0.16915 0.92399 0.98621 0.0
H3756 H 0.19749 0.89798 0.93835 0.0
H3757 H 0.17708 0.90715 0.91453 0.0
H3758 H 0.16745 0.91733 0.92681 0.0
H3759 H 0.18771 0.90778 0.95048 0.0
C3760 C 0.35589 0.86536 0.16672 0.0
C3761 C 0.35855 0.86858 0.15698 0.0
C3762 C 0.34355 0.86029 0.15019 0.0
C3763 C 0.35242 0.86601 0.14873 0.0
C3764 C 0.34113 0.85687 0.15993 0.0
C3765 C 0.34727 0.85936 0.16811 0.0
U3766 U 0.37372 0.87842 0.18762 0.0
O3767 O 0.36612 0.88247 0.20179 0.0
O3768 O 0.37725 0.87008 0.20171 0.0
C3769 C 0.37058 0.87525 0.20695 0.0
C3770 C 0.36122 0.86877 0.17578 0.0
C3771 C 0.37223 0.87701 0.21778 0.0
C3772 C 0.36617 0.87383 0.23483 0.0
C3773 C 0.36605 0.87164 0.22452 0.0
C3774 C 0.37893 0.88666 0.23189 0.0
C3775 C 0.37243 0.88149 0.23858 0.0
C3776 C 0.37882 0.88443 0.22151 0.0
C3777 C 0.39337 0.89703 0.17406 0.0
C3778 C 0.40693 0.9091 0.17129 0.0
C3779 C 0.39515 0.90542 0.15777 0.0
C3780 C 0.39014 0.89843 0.16404 0.0
C3781 C 0.40336 0.91113 0.1615 0.0
C3782 C 0.40193 0.90221 0.17751 0.0
C3783 C 0.38765 0.89119 0.18163 0.0
O3784 O 0.37022 0.86518 0.17799 0.0
O3785 O 0.35946 0.87796 0.17916 0.0
O3786 O 0.37828 0.89389 0.18351 0.0
O3787 O 0.38936 0.88142 0.18258 0.0
H3788 H 0.36514 0.87329 0.15583 0.0
H3789 H 0.35435 0.86888 0.1413 0.0
H3790 H 0.33435 0.85246 0.16124 0.0
H3791 H 0.34509 0.85687 0.17562 0.0
H3792 H 0.36106 0.86981 0.23982 0.0
H3793 H 0.36084 0.86595 0.22174 0.0
H3794 H 0.38388 0.89255 0.23468 0.0
H3795 H 0.38361 0.88868 0.21639 0.0
H3796 H 0.41342 0.91309 0.17429 0.0
H3797 H 0.39227 0.90677 0.15022 0.0
H3798 H 0.38355 0.89447 0.16122 0.0
H3799 H 0.40457 0.90119 0.18521 0.0
C3800 C 0.16235 0.14368 0.67885 0.0
C3801 C 0.1584 0.14323 0.66901 0.0
C3802 C 0.17515 0.14686 0.66208 0.0
C3803 C 0.16475 0.14492 0.66067 0.0
C3804 C 0.17886 0.14788 0.67196 0.0
C3805 C 0.17252 0.1463 0.68024 0.0
U3806 U 0.14108 0.13093 0.6955 0.0
O3807 O 0.14472 0.12281 0.70956 0.0
O3808 O 0.13515 0.13669 0.71009 0.0
C3809 C 0.13947 0.12921 0.71504 0.0
C3810 C 0.15654 0.14085 0.68791 0.0
C3811 C 0.13945 0.12853 0.7261 0.0
C3812 C 0.14824 0.12881 0.74223 0.0
C3813 C 0.14816 0.13058 0.73177 0.0
C3814 C 0.13093 0.12293 0.74132 0.0
C3815 C 0.13964 0.12486 0.7471 0.0
C3816 C 0.13081 0.12485 0.73094 0.0
C3817 C 0.12048 0.11629 0.678 0.0
C3818 C 0.10608 0.10495 0.67701 0.0
C3819 C 0.11505 0.10975 0.66175 0.0
C3820 C 0.12153 0.11578 0.66748 0.0
C3821 C 0.10733 0.10415 0.66646 0.0
C3822 C 0.11263 0.11098 0.68275 0.0
C3823 C 0.12815 0.12174 0.68385 0.0
O3824 O 0.14767 0.14507 0.68942 0.0
O3825 O 0.15686 0.13125 0.69048 0.0
O3826 O 0.13645 0.11729 0.687 0.0
O3827 O 0.12671 0.13107 0.687 0.0
H3828 H 0.15055 0.14127 0.66778 0.0
H3829 H 0.16164 0.14428 0.65312 0.0
H3830 H 0.1868 0.14929 0.67331 0.0
H3831 H 0.17568 0.14671 0.68779 0.0
H3832 H 0.15506 0.13038 0.74648 0.0
H3833 H 0.15493 0.13336 0.7281 0.0
H3834 H 0.12429 0.11958 0.74473 0.0
H3835 H 0.12409 0.12307 0.72662 0.0
H3836 H 0.1002 0.10073 0.68083 0.0
H3837 H 0.11639 0.10911 0.65369 0.0
H3838 H 0.12762 0.11978 0.66373 0.0
H3839 H 0.11174 0.11128 0.6909 0.0
H3840 H 0.134 0.18397 0.35179 0.0
H3841 H 0.11105 0.1997 0.33469 0.0
H3842 H 0.13884 0.21463 0.34276 0.0
C3843 C 0.13144 0.19044 0.34746 0.0
C3844 C 0.13765 0.19898 0.34718 0.0
C3845 C 0.12185 0.19041 0.34288 0.0
C3846 C 0.11849 0.1994 0.33808 0.0
C3847 C 0.12454 0.20822 0.3381 0.0
C3848 C 0.13416 0.20789 0.34261 0.0
H3849 H 0.06173 0.894 0.61296 0.0
H3850 H 0.04662 0.87041 0.59666 0.0
H3851 H 0.03057 0.89762 0.60454 0.0
C3852 C 0.05502 0.89128 0.60916 0.0
C3853 C 0.04614 0.89706 0.60948 0.0
C3854 C 0.05537 0.88179 0.60444 0.0
C3855 C 0.04661 0.87799 0.59981 0.0
C3856 C 0.03759 0.88365 0.59995 0.0
C3857 C 0.03748 0.89324 0.60464 0.0
H3858 H 0.39257 0.82372 0.86311 0.0
H3859 H 0.40911 0.79628 0.85899 0.0
H3860 H 0.38179 0.8015 0.84182 0.0
C3861 C 0.39344 0.81654 0.85921 0.0
C3862 C 0.38616 0.81338 0.85221 0.0
C3863 C 0.4017 0.81043 0.86153 0.0
C3864 C 0.40283 0.80105 0.85679 0.0
C3865 C 0.39585 0.79777 0.84943 0.0
C3866 C 0.38735 0.80393 0.84732 0.0
H3867 H 0.44472 0.12811 0.11827 0.0
H3868 H 0.46069 0.14996 0.10096 0.0
H3869 H 0.47441 0.1209 0.10721 0.0
C3870 C 0.45126 0.12989 0.11369 0.0
C3871 C 0.45937 0.12308 0.1131 0.0
C3872 C 0.4515 0.13926 0.10879 0.0
C3873 C 0.46038 0.14237 0.10397 0.0
C3874 C 0.46883 0.13588 0.10338 0.0
C3875 C 0.46812 0.12612 0.1078 0.0
H3876 H 0.13155 0.82657 0.1576 0.0
H3877 H 0.11065 0.81167 0.17678 0.0
H3878 H 0.13882 0.79708 0.16904 0.0
C3879 C 0.12982 0.82009 0.16233 0.0
C3880 C 0.1367 0.81207 0.1632 0.0
C3881 C 0.12048 0.81984 0.16712 0.0
C3882 C 0.11768 0.81126 0.17271 0.0
C3883 C 0.1239 0.80251 0.173 0.0
C3884 C 0.13363 0.8033 0.1685 0.0
H3885 H 0.44381 0.88658 0.39517 0.0
H3886 H 0.45791 0.86214 0.41083 0.0
H3887 H 0.47608 0.88661 0.39921 0.0
C3888 C 0.45065 0.88316 0.3981 0.0
C3889 C 0.45999 0.88792 0.3966 0.0
C3890 C 0.44998 0.87361 0.40254 0.0
C3891 C 0.45858 0.86936 0.40703 0.0
C3892 C 0.46809 0.8741 0.40605 0.0
C3893 C 0.46873 0.88335 0.40068 0.0
H3894 H 0.39279 0.18408 0.649 0.0
H3895 H 0.40742 0.21277 0.64718 0.0
H3896 H 0.38236 0.20834 0.6677 0.0
C3897 C 0.39343 0.19188 0.65144 0.0
C3898 C 0.38618 0.19579 0.65807 0.0
C3899 C 0.4011 0.19796 0.64747 0.0
C3900 C 0.40205 0.20794 0.65098 0.0
C3901 C 0.39594 0.21175 0.65891 0.0
C3902 C 0.38764 0.20563 0.66208 0.0
H3903 H 0.06075 0.11849 0.89433 0.0
H3904 H 0.0472 0.13726 0.9168 0.0
H3905 H 0.03054 0.11262 0.90354 0.0
C3906 C 0.05439 0.12014 0.89922 0.0
C3907 C 0.04577 0.11401 0.89878 0.0
C3908 C 0.05499 0.12845 0.90572 0.0
C3909 C 0.04645 0.13114 0.91143 0.0
C3910 C 0.03708 0.12611 0.91017 0.0
C3911 C 0.03713 0.11718 0.90418 0.0
H3912 H 0.37333 0.11266 0.19872 0.0
H3913 H 0.37935 0.10452 0.22958 0.0
H3914 H 0.3631 0.13198 0.22269 0.0
C3915 C 0.37222 0.11398 0.20675 0.0
C3916 C 0.36733 0.1228 0.2099 0.0
C3917 C 0.3768 0.10753 0.21379 0.0
C3918 C 0.37567 0.10945 0.22415 0.0
C3919 C 0.37052 0.11816 0.22749 0.0
C3920 C 0.36638 0.12485 0.22028 0.0
H3921 H 0.14147 0.11467 0.4356 0.0
H3922 H 0.16255 0.10372 0.45672 0.0
H3923 H 0.13081 0.0959 0.45959 0.0
C3924 C 0.14306 0.11024 0.4423 0.0
C3925 C 0.13531 0.10458 0.44673 0.0
C3926 C 0.15272 0.11039 0.44641 0.0
C3927 C 0.15472 0.10453 0.45498 0.0
C3928 C 0.14694 0.09983 0.46069 0.0
C3929 C 0.13715 0.09961 0.45605 0.0
H3930 H 0.13578 0.90895 0.694 0.0
H3931 H 0.14535 0.88543 0.71461 0.0
H3932 H 0.12954 0.91149 0.72569 0.0
C3933 C 0.13667 0.90598 0.7016 0.0
C3934 C 0.13221 0.91123 0.70963 0.0
C3935 C 0.14123 0.89648 0.70314 0.0
C3936 C 0.14226 0.89288 0.71315 0.0
C3937 C 0.13844 0.89851 0.72132 0.0
C3938 C 0.13319 0.90754 0.71949 0.0
H3939 H 0.38295 0.91173 0.93171 0.0
H3940 H 0.35931 0.92375 0.94997 0.0
H3941 H 0.3885 0.91769 0.96294 0.0
C3942 C 0.38043 0.9146 0.93892 0.0
C3943 C 0.38687 0.91385 0.94731 0.0
C3944 C 0.37051 0.91814 0.93978 0.0
C3945 C 0.36716 0.92171 0.94927 0.0
C3946 C 0.37373 0.92217 0.95775 0.0
C3947 C 0.38354 0.91802 0.95656 0.0
H3948 H 0.37476 0.89887 0.30961 0.0
H3949 H 0.37792 0.90712 0.27834 0.0
H3950 H 0.36335 0.87916 0.28649 0.0
C3951 C 0.37314 0.89749 0.30169 0.0
C3952 C 0.3684 0.88843 0.29888 0.0
C3953 C 0.37669 0.90425 0.29431 0.0
C3954 C 0.37505 0.90201 0.28405 0.0
C3955 C 0.37032 0.89294 0.28108 0.0
C3956 C 0.3669 0.88625 0.2886 0.0
H3957 H 0.38243 0.09724 0.57806 0.0
H3958 H 0.35953 0.08467 0.55886 0.0
H3959 H 0.38789 0.0941 0.54608 0.0
C3960 C 0.38003 0.0948 0.57061 0.0
C3961 C 0.38627 0.09655 0.5622 0.0
C3962 C 0.37026 0.09095 0.56944 0.0
C3963 C 0.36715 0.08751 0.55988 0.0
C3964 C 0.37371 0.08814 0.55153 0.0
C3965 C 0.38318 0.09288 0.55268 0.0
H3966 H 0.13454 0.10228 0.81637 0.0
H3967 H 0.14642 0.12398 0.79533 0.0
H3968 H 0.13079 0.09766 0.78437 0.0
C3969 C 0.1363 0.10438 0.80863 0.0
C3970 C 0.13249 0.09857 0.8006 0.0
C3971 C 0.14135 0.1135 0.80676 0.0
C3972 C 0.14297 0.11668 0.79678 0.0
C3973 C 0.13934 0.11087 0.78869 0.0
C3974 C 0.13405 0.10186 0.79061 0.0
H3975 H 0.14209 0.89678 0.07407 0.0
H3976 H 0.1617 0.90372 0.04941 0.0
H3977 H 0.13119 0.91553 0.0498 0.0
C3978 C 0.14337 0.90064 0.06693 0.0
C3979 C 0.13573 0.90664 0.06277 0.0
C3980 C 0.15254 0.8993 0.06196 0.0
C3981 C 0.15435 0.90447 0.05289 0.0
C3982 C 0.14663 0.91007 0.04808 0.0
C3983 C 0.13731 0.91135 0.05327 0.0
H3984 H 0.19388 0.36611 0.13447 0.0
H3985 H 0.20903 0.34832 0.11193 0.0
H3986 H 0.22563 0.36027 0.13722 0.0
C3987 C 0.20065 0.36237 0.13179 0.0
C3988 C 0.20968 0.36363 0.13717 0.0
C3989 C 0.20031 0.35687 0.12273 0.0
C3990 C 0.20916 0.35229 0.1191 0.0
C3991 C 0.21829 0.35334 0.12443 0.0
C3992 C 0.2185 0.35906 0.13341 0.0
H3993 H 0.69233 0.1482 0.87319 0.0
H3994 H 0.70913 0.1582 0.89891 0.0
H3995 H 0.72486 0.1492 0.872 0.0
C3996 C 0.69959 0.14938 0.87672 0.0
C3997 C 0.70858 0.14715 0.87146 0.0
C3998 C 0.69973 0.15232 0.88691 0.0
C3999 C 0.70888 0.15565 0.89112 0.0
C4000 C 0.71784 0.15523 0.88539 0.0
C4001 C 0.71774 0.15052 0.87581 0.0
H4002 H 0.12086 0.45014 0.1517 0.0
H4003 H 0.12882 0.48123 0.15522 0.0
H4004 H 0.11525 0.47129 0.12739 0.0
C4005 C 0.121 0.45771 0.14857 0.0
C4006 C 0.11778 0.45952 0.1386 0.0
C4007 C 0.12559 0.46537 0.15419 0.0
C4008 C 0.12532 0.47534 0.1507 0.0
C4009 C 0.12114 0.47763 0.14123 0.0
C4010 C 0.11758 0.46965 0.13508 0.0
H4011 H 0.8113 0.86112 0.36404 0.0
H4012 H 0.79673 0.84719 0.38959 0.0
H4013 H 0.77926 0.85622 0.36361 0.0
C4014 C 0.80455 0.85813 0.36761 0.0
C4015 C 0.79526 0.85917 0.36269 0.0
C4016 C 0.80515 0.85423 0.37745 0.0
C4017 C 0.79641 0.85014 0.38194 0.0
C4018 C 0.78708 0.85058 0.37682 0.0
C4019 C 0.78652 0.85533 0.3673 0.0
H4020 H 0.88578 0.06687 0.1572 0.0
H4021 H 0.89572 0.04535 0.1349 0.0
H4022 H 0.87987 0.03527 0.16151 0.0
C4023 C 0.8867 0.0591 0.15469 0.0
C4024 C 0.88219 0.05135 0.16028 0.0
C4025 C 0.89132 0.05714 0.14538 0.0
C4026 C 0.8925 0.047 0.14225 0.0
C4027 C 0.8887 0.039 0.14824 0.0
C4028 C 0.88343 0.04128 0.15721 0.0
H4029 H 0.31142 0.64579 0.64416 0.0
H4030 H 0.29812 0.66547 0.62191 0.0
H4031 H 0.27987 0.65233 0.64558 0.0
C4032 C 0.30504 0.65004 0.64129 0.0
C4033 C 0.29573 0.64908 0.64617 0.0
C4034 C 0.30598 0.65587 0.63248 0.0
C4035 C 0.29742 0.66086 0.62866 0.0
C4036 C 0.28791 0.65967 0.63328 0.0
C4037 C 0.28714 0.6537 0.64207 0.0
H4038 H 0.12512 0.56031 0.3611 0.0
H4039 H 0.12846 0.52914 0.35279 0.0
H4040 H 0.11487 0.53715 0.38129 0.0
C4041 C 0.12367 0.55239 0.36253 0.0
C4042 C 0.11928 0.54966 0.37177 0.0
C4043 C 0.12692 0.54511 0.35555 0.0
C4044 C 0.12559 0.53482 0.35793 0.0
C4045 C 0.12117 0.53183 0.36716 0.0
C4046 C 0.11796 0.53935 0.37403 0.0
H4047 H 0.38438 0.44328 0.85327 0.0
H4048 H 0.39626 0.46595 0.87339 0.0
H4049 H 0.38035 0.47471 0.84636 0.0
C4050 C 0.38608 0.45114 0.85494 0.0
C4051 C 0.38222 0.45872 0.84864 0.0
C4052 C 0.39113 0.45366 0.86391 0.0
C4053 C 0.39261 0.46393 0.86634 0.0
C4054 C 0.38863 0.47159 0.86011 0.0
C4055 C 0.38365 0.4689 0.85113 0.0
H4056 H 0.88309 0.80637 0.62846 0.0
H4057 H 0.89957 0.78067 0.63887 0.0
H4058 H 0.86796 0.78286 0.64531 0.0
C4059 C 0.8832 0.79961 0.6331 0.0
C4060 C 0.87413 0.79526 0.63651 0.0
C4061 C 0.89246 0.79469 0.63458 0.0
C4062 C 0.89268 0.78511 0.63905 0.0
C4063 C 0.8837 0.78073 0.64251 0.0
C4064 C 0.8747 0.78628 0.64219 0.0
H4065 H 0.94417 0.13926 0.38546 0.0
H4066 H 0.97441 0.14862 0.37949 0.0
H4067 H 0.96898 0.1236 0.39968 0.0
C4068 C 0.95214 0.13837 0.38706 0.0
C4069 C 0.95563 0.13019 0.39291 0.0
C4070 C 0.95886 0.14522 0.38261 0.0
C4071 C 0.96928 0.14368 0.38356 0.0
C4072 C 0.97305 0.13559 0.38939 0.0
C4073 C 0.96613 0.12931 0.39456 0.0
H4074 H 0.62163 0.21113 0.12973 0.0
H4075 H 0.60744 0.23978 0.13444 0.0
H4076 H 0.63911 0.23636 0.14057 0.0
C4077 C 0.6221 0.2187 0.13284 0.0
C4078 C 0.63153 0.22289 0.13534 0.0
C4079 C 0.61334 0.22466 0.13302 0.0
C4080 C 0.61402 0.23497 0.13538 0.0
C4081 C 0.62339 0.23926 0.13779 0.0
C4082 C 0.63192 0.23301 0.13853 0.0
H4083 H 0.57581 0.86023 0.88835 0.0
H4084 H 0.54918 0.84323 0.89496 0.0
H4085 H 0.55428 0.87216 0.90946 0.0
C4086 C 0.5688 0.85944 0.89254 0.0
C4087 C 0.56594 0.86696 0.89943 0.0
C4088 C 0.56264 0.8511 0.89065 0.0
C4089 C 0.55378 0.84986 0.89633 0.0
C4090 C 0.5506 0.85734 0.90331 0.0
C4091 C 0.55679 0.86596 0.90474 0.0
H4092 H 0.88319 0.20272 0.87923 0.0
H4093 H 0.89903 0.22977 0.87082 0.0
H4094 H 0.86667 0.22857 0.86868 0.0
C4095 C 0.88311 0.2101 0.87561 0.0
C4096 C 0.87387 0.21489 0.87371 0.0
C4097 C 0.89223 0.21538 0.87439 0.0
C4098 C 0.8921 0.2254 0.87086 0.0
C4099 C 0.88285 0.23018 0.86878 0.0
C4100 C 0.87383 0.22475 0.86987 0.0
H4101 H 0.57624 0.14917 0.62079 0.0
H4102 H 0.55091 0.1678 0.61363 0.0
H4103 H 0.55443 0.13865 0.59911 0.0
C4104 C 0.56946 0.15042 0.61634 0.0
C4105 C 0.56648 0.14328 0.6091 0.0
C4106 C 0.56369 0.15905 0.61812 0.0
C4107 C 0.55493 0.16076 0.61251 0.0
C4108 C 0.55111 0.15324 0.60598 0.0
C4109 C 0.5571 0.14453 0.60416 0.0
H4110 H 0.62123 0.79911 0.37947 0.0
H4111 H 0.60751 0.77021 0.37431 0.0
H4112 H 0.63957 0.77406 0.37025 0.0
C4113 C 0.62179 0.79144 0.37658 0.0
C4114 C 0.6313 0.78734 0.37452 0.0
C4115 C 0.61315 0.78534 0.37614 0.0
C4116 C 0.61405 0.77509 0.37359 0.0
C4117 C 0.62359 0.77093 0.37142 0.0
C4118 C 0.63212 0.77725 0.37149 0.0
H4119 H 0.94456 0.86833 0.1218 0.0
H4120 H 0.97513 0.85989 0.12796 0.0
H4121 H 0.96877 0.88867 0.11392 0.0
C4122 C 0.95257 0.8699 0.12106 0.0
C4123 C 0.95577 0.87926 0.11714 0.0
C4124 C 0.95949 0.86302 0.1251 0.0
C4125 C 0.96982 0.86517 0.12462 0.0
C4126 C 0.97329 0.87432 0.12041 0.0
C4127 C 0.96621 0.88133 0.11657 0.0
H4128 H 0.6556 0.875 0.8196 0.0
H4129 H 0.67331 0.89899 0.80673 0.0
H4130 H 0.66593 0.87267 0.78891 0.0
C4131 C 0.66015 0.87793 0.81343 0.0
C4132 C 0.66056 0.87259 0.80432 0.0
C4133 C 0.66468 0.88745 0.81436 0.0
C4134 C 0.67019 0.89142 0.80621 0.0
C4135 C 0.67083 0.88604 0.79702 0.0
C4136 C 0.66604 0.87656 0.79614 0.0
H4137 H 0.87387 0.88501 0.54884 0.0
H4138 H 0.85709 0.88376 0.52062 0.0
H4139 H 0.88881 0.88824 0.52057 0.0
C4140 C 0.87318 0.88543 0.54073 0.0
C4141 C 0.8822 0.88595 0.53523 0.0
C4142 C 0.86373 0.88435 0.53578 0.0
C4143 C 0.8637 0.88529 0.52509 0.0
C4144 C 0.87264 0.88733 0.51976 0.0
C4145 C 0.88184 0.88765 0.52485 0.0
H4146 H 0.85099 0.13235 0.32818 0.0
H4147 H 0.83275 0.10879 0.31545 0.0
H4148 H 0.83986 0.13562 0.29802 0.0
C4149 C 0.84627 0.12957 0.32207 0.0
C4150 C 0.84529 0.13529 0.31326 0.0
C4151 C 0.84212 0.11986 0.3227 0.0
C4152 C 0.83604 0.11626 0.31478 0.0
C4153 C 0.83487 0.12196 0.30578 0.0
C4154 C 0.83984 0.13141 0.30505 0.0
H4155 H 0.63284 0.13148 0.05633 0.0
H4156 H 0.64985 0.12066 0.03119 0.0
H4157 H 0.61757 0.11753 0.0312 0.0
C4158 C 0.63297 0.12704 0.04945 0.0
C4159 C 0.62392 0.12411 0.04479 0.0
C4160 C 0.64229 0.12548 0.04475 0.0
C4161 C 0.6427 0.12105 0.03518 0.0
C4162 C 0.63372 0.11852 0.03015 0.0
C4163 C 0.62444 0.11947 0.0352 0.0
H4164 H 0.6556 0.13399 0.68917 0.0
H4165 H 0.67711 0.11349 0.70128 0.0
H4166 H 0.66345 0.1362 0.72059 0.0
C4167 C 0.66 0.13145 0.69561 0.0
C4168 C 0.65946 0.13665 0.70485 0.0
C4169 C 0.66588 0.12274 0.69467 0.0
C4170 C 0.67188 0.11957 0.70274 0.0
C4171 C 0.67094 0.12402 0.71241 0.0
C4172 C 0.66467 0.1327 0.7133 0.0
H4173 H 0.63627 0.88445 0.45152 0.0
H4174 H 0.64966 0.88889 0.4806 0.0
H4175 H 0.61768 0.88957 0.47794 0.0
C4176 C 0.6352 0.88589 0.45946 0.0
C4177 C 0.62545 0.88632 0.4638 0.0
C4178 C 0.6439 0.88647 0.46552 0.0
C4179 C 0.64303 0.88895 0.4758 0.0
C4180 C 0.63347 0.89053 0.48005 0.0
C4181 C 0.62485 0.8892 0.47407 0.0
H4182 H 0.84927 0.87721 0.17965 0.0
H4183 H 0.83393 0.90159 0.19457 0.0
H4184 H 0.84119 0.87442 0.21106 0.0
C4185 C 0.84564 0.88021 0.18637 0.0
C4186 C 0.84609 0.87473 0.19544 0.0
C4187 C 0.84181 0.89008 0.18609 0.0
C4188 C 0.83674 0.89388 0.19461 0.0
C4189 C 0.83606 0.88804 0.20352 0.0
C4190 C 0.84088 0.8785 0.20395 0.0
H4191 H 0.87107 0.12533 0.9592 0.0
H4192 H 0.85927 0.12877 0.98885 0.0
H4193 H 0.88842 0.11498 0.98397 0.0
C4194 C 0.87228 0.12469 0.96716 0.0
C4195 C 0.8818 0.12236 0.97115 0.0
C4196 C 0.86406 0.12702 0.97343 0.0
C4197 C 0.86519 0.12597 0.98396 0.0
C4198 C 0.87416 0.12181 0.98809 0.0
C4199 C 0.88198 0.11919 0.98132 0.0
H4200 H 0.82576 0.63901 0.89865 0.0
H4201 H 0.79878 0.64462 0.91573 0.0
H4202 H 0.80456 0.6614 0.8883 0.0
C4203 C 0.81886 0.64329 0.89979 0.0
C4204 C 0.81609 0.65077 0.89281 0.0
C4205 C 0.81265 0.64106 0.90804 0.0
C4206 C 0.80364 0.64645 0.90938 0.0
C4207 C 0.80056 0.65374 0.90223 0.0
C4208 C 0.80694 0.65601 0.89401 0.0
H4209 H 0.32559 0.87069 0.11003 0.0
H4210 H 0.29826 0.86467 0.09362 0.0
H4211 H 0.3046 0.84854 0.12127 0.0
C4212 C 0.31868 0.86637 0.10914 0.0
C4213 C 0.31604 0.8591 0.11637 0.0
C4214 C 0.31227 0.86842 0.10099 0.0
C4215 C 0.3033 0.86294 0.09985 0.0
C4216 C 0.30049 0.85573 0.10714 0.0
C4217 C 0.30684 0.85391 0.11548 0.0
H4218 H 0.91041 0.57104 0.88632 0.0
H4219 H 0.92197 0.5558 0.85991 0.0
H4220 H 0.91462 0.5388 0.88629 0.0
C4221 C 0.91275 0.56422 0.88242 0.0
C4222 C 0.91147 0.55487 0.88731 0.0
C4223 C 0.91595 0.5648 0.8723 0.0
C4224 C 0.91972 0.55589 0.86776 0.0
C4225 C 0.92004 0.54672 0.87318 0.0
C4226 C 0.91553 0.54614 0.88278 0.0
H4227 H 0.19424 0.13926 0.61877 0.0
H4228 H 0.22463 0.13046 0.61142 0.0
H4229 H 0.21842 0.14574 0.63945 0.0
C4230 C 0.20221 0.13902 0.62062 0.0
C4231 C 0.20538 0.14249 0.63013 0.0
C4232 C 0.20888 0.13405 0.61405 0.0
C4233 C 0.21929 0.13434 0.61627 0.0
C4234 C 0.22283 0.13916 0.62513 0.0
C4235 C 0.2158 0.14299 0.63218 0.0
H4236 H 0.09659 0.92913 0.88056 0.0
H4237 H 0.08124 0.94568 0.85769 0.0
H4238 H 0.0921 0.96128 0.8842 0.0
C4239 C 0.09375 0.93634 0.87793 0.0
C4240 C 0.0953 0.94523 0.88359 0.0
C4241 C 0.08952 0.93677 0.86827 0.0
C4242 C 0.08484 0.94567 0.86505 0.0
C4243 C 0.08516 0.95452 0.87099 0.0
C4244 C 0.09076 0.9543 0.88013 0.0
H4245 H 0.69431 0.37361 0.38885 0.0
H4246 H 0.7246 0.3792 0.39859 0.0
H4247 H 0.71916 0.36231 0.3712 0.0
C4248 C 0.70234 0.37228 0.38793 0.0
C4249 C 0.70589 0.36719 0.37932 0.0
C4250 C 0.70904 0.37651 0.39494 0.0
C4251 C 0.71947 0.37555 0.39336 0.0
C4252 C 0.72326 0.37039 0.38484 0.0
C4253 C 0.71638 0.36619 0.37787 0.0
H4254 H 0.90948 0.43763 0.62276 0.0
H4255 H 0.92544 0.45204 0.64676 0.0
H4256 H 0.91171 0.47011 0.62346 0.0
C4257 C 0.91193 0.44447 0.62639 0.0
C4258 C 0.90951 0.45389 0.62201 0.0
C4259 C 0.91675 0.44378 0.6358 0.0
C4260 C 0.92114 0.45256 0.6398 0.0
C4261 C 0.91952 0.46208 0.63531 0.0
C4262 C 0.91356 0.46272 0.62648 0.0
H4263 H 0.59847 0.5793 0.12634 0.0
H4264 H 0.58488 0.56379 0.15172 0.0
H4265 H 0.59031 0.54805 0.12395 0.0
C4266 C 0.59501 0.57268 0.12972 0.0
C4267 C 0.59487 0.56369 0.12413 0.0
C4268 C 0.59173 0.5729 0.13987 0.0
C4269 C 0.58705 0.56416 0.14384 0.0
C4270 C 0.58605 0.55539 0.13792 0.0
C4271 C 0.59026 0.55508 0.12819 0.0
H4272 H 0.63486 0.68301 0.84893 0.0
H4273 H 0.61017 0.70052 0.83679 0.0
H4274 H 0.63943 0.71411 0.84141 0.0
C4275 C 0.63186 0.68999 0.84582 0.0
C4276 C 0.63806 0.6985 0.84564 0.0
C4277 C 0.6217 0.69055 0.84282 0.0
C4278 C 0.61808 0.69977 0.83873 0.0
C4279 C 0.62449 0.70832 0.8379 0.0
C4280 C 0.63449 0.70757 0.84153 0.0
H4281 H 0.56233 0.39352 0.11217 0.0
H4282 H 0.54599 0.37061 0.09614 0.0
H4283 H 0.53068 0.39761 0.10615 0.0
C4284 C 0.55542 0.39111 0.1085 0.0
C4285 C 0.54662 0.39692 0.10945 0.0
C4286 C 0.55527 0.38176 0.10357 0.0
C4287 C 0.54619 0.37807 0.09955 0.0
C4288 C 0.53726 0.38372 0.10054 0.0
C4289 C 0.53755 0.39322 0.10537 0.0
H4290 H 0.89471 0.32449 0.36152 0.0
H4291 H 0.90989 0.29644 0.3572 0.0
H4292 H 0.88019 0.30067 0.3444 0.0
C4293 C 0.89464 0.31697 0.35824 0.0
C4294 C 0.88617 0.31348 0.35286 0.0
C4295 C 0.90287 0.31071 0.36011 0.0
C4296 C 0.90334 0.30115 0.35573 0.0
C4297 C 0.89535 0.29754 0.34972 0.0
C4298 C 0.88665 0.3037 0.3484 0.0
H4299 H 0.94273 0.62596 0.61476 0.0
H4300 H 0.95991 0.64935 0.60074 0.0
H4301 H 0.9737 0.6204 0.6077 0.0
C4302 C 0.94986 0.6285 0.61163 0.0
C4303 C 0.95853 0.62255 0.61271 0.0
C4304 C 0.95041 0.63808 0.60731 0.0
C4305 C 0.95956 0.64159 0.60337 0.0
C4306 C 0.9682 0.63529 0.60322 0.0
C4307 C 0.96743 0.62559 0.60776 0.0
H4308 H 0.63307 0.32658 0.65755 0.0
H4309 H 0.6103 0.30994 0.67336 0.0
H4310 H 0.64034 0.29744 0.66933 0.0
C4311 C 0.63085 0.32006 0.66201 0.0
C4312 C 0.6376 0.31202 0.66295 0.0
C4313 C 0.6212 0.31963 0.66629 0.0
C4314 C 0.61807 0.31054 0.671 0.0
C4315 C 0.62483 0.30224 0.67221 0.0
C4316 C 0.63479 0.30339 0.66844 0.0
H4317 H 0.94509 0.38497 0.89259 0.0
H4318 H 0.95828 0.3635 0.91329 0.0
H4319 H 0.97639 0.38712 0.90012 0.0
C4320 C 0.95137 0.38217 0.89703 0.0
C4321 C 0.96053 0.38743 0.89651 0.0
C4322 C 0.95044 0.37321 0.90269 0.0
C4323 C 0.95894 0.36986 0.90819 0.0
C4324 C 0.96849 0.37442 0.90688 0.0
C4325 C 0.96916 0.38341 0.90118 0.0
H4326 H 0.89323 0.68572 0.14918 0.0
H4327 H 0.90818 0.71462 0.15157 0.0
H4328 H 0.8802 0.70938 0.16722 0.0
C4329 C 0.89365 0.69335 0.15218 0.0
C4330 C 0.88572 0.6968 0.15828 0.0
C4331 C 0.90173 0.69967 0.14942 0.0
C4332 C 0.9022 0.70946 0.15369 0.0
C4333 C 0.89467 0.71288 0.16042 0.0
C4334 C 0.88626 0.70662 0.16245 0.0
H4335 H 0.56114 0.61433 0.39884 0.0
H4336 H 0.54632 0.63967 0.4127 0.0
H4337 H 0.52903 0.61412 0.40231 0.0
C4338 C 0.55433 0.61801 0.40149 0.0
C4339 C 0.54506 0.61317 0.39996 0.0
C4340 C 0.55496 0.62774 0.40569 0.0
C4341 C 0.54603 0.63218 0.40947 0.0
C4342 C 0.53661 0.62719 0.40873 0.0
C4343 C 0.53621 0.61778 0.40363 0.0
H4344 H 0.87318 0.60954 0.69969 0.0
H4345 H 0.87869 0.60389 0.7311 0.0
H4346 H 0.86411 0.63155 0.72195 0.0
C4347 C 0.8721 0.6117 0.70755 0.0
C4348 C 0.86804 0.62122 0.70987 0.0
C4349 C 0.8761 0.60557 0.71515 0.0
C4350 C 0.87524 0.60851 0.72525 0.0
C4351 C 0.87064 0.61773 0.72779 0.0
C4352 C 0.86696 0.62409 0.72007 0.0
H4353 H 0.64211 0.61245 0.93553 0.0
H4354 H 0.66021 0.6078 0.96184 0.0
H4355 H 0.63116 0.59293 0.95919 0.0
C4356 C 0.64318 0.60877 0.94281 0.0
C4357 C 0.63593 0.60197 0.94638 0.0
C4358 C 0.65173 0.61108 0.94848 0.0
C4359 C 0.65327 0.60628 0.95779 0.0
C4360 C 0.64574 0.60001 0.96205 0.0
C4361 C 0.63704 0.59777 0.95617 0.0
H4362 H 0.6369 0.40855 0.19343 0.0
H4363 H 0.64604 0.38561 0.21457 0.0
H4364 H 0.62883 0.41127 0.22474 0.0
C4365 C 0.63728 0.4057 0.20111 0.0
C4366 C 0.63214 0.41087 0.20876 0.0
C4367 C 0.64173 0.39627 0.20295 0.0
C4368 C 0.64254 0.39284 0.213 0.0
C4369 C 0.63833 0.39852 0.221 0.0
C4370 C 0.63293 0.40743 0.21877 0.0
H4371 H 0.88294 0.40907 0.43269 0.0
H4372 H 0.85977 0.42413 0.44966 0.0
H4373 H 0.88926 0.41986 0.46277 0.0
C4374 C 0.88068 0.41321 0.43941 0.0
C4375 C 0.88742 0.4141 0.44755 0.0
C4376 C 0.87077 0.41681 0.44005 0.0
C4377 C 0.86756 0.42172 0.44893 0.0
C4378 C 0.87427 0.42287 0.45714 0.0
C4379 C 0.8842 0.41912 0.45637 0.0
H4380 H 0.87291 0.39871 0.80974 0.0
H4381 H 0.87866 0.40585 0.77856 0.0
H4382 H 0.86294 0.37846 0.78629 0.0
C4383 C 0.87168 0.39713 0.80177 0.0
C4384 C 0.86699 0.38808 0.79887 0.0
C4385 C 0.87596 0.40351 0.79447 0.0
C4386 C 0.87504 0.40111 0.78419 0.0
C4387 C 0.87018 0.39218 0.78123 0.0
C4388 C 0.86622 0.38564 0.78857 0.0
H4389 H 0.88553 0.59832 0.07672 0.0
H4390 H 0.86019 0.5873 0.05933 0.0
H4391 H 0.889 0.59193 0.04516 0.0
C4392 C 0.88227 0.59555 0.06973 0.0
C4393 C 0.88827 0.59564 0.06104 0.0
C4394 C 0.872 0.59282 0.06932 0.0
C4395 C 0.86812 0.58914 0.06006 0.0
C4396 C 0.87436 0.5883 0.05146 0.0
C4397 C 0.88439 0.59179 0.05194 0.0
H4398 H 0.6409 0.60075 0.316 0.0
H4399 H 0.64441 0.62526 0.29573 0.0
H4400 H 0.62988 0.59837 0.28532 0.0
C4401 C 0.63891 0.60381 0.30876 0.0
C4402 C 0.63315 0.59843 0.30158 0.0
C4403 C 0.64179 0.61384 0.30711 0.0
C4404 C 0.64182 0.61762 0.29722 0.0
C4405 C 0.63827 0.61156 0.28928 0.0
C4406 C 0.63348 0.60226 0.29152 0.0
H4407 H 0.64239 0.39803 0.57393 0.0
H4408 H 0.6597 0.40234 0.54695 0.0
H4409 H 0.63082 0.41736 0.55049 0.0
C4410 C 0.64332 0.40168 0.56663 0.0
C4411 C 0.63589 0.40834 0.56313 0.0
C4412 C 0.65173 0.39934 0.56072 0.0
C4413 C 0.65301 0.40408 0.55134 0.0
C4414 C 0.64553 0.41064 0.54741 0.0
C4415 C 0.63686 0.41266 0.5534 0.0
H4416 H 0.69422 0.86617 0.63406 0.0
H4417 H 0.71019 0.84995 0.61084 0.0
H4418 H 0.72562 0.85892 0.63808 0.0
C4419 C 0.701 0.86237 0.63144 0.0
C4420 C 0.7098 0.86281 0.63732 0.0
C4421 C 0.70107 0.85769 0.62193 0.0
C4422 C 0.70999 0.85321 0.61837 0.0
C4423 C 0.71882 0.85347 0.62424 0.0
C4424 C 0.7187 0.85824 0.63376 0.0
H4425 H 0.19477 0.64283 0.37498 0.0
H4426 H 0.20971 0.65936 0.39847 0.0
H4427 H 0.22531 0.65225 0.37061 0.0
C4428 C 0.2013 0.64696 0.37771 0.0
C4429 C 0.21005 0.6471 0.37185 0.0
C4430 C 0.20108 0.65152 0.38727 0.0
C4431 C 0.20985 0.65629 0.39092 0.0
C4432 C 0.21878 0.65672 0.38508 0.0
C4433 C 0.21869 0.65211 0.3754 0.0
H4434 H 0.62193 0.94943 0.64977 0.0
H4435 H 0.62897 0.98061 0.65472 0.0
H4436 H 0.61439 0.97156 0.62701 0.0
C4437 C 0.62158 0.9572 0.64717 0.0
C4438 C 0.61782 0.95941 0.63749 0.0
C4439 C 0.62617 0.9647 0.65306 0.0
C4440 C 0.6254 0.97484 0.65011 0.0
C4441 C 0.62075 0.97748 0.64087 0.0
C4442 C 0.6171 0.96968 0.63451 0.0
H4443 H 0.31116 0.36399 0.86674 0.0
H4444 H 0.2973 0.34295 0.88717 0.0
H4445 H 0.2796 0.35757 0.86402 0.0
C4446 C 0.30466 0.35963 0.86916 0.0
C4447 C 0.29562 0.36052 0.86371 0.0
C4448 C 0.30537 0.35353 0.87779 0.0
C4449 C 0.29668 0.34833 0.88103 0.0
C4450 C 0.28714 0.35029 0.87668 0.0
C4451 C 0.28675 0.35619 0.86774 0.0
H4452 H 0.38382 0.56682 0.65684 0.0
H4453 H 0.39789 0.54554 0.63652 0.0
H4454 H 0.38006 0.53494 0.66151 0.0
C4455 C 0.38592 0.55913 0.65486 0.0
C4456 C 0.3819 0.55113 0.66051 0.0
C4457 C 0.39171 0.55725 0.64616 0.0
C4458 C 0.39363 0.54717 0.64334 0.0
C4459 C 0.38949 0.53915 0.64888 0.0
C4460 C 0.38362 0.54113 0.65747 0.0
H4461 H 0.8115 0.14573 0.14278 0.0
H4462 H 0.7969 0.16474 0.12104 0.0
H4463 H 0.78061 0.15463 0.14735 0.0
C4464 C 0.80497 0.15016 0.14059 0.0
C4465 C 0.79613 0.14962 0.14641 0.0
C4466 C 0.80547 0.15603 0.13179 0.0
C4467 C 0.79671 0.16077 0.12821 0.0
C4468 C 0.78764 0.16003 0.13367 0.0
C4469 C 0.7875 0.15476 0.14295 0.0
H4470 H 0.62253 0.0597 0.85863 0.0
H4471 H 0.63077 0.02882 0.85411 0.0
H4472 H 0.61435 0.03721 0.88086 0.0
C4473 C 0.62216 0.0519 0.86116 0.0
C4474 C 0.61805 0.04954 0.87069 0.0
C4475 C 0.62692 0.04448 0.85535 0.0
C4476 C 0.62662 0.0344 0.85845 0.0
C4477 C 0.62144 0.03157 0.86729 0.0
C4478 C 0.61746 0.03925 0.87358 0.0
H4479 H 0.88452 0.94388 0.35131 0.0
H4480 H 0.89795 0.96407 0.37289 0.0
H4481 H 0.87859 0.97553 0.34915 0.0
C4482 C 0.88595 0.9515 0.35404 0.0
C4483 C 0.88139 0.95962 0.34912 0.0
C4484 C 0.89139 0.95298 0.363 0.0
C4485 C 0.89334 0.96295 0.36626 0.0
C4486 C 0.8889 0.97133 0.36125 0.0
C4487 C 0.88271 0.96944 0.35277 0.0
H4488 H 0.38257 0.30862 0.13642 0.0
H4489 H 0.39912 0.28077 0.13937 0.0
H4490 H 0.36716 0.28023 0.13599 0.0
C4491 C 0.38286 0.30044 0.13657 0.0
C4492 C 0.37386 0.29503 0.13539 0.0
C4493 C 0.39223 0.29539 0.1365 0.0
C4494 C 0.39217 0.28492 0.13877 0.0
C4495 C 0.38296 0.27956 0.13976 0.0
C4496 C 0.37398 0.28458 0.13717 0.0
H4497 H 0.44422 0.63883 0.88603 0.0
H4498 H 0.47348 0.65195 0.88447 0.0
H4499 H 0.46975 0.6214 0.89558 0.0
C4500 C 0.45226 0.63827 0.88752 0.0
C4501 C 0.45622 0.62945 0.89188 0.0
C4502 C 0.45859 0.64609 0.8844 0.0
C4503 C 0.469 0.64532 0.88602 0.0
C4504 C 0.47343 0.63615 0.8893 0.0
C4505 C 0.4668 0.62839 0.89261 0.0
H4506 H 0.12231 0.71063 0.6353 0.0
H4507 H 0.10649 0.7388 0.63436 0.0
H4508 H 0.13834 0.73913 0.63689 0.0
C4509 C 0.12262 0.71879 0.63586 0.0
C4510 C 0.13194 0.72393 0.63627 0.0
C4511 C 0.11358 0.72412 0.63451 0.0
C4512 C 0.11341 0.73461 0.63571 0.0
C4513 C 0.12243 0.73981 0.63742 0.0
C4514 C 0.13162 0.73457 0.63727 0.0
H4515 H 0.07609 0.36024 0.38909 0.0
H4516 H 0.04782 0.34489 0.39315 0.0
H4517 H 0.05508 0.37107 0.41134 0.0
C4518 C 0.06901 0.35938 0.39314 0.0
C4519 C 0.06635 0.36646 0.40055 0.0
C4520 C 0.06237 0.35161 0.39041 0.0
C4521 C 0.05305 0.35077 0.39543 0.0
C4522 C 0.05038 0.35762 0.40319 0.0
C4523 C 0.05707 0.36557 0.40559 0.0
H4524 H 0.38483 0.70282 0.38099 0.0
H4525 H 0.3999 0.72751 0.36682 0.0
H4526 H 0.36742 0.72791 0.37174 0.0
C4527 C 0.38454 0.71003 0.37706 0.0
C4528 C 0.37525 0.7147 0.37569 0.0
C4529 C 0.39346 0.71491 0.37418 0.0
C4530 C 0.3929 0.72448 0.36952 0.0
C4531 C 0.3836 0.72981 0.36873 0.0
C4532 C 0.37479 0.72446 0.37166 0.0
H4533 H 0.07476 0.64885 0.12128 0.0
H4534 H 0.04738 0.66494 0.11472 0.0
H4535 H 0.0556 0.63849 0.09725 0.0
C4536 C 0.06809 0.64987 0.11661 0.0
C4537 C 0.06597 0.6429 0.10895 0.0
C4538 C 0.06151 0.65789 0.11859 0.0
C4539 C 0.05265 0.65894 0.11284 0.0
C4540 C 0.05027 0.65187 0.10518 0.0
C4541 C 0.05718 0.64399 0.10312 0.0
H4542 H 0.12139 0.29926 0.8794 0.0
H4543 H 0.10659 0.27103 0.87308 0.0
H4544 H 0.13897 0.27305 0.87195 0.0
C4545 C 0.12174 0.29155 0.87658 0.0
C4546 C 0.13116 0.28693 0.87521 0.0
C4547 C 0.11285 0.28585 0.87572 0.0
C4548 C 0.11341 0.27557 0.87314 0.0
C4549 C 0.12282 0.27096 0.87151 0.0
C4550 C 0.13166 0.27673 0.87241 0.0
H4551 H 0.44345 0.37126 0.62552 0.0
H4552 H 0.47233 0.35879 0.62853 0.0
H4553 H 0.46835 0.38766 0.61311 0.0
C4554 C 0.45138 0.37177 0.6236 0.0
C4555 C 0.45515 0.38013 0.61831 0.0
C4556 C 0.45778 0.36421 0.62703 0.0
C4557 C 0.46819 0.36507 0.62563 0.0
C4558 C 0.47265 0.37375 0.62108 0.0
C4559 C 0.46575 0.38107 0.6171 0.0
H4560 H 0.15833 0.37292 0.32036 0.0
H4561 H 0.17123 0.39922 0.30594 0.0
H4562 H 0.16512 0.3725 0.28868 0.0
C4563 C 0.16139 0.37675 0.31381 0.0
C4564 C 0.16109 0.37173 0.30447 0.0
C4565 C 0.16485 0.3868 0.31463 0.0
C4566 C 0.16892 0.39139 0.30587 0.0
C4567 C 0.1695 0.3861 0.29663 0.0
C4568 C 0.16535 0.37634 0.29592 0.0
H4569 H 0.37278 0.3865 0.04941 0.0
H4570 H 0.35759 0.38339 0.02072 0.0
H4571 H 0.38951 0.38721 0.02162 0.0
C4572 C 0.37293 0.38655 0.0412 0.0
C4573 C 0.38227 0.38676 0.03627 0.0
C4574 C 0.36399 0.38468 0.03578 0.0
C4575 C 0.36424 0.38516 0.02514 0.0
C4576 C 0.37343 0.3867 0.0201 0.0
C4577 C 0.38241 0.38727 0.02567 0.0
H4578 H 0.3516 0.6313 0.82794 0.0
H4579 H 0.33191 0.60915 0.81435 0.0
H4580 H 0.33994 0.63626 0.79817 0.0
C4581 C 0.34651 0.62898 0.82195 0.0
C4582 C 0.3458 0.63504 0.81331 0.0
C4583 C 0.34144 0.61967 0.82255 0.0
C4584 C 0.33554 0.6165 0.81423 0.0
C4585 C 0.335 0.62245 0.80541 0.0
C4586 C 0.34003 0.6318 0.80506 0.0
H4587 H 0.13238 0.62922 0.558 0.0
H4588 H 0.14973 0.61824 0.53299 0.0
H4589 H 0.11719 0.62056 0.53097 0.0
C4590 C 0.13268 0.62558 0.55064 0.0
C4591 C 0.1238 0.62416 0.54523 0.0
C4592 C 0.14201 0.62397 0.54598 0.0
C4593 C 0.14241 0.61973 0.53628 0.0
C4594 C 0.13346 0.61848 0.5306 0.0
C4595 C 0.12416 0.62069 0.53527 0.0
H4596 H 0.15582 0.63583 0.18997 0.0
H4597 H 0.17055 0.61064 0.20415 0.0
H4598 H 0.16629 0.63884 0.22035 0.0
C4599 C 0.15978 0.6326 0.1964 0.0
C4600 C 0.16042 0.63817 0.20533 0.0
C4601 C 0.1634 0.62267 0.19593 0.0
C4602 C 0.16837 0.61852 0.2044 0.0
C4603 C 0.16971 0.6243 0.21335 0.0
C4604 C 0.16562 0.63419 0.21364 0.0
H4605 H 0.13554 0.38073 0.95177 0.0
H4606 H 0.14935 0.39078 0.97946 0.0
H4607 H 0.11704 0.39034 0.97656 0.0
C4608 C 0.13491 0.38431 0.95913 0.0
C4609 C 0.12533 0.38574 0.96337 0.0
C4610 C 0.14364 0.38623 0.96483 0.0
C4611 C 0.1427 0.38997 0.97476 0.0
C4612 C 0.13307 0.39159 0.97894 0.0
C4613 C 0.12445 0.38975 0.9731 0.0
H4614 H 0.34529 0.37684 0.67923 0.0
H4615 H 0.33348 0.40234 0.69584 0.0
H4616 H 0.34131 0.37508 0.71136 0.0
C4617 C 0.34298 0.38039 0.68625 0.0
C4618 C 0.34457 0.37515 0.69534 0.0
C4619 C 0.33989 0.39058 0.68626 0.0
C4620 C 0.33583 0.39452 0.69531 0.0
C4621 C 0.33556 0.38856 0.70415 0.0
C4622 C 0.3404 0.37909 0.70426 0.0
H4623 H 0.37151 0.62615 0.46027 0.0
H4624 H 0.35687 0.62548 0.48918 0.0
H4625 H 0.3888 0.62251 0.48769 0.0
C4626 C 0.37205 0.62492 0.46836 0.0
C4627 C 0.38156 0.62396 0.47305 0.0
C4628 C 0.36318 0.62563 0.47415 0.0
C4629 C 0.3636 0.62432 0.48465 0.0
C4630 C 0.37292 0.62294 0.48942 0.0
C4631 C 0.38176 0.62268 0.48362 0.0
H4632 H 0.3246 0.13837 0.39793 0.0
H4633 H 0.29875 0.14645 0.41611 0.0
H4634 H 0.30487 0.16199 0.38818 0.0
C4635 C 0.31812 0.1431 0.39955 0.0
C4636 C 0.31576 0.15075 0.39262 0.0
C4637 C 0.31214 0.1413 0.40815 0.0
C4638 C 0.30344 0.1474 0.40951 0.0
C4639 C 0.30055 0.15466 0.40218 0.0
C4640 C 0.30686 0.15633 0.39379 0.0
H4641 H 0.82596 0.37063 0.60912 0.0
H4642 H 0.79859 0.36487 0.59306 0.0
H4643 H 0.80408 0.34996 0.62161 0.0
C4644 C 0.81884 0.36661 0.6086 0.0
C4645 C 0.81596 0.35991 0.61632 0.0
C4646 C 0.81249 0.36867 0.60046 0.0
C4647 C 0.80344 0.36331 0.59948 0.0
C4648 C 0.80028 0.35652 0.60709 0.0
C4649 C 0.80665 0.35477 0.61549 0.0
H4650 H 0.40612 0.06955 0.38475 0.0
H4651 H 0.4251 0.0565 0.36189 0.0
H4652 H 0.41427 0.0383 0.38684 0.0
C4653 C 0.4105 0.06322 0.38189 0.0
C4654 C 0.41026 0.05401 0.3871 0.0
C4655 C 0.41563 0.06408 0.37267 0.0
C4656 C 0.421 0.05569 0.36893 0.0
C4657 C 0.42079 0.04626 0.37399 0.0
C4658 C 0.41518 0.04551 0.38306 0.0
H4659 H 0.6936 0.63499 0.12099 0.0
H4660 H 0.72378 0.63349 0.11009 0.0
H4661 H 0.71761 0.64643 0.13948 0.0
C4662 C 0.70143 0.63714 0.12195 0.0
C4663 C 0.70462 0.64208 0.1308 0.0
C4664 C 0.70834 0.63403 0.1146 0.0
C4665 C 0.71865 0.63583 0.11602 0.0
C4666 C 0.72232 0.64015 0.12509 0.0
C4667 C 0.71512 0.64336 0.13236 0.0
H4668 H 0.60192 0.43152 0.38051 0.0
H4669 H 0.58429 0.44635 0.35778 0.0
H4670 H 0.58892 0.46071 0.38668 0.0
C4671 C 0.59695 0.4377 0.37844 0.0
C4672 C 0.59551 0.4458 0.38513 0.0
C4673 C 0.59293 0.43777 0.36865 0.0
C4674 C 0.58701 0.44602 0.36551 0.0
C4675 C 0.58559 0.45434 0.37201 0.0
C4676 C 0.58981 0.45417 0.38181 0.0
H4677 H 0.19338 0.87334 0.88875 0.0
H4678 H 0.22285 0.87636 0.90142 0.0
H4679 H 0.21898 0.86573 0.87059 0.0
C4680 C 0.20148 0.87224 0.88811 0.0
C4681 C 0.20553 0.86824 0.87922 0.0
C4682 C 0.20779 0.87557 0.89587 0.0
C4683 C 0.21827 0.87435 0.89497 0.0
C4684 C 0.22266 0.87111 0.88574 0.0
C4685 C 0.21606 0.86792 0.87792 0.0
H4686 H 0.40548 0.94008 0.12531 0.0
H4687 H 0.42529 0.95412 0.14713 0.0
H4688 H 0.41395 0.9712 0.12187 0.0
C4689 C 0.40995 0.94646 0.12787 0.0
C4690 C 0.40963 0.95546 0.12228 0.0
C4691 C 0.41532 0.94587 0.13703 0.0
C4692 C 0.42092 0.95439 0.14021 0.0
C4693 C 0.4203 0.96358 0.13488 0.0
C4694 C 0.41463 0.96408 0.12591 0.0
H4695 H 0.09939 0.07964 0.62921 0.0
H4696 H 0.0826 0.06335 0.6517 0.0
H4697 H 0.09045 0.04914 0.62333 0.0
C4698 C 0.09538 0.07291 0.63157 0.0
C4699 C 0.0959 0.06426 0.62548 0.0
C4700 C 0.09068 0.07269 0.64106 0.0
C4701 C 0.08586 0.06372 0.64419 0.0
C4702 C 0.0857 0.05509 0.63789 0.0
C4703 C 0.09049 0.05561 0.62835 0.0
C4704 C 1.00171 0.13915 0.38888 0.0
C4705 C 1.0054 0.12921 0.38778 0.0
C4706 C 0.99131 0.14112 0.38969 0.0
C4707 C 0.98413 0.13325 0.38938 0.0
H4708 H 0.0069 0.14547 0.38923 0.0
H4709 H 0.98888 0.1489 0.39057 0.0
S4710 S 0.98985 0.10585 0.38626 0.0
N4711 N 1.00101 0.11139 0.3863 0.0
N4712 N 0.98156 0.11508 0.38762 0.0
C4713 C 0.98774 0.12326 0.38832 0.0
C4714 C 0.99833 0.12125 0.38756 0.0
C4715 C 0.12569 0.76712 0.64505 0.0
C4716 C 0.12588 0.77211 0.63561 0.0
C4717 C 0.12417 0.75664 0.64568 0.0
C4718 C 0.12267 0.7509 0.6369 0.0
H4719 H 0.12686 0.77132 0.65199 0.0
H4720 H 0.12437 0.75299 0.65302 0.0
S4721 S 0.12294 0.76005 0.61046 0.0
N4722 N 0.12478 0.77033 0.61734 0.0
N4723 N 0.1217 0.75064 0.6186 0.0
C4724 C 0.12272 0.75573 0.62748 0.0
C4725 C 0.12436 0.76636 0.62681 0.0
C4726 C 0.52258 0.85148 0.90645 0.0
C4727 C 0.52021 0.85529 0.91607 0.0
C4728 C 0.53234 0.8522 0.90251 0.0
C4729 C 0.54033 0.85656 0.90808 0.0
H4730 H 0.51674 0.84819 0.90174 0.0
H4731 H 0.53347 0.84956 0.89484 0.0
S4732 S 0.53811 0.86709 0.93411 0.0
N4733 N 0.52654 0.8634 0.93128 0.0
N4734 N 0.54512 0.8643 0.92415 0.0
C4735 C 0.53808 0.86022 0.91788 0.0
C4736 C 0.528 0.85968 0.9218 0.0
C4737 C 0.38941 0.25147 0.13906 0.0
C4738 C 0.3808 0.24684 0.14328 0.0
C4739 C 0.39025 0.26199 0.13829 0.0
C4740 C 0.38267 0.26844 0.14203 0.0
H4741 H 0.39544 0.24691 0.13592 0.0
H4742 H 0.3967 0.26496 0.13425 0.0
S4743 S 0.35951 0.26023 0.1557 0.0
N4744 N 0.36496 0.24955 0.1522 0.0
N4745 N 0.36702 0.26938 0.15173 0.0
C4746 C 0.37446 0.26393 0.14719 0.0
C4747 C 0.37343 0.25314 0.14763 0.0
C4748 C 1.00025 0.88154 0.11326 0.0
C4749 C 1.00548 0.88072 0.12255 0.0
C4750 C 0.9898 0.87971 0.1126 0.0
C4751 C 0.9842 0.87691 0.1212 0.0
H4752 H 1.0043 0.88343 0.1064 0.0
H4753 H 0.98613 0.88024 0.1053 0.0
S4754 S 0.99389 0.87489 0.14745 0.0
N4755 N 1.00394 0.87779 0.14064 0.0
N4756 N 0.98442 0.87423 0.13937 0.0
C4757 C 0.98924 0.87637 0.13054 0.0
C4758 C 0.99984 0.87827 0.13123 0.0
C4759 C 0.37197 0.75617 0.36529 0.0
C4760 C 0.38021 0.76278 0.36583 0.0
C4761 C 0.37329 0.74569 0.36513 0.0
C4762 C 0.38291 0.74109 0.36631 0.0
H4763 H 0.36432 0.75908 0.36503 0.0
H4764 H 0.36647 0.74138 0.36413 0.0
S4765 S 0.40722 0.75555 0.3651 0.0
N4766 N 0.39839 0.76434 0.36505 0.0
N4767 N 0.4011 0.74472 0.36587 0.0
C4768 C 0.39133 0.7478 0.36604 0.0
C4769 C 0.38992 0.75856 0.36569 0.0
C4770 C 0.52853 0.15134 0.58792 0.0
C4771 C 0.52065 0.15579 0.59351 0.0
C4772 C 0.53838 0.1507 0.59189 0.0
C4773 C 0.54067 0.15428 0.60168 0.0
H4774 H 0.52707 0.14831 0.58045 0.0
H4775 H 0.54421 0.14735 0.58722 0.0
S4776 S 0.5223 0.1659 0.61962 0.0
N4777 N 0.51566 0.16367 0.60931 0.0
N4778 N 0.5338 0.16187 0.61707 0.0
C4779 C 0.53272 0.15862 0.60736 0.0
C4780 C 0.52282 0.15953 0.6032 0.0
C4781 C 0.12095 0.24347 0.87911 0.0
C4782 C 0.12702 0.23845 0.87192 0.0
C4783 C 0.11921 0.25389 0.87857 0.0
C4784 C 0.12365 0.25982 0.87096 0.0
H4785 H 0.11773 0.23942 0.88546 0.0
H4786 H 0.11473 0.25742 0.88446 0.0
S4787 S 0.13961 0.2507 0.84985 0.0
N4788 N 0.1368 0.24039 0.85632 0.0
N4789 N 0.13408 0.26012 0.8559 0.0
C4790 C 0.12962 0.25502 0.86364 0.0
C4791 C 0.13118 0.24432 0.86398 0.0
C4792 C 0.43781 0.98426 0.14485 0.0
C4793 C 0.43092 0.99115 0.14916 0.0
C4794 C 0.43442 0.97525 0.14023 0.0
C4795 C 0.42404 0.97302 0.13961 0.0
H4796 H 0.44584 0.98578 0.14519 0.0
H4797 H 0.4399 0.97004 0.13709 0.0
S4798 S 0.40303 0.98856 0.14964 0.0
N4799 N 0.41329 0.99507 0.15246 0.0
N4800 N 0.40699 0.97829 0.14373 0.0
C4801 C 0.41714 0.97986 0.14384 0.0
C4802 C 0.42056 0.98889 0.14861 0.0
C4803 C 0.27427 0.16391 0.39492 0.0
C4804 C 0.2703 0.16754 0.40411 0.0
C4805 C 0.28418 0.16016 0.39429 0.0
C4806 C 0.29055 0.15987 0.40283 0.0
H4807 H 0.26953 0.16342 0.38826 0.0
H4808 H 0.28669 0.15701 0.38715 0.0
S4809 S 0.28454 0.17026 0.42819 0.0
N4810 N 0.27408 0.17192 0.4216 0.0
N4811 N 0.29264 0.16481 0.4204 0.0
C4812 C 0.28693 0.1641 0.41189 0.0
C4813 C 0.27685 0.16795 0.41253 0.0
C4814 C 0.06874 0.0361 0.65174 0.0
C4815 C 0.07348 0.02681 0.64974 0.0
C4816 C 0.07256 0.04518 0.64767 0.0
C4817 C 0.0814 0.0453 0.64168 0.0
H4818 H 0.06212 0.03636 0.65655 0.0
H4819 H 0.06859 0.05216 0.64931 0.0
S4820 S 0.09701 0.02277 0.63519 0.0
N4821 N 0.08746 0.01814 0.64174 0.0
N4822 N 0.09509 0.0351 0.63468 0.0
C4823 C 0.08625 0.03595 0.63984 0.0
C4824 C 0.08219 0.02675 0.64374 0.0
C4825 C 0.24902 0.86595 0.87475 0.0
C4826 C 0.25544 0.87293 0.87971 0.0
C4827 C 0.23868 0.86519 0.877 0.0
C4828 C 0.23393 0.87177 0.88392 0.0
H4829 H 0.2519 0.86095 0.86894 0.0
H4830 H 0.23442 0.85934 0.87317 0.0
S4831 S 0.24696 0.89191 0.89873 0.0
N4832 N 0.25609 0.88626 0.89243 0.0
N4833 N 0.23652 0.88617 0.89518 0.0
C4834 C 0.24015 0.87908 0.88868 0.0
C4835 C 0.25084 0.87938 0.88689 0.0
C4836 C 0.42852 0.0269 0.354 0.0
C4837 C 0.4318 0.01847 0.35967 0.0
C4838 C 0.42525 0.03584 0.35865 0.0
C4839 C 0.42549 0.03705 0.36923 0.0
H4840 H 0.42808 0.02651 0.34583 0.0
H4841 H 0.4221 0.04167 0.35382 0.0
S4842 S 0.43561 0.01828 0.38756 0.0
N4843 N 0.43616 0.01242 0.37654 0.0
N4844 N 0.43106 0.02965 0.38515 0.0
C4845 C 0.42972 0.0291 0.37497 0.0
C4846 C 0.43269 0.01977 0.37024 0.0
C4847 C 0.24875 0.12944 0.63276 0.0
C4848 C 0.25508 0.13793 0.63146 0.0
C4849 C 0.23833 0.12996 0.63084 0.0
C4850 C 0.23378 0.13901 0.62759 0.0
H4851 H 0.25189 0.12227 0.63521 0.0
H4852 H 0.23378 0.12321 0.63181 0.0
S4853 S 0.2468 0.16339 0.62286 0.0
N4854 N 0.25591 0.15567 0.62656 0.0
N4855 N 0.23628 0.15666 0.62317 0.0
C4856 C 0.23992 0.1476 0.62642 0.0
C4857 C 0.25056 0.14707 0.62831 0.0
C4858 C 0.07774 0.97531 0.85242 0.0
C4859 C 0.07406 0.98319 0.8586 0.0
C4860 C 0.08126 0.96621 0.85647 0.0
C4861 C 0.08077 0.96417 0.86692 0.0
H4862 H 0.07831 0.97628 0.8443 0.0
H4863 H 0.08473 0.9609 0.85129 0.0
S4864 S 0.06955 0.98112 0.88632 0.0
N4865 N 0.06904 0.98778 0.87575 0.0
N4866 N 0.07464 0.97014 0.88321 0.0
C4867 C 0.07619 0.97153 0.87314 0.0
C4868 C 0.07297 0.98107 0.86903 0.0
C4869 C 0.27343 0.84954 0.11365 0.0
C4870 C 0.27019 0.84382 0.10527 0.0
C4871 C 0.28335 0.85309 0.11432 0.0
C4872 C 0.29038 0.85105 0.10664 0.0
H4873 H 0.26818 0.85142 0.11965 0.0
H4874 H 0.28548 0.85769 0.12077 0.0
S4875 S 0.28606 0.83537 0.0838 0.0
N4876 N 0.27499 0.83554 0.08959 0.0
N4877 N 0.29373 0.84232 0.09081 0.0
C4878 C 0.28736 0.84509 0.09838 0.0
C4879 C 0.27722 0.84145 0.0977 0.0
C4880 C 0.12601 0.38497 0.00571 0.0
C4881 C 0.12901 0.39354 0.01124 0.0
C4882 C 0.12736 0.38452 0.99526 0.0
C4883 C 0.1318 0.39259 0.98996 0.0
H4884 H 0.12273 0.3785 0.00954 0.0
H4885 H 0.12503 0.37773 0.99129 0.0
S4886 S 0.14079 0.41677 1.00084 0.0
N4887 N 0.13649 0.41034 0.01067 0.0
N4888 N 0.13904 0.40945 0.99085 0.0
C4889 C 0.13475 0.40125 0.99532 0.0
C4890 C 0.1333 0.40176 0.00602 0.0
C4891 C 0.62788 0.10924 1.00367 0.0
C4892 C 0.63113 0.11741 0.99758 0.0
C4893 C 0.62905 0.1094 0.01421 0.0
C4894 C 0.63372 0.11763 0.01901 0.0
H4895 H 0.62429 0.1027 1.00028 0.0
H4896 H 0.62616 0.10314 0.01866 0.0
S4897 S 0.64327 0.14101 0.00678 0.0
N4898 N 0.63891 0.1341 0.99734 0.0
N4899 N 0.64145 0.13419 0.01707 0.0
C4900 C 0.63718 0.12573 0.01306 0.0
C4901 C 0.63583 0.12567 1.00237 0.0
C4902 C 0.18511 0.39168 0.27306 0.0
C4903 C 0.18063 0.40061 0.26928 0.0
C4904 C 0.18153 0.38702 0.28194 0.0
C4905 C 0.17346 0.3912 0.28745 0.0
H4906 H 0.19138 0.38822 0.2691 0.0
H4907 H 0.18512 0.38012 0.28453 0.0
S4908 S 0.15881 0.41413 0.2808 0.0
N4909 N 0.16729 0.41312 0.27171 0.0
N4910 N 0.16099 0.40458 0.28854 0.0
C4911 C 0.169 0.40014 0.28388 0.0
C4912 C 0.17249 0.40479 0.27478 0.0
C4913 C 0.87677 0.87744 0.49337 0.0
C4914 C 0.8759 0.88621 0.48744 0.0
C4915 C 0.87534 0.87784 0.50385 0.0
C4916 C 0.87287 0.88699 0.50867 0.0
H4917 H 0.87888 0.8703 0.48993 0.0
H4918 H 0.87639 0.87101 0.50828 0.0
S4919 S 0.86951 0.91201 0.49653 0.0
N4920 N 0.87226 0.90428 0.48709 0.0
N4921 N 0.86953 0.90496 0.50687 0.0
C4922 C 0.87182 0.89578 0.50285 0.0
C4923 C 0.87334 0.8954 0.49219 0.0
C4924 C 0.82697 0.10293 0.28564 0.0
C4925 C 0.82276 0.109 0.27792 0.0
C4926 C 0.83056 0.10711 0.29467 0.0
C4927 C 0.82966 0.11752 0.29673 0.0
H4928 H 0.82796 0.09487 0.28455 0.0
H4929 H 0.83449 0.10211 0.29982 0.0
S4930 S 0.81692 0.13644 0.28027 0.0
N4931 N 0.81679 0.1259 0.27356 0.0
N4932 N 0.82239 0.13349 0.29109 0.0
C4933 C 0.82443 0.12352 0.2896 0.0
C4934 C 0.82119 0.11933 0.28013 0.0
C4935 C 0.36965 0.61734 0.5174 0.0
C4936 C 0.37624 0.62439 0.52185 0.0
C4937 C 0.36839 0.61699 0.50686 0.0
C4938 C 0.37377 0.62365 0.50055 0.0
H4939 H 0.36558 0.61199 0.5221 0.0
H4940 H 0.36339 0.61137 0.50362 0.0
S4941 S 0.3918 0.64355 0.50869 0.0
N4942 N 0.38817 0.63807 0.51932 0.0
N4943 N 0.3856 0.63772 0.49956 0.0
C4944 C 0.38025 0.63082 0.505 0.0
C4945 C 0.38156 0.6311 0.51565 0.0
C4946 C 0.1747 0.61856 0.24129 0.0
C4947 C 0.18211 0.61099 0.24102 0.0
C4948 C 0.17082 0.62276 0.23237 0.0
C4949 C 0.17441 0.61983 0.22272 0.0
H4950 H 0.17151 0.62092 0.24847 0.0
H4951 H 0.16468 0.6281 0.23315 0.0
S4952 S 0.19464 0.60079 0.21815 0.0
N4953 N 0.19316 0.60079 0.23056 0.0
N4954 N 0.18661 0.60928 0.21373 0.0
C4955 C 0.18219 0.61249 0.22243 0.0
C4956 C 0.18587 0.60795 0.23157 0.0
C4957 C 0.33499 0.40008 0.73029 0.0
C4958 C 0.3246 0.40103 0.73232 0.0
C4959 C 0.33845 0.396 0.72115 0.0
C4960 C 0.33163 0.39285 0.71368 0.0
H4961 H 0.34051 0.40245 0.73586 0.0
H4962 H 0.34651 0.39536 0.7199 0.0
S4963 S 0.30371 0.39379 0.71515 0.0
N4964 N 0.30753 0.39846 0.7261 0.0
N4965 N 0.31407 0.39092 0.70877 0.0
C4966 C 0.32123 0.39377 0.71554 0.0
C4967 C 0.3177 0.39781 0.72493 0.0
C4968 C 0.01072 0.8739 0.60049 0.0
C4969 C 0.00954 0.86927 0.59098 0.0
C4970 C 0.01973 0.87872 0.60316 0.0
C4971 C 0.02797 0.87904 0.59647 0.0
H4972 H 1.00465 0.87363 0.60599 0.0
H4973 H 0.02034 0.88197 0.61066 0.0
S4974 S 0.02865 0.8683 0.57054 0.0
N4975 N 0.01722 0.86549 0.57474 0.0
N4976 N 0.0343 0.87454 0.57978 0.0
C4977 C 0.02686 0.87457 0.58686 0.0
C4978 C 0.01759 0.86973 0.58409 0.0
C4979 C 0.90147 0.26943 0.3484 0.0
C4980 C 0.90026 0.26699 0.33811 0.0
C4981 C 0.89946 0.27917 0.35207 0.0
C4982 C 0.89615 0.28701 0.34564 0.0
H4983 H 0.90385 0.26371 0.35377 0.0
H4984 H 0.90058 0.2806 0.36007 0.0
S4985 S 0.89195 0.28486 0.31799 0.0
N4986 N 0.89565 0.27342 0.32144 0.0
N4987 N 0.89179 0.29173 0.32844 0.0
C4988 C 0.89477 0.28473 0.33535 0.0
C4989 C 0.89686 0.27475 0.33156 0.0
C4990 C 0.49703 0.14116 0.10041 0.0
C4991 C 0.49734 0.14857 0.09282 0.0
C4992 C 0.48785 0.13681 0.10345 0.0
C4993 C 0.4786 0.13961 0.09893 0.0
H4994 H 0.50388 0.13908 0.10439 0.0
H4995 H 0.48802 0.13159 0.10977 0.0
S4996 S 0.47576 0.15797 0.07772 0.0
N4997 N 0.48793 0.15823 0.08043 0.0
N4998 N 0.47073 0.14957 0.08548 0.0
C4999 C 0.47898 0.14662 0.09084 0.0
C5000 C 0.48833 0.15123 0.08796 0.0
C5001 C 0.61963 0.73677 0.8367 0.0
C5002 C 0.61368 0.73796 0.828 0.0
C5003 C 0.62304 0.72721 0.83979 0.0
C5004 C 0.62061 0.71836 0.83432 0.0
H5005 H 0.62174 0.74334 0.84115 0.0
H5006 H 0.62752 0.72675 0.84663 0.0
S5007 S 0.60542 0.71748 0.81071 0.0
N5008 N 0.60566 0.72962 0.81375 0.0
N5009 N 0.612 0.71155 0.81954 0.0
C5010 C 0.61468 0.71947 0.82553 0.0
C5011 C 0.61127 0.72928 0.82234 0.0
C5012 C 0.01824 0.14634 0.9193 0.0
C5013 C 0.00895 0.14129 0.9197 0.0
C5014 C 0.02714 0.1413 0.91656 0.0
C5015 C 0.02738 0.13079 0.91434 0.0
H5016 H 0.01859 0.15442 0.9207 0.0
H5017 H 0.03373 0.14604 0.91572 0.0
S5018 S 1.00464 0.11397 0.91515 0.0
N5019 N 1.00022 0.12532 0.91781 0.0
N5020 N 0.01693 0.11544 0.91383 0.0
C5021 C 0.01803 0.12554 0.91533 0.0
C5022 C 0.00887 0.13086 0.91777 0.0
C5023 C 0.62321 0.2735 0.67654 0.0
C5024 C 0.61509 0.27234 0.68322 0.0
C5025 C 0.6262 0.28309 0.67311 0.0
C5026 C 0.62148 0.29211 0.67648 0.0
H5027 H 0.62702 0.26687 0.67357 0.0
H5028 H 0.63209 0.28325 0.66745 0.0
S5029 S 0.60014 0.29294 0.6949 0.0
N5030 N 0.60233 0.28074 0.6933 0.0
N5031 N 0.6085 0.29889 0.68778 0.0
C5032 C 0.6135 0.29097 0.68356 0.0
C5033 C 0.6102 0.28109 0.68671 0.0
C5034 C 0.49433 0.86967 0.41743 0.0
C5035 C 0.49604 0.85932 0.41553 0.0
C5036 C 0.4852 0.87436 0.41458 0.0
C5037 C 0.47746 0.86889 0.40968 0.0
H5038 H 0.50023 0.87428 0.42075 0.0
H5039 H 0.48427 0.88238 0.41605 0.0
S5040 S 0.47798 0.84138 0.4037 0.0
N5041 N 0.48884 0.84355 0.4094 0.0
N5042 N 0.47218 0.85242 0.40329 0.0
C5043 C 0.479 0.85845 0.40806 0.0
C5044 C 0.48814 0.85367 0.41118 0.0
C5045 C 0.89285 0.74154 0.16353 0.0
C5046 C 0.89923 0.7435 0.17183 0.0
C5047 C 0.89107 0.73158 0.16012 0.0
C5048 C 0.89558 0.72321 0.16491 0.0
H5049 H 0.88951 0.74779 0.15941 0.0
H5050 H 0.88639 0.73044 0.15349 0.0
S5051 S 0.91251 0.72416 0.18722 0.0
N5052 N 0.90982 0.73617 0.18492 0.0
N5053 N 0.9064 0.7175 0.17858 0.0
C5054 C 0.90175 0.72504 0.17337 0.0
C5055 C 0.90361 0.73516 0.17681 0.0
C5056 C 0.62339 0.00746 0.88305 0.0
C5057 C 0.62258 0.99979 0.87571 0.0
C5058 C 0.62277 0.01772 0.88036 0.0
C5059 C 0.62112 0.02067 0.87024 0.0
H5060 H 0.62472 0.00551 0.8909 0.0
H5061 H 0.62391 0.02334 0.88621 0.0
S5062 S 0.61684 1.00331 0.84852 0.0
N5063 N 0.61916 0.99571 0.85816 0.0
N5064 N 0.61746 0.01491 0.8531 0.0
C5065 C 0.61974 0.01299 0.86295 0.0
C5066 C 0.62061 1.00258 0.86568 0.0
C5067 C 0.74205 0.83833 0.61645 0.0
C5068 C 0.74685 0.84497 0.60961 0.0
C5069 C 0.73299 0.84109 0.62132 0.0
C5070 C 0.72849 0.85056 0.6195 0.0
H5071 H 0.74523 0.83092 0.61793 0.0
H5072 H 0.72942 0.83577 0.62644 0.0
S5073 S 0.73816 0.87087 0.60284 0.0
N5074 N 0.74656 0.86169 0.60181 0.0
N5075 N 0.72946 0.8666 0.6107 0.0
C5076 C 0.73322 0.85726 0.61281 0.0
C5077 C 0.74242 0.85454 0.60794 0.0
C5078 C 0.88988 1.00021 0.36118 0.0
C5079 C 0.89033 1.00274 0.37147 0.0
C5080 C 0.8899 0.99009 0.35802 0.0
C5081 C 0.89001 0.982 0.36502 0.0
H5082 H 0.88969 0.00612 0.35549 0.0
H5083 H 0.88979 0.98864 0.34995 0.0
S5084 S 0.89137 0.98479 0.39303 0.0
N5085 N 0.89139 0.99652 0.38872 0.0
N5086 N 0.89065 0.97749 0.38294 0.0
C5087 C 0.89058 0.98449 0.37541 0.0
C5088 C 0.89088 0.99484 0.37858 0.0
C5089 C 0.76083 0.15997 0.1239 0.0
C5090 C 0.75993 0.16945 0.11916 0.0
C5091 C 0.76972 0.15717 0.12884 0.0
C5092 C 0.77807 0.16374 0.12919 0.0
H5093 H 0.75467 0.15458 0.1236 0.0
H5094 H 0.77017 0.14966 0.13211 0.0
S5095 S 0.77938 0.18953 0.1181 0.0
N5096 N 0.76793 0.18549 0.1152 0.0
N5097 N 0.78475 0.18029 0.1246 0.0
C5098 C 0.77719 0.17334 0.12463 0.0
C5099 C 0.76808 0.1762 0.11962 0.0
C5100 C 0.63065 1.00402 0.63575 0.0
C5101 C 0.62206 0.00961 0.63268 0.0
C5102 C 0.63012 0.99373 0.63824 0.0
C5103 C 0.62106 0.98828 0.63744 0.0
H5104 H 0.63798 0.00758 0.63633 0.0
H5105 H 0.63695 0.98999 0.64077 0.0
S5106 S 0.59656 0.99842 0.62843 0.0
N5107 N 0.60417 0.00833 0.62831 0.0
N5108 N 0.60346 0.9888 0.6324 0.0
C5109 C 0.61253 0.99342 0.63372 0.0
C5110 C 0.61297 1.00407 0.63144 0.0
C5111 C 0.76278 0.85238 0.39173 0.0
C5112 C 0.7591 0.84235 0.39184 0.0
C5113 C 0.77185 0.8549 0.38691 0.0
C5114 C 0.77766 0.8475 0.382 0.0
H5115 H 0.75855 0.85839 0.39535 0.0
H5116 H 0.77435 0.86271 0.38699 0.0
S5117 S 0.7716 0.82021 0.37991 0.0
N5118 N 0.76212 0.82497 0.38651 0.0
N5119 N 0.77921 0.8298 0.37737 0.0
C5120 C 0.77414 0.83747 0.38195 0.0
C5121 C 0.76484 0.83488 0.38685 0.0
C5122 C 0.88077 0.01216 0.14138 0.0
C5123 C 0.88986 0.00758 0.13827 0.0
C5124 C 0.88048 0.02229 0.14453 0.0
C5125 C 0.88924 0.02833 0.14465 0.0
H5126 H 0.87378 0.00792 0.14128 0.0
H5127 H 0.87328 0.02547 0.1468 0.0
S5128 S 0.91506 0.02004 0.13769 0.0
N5129 N 0.90799 0.0099 0.13593 0.0
N5130 N 0.90729 0.02901 0.14158 0.0
C5131 C 0.89837 0.02392 0.14153 0.0
C5132 C 0.89871 0.01355 0.13842 0.0
C5133 C 0.74197 0.155 0.90079 0.0
C5134 C 0.74602 0.16478 0.89929 0.0
C5135 C 0.73289 0.152 0.89624 0.0
C5136 C 0.7275 0.15861 0.88994 0.0
H5137 H 0.74589 0.14956 0.90549 0.0
H5138 H 0.73005 0.14444 0.89766 0.0
S5139 S 0.73447 0.18503 0.8836 0.0
N5140 N 0.74367 0.18112 0.89111 0.0
N5141 N 0.72664 0.17535 0.88243 0.0
C5142 C 0.73139 0.16836 0.88829 0.0
C5143 C 0.74065 0.17147 0.89296 0.0
C5144 C 0.87019 0.57256 0.02769 0.0
C5145 C 0.86331 0.57844 0.02194 0.0
C5146 C 0.87367 0.57573 0.03723 0.0
C5147 C 0.87015 0.58471 0.04166 0.0
H5148 H 0.87306 0.56546 0.02479 0.0
H5149 H 0.87918 0.57112 0.04117 0.0
S5150 S 0.85174 0.60264 0.0306 0.0
N5151 N 0.85308 0.59382 0.02186 0.0
N5152 N 0.85907 0.59918 0.04008 0.0
C5153 C 0.86293 0.5904 0.03638 0.0
C5154 C 0.85962 0.58739 0.0265 0.0
C5155 C 0.37241 0.9266 0.9866 0.0
C5156 C 0.3642 0.93314 0.98785 0.0
C5157 C 0.37524 0.92306 0.97702 0.0
C5158 C 0.37033 0.92626 0.96801 0.0
H5159 H 0.37643 0.9238 0.99318 0.0
H5160 H 0.38115 0.91745 0.97695 0.0
S5161 S 0.34863 0.94436 0.96749 0.0
N5162 N 0.35107 0.94286 0.97964 0.0
N5163 N 0.35704 0.93738 0.96144 0.0
C5164 C 0.36225 0.93326 0.96927 0.0
C5165 C 0.35907 0.93642 0.97918 0.0
C5166 C 0.8627 0.62525 0.75432 0.0
C5167 C 0.87205 0.62636 0.75936 0.0
C5168 C 0.86224 0.62276 0.744 0.0
C5169 C 0.8711 0.62123 0.7384 0.0
H5170 H 0.85568 0.6261 0.75843 0.0
H5171 H 0.85493 0.62176 0.74046 0.0
S5172 S 0.89736 0.62424 0.74754 0.0
N5173 N 0.89032 0.62654 0.7576 0.0
N5174 N 0.88941 0.62164 0.73828 0.0
C5175 C 0.88045 0.62258 0.74321 0.0
C5176 C 0.88094 0.62517 0.75367 0.0
C5177 C 0.14278 0.08688 0.48679 0.0
C5178 C 0.15175 0.08877 0.49219 0.0
C5179 C 0.14149 0.09011 0.4767 0.0
C5180 C 0.14898 0.09571 0.47142 0.0
H5181 H 0.13655 0.08303 0.49046 0.0
H5182 H 0.1344 0.08817 0.4732 0.0
S5183 S 0.17449 0.1018 0.48239 0.0
N5184 N 0.16876 0.09529 0.49129 0.0
N5185 N 0.16613 0.10273 0.47323 0.0
C5186 C 0.15813 0.09748 0.47693 0.0
C5187 C 0.15955 0.09369 0.48701 0.0
C5188 C 0.14753 0.89226 0.74779 0.0
C5189 C 0.13882 0.88814 0.75236 0.0
C5190 C 0.14749 0.89533 0.73761 0.0
C5191 C 0.13875 0.89442 0.73169 0.0
H5192 H 0.15434 0.8934 0.75219 0.0
H5193 H 0.15425 0.89869 0.73443 0.0
S5194 S 0.11432 0.88335 0.73954 0.0
N5195 N 0.12145 0.88264 0.74977 0.0
N5196 N 0.12141 0.88868 0.73075 0.0
C5197 C 0.13011 0.89009 0.73601 0.0
C5198 C 0.13014 0.88689 0.74632 0.0
C5199 C 0.65253 0.41176 0.51942 0.0
C5200 C 0.65014 0.42172 0.51649 0.0
C5201 C 0.65079 0.40829 0.52928 0.0
C5202 C 0.64669 0.41464 0.53682 0.0
H5203 H 0.6557 0.4065 0.51399 0.0
H5204 H 0.65263 0.40048 0.53095 0.0
S5205 S 0.63926 0.44152 0.53314 0.0
N5206 N 0.64341 0.43794 0.5219 0.0
N5207 N 0.64035 0.43153 0.54058 0.0
C5208 C 0.64417 0.42463 0.53399 0.0
C5209 C 0.64586 0.42814 0.52383 0.0
C5210 C 0.87866 0.38002 0.75676 0.0
C5211 C 0.87172 0.38394 0.74974 0.0
C5212 C 0.87797 0.38256 0.76705 0.0
C5213 C 0.87038 0.38914 0.77053 0.0
H5214 H 0.88459 0.37494 0.75429 0.0
H5215 H 0.88346 0.37948 0.77229 0.0
S5216 S 0.85035 0.4012 0.75521 0.0
N5217 N 0.85693 0.39446 0.74698 0.0
N5218 N 0.85579 0.3994 0.76631 0.0
C5219 C 0.86339 0.39304 0.76361 0.0
C5220 C 0.86401 0.39037 0.75319 0.0
C5221 C 0.64569 0.61414 0.26156 0.0
C5222 C 0.63965 0.62226 0.25822 0.0
C5223 C 0.6452 0.61069 0.27163 0.0
C5224 C 0.63879 0.61535 0.27872 0.0
H5225 H 0.65052 0.61018 0.25626 0.0
H5226 H 0.64982 0.6043 0.27388 0.0
S5227 S 0.62201 0.63728 0.27405 0.0
N5228 N 0.62738 0.6351 0.26297 0.0
N5229 N 0.62668 0.62875 0.2819 0.0
C5230 C 0.63301 0.62368 0.27559 0.0
C5231 C 0.63338 0.62709 0.26534 0.0
C5232 C 0.49966 0.62443 0.89371 0.0
C5233 C 0.50612 0.62989 0.88721 0.0
C5234 C 0.48938 0.6268 0.89464 0.0
C5235 C 0.48475 0.63438 0.88868 0.0
H5236 H 0.50253 0.61821 0.89821 0.0
H5237 H 0.48516 0.62255 0.90019 0.0
S5238 S 0.49844 0.65104 0.87038 0.0
N5239 N 0.50732 0.64389 0.87537 0.0
N5240 N 0.48784 0.64712 0.87556 0.0
C5241 C 0.49116 0.63977 0.88194 0.0
C5242 C 0.5018 0.63779 0.88154 0.0
C5243 C 0.61932 0.26734 0.14245 0.0
C5244 C 0.62664 0.27173 0.13613 0.0
C5245 C 0.61834 0.25678 0.14311 0.0
C5246 C 0.62469 0.25037 0.13747 0.0
H5247 H 0.61441 0.2721 0.14697 0.0
H5248 H 0.61264 0.25361 0.14806 0.0
S5249 S 0.6447 0.2584 0.11946 0.0
N5250 N 0.64018 0.26909 0.1241 0.0
N5251 N 0.63816 0.24928 0.12495 0.0
C5252 C 0.63195 0.25477 0.13103 0.0
C5253 C 0.63298 0.26545 0.13047 0.0
C5254 C 0.02461 0.36498 0.41367 0.0
C5255 C 0.02021 0.35557 0.41607 0.0
C5256 C 0.03448 0.36561 0.40987 0.0
C5257 C 0.04037 0.35686 0.40832 0.0
H5258 H 0.02023 0.37188 0.41422 0.0
H5259 H 0.03732 0.37298 0.40768 0.0
S5260 S 0.03309 0.33063 0.4153 0.0
N5261 N 0.02301 0.33748 0.41797 0.0
N5262 N 0.04155 0.33866 0.41085 0.0
C5263 C 0.03631 0.34749 0.41135 0.0
C5264 C 0.02625 0.34685 0.41521 0.0
C5265 C 0.88399 0.75347 0.6514 0.0
C5266 C 0.88069 0.74832 0.64266 0.0
C5267 C 0.88514 0.76403 0.6514 0.0
C5268 C 0.88289 0.76965 0.6427 0.0
H5269 H 0.88572 0.74929 0.65824 0.0
H5270 H 0.88769 0.76781 0.65821 0.0
S5271 S 0.87333 0.75986 0.61823 0.0
N5272 N 0.87475 0.74968 0.62534 0.0
N5273 N 0.87695 0.7695 0.62531 0.0
C5274 C 0.87948 0.7646 0.634 0.0
C5275 C 0.87836 0.75392 0.63398 0.0
C5276 C 0.49863 0.38703 0.61757 0.0
C5277 C 0.50563 0.38051 0.62218 0.0
C5278 C 0.48829 0.38464 0.61698 0.0
C5279 C 0.48418 0.37555 0.62106 0.0
H5280 H 0.50111 0.39421 0.61448 0.0
H5281 H 0.4837 0.39028 0.61335 0.0
S5282 S 0.50015 0.35518 0.63288 0.0
N5283 N 0.50821 0.36415 0.62992 0.0
N5284 N 0.4891 0.35956 0.62927 0.0
C5285 C 0.49142 0.36878 0.62541 0.0
C5286 C 0.50198 0.37127 0.62588 0.0
C5287 C 0.87566 0.25727 0.87444 0.0
C5288 C 0.88082 0.26272 0.86697 0.0
C5289 C 0.87639 0.24673 0.8749 0.0
C5290 C 0.88231 0.2413 0.86789 0.0
H5291 H 0.87095 0.26118 0.87989 0.0
H5292 H 0.87233 0.24279 0.88083 0.0
S5293 S 0.89701 0.25217 0.84669 0.0
N5294 N 0.8918 0.26209 0.85226 0.0
N5295 N 0.8933 0.24215 0.85321 0.0
C5296 C 0.88753 0.24669 0.86039 0.0
C5297 C 0.88671 0.25744 0.85988 0.0
C5298 C 0.02613 0.66227 0.09328 0.0
C5299 C 0.01982 0.65368 0.0926 0.0
C5300 C 0.03607 0.66158 0.09696 0.0
C5301 C 0.04019 0.65225 0.10008 0.0
H5302 H 0.0233 0.66967 0.09119 0.0
H5303 H 0.04049 0.66845 0.09757 0.0
S5304 S 0.02709 0.62739 0.09944 0.0
N5305 N 0.01866 0.63547 0.09505 0.0
N5306 N 0.03726 0.63417 0.1019 0.0
C5307 C 0.03414 0.64354 0.09901 0.0
C5308 C 0.024 0.64425 0.09528 0.0
C5309 C 0.63384 0.74503 0.37808 0.0
C5310 C 0.62728 0.73849 0.37298 0.0
C5311 C 0.63266 0.7555 0.37736 0.0
C5312 C 0.62499 0.7598 0.37134 0.0
H5313 H 0.63984 0.74202 0.38278 0.0
H5314 H 0.63767 0.76025 0.38178 0.0
S5315 S 0.60653 0.7457 0.35566 0.0
N5316 N 0.61326 0.73679 0.36128 0.0
N5317 N 0.61113 0.75661 0.35968 0.0
C5318 C 0.61854 0.75328 0.36596 0.0
C5319 C 0.61969 0.74258 0.36682 0.0
C5320 C 0.93176 0.48772 0.64047 0.0
C5321 C 0.92994 0.48949 0.65094 0.0
C5322 C 0.92848 0.4789 0.6355 0.0
C5323 C 0.92303 0.4714 0.64062 0.0
H5324 H 0.93553 0.4932 0.63576 0.0
H5325 H 0.93015 0.478 0.62752 0.0
S5326 S 0.91643 0.47109 0.66785 0.0
N5327 N 0.92302 0.48154 0.66629 0.0
N5328 N 0.91579 0.466 0.65652 0.0
C5329 C 0.92116 0.4728 0.65095 0.0
C5330 C 0.92487 0.48152 0.65619 0.0
C5331 C 0.77852 0.67239 0.90289 0.0
C5332 C 0.77018 0.66588 0.90403 0.0
C5333 C 0.7884 0.66848 0.90226 0.0
C5334 C 0.79018 0.65796 0.90272 0.0
H5335 H 0.7774 0.68051 0.90262 0.0
H5336 H 0.79468 0.67369 0.90155 0.0
S5337 S 0.77072 0.63784 0.90431 0.0
N5338 N 0.76426 0.64852 0.90474 0.0
N5339 N 0.78269 0.64119 0.90342 0.0
C5340 C 0.78184 0.65145 0.90349 0.0
C5341 C 0.77187 0.6554 0.90418 0.0
C5342 C 0.56827 0.53507 0.14775 0.0
C5343 C 0.57507 0.52765 0.15122 0.0
C5344 C 0.57182 0.54418 0.14354 0.0
C5345 C 0.58224 0.54599 0.14254 0.0
H5346 H 0.5602 0.53385 0.14837 0.0
H5347 H 0.56643 0.54979 0.14096 0.0
S5348 S 0.60303 0.52889 0.15012 0.0
N5349 N 0.59264 0.52268 0.15317 0.0
N5350 N 0.59923 0.53974 0.14521 0.0
C5351 C 0.58905 0.53862 0.14591 0.0
C5352 C 0.58548 0.52945 0.15025 0.0
C5353 C 0.74845 0.37306 0.37112 0.0
C5354 C 0.75558 0.37205 0.37896 0.0
C5355 C 0.73805 0.37222 0.37302 0.0
C5356 C 0.73436 0.37023 0.38282 0.0
H5357 H 0.75091 0.37477 0.36349 0.0
H5358 H 0.73288 0.37348 0.3668 0.0
S5359 S 0.75 0.36531 0.40562 0.0
N5360 N 0.75828 0.36794 0.39666 0.0
N5361 N 0.7388 0.36611 0.40021 0.0
C5362 C 0.74145 0.3687 0.39061 0.0
C5363 C 0.75203 0.36967 0.3887 0.0
C5364 C 0.93602 0.52354 0.86719 0.0
C5365 C 0.9307 0.51902 0.85913 0.0
C5366 C 0.9326 0.53256 0.87169 0.0
C5367 C 0.9238 0.53741 0.86823 0.0
H5368 H 0.94286 0.52007 0.87005 0.0
H5369 H 0.93685 0.53578 0.87792 0.0
S5370 S 0.90681 0.5286 0.84784 0.0
N5371 N 0.91583 0.51998 0.84829 0.0
N5372 N 0.90973 0.53707 0.85654 0.0
C5373 C 0.91845 0.53306 0.8602 0.0
C5374 C 0.92182 0.52384 0.8557 0.0
C5375 C 0.75018 0.63234 0.12461 0.0
C5376 C 0.7551 0.63884 0.13154 0.0
C5377 C 0.73979 0.63276 0.12284 0.0
C5378 C 0.73357 0.64023 0.12722 0.0
H5379 H 0.75428 0.62674 0.12031 0.0
H5380 H 0.73668 0.62695 0.11798 0.0
S5381 S 0.74238 0.66011 0.14511 0.0
N5382 N 0.75249 0.65315 0.14298 0.0
N5383 N 0.73339 0.6551 0.13811 0.0
C5384 C 0.73836 0.64723 0.13373 0.0
C5385 C 0.74894 0.64633 0.13616 0.0
C5386 C 0.58477 0.4812 0.36215 0.0
C5387 C 0.57456 0.48265 0.35961 0.0
C5388 C 0.58815 0.47206 0.36632 0.0
C5389 C 0.58149 0.46396 0.36796 0.0
H5390 H 0.59021 0.48719 0.36087 0.0
H5391 H 0.5961 0.47126 0.36811 0.0
S5392 S 0.55404 0.46382 0.36251 0.0
N5393 N 0.55778 0.47526 0.35906 0.0
N5394 N 0.56422 0.4579 0.36673 0.0
C5395 C 0.57126 0.46526 0.36545 0.0
C5396 C 0.56776 0.47467 0.36133 0.0
C5397 C 0.77797 0.33808 0.60779 0.0
C5398 C 0.76976 0.34442 0.60539 0.0
C5399 C 0.78786 0.34199 0.60844 0.0
C5400 C 0.78982 0.35236 0.60677 0.0
H5401 H 0.77674 0.33007 0.60901 0.0
H5402 H 0.79403 0.33686 0.6101 0.0
S5403 S 0.77067 0.3722 0.60144 0.0
N5404 N 0.76414 0.36158 0.602 0.0
N5405 N 0.78251 0.36894 0.60354 0.0
C5406 C 0.78157 0.35876 0.60473 0.0
C5407 C 0.77161 0.35479 0.60395 0.0
C5408 C 0.63441 0.90028 0.5072 0.0
C5409 C 0.62939 0.89251 0.51251 0.0
C5410 C 0.63581 0.89967 0.49665 0.0
C5411 C 0.63218 0.89131 0.49115 0.0
H5412 H 0.6376 0.90664 0.51128 0.0
H5413 H 0.6398 0.9057 0.49278 0.0
S5414 S 0.61819 0.8693 0.50146 0.0
N5415 N 0.62046 0.87651 0.51141 0.0
N5416 N 0.62321 0.87529 0.49173 0.0
C5417 C 0.62696 0.88367 0.49637 0.0
C5418 C 0.62551 0.88431 0.507 0.0
C5419 C 0.12409 0.61128 0.50447 0.0
C5420 C 0.13108 0.61597 0.498 0.0
C5421 C 0.12543 0.61139 0.51496 0.0
C5422 C 0.13359 0.61656 0.51947 0.0
H5423 H 0.11735 0.60775 0.50147 0.0
H5424 H 0.11976 0.60771 0.51958 0.0
S5425 S 0.15485 0.62874 0.50561 0.0
N5426 N 0.14735 0.62438 0.49666 0.0
N5427 N 0.14926 0.62581 0.51636 0.0
C5428 C 0.14093 0.62085 0.513 0.0
C5429 C 0.13978 0.62031 0.50229 0.0
C5430 C 0.68646 0.89214 0.77357 0.0
C5431 C 0.68122 0.90044 0.76937 0.0
C5432 C 0.6832 0.88753 0.78262 0.0
C5433 C 0.67469 0.89117 0.78783 0.0
H5434 H 0.69308 0.88913 0.76982 0.0
H5435 H 0.68733 0.88108 0.78554 0.0
S5436 S 0.65797 0.9122 0.77994 0.0
N5437 N 0.66669 0.91167 0.77104 0.0
N5438 N 0.66095 0.90326 0.78814 0.0
C5439 C 0.66945 0.89945 0.7838 0.0
C5440 C 0.67262 0.90404 0.77456 0.0
C5441 C 0.37067 0.39286 0.99221 0.0
C5442 C 0.3764 0.38514 0.98764 0.0
C5443 C 0.36943 0.3932 1.00276 0.0
C5444 C 0.37403 0.3859 0.00898 0.0
H5445 H 0.36725 0.39872 0.9876 0.0
H5446 H 0.3651 0.39931 0.00608 0.0
S5447 S 0.3899 0.36436 1.00065 0.0
N5448 N 0.38676 0.3702 0.99005 0.0
N5449 N 0.38443 0.37078 0.00986 0.0
C5450 C 0.37972 0.37816 1.00446 0.0
C5451 C 0.38093 0.3778 0.99377 0.0
C5452 C 0.33436 0.6116 0.77899 0.0
C5453 C 0.32407 0.60959 0.77734 0.0
C5454 C 0.33772 0.61583 0.78808 0.0
C5455 C 0.33094 0.61811 0.79592 0.0
H5456 H 0.33988 0.60988 0.77318 0.0
H5457 H 0.34573 0.61723 0.78904 0.0
S5458 S 0.30325 0.6142 0.79549 0.0
N5459 N 0.30709 0.61019 0.78427 0.0
N5460 N 0.31349 0.61802 0.80156 0.0
C5461 C 0.32063 0.6161 0.79444 0.0
C5462 C 0.31716 0.61191 0.78507 0.0
C5463 C 0.86834 0.12065 0.01645 0.0
C5464 C 0.87788 0.12148 0.02101 0.0
C5465 C 0.86729 0.12029 0.00591 0.0
C5466 C 0.87571 0.12116 0.99939 0.0
H5467 H 0.86161 0.12034 0.0211 0.0
H5468 H 0.85974 0.1194 1.0029 0.0
S5469 S 0.9025 0.12363 0.00802 0.0
N5470 N 0.89592 0.12274 0.01857 0.0
N5471 N 0.89412 0.12314 0.99881 0.0
C5472 C 0.88537 0.12195 1.00403 0.0
C5473 C 0.8864 0.12187 0.0148 0.0
C5474 C 0.6814 0.12085 0.73934 0.0
C5475 C 0.68315 0.11038 0.74014 0.0
C5476 C 0.67804 0.12522 0.73024 0.0
C5477 C 0.67583 0.11928 0.72161 0.0
H5478 H 0.68223 0.1257 0.7459 0.0
H5479 H 0.67696 0.13334 0.73014 0.0
S5480 S 0.68058 0.09144 0.71958 0.0
N5481 N 0.68431 0.09444 0.73107 0.0
N5482 N 0.6763 0.10207 0.71467 0.0
C5483 C 0.678 0.10877 0.72229 0.0
C5484 C 0.68206 0.1045 0.73135 0.0
C5485 C 0.81986 0.89281 0.22693 0.0
C5486 C 0.82474 0.90111 0.23156 0.0
C5487 C 0.82345 0.88862 0.2178 0.0
C5488 C 0.83195 0.89269 0.21289 0.0
H5489 H 0.81327 0.88944 0.23043 0.0
H5490 H 0.81958 0.88216 0.21458 0.0
S5491 S 0.84761 0.91418 0.22167 0.0
N5492 N 0.83882 0.91297 0.23044 0.0
N5493 N 0.84513 0.90539 0.21316 0.0
C5494 C 0.83676 0.90107 0.21726 0.0
C5495 C 0.83326 0.90522 0.22661 0.0
C5496 C 0.51706 0.37035 0.08497 0.0
C5497 C 0.50913 0.36938 0.09197 0.0
C5498 C 0.52614 0.37514 0.08772 0.0
C5499 C 0.52747 0.37922 0.09748 0.0
H5500 H 0.51638 0.36708 0.07749 0.0
H5501 H 0.53219 0.37558 0.08221 0.0
S5502 S 0.50887 0.37867 0.11844 0.0
N5503 N 0.50308 0.37301 0.10894 0.0
N5504 N 0.52011 0.38189 0.11411 0.0
C5505 C 0.5195 0.37843 0.10444 0.0
C5506 C 0.51033 0.37355 0.10167 0.0
C5507 C 0.39112 0.77093 0.83974 0.0
C5508 C 0.40091 0.76746 0.8374 0.0
C5509 C 0.38943 0.78088 0.84316 0.0
C5510 C 0.39746 0.78777 0.84435 0.0
H5511 H 0.38477 0.76577 0.83939 0.0
H5512 H 0.38184 0.78301 0.84536 0.0
S5513 S 0.42425 0.783 0.83741 0.0
N5514 N 0.41854 0.77209 0.8353 0.0
N5515 N 0.41537 0.79077 0.84147 0.0
C5516 C 0.40717 0.78458 0.84132 0.0
C5517 C 0.4089 0.77445 0.83794 0.0
C5518 C 0.98662 0.65126 0.5876 0.0
C5519 C 0.99609 0.64821 0.59118 0.0
C5520 C 0.97776 0.64666 0.59115 0.0
C5521 C 0.97796 0.63919 0.59884 0.0
H5522 H 0.98606 0.65735 0.58213 0.0
H5523 H 0.97071 0.64916 0.58787 0.0
S5524 S 1.00141 0.62893 0.61073 0.0
N5525 N 1.00549 0.63719 0.60232 0.0
N5526 N 0.98898 0.62923 0.60992 0.0
C5527 C 0.98758 0.6361 0.6024 0.0
C5528 C 0.99659 0.64049 0.59839 0.0
C5529 C 0.11549 0.23554 0.33852 0.0
C5530 C 0.11364 0.23784 0.32826 0.0
C5531 C 0.11887 0.22593 0.34155 0.0
C5532 C 0.12048 0.21812 0.33451 0.0
H5533 H 0.11462 0.24131 0.34427 0.0
H5534 H 0.12032 0.22461 0.34952 0.0
S5535 S 0.11672 0.21989 0.30678 0.0
N5536 N 0.11359 0.23123 0.31103 0.0
N5537 N 0.11998 0.2132 0.31684 0.0
C5538 C 0.11857 0.22018 0.32426 0.0
C5539 C 0.11518 0.23001 0.32111 0.0
C5540 C 0.51711 0.64772 0.41456 0.0
C5541 C 0.50862 0.6423 0.41802 0.0
C5542 C 0.52604 0.64282 0.41171 0.0
C5543 C 0.52714 0.63223 0.41252 0.0
H5544 H 0.51677 0.65587 0.4137 0.0
H5545 H 0.53197 0.64744 0.4085 0.0
S5546 S 0.50774 0.61458 0.42265 0.0
N5547 N 0.50212 0.62574 0.42274 0.0
N5548 N 0.51925 0.61662 0.41834 0.0
C5549 C 0.51896 0.62677 0.41668 0.0
C5550 C 0.50968 0.63176 0.41927 0.0
C5551 C 0.12432 0.77514 0.18323 0.0
C5552 C 0.11408 0.77236 0.18367 0.0
C5553 C 0.12731 0.78496 0.18045 0.0
C5554 C 0.12027 0.79248 0.17744 0.0
H5555 H 0.13016 0.76961 0.18477 0.0
H5556 H 0.13532 0.78648 0.18061 0.0
S5557 S 0.09225 0.78931 0.17889 0.0
N5558 N 0.0968 0.77836 0.18275 0.0
N5559 N 0.1022 0.7962 0.176 0.0
C5560 C 0.10991 0.78982 0.17831 0.0
C5561 C 0.10689 0.77995 0.18172 0.0
C5562 C 0.99495 0.36994 0.91771 0.0
C5563 C 0.99652 0.35955 0.91587 0.0
C5564 C 0.98577 0.37468 0.9151 0.0
C5565 C 0.97782 0.3692 0.91057 0.0
H5566 H 1.001 0.37453 0.92077 0.0
H5567 H 0.98497 0.38273 0.91644 0.0
S5568 S 0.97791 0.34163 0.90488 0.0
N5569 N 0.98901 0.34377 0.91013 0.0
N5570 N 0.97218 0.35271 0.9046 0.0
C5571 C 0.97922 0.35874 0.90904 0.0
C5572 C 0.98844 0.35391 0.91186 0.0
C5573 C 0.39197 0.23791 0.67139 0.0
C5574 C 0.40145 0.24267 0.67045 0.0
C5575 C 0.3903 0.22798 0.66785 0.0
C5576 C 0.39809 0.22216 0.66339 0.0
H5577 H 0.38564 0.24204 0.67452 0.0
H5578 H 0.38269 0.22508 0.66835 0.0
S5579 S 0.42496 0.23062 0.66117 0.0
N5580 N 0.41899 0.24056 0.66576 0.0
N5581 N 0.41628 0.22175 0.65997 0.0
C5582 C 0.40785 0.22669 0.66315 0.0
C5583 C 0.40941 0.23693 0.66645 0.0
C5584 C 0.12429 0.50761 0.38254 0.0
C5585 C 0.12233 0.49998 0.3754 0.0
C5586 C 0.1237 0.51788 0.37988 0.0
C5587 C 0.12091 0.5209 0.37003 0.0
H5588 H 0.12649 0.50562 0.39018 0.0
H5589 H 0.1257 0.52346 0.38553 0.0
S5590 S 0.11358 0.50369 0.34905 0.0
N5591 N 0.11674 0.49602 0.35839 0.0
N5592 N 0.11515 0.51528 0.35346 0.0
C5593 C 0.11849 0.51328 0.36297 0.0
C5594 C 0.11931 0.50284 0.36564 0.0
C5595 C 0.24501 0.35314 0.11438 0.0
C5596 C 0.2461 0.34331 0.11048 0.0
C5597 C 0.23607 0.35619 0.11907 0.0
C5598 C 0.22784 0.34954 0.12 0.0
H5599 H 0.25107 0.3586 0.1136 0.0
H5600 H 0.23549 0.36394 0.1217 0.0
S5601 S 0.22701 0.32286 0.11122 0.0
N5602 N 0.23839 0.32684 0.10796 0.0
N5603 N 0.22145 0.33254 0.11687 0.0
C5604 C 0.22889 0.3396 0.11628 0.0
C5605 C 0.23807 0.33648 0.11153 0.0
C5606 C 0.3977 0.49706 0.86986 0.0
C5607 C 0.38876 0.50294 0.87028 0.0
C5608 C 0.3976 0.48693 0.86671 0.0
C5609 C 0.38863 0.48228 0.86354 0.0
H5610 H 0.40494 0.50033 0.87179 0.0
H5611 H 0.40465 0.48276 0.86653 0.0
S5612 S 0.36304 0.49367 0.86376 0.0
N5613 N 0.3705 0.50278 0.86791 0.0
N5614 N 0.3705 0.48395 0.86144 0.0
C5615 C 0.37964 0.48792 0.86396 0.0
C5616 C 0.37966 0.49817 0.86742 0.0
C5617 C 0.26883 0.66611 0.61287 0.0
C5618 C 0.26054 0.66991 0.61835 0.0
C5619 C 0.27767 0.66305 0.61774 0.0
C5620 C 0.27873 0.66387 0.62831 0.0
H5621 H 0.26837 0.66516 0.60474 0.0
H5622 H 0.28358 0.65968 0.61319 0.0
S5623 S 0.25973 0.67444 0.64604 0.0
N5624 N 0.25414 0.67484 0.63488 0.0
N5625 N 0.27109 0.66973 0.64399 0.0
C5626 C 0.27074 0.66822 0.63383 0.0
C5627 C 0.2616 0.67115 0.62886 0.0
C5628 C 0.13049 0.50443 0.13634 0.0
C5629 C 0.12191 0.50943 0.13252 0.0
C5630 C 0.13024 0.49412 0.13883 0.0
C5631 C 0.12141 0.48831 0.13759 0.0
H5632 H 0.13752 0.50849 0.13738 0.0
H5633 H 0.13705 0.49066 0.14179 0.0
S5634 S 0.09681 0.49758 0.12796 0.0
N5635 N 0.1042 0.50765 0.12775 0.0
N5636 N 0.10389 0.48822 0.13223 0.0
C5637 C 0.11283 0.49309 0.1336 0.0
C5638 C 0.11303 0.50365 0.13113 0.0
C5639 C 0.2599 0.34127 0.88116 0.0
C5640 C 0.25891 0.34176 0.89176 0.0
C5641 C 0.26909 0.34371 0.87633 0.0
C5642 C 0.27765 0.34684 0.8819 0.0
H5643 H 0.25343 0.33937 0.87653 0.0
H5644 H 0.26942 0.34331 0.86816 0.0
S5645 S 0.2791 0.3486 0.91001 0.0
N5646 N 0.26755 0.34454 0.90773 0.0
N5647 N 0.28434 0.35006 0.89879 0.0
C5648 C 0.27676 0.34704 0.89256 0.0
C5649 C 0.26754 0.34427 0.89744 0.0
C5650 C 0.39786 0.51218 0.64408 0.0
C5651 C 0.39023 0.50855 0.63758 0.0
C5652 C 0.3977 0.52218 0.64765 0.0
C5653 C 0.38994 0.52882 0.64478 0.0
H5654 H 0.40379 0.50717 0.64668 0.0
H5655 H 0.40355 0.52469 0.6528 0.0
S5656 S 0.36882 0.52343 0.62727 0.0
N5657 N 0.37516 0.51268 0.6279 0.0
N5658 N 0.37487 0.53144 0.63472 0.0
C5659 C 0.3825 0.52543 0.63806 0.0
C5660 C 0.38264 0.51529 0.63443 0.0
C5661 C 0.24688 0.65988 0.39106 0.0
C5662 C 0.24699 0.66725 0.39867 0.0
C5663 C 0.2378 0.65675 0.3866 0.0
C5664 C 0.22841 0.66104 0.38937 0.0
H5665 H 0.25383 0.65613 0.38889 0.0
H5666 H 0.23822 0.65056 0.38126 0.0
S5667 S 0.22507 0.68158 0.40846 0.0
N5668 N 0.23728 0.67906 0.40872 0.0
N5669 N 0.22025 0.67405 0.39973 0.0
C5670 C 0.2286 0.6689 0.39668 0.0
C5671 C 0.23786 0.67179 0.40147 0.0
C5672 C 0.36735 0.07195 0.52853 0.0
C5673 C 0.36356 0.0791 0.52151 0.0
C5674 C 0.37057 0.07487 0.53826 0.0
C5675 C 0.37014 0.08503 0.54135 0.0
H5676 H 0.36786 0.06403 0.52651 0.0
H5677 H 0.3735 0.06916 0.54337 0.0
S5678 S 0.36092 0.10672 0.52625 0.0
N5679 N 0.35975 0.09691 0.5186 0.0
N5680 N 0.36552 0.10219 0.53693 0.0
C5681 C 0.36627 0.09221 0.53458 0.0
C5682 C 0.36304 0.08929 0.52467 0.0
C5683 C 0.86258 0.42276 0.48329 0.0
C5684 C 0.86423 0.43269 0.48688 0.0
C5685 C 0.86564 0.41978 0.47358 0.0
C5686 C 0.87055 0.42657 0.46706 0.0
H5687 H 0.85909 0.41713 0.48811 0.0
H5688 H 0.86435 0.41203 0.47122 0.0
S5689 S 0.87631 0.45349 0.47234 0.0
N5690 N 0.87073 0.44944 0.48277 0.0
N5691 N 0.87675 0.44366 0.46461 0.0
C5692 C 0.8722 0.43651 0.47041 0.0
C5693 C 0.86899 0.43961 0.4803 0.0
C5694 C 0.38025 0.12286 0.25415 0.0
C5695 C 0.37154 0.12578 0.2595 0.0
C5696 C 0.37983 0.12044 0.24384 0.0
C5697 C 0.37068 0.12086 0.23842 0.0
H5698 H 0.3875 0.12254 0.25794 0.0
H5699 H 0.38677 0.11833 0.24004 0.0
S5700 S 0.34562 0.12768 0.24886 0.0
N5701 N 0.35338 0.12864 0.25859 0.0
N5702 N 0.35268 0.12425 0.23915 0.0
C5703 C 0.36191 0.1238 0.24362 0.0
C5704 C 0.36232 0.12621 0.25416 0.0
C5705 C 0.64604 0.58271 0.9855 0.0
C5706 C 0.65057 0.58888 0.99292 0.0
C5707 C 0.64433 0.58634 0.97557 0.0
C5708 C 0.64697 0.59631 0.97275 0.0
H5709 H 0.64399 0.57498 0.98731 0.0
H5710 H 0.64113 0.58122 0.97004 0.0
S5711 S 0.65775 0.61586 0.98992 0.0
N5712 N 0.65696 0.6056 0.99699 0.0
N5713 N 0.65332 0.61256 0.97874 0.0
C5714 C 0.65108 0.60263 0.98032 0.0
C5715 C 0.65299 0.59889 0.99028 0.0
C5716 C 0.64147 0.39846 0.24961 0.0
C5717 C 0.63895 0.38848 0.25227 0.0
C5718 C 0.6414 0.40158 0.23946 0.0
C5719 C 0.63878 0.39484 0.23163 0.0
H5720 H 0.64359 0.40385 0.25541 0.0
H5721 H 0.64344 0.40933 0.23772 0.0
S5722 S 0.63135 0.36793 0.23481 0.0
N5723 N 0.63381 0.37186 0.24641 0.0
N5724 N 0.63333 0.37777 0.22735 0.0
C5725 C 0.63625 0.38482 0.23424 0.0
C5726 C 0.63643 0.38163 0.24456 0.0
C5727 C 0.14622 0.92702 0.0244 0.0
C5728 C 0.15186 0.92144 0.01723 0.0
C5729 C 0.14448 0.92334 0.03427 0.0
C5730 C 0.14827 0.91388 0.03745 0.0
H5731 H 0.14314 0.93435 0.02238 0.0
H5732 H 0.14024 0.92802 0.03949 0.0
S5733 S 0.16268 0.89582 0.02128 0.0
N5734 N 0.16076 0.90571 0.01393 0.0
N5735 N 0.15727 0.89867 0.03215 0.0
C5736 C 0.15373 0.90814 0.03024 0.0
C5737 C 0.1556 0.91195 0.02027 0.0
C5738 C 0.37324 0.87728 0.25704 0.0
C5739 C 0.37167 0.88446 0.24936 0.0
C5740 C 0.37254 0.88001 0.26728 0.0
C5741 C 0.37003 0.88998 0.2702 0.0
H5742 H 0.37526 0.86957 0.25513 0.0
H5743 H 0.37428 0.87433 0.27292 0.0
S5744 S 0.36357 0.91107 0.25279 0.0
N5745 N 0.36661 0.90161 0.24522 0.0
N5746 N 0.36481 0.90668 0.26441 0.0
C5747 C 0.36791 0.89705 0.26251 0.0
C5748 C 0.36884 0.89431 0.25211 0.0
C5749 C 0.14809 0.11667 0.76202 0.0
C5750 C 0.13987 0.12216 0.75802 0.0
C5751 C 0.14799 0.11315 0.77205 0.0
C5752 C 0.13968 0.115 0.77835 0.0
H5753 H 0.1545 0.11479 0.75728 0.0
H5754 H 0.15435 0.10879 0.77482 0.0
S5755 S 0.11682 0.12982 0.77206 0.0
N5756 N 0.1236 0.12998 0.76157 0.0
N5757 N 0.12339 0.12313 0.78031 0.0
C5758 C 0.1316 0.12074 0.77462 0.0
C5759 C 0.1317 0.12437 0.76447 0.0
C5760 C 0.11368 0.09562 0.42993 0.0
C5761 C 0.11012 0.10486 0.42595 0.0
C5762 C 0.1213 0.09545 0.43743 0.0
C5763 C 0.12539 0.10452 0.44131 0.0
H5764 H 0.11089 0.08853 0.42692 0.0
H5765 H 0.12441 0.08823 0.43976 0.0
S5766 S 0.11745 0.13056 0.43434 0.0
N5767 N 0.11055 0.12316 0.42704 0.0
N5768 N 0.12437 0.1229 0.44135 0.0
C5769 C 0.12122 0.11373 0.4379 0.0
C5770 C 0.11375 0.11389 0.43015 0.0
C5771 C 0.13737 0.88338 0.67786 0.0
C5772 C 0.14514 0.87616 0.6775 0.0
C5773 C 0.13638 0.88996 0.68604 0.0
C5774 C 0.14321 0.8898 0.69422 0.0
H5775 H 0.13166 0.88365 0.67199 0.0
H5776 H 0.12986 0.89491 0.68608 0.0
S5777 S 0.16555 0.87292 0.69643 0.0
N5778 N 0.16017 0.86951 0.68569 0.0
N5779 N 0.15854 0.8822 0.70102 0.0
C5780 C 0.15128 0.88285 0.69378 0.0
C5781 C 0.1522 0.87598 0.68545 0.0
C5782 C 0.4056 0.89401 0.93774 0.0
C5783 C 0.4143 0.89546 0.94361 0.0
C5784 C 0.39689 0.89974 0.93929 0.0
C5785 C 0.39651 0.9078 0.94632 0.0
H5786 H 0.40542 0.88836 0.9318 0.0
H5787 H 0.39036 0.89759 0.93487 0.0
S5788 S 0.41734 0.91467 0.96398 0.0
N5789 N 0.42177 0.90494 0.95754 0.0
N5790 N 0.406 0.91687 0.95932 0.0
C5791 C 0.40526 0.90945 0.95224 0.0
C5792 C 0.414 0.9031 0.95109 0.0
C5793 C 0.37318 0.14367 0.19137 0.0
C5794 C 0.36397 0.14513 0.1863 0.0
C5795 C 0.37402 0.13663 0.19924 0.0
C5796 C 0.36569 0.1308 0.20229 0.0
H5797 H 0.37976 0.14807 0.18928 0.0
H5798 H 0.38128 0.13564 0.20289 0.0
S5799 S 0.34008 0.13134 0.1911 0.0
N5800 N 0.34641 0.14004 0.18471 0.0
N5801 N 0.3481 0.12655 0.19942 0.0
C5802 C 0.35647 0.13207 0.19724 0.0
C5803 C 0.35557 0.13933 0.18927 0.0
C5804 C 0.11522 0.91513 0.08103 0.0
C5805 C 0.11064 0.90583 0.08353 0.0
C5806 C 0.12287 0.91563 0.07359 0.0
C5807 C 0.12598 0.90688 0.06834 0.0
H5808 H 0.11317 0.92194 0.08511 0.0
H5809 H 0.12672 0.92275 0.07232 0.0
S5810 S 0.11556 0.88101 0.0715 0.0
N5811 N 0.10924 0.88794 0.07976 0.0
N5812 N 0.12336 0.88887 0.06574 0.0
C5813 C 0.12099 0.89772 0.07044 0.0
C5814 C 0.1134 0.89719 0.07805 0.0
C5815 C 0.35961 0.87584 0.32315 0.0
C5816 C 0.36457 0.86643 0.32273 0.0
C5817 C 0.36054 0.88284 0.31521 0.0
C5818 C 0.36647 0.88063 0.30666 0.0
H5819 H 0.35515 0.87785 0.32973 0.0
H5820 H 0.35678 0.8901 0.31584 0.0
S5821 S 0.38161 0.85742 0.30239 0.0
N5822 N 0.37598 0.8555 0.31337 0.0
N5823 N 0.37771 0.86863 0.29848 0.0
C5824 C 0.37143 0.87125 0.30618 0.0
C5825 C 0.37049 0.86416 0.31422 0.0
C5826 C 0.41335 0.10638 0.56015 0.0
C5827 C 0.41333 0.11493 0.56658 0.0
C5828 C 0.4046 0.10053 0.55863 0.0
C5829 C 0.39544 0.10305 0.56339 0.0
H5830 H 0.4202 0.10416 0.55626 0.0
H5831 H 0.40508 0.0939 0.55383 0.0
S5832 S 0.39115 0.12492 0.58059 0.0
N5833 N 0.40329 0.12542 0.57788 0.0
N5834 N 0.38672 0.1152 0.57417 0.0
C5835 C 0.39523 0.11179 0.56953 0.0
C5836 C 0.40418 0.11752 0.57134 0.0
C5837 C 0.15182 0.12699 0.82983 0.0
C5838 C 0.14403 0.13389 0.83196 0.0
C5839 C 0.15109 0.12041 0.8215 0.0
C5840 C 0.14261 0.12073 0.8151 0.0
H5841 H 0.15841 0.12661 0.83468 0.0
H5842 H 0.15709 0.11501 0.82009 0.0
S5843 S 0.12047 0.13769 0.81739 0.0
N5844 N 0.1278 0.14083 0.82699 0.0
N5845 N 0.12646 0.12854 0.81134 0.0
C5846 C 0.13492 0.12773 0.8171 0.0
C5847 C 0.13563 0.13432 0.82555 0.0
C5848 C 0.46614 0.10077 0.13031 0.0
C5849 C 0.45675 0.09601 0.13175 0.0
C5850 C 0.46708 0.10928 0.12395 0.0
C5851 C 0.45869 0.11316 0.11859 0.0
H5852 H 0.47273 0.09807 0.13435 0.0
H5853 H 0.47433 0.11304 0.12354 0.0
S5854 S 0.43294 0.10188 0.11833 0.0
N5855 N 0.43925 0.09497 0.1266 0.0
N5856 N 0.44106 0.11032 0.11403 0.0
C5857 C 0.44946 0.10786 0.11942 0.0
C5858 C 0.44847 0.09947 0.12614 0.0
C5859 C 0.15709 0.19959 0.3682 0.0
C5860 C 0.16534 0.19443 0.36389 0.0
C5861 C 0.14834 0.20163 0.36252 0.0
C5862 C 0.14752 0.19851 0.35239 0.0
H5863 H 0.15736 0.20197 0.37603 0.0
H5864 H 0.14202 0.20534 0.36618 0.0
S5865 S 0.16689 0.18478 0.33756 0.0
N5866 N 0.17213 0.1864 0.34879 0.0
N5867 N 0.15561 0.19007 0.33825 0.0
C5868 C 0.15574 0.1935 0.34794 0.0
C5869 C 0.16468 0.19151 0.35366 0.0
C5870 C 0.05605 0.92072 0.62254 0.0
C5871 C 0.04814 0.92349 0.629 0.0
C5872 C 0.055 0.91265 0.61577 0.0
C5873 C 0.04614 0.9067 0.61546 0.0
H5874 H 0.0631 0.92487 0.62268 0.0
H5875 H 0.06133 0.91096 0.61087 0.0
S5876 S 0.0229 0.91152 0.63053 0.0
N5877 N 0.03082 0.92048 0.63414 0.0
N5878 N 0.02905 0.90468 0.62207 0.0
C5879 C 0.03801 0.90966 0.62172 0.0
C5880 C 0.03899 0.91817 0.62836 0.0
C5881 C 0.37093 0.83745 0.84937 0.0
C5882 C 0.36118 0.83448 0.85242 0.0
C5883 C 0.3788 0.8304 0.84851 0.0
C5884 C 0.37727 0.82006 0.85061 0.0
H5885 H 0.37257 0.84535 0.84791 0.0
H5886 H 0.38628 0.83313 0.84663 0.0
S5887 S 0.35317 0.80813 0.85831 0.0
N5888 N 0.35041 0.82027 0.85714 0.0
N5889 N 0.36523 0.80708 0.85534 0.0
C5890 C 0.36748 0.81686 0.8531 0.0
C5891 C 0.35944 0.82405 0.85405 0.0
C5892 C 0.45274 0.90632 0.37566 0.0
C5893 C 0.45857 0.91499 0.37765 0.0
C5894 C 0.45374 0.89753 0.38146 0.0
C5895 C 0.46029 0.89704 0.38987 0.0
H5896 H 0.44707 0.90635 0.36975 0.0
H5897 H 0.44909 0.8911 0.3794 0.0
S5898 S 0.47822 0.91715 0.39768 0.0
N5899 N 0.47227 0.92198 0.38782 0.0
N5900 N 0.47328 0.90581 0.39944 0.0
C5901 C 0.46648 0.90548 0.39175 0.0
C5902 C 0.46577 0.91436 0.38554 0.0
C5903 C 0.36964 0.17236 0.6604 0.0
C5904 C 0.36007 0.17584 0.65735 0.0
C5905 C 0.37782 0.17903 0.66165 0.0
C5906 C 0.37688 0.18952 0.6598 0.0
H5907 H 0.37091 0.16434 0.6616 0.0
H5908 H 0.38512 0.17587 0.66358 0.0
S5909 S 0.35329 0.20273 0.65238 0.0
N5910 N 0.34999 0.1907 0.65316 0.0
N5911 N 0.36539 0.20314 0.65538 0.0
C5912 C 0.36722 0.19321 0.65733 0.0
C5913 C 0.35885 0.18641 0.65611 0.0
C5914 C 0.05648 0.09091 0.8851 0.0
C5915 C 0.0482 0.08697 0.87982 0.0
C5916 C 0.05542 0.09928 0.89149 0.0
C5917 C 0.04612 0.10445 0.89255 0.0
H5918 H 0.06383 0.08736 0.88442 0.0
H5919 H 0.06206 0.10167 0.89563 0.0
S5920 S 0.02194 0.09657 0.88047 0.0
N5921 N 0.03024 0.08812 0.87654 0.0
N5922 N 0.02831 0.10451 0.88769 0.0
C5923 C 0.0377 0.1004 0.88736 0.0
C5924 C 0.03874 0.09154 0.88118 0.0
C5925 C 0.15956 0.82459 0.15101 0.0
C5926 C 0.16437 0.81662 0.14596 0.0
C5927 C 0.15116 0.82283 0.15715 0.0
C5928 C 0.14682 0.81309 0.15811 0.0
H5929 H 0.16231 0.83227 0.15018 0.0
H5930 H 0.14791 0.8293 0.16098 0.0
S5931 S 0.15768 0.78942 0.14729 0.0
N5932 N 0.1653 0.79848 0.14331 0.0
N5933 N 0.14888 0.79515 0.15403 0.0
C5934 C 0.15197 0.80493 0.15347 0.0
C5935 C 0.16085 0.80672 0.14755 0.0
C5936 C 0.10746 0.44384 0.11658 0.0
C5937 C 0.1135 0.43505 0.11675 0.0
C5938 C 0.1086 0.45152 0.12385 0.0
C5939 C 0.11591 0.45079 0.13156 0.0
H5940 H 0.10196 0.44492 0.1106 0.0
H5941 H 0.10382 0.45815 0.12329 0.0
S5942 S 0.13356 0.4291 0.1354 0.0
N5943 N 0.12675 0.42586 0.12549 0.0
N5944 N 0.12933 0.44033 0.1388 0.0
C5945 C 0.12182 0.44185 0.13195 0.0
C5946 C 0.12049 0.43398 0.12466 0.0
C5947 C 0.62157 0.07428 0.88493 0.0
C5948 C 0.61418 0.07398 0.89253 0.0
C5949 C 0.62257 0.06645 0.87794 0.0
C5950 C 0.61607 0.05797 0.87801 0.0
H5951 H 0.627 0.08041 0.88464 0.0
H5952 H 0.62884 0.06693 0.87271 0.0
S5953 S 0.5948 0.05401 0.89592 0.0
N5954 N 0.59991 0.06482 0.89956 0.0
N5955 N 0.60147 0.05017 0.88608 0.0
C5956 C 0.60838 0.05773 0.8854 0.0
C5957 C 0.6075 0.06571 0.8927 0.0
C5958 C 0.20294 0.38508 0.15511 0.0
C5959 C 0.20802 0.38263 0.16416 0.0
C5960 C 0.20397 0.37919 0.14638 0.0
C5961 C 0.20976 0.37026 0.14632 0.0
H5962 H 0.19779 0.39142 0.15473 0.0
H5963 H 0.19995 0.3816 0.13966 0.0
S5964 S 0.22545 0.36066 0.16749 0.0
N5965 N 0.22033 0.37117 0.1719 0.0
N5966 N 0.22102 0.35937 0.15591 0.0
C5967 C 0.21512 0.36776 0.15514 0.0
C5968 C 0.21451 0.37407 0.16395 0.0
C5969 C 0.88634 0.92865 0.37725 0.0
C5970 C 0.89512 0.92713 0.38298 0.0
C5971 C 0.88537 0.93694 0.37082 0.0
C5972 C 0.8932 0.94408 0.36968 0.0
H5973 H 0.87993 0.92361 0.37802 0.0
H5974 H 0.87823 0.93789 0.36693 0.0
S5975 S 0.91803 0.94331 0.38265 0.0
N5976 N 0.91197 0.93328 0.387 0.0
N5977 N 0.91023 0.94888 0.37463 0.0
C5978 C 0.90213 0.94261 0.37526 0.0
C5979 C 0.90308 0.93413 0.38195 0.0
C5980 C 0.80607 0.13655 0.16999 0.0
C5981 C 0.79815 0.13012 0.1728 0.0
C5982 C 0.80507 0.1432 0.16183 0.0
C5983 C 0.79622 0.14346 0.15589 0.0
H5984 H 0.81311 0.13647 0.17418 0.0
H5985 H 0.81141 0.14809 0.16009 0.0
S5986 S 0.773 0.12838 0.16069 0.0
N5987 N 0.78088 0.12487 0.16973 0.0
N5988 N 0.77915 0.13681 0.15382 0.0
C5989 C 0.78809 0.13722 0.15886 0.0
C5990 C 0.78903 0.13066 0.16742 0.0
C5991 C 0.39301 0.57275 0.62214 0.0
C5992 C 0.39563 0.58244 0.62567 0.0
C5993 C 0.39227 0.56455 0.62876 0.0
C5994 C 0.3942 0.56569 0.63917 0.0
H5995 H 0.39099 0.57159 0.61428 0.0
H5996 H 0.38963 0.5574 0.62574 0.0
S5997 S 0.40272 0.58923 0.65192 0.0
N5998 N 0.40106 0.59257 0.63999 0.0
N5999 N 0.3999 0.57706 0.6525 0.0
C6000 C 0.39739 0.57522 0.6427 0.0
C6001 C 0.39805 0.58362 0.63594 0.0
C6002 C 0.20358 0.63841 0.34537 0.0
C6003 C 0.20734 0.62843 0.3452 0.0
C6004 C 0.20487 0.64462 0.35389 0.0
C6005 C 0.21018 0.64115 0.3624 0.0
H6006 H 0.19936 0.64133 0.33898 0.0
H6007 H 0.2015 0.6521 0.35392 0.0
S6008 S 0.22198 0.61593 0.36557 0.0
N6009 N 0.21688 0.61553 0.35416 0.0
N6010 N 0.21943 0.62731 0.37012 0.0
C6011 C 0.21423 0.63133 0.36222 0.0
C6012 C 0.21278 0.62494 0.35363 0.0
C6013 C 0.28957 0.38081 0.84404 0.0
C6014 C 0.29781 0.37999 0.83738 0.0
C6015 C 0.28855 0.37418 0.85233 0.0
C6016 C 0.29571 0.36649 0.85413 0.0
H6017 H 0.28403 0.38676 0.84297 0.0
H6018 H 0.28236 0.37533 0.85757 0.0
S6019 S 0.31782 0.36044 0.83789 0.0
N6020 N 0.31268 0.37048 0.83252 0.0
N6021 N 0.31067 0.35782 0.84778 0.0
C6022 C 0.30363 0.36528 0.84709 0.0
C6023 C 0.30471 0.37209 0.83881 0.0
C6024 C 0.90371 0.88223 0.55388 0.0
C6025 C 0.9087 0.87373 0.54985 0.0
C6026 C 0.89524 0.88637 0.54902 0.0
C6027 C 0.89167 0.88226 0.53989 0.0
H6028 H 0.90633 0.88561 0.56087 0.0
H6029 H 0.89144 0.89279 0.55243 0.0
S6030 S 0.90231 0.86009 0.52625 0.0
N6031 N 0.90967 0.86145 0.53625 0.0
N6032 N 0.89375 0.86914 0.52709 0.0
C6033 C 0.89672 0.87382 0.53576 0.0
C6034 C 0.90524 0.86958 0.54075 0.0
C6035 C 0.86664 0.15323 0.30721 0.0
C6036 C 0.86475 0.16136 0.31384 0.0
C6037 C 0.85988 0.14508 0.3065 0.0
C6038 C 0.8511 0.14477 0.31246 0.0
H6039 H 0.87347 0.15309 0.30272 0.0
H6040 H 0.86176 0.13876 0.30162 0.0
S6041 S 0.84256 0.16416 0.33077 0.0
N6042 N 0.85329 0.16866 0.32626 0.0
N6043 N 0.8407 0.15326 0.32494 0.0
C6044 C 0.84898 0.15294 0.31888 0.0
C6045 C 0.85578 0.16126 0.31956 0.0
C6046 C 0.59793 0.13631 0.0459 0.0
C6047 C 0.59653 0.13798 0.05628 0.0
C6048 C 0.60661 0.13147 0.04229 0.0
C6049 C 0.6141 0.12781 0.04895 0.0
H6050 H 0.59241 0.13904 0.0405 0.0
H6051 H 0.60756 0.13102 0.03417 0.0
S6052 S 0.61308 0.12914 0.07706 0.0
N6053 N 0.60283 0.13515 0.07328 0.0
N6054 N 0.61878 0.12528 0.06664 0.0
C6055 C 0.61243 0.12895 0.05945 0.0
C6056 C 0.60375 0.13423 0.06307 0.0
C6057 C 0.65062 0.84576 0.80509 0.0
C6058 C 0.64006 0.84723 0.80467 0.0
C6059 C 0.65735 0.85394 0.80433 0.0
C6060 C 0.65375 0.86384 0.8031 0.0
H6061 H 0.65372 0.8383 0.80647 0.0
H6062 H 0.66538 0.85258 0.80516 0.0
S6063 S 0.62705 0.87178 0.80057 0.0
N6064 N 0.62648 0.85938 0.80205 0.0
N6065 N 0.63916 0.87472 0.80093 0.0
C6066 C 0.6433 0.8654 0.80226 0.0
C6067 C 0.63645 0.8571 0.80297 0.0
C6068 C 0.90906 0.13146 0.96783 0.0
C6069 C 0.90929 0.13539 0.958 0.0
C6070 C 0.90044 0.1267 0.97165 0.0
C6071 C 0.89152 0.12547 0.96583 0.0
H6072 H 0.91554 0.1323 0.97276 0.0
H6073 H 0.90086 0.12446 0.97948 0.0
S6074 S 0.88918 0.1333 0.93867 0.0
N6075 N 0.90051 0.13715 0.94206 0.0
N6076 N 0.88446 0.12774 0.94878 0.0
C6077 C 0.892 0.12893 0.95562 0.0
C6078 C 0.90079 0.13401 0.95185 0.0
C6079 C 0.63739 0.15463 0.70065 0.0
C6080 C 0.64051 0.16388 0.70506 0.0
C6081 C 0.64332 0.14585 0.70108 0.0
C6082 C 0.6529 0.14583 0.70561 0.0
H6083 H 0.63044 0.15405 0.69643 0.0
H6084 H 0.64042 0.13904 0.69756 0.0
S6085 S 0.66495 0.16736 0.71891 0.0
N6086 N 0.65386 0.17176 0.71528 0.0
N6087 N 0.66538 0.15559 0.71479 0.0
C6088 C 0.6562 0.15479 0.71023 0.0
C6089 C 0.64997 0.1637 0.71023 0.0
C6090 C 0.59769 0.87981 0.45932 0.0
C6091 C 0.59789 0.87251 0.45159 0.0
C6092 C 0.60642 0.88489 0.46235 0.0
C6093 C 0.61607 0.8824 0.45849 0.0
H6094 H 0.59071 0.88165 0.46316 0.0
H6095 H 0.60541 0.89075 0.46795 0.0
S6096 S 0.62036 0.86489 0.43667 0.0
N6097 N 0.60809 0.86441 0.43868 0.0
N6098 N 0.62482 0.87259 0.4454 0.0
C6099 C 0.61628 0.87533 0.45037 0.0
C6100 C 0.60718 0.87065 0.44681 0.0
C6101 C 0.8566 0.84813 0.20016 0.0
C6102 C 0.86612 0.84841 0.19529 0.0
C6103 C 0.85023 0.85669 0.20051 0.0
C6104 C 0.85316 0.86591 0.19609 0.0
H6105 H 0.85395 0.84119 0.20363 0.0
H6106 H 0.84287 0.85599 0.20401 0.0
S6107 S 0.87758 0.87108 0.1832 0.0
N6108 N 0.87808 0.85895 0.18608 0.0
N6109 N 0.86669 0.87511 0.1877 0.0
C6110 C 0.86288 0.86645 0.19173 0.0
C6111 C 0.86919 0.85771 0.19109 0.0
C6112 C 0.58259 0.88856 0.89098 0.0
C6113 C 0.58661 0.89229 0.90005 0.0
C6114 C 0.57551 0.88075 0.89097 0.0
C6115 C 0.57225 0.87623 0.90004 0.0
H6116 H 0.58496 0.89169 0.88378 0.0
H6117 H 0.57271 0.87807 0.88375 0.0
S6118 S 0.58011 0.88363 0.92594 0.0
N6119 N 0.58646 0.89136 0.91843 0.0
N6120 N 0.57327 0.87634 0.91842 0.0
C6121 C 0.57592 0.88012 0.90924 0.0
C6122 C 0.58309 0.88822 0.90924 0.0
C6123 C 0.85448 0.81312 0.62523 0.0
C6124 C 0.84659 0.80657 0.62252 0.0
C6125 C 0.86305 0.80949 0.63029 0.0
C6126 C 0.86425 0.7991 0.63252 0.0
H6127 H 0.85395 0.82113 0.62357 0.0
H6128 H 0.86881 0.81492 0.63237 0.0
S6129 S 0.84553 0.77884 0.62662 0.0
N6130 N 0.8402 0.78937 0.62256 0.0
N6131 N 0.85657 0.78229 0.63121 0.0
C6132 C 0.8563 0.79248 0.62978 0.0
C6133 C 0.84744 0.79628 0.62495 0.0
C6134 C 0.93053 0.11741 0.39883 0.0
C6135 C 0.93277 0.10707 0.39782 0.0
C6136 C 0.93813 0.12477 0.3982 0.0
C6137 C 0.94828 0.12215 0.39618 0.0
H6138 H 0.92279 0.11987 0.39983 0.0
H6139 H 0.93591 0.13263 0.3989 0.0
S6140 S 0.95823 0.09582 0.3944 0.0
N6141 N 0.94597 0.09441 0.39606 0.0
N6142 N 0.96019 0.10815 0.39435 0.0
C6143 C 0.95069 0.11172 0.39593 0.0
C6144 C 0.94296 0.10422 0.39682 0.0
C6145 C 0.6573 0.21823 0.12368 0.0
C6146 C 0.65822 0.20767 0.12407 0.0
C6147 C 0.64883 0.22307 0.12769 0.0
C6148 C 0.64103 0.21756 0.13248 0.0
H6149 H 0.66304 0.22275 0.11998 0.0
H6150 H 0.64827 0.23117 0.12663 0.0
S6151 S 0.64081 0.18978 0.13671 0.0
N6152 N 0.65127 0.19185 0.13022 0.0
N6153 N 0.63547 0.20097 0.13828 0.0
C6154 C 0.64219 0.207 0.13337 0.0
C6155 C 0.65075 0.20205 0.12905 0.0
C6156 C 0.57541 0.11595 0.6091 0.0
C6157 C 0.58599 0.11692 0.60828 0.0
C6158 C 0.56903 0.12445 0.60872 0.0
C6159 C 0.57299 0.13423 0.60751 0.0
H6160 H 0.57204 0.10861 0.61048 0.0
H6161 H 0.561 0.12339 0.60991 0.0
S6162 S 0.59991 0.14079 0.60335 0.0
N6163 N 0.59997 0.12839 0.60502 0.0
N6164 N 0.58799 0.14433 0.60431 0.0
C6165 C 0.58347 0.13525 0.60607 0.0
C6166 C 0.58997 0.12662 0.60648 0.0
C6167 C 0.65103 0.79772 0.39226 0.0
C6168 C 0.65844 0.80154 0.38566 0.0
C6169 C 0.64215 0.79337 0.38852 0.0
C6170 C 0.64039 0.79264 0.37807 0.0
H6171 H 0.65218 0.79789 0.40037 0.0
H6172 H 0.63669 0.79035 0.39384 0.0
S6173 S 0.65698 0.80185 0.35756 0.0
N6174 N 0.66308 0.80473 0.36808 0.0
N6175 N 0.64647 0.79616 0.36116 0.0
C6176 C 0.64762 0.79644 0.37137 0.0
C6177 C 0.65663 0.80099 0.37514 0.0
C6178 C 0.93328 0.89618 0.12232 0.0
C6179 C 0.93251 0.90224 0.11362 0.0
C6180 C 0.94087 0.88892 0.12331 0.0
C6181 C 0.94806 0.88731 0.11562 0.0
H6182 H 0.92812 0.89721 0.1286 0.0
H6183 H 0.94118 0.8846 0.13027 0.0
S6184 S 0.94932 0.90097 0.09115 0.0
N6185 N 0.93954 0.90608 0.09703 0.0
N6186 N 0.9539 0.89231 0.09892 0.0
C6187 C 0.94746 0.89332 0.10686 0.0
C6188 C 0.93967 0.90079 0.10584 0.0
C6189 C 0.85026 0.21264 0.88967 0.0
C6190 C 0.8471 0.20268 0.88782 0.0
C6191 C 0.85882 0.21656 0.88487 0.0
C6192 C 0.86447 0.21066 0.87802 0.0
H6193 H 0.84608 0.2174 0.89487 0.0
H6194 H 0.86114 0.22421 0.88668 0.0
S6195 S 0.85891 0.1843 0.87028 0.0
N6196 N 0.84992 0.18711 0.87849 0.0
N6197 N 0.86612 0.19448 0.86944 0.0
C6198 C 0.86131 0.20072 0.87604 0.0
C6199 C 0.85257 0.19674 0.88093 0.0
C6200 C 0.8892 0.56069 0.90445 0.0
C6201 C 0.89072 0.55452 0.91298 0.0
C6202 C 0.89581 0.56048 0.89624 0.0
C6203 C 0.90453 0.55436 0.89622 0.0
H6204 H 0.88296 0.56598 0.90414 0.0
H6205 H 0.89403 0.56528 0.88983 0.0
S6206 S 0.91181 0.53621 0.91638 0.0
N6207 N 0.90122 0.54135 0.92052 0.0
N6208 N 0.91416 0.54164 0.90537 0.0
C6209 C 0.90612 0.54797 0.90459 0.0
C6210 C 0.89915 0.54795 0.9129 0.0
C6211 C 0.38759 0.96006 0.10449 0.0
C6212 C 0.39039 0.95447 0.09587 0.0
C6213 C 0.39408 0.96078 0.11289 0.0
C6214 C 0.40348 0.95582 0.11296 0.0
H6215 H 0.38035 0.96386 0.10474 0.0
H6216 H 0.39162 0.96498 0.11949 0.0
S6217 S 0.41436 0.94033 0.09233 0.0
N6218 N 0.40329 0.94404 0.08792 0.0
N6219 N 0.41533 0.94529 0.10376 0.0
C6220 C 0.4064 0.95032 0.10438 0.0
C6221 C 0.39989 0.94968 0.09582 0.0
C6222 C 0.82742 0.64515 0.86732 0.0
C6223 C 0.83622 0.65109 0.86735 0.0
C6224 C 0.82059 0.64556 0.87539 0.0
C6225 C 0.82231 0.65199 0.88367 0.0
H6226 H 0.826 0.63992 0.86117 0.0
H6227 H 0.81412 0.64053 0.87535 0.0
S6228 S 0.84374 0.66967 0.88691 0.0
N6229 N 0.84599 0.66403 0.87597 0.0
N6230 N 0.83307 0.6648 0.89121 0.0
C6231 C 0.83086 0.65825 0.88361 0.0
C6232 C 0.83785 0.6578 0.8754 0.0
C6233 C 0.1071 0.06009 0.59918 0.0
C6234 C 0.11675 0.06456 0.60002 0.0
C6235 C 0.1004 0.05986 0.60744 0.0
C6236 C 0.10313 0.06403 0.61684 0.0
H6237 H 0.10466 0.05682 0.59208 0.0
H6238 H 0.09298 0.05659 0.60638 0.0
S6239 S 0.12766 0.07617 0.62316 0.0
N6240 N 0.12855 0.07337 0.61104 0.0
N6241 N 0.11649 0.07197 0.62671 0.0
C6242 C 0.11291 0.06813 0.61786 0.0
C6243 C 0.11957 0.06865 0.60942 0.0
C6244 C 0.18742 0.8739 0.85803 0.0
C6245 C 0.18307 0.86443 0.85596 0.0
C6246 C 0.19507 0.8749 0.86525 0.0
C6247 C 0.1986 0.86648 0.87068 0.0
H6248 H 0.18488 0.88059 0.85403 0.0
H6249 H 0.19808 0.88237 0.8668 0.0
S6250 S 0.18963 0.84003 0.86816 0.0
N6251 N 0.18289 0.84643 0.85978 0.0
N6252 N 0.19716 0.84838 0.87364 0.0
C6253 C 0.1944 0.85693 0.86865 0.0
C6254 C 0.18666 0.85588 0.86118 0.0
C6255 C 0.61298 0.45445 0.40644 0.0
C6256 C 0.61515 0.44531 0.41144 0.0
C6257 C 0.60619 0.45471 0.39826 0.0
C6258 C 0.60118 0.44588 0.39494 0.0
H6259 H 0.6168 0.46135 0.40868 0.0
H6260 H 0.60523 0.4618 0.39424 0.0
S6261 S 0.60305 0.42047 0.40694 0.0
N6262 N 0.61116 0.42752 0.41328 0.0
N6263 N 0.59787 0.42806 0.39848 0.0
C6264 C 0.60277 0.43688 0.40049 0.0
C6265 C 0.60988 0.43658 0.40858 0.0
C6266 C 0.83343 0.36868 0.63721 0.0
C6267 C 0.83656 0.35967 0.64184 0.0
C6268 C 0.8264 0.36862 0.62936 0.0
C6269 C 0.82235 0.3595 0.62558 0.0
H6270 H 0.83637 0.37591 0.63974 0.0
H6271 H 0.82422 0.37583 0.62614 0.0
S6272 S 0.82766 0.33379 0.63556 0.0
N6273 N 0.83465 0.34137 0.64263 0.0
N6274 N 0.82166 0.34119 0.62746 0.0
C6275 C 0.82515 0.35041 0.63037 0.0
C6276 C 0.83223 0.3505 0.63857 0.0
C6277 C 0.6923 0.64432 0.15685 0.0
C6278 C 0.6821 0.64619 0.1546 0.0
C6279 C 0.69957 0.64344 0.14919 0.0
C6280 C 0.69703 0.64463 0.13889 0.0
H6281 H 0.69463 0.64297 0.16459 0.0
H6282 H 0.70711 0.64124 0.15145 0.0
S6283 S 0.67159 0.65178 0.12921 0.0
N6284 N 0.66993 0.65035 0.14152 0.0
N6285 N 0.68368 0.64955 0.12712 0.0
C6286 C 0.68694 0.64738 0.13663 0.0
C6287 C 0.67947 0.64793 0.14445 0.0
C6288 C 0.60964 0.60434 0.93536 0.0
C6289 C 0.61132 0.60222 0.92502 0.0
C6290 C 0.6174 0.6033 0.94257 0.0
C6291 C 0.62709 0.60007 0.93969 0.0
H6292 H 0.60245 0.60739 0.93781 0.0
H6293 H 0.61601 0.60573 0.95028 0.0
S6294 S 0.63497 0.59203 0.91398 0.0
N6295 N 0.62308 0.59552 0.9126 0.0
N6296 N 0.63763 0.59369 0.92607 0.0
C6297 C 0.62863 0.59721 0.92955 0.0
C6298 C 0.62078 0.59828 0.92223 0.0
C6299 C 0.63766 0.3828 0.178 0.0
C6300 C 0.64582 0.37606 0.17738 0.0
C6301 C 0.63657 0.3893 0.18621 0.0
C6302 C 0.64368 0.38951 0.19416 0.0
H6303 H 0.63174 0.38273 0.17234 0.0
H6304 H 0.62984 0.39395 0.18646 0.0
S6305 S 0.66688 0.37388 0.1958 0.0
N6306 N 0.66145 0.37024 0.18515 0.0
N6307 N 0.65948 0.38273 0.20061 0.0
C6308 C 0.65205 0.38301 0.19353 0.0
C6309 C 0.65312 0.37626 0.18514 0.0
C6310 C 0.91111 0.40286 0.43589 0.0
C6311 C 0.91458 0.39622 0.44341 0.0
C6312 C 0.90276 0.40914 0.43759 0.0
C6313 C 0.89738 0.40886 0.44681 0.0
H6314 H 0.91485 0.40314 0.4286 0.0
H6315 H 0.9003 0.41405 0.4315 0.0
S6316 S 0.90383 0.39295 0.46907 0.0
N6317 N 0.91254 0.39009 0.46059 0.0
N6318 N 0.89646 0.40147 0.46368 0.0
C6319 C 0.90102 0.40245 0.45452 0.0
C6320 C 0.90969 0.39621 0.45283 0.0
C6321 C 0.85697 0.64099 0.69204 0.0
C6322 C 0.86507 0.64276 0.68533 0.0
C6323 C 0.8579 0.63406 0.70007 0.0
C6324 C 0.86696 0.62872 0.70161 0.0
H6325 H 0.84989 0.64498 0.69106 0.0
H6326 H 0.85151 0.6328 0.70503 0.0
S6327 S 0.89071 0.63158 0.68696 0.0
N6328 N 0.88263 0.63924 0.68134 0.0
N6329 N 0.88438 0.62629 0.69632 0.0
C6330 C 0.87515 0.63065 0.69511 0.0
C6331 C 0.8742 0.63763 0.687 0.0
C6332 C 0.60983 0.40459 0.57422 0.0
C6333 C 0.61111 0.40784 0.58432 0.0
C6334 C 0.6176 0.40559 0.56704 0.0
C6335 C 0.62693 0.4099 0.56969 0.0
H6336 H 0.60296 0.40074 0.57197 0.0
H6337 H 0.61655 0.4024 0.55956 0.0
S6338 S 0.6337 0.42085 0.59461 0.0
N6339 N 0.62208 0.41657 0.59619 0.0
N6340 N 0.63673 0.41823 0.58277 0.0
C6341 C 0.6281 0.41371 0.57956 0.0
C6342 C 0.62019 0.41272 0.58685 0.0
C6343 C 0.86928 0.36417 0.81424 0.0
C6344 C 0.86321 0.3662 0.82271 0.0
C6345 C 0.87007 0.37114 0.80633 0.0
C6346 C 0.86481 0.38037 0.80664 0.0
H6347 H 0.87376 0.3573 0.8139 0.0
H6348 H 0.87516 0.36948 0.80012 0.0
S6349 S 0.84727 0.38888 0.82676 0.0
N6350 N 0.85142 0.37776 0.83074 0.0
N6351 N 0.85289 0.39095 0.81578 0.0
C6352 C 0.85848 0.38237 0.81493 0.0
C6353 C 0.85769 0.37526 0.823 0.0
C6354 C 0.91514 0.6032 0.06762 0.0
C6355 C 0.91513 0.61372 0.06571 0.0
C6356 C 0.9066 0.59719 0.06561 0.0
C6357 C 0.89784 0.60144 0.06138 0.0
H6358 H 0.92169 0.59965 0.07103 0.0
H6359 H 0.90673 0.58924 0.06764 0.0
S6360 S 0.89405 0.62833 0.05438 0.0
N6361 N 0.90566 0.62795 0.05893 0.0
N6362 N 0.88969 0.61663 0.05511 0.0
C6363 C 0.89783 0.61183 0.05914 0.0
C6364 C 0.90645 0.61797 0.0613 0.0
C6365 C 0.65236 0.63393 0.32491 0.0
C6366 C 0.6453 0.63387 0.3329 0.0
C6367 C 0.65133 0.62739 0.31659 0.0
C6368 C 0.64321 0.62057 0.316 0.0
H6369 H 0.65865 0.63918 0.32502 0.0
H6370 H 0.65688 0.62768 0.31058 0.0
S6371 S 0.62225 0.61799 0.33457 0.0
N6372 N 0.62969 0.62673 0.33943 0.0
N6373 N 0.62768 0.61458 0.32388 0.0
C6374 C 0.63608 0.6205 0.32394 0.0
C6375 C 0.63716 0.62708 0.33237 0.0
C6376 C 0.96261 0.5961 0.62353 0.0
C6377 C 0.95678 0.5962 0.6325 0.0
C6378 C 0.96326 0.60461 0.61721 0.0
C6379 C 0.95835 0.61369 0.61972 0.0
H6380 H 0.96656 0.58931 0.62122 0.0
H6381 H 0.96743 0.60394 0.6102 0.0
S6382 S 0.94336 0.61858 0.64301 0.0
N6383 N 0.94637 0.60649 0.6437 0.0
N6384 N 0.94869 0.62275 0.63254 0.0
C6385 C 0.95315 0.61416 0.62903 0.0
C6386 C 0.95212 0.60538 0.63525 0.0
C6387 C 0.65618 0.69778 0.86763 0.0
C6388 C 0.665 0.69373 0.8633 0.0
C6389 C 0.64767 0.6999 0.86169 0.0
C6390 C 0.64769 0.69805 0.85122 0.0
H6391 H 0.65581 0.6992 0.8757 0.0
H6392 H 0.64089 0.70268 0.86535 0.0
S6393 S 0.66875 0.68758 0.83613 0.0
N6394 N 0.67321 0.68807 0.8478 0.0
N6395 N 0.65711 0.69203 0.83671 0.0
C6396 C 0.65646 0.69421 0.84674 0.0
C6397 C 0.66516 0.69208 0.85276 0.0
C6398 C 0.54054 0.41604 0.13008 0.0
C6399 C 0.5489 0.42256 0.12963 0.0
C6400 C 0.53956 0.408 0.1232 0.0
C6401 C 0.54687 0.40632 0.11562 0.0
H6402 H 0.53488 0.41703 0.13592 0.0
H6403 H 0.53326 0.40284 0.12408 0.0
S6404 S 0.56936 0.4223 0.11056 0.0
N6405 N 0.56407 0.42747 0.12063 0.0
N6406 N 0.56212 0.4126 0.10749 0.0
C6407 C 0.55493 0.41321 0.1148 0.0
C6408 C 0.55597 0.42127 0.12186 0.0
C6409 C 0.86727 0.33313 0.36207 0.0
C6410 C 0.86095 0.3348 0.35374 0.0
C6411 C 0.87485 0.32581 0.36181 0.0
C6412 C 0.87688 0.32003 0.35303 0.0
H6413 H 0.86625 0.33742 0.36899 0.0
H6414 H 0.87925 0.32477 0.36864 0.0
S6415 S 0.86174 0.32083 0.32938 0.0
N6416 N 0.85641 0.32943 0.33674 0.0
N6417 N 0.87123 0.31605 0.33596 0.0
C6418 C 0.87032 0.32133 0.34472 0.0
C6419 C 0.86229 0.32866 0.34512 0.0
C6420 C 0.95435 0.41389 0.88766 0.0
C6421 C 0.95802 0.41395 0.87766 0.0
C6422 C 0.95566 0.40542 0.89392 0.0
C6423 C 0.96088 0.39683 0.89047 0.0
H6424 H 0.95014 0.42031 0.89054 0.0
H6425 H 0.95233 0.40548 0.90141 0.0
S6426 S 0.97258 0.39345 0.86527 0.0
N6427 N 0.96749 0.40487 0.8648 0.0
N6428 N 0.97008 0.38898 0.87668 0.0
C6429 C 0.96491 0.39692 0.88067 0.0
C6430 C 0.96345 0.40548 0.87422 0.0
C6431 C 0.86976 0.67299 0.16097 0.0
C6432 C 0.8605 0.67585 0.1566 0.0
C6433 C 0.87766 0.68001 0.16221 0.0
C6434 C 0.87662 0.6902 0.15917 0.0
H6435 H 0.87097 0.66522 0.16332 0.0
H6436 H 0.88479 0.67737 0.16525 0.0
S6437 S 0.85408 0.70154 0.14705 0.0
N6438 N 0.85086 0.68963 0.14907 0.0
N6439 N 0.86565 0.70274 0.15151 0.0
C6440 C 0.86734 0.69322 0.15503 0.0
C6441 C 0.85931 0.68608 0.15371 0.0
C6442 C 0.5538 0.58821 0.38864 0.0
C6443 C 0.54749 0.58704 0.3802 0.0
C6444 C 0.55251 0.59632 0.39535 0.0
C6445 C 0.54493 0.60367 0.39382 0.0
H6446 H 0.55986 0.58287 0.39 0.0
H6447 H 0.55768 0.59697 0.40167 0.0
S6448 S 0.52594 0.60343 0.37314 0.0
N6449 N 0.53293 0.59329 0.37101 0.0
N6450 N 0.53069 0.60885 0.38335 0.0
C6451 C 0.53831 0.60232 0.38557 0.0
C6452 C 0.53957 0.59395 0.3788 0.0
C6453 C 0.65569 0.31506 0.64104 0.0
C6454 C 0.66511 0.31636 0.6458 0.0
C6455 C 0.64691 0.31323 0.64667 0.0
C6456 C 0.64721 0.31252 0.65728 0.0
H6457 H 0.65505 0.31555 0.63289 0.0
H6458 H 0.63978 0.31257 0.64271 0.0
S6459 S 0.66978 0.31516 0.67354 0.0
N6460 N 0.6741 0.31674 0.66192 0.0
N6461 N 0.65754 0.31303 0.67239 0.0
C6462 C 0.65654 0.31347 0.66217 0.0
C6463 C 0.6655 0.31545 0.65646 0.0
C6464 C 0.60675 0.94356 0.61588 0.0
C6465 C 0.61359 0.93539 0.61507 0.0
C6466 C 0.60799 0.95117 0.62324 0.0
C6467 C 0.61611 0.95093 0.63011 0.0
H6468 H 0.60049 0.94418 0.61065 0.0
H6469 H 0.60259 0.95733 0.62349 0.0
S6470 S 0.63627 0.93124 0.63102 0.0
N6471 N 0.62878 0.92759 0.62177 0.0
N6472 N 0.6312 0.94175 0.63539 0.0
C6473 C 0.62289 0.94268 0.62945 0.0
C6474 C 0.62159 0.93495 0.62202 0.0
C6475 C 0.12274 0.57349 0.38735 0.0
C6476 C 0.11407 0.57381 0.39344 0.0
C6477 C 0.12434 0.5656 0.38055 0.0
C6478 C 0.11724 0.55774 0.37935 0.0
H6479 H 0.1286 0.57917 0.38814 0.0
H6480 H 0.13137 0.56557 0.37636 0.0
S6481 S 0.09299 0.55528 0.39318 0.0
N6482 N 0.09813 0.56572 0.39775 0.0
N6483 N 0.10101 0.55094 0.38464 0.0
C6484 C 0.10843 0.55801 0.38528 0.0
C6485 C 0.10686 0.56604 0.39236 0.0
C6486 C 0.70791 0.88572 0.65447 0.0
C6487 C 0.70701 0.88141 0.66417 0.0
C6488 C 0.70921 0.87964 0.64585 0.0
C6489 C 0.70975 0.86903 0.64662 0.0
H6490 H 0.70751 0.89385 0.6535 0.0
H6491 H 0.70961 0.88323 0.63849 0.0
S6492 S 0.70772 0.85387 0.67006 0.0
N6493 N 0.70663 0.86572 0.67391 0.0
N6494 N 0.70932 0.85442 0.65768 0.0
C6495 C 0.70909 0.8646 0.65622 0.0
C6496 C 0.70767 0.87076 0.665 0.0
C6497 C 0.3989 0.42831 0.87505 0.0
C6498 C 0.39497 0.42885 0.88492 0.0
C6499 C 0.39807 0.43655 0.8684 0.0
C6500 C 0.39325 0.44558 0.87139 0.0
H6501 H 0.40246 0.42141 0.87241 0.0
H6502 H 0.40101 0.43579 0.86078 0.0
S6503 S 0.38099 0.45042 0.89617 0.0
N6504 N 0.38572 0.4389 0.89721 0.0
N6505 N 0.38408 0.45432 0.88472 0.0
C6506 C 0.38933 0.44618 0.88126 0.0
C6507 C 0.3902 0.43783 0.88801 0.0
C6508 C 0.30003 0.64004 0.67286 0.0
C6509 C 0.29755 0.62969 0.67227 0.0
C6510 C 0.29894 0.64643 0.66447 0.0
C6511 C 0.29517 0.64271 0.65528 0.0
H6512 H 0.30318 0.64315 0.67976 0.0
H6513 H 0.30135 0.65425 0.66507 0.0
S6514 S 0.28683 0.61652 0.64996 0.0
N6515 N 0.29063 0.61619 0.66187 0.0
N6516 N 0.28852 0.6283 0.64609 0.0
C6517 C 0.2923 0.63252 0.65466 0.0
C6518 C 0.29351 0.62597 0.66317 0.0
C6519 C 0.88695 0.08162 0.13094 0.0
C6520 C 0.89545 0.08241 0.12463 0.0
C6521 C 0.88582 0.0735 0.13762 0.0
C6522 C 0.89318 0.06582 0.13841 0.0
H6523 H 0.88083 0.08703 0.13038 0.0
H6524 H 0.87889 0.07309 0.14196 0.0
S6525 S 0.91741 0.06487 0.12441 0.0
N6526 N 0.91179 0.0752 0.12016 0.0
N6527 N 0.90962 0.0599 0.13282 0.0
C6528 C 0.9019 0.06667 0.13243 0.0
C6529 C 0.90306 0.07497 0.12556 0.0
C6530 C 0.71571 0.13531 0.84576 0.0
C6531 C 0.70808 0.12804 0.84421 0.0
C6532 C 0.71582 0.1415 0.85446 0.0
C6533 C 0.70832 0.14064 0.86203 0.0
H6534 H 0.72163 0.13626 0.84018 0.0
H6535 H 0.72176 0.14708 0.85513 0.0
S6536 S 0.68644 0.12275 0.86115 0.0
N6537 N 0.6925 0.1208 0.85048 0.0
N6538 N 0.69315 0.13138 0.86709 0.0
C6539 C 0.70071 0.13324 0.86044 0.0
C6540 C 0.70047 0.12723 0.8515 0.0
C6541 C 0.80292 0.86995 0.3373 0.0
C6542 C 0.79759 0.87914 0.33694 0.0
C6543 C 0.80166 0.86321 0.34539 0.0
C6544 C 0.79492 0.86536 0.35333 0.0
H6545 H 0.80829 0.86809 0.3314 0.0
H6546 H 0.80621 0.85639 0.34559 0.0
S6547 S 0.77871 0.88816 0.35552 0.0
N6548 N 0.78498 0.88986 0.34484 0.0
N6549 N 0.78258 0.87719 0.36012 0.0
C6550 C 0.78925 0.87436 0.35284 0.0
C6551 C 0.79061 0.88127 0.34463 0.0
C6552 C 0.39978 0.37216 0.05366 0.0
C6553 C 0.40944 0.37541 0.05072 0.0
C6554 C 0.39108 0.37621 0.04927 0.0
C6555 C 0.39159 0.38393 0.04192 0.0
H6556 H 0.39887 0.36635 0.05937 0.0
H6557 H 0.38392 0.37291 0.05144 0.0
S6558 S 0.41496 0.39582 0.03207 0.0
N6559 N 0.41898 0.38697 0.03992 0.0
N6560 N 0.40252 0.39533 0.03255 0.0
C6561 C 0.40116 0.38766 0.03927 0.0
C6562 C 0.41009 0.38325 0.04346 0.0
C6563 C 0.36907 0.65145 0.81179 0.0
C6564 C 0.36534 0.66118 0.81404 0.0
C6565 C 0.3626 0.64308 0.81115 0.0
C6566 C 0.35216 0.64415 0.81262 0.0
H6567 H 0.37708 0.65025 0.81062 0.0
H6568 H 0.36581 0.63566 0.80973 0.0
S6569 S 0.33838 0.66777 0.8185 0.0
N6570 N 0.35033 0.67127 0.81773 0.0
N6571 N 0.33824 0.65549 0.81616 0.0
C6572 C 0.34823 0.65379 0.81455 0.0
C6573 C 0.3548 0.66232 0.81533 0.0
C6574 C 0.1041 0.64386 0.55073 0.0
C6575 C 0.09737 0.63869 0.55712 0.0
C6576 C 0.11256 0.63897 0.54675 0.0
C6577 C 0.11454 0.62879 0.54906 0.0
H6578 H 0.10275 0.6517 0.54872 0.0
H6579 H 0.11766 0.64317 0.54189 0.0
S6580 S 0.09956 0.61196 0.56557 0.0
N6581 N 0.09342 0.62285 0.56573 0.0
N6582 N 0.10943 0.6137 0.55812 0.0
C6583 C 0.10797 0.62352 0.55542 0.0
C6584 C 0.09933 0.62847 0.55948 0.0
C6585 C 0.13975 0.35378 0.29783 0.0
C6586 C 0.14131 0.34575 0.30462 0.0
C6587 C 0.14662 0.36188 0.29728 0.0
C6588 C 0.15515 0.36225 0.30364 0.0
H6589 H 0.1331 0.35388 0.29304 0.0
H6590 H 0.14498 0.36813 0.29222 0.0
S6591 S 0.16267 0.34294 0.32252 0.0
N6592 N 0.15209 0.33851 0.3176 0.0
N6593 N 0.16491 0.35374 0.31665 0.0
C6594 C 0.15689 0.35412 0.31025 0.0
C6595 C 0.14998 0.34587 0.31073 0.0
C6596 C 0.3998 0.6374 0.45516 0.0
C6597 C 0.40937 0.63479 0.45897 0.0
C6598 C 0.39093 0.63354 0.45943 0.0
C6599 C 0.39114 0.62644 0.46743 0.0
H6600 H 0.39909 0.64264 0.44889 0.0
H6601 H 0.38389 0.63655 0.45659 0.0
S6602 S 0.41441 0.61614 0.47946 0.0
N6603 N 0.41853 0.62473 0.4714 0.0
N6604 N 0.40206 0.61588 0.47794 0.0
C6605 C 0.40074 0.62314 0.47077 0.0
C6606 C 0.40976 0.62768 0.46693 0.0
C6607 C 0.13859 0.65591 0.21034 0.0
C6608 C 0.14122 0.66448 0.20461 0.0
C6609 C 0.1452 0.64762 0.21112 0.0
C6610 C 0.15457 0.64763 0.20609 0.0
H6611 H 0.13135 0.65558 0.21415 0.0
H6612 H 0.14281 0.64099 0.21532 0.0
S6613 S 0.16498 0.66815 0.19018 0.0
N6614 N 0.15391 0.67249 0.19397 0.0
N6615 N 0.16617 0.65681 0.1953 0.0
C6616 C 0.15733 0.65617 0.20049 0.0
C6617 C 0.1507 0.66463 0.19978 0.0
C6618 C 0.09899 0.38168 0.9531 0.0
C6619 C 0.09846 0.37104 0.95222 0.0
C6620 C 0.10781 0.38648 0.95645 0.0
C6621 C 0.11645 0.38083 0.95882 0.0
H6622 H 0.09254 0.38635 0.9512 0.0
H6623 H 0.10786 0.39465 0.95726 0.0
S6624 S 0.11891 0.35289 0.95858 0.0
N6625 N 0.10727 0.35504 0.95465 0.0
N6626 N 0.12393 0.36415 0.9606 0.0
C6627 C 0.11607 0.37024 0.95799 0.0
C6628 C 0.10707 0.36533 0.95474 0.0
C6629 C 0.3568 0.34958 0.70129 0.0
C6630 C 0.36573 0.34988 0.69545 0.0
C6631 C 0.34997 0.35775 0.70133 0.0
C6632 C 0.35185 0.36652 0.69557 0.0
H6633 H 0.35506 0.34298 0.70583 0.0
H6634 H 0.34312 0.35714 0.70577 0.0
S6635 S 0.3743 0.37115 0.67927 0.0
N6636 N 0.37582 0.35952 0.68351 0.0
N6637 N 0.36381 0.37522 0.68459 0.0
C6638 C 0.36094 0.36697 0.69001 0.0
C6639 C 0.36764 0.35858 0.68967 0.0
C6640 C 0.07634 0.39315 0.39884 0.0
C6641 C 0.08663 0.39192 0.40125 0.0
C6642 C 0.06962 0.38497 0.3993 0.0
C6643 C 0.07297 0.3753 0.40216 0.0
H6644 H 0.07356 0.40037 0.39613 0.0
H6645 H 0.06188 0.38609 0.39687 0.0
S6646 S 0.09868 0.36844 0.41075 0.0
N6647 N 0.09952 0.38057 0.40779 0.0
N6648 N 0.08687 0.36514 0.40845 0.0
C6649 C 0.08306 0.3741 0.40515 0.0
C6650 C 0.0899 0.38242 0.40473 0.0
C6651 C 0.34633 0.30035 0.12906 0.0
C6652 C 0.34695 0.30753 0.12119 0.0
C6653 C 0.355 0.29675 0.13395 0.0
C6654 C 0.36469 0.29995 0.13099 0.0
H6655 H 0.33909 0.29733 0.13138 0.0
H6656 H 0.35407 0.29127 0.13998 0.0
S6657 S 0.37038 0.31911 0.11109 0.0
N6658 N 0.35796 0.31846 0.11135 0.0
N6659 N 0.37427 0.31083 0.11956 0.0
C6660 C 0.36538 0.30723 0.12318 0.0
C6661 C 0.35653 0.31119 0.1185 0.0
C6662 C 0.43207 0.61617 0.89993 0.0
C6663 C 0.43367 0.60616 0.89673 0.0
C6664 C 0.43969 0.62347 0.899 0.0
C6665 C 0.44912 0.62111 0.89461 0.0
H6666 H 0.4248 0.61843 0.90292 0.0
H6667 H 0.43803 0.63114 0.9014 0.0
S6668 S 0.45718 0.59573 0.88555 0.0
N6669 N 0.44553 0.59404 0.88965 0.0
N6670 N 0.45969 0.60781 0.88748 0.0
C6671 C 0.45094 0.61098 0.89183 0.0
C6672 C 0.44324 0.60351 0.89296 0.0
C6673 C 0.14969 0.70514 0.62335 0.0
C6674 C 0.15924 0.70955 0.62448 0.0
C6675 C 0.14109 0.7096 0.62749 0.0
C6676 C 0.14157 0.71849 0.63347 0.0
H6677 H 0.14876 0.69823 0.61903 0.0
H6678 H 0.13402 0.7061 0.62544 0.0
S6679 S 0.16528 0.73227 0.63992 0.0
N6680 N 0.16888 0.72328 0.63207 0.0
N6681 N 0.15305 0.73057 0.6415 0.0
C6682 C 0.1513 0.72251 0.63536 0.0
C6683 C 0.16002 0.71832 0.6305 0.0
C6684 C 0.08746 0.62533 0.10178 0.0
C6685 C 0.0865 0.61764 0.10907 0.0
C6686 C 0.08044 0.63332 0.10135 0.0
C6687 C 0.07233 0.63377 0.1082 0.0
H6688 H 0.09376 0.62527 0.09655 0.0
H6689 H 0.08154 0.63934 0.09589 0.0
S6690 S 0.06645 0.61532 0.12845 0.0
N6691 N 0.07674 0.61079 0.12301 0.0
N6692 N 0.06364 0.62583 0.12228 0.0
C6693 C 0.0712 0.62599 0.11532 0.0
C6694 C 0.07827 0.61789 0.11573 0.0
C6695 C 0.15409 0.30392 0.87756 0.0
C6696 C 0.15807 0.30098 0.88702 0.0
C6697 C 0.14526 0.29946 0.87374 0.0
C6698 C 0.14029 0.29184 0.8792 0.0
H6699 H 0.15782 0.30972 0.87313 0.0
H6700 H 0.14237 0.30188 0.86646 0.0
S6701 S 0.14776 0.28124 0.90404 0.0
N6702 N 0.15643 0.28989 0.90159 0.0
N6703 N 0.13989 0.28146 0.89435 0.0
C6704 C 0.1442 0.28882 0.88859 0.0
C6705 C 0.15309 0.29341 0.89252 0.0
C6706 C 0.44321 0.40626 0.61573 0.0
C6707 C 0.43304 0.40398 0.61363 0.0
C6708 C 0.4505 0.39859 0.61659 0.0
C6709 C 0.44794 0.38832 0.61519 0.0
H6710 H 0.44545 0.41399 0.61731 0.0
H6711 H 0.45802 0.40071 0.61898 0.0
S6712 S 0.42276 0.37873 0.60714 0.0
N6713 N 0.42104 0.39101 0.60876 0.0
N6714 N 0.43479 0.37662 0.60965 0.0
C6715 C 0.43796 0.38611 0.61207 0.0
C6716 C 0.4305 0.39391 0.61149 0.0
C6717 C 0.34924 0.7033 0.37891 0.0
C6718 C 0.34809 0.70316 0.38953 0.0
C6719 C 0.35812 0.70691 0.37439 0.0
C6720 C 0.36617 0.71033 0.38037 0.0
H6721 H 0.34324 0.70058 0.37404 0.0
H6722 H 0.3587 0.70704 0.36621 0.0
S6723 S 0.36687 0.71229 0.40827 0.0
N6724 N 0.35567 0.7074 0.40577 0.0
N6725 N 0.37245 0.71384 0.39721 0.0
C6726 C 0.36516 0.71027 0.39091 0.0
C6727 C 0.35611 0.70675 0.39552 0.0
C6728 C 0.38758 0.05034 0.40408 0.0
C6729 C 0.39074 0.05482 0.41322 0.0
C6730 C 0.39416 0.04956 0.39579 0.0
C6731 C 0.40407 0.05329 0.39635 0.0
H6732 H 0.37992 0.04757 0.40329 0.0
H6733 H 0.39137 0.04637 0.38877 0.0
S6734 S 0.4161 0.06563 0.4184 0.0
N6735 N 0.40455 0.06295 0.42227 0.0
N6736 N 0.41683 0.06147 0.40664 0.0
C6737 C 0.4074 0.05758 0.40544 0.0
C6738 C 0.40076 0.05833 0.41391 0.0
C6739 C 0.89643 0.46217 0.5974 0.0
C6740 C 0.88897 0.45467 0.59595 0.0
C6741 C 0.90296 0.46195 0.60581 0.0
C6742 C 0.90216 0.45437 0.6133 0.0
H6743 H 0.89732 0.46821 0.59193 0.0
H6744 H 0.90879 0.46768 0.6063 0.0
S6745 S 0.88349 0.43322 0.61324 0.0
N6746 N 0.88154 0.43919 0.60248 0.0
N6747 N 0.89234 0.43977 0.61904 0.0
C6748 C 0.89435 0.44713 0.61213 0.0
C6749 C 0.88815 0.44703 0.6033 0.0
C6750 C 0.32597 0.14963 0.36597 0.0
C6751 C 0.33637 0.15139 0.36744 0.0
C6752 C 0.31915 0.15009 0.37407 0.0
C6753 C 0.32253 0.15231 0.38389 0.0
H6754 H 0.32315 0.1474 0.35861 0.0
H6755 H 0.31131 0.14817 0.37275 0.0
S6756 S 0.34859 0.1591 0.39146 0.0
N6757 N 0.34943 0.15667 0.37922 0.0
N6758 N 0.33662 0.15734 0.3945 0.0
C6759 C 0.33276 0.15468 0.38535 0.0
C6760 C 0.33969 0.15426 0.37711 0.0
C6761 C 0.61757 0.56005 0.10716 0.0
C6762 C 0.61452 0.56466 0.09805 0.0
C6763 C 0.61092 0.55925 0.11541 0.0
C6764 C 0.60103 0.56308 0.11485 0.0
H6765 H 0.62517 0.55712 0.10796 0.0
H6766 H 0.61364 0.55593 0.1224 0.0
S6767 S 0.5892 0.57567 0.09286 0.0
N6768 N 0.60077 0.57297 0.08903 0.0
N6769 N 0.5884 0.57144 0.10459 0.0
C6770 C 0.5978 0.5675 0.1058 0.0
C6771 C 0.60451 0.56828 0.09738 0.0
C6772 C 0.69286 0.36654 0.35383 0.0
C6773 C 0.68317 0.36287 0.35623 0.0
C6774 C 0.70042 0.36727 0.36121 0.0
C6775 C 0.69859 0.3643 0.37127 0.0
H6776 H 0.69445 0.36942 0.34631 0.0
H6777 H 0.70752 0.37076 0.35913 0.0
S6778 S 0.67513 0.35235 0.38094 0.0
N6779 N 0.67258 0.355 0.369 0.0
N6780 N 0.68684 0.35619 0.38287 0.0
C6781 C 0.68918 0.35988 0.37357 0.0
C6782 C 0.68146 0.35923 0.36606 0.0
C6783 C 0.10754 0.95128 0.90925 0.0
C6784 C 0.11607 0.94487 0.90943 0.0
C6785 C 0.10086 0.95137 0.90095 0.0
C6786 C 0.10249 0.94515 0.89242 0.0
H6787 H 0.10601 0.95627 0.91557 0.0
H6788 H 0.09432 0.95628 0.9013 0.0
S6789 S 0.12379 0.92695 0.88926 0.0
N6790 N 0.12537 0.93169 0.90067 0.0
N6791 N 0.11382 0.9328 0.88462 0.0
C6792 C 0.11115 0.93887 0.89249 0.0
C6793 C 0.11766 0.9385 0.90109 0.0
C6794 C 0.32616 0.86143 0.14295 0.0
C6795 C 0.33637 0.85866 0.14176 0.0
C6796 C 0.3194 0.86096 0.1348 0.0
C6797 C 0.32265 0.85771 0.12523 0.0
H6798 H 0.32348 0.86439 0.15011 0.0
H6799 H 0.31173 0.86362 0.13586 0.0
S6800 S 0.34812 0.84826 0.11854 0.0
N6801 N 0.34906 0.85151 0.13058 0.0
N6802 N 0.33636 0.85079 0.1152 0.0
C6803 C 0.33266 0.85443 0.12407 0.0
C6804 C 0.33953 0.85487 0.13236 0.0
C6805 C 0.19034 0.15336 0.65241 0.0
C6806 C 0.18241 0.14629 0.65348 0.0
C6807 C 0.19779 0.1522 0.64487 0.0
C6808 C 0.19761 0.14388 0.63822 0.0
H6809 H 0.1908 0.15981 0.65746 0.0
H6810 H 0.20369 0.15785 0.64423 0.0
S6811 S 0.17915 0.12264 0.63873 0.0
N6812 N 0.17525 0.13042 0.64767 0.0
N6813 N 0.18932 0.12799 0.63394 0.0
C6814 C 0.18986 0.13665 0.63947 0.0
C6815 C 0.18224 0.13793 0.64695 0.0
C6816 C 0.09867 0.17463 0.34967 0.0
C6817 C 0.10261 0.16479 0.3509 0.0
C6818 C 0.10477 0.18274 0.34651 0.0
C6819 C 0.11509 0.18137 0.3443 0.0
H6820 H 0.09088 0.1762 0.35163 0.0
H6821 H 0.10144 0.19022 0.34634 0.0
S6822 S 0.12858 0.15662 0.3443 0.0
N6823 N 0.11715 0.15387 0.34847 0.0
N6824 N 0.12851 0.16891 0.34201 0.0
C6825 C 0.11891 0.17136 0.34472 0.0
C6826 C 0.11273 0.16315 0.34816 0.0
C6827 C 0.07888 0.87024 0.61603 0.0
C6828 C 0.08339 0.86503 0.60794 0.0
C6829 C 0.06975 0.87537 0.61481 0.0
C6830 C 0.06475 0.87567 0.60541 0.0
H6831 H 0.08226 0.87009 0.62349 0.0
H6832 H 0.06652 0.87905 0.62138 0.0
S6833 S 0.0735 0.86356 0.58166 0.0
N6834 N 0.08224 0.8606 0.59008 0.0
N6835 N 0.06507 0.87046 0.58777 0.0
C6836 C 0.06915 0.87054 0.5972 0.0
C6837 C 0.07848 0.86521 0.59846 0.0
C6838 C 0.42358 0.82441 0.8733 0.0
C6839 C 0.42204 0.82283 0.88374 0.0
C6840 C 0.41715 0.82006 0.8661 0.0
C6841 C 0.40903 0.81395 0.86909 0.0
H6842 H 0.42959 0.82932 0.87069 0.0
H6843 H 0.41837 0.82168 0.85815 0.0
S6844 S 0.40206 0.80684 0.89525 0.0
N6845 N 0.41205 0.81421 0.89659 0.0
N6846 N 0.39991 0.80617 0.88295 0.0
C6847 C 0.40753 0.81207 0.87941 0.0
C6848 C 0.41405 0.81649 0.88676 0.0
C6849 C 0.42395 0.14659 0.10863 0.0
C6850 C 0.42395 0.15618 0.11328 0.0
C6851 C 0.43295 0.14143 0.10666 0.0
C6852 C 0.44235 0.14572 0.1091 0.0
H6853 H 0.41689 0.14278 0.10697 0.0
H6854 H 0.43255 0.13383 0.10358 0.0
S6855 S 0.44671 0.1712 0.11997 0.0
N6856 N 0.4343 0.17017 0.11933 0.0
N6857 N 0.45125 0.16052 0.11535 0.0
C6858 C 0.44256 0.15564 0.11291 0.0
C6859 C 0.43335 0.16088 0.11504 0.0
C6860 C 0.10981 0.84644 0.16446 0.0
C6861 C 0.10138 0.84485 0.15818 0.0
C6862 C 0.1157 0.83823 0.16784 0.0
C6863 C 0.1133 0.82821 0.16509 0.0
H6864 H 0.11189 0.85405 0.16669 0.0
H6865 H 0.12231 0.83973 0.17243 0.0
S6866 S 0.09245 0.82015 0.14828 0.0
N6867 N 0.0912 0.83256 0.14907 0.0
N6868 N 0.10225 0.81723 0.15543 0.0
C6869 C 0.10489 0.82656 0.15888 0.0
C6870 C 0.09894 0.83486 0.15542 0.0
C6871 C 0.42817 0.8616 0.38851 0.0
C6872 C 0.42289 0.85632 0.39606 0.0
C6873 C 0.43689 0.86707 0.39077 0.0
C6874 C 0.44073 0.86756 0.40069 0.0
H6875 H 0.42572 0.86129 0.38069 0.0
H6876 H 0.44077 0.87086 0.38461 0.0
S6877 S 0.42969 0.85533 0.42334 0.0
N6878 N 0.42205 0.85208 0.414 0.0
N6879 N 0.4386 0.8624 0.41818 0.0
C6880 C 0.4356 0.86232 0.40835 0.0
C6881 C 0.42663 0.85673 0.40606 0.0
C6882 C 0.4252 0.19184 0.63283 0.0
C6883 C 0.42181 0.18525 0.62518 0.0
C6884 C 0.41847 0.19601 0.63991 0.0
C6885 C 0.40806 0.19385 0.63956 0.0
H6886 H 0.43313 0.1938 0.63337 0.0
H6887 H 0.4215 0.20084 0.64581 0.0
S6888 S 0.39534 0.17698 0.62099 0.0
N6889 N 0.40741 0.17637 0.618 0.0
N6890 N 0.39467 0.18497 0.63055 0.0
C6891 C 0.40456 0.18741 0.63181 0.0
C6892 C 0.41145 0.18293 0.62482 0.0
C6893 C 0.08292 0.13479 0.90366 0.0
C6894 C 0.08291 0.14536 0.90253 0.0
C6895 C 0.07393 0.12947 0.90541 0.0
C6896 C 0.06452 0.13448 0.9059 0.0
H6897 H 0.08991 0.13057 0.90301 0.0
H6898 H 0.07431 0.1213 0.90605 0.0
S6899 S 0.0605 0.16223 0.90397 0.0
N6900 N 0.0728 0.16075 0.90261 0.0
N6901 N 0.05589 0.15074 0.9056 0.0
C6902 C 0.06448 0.14511 0.90524 0.0
C6903 C 0.07366 0.15054 0.90359 0.0
C6904 C 0.39048 0.08271 0.20876 0.0
C6905 C 0.39843 0.08579 0.20236 0.0
C6906 C 0.38354 0.08976 0.21266 0.0
C6907 C 0.38431 0.10008 0.2102 0.0
H6908 H 0.38959 0.07481 0.21076 0.0
H6909 H 0.37744 0.08713 0.21744 0.0
S6910 S 0.40379 0.11215 0.19407 0.0
N6911 N 0.40653 0.09996 0.19377 0.0
N6912 N 0.39385 0.11315 0.20151 0.0
C6913 C 0.39234 0.10328 0.20405 0.0
C6914 C 0.3993 0.09615 0.20001 0.0
C6915 C 0.17296 0.13083 0.44527 0.0
C6916 C 0.17375 0.13273 0.43487 0.0
C6917 C 0.16642 0.12329 0.44891 0.0
C6918 C 0.16053 0.11737 0.44225 0.0
H6919 H 0.17713 0.13542 0.45062 0.0
H6920 H 0.16569 0.12238 0.45703 0.0
S6921 S 0.16067 0.11909 0.4142 0.0
N6922 N 0.16852 0.12806 0.41793 0.0
N6923 N 0.15666 0.11353 0.42464 0.0
C6924 C 0.16165 0.11899 0.43178 0.0
C6925 C 0.16815 0.12677 0.42813 0.0
C6926 C 0.10736 0.9238 0.70396 0.0
C6927 C 0.11025 0.93302 0.69945 0.0
C6928 C 0.11455 0.91706 0.7078 0.0
C6929 C 0.12489 0.91929 0.7073 0.0
H6930 H 0.09947 0.92165 0.7043 0.0
H6931 H 0.11203 0.90984 0.71078 0.0
S6932 S 0.13654 0.94257 0.69704 0.0
N6933 N 0.1243 0.9442 0.69525 0.0
N6934 N 0.13776 0.93143 0.70257 0.0
C6935 C 0.12793 0.9286 0.70324 0.0
C6936 C 0.12061 0.93551 0.69933 0.0
C6937 C 0.34779 0.90912 0.92461 0.0
C6938 C 0.35122 0.90957 0.91453 0.0
C6939 C 0.3538 0.91249 0.93268 0.0
C6940 C 0.36346 0.91662 0.93102 0.0
H6941 H 0.34054 0.90572 0.92632 0.0
H6942 H 0.35103 0.91131 0.9403 0.0
S6943 S 0.37512 0.92124 0.90581 0.0
N6944 N 0.36439 0.91542 0.9032 0.0
N6945 N 0.37548 0.92236 0.91825 0.0
C6946 C 0.36663 0.91783 0.92086 0.0
C6947 C 0.3606 0.91414 0.91267 0.0
C6948 C 0.38736 0.92599 0.30991 0.0
C6949 C 0.39687 0.92759 0.30545 0.0
C6950 C 0.38062 0.9188 0.30595 0.0
C6951 C 0.38317 0.91295 0.2974 0.0
H6952 H 0.38536 0.92989 0.31684 0.0
H6953 H 0.37353 0.91755 0.30983 0.0
S6954 S 0.40688 0.91501 0.28249 0.0
N6955 N 0.40814 0.92347 0.29158 0.0
N6956 N 0.39575 0.90971 0.28433 0.0
C6957 C 0.39246 0.91491 0.29258 0.0
C6958 C 0.39924 0.92228 0.29656 0.0
C6959 C 0.3491 0.10269 0.58458 0.0
C6960 C 0.3512 0.09953 0.59452 0.0
C6961 C 0.35488 0.09926 0.57638 0.0
C6962 C 0.36297 0.09252 0.57781 0.0
H6963 H 0.34319 0.10819 0.58318 0.0
H6964 H 0.35335 0.10233 0.56893 0.0
S6965 S 0.37097 0.08117 0.60218 0.0
N6966 N 0.36151 0.08873 0.60526 0.0
N6967 N 0.37237 0.08226 0.5898 0.0
C6968 C 0.36491 0.08898 0.58766 0.0
C6969 C 0.35905 0.09251 0.59603 0.0
C6970 C 0.10825 0.08361 0.80259 0.0
C6971 C 0.11062 0.07607 0.80977 0.0
C6972 C 0.11555 0.09049 0.79919 0.0
C6973 C 0.12551 0.0901 0.80281 0.0
H6974 H 0.10058 0.08446 0.79987 0.0
H6975 H 0.11323 0.0965 0.79411 0.0
S6976 S 0.13601 0.07122 0.82067 0.0
N6977 N 0.12395 0.06819 0.81974 0.0
N6978 N 0.13767 0.08109 0.81317 0.0
C6979 C 0.12816 0.08226 0.80948 0.0
C6980 C 0.12073 0.07523 0.81296 0.0
C6981 C 0.1631 0.87465 0.07218 0.0
C6982 C 0.17317 0.87712 0.07448 0.0
C6983 C 0.15654 0.88186 0.06801 0.0
C6984 C 0.15981 0.89179 0.06594 0.0
H6985 H 0.16026 0.86709 0.07356 0.0
H6986 H 0.14883 0.87964 0.06638 0.0
S6987 S 0.18526 0.90226 0.07074 0.0
N6988 N 0.18598 0.89038 0.07458 0.0
N6989 N 0.17363 0.90378 0.06651 0.0
C6990 C 0.16984 0.89435 0.06806 0.0
C6991 C 0.17652 0.88706 0.0724 0.0
C6992 C 0.18274 0.36262 0.10092 0.0
C6993 C 0.17324 0.36263 0.10566 0.0
C6994 C 0.19147 0.35997 0.1063 0.0
C6995 C 0.19095 0.35717 0.11656 0.0
H6996 H 0.18352 0.3653 0.09321 0.0
H6997 H 0.19871 0.36079 0.10257 0.0
S6998 S 0.16763 0.35421 0.13182 0.0
N6999 N 0.16364 0.35848 0.12077 0.0
N7000 N 0.18 0.35312 0.13077 0.0
C7001 C 0.18138 0.35632 0.12109 0.0
C7002 C 0.17254 0.35917 0.11568 0.0
C7003 C 0.67815 0.15593 0.90593 0.0
C7004 C 0.67256 0.1469 0.90478 0.0
C7005 C 0.68694 0.15776 0.90018 0.0
C7006 C 0.69054 0.15052 0.89324 0.0
H7007 H 0.67572 0.16159 0.91134 0.0
H7008 H 0.69092 0.16485 0.90116 0.0
S7009 S 0.67956 0.12496 0.88883 0.0
N7010 N 0.67166 0.13043 0.89676 0.0
N7011 N 0.68852 0.13339 0.88682 0.0
C7012 C 0.68523 0.14129 0.89247 0.0
C7013 C 0.67615 0.13961 0.89799 0.0
C7014 C 0.13694 0.45362 0.1777 0.0
C7015 C 0.14734 0.45374 0.17538 0.0
C7016 C 0.12983 0.45783 0.17105 0.0
C7017 C 0.13294 0.46246 0.16203 0.0
H7018 H 0.13426 0.44981 0.18444 0.0
H7019 H 0.12186 0.45719 0.17281 0.0
S7020 S 0.15919 0.46534 0.15276 0.0
N7021 N 0.16034 0.45941 0.16369 0.0
N7022 N 0.14697 0.46721 0.15119 0.0
C7023 C 0.14329 0.463 0.15983 0.0
C7024 C 0.1505 0.45868 0.16652 0.0
C7025 C 0.82833 0.8493 0.39393 0.0
C7026 C 0.83336 0.85872 0.3937 0.0
C7027 C 0.81915 0.84783 0.38877 0.0
C7028 C 0.81466 0.85576 0.38327 0.0
H7029 H 0.83152 0.84303 0.39814 0.0
H7030 H 0.81559 0.84045 0.38901 0.0
S7031 S 0.82417 0.88216 0.38128 0.0
N7032 N 0.83278 0.87621 0.38807 0.0
N7033 N 0.81552 0.87358 0.37863 0.0
C7034 C 0.81949 0.86526 0.38323 0.0
C7035 C 0.82884 0.86671 0.38835 0.0
C7036 C 0.85986 0.06438 0.17223 0.0
C7037 C 0.85984 0.06076 0.18223 0.0
C7038 C 0.86703 0.06111 0.16525 0.0
C7039 C 0.8746 0.05416 0.16798 0.0
H7040 H 0.85441 0.06998 0.16977 0.0
H7041 H 0.86668 0.06412 0.15763 0.0
S7042 S 0.8779 0.04221 0.1931 0.0
N7043 N 0.86791 0.04958 0.19447 0.0
N7044 N 0.88167 0.04363 0.18126 0.0
C7045 C 0.87467 0.05036 0.17789 0.0
C7046 C 0.86727 0.05366 0.18505 0.0
C7047 C 0.32422 0.65259 0.61064 0.0
C7048 C 0.33368 0.65215 0.61548 0.0
C7049 C 0.31536 0.65429 0.61613 0.0
C7050 C 0.3156 0.65572 0.62668 0.0
H7051 H 0.32361 0.65117 0.60259 0.0
H7052 H 0.30824 0.65399 0.61211 0.0
S7053 S 0.33863 0.65693 0.64265 0.0
N7054 N 0.3429 0.65427 0.63121 0.0
N7055 N 0.32625 0.65786 0.64154 0.0
C7056 C 0.32509 0.65593 0.63151 0.0
C7057 C 0.33411 0.65403 0.62592 0.0
C7058 C 0.14875 0.54669 0.33696 0.0
C7059 C 0.14724 0.55618 0.33246 0.0
C7060 C 0.14176 0.54283 0.34392 0.0
C7061 C 0.13302 0.54833 0.3466 0.0
H7062 H 0.15556 0.54243 0.33538 0.0
H7063 H 0.14361 0.53577 0.34765 0.0
S7064 S 0.12536 0.57324 0.33591 0.0
N7065 N 0.1364 0.57084 0.33065 0.0
N7066 N 0.12281 0.56334 0.34309 0.0
C7067 C 0.13117 0.55757 0.34154 0.0
C7068 C 0.13841 0.56157 0.33465 0.0
C7069 C 0.35741 0.45156 0.83692 0.0
C7070 C 0.36009 0.44866 0.82702 0.0
C7071 C 0.36465 0.45508 0.84374 0.0
C7072 C 0.3748 0.45597 0.84089 0.0
H7073 H 0.34967 0.45094 0.83949 0.0
H7074 H 0.36233 0.45693 0.85139 0.0
S7075 S 0.38582 0.45032 0.81583 0.0
N7076 N 0.37374 0.44744 0.81463 0.0
N7077 N 0.38725 0.4544 0.82755 0.0
C7078 C 0.3776 0.45359 0.83097 0.0
C7079 C 0.37026 0.4499 0.82399 0.0
C7080 C 0.91588 0.80965 0.62817 0.0
C7081 C 0.91619 0.80868 0.61756 0.0
C7082 C 0.90846 0.80464 0.63386 0.0
C7083 C 0.90129 0.79847 0.62906 0.0
H7084 H 0.92106 0.81471 0.632 0.0
H7085 H 0.90805 0.80592 0.64194 0.0
S7086 S 0.89966 0.79248 0.60177 0.0
N7087 N 0.9093 0.80035 0.60269 0.0
N7088 N 0.89537 0.79097 0.6134 0.0
C7089 C 0.9019 0.79698 0.61859 0.0
C7090 C 0.90937 0.80208 0.61282 0.0
C7091 C 0.94887 0.15936 0.35977 0.0
C7092 C 0.94447 0.16805 0.3641 0.0
C7093 C 0.95395 0.15221 0.36577 0.0
C7094 C 0.95475 0.15347 0.37629 0.0
H7095 H 0.94837 0.15809 0.35169 0.0
H7096 H 0.95706 0.14551 0.3622 0.0
S7097 S 0.94448 0.17468 0.39143 0.0
N7098 N 0.94126 0.1774 0.37966 0.0
N7099 N 0.95075 0.16389 0.39085 0.0
C7100 C 0.95047 0.16209 0.38073 0.0
C7101 C 0.94536 0.16941 0.37465 0.0
C7102 C 0.59072 0.20803 0.12759 0.0
C7103 C 0.58903 0.21004 0.11726 0.0
C7104 C 0.59828 0.21322 0.13295 0.0
C7105 C 0.60418 0.22065 0.12816 0.0
H7106 H 0.58667 0.20197 0.13133 0.0
H7107 H 0.59984 0.2111 0.14072 0.0
S7108 S 0.60225 0.22914 0.10156 0.0
N7109 N 0.59347 0.22034 0.10269 0.0
N7110 N 0.60759 0.23009 0.1128 0.0
C7111 C 0.60217 0.2231 0.11806 0.0
C7112 C 0.59459 0.21781 0.1126 0.0
C7113 C 0.57085 0.84216 0.86459 0.0
C7114 C 0.57182 0.83161 0.86576 0.0
C7115 C 0.56766 0.84833 0.87261 0.0
C7116 C 0.56525 0.84422 0.88215 0.0
H7117 H 0.57258 0.84571 0.8574 0.0
H7118 H 0.56712 0.85642 0.87135 0.0
S7119 S 0.56651 0.81719 0.88939 0.0
N7120 N 0.57017 0.81738 0.87744 0.0
N7121 N 0.56394 0.82904 0.89235 0.0
C7122 C 0.56594 0.83372 0.88342 0.0
C7123 C 0.56929 0.82741 0.87528 0.0
C7124 C 0.9163 0.20108 0.88064 0.0
C7125 C 0.91623 0.20144 0.89129 0.0
C7126 C 0.9088 0.20608 0.87497 0.0
C7127 C 0.90113 0.21157 0.87986 0.0
H7128 H 0.9218 0.19644 0.87672 0.0
H7129 H 0.9087 0.20526 0.86682 0.0
S7130 S 0.89821 0.21565 0.90741 0.0
N7131 N 0.90834 0.20843 0.90636 0.0
N7132 N 0.8943 0.21771 0.89573 0.0
C7133 C 0.90136 0.21246 0.89042 0.0
C7134 C 0.90892 0.20743 0.89613 0.0
C7135 C 0.56782 0.16842 0.64478 0.0
C7136 C 0.57225 0.17798 0.64329 0.0
C7137 C 0.56493 0.16241 0.63656 0.0
C7138 C 0.56632 0.16578 0.62658 0.0
H7139 H 0.56665 0.16552 0.65237 0.0
H7140 H 0.56165 0.15502 0.63799 0.0
S7141 S 0.57761 0.19005 0.61845 0.0
N7142 N 0.57801 0.19043 0.63094 0.0
N7143 N 0.57225 0.17914 0.61553 0.0
C7144 C 0.57053 0.17534 0.62493 0.0
C7145 C 0.57357 0.18145 0.63328 0.0
C7146 C 0.59623 0.79386 0.39713 0.0
C7147 C 0.5889 0.79973 0.39211 0.0
C7148 C 0.60368 0.78868 0.39177 0.0
C7149 C 0.60399 0.78904 0.38119 0.0
H7150 H 0.59654 0.79371 0.40532 0.0
H7151 H 0.60955 0.78478 0.39595 0.0
S7152 S 0.58581 0.80191 0.36428 0.0
N7153 N 0.58184 0.80468 0.37582 0.0
N7154 N 0.5959 0.79468 0.36572 0.0
C7155 C 0.59632 0.79416 0.37598 0.0
C7156 C 0.58871 0.79953 0.38145 0.0
C7157 C 0.9504 0.84959 0.14854 0.0
C7158 C 0.94548 0.84093 0.1447 0.0
C7159 C 0.95538 0.85641 0.14214 0.0
C7160 C 0.9557 0.85482 0.13165 0.0
H7161 H 0.95017 0.85129 0.15655 0.0
H7162 H 0.95867 0.86319 0.14537 0.0
S7163 S 0.9448 0.83317 0.11768 0.0
N7164 N 0.94178 0.83098 0.12962 0.0
N7165 N 0.95126 0.84387 0.11765 0.0
C7166 C 0.95124 0.84606 0.12769 0.0
C7167 C 0.94615 0.83907 0.13421 0.0
C7168 C 0.66625 0.90299 0.83861 0.0
C7169 C 0.65599 0.90508 0.84053 0.0
C7170 C 0.66916 0.89738 0.83002 0.0
C7171 C 0.66189 0.89384 0.82312 0.0
H7172 H 0.67201 0.90568 0.84377 0.0
H7173 H 0.67708 0.89571 0.82883 0.0
S7174 S 0.6343 0.89843 0.82418 0.0
N7175 N 0.63875 0.90387 0.8345 0.0
N7176 N 0.64418 0.89352 0.81836 0.0
C7177 C 0.65169 0.8962 0.82484 0.0
C7178 C 0.64875 0.90178 0.83355 0.0
C7179 C 0.8484 0.87059 0.55609 0.0
C7180 C 0.83886 0.86941 0.55173 0.0
C7181 C 0.85609 0.87576 0.55113 0.0
C7182 C 0.85461 0.8805 0.54162 0.0
H7183 H 0.85018 0.86692 0.56322 0.0
H7184 H 0.86333 0.87527 0.55479 0.0
S7185 S 0.82974 0.88173 0.5283 0.0
N7186 N 0.82761 0.87435 0.53815 0.0
N7187 N 0.84167 0.88526 0.52921 0.0
C7188 C 0.84458 0.88034 0.53775 0.0
C7189 C 0.8368 0.87459 0.54271 0.0
C7190 C 0.84328 0.1025 0.34573 0.0
C7191 C 0.85374 0.10069 0.34658 0.0
C7192 C 0.8394 0.10863 0.33791 0.0
C7193 C 0.84589 0.11301 0.33072 0.0
H7194 H 0.8381 0.09916 0.35113 0.0
H7195 H 0.83135 0.11003 0.33754 0.0
S7196 S 0.87361 0.10952 0.32895 0.0
N7197 N 0.87031 0.10311 0.33915 0.0
N7198 N 0.86307 0.11446 0.32447 0.0
C7199 C 0.85628 0.11097 0.33135 0.0
C7200 C 0.8602 0.10486 0.33929 0.0
C7201 C 0.65823 0.14676 0.05455 0.0
C7202 C 0.66648 0.14175 0.05895 0.0
C7203 C 0.65067 0.14138 0.0496 0.0
C7204 C 0.65111 0.1308 0.04883 0.0
H7205 H 0.6575 0.15492 0.05509 0.0
H7206 H 0.64428 0.14551 0.04656 0.0
S7207 S 0.67142 0.11406 0.05827 0.0
N7208 N 0.67494 0.12556 0.06172 0.0
N7209 N 0.66061 0.11546 0.05218 0.0
C7210 C 0.65951 0.12567 0.05269 0.0
C7211 C 0.66725 0.13115 0.05782 0.0
C7212 C 0.65606 0.10123 0.67868 0.0
C7213 C 0.65849 0.10427 0.66875 0.0
C7214 C 0.65902 0.10699 0.68707 0.0
C7215 C 0.66443 0.11606 0.68584 0.0
H7216 H 0.65134 0.09466 0.67998 0.0
H7217 H 0.65661 0.10463 0.69454 0.0
S7218 S 0.67406 0.12665 0.66183 0.0
N7219 N 0.6679 0.11633 0.65842 0.0
N7220 N 0.67295 0.12739 0.67425 0.0
C7221 C 0.66739 0.11895 0.67611 0.0
C7222 C 0.66457 0.11299 0.66755 0.0
C7223 C 0.66245 0.86583 0.45939 0.0
C7224 C 0.6681 0.86993 0.45134 0.0
C7225 C 0.65516 0.87158 0.46446 0.0
C7226 C 0.65323 0.88166 0.46169 0.0
H7227 H 0.66332 0.85793 0.46145 0.0
H7228 H 0.65057 0.86792 0.47018 0.0
S7229 S 0.66664 0.89639 0.44204 0.0
N7230 N 0.67188 0.88504 0.4415 0.0
N7231 N 0.65801 0.89582 0.45105 0.0
C7232 C 0.6592 0.88608 0.45412 0.0
C7233 C 0.66672 0.88024 0.44898 0.0
C7234 C 0.85929 0.90312 0.16753 0.0
C7235 C 0.8529 0.90952 0.16198 0.0
C7236 C 0.85554 0.89699 0.17526 0.0
C7237 C 0.8452 0.89685 0.17775 0.0
H7238 H 0.86735 0.90308 0.16613 0.0
H7239 H 0.86089 0.89247 0.17949 0.0
S7240 S 0.82516 0.91193 0.16531 0.0
N7241 N 0.83563 0.91527 0.15937 0.0
N7242 N 0.82855 0.90354 0.17394 0.0
C7243 C 0.83866 0.90316 0.17227 0.0
C7244 C 0.84251 0.90952 0.16436 0.0
C7245 C 0.84916 0.14426 0.95606 0.0
C7246 C 0.83907 0.14285 0.95898 0.0
C7247 C 0.857 0.13929 0.96095 0.0
C7248 C 0.8552 0.13223 0.96875 0.0
H7249 H 0.85107 0.14949 0.95004 0.0
H7250 H 0.86461 0.14118 0.95863 0.0
S7251 S 0.82999 0.12515 0.97878 0.0
N7252 N 0.82752 0.13374 0.97001 0.0
N7253 N 0.8424 0.12373 0.97887 0.0
C7254 C 0.84509 0.13043 0.97156 0.0
C7255 C 0.837 0.13578 0.96668 0.0
C7256 C 0.819 0.61464 0.91733 0.0
C7257 C 0.82192 0.6163 0.92744 0.0
C7258 C 0.81582 0.62268 0.91115 0.0
C7259 C 0.81537 0.63264 0.91488 0.0
H7260 H 0.81918 0.60708 0.91416 0.0
H7261 H 0.81376 0.62112 0.90337 0.0
S7262 S 0.82243 0.64122 0.94055 0.0
N7263 N 0.82442 0.62888 0.94072 0.0
N7264 N 0.8181 0.64383 0.92912 0.0
C7265 C 0.8181 0.63442 0.92494 0.0
C7266 C 0.82146 0.6263 0.93122 0.0
C7267 C 0.31724 0.89502 0.09176 0.0
C7268 C 0.32129 0.89343 0.08204 0.0
C7269 C 0.31406 0.88686 0.09774 0.0
C7270 C 0.31473 0.87687 0.09417 0.0
H7271 H 0.31662 0.90261 0.09481 0.0
H7272 H 0.31119 0.88835 0.10528 0.0
S7273 S 0.32487 0.86849 0.06951 0.0
N7274 N 0.32596 0.88094 0.06927 0.0
N7275 N 0.31966 0.86571 0.08051 0.0
C7276 C 0.31855 0.87514 0.08447 0.0
C7277 C 0.3219 0.8834 0.07839 0.0
C7278 C 0.90247 0.58865 0.86305 0.0
C7279 C 0.9077 0.59128 0.85422 0.0
C7280 C 0.90536 0.5803 0.86886 0.0
C7281 C 0.91386 0.57428 0.86634 0.0
H7282 H 0.89567 0.59268 0.86517 0.0
H7283 H 0.90046 0.57831 0.8751 0.0
S7284 S 0.93105 0.57904 0.8446 0.0
N7285 N 0.92225 0.58783 0.84355 0.0
N7286 N 0.92812 0.57248 0.85482 0.0
C7287 C 0.91955 0.57726 0.85781 0.0
C7288 C 0.9164 0.58567 0.85172 0.0
C7289 C 0.19111 0.11568 0.60067 0.0
C7290 C 0.19506 0.11477 0.59084 0.0
C7291 C 0.19578 0.12171 0.608 0.0
C7292 C 0.20452 0.12746 0.6059 0.0
H7293 H 0.1842 0.11185 0.60277 0.0
H7294 H 0.19242 0.12183 0.61544 0.0
S7295 S 0.21823 0.12776 0.58145 0.0
N7296 N 0.20878 0.11982 0.57956 0.0
N7297 N 0.21702 0.13181 0.5932 0.0
C7298 C 0.20865 0.12664 0.59614 0.0
C7299 C 0.20403 0.12023 0.58866 0.0
C7300 C 0.10349 0.92386 0.847 0.0
C7301 C 0.10078 0.91363 0.84813 0.0
C7302 C 0.09932 0.93135 0.85323 0.0
C7303 C 0.09231 0.92889 0.86083 0.0
H7304 H 0.10921 0.92605 0.84156 0.0
H7305 H 0.10197 0.93907 0.85241 0.0
S7306 S 0.08206 0.90344 0.86638 0.0
N7307 N 0.09012 0.90154 0.85702 0.0
N7308 N 0.08241 0.9157 0.86884 0.0
C7309 C 0.08929 0.91878 0.86187 0.0
C7310 C 0.0935 0.91113 0.85548 0.0
C7311 C 0.69226 0.38527 0.41652 0.0
C7312 C 0.69505 0.39547 0.41763 0.0
C7313 C 0.6971 0.37904 0.40942 0.0
C7314 C 0.70496 0.38279 0.4033 0.0
H7315 H 0.68608 0.3822 0.42093 0.0
H7316 H 0.69453 0.3713 0.40855 0.0
S7317 S 0.71536 0.40886 0.40382 0.0
N7318 N 0.70633 0.40896 0.41245 0.0
N7319 N 0.7155 0.39728 0.39911 0.0
C7320 C 0.70804 0.39289 0.40465 0.0
C7321 C 0.70304 0.39924 0.4118 0.0
C7322 C 0.90895 0.42812 0.65859 0.0
C7323 C 0.90768 0.4183 0.65465 0.0
C7324 C 0.91256 0.43607 0.6526 0.0
C7325 C 0.91513 0.43463 0.64235 0.0
H7326 H 0.90669 0.42986 0.66627 0.0
H7327 H 0.91272 0.44355 0.65597 0.0
S7328 S 0.91471 0.40998 0.62878 0.0
N7329 N 0.91025 0.40731 0.64013 0.0
N7330 N 0.91733 0.4222 0.62892 0.0
C7331 C 0.91449 0.42469 0.63847 0.0
C7332 C 0.91068 0.41657 0.64458 0.0
C7333 C 0.60777 0.59404 0.15099 0.0
C7334 C 0.60249 0.59702 0.15969 0.0
C7335 C 0.60412 0.58642 0.14468 0.0
C7336 C 0.59481 0.58156 0.14655 0.0
H7337 H 0.61504 0.59737 0.14922 0.0
H7338 H 0.60895 0.58412 0.1385 0.0
S7339 S 0.57761 0.58736 0.16805 0.0
N7340 N 0.58739 0.5949 0.16985 0.0
N7341 N 0.58004 0.58095 0.1576 0.0
C7342 C 0.58925 0.58474 0.15512 0.0
C7343 C 0.59319 0.59237 0.16175 0.0
C7344 C 0.61035 0.6682 0.85712 0.0
C7345 C 0.60249 0.66481 0.85085 0.0
C7346 C 0.61633 0.67651 0.85445 0.0
C7347 C 0.61492 0.68179 0.84527 0.0
H7348 H 0.61167 0.66468 0.8644 0.0
H7349 H 0.62198 0.67894 0.85985 0.0
S7350 S 0.59578 0.6756 0.82572 0.0
N7351 N 0.59382 0.66717 0.83475 0.0
N7352 N 0.60526 0.68271 0.82966 0.0
C7353 C 0.6072 0.6784 0.83879 0.0
C7354 C 0.60099 0.66993 0.84157 0.0
C7355 C 0.58258 0.37347 0.10176 0.0
C7356 C 0.58265 0.36477 0.10787 0.0
C7357 C 0.57354 0.37871 0.09992 0.0
C7358 C 0.56436 0.37535 0.10411 0.0
H7359 H 0.58955 0.37627 0.0985 0.0
H7360 H 0.57374 0.38556 0.09542 0.0
S7361 S 0.56074 0.35329 0.12101 0.0
N7362 N 0.5729 0.35318 0.11828 0.0
N7363 N 0.55595 0.36305 0.11484 0.0
C7364 C 0.56436 0.36662 0.11013 0.0
C7365 C 0.57351 0.36132 0.11201 0.0
C7366 C 0.92504 0.3237 0.37244 0.0
C7367 C 0.92282 0.32265 0.38282 0.0
C7368 C 0.9188 0.3194 0.36504 0.0
C7369 C 0.91022 0.31386 0.36781 0.0
H7370 H 0.93142 0.32822 0.37001 0.0
H7371 H 0.92049 0.32069 0.35712 0.0
S7372 S 0.90139 0.30826 0.3938 0.0
N7373 N 0.91169 0.31512 0.39541 0.0
N7374 N 0.89992 0.30715 0.38143 0.0
C7375 C 0.90806 0.31247 0.3781 0.0
C7376 C 0.91437 0.31684 0.38563 0.0
C7377 C 0.93189 0.65502 0.62053 0.0
C7378 C 0.92361 0.65502 0.6139 0.0
C7379 C 0.94084 0.65002 0.61798 0.0
C7380 C 0.94175 0.64487 0.60874 0.0
H7381 H 0.93139 0.65881 0.62778 0.0
H7382 H 0.94696 0.64985 0.62342 0.0
S7383 S 0.92237 0.6429 0.58867 0.0
N7384 N 0.91696 0.64984 0.59757 0.0
N7385 N 0.9338 0.64013 0.59289 0.0
C7386 C 0.93362 0.64499 0.60195 0.0
C7387 C 0.92453 0.65018 0.6045 0.0
C7388 C 0.59819 0.33506 0.65837 0.0
C7389 C 0.60185 0.34509 0.65834 0.0
C7390 C 0.60427 0.32691 0.66146 0.0
C7391 C 0.61425 0.32845 0.66476 0.0
H7392 H 0.59068 0.33342 0.65556 0.0
H7393 H 0.60127 0.31932 0.66077 0.0
S7394 S 0.62679 0.35345 0.66793 0.0
N7395 N 0.61567 0.35622 0.66299 0.0
N7396 N 0.627 0.34101 0.66917 0.0
C7397 C 0.61775 0.33854 0.66545 0.0
C7398 C 0.6116 0.34682 0.66214 0.0
C7399 C 0.92288 0.36636 0.89746 0.0
C7400 C 0.92306 0.35575 0.89688 0.0
C7401 C 0.93155 0.37187 0.90009 0.0
C7402 C 0.94092 0.36705 0.9019 0.0
H7403 H 0.91598 0.37046 0.8958 0.0
H7404 H 0.93091 0.38003 0.90047 0.0
S7405 S 0.94513 0.33914 0.9019 0.0
N7406 N 0.93309 0.3405 0.89902 0.0
N7407 N 0.94948 0.35074 0.90337 0.0
C7408 C 0.94104 0.35635 0.90172 0.0
C7409 C 0.93212 0.35075 0.89931 0.0
C7410 C 0.91206 0.6856 0.1265 0.0
C7411 C 0.92249 0.68766 0.12657 0.0
C7412 C 0.90552 0.68984 0.13361 0.0
C7413 C 0.90906 0.69603 0.14155 0.0
H7414 H 0.90882 0.68052 0.12094 0.0
H7415 H 0.89756 0.68815 0.13284 0.0
S7416 S 0.93568 0.70419 0.14507 0.0
N7417 N 0.93599 0.697 0.13485 0.0
N7418 N 0.92381 0.70418 0.14891 0.0
C7419 C 0.91948 0.69825 0.14173 0.0
C7420 C 0.92615 0.69418 0.13418 0.0
C7421 C 0.58029 0.63685 0.39538 0.0
C7422 C 0.5833 0.64439 0.4022 0.0
C7423 C 0.57121 0.63164 0.39665 0.0
C7424 C 0.56478 0.6334 0.40501 0.0
H7425 H 0.58469 0.63534 0.38864 0.0
H7426 H 0.5691 0.62646 0.39067 0.0
S7427 S 0.56977 0.65191 0.42564 0.0
N7428 N 0.57943 0.65323 0.41787 0.0
N7429 N 0.56263 0.64296 0.42066 0.0
C7430 C 0.56792 0.64071 0.41215 0.0
C7431 C 0.57711 0.64625 0.41068 0.0
C7432 C 0.90044 0.5935 0.70711 0.0
C7433 C 0.89737 0.58397 0.70345 0.0
C7434 C 0.89351 0.60024 0.71136 0.0
C7435 C 0.88329 0.59764 0.71225 0.0
H7436 H 0.90823 0.59591 0.70645 0.0
H7437 H 0.8961 0.60768 0.71366 0.0
S7438 S 0.87134 0.57351 0.70478 0.0
N7439 N 0.88332 0.57215 0.70157 0.0
N7440 N 0.87038 0.58491 0.70983 0.0
C7441 C 0.88012 0.58805 0.70913 0.0
C7442 C 0.88716 0.58115 0.70472 0.0
C7443 C 0.67517 0.62408 0.9384 0.0
C7444 C 0.67153 0.63378 0.93578 0.0
C7445 C 0.66885 0.61684 0.94288 0.0
C7446 C 0.65866 0.61902 0.94479 0.0
H7447 H 0.68289 0.62195 0.9367 0.0
H7448 H 0.67184 0.60938 0.94453 0.0
S7449 S 0.64571 0.64355 0.94062 0.0
N7450 N 0.65732 0.64543 0.93646 0.0
N7451 N 0.64538 0.6317 0.94458 0.0
C7452 C 0.65502 0.62877 0.94259 0.0
C7453 C 0.66146 0.63617 0.93814 0.0
C7454 C 0.61105 0.42347 0.19418 0.0
C7455 C 0.60973 0.43278 0.19913 0.0
C7456 C 0.6182 0.41649 0.19749 0.0
C7457 C 0.62457 0.41859 0.20576 0.0
H7458 H 0.60661 0.42156 0.18756 0.0
H7459 H 0.61872 0.40935 0.19349 0.0
S7460 S 0.62428 0.44184 0.22142 0.0
N7461 N 0.61525 0.44366 0.21298 0.0
N7462 N 0.62916 0.43062 0.21886 0.0
C7463 C 0.62339 0.42784 0.21083 0.0
C7464 C 0.61593 0.43495 0.20755 0.0
C7465 C 0.85348 0.41803 0.41698 0.0
C7466 C 0.85213 0.40768 0.41466 0.0
C7467 C 0.85921 0.42108 0.42546 0.0
C7468 C 0.86363 0.41386 0.43191 0.0
H7469 H 0.85022 0.42379 0.41214 0.0
H7470 H 0.86039 0.42908 0.42682 0.0
S7471 S 0.86146 0.38597 0.4298 0.0
N7472 N 0.85509 0.39034 0.42 0.0
N7473 N 0.86576 0.39604 0.4358 0.0
C7474 C 0.86204 0.40356 0.42984 0.0
C7475 C 0.85632 0.40048 0.42125 0.0
C7476 C 0.88698 0.42673 0.80702 0.0
C7477 C 0.89744 0.4248 0.80643 0.0
C7478 C 0.87996 0.42 0.80281 0.0
C7479 C 0.88321 0.41126 0.79773 0.0
H7480 H 0.8842 0.43327 0.81112 0.0
H7481 H 0.87196 0.42148 0.80372 0.0
S7482 S 0.90962 0.4031 0.79349 0.0
N7483 N 0.91062 0.4138 0.79986 0.0
N7484 N 0.89739 0.40114 0.79202 0.0
C7485 C 0.89359 0.40944 0.79676 0.0
C7486 C 0.90072 0.41622 0.80109 0.0
C7487 C 0.86141 0.60637 0.09247 0.0
C7488 C 0.85285 0.60069 0.09514 0.0
C7489 C 0.8674 0.60372 0.0842 0.0
C7490 C 0.86535 0.59508 0.07825 0.0
H7491 H 0.8633 0.61322 0.09654 0.0
H7492 H 0.87354 0.60879 0.08231 0.0
S7493 S 0.84408 0.5772 0.08249 0.0
N7494 N 0.84267 0.58585 0.0914 0.0
N7495 N 0.85423 0.58055 0.07604 0.0
C7496 C 0.8569 0.58916 0.08097 0.0
C7497 C 0.85062 0.59202 0.08936 0.0
C7498 C 0.61264 0.57761 0.3001 0.0
C7499 C 0.6103 0.57575 0.31024 0.0
C7500 C 0.62038 0.58441 0.29743 0.0
C7501 C 0.62605 0.58984 0.30479 0.0
H7502 H 0.60832 0.57395 0.29418 0.0
H7503 H 0.62165 0.5854 0.28944 0.0
S7504 S 0.62291 0.58613 0.33287 0.0
N7505 N 0.61442 0.57865 0.32773 0.0
N7506 N 0.62858 0.59159 0.32323 0.0
C7507 C 0.62383 0.58746 0.31514 0.0
C7508 C 0.61605 0.58042 0.31771 0.0
C7509 C 0.67518 0.38602 0.57059 0.0
C7510 C 0.67147 0.37631 0.57308 0.0
C7511 C 0.6689 0.39337 0.56616 0.0
C7512 C 0.65869 0.39129 0.56419 0.0
H7513 H 0.68286 0.3881 0.57247 0.0
H7514 H 0.67191 0.40085 0.56468 0.0
S7515 S 0.6456 0.36676 0.56781 0.0
N7516 N 0.65719 0.36474 0.57195 0.0
N7517 N 0.64536 0.37869 0.56408 0.0
C7518 C 0.65502 0.38152 0.56615 0.0
C7519 C 0.66141 0.37401 0.57048 0.0
C7520 C 0.67389 0.85762 0.6131 0.0
C7521 C 0.67427 0.86361 0.60427 0.0
C7522 C 0.68267 0.85529 0.61855 0.0
C7523 C 0.69215 0.85873 0.61528 0.0
H7524 H 0.66669 0.85509 0.61606 0.0
H7525 H 0.68201 0.85107 0.62555 0.0
S7526 S 0.69739 0.87441 0.59264 0.0
N7527 N 0.68503 0.87277 0.59249 0.0
N7528 N 0.70153 0.86814 0.60262 0.0
C7529 C 0.69273 0.86429 0.60624 0.0
C7530 C 0.68379 0.86676 0.60074 0.0
C7531 C 0.17335 0.64932 0.39424 0.0
C7532 C 0.17368 0.64609 0.40435 0.0
C7533 C 0.18223 0.6516 0.38896 0.0
C7534 C 0.1918 0.65056 0.39354 0.0
H7535 H 0.16619 0.64991 0.39032 0.0
H7536 H 0.18161 0.65395 0.38113 0.0
S7537 S 0.19664 0.6425 0.42003 0.0
N7538 N 0.18424 0.64229 0.41891 0.0
N7539 N 0.20096 0.64622 0.40893 0.0
C7540 C 0.19218 0.64763 0.40378 0.0
C7541 C 0.18312 0.64547 0.40919 0.0
C7542 C 0.63964 0.95979 0.6781 0.0
C7543 C 0.64789 0.95376 0.67501 0.0
C7544 C 0.63267 0.96363 0.671 0.0
C7545 C 0.63378 0.96154 0.66064 0.0
H7546 H 0.63851 0.96148 0.68604 0.0
H7547 H 0.6263 0.96806 0.67363 0.0
S7548 S 0.65411 0.94646 0.64859 0.0
N7549 N 0.65652 0.94581 0.66081 0.0
N7550 N 0.64403 0.95373 0.64759 0.0
C7551 C 0.64216 0.95585 0.65747 0.0
C7552 C 0.64905 0.95177 0.66462 0.0
C7553 C 0.33339 0.35602 0.88404 0.0
C7554 C 0.33343 0.35683 0.89464 0.0
C7555 C 0.3244 0.35423 0.87872 0.0
C7556 C 0.31501 0.35345 0.88374 0.0
H7557 H 0.34036 0.3569 0.87983 0.0
H7558 H 0.3248 0.35372 0.87055 0.0
S7559 S 0.31117 0.35468 0.9116 0.0
N7560 N 0.32343 0.35621 0.91005 0.0
N7561 N 0.30653 0.35332 0.9001 0.0
C7562 C 0.31505 0.3539 0.8944 0.0
C7563 C 0.32423 0.35551 0.89982 0.0
C7564 C 0.35715 0.55581 0.67374 0.0
C7565 C 0.36013 0.56078 0.68267 0.0
C7566 C 0.36431 0.55218 0.66684 0.0
C7567 C 0.37467 0.55342 0.66864 0.0
H7568 H 0.34922 0.55492 0.67195 0.0
H7569 H 0.36172 0.54874 0.65986 0.0
S7570 S 0.38655 0.56527 0.69103 0.0
N7571 N 0.37429 0.56631 0.6931 0.0
N7572 N 0.38769 0.55942 0.68004 0.0
C7573 C 0.37781 0.558 0.67765 0.0
C7574 C 0.37055 0.56167 0.68472 0.0
C7575 C 0.82429 0.15278 0.11049 0.0
C7576 C 0.83358 0.15313 0.11565 0.0
C7577 C 0.81517 0.15437 0.11562 0.0
C7578 C 0.81507 0.15641 0.12606 0.0
H7579 H 0.82402 0.15064 0.10258 0.0
H7580 H 0.80817 0.15338 0.11151 0.0
S7581 S 0.83745 0.15994 0.14258 0.0
N7582 N 0.8422 0.15686 0.13145 0.0
N7583 N 0.82508 0.16013 0.14105 0.0
C7584 C 0.82435 0.15759 0.1311 0.0
C7585 C 0.8336 0.15587 0.12591 0.0
C7586 C 0.65111 0.05099 0.84192 0.0
C7587 C 0.64777 0.05649 0.83342 0.0
C7588 C 0.64425 0.04664 0.84868 0.0
C7589 C 0.63381 0.04763 0.8472 0.0
H7590 H 0.6591 0.05026 0.8435 0.0
H7591 H 0.64713 0.04284 0.85535 0.0
S7592 S 0.62105 0.06052 0.8259 0.0
N7593 N 0.63321 0.0622 0.82369 0.0
N7594 N 0.62035 0.05387 0.83646 0.0
C7595 C 0.63032 0.0527 0.83858 0.0
C7596 C 0.63729 0.05714 0.83165 0.0
C7597 C 0.85669 0.9524 0.33714 0.0
C7598 C 0.85953 0.94958 0.32726 0.0
C7599 C 0.86376 0.9562 0.34401 0.0
C7600 C 0.8739 0.95742 0.34123 0.0
H7601 H 0.84896 0.95149 0.33967 0.0
H7602 H 0.86137 0.95786 0.35168 0.0
S7603 S 0.88534 0.95184 0.31634 0.0
N7604 N 0.87334 0.94867 0.31503 0.0
N7605 N 0.88651 0.95605 0.32804 0.0
C7606 C 0.87685 0.95506 0.33135 0.0
C7607 C 0.86968 0.95112 0.32432 0.0
C7608 C 0.40724 0.31326 0.11957 0.0
C7609 C 0.41712 0.3096 0.11996 0.0
C7610 C 0.3996 0.30893 0.12528 0.0
C7611 C 0.4013 0.30075 0.13199 0.0
H7612 H 0.40527 0.31948 0.11458 0.0
H7613 H 0.39224 0.31202 0.12394 0.0
S7614 S 0.42663 0.28958 0.13716 0.0
N7615 N 0.42875 0.29803 0.12819 0.0
N7616 N 0.41443 0.29023 0.13965 0.0
C7617 C 0.41145 0.29749 0.13303 0.0
C7618 C 0.41931 0.30186 0.12692 0.0
C7619 C 0.44096 0.66667 0.87496 0.0
C7620 C 0.44434 0.66815 0.86499 0.0
C7621 C 0.44586 0.65982 0.88141 0.0
C7622 C 0.45437 0.65436 0.87812 0.0
H7623 H 0.43434 0.67066 0.87769 0.0
H7624 H 0.44286 0.65861 0.88895 0.0
S7625 S 0.46631 0.65593 0.85277 0.0
N7626 N 0.45677 0.66397 0.8522 0.0
N7627 N 0.46604 0.65107 0.86428 0.0
C7628 C 0.45797 0.65605 0.86824 0.0
C7629 C 0.45293 0.66295 0.86168 0.0
C7630 C 0.08928 0.7108 0.6274 0.0
C7631 C 0.091 0.70848 0.61711 0.0
C7632 C 0.09649 0.71611 0.63309 0.0
C7633 C 0.10557 0.71921 0.62861 0.0
H7634 H 0.08245 0.70825 0.63112 0.0
H7635 H 0.09509 0.71759 0.64102 0.0
S7636 S 0.11317 0.71611 0.6018 0.0
N7637 N 0.10203 0.71056 0.60256 0.0
N7638 N 0.11564 0.72035 0.61329 0.0
C7639 C 0.1072 0.71729 0.61829 0.0
C7640 C 0.09989 0.71196 0.61253 0.0
C7641 C 0.07774 0.33364 0.37411 0.0
C7642 C 0.07184 0.33269 0.36533 0.0
C7643 C 0.07451 0.3396 0.38228 0.0
C7644 C 0.06519 0.34471 0.38201 0.0
H7645 H 0.08492 0.32975 0.37466 0.0
H7646 H 0.07934 0.34024 0.38886 0.0
S7647 S 0.04691 0.34456 0.36077 0.0
N7648 N 0.05622 0.33721 0.35684 0.0
N7649 N 0.05011 0.34845 0.37221 0.0
C7650 C 0.05915 0.34371 0.37331 0.0
C7651 C 0.06248 0.33768 0.36497 0.0
C7652 C 0.41246 0.69511 0.38207 0.0
C7653 C 0.41897 0.70061 0.38841 0.0
C7654 C 0.4048 0.69997 0.37662 0.0
C7655 C 0.40325 0.71048 0.37746 0.0
H7656 H 0.41287 0.68692 0.38187 0.0
H7657 H 0.3996 0.69536 0.37227 0.0
S7658 S 0.41904 0.72835 0.39232 0.0
N7659 N 0.42409 0.71712 0.39452 0.0
N7660 N 0.40953 0.72634 0.38449 0.0
C7661 C 0.41023 0.71615 0.38319 0.0
C7662 C 0.4181 0.71118 0.38866 0.0
C7663 C 0.07106 0.68021 0.13379 0.0
C7664 C 0.07065 0.67658 0.14383 0.0
C7665 C 0.06764 0.67432 0.12564 0.0
C7666 C 0.06371 0.6646 0.12725 0.0
H7667 H 0.07436 0.68754 0.13216 0.0
H7668 H 0.0684 0.67723 0.11801 0.0
S7669 S 0.06009 0.65187 0.15195 0.0
N7670 N 0.06523 0.66289 0.15487 0.0
N7671 N 0.05908 0.65174 0.1395 0.0
C7672 C 0.06298 0.66098 0.13721 0.0
C7673 C 0.06638 0.66698 0.14551 0.0
C7674 C 0.09335 0.29203 0.89536 0.0
C7675 C 0.08818 0.30029 0.89108 0.0
C7676 C 0.10087 0.28692 0.88998 0.0
C7677 C 0.1035 0.28992 0.88014 0.0
H7678 H 0.09197 0.28987 0.90315 0.0
H7679 H 0.10508 0.28099 0.89376 0.0
S7680 S 0.09143 0.31014 0.865 0.0
N7681 N 0.08553 0.31056 0.87602 0.0
N7682 N 0.09982 0.30091 0.86591 0.0
C7683 C 0.09798 0.29769 0.87549 0.0
C7684 C 0.09022 0.30286 0.88095 0.0
C7685 C 0.44838 0.34966 0.64981 0.0
C7686 C 0.44359 0.34121 0.64546 0.0
C7687 C 0.45331 0.35687 0.64378 0.0
C7688 C 0.45354 0.35591 0.6332 0.0
H7689 H 0.44828 0.35073 0.65794 0.0
H7690 H 0.45676 0.36338 0.64737 0.0
S7691 S 0.44239 0.33521 0.61801 0.0
N7692 N 0.4396 0.33226 0.62984 0.0
N7693 N 0.44883 0.3459 0.61856 0.0
C7694 C 0.44897 0.34746 0.62873 0.0
C7695 C 0.44402 0.34007 0.63485 0.0
C7696 C 0.15185 0.39613 0.33875 0.0
C7697 C 0.15723 0.4049 0.3413 0.0
C7698 C 0.15455 0.39028 0.33035 0.0
C7699 C 0.16299 0.39269 0.32423 0.0
H7700 H 0.14506 0.39412 0.34285 0.0
H7701 H 0.1495 0.38415 0.32842 0.0
S7702 S 0.18069 0.41407 0.32898 0.0
N7703 N 0.17193 0.41531 0.33778 0.0
N7704 N 0.17755 0.40389 0.32246 0.0
C7705 C 0.16891 0.40107 0.32723 0.0
C7706 C 0.16593 0.40724 0.33564 0.0
C7707 C 0.3499 0.36741 0.05375 0.0
C7708 C 0.33975 0.36849 0.0509 0.0
C7709 C 0.35751 0.37279 0.04891 0.0
C7710 C 0.35536 0.37985 0.0412 0.0
H7711 H 0.35206 0.36223 0.05973 0.0
H7712 H 0.36519 0.37109 0.05112 0.0
S7713 S 0.32986 0.38608 0.03137 0.0
N7714 N 0.32781 0.37724 0.03998 0.0
N7715 N 0.34218 0.38804 0.03132 0.0
C7716 C 0.34518 0.38132 0.0385 0.0
C7717 C 0.33737 0.37556 0.04329 0.0
C7718 C 0.35033 0.59623 0.8365 0.0
C7719 C 0.35219 0.59981 0.84636 0.0
C7720 C 0.34625 0.60252 0.82902 0.0
C7721 C 0.3438 0.61268 0.83109 0.0
H7722 H 0.35247 0.5886 0.83438 0.0
H7723 H 0.34557 0.59953 0.82142 0.0
S7724 S 0.34559 0.62526 0.85617 0.0
N7725 N 0.35023 0.61381 0.85811 0.0
N7726 N 0.34233 0.62564 0.84412 0.0
C7727 C 0.345 0.61617 0.84111 0.0
C7728 C 0.34927 0.60976 0.84871 0.0
C7729 C 0.16641 0.63091 0.5592 0.0
C7730 C 0.16565 0.64155 0.55956 0.0
C7731 C 0.15894 0.62507 0.55441 0.0
C7732 C 0.15062 0.62979 0.54985 0.0
H7733 H 0.17259 0.62707 0.56296 0.0
H7734 H 0.15947 0.61689 0.55458 0.0
S7735 S 0.14594 0.65737 0.5475 0.0
N7736 N 0.15651 0.65652 0.55406 0.0
N7737 N 0.14252 0.6456 0.54508 0.0
C7738 C 0.15012 0.64041 0.54967 0.0
C7739 C 0.15763 0.64629 0.55453 0.0
C7740 C 0.16562 0.60552 0.17276 0.0
C7741 C 0.15559 0.60525 0.16917 0.0
C7742 C 0.16818 0.61108 0.1815 0.0
C7743 C 0.16077 0.61642 0.18695 0.0
H7744 H 0.17148 0.60139 0.16882 0.0
H7745 H 0.17599 0.61125 0.18395 0.0
S7746 S 0.13333 0.61715 0.18129 0.0
N7747 N 0.13821 0.61027 0.17209 0.0
N7748 N 0.14293 0.62044 0.18854 0.0
C7749 C 0.15072 0.61597 0.18354 0.0
C7750 C 0.14816 0.61047 0.17464 0.0
C7751 C 0.16456 0.37925 0.94663 0.0
C7752 C 0.16866 0.37058 0.95123 0.0
C7753 C 0.15695 0.38488 0.95145 0.0
C7754 C 0.15332 0.38208 0.96107 0.0
H7755 H 0.1667 0.38125 0.93898 0.0
H7756 H 0.15345 0.3911 0.9474 0.0
S7757 S 0.16211 0.36036 0.97649 0.0
N7758 N 0.16897 0.35977 0.96607 0.0
N7759 N 0.15478 0.37039 0.97519 0.0
C7760 C 0.15784 0.37381 0.96598 0.0
C7761 C 0.16548 0.36803 0.96104 0.0
C7762 C 0.35568 0.40116 0.66462 0.0
C7763 C 0.35109 0.4104 0.66227 0.0
C7764 C 0.35174 0.39482 0.67202 0.0
C7765 C 0.3429 0.39724 0.6775 0.0
H7766 H 0.36273 0.39898 0.66106 0.0
H7767 H 0.3561 0.38817 0.67362 0.0
S7768 S 0.32719 0.42017 0.67315 0.0
N7769 N 0.33678 0.42149 0.66527 0.0
N7770 N 0.32908 0.40934 0.67911 0.0
C7771 C 0.33791 0.40631 0.67486 0.0
C7772 C 0.34206 0.41291 0.66729 0.0
C7773 C 0.33957 0.63181 0.45907 0.0
C7774 C 0.33974 0.64248 0.45916 0.0
C7775 C 0.34694 0.62619 0.4643 0.0
C7776 C 0.35456 0.63113 0.4698 0.0
H7777 H 0.33408 0.62782 0.45448 0.0
H7778 H 0.34693 0.618 0.46374 0.0
S7779 S 0.35778 0.65878 0.47312 0.0
N7780 N 0.34772 0.65765 0.46584 0.0
N7781 N 0.36155 0.64711 0.47553 0.0
C7782 C 0.35447 0.64172 0.47036 0.0
C7783 C 0.34704 0.6474 0.46509 0.0
C7784 C 0.32847 0.12184 0.42213 0.0
C7785 C 0.3215 0.11607 0.42765 0.0
C7786 C 0.32538 0.13015 0.41631 0.0
C7787 C 0.31509 0.1329 0.41533 0.0
H7788 H 0.33646 0.12011 0.42254 0.0
H7789 H 0.33126 0.1345 0.41265 0.0
S7790 S 0.29378 0.12004 0.42852 0.0
N7791 N 0.30391 0.1138 0.43227 0.0
N7792 N 0.29791 0.12882 0.42067 0.0
C7793 C 0.30802 0.12712 0.4209 0.0
C7794 C 0.31126 0.11885 0.42716 0.0
C7795 C 0.81996 0.39505 0.59216 0.0
C7796 C 0.82154 0.39399 0.58168 0.0
C7797 C 0.81678 0.38687 0.59808 0.0
C7798 C 0.81494 0.37731 0.59376 0.0
H7799 H 0.82129 0.40224 0.59586 0.0
H7800 H 0.81587 0.38799 0.60615 0.0
S7801 S 0.81757 0.37041 0.56678 0.0
N7802 N 0.82087 0.38247 0.56725 0.0
N7803 N 0.81454 0.36723 0.57847 0.0
C7804 C 0.81608 0.37618 0.5833 0.0
C7805 C 0.81947 0.38448 0.57724 0.0
C7806 C 0.40719 0.08026 0.35063 0.0
C7807 C 0.40745 0.09019 0.35456 0.0
C7808 C 0.41041 0.07196 0.35636 0.0
C7809 C 0.41397 0.07319 0.36629 0.0
H7810 H 0.40411 0.07882 0.34318 0.0
H7811 H 0.40962 0.06445 0.35314 0.0
S7812 S 0.41748 0.0976 0.3797 0.0
N7813 N 0.41253 0.10083 0.36868 0.0
N7814 N 0.41846 0.08513 0.37953 0.0
C7815 C 0.41469 0.08308 0.37019 0.0
C7816 C 0.41145 0.09158 0.36432 0.0
C7817 C 0.69344 0.62525 0.09175 0.0
C7818 C 0.69509 0.61471 0.09186 0.0
C7819 C 0.69809 0.6316 0.09888 0.0
C7820 C 0.70474 0.62763 0.10616 0.0
H7821 H 0.68819 0.62853 0.08638 0.0
H7822 H 0.69629 0.6396 0.09888 0.0
S7823 S 0.71218 0.60076 0.10913 0.0
N7824 N 0.70418 0.60072 0.09953 0.0
N7825 N 0.71311 0.61269 0.11278 0.0
C7826 C 0.7068 0.61721 0.10605 0.0
C7827 C 0.70193 0.61073 0.09893 0.0
C7828 C 0.59336 0.41545 0.35032 0.0
C7829 C 0.60381 0.41363 0.34928 0.0
C7830 C 0.58974 0.42345 0.35639 0.0
C7831 C 0.5965 0.42992 0.36145 0.0
H7832 H 0.58798 0.41063 0.34646 0.0
H7833 H 0.58167 0.42447 0.35726 0.0
S7834 S 0.62447 0.42908 0.36017 0.0
N7835 N 0.62075 0.41939 0.35323 0.0
N7836 N 0.61403 0.43448 0.36434 0.0
C7837 C 0.60692 0.42836 0.36014 0.0
C7838 C 0.61055 0.4202 0.35415 0.0
C7839 C 0.19567 0.89824 0.90843 0.0
C7840 C 0.19344 0.89476 0.91825 0.0
C7841 C 0.20055 0.89201 0.90137 0.0
C7842 C 0.20346 0.88208 0.90386 0.0
H7843 H 0.19362 0.90585 0.90616 0.0
H7844 H 0.20196 0.89494 0.89384 0.0
S7845 S 0.19942 0.86913 0.92832 0.0
N7846 N 0.19449 0.8805 0.92996 0.0
N7847 N 0.20389 0.86897 0.91665 0.0
C7848 C 0.20148 0.8785 0.91361 0.0
C7849 C 0.19643 0.8848 0.92083 0.0
C7850 C 0.40982 0.91873 0.14525 0.0
C7851 C 0.40761 0.91977 0.1556 0.0
C7852 C 0.41298 0.92706 0.13944 0.0
C7853 C 0.41389 0.93682 0.1437 0.0
H7854 H 0.40897 0.91145 0.14157 0.0
H7855 H 0.41444 0.92588 0.13146 0.0
S7856 S 0.40923 0.94349 0.17063 0.0
N7857 N 0.40693 0.93124 0.16999 0.0
N7858 N 0.41252 0.94688 0.15909 0.0
C7859 C 0.41203 0.93786 0.15415 0.0
C7860 C 0.40895 0.92936 0.16008 0.0
C7861 C 0.10039 0.0867 0.66407 0.0
C7862 C 0.10136 0.0967 0.66052 0.0
C7863 C 0.09614 0.0791 0.65802 0.0
C7864 C 0.09262 0.08122 0.6482 0.0
H7865 H 0.1035 0.08457 0.67135 0.0
H7866 H 0.09628 0.0714 0.66083 0.0
S7867 S 0.09174 0.10658 0.63607 0.0
N7868 N 0.09737 0.10857 0.64704 0.0
N7869 N 0.08906 0.09437 0.63579 0.0
C7870 C 0.09279 0.09137 0.64489 0.0
C7871 C 0.09726 0.09907 0.65099 0.0
loop_
_geom_bond_atom_site_label_1
_geom_bond_atom_site_label_2
_geom_bond_distance
_geom_bond_site_symmetry_2
_ccdc_geom_bond_type
C0 C1 1.264 . S
C0 C5 1.479 . S
C0 C10 1.465 . S
C1 C0 1.264 . S
C1 C3 1.339 . S
C1 H28 0.931 . S
C2 C3 1.395 . S
C2 C4 1.320 . S
C3 C1 1.339 . S
C3 C2 1.395 . S
C3 H29 0.929 . S
C4 C2 1.320 . S
C4 C5 1.405 . S
C4 H30 0.930 . S
C5 C0 1.479 . S
C5 C4 1.405 . S
C5 H31 0.931 . S
U6 O7 2.454 . S
U6 O8 2.458 . S
U6 C9 2.984 . S
U6 C10 2.847 . S
U6 C23 2.882 . S
U6 O24 2.441 . S
U6 O25 2.420 . S
U6 O26 2.455 . S
U6 O27 2.449 . S
O7 U6 2.454 . S
O7 C9 1.353 . S
O8 U6 2.458 . S
O8 C9 1.286 . S
C9 U6 2.984 . S
C9 O7 1.353 . S
C9 O8 1.286 . S
C9 C11 1.363 . S
C10 C0 1.465 . S
C10 U6 2.847 . S
C10 O24 1.249 . S
C10 O25 1.202 . S
C11 C9 1.363 . S
C11 C13 1.408 . S
C11 C16 1.342 . S
C12 C13 1.310 . S
C12 C15 1.461 . S
C12 H32 0.932 . S
C13 C11 1.408 . S
C13 C12 1.310 . S
C13 H33 0.930 . S
C14 C15 1.474 . S
C14 C16 1.285 . S
C14 H34 0.929 . S
C15 C12 1.461 . S
C15 C14 1.474 . S
C16 C11 1.342 . S
C16 C14 1.285 . S
C16 H35 0.930 . S
C17 C20 1.424 . S
C17 C22 1.245 . S
C17 C23 1.428 . S
C18 C21 1.260 . S
C18 C22 1.477 . S
C18 H36 0.932 . S
C19 C20 1.384 . S
C19 C21 1.479 . S
C19 H37 0.929 . S
C20 C17 1.424 . S
C20 C19 1.384 . S
C20 H38 0.928 . S
C21 C18 1.260 . S
C21 C19 1.479 . S
C22 C17 1.245 . S
C22 C18 1.477 . S
C22 H39 0.932 . S
C23 U6 2.882 . S
C23 C17 1.428 . S
C23 O26 1.301 . S
C23 O27 1.282 . S
O24 U6 2.441 . S
O24 C10 1.249 . S
O25 U6 2.420 . S
O25 C10 1.202 . S
O26 U6 2.455 . S
O26 C23 1.301 . S
O27 U6 2.449 . S
O27 C23 1.282 . S
H28 C1 0.931 . S
H29 C3 0.929 . S
H30 C4 0.930 . S
H31 C5 0.931 . S
H32 C12 0.932 . S
H33 C13 0.930 . S
H34 C14 0.929 . S
H35 C16 0.930 . S
H36 C18 0.932 . S
H37 C19 0.929 . S
H38 C20 0.928 . S
H39 C22 0.932 . S
C40 C41 1.264 . S
C40 C45 1.479 . S
C40 C50 1.465 . S
C41 C40 1.264 . S
C41 C43 1.339 . S
C41 H68 0.931 . S
C42 C43 1.395 . S
C42 C44 1.320 . S
C43 C41 1.339 . S
C43 C42 1.395 . S
C43 H69 0.929 . S
C44 C42 1.320 . S
C44 C45 1.405 . S
C44 H70 0.930 . S
C45 C40 1.479 . S
C45 C44 1.405 . S
C45 H71 0.931 . S
U46 O47 2.454 . S
U46 O48 2.458 . S
U46 C49 2.984 . S
U46 C50 2.847 . S
U46 C63 2.882 . S
U46 O64 2.441 . S
U46 O65 2.420 . S
U46 O66 2.455 . S
U46 O67 2.449 . S
O47 U46 2.454 . S
O47 C49 1.353 . S
O48 U46 2.458 . S
O48 C49 1.286 . S
C49 U46 2.984 . S
C49 O47 1.353 . S
C49 O48 1.286 . S
C49 C51 1.363 . S
C50 C40 1.465 . S
C50 U46 2.847 . S
C50 O64 1.249 . S
C50 O65 1.202 . S
C51 C49 1.363 . S
C51 C53 1.408 . S
C51 C56 1.342 . S
C52 C53 1.310 . S
C52 C55 1.461 . S
C52 H72 0.932 . S
C53 C51 1.408 . S
C53 C52 1.310 . S
C53 H73 0.930 . S
C54 C55 1.474 . S
C54 C56 1.285 . S
C54 H74 0.929 . S
C55 C52 1.461 . S
C55 C54 1.474 . S
C56 C51 1.342 . S
C56 C54 1.285 . S
C56 H75 0.930 . S
C57 C60 1.424 . S
C57 C62 1.245 . S
C57 C63 1.428 . S
C58 C61 1.260 . S
C58 C62 1.477 . S
C58 H76 0.932 . S
C59 C60 1.384 . S
C59 C61 1.479 . S
C59 H77 0.929 . S
C60 C57 1.424 . S
C60 C59 1.384 . S
C60 H78 0.928 . S
C61 C58 1.260 . S
C61 C59 1.479 . S
C62 C57 1.245 . S
C62 C58 1.477 . S
C62 H79 0.932 . S
C63 U46 2.882 . S
C63 C57 1.428 . S
C63 O66 1.301 . S
C63 O67 1.282 . S
O64 U46 2.441 . S
O64 C50 1.249 . S
O65 U46 2.420 . S
O65 C50 1.202 . S
O66 U46 2.455 . S
O66 C63 1.301 . S
O67 U46 2.449 . S
O67 C63 1.282 . S
H68 C41 0.931 . S
H69 C43 0.929 . S
H70 C44 0.930 . S
H71 C45 0.931 . S
H72 C52 0.932 . S
H73 C53 0.930 . S
H74 C54 0.929 . S
H75 C56 0.930 . S
H76 C58 0.932 . S
H77 C59 0.929 . S
H78 C60 0.928 . S
H79 C62 0.932 . S
C80 C81 1.264 . S
C80 C85 1.479 . S
C80 C90 1.465 . S
C81 C80 1.264 . S
C81 C83 1.339 . S
C81 H108 0.931 . S
C82 C83 1.395 . S
C82 C84 1.320 . S
C83 C81 1.339 . S
C83 C82 1.395 . S
C83 H109 0.929 . S
C84 C82 1.320 . S
C84 C85 1.405 . S
C84 H110 0.930 . S
C85 C80 1.479 . S
C85 C84 1.405 . S
C85 H111 0.931 . S
U86 O87 2.454 . S
U86 O88 2.458 . S
U86 C89 2.984 . S
U86 C90 2.847 . S
U86 C103 2.882 . S
U86 O104 2.441 . S
U86 O105 2.420 . S
U86 O106 2.455 . S
U86 O107 2.449 . S
O87 U86 2.454 . S
O87 C89 1.353 . S
O88 U86 2.458 . S
O88 C89 1.286 . S
C89 U86 2.984 . S
C89 O87 1.353 . S
C89 O88 1.286 . S
C89 C91 1.363 . S
C90 C80 1.465 . S
C90 U86 2.847 . S
C90 O104 1.249 . S
C90 O105 1.202 . S
C91 C89 1.363 . S
C91 C93 1.408 . S
C91 C96 1.342 . S
C92 C93 1.310 . S
C92 C95 1.461 . S
C92 H112 0.932 . S
C93 C91 1.408 . S
C93 C92 1.310 . S
C93 H113 0.930 . S
C94 C95 1.474 . S
C94 C96 1.285 . S
C94 H114 0.929 . S
C95 C92 1.461 . S
C95 C94 1.474 . S
C96 C91 1.342 . S
C96 C94 1.285 . S
C96 H115 0.930 . S
C97 C100 1.424 . S
C97 C102 1.245 . S
C97 C103 1.428 . S
C98 C101 1.260 . S
C98 C102 1.477 . S
C98 H116 0.932 . S
C99 C100 1.384 . S
C99 C101 1.479 . S
C99 H117 0.929 . S
C100 C97 1.424 . S
C100 C99 1.384 . S
C100 H118 0.928 . S
C101 C98 1.260 . S
C101 C99 1.479 . S
C102 C97 1.245 . S
C102 C98 1.477 . S
C102 H119 0.932 . S
C103 U86 2.882 . S
C103 C97 1.428 . S
C103 O106 1.301 . S
C103 O107 1.282 . S
O104 U86 2.441 . S
O104 C90 1.249 . S
O105 U86 2.420 . S
O105 C90 1.202 . S
O106 U86 2.455 . S
O106 C103 1.301 . S
O107 U86 2.449 . S
O107 C103 1.282 . S
H108 C81 0.931 . S
H109 C83 0.929 . S
H110 C84 0.930 . S
H111 C85 0.931 . S
H112 C92 0.932 . S
H113 C93 0.930 . S
H114 C94 0.929 . S
H115 C96 0.930 . S
H116 C98 0.932 . S
H117 C99 0.929 . S
H118 C100 0.928 . S
H119 C102 0.932 . S
C120 C121 1.264 . S
C120 C125 1.479 . S
C120 C130 1.465 . S
C121 C120 1.264 . S
C121 C123 1.339 . S
C121 H148 0.931 . S
C122 C123 1.395 . S
C122 C124 1.320 . S
C123 C121 1.339 . S
C123 C122 1.395 . S
C123 H149 0.929 . S
C124 C122 1.320 . S
C124 C125 1.405 . S
C124 H150 0.930 . S
C125 C120 1.479 . S
C125 C124 1.405 . S
C125 H151 0.931 . S
U126 O127 2.454 . S
U126 O128 2.458 . S
U126 C129 2.984 . S
U126 C130 2.847 . S
U126 C143 2.882 . S
U126 O144 2.441 . S
U126 O145 2.420 . S
U126 O146 2.455 . S
U126 O147 2.449 . S
O127 U126 2.454 . S
O127 C129 1.353 . S
O128 U126 2.458 . S
O128 C129 1.286 . S
C129 U126 2.984 . S
C129 O127 1.353 . S
C129 O128 1.286 . S
C129 C131 1.363 . S
C130 C120 1.465 . S
C130 U126 2.847 . S
C130 O144 1.249 . S
C130 O145 1.202 . S
C131 C129 1.363 . S
C131 C133 1.408 . S
C131 C136 1.342 . S
C132 C133 1.310 . S
C132 C135 1.461 . S
C132 H152 0.932 . S
C133 C131 1.408 . S
C133 C132 1.310 . S
C133 H153 0.930 . S
C134 C135 1.474 . S
C134 C136 1.285 . S
C134 H154 0.929 . S
C135 C132 1.461 . S
C135 C134 1.474 . S
C136 C131 1.342 . S
C136 C134 1.285 . S
C136 H155 0.930 . S
C137 C140 1.424 . S
C137 C142 1.245 . S
C137 C143 1.428 . S
C138 C141 1.260 . S
C138 C142 1.477 . S
C138 H156 0.932 . S
C139 C140 1.384 . S
C139 C141 1.479 . S
C139 H157 0.929 . S
C140 C137 1.424 . S
C140 C139 1.384 . S
C140 H158 0.928 . S
C141 C138 1.260 . S
C141 C139 1.479 . S
C142 C137 1.245 . S
C142 C138 1.477 . S
C142 H159 0.932 . S
C143 U126 2.882 . S
C143 C137 1.428 . S
C143 O146 1.301 . S
C143 O147 1.282 . S
O144 U126 2.441 . S
O144 C130 1.249 . S
O145 U126 2.420 . S
O145 C130 1.202 . S
O146 U126 2.455 . S
O146 C143 1.301 . S
O147 U126 2.449 . S
O147 C143 1.282 . S
H148 C121 0.931 . S
H149 C123 0.929 . S
H150 C124 0.930 . S
H151 C125 0.931 . S
H152 C132 0.932 . S
H153 C133 0.930 . S
H154 C134 0.929 . S
H155 C136 0.930 . S
H156 C138 0.932 . S
H157 C139 0.929 . S
H158 C140 0.928 . S
H159 C142 0.932 . S
C160 C161 1.264 . S
C160 C165 1.479 . S
C160 C170 1.465 . S
C161 C160 1.264 . S
C161 C163 1.339 . S
C161 H188 0.931 . S
C162 C163 1.395 . S
C162 C164 1.320 . S
C163 C161 1.339 . S
C163 C162 1.395 . S
C163 H189 0.929 . S
C164 C162 1.320 . S
C164 C165 1.405 . S
C164 H190 0.930 . S
C165 C160 1.479 . S
C165 C164 1.405 . S
C165 H191 0.931 . S
U166 O167 2.454 . S
U166 O168 2.458 . S
U166 C169 2.984 . S
U166 C170 2.847 . S
U166 C183 2.882 . S
U166 O184 2.441 . S
U166 O185 2.420 . S
U166 O186 2.455 . S
U166 O187 2.449 . S
O167 U166 2.454 . S
O167 C169 1.353 . S
O168 U166 2.458 . S
O168 C169 1.286 . S
C169 U166 2.984 . S
C169 O167 1.353 . S
C169 O168 1.286 . S
C169 C171 1.363 . S
C170 C160 1.465 . S
C170 U166 2.847 . S
C170 O184 1.249 . S
C170 O185 1.202 . S
C171 C169 1.363 . S
C171 C173 1.408 . S
C171 C176 1.342 . S
C172 C173 1.310 . S
C172 C175 1.461 . S
C172 H192 0.932 . S
C173 C171 1.408 . S
C173 C172 1.310 . S
C173 H193 0.930 . S
C174 C175 1.474 . S
C174 C176 1.285 . S
C174 H194 0.929 . S
C175 C172 1.461 . S
C175 C174 1.474 . S
C176 C171 1.342 . S
C176 C174 1.285 . S
C176 H195 0.930 . S
C177 C180 1.424 . S
C177 C182 1.245 . S
C177 C183 1.428 . S
C178 C181 1.260 . S
C178 C182 1.477 . S
C178 H196 0.932 . S
C179 C180 1.384 . S
C179 C181 1.479 . S
C179 H197 0.929 . S
C180 C177 1.424 . S
C180 C179 1.384 . S
C180 H198 0.928 . S
C181 C178 1.260 . S
C181 C179 1.479 . S
C182 C177 1.245 . S
C182 C178 1.477 . S
C182 H199 0.932 . S
C183 U166 2.882 . S
C183 C177 1.428 . S
C183 O186 1.301 . S
C183 O187 1.282 . S
O184 U166 2.441 . S
O184 C170 1.249 . S
O185 U166 2.420 . S
O185 C170 1.202 . S
O186 U166 2.455 . S
O186 C183 1.301 . S
O187 U166 2.449 . S
O187 C183 1.282 . S
H188 C161 0.931 . S
H189 C163 0.929 . S
H190 C164 0.930 . S
H191 C165 0.931 . S
H192 C172 0.932 . S
H193 C173 0.930 . S
H194 C174 0.929 . S
H195 C176 0.930 . S
H196 C178 0.932 . S
H197 C179 0.929 . S
H198 C180 0.928 . S
H199 C182 0.932 . S
C200 C201 1.264 . S
C200 C205 1.479 . S
C200 C210 1.465 . S
C201 C200 1.264 . S
C201 C203 1.339 . S
C201 H228 0.931 . S
C202 C203 1.395 . S
C202 C204 1.320 . S
C203 C201 1.339 . S
C203 C202 1.395 . S
C203 H229 0.929 . S
C204 C202 1.320 . S
C204 C205 1.405 . S
C204 H230 0.930 . S
C205 C200 1.479 . S
C205 C204 1.405 . S
C205 H231 0.931 . S
U206 O207 2.454 . S
U206 O208 2.458 . S
U206 C209 2.984 . S
U206 C210 2.847 . S
U206 C223 2.882 . S
U206 O224 2.441 . S
U206 O225 2.420 . S
U206 O226 2.455 . S
U206 O227 2.449 . S
O207 U206 2.454 . S
O207 C209 1.353 . S
O208 U206 2.458 . S
O208 C209 1.286 . S
C209 U206 2.984 . S
C209 O207 1.353 . S
C209 O208 1.286 . S
C209 C211 1.363 . S
C210 C200 1.465 . S
C210 U206 2.847 . S
C210 O224 1.249 . S
C210 O225 1.202 . S
C211 C209 1.363 . S
C211 C213 1.408 . S
C211 C216 1.342 . S
C212 C213 1.310 . S
C212 C215 1.461 . S
C212 H232 0.932 . S
C213 C211 1.408 . S
C213 C212 1.310 . S
C213 H233 0.930 . S
C214 C215 1.474 . S
C214 C216 1.285 . S
C214 H234 0.929 . S
C215 C212 1.461 . S
C215 C214 1.474 . S
C216 C211 1.342 . S
C216 C214 1.285 . S
C216 H235 0.930 . S
C217 C220 1.424 . S
C217 C222 1.245 . S
C217 C223 1.428 . S
C218 C221 1.260 . S
C218 C222 1.477 . S
C218 H236 0.932 . S
C219 C220 1.384 . S
C219 C221 1.479 . S
C219 H237 0.929 . S
C220 C217 1.424 . S
C220 C219 1.384 . S
C220 H238 0.928 . S
C221 C218 1.260 . S
C221 C219 1.479 . S
C222 C217 1.245 . S
C222 C218 1.477 . S
C222 H239 0.932 . S
C223 U206 2.882 . S
C223 C217 1.428 . S
C223 O226 1.301 . S
C223 O227 1.282 . S
O224 U206 2.441 . S
O224 C210 1.249 . S
O225 U206 2.420 . S
O225 C210 1.202 . S
O226 U206 2.455 . S
O226 C223 1.301 . S
O227 U206 2.449 . S
O227 C223 1.282 . S
H228 C201 0.931 . S
H229 C203 0.929 . S
H230 C204 0.930 . S
H231 C205 0.931 . S
H232 C212 0.932 . S
H233 C213 0.930 . S
H234 C214 0.929 . S
H235 C216 0.930 . S
H236 C218 0.932 . S
H237 C219 0.929 . S
H238 C220 0.928 . S
H239 C222 0.932 . S
C240 C241 1.264 . S
C240 C245 1.479 . S
C240 C250 1.465 . S
C241 C240 1.264 . S
C241 C243 1.339 . S
C241 H268 0.931 . S
C242 C243 1.395 . S
C242 C244 1.320 . S
C243 C241 1.339 . S
C243 C242 1.395 . S
C243 H269 0.929 . S
C244 C242 1.320 . S
C244 C245 1.405 . S
C244 H270 0.930 . S
C245 C240 1.479 . S
C245 C244 1.405 . S
C245 H271 0.931 . S
U246 O247 2.454 . S
U246 O248 2.458 . S
U246 C249 2.984 . S
U246 C250 2.847 . S
U246 C263 2.882 . S
U246 O264 2.441 . S
U246 O265 2.420 . S
U246 O266 2.455 . S
U246 O267 2.449 . S
O247 U246 2.454 . S
O247 C249 1.353 . S
O248 U246 2.458 . S
O248 C249 1.286 . S
C249 U246 2.984 . S
C249 O247 1.353 . S
C249 O248 1.286 . S
C249 C251 1.363 . S
C250 C240 1.465 . S
C250 U246 2.847 . S
C250 O264 1.249 . S
C250 O265 1.202 . S
C251 C249 1.363 . S
C251 C253 1.408 . S
C251 C256 1.342 . S
C252 C253 1.310 . S
C252 C255 1.461 . S
C252 H272 0.932 . S
C253 C251 1.408 . S
C253 C252 1.310 . S
C253 H273 0.930 . S
C254 C255 1.474 . S
C254 C256 1.285 . S
C254 H274 0.929 . S
C255 C252 1.461 . S
C255 C254 1.474 . S
C256 C251 1.342 . S
C256 C254 1.285 . S
C256 H275 0.930 . S
C257 C260 1.424 . S
C257 C262 1.245 . S
C257 C263 1.428 . S
C258 C261 1.260 . S
C258 C262 1.477 . S
C258 H276 0.932 . S
C259 C260 1.384 . S
C259 C261 1.479 . S
C259 H277 0.929 . S
C260 C257 1.424 . S
C260 C259 1.384 . S
C260 H278 0.928 . S
C261 C258 1.260 . S
C261 C259 1.479 . S
C262 C257 1.245 . S
C262 C258 1.477 . S
C262 H279 0.932 . S
C263 U246 2.882 . S
C263 C257 1.428 . S
C263 O266 1.301 . S
C263 O267 1.282 . S
O264 U246 2.441 . S
O264 C250 1.249 . S
O265 U246 2.420 . S
O265 C250 1.202 . S
O266 U246 2.455 . S
O266 C263 1.301 . S
O267 U246 2.449 . S
O267 C263 1.282 . S
H268 C241 0.931 . S
H269 C243 0.929 . S
H270 C244 0.930 . S
H271 C245 0.931 . S
H272 C252 0.932 . S
H273 C253 0.930 . S
H274 C254 0.929 . S
H275 C256 0.930 . S
H276 C258 0.932 . S
H277 C259 0.929 . S
H278 C260 0.928 . S
H279 C262 0.932 . S
C280 C281 1.264 . S
C280 C285 1.479 . S
C280 C290 1.465 . S
C281 C280 1.264 . S
C281 C283 1.339 . S
C281 H308 0.931 . S
C282 C283 1.395 . S
C282 C284 1.320 . S
C283 C281 1.339 . S
C283 C282 1.395 . S
C283 H309 0.929 . S
C284 C282 1.320 . S
C284 C285 1.405 . S
C284 H310 0.930 . S
C285 C280 1.479 . S
C285 C284 1.405 . S
C285 H311 0.931 . S
U286 O287 2.454 . S
U286 O288 2.458 . S
U286 C289 2.984 . S
U286 C290 2.847 . S
U286 C303 2.882 . S
U286 O304 2.441 . S
U286 O305 2.420 . S
U286 O306 2.455 . S
U286 O307 2.449 . S
O287 U286 2.454 . S
O287 C289 1.353 . S
O288 U286 2.458 . S
O288 C289 1.286 . S
C289 U286 2.984 . S
C289 O287 1.353 . S
C289 O288 1.286 . S
C289 C291 1.363 . S
C290 C280 1.465 . S
C290 U286 2.847 . S
C290 O304 1.249 . S
C290 O305 1.202 . S
C291 C289 1.363 . S
C291 C293 1.408 . S
C291 C296 1.342 . S
C292 C293 1.310 . S
C292 C295 1.461 . S
C292 H312 0.932 . S
C293 C291 1.408 . S
C293 C292 1.310 . S
C293 H313 0.930 . S
C294 C295 1.474 . S
C294 C296 1.285 . S
C294 H314 0.929 . S
C295 C292 1.461 . S
C295 C294 1.474 . S
C296 C291 1.342 . S
C296 C294 1.285 . S
C296 H315 0.930 . S
C297 C300 1.424 . S
C297 C302 1.245 . S
C297 C303 1.428 . S
C298 C301 1.260 . S
C298 C302 1.477 . S
C298 H316 0.932 . S
C299 C300 1.384 . S
C299 C301 1.479 . S
C299 H317 0.929 . S
C300 C297 1.424 . S
C300 C299 1.384 . S
C300 H318 0.928 . S
C301 C298 1.260 . S
C301 C299 1.479 . S
C302 C297 1.245 . S
C302 C298 1.477 . S
C302 H319 0.932 . S
C303 U286 2.882 . S
C303 C297 1.428 . S
C303 O306 1.301 . S
C303 O307 1.282 . S
O304 U286 2.441 . S
O304 C290 1.249 . S
O305 U286 2.420 . S
O305 C290 1.202 . S
O306 U286 2.455 . S
O306 C303 1.301 . S
O307 U286 2.449 . S
O307 C303 1.282 . S
H308 C281 0.931 . S
H309 C283 0.929 . S
H310 C284 0.930 . S
H311 C285 0.931 . S
H312 C292 0.932 . S
H313 C293 0.930 . S
H314 C294 0.929 . S
H315 C296 0.930 . S
H316 C298 0.932 . S
H317 C299 0.929 . S
H318 C300 0.928 . S
H319 C302 0.932 . S
C320 C321 1.264 . S
C320 C325 1.479 . S
C320 C330 1.465 . S
C321 C320 1.264 . S
C321 C323 1.339 . S
C321 H348 0.931 . S
C322 C323 1.395 . S
C322 C324 1.320 . S
C323 C321 1.339 . S
C323 C322 1.395 . S
C323 H349 0.929 . S
C324 C322 1.320 . S
C324 C325 1.405 . S
C324 H350 0.930 . S
C325 C320 1.479 . S
C325 C324 1.405 . S
C325 H351 0.931 . S
U326 O327 2.454 . S
U326 O328 2.458 . S
U326 C329 2.984 . S
U326 C330 2.847 . S
U326 C343 2.882 . S
U326 O344 2.441 . S
U326 O345 2.420 . S
U326 O346 2.455 . S
U326 O347 2.449 . S
O327 U326 2.454 . S
O327 C329 1.353 . S
O328 U326 2.458 . S
O328 C329 1.286 . S
C329 U326 2.984 . S
C329 O327 1.353 . S
C329 O328 1.286 . S
C329 C331 1.363 . S
C330 C320 1.465 . S
C330 U326 2.847 . S
C330 O344 1.249 . S
C330 O345 1.202 . S
C331 C329 1.363 . S
C331 C333 1.408 . S
C331 C336 1.342 . S
C332 C333 1.302 . S
C332 C335 1.466 1_545 S
C332 H352 0.935 1_545 S
C333 C331 1.408 . S
C333 C332 1.302 . S
C333 H353 0.930 . S
C334 C335 1.474 . S
C334 C336 1.285 1_565 S
C334 H354 0.929 . S
C335 C332 1.466 1_565 S
C335 C334 1.474 . S
C336 C331 1.342 . S
C336 C334 1.285 1_545 S
C336 H355 0.930 . S
C337 C340 1.424 . S
C337 C342 1.245 . S
C337 C343 1.428 . S
C338 C341 1.260 . S
C338 C342 1.477 . S
C338 H356 0.932 . S
C339 C340 1.384 . S
C339 C341 1.479 . S
C339 H357 0.929 . S
C340 C337 1.424 . S
C340 C339 1.384 . S
C340 H358 0.928 . S
C341 C338 1.260 . S
C341 C339 1.479 . S
C342 C337 1.245 . S
C342 C338 1.477 . S
C342 H359 0.932 . S
C343 U326 2.882 . S
C343 C337 1.428 . S
C343 O346 1.301 . S
C343 O347 1.282 . S
O344 U326 2.441 . S
O344 C330 1.249 . S
O345 U326 2.420 . S
O345 C330 1.202 . S
O346 U326 2.455 . S
O346 C343 1.301 . S
O347 U326 2.449 . S
O347 C343 1.282 . S
H348 C321 0.931 . S
H349 C323 0.929 . S
H350 C324 0.930 . S
H351 C325 0.931 . S
H352 C332 0.935 1_565 S
H353 C333 0.930 . S
H354 C334 0.929 . S
H355 C336 0.930 . S
H356 C338 0.932 . S
H357 C339 0.929 . S
H358 C340 0.928 . S
H359 C342 0.932 . S
C360 C361 1.264 . S
C360 C365 1.479 . S
C360 C370 1.465 . S
C361 C360 1.264 . S
C361 C363 1.339 . S
C361 H388 0.931 . S
C362 C363 1.395 . S
C362 C364 1.320 . S
C363 C361 1.339 . S
C363 C362 1.395 . S
C363 H389 0.929 . S
C364 C362 1.320 . S
C364 C365 1.405 . S
C364 H390 0.930 . S
C365 C360 1.479 . S
C365 C364 1.405 . S
C365 H391 0.931 . S
U366 O367 2.454 . S
U366 O368 2.458 . S
U366 C369 2.984 . S
U366 C370 2.847 . S
U366 C383 2.882 . S
U366 O384 2.441 . S
U366 O385 2.420 . S
U366 O386 2.455 . S
U366 O387 2.449 . S
O367 U366 2.454 . S
O367 C369 1.353 . S
O368 U366 2.458 . S
O368 C369 1.286 . S
C369 U366 2.984 . S
C369 O367 1.353 . S
C369 O368 1.286 . S
C369 C371 1.363 . S
C370 C360 1.465 . S
C370 U366 2.847 . S
C370 O384 1.249 . S
C370 O385 1.202 . S
C371 C369 1.363 . S
C371 C373 1.408 . S
C371 C376 1.342 . S
C372 C373 1.310 . S
C372 C375 1.461 . S
C372 H392 0.932 . S
C373 C371 1.408 . S
C373 C372 1.310 . S
C373 H393 0.930 . S
C374 C375 1.474 . S
C374 C376 1.285 . S
C374 H394 0.929 . S
C375 C372 1.461 . S
C375 C374 1.474 . S
C376 C371 1.342 . S
C376 C374 1.285 . S
C376 H395 0.930 . S
C377 C380 1.424 . S
C377 C382 1.245 . S
C377 C383 1.428 . S
C378 C381 1.260 . S
C378 C382 1.477 . S
C378 H396 0.932 . S
C379 C380 1.384 . S
C379 C381 1.479 . S
C379 H397 0.929 . S
C380 C377 1.424 . S
C380 C379 1.384 . S
C380 H398 0.928 . S
C381 C378 1.260 . S
C381 C379 1.479 . S
C382 C377 1.245 . S
C382 C378 1.477 . S
C382 H399 0.932 . S
C383 U366 2.882 . S
C383 C377 1.428 . S
C383 O386 1.301 . S
C383 O387 1.282 . S
O384 U366 2.441 . S
O384 C370 1.249 . S
O385 U366 2.420 . S
O385 C370 1.202 . S
O386 U366 2.455 . S
O386 C383 1.301 . S
O387 U366 2.449 . S
O387 C383 1.282 . S
H388 C361 0.931 . S
H389 C363 0.929 . S
H390 C364 0.930 . S
H391 C365 0.931 . S
H392 C372 0.932 . S
H393 C373 0.930 . S
H394 C374 0.929 . S
H395 C376 0.930 . S
H396 C378 0.932 . S
H397 C379 0.929 . S
H398 C380 0.928 . S
H399 C382 0.932 . S
C400 C401 1.264 . S
C400 C405 1.479 . S
C400 C410 1.465 . S
C401 C400 1.264 . S
C401 C403 1.339 . S
C401 H428 0.931 . S
C402 C403 1.395 . S
C402 C404 1.320 . S
C403 C401 1.339 . S
C403 C402 1.395 . S
C403 H429 0.929 . S
C404 C402 1.320 . S
C404 C405 1.405 . S
C404 H430 0.930 . S
C405 C400 1.479 . S
C405 C404 1.405 . S
C405 H431 0.931 . S
U406 O407 2.454 . S
U406 O408 2.458 . S
U406 C409 2.984 . S
U406 C410 2.847 . S
U406 C423 2.882 . S
U406 O424 2.441 . S
U406 O425 2.420 . S
U406 O426 2.455 . S
U406 O427 2.449 . S
O407 U406 2.454 . S
O407 C409 1.353 . S
O408 U406 2.458 . S
O408 C409 1.286 . S
C409 U406 2.984 . S
C409 O407 1.353 . S
C409 O408 1.286 . S
C409 C411 1.363 . S
C410 C400 1.465 . S
C410 U406 2.847 . S
C410 O424 1.249 . S
C410 O425 1.202 . S
C411 C409 1.363 . S
C411 C413 1.408 . S
C411 C416 1.371 . S
C412 C413 1.310 1_545 S
C412 C415 1.461 . S
C412 H432 0.932 . S
C413 C411 1.408 . S
C413 C412 1.310 1_565 S
C413 H433 0.930 . S
C414 C415 1.474 . S
C414 C416 1.234 1_545 S
C414 H434 0.929 . S
C415 C412 1.461 . S
C415 C414 1.474 . S
C416 C411 1.371 . S
C416 C414 1.234 1_565 S
C416 H435 0.955 . S
C417 C420 1.424 . S
C417 C422 1.245 . S
C417 C423 1.428 . S
C418 C421 1.260 . S
C418 C422 1.477 . S
C418 H436 0.932 . S
C419 C420 1.384 . S
C419 C421 1.479 . S
C419 H437 0.929 . S
C420 C417 1.424 . S
C420 C419 1.384 . S
C420 H438 0.928 . S
C421 C418 1.260 . S
C421 C419 1.479 . S
C422 C417 1.245 . S
C422 C418 1.477 . S
C422 H439 0.932 . S
C423 U406 2.882 . S
C423 C417 1.428 . S
C423 O426 1.301 . S
C423 O427 1.282 . S
O424 U406 2.441 . S
O424 C410 1.249 . S
O425 U406 2.420 . S
O425 C410 1.202 . S
O426 U406 2.455 . S
O426 C423 1.301 . S
O427 U406 2.449 . S
O427 C423 1.282 . S
H428 C401 0.931 . S
H429 C403 0.929 . S
H430 C404 0.930 . S
H431 C405 0.931 . S
H432 C412 0.932 . S
H433 C413 0.930 . S
H434 C414 0.929 . S
H435 C416 0.955 . S
H436 C418 0.932 . S
H437 C419 0.929 . S
H438 C420 0.928 . S
H439 C422 0.932 . S
C440 C441 1.264 . S
C440 C445 1.479 . S
C440 C450 1.465 . S
C441 C440 1.264 . S
C441 C443 1.339 . S
C441 H468 0.931 . S
C442 C443 1.395 . S
C442 C444 1.320 . S
C443 C441 1.339 . S
C443 C442 1.395 . S
C443 H469 0.929 . S
C444 C442 1.320 . S
C444 C445 1.405 . S
C444 H470 0.930 . S
C445 C440 1.479 . S
C445 C444 1.405 . S
C445 H471 0.931 . S
U446 O447 2.454 . S
U446 O448 2.458 . S
U446 C449 2.984 . S
U446 C450 2.847 . S
U446 C463 2.882 . S
U446 O464 2.441 . S
U446 O465 2.420 . S
U446 O466 2.455 . S
U446 O467 2.449 . S
O447 U446 2.454 . S
O447 C449 1.353 . S
O448 U446 2.458 . S
O448 C449 1.286 . S
C449 U446 2.984 . S
C449 O447 1.353 . S
C449 O448 1.286 . S
C449 C451 1.363 . S
C450 C440 1.465 . S
C450 U446 2.847 . S
C450 O464 1.249 . S
C450 O465 1.202 . S
C451 C449 1.363 . S
C451 C453 1.408 . S
C451 C456 1.342 . S
C452 C453 1.310 . S
C452 C455 1.461 . S
C452 H472 0.932 . S
C453 C451 1.408 . S
C453 C452 1.310 . S
C453 H473 0.930 . S
C454 C455 1.474 . S
C454 C456 1.285 . S
C454 H474 0.929 . S
C455 C452 1.461 . S
C455 C454 1.474 . S
C456 C451 1.342 . S
C456 C454 1.285 . S
C456 H475 0.930 . S
C457 C460 1.424 . S
C457 C462 1.245 . S
C457 C463 1.428 . S
C458 C461 1.260 . S
C458 C462 1.477 . S
C458 H476 0.932 . S
C459 C460 1.384 . S
C459 C461 1.479 . S
C459 H477 0.929 . S
C460 C457 1.424 . S
C460 C459 1.384 . S
C460 H478 0.928 . S
C461 C458 1.260 . S
C461 C459 1.479 . S
C462 C457 1.245 . S
C462 C458 1.477 . S
C462 H479 0.932 . S
C463 U446 2.882 . S
C463 C457 1.428 . S
C463 O466 1.301 . S
C463 O467 1.282 . S
O464 U446 2.441 . S
O464 C450 1.249 . S
O465 U446 2.420 . S
O465 C450 1.202 . S
O466 U446 2.455 . S
O466 C463 1.301 . S
O467 U446 2.449 . S
O467 C463 1.282 . S
H468 C441 0.931 . S
H469 C443 0.929 . S
H470 C444 0.930 . S
H471 C445 0.931 . S
H472 C452 0.932 . S
H473 C453 0.930 . S
H474 C454 0.929 . S
H475 C456 0.930 . S
H476 C458 0.932 . S
H477 C459 0.929 . S
H478 C460 0.928 . S
H479 C462 0.932 . S
C480 C481 1.264 . S
C480 C485 1.479 . S
C480 C490 1.465 . S
C481 C480 1.264 . S
C481 C483 1.339 . S
C481 H508 0.931 . S
C482 C483 1.395 . S
C482 C484 1.320 . S
C483 C481 1.339 . S
C483 C482 1.395 . S
C483 H509 0.929 . S
C484 C482 1.320 . S
C484 C485 1.405 . S
C484 H510 0.930 . S
C485 C480 1.479 . S
C485 C484 1.405 . S
C485 H511 0.931 . S
U486 O487 2.454 . S
U486 O488 2.458 . S
U486 C489 2.984 . S
U486 C490 2.847 . S
U486 C503 2.882 . S
U486 O504 2.441 . S
U486 O505 2.420 . S
U486 O506 2.455 . S
U486 O507 2.449 . S
O487 U486 2.454 . S
O487 C489 1.353 . S
O488 U486 2.458 . S
O488 C489 1.286 . S
C489 U486 2.984 . S
C489 O487 1.353 . S
C489 O488 1.286 . S
C489 C491 1.363 . S
C490 C480 1.465 . S
C490 U486 2.847 . S
C490 O504 1.249 . S
C490 O505 1.202 . S
C491 C489 1.363 . S
C491 C493 1.408 . S
C491 C496 1.342 . S
C492 C493 1.302 . S
C492 C495 1.466 1_565 S
C492 H512 0.935 1_565 S
C493 C491 1.408 . S
C493 C492 1.302 . S
C493 H513 0.930 . S
C494 C495 1.474 . S
C494 C496 1.285 1_545 S
C494 H514 0.929 . S
C495 C492 1.466 1_545 S
C495 C494 1.474 . S
C496 C491 1.342 . S
C496 C494 1.285 1_565 S
C496 H515 0.930 . S
C497 C500 1.424 . S
C497 C502 1.245 . S
C497 C503 1.428 . S
C498 C501 1.260 . S
C498 C502 1.477 . S
C498 H516 0.932 . S
C499 C500 1.384 . S
C499 C501 1.479 . S
C499 H517 0.929 . S
C500 C497 1.424 . S
C500 C499 1.384 . S
C500 H518 0.928 . S
C501 C498 1.260 . S
C501 C499 1.479 . S
C502 C497 1.245 . S
C502 C498 1.477 . S
C502 H519 0.932 . S
C503 U486 2.882 . S
C503 C497 1.428 . S
C503 O506 1.301 . S
C503 O507 1.282 . S
O504 U486 2.441 . S
O504 C490 1.249 . S
O505 U486 2.420 . S
O505 C490 1.202 . S
O506 U486 2.455 . S
O506 C503 1.301 . S
O507 U486 2.449 . S
O507 C503 1.282 . S
H508 C481 0.931 . S
H509 C483 0.929 . S
H510 C484 0.930 . S
H511 C485 0.931 . S
H512 C492 0.935 1_545 S
H513 C493 0.930 . S
H514 C494 0.929 . S
H515 C496 0.930 . S
H516 C498 0.932 . S
H517 C499 0.929 . S
H518 C500 0.928 . S
H519 C502 0.932 . S
C520 C521 1.264 . S
C520 C525 1.479 . S
C520 C530 1.465 . S
C521 C520 1.264 . S
C521 C523 1.339 . S
C521 H548 0.931 . S
C522 C523 1.395 . S
C522 C524 1.320 . S
C523 C521 1.339 . S
C523 C522 1.395 . S
C523 H549 0.929 . S
C524 C522 1.320 . S
C524 C525 1.405 . S
C524 H550 0.930 . S
C525 C520 1.479 . S
C525 C524 1.405 . S
C525 H551 0.931 . S
U526 O527 2.454 . S
U526 O528 2.458 . S
U526 C529 2.984 . S
U526 C530 2.847 . S
U526 C543 2.882 . S
U526 O544 2.441 . S
U526 O545 2.420 . S
U526 O546 2.455 . S
U526 O547 2.449 . S
O527 U526 2.454 . S
O527 C529 1.353 . S
O528 U526 2.458 . S
O528 C529 1.286 . S
C529 U526 2.984 . S
C529 O527 1.353 . S
C529 O528 1.286 . S
C529 C531 1.363 . S
C530 C520 1.465 . S
C530 U526 2.847 . S
C530 O544 1.249 . S
C530 O545 1.202 . S
C531 C529 1.363 . S
C531 C533 1.408 . S
C531 C536 1.342 . S
C532 C533 1.310 . S
C532 C535 1.461 . S
C532 H552 0.932 . S
C533 C531 1.408 . S
C533 C532 1.310 . S
C533 H553 0.930 . S
C534 C535 1.474 . S
C534 C536 1.285 . S
C534 H554 0.929 . S
C535 C532 1.461 . S
C535 C534 1.474 . S
C536 C531 1.342 . S
C536 C534 1.285 . S
C536 H555 0.930 . S
C537 C540 1.424 . S
C537 C542 1.245 . S
C537 C543 1.428 . S
C538 C541 1.260 . S
C538 C542 1.477 . S
C538 H556 0.932 . S
C539 C540 1.384 . S
C539 C541 1.479 . S
C539 H557 0.929 . S
C540 C537 1.424 . S
C540 C539 1.384 . S
C540 H558 0.928 . S
C541 C538 1.260 . S
C541 C539 1.479 . S
C542 C537 1.245 . S
C542 C538 1.477 . S
C542 H559 0.932 . S
C543 U526 2.882 . S
C543 C537 1.428 . S
C543 O546 1.301 . S
C543 O547 1.282 . S
O544 U526 2.441 . S
O544 C530 1.249 . S
O545 U526 2.420 . S
O545 C530 1.202 . S
O546 U526 2.455 . S
O546 C543 1.301 . S
O547 U526 2.449 . S
O547 C543 1.282 . S
H548 C521 0.931 . S
H549 C523 0.929 . S
H550 C524 0.930 . S
H551 C525 0.931 . S
H552 C532 0.932 . S
H553 C533 0.930 . S
H554 C534 0.929 . S
H555 C536 0.930 . S
H556 C538 0.932 . S
H557 C539 0.929 . S
H558 C540 0.928 . S
H559 C542 0.932 . S
C560 C561 1.264 . S
C560 C565 1.479 . S
C560 C570 1.465 . S
C561 C560 1.264 . S
C561 C563 1.339 . S
C561 H588 0.931 . S
C562 C563 1.395 . S
C562 C564 1.320 . S
C563 C561 1.339 . S
C563 C562 1.395 . S
C563 H589 0.929 . S
C564 C562 1.320 . S
C564 C565 1.405 . S
C564 H590 0.930 . S
C565 C560 1.479 . S
C565 C564 1.405 . S
C565 H591 0.931 . S
U566 O567 2.454 . S
U566 O568 2.458 . S
U566 C569 2.984 . S
U566 C570 2.847 . S
U566 C583 2.882 . S
U566 O584 2.441 . S
U566 O585 2.420 . S
U566 O586 2.455 . S
U566 O587 2.449 . S
O567 U566 2.454 . S
O567 C569 1.353 . S
O568 U566 2.458 . S
O568 C569 1.286 . S
C569 U566 2.984 . S
C569 O567 1.353 . S
C569 O568 1.286 . S
C569 C571 1.363 . S
C570 C560 1.465 . S
C570 U566 2.847 . S
C570 O584 1.249 . S
C570 O585 1.202 . S
C571 C569 1.363 . S
C571 C573 1.408 . S
C571 C576 1.371 . S
C572 C573 1.310 1_565 S
C572 C575 1.461 . S
C572 H592 0.932 . S
C573 C571 1.408 . S
C573 C572 1.310 1_545 S
C573 H593 0.930 . S
C574 C575 1.474 . S
C574 C576 1.233 1_565 S
C574 H594 0.929 . S
C575 C572 1.461 . S
C575 C574 1.474 . S
C576 C571 1.371 . S
C576 C574 1.233 1_545 S
C576 H595 0.955 . S
C577 C580 1.424 . S
C577 C582 1.245 . S
C577 C583 1.428 . S
C578 C581 1.260 . S
C578 C582 1.477 . S
C578 H596 0.932 . S
C579 C580 1.384 . S
C579 C581 1.479 . S
C579 H597 0.929 . S
C580 C577 1.424 . S
C580 C579 1.384 . S
C580 H598 0.928 . S
C581 C578 1.260 . S
C581 C579 1.479 . S
C582 C577 1.245 . S
C582 C578 1.477 . S
C582 H599 0.932 . S
C583 U566 2.882 . S
C583 C577 1.428 . S
C583 O586 1.301 . S
C583 O587 1.282 . S
O584 U566 2.441 . S
O584 C570 1.249 . S
O585 U566 2.420 . S
O585 C570 1.202 . S
O586 U566 2.455 . S
O586 C583 1.301 . S
O587 U566 2.449 . S
O587 C583 1.282 . S
H588 C561 0.931 . S
H589 C563 0.929 . S
H590 C564 0.930 . S
H591 C565 0.931 . S
H592 C572 0.932 . S
H593 C573 0.930 . S
H594 C574 0.929 . S
H595 C576 0.955 . S
H596 C578 0.932 . S
H597 C579 0.929 . S
H598 C580 0.928 . S
H599 C582 0.932 . S
C600 C601 1.264 . S
C600 C605 1.479 . S
C600 C610 1.465 . S
C601 C600 1.264 . S
C601 C603 1.339 . S
C601 H628 0.931 . S
C602 C603 1.395 . S
C602 C604 1.320 . S
C603 C601 1.339 . S
C603 C602 1.395 . S
C603 H629 0.929 . S
C604 C602 1.320 . S
C604 C605 1.405 . S
C604 H630 0.930 . S
C605 C600 1.479 . S
C605 C604 1.405 . S
C605 H631 0.931 . S
U606 O607 2.454 . S
U606 O608 2.458 . S
U606 C609 2.984 . S
U606 C610 2.847 . S
U606 C623 2.882 . S
U606 O624 2.441 . S
U606 O625 2.420 . S
U606 O626 2.455 . S
U606 O627 2.449 . S
O607 U606 2.454 . S
O607 C609 1.353 . S
O608 U606 2.458 . S
O608 C609 1.286 . S
C609 U606 2.984 . S
C609 O607 1.353 . S
C609 O608 1.286 . S
C609 C611 1.363 . S
C610 C600 1.465 . S
C610 U606 2.847 . S
C610 O624 1.249 . S
C610 O625 1.202 . S
C611 C609 1.363 . S
C611 C613 1.408 . S
C611 C616 1.342 . S
C612 C613 1.310 . S
C612 C615 1.461 . S
C612 H632 0.932 . S
C613 C611 1.408 . S
C613 C612 1.310 . S
C613 H633 0.930 . S
C614 C615 1.474 . S
C614 C616 1.285 . S
C614 H634 0.929 . S
C615 C612 1.461 . S
C615 C614 1.474 . S
C616 C611 1.342 . S
C616 C614 1.285 . S
C616 H635 0.930 . S
C617 C620 1.424 . S
C617 C622 1.245 . S
C617 C623 1.428 . S
C618 C621 1.260 . S
C618 C622 1.477 . S
C618 H636 0.932 . S
C619 C620 1.384 . S
C619 C621 1.479 . S
C619 H637 0.929 . S
C620 C617 1.424 . S
C620 C619 1.384 . S
C620 H638 0.928 . S
C621 C618 1.260 . S
C621 C619 1.479 . S
C622 C617 1.245 . S
C622 C618 1.477 . S
C622 H639 0.932 . S
C623 U606 2.882 . S
C623 C617 1.428 . S
C623 O626 1.301 . S
C623 O627 1.282 . S
O624 U606 2.441 . S
O624 C610 1.249 . S
O625 U606 2.420 . S
O625 C610 1.202 . S
O626 U606 2.455 . S
O626 C623 1.301 . S
O627 U606 2.449 . S
O627 C623 1.282 . S
H628 C601 0.931 . S
H629 C603 0.929 . S
H630 C604 0.930 . S
H631 C605 0.931 . S
H632 C612 0.932 . S
H633 C613 0.930 . S
H634 C614 0.929 . S
H635 C616 0.930 . S
H636 C618 0.932 . S
H637 C619 0.929 . S
H638 C620 0.928 . S
H639 C622 0.932 . S
C640 C641 1.264 . S
C640 C645 1.479 . S
C640 C650 1.465 . S
C641 C640 1.264 . S
C641 C643 1.339 . S
C641 H668 0.931 . S
C642 C643 1.395 . S
C642 C644 1.320 . S
C643 C641 1.339 . S
C643 C642 1.395 . S
C643 H669 0.929 . S
C644 C642 1.320 . S
C644 C645 1.405 . S
C644 H670 0.930 . S
C645 C640 1.479 . S
C645 C644 1.405 . S
C645 H671 0.931 . S
U646 O647 2.454 . S
U646 O648 2.458 . S
U646 C649 2.984 . S
U646 C650 2.847 . S
U646 C663 2.882 . S
U646 O664 2.441 . S
U646 O665 2.420 . S
U646 O666 2.455 . S
U646 O667 2.449 . S
O647 U646 2.454 . S
O647 C649 1.353 . S
O648 U646 2.458 . S
O648 C649 1.286 . S
C649 U646 2.984 . S
C649 O647 1.353 . S
C649 O648 1.286 . S
C649 C651 1.363 . S
C650 C640 1.465 . S
C650 U646 2.847 . S
C650 O664 1.249 . S
C650 O665 1.202 . S
C651 C649 1.363 . S
C651 C653 1.408 . S
C651 C656 1.342 . S
C652 C653 1.310 . S
C652 C655 1.461 . S
C652 H672 0.932 . S
C653 C651 1.408 . S
C653 C652 1.310 . S
C653 H673 0.930 . S
C654 C655 1.474 . S
C654 C656 1.285 . S
C654 H674 0.929 . S
C655 C652 1.461 . S
C655 C654 1.474 . S
C656 C651 1.342 . S
C656 C654 1.285 . S
C656 H675 0.930 . S
C657 C660 1.424 . S
C657 C662 1.245 . S
C657 C663 1.428 . S
C658 C661 1.260 . S
C658 C662 1.477 . S
C658 H676 0.932 . S
C659 C660 1.384 . S
C659 C661 1.479 . S
C659 H677 0.929 . S
C660 C657 1.424 . S
C660 C659 1.384 . S
C660 H678 0.928 . S
C661 C658 1.260 . S
C661 C659 1.479 . S
C662 C657 1.245 . S
C662 C658 1.477 . S
C662 H679 0.932 . S
C663 U646 2.882 . S
C663 C657 1.428 . S
C663 O666 1.301 . S
C663 O667 1.282 . S
O664 U646 2.441 . S
O664 C650 1.249 . S
O665 U646 2.420 . S
O665 C650 1.202 . S
O666 U646 2.455 . S
O666 C663 1.301 . S
O667 U646 2.449 . S
O667 C663 1.282 . S
H668 C641 0.931 . S
H669 C643 0.929 . S
H670 C644 0.930 . S
H671 C645 0.931 . S
H672 C652 0.932 . S
H673 C653 0.930 . S
H674 C654 0.929 . S
H675 C656 0.930 . S
H676 C658 0.932 . S
H677 C659 0.929 . S
H678 C660 0.928 . S
H679 C662 0.932 . S
C680 C681 1.264 . S
C680 C685 1.479 . S
C680 C690 1.465 . S
C681 C680 1.264 . S
C681 C683 1.339 . S
C681 H708 0.931 . S
C682 C683 1.395 . S
C682 C684 1.320 . S
C683 C681 1.339 . S
C683 C682 1.395 . S
C683 H709 0.929 . S
C684 C682 1.320 . S
C684 C685 1.405 . S
C684 H710 0.930 . S
C685 C680 1.479 . S
C685 C684 1.405 . S
C685 H711 0.931 . S
U686 O687 2.454 . S
U686 O688 2.458 . S
U686 C689 2.984 . S
U686 C690 2.847 . S
U686 C703 2.882 . S
U686 O704 2.441 . S
U686 O705 2.420 . S
U686 O706 2.455 . S
U686 O707 2.449 . S
O687 U686 2.454 . S
O687 C689 1.353 . S
O688 U686 2.458 . S
O688 C689 1.286 . S
C689 U686 2.984 . S
C689 O687 1.353 . S
C689 O688 1.286 . S
C689 C691 1.363 . S
C690 C680 1.465 . S
C690 U686 2.847 . S
C690 O704 1.249 . S
C690 O705 1.202 . S
C691 C689 1.363 . S
C691 C693 1.408 . S
C691 C696 1.342 . S
C692 C693 1.310 . S
C692 C695 1.461 . S
C692 H712 0.932 . S
C693 C691 1.408 . S
C693 C692 1.310 . S
C693 H713 0.930 . S
C694 C695 1.474 . S
C694 C696 1.285 . S
C694 H714 0.929 . S
C695 C692 1.461 . S
C695 C694 1.474 . S
C696 C691 1.342 . S
C696 C694 1.285 . S
C696 H715 0.930 . S
C697 C700 1.424 . S
C697 C702 1.245 . S
C697 C703 1.428 . S
C698 C701 1.260 . S
C698 C702 1.477 . S
C698 H716 0.932 . S
C699 C700 1.384 . S
C699 C701 1.479 . S
C699 H717 0.929 . S
C700 C697 1.424 . S
C700 C699 1.384 . S
C700 H718 0.928 . S
C701 C698 1.260 . S
C701 C699 1.479 . S
C702 C697 1.245 . S
C702 C698 1.477 . S
C702 H719 0.932 . S
C703 U686 2.882 . S
C703 C697 1.428 . S
C703 O706 1.301 . S
C703 O707 1.282 . S
O704 U686 2.441 . S
O704 C690 1.249 . S
O705 U686 2.420 . S
O705 C690 1.202 . S
O706 U686 2.455 . S
O706 C703 1.301 . S
O707 U686 2.449 . S
O707 C703 1.282 . S
H708 C681 0.931 . S
H709 C683 0.929 . S
H710 C684 0.930 . S
H711 C685 0.931 . S
H712 C692 0.932 . S
H713 C693 0.930 . S
H714 C694 0.929 . S
H715 C696 0.930 . S
H716 C698 0.932 . S
H717 C699 0.929 . S
H718 C700 0.928 . S
H719 C702 0.932 . S
C720 C721 1.264 . S
C720 C725 1.479 . S
C720 C730 1.465 . S
C721 C720 1.264 . S
C721 C723 1.339 . S
C721 H748 0.931 . S
C722 C723 1.395 . S
C722 C724 1.320 . S
C723 C721 1.339 . S
C723 C722 1.395 . S
C723 H749 0.929 . S
C724 C722 1.320 . S
C724 C725 1.405 . S
C724 H750 0.930 . S
C725 C720 1.479 . S
C725 C724 1.405 . S
C725 H751 0.931 . S
U726 O727 2.454 . S
U726 O728 2.458 . S
U726 C729 2.984 . S
U726 C730 2.847 . S
U726 C743 2.882 . S
U726 O744 2.441 . S
U726 O745 2.420 . S
U726 O746 2.455 . S
U726 O747 2.449 . S
O727 U726 2.454 . S
O727 C729 1.353 . S
O728 U726 2.458 . S
O728 C729 1.286 . S
C729 U726 2.984 . S
C729 O727 1.353 . S
C729 O728 1.286 . S
C729 C731 1.363 . S
C730 C720 1.465 . S
C730 U726 2.847 . S
C730 O744 1.249 . S
C730 O745 1.202 . S
C731 C729 1.363 . S
C731 C733 1.408 . S
C731 C736 1.342 . S
C732 C733 1.310 . S
C732 C735 1.461 . S
C732 H752 0.932 . S
C733 C731 1.408 . S
C733 C732 1.310 . S
C733 H753 0.930 . S
C734 C735 1.474 . S
C734 C736 1.285 . S
C734 H754 0.929 . S
C735 C732 1.461 . S
C735 C734 1.474 . S
C736 C731 1.342 . S
C736 C734 1.285 . S
C736 H755 0.930 . S
C737 C740 1.424 . S
C737 C742 1.245 . S
C737 C743 1.428 . S
C738 C741 1.260 . S
C738 C742 1.477 . S
C738 H756 0.932 . S
C739 C740 1.384 . S
C739 C741 1.479 . S
C739 H757 0.929 . S
C740 C737 1.424 . S
C740 C739 1.384 . S
C740 H758 0.928 . S
C741 C738 1.260 . S
C741 C739 1.479 . S
C742 C737 1.245 . S
C742 C738 1.477 . S
C742 H759 0.932 . S
C743 U726 2.882 . S
C743 C737 1.428 . S
C743 O746 1.301 . S
C743 O747 1.282 . S
O744 U726 2.441 . S
O744 C730 1.249 . S
O745 U726 2.420 . S
O745 C730 1.202 . S
O746 U726 2.455 . S
O746 C743 1.301 . S
O747 U726 2.449 . S
O747 C743 1.282 . S
H748 C721 0.931 . S
H749 C723 0.929 . S
H750 C724 0.930 . S
H751 C725 0.931 . S
H752 C732 0.932 . S
H753 C733 0.930 . S
H754 C734 0.929 . S
H755 C736 0.930 . S
H756 C738 0.932 . S
H757 C739 0.929 . S
H758 C740 0.928 . S
H759 C742 0.932 . S
C760 C761 1.264 . S
C760 C765 1.479 . S
C760 C770 1.465 . S
C761 C760 1.264 . S
C761 C763 1.339 . S
C761 H788 0.931 . S
C762 C763 1.395 . S
C762 C764 1.320 . S
C763 C761 1.339 . S
C763 C762 1.395 . S
C763 H789 0.929 . S
C764 C762 1.320 . S
C764 C765 1.405 . S
C764 H790 0.930 . S
C765 C760 1.479 . S
C765 C764 1.405 . S
C765 H791 0.931 . S
U766 O767 2.454 . S
U766 O768 2.458 . S
U766 C769 2.984 . S
U766 C770 2.847 . S
U766 C783 2.882 . S
U766 O784 2.441 . S
U766 O785 2.420 . S
U766 O786 2.455 . S
U766 O787 2.449 . S
O767 U766 2.454 . S
O767 C769 1.353 . S
O768 U766 2.458 . S
O768 C769 1.286 . S
C769 U766 2.984 . S
C769 O767 1.353 . S
C769 O768 1.286 . S
C769 C771 1.363 . S
C770 C760 1.465 . S
C770 U766 2.847 . S
C770 O784 1.249 . S
C770 O785 1.202 . S
C771 C769 1.363 . S
C771 C773 1.408 . S
C771 C776 1.342 . S
C772 C773 1.310 . S
C772 C775 1.461 . S
C772 H792 0.932 . S
C773 C771 1.408 . S
C773 C772 1.310 . S
C773 H793 0.930 . S
C774 C775 1.474 . S
C774 C776 1.285 . S
C774 H794 0.929 . S
C775 C772 1.461 . S
C775 C774 1.474 . S
C776 C771 1.342 . S
C776 C774 1.285 . S
C776 H795 0.930 . S
C777 C780 1.424 . S
C777 C782 1.245 . S
C777 C783 1.428 . S
C778 C781 1.260 . S
C778 C782 1.477 . S
C778 H796 0.932 . S
C779 C780 1.384 . S
C779 C781 1.479 . S
C779 H797 0.929 . S
C780 C777 1.424 . S
C780 C779 1.384 . S
C780 H798 0.928 . S
C781 C778 1.260 . S
C781 C779 1.479 . S
C782 C777 1.245 . S
C782 C778 1.477 . S
C782 H799 0.932 . S
C783 U766 2.882 . S
C783 C777 1.428 . S
C783 O786 1.301 . S
C783 O787 1.282 . S
O784 U766 2.441 . S
O784 C770 1.249 . S
O785 U766 2.420 . S
O785 C770 1.202 . S
O786 U766 2.455 . S
O786 C783 1.301 . S
O787 U766 2.449 . S
O787 C783 1.282 . S
H788 C761 0.931 . S
H789 C763 0.929 . S
H790 C764 0.930 . S
H791 C765 0.931 . S
H792 C772 0.932 . S
H793 C773 0.930 . S
H794 C774 0.929 . S
H795 C776 0.930 . S
H796 C778 0.932 . S
H797 C779 0.929 . S
H798 C780 0.928 . S
H799 C782 0.932 . S
C800 C801 1.264 . S
C800 C805 1.479 . S
C800 C810 1.465 . S
C801 C800 1.264 . S
C801 C803 1.339 . S
C801 H828 0.931 . S
C802 C803 1.395 . S
C802 C804 1.320 . S
C803 C801 1.339 . S
C803 C802 1.395 . S
C803 H829 0.929 . S
C804 C802 1.320 . S
C804 C805 1.405 . S
C804 H830 0.930 . S
C805 C800 1.479 . S
C805 C804 1.405 . S
C805 H831 0.931 . S
U806 O807 2.454 . S
U806 O808 2.458 . S
U806 C809 2.984 . S
U806 C810 2.847 . S
U806 C823 2.882 . S
U806 O824 2.441 . S
U806 O825 2.420 . S
U806 O826 2.455 . S
U806 O827 2.449 . S
O807 U806 2.454 . S
O807 C809 1.353 . S
O808 U806 2.458 . S
O808 C809 1.286 . S
C809 U806 2.984 . S
C809 O807 1.353 . S
C809 O808 1.286 . S
C809 C811 1.363 . S
C810 C800 1.465 . S
C810 U806 2.847 . S
C810 O824 1.249 . S
C810 O825 1.202 . S
C811 C809 1.363 . S
C811 C813 1.408 . S
C811 C816 1.342 . S
C812 C813 1.310 . S
C812 C815 1.461 . S
C812 H832 0.932 . S
C813 C811 1.408 . S
C813 C812 1.310 . S
C813 H833 0.930 . S
C814 C815 1.474 . S
C814 C816 1.285 . S
C814 H834 0.929 . S
C815 C812 1.461 . S
C815 C814 1.474 . S
C816 C811 1.342 . S
C816 C814 1.285 . S
C816 H835 0.930 . S
C817 C820 1.424 . S
C817 C822 1.245 . S
C817 C823 1.428 . S
C818 C821 1.260 . S
C818 C822 1.477 . S
C818 H836 0.932 . S
C819 C820 1.384 . S
C819 C821 1.479 . S
C819 H837 0.929 . S
C820 C817 1.424 . S
C820 C819 1.384 . S
C820 H838 0.928 . S
C821 C818 1.260 . S
C821 C819 1.479 . S
C822 C817 1.245 . S
C822 C818 1.477 . S
C822 H839 0.932 . S
C823 U806 2.882 . S
C823 C817 1.428 . S
C823 O826 1.301 . S
C823 O827 1.282 . S
O824 U806 2.441 . S
O824 C810 1.249 . S
O825 U806 2.420 . S
O825 C810 1.202 . S
O826 U806 2.455 . S
O826 C823 1.301 . S
O827 U806 2.449 . S
O827 C823 1.282 . S
H828 C801 0.931 . S
H829 C803 0.929 . S
H830 C804 0.930 . S
H831 C805 0.931 . S
H832 C812 0.932 . S
H833 C813 0.930 . S
H834 C814 0.929 . S
H835 C816 0.930 . S
H836 C818 0.932 . S
H837 C819 0.929 . S
H838 C820 0.928 . S
H839 C822 0.932 . S
C840 C841 1.264 . S
C840 C845 1.479 . S
C840 C850 1.465 . S
C841 C840 1.264 . S
C841 C843 1.339 . S
C841 H868 0.931 . S
C842 C843 1.395 . S
C842 C844 1.320 . S
C843 C841 1.339 . S
C843 C842 1.395 . S
C843 H869 0.929 . S
C844 C842 1.320 . S
C844 C845 1.405 . S
C844 H870 0.930 . S
C845 C840 1.479 . S
C845 C844 1.405 . S
C845 H871 0.931 . S
U846 O847 2.454 . S
U846 O848 2.458 . S
U846 C849 2.984 . S
U846 C850 2.847 . S
U846 C863 2.882 . S
U846 O864 2.441 . S
U846 O865 2.420 . S
U846 O866 2.455 . S
U846 O867 2.449 . S
O847 U846 2.454 . S
O847 C849 1.353 . S
O848 U846 2.458 . S
O848 C849 1.286 . S
C849 U846 2.984 . S
C849 O847 1.353 . S
C849 O848 1.286 . S
C849 C851 1.363 . S
C850 C840 1.465 . S
C850 U846 2.847 . S
C850 O864 1.249 . S
C850 O865 1.202 . S
C851 C849 1.363 . S
C851 C853 1.408 . S
C851 C856 1.342 . S
C852 C853 1.310 . S
C852 C855 1.461 . S
C852 H872 0.932 . S
C853 C851 1.408 . S
C853 C852 1.310 . S
C853 H873 0.930 . S
C854 C855 1.474 . S
C854 C856 1.285 . S
C854 H874 0.929 . S
C855 C852 1.461 . S
C855 C854 1.474 . S
C856 C851 1.342 . S
C856 C854 1.285 . S
C856 H875 0.930 . S
C857 C860 1.424 . S
C857 C862 1.245 . S
C857 C863 1.428 . S
C858 C861 1.260 . S
C858 C862 1.477 . S
C858 H876 0.932 . S
C859 C860 1.384 . S
C859 C861 1.479 . S
C859 H877 0.929 . S
C860 C857 1.424 . S
C860 C859 1.384 . S
C860 H878 0.928 . S
C861 C858 1.260 . S
C861 C859 1.479 . S
C862 C857 1.245 . S
C862 C858 1.477 . S
C862 H879 0.932 . S
C863 U846 2.882 . S
C863 C857 1.428 . S
C863 O866 1.301 . S
C863 O867 1.282 . S
O864 U846 2.441 . S
O864 C850 1.249 . S
O865 U846 2.420 . S
O865 C850 1.202 . S
O866 U846 2.455 . S
O866 C863 1.301 . S
O867 U846 2.449 . S
O867 C863 1.282 . S
H868 C841 0.931 . S
H869 C843 0.929 . S
H870 C844 0.930 . S
H871 C845 0.931 . S
H872 C852 0.932 . S
H873 C853 0.930 . S
H874 C854 0.929 . S
H875 C856 0.930 . S
H876 C858 0.932 . S
H877 C859 0.929 . S
H878 C860 0.928 . S
H879 C862 0.932 . S
C880 C881 1.264 . S
C880 C885 1.479 . S
C880 C890 1.465 . S
C881 C880 1.264 . S
C881 C883 1.339 . S
C881 H908 0.931 . S
C882 C883 1.395 . S
C882 C884 1.320 . S
C883 C881 1.339 . S
C883 C882 1.395 . S
C883 H909 0.929 . S
C884 C882 1.320 . S
C884 C885 1.405 . S
C884 H910 0.930 . S
C885 C880 1.479 . S
C885 C884 1.405 . S
C885 H911 0.931 . S
U886 O887 2.454 . S
U886 O888 2.458 . S
U886 C889 2.984 . S
U886 C890 2.847 . S
U886 C903 2.882 . S
U886 O904 2.441 . S
U886 O905 2.420 . S
U886 O906 2.455 . S
U886 O907 2.449 . S
O887 U886 2.454 . S
O887 C889 1.353 . S
O888 U886 2.458 . S
O888 C889 1.286 . S
C889 U886 2.984 . S
C889 O887 1.353 . S
C889 O888 1.286 . S
C889 C891 1.363 . S
C890 C880 1.465 . S
C890 U886 2.847 . S
C890 O904 1.249 . S
C890 O905 1.202 . S
C891 C889 1.363 . S
C891 C893 1.408 . S
C891 C896 1.342 . S
C892 C893 1.310 . S
C892 C895 1.461 . S
C892 H912 0.932 . S
C893 C891 1.408 . S
C893 C892 1.310 . S
C893 H913 0.930 . S
C894 C895 1.474 . S
C894 C896 1.285 . S
C894 H914 0.929 . S
C895 C892 1.461 . S
C895 C894 1.474 . S
C896 C891 1.342 . S
C896 C894 1.285 . S
C896 H915 0.930 . S
C897 C900 1.424 . S
C897 C902 1.245 . S
C897 C903 1.428 . S
C898 C901 1.260 . S
C898 C902 1.477 . S
C898 H916 0.932 . S
C899 C900 1.384 . S
C899 C901 1.479 . S
C899 H917 0.929 . S
C900 C897 1.424 . S
C900 C899 1.384 . S
C900 H918 0.928 . S
C901 C898 1.260 . S
C901 C899 1.479 . S
C902 C897 1.245 . S
C902 C898 1.477 . S
C902 H919 0.932 . S
C903 U886 2.882 . S
C903 C897 1.428 . S
C903 O906 1.301 . S
C903 O907 1.282 . S
O904 U886 2.441 . S
O904 C890 1.249 . S
O905 U886 2.420 . S
O905 C890 1.202 . S
O906 U886 2.455 . S
O906 C903 1.301 . S
O907 U886 2.449 . S
O907 C903 1.282 . S
H908 C881 0.931 . S
H909 C883 0.929 . S
H910 C884 0.930 . S
H911 C885 0.931 . S
H912 C892 0.932 . S
H913 C893 0.930 . S
H914 C894 0.929 . S
H915 C896 0.930 . S
H916 C898 0.932 . S
H917 C899 0.929 . S
H918 C900 0.928 . S
H919 C902 0.932 . S
C920 C921 1.264 . S
C920 C925 1.479 . S
C920 C930 1.465 . S
C921 C920 1.264 . S
C921 C923 1.339 . S
C921 H948 0.931 . S
C922 C923 1.395 . S
C922 C924 1.320 . S
C923 C921 1.339 . S
C923 C922 1.395 . S
C923 H949 0.929 . S
C924 C922 1.320 . S
C924 C925 1.405 . S
C924 H950 0.930 . S
C925 C920 1.479 . S
C925 C924 1.405 . S
C925 H951 0.931 . S
U926 O927 2.454 . S
U926 O928 2.458 . S
U926 C929 2.984 . S
U926 C930 2.847 . S
U926 C943 2.882 . S
U926 O944 2.441 . S
U926 O945 2.420 . S
U926 O946 2.455 . S
U926 O947 2.449 . S
O927 U926 2.454 . S
O927 C929 1.353 . S
O928 U926 2.458 . S
O928 C929 1.286 . S
C929 U926 2.984 . S
C929 O927 1.353 . S
C929 O928 1.286 . S
C929 C931 1.363 . S
C930 C920 1.465 . S
C930 U926 2.847 . S
C930 O944 1.249 . S
C930 O945 1.202 . S
C931 C929 1.363 . S
C931 C933 1.408 . S
C931 C936 1.342 . S
C932 C933 1.310 . S
C932 C935 1.461 . S
C932 H952 0.932 . S
C933 C931 1.408 . S
C933 C932 1.310 . S
C933 H953 0.930 . S
C934 C935 1.474 . S
C934 C936 1.285 . S
C934 H954 0.929 . S
C935 C932 1.461 . S
C935 C934 1.474 . S
C936 C931 1.342 . S
C936 C934 1.285 . S
C936 H955 0.930 . S
C937 C940 1.424 . S
C937 C942 1.245 . S
C937 C943 1.428 . S
C938 C941 1.260 . S
C938 C942 1.477 . S
C938 H956 0.932 . S
C939 C940 1.384 . S
C939 C941 1.479 . S
C939 H957 0.929 . S
C940 C937 1.424 . S
C940 C939 1.384 . S
C940 H958 0.928 . S
C941 C938 1.260 . S
C941 C939 1.479 . S
C942 C937 1.245 . S
C942 C938 1.477 . S
C942 H959 0.932 . S
C943 U926 2.882 . S
C943 C937 1.428 . S
C943 O946 1.301 . S
C943 O947 1.282 . S
O944 U926 2.441 . S
O944 C930 1.249 . S
O945 U926 2.420 . S
O945 C930 1.202 . S
O946 U926 2.455 . S
O946 C943 1.301 . S
O947 U926 2.449 . S
O947 C943 1.282 . S
H948 C921 0.931 . S
H949 C923 0.929 . S
H950 C924 0.930 . S
H951 C925 0.931 . S
H952 C932 0.932 . S
H953 C933 0.930 . S
H954 C934 0.929 . S
H955 C936 0.930 . S
H956 C938 0.932 . S
H957 C939 0.929 . S
H958 C940 0.928 . S
H959 C942 0.932 . S
C960 C961 1.264 . S
C960 C965 1.479 . S
C960 C970 1.465 . S
C961 C960 1.264 . S
C961 C963 1.339 . S
C961 H988 0.931 . S
C962 C963 1.395 . S
C962 C964 1.320 . S
C963 C961 1.339 . S
C963 C962 1.395 . S
C963 H989 0.929 . S
C964 C962 1.320 . S
C964 C965 1.405 . S
C964 H990 0.930 . S
C965 C960 1.479 . S
C965 C964 1.405 . S
C965 H991 0.931 . S
U966 O967 2.454 . S
U966 O968 2.458 . S
U966 C969 2.984 . S
U966 C970 2.847 . S
U966 C983 2.882 . S
U966 O984 2.441 . S
U966 O985 2.420 . S
U966 O986 2.455 . S
U966 O987 2.449 . S
O967 U966 2.454 . S
O967 C969 1.353 . S
O968 U966 2.458 . S
O968 C969 1.286 . S
C969 U966 2.984 . S
C969 O967 1.353 . S
C969 O968 1.286 . S
C969 C971 1.363 . S
C970 C960 1.465 . S
C970 U966 2.847 . S
C970 O984 1.249 . S
C970 O985 1.202 . S
C971 C969 1.363 . S
C971 C973 1.408 . S
C971 C976 1.342 . S
C972 C973 1.310 . S
C972 C975 1.461 . S
C972 H992 0.932 . S
C973 C971 1.408 . S
C973 C972 1.310 . S
C973 H993 0.930 . S
C974 C975 1.474 . S
C974 C976 1.285 . S
C974 H994 0.929 . S
C975 C972 1.461 . S
C975 C974 1.474 . S
C976 C971 1.342 . S
C976 C974 1.285 . S
C976 H995 0.930 . S
C977 C980 1.424 . S
C977 C982 1.245 . S
C977 C983 1.428 . S
C978 C981 1.260 . S
C978 C982 1.477 . S
C978 H996 0.932 . S
C979 C980 1.384 . S
C979 C981 1.479 . S
C979 H997 0.929 . S
C980 C977 1.424 . S
C980 C979 1.384 . S
C980 H998 0.928 . S
C981 C978 1.260 . S
C981 C979 1.479 . S
C982 C977 1.245 . S
C982 C978 1.477 . S
C982 H999 0.932 . S
C983 U966 2.882 . S
C983 C977 1.428 . S
C983 O986 1.301 . S
C983 O987 1.282 . S
O984 U966 2.441 . S
O984 C970 1.249 . S
O985 U966 2.420 . S
O985 C970 1.202 . S
O986 U966 2.455 . S
O986 C983 1.301 . S
O987 U966 2.449 . S
O987 C983 1.282 . S
H988 C961 0.931 . S
H989 C963 0.929 . S
H990 C964 0.930 . S
H991 C965 0.931 . S
H992 C972 0.932 . S
H993 C973 0.930 . S
H994 C974 0.929 . S
H995 C976 0.930 . S
H996 C978 0.932 . S
H997 C979 0.929 . S
H998 C980 0.928 . S
H999 C982 0.932 . S
C1000 C1001 1.264 . S
C1000 C1005 1.479 . S
C1000 C1010 1.465 . S
C1001 C1000 1.264 . S
C1001 C1003 1.339 . S
C1001 H1028 0.931 . S
C1002 C1003 1.395 . S
C1002 C1004 1.320 . S
C1003 C1001 1.339 . S
C1003 C1002 1.395 . S
C1003 H1029 0.929 . S
C1004 C1002 1.320 . S
C1004 C1005 1.405 . S
C1004 H1030 0.930 . S
C1005 C1000 1.479 . S
C1005 C1004 1.405 . S
C1005 H1031 0.931 . S
U1006 O1007 2.454 . S
U1006 O1008 2.458 . S
U1006 C1009 2.984 . S
U1006 C1010 2.847 . S
U1006 C1023 2.882 . S
U1006 O1024 2.441 . S
U1006 O1025 2.420 . S
U1006 O1026 2.455 . S
U1006 O1027 2.449 . S
O1007 U1006 2.454 . S
O1007 C1009 1.353 . S
O1008 U1006 2.458 . S
O1008 C1009 1.286 . S
C1009 U1006 2.984 . S
C1009 O1007 1.353 . S
C1009 O1008 1.286 . S
C1009 C1011 1.363 . S
C1010 C1000 1.465 . S
C1010 U1006 2.847 . S
C1010 O1024 1.249 . S
C1010 O1025 1.202 . S
C1011 C1009 1.363 . S
C1011 C1013 1.408 . S
C1011 C1016 1.342 . S
C1012 C1013 1.310 . S
C1012 C1015 1.461 . S
C1012 H1032 0.932 . S
C1013 C1011 1.408 . S
C1013 C1012 1.310 . S
C1013 H1033 0.930 . S
C1014 C1015 1.474 . S
C1014 C1016 1.285 . S
C1014 H1034 0.929 . S
C1015 C1012 1.461 . S
C1015 C1014 1.474 . S
C1016 C1011 1.342 . S
C1016 C1014 1.285 . S
C1016 H1035 0.930 . S
C1017 C1020 1.424 . S
C1017 C1022 1.245 . S
C1017 C1023 1.428 . S
C1018 C1021 1.260 . S
C1018 C1022 1.477 . S
C1018 H1036 0.932 . S
C1019 C1020 1.384 . S
C1019 C1021 1.479 . S
C1019 H1037 0.929 . S
C1020 C1017 1.424 . S
C1020 C1019 1.384 . S
C1020 H1038 0.928 . S
C1021 C1018 1.260 . S
C1021 C1019 1.479 . S
C1022 C1017 1.245 . S
C1022 C1018 1.477 . S
C1022 H1039 0.932 . S
C1023 U1006 2.882 . S
C1023 C1017 1.428 . S
C1023 O1026 1.301 . S
C1023 O1027 1.282 . S
O1024 U1006 2.441 . S
O1024 C1010 1.249 . S
O1025 U1006 2.420 . S
O1025 C1010 1.202 . S
O1026 U1006 2.455 . S
O1026 C1023 1.301 . S
O1027 U1006 2.449 . S
O1027 C1023 1.282 . S
H1028 C1001 0.931 . S
H1029 C1003 0.929 . S
H1030 C1004 0.930 . S
H1031 C1005 0.931 . S
H1032 C1012 0.932 . S
H1033 C1013 0.930 . S
H1034 C1014 0.929 . S
H1035 C1016 0.930 . S
H1036 C1018 0.932 . S
H1037 C1019 0.929 . S
H1038 C1020 0.928 . S
H1039 C1022 0.932 . S
C1040 C1041 1.264 . S
C1040 C1045 1.479 . S
C1040 C1050 1.465 . S
C1041 C1040 1.264 . S
C1041 C1043 1.339 . S
C1041 H1068 0.931 . S
C1042 C1043 1.395 . S
C1042 C1044 1.320 . S
C1043 C1041 1.339 . S
C1043 C1042 1.395 . S
C1043 H1069 0.929 . S
C1044 C1042 1.320 . S
C1044 C1045 1.405 . S
C1044 H1070 0.930 . S
C1045 C1040 1.479 . S
C1045 C1044 1.405 . S
C1045 H1071 0.931 . S
U1046 O1047 2.454 . S
U1046 O1048 2.458 . S
U1046 C1049 2.984 . S
U1046 C1050 2.847 . S
U1046 C1063 2.882 . S
U1046 O1064 2.441 . S
U1046 O1065 2.420 . S
U1046 O1066 2.455 . S
U1046 O1067 2.449 . S
O1047 U1046 2.454 . S
O1047 C1049 1.353 . S
O1048 U1046 2.458 . S
O1048 C1049 1.286 . S
C1049 U1046 2.984 . S
C1049 O1047 1.353 . S
C1049 O1048 1.286 . S
C1049 C1051 1.363 . S
C1050 C1040 1.465 . S
C1050 U1046 2.847 . S
C1050 O1064 1.249 . S
C1050 O1065 1.202 . S
C1051 C1049 1.363 . S
C1051 C1053 1.408 . S
C1051 C1056 1.342 . S
C1052 C1053 1.310 . S
C1052 C1055 1.461 . S
C1052 H1072 0.932 . S
C1053 C1051 1.408 . S
C1053 C1052 1.310 . S
C1053 H1073 0.930 . S
C1054 C1055 1.474 . S
C1054 C1056 1.285 . S
C1054 H1074 0.929 . S
C1055 C1052 1.461 . S
C1055 C1054 1.474 . S
C1056 C1051 1.342 . S
C1056 C1054 1.285 . S
C1056 H1075 0.930 . S
C1057 C1060 1.424 . S
C1057 C1062 1.245 . S
C1057 C1063 1.428 . S
C1058 C1061 1.260 . S
C1058 C1062 1.477 . S
C1058 H1076 0.932 . S
C1059 C1060 1.384 . S
C1059 C1061 1.479 . S
C1059 H1077 0.929 . S
C1060 C1057 1.424 . S
C1060 C1059 1.384 . S
C1060 H1078 0.928 . S
C1061 C1058 1.260 . S
C1061 C1059 1.479 . S
C1062 C1057 1.245 . S
C1062 C1058 1.477 . S
C1062 H1079 0.932 . S
C1063 U1046 2.882 . S
C1063 C1057 1.428 . S
C1063 O1066 1.301 . S
C1063 O1067 1.282 . S
O1064 U1046 2.441 . S
O1064 C1050 1.249 . S
O1065 U1046 2.420 . S
O1065 C1050 1.202 . S
O1066 U1046 2.455 . S
O1066 C1063 1.301 . S
O1067 U1046 2.449 . S
O1067 C1063 1.282 . S
H1068 C1041 0.931 . S
H1069 C1043 0.929 . S
H1070 C1044 0.930 . S
H1071 C1045 0.931 . S
H1072 C1052 0.932 . S
H1073 C1053 0.930 . S
H1074 C1054 0.929 . S
H1075 C1056 0.930 . S
H1076 C1058 0.932 . S
H1077 C1059 0.929 . S
H1078 C1060 0.928 . S
H1079 C1062 0.932 . S
C1080 C1081 1.264 . S
C1080 C1085 1.479 . S
C1080 C1090 1.465 . S
C1081 C1080 1.264 . S
C1081 C1083 1.339 . S
C1081 H1108 0.931 . S
C1082 C1083 1.395 . S
C1082 C1084 1.320 . S
C1083 C1081 1.339 . S
C1083 C1082 1.395 . S
C1083 H1109 0.929 . S
C1084 C1082 1.320 . S
C1084 C1085 1.405 . S
C1084 H1110 0.930 . S
C1085 C1080 1.479 . S
C1085 C1084 1.405 . S
C1085 H1111 0.931 . S
U1086 O1087 2.454 . S
U1086 O1088 2.458 . S
U1086 C1089 2.984 . S
U1086 C1090 2.847 . S
U1086 C1103 2.882 . S
U1086 O1104 2.441 . S
U1086 O1105 2.420 . S
U1086 O1106 2.455 . S
U1086 O1107 2.449 . S
O1087 U1086 2.454 . S
O1087 C1089 1.353 . S
O1088 U1086 2.458 . S
O1088 C1089 1.286 . S
C1089 U1086 2.984 . S
C1089 O1087 1.353 . S
C1089 O1088 1.286 . S
C1089 C1091 1.363 . S
C1090 C1080 1.465 . S
C1090 U1086 2.847 . S
C1090 O1104 1.249 . S
C1090 O1105 1.202 . S
C1091 C1089 1.363 . S
C1091 C1093 1.408 . S
C1091 C1096 1.342 . S
C1092 C1093 1.310 . S
C1092 C1095 1.461 . S
C1092 H1112 0.932 . S
C1093 C1091 1.408 . S
C1093 C1092 1.310 . S
C1093 H1113 0.930 . S
C1094 C1095 1.474 . S
C1094 C1096 1.285 . S
C1094 H1114 0.929 . S
C1095 C1092 1.461 . S
C1095 C1094 1.474 . S
C1096 C1091 1.342 . S
C1096 C1094 1.285 . S
C1096 H1115 0.930 . S
C1097 C1100 1.424 . S
C1097 C1102 1.245 . S
C1097 C1103 1.428 . S
C1098 C1101 1.260 . S
C1098 C1102 1.477 . S
C1098 H1116 0.932 . S
C1099 C1100 1.384 . S
C1099 C1101 1.479 . S
C1099 H1117 0.929 . S
C1100 C1097 1.424 . S
C1100 C1099 1.384 . S
C1100 H1118 0.928 . S
C1101 C1098 1.260 . S
C1101 C1099 1.479 . S
C1102 C1097 1.245 . S
C1102 C1098 1.477 . S
C1102 H1119 0.932 . S
C1103 U1086 2.882 . S
C1103 C1097 1.428 . S
C1103 O1106 1.301 . S
C1103 O1107 1.282 . S
O1104 U1086 2.441 . S
O1104 C1090 1.249 . S
O1105 U1086 2.420 . S
O1105 C1090 1.202 . S
O1106 U1086 2.455 . S
O1106 C1103 1.301 . S
O1107 U1086 2.449 . S
O1107 C1103 1.282 . S
H1108 C1081 0.931 . S
H1109 C1083 0.929 . S
H1110 C1084 0.930 . S
H1111 C1085 0.931 . S
H1112 C1092 0.932 . S
H1113 C1093 0.930 . S
H1114 C1094 0.929 . S
H1115 C1096 0.930 . S
H1116 C1098 0.932 . S
H1117 C1099 0.929 . S
H1118 C1100 0.928 . S
H1119 C1102 0.932 . S
C1120 C1121 1.264 . S
C1120 C1125 1.479 . S
C1120 C1130 1.465 . S
C1121 C1120 1.264 . S
C1121 C1123 1.339 . S
C1121 H1148 0.931 . S
C1122 C1123 1.395 . S
C1122 C1124 1.320 . S
C1123 C1121 1.339 . S
C1123 C1122 1.395 . S
C1123 H1149 0.929 . S
C1124 C1122 1.320 . S
C1124 C1125 1.405 . S
C1124 H1150 0.930 . S
C1125 C1120 1.479 . S
C1125 C1124 1.405 . S
C1125 H1151 0.931 . S
U1126 O1127 2.454 . S
U1126 O1128 2.458 . S
U1126 C1129 2.984 . S
U1126 C1130 2.847 . S
U1126 C1143 2.882 . S
U1126 O1144 2.441 . S
U1126 O1145 2.420 . S
U1126 O1146 2.455 . S
U1126 O1147 2.449 . S
O1127 U1126 2.454 . S
O1127 C1129 1.353 . S
O1128 U1126 2.458 . S
O1128 C1129 1.286 . S
C1129 U1126 2.984 . S
C1129 O1127 1.353 . S
C1129 O1128 1.286 . S
C1129 C1131 1.363 . S
C1130 C1120 1.465 . S
C1130 U1126 2.847 . S
C1130 O1144 1.249 . S
C1130 O1145 1.202 . S
C1131 C1129 1.363 . S
C1131 C1133 1.408 . S
C1131 C1136 1.342 . S
C1132 C1133 1.310 . S
C1132 C1135 1.461 . S
C1132 H1152 0.932 . S
C1133 C1131 1.408 . S
C1133 C1132 1.310 . S
C1133 H1153 0.930 . S
C1134 C1135 1.474 . S
C1134 C1136 1.285 . S
C1134 H1154 0.929 . S
C1135 C1132 1.461 . S
C1135 C1134 1.474 . S
C1136 C1131 1.342 . S
C1136 C1134 1.285 . S
C1136 H1155 0.930 . S
C1137 C1140 1.424 . S
C1137 C1142 1.245 . S
C1137 C1143 1.428 . S
C1138 C1141 1.260 . S
C1138 C1142 1.477 . S
C1138 H1156 0.932 . S
C1139 C1140 1.384 . S
C1139 C1141 1.479 . S
C1139 H1157 0.929 . S
C1140 C1137 1.424 . S
C1140 C1139 1.384 . S
C1140 H1158 0.928 . S
C1141 C1138 1.260 . S
C1141 C1139 1.479 . S
C1142 C1137 1.245 . S
C1142 C1138 1.477 . S
C1142 H1159 0.932 . S
C1143 U1126 2.882 . S
C1143 C1137 1.428 . S
C1143 O1146 1.301 . S
C1143 O1147 1.282 . S
O1144 U1126 2.441 . S
O1144 C1130 1.249 . S
O1145 U1126 2.420 . S
O1145 C1130 1.202 . S
O1146 U1126 2.455 . S
O1146 C1143 1.301 . S
O1147 U1126 2.449 . S
O1147 C1143 1.282 . S
H1148 C1121 0.931 . S
H1149 C1123 0.929 . S
H1150 C1124 0.930 . S
H1151 C1125 0.931 . S
H1152 C1132 0.932 . S
H1153 C1133 0.930 . S
H1154 C1134 0.929 . S
H1155 C1136 0.930 . S
H1156 C1138 0.932 . S
H1157 C1139 0.929 . S
H1158 C1140 0.928 . S
H1159 C1142 0.932 . S
C1160 C1161 1.264 . S
C1160 C1165 1.479 . S
C1160 C1170 1.465 . S
C1161 C1160 1.264 . S
C1161 C1163 1.339 . S
C1161 H1188 0.931 . S
C1162 C1163 1.395 . S
C1162 C1164 1.320 . S
C1163 C1161 1.339 . S
C1163 C1162 1.395 . S
C1163 H1189 0.929 . S
C1164 C1162 1.320 . S
C1164 C1165 1.405 . S
C1164 H1190 0.930 . S
C1165 C1160 1.479 . S
C1165 C1164 1.405 . S
C1165 H1191 0.931 . S
U1166 O1167 2.454 . S
U1166 O1168 2.458 . S
U1166 C1169 2.984 . S
U1166 C1170 2.847 . S
U1166 C1183 2.882 . S
U1166 O1184 2.441 . S
U1166 O1185 2.420 . S
U1166 O1186 2.455 . S
U1166 O1187 2.449 . S
O1167 U1166 2.454 . S
O1167 C1169 1.353 . S
O1168 U1166 2.458 . S
O1168 C1169 1.286 . S
C1169 U1166 2.984 . S
C1169 O1167 1.353 . S
C1169 O1168 1.286 . S
C1169 C1171 1.363 . S
C1170 C1160 1.465 . S
C1170 U1166 2.847 . S
C1170 O1184 1.249 . S
C1170 O1185 1.202 . S
C1171 C1169 1.363 . S
C1171 C1173 1.408 . S
C1171 C1176 1.342 . S
C1172 C1173 1.310 . S
C1172 C1175 1.461 . S
C1172 H1192 0.932 . S
C1173 C1171 1.408 . S
C1173 C1172 1.310 . S
C1173 H1193 0.930 . S
C1174 C1175 1.474 . S
C1174 C1176 1.285 . S
C1174 H1194 0.929 . S
C1175 C1172 1.461 . S
C1175 C1174 1.474 . S
C1176 C1171 1.342 . S
C1176 C1174 1.285 . S
C1176 H1195 0.930 . S
C1177 C1180 1.424 . S
C1177 C1182 1.245 . S
C1177 C1183 1.428 . S
C1178 C1181 1.260 . S
C1178 C1182 1.477 . S
C1178 H1196 0.932 . S
C1179 C1180 1.384 . S
C1179 C1181 1.479 . S
C1179 H1197 0.929 . S
C1180 C1177 1.424 . S
C1180 C1179 1.384 . S
C1180 H1198 0.928 . S
C1181 C1178 1.260 . S
C1181 C1179 1.479 . S
C1182 C1177 1.245 . S
C1182 C1178 1.477 . S
C1182 H1199 0.932 . S
C1183 U1166 2.882 . S
C1183 C1177 1.428 . S
C1183 O1186 1.301 . S
C1183 O1187 1.282 . S
O1184 U1166 2.441 . S
O1184 C1170 1.249 . S
O1185 U1166 2.420 . S
O1185 C1170 1.202 . S
O1186 U1166 2.455 . S
O1186 C1183 1.301 . S
O1187 U1166 2.449 . S
O1187 C1183 1.282 . S
H1188 C1161 0.931 . S
H1189 C1163 0.929 . S
H1190 C1164 0.930 . S
H1191 C1165 0.931 . S
H1192 C1172 0.932 . S
H1193 C1173 0.930 . S
H1194 C1174 0.929 . S
H1195 C1176 0.930 . S
H1196 C1178 0.932 . S
H1197 C1179 0.929 . S
H1198 C1180 0.928 . S
H1199 C1182 0.932 . S
C1200 C1201 1.264 . S
C1200 C1205 1.479 . S
C1200 C1210 1.465 . S
C1201 C1200 1.264 . S
C1201 C1203 1.339 . S
C1201 H1228 0.931 . S
C1202 C1203 1.395 . S
C1202 C1204 1.320 . S
C1203 C1201 1.339 . S
C1203 C1202 1.395 . S
C1203 H1229 0.929 . S
C1204 C1202 1.320 . S
C1204 C1205 1.405 . S
C1204 H1230 0.930 . S
C1205 C1200 1.479 . S
C1205 C1204 1.405 . S
C1205 H1231 0.931 . S
U1206 O1207 2.454 . S
U1206 O1208 2.458 . S
U1206 C1209 2.984 . S
U1206 C1210 2.847 . S
U1206 C1223 2.882 . S
U1206 O1224 2.441 . S
U1206 O1225 2.420 . S
U1206 O1226 2.455 . S
U1206 O1227 2.449 . S
O1207 U1206 2.454 . S
O1207 C1209 1.353 . S
O1208 U1206 2.458 . S
O1208 C1209 1.286 . S
C1209 U1206 2.984 . S
C1209 O1207 1.353 . S
C1209 O1208 1.286 . S
C1209 C1211 1.363 . S
C1210 C1200 1.465 . S
C1210 U1206 2.847 . S
C1210 O1224 1.249 . S
C1210 O1225 1.202 . S
C1211 C1209 1.363 . S
C1211 C1213 1.408 . S
C1211 C1216 1.342 . S
C1212 C1213 1.310 . S
C1212 C1215 1.461 . S
C1212 H1232 0.932 . S
C1213 C1211 1.408 . S
C1213 C1212 1.310 . S
C1213 H1233 0.930 . S
C1214 C1215 1.474 . S
C1214 C1216 1.285 . S
C1214 H1234 0.929 . S
C1215 C1212 1.461 . S
C1215 C1214 1.474 . S
C1216 C1211 1.342 . S
C1216 C1214 1.285 . S
C1216 H1235 0.930 . S
C1217 C1220 1.424 . S
C1217 C1222 1.245 . S
C1217 C1223 1.428 . S
C1218 C1221 1.260 . S
C1218 C1222 1.477 . S
C1218 H1236 0.932 . S
C1219 C1220 1.384 . S
C1219 C1221 1.479 . S
C1219 H1237 0.929 . S
C1220 C1217 1.424 . S
C1220 C1219 1.384 . S
C1220 H1238 0.928 . S
C1221 C1218 1.260 . S
C1221 C1219 1.479 . S
C1222 C1217 1.245 . S
C1222 C1218 1.477 . S
C1222 H1239 0.932 . S
C1223 U1206 2.882 . S
C1223 C1217 1.428 . S
C1223 O1226 1.301 . S
C1223 O1227 1.282 . S
O1224 U1206 2.441 . S
O1224 C1210 1.249 . S
O1225 U1206 2.420 . S
O1225 C1210 1.202 . S
O1226 U1206 2.455 . S
O1226 C1223 1.301 . S
O1227 U1206 2.449 . S
O1227 C1223 1.282 . S
H1228 C1201 0.931 . S
H1229 C1203 0.929 . S
H1230 C1204 0.930 . S
H1231 C1205 0.931 . S
H1232 C1212 0.932 . S
H1233 C1213 0.930 . S
H1234 C1214 0.929 . S
H1235 C1216 0.930 . S
H1236 C1218 0.932 . S
H1237 C1219 0.929 . S
H1238 C1220 0.928 . S
H1239 C1222 0.932 . S
C1240 C1241 1.264 . S
C1240 C1245 1.479 . S
C1240 C1250 1.465 . S
C1241 C1240 1.264 . S
C1241 C1243 1.339 . S
C1241 H1268 0.931 . S
C1242 C1243 1.395 . S
C1242 C1244 1.320 . S
C1243 C1241 1.339 . S
C1243 C1242 1.395 . S
C1243 H1269 0.929 . S
C1244 C1242 1.320 . S
C1244 C1245 1.405 . S
C1244 H1270 0.930 . S
C1245 C1240 1.479 . S
C1245 C1244 1.405 . S
C1245 H1271 0.931 . S
U1246 O1247 2.454 . S
U1246 O1248 2.458 . S
U1246 C1249 2.984 . S
U1246 C1250 2.847 . S
U1246 C1263 2.882 . S
U1246 O1264 2.441 . S
U1246 O1265 2.420 . S
U1246 O1266 2.455 . S
U1246 O1267 2.449 . S
O1247 U1246 2.454 . S
O1247 C1249 1.353 . S
O1248 U1246 2.458 . S
O1248 C1249 1.286 . S
C1249 U1246 2.984 . S
C1249 O1247 1.353 . S
C1249 O1248 1.286 . S
C1249 C1251 1.363 . S
C1250 C1240 1.465 . S
C1250 U1246 2.847 . S
C1250 O1264 1.249 . S
C1250 O1265 1.202 . S
C1251 C1249 1.363 . S
C1251 C1253 1.408 . S
C1251 C1256 1.342 . S
C1252 C1253 1.310 . S
C1252 C1255 1.461 . S
C1252 H1272 0.932 . S
C1253 C1251 1.408 . S
C1253 C1252 1.310 . S
C1253 H1273 0.930 . S
C1254 C1255 1.474 . S
C1254 C1256 1.285 . S
C1254 H1274 0.929 . S
C1255 C1252 1.461 . S
C1255 C1254 1.474 . S
C1256 C1251 1.342 . S
C1256 C1254 1.285 . S
C1256 H1275 0.930 . S
C1257 C1260 1.424 . S
C1257 C1262 1.245 . S
C1257 C1263 1.428 . S
C1258 C1261 1.260 . S
C1258 C1262 1.477 . S
C1258 H1276 0.932 . S
C1259 C1260 1.384 . S
C1259 C1261 1.479 . S
C1259 H1277 0.929 . S
C1260 C1257 1.424 . S
C1260 C1259 1.384 . S
C1260 H1278 0.928 . S
C1261 C1258 1.260 . S
C1261 C1259 1.479 . S
C1262 C1257 1.245 . S
C1262 C1258 1.477 . S
C1262 H1279 0.932 . S
C1263 U1246 2.882 . S
C1263 C1257 1.428 . S
C1263 O1266 1.301 . S
C1263 O1267 1.282 . S
O1264 U1246 2.441 . S
O1264 C1250 1.249 . S
O1265 U1246 2.420 . S
O1265 C1250 1.202 . S
O1266 U1246 2.455 . S
O1266 C1263 1.301 . S
O1267 U1246 2.449 . S
O1267 C1263 1.282 . S
H1268 C1241 0.931 . S
H1269 C1243 0.929 . S
H1270 C1244 0.930 . S
H1271 C1245 0.931 . S
H1272 C1252 0.932 . S
H1273 C1253 0.930 . S
H1274 C1254 0.929 . S
H1275 C1256 0.930 . S
H1276 C1258 0.932 . S
H1277 C1259 0.929 . S
H1278 C1260 0.928 . S
H1279 C1262 0.932 . S
C1280 C1281 1.264 . S
C1280 C1285 1.479 . S
C1280 C1290 1.465 . S
C1281 C1280 1.264 . S
C1281 C1283 1.339 . S
C1281 H1308 0.931 . S
C1282 C1283 1.395 . S
C1282 C1284 1.320 . S
C1283 C1281 1.339 . S
C1283 C1282 1.395 . S
C1283 H1309 0.929 . S
C1284 C1282 1.320 . S
C1284 C1285 1.405 . S
C1284 H1310 0.930 . S
C1285 C1280 1.479 . S
C1285 C1284 1.405 . S
C1285 H1311 0.931 . S
U1286 O1287 2.454 . S
U1286 O1288 2.458 . S
U1286 C1289 2.984 . S
U1286 C1290 2.847 . S
U1286 C1303 2.882 . S
U1286 O1304 2.441 . S
U1286 O1305 2.420 . S
U1286 O1306 2.455 . S
U1286 O1307 2.449 . S
O1287 U1286 2.454 . S
O1287 C1289 1.353 . S
O1288 U1286 2.458 . S
O1288 C1289 1.286 . S
C1289 U1286 2.984 . S
C1289 O1287 1.353 . S
C1289 O1288 1.286 . S
C1289 C1291 1.363 . S
C1290 C1280 1.465 . S
C1290 U1286 2.847 . S
C1290 O1304 1.249 . S
C1290 O1305 1.202 . S
C1291 C1289 1.363 . S
C1291 C1293 1.408 . S
C1291 C1296 1.342 . S
C1292 C1293 1.310 . S
C1292 C1295 1.461 . S
C1292 H1312 0.932 . S
C1293 C1291 1.408 . S
C1293 C1292 1.310 . S
C1293 H1313 0.930 . S
C1294 C1295 1.474 . S
C1294 C1296 1.285 . S
C1294 H1314 0.929 . S
C1295 C1292 1.461 . S
C1295 C1294 1.474 . S
C1296 C1291 1.342 . S
C1296 C1294 1.285 . S
C1296 H1315 0.930 . S
C1297 C1300 1.424 . S
C1297 C1302 1.245 . S
C1297 C1303 1.428 . S
C1298 C1301 1.260 . S
C1298 C1302 1.477 . S
C1298 H1316 0.932 . S
C1299 C1300 1.384 . S
C1299 C1301 1.479 . S
C1299 H1317 0.929 . S
C1300 C1297 1.424 . S
C1300 C1299 1.384 . S
C1300 H1318 0.928 . S
C1301 C1298 1.260 . S
C1301 C1299 1.479 . S
C1302 C1297 1.245 . S
C1302 C1298 1.477 . S
C1302 H1319 0.932 . S
C1303 U1286 2.882 . S
C1303 C1297 1.428 . S
C1303 O1306 1.301 . S
C1303 O1307 1.282 . S
O1304 U1286 2.441 . S
O1304 C1290 1.249 . S
O1305 U1286 2.420 . S
O1305 C1290 1.202 . S
O1306 U1286 2.455 . S
O1306 C1303 1.301 . S
O1307 U1286 2.449 . S
O1307 C1303 1.282 . S
H1308 C1281 0.931 . S
H1309 C1283 0.929 . S
H1310 C1284 0.930 . S
H1311 C1285 0.931 . S
H1312 C1292 0.932 . S
H1313 C1293 0.930 . S
H1314 C1294 0.929 . S
H1315 C1296 0.930 . S
H1316 C1298 0.932 . S
H1317 C1299 0.929 . S
H1318 C1300 0.928 . S
H1319 C1302 0.932 . S
C1320 C1321 1.264 . S
C1320 C1325 1.479 . S
C1320 C1330 1.465 . S
C1321 C1320 1.264 . S
C1321 C1323 1.339 . S
C1321 H1348 0.931 . S
C1322 C1323 1.395 . S
C1322 C1324 1.320 . S
C1323 C1321 1.339 . S
C1323 C1322 1.395 . S
C1323 H1349 0.929 . S
C1324 C1322 1.320 . S
C1324 C1325 1.405 . S
C1324 H1350 0.930 . S
C1325 C1320 1.479 . S
C1325 C1324 1.405 . S
C1325 H1351 0.931 . S
U1326 O1327 2.454 . S
U1326 O1328 2.458 . S
U1326 C1329 2.984 . S
U1326 C1330 2.847 . S
U1326 C1343 2.882 . S
U1326 O1344 2.441 . S
U1326 O1345 2.420 . S
U1326 O1346 2.455 . S
U1326 O1347 2.449 . S
O1327 U1326 2.454 . S
O1327 C1329 1.353 . S
O1328 U1326 2.458 . S
O1328 C1329 1.286 . S
C1329 U1326 2.984 . S
C1329 O1327 1.353 . S
C1329 O1328 1.286 . S
C1329 C1331 1.363 . S
C1330 C1320 1.465 . S
C1330 U1326 2.847 . S
C1330 O1344 1.249 . S
C1330 O1345 1.202 . S
C1331 C1329 1.363 . S
C1331 C1333 1.408 . S
C1331 C1336 1.342 . S
C1332 C1333 1.310 . S
C1332 C1335 1.461 . S
C1332 H1352 0.932 . S
C1333 C1331 1.408 . S
C1333 C1332 1.310 . S
C1333 H1353 0.930 . S
C1334 C1335 1.474 . S
C1334 C1336 1.285 . S
C1334 H1354 0.929 . S
C1335 C1332 1.461 . S
C1335 C1334 1.474 . S
C1336 C1331 1.342 . S
C1336 C1334 1.285 . S
C1336 H1355 0.930 . S
C1337 C1340 1.424 . S
C1337 C1342 1.245 . S
C1337 C1343 1.428 . S
C1338 C1341 1.260 . S
C1338 C1342 1.477 . S
C1338 H1356 0.932 . S
C1339 C1340 1.384 . S
C1339 C1341 1.479 . S
C1339 H1357 0.929 . S
C1340 C1337 1.424 . S
C1340 C1339 1.384 . S
C1340 H1358 0.928 . S
C1341 C1338 1.260 . S
C1341 C1339 1.479 . S
C1342 C1337 1.245 . S
C1342 C1338 1.477 . S
C1342 H1359 0.932 . S
C1343 U1326 2.882 . S
C1343 C1337 1.428 . S
C1343 O1346 1.301 . S
C1343 O1347 1.282 . S
O1344 U1326 2.441 . S
O1344 C1330 1.249 . S
O1345 U1326 2.420 . S
O1345 C1330 1.202 . S
O1346 U1326 2.455 . S
O1346 C1343 1.301 . S
O1347 U1326 2.449 . S
O1347 C1343 1.282 . S
H1348 C1321 0.931 . S
H1349 C1323 0.929 . S
H1350 C1324 0.930 . S
H1351 C1325 0.931 . S
H1352 C1332 0.932 . S
H1353 C1333 0.930 . S
H1354 C1334 0.929 . S
H1355 C1336 0.930 . S
H1356 C1338 0.932 . S
H1357 C1339 0.929 . S
H1358 C1340 0.928 . S
H1359 C1342 0.932 . S
C1360 C1361 1.264 . S
C1360 C1365 1.479 . S
C1360 C1370 1.465 . S
C1361 C1360 1.264 . S
C1361 C1363 1.339 . S
C1361 H1388 0.931 . S
C1362 C1363 1.395 . S
C1362 C1364 1.320 . S
C1363 C1361 1.339 . S
C1363 C1362 1.395 . S
C1363 H1389 0.929 . S
C1364 C1362 1.320 . S
C1364 C1365 1.405 . S
C1364 H1390 0.930 . S
C1365 C1360 1.479 . S
C1365 C1364 1.405 . S
C1365 H1391 0.931 . S
U1366 O1367 2.454 . S
U1366 O1368 2.458 . S
U1366 C1369 2.984 . S
U1366 C1370 2.847 . S
U1366 C1383 2.882 . S
U1366 O1384 2.441 . S
U1366 O1385 2.420 . S
U1366 O1386 2.455 . S
U1366 O1387 2.449 . S
O1367 U1366 2.454 . S
O1367 C1369 1.353 . S
O1368 U1366 2.458 . S
O1368 C1369 1.286 . S
C1369 U1366 2.984 . S
C1369 O1367 1.353 . S
C1369 O1368 1.286 . S
C1369 C1371 1.363 . S
C1370 C1360 1.465 . S
C1370 U1366 2.847 . S
C1370 O1384 1.249 . S
C1370 O1385 1.202 . S
C1371 C1369 1.363 . S
C1371 C1373 1.408 . S
C1371 C1376 1.342 . S
C1372 C1373 1.310 . S
C1372 C1375 1.461 . S
C1372 H1392 0.932 . S
C1373 C1371 1.408 . S
C1373 C1372 1.310 . S
C1373 H1393 0.930 . S
C1374 C1375 1.474 . S
C1374 C1376 1.285 . S
C1374 H1394 0.929 . S
C1375 C1372 1.461 . S
C1375 C1374 1.474 . S
C1376 C1371 1.342 . S
C1376 C1374 1.285 . S
C1376 H1395 0.930 . S
C1377 C1380 1.424 . S
C1377 C1382 1.245 . S
C1377 C1383 1.428 . S
C1378 C1381 1.260 . S
C1378 C1382 1.477 . S
C1378 H1396 0.932 . S
C1379 C1380 1.384 . S
C1379 C1381 1.479 . S
C1379 H1397 0.929 . S
C1380 C1377 1.424 . S
C1380 C1379 1.384 . S
C1380 H1398 0.928 . S
C1381 C1378 1.260 . S
C1381 C1379 1.479 . S
C1382 C1377 1.245 . S
C1382 C1378 1.477 . S
C1382 H1399 0.932 . S
C1383 U1366 2.882 . S
C1383 C1377 1.428 . S
C1383 O1386 1.301 . S
C1383 O1387 1.282 . S
O1384 U1366 2.441 . S
O1384 C1370 1.249 . S
O1385 U1366 2.420 . S
O1385 C1370 1.202 . S
O1386 U1366 2.455 . S
O1386 C1383 1.301 . S
O1387 U1366 2.449 . S
O1387 C1383 1.282 . S
H1388 C1361 0.931 . S
H1389 C1363 0.929 . S
H1390 C1364 0.930 . S
H1391 C1365 0.931 . S
H1392 C1372 0.932 . S
H1393 C1373 0.930 . S
H1394 C1374 0.929 . S
H1395 C1376 0.930 . S
H1396 C1378 0.932 . S
H1397 C1379 0.929 . S
H1398 C1380 0.928 . S
H1399 C1382 0.932 . S
C1400 C1401 1.264 . S
C1400 C1405 1.479 . S
C1400 C1410 1.465 . S
C1401 C1400 1.264 . S
C1401 C1403 1.339 . S
C1401 H1428 0.931 . S
C1402 C1403 1.395 . S
C1402 C1404 1.320 . S
C1403 C1401 1.339 . S
C1403 C1402 1.395 . S
C1403 H1429 0.929 . S
C1404 C1402 1.320 . S
C1404 C1405 1.405 . S
C1404 H1430 0.930 . S
C1405 C1400 1.479 . S
C1405 C1404 1.405 . S
C1405 H1431 0.931 . S
U1406 O1407 2.454 . S
U1406 O1408 2.458 . S
U1406 C1409 2.984 . S
U1406 C1410 2.847 . S
U1406 C1423 2.882 . S
U1406 O1424 2.441 . S
U1406 O1425 2.420 . S
U1406 O1426 2.455 . S
U1406 O1427 2.449 . S
O1407 U1406 2.454 . S
O1407 C1409 1.353 . S
O1408 U1406 2.458 . S
O1408 C1409 1.286 . S
C1409 U1406 2.984 . S
C1409 O1407 1.353 . S
C1409 O1408 1.286 . S
C1409 C1411 1.363 . S
C1410 C1400 1.465 . S
C1410 U1406 2.847 . S
C1410 O1424 1.249 . S
C1410 O1425 1.202 . S
C1411 C1409 1.363 . S
C1411 C1413 1.408 . S
C1411 C1416 1.342 . S
C1412 C1413 1.310 . S
C1412 C1415 1.461 . S
C1412 H1432 0.932 . S
C1413 C1411 1.408 . S
C1413 C1412 1.310 . S
C1413 H1433 0.930 . S
C1414 C1415 1.474 . S
C1414 C1416 1.285 . S
C1414 H1434 0.929 . S
C1415 C1412 1.461 . S
C1415 C1414 1.474 . S
C1416 C1411 1.342 . S
C1416 C1414 1.285 . S
C1416 H1435 0.930 . S
C1417 C1420 1.424 . S
C1417 C1422 1.245 . S
C1417 C1423 1.428 . S
C1418 C1421 1.260 . S
C1418 C1422 1.477 . S
C1418 H1436 0.932 . S
C1419 C1420 1.384 . S
C1419 C1421 1.479 . S
C1419 H1437 0.929 . S
C1420 C1417 1.424 . S
C1420 C1419 1.384 . S
C1420 H1438 0.928 . S
C1421 C1418 1.260 . S
C1421 C1419 1.479 . S
C1422 C1417 1.245 . S
C1422 C1418 1.477 . S
C1422 H1439 0.932 . S
C1423 U1406 2.882 . S
C1423 C1417 1.428 . S
C1423 O1426 1.301 . S
C1423 O1427 1.282 . S
O1424 U1406 2.441 . S
O1424 C1410 1.249 . S
O1425 U1406 2.420 . S
O1425 C1410 1.202 . S
O1426 U1406 2.455 . S
O1426 C1423 1.301 . S
O1427 U1406 2.449 . S
O1427 C1423 1.282 . S
H1428 C1401 0.931 . S
H1429 C1403 0.929 . S
H1430 C1404 0.930 . S
H1431 C1405 0.931 . S
H1432 C1412 0.932 . S
H1433 C1413 0.930 . S
H1434 C1414 0.929 . S
H1435 C1416 0.930 . S
H1436 C1418 0.932 . S
H1437 C1419 0.929 . S
H1438 C1420 0.928 . S
H1439 C1422 0.932 . S
C1440 C1441 1.264 . S
C1440 C1445 1.479 . S
C1440 C1450 1.465 . S
C1441 C1440 1.264 . S
C1441 C1443 1.339 . S
C1441 H1468 0.931 . S
C1442 C1443 1.395 . S
C1442 C1444 1.320 . S
C1443 C1441 1.339 . S
C1443 C1442 1.395 . S
C1443 H1469 0.929 . S
C1444 C1442 1.320 . S
C1444 C1445 1.405 . S
C1444 H1470 0.930 . S
C1445 C1440 1.479 . S
C1445 C1444 1.405 . S
C1445 H1471 0.931 . S
U1446 O1447 2.454 . S
U1446 O1448 2.458 . S
U1446 C1449 2.984 . S
U1446 C1450 2.847 . S
U1446 C1463 2.882 . S
U1446 O1464 2.441 . S
U1446 O1465 2.420 . S
U1446 O1466 2.455 . S
U1446 O1467 2.449 . S
O1447 U1446 2.454 . S
O1447 C1449 1.353 . S
O1448 U1446 2.458 . S
O1448 C1449 1.286 . S
C1449 U1446 2.984 . S
C1449 O1447 1.353 . S
C1449 O1448 1.286 . S
C1449 C1451 1.363 . S
C1450 C1440 1.465 . S
C1450 U1446 2.847 . S
C1450 O1464 1.249 . S
C1450 O1465 1.202 . S
C1451 C1449 1.363 . S
C1451 C1453 1.408 . S
C1451 C1456 1.342 . S
C1452 C1453 1.310 . S
C1452 C1455 1.461 . S
C1452 H1472 0.932 . S
C1453 C1451 1.408 . S
C1453 C1452 1.310 . S
C1453 H1473 0.930 . S
C1454 C1455 1.474 . S
C1454 C1456 1.285 . S
C1454 H1474 0.929 . S
C1455 C1452 1.461 . S
C1455 C1454 1.474 . S
C1456 C1451 1.342 . S
C1456 C1454 1.285 . S
C1456 H1475 0.930 . S
C1457 C1460 1.424 . S
C1457 C1462 1.245 . S
C1457 C1463 1.428 . S
C1458 C1461 1.260 . S
C1458 C1462 1.477 . S
C1458 H1476 0.932 . S
C1459 C1460 1.384 . S
C1459 C1461 1.479 . S
C1459 H1477 0.929 . S
C1460 C1457 1.424 . S
C1460 C1459 1.384 . S
C1460 H1478 0.928 . S
C1461 C1458 1.260 . S
C1461 C1459 1.479 . S
C1462 C1457 1.245 . S
C1462 C1458 1.477 . S
C1462 H1479 0.932 . S
C1463 U1446 2.882 . S
C1463 C1457 1.428 . S
C1463 O1466 1.301 . S
C1463 O1467 1.282 . S
O1464 U1446 2.441 . S
O1464 C1450 1.249 . S
O1465 U1446 2.420 . S
O1465 C1450 1.202 . S
O1466 U1446 2.455 . S
O1466 C1463 1.301 . S
O1467 U1446 2.449 . S
O1467 C1463 1.282 . S
H1468 C1441 0.931 . S
H1469 C1443 0.929 . S
H1470 C1444 0.930 . S
H1471 C1445 0.931 . S
H1472 C1452 0.932 . S
H1473 C1453 0.930 . S
H1474 C1454 0.929 . S
H1475 C1456 0.930 . S
H1476 C1458 0.932 . S
H1477 C1459 0.929 . S
H1478 C1460 0.928 . S
H1479 C1462 0.932 . S
C1480 C1481 1.264 . S
C1480 C1485 1.479 . S
C1480 C1490 1.465 . S
C1481 C1480 1.264 . S
C1481 C1483 1.339 . S
C1481 H1508 0.931 . S
C1482 C1483 1.395 . S
C1482 C1484 1.320 . S
C1483 C1481 1.339 . S
C1483 C1482 1.395 . S
C1483 H1509 0.929 . S
C1484 C1482 1.320 . S
C1484 C1485 1.405 . S
C1484 H1510 0.930 . S
C1485 C1480 1.479 . S
C1485 C1484 1.405 . S
C1485 H1511 0.931 . S
U1486 O1487 2.454 . S
U1486 O1488 2.458 . S
U1486 C1489 2.984 . S
U1486 C1490 2.847 . S
U1486 C1503 2.882 . S
U1486 O1504 2.441 . S
U1486 O1505 2.420 . S
U1486 O1506 2.455 . S
U1486 O1507 2.449 . S
O1487 U1486 2.454 . S
O1487 C1489 1.353 . S
O1488 U1486 2.458 . S
O1488 C1489 1.286 . S
C1489 U1486 2.984 . S
C1489 O1487 1.353 . S
C1489 O1488 1.286 . S
C1489 C1491 1.363 . S
C1490 C1480 1.465 . S
C1490 U1486 2.847 . S
C1490 O1504 1.249 . S
C1490 O1505 1.202 . S
C1491 C1489 1.363 . S
C1491 C1493 1.408 . S
C1491 C1496 1.342 . S
C1492 C1493 1.310 . S
C1492 C1495 1.461 . S
C1492 H1512 0.932 . S
C1493 C1491 1.408 . S
C1493 C1492 1.310 . S
C1493 H1513 0.930 . S
C1494 C1495 1.474 . S
C1494 C1496 1.285 . S
C1494 H1514 0.929 . S
C1495 C1492 1.461 . S
C1495 C1494 1.474 . S
C1496 C1491 1.342 . S
C1496 C1494 1.285 . S
C1496 H1515 0.930 . S
C1497 C1500 1.424 . S
C1497 C1502 1.245 . S
C1497 C1503 1.428 . S
C1498 C1501 1.260 . S
C1498 C1502 1.477 . S
C1498 H1516 0.932 . S
C1499 C1500 1.384 . S
C1499 C1501 1.479 . S
C1499 H1517 0.929 . S
C1500 C1497 1.424 . S
C1500 C1499 1.384 . S
C1500 H1518 0.928 . S
C1501 C1498 1.260 . S
C1501 C1499 1.479 . S
C1502 C1497 1.245 . S
C1502 C1498 1.477 . S
C1502 H1519 0.932 . S
C1503 U1486 2.882 . S
C1503 C1497 1.428 . S
C1503 O1506 1.301 . S
C1503 O1507 1.282 . S
O1504 U1486 2.441 . S
O1504 C1490 1.249 . S
O1505 U1486 2.420 . S
O1505 C1490 1.202 . S
O1506 U1486 2.455 . S
O1506 C1503 1.301 . S
O1507 U1486 2.449 . S
O1507 C1503 1.282 . S
H1508 C1481 0.931 . S
H1509 C1483 0.929 . S
H1510 C1484 0.930 . S
H1511 C1485 0.931 . S
H1512 C1492 0.932 . S
H1513 C1493 0.930 . S
H1514 C1494 0.929 . S
H1515 C1496 0.930 . S
H1516 C1498 0.932 . S
H1517 C1499 0.929 . S
H1518 C1500 0.928 . S
H1519 C1502 0.932 . S
C1520 C1521 1.264 . S
C1520 C1525 1.479 . S
C1520 C1530 1.465 . S
C1521 C1520 1.264 . S
C1521 C1523 1.339 . S
C1521 H1548 0.931 . S
C1522 C1523 1.395 . S
C1522 C1524 1.320 . S
C1523 C1521 1.339 . S
C1523 C1522 1.395 . S
C1523 H1549 0.929 . S
C1524 C1522 1.320 . S
C1524 C1525 1.405 . S
C1524 H1550 0.930 . S
C1525 C1520 1.479 . S
C1525 C1524 1.405 . S
C1525 H1551 0.931 . S
U1526 O1527 2.454 . S
U1526 O1528 2.458 . S
U1526 C1529 2.984 . S
U1526 C1530 2.847 . S
U1526 C1543 2.882 . S
U1526 O1544 2.441 . S
U1526 O1545 2.420 . S
U1526 O1546 2.455 . S
U1526 O1547 2.449 . S
O1527 U1526 2.454 . S
O1527 C1529 1.353 . S
O1528 U1526 2.458 . S
O1528 C1529 1.286 . S
C1529 U1526 2.984 . S
C1529 O1527 1.353 . S
C1529 O1528 1.286 . S
C1529 C1531 1.363 . S
C1530 C1520 1.465 . S
C1530 U1526 2.847 . S
C1530 O1544 1.249 . S
C1530 O1545 1.202 . S
C1531 C1529 1.363 . S
C1531 C1533 1.408 . S
C1531 C1536 1.342 . S
C1532 C1533 1.310 . S
C1532 C1535 1.461 . S
C1532 H1552 0.932 . S
C1533 C1531 1.408 . S
C1533 C1532 1.310 . S
C1533 H1553 0.930 . S
C1534 C1535 1.474 . S
C1534 C1536 1.285 . S
C1534 H1554 0.929 . S
C1535 C1532 1.461 . S
C1535 C1534 1.474 . S
C1536 C1531 1.342 . S
C1536 C1534 1.285 . S
C1536 H1555 0.930 . S
C1537 C1540 1.424 . S
C1537 C1542 1.245 . S
C1537 C1543 1.428 . S
C1538 C1541 1.260 . S
C1538 C1542 1.477 . S
C1538 H1556 0.932 . S
C1539 C1540 1.384 . S
C1539 C1541 1.479 . S
C1539 H1557 0.929 . S
C1540 C1537 1.424 . S
C1540 C1539 1.384 . S
C1540 H1558 0.928 . S
C1541 C1538 1.260 . S
C1541 C1539 1.479 . S
C1542 C1537 1.245 . S
C1542 C1538 1.477 . S
C1542 H1559 0.932 . S
C1543 U1526 2.882 . S
C1543 C1537 1.428 . S
C1543 O1546 1.301 . S
C1543 O1547 1.282 . S
O1544 U1526 2.441 . S
O1544 C1530 1.249 . S
O1545 U1526 2.420 . S
O1545 C1530 1.202 . S
O1546 U1526 2.455 . S
O1546 C1543 1.301 . S
O1547 U1526 2.449 . S
O1547 C1543 1.282 . S
H1548 C1521 0.931 . S
H1549 C1523 0.929 . S
H1550 C1524 0.930 . S
H1551 C1525 0.931 . S
H1552 C1532 0.932 . S
H1553 C1533 0.930 . S
H1554 C1534 0.929 . S
H1555 C1536 0.930 . S
H1556 C1538 0.932 . S
H1557 C1539 0.929 . S
H1558 C1540 0.928 . S
H1559 C1542 0.932 . S
C1560 C1561 1.264 . S
C1560 C1565 1.479 . S
C1560 C1570 1.465 . S
C1561 C1560 1.264 . S
C1561 C1563 1.339 . S
C1561 H1588 0.931 . S
C1562 C1563 1.395 . S
C1562 C1564 1.320 . S
C1563 C1561 1.339 . S
C1563 C1562 1.395 . S
C1563 H1589 0.929 . S
C1564 C1562 1.320 . S
C1564 C1565 1.405 . S
C1564 H1590 0.930 . S
C1565 C1560 1.479 . S
C1565 C1564 1.405 . S
C1565 H1591 0.931 . S
U1566 O1567 2.454 . S
U1566 O1568 2.458 . S
U1566 C1569 2.984 . S
U1566 C1570 2.847 . S
U1566 C1583 2.882 . S
U1566 O1584 2.441 . S
U1566 O1585 2.420 . S
U1566 O1586 2.455 . S
U1566 O1587 2.449 . S
O1567 U1566 2.454 . S
O1567 C1569 1.353 . S
O1568 U1566 2.458 . S
O1568 C1569 1.286 . S
C1569 U1566 2.984 . S
C1569 O1567 1.353 . S
C1569 O1568 1.286 . S
C1569 C1571 1.363 . S
C1570 C1560 1.465 . S
C1570 U1566 2.847 . S
C1570 O1584 1.249 . S
C1570 O1585 1.202 . S
C1571 C1569 1.363 . S
C1571 C1573 1.408 . S
C1571 C1576 1.342 . S
C1572 C1573 1.310 . S
C1572 C1575 1.461 . S
C1572 H1592 0.932 . S
C1573 C1571 1.408 . S
C1573 C1572 1.310 . S
C1573 H1593 0.930 . S
C1574 C1575 1.474 . S
C1574 C1576 1.285 . S
C1574 H1594 0.929 . S
C1575 C1572 1.461 . S
C1575 C1574 1.474 . S
C1576 C1571 1.342 . S
C1576 C1574 1.285 . S
C1576 H1595 0.930 . S
C1577 C1580 1.424 . S
C1577 C1582 1.245 . S
C1577 C1583 1.428 . S
C1578 C1581 1.260 . S
C1578 C1582 1.477 . S
C1578 H1596 0.932 . S
C1579 C1580 1.384 . S
C1579 C1581 1.479 . S
C1579 H1597 0.929 . S
C1580 C1577 1.424 . S
C1580 C1579 1.384 . S
C1580 H1598 0.928 . S
C1581 C1578 1.260 . S
C1581 C1579 1.479 . S
C1582 C1577 1.245 . S
C1582 C1578 1.477 . S
C1582 H1599 0.932 . S
C1583 U1566 2.882 . S
C1583 C1577 1.428 . S
C1583 O1586 1.301 . S
C1583 O1587 1.282 . S
O1584 U1566 2.441 . S
O1584 C1570 1.249 . S
O1585 U1566 2.420 . S
O1585 C1570 1.202 . S
O1586 U1566 2.455 . S
O1586 C1583 1.301 . S
O1587 U1566 2.449 . S
O1587 C1583 1.282 . S
H1588 C1561 0.931 . S
H1589 C1563 0.929 . S
H1590 C1564 0.930 . S
H1591 C1565 0.931 . S
H1592 C1572 0.932 . S
H1593 C1573 0.930 . S
H1594 C1574 0.929 . S
H1595 C1576 0.930 . S
H1596 C1578 0.932 . S
H1597 C1579 0.929 . S
H1598 C1580 0.928 . S
H1599 C1582 0.932 . S
C1600 C1601 1.264 . S
C1600 C1605 1.479 . S
C1600 C1610 1.465 . S
C1601 C1600 1.264 . S
C1601 C1603 1.339 . S
C1601 H1628 0.931 . S
C1602 C1603 1.395 . S
C1602 C1604 1.320 . S
C1603 C1601 1.339 . S
C1603 C1602 1.395 . S
C1603 H1629 0.929 . S
C1604 C1602 1.320 . S
C1604 C1605 1.405 . S
C1604 H1630 0.930 . S
C1605 C1600 1.479 . S
C1605 C1604 1.405 . S
C1605 H1631 0.931 . S
U1606 O1607 2.454 . S
U1606 O1608 2.458 . S
U1606 C1609 2.984 . S
U1606 C1610 2.847 . S
U1606 C1623 2.882 . S
U1606 O1624 2.441 . S
U1606 O1625 2.420 . S
U1606 O1626 2.455 . S
U1606 O1627 2.449 . S
O1607 U1606 2.454 . S
O1607 C1609 1.353 . S
O1608 U1606 2.458 . S
O1608 C1609 1.286 . S
C1609 U1606 2.984 . S
C1609 O1607 1.353 . S
C1609 O1608 1.286 . S
C1609 C1611 1.363 . S
C1610 C1600 1.465 . S
C1610 U1606 2.847 . S
C1610 O1624 1.249 . S
C1610 O1625 1.202 . S
C1611 C1609 1.363 . S
C1611 C1613 1.408 . S
C1611 C1616 1.342 . S
C1612 C1613 1.232 1_554 S
C1612 C1615 1.509 . S
C1612 H1632 0.967 . S
C1613 C1611 1.408 . S
C1613 C1612 1.232 1_556 S
C1613 H1633 0.930 . S
C1614 C1615 1.474 . S
C1614 C1616 1.285 1_554 S
C1614 H1634 0.929 . S
C1615 C1612 1.509 . S
C1615 C1614 1.474 . S
C1616 C1611 1.342 . S
C1616 C1614 1.285 1_556 S
C1616 H1635 0.930 . S
C1617 C1620 1.424 . S
C1617 C1622 1.245 . S
C1617 C1623 1.428 . S
C1618 C1621 1.260 . S
C1618 C1622 1.477 . S
C1618 H1636 0.932 . S
C1619 C1620 1.384 . S
C1619 C1621 1.479 . S
C1619 H1637 0.929 . S
C1620 C1617 1.424 . S
C1620 C1619 1.384 . S
C1620 H1638 0.928 . S
C1621 C1618 1.260 . S
C1621 C1619 1.479 . S
C1622 C1617 1.245 . S
C1622 C1618 1.477 . S
C1622 H1639 0.932 . S
C1623 U1606 2.882 . S
C1623 C1617 1.428 . S
C1623 O1626 1.301 . S
C1623 O1627 1.282 . S
O1624 U1606 2.441 . S
O1624 C1610 1.249 . S
O1625 U1606 2.420 . S
O1625 C1610 1.202 . S
O1626 U1606 2.455 . S
O1626 C1623 1.301 . S
O1627 U1606 2.449 . S
O1627 C1623 1.282 . S
H1628 C1601 0.931 . S
H1629 C1603 0.929 . S
H1630 C1604 0.930 . S
H1631 C1605 0.931 . S
H1632 C1612 0.967 . S
H1633 C1613 0.930 . S
H1634 C1614 0.929 . S
H1635 C1616 0.930 . S
H1636 C1618 0.932 . S
H1637 C1619 0.929 . S
H1638 C1620 0.928 . S
H1639 C1622 0.932 . S
C1640 C1641 1.264 . S
C1640 C1645 1.479 . S
C1640 C1650 1.465 . S
C1641 C1640 1.264 . S
C1641 C1643 1.339 . S
C1641 H1668 0.931 . S
C1642 C1643 1.395 . S
C1642 C1644 1.320 . S
C1643 C1641 1.339 . S
C1643 C1642 1.395 . S
C1643 H1669 0.929 . S
C1644 C1642 1.320 . S
C1644 C1645 1.405 . S
C1644 H1670 0.930 . S
C1645 C1640 1.479 . S
C1645 C1644 1.405 . S
C1645 H1671 0.931 . S
U1646 O1647 2.454 . S
U1646 O1648 2.458 . S
U1646 C1649 2.984 . S
U1646 C1650 2.847 . S
U1646 C1663 2.882 . S
U1646 O1664 2.441 . S
U1646 O1665 2.420 . S
U1646 O1666 2.455 . S
U1646 O1667 2.449 . S
O1647 U1646 2.454 . S
O1647 C1649 1.353 . S
O1648 U1646 2.458 . S
O1648 C1649 1.286 . S
C1649 U1646 2.984 . S
C1649 O1647 1.353 . S
C1649 O1648 1.286 . S
C1649 C1651 1.363 . S
C1650 C1640 1.465 . S
C1650 U1646 2.847 . S
C1650 O1664 1.249 . S
C1650 O1665 1.202 . S
C1651 C1649 1.363 . S
C1651 C1653 1.408 . S
C1651 C1656 1.342 . S
C1652 C1653 1.232 1_556 S
C1652 C1655 1.509 . S
C1652 H1672 0.967 . S
C1653 C1651 1.408 . S
C1653 C1652 1.232 1_554 S
C1653 H1673 0.930 . S
C1654 C1655 1.474 . S
C1654 C1656 1.285 1_556 S
C1654 H1674 0.929 . S
C1655 C1652 1.509 . S
C1655 C1654 1.474 . S
C1656 C1651 1.342 . S
C1656 C1654 1.285 1_554 S
C1656 H1675 0.930 . S
C1657 C1660 1.424 . S
C1657 C1662 1.245 . S
C1657 C1663 1.428 . S
C1658 C1661 1.260 . S
C1658 C1662 1.477 . S
C1658 H1676 0.932 . S
C1659 C1660 1.384 . S
C1659 C1661 1.479 . S
C1659 H1677 0.929 . S
C1660 C1657 1.424 . S
C1660 C1659 1.384 . S
C1660 H1678 0.928 . S
C1661 C1658 1.260 . S
C1661 C1659 1.479 . S
C1662 C1657 1.245 . S
C1662 C1658 1.477 . S
C1662 H1679 0.932 . S
C1663 U1646 2.882 . S
C1663 C1657 1.428 . S
C1663 O1666 1.301 . S
C1663 O1667 1.282 . S
O1664 U1646 2.441 . S
O1664 C1650 1.249 . S
O1665 U1646 2.420 . S
O1665 C1650 1.202 . S
O1666 U1646 2.455 . S
O1666 C1663 1.301 . S
O1667 U1646 2.449 . S
O1667 C1663 1.282 . S
H1668 C1641 0.931 . S
H1669 C1643 0.929 . S
H1670 C1644 0.930 . S
H1671 C1645 0.931 . S
H1672 C1652 0.967 . S
H1673 C1653 0.930 . S
H1674 C1654 0.929 . S
H1675 C1656 0.930 . S
H1676 C1658 0.932 . S
H1677 C1659 0.929 . S
H1678 C1660 0.928 . S
H1679 C1662 0.932 . S
C1680 C1681 1.264 . S
C1680 C1685 1.479 . S
C1680 C1690 1.465 . S
C1681 C1680 1.264 . S
C1681 C1683 1.339 . S
C1681 H1708 0.931 . S
C1682 C1683 1.395 . S
C1682 C1684 1.320 . S
C1683 C1681 1.339 . S
C1683 C1682 1.395 . S
C1683 H1709 0.929 . S
C1684 C1682 1.320 . S
C1684 C1685 1.405 . S
C1684 H1710 0.930 . S
C1685 C1680 1.479 . S
C1685 C1684 1.405 . S
C1685 H1711 0.931 . S
U1686 O1687 2.454 . S
U1686 O1688 2.458 . S
U1686 C1689 2.984 . S
U1686 C1690 2.847 . S
U1686 C1703 2.882 . S
U1686 O1704 2.441 . S
U1686 O1705 2.420 . S
U1686 O1706 2.455 . S
U1686 O1707 2.449 . S
O1687 U1686 2.454 . S
O1687 C1689 1.353 . S
O1688 U1686 2.458 . S
O1688 C1689 1.286 . S
C1689 U1686 2.984 . S
C1689 O1687 1.353 . S
C1689 O1688 1.286 . S
C1689 C1691 1.363 . S
C1690 C1680 1.465 . S
C1690 U1686 2.847 . S
C1690 O1704 1.249 . S
C1690 O1705 1.202 . S
C1691 C1689 1.363 . S
C1691 C1693 1.408 . S
C1691 C1696 1.342 . S
C1692 C1693 1.310 . S
C1692 C1695 1.461 . S
C1692 H1712 0.932 . S
C1693 C1691 1.408 . S
C1693 C1692 1.310 . S
C1693 H1713 0.930 . S
C1694 C1695 1.474 . S
C1694 C1696 1.285 . S
C1694 H1714 0.929 . S
C1695 C1692 1.461 . S
C1695 C1694 1.474 . S
C1696 C1691 1.342 . S
C1696 C1694 1.285 . S
C1696 H1715 0.930 . S
C1697 C1700 1.424 . S
C1697 C1702 1.245 . S
C1697 C1703 1.428 . S
C1698 C1701 1.260 . S
C1698 C1702 1.477 . S
C1698 H1716 0.932 . S
C1699 C1700 1.384 . S
C1699 C1701 1.479 . S
C1699 H1717 0.929 . S
C1700 C1697 1.424 . S
C1700 C1699 1.384 . S
C1700 H1718 0.928 . S
C1701 C1698 1.260 . S
C1701 C1699 1.479 . S
C1702 C1697 1.245 . S
C1702 C1698 1.477 . S
C1702 H1719 0.932 . S
C1703 U1686 2.882 . S
C1703 C1697 1.428 . S
C1703 O1706 1.301 . S
C1703 O1707 1.282 . S
O1704 U1686 2.441 . S
O1704 C1690 1.249 . S
O1705 U1686 2.420 . S
O1705 C1690 1.202 . S
O1706 U1686 2.455 . S
O1706 C1703 1.301 . S
O1707 U1686 2.449 . S
O1707 C1703 1.282 . S
H1708 C1681 0.931 . S
H1709 C1683 0.929 . S
H1710 C1684 0.930 . S
H1711 C1685 0.931 . S
H1712 C1692 0.932 . S
H1713 C1693 0.930 . S
H1714 C1694 0.929 . S
H1715 C1696 0.930 . S
H1716 C1698 0.932 . S
H1717 C1699 0.929 . S
H1718 C1700 0.928 . S
H1719 C1702 0.932 . S
C1720 C1721 1.264 . S
C1720 C1725 1.479 . S
C1720 C1730 1.465 . S
C1721 C1720 1.264 . S
C1721 C1723 1.339 . S
C1721 H1748 0.931 . S
C1722 C1723 1.395 . S
C1722 C1724 1.320 . S
C1723 C1721 1.339 . S
C1723 C1722 1.395 . S
C1723 H1749 0.929 . S
C1724 C1722 1.320 . S
C1724 C1725 1.405 . S
C1724 H1750 0.930 . S
C1725 C1720 1.479 . S
C1725 C1724 1.405 . S
C1725 H1751 0.931 . S
U1726 O1727 2.454 . S
U1726 O1728 2.458 . S
U1726 C1729 2.984 . S
U1726 C1730 2.847 . S
U1726 C1743 2.882 . S
U1726 O1744 2.441 . S
U1726 O1745 2.420 . S
U1726 O1746 2.455 . S
U1726 O1747 2.449 . S
O1727 U1726 2.454 . S
O1727 C1729 1.353 . S
O1728 U1726 2.458 . S
O1728 C1729 1.286 . S
C1729 U1726 2.984 . S
C1729 O1727 1.353 . S
C1729 O1728 1.286 . S
C1729 C1731 1.363 . S
C1730 C1720 1.465 . S
C1730 U1726 2.847 . S
C1730 O1744 1.249 . S
C1730 O1745 1.202 . S
C1731 C1729 1.363 . S
C1731 C1733 1.408 . S
C1731 C1736 1.342 . S
C1732 C1733 1.310 . S
C1732 C1735 1.461 . S
C1732 H1752 0.932 . S
C1733 C1731 1.408 . S
C1733 C1732 1.310 . S
C1733 H1753 0.930 . S
C1734 C1735 1.474 . S
C1734 C1736 1.285 . S
C1734 H1754 0.929 . S
C1735 C1732 1.461 . S
C1735 C1734 1.474 . S
C1736 C1731 1.342 . S
C1736 C1734 1.285 . S
C1736 H1755 0.930 . S
C1737 C1740 1.424 . S
C1737 C1742 1.245 . S
C1737 C1743 1.428 . S
C1738 C1741 1.260 . S
C1738 C1742 1.477 . S
C1738 H1756 0.932 . S
C1739 C1740 1.384 . S
C1739 C1741 1.479 . S
C1739 H1757 0.929 . S
C1740 C1737 1.424 . S
C1740 C1739 1.384 . S
C1740 H1758 0.928 . S
C1741 C1738 1.260 . S
C1741 C1739 1.479 . S
C1742 C1737 1.245 . S
C1742 C1738 1.477 . S
C1742 H1759 0.932 . S
C1743 U1726 2.882 . S
C1743 C1737 1.428 . S
C1743 O1746 1.301 . S
C1743 O1747 1.282 . S
O1744 U1726 2.441 . S
O1744 C1730 1.249 . S
O1745 U1726 2.420 . S
O1745 C1730 1.202 . S
O1746 U1726 2.455 . S
O1746 C1743 1.301 . S
O1747 U1726 2.449 . S
O1747 C1743 1.282 . S
H1748 C1721 0.931 . S
H1749 C1723 0.929 . S
H1750 C1724 0.930 . S
H1751 C1725 0.931 . S
H1752 C1732 0.932 . S
H1753 C1733 0.930 . S
H1754 C1734 0.929 . S
H1755 C1736 0.930 . S
H1756 C1738 0.932 . S
H1757 C1739 0.929 . S
H1758 C1740 0.928 . S
H1759 C1742 0.932 . S
C1760 C1761 1.264 . S
C1760 C1765 1.479 . S
C1760 C1770 1.465 . S
C1761 C1760 1.264 . S
C1761 C1763 1.339 . S
C1761 H1788 0.931 . S
C1762 C1763 1.395 . S
C1762 C1764 1.320 . S
C1763 C1761 1.339 . S
C1763 C1762 1.395 . S
C1763 H1789 0.929 . S
C1764 C1762 1.320 . S
C1764 C1765 1.405 . S
C1764 H1790 0.930 . S
C1765 C1760 1.479 . S
C1765 C1764 1.405 . S
C1765 H1791 0.931 . S
U1766 O1767 2.454 . S
U1766 O1768 2.458 . S
U1766 C1769 2.984 . S
U1766 C1770 2.847 . S
U1766 C1783 2.882 . S
U1766 O1784 2.441 . S
U1766 O1785 2.420 . S
U1766 O1786 2.455 . S
U1766 O1787 2.449 . S
O1767 U1766 2.454 . S
O1767 C1769 1.353 . S
O1768 U1766 2.458 . S
O1768 C1769 1.286 . S
C1769 U1766 2.984 . S
C1769 O1767 1.353 . S
C1769 O1768 1.286 . S
C1769 C1771 1.363 . S
C1770 C1760 1.465 . S
C1770 U1766 2.847 . S
C1770 O1784 1.249 . S
C1770 O1785 1.202 . S
C1771 C1769 1.363 . S
C1771 C1773 1.408 . S
C1771 C1776 1.342 . S
C1772 C1773 1.310 . S
C1772 C1775 1.461 . S
C1772 H1792 0.932 . S
C1773 C1771 1.408 . S
C1773 C1772 1.310 . S
C1773 H1793 0.930 . S
C1774 C1775 1.474 . S
C1774 C1776 1.285 . S
C1774 H1794 0.929 . S
C1775 C1772 1.461 . S
C1775 C1774 1.474 . S
C1776 C1771 1.342 . S
C1776 C1774 1.285 . S
C1776 H1795 0.930 . S
C1777 C1780 1.424 . S
C1777 C1782 1.245 . S
C1777 C1783 1.428 . S
C1778 C1781 1.260 . S
C1778 C1782 1.477 . S
C1778 H1796 0.932 . S
C1779 C1780 1.384 . S
C1779 C1781 1.479 . S
C1779 H1797 0.929 . S
C1780 C1777 1.424 . S
C1780 C1779 1.384 . S
C1780 H1798 0.928 . S
C1781 C1778 1.260 . S
C1781 C1779 1.479 . S
C1782 C1777 1.245 . S
C1782 C1778 1.477 . S
C1782 H1799 0.932 . S
C1783 U1766 2.882 . S
C1783 C1777 1.428 . S
C1783 O1786 1.301 . S
C1783 O1787 1.282 . S
O1784 U1766 2.441 . S
O1784 C1770 1.249 . S
O1785 U1766 2.420 . S
O1785 C1770 1.202 . S
O1786 U1766 2.455 . S
O1786 C1783 1.301 . S
O1787 U1766 2.449 . S
O1787 C1783 1.282 . S
H1788 C1761 0.931 . S
H1789 C1763 0.929 . S
H1790 C1764 0.930 . S
H1791 C1765 0.931 . S
H1792 C1772 0.932 . S
H1793 C1773 0.930 . S
H1794 C1774 0.929 . S
H1795 C1776 0.930 . S
H1796 C1778 0.932 . S
H1797 C1779 0.929 . S
H1798 C1780 0.928 . S
H1799 C1782 0.932 . S
C1800 C1801 1.264 . S
C1800 C1805 1.479 . S
C1800 C1810 1.465 . S
C1801 C1800 1.264 . S
C1801 C1803 1.339 . S
C1801 H1828 0.931 . S
C1802 C1803 1.395 . S
C1802 C1804 1.320 . S
C1803 C1801 1.339 . S
C1803 C1802 1.395 . S
C1803 H1829 0.929 . S
C1804 C1802 1.320 . S
C1804 C1805 1.405 . S
C1804 H1830 0.930 . S
C1805 C1800 1.479 . S
C1805 C1804 1.405 . S
C1805 H1831 0.931 . S
U1806 O1807 2.454 . S
U1806 O1808 2.458 . S
U1806 C1809 2.984 . S
U1806 C1810 2.847 . S
U1806 C1823 2.882 . S
U1806 O1824 2.441 . S
U1806 O1825 2.420 . S
U1806 O1826 2.455 . S
U1806 O1827 2.449 . S
O1807 U1806 2.454 . S
O1807 C1809 1.353 . S
O1808 U1806 2.458 . S
O1808 C1809 1.286 . S
C1809 U1806 2.984 . S
C1809 O1807 1.353 . S
C1809 O1808 1.286 . S
C1809 C1811 1.363 . S
C1810 C1800 1.465 . S
C1810 U1806 2.847 . S
C1810 O1824 1.249 . S
C1810 O1825 1.202 . S
C1811 C1809 1.363 . S
C1811 C1813 1.408 . S
C1811 C1816 1.342 . S
C1812 C1813 1.310 . S
C1812 C1815 1.461 . S
C1812 H1832 0.932 . S
C1813 C1811 1.408 . S
C1813 C1812 1.310 . S
C1813 H1833 0.930 . S
C1814 C1815 1.474 . S
C1814 C1816 1.285 . S
C1814 H1834 0.929 . S
C1815 C1812 1.461 . S
C1815 C1814 1.474 . S
C1816 C1811 1.342 . S
C1816 C1814 1.285 . S
C1816 H1835 0.930 . S
C1817 C1820 1.424 . S
C1817 C1822 1.245 . S
C1817 C1823 1.428 . S
C1818 C1821 1.260 . S
C1818 C1822 1.477 . S
C1818 H1836 0.932 . S
C1819 C1820 1.384 . S
C1819 C1821 1.479 . S
C1819 H1837 0.929 . S
C1820 C1817 1.424 . S
C1820 C1819 1.384 . S
C1820 H1838 0.928 . S
C1821 C1818 1.260 . S
C1821 C1819 1.479 . S
C1822 C1817 1.245 . S
C1822 C1818 1.477 . S
C1822 H1839 0.932 . S
C1823 U1806 2.882 . S
C1823 C1817 1.428 . S
C1823 O1826 1.301 . S
C1823 O1827 1.282 . S
O1824 U1806 2.441 . S
O1824 C1810 1.249 . S
O1825 U1806 2.420 . S
O1825 C1810 1.202 . S
O1826 U1806 2.455 . S
O1826 C1823 1.301 . S
O1827 U1806 2.449 . S
O1827 C1823 1.282 . S
H1828 C1801 0.931 . S
H1829 C1803 0.929 . S
H1830 C1804 0.930 . S
H1831 C1805 0.931 . S
H1832 C1812 0.932 . S
H1833 C1813 0.930 . S
H1834 C1814 0.929 . S
H1835 C1816 0.930 . S
H1836 C1818 0.932 . S
H1837 C1819 0.929 . S
H1838 C1820 0.928 . S
H1839 C1822 0.932 . S
C1840 C1841 1.264 . S
C1840 C1845 1.479 . S
C1840 C1850 1.465 . S
C1841 C1840 1.264 . S
C1841 C1843 1.339 . S
C1841 H1868 0.931 . S
C1842 C1843 1.395 . S
C1842 C1844 1.320 . S
C1843 C1841 1.339 . S
C1843 C1842 1.395 . S
C1843 H1869 0.929 . S
C1844 C1842 1.320 . S
C1844 C1845 1.405 . S
C1844 H1870 0.930 . S
C1845 C1840 1.479 . S
C1845 C1844 1.405 . S
C1845 H1871 0.931 . S
U1846 O1847 2.454 . S
U1846 O1848 2.458 . S
U1846 C1849 2.984 . S
U1846 C1850 2.847 . S
U1846 C1863 2.882 . S
U1846 O1864 2.441 . S
U1846 O1865 2.420 . S
U1846 O1866 2.455 . S
U1846 O1867 2.449 . S
O1847 U1846 2.454 . S
O1847 C1849 1.353 . S
O1848 U1846 2.458 . S
O1848 C1849 1.286 . S
C1849 U1846 2.984 . S
C1849 O1847 1.353 . S
C1849 O1848 1.286 . S
C1849 C1851 1.363 . S
C1850 C1840 1.465 . S
C1850 U1846 2.847 . S
C1850 O1864 1.249 . S
C1850 O1865 1.202 . S
C1851 C1849 1.363 . S
C1851 C1853 1.408 . S
C1851 C1856 1.342 . S
C1852 C1853 1.310 . S
C1852 C1855 1.461 . S
C1852 H1872 0.932 . S
C1853 C1851 1.408 . S
C1853 C1852 1.310 . S
C1853 H1873 0.930 . S
C1854 C1855 1.474 . S
C1854 C1856 1.285 . S
C1854 H1874 0.929 . S
C1855 C1852 1.461 . S
C1855 C1854 1.474 . S
C1856 C1851 1.342 . S
C1856 C1854 1.285 . S
C1856 H1875 0.930 . S
C1857 C1860 1.424 . S
C1857 C1862 1.245 . S
C1857 C1863 1.428 . S
C1858 C1861 1.260 . S
C1858 C1862 1.477 . S
C1858 H1876 0.932 . S
C1859 C1860 1.384 . S
C1859 C1861 1.479 . S
C1859 H1877 0.929 . S
C1860 C1857 1.424 . S
C1860 C1859 1.384 . S
C1860 H1878 0.928 . S
C1861 C1858 1.260 . S
C1861 C1859 1.479 . S
C1862 C1857 1.245 . S
C1862 C1858 1.477 . S
C1862 H1879 0.932 . S
C1863 U1846 2.882 . S
C1863 C1857 1.428 . S
C1863 O1866 1.301 . S
C1863 O1867 1.282 . S
O1864 U1846 2.441 . S
O1864 C1850 1.249 . S
O1865 U1846 2.420 . S
O1865 C1850 1.202 . S
O1866 U1846 2.455 . S
O1866 C1863 1.301 . S
O1867 U1846 2.449 . S
O1867 C1863 1.282 . S
H1868 C1841 0.931 . S
H1869 C1843 0.929 . S
H1870 C1844 0.930 . S
H1871 C1845 0.931 . S
H1872 C1852 0.932 . S
H1873 C1853 0.930 . S
H1874 C1854 0.929 . S
H1875 C1856 0.930 . S
H1876 C1858 0.932 . S
H1877 C1859 0.929 . S
H1878 C1860 0.928 . S
H1879 C1862 0.932 . S
C1880 C1881 1.264 . S
C1880 C1885 1.479 . S
C1880 C1890 1.465 . S
C1881 C1880 1.264 . S
C1881 C1883 1.339 . S
C1881 H1908 0.931 . S
C1882 C1883 1.395 . S
C1882 C1884 1.320 . S
C1883 C1881 1.339 . S
C1883 C1882 1.395 . S
C1883 H1909 0.929 . S
C1884 C1882 1.320 . S
C1884 C1885 1.405 . S
C1884 H1910 0.930 . S
C1885 C1880 1.479 . S
C1885 C1884 1.405 . S
C1885 H1911 0.931 . S
U1886 O1887 2.454 . S
U1886 O1888 2.458 . S
U1886 C1889 2.984 . S
U1886 C1890 2.847 . S
U1886 C1903 2.882 . S
U1886 O1904 2.441 . S
U1886 O1905 2.420 . S
U1886 O1906 2.455 . S
U1886 O1907 2.449 . S
O1887 U1886 2.454 . S
O1887 C1889 1.353 . S
O1888 U1886 2.458 . S
O1888 C1889 1.286 . S
C1889 U1886 2.984 . S
C1889 O1887 1.353 . S
C1889 O1888 1.286 . S
C1889 C1891 1.363 . S
C1890 C1880 1.465 . S
C1890 U1886 2.847 . S
C1890 O1904 1.249 . S
C1890 O1905 1.202 . S
C1891 C1889 1.363 . S
C1891 C1893 1.408 . S
C1891 C1896 1.342 . S
C1892 C1893 1.310 . S
C1892 C1895 1.461 . S
C1892 H1912 0.932 . S
C1893 C1891 1.408 . S
C1893 C1892 1.310 . S
C1893 H1913 0.930 . S
C1894 C1895 1.474 . S
C1894 C1896 1.285 . S
C1894 H1914 0.929 . S
C1895 C1892 1.461 . S
C1895 C1894 1.474 . S
C1896 C1891 1.342 . S
C1896 C1894 1.285 . S
C1896 H1915 0.930 . S
C1897 C1900 1.424 . S
C1897 C1902 1.245 . S
C1897 C1903 1.428 . S
C1898 C1901 1.260 . S
C1898 C1902 1.477 . S
C1898 H1916 0.932 . S
C1899 C1900 1.384 . S
C1899 C1901 1.479 . S
C1899 H1917 0.929 . S
C1900 C1897 1.424 . S
C1900 C1899 1.384 . S
C1900 H1918 0.928 . S
C1901 C1898 1.260 . S
C1901 C1899 1.479 . S
C1902 C1897 1.245 . S
C1902 C1898 1.477 . S
C1902 H1919 0.932 . S
C1903 U1886 2.882 . S
C1903 C1897 1.428 . S
C1903 O1906 1.301 . S
C1903 O1907 1.282 . S
O1904 U1886 2.441 . S
O1904 C1890 1.249 . S
O1905 U1886 2.420 . S
O1905 C1890 1.202 . S
O1906 U1886 2.455 . S
O1906 C1903 1.301 . S
O1907 U1886 2.449 . S
O1907 C1903 1.282 . S
H1908 C1881 0.931 . S
H1909 C1883 0.929 . S
H1910 C1884 0.930 . S
H1911 C1885 0.931 . S
H1912 C1892 0.932 . S
H1913 C1893 0.930 . S
H1914 C1894 0.929 . S
H1915 C1896 0.930 . S
H1916 C1898 0.932 . S
H1917 C1899 0.929 . S
H1918 C1900 0.928 . S
H1919 C1902 0.932 . S
C1920 C1921 1.264 . S
C1920 C1925 1.479 . S
C1920 C1930 1.465 . S
C1921 C1920 1.264 . S
C1921 C1923 1.339 . S
C1921 H1948 0.931 . S
C1922 C1923 1.395 . S
C1922 C1924 1.320 . S
C1923 C1921 1.339 . S
C1923 C1922 1.395 . S
C1923 H1949 0.929 . S
C1924 C1922 1.320 . S
C1924 C1925 1.405 . S
C1924 H1950 0.930 . S
C1925 C1920 1.479 . S
C1925 C1924 1.405 . S
C1925 H1951 0.931 . S
U1926 O1927 2.454 . S
U1926 O1928 2.458 . S
U1926 C1929 2.984 . S
U1926 C1930 2.847 . S
U1926 C1943 2.882 . S
U1926 O1944 2.441 . S
U1926 O1945 2.420 . S
U1926 O1946 2.455 . S
U1926 O1947 2.449 . S
O1927 U1926 2.454 . S
O1927 C1929 1.353 . S
O1928 U1926 2.458 . S
O1928 C1929 1.286 . S
C1929 U1926 2.984 . S
C1929 O1927 1.353 . S
C1929 O1928 1.286 . S
C1929 C1931 1.363 . S
C1930 C1920 1.465 . S
C1930 U1926 2.847 . S
C1930 O1944 1.249 . S
C1930 O1945 1.202 . S
C1931 C1929 1.363 . S
C1931 C1933 1.408 . S
C1931 C1936 1.342 . S
C1932 C1933 1.310 . S
C1932 C1935 1.461 . S
C1932 H1952 0.932 . S
C1933 C1931 1.408 . S
C1933 C1932 1.310 . S
C1933 H1953 0.930 . S
C1934 C1935 1.474 . S
C1934 C1936 1.285 . S
C1934 H1954 0.929 . S
C1935 C1932 1.461 . S
C1935 C1934 1.474 . S
C1936 C1931 1.342 . S
C1936 C1934 1.285 . S
C1936 H1955 0.930 . S
C1937 C1940 1.424 . S
C1937 C1942 1.245 . S
C1937 C1943 1.428 . S
C1938 C1941 1.260 . S
C1938 C1942 1.477 . S
C1938 H1956 0.932 . S
C1939 C1940 1.384 . S
C1939 C1941 1.479 . S
C1939 H1957 0.929 . S
C1940 C1937 1.424 . S
C1940 C1939 1.384 . S
C1940 H1958 0.928 . S
C1941 C1938 1.260 . S
C1941 C1939 1.479 . S
C1942 C1937 1.245 . S
C1942 C1938 1.477 . S
C1942 H1959 0.932 . S
C1943 U1926 2.882 . S
C1943 C1937 1.428 . S
C1943 O1946 1.301 . S
C1943 O1947 1.282 . S
O1944 U1926 2.441 . S
O1944 C1930 1.249 . S
O1945 U1926 2.420 . S
O1945 C1930 1.202 . S
O1946 U1926 2.455 . S
O1946 C1943 1.301 . S
O1947 U1926 2.449 . S
O1947 C1943 1.282 . S
H1948 C1921 0.931 . S
H1949 C1923 0.929 . S
H1950 C1924 0.930 . S
H1951 C1925 0.931 . S
H1952 C1932 0.932 . S
H1953 C1933 0.930 . S
H1954 C1934 0.929 . S
H1955 C1936 0.930 . S
H1956 C1938 0.932 . S
H1957 C1939 0.929 . S
H1958 C1940 0.928 . S
H1959 C1942 0.932 . S
C1960 C1961 1.264 . S
C1960 C1965 1.479 . S
C1960 C1970 1.465 . S
C1961 C1960 1.264 . S
C1961 C1963 1.339 . S
C1961 H1988 0.931 . S
C1962 C1963 1.395 . S
C1962 C1964 1.320 . S
C1963 C1961 1.339 . S
C1963 C1962 1.395 . S
C1963 H1989 0.929 . S
C1964 C1962 1.320 . S
C1964 C1965 1.405 . S
C1964 H1990 0.930 . S
C1965 C1960 1.479 . S
C1965 C1964 1.405 . S
C1965 H1991 0.931 . S
U1966 O1967 2.454 . S
U1966 O1968 2.458 . S
U1966 C1969 2.984 . S
U1966 C1970 2.847 . S
U1966 C1983 2.882 . S
U1966 O1984 2.441 . S
U1966 O1985 2.420 . S
U1966 O1986 2.455 . S
U1966 O1987 2.449 . S
O1967 U1966 2.454 . S
O1967 C1969 1.353 . S
O1968 U1966 2.458 . S
O1968 C1969 1.286 . S
C1969 U1966 2.984 . S
C1969 O1967 1.353 . S
C1969 O1968 1.286 . S
C1969 C1971 1.363 . S
C1970 C1960 1.465 . S
C1970 U1966 2.847 . S
C1970 O1984 1.249 . S
C1970 O1985 1.202 . S
C1971 C1969 1.363 . S
C1971 C1973 1.408 . S
C1971 C1976 1.342 . S
C1972 C1973 1.310 . S
C1972 C1975 1.461 . S
C1972 H1992 0.932 . S
C1973 C1971 1.408 . S
C1973 C1972 1.310 . S
C1973 H1993 0.930 . S
C1974 C1975 1.474 . S
C1974 C1976 1.285 . S
C1974 H1994 0.929 . S
C1975 C1972 1.461 . S
C1975 C1974 1.474 . S
C1976 C1971 1.342 . S
C1976 C1974 1.285 . S
C1976 H1995 0.930 . S
C1977 C1980 1.424 . S
C1977 C1982 1.245 . S
C1977 C1983 1.428 . S
C1978 C1981 1.260 . S
C1978 C1982 1.477 . S
C1978 H1996 0.932 . S
C1979 C1980 1.384 . S
C1979 C1981 1.479 . S
C1979 H1997 0.929 . S
C1980 C1977 1.424 . S
C1980 C1979 1.384 . S
C1980 H1998 0.928 . S
C1981 C1978 1.260 . S
C1981 C1979 1.479 . S
C1982 C1977 1.245 . S
C1982 C1978 1.477 . S
C1982 H1999 0.932 . S
C1983 U1966 2.882 . S
C1983 C1977 1.428 . S
C1983 O1986 1.301 . S
C1983 O1987 1.282 . S
O1984 U1966 2.441 . S
O1984 C1970 1.249 . S
O1985 U1966 2.420 . S
O1985 C1970 1.202 . S
O1986 U1966 2.455 . S
O1986 C1983 1.301 . S
O1987 U1966 2.449 . S
O1987 C1983 1.282 . S
H1988 C1961 0.931 . S
H1989 C1963 0.929 . S
H1990 C1964 0.930 . S
H1991 C1965 0.931 . S
H1992 C1972 0.932 . S
H1993 C1973 0.930 . S
H1994 C1974 0.929 . S
H1995 C1976 0.930 . S
H1996 C1978 0.932 . S
H1997 C1979 0.929 . S
H1998 C1980 0.928 . S
H1999 C1982 0.932 . S
C2000 C2001 1.264 . S
C2000 C2005 1.479 . S
C2000 C2010 1.465 . S
C2001 C2000 1.264 . S
C2001 C2003 1.339 . S
C2001 H2028 0.931 . S
C2002 C2003 1.395 . S
C2002 C2004 1.320 . S
C2003 C2001 1.339 . S
C2003 C2002 1.395 . S
C2003 H2029 0.929 . S
C2004 C2002 1.320 . S
C2004 C2005 1.405 . S
C2004 H2030 0.930 . S
C2005 C2000 1.479 . S
C2005 C2004 1.405 . S
C2005 H2031 0.931 . S
U2006 O2007 2.454 . S
U2006 O2008 2.458 . S
U2006 C2009 2.984 . S
U2006 C2010 2.847 . S
U2006 C2023 2.882 . S
U2006 O2024 2.441 . S
U2006 O2025 2.420 . S
U2006 O2026 2.455 . S
U2006 O2027 2.449 . S
O2007 U2006 2.454 . S
O2007 C2009 1.353 . S
O2008 U2006 2.458 . S
O2008 C2009 1.286 . S
C2009 U2006 2.984 . S
C2009 O2007 1.353 . S
C2009 O2008 1.286 . S
C2009 C2011 1.363 . S
C2010 C2000 1.465 . S
C2010 U2006 2.847 . S
C2010 O2024 1.249 . S
C2010 O2025 1.202 . S
C2011 C2009 1.363 . S
C2011 C2013 1.408 . S
C2011 C2016 1.342 . S
C2012 C2013 1.384 . S
C2012 C2015 1.425 1_655 S
C2012 H2032 0.897 1_655 S
C2013 C2011 1.408 . S
C2013 C2012 1.384 . S
C2013 H2033 0.930 . S
C2014 C2015 1.474 1_655 S
C2014 C2016 1.285 . S
C2014 H2034 0.929 1_655 S
C2015 C2012 1.425 1_455 S
C2015 C2014 1.474 1_455 S
C2016 C2011 1.342 . S
C2016 C2014 1.285 . S
C2016 H2035 0.930 . S
C2017 C2020 1.424 . S
C2017 C2022 1.245 . S
C2017 C2023 1.428 . S
C2018 C2021 1.260 . S
C2018 C2022 1.477 . S
C2018 H2036 0.932 . S
C2019 C2020 1.384 . S
C2019 C2021 1.479 . S
C2019 H2037 0.929 . S
C2020 C2017 1.424 . S
C2020 C2019 1.384 . S
C2020 H2038 0.928 . S
C2021 C2018 1.260 . S
C2021 C2019 1.479 . S
C2022 C2017 1.245 . S
C2022 C2018 1.477 . S
C2022 H2039 0.932 . S
C2023 U2006 2.882 . S
C2023 C2017 1.428 . S
C2023 O2026 1.301 . S
C2023 O2027 1.282 . S
O2024 U2006 2.441 . S
O2024 C2010 1.249 . S
O2025 U2006 2.420 . S
O2025 C2010 1.202 . S
O2026 U2006 2.455 . S
O2026 C2023 1.301 . S
O2027 U2006 2.449 . S
O2027 C2023 1.282 . S
H2028 C2001 0.931 . S
H2029 C2003 0.929 . S
H2030 C2004 0.930 . S
H2031 C2005 0.931 . S
H2032 C2012 0.897 1_455 S
H2033 C2013 0.930 . S
H2034 C2014 0.929 1_455 S
H2035 C2016 0.930 . S
H2036 C2018 0.932 . S
H2037 C2019 0.929 . S
H2038 C2020 0.928 . S
H2039 C2022 0.932 . S
C2040 C2041 1.264 . S
C2040 C2045 1.479 . S
C2040 C2050 1.465 . S
C2041 C2040 1.264 . S
C2041 C2043 1.339 . S
C2041 H2068 0.931 . S
C2042 C2043 1.395 . S
C2042 C2044 1.320 . S
C2043 C2041 1.339 . S
C2043 C2042 1.395 . S
C2043 H2069 0.929 . S
C2044 C2042 1.320 . S
C2044 C2045 1.405 . S
C2044 H2070 0.930 . S
C2045 C2040 1.479 . S
C2045 C2044 1.405 . S
C2045 H2071 0.931 . S
U2046 O2047 2.454 . S
U2046 O2048 2.458 . S
U2046 C2049 2.984 . S
U2046 C2050 2.847 . S
U2046 C2063 2.882 . S
U2046 O2064 2.441 . S
U2046 O2065 2.420 . S
U2046 O2066 2.455 . S
U2046 O2067 2.449 . S
O2047 U2046 2.454 . S
O2047 C2049 1.353 . S
O2048 U2046 2.458 . S
O2048 C2049 1.286 . S
C2049 U2046 2.984 . S
C2049 O2047 1.353 . S
C2049 O2048 1.286 . S
C2049 C2051 1.363 . S
C2050 C2040 1.465 . S
C2050 U2046 2.847 . S
C2050 O2064 1.249 . S
C2050 O2065 1.202 . S
C2051 C2049 1.363 . S
C2051 C2053 1.408 . S
C2051 C2056 1.342 . S
C2052 C2053 1.310 . S
C2052 C2055 1.461 . S
C2052 H2072 0.932 . S
C2053 C2051 1.408 . S
C2053 C2052 1.310 . S
C2053 H2073 0.930 . S
C2054 C2055 1.474 . S
C2054 C2056 1.285 . S
C2054 H2074 0.929 . S
C2055 C2052 1.461 . S
C2055 C2054 1.474 . S
C2056 C2051 1.342 . S
C2056 C2054 1.285 . S
C2056 H2075 0.930 . S
C2057 C2060 1.424 . S
C2057 C2062 1.245 . S
C2057 C2063 1.428 . S
C2058 C2061 1.260 . S
C2058 C2062 1.477 . S
C2058 H2076 0.932 . S
C2059 C2060 1.384 . S
C2059 C2061 1.479 . S
C2059 H2077 0.929 . S
C2060 C2057 1.424 . S
C2060 C2059 1.384 . S
C2060 H2078 0.928 . S
C2061 C2058 1.260 . S
C2061 C2059 1.479 . S
C2062 C2057 1.245 . S
C2062 C2058 1.477 . S
C2062 H2079 0.932 . S
C2063 U2046 2.882 . S
C2063 C2057 1.428 . S
C2063 O2066 1.301 . S
C2063 O2067 1.282 . S
O2064 U2046 2.441 . S
O2064 C2050 1.249 . S
O2065 U2046 2.420 . S
O2065 C2050 1.202 . S
O2066 U2046 2.455 . S
O2066 C2063 1.301 . S
O2067 U2046 2.449 . S
O2067 C2063 1.282 . S
H2068 C2041 0.931 . S
H2069 C2043 0.929 . S
H2070 C2044 0.930 . S
H2071 C2045 0.931 . S
H2072 C2052 0.932 . S
H2073 C2053 0.930 . S
H2074 C2054 0.929 . S
H2075 C2056 0.930 . S
H2076 C2058 0.932 . S
H2077 C2059 0.929 . S
H2078 C2060 0.928 . S
H2079 C2062 0.932 . S
C2080 C2081 1.264 . S
C2080 C2085 1.479 . S
C2080 C2090 1.465 . S
C2081 C2080 1.264 . S
C2081 C2083 1.339 . S
C2081 H2108 0.931 . S
C2082 C2083 1.395 . S
C2082 C2084 1.320 . S
C2083 C2081 1.339 . S
C2083 C2082 1.395 . S
C2083 H2109 0.929 . S
C2084 C2082 1.320 . S
C2084 C2085 1.405 . S
C2084 H2110 0.930 . S
C2085 C2080 1.479 . S
C2085 C2084 1.405 . S
C2085 H2111 0.931 . S
U2086 O2087 2.454 . S
U2086 O2088 2.458 . S
U2086 C2089 2.984 . S
U2086 C2090 2.847 . S
U2086 C2103 2.882 . S
U2086 O2104 2.441 . S
U2086 O2105 2.420 . S
U2086 O2106 2.455 . S
U2086 O2107 2.449 . S
O2087 U2086 2.454 . S
O2087 C2089 1.353 . S
O2088 U2086 2.458 . S
O2088 C2089 1.286 . S
C2089 U2086 2.984 . S
C2089 O2087 1.353 . S
C2089 O2088 1.286 . S
C2089 C2091 1.363 . S
C2090 C2080 1.465 . S
C2090 U2086 2.847 . S
C2090 O2104 1.249 . S
C2090 O2105 1.202 . S
C2091 C2089 1.363 . S
C2091 C2093 1.408 . S
C2091 C2096 1.342 . S
C2092 C2093 1.310 . S
C2092 C2095 1.461 . S
C2092 H2112 0.932 . S
C2093 C2091 1.408 . S
C2093 C2092 1.310 . S
C2093 H2113 0.930 . S
C2094 C2095 1.474 . S
C2094 C2096 1.285 . S
C2094 H2114 0.929 . S
C2095 C2092 1.461 . S
C2095 C2094 1.474 . S
C2096 C2091 1.342 . S
C2096 C2094 1.285 . S
C2096 H2115 0.930 . S
C2097 C2100 1.424 . S
C2097 C2102 1.245 . S
C2097 C2103 1.428 . S
C2098 C2101 1.260 . S
C2098 C2102 1.477 . S
C2098 H2116 0.932 . S
C2099 C2100 1.384 . S
C2099 C2101 1.479 . S
C2099 H2117 0.929 . S
C2100 C2097 1.424 . S
C2100 C2099 1.384 . S
C2100 H2118 0.928 . S
C2101 C2098 1.260 . S
C2101 C2099 1.479 . S
C2102 C2097 1.245 . S
C2102 C2098 1.477 . S
C2102 H2119 0.932 . S
C2103 U2086 2.882 . S
C2103 C2097 1.428 . S
C2103 O2106 1.301 . S
C2103 O2107 1.282 . S
O2104 U2086 2.441 . S
O2104 C2090 1.249 . S
O2105 U2086 2.420 . S
O2105 C2090 1.202 . S
O2106 U2086 2.455 . S
O2106 C2103 1.301 . S
O2107 U2086 2.449 . S
O2107 C2103 1.282 . S
H2108 C2081 0.931 . S
H2109 C2083 0.929 . S
H2110 C2084 0.930 . S
H2111 C2085 0.931 . S
H2112 C2092 0.932 . S
H2113 C2093 0.930 . S
H2114 C2094 0.929 . S
H2115 C2096 0.930 . S
H2116 C2098 0.932 . S
H2117 C2099 0.929 . S
H2118 C2100 0.928 . S
H2119 C2102 0.932 . S
C2120 C2121 1.264 . S
C2120 C2125 1.479 . S
C2120 C2130 1.465 . S
C2121 C2120 1.264 . S
C2121 C2123 1.339 . S
C2121 H2148 0.931 . S
C2122 C2123 1.395 . S
C2122 C2124 1.320 . S
C2123 C2121 1.339 . S
C2123 C2122 1.395 . S
C2123 H2149 0.929 . S
C2124 C2122 1.320 . S
C2124 C2125 1.405 . S
C2124 H2150 0.930 . S
C2125 C2120 1.479 . S
C2125 C2124 1.405 . S
C2125 H2151 0.931 . S
U2126 O2127 2.454 . S
U2126 O2128 2.458 . S
U2126 C2129 2.984 . S
U2126 C2130 2.847 . S
U2126 C2143 2.882 . S
U2126 O2144 2.441 . S
U2126 O2145 2.420 . S
U2126 O2146 2.455 . S
U2126 O2147 2.449 . S
O2127 U2126 2.454 . S
O2127 C2129 1.353 . S
O2128 U2126 2.458 . S
O2128 C2129 1.286 . S
C2129 U2126 2.984 . S
C2129 O2127 1.353 . S
C2129 O2128 1.286 . S
C2129 C2131 1.363 . S
C2130 C2120 1.465 . S
C2130 U2126 2.847 . S
C2130 O2144 1.249 . S
C2130 O2145 1.202 . S
C2131 C2129 1.363 . S
C2131 C2133 1.408 . S
C2131 C2136 1.342 . S
C2132 C2133 1.310 . S
C2132 C2135 1.461 . S
C2132 H2152 0.932 . S
C2133 C2131 1.408 . S
C2133 C2132 1.310 . S
C2133 H2153 0.930 . S
C2134 C2135 1.474 . S
C2134 C2136 1.285 . S
C2134 H2154 0.929 . S
C2135 C2132 1.461 . S
C2135 C2134 1.474 . S
C2136 C2131 1.342 . S
C2136 C2134 1.285 . S
C2136 H2155 0.930 . S
C2137 C2140 1.424 . S
C2137 C2142 1.245 . S
C2137 C2143 1.428 . S
C2138 C2141 1.260 . S
C2138 C2142 1.477 . S
C2138 H2156 0.932 . S
C2139 C2140 1.384 . S
C2139 C2141 1.479 . S
C2139 H2157 0.929 . S
C2140 C2137 1.424 . S
C2140 C2139 1.384 . S
C2140 H2158 0.928 . S
C2141 C2138 1.260 . S
C2141 C2139 1.479 . S
C2142 C2137 1.245 . S
C2142 C2138 1.477 . S
C2142 H2159 0.932 . S
C2143 U2126 2.882 . S
C2143 C2137 1.428 . S
C2143 O2146 1.301 . S
C2143 O2147 1.282 . S
O2144 U2126 2.441 . S
O2144 C2130 1.249 . S
O2145 U2126 2.420 . S
O2145 C2130 1.202 . S
O2146 U2126 2.455 . S
O2146 C2143 1.301 . S
O2147 U2126 2.449 . S
O2147 C2143 1.282 . S
H2148 C2121 0.931 . S
H2149 C2123 0.929 . S
H2150 C2124 0.930 . S
H2151 C2125 0.931 . S
H2152 C2132 0.932 . S
H2153 C2133 0.930 . S
H2154 C2134 0.929 . S
H2155 C2136 0.930 . S
H2156 C2138 0.932 . S
H2157 C2139 0.929 . S
H2158 C2140 0.928 . S
H2159 C2142 0.932 . S
C2160 C2161 1.264 . S
C2160 C2165 1.479 . S
C2160 C2170 1.465 . S
C2161 C2160 1.264 . S
C2161 C2163 1.339 . S
C2161 H2188 0.931 . S
C2162 C2163 1.395 . S
C2162 C2164 1.320 . S
C2163 C2161 1.339 . S
C2163 C2162 1.395 . S
C2163 H2189 0.929 . S
C2164 C2162 1.320 . S
C2164 C2165 1.405 . S
C2164 H2190 0.930 . S
C2165 C2160 1.479 . S
C2165 C2164 1.405 . S
C2165 H2191 0.931 . S
U2166 O2167 2.454 . S
U2166 O2168 2.458 . S
U2166 C2169 2.984 . S
U2166 C2170 2.847 . S
U2166 C2183 2.882 . S
U2166 O2184 2.441 . S
U2166 O2185 2.420 . S
U2166 O2186 2.455 . S
U2166 O2187 2.449 . S
O2167 U2166 2.454 . S
O2167 C2169 1.353 . S
O2168 U2166 2.458 . S
O2168 C2169 1.286 . S
C2169 U2166 2.984 . S
C2169 O2167 1.353 . S
C2169 O2168 1.286 . S
C2169 C2171 1.363 . S
C2170 C2160 1.465 . S
C2170 U2166 2.847 . S
C2170 O2184 1.249 . S
C2170 O2185 1.202 . S
C2171 C2169 1.363 . S
C2171 C2173 1.408 . S
C2171 C2176 1.342 . S
C2172 C2173 1.384 . S
C2172 C2175 1.425 1_655 S
C2172 H2192 0.897 1_655 S
C2173 C2171 1.408 . S
C2173 C2172 1.384 . S
C2173 H2193 0.930 . S
C2174 C2175 1.474 1_655 S
C2174 C2176 1.285 . S
C2174 H2194 0.929 1_655 S
C2175 C2172 1.425 1_455 S
C2175 C2174 1.474 1_455 S
C2176 C2171 1.342 . S
C2176 C2174 1.285 . S
C2176 H2195 0.930 . S
C2177 C2180 1.424 . S
C2177 C2182 1.245 . S
C2177 C2183 1.428 . S
C2178 C2181 1.260 . S
C2178 C2182 1.477 . S
C2178 H2196 0.932 . S
C2179 C2180 1.384 . S
C2179 C2181 1.479 . S
C2179 H2197 0.929 . S
C2180 C2177 1.424 . S
C2180 C2179 1.384 . S
C2180 H2198 0.928 . S
C2181 C2178 1.260 . S
C2181 C2179 1.479 . S
C2182 C2177 1.245 . S
C2182 C2178 1.477 . S
C2182 H2199 0.932 . S
C2183 U2166 2.882 . S
C2183 C2177 1.428 . S
C2183 O2186 1.301 . S
C2183 O2187 1.282 . S
O2184 U2166 2.441 . S
O2184 C2170 1.249 . S
O2185 U2166 2.420 . S
O2185 C2170 1.202 . S
O2186 U2166 2.455 . S
O2186 C2183 1.301 . S
O2187 U2166 2.449 . S
O2187 C2183 1.282 . S
H2188 C2161 0.931 . S
H2189 C2163 0.929 . S
H2190 C2164 0.930 . S
H2191 C2165 0.931 . S
H2192 C2172 0.897 1_455 S
H2193 C2173 0.930 . S
H2194 C2174 0.929 1_455 S
H2195 C2176 0.930 . S
H2196 C2178 0.932 . S
H2197 C2179 0.929 . S
H2198 C2180 0.928 . S
H2199 C2182 0.932 . S
C2200 C2201 1.264 . S
C2200 C2205 1.479 . S
C2200 C2210 1.465 . S
C2201 C2200 1.264 . S
C2201 C2203 1.339 . S
C2201 H2228 0.931 . S
C2202 C2203 1.395 . S
C2202 C2204 1.320 . S
C2203 C2201 1.339 . S
C2203 C2202 1.395 . S
C2203 H2229 0.929 . S
C2204 C2202 1.320 . S
C2204 C2205 1.405 . S
C2204 H2230 0.930 . S
C2205 C2200 1.479 . S
C2205 C2204 1.405 . S
C2205 H2231 0.931 . S
U2206 O2207 2.454 . S
U2206 O2208 2.458 . S
U2206 C2209 2.984 . S
U2206 C2210 2.847 . S
U2206 C2223 2.882 . S
U2206 O2224 2.441 . S
U2206 O2225 2.420 . S
U2206 O2226 2.455 . S
U2206 O2227 2.449 . S
O2207 U2206 2.454 . S
O2207 C2209 1.353 . S
O2208 U2206 2.458 . S
O2208 C2209 1.286 . S
C2209 U2206 2.984 . S
C2209 O2207 1.353 . S
C2209 O2208 1.286 . S
C2209 C2211 1.363 . S
C2210 C2200 1.465 . S
C2210 U2206 2.847 . S
C2210 O2224 1.249 . S
C2210 O2225 1.202 . S
C2211 C2209 1.363 . S
C2211 C2213 1.408 . S
C2211 C2216 1.342 . S
C2212 C2213 1.310 . S
C2212 C2215 1.461 . S
C2212 H2232 0.932 . S
C2213 C2211 1.408 . S
C2213 C2212 1.310 . S
C2213 H2233 0.930 . S
C2214 C2215 1.474 . S
C2214 C2216 1.285 . S
C2214 H2234 0.929 . S
C2215 C2212 1.461 . S
C2215 C2214 1.474 . S
C2216 C2211 1.342 . S
C2216 C2214 1.285 . S
C2216 H2235 0.930 . S
C2217 C2220 1.424 . S
C2217 C2222 1.245 . S
C2217 C2223 1.428 . S
C2218 C2221 1.260 . S
C2218 C2222 1.477 . S
C2218 H2236 0.932 . S
C2219 C2220 1.384 . S
C2219 C2221 1.479 . S
C2219 H2237 0.929 . S
C2220 C2217 1.424 . S
C2220 C2219 1.384 . S
C2220 H2238 0.928 . S
C2221 C2218 1.260 . S
C2221 C2219 1.479 . S
C2222 C2217 1.245 . S
C2222 C2218 1.477 . S
C2222 H2239 0.932 . S
C2223 U2206 2.882 . S
C2223 C2217 1.428 . S
C2223 O2226 1.301 . S
C2223 O2227 1.282 . S
O2224 U2206 2.441 . S
O2224 C2210 1.249 . S
O2225 U2206 2.420 . S
O2225 C2210 1.202 . S
O2226 U2206 2.455 . S
O2226 C2223 1.301 . S
O2227 U2206 2.449 . S
O2227 C2223 1.282 . S
H2228 C2201 0.931 . S
H2229 C2203 0.929 . S
H2230 C2204 0.930 . S
H2231 C2205 0.931 . S
H2232 C2212 0.932 . S
H2233 C2213 0.930 . S
H2234 C2214 0.929 . S
H2235 C2216 0.930 . S
H2236 C2218 0.932 . S
H2237 C2219 0.929 . S
H2238 C2220 0.928 . S
H2239 C2222 0.932 . S
C2240 C2241 1.264 . S
C2240 C2245 1.479 . S
C2240 C2250 1.465 . S
C2241 C2240 1.264 . S
C2241 C2243 1.339 . S
C2241 H2268 0.931 . S
C2242 C2243 1.395 . S
C2242 C2244 1.320 . S
C2243 C2241 1.339 . S
C2243 C2242 1.395 . S
C2243 H2269 0.929 . S
C2244 C2242 1.320 . S
C2244 C2245 1.405 . S
C2244 H2270 0.930 . S
C2245 C2240 1.479 . S
C2245 C2244 1.405 . S
C2245 H2271 0.931 . S
U2246 O2247 2.454 . S
U2246 O2248 2.458 . S
U2246 C2249 2.984 . S
U2246 C2250 2.847 . S
U2246 C2263 2.882 . S
U2246 O2264 2.441 . S
U2246 O2265 2.420 . S
U2246 O2266 2.455 . S
U2246 O2267 2.449 . S
O2247 U2246 2.454 . S
O2247 C2249 1.353 . S
O2248 U2246 2.458 . S
O2248 C2249 1.286 . S
C2249 U2246 2.984 . S
C2249 O2247 1.353 . S
C2249 O2248 1.286 . S
C2249 C2251 1.363 . S
C2250 C2240 1.465 . S
C2250 U2246 2.847 . S
C2250 O2264 1.249 . S
C2250 O2265 1.202 . S
C2251 C2249 1.363 . S
C2251 C2253 1.408 . S
C2251 C2256 1.342 . S
C2252 C2253 1.310 . S
C2252 C2255 1.461 . S
C2252 H2272 0.932 . S
C2253 C2251 1.408 . S
C2253 C2252 1.310 . S
C2253 H2273 0.930 . S
C2254 C2255 1.474 . S
C2254 C2256 1.285 . S
C2254 H2274 0.929 . S
C2255 C2252 1.461 . S
C2255 C2254 1.474 . S
C2256 C2251 1.342 . S
C2256 C2254 1.285 . S
C2256 H2275 0.930 . S
C2257 C2260 1.424 . S
C2257 C2262 1.245 . S
C2257 C2263 1.428 . S
C2258 C2261 1.260 . S
C2258 C2262 1.477 . S
C2258 H2276 0.932 . S
C2259 C2260 1.384 . S
C2259 C2261 1.479 . S
C2259 H2277 0.929 . S
C2260 C2257 1.424 . S
C2260 C2259 1.384 . S
C2260 H2278 0.928 . S
C2261 C2258 1.260 . S
C2261 C2259 1.479 . S
C2262 C2257 1.245 . S
C2262 C2258 1.477 . S
C2262 H2279 0.932 . S
C2263 U2246 2.882 . S
C2263 C2257 1.428 . S
C2263 O2266 1.301 . S
C2263 O2267 1.282 . S
O2264 U2246 2.441 . S
O2264 C2250 1.249 . S
O2265 U2246 2.420 . S
O2265 C2250 1.202 . S
O2266 U2246 2.455 . S
O2266 C2263 1.301 . S
O2267 U2246 2.449 . S
O2267 C2263 1.282 . S
H2268 C2241 0.931 . S
H2269 C2243 0.929 . S
H2270 C2244 0.930 . S
H2271 C2245 0.931 . S
H2272 C2252 0.932 . S
H2273 C2253 0.930 . S
H2274 C2254 0.929 . S
H2275 C2256 0.930 . S
H2276 C2258 0.932 . S
H2277 C2259 0.929 . S
H2278 C2260 0.928 . S
H2279 C2262 0.932 . S
C2280 C2281 1.264 . S
C2280 C2285 1.479 . S
C2280 C2290 1.465 . S
C2281 C2280 1.264 . S
C2281 C2283 1.339 . S
C2281 H2308 0.931 . S
C2282 C2283 1.395 . S
C2282 C2284 1.320 . S
C2283 C2281 1.339 . S
C2283 C2282 1.395 . S
C2283 H2309 0.929 . S
C2284 C2282 1.320 . S
C2284 C2285 1.405 . S
C2284 H2310 0.930 . S
C2285 C2280 1.479 . S
C2285 C2284 1.405 . S
C2285 H2311 0.931 . S
U2286 O2287 2.454 . S
U2286 O2288 2.458 . S
U2286 C2289 2.984 . S
U2286 C2290 2.847 . S
U2286 C2303 2.882 . S
U2286 O2304 2.441 . S
U2286 O2305 2.420 . S
U2286 O2306 2.455 . S
U2286 O2307 2.449 . S
O2287 U2286 2.454 . S
O2287 C2289 1.353 . S
O2288 U2286 2.458 . S
O2288 C2289 1.286 . S
C2289 U2286 2.984 . S
C2289 O2287 1.353 . S
C2289 O2288 1.286 . S
C2289 C2291 1.363 . S
C2290 C2280 1.465 . S
C2290 U2286 2.847 . S
C2290 O2304 1.249 . S
C2290 O2305 1.202 . S
C2291 C2289 1.363 . S
C2291 C2293 1.408 . S
C2291 C2296 1.342 . S
C2292 C2293 1.310 . S
C2292 C2295 1.461 . S
C2292 H2312 0.932 . S
C2293 C2291 1.408 . S
C2293 C2292 1.310 . S
C2293 H2313 0.930 . S
C2294 C2295 1.474 . S
C2294 C2296 1.285 . S
C2294 H2314 0.929 . S
C2295 C2292 1.461 . S
C2295 C2294 1.474 . S
C2296 C2291 1.342 . S
C2296 C2294 1.285 . S
C2296 H2315 0.930 . S
C2297 C2300 1.424 . S
C2297 C2302 1.245 . S
C2297 C2303 1.428 . S
C2298 C2301 1.260 . S
C2298 C2302 1.477 . S
C2298 H2316 0.932 . S
C2299 C2300 1.384 . S
C2299 C2301 1.479 . S
C2299 H2317 0.929 . S
C2300 C2297 1.424 . S
C2300 C2299 1.384 . S
C2300 H2318 0.928 . S
C2301 C2298 1.260 . S
C2301 C2299 1.479 . S
C2302 C2297 1.245 . S
C2302 C2298 1.477 . S
C2302 H2319 0.932 . S
C2303 U2286 2.882 . S
C2303 C2297 1.428 . S
C2303 O2306 1.301 . S
C2303 O2307 1.282 . S
O2304 U2286 2.441 . S
O2304 C2290 1.249 . S
O2305 U2286 2.420 . S
O2305 C2290 1.202 . S
O2306 U2286 2.455 . S
O2306 C2303 1.301 . S
O2307 U2286 2.449 . S
O2307 C2303 1.282 . S
H2308 C2281 0.931 . S
H2309 C2283 0.929 . S
H2310 C2284 0.930 . S
H2311 C2285 0.931 . S
H2312 C2292 0.932 . S
H2313 C2293 0.930 . S
H2314 C2294 0.929 . S
H2315 C2296 0.930 . S
H2316 C2298 0.932 . S
H2317 C2299 0.929 . S
H2318 C2300 0.928 . S
H2319 C2302 0.932 . S
C2320 C2321 1.264 . S
C2320 C2325 1.479 . S
C2320 C2330 1.465 . S
C2321 C2320 1.264 . S
C2321 C2323 1.339 . S
C2321 H2348 0.931 . S
C2322 C2323 1.395 . S
C2322 C2324 1.320 . S
C2323 C2321 1.339 . S
C2323 C2322 1.395 . S
C2323 H2349 0.929 . S
C2324 C2322 1.320 . S
C2324 C2325 1.405 . S
C2324 H2350 0.930 . S
C2325 C2320 1.479 . S
C2325 C2324 1.405 . S
C2325 H2351 0.931 . S
U2326 O2327 2.454 . S
U2326 O2328 2.458 . S
U2326 C2329 2.984 . S
U2326 C2330 2.847 . S
U2326 C2343 2.882 . S
U2326 O2344 2.441 . S
U2326 O2345 2.420 . S
U2326 O2346 2.455 . S
U2326 O2347 2.449 . S
O2327 U2326 2.454 . S
O2327 C2329 1.353 . S
O2328 U2326 2.458 . S
O2328 C2329 1.286 . S
C2329 U2326 2.984 . S
C2329 O2327 1.353 . S
C2329 O2328 1.286 . S
C2329 C2331 1.363 . S
C2330 C2320 1.465 . S
C2330 U2326 2.847 . S
C2330 O2344 1.249 . S
C2330 O2345 1.202 . S
C2331 C2329 1.363 . S
C2331 C2333 1.408 . S
C2331 C2336 1.342 . S
C2332 C2333 1.310 . S
C2332 C2335 1.461 . S
C2332 H2352 0.932 . S
C2333 C2331 1.408 . S
C2333 C2332 1.310 . S
C2333 H2353 0.930 . S
C2334 C2335 1.474 . S
C2334 C2336 1.285 . S
C2334 H2354 0.929 . S
C2335 C2332 1.461 . S
C2335 C2334 1.474 . S
C2336 C2331 1.342 . S
C2336 C2334 1.285 . S
C2336 H2355 0.930 . S
C2337 C2340 1.424 . S
C2337 C2342 1.245 . S
C2337 C2343 1.428 . S
C2338 C2341 1.260 . S
C2338 C2342 1.477 . S
C2338 H2356 0.932 . S
C2339 C2340 1.384 . S
C2339 C2341 1.479 . S
C2339 H2357 0.929 . S
C2340 C2337 1.424 . S
C2340 C2339 1.384 . S
C2340 H2358 0.928 . S
C2341 C2338 1.260 . S
C2341 C2339 1.479 . S
C2342 C2337 1.245 . S
C2342 C2338 1.477 . S
C2342 H2359 0.932 . S
C2343 U2326 2.882 . S
C2343 C2337 1.428 . S
C2343 O2346 1.301 . S
C2343 O2347 1.282 . S
O2344 U2326 2.441 . S
O2344 C2330 1.249 . S
O2345 U2326 2.420 . S
O2345 C2330 1.202 . S
O2346 U2326 2.455 . S
O2346 C2343 1.301 . S
O2347 U2326 2.449 . S
O2347 C2343 1.282 . S
H2348 C2321 0.931 . S
H2349 C2323 0.929 . S
H2350 C2324 0.930 . S
H2351 C2325 0.931 . S
H2352 C2332 0.932 . S
H2353 C2333 0.930 . S
H2354 C2334 0.929 . S
H2355 C2336 0.930 . S
H2356 C2338 0.932 . S
H2357 C2339 0.929 . S
H2358 C2340 0.928 . S
H2359 C2342 0.932 . S
C2360 C2361 1.264 . S
C2360 C2365 1.479 . S
C2360 C2370 1.465 . S
C2361 C2360 1.264 . S
C2361 C2363 1.339 . S
C2361 H2388 0.931 . S
C2362 C2363 1.395 . S
C2362 C2364 1.320 . S
C2363 C2361 1.339 . S
C2363 C2362 1.395 . S
C2363 H2389 0.929 . S
C2364 C2362 1.320 . S
C2364 C2365 1.405 . S
C2364 H2390 0.930 . S
C2365 C2360 1.479 . S
C2365 C2364 1.405 . S
C2365 H2391 0.931 . S
U2366 O2367 2.454 . S
U2366 O2368 2.458 . S
U2366 C2369 2.984 . S
U2366 C2370 2.847 . S
U2366 C2383 2.882 . S
U2366 O2384 2.441 . S
U2366 O2385 2.420 . S
U2366 O2386 2.455 . S
U2366 O2387 2.449 . S
O2367 U2366 2.454 . S
O2367 C2369 1.353 . S
O2368 U2366 2.458 . S
O2368 C2369 1.286 . S
C2369 U2366 2.984 . S
C2369 O2367 1.353 . S
C2369 O2368 1.286 . S
C2369 C2371 1.363 . S
C2370 C2360 1.465 . S
C2370 U2366 2.847 . S
C2370 O2384 1.249 . S
C2370 O2385 1.202 . S
C2371 C2369 1.363 . S
C2371 C2373 1.408 . S
C2371 C2376 1.342 . S
C2372 C2373 1.310 . S
C2372 C2375 1.461 . S
C2372 H2392 0.932 . S
C2373 C2371 1.408 . S
C2373 C2372 1.310 . S
C2373 H2393 0.930 . S
C2374 C2375 1.474 . S
C2374 C2376 1.285 . S
C2374 H2394 0.929 . S
C2375 C2372 1.461 . S
C2375 C2374 1.474 . S
C2376 C2371 1.342 . S
C2376 C2374 1.285 . S
C2376 H2395 0.930 . S
C2377 C2380 1.424 . S
C2377 C2382 1.245 . S
C2377 C2383 1.428 . S
C2378 C2381 1.260 . S
C2378 C2382 1.477 . S
C2378 H2396 0.932 . S
C2379 C2380 1.384 . S
C2379 C2381 1.479 . S
C2379 H2397 0.929 . S
C2380 C2377 1.424 . S
C2380 C2379 1.384 . S
C2380 H2398 0.928 . S
C2381 C2378 1.260 . S
C2381 C2379 1.479 . S
C2382 C2377 1.245 . S
C2382 C2378 1.477 . S
C2382 H2399 0.932 . S
C2383 U2366 2.882 . S
C2383 C2377 1.428 . S
C2383 O2386 1.301 . S
C2383 O2387 1.282 . S
O2384 U2366 2.441 . S
O2384 C2370 1.249 . S
O2385 U2366 2.420 . S
O2385 C2370 1.202 . S
O2386 U2366 2.455 . S
O2386 C2383 1.301 . S
O2387 U2366 2.449 . S
O2387 C2383 1.282 . S
H2388 C2361 0.931 . S
H2389 C2363 0.929 . S
H2390 C2364 0.930 . S
H2391 C2365 0.931 . S
H2392 C2372 0.932 . S
H2393 C2373 0.930 . S
H2394 C2374 0.929 . S
H2395 C2376 0.930 . S
H2396 C2378 0.932 . S
H2397 C2379 0.929 . S
H2398 C2380 0.928 . S
H2399 C2382 0.932 . S
C2400 C2401 1.264 . S
C2400 C2405 1.479 . S
C2400 C2410 1.465 . S
C2401 C2400 1.264 . S
C2401 C2403 1.339 . S
C2401 H2428 0.931 . S
C2402 C2403 1.395 . S
C2402 C2404 1.320 . S
C2403 C2401 1.339 . S
C2403 C2402 1.395 . S
C2403 H2429 0.929 . S
C2404 C2402 1.320 . S
C2404 C2405 1.405 . S
C2404 H2430 0.930 . S
C2405 C2400 1.479 . S
C2405 C2404 1.405 . S
C2405 H2431 0.931 . S
U2406 O2407 2.454 . S
U2406 O2408 2.458 . S
U2406 C2409 2.984 . S
U2406 C2410 2.847 . S
U2406 C2423 2.882 . S
U2406 O2424 2.441 . S
U2406 O2425 2.420 . S
U2406 O2426 2.455 . S
U2406 O2427 2.449 . S
O2407 U2406 2.454 . S
O2407 C2409 1.353 . S
O2408 U2406 2.458 . S
O2408 C2409 1.286 . S
C2409 U2406 2.984 . S
C2409 O2407 1.353 . S
C2409 O2408 1.286 . S
C2409 C2411 1.363 . S
C2410 C2400 1.465 . S
C2410 U2406 2.847 . S
C2410 O2424 1.249 . S
C2410 O2425 1.202 . S
C2411 C2409 1.363 . S
C2411 C2413 1.408 . S
C2411 C2416 1.342 . S
C2412 C2413 1.310 . S
C2412 C2415 1.461 . S
C2412 H2432 0.932 . S
C2413 C2411 1.408 . S
C2413 C2412 1.310 . S
C2413 H2433 0.930 . S
C2414 C2415 1.474 . S
C2414 C2416 1.285 . S
C2414 H2434 0.929 . S
C2415 C2412 1.461 . S
C2415 C2414 1.474 . S
C2416 C2411 1.342 . S
C2416 C2414 1.285 . S
C2416 H2435 0.930 . S
C2417 C2420 1.424 . S
C2417 C2422 1.245 . S
C2417 C2423 1.428 . S
C2418 C2421 1.260 . S
C2418 C2422 1.477 . S
C2418 H2436 0.932 . S
C2419 C2420 1.384 . S
C2419 C2421 1.479 . S
C2419 H2437 0.929 . S
C2420 C2417 1.424 . S
C2420 C2419 1.384 . S
C2420 H2438 0.928 . S
C2421 C2418 1.260 . S
C2421 C2419 1.479 . S
C2422 C2417 1.245 . S
C2422 C2418 1.477 . S
C2422 H2439 0.932 . S
C2423 U2406 2.882 . S
C2423 C2417 1.428 . S
C2423 O2426 1.301 . S
C2423 O2427 1.282 . S
O2424 U2406 2.441 . S
O2424 C2410 1.249 . S
O2425 U2406 2.420 . S
O2425 C2410 1.202 . S
O2426 U2406 2.455 . S
O2426 C2423 1.301 . S
O2427 U2406 2.449 . S
O2427 C2423 1.282 . S
H2428 C2401 0.931 . S
H2429 C2403 0.929 . S
H2430 C2404 0.930 . S
H2431 C2405 0.931 . S
H2432 C2412 0.932 . S
H2433 C2413 0.930 . S
H2434 C2414 0.929 . S
H2435 C2416 0.930 . S
H2436 C2418 0.932 . S
H2437 C2419 0.929 . S
H2438 C2420 0.928 . S
H2439 C2422 0.932 . S
C2440 C2441 1.264 . S
C2440 C2445 1.479 . S
C2440 C2450 1.465 . S
C2441 C2440 1.264 . S
C2441 C2443 1.339 . S
C2441 H2468 0.931 . S
C2442 C2443 1.395 . S
C2442 C2444 1.320 . S
C2443 C2441 1.339 . S
C2443 C2442 1.395 . S
C2443 H2469 0.929 . S
C2444 C2442 1.320 . S
C2444 C2445 1.405 . S
C2444 H2470 0.930 . S
C2445 C2440 1.479 . S
C2445 C2444 1.405 . S
C2445 H2471 0.931 . S
U2446 O2447 2.454 . S
U2446 O2448 2.458 . S
U2446 C2449 2.984 . S
U2446 C2450 2.847 . S
U2446 C2463 2.882 . S
U2446 O2464 2.441 . S
U2446 O2465 2.420 . S
U2446 O2466 2.455 . S
U2446 O2467 2.449 . S
O2447 U2446 2.454 . S
O2447 C2449 1.353 . S
O2448 U2446 2.458 . S
O2448 C2449 1.286 . S
C2449 U2446 2.984 . S
C2449 O2447 1.353 . S
C2449 O2448 1.286 . S
C2449 C2451 1.363 . S
C2450 C2440 1.465 . S
C2450 U2446 2.847 . S
C2450 O2464 1.249 . S
C2450 O2465 1.202 . S
C2451 C2449 1.363 . S
C2451 C2453 1.408 . S
C2451 C2456 1.342 . S
C2452 C2453 1.310 . S
C2452 C2455 1.461 . S
C2452 H2472 0.932 . S
C2453 C2451 1.408 . S
C2453 C2452 1.310 . S
C2453 H2473 0.930 . S
C2454 C2455 1.474 . S
C2454 C2456 1.285 . S
C2454 H2474 0.929 . S
C2455 C2452 1.461 . S
C2455 C2454 1.474 . S
C2456 C2451 1.342 . S
C2456 C2454 1.285 . S
C2456 H2475 0.930 . S
C2457 C2460 1.424 . S
C2457 C2462 1.245 . S
C2457 C2463 1.428 . S
C2458 C2461 1.260 . S
C2458 C2462 1.477 . S
C2458 H2476 0.932 . S
C2459 C2460 1.384 . S
C2459 C2461 1.479 . S
C2459 H2477 0.929 . S
C2460 C2457 1.424 . S
C2460 C2459 1.384 . S
C2460 H2478 0.928 . S
C2461 C2458 1.260 . S
C2461 C2459 1.479 . S
C2462 C2457 1.245 . S
C2462 C2458 1.477 . S
C2462 H2479 0.932 . S
C2463 U2446 2.882 . S
C2463 C2457 1.428 . S
C2463 O2466 1.301 . S
C2463 O2467 1.282 . S
O2464 U2446 2.441 . S
O2464 C2450 1.249 . S
O2465 U2446 2.420 . S
O2465 C2450 1.202 . S
O2466 U2446 2.455 . S
O2466 C2463 1.301 . S
O2467 U2446 2.449 . S
O2467 C2463 1.282 . S
H2468 C2441 0.931 . S
H2469 C2443 0.929 . S
H2470 C2444 0.930 . S
H2471 C2445 0.931 . S
H2472 C2452 0.932 . S
H2473 C2453 0.930 . S
H2474 C2454 0.929 . S
H2475 C2456 0.930 . S
H2476 C2458 0.932 . S
H2477 C2459 0.929 . S
H2478 C2460 0.928 . S
H2479 C2462 0.932 . S
C2480 C2481 1.264 . S
C2480 C2485 1.479 . S
C2480 C2490 1.465 . S
C2481 C2480 1.264 . S
C2481 C2483 1.339 . S
C2481 H2508 0.931 . S
C2482 C2483 1.395 . S
C2482 C2484 1.320 . S
C2483 C2481 1.339 . S
C2483 C2482 1.395 . S
C2483 H2509 0.929 . S
C2484 C2482 1.320 . S
C2484 C2485 1.405 . S
C2484 H2510 0.930 . S
C2485 C2480 1.479 . S
C2485 C2484 1.405 . S
C2485 H2511 0.931 . S
U2486 O2487 2.454 . S
U2486 O2488 2.458 . S
U2486 C2489 2.984 . S
U2486 C2490 2.847 . S
U2486 C2503 2.882 . S
U2486 O2504 2.441 . S
U2486 O2505 2.420 . S
U2486 O2506 2.455 . S
U2486 O2507 2.449 . S
O2487 U2486 2.454 . S
O2487 C2489 1.353 . S
O2488 U2486 2.458 . S
O2488 C2489 1.286 . S
C2489 U2486 2.984 . S
C2489 O2487 1.353 . S
C2489 O2488 1.286 . S
C2489 C2491 1.363 . S
C2490 C2480 1.465 . S
C2490 U2486 2.847 . S
C2490 O2504 1.249 . S
C2490 O2505 1.202 . S
C2491 C2489 1.363 . S
C2491 C2493 1.408 . S
C2491 C2496 1.342 . S
C2492 C2493 1.310 . S
C2492 C2495 1.461 . S
C2492 H2512 0.932 . S
C2493 C2491 1.408 . S
C2493 C2492 1.310 . S
C2493 H2513 0.930 . S
C2494 C2495 1.474 . S
C2494 C2496 1.285 . S
C2494 H2514 0.929 . S
C2495 C2492 1.461 . S
C2495 C2494 1.474 . S
C2496 C2491 1.342 . S
C2496 C2494 1.285 . S
C2496 H2515 0.930 . S
C2497 C2500 1.424 . S
C2497 C2502 1.245 . S
C2497 C2503 1.428 . S
C2498 C2501 1.260 . S
C2498 C2502 1.477 . S
C2498 H2516 0.932 . S
C2499 C2500 1.384 . S
C2499 C2501 1.479 . S
C2499 H2517 0.929 . S
C2500 C2497 1.424 . S
C2500 C2499 1.384 . S
C2500 H2518 0.928 . S
C2501 C2498 1.260 . S
C2501 C2499 1.479 . S
C2502 C2497 1.245 . S
C2502 C2498 1.477 . S
C2502 H2519 0.932 . S
C2503 U2486 2.882 . S
C2503 C2497 1.428 . S
C2503 O2506 1.301 . S
C2503 O2507 1.282 . S
O2504 U2486 2.441 . S
O2504 C2490 1.249 . S
O2505 U2486 2.420 . S
O2505 C2490 1.202 . S
O2506 U2486 2.455 . S
O2506 C2503 1.301 . S
O2507 U2486 2.449 . S
O2507 C2503 1.282 . S
H2508 C2481 0.931 . S
H2509 C2483 0.929 . S
H2510 C2484 0.930 . S
H2511 C2485 0.931 . S
H2512 C2492 0.932 . S
H2513 C2493 0.930 . S
H2514 C2494 0.929 . S
H2515 C2496 0.930 . S
H2516 C2498 0.932 . S
H2517 C2499 0.929 . S
H2518 C2500 0.928 . S
H2519 C2502 0.932 . S
C2520 C2521 1.264 . S
C2520 C2525 1.479 . S
C2520 C2530 1.465 . S
C2521 C2520 1.264 . S
C2521 C2523 1.339 . S
C2521 H2548 0.931 . S
C2522 C2523 1.395 . S
C2522 C2524 1.320 . S
C2523 C2521 1.339 . S
C2523 C2522 1.395 . S
C2523 H2549 0.929 . S
C2524 C2522 1.320 . S
C2524 C2525 1.405 . S
C2524 H2550 0.930 . S
C2525 C2520 1.479 . S
C2525 C2524 1.405 . S
C2525 H2551 0.931 . S
U2526 O2527 2.454 . S
U2526 O2528 2.458 . S
U2526 C2529 2.984 . S
U2526 C2530 2.847 . S
U2526 C2543 2.882 . S
U2526 O2544 2.441 . S
U2526 O2545 2.420 . S
U2526 O2546 2.455 . S
U2526 O2547 2.449 . S
O2527 U2526 2.454 . S
O2527 C2529 1.353 . S
O2528 U2526 2.458 . S
O2528 C2529 1.286 . S
C2529 U2526 2.984 . S
C2529 O2527 1.353 . S
C2529 O2528 1.286 . S
C2529 C2531 1.363 . S
C2530 C2520 1.465 . S
C2530 U2526 2.847 . S
C2530 O2544 1.249 . S
C2530 O2545 1.202 . S
C2531 C2529 1.363 . S
C2531 C2533 1.408 . S
C2531 C2536 1.342 . S
C2532 C2533 1.310 . S
C2532 C2535 1.461 . S
C2532 H2552 0.932 . S
C2533 C2531 1.408 . S
C2533 C2532 1.310 . S
C2533 H2553 0.930 . S
C2534 C2535 1.474 . S
C2534 C2536 1.285 . S
C2534 H2554 0.929 . S
C2535 C2532 1.461 . S
C2535 C2534 1.474 . S
C2536 C2531 1.342 . S
C2536 C2534 1.285 . S
C2536 H2555 0.930 . S
C2537 C2540 1.424 . S
C2537 C2542 1.245 . S
C2537 C2543 1.428 . S
C2538 C2541 1.260 . S
C2538 C2542 1.477 . S
C2538 H2556 0.932 . S
C2539 C2540 1.384 . S
C2539 C2541 1.479 . S
C2539 H2557 0.929 . S
C2540 C2537 1.424 . S
C2540 C2539 1.384 . S
C2540 H2558 0.928 . S
C2541 C2538 1.260 . S
C2541 C2539 1.479 . S
C2542 C2537 1.245 . S
C2542 C2538 1.477 . S
C2542 H2559 0.932 . S
C2543 U2526 2.882 . S
C2543 C2537 1.428 . S
C2543 O2546 1.301 . S
C2543 O2547 1.282 . S
O2544 U2526 2.441 . S
O2544 C2530 1.249 . S
O2545 U2526 2.420 . S
O2545 C2530 1.202 . S
O2546 U2526 2.455 . S
O2546 C2543 1.301 . S
O2547 U2526 2.449 . S
O2547 C2543 1.282 . S
H2548 C2521 0.931 . S
H2549 C2523 0.929 . S
H2550 C2524 0.930 . S
H2551 C2525 0.931 . S
H2552 C2532 0.932 . S
H2553 C2533 0.930 . S
H2554 C2534 0.929 . S
H2555 C2536 0.930 . S
H2556 C2538 0.932 . S
H2557 C2539 0.929 . S
H2558 C2540 0.928 . S
H2559 C2542 0.932 . S
C2560 C2561 1.264 . S
C2560 C2565 1.479 . S
C2560 C2570 1.465 . S
C2561 C2560 1.264 . S
C2561 C2563 1.339 . S
C2561 H2588 0.931 . S
C2562 C2563 1.395 . S
C2562 C2564 1.320 . S
C2563 C2561 1.339 . S
C2563 C2562 1.395 . S
C2563 H2589 0.929 . S
C2564 C2562 1.320 . S
C2564 C2565 1.405 . S
C2564 H2590 0.930 . S
C2565 C2560 1.479 . S
C2565 C2564 1.405 . S
C2565 H2591 0.931 . S
U2566 O2567 2.454 . S
U2566 O2568 2.458 . S
U2566 C2569 2.984 . S
U2566 C2570 2.847 . S
U2566 C2583 2.882 . S
U2566 O2584 2.441 . S
U2566 O2585 2.420 . S
U2566 O2586 2.455 . S
U2566 O2587 2.449 . S
O2567 U2566 2.454 . S
O2567 C2569 1.353 . S
O2568 U2566 2.458 . S
O2568 C2569 1.286 . S
C2569 U2566 2.984 . S
C2569 O2567 1.353 . S
C2569 O2568 1.286 . S
C2569 C2571 1.363 . S
C2570 C2560 1.465 . S
C2570 U2566 2.847 . S
C2570 O2584 1.249 . S
C2570 O2585 1.202 . S
C2571 C2569 1.363 . S
C2571 C2573 1.408 . S
C2571 C2576 1.342 . S
C2572 C2573 1.310 . S
C2572 C2575 1.461 . S
C2572 H2592 0.932 . S
C2573 C2571 1.408 . S
C2573 C2572 1.310 . S
C2573 H2593 0.930 . S
C2574 C2575 1.474 . S
C2574 C2576 1.285 . S
C2574 H2594 0.929 . S
C2575 C2572 1.461 . S
C2575 C2574 1.474 . S
C2576 C2571 1.342 . S
C2576 C2574 1.285 . S
C2576 H2595 0.930 . S
C2577 C2580 1.424 . S
C2577 C2582 1.245 . S
C2577 C2583 1.428 . S
C2578 C2581 1.260 . S
C2578 C2582 1.477 . S
C2578 H2596 0.932 . S
C2579 C2580 1.384 . S
C2579 C2581 1.479 . S
C2579 H2597 0.929 . S
C2580 C2577 1.424 . S
C2580 C2579 1.384 . S
C2580 H2598 0.928 . S
C2581 C2578 1.260 . S
C2581 C2579 1.479 . S
C2582 C2577 1.245 . S
C2582 C2578 1.477 . S
C2582 H2599 0.932 . S
C2583 U2566 2.882 . S
C2583 C2577 1.428 . S
C2583 O2586 1.301 . S
C2583 O2587 1.282 . S
O2584 U2566 2.441 . S
O2584 C2570 1.249 . S
O2585 U2566 2.420 . S
O2585 C2570 1.202 . S
O2586 U2566 2.455 . S
O2586 C2583 1.301 . S
O2587 U2566 2.449 . S
O2587 C2583 1.282 . S
H2588 C2561 0.931 . S
H2589 C2563 0.929 . S
H2590 C2564 0.930 . S
H2591 C2565 0.931 . S
H2592 C2572 0.932 . S
H2593 C2573 0.930 . S
H2594 C2574 0.929 . S
H2595 C2576 0.930 . S
H2596 C2578 0.932 . S
H2597 C2579 0.929 . S
H2598 C2580 0.928 . S
H2599 C2582 0.932 . S
C2600 C2601 1.264 . S
C2600 C2605 1.479 . S
C2600 C2610 1.465 . S
C2601 C2600 1.264 . S
C2601 C2603 1.339 . S
C2601 H2628 0.931 . S
C2602 C2603 1.395 . S
C2602 C2604 1.320 . S
C2603 C2601 1.339 . S
C2603 C2602 1.395 . S
C2603 H2629 0.929 . S
C2604 C2602 1.320 . S
C2604 C2605 1.405 . S
C2604 H2630 0.930 . S
C2605 C2600 1.479 . S
C2605 C2604 1.405 . S
C2605 H2631 0.931 . S
U2606 O2607 2.454 . S
U2606 O2608 2.458 . S
U2606 C2609 2.984 . S
U2606 C2610 2.847 . S
U2606 C2623 2.882 . S
U2606 O2624 2.441 . S
U2606 O2625 2.420 . S
U2606 O2626 2.455 . S
U2606 O2627 2.449 . S
O2607 U2606 2.454 . S
O2607 C2609 1.353 . S
O2608 U2606 2.458 . S
O2608 C2609 1.286 . S
C2609 U2606 2.984 . S
C2609 O2607 1.353 . S
C2609 O2608 1.286 . S
C2609 C2611 1.363 . S
C2610 C2600 1.465 . S
C2610 U2606 2.847 . S
C2610 O2624 1.249 . S
C2610 O2625 1.202 . S
C2611 C2609 1.363 . S
C2611 C2613 1.408 . S
C2611 C2616 1.342 . S
C2612 C2613 1.310 . S
C2612 C2615 1.461 . S
C2612 H2632 0.932 . S
C2613 C2611 1.408 . S
C2613 C2612 1.310 . S
C2613 H2633 0.930 . S
C2614 C2615 1.474 . S
C2614 C2616 1.285 . S
C2614 H2634 0.929 . S
C2615 C2612 1.461 . S
C2615 C2614 1.474 . S
C2616 C2611 1.342 . S
C2616 C2614 1.285 . S
C2616 H2635 0.930 . S
C2617 C2620 1.424 . S
C2617 C2622 1.245 . S
C2617 C2623 1.428 . S
C2618 C2621 1.260 . S
C2618 C2622 1.477 . S
C2618 H2636 0.932 . S
C2619 C2620 1.384 . S
C2619 C2621 1.479 . S
C2619 H2637 0.929 . S
C2620 C2617 1.424 . S
C2620 C2619 1.384 . S
C2620 H2638 0.928 . S
C2621 C2618 1.260 . S
C2621 C2619 1.479 . S
C2622 C2617 1.245 . S
C2622 C2618 1.477 . S
C2622 H2639 0.932 . S
C2623 U2606 2.882 . S
C2623 C2617 1.428 . S
C2623 O2626 1.301 . S
C2623 O2627 1.282 . S
O2624 U2606 2.441 . S
O2624 C2610 1.249 . S
O2625 U2606 2.420 . S
O2625 C2610 1.202 . S
O2626 U2606 2.455 . S
O2626 C2623 1.301 . S
O2627 U2606 2.449 . S
O2627 C2623 1.282 . S
H2628 C2601 0.931 . S
H2629 C2603 0.929 . S
H2630 C2604 0.930 . S
H2631 C2605 0.931 . S
H2632 C2612 0.932 . S
H2633 C2613 0.930 . S
H2634 C2614 0.929 . S
H2635 C2616 0.930 . S
H2636 C2618 0.932 . S
H2637 C2619 0.929 . S
H2638 C2620 0.928 . S
H2639 C2622 0.932 . S
C2640 C2641 1.264 . S
C2640 C2645 1.479 . S
C2640 C2650 1.465 . S
C2641 C2640 1.264 . S
C2641 C2643 1.339 . S
C2641 H2668 0.931 . S
C2642 C2643 1.395 . S
C2642 C2644 1.320 . S
C2643 C2641 1.339 . S
C2643 C2642 1.395 . S
C2643 H2669 0.929 . S
C2644 C2642 1.320 . S
C2644 C2645 1.405 . S
C2644 H2670 0.930 . S
C2645 C2640 1.479 . S
C2645 C2644 1.405 . S
C2645 H2671 0.931 . S
U2646 O2647 2.454 . S
U2646 O2648 2.458 . S
U2646 C2649 2.984 . S
U2646 C2650 2.847 . S
U2646 C2663 2.882 . S
U2646 O2664 2.441 . S
U2646 O2665 2.420 . S
U2646 O2666 2.455 . S
U2646 O2667 2.449 . S
O2647 U2646 2.454 . S
O2647 C2649 1.353 . S
O2648 U2646 2.458 . S
O2648 C2649 1.286 . S
C2649 U2646 2.984 . S
C2649 O2647 1.353 . S
C2649 O2648 1.286 . S
C2649 C2651 1.363 . S
C2650 C2640 1.465 . S
C2650 U2646 2.847 . S
C2650 O2664 1.249 . S
C2650 O2665 1.202 . S
C2651 C2649 1.363 . S
C2651 C2653 1.408 . S
C2651 C2656 1.342 . S
C2652 C2653 1.310 . S
C2652 C2655 1.461 . S
C2652 H2672 0.932 . S
C2653 C2651 1.408 . S
C2653 C2652 1.310 . S
C2653 H2673 0.930 . S
C2654 C2655 1.474 . S
C2654 C2656 1.285 . S
C2654 H2674 0.929 . S
C2655 C2652 1.461 . S
C2655 C2654 1.474 . S
C2656 C2651 1.342 . S
C2656 C2654 1.285 . S
C2656 H2675 0.930 . S
C2657 C2660 1.424 . S
C2657 C2662 1.245 . S
C2657 C2663 1.428 . S
C2658 C2661 1.260 . S
C2658 C2662 1.477 . S
C2658 H2676 0.932 . S
C2659 C2660 1.384 . S
C2659 C2661 1.479 . S
C2659 H2677 0.929 . S
C2660 C2657 1.424 . S
C2660 C2659 1.384 . S
C2660 H2678 0.928 . S
C2661 C2658 1.260 . S
C2661 C2659 1.479 . S
C2662 C2657 1.245 . S
C2662 C2658 1.477 . S
C2662 H2679 0.932 . S
C2663 U2646 2.882 . S
C2663 C2657 1.428 . S
C2663 O2666 1.301 . S
C2663 O2667 1.282 . S
O2664 U2646 2.441 . S
O2664 C2650 1.249 . S
O2665 U2646 2.420 . S
O2665 C2650 1.202 . S
O2666 U2646 2.455 . S
O2666 C2663 1.301 . S
O2667 U2646 2.449 . S
O2667 C2663 1.282 . S
H2668 C2641 0.931 . S
H2669 C2643 0.929 . S
H2670 C2644 0.930 . S
H2671 C2645 0.931 . S
H2672 C2652 0.932 . S
H2673 C2653 0.930 . S
H2674 C2654 0.929 . S
H2675 C2656 0.930 . S
H2676 C2658 0.932 . S
H2677 C2659 0.929 . S
H2678 C2660 0.928 . S
H2679 C2662 0.932 . S
C2680 C2681 1.264 . S
C2680 C2685 1.479 . S
C2680 C2690 1.465 . S
C2681 C2680 1.264 . S
C2681 C2683 1.339 . S
C2681 H2708 0.931 . S
C2682 C2683 1.395 . S
C2682 C2684 1.320 . S
C2683 C2681 1.339 . S
C2683 C2682 1.395 . S
C2683 H2709 0.929 . S
C2684 C2682 1.320 . S
C2684 C2685 1.405 . S
C2684 H2710 0.930 . S
C2685 C2680 1.479 . S
C2685 C2684 1.405 . S
C2685 H2711 0.931 . S
U2686 O2687 2.454 . S
U2686 O2688 2.458 . S
U2686 C2689 2.984 . S
U2686 C2690 2.847 . S
U2686 C2703 2.882 . S
U2686 O2704 2.441 . S
U2686 O2705 2.420 . S
U2686 O2706 2.455 . S
U2686 O2707 2.449 . S
O2687 U2686 2.454 . S
O2687 C2689 1.353 . S
O2688 U2686 2.458 . S
O2688 C2689 1.286 . S
C2689 U2686 2.984 . S
C2689 O2687 1.353 . S
C2689 O2688 1.286 . S
C2689 C2691 1.363 . S
C2690 C2680 1.465 . S
C2690 U2686 2.847 . S
C2690 O2704 1.249 . S
C2690 O2705 1.202 . S
C2691 C2689 1.363 . S
C2691 C2693 1.408 . S
C2691 C2696 1.342 . S
C2692 C2693 1.310 . S
C2692 C2695 1.461 . S
C2692 H2712 0.932 . S
C2693 C2691 1.408 . S
C2693 C2692 1.310 . S
C2693 H2713 0.930 . S
C2694 C2695 1.474 . S
C2694 C2696 1.285 . S
C2694 H2714 0.929 . S
C2695 C2692 1.461 . S
C2695 C2694 1.474 . S
C2696 C2691 1.342 . S
C2696 C2694 1.285 . S
C2696 H2715 0.930 . S
C2697 C2700 1.424 . S
C2697 C2702 1.245 . S
C2697 C2703 1.428 . S
C2698 C2701 1.260 . S
C2698 C2702 1.477 . S
C2698 H2716 0.932 . S
C2699 C2700 1.384 . S
C2699 C2701 1.479 . S
C2699 H2717 0.929 . S
C2700 C2697 1.424 . S
C2700 C2699 1.384 . S
C2700 H2718 0.928 . S
C2701 C2698 1.260 . S
C2701 C2699 1.479 . S
C2702 C2697 1.245 . S
C2702 C2698 1.477 . S
C2702 H2719 0.932 . S
C2703 U2686 2.882 . S
C2703 C2697 1.428 . S
C2703 O2706 1.301 . S
C2703 O2707 1.282 . S
O2704 U2686 2.441 . S
O2704 C2690 1.249 . S
O2705 U2686 2.420 . S
O2705 C2690 1.202 . S
O2706 U2686 2.455 . S
O2706 C2703 1.301 . S
O2707 U2686 2.449 . S
O2707 C2703 1.282 . S
H2708 C2681 0.931 . S
H2709 C2683 0.929 . S
H2710 C2684 0.930 . S
H2711 C2685 0.931 . S
H2712 C2692 0.932 . S
H2713 C2693 0.930 . S
H2714 C2694 0.929 . S
H2715 C2696 0.930 . S
H2716 C2698 0.932 . S
H2717 C2699 0.929 . S
H2718 C2700 0.928 . S
H2719 C2702 0.932 . S
C2720 C2721 1.264 . S
C2720 C2725 1.479 . S
C2720 C2730 1.465 . S
C2721 C2720 1.264 . S
C2721 C2723 1.339 . S
C2721 H2748 0.931 . S
C2722 C2723 1.395 . S
C2722 C2724 1.320 . S
C2723 C2721 1.339 . S
C2723 C2722 1.395 . S
C2723 H2749 0.929 . S
C2724 C2722 1.320 . S
C2724 C2725 1.405 . S
C2724 H2750 0.930 . S
C2725 C2720 1.479 . S
C2725 C2724 1.405 . S
C2725 H2751 0.931 . S
U2726 O2727 2.454 . S
U2726 O2728 2.458 . S
U2726 C2729 2.984 . S
U2726 C2730 2.847 . S
U2726 C2743 2.882 . S
U2726 O2744 2.441 . S
U2726 O2745 2.420 . S
U2726 O2746 2.455 . S
U2726 O2747 2.449 . S
O2727 U2726 2.454 . S
O2727 C2729 1.353 . S
O2728 U2726 2.458 . S
O2728 C2729 1.286 . S
C2729 U2726 2.984 . S
C2729 O2727 1.353 . S
C2729 O2728 1.286 . S
C2729 C2731 1.363 . S
C2730 C2720 1.465 . S
C2730 U2726 2.847 . S
C2730 O2744 1.249 . S
C2730 O2745 1.202 . S
C2731 C2729 1.363 . S
C2731 C2733 1.408 . S
C2731 C2736 1.342 . S
C2732 C2733 1.310 . S
C2732 C2735 1.461 . S
C2732 H2752 0.932 . S
C2733 C2731 1.408 . S
C2733 C2732 1.310 . S
C2733 H2753 0.930 . S
C2734 C2735 1.474 . S
C2734 C2736 1.285 . S
C2734 H2754 0.929 . S
C2735 C2732 1.461 . S
C2735 C2734 1.474 . S
C2736 C2731 1.342 . S
C2736 C2734 1.285 . S
C2736 H2755 0.930 . S
C2737 C2740 1.424 . S
C2737 C2742 1.245 . S
C2737 C2743 1.428 . S
C2738 C2741 1.260 . S
C2738 C2742 1.477 . S
C2738 H2756 0.932 . S
C2739 C2740 1.384 . S
C2739 C2741 1.479 . S
C2739 H2757 0.929 . S
C2740 C2737 1.424 . S
C2740 C2739 1.384 . S
C2740 H2758 0.928 . S
C2741 C2738 1.260 . S
C2741 C2739 1.479 . S
C2742 C2737 1.245 . S
C2742 C2738 1.477 . S
C2742 H2759 0.932 . S
C2743 U2726 2.882 . S
C2743 C2737 1.428 . S
C2743 O2746 1.301 . S
C2743 O2747 1.282 . S
O2744 U2726 2.441 . S
O2744 C2730 1.249 . S
O2745 U2726 2.420 . S
O2745 C2730 1.202 . S
O2746 U2726 2.455 . S
O2746 C2743 1.301 . S
O2747 U2726 2.449 . S
O2747 C2743 1.282 . S
H2748 C2721 0.931 . S
H2749 C2723 0.929 . S
H2750 C2724 0.930 . S
H2751 C2725 0.931 . S
H2752 C2732 0.932 . S
H2753 C2733 0.930 . S
H2754 C2734 0.929 . S
H2755 C2736 0.930 . S
H2756 C2738 0.932 . S
H2757 C2739 0.929 . S
H2758 C2740 0.928 . S
H2759 C2742 0.932 . S
C2760 C2761 1.264 . S
C2760 C2765 1.479 . S
C2760 C2770 1.465 . S
C2761 C2760 1.264 . S
C2761 C2763 1.339 . S
C2761 H2788 0.931 . S
C2762 C2763 1.395 . S
C2762 C2764 1.320 . S
C2763 C2761 1.339 . S
C2763 C2762 1.395 . S
C2763 H2789 0.929 . S
C2764 C2762 1.320 . S
C2764 C2765 1.405 . S
C2764 H2790 0.930 . S
C2765 C2760 1.479 . S
C2765 C2764 1.405 . S
C2765 H2791 0.931 . S
U2766 O2767 2.454 . S
U2766 O2768 2.458 . S
U2766 C2769 2.984 . S
U2766 C2770 2.847 . S
U2766 C2783 2.882 . S
U2766 O2784 2.441 . S
U2766 O2785 2.420 . S
U2766 O2786 2.455 . S
U2766 O2787 2.449 . S
O2767 U2766 2.454 . S
O2767 C2769 1.353 . S
O2768 U2766 2.458 . S
O2768 C2769 1.286 . S
C2769 U2766 2.984 . S
C2769 O2767 1.353 . S
C2769 O2768 1.286 . S
C2769 C2771 1.363 . S
C2770 C2760 1.465 . S
C2770 U2766 2.847 . S
C2770 O2784 1.249 . S
C2770 O2785 1.202 . S
C2771 C2769 1.363 . S
C2771 C2773 1.408 . S
C2771 C2776 1.342 . S
C2772 C2773 1.310 . S
C2772 C2775 1.461 . S
C2772 H2792 0.932 . S
C2773 C2771 1.408 . S
C2773 C2772 1.310 . S
C2773 H2793 0.930 . S
C2774 C2775 1.474 . S
C2774 C2776 1.285 . S
C2774 H2794 0.929 . S
C2775 C2772 1.461 . S
C2775 C2774 1.474 . S
C2776 C2771 1.342 . S
C2776 C2774 1.285 . S
C2776 H2795 0.930 . S
C2777 C2780 1.424 . S
C2777 C2782 1.245 . S
C2777 C2783 1.428 . S
C2778 C2781 1.260 . S
C2778 C2782 1.477 . S
C2778 H2796 0.932 . S
C2779 C2780 1.384 . S
C2779 C2781 1.479 . S
C2779 H2797 0.929 . S
C2780 C2777 1.424 . S
C2780 C2779 1.384 . S
C2780 H2798 0.928 . S
C2781 C2778 1.260 . S
C2781 C2779 1.479 . S
C2782 C2777 1.245 . S
C2782 C2778 1.477 . S
C2782 H2799 0.932 . S
C2783 U2766 2.882 . S
C2783 C2777 1.428 . S
C2783 O2786 1.301 . S
C2783 O2787 1.282 . S
O2784 U2766 2.441 . S
O2784 C2770 1.249 . S
O2785 U2766 2.420 . S
O2785 C2770 1.202 . S
O2786 U2766 2.455 . S
O2786 C2783 1.301 . S
O2787 U2766 2.449 . S
O2787 C2783 1.282 . S
H2788 C2761 0.931 . S
H2789 C2763 0.929 . S
H2790 C2764 0.930 . S
H2791 C2765 0.931 . S
H2792 C2772 0.932 . S
H2793 C2773 0.930 . S
H2794 C2774 0.929 . S
H2795 C2776 0.930 . S
H2796 C2778 0.932 . S
H2797 C2779 0.929 . S
H2798 C2780 0.928 . S
H2799 C2782 0.932 . S
C2800 C2801 1.264 . S
C2800 C2805 1.479 . S
C2800 C2810 1.465 . S
C2801 C2800 1.264 . S
C2801 C2803 1.339 . S
C2801 H2828 0.931 . S
C2802 C2803 1.395 . S
C2802 C2804 1.320 . S
C2803 C2801 1.339 . S
C2803 C2802 1.395 . S
C2803 H2829 0.929 . S
C2804 C2802 1.320 . S
C2804 C2805 1.405 . S
C2804 H2830 0.930 . S
C2805 C2800 1.479 . S
C2805 C2804 1.405 . S
C2805 H2831 0.931 . S
U2806 O2807 2.454 . S
U2806 O2808 2.458 . S
U2806 C2809 2.984 . S
U2806 C2810 2.847 . S
U2806 C2823 2.882 . S
U2806 O2824 2.441 . S
U2806 O2825 2.420 . S
U2806 O2826 2.455 . S
U2806 O2827 2.449 . S
O2807 U2806 2.454 . S
O2807 C2809 1.353 . S
O2808 U2806 2.458 . S
O2808 C2809 1.286 . S
C2809 U2806 2.984 . S
C2809 O2807 1.353 . S
C2809 O2808 1.286 . S
C2809 C2811 1.363 . S
C2810 C2800 1.465 . S
C2810 U2806 2.847 . S
C2810 O2824 1.249 . S
C2810 O2825 1.202 . S
C2811 C2809 1.363 . S
C2811 C2813 1.408 . S
C2811 C2816 1.342 . S
C2812 C2813 1.310 . S
C2812 C2815 1.461 . S
C2812 H2832 0.932 . S
C2813 C2811 1.408 . S
C2813 C2812 1.310 . S
C2813 H2833 0.930 . S
C2814 C2815 1.474 . S
C2814 C2816 1.285 . S
C2814 H2834 0.929 . S
C2815 C2812 1.461 . S
C2815 C2814 1.474 . S
C2816 C2811 1.342 . S
C2816 C2814 1.285 . S
C2816 H2835 0.930 . S
C2817 C2820 1.424 . S
C2817 C2822 1.245 . S
C2817 C2823 1.428 . S
C2818 C2821 1.260 . S
C2818 C2822 1.477 . S
C2818 H2836 0.932 . S
C2819 C2820 1.384 . S
C2819 C2821 1.479 . S
C2819 H2837 0.929 . S
C2820 C2817 1.424 . S
C2820 C2819 1.384 . S
C2820 H2838 0.928 . S
C2821 C2818 1.260 . S
C2821 C2819 1.479 . S
C2822 C2817 1.245 . S
C2822 C2818 1.477 . S
C2822 H2839 0.932 . S
C2823 U2806 2.882 . S
C2823 C2817 1.428 . S
C2823 O2826 1.301 . S
C2823 O2827 1.282 . S
O2824 U2806 2.441 . S
O2824 C2810 1.249 . S
O2825 U2806 2.420 . S
O2825 C2810 1.202 . S
O2826 U2806 2.455 . S
O2826 C2823 1.301 . S
O2827 U2806 2.449 . S
O2827 C2823 1.282 . S
H2828 C2801 0.931 . S
H2829 C2803 0.929 . S
H2830 C2804 0.930 . S
H2831 C2805 0.931 . S
H2832 C2812 0.932 . S
H2833 C2813 0.930 . S
H2834 C2814 0.929 . S
H2835 C2816 0.930 . S
H2836 C2818 0.932 . S
H2837 C2819 0.929 . S
H2838 C2820 0.928 . S
H2839 C2822 0.932 . S
C2840 C2841 1.264 . S
C2840 C2845 1.479 . S
C2840 C2850 1.465 . S
C2841 C2840 1.264 . S
C2841 C2843 1.339 . S
C2841 H2868 0.931 . S
C2842 C2843 1.395 . S
C2842 C2844 1.320 . S
C2843 C2841 1.339 . S
C2843 C2842 1.395 . S
C2843 H2869 0.929 . S
C2844 C2842 1.320 . S
C2844 C2845 1.405 . S
C2844 H2870 0.930 . S
C2845 C2840 1.479 . S
C2845 C2844 1.405 . S
C2845 H2871 0.931 . S
U2846 O2847 2.454 . S
U2846 O2848 2.458 . S
U2846 C2849 2.984 . S
U2846 C2850 2.847 . S
U2846 C2863 2.882 . S
U2846 O2864 2.441 . S
U2846 O2865 2.420 . S
U2846 O2866 2.455 . S
U2846 O2867 2.449 . S
O2847 U2846 2.454 . S
O2847 C2849 1.353 . S
O2848 U2846 2.458 . S
O2848 C2849 1.286 . S
C2849 U2846 2.984 . S
C2849 O2847 1.353 . S
C2849 O2848 1.286 . S
C2849 C2851 1.363 . S
C2850 C2840 1.465 . S
C2850 U2846 2.847 . S
C2850 O2864 1.249 . S
C2850 O2865 1.202 . S
C2851 C2849 1.363 . S
C2851 C2853 1.408 . S
C2851 C2856 1.342 . S
C2852 C2853 1.310 . S
C2852 C2855 1.461 . S
C2852 H2872 0.932 . S
C2853 C2851 1.408 . S
C2853 C2852 1.310 . S
C2853 H2873 0.930 . S
C2854 C2855 1.474 . S
C2854 C2856 1.285 . S
C2854 H2874 0.929 . S
C2855 C2852 1.461 . S
C2855 C2854 1.474 . S
C2856 C2851 1.342 . S
C2856 C2854 1.285 . S
C2856 H2875 0.930 . S
C2857 C2860 1.424 . S
C2857 C2862 1.245 . S
C2857 C2863 1.428 . S
C2858 C2861 1.260 . S
C2858 C2862 1.477 . S
C2858 H2876 0.932 . S
C2859 C2860 1.384 . S
C2859 C2861 1.479 . S
C2859 H2877 0.929 . S
C2860 C2857 1.424 . S
C2860 C2859 1.384 . S
C2860 H2878 0.928 . S
C2861 C2858 1.260 . S
C2861 C2859 1.479 . S
C2862 C2857 1.245 . S
C2862 C2858 1.477 . S
C2862 H2879 0.932 . S
C2863 U2846 2.882 . S
C2863 C2857 1.428 . S
C2863 O2866 1.301 . S
C2863 O2867 1.282 . S
O2864 U2846 2.441 . S
O2864 C2850 1.249 . S
O2865 U2846 2.420 . S
O2865 C2850 1.202 . S
O2866 U2846 2.455 . S
O2866 C2863 1.301 . S
O2867 U2846 2.449 . S
O2867 C2863 1.282 . S
H2868 C2841 0.931 . S
H2869 C2843 0.929 . S
H2870 C2844 0.930 . S
H2871 C2845 0.931 . S
H2872 C2852 0.932 . S
H2873 C2853 0.930 . S
H2874 C2854 0.929 . S
H2875 C2856 0.930 . S
H2876 C2858 0.932 . S
H2877 C2859 0.929 . S
H2878 C2860 0.928 . S
H2879 C2862 0.932 . S
C2880 C2881 1.264 . S
C2880 C2885 1.479 . S
C2880 C2890 1.465 . S
C2881 C2880 1.264 . S
C2881 C2883 1.339 . S
C2881 H2908 0.931 . S
C2882 C2883 1.395 . S
C2882 C2884 1.320 . S
C2883 C2881 1.339 . S
C2883 C2882 1.395 . S
C2883 H2909 0.929 . S
C2884 C2882 1.320 . S
C2884 C2885 1.405 . S
C2884 H2910 0.930 . S
C2885 C2880 1.479 . S
C2885 C2884 1.405 . S
C2885 H2911 0.931 . S
U2886 O2887 2.454 . S
U2886 O2888 2.458 . S
U2886 C2889 2.984 . S
U2886 C2890 2.847 . S
U2886 C2903 2.882 . S
U2886 O2904 2.441 . S
U2886 O2905 2.420 . S
U2886 O2906 2.455 . S
U2886 O2907 2.449 . S
O2887 U2886 2.454 . S
O2887 C2889 1.353 . S
O2888 U2886 2.458 . S
O2888 C2889 1.286 . S
C2889 U2886 2.984 . S
C2889 O2887 1.353 . S
C2889 O2888 1.286 . S
C2889 C2891 1.363 . S
C2890 C2880 1.465 . S
C2890 U2886 2.847 . S
C2890 O2904 1.249 . S
C2890 O2905 1.202 . S
C2891 C2889 1.363 . S
C2891 C2893 1.408 . S
C2891 C2896 1.342 . S
C2892 C2893 1.310 . S
C2892 C2895 1.461 . S
C2892 H2912 0.932 . S
C2893 C2891 1.408 . S
C2893 C2892 1.310 . S
C2893 H2913 0.930 . S
C2894 C2895 1.474 . S
C2894 C2896 1.285 . S
C2894 H2914 0.929 . S
C2895 C2892 1.461 . S
C2895 C2894 1.474 . S
C2896 C2891 1.342 . S
C2896 C2894 1.285 . S
C2896 H2915 0.930 . S
C2897 C2900 1.424 . S
C2897 C2902 1.245 . S
C2897 C2903 1.428 . S
C2898 C2901 1.260 . S
C2898 C2902 1.477 . S
C2898 H2916 0.932 . S
C2899 C2900 1.384 . S
C2899 C2901 1.479 . S
C2899 H2917 0.929 . S
C2900 C2897 1.424 . S
C2900 C2899 1.384 . S
C2900 H2918 0.928 . S
C2901 C2898 1.260 . S
C2901 C2899 1.479 . S
C2902 C2897 1.245 . S
C2902 C2898 1.477 . S
C2902 H2919 0.932 . S
C2903 U2886 2.882 . S
C2903 C2897 1.428 . S
C2903 O2906 1.301 . S
C2903 O2907 1.282 . S
O2904 U2886 2.441 . S
O2904 C2890 1.249 . S
O2905 U2886 2.420 . S
O2905 C2890 1.202 . S
O2906 U2886 2.455 . S
O2906 C2903 1.301 . S
O2907 U2886 2.449 . S
O2907 C2903 1.282 . S
H2908 C2881 0.931 . S
H2909 C2883 0.929 . S
H2910 C2884 0.930 . S
H2911 C2885 0.931 . S
H2912 C2892 0.932 . S
H2913 C2893 0.930 . S
H2914 C2894 0.929 . S
H2915 C2896 0.930 . S
H2916 C2898 0.932 . S
H2917 C2899 0.929 . S
H2918 C2900 0.928 . S
H2919 C2902 0.932 . S
C2920 C2921 1.264 . S
C2920 C2925 1.479 . S
C2920 C2930 1.465 . S
C2921 C2920 1.264 . S
C2921 C2923 1.339 . S
C2921 H2948 0.931 . S
C2922 C2923 1.395 . S
C2922 C2924 1.320 . S
C2923 C2921 1.339 . S
C2923 C2922 1.395 . S
C2923 H2949 0.929 . S
C2924 C2922 1.320 . S
C2924 C2925 1.405 . S
C2924 H2950 0.930 . S
C2925 C2920 1.479 . S
C2925 C2924 1.405 . S
C2925 H2951 0.931 . S
U2926 O2927 2.454 . S
U2926 O2928 2.458 . S
U2926 C2929 2.984 . S
U2926 C2930 2.847 . S
U2926 C2943 2.882 . S
U2926 O2944 2.441 . S
U2926 O2945 2.420 . S
U2926 O2946 2.455 . S
U2926 O2947 2.449 . S
O2927 U2926 2.454 . S
O2927 C2929 1.353 . S
O2928 U2926 2.458 . S
O2928 C2929 1.286 . S
C2929 U2926 2.984 . S
C2929 O2927 1.353 . S
C2929 O2928 1.286 . S
C2929 C2931 1.363 . S
C2930 C2920 1.465 . S
C2930 U2926 2.847 . S
C2930 O2944 1.249 . S
C2930 O2945 1.202 . S
C2931 C2929 1.363 . S
C2931 C2933 1.408 . S
C2931 C2936 1.342 . S
C2932 C2933 1.310 . S
C2932 C2935 1.461 . S
C2932 H2952 0.932 . S
C2933 C2931 1.408 . S
C2933 C2932 1.310 . S
C2933 H2953 0.930 . S
C2934 C2935 1.474 . S
C2934 C2936 1.285 . S
C2934 H2954 0.929 . S
C2935 C2932 1.461 . S
C2935 C2934 1.474 . S
C2936 C2931 1.342 . S
C2936 C2934 1.285 . S
C2936 H2955 0.930 . S
C2937 C2940 1.424 . S
C2937 C2942 1.245 . S
C2937 C2943 1.428 . S
C2938 C2941 1.260 . S
C2938 C2942 1.477 . S
C2938 H2956 0.932 . S
C2939 C2940 1.384 . S
C2939 C2941 1.479 . S
C2939 H2957 0.929 . S
C2940 C2937 1.424 . S
C2940 C2939 1.384 . S
C2940 H2958 0.928 . S
C2941 C2938 1.260 . S
C2941 C2939 1.479 . S
C2942 C2937 1.245 . S
C2942 C2938 1.477 . S
C2942 H2959 0.932 . S
C2943 U2926 2.882 . S
C2943 C2937 1.428 . S
C2943 O2946 1.301 . S
C2943 O2947 1.282 . S
O2944 U2926 2.441 . S
O2944 C2930 1.249 . S
O2945 U2926 2.420 . S
O2945 C2930 1.202 . S
O2946 U2926 2.455 . S
O2946 C2943 1.301 . S
O2947 U2926 2.449 . S
O2947 C2943 1.282 . S
H2948 C2921 0.931 . S
H2949 C2923 0.929 . S
H2950 C2924 0.930 . S
H2951 C2925 0.931 . S
H2952 C2932 0.932 . S
H2953 C2933 0.930 . S
H2954 C2934 0.929 . S
H2955 C2936 0.930 . S
H2956 C2938 0.932 . S
H2957 C2939 0.929 . S
H2958 C2940 0.928 . S
H2959 C2942 0.932 . S
C2960 C2961 1.264 . S
C2960 C2965 1.479 . S
C2960 C2970 1.465 . S
C2961 C2960 1.264 . S
C2961 C2963 1.339 . S
C2961 H2988 0.931 . S
C2962 C2963 1.395 . S
C2962 C2964 1.320 . S
C2963 C2961 1.339 . S
C2963 C2962 1.395 . S
C2963 H2989 0.929 . S
C2964 C2962 1.320 . S
C2964 C2965 1.405 . S
C2964 H2990 0.930 . S
C2965 C2960 1.479 . S
C2965 C2964 1.405 . S
C2965 H2991 0.931 . S
U2966 O2967 2.454 . S
U2966 O2968 2.458 . S
U2966 C2969 2.984 . S
U2966 C2970 2.847 . S
U2966 C2983 2.882 . S
U2966 O2984 2.441 . S
U2966 O2985 2.420 . S
U2966 O2986 2.455 . S
U2966 O2987 2.449 . S
O2967 U2966 2.454 . S
O2967 C2969 1.353 . S
O2968 U2966 2.458 . S
O2968 C2969 1.286 . S
C2969 U2966 2.984 . S
C2969 O2967 1.353 . S
C2969 O2968 1.286 . S
C2969 C2971 1.363 . S
C2970 C2960 1.465 . S
C2970 U2966 2.847 . S
C2970 O2984 1.249 . S
C2970 O2985 1.202 . S
C2971 C2969 1.363 . S
C2971 C2973 1.408 . S
C2971 C2976 1.342 . S
C2972 C2973 1.310 . S
C2972 C2975 1.461 1_455 S
C2972 H2992 0.970 . S
C2973 C2971 1.408 . S
C2973 C2972 1.310 . S
C2973 H2993 0.930 . S
C2974 C2975 1.474 1_455 S
C2974 C2976 1.285 . S
C2974 H2994 0.901 1_455 S
C2975 C2972 1.461 1_655 S
C2975 C2974 1.474 1_655 S
C2976 C2971 1.342 . S
C2976 C2974 1.285 . S
C2976 H2995 0.930 . S
C2977 C2980 1.424 . S
C2977 C2982 1.245 . S
C2977 C2983 1.428 . S
C2978 C2981 1.260 . S
C2978 C2982 1.477 . S
C2978 H2996 0.932 . S
C2979 C2980 1.384 . S
C2979 C2981 1.479 . S
C2979 H2997 0.929 . S
C2980 C2977 1.424 . S
C2980 C2979 1.384 . S
C2980 H2998 0.928 . S
C2981 C2978 1.260 . S
C2981 C2979 1.479 . S
C2982 C2977 1.245 . S
C2982 C2978 1.477 . S
C2982 H2999 0.932 . S
C2983 U2966 2.882 . S
C2983 C2977 1.428 . S
C2983 O2986 1.301 . S
C2983 O2987 1.282 . S
O2984 U2966 2.441 . S
O2984 C2970 1.249 . S
O2985 U2966 2.420 . S
O2985 C2970 1.202 . S
O2986 U2966 2.455 . S
O2986 C2983 1.301 . S
O2987 U2966 2.449 . S
O2987 C2983 1.282 . S
H2988 C2961 0.931 . S
H2989 C2963 0.929 . S
H2990 C2964 0.930 . S
H2991 C2965 0.931 . S
H2992 C2972 0.970 . S
H2993 C2973 0.930 . S
H2994 C2974 0.901 1_655 S
H2995 C2976 0.930 . S
H2996 C2978 0.932 . S
H2997 C2979 0.929 . S
H2998 C2980 0.928 . S
H2999 C2982 0.932 . S
C3000 C3001 1.264 . S
C3000 C3005 1.479 . S
C3000 C3010 1.465 . S
C3001 C3000 1.264 . S
C3001 C3003 1.339 . S
C3001 H3028 0.931 . S
C3002 C3003 1.395 . S
C3002 C3004 1.320 . S
C3003 C3001 1.339 . S
C3003 C3002 1.395 . S
C3003 H3029 0.929 . S
C3004 C3002 1.320 . S
C3004 C3005 1.405 . S
C3004 H3030 0.930 . S
C3005 C3000 1.479 . S
C3005 C3004 1.405 . S
C3005 H3031 0.931 . S
U3006 O3007 2.454 . S
U3006 O3008 2.458 . S
U3006 C3009 2.984 . S
U3006 C3010 2.847 . S
U3006 C3023 2.882 . S
U3006 O3024 2.441 . S
U3006 O3025 2.420 . S
U3006 O3026 2.455 . S
U3006 O3027 2.449 . S
O3007 U3006 2.454 . S
O3007 C3009 1.353 . S
O3008 U3006 2.458 . S
O3008 C3009 1.286 . S
C3009 U3006 2.984 . S
C3009 O3007 1.353 . S
C3009 O3008 1.286 . S
C3009 C3011 1.363 . S
C3010 C3000 1.465 . S
C3010 U3006 2.847 . S
C3010 O3024 1.249 . S
C3010 O3025 1.202 . S
C3011 C3009 1.363 . S
C3011 C3013 1.408 . S
C3011 C3016 1.342 . S
C3012 C3013 1.310 . S
C3012 C3015 1.461 . S
C3012 H3032 0.932 . S
C3013 C3011 1.408 . S
C3013 C3012 1.310 . S
C3013 H3033 0.930 . S
C3014 C3015 1.474 . S
C3014 C3016 1.285 . S
C3014 H3034 0.929 . S
C3015 C3012 1.461 . S
C3015 C3014 1.474 . S
C3016 C3011 1.342 . S
C3016 C3014 1.285 . S
C3016 H3035 0.930 . S
C3017 C3020 1.424 . S
C3017 C3022 1.245 . S
C3017 C3023 1.428 . S
C3018 C3021 1.260 . S
C3018 C3022 1.477 . S
C3018 H3036 0.932 . S
C3019 C3020 1.384 . S
C3019 C3021 1.479 . S
C3019 H3037 0.929 . S
C3020 C3017 1.424 . S
C3020 C3019 1.384 . S
C3020 H3038 0.928 . S
C3021 C3018 1.260 . S
C3021 C3019 1.479 . S
C3022 C3017 1.245 . S
C3022 C3018 1.477 . S
C3022 H3039 0.932 . S
C3023 U3006 2.882 . S
C3023 C3017 1.428 . S
C3023 O3026 1.301 . S
C3023 O3027 1.282 . S
O3024 U3006 2.441 . S
O3024 C3010 1.249 . S
O3025 U3006 2.420 . S
O3025 C3010 1.202 . S
O3026 U3006 2.455 . S
O3026 C3023 1.301 . S
O3027 U3006 2.449 . S
O3027 C3023 1.282 . S
H3028 C3001 0.931 . S
H3029 C3003 0.929 . S
H3030 C3004 0.930 . S
H3031 C3005 0.931 . S
H3032 C3012 0.932 . S
H3033 C3013 0.930 . S
H3034 C3014 0.929 . S
H3035 C3016 0.930 . S
H3036 C3018 0.932 . S
H3037 C3019 0.929 . S
H3038 C3020 0.928 . S
H3039 C3022 0.932 . S
C3040 C3041 1.264 . S
C3040 C3045 1.479 . S
C3040 C3050 1.465 . S
C3041 C3040 1.264 . S
C3041 C3043 1.339 . S
C3041 H3068 0.931 . S
C3042 C3043 1.395 . S
C3042 C3044 1.320 . S
C3043 C3041 1.339 . S
C3043 C3042 1.395 . S
C3043 H3069 0.929 . S
C3044 C3042 1.320 . S
C3044 C3045 1.405 . S
C3044 H3070 0.930 . S
C3045 C3040 1.479 . S
C3045 C3044 1.405 . S
C3045 H3071 0.931 . S
U3046 O3047 2.454 . S
U3046 O3048 2.458 . S
U3046 C3049 2.984 . S
U3046 C3050 2.847 . S
U3046 C3063 2.882 . S
U3046 O3064 2.441 . S
U3046 O3065 2.420 . S
U3046 O3066 2.455 . S
U3046 O3067 2.449 . S
O3047 U3046 2.454 . S
O3047 C3049 1.353 . S
O3048 U3046 2.458 . S
O3048 C3049 1.286 . S
C3049 U3046 2.984 . S
C3049 O3047 1.353 . S
C3049 O3048 1.286 . S
C3049 C3051 1.363 . S
C3050 C3040 1.465 . S
C3050 U3046 2.847 . S
C3050 O3064 1.249 . S
C3050 O3065 1.202 . S
C3051 C3049 1.363 . S
C3051 C3053 1.408 . S
C3051 C3056 1.342 . S
C3052 C3053 1.310 . S
C3052 C3055 1.461 . S
C3052 H3072 0.932 . S
C3053 C3051 1.408 . S
C3053 C3052 1.310 . S
C3053 H3073 0.930 . S
C3054 C3055 1.474 . S
C3054 C3056 1.285 . S
C3054 H3074 0.929 . S
C3055 C3052 1.461 . S
C3055 C3054 1.474 . S
C3056 C3051 1.342 . S
C3056 C3054 1.285 . S
C3056 H3075 0.930 . S
C3057 C3060 1.424 . S
C3057 C3062 1.245 . S
C3057 C3063 1.428 . S
C3058 C3061 1.260 . S
C3058 C3062 1.477 . S
C3058 H3076 0.932 . S
C3059 C3060 1.384 . S
C3059 C3061 1.479 . S
C3059 H3077 0.929 . S
C3060 C3057 1.424 . S
C3060 C3059 1.384 . S
C3060 H3078 0.928 . S
C3061 C3058 1.260 . S
C3061 C3059 1.479 . S
C3062 C3057 1.245 . S
C3062 C3058 1.477 . S
C3062 H3079 0.932 . S
C3063 U3046 2.882 . S
C3063 C3057 1.428 . S
C3063 O3066 1.301 . S
C3063 O3067 1.282 . S
O3064 U3046 2.441 . S
O3064 C3050 1.249 . S
O3065 U3046 2.420 . S
O3065 C3050 1.202 . S
O3066 U3046 2.455 . S
O3066 C3063 1.301 . S
O3067 U3046 2.449 . S
O3067 C3063 1.282 . S
H3068 C3041 0.931 . S
H3069 C3043 0.929 . S
H3070 C3044 0.930 . S
H3071 C3045 0.931 . S
H3072 C3052 0.932 . S
H3073 C3053 0.930 . S
H3074 C3054 0.929 . S
H3075 C3056 0.930 . S
H3076 C3058 0.932 . S
H3077 C3059 0.929 . S
H3078 C3060 0.928 . S
H3079 C3062 0.932 . S
C3080 C3081 1.264 . S
C3080 C3085 1.479 . S
C3080 C3090 1.465 . S
C3081 C3080 1.264 . S
C3081 C3083 1.339 . S
C3081 H3108 0.931 . S
C3082 C3083 1.395 . S
C3082 C3084 1.320 . S
C3083 C3081 1.339 . S
C3083 C3082 1.395 . S
C3083 H3109 0.929 . S
C3084 C3082 1.320 . S
C3084 C3085 1.405 . S
C3084 H3110 0.930 . S
C3085 C3080 1.479 . S
C3085 C3084 1.405 . S
C3085 H3111 0.931 . S
U3086 O3087 2.454 . S
U3086 O3088 2.458 . S
U3086 C3089 2.984 . S
U3086 C3090 2.847 . S
U3086 C3103 2.882 . S
U3086 O3104 2.441 . S
U3086 O3105 2.420 . S
U3086 O3106 2.455 . S
U3086 O3107 2.449 . S
O3087 U3086 2.454 . S
O3087 C3089 1.353 . S
O3088 U3086 2.458 . S
O3088 C3089 1.286 . S
C3089 U3086 2.984 . S
C3089 O3087 1.353 . S
C3089 O3088 1.286 . S
C3089 C3091 1.363 . S
C3090 C3080 1.465 . S
C3090 U3086 2.847 . S
C3090 O3104 1.249 . S
C3090 O3105 1.202 . S
C3091 C3089 1.363 . S
C3091 C3093 1.408 . S
C3091 C3096 1.342 . S
C3092 C3093 1.310 . S
C3092 C3095 1.461 . S
C3092 H3112 0.932 . S
C3093 C3091 1.408 . S
C3093 C3092 1.310 . S
C3093 H3113 0.930 . S
C3094 C3095 1.474 . S
C3094 C3096 1.285 . S
C3094 H3114 0.929 . S
C3095 C3092 1.461 . S
C3095 C3094 1.474 . S
C3096 C3091 1.342 . S
C3096 C3094 1.285 . S
C3096 H3115 0.930 . S
C3097 C3100 1.424 . S
C3097 C3102 1.245 . S
C3097 C3103 1.428 . S
C3098 C3101 1.260 . S
C3098 C3102 1.477 . S
C3098 H3116 0.932 . S
C3099 C3100 1.384 . S
C3099 C3101 1.479 . S
C3099 H3117 0.929 . S
C3100 C3097 1.424 . S
C3100 C3099 1.384 . S
C3100 H3118 0.928 . S
C3101 C3098 1.260 . S
C3101 C3099 1.479 . S
C3102 C3097 1.245 . S
C3102 C3098 1.477 . S
C3102 H3119 0.932 . S
C3103 U3086 2.882 . S
C3103 C3097 1.428 . S
C3103 O3106 1.301 . S
C3103 O3107 1.282 . S
O3104 U3086 2.441 . S
O3104 C3090 1.249 . S
O3105 U3086 2.420 . S
O3105 C3090 1.202 . S
O3106 U3086 2.455 . S
O3106 C3103 1.301 . S
O3107 U3086 2.449 . S
O3107 C3103 1.282 . S
H3108 C3081 0.931 . S
H3109 C3083 0.929 . S
H3110 C3084 0.930 . S
H3111 C3085 0.931 . S
H3112 C3092 0.932 . S
H3113 C3093 0.930 . S
H3114 C3094 0.929 . S
H3115 C3096 0.930 . S
H3116 C3098 0.932 . S
H3117 C3099 0.929 . S
H3118 C3100 0.928 . S
H3119 C3102 0.932 . S
C3120 C3121 1.264 . S
C3120 C3125 1.479 . S
C3120 C3130 1.465 . S
C3121 C3120 1.264 . S
C3121 C3123 1.339 . S
C3121 H3148 0.931 . S
C3122 C3123 1.395 . S
C3122 C3124 1.320 . S
C3123 C3121 1.339 . S
C3123 C3122 1.395 . S
C3123 H3149 0.929 . S
C3124 C3122 1.320 . S
C3124 C3125 1.405 . S
C3124 H3150 0.930 . S
C3125 C3120 1.479 . S
C3125 C3124 1.405 . S
C3125 H3151 0.931 . S
U3126 O3127 2.454 . S
U3126 O3128 2.458 . S
U3126 C3129 2.984 . S
U3126 C3130 2.847 . S
U3126 C3143 2.882 . S
U3126 O3144 2.441 . S
U3126 O3145 2.420 . S
U3126 O3146 2.455 . S
U3126 O3147 2.449 . S
O3127 U3126 2.454 . S
O3127 C3129 1.353 . S
O3128 U3126 2.458 . S
O3128 C3129 1.286 . S
C3129 U3126 2.984 . S
C3129 O3127 1.353 . S
C3129 O3128 1.286 . S
C3129 C3131 1.363 . S
C3130 C3120 1.465 . S
C3130 U3126 2.847 . S
C3130 O3144 1.249 . S
C3130 O3145 1.202 . S
C3131 C3129 1.363 . S
C3131 C3133 1.408 . S
C3131 C3136 1.342 . S
C3132 C3133 1.310 . S
C3132 C3135 1.461 1_455 S
C3132 H3152 0.970 . S
C3133 C3131 1.408 . S
C3133 C3132 1.310 . S
C3133 H3153 0.930 . S
C3134 C3135 1.474 1_455 S
C3134 C3136 1.285 . S
C3134 H3154 0.901 1_455 S
C3135 C3132 1.461 1_655 S
C3135 C3134 1.474 1_655 S
C3136 C3131 1.342 . S
C3136 C3134 1.285 . S
C3136 H3155 0.930 . S
C3137 C3140 1.424 . S
C3137 C3142 1.245 . S
C3137 C3143 1.428 . S
C3138 C3141 1.260 . S
C3138 C3142 1.477 . S
C3138 H3156 0.932 . S
C3139 C3140 1.384 . S
C3139 C3141 1.479 . S
C3139 H3157 0.929 . S
C3140 C3137 1.424 . S
C3140 C3139 1.384 . S
C3140 H3158 0.928 . S
C3141 C3138 1.260 . S
C3141 C3139 1.479 . S
C3142 C3137 1.245 . S
C3142 C3138 1.477 . S
C3142 H3159 0.932 . S
C3143 U3126 2.882 . S
C3143 C3137 1.428 . S
C3143 O3146 1.301 . S
C3143 O3147 1.282 . S
O3144 U3126 2.441 . S
O3144 C3130 1.249 . S
O3145 U3126 2.420 . S
O3145 C3130 1.202 . S
O3146 U3126 2.455 . S
O3146 C3143 1.301 . S
O3147 U3126 2.449 . S
O3147 C3143 1.282 . S
H3148 C3121 0.931 . S
H3149 C3123 0.929 . S
H3150 C3124 0.930 . S
H3151 C3125 0.931 . S
H3152 C3132 0.970 . S
H3153 C3133 0.930 . S
H3154 C3134 0.901 1_655 S
H3155 C3136 0.930 . S
H3156 C3138 0.932 . S
H3157 C3139 0.929 . S
H3158 C3140 0.928 . S
H3159 C3142 0.932 . S
C3160 C3161 1.264 . S
C3160 C3165 1.479 . S
C3160 C3170 1.465 . S
C3161 C3160 1.264 . S
C3161 C3163 1.339 . S
C3161 H3188 0.931 . S
C3162 C3163 1.395 . S
C3162 C3164 1.320 . S
C3163 C3161 1.339 . S
C3163 C3162 1.395 . S
C3163 H3189 0.929 . S
C3164 C3162 1.320 . S
C3164 C3165 1.405 . S
C3164 H3190 0.930 . S
C3165 C3160 1.479 . S
C3165 C3164 1.405 . S
C3165 H3191 0.931 . S
U3166 O3167 2.454 . S
U3166 O3168 2.458 . S
U3166 C3169 2.984 . S
U3166 C3170 2.847 . S
U3166 C3183 2.882 . S
U3166 O3184 2.441 . S
U3166 O3185 2.420 . S
U3166 O3186 2.455 . S
U3166 O3187 2.449 . S
O3167 U3166 2.454 . S
O3167 C3169 1.353 . S
O3168 U3166 2.458 . S
O3168 C3169 1.286 . S
C3169 U3166 2.984 . S
C3169 O3167 1.353 . S
C3169 O3168 1.286 . S
C3169 C3171 1.363 . S
C3170 C3160 1.465 . S
C3170 U3166 2.847 . S
C3170 O3184 1.249 . S
C3170 O3185 1.202 . S
C3171 C3169 1.363 . S
C3171 C3173 1.408 . S
C3171 C3176 1.342 . S
C3172 C3173 1.310 . S
C3172 C3175 1.461 . S
C3172 H3192 0.932 . S
C3173 C3171 1.408 . S
C3173 C3172 1.310 . S
C3173 H3193 0.930 . S
C3174 C3175 1.474 . S
C3174 C3176 1.285 . S
C3174 H3194 0.929 . S
C3175 C3172 1.461 . S
C3175 C3174 1.474 . S
C3176 C3171 1.342 . S
C3176 C3174 1.285 . S
C3176 H3195 0.930 . S
C3177 C3180 1.424 . S
C3177 C3182 1.245 . S
C3177 C3183 1.428 . S
C3178 C3181 1.260 . S
C3178 C3182 1.477 . S
C3178 H3196 0.932 . S
C3179 C3180 1.384 . S
C3179 C3181 1.479 . S
C3179 H3197 0.929 . S
C3180 C3177 1.424 . S
C3180 C3179 1.384 . S
C3180 H3198 0.928 . S
C3181 C3178 1.260 . S
C3181 C3179 1.479 . S
C3182 C3177 1.245 . S
C3182 C3178 1.477 . S
C3182 H3199 0.932 . S
C3183 U3166 2.882 . S
C3183 C3177 1.428 . S
C3183 O3186 1.301 . S
C3183 O3187 1.282 . S
O3184 U3166 2.441 . S
O3184 C3170 1.249 . S
O3185 U3166 2.420 . S
O3185 C3170 1.202 . S
O3186 U3166 2.455 . S
O3186 C3183 1.301 . S
O3187 U3166 2.449 . S
O3187 C3183 1.282 . S
H3188 C3161 0.931 . S
H3189 C3163 0.929 . S
H3190 C3164 0.930 . S
H3191 C3165 0.931 . S
H3192 C3172 0.932 . S
H3193 C3173 0.930 . S
H3194 C3174 0.929 . S
H3195 C3176 0.930 . S
H3196 C3178 0.932 . S
H3197 C3179 0.929 . S
H3198 C3180 0.928 . S
H3199 C3182 0.932 . S
C3200 C3201 1.264 . S
C3200 C3205 1.479 . S
C3200 C3210 1.465 . S
C3201 C3200 1.264 . S
C3201 C3203 1.339 . S
C3201 H3228 0.931 . S
C3202 C3203 1.395 . S
C3202 C3204 1.320 . S
C3203 C3201 1.339 . S
C3203 C3202 1.395 . S
C3203 H3229 0.929 . S
C3204 C3202 1.320 . S
C3204 C3205 1.405 . S
C3204 H3230 0.930 . S
C3205 C3200 1.479 . S
C3205 C3204 1.405 . S
C3205 H3231 0.931 . S
U3206 O3207 2.454 . S
U3206 O3208 2.458 . S
U3206 C3209 2.984 . S
U3206 C3210 2.847 . S
U3206 C3223 2.882 . S
U3206 O3224 2.441 . S
U3206 O3225 2.420 . S
U3206 O3226 2.455 . S
U3206 O3227 2.449 . S
O3207 U3206 2.454 . S
O3207 C3209 1.353 . S
O3208 U3206 2.458 . S
O3208 C3209 1.286 . S
C3209 U3206 2.984 . S
C3209 O3207 1.353 . S
C3209 O3208 1.286 . S
C3209 C3211 1.363 . S
C3210 C3200 1.465 . S
C3210 U3206 2.847 . S
C3210 O3224 1.249 . S
C3210 O3225 1.202 . S
C3211 C3209 1.363 . S
C3211 C3213 1.408 . S
C3211 C3216 1.342 . S
C3212 C3213 1.310 . S
C3212 C3215 1.461 . S
C3212 H3232 0.932 . S
C3213 C3211 1.408 . S
C3213 C3212 1.310 . S
C3213 H3233 0.930 . S
C3214 C3215 1.474 . S
C3214 C3216 1.285 . S
C3214 H3234 0.929 . S
C3215 C3212 1.461 . S
C3215 C3214 1.474 . S
C3216 C3211 1.342 . S
C3216 C3214 1.285 . S
C3216 H3235 0.930 . S
C3217 C3220 1.424 . S
C3217 C3222 1.245 . S
C3217 C3223 1.428 . S
C3218 C3221 1.260 . S
C3218 C3222 1.477 . S
C3218 H3236 0.932 . S
C3219 C3220 1.384 . S
C3219 C3221 1.479 . S
C3219 H3237 0.929 . S
C3220 C3217 1.424 . S
C3220 C3219 1.384 . S
C3220 H3238 0.928 . S
C3221 C3218 1.260 . S
C3221 C3219 1.479 . S
C3222 C3217 1.245 . S
C3222 C3218 1.477 . S
C3222 H3239 0.932 . S
C3223 U3206 2.882 . S
C3223 C3217 1.428 . S
C3223 O3226 1.301 . S
C3223 O3227 1.282 . S
O3224 U3206 2.441 . S
O3224 C3210 1.249 . S
O3225 U3206 2.420 . S
O3225 C3210 1.202 . S
O3226 U3206 2.455 . S
O3226 C3223 1.301 . S
O3227 U3206 2.449 . S
O3227 C3223 1.282 . S
H3228 C3201 0.931 . S
H3229 C3203 0.929 . S
H3230 C3204 0.930 . S
H3231 C3205 0.931 . S
H3232 C3212 0.932 . S
H3233 C3213 0.930 . S
H3234 C3214 0.929 . S
H3235 C3216 0.930 . S
H3236 C3218 0.932 . S
H3237 C3219 0.929 . S
H3238 C3220 0.928 . S
H3239 C3222 0.932 . S
C3240 C3241 1.264 . S
C3240 C3245 1.479 . S
C3240 C3250 1.465 . S
C3241 C3240 1.264 . S
C3241 C3243 1.339 . S
C3241 H3268 0.931 . S
C3242 C3243 1.395 . S
C3242 C3244 1.320 . S
C3243 C3241 1.339 . S
C3243 C3242 1.395 . S
C3243 H3269 0.929 . S
C3244 C3242 1.320 . S
C3244 C3245 1.405 . S
C3244 H3270 0.930 . S
C3245 C3240 1.479 . S
C3245 C3244 1.405 . S
C3245 H3271 0.931 . S
U3246 O3247 2.454 . S
U3246 O3248 2.458 . S
U3246 C3249 2.984 . S
U3246 C3250 2.847 . S
U3246 C3263 2.882 . S
U3246 O3264 2.441 . S
U3246 O3265 2.420 . S
U3246 O3266 2.455 . S
U3246 O3267 2.449 . S
O3247 U3246 2.454 . S
O3247 C3249 1.353 . S
O3248 U3246 2.458 . S
O3248 C3249 1.286 . S
C3249 U3246 2.984 . S
C3249 O3247 1.353 . S
C3249 O3248 1.286 . S
C3249 C3251 1.363 . S
C3250 C3240 1.465 . S
C3250 U3246 2.847 . S
C3250 O3264 1.249 . S
C3250 O3265 1.202 . S
C3251 C3249 1.363 . S
C3251 C3253 1.408 . S
C3251 C3256 1.342 . S
C3252 C3253 1.310 . S
C3252 C3255 1.461 . S
C3252 H3272 0.932 . S
C3253 C3251 1.408 . S
C3253 C3252 1.310 . S
C3253 H3273 0.930 . S
C3254 C3255 1.474 . S
C3254 C3256 1.285 . S
C3254 H3274 0.929 . S
C3255 C3252 1.461 . S
C3255 C3254 1.474 . S
C3256 C3251 1.342 . S
C3256 C3254 1.285 . S
C3256 H3275 0.930 . S
C3257 C3260 1.424 . S
C3257 C3262 1.245 . S
C3257 C3263 1.428 . S
C3258 C3261 1.260 . S
C3258 C3262 1.477 . S
C3258 H3276 0.932 . S
C3259 C3260 1.384 . S
C3259 C3261 1.479 . S
C3259 H3277 0.929 . S
C3260 C3257 1.424 . S
C3260 C3259 1.384 . S
C3260 H3278 0.928 . S
C3261 C3258 1.260 . S
C3261 C3259 1.479 . S
C3262 C3257 1.245 . S
C3262 C3258 1.477 . S
C3262 H3279 0.932 . S
C3263 U3246 2.882 . S
C3263 C3257 1.428 . S
C3263 O3266 1.301 . S
C3263 O3267 1.282 . S
O3264 U3246 2.441 . S
O3264 C3250 1.249 . S
O3265 U3246 2.420 . S
O3265 C3250 1.202 . S
O3266 U3246 2.455 . S
O3266 C3263 1.301 . S
O3267 U3246 2.449 . S
O3267 C3263 1.282 . S
H3268 C3241 0.931 . S
H3269 C3243 0.929 . S
H3270 C3244 0.930 . S
H3271 C3245 0.931 . S
H3272 C3252 0.932 . S
H3273 C3253 0.930 . S
H3274 C3254 0.929 . S
H3275 C3256 0.930 . S
H3276 C3258 0.932 . S
H3277 C3259 0.929 . S
H3278 C3260 0.928 . S
H3279 C3262 0.932 . S
C3280 C3281 1.264 . S
C3280 C3285 1.479 . S
C3280 C3290 1.465 . S
C3281 C3280 1.264 . S
C3281 C3283 1.339 . S
C3281 H3308 0.931 . S
C3282 C3283 1.395 . S
C3282 C3284 1.320 . S
C3283 C3281 1.339 . S
C3283 C3282 1.395 . S
C3283 H3309 0.929 . S
C3284 C3282 1.320 . S
C3284 C3285 1.405 . S
C3284 H3310 0.930 . S
C3285 C3280 1.479 . S
C3285 C3284 1.405 . S
C3285 H3311 0.931 . S
U3286 O3287 2.454 . S
U3286 O3288 2.458 . S
U3286 C3289 2.984 . S
U3286 C3290 2.847 . S
U3286 C3303 2.882 . S
U3286 O3304 2.441 . S
U3286 O3305 2.420 . S
U3286 O3306 2.455 . S
U3286 O3307 2.449 . S
O3287 U3286 2.454 . S
O3287 C3289 1.353 . S
O3288 U3286 2.458 . S
O3288 C3289 1.286 . S
C3289 U3286 2.984 . S
C3289 O3287 1.353 . S
C3289 O3288 1.286 . S
C3289 C3291 1.363 . S
C3290 C3280 1.465 . S
C3290 U3286 2.847 . S
C3290 O3304 1.249 . S
C3290 O3305 1.202 . S
C3291 C3289 1.363 . S
C3291 C3293 1.408 . S
C3291 C3296 1.342 . S
C3292 C3293 1.310 . S
C3292 C3295 1.461 . S
C3292 H3312 0.932 . S
C3293 C3291 1.408 . S
C3293 C3292 1.310 . S
C3293 H3313 0.930 . S
C3294 C3295 1.474 . S
C3294 C3296 1.285 . S
C3294 H3314 0.929 . S
C3295 C3292 1.461 . S
C3295 C3294 1.474 . S
C3296 C3291 1.342 . S
C3296 C3294 1.285 . S
C3296 H3315 0.930 . S
C3297 C3300 1.424 . S
C3297 C3302 1.245 . S
C3297 C3303 1.428 . S
C3298 C3301 1.260 . S
C3298 C3302 1.477 . S
C3298 H3316 0.932 . S
C3299 C3300 1.384 . S
C3299 C3301 1.479 . S
C3299 H3317 0.929 . S
C3300 C3297 1.424 . S
C3300 C3299 1.384 . S
C3300 H3318 0.928 . S
C3301 C3298 1.260 . S
C3301 C3299 1.479 . S
C3302 C3297 1.245 . S
C3302 C3298 1.477 . S
C3302 H3319 0.932 . S
C3303 U3286 2.882 . S
C3303 C3297 1.428 . S
C3303 O3306 1.301 . S
C3303 O3307 1.282 . S
O3304 U3286 2.441 . S
O3304 C3290 1.249 . S
O3305 U3286 2.420 . S
O3305 C3290 1.202 . S
O3306 U3286 2.455 . S
O3306 C3303 1.301 . S
O3307 U3286 2.449 . S
O3307 C3303 1.282 . S
H3308 C3281 0.931 . S
H3309 C3283 0.929 . S
H3310 C3284 0.930 . S
H3311 C3285 0.931 . S
H3312 C3292 0.932 . S
H3313 C3293 0.930 . S
H3314 C3294 0.929 . S
H3315 C3296 0.930 . S
H3316 C3298 0.932 . S
H3317 C3299 0.929 . S
H3318 C3300 0.928 . S
H3319 C3302 0.932 . S
C3320 C3321 1.264 . S
C3320 C3325 1.479 . S
C3320 C3330 1.465 . S
C3321 C3320 1.264 . S
C3321 C3323 1.339 . S
C3321 H3348 0.931 . S
C3322 C3323 1.395 . S
C3322 C3324 1.320 . S
C3323 C3321 1.339 . S
C3323 C3322 1.395 . S
C3323 H3349 0.929 . S
C3324 C3322 1.320 . S
C3324 C3325 1.405 . S
C3324 H3350 0.930 . S
C3325 C3320 1.479 . S
C3325 C3324 1.405 . S
C3325 H3351 0.931 . S
U3326 O3327 2.454 . S
U3326 O3328 2.458 . S
U3326 C3329 2.984 . S
U3326 C3330 2.847 . S
U3326 C3343 2.882 . S
U3326 O3344 2.441 . S
U3326 O3345 2.420 . S
U3326 O3346 2.455 . S
U3326 O3347 2.449 . S
O3327 U3326 2.454 . S
O3327 C3329 1.353 . S
O3328 U3326 2.458 . S
O3328 C3329 1.286 . S
C3329 U3326 2.984 . S
C3329 O3327 1.353 . S
C3329 O3328 1.286 . S
C3329 C3331 1.363 . S
C3330 C3320 1.465 . S
C3330 U3326 2.847 . S
C3330 O3344 1.249 . S
C3330 O3345 1.202 . S
C3331 C3329 1.363 . S
C3331 C3333 1.408 . S
C3331 C3336 1.342 . S
C3332 C3333 1.310 . S
C3332 C3335 1.461 . S
C3332 H3352 0.932 . S
C3333 C3331 1.408 . S
C3333 C3332 1.310 . S
C3333 H3353 0.930 . S
C3334 C3335 1.474 . S
C3334 C3336 1.285 . S
C3334 H3354 0.929 . S
C3335 C3332 1.461 . S
C3335 C3334 1.474 . S
C3336 C3331 1.342 . S
C3336 C3334 1.285 . S
C3336 H3355 0.930 . S
C3337 C3340 1.424 . S
C3337 C3342 1.245 . S
C3337 C3343 1.428 . S
C3338 C3341 1.260 . S
C3338 C3342 1.477 . S
C3338 H3356 0.932 . S
C3339 C3340 1.384 . S
C3339 C3341 1.479 . S
C3339 H3357 0.929 . S
C3340 C3337 1.424 . S
C3340 C3339 1.384 . S
C3340 H3358 0.928 . S
C3341 C3338 1.260 . S
C3341 C3339 1.479 . S
C3342 C3337 1.245 . S
C3342 C3338 1.477 . S
C3342 H3359 0.932 . S
C3343 U3326 2.882 . S
C3343 C3337 1.428 . S
C3343 O3346 1.301 . S
C3343 O3347 1.282 . S
O3344 U3326 2.441 . S
O3344 C3330 1.249 . S
O3345 U3326 2.420 . S
O3345 C3330 1.202 . S
O3346 U3326 2.455 . S
O3346 C3343 1.301 . S
O3347 U3326 2.449 . S
O3347 C3343 1.282 . S
H3348 C3321 0.931 . S
H3349 C3323 0.929 . S
H3350 C3324 0.930 . S
H3351 C3325 0.931 . S
H3352 C3332 0.932 . S
H3353 C3333 0.930 . S
H3354 C3334 0.929 . S
H3355 C3336 0.930 . S
H3356 C3338 0.932 . S
H3357 C3339 0.929 . S
H3358 C3340 0.928 . S
H3359 C3342 0.932 . S
C3360 C3361 1.264 . S
C3360 C3365 1.479 . S
C3360 C3370 1.465 . S
C3361 C3360 1.264 . S
C3361 C3363 1.339 . S
C3361 H3388 0.931 . S
C3362 C3363 1.395 . S
C3362 C3364 1.320 . S
C3363 C3361 1.339 . S
C3363 C3362 1.395 . S
C3363 H3389 0.929 . S
C3364 C3362 1.320 . S
C3364 C3365 1.405 . S
C3364 H3390 0.930 . S
C3365 C3360 1.479 . S
C3365 C3364 1.405 . S
C3365 H3391 0.931 . S
U3366 O3367 2.454 . S
U3366 O3368 2.458 . S
U3366 C3369 2.984 . S
U3366 C3370 2.847 . S
U3366 C3383 2.882 . S
U3366 O3384 2.441 . S
U3366 O3385 2.420 . S
U3366 O3386 2.455 . S
U3366 O3387 2.449 . S
O3367 U3366 2.454 . S
O3367 C3369 1.353 . S
O3368 U3366 2.458 . S
O3368 C3369 1.286 . S
C3369 U3366 2.984 . S
C3369 O3367 1.353 . S
C3369 O3368 1.286 . S
C3369 C3371 1.363 . S
C3370 C3360 1.465 . S
C3370 U3366 2.847 . S
C3370 O3384 1.249 . S
C3370 O3385 1.202 . S
C3371 C3369 1.363 . S
C3371 C3373 1.408 . S
C3371 C3376 1.342 . S
C3372 C3373 1.310 . S
C3372 C3375 1.461 . S
C3372 H3392 0.932 . S
C3373 C3371 1.408 . S
C3373 C3372 1.310 . S
C3373 H3393 0.930 . S
C3374 C3375 1.474 . S
C3374 C3376 1.285 . S
C3374 H3394 0.929 . S
C3375 C3372 1.461 . S
C3375 C3374 1.474 . S
C3376 C3371 1.342 . S
C3376 C3374 1.285 . S
C3376 H3395 0.930 . S
C3377 C3380 1.424 . S
C3377 C3382 1.245 . S
C3377 C3383 1.428 . S
C3378 C3381 1.260 . S
C3378 C3382 1.477 . S
C3378 H3396 0.932 . S
C3379 C3380 1.384 . S
C3379 C3381 1.479 . S
C3379 H3397 0.929 . S
C3380 C3377 1.424 . S
C3380 C3379 1.384 . S
C3380 H3398 0.928 . S
C3381 C3378 1.260 . S
C3381 C3379 1.479 . S
C3382 C3377 1.245 . S
C3382 C3378 1.477 . S
C3382 H3399 0.932 . S
C3383 U3366 2.882 . S
C3383 C3377 1.428 . S
C3383 O3386 1.301 . S
C3383 O3387 1.282 . S
O3384 U3366 2.441 . S
O3384 C3370 1.249 . S
O3385 U3366 2.420 . S
O3385 C3370 1.202 . S
O3386 U3366 2.455 . S
O3386 C3383 1.301 . S
O3387 U3366 2.449 . S
O3387 C3383 1.282 . S
H3388 C3361 0.931 . S
H3389 C3363 0.929 . S
H3390 C3364 0.930 . S
H3391 C3365 0.931 . S
H3392 C3372 0.932 . S
H3393 C3373 0.930 . S
H3394 C3374 0.929 . S
H3395 C3376 0.930 . S
H3396 C3378 0.932 . S
H3397 C3379 0.929 . S
H3398 C3380 0.928 . S
H3399 C3382 0.932 . S
C3400 C3401 1.264 . S
C3400 C3405 1.479 . S
C3400 C3410 1.465 . S
C3401 C3400 1.264 . S
C3401 C3403 1.339 . S
C3401 H3428 0.931 . S
C3402 C3403 1.395 . S
C3402 C3404 1.320 . S
C3403 C3401 1.339 . S
C3403 C3402 1.395 . S
C3403 H3429 0.929 . S
C3404 C3402 1.320 . S
C3404 C3405 1.405 . S
C3404 H3430 0.930 . S
C3405 C3400 1.479 . S
C3405 C3404 1.405 . S
C3405 H3431 0.931 . S
U3406 O3407 2.454 . S
U3406 O3408 2.458 . S
U3406 C3409 2.984 . S
U3406 C3410 2.847 . S
U3406 C3423 2.882 . S
U3406 O3424 2.441 . S
U3406 O3425 2.420 . S
U3406 O3426 2.455 . S
U3406 O3427 2.449 . S
O3407 U3406 2.454 . S
O3407 C3409 1.353 . S
O3408 U3406 2.458 . S
O3408 C3409 1.286 . S
C3409 U3406 2.984 . S
C3409 O3407 1.353 . S
C3409 O3408 1.286 . S
C3409 C3411 1.363 . S
C3410 C3400 1.465 . S
C3410 U3406 2.847 . S
C3410 O3424 1.249 . S
C3410 O3425 1.202 . S
C3411 C3409 1.363 . S
C3411 C3413 1.408 . S
C3411 C3416 1.342 . S
C3412 C3413 1.310 . S
C3412 C3415 1.461 . S
C3412 H3432 0.932 . S
C3413 C3411 1.408 . S
C3413 C3412 1.310 . S
C3413 H3433 0.930 . S
C3414 C3415 1.474 . S
C3414 C3416 1.285 . S
C3414 H3434 0.929 . S
C3415 C3412 1.461 . S
C3415 C3414 1.474 . S
C3416 C3411 1.342 . S
C3416 C3414 1.285 . S
C3416 H3435 0.930 . S
C3417 C3420 1.424 . S
C3417 C3422 1.245 . S
C3417 C3423 1.428 . S
C3418 C3421 1.260 . S
C3418 C3422 1.477 . S
C3418 H3436 0.932 . S
C3419 C3420 1.384 . S
C3419 C3421 1.479 . S
C3419 H3437 0.929 . S
C3420 C3417 1.424 . S
C3420 C3419 1.384 . S
C3420 H3438 0.928 . S
C3421 C3418 1.260 . S
C3421 C3419 1.479 . S
C3422 C3417 1.245 . S
C3422 C3418 1.477 . S
C3422 H3439 0.932 . S
C3423 U3406 2.882 . S
C3423 C3417 1.428 . S
C3423 O3426 1.301 . S
C3423 O3427 1.282 . S
O3424 U3406 2.441 . S
O3424 C3410 1.249 . S
O3425 U3406 2.420 . S
O3425 C3410 1.202 . S
O3426 U3406 2.455 . S
O3426 C3423 1.301 . S
O3427 U3406 2.449 . S
O3427 C3423 1.282 . S
H3428 C3401 0.931 . S
H3429 C3403 0.929 . S
H3430 C3404 0.930 . S
H3431 C3405 0.931 . S
H3432 C3412 0.932 . S
H3433 C3413 0.930 . S
H3434 C3414 0.929 . S
H3435 C3416 0.930 . S
H3436 C3418 0.932 . S
H3437 C3419 0.929 . S
H3438 C3420 0.928 . S
H3439 C3422 0.932 . S
C3440 C3441 1.264 . S
C3440 C3445 1.479 . S
C3440 C3450 1.465 . S
C3441 C3440 1.264 . S
C3441 C3443 1.339 . S
C3441 H3468 0.931 . S
C3442 C3443 1.395 . S
C3442 C3444 1.320 . S
C3443 C3441 1.339 . S
C3443 C3442 1.395 . S
C3443 H3469 0.929 . S
C3444 C3442 1.320 . S
C3444 C3445 1.405 . S
C3444 H3470 0.930 . S
C3445 C3440 1.479 . S
C3445 C3444 1.405 . S
C3445 H3471 0.931 . S
U3446 O3447 2.454 . S
U3446 O3448 2.458 . S
U3446 C3449 2.984 . S
U3446 C3450 2.847 . S
U3446 C3463 2.882 . S
U3446 O3464 2.441 . S
U3446 O3465 2.420 . S
U3446 O3466 2.455 . S
U3446 O3467 2.449 . S
O3447 U3446 2.454 . S
O3447 C3449 1.353 . S
O3448 U3446 2.458 . S
O3448 C3449 1.286 . S
C3449 U3446 2.984 . S
C3449 O3447 1.353 . S
C3449 O3448 1.286 . S
C3449 C3451 1.363 . S
C3450 C3440 1.465 . S
C3450 U3446 2.847 . S
C3450 O3464 1.249 . S
C3450 O3465 1.202 . S
C3451 C3449 1.363 . S
C3451 C3453 1.408 . S
C3451 C3456 1.342 . S
C3452 C3453 1.310 . S
C3452 C3455 1.461 . S
C3452 H3472 0.932 . S
C3453 C3451 1.408 . S
C3453 C3452 1.310 . S
C3453 H3473 0.930 . S
C3454 C3455 1.474 . S
C3454 C3456 1.285 . S
C3454 H3474 0.929 . S
C3455 C3452 1.461 . S
C3455 C3454 1.474 . S
C3456 C3451 1.342 . S
C3456 C3454 1.285 . S
C3456 H3475 0.930 . S
C3457 C3460 1.424 . S
C3457 C3462 1.245 . S
C3457 C3463 1.428 . S
C3458 C3461 1.260 . S
C3458 C3462 1.477 . S
C3458 H3476 0.932 . S
C3459 C3460 1.384 . S
C3459 C3461 1.479 . S
C3459 H3477 0.929 . S
C3460 C3457 1.424 . S
C3460 C3459 1.384 . S
C3460 H3478 0.928 . S
C3461 C3458 1.260 . S
C3461 C3459 1.479 . S
C3462 C3457 1.245 . S
C3462 C3458 1.477 . S
C3462 H3479 0.932 . S
C3463 U3446 2.882 . S
C3463 C3457 1.428 . S
C3463 O3466 1.301 . S
C3463 O3467 1.282 . S
O3464 U3446 2.441 . S
O3464 C3450 1.249 . S
O3465 U3446 2.420 . S
O3465 C3450 1.202 . S
O3466 U3446 2.455 . S
O3466 C3463 1.301 . S
O3467 U3446 2.449 . S
O3467 C3463 1.282 . S
H3468 C3441 0.931 . S
H3469 C3443 0.929 . S
H3470 C3444 0.930 . S
H3471 C3445 0.931 . S
H3472 C3452 0.932 . S
H3473 C3453 0.930 . S
H3474 C3454 0.929 . S
H3475 C3456 0.930 . S
H3476 C3458 0.932 . S
H3477 C3459 0.929 . S
H3478 C3460 0.928 . S
H3479 C3462 0.932 . S
C3480 C3481 1.264 . S
C3480 C3485 1.479 . S
C3480 C3490 1.465 . S
C3481 C3480 1.264 . S
C3481 C3483 1.339 . S
C3481 H3508 0.931 . S
C3482 C3483 1.395 . S
C3482 C3484 1.320 . S
C3483 C3481 1.339 . S
C3483 C3482 1.395 . S
C3483 H3509 0.929 . S
C3484 C3482 1.320 . S
C3484 C3485 1.405 . S
C3484 H3510 0.930 . S
C3485 C3480 1.479 . S
C3485 C3484 1.405 . S
C3485 H3511 0.931 . S
U3486 O3487 2.454 . S
U3486 O3488 2.458 . S
U3486 C3489 2.984 . S
U3486 C3490 2.847 . S
U3486 C3503 2.882 . S
U3486 O3504 2.441 . S
U3486 O3505 2.420 . S
U3486 O3506 2.455 . S
U3486 O3507 2.449 . S
O3487 U3486 2.454 . S
O3487 C3489 1.353 . S
O3488 U3486 2.458 . S
O3488 C3489 1.286 . S
C3489 U3486 2.984 . S
C3489 O3487 1.353 . S
C3489 O3488 1.286 . S
C3489 C3491 1.363 . S
C3490 C3480 1.465 . S
C3490 U3486 2.847 . S
C3490 O3504 1.249 . S
C3490 O3505 1.202 . S
C3491 C3489 1.363 . S
C3491 C3493 1.408 . S
C3491 C3496 1.342 . S
C3492 C3493 1.310 . S
C3492 C3495 1.461 . S
C3492 H3512 0.932 . S
C3493 C3491 1.408 . S
C3493 C3492 1.310 . S
C3493 H3513 0.930 . S
C3494 C3495 1.474 . S
C3494 C3496 1.285 . S
C3494 H3514 0.929 . S
C3495 C3492 1.461 . S
C3495 C3494 1.474 . S
C3496 C3491 1.342 . S
C3496 C3494 1.285 . S
C3496 H3515 0.930 . S
C3497 C3500 1.424 . S
C3497 C3502 1.245 . S
C3497 C3503 1.428 . S
C3498 C3501 1.260 . S
C3498 C3502 1.477 . S
C3498 H3516 0.932 . S
C3499 C3500 1.384 . S
C3499 C3501 1.479 . S
C3499 H3517 0.929 . S
C3500 C3497 1.424 . S
C3500 C3499 1.384 . S
C3500 H3518 0.928 . S
C3501 C3498 1.260 . S
C3501 C3499 1.479 . S
C3502 C3497 1.245 . S
C3502 C3498 1.477 . S
C3502 H3519 0.932 . S
C3503 U3486 2.882 . S
C3503 C3497 1.428 . S
C3503 O3506 1.301 . S
C3503 O3507 1.282 . S
O3504 U3486 2.441 . S
O3504 C3490 1.249 . S
O3505 U3486 2.420 . S
O3505 C3490 1.202 . S
O3506 U3486 2.455 . S
O3506 C3503 1.301 . S
O3507 U3486 2.449 . S
O3507 C3503 1.282 . S
H3508 C3481 0.931 . S
H3509 C3483 0.929 . S
H3510 C3484 0.930 . S
H3511 C3485 0.931 . S
H3512 C3492 0.932 . S
H3513 C3493 0.930 . S
H3514 C3494 0.929 . S
H3515 C3496 0.930 . S
H3516 C3498 0.932 . S
H3517 C3499 0.929 . S
H3518 C3500 0.928 . S
H3519 C3502 0.932 . S
C3520 C3521 1.264 . S
C3520 C3525 1.479 . S
C3520 C3530 1.465 . S
C3521 C3520 1.264 . S
C3521 C3523 1.339 . S
C3521 H3548 0.931 . S
C3522 C3523 1.395 . S
C3522 C3524 1.320 . S
C3523 C3521 1.339 . S
C3523 C3522 1.395 . S
C3523 H3549 0.929 . S
C3524 C3522 1.320 . S
C3524 C3525 1.405 . S
C3524 H3550 0.930 . S
C3525 C3520 1.479 . S
C3525 C3524 1.405 . S
C3525 H3551 0.931 . S
U3526 O3527 2.454 . S
U3526 O3528 2.458 . S
U3526 C3529 2.984 . S
U3526 C3530 2.847 . S
U3526 C3543 2.882 . S
U3526 O3544 2.441 . S
U3526 O3545 2.420 . S
U3526 O3546 2.455 . S
U3526 O3547 2.449 . S
O3527 U3526 2.454 . S
O3527 C3529 1.353 . S
O3528 U3526 2.458 . S
O3528 C3529 1.286 . S
C3529 U3526 2.984 . S
C3529 O3527 1.353 . S
C3529 O3528 1.286 . S
C3529 C3531 1.363 . S
C3530 C3520 1.465 . S
C3530 U3526 2.847 . S
C3530 O3544 1.249 . S
C3530 O3545 1.202 . S
C3531 C3529 1.363 . S
C3531 C3533 1.408 . S
C3531 C3536 1.342 . S
C3532 C3533 1.310 . S
C3532 C3535 1.461 . S
C3532 H3552 0.932 . S
C3533 C3531 1.408 . S
C3533 C3532 1.310 . S
C3533 H3553 0.930 . S
C3534 C3535 1.474 . S
C3534 C3536 1.285 . S
C3534 H3554 0.929 . S
C3535 C3532 1.461 . S
C3535 C3534 1.474 . S
C3536 C3531 1.342 . S
C3536 C3534 1.285 . S
C3536 H3555 0.930 . S
C3537 C3540 1.424 . S
C3537 C3542 1.245 . S
C3537 C3543 1.428 . S
C3538 C3541 1.260 . S
C3538 C3542 1.477 . S
C3538 H3556 0.932 . S
C3539 C3540 1.384 . S
C3539 C3541 1.479 . S
C3539 H3557 0.929 . S
C3540 C3537 1.424 . S
C3540 C3539 1.384 . S
C3540 H3558 0.928 . S
C3541 C3538 1.260 . S
C3541 C3539 1.479 . S
C3542 C3537 1.245 . S
C3542 C3538 1.477 . S
C3542 H3559 0.932 . S
C3543 U3526 2.882 . S
C3543 C3537 1.428 . S
C3543 O3546 1.301 . S
C3543 O3547 1.282 . S
O3544 U3526 2.441 . S
O3544 C3530 1.249 . S
O3545 U3526 2.420 . S
O3545 C3530 1.202 . S
O3546 U3526 2.455 . S
O3546 C3543 1.301 . S
O3547 U3526 2.449 . S
O3547 C3543 1.282 . S
H3548 C3521 0.931 . S
H3549 C3523 0.929 . S
H3550 C3524 0.930 . S
H3551 C3525 0.931 . S
H3552 C3532 0.932 . S
H3553 C3533 0.930 . S
H3554 C3534 0.929 . S
H3555 C3536 0.930 . S
H3556 C3538 0.932 . S
H3557 C3539 0.929 . S
H3558 C3540 0.928 . S
H3559 C3542 0.932 . S
C3560 C3561 1.264 . S
C3560 C3565 1.479 . S
C3560 C3570 1.465 . S
C3561 C3560 1.264 . S
C3561 C3563 1.339 . S
C3561 H3588 0.931 . S
C3562 C3563 1.395 . S
C3562 C3564 1.320 . S
C3563 C3561 1.339 . S
C3563 C3562 1.395 . S
C3563 H3589 0.929 . S
C3564 C3562 1.320 . S
C3564 C3565 1.405 . S
C3564 H3590 0.930 . S
C3565 C3560 1.479 . S
C3565 C3564 1.405 . S
C3565 H3591 0.931 . S
U3566 O3567 2.454 . S
U3566 O3568 2.458 . S
U3566 C3569 2.984 . S
U3566 C3570 2.847 . S
U3566 C3583 2.882 . S
U3566 O3584 2.441 . S
U3566 O3585 2.420 . S
U3566 O3586 2.455 . S
U3566 O3587 2.449 . S
O3567 U3566 2.454 . S
O3567 C3569 1.353 . S
O3568 U3566 2.458 . S
O3568 C3569 1.286 . S
C3569 U3566 2.984 . S
C3569 O3567 1.353 . S
C3569 O3568 1.286 . S
C3569 C3571 1.363 . S
C3570 C3560 1.465 . S
C3570 U3566 2.847 . S
C3570 O3584 1.249 . S
C3570 O3585 1.202 . S
C3571 C3569 1.363 . S
C3571 C3573 1.408 . S
C3571 C3576 1.342 . S
C3572 C3573 1.310 . S
C3572 C3575 1.461 . S
C3572 H3592 0.932 . S
C3573 C3571 1.408 . S
C3573 C3572 1.310 . S
C3573 H3593 0.930 . S
C3574 C3575 1.474 . S
C3574 C3576 1.285 . S
C3574 H3594 0.929 . S
C3575 C3572 1.461 . S
C3575 C3574 1.474 . S
C3576 C3571 1.342 . S
C3576 C3574 1.285 . S
C3576 H3595 0.930 . S
C3577 C3580 1.424 . S
C3577 C3582 1.245 . S
C3577 C3583 1.428 . S
C3578 C3581 1.260 . S
C3578 C3582 1.477 . S
C3578 H3596 0.932 . S
C3579 C3580 1.384 . S
C3579 C3581 1.479 . S
C3579 H3597 0.929 . S
C3580 C3577 1.424 . S
C3580 C3579 1.384 . S
C3580 H3598 0.928 . S
C3581 C3578 1.260 . S
C3581 C3579 1.479 . S
C3582 C3577 1.245 . S
C3582 C3578 1.477 . S
C3582 H3599 0.932 . S
C3583 U3566 2.882 . S
C3583 C3577 1.428 . S
C3583 O3586 1.301 . S
C3583 O3587 1.282 . S
O3584 U3566 2.441 . S
O3584 C3570 1.249 . S
O3585 U3566 2.420 . S
O3585 C3570 1.202 . S
O3586 U3566 2.455 . S
O3586 C3583 1.301 . S
O3587 U3566 2.449 . S
O3587 C3583 1.282 . S
H3588 C3561 0.931 . S
H3589 C3563 0.929 . S
H3590 C3564 0.930 . S
H3591 C3565 0.931 . S
H3592 C3572 0.932 . S
H3593 C3573 0.930 . S
H3594 C3574 0.929 . S
H3595 C3576 0.930 . S
H3596 C3578 0.932 . S
H3597 C3579 0.929 . S
H3598 C3580 0.928 . S
H3599 C3582 0.932 . S
C3600 C3601 1.264 . S
C3600 C3605 1.479 . S
C3600 C3610 1.465 . S
C3601 C3600 1.264 . S
C3601 C3603 1.339 . S
C3601 H3628 0.931 . S
C3602 C3603 1.395 . S
C3602 C3604 1.320 . S
C3603 C3601 1.339 . S
C3603 C3602 1.395 . S
C3603 H3629 0.929 . S
C3604 C3602 1.320 . S
C3604 C3605 1.405 . S
C3604 H3630 0.930 . S
C3605 C3600 1.479 . S
C3605 C3604 1.405 . S
C3605 H3631 0.931 . S
U3606 O3607 2.454 . S
U3606 O3608 2.458 . S
U3606 C3609 2.984 . S
U3606 C3610 2.847 . S
U3606 C3623 2.882 . S
U3606 O3624 2.441 . S
U3606 O3625 2.420 . S
U3606 O3626 2.455 . S
U3606 O3627 2.449 . S
O3607 U3606 2.454 . S
O3607 C3609 1.353 . S
O3608 U3606 2.458 . S
O3608 C3609 1.286 . S
C3609 U3606 2.984 . S
C3609 O3607 1.353 . S
C3609 O3608 1.286 . S
C3609 C3611 1.363 . S
C3610 C3600 1.465 . S
C3610 U3606 2.847 . S
C3610 O3624 1.249 . S
C3610 O3625 1.202 . S
C3611 C3609 1.363 . S
C3611 C3613 1.408 . S
C3611 C3616 1.342 . S
C3612 C3613 1.310 . S
C3612 C3615 1.461 . S
C3612 H3632 0.932 . S
C3613 C3611 1.408 . S
C3613 C3612 1.310 . S
C3613 H3633 0.930 . S
C3614 C3615 1.474 . S
C3614 C3616 1.285 . S
C3614 H3634 0.929 . S
C3615 C3612 1.461 . S
C3615 C3614 1.474 . S
C3616 C3611 1.342 . S
C3616 C3614 1.285 . S
C3616 H3635 0.930 . S
C3617 C3620 1.424 . S
C3617 C3622 1.245 . S
C3617 C3623 1.428 . S
C3618 C3621 1.260 . S
C3618 C3622 1.477 . S
C3618 H3636 0.932 . S
C3619 C3620 1.384 . S
C3619 C3621 1.479 . S
C3619 H3637 0.929 . S
C3620 C3617 1.424 . S
C3620 C3619 1.384 . S
C3620 H3638 0.928 . S
C3621 C3618 1.260 . S
C3621 C3619 1.479 . S
C3622 C3617 1.245 . S
C3622 C3618 1.477 . S
C3622 H3639 0.932 . S
C3623 U3606 2.882 . S
C3623 C3617 1.428 . S
C3623 O3626 1.301 . S
C3623 O3627 1.282 . S
O3624 U3606 2.441 . S
O3624 C3610 1.249 . S
O3625 U3606 2.420 . S
O3625 C3610 1.202 . S
O3626 U3606 2.455 . S
O3626 C3623 1.301 . S
O3627 U3606 2.449 . S
O3627 C3623 1.282 . S
H3628 C3601 0.931 . S
H3629 C3603 0.929 . S
H3630 C3604 0.930 . S
H3631 C3605 0.931 . S
H3632 C3612 0.932 . S
H3633 C3613 0.930 . S
H3634 C3614 0.929 . S
H3635 C3616 0.930 . S
H3636 C3618 0.932 . S
H3637 C3619 0.929 . S
H3638 C3620 0.928 . S
H3639 C3622 0.932 . S
C3640 C3641 1.264 . S
C3640 C3645 1.479 . S
C3640 C3650 1.465 . S
C3641 C3640 1.264 . S
C3641 C3643 1.339 . S
C3641 H3668 0.931 . S
C3642 C3643 1.395 . S
C3642 C3644 1.320 . S
C3643 C3641 1.339 . S
C3643 C3642 1.395 . S
C3643 H3669 0.929 . S
C3644 C3642 1.320 . S
C3644 C3645 1.405 . S
C3644 H3670 0.930 . S
C3645 C3640 1.479 . S
C3645 C3644 1.405 . S
C3645 H3671 0.931 . S
U3646 O3647 2.454 . S
U3646 O3648 2.458 . S
U3646 C3649 2.984 . S
U3646 C3650 2.847 . S
U3646 C3663 2.882 . S
U3646 O3664 2.441 . S
U3646 O3665 2.420 . S
U3646 O3666 2.455 . S
U3646 O3667 2.449 . S
O3647 U3646 2.454 . S
O3647 C3649 1.353 . S
O3648 U3646 2.458 . S
O3648 C3649 1.286 . S
C3649 U3646 2.984 . S
C3649 O3647 1.353 . S
C3649 O3648 1.286 . S
C3649 C3651 1.363 . S
C3650 C3640 1.465 . S
C3650 U3646 2.847 . S
C3650 O3664 1.249 . S
C3650 O3665 1.202 . S
C3651 C3649 1.363 . S
C3651 C3653 1.408 . S
C3651 C3656 1.342 . S
C3652 C3653 1.310 . S
C3652 C3655 1.461 1_554 S
C3652 H3672 0.916 1_554 S
C3653 C3651 1.408 . S
C3653 C3652 1.310 . S
C3653 H3673 0.930 . S
C3654 C3655 1.474 1_554 S
C3654 C3656 1.285 . S
C3654 H3674 0.931 . S
C3655 C3652 1.461 1_556 S
C3655 C3654 1.474 1_556 S
C3656 C3651 1.342 . S
C3656 C3654 1.285 . S
C3656 H3675 0.930 . S
C3657 C3660 1.424 . S
C3657 C3662 1.245 . S
C3657 C3663 1.428 . S
C3658 C3661 1.260 . S
C3658 C3662 1.477 . S
C3658 H3676 0.932 . S
C3659 C3660 1.384 . S
C3659 C3661 1.479 . S
C3659 H3677 0.929 . S
C3660 C3657 1.424 . S
C3660 C3659 1.384 . S
C3660 H3678 0.928 . S
C3661 C3658 1.260 . S
C3661 C3659 1.479 . S
C3662 C3657 1.245 . S
C3662 C3658 1.477 . S
C3662 H3679 0.932 . S
C3663 U3646 2.882 . S
C3663 C3657 1.428 . S
C3663 O3666 1.301 . S
C3663 O3667 1.282 . S
O3664 U3646 2.441 . S
O3664 C3650 1.249 . S
O3665 U3646 2.420 . S
O3665 C3650 1.202 . S
O3666 U3646 2.455 . S
O3666 C3663 1.301 . S
O3667 U3646 2.449 . S
O3667 C3663 1.282 . S
H3668 C3641 0.931 . S
H3669 C3643 0.929 . S
H3670 C3644 0.930 . S
H3671 C3645 0.931 . S
H3672 C3652 0.916 1_556 S
H3673 C3653 0.930 . S
H3674 C3654 0.931 . S
H3675 C3656 0.930 . S
H3676 C3658 0.932 . S
H3677 C3659 0.929 . S
H3678 C3660 0.928 . S
H3679 C3662 0.932 . S
C3680 C3681 1.264 . S
C3680 C3685 1.479 . S
C3680 C3690 1.465 . S
C3681 C3680 1.264 . S
C3681 C3683 1.339 . S
C3681 H3708 0.931 . S
C3682 C3683 1.395 . S
C3682 C3684 1.320 . S
C3683 C3681 1.339 . S
C3683 C3682 1.395 . S
C3683 H3709 0.929 . S
C3684 C3682 1.320 . S
C3684 C3685 1.405 . S
C3684 H3710 0.930 . S
C3685 C3680 1.479 . S
C3685 C3684 1.405 . S
C3685 H3711 0.931 . S
U3686 O3687 2.454 . S
U3686 O3688 2.458 . S
U3686 C3689 2.984 . S
U3686 C3690 2.847 . S
U3686 C3703 2.882 . S
U3686 O3704 2.441 . S
U3686 O3705 2.420 . S
U3686 O3706 2.455 . S
U3686 O3707 2.449 . S
O3687 U3686 2.454 . S
O3687 C3689 1.353 . S
O3688 U3686 2.458 . S
O3688 C3689 1.286 . S
C3689 U3686 2.984 . S
C3689 O3687 1.353 . S
C3689 O3688 1.286 . S
C3689 C3691 1.363 . S
C3690 C3680 1.465 . S
C3690 U3686 2.847 . S
C3690 O3704 1.249 . S
C3690 O3705 1.202 . S
C3691 C3689 1.363 . S
C3691 C3693 1.408 . S
C3691 C3696 1.342 . S
C3692 C3693 1.310 . S
C3692 C3695 1.461 . S
C3692 H3712 0.932 . S
C3693 C3691 1.408 . S
C3693 C3692 1.310 . S
C3693 H3713 0.930 . S
C3694 C3695 1.474 . S
C3694 C3696 1.285 . S
C3694 H3714 0.929 . S
C3695 C3692 1.461 . S
C3695 C3694 1.474 . S
C3696 C3691 1.342 . S
C3696 C3694 1.285 . S
C3696 H3715 0.930 . S
C3697 C3700 1.424 . S
C3697 C3702 1.245 . S
C3697 C3703 1.428 . S
C3698 C3701 1.260 . S
C3698 C3702 1.477 . S
C3698 H3716 0.932 . S
C3699 C3700 1.384 . S
C3699 C3701 1.479 . S
C3699 H3717 0.929 . S
C3700 C3697 1.424 . S
C3700 C3699 1.384 . S
C3700 H3718 0.928 . S
C3701 C3698 1.260 . S
C3701 C3699 1.479 . S
C3702 C3697 1.245 . S
C3702 C3698 1.477 . S
C3702 H3719 0.932 . S
C3703 U3686 2.882 . S
C3703 C3697 1.428 . S
C3703 O3706 1.301 . S
C3703 O3707 1.282 . S
O3704 U3686 2.441 . S
O3704 C3690 1.249 . S
O3705 U3686 2.420 . S
O3705 C3690 1.202 . S
O3706 U3686 2.455 . S
O3706 C3703 1.301 . S
O3707 U3686 2.449 . S
O3707 C3703 1.282 . S
H3708 C3681 0.931 . S
H3709 C3683 0.929 . S
H3710 C3684 0.930 . S
H3711 C3685 0.931 . S
H3712 C3692 0.932 . S
H3713 C3693 0.930 . S
H3714 C3694 0.929 . S
H3715 C3696 0.930 . S
H3716 C3698 0.932 . S
H3717 C3699 0.929 . S
H3718 C3700 0.928 . S
H3719 C3702 0.932 . S
C3720 C3721 1.264 . S
C3720 C3725 1.479 . S
C3720 C3730 1.465 . S
C3721 C3720 1.264 . S
C3721 C3723 1.339 . S
C3721 H3748 0.931 . S
C3722 C3723 1.395 . S
C3722 C3724 1.320 . S
C3723 C3721 1.339 . S
C3723 C3722 1.395 . S
C3723 H3749 0.929 . S
C3724 C3722 1.320 . S
C3724 C3725 1.405 . S
C3724 H3750 0.930 . S
C3725 C3720 1.479 . S
C3725 C3724 1.405 . S
C3725 H3751 0.931 . S
U3726 O3727 2.454 . S
U3726 O3728 2.458 . S
U3726 C3729 2.984 . S
U3726 C3730 2.847 . S
U3726 C3743 2.882 . S
U3726 O3744 2.441 . S
U3726 O3745 2.420 . S
U3726 O3746 2.455 . S
U3726 O3747 2.449 . S
O3727 U3726 2.454 . S
O3727 C3729 1.353 . S
O3728 U3726 2.458 . S
O3728 C3729 1.286 . S
C3729 U3726 2.984 . S
C3729 O3727 1.353 . S
C3729 O3728 1.286 . S
C3729 C3731 1.363 . S
C3730 C3720 1.465 . S
C3730 U3726 2.847 . S
C3730 O3744 1.249 . S
C3730 O3745 1.202 . S
C3731 C3729 1.363 . S
C3731 C3733 1.408 . S
C3731 C3736 1.342 . S
C3732 C3733 1.310 . S
C3732 C3735 1.461 1_556 S
C3732 H3752 0.916 1_556 S
C3733 C3731 1.408 . S
C3733 C3732 1.310 . S
C3733 H3753 0.930 . S
C3734 C3735 1.474 1_556 S
C3734 C3736 1.285 . S
C3734 H3754 0.931 . S
C3735 C3732 1.461 1_554 S
C3735 C3734 1.474 1_554 S
C3736 C3731 1.342 . S
C3736 C3734 1.285 . S
C3736 H3755 0.930 . S
C3737 C3740 1.424 . S
C3737 C3742 1.245 . S
C3737 C3743 1.428 . S
C3738 C3741 1.260 . S
C3738 C3742 1.477 . S
C3738 H3756 0.932 . S
C3739 C3740 1.384 . S
C3739 C3741 1.479 . S
C3739 H3757 0.929 . S
C3740 C3737 1.424 . S
C3740 C3739 1.384 . S
C3740 H3758 0.928 . S
C3741 C3738 1.260 . S
C3741 C3739 1.479 . S
C3742 C3737 1.245 . S
C3742 C3738 1.477 . S
C3742 H3759 0.932 . S
C3743 U3726 2.882 . S
C3743 C3737 1.428 . S
C3743 O3746 1.301 . S
C3743 O3747 1.282 . S
O3744 U3726 2.441 . S
O3744 C3730 1.249 . S
O3745 U3726 2.420 . S
O3745 C3730 1.202 . S
O3746 U3726 2.455 . S
O3746 C3743 1.301 . S
O3747 U3726 2.449 . S
O3747 C3743 1.282 . S
H3748 C3721 0.931 . S
H3749 C3723 0.929 . S
H3750 C3724 0.930 . S
H3751 C3725 0.931 . S
H3752 C3732 0.916 1_554 S
H3753 C3733 0.930 . S
H3754 C3734 0.931 . S
H3755 C3736 0.930 . S
H3756 C3738 0.932 . S
H3757 C3739 0.929 . S
H3758 C3740 0.928 . S
H3759 C3742 0.932 . S
C3760 C3761 1.264 . S
C3760 C3765 1.479 . S
C3760 C3770 1.465 . S
C3761 C3760 1.264 . S
C3761 C3763 1.339 . S
C3761 H3788 0.931 . S
C3762 C3763 1.395 . S
C3762 C3764 1.320 . S
C3763 C3761 1.339 . S
C3763 C3762 1.395 . S
C3763 H3789 0.929 . S
C3764 C3762 1.320 . S
C3764 C3765 1.405 . S
C3764 H3790 0.930 . S
C3765 C3760 1.479 . S
C3765 C3764 1.405 . S
C3765 H3791 0.931 . S
U3766 O3767 2.454 . S
U3766 O3768 2.458 . S
U3766 C3769 2.984 . S
U3766 C3770 2.847 . S
U3766 C3783 2.882 . S
U3766 O3784 2.441 . S
U3766 O3785 2.420 . S
U3766 O3786 2.455 . S
U3766 O3787 2.449 . S
O3767 U3766 2.454 . S
O3767 C3769 1.353 . S
O3768 U3766 2.458 . S
O3768 C3769 1.286 . S
C3769 U3766 2.984 . S
C3769 O3767 1.353 . S
C3769 O3768 1.286 . S
C3769 C3771 1.363 . S
C3770 C3760 1.465 . S
C3770 U3766 2.847 . S
C3770 O3784 1.249 . S
C3770 O3785 1.202 . S
C3771 C3769 1.363 . S
C3771 C3773 1.408 . S
C3771 C3776 1.342 . S
C3772 C3773 1.310 . S
C3772 C3775 1.461 . S
C3772 H3792 0.932 . S
C3773 C3771 1.408 . S
C3773 C3772 1.310 . S
C3773 H3793 0.930 . S
C3774 C3775 1.474 . S
C3774 C3776 1.285 . S
C3774 H3794 0.929 . S
C3775 C3772 1.461 . S
C3775 C3774 1.474 . S
C3776 C3771 1.342 . S
C3776 C3774 1.285 . S
C3776 H3795 0.930 . S
C3777 C3780 1.424 . S
C3777 C3782 1.245 . S
C3777 C3783 1.428 . S
C3778 C3781 1.260 . S
C3778 C3782 1.477 . S
C3778 H3796 0.932 . S
C3779 C3780 1.384 . S
C3779 C3781 1.479 . S
C3779 H3797 0.929 . S
C3780 C3777 1.424 . S
C3780 C3779 1.384 . S
C3780 H3798 0.928 . S
C3781 C3778 1.260 . S
C3781 C3779 1.479 . S
C3782 C3777 1.245 . S
C3782 C3778 1.477 . S
C3782 H3799 0.932 . S
C3783 U3766 2.882 . S
C3783 C3777 1.428 . S
C3783 O3786 1.301 . S
C3783 O3787 1.282 . S
O3784 U3766 2.441 . S
O3784 C3770 1.249 . S
O3785 U3766 2.420 . S
O3785 C3770 1.202 . S
O3786 U3766 2.455 . S
O3786 C3783 1.301 . S
O3787 U3766 2.449 . S
O3787 C3783 1.282 . S
H3788 C3761 0.931 . S
H3789 C3763 0.929 . S
H3790 C3764 0.930 . S
H3791 C3765 0.931 . S
H3792 C3772 0.932 . S
H3793 C3773 0.930 . S
H3794 C3774 0.929 . S
H3795 C3776 0.930 . S
H3796 C3778 0.932 . S
H3797 C3779 0.929 . S
H3798 C3780 0.928 . S
H3799 C3782 0.932 . S
C3800 C3801 1.264 . S
C3800 C3805 1.479 . S
C3800 C3810 1.465 . S
C3801 C3800 1.264 . S
C3801 C3803 1.339 . S
C3801 H3828 0.931 . S
C3802 C3803 1.395 . S
C3802 C3804 1.320 . S
C3803 C3801 1.339 . S
C3803 C3802 1.395 . S
C3803 H3829 0.929 . S
C3804 C3802 1.320 . S
C3804 C3805 1.405 . S
C3804 H3830 0.930 . S
C3805 C3800 1.479 . S
C3805 C3804 1.405 . S
C3805 H3831 0.931 . S
U3806 O3807 2.454 . S
U3806 O3808 2.458 . S
U3806 C3809 2.984 . S
U3806 C3810 2.847 . S
U3806 C3823 2.882 . S
U3806 O3824 2.441 . S
U3806 O3825 2.420 . S
U3806 O3826 2.455 . S
U3806 O3827 2.449 . S
O3807 U3806 2.454 . S
O3807 C3809 1.353 . S
O3808 U3806 2.458 . S
O3808 C3809 1.286 . S
C3809 U3806 2.984 . S
C3809 O3807 1.353 . S
C3809 O3808 1.286 . S
C3809 C3811 1.363 . S
C3810 C3800 1.465 . S
C3810 U3806 2.847 . S
C3810 O3824 1.249 . S
C3810 O3825 1.202 . S
C3811 C3809 1.363 . S
C3811 C3813 1.408 . S
C3811 C3816 1.342 . S
C3812 C3813 1.310 . S
C3812 C3815 1.461 . S
C3812 H3832 0.932 . S
C3813 C3811 1.408 . S
C3813 C3812 1.310 . S
C3813 H3833 0.930 . S
C3814 C3815 1.474 . S
C3814 C3816 1.285 . S
C3814 H3834 0.929 . S
C3815 C3812 1.461 . S
C3815 C3814 1.474 . S
C3816 C3811 1.342 . S
C3816 C3814 1.285 . S
C3816 H3835 0.930 . S
C3817 C3820 1.424 . S
C3817 C3822 1.245 . S
C3817 C3823 1.428 . S
C3818 C3821 1.260 . S
C3818 C3822 1.477 . S
C3818 H3836 0.932 . S
C3819 C3820 1.384 . S
C3819 C3821 1.479 . S
C3819 H3837 0.929 . S
C3820 C3817 1.424 . S
C3820 C3819 1.384 . S
C3820 H3838 0.928 . S
C3821 C3818 1.260 . S
C3821 C3819 1.479 . S
C3822 C3817 1.245 . S
C3822 C3818 1.477 . S
C3822 H3839 0.932 . S
C3823 U3806 2.882 . S
C3823 C3817 1.428 . S
C3823 O3826 1.301 . S
C3823 O3827 1.282 . S
O3824 U3806 2.441 . S
O3824 C3810 1.249 . S
O3825 U3806 2.420 . S
O3825 C3810 1.202 . S
O3826 U3806 2.455 . S
O3826 C3823 1.301 . S
O3827 U3806 2.449 . S
O3827 C3823 1.282 . S
H3828 C3801 0.931 . S
H3829 C3803 0.929 . S
H3830 C3804 0.930 . S
H3831 C3805 0.931 . S
H3832 C3812 0.932 . S
H3833 C3813 0.930 . S
H3834 C3814 0.929 . S
H3835 C3816 0.930 . S
H3836 C3818 0.932 . S
H3837 C3819 0.929 . S
H3838 C3820 0.928 . S
H3839 C3822 0.932 . S
H3840 C3843 0.931 . S
H3841 C3846 0.928 . S
H3842 C3848 0.930 . S
C3843 H3840 0.931 . S
C3843 C3844 1.413 . S
C3843 C3845 1.360 . S
C3844 C3843 1.413 . S
C3844 C3848 1.429 . S
C3845 C3843 1.360 . S
C3845 C3846 1.372 . S
C3846 H3841 0.928 . S
C3846 C3845 1.372 . S
C3846 C3847 1.404 . S
C3847 C3846 1.404 . S
C3847 C3848 1.391 . S
C3848 H3842 0.930 . S
C3848 C3844 1.429 . S
C3848 C3847 1.391 . S
H3849 C3852 0.931 . S
H3850 C3855 0.928 . S
H3851 C3857 0.930 . S
C3852 H3849 0.931 . S
C3852 C3853 1.413 . S
C3852 C3854 1.360 . S
C3853 C3852 1.413 . S
C3853 C3857 1.429 . S
C3854 C3852 1.360 . S
C3854 C3855 1.372 . S
C3855 H3850 0.928 . S
C3855 C3854 1.372 . S
C3855 C3856 1.404 . S
C3856 C3855 1.404 . S
C3856 C3857 1.391 . S
C3857 H3851 0.930 . S
C3857 C3853 1.429 . S
C3857 C3856 1.391 . S
H3858 C3861 0.931 . S
H3859 C3864 0.928 . S
H3860 C3866 0.930 . S
C3861 H3858 0.931 . S
C3861 C3862 1.413 . S
C3861 C3863 1.360 . S
C3862 C3861 1.413 . S
C3862 C3866 1.429 . S
C3863 C3861 1.360 . S
C3863 C3864 1.372 . S
C3864 H3859 0.928 . S
C3864 C3863 1.372 . S
C3864 C3865 1.404 . S
C3865 C3864 1.404 . S
C3865 C3866 1.391 . S
C3866 H3860 0.930 . S
C3866 C3862 1.429 . S
C3866 C3865 1.391 . S
H3867 C3870 0.931 . S
H3868 C3873 0.928 . S
H3869 C3875 0.930 . S
C3870 H3867 0.931 . S
C3870 C3871 1.413 . S
C3870 C3872 1.360 . S
C3871 C3870 1.413 . S
C3871 C3875 1.429 . S
C3872 C3870 1.360 . S
C3872 C3873 1.372 . S
C3873 H3868 0.928 . S
C3873 C3872 1.372 . S
C3873 C3874 1.404 . S
C3874 C3873 1.404 . S
C3874 C3875 1.391 . S
C3875 H3869 0.930 . S
C3875 C3871 1.429 . S
C3875 C3874 1.391 . S
H3876 C3879 0.931 . S
H3877 C3882 0.928 . S
H3878 C3884 0.930 . S
C3879 H3876 0.931 . S
C3879 C3880 1.413 . S
C3879 C3881 1.360 . S
C3880 C3879 1.413 . S
C3880 C3884 1.429 . S
C3881 C3879 1.360 . S
C3881 C3882 1.372 . S
C3882 H3877 0.928 . S
C3882 C3881 1.372 . S
C3882 C3883 1.404 . S
C3883 C3882 1.404 . S
C3883 C3884 1.391 . S
C3884 H3878 0.930 . S
C3884 C3880 1.429 . S
C3884 C3883 1.391 . S
H3885 C3888 0.931 . S
H3886 C3891 0.928 . S
H3887 C3893 0.930 . S
C3888 H3885 0.931 . S
C3888 C3889 1.413 . S
C3888 C3890 1.360 . S
C3889 C3888 1.413 . S
C3889 C3893 1.429 . S
C3890 C3888 1.360 . S
C3890 C3891 1.372 . S
C3891 H3886 0.928 . S
C3891 C3890 1.372 . S
C3891 C3892 1.404 . S
C3892 C3891 1.404 . S
C3892 C3893 1.391 . S
C3893 H3887 0.930 . S
C3893 C3889 1.429 . S
C3893 C3892 1.391 . S
H3894 C3897 0.931 . S
H3895 C3900 0.928 . S
H3896 C3902 0.930 . S
C3897 H3894 0.931 . S
C3897 C3898 1.413 . S
C3897 C3899 1.360 . S
C3898 C3897 1.413 . S
C3898 C3902 1.429 . S
C3899 C3897 1.360 . S
C3899 C3900 1.372 . S
C3900 H3895 0.928 . S
C3900 C3899 1.372 . S
C3900 C3901 1.404 . S
C3901 C3900 1.404 . S
C3901 C3902 1.391 . S
C3902 H3896 0.930 . S
C3902 C3898 1.429 . S
C3902 C3901 1.391 . S
H3903 C3906 0.931 . S
H3904 C3909 0.928 . S
H3905 C3911 0.930 . S
C3906 H3903 0.931 . S
C3906 C3907 1.413 . S
C3906 C3908 1.360 . S
C3907 C3906 1.413 . S
C3907 C3911 1.429 . S
C3908 C3906 1.360 . S
C3908 C3909 1.372 . S
C3909 H3904 0.928 . S
C3909 C3908 1.372 . S
C3909 C3910 1.404 . S
C3910 C3909 1.404 . S
C3910 C3911 1.391 . S
C3911 H3905 0.930 . S
C3911 C3907 1.429 . S
C3911 C3910 1.391 . S
H3912 C3915 0.931 . S
H3913 C3918 0.928 . S
H3914 C3920 0.930 . S
C3915 H3912 0.931 . S
C3915 C3916 1.413 . S
C3915 C3917 1.360 . S
C3916 C3915 1.413 . S
C3916 C3920 1.429 . S
C3917 C3915 1.360 . S
C3917 C3918 1.372 . S
C3918 H3913 0.928 . S
C3918 C3917 1.372 . S
C3918 C3919 1.404 . S
C3919 C3918 1.404 . S
C3919 C3920 1.391 . S
C3920 H3914 0.930 . S
C3920 C3916 1.429 . S
C3920 C3919 1.391 . S
H3921 C3924 0.931 . S
H3922 C3927 0.928 . S
H3923 C3929 0.930 . S
C3924 H3921 0.931 . S
C3924 C3925 1.413 . S
C3924 C3926 1.360 . S
C3925 C3924 1.413 . S
C3925 C3929 1.429 . S
C3926 C3924 1.360 . S
C3926 C3927 1.372 . S
C3927 H3922 0.928 . S
C3927 C3926 1.372 . S
C3927 C3928 1.404 . S
C3928 C3927 1.404 . S
C3928 C3929 1.391 . S
C3929 H3923 0.930 . S
C3929 C3925 1.429 . S
C3929 C3928 1.391 . S
H3930 C3933 0.931 . S
H3931 C3936 0.928 . S
H3932 C3938 0.930 . S
C3933 H3930 0.931 . S
C3933 C3934 1.413 . S
C3933 C3935 1.360 . S
C3934 C3933 1.413 . S
C3934 C3938 1.429 . S
C3935 C3933 1.360 . S
C3935 C3936 1.372 . S
C3936 H3931 0.928 . S
C3936 C3935 1.372 . S
C3936 C3937 1.404 . S
C3937 C3936 1.404 . S
C3937 C3938 1.391 . S
C3938 H3932 0.930 . S
C3938 C3934 1.429 . S
C3938 C3937 1.391 . S
H3939 C3942 0.931 . S
H3940 C3945 0.928 . S
H3941 C3947 0.930 . S
C3942 H3939 0.931 . S
C3942 C3943 1.413 . S
C3942 C3944 1.360 . S
C3943 C3942 1.413 . S
C3943 C3947 1.429 . S
C3944 C3942 1.360 . S
C3944 C3945 1.372 . S
C3945 H3940 0.928 . S
C3945 C3944 1.372 . S
C3945 C3946 1.404 . S
C3946 C3945 1.404 . S
C3946 C3947 1.391 . S
C3947 H3941 0.930 . S
C3947 C3943 1.429 . S
C3947 C3946 1.391 . S
H3948 C3951 0.931 . S
H3949 C3954 0.928 . S
H3950 C3956 0.930 . S
C3951 H3948 0.931 . S
C3951 C3952 1.413 . S
C3951 C3953 1.360 . S
C3952 C3951 1.413 . S
C3952 C3956 1.429 . S
C3953 C3951 1.360 . S
C3953 C3954 1.372 . S
C3954 H3949 0.928 . S
C3954 C3953 1.372 . S
C3954 C3955 1.404 . S
C3955 C3954 1.404 . S
C3955 C3956 1.391 . S
C3956 H3950 0.930 . S
C3956 C3952 1.429 . S
C3956 C3955 1.391 . S
H3957 C3960 0.931 . S
H3958 C3963 0.928 . S
H3959 C3965 0.930 . S
C3960 H3957 0.931 . S
C3960 C3961 1.413 . S
C3960 C3962 1.360 . S
C3961 C3960 1.413 . S
C3961 C3965 1.429 . S
C3962 C3960 1.360 . S
C3962 C3963 1.372 . S
C3963 H3958 0.928 . S
C3963 C3962 1.372 . S
C3963 C3964 1.404 . S
C3964 C3963 1.404 . S
C3964 C3965 1.391 . S
C3965 H3959 0.930 . S
C3965 C3961 1.429 . S
C3965 C3964 1.391 . S
H3966 C3969 0.931 . S
H3967 C3972 0.928 . S
H3968 C3974 0.930 . S
C3969 H3966 0.931 . S
C3969 C3970 1.413 . S
C3969 C3971 1.360 . S
C3970 C3969 1.413 . S
C3970 C3974 1.429 . S
C3971 C3969 1.360 . S
C3971 C3972 1.372 . S
C3972 H3967 0.928 . S
C3972 C3971 1.372 . S
C3972 C3973 1.404 . S
C3973 C3972 1.404 . S
C3973 C3974 1.391 . S
C3974 H3968 0.930 . S
C3974 C3970 1.429 . S
C3974 C3973 1.391 . S
H3975 C3978 0.931 . S
H3976 C3981 0.928 . S
H3977 C3983 0.930 . S
C3978 H3975 0.931 . S
C3978 C3979 1.413 . S
C3978 C3980 1.360 . S
C3979 C3978 1.413 . S
C3979 C3983 1.429 . S
C3980 C3978 1.360 . S
C3980 C3981 1.372 . S
C3981 H3976 0.928 . S
C3981 C3980 1.372 . S
C3981 C3982 1.404 . S
C3982 C3981 1.404 . S
C3982 C3983 1.391 . S
C3983 H3977 0.930 . S
C3983 C3979 1.429 . S
C3983 C3982 1.391 . S
H3984 C3987 0.931 . S
H3985 C3990 0.928 . S
H3986 C3992 0.930 . S
C3987 H3984 0.931 . S
C3987 C3988 1.413 . S
C3987 C3989 1.360 . S
C3988 C3987 1.413 . S
C3988 C3992 1.429 . S
C3989 C3987 1.360 . S
C3989 C3990 1.372 . S
C3990 H3985 0.928 . S
C3990 C3989 1.372 . S
C3990 C3991 1.404 . S
C3991 C3990 1.404 . S
C3991 C3992 1.391 . S
C3992 H3986 0.930 . S
C3992 C3988 1.429 . S
C3992 C3991 1.391 . S
H3993 C3996 0.931 . S
H3994 C3999 0.928 . S
H3995 C4001 0.930 . S
C3996 H3993 0.931 . S
C3996 C3997 1.413 . S
C3996 C3998 1.360 . S
C3997 C3996 1.413 . S
C3997 C4001 1.429 . S
C3998 C3996 1.360 . S
C3998 C3999 1.372 . S
C3999 H3994 0.928 . S
C3999 C3998 1.372 . S
C3999 C4000 1.404 . S
C4000 C3999 1.404 . S
C4000 C4001 1.391 . S
C4001 H3995 0.930 . S
C4001 C3997 1.429 . S
C4001 C4000 1.391 . S
H4002 C4005 0.931 . S
H4003 C4008 0.928 . S
H4004 C4010 0.930 . S
C4005 H4002 0.931 . S
C4005 C4006 1.413 . S
C4005 C4007 1.360 . S
C4006 C4005 1.413 . S
C4006 C4010 1.429 . S
C4007 C4005 1.360 . S
C4007 C4008 1.372 . S
C4008 H4003 0.928 . S
C4008 C4007 1.372 . S
C4008 C4009 1.404 . S
C4009 C4008 1.404 . S
C4009 C4010 1.391 . S
C4010 H4004 0.930 . S
C4010 C4006 1.429 . S
C4010 C4009 1.391 . S
H4011 C4014 0.931 . S
H4012 C4017 0.928 . S
H4013 C4019 0.930 . S
C4014 H4011 0.931 . S
C4014 C4015 1.413 . S
C4014 C4016 1.360 . S
C4015 C4014 1.413 . S
C4015 C4019 1.429 . S
C4016 C4014 1.360 . S
C4016 C4017 1.372 . S
C4017 H4012 0.928 . S
C4017 C4016 1.372 . S
C4017 C4018 1.404 . S
C4018 C4017 1.404 . S
C4018 C4019 1.391 . S
C4019 H4013 0.930 . S
C4019 C4015 1.429 . S
C4019 C4018 1.391 . S
H4020 C4023 0.931 . S
H4021 C4026 0.928 . S
H4022 C4028 0.930 . S
C4023 H4020 0.931 . S
C4023 C4024 1.413 . S
C4023 C4025 1.360 . S
C4024 C4023 1.413 . S
C4024 C4028 1.429 . S
C4025 C4023 1.360 . S
C4025 C4026 1.372 . S
C4026 H4021 0.928 . S
C4026 C4025 1.372 . S
C4026 C4027 1.404 . S
C4027 C4026 1.404 . S
C4027 C4028 1.391 . S
C4028 H4022 0.930 . S
C4028 C4024 1.429 . S
C4028 C4027 1.391 . S
H4029 C4032 0.931 . S
H4030 C4035 0.928 . S
H4031 C4037 0.930 . S
C4032 H4029 0.931 . S
C4032 C4033 1.413 . S
C4032 C4034 1.360 . S
C4033 C4032 1.413 . S
C4033 C4037 1.429 . S
C4034 C4032 1.360 . S
C4034 C4035 1.372 . S
C4035 H4030 0.928 . S
C4035 C4034 1.372 . S
C4035 C4036 1.404 . S
C4036 C4035 1.404 . S
C4036 C4037 1.391 . S
C4037 H4031 0.930 . S
C4037 C4033 1.429 . S
C4037 C4036 1.391 . S
H4038 C4041 0.931 . S
H4039 C4044 0.928 . S
H4040 C4046 0.930 . S
C4041 H4038 0.931 . S
C4041 C4042 1.413 . S
C4041 C4043 1.360 . S
C4042 C4041 1.413 . S
C4042 C4046 1.429 . S
C4043 C4041 1.360 . S
C4043 C4044 1.372 . S
C4044 H4039 0.928 . S
C4044 C4043 1.372 . S
C4044 C4045 1.404 . S
C4045 C4044 1.404 . S
C4045 C4046 1.391 . S
C4046 H4040 0.930 . S
C4046 C4042 1.429 . S
C4046 C4045 1.391 . S
H4047 C4050 0.931 . S
H4048 C4053 0.928 . S
H4049 C4055 0.930 . S
C4050 H4047 0.931 . S
C4050 C4051 1.413 . S
C4050 C4052 1.360 . S
C4051 C4050 1.413 . S
C4051 C4055 1.429 . S
C4052 C4050 1.360 . S
C4052 C4053 1.372 . S
C4053 H4048 0.928 . S
C4053 C4052 1.372 . S
C4053 C4054 1.404 . S
C4054 C4053 1.404 . S
C4054 C4055 1.391 . S
C4055 H4049 0.930 . S
C4055 C4051 1.429 . S
C4055 C4054 1.391 . S
H4056 C4059 0.931 . S
H4057 C4062 0.928 . S
H4058 C4064 0.930 . S
C4059 H4056 0.931 . S
C4059 C4060 1.413 . S
C4059 C4061 1.360 . S
C4060 C4059 1.413 . S
C4060 C4064 1.429 . S
C4061 C4059 1.360 . S
C4061 C4062 1.372 . S
C4062 H4057 0.928 . S
C4062 C4061 1.372 . S
C4062 C4063 1.404 . S
C4063 C4062 1.404 . S
C4063 C4064 1.391 . S
C4064 H4058 0.930 . S
C4064 C4060 1.429 . S
C4064 C4063 1.391 . S
H4065 C4068 0.931 . S
H4066 C4071 0.928 . S
H4067 C4073 0.930 . S
C4068 H4065 0.931 . S
C4068 C4069 1.413 . S
C4068 C4070 1.360 . S
C4069 C4068 1.413 . S
C4069 C4073 1.429 . S
C4070 C4068 1.360 . S
C4070 C4071 1.372 . S
C4071 H4066 0.928 . S
C4071 C4070 1.372 . S
C4071 C4072 1.404 . S
C4072 C4071 1.404 . S
C4072 C4073 1.391 . S
C4073 H4067 0.930 . S
C4073 C4069 1.429 . S
C4073 C4072 1.391 . S
H4074 C4077 0.931 . S
H4075 C4080 0.928 . S
H4076 C4082 0.930 . S
C4077 H4074 0.931 . S
C4077 C4078 1.413 . S
C4077 C4079 1.360 . S
C4078 C4077 1.413 . S
C4078 C4082 1.429 . S
C4079 C4077 1.360 . S
C4079 C4080 1.372 . S
C4080 H4075 0.928 . S
C4080 C4079 1.372 . S
C4080 C4081 1.404 . S
C4081 C4080 1.404 . S
C4081 C4082 1.391 . S
C4082 H4076 0.930 . S
C4082 C4078 1.429 . S
C4082 C4081 1.391 . S
H4083 C4086 0.931 . S
H4084 C4089 0.928 . S
H4085 C4091 0.930 . S
C4086 H4083 0.931 . S
C4086 C4087 1.413 . S
C4086 C4088 1.360 . S
C4087 C4086 1.413 . S
C4087 C4091 1.429 . S
C4088 C4086 1.360 . S
C4088 C4089 1.372 . S
C4089 H4084 0.928 . S
C4089 C4088 1.372 . S
C4089 C4090 1.404 . S
C4090 C4089 1.404 . S
C4090 C4091 1.391 . S
C4091 H4085 0.930 . S
C4091 C4087 1.429 . S
C4091 C4090 1.391 . S
H4092 C4095 0.931 . S
H4093 C4098 0.928 . S
H4094 C4100 0.930 . S
C4095 H4092 0.931 . S
C4095 C4096 1.413 . S
C4095 C4097 1.360 . S
C4096 C4095 1.413 . S
C4096 C4100 1.429 . S
C4097 C4095 1.360 . S
C4097 C4098 1.372 . S
C4098 H4093 0.928 . S
C4098 C4097 1.372 . S
C4098 C4099 1.404 . S
C4099 C4098 1.404 . S
C4099 C4100 1.391 . S
C4100 H4094 0.930 . S
C4100 C4096 1.429 . S
C4100 C4099 1.391 . S
H4101 C4104 0.931 . S
H4102 C4107 0.928 . S
H4103 C4109 0.930 . S
C4104 H4101 0.931 . S
C4104 C4105 1.413 . S
C4104 C4106 1.360 . S
C4105 C4104 1.413 . S
C4105 C4109 1.429 . S
C4106 C4104 1.360 . S
C4106 C4107 1.372 . S
C4107 H4102 0.928 . S
C4107 C4106 1.372 . S
C4107 C4108 1.404 . S
C4108 C4107 1.404 . S
C4108 C4109 1.391 . S
C4109 H4103 0.930 . S
C4109 C4105 1.429 . S
C4109 C4108 1.391 . S
H4110 C4113 0.931 . S
H4111 C4116 0.928 . S
H4112 C4118 0.930 . S
C4113 H4110 0.931 . S
C4113 C4114 1.413 . S
C4113 C4115 1.360 . S
C4114 C4113 1.413 . S
C4114 C4118 1.429 . S
C4115 C4113 1.360 . S
C4115 C4116 1.372 . S
C4116 H4111 0.928 . S
C4116 C4115 1.372 . S
C4116 C4117 1.404 . S
C4117 C4116 1.404 . S
C4117 C4118 1.391 . S
C4118 H4112 0.930 . S
C4118 C4114 1.429 . S
C4118 C4117 1.391 . S
H4119 C4122 0.931 . S
H4120 C4125 0.928 . S
H4121 C4127 0.930 . S
C4122 H4119 0.931 . S
C4122 C4123 1.413 . S
C4122 C4124 1.360 . S
C4123 C4122 1.413 . S
C4123 C4127 1.429 . S
C4124 C4122 1.360 . S
C4124 C4125 1.372 . S
C4125 H4120 0.928 . S
C4125 C4124 1.372 . S
C4125 C4126 1.404 . S
C4126 C4125 1.404 . S
C4126 C4127 1.391 . S
C4127 H4121 0.930 . S
C4127 C4123 1.429 . S
C4127 C4126 1.391 . S
H4128 C4131 0.931 . S
H4129 C4134 0.928 . S
H4130 C4136 0.930 . S
C4131 H4128 0.931 . S
C4131 C4132 1.413 . S
C4131 C4133 1.360 . S
C4132 C4131 1.413 . S
C4132 C4136 1.429 . S
C4133 C4131 1.360 . S
C4133 C4134 1.372 . S
C4134 H4129 0.928 . S
C4134 C4133 1.372 . S
C4134 C4135 1.404 . S
C4135 C4134 1.404 . S
C4135 C4136 1.391 . S
C4136 H4130 0.930 . S
C4136 C4132 1.429 . S
C4136 C4135 1.391 . S
H4137 C4140 0.931 . S
H4138 C4143 0.928 . S
H4139 C4145 0.930 . S
C4140 H4137 0.931 . S
C4140 C4141 1.413 . S
C4140 C4142 1.360 . S
C4141 C4140 1.413 . S
C4141 C4145 1.429 . S
C4142 C4140 1.360 . S
C4142 C4143 1.372 . S
C4143 H4138 0.928 . S
C4143 C4142 1.372 . S
C4143 C4144 1.404 . S
C4144 C4143 1.404 . S
C4144 C4145 1.391 . S
C4145 H4139 0.930 . S
C4145 C4141 1.429 . S
C4145 C4144 1.391 . S
H4146 C4149 0.931 . S
H4147 C4152 0.928 . S
H4148 C4154 0.930 . S
C4149 H4146 0.931 . S
C4149 C4150 1.413 . S
C4149 C4151 1.360 . S
C4150 C4149 1.413 . S
C4150 C4154 1.429 . S
C4151 C4149 1.360 . S
C4151 C4152 1.372 . S
C4152 H4147 0.928 . S
C4152 C4151 1.372 . S
C4152 C4153 1.404 . S
C4153 C4152 1.404 . S
C4153 C4154 1.391 . S
C4154 H4148 0.930 . S
C4154 C4150 1.429 . S
C4154 C4153 1.391 . S
H4155 C4158 0.931 . S
H4156 C4161 0.928 . S
H4157 C4163 0.930 . S
C4158 H4155 0.931 . S
C4158 C4159 1.413 . S
C4158 C4160 1.360 . S
C4159 C4158 1.413 . S
C4159 C4163 1.429 . S
C4160 C4158 1.360 . S
C4160 C4161 1.372 . S
C4161 H4156 0.928 . S
C4161 C4160 1.372 . S
C4161 C4162 1.404 . S
C4162 C4161 1.404 . S
C4162 C4163 1.391 . S
C4163 H4157 0.930 . S
C4163 C4159 1.429 . S
C4163 C4162 1.391 . S
H4164 C4167 0.931 . S
H4165 C4170 0.928 . S
H4166 C4172 0.930 . S
C4167 H4164 0.931 . S
C4167 C4168 1.413 . S
C4167 C4169 1.360 . S
C4168 C4167 1.413 . S
C4168 C4172 1.429 . S
C4169 C4167 1.360 . S
C4169 C4170 1.372 . S
C4170 H4165 0.928 . S
C4170 C4169 1.372 . S
C4170 C4171 1.404 . S
C4171 C4170 1.404 . S
C4171 C4172 1.391 . S
C4172 H4166 0.930 . S
C4172 C4168 1.429 . S
C4172 C4171 1.391 . S
H4173 C4176 0.931 . S
H4174 C4179 0.928 . S
H4175 C4181 0.930 . S
C4176 H4173 0.931 . S
C4176 C4177 1.413 . S
C4176 C4178 1.360 . S
C4177 C4176 1.413 . S
C4177 C4181 1.429 . S
C4178 C4176 1.360 . S
C4178 C4179 1.372 . S
C4179 H4174 0.928 . S
C4179 C4178 1.372 . S
C4179 C4180 1.404 . S
C4180 C4179 1.404 . S
C4180 C4181 1.391 . S
C4181 H4175 0.930 . S
C4181 C4177 1.429 . S
C4181 C4180 1.391 . S
H4182 C4185 0.931 . S
H4183 C4188 0.928 . S
H4184 C4190 0.930 . S
C4185 H4182 0.931 . S
C4185 C4186 1.413 . S
C4185 C4187 1.360 . S
C4186 C4185 1.413 . S
C4186 C4190 1.429 . S
C4187 C4185 1.360 . S
C4187 C4188 1.372 . S
C4188 H4183 0.928 . S
C4188 C4187 1.372 . S
C4188 C4189 1.404 . S
C4189 C4188 1.404 . S
C4189 C4190 1.391 . S
C4190 H4184 0.930 . S
C4190 C4186 1.429 . S
C4190 C4189 1.391 . S
H4191 C4194 0.931 . S
H4192 C4197 0.928 . S
H4193 C4199 0.930 . S
C4194 H4191 0.931 . S
C4194 C4195 1.413 . S
C4194 C4196 1.360 . S
C4195 C4194 1.413 . S
C4195 C4199 1.429 . S
C4196 C4194 1.360 . S
C4196 C4197 1.372 . S
C4197 H4192 0.928 . S
C4197 C4196 1.372 . S
C4197 C4198 1.404 . S
C4198 C4197 1.404 . S
C4198 C4199 1.391 . S
C4199 H4193 0.930 . S
C4199 C4195 1.429 . S
C4199 C4198 1.391 . S
H4200 C4203 0.931 . S
H4201 C4206 0.928 . S
H4202 C4208 0.930 . S
C4203 H4200 0.931 . S
C4203 C4204 1.413 . S
C4203 C4205 1.360 . S
C4204 C4203 1.413 . S
C4204 C4208 1.429 . S
C4205 C4203 1.360 . S
C4205 C4206 1.372 . S
C4206 H4201 0.928 . S
C4206 C4205 1.372 . S
C4206 C4207 1.404 . S
C4207 C4206 1.404 . S
C4207 C4208 1.391 . S
C4208 H4202 0.930 . S
C4208 C4204 1.429 . S
C4208 C4207 1.391 . S
H4209 C4212 0.931 . S
H4210 C4215 0.928 . S
H4211 C4217 0.930 . S
C4212 H4209 0.931 . S
C4212 C4213 1.413 . S
C4212 C4214 1.360 . S
C4213 C4212 1.413 . S
C4213 C4217 1.429 . S
C4214 C4212 1.360 . S
C4214 C4215 1.372 . S
C4215 H4210 0.928 . S
C4215 C4214 1.372 . S
C4215 C4216 1.404 . S
C4216 C4215 1.404 . S
C4216 C4217 1.391 . S
C4217 H4211 0.930 . S
C4217 C4213 1.429 . S
C4217 C4216 1.391 . S
H4218 C4221 0.931 . S
H4219 C4224 0.928 . S
H4220 C4226 0.930 . S
C4221 H4218 0.931 . S
C4221 C4222 1.413 . S
C4221 C4223 1.360 . S
C4222 C4221 1.413 . S
C4222 C4226 1.429 . S
C4223 C4221 1.360 . S
C4223 C4224 1.372 . S
C4224 H4219 0.928 . S
C4224 C4223 1.372 . S
C4224 C4225 1.404 . S
C4225 C4224 1.404 . S
C4225 C4226 1.391 . S
C4226 H4220 0.930 . S
C4226 C4222 1.429 . S
C4226 C4225 1.391 . S
H4227 C4230 0.931 . S
H4228 C4233 0.928 . S
H4229 C4235 0.930 . S
C4230 H4227 0.931 . S
C4230 C4231 1.413 . S
C4230 C4232 1.360 . S
C4231 C4230 1.413 . S
C4231 C4235 1.429 . S
C4232 C4230 1.360 . S
C4232 C4233 1.372 . S
C4233 H4228 0.928 . S
C4233 C4232 1.372 . S
C4233 C4234 1.404 . S
C4234 C4233 1.404 . S
C4234 C4235 1.391 . S
C4235 H4229 0.930 . S
C4235 C4231 1.429 . S
C4235 C4234 1.391 . S
H4236 C4239 0.931 . S
H4237 C4242 0.928 . S
H4238 C4244 0.930 . S
C4239 H4236 0.931 . S
C4239 C4240 1.413 . S
C4239 C4241 1.360 . S
C4240 C4239 1.413 . S
C4240 C4244 1.429 . S
C4241 C4239 1.360 . S
C4241 C4242 1.372 . S
C4242 H4237 0.928 . S
C4242 C4241 1.372 . S
C4242 C4243 1.404 . S
C4243 C4242 1.404 . S
C4243 C4244 1.391 . S
C4244 H4238 0.930 . S
C4244 C4240 1.429 . S
C4244 C4243 1.391 . S
H4245 C4248 0.931 . S
H4246 C4251 0.928 . S
H4247 C4253 0.930 . S
C4248 H4245 0.931 . S
C4248 C4249 1.413 . S
C4248 C4250 1.360 . S
C4249 C4248 1.413 . S
C4249 C4253 1.429 . S
C4250 C4248 1.360 . S
C4250 C4251 1.372 . S
C4251 H4246 0.928 . S
C4251 C4250 1.372 . S
C4251 C4252 1.404 . S
C4252 C4251 1.404 . S
C4252 C4253 1.391 . S
C4253 H4247 0.930 . S
C4253 C4249 1.429 . S
C4253 C4252 1.391 . S
H4254 C4257 0.931 . S
H4255 C4260 0.928 . S
H4256 C4262 0.930 . S
C4257 H4254 0.931 . S
C4257 C4258 1.413 . S
C4257 C4259 1.360 . S
C4258 C4257 1.413 . S
C4258 C4262 1.429 . S
C4259 C4257 1.360 . S
C4259 C4260 1.372 . S
C4260 H4255 0.928 . S
C4260 C4259 1.372 . S
C4260 C4261 1.404 . S
C4261 C4260 1.404 . S
C4261 C4262 1.391 . S
C4262 H4256 0.930 . S
C4262 C4258 1.429 . S
C4262 C4261 1.391 . S
H4263 C4266 0.931 . S
H4264 C4269 0.928 . S
H4265 C4271 0.930 . S
C4266 H4263 0.931 . S
C4266 C4267 1.413 . S
C4266 C4268 1.360 . S
C4267 C4266 1.413 . S
C4267 C4271 1.429 . S
C4268 C4266 1.360 . S
C4268 C4269 1.372 . S
C4269 H4264 0.928 . S
C4269 C4268 1.372 . S
C4269 C4270 1.404 . S
C4270 C4269 1.404 . S
C4270 C4271 1.391 . S
C4271 H4265 0.930 . S
C4271 C4267 1.429 . S
C4271 C4270 1.391 . S
H4272 C4275 0.931 . S
H4273 C4278 0.928 . S
H4274 C4280 0.930 . S
C4275 H4272 0.931 . S
C4275 C4276 1.413 . S
C4275 C4277 1.360 . S
C4276 C4275 1.413 . S
C4276 C4280 1.429 . S
C4277 C4275 1.360 . S
C4277 C4278 1.372 . S
C4278 H4273 0.928 . S
C4278 C4277 1.372 . S
C4278 C4279 1.404 . S
C4279 C4278 1.404 . S
C4279 C4280 1.391 . S
C4280 H4274 0.930 . S
C4280 C4276 1.429 . S
C4280 C4279 1.391 . S
H4281 C4284 0.931 . S
H4282 C4287 0.928 . S
H4283 C4289 0.930 . S
C4284 H4281 0.931 . S
C4284 C4285 1.413 . S
C4284 C4286 1.360 . S
C4285 C4284 1.413 . S
C4285 C4289 1.429 . S
C4286 C4284 1.360 . S
C4286 C4287 1.372 . S
C4287 H4282 0.928 . S
C4287 C4286 1.372 . S
C4287 C4288 1.404 . S
C4288 C4287 1.404 . S
C4288 C4289 1.391 . S
C4289 H4283 0.930 . S
C4289 C4285 1.429 . S
C4289 C4288 1.391 . S
H4290 C4293 0.931 . S
H4291 C4296 0.928 . S
H4292 C4298 0.930 . S
C4293 H4290 0.931 . S
C4293 C4294 1.413 . S
C4293 C4295 1.360 . S
C4294 C4293 1.413 . S
C4294 C4298 1.429 . S
C4295 C4293 1.360 . S
C4295 C4296 1.372 . S
C4296 H4291 0.928 . S
C4296 C4295 1.372 . S
C4296 C4297 1.404 . S
C4297 C4296 1.404 . S
C4297 C4298 1.391 . S
C4298 H4292 0.930 . S
C4298 C4294 1.429 . S
C4298 C4297 1.391 . S
H4299 C4302 0.931 . S
H4300 C4305 0.928 . S
H4301 C4307 0.930 . S
C4302 H4299 0.931 . S
C4302 C4303 1.413 . S
C4302 C4304 1.360 . S
C4303 C4302 1.413 . S
C4303 C4307 1.429 . S
C4304 C4302 1.360 . S
C4304 C4305 1.372 . S
C4305 H4300 0.928 . S
C4305 C4304 1.372 . S
C4305 C4306 1.404 . S
C4306 C4305 1.404 . S
C4306 C4307 1.391 . S
C4307 H4301 0.930 . S
C4307 C4303 1.429 . S
C4307 C4306 1.391 . S
H4308 C4311 0.931 . S
H4309 C4314 0.928 . S
H4310 C4316 0.930 . S
C4311 H4308 0.931 . S
C4311 C4312 1.413 . S
C4311 C4313 1.360 . S
C4312 C4311 1.413 . S
C4312 C4316 1.429 . S
C4313 C4311 1.360 . S
C4313 C4314 1.372 . S
C4314 H4309 0.928 . S
C4314 C4313 1.372 . S
C4314 C4315 1.404 . S
C4315 C4314 1.404 . S
C4315 C4316 1.391 . S
C4316 H4310 0.930 . S
C4316 C4312 1.429 . S
C4316 C4315 1.391 . S
H4317 C4320 0.931 . S
H4318 C4323 0.928 . S
H4319 C4325 0.930 . S
C4320 H4317 0.931 . S
C4320 C4321 1.413 . S
C4320 C4322 1.360 . S
C4321 C4320 1.413 . S
C4321 C4325 1.429 . S
C4322 C4320 1.360 . S
C4322 C4323 1.372 . S
C4323 H4318 0.928 . S
C4323 C4322 1.372 . S
C4323 C4324 1.404 . S
C4324 C4323 1.404 . S
C4324 C4325 1.391 . S
C4325 H4319 0.930 . S
C4325 C4321 1.429 . S
C4325 C4324 1.391 . S
H4326 C4329 0.931 . S
H4327 C4332 0.928 . S
H4328 C4334 0.930 . S
C4329 H4326 0.931 . S
C4329 C4330 1.413 . S
C4329 C4331 1.360 . S
C4330 C4329 1.413 . S
C4330 C4334 1.429 . S
C4331 C4329 1.360 . S
C4331 C4332 1.372 . S
C4332 H4327 0.928 . S
C4332 C4331 1.372 . S
C4332 C4333 1.404 . S
C4333 C4332 1.404 . S
C4333 C4334 1.391 . S
C4334 H4328 0.930 . S
C4334 C4330 1.429 . S
C4334 C4333 1.391 . S
H4335 C4338 0.931 . S
H4336 C4341 0.928 . S
H4337 C4343 0.930 . S
C4338 H4335 0.931 . S
C4338 C4339 1.413 . S
C4338 C4340 1.360 . S
C4339 C4338 1.413 . S
C4339 C4343 1.429 . S
C4340 C4338 1.360 . S
C4340 C4341 1.372 . S
C4341 H4336 0.928 . S
C4341 C4340 1.372 . S
C4341 C4342 1.404 . S
C4342 C4341 1.404 . S
C4342 C4343 1.391 . S
C4343 H4337 0.930 . S
C4343 C4339 1.429 . S
C4343 C4342 1.391 . S
H4344 C4347 0.931 . S
H4345 C4350 0.928 . S
H4346 C4352 0.930 . S
C4347 H4344 0.931 . S
C4347 C4348 1.413 . S
C4347 C4349 1.360 . S
C4348 C4347 1.413 . S
C4348 C4352 1.429 . S
C4349 C4347 1.360 . S
C4349 C4350 1.372 . S
C4350 H4345 0.928 . S
C4350 C4349 1.372 . S
C4350 C4351 1.404 . S
C4351 C4350 1.404 . S
C4351 C4352 1.391 . S
C4352 H4346 0.930 . S
C4352 C4348 1.429 . S
C4352 C4351 1.391 . S
H4353 C4356 0.931 . S
H4354 C4359 0.928 . S
H4355 C4361 0.930 . S
C4356 H4353 0.931 . S
C4356 C4357 1.413 . S
C4356 C4358 1.360 . S
C4357 C4356 1.413 . S
C4357 C4361 1.429 . S
C4358 C4356 1.360 . S
C4358 C4359 1.372 . S
C4359 H4354 0.928 . S
C4359 C4358 1.372 . S
C4359 C4360 1.404 . S
C4360 C4359 1.404 . S
C4360 C4361 1.391 . S
C4361 H4355 0.930 . S
C4361 C4357 1.429 . S
C4361 C4360 1.391 . S
H4362 C4365 0.931 . S
H4363 C4368 0.928 . S
H4364 C4370 0.930 . S
C4365 H4362 0.931 . S
C4365 C4366 1.413 . S
C4365 C4367 1.360 . S
C4366 C4365 1.413 . S
C4366 C4370 1.429 . S
C4367 C4365 1.360 . S
C4367 C4368 1.372 . S
C4368 H4363 0.928 . S
C4368 C4367 1.372 . S
C4368 C4369 1.404 . S
C4369 C4368 1.404 . S
C4369 C4370 1.391 . S
C4370 H4364 0.930 . S
C4370 C4366 1.429 . S
C4370 C4369 1.391 . S
H4371 C4374 0.931 . S
H4372 C4377 0.928 . S
H4373 C4379 0.930 . S
C4374 H4371 0.931 . S
C4374 C4375 1.413 . S
C4374 C4376 1.360 . S
C4375 C4374 1.413 . S
C4375 C4379 1.429 . S
C4376 C4374 1.360 . S
C4376 C4377 1.372 . S
C4377 H4372 0.928 . S
C4377 C4376 1.372 . S
C4377 C4378 1.404 . S
C4378 C4377 1.404 . S
C4378 C4379 1.391 . S
C4379 H4373 0.930 . S
C4379 C4375 1.429 . S
C4379 C4378 1.391 . S
H4380 C4383 0.931 . S
H4381 C4386 0.928 . S
H4382 C4388 0.930 . S
C4383 H4380 0.931 . S
C4383 C4384 1.413 . S
C4383 C4385 1.360 . S
C4384 C4383 1.413 . S
C4384 C4388 1.429 . S
C4385 C4383 1.360 . S
C4385 C4386 1.372 . S
C4386 H4381 0.928 . S
C4386 C4385 1.372 . S
C4386 C4387 1.404 . S
C4387 C4386 1.404 . S
C4387 C4388 1.391 . S
C4388 H4382 0.930 . S
C4388 C4384 1.429 . S
C4388 C4387 1.391 . S
H4389 C4392 0.931 . S
H4390 C4395 0.928 . S
H4391 C4397 0.930 . S
C4392 H4389 0.931 . S
C4392 C4393 1.413 . S
C4392 C4394 1.360 . S
C4393 C4392 1.413 . S
C4393 C4397 1.429 . S
C4394 C4392 1.360 . S
C4394 C4395 1.372 . S
C4395 H4390 0.928 . S
C4395 C4394 1.372 . S
C4395 C4396 1.404 . S
C4396 C4395 1.404 . S
C4396 C4397 1.391 . S
C4397 H4391 0.930 . S
C4397 C4393 1.429 . S
C4397 C4396 1.391 . S
H4398 C4401 0.931 . S
H4399 C4404 0.928 . S
H4400 C4406 0.930 . S
C4401 H4398 0.931 . S
C4401 C4402 1.413 . S
C4401 C4403 1.360 . S
C4402 C4401 1.413 . S
C4402 C4406 1.429 . S
C4403 C4401 1.360 . S
C4403 C4404 1.372 . S
C4404 H4399 0.928 . S
C4404 C4403 1.372 . S
C4404 C4405 1.404 . S
C4405 C4404 1.404 . S
C4405 C4406 1.391 . S
C4406 H4400 0.930 . S
C4406 C4402 1.429 . S
C4406 C4405 1.391 . S
H4407 C4410 0.931 . S
H4408 C4413 0.928 . S
H4409 C4415 0.930 . S
C4410 H4407 0.931 . S
C4410 C4411 1.413 . S
C4410 C4412 1.360 . S
C4411 C4410 1.413 . S
C4411 C4415 1.429 . S
C4412 C4410 1.360 . S
C4412 C4413 1.372 . S
C4413 H4408 0.928 . S
C4413 C4412 1.372 . S
C4413 C4414 1.404 . S
C4414 C4413 1.404 . S
C4414 C4415 1.391 . S
C4415 H4409 0.930 . S
C4415 C4411 1.429 . S
C4415 C4414 1.391 . S
H4416 C4419 0.931 . S
H4417 C4422 0.928 . S
H4418 C4424 0.930 . S
C4419 H4416 0.931 . S
C4419 C4420 1.413 . S
C4419 C4421 1.360 . S
C4420 C4419 1.413 . S
C4420 C4424 1.429 . S
C4421 C4419 1.360 . S
C4421 C4422 1.372 . S
C4422 H4417 0.928 . S
C4422 C4421 1.372 . S
C4422 C4423 1.404 . S
C4423 C4422 1.404 . S
C4423 C4424 1.391 . S
C4424 H4418 0.930 . S
C4424 C4420 1.429 . S
C4424 C4423 1.391 . S
H4425 C4428 0.931 . S
H4426 C4431 0.928 . S
H4427 C4433 0.930 . S
C4428 H4425 0.931 . S
C4428 C4429 1.413 . S
C4428 C4430 1.360 . S
C4429 C4428 1.413 . S
C4429 C4433 1.429 . S
C4430 C4428 1.360 . S
C4430 C4431 1.372 . S
C4431 H4426 0.928 . S
C4431 C4430 1.372 . S
C4431 C4432 1.404 . S
C4432 C4431 1.404 . S
C4432 C4433 1.391 . S
C4433 H4427 0.930 . S
C4433 C4429 1.429 . S
C4433 C4432 1.391 . S
H4434 C4437 0.931 . S
H4435 C4440 0.928 . S
H4436 C4442 0.930 . S
C4437 H4434 0.931 . S
C4437 C4438 1.413 . S
C4437 C4439 1.360 . S
C4438 C4437 1.413 . S
C4438 C4442 1.429 . S
C4439 C4437 1.360 . S
C4439 C4440 1.372 . S
C4440 H4435 0.928 . S
C4440 C4439 1.372 . S
C4440 C4441 1.404 . S
C4441 C4440 1.404 . S
C4441 C4442 1.391 . S
C4442 H4436 0.930 . S
C4442 C4438 1.429 . S
C4442 C4441 1.391 . S
H4443 C4446 0.931 . S
H4444 C4449 0.928 . S
H4445 C4451 0.930 . S
C4446 H4443 0.931 . S
C4446 C4447 1.413 . S
C4446 C4448 1.360 . S
C4447 C4446 1.413 . S
C4447 C4451 1.429 . S
C4448 C4446 1.360 . S
C4448 C4449 1.372 . S
C4449 H4444 0.928 . S
C4449 C4448 1.372 . S
C4449 C4450 1.404 . S
C4450 C4449 1.404 . S
C4450 C4451 1.391 . S
C4451 H4445 0.930 . S
C4451 C4447 1.429 . S
C4451 C4450 1.391 . S
H4452 C4455 0.931 . S
H4453 C4458 0.928 . S
H4454 C4460 0.930 . S
C4455 H4452 0.931 . S
C4455 C4456 1.413 . S
C4455 C4457 1.360 . S
C4456 C4455 1.413 . S
C4456 C4460 1.429 . S
C4457 C4455 1.360 . S
C4457 C4458 1.372 . S
C4458 H4453 0.928 . S
C4458 C4457 1.372 . S
C4458 C4459 1.404 . S
C4459 C4458 1.404 . S
C4459 C4460 1.391 . S
C4460 H4454 0.930 . S
C4460 C4456 1.429 . S
C4460 C4459 1.391 . S
H4461 C4464 0.931 . S
H4462 C4467 0.928 . S
H4463 C4469 0.930 . S
C4464 H4461 0.931 . S
C4464 C4465 1.413 . S
C4464 C4466 1.360 . S
C4465 C4464 1.413 . S
C4465 C4469 1.429 . S
C4466 C4464 1.360 . S
C4466 C4467 1.372 . S
C4467 H4462 0.928 . S
C4467 C4466 1.372 . S
C4467 C4468 1.404 . S
C4468 C4467 1.404 . S
C4468 C4469 1.391 . S
C4469 H4463 0.930 . S
C4469 C4465 1.429 . S
C4469 C4468 1.391 . S
H4470 C4473 0.931 . S
H4471 C4476 0.928 . S
H4472 C4478 0.930 . S
C4473 H4470 0.931 . S
C4473 C4474 1.413 . S
C4473 C4475 1.360 . S
C4474 C4473 1.413 . S
C4474 C4478 1.429 . S
C4475 C4473 1.360 . S
C4475 C4476 1.372 . S
C4476 H4471 0.928 . S
C4476 C4475 1.372 . S
C4476 C4477 1.404 . S
C4477 C4476 1.404 . S
C4477 C4478 1.391 . S
C4478 H4472 0.930 . S
C4478 C4474 1.429 . S
C4478 C4477 1.391 . S
H4479 C4482 0.931 . S
H4480 C4485 0.928 . S
H4481 C4487 0.930 . S
C4482 H4479 0.931 . S
C4482 C4483 1.413 . S
C4482 C4484 1.360 . S
C4483 C4482 1.413 . S
C4483 C4487 1.429 . S
C4484 C4482 1.360 . S
C4484 C4485 1.372 . S
C4485 H4480 0.928 . S
C4485 C4484 1.372 . S
C4485 C4486 1.404 . S
C4486 C4485 1.404 . S
C4486 C4487 1.391 . S
C4487 H4481 0.930 . S
C4487 C4483 1.429 . S
C4487 C4486 1.391 . S
H4488 C4491 0.931 . S
H4489 C4494 0.928 . S
H4490 C4496 0.930 . S
C4491 H4488 0.931 . S
C4491 C4492 1.413 . S
C4491 C4493 1.360 . S
C4492 C4491 1.413 . S
C4492 C4496 1.429 . S
C4493 C4491 1.360 . S
C4493 C4494 1.372 . S
C4494 H4489 0.928 . S
C4494 C4493 1.372 . S
C4494 C4495 1.404 . S
C4495 C4494 1.404 . S
C4495 C4496 1.391 . S
C4496 H4490 0.930 . S
C4496 C4492 1.429 . S
C4496 C4495 1.391 . S
H4497 C4500 0.931 . S
H4498 C4503 0.928 . S
H4499 C4505 0.930 . S
C4500 H4497 0.931 . S
C4500 C4501 1.413 . S
C4500 C4502 1.360 . S
C4501 C4500 1.413 . S
C4501 C4505 1.429 . S
C4502 C4500 1.360 . S
C4502 C4503 1.372 . S
C4503 H4498 0.928 . S
C4503 C4502 1.372 . S
C4503 C4504 1.404 . S
C4504 C4503 1.404 . S
C4504 C4505 1.391 . S
C4505 H4499 0.930 . S
C4505 C4501 1.429 . S
C4505 C4504 1.391 . S
H4506 C4509 0.931 . S
H4507 C4512 0.928 . S
H4508 C4514 0.930 . S
C4509 H4506 0.931 . S
C4509 C4510 1.413 . S
C4509 C4511 1.360 . S
C4510 C4509 1.413 . S
C4510 C4514 1.429 . S
C4511 C4509 1.360 . S
C4511 C4512 1.372 . S
C4512 H4507 0.928 . S
C4512 C4511 1.372 . S
C4512 C4513 1.404 . S
C4513 C4512 1.404 . S
C4513 C4514 1.391 . S
C4514 H4508 0.930 . S
C4514 C4510 1.429 . S
C4514 C4513 1.391 . S
H4515 C4518 0.931 . S
H4516 C4521 0.928 . S
H4517 C4523 0.930 . S
C4518 H4515 0.931 . S
C4518 C4519 1.413 . S
C4518 C4520 1.360 . S
C4519 C4518 1.413 . S
C4519 C4523 1.429 . S
C4520 C4518 1.360 . S
C4520 C4521 1.372 . S
C4521 H4516 0.928 . S
C4521 C4520 1.372 . S
C4521 C4522 1.404 . S
C4522 C4521 1.404 . S
C4522 C4523 1.391 . S
C4523 H4517 0.930 . S
C4523 C4519 1.429 . S
C4523 C4522 1.391 . S
H4524 C4527 0.931 . S
H4525 C4530 0.928 . S
H4526 C4532 0.930 . S
C4527 H4524 0.931 . S
C4527 C4528 1.413 . S
C4527 C4529 1.360 . S
C4528 C4527 1.413 . S
C4528 C4532 1.429 . S
C4529 C4527 1.360 . S
C4529 C4530 1.372 . S
C4530 H4525 0.928 . S
C4530 C4529 1.372 . S
C4530 C4531 1.404 . S
C4531 C4530 1.404 . S
C4531 C4532 1.391 . S
C4532 H4526 0.930 . S
C4532 C4528 1.429 . S
C4532 C4531 1.391 . S
H4533 C4536 0.931 . S
H4534 C4539 0.928 . S
H4535 C4541 0.930 . S
C4536 H4533 0.931 . S
C4536 C4537 1.413 . S
C4536 C4538 1.360 . S
C4537 C4536 1.413 . S
C4537 C4541 1.429 . S
C4538 C4536 1.360 . S
C4538 C4539 1.372 . S
C4539 H4534 0.928 . S
C4539 C4538 1.372 . S
C4539 C4540 1.404 . S
C4540 C4539 1.404 . S
C4540 C4541 1.391 . S
C4541 H4535 0.930 . S
C4541 C4537 1.429 . S
C4541 C4540 1.391 . S
H4542 C4545 0.931 . S
H4543 C4548 0.928 . S
H4544 C4550 0.930 . S
C4545 H4542 0.931 . S
C4545 C4546 1.413 . S
C4545 C4547 1.360 . S
C4546 C4545 1.413 . S
C4546 C4550 1.429 . S
C4547 C4545 1.360 . S
C4547 C4548 1.372 . S
C4548 H4543 0.928 . S
C4548 C4547 1.372 . S
C4548 C4549 1.404 . S
C4549 C4548 1.404 . S
C4549 C4550 1.391 . S
C4550 H4544 0.930 . S
C4550 C4546 1.429 . S
C4550 C4549 1.391 . S
H4551 C4554 0.931 . S
H4552 C4557 0.928 . S
H4553 C4559 0.930 . S
C4554 H4551 0.931 . S
C4554 C4555 1.413 . S
C4554 C4556 1.360 . S
C4555 C4554 1.413 . S
C4555 C4559 1.429 . S
C4556 C4554 1.360 . S
C4556 C4557 1.372 . S
C4557 H4552 0.928 . S
C4557 C4556 1.372 . S
C4557 C4558 1.404 . S
C4558 C4557 1.404 . S
C4558 C4559 1.391 . S
C4559 H4553 0.930 . S
C4559 C4555 1.429 . S
C4559 C4558 1.391 . S
H4560 C4563 0.931 . S
H4561 C4566 0.928 . S
H4562 C4568 0.930 . S
C4563 H4560 0.931 . S
C4563 C4564 1.413 . S
C4563 C4565 1.360 . S
C4564 C4563 1.413 . S
C4564 C4568 1.429 . S
C4565 C4563 1.360 . S
C4565 C4566 1.372 . S
C4566 H4561 0.928 . S
C4566 C4565 1.372 . S
C4566 C4567 1.404 . S
C4567 C4566 1.404 . S
C4567 C4568 1.391 . S
C4568 H4562 0.930 . S
C4568 C4564 1.429 . S
C4568 C4567 1.391 . S
H4569 C4572 0.931 . S
H4570 C4575 0.928 . S
H4571 C4577 0.930 . S
C4572 H4569 0.931 . S
C4572 C4573 1.413 . S
C4572 C4574 1.360 . S
C4573 C4572 1.413 . S
C4573 C4577 1.429 . S
C4574 C4572 1.360 . S
C4574 C4575 1.372 . S
C4575 H4570 0.928 . S
C4575 C4574 1.372 . S
C4575 C4576 1.404 . S
C4576 C4575 1.404 . S
C4576 C4577 1.391 . S
C4577 H4571 0.930 . S
C4577 C4573 1.429 . S
C4577 C4576 1.391 . S
H4578 C4581 0.931 . S
H4579 C4584 0.928 . S
H4580 C4586 0.930 . S
C4581 H4578 0.931 . S
C4581 C4582 1.413 . S
C4581 C4583 1.360 . S
C4582 C4581 1.413 . S
C4582 C4586 1.429 . S
C4583 C4581 1.360 . S
C4583 C4584 1.372 . S
C4584 H4579 0.928 . S
C4584 C4583 1.372 . S
C4584 C4585 1.404 . S
C4585 C4584 1.404 . S
C4585 C4586 1.391 . S
C4586 H4580 0.930 . S
C4586 C4582 1.429 . S
C4586 C4585 1.391 . S
H4587 C4590 0.931 . S
H4588 C4593 0.928 . S
H4589 C4595 0.930 . S
C4590 H4587 0.931 . S
C4590 C4591 1.413 . S
C4590 C4592 1.360 . S
C4591 C4590 1.413 . S
C4591 C4595 1.429 . S
C4592 C4590 1.360 . S
C4592 C4593 1.372 . S
C4593 H4588 0.928 . S
C4593 C4592 1.372 . S
C4593 C4594 1.404 . S
C4594 C4593 1.404 . S
C4594 C4595 1.391 . S
C4595 H4589 0.930 . S
C4595 C4591 1.429 . S
C4595 C4594 1.391 . S
H4596 C4599 0.931 . S
H4597 C4602 0.928 . S
H4598 C4604 0.930 . S
C4599 H4596 0.931 . S
C4599 C4600 1.413 . S
C4599 C4601 1.360 . S
C4600 C4599 1.413 . S
C4600 C4604 1.429 . S
C4601 C4599 1.360 . S
C4601 C4602 1.372 . S
C4602 H4597 0.928 . S
C4602 C4601 1.372 . S
C4602 C4603 1.404 . S
C4603 C4602 1.404 . S
C4603 C4604 1.391 . S
C4604 H4598 0.930 . S
C4604 C4600 1.429 . S
C4604 C4603 1.391 . S
H4605 C4608 0.931 . S
H4606 C4611 0.928 . S
H4607 C4613 0.930 . S
C4608 H4605 0.931 . S
C4608 C4609 1.413 . S
C4608 C4610 1.360 . S
C4609 C4608 1.413 . S
C4609 C4613 1.429 . S
C4610 C4608 1.360 . S
C4610 C4611 1.372 . S
C4611 H4606 0.928 . S
C4611 C4610 1.372 . S
C4611 C4612 1.404 . S
C4612 C4611 1.404 . S
C4612 C4613 1.391 . S
C4613 H4607 0.930 . S
C4613 C4609 1.429 . S
C4613 C4612 1.391 . S
H4614 C4617 0.931 . S
H4615 C4620 0.928 . S
H4616 C4622 0.930 . S
C4617 H4614 0.931 . S
C4617 C4618 1.413 . S
C4617 C4619 1.360 . S
C4618 C4617 1.413 . S
C4618 C4622 1.429 . S
C4619 C4617 1.360 . S
C4619 C4620 1.372 . S
C4620 H4615 0.928 . S
C4620 C4619 1.372 . S
C4620 C4621 1.404 . S
C4621 C4620 1.404 . S
C4621 C4622 1.391 . S
C4622 H4616 0.930 . S
C4622 C4618 1.429 . S
C4622 C4621 1.391 . S
H4623 C4626 0.931 . S
H4624 C4629 0.928 . S
H4625 C4631 0.930 . S
C4626 H4623 0.931 . S
C4626 C4627 1.413 . S
C4626 C4628 1.360 . S
C4627 C4626 1.413 . S
C4627 C4631 1.429 . S
C4628 C4626 1.360 . S
C4628 C4629 1.372 . S
C4629 H4624 0.928 . S
C4629 C4628 1.372 . S
C4629 C4630 1.404 . S
C4630 C4629 1.404 . S
C4630 C4631 1.391 . S
C4631 H4625 0.930 . S
C4631 C4627 1.429 . S
C4631 C4630 1.391 . S
H4632 C4635 0.931 . S
H4633 C4638 0.928 . S
H4634 C4640 0.930 . S
C4635 H4632 0.931 . S
C4635 C4636 1.413 . S
C4635 C4637 1.360 . S
C4636 C4635 1.413 . S
C4636 C4640 1.429 . S
C4637 C4635 1.360 . S
C4637 C4638 1.372 . S
C4638 H4633 0.928 . S
C4638 C4637 1.372 . S
C4638 C4639 1.404 . S
C4639 C4638 1.404 . S
C4639 C4640 1.391 . S
C4640 H4634 0.930 . S
C4640 C4636 1.429 . S
C4640 C4639 1.391 . S
H4641 C4644 0.931 . S
H4642 C4647 0.928 . S
H4643 C4649 0.930 . S
C4644 H4641 0.931 . S
C4644 C4645 1.413 . S
C4644 C4646 1.360 . S
C4645 C4644 1.413 . S
C4645 C4649 1.429 . S
C4646 C4644 1.360 . S
C4646 C4647 1.372 . S
C4647 H4642 0.928 . S
C4647 C4646 1.372 . S
C4647 C4648 1.404 . S
C4648 C4647 1.404 . S
C4648 C4649 1.391 . S
C4649 H4643 0.930 . S
C4649 C4645 1.429 . S
C4649 C4648 1.391 . S
H4650 C4653 0.931 . S
H4651 C4656 0.928 . S
H4652 C4658 0.930 . S
C4653 H4650 0.931 . S
C4653 C4654 1.413 . S
C4653 C4655 1.360 . S
C4654 C4653 1.413 . S
C4654 C4658 1.429 . S
C4655 C4653 1.360 . S
C4655 C4656 1.372 . S
C4656 H4651 0.928 . S
C4656 C4655 1.372 . S
C4656 C4657 1.404 . S
C4657 C4656 1.404 . S
C4657 C4658 1.391 . S
C4658 H4652 0.930 . S
C4658 C4654 1.429 . S
C4658 C4657 1.391 . S
H4659 C4662 0.931 . S
H4660 C4665 0.928 . S
H4661 C4667 0.930 . S
C4662 H4659 0.931 . S
C4662 C4663 1.413 . S
C4662 C4664 1.360 . S
C4663 C4662 1.413 . S
C4663 C4667 1.429 . S
C4664 C4662 1.360 . S
C4664 C4665 1.372 . S
C4665 H4660 0.928 . S
C4665 C4664 1.372 . S
C4665 C4666 1.404 . S
C4666 C4665 1.404 . S
C4666 C4667 1.391 . S
C4667 H4661 0.930 . S
C4667 C4663 1.429 . S
C4667 C4666 1.391 . S
H4668 C4671 0.931 . S
H4669 C4674 0.928 . S
H4670 C4676 0.930 . S
C4671 H4668 0.931 . S
C4671 C4672 1.413 . S
C4671 C4673 1.360 . S
C4672 C4671 1.413 . S
C4672 C4676 1.429 . S
C4673 C4671 1.360 . S
C4673 C4674 1.372 . S
C4674 H4669 0.928 . S
C4674 C4673 1.372 . S
C4674 C4675 1.404 . S
C4675 C4674 1.404 . S
C4675 C4676 1.391 . S
C4676 H4670 0.930 . S
C4676 C4672 1.429 . S
C4676 C4675 1.391 . S
H4677 C4680 0.931 . S
H4678 C4683 0.928 . S
H4679 C4685 0.930 . S
C4680 H4677 0.931 . S
C4680 C4681 1.413 . S
C4680 C4682 1.360 . S
C4681 C4680 1.413 . S
C4681 C4685 1.429 . S
C4682 C4680 1.360 . S
C4682 C4683 1.372 . S
C4683 H4678 0.928 . S
C4683 C4682 1.372 . S
C4683 C4684 1.404 . S
C4684 C4683 1.404 . S
C4684 C4685 1.391 . S
C4685 H4679 0.930 . S
C4685 C4681 1.429 . S
C4685 C4684 1.391 . S
H4686 C4689 0.931 . S
H4687 C4692 0.928 . S
H4688 C4694 0.930 . S
C4689 H4686 0.931 . S
C4689 C4690 1.413 . S
C4689 C4691 1.360 . S
C4690 C4689 1.413 . S
C4690 C4694 1.429 . S
C4691 C4689 1.360 . S
C4691 C4692 1.372 . S
C4692 H4687 0.928 . S
C4692 C4691 1.372 . S
C4692 C4693 1.404 . S
C4693 C4692 1.404 . S
C4693 C4694 1.391 . S
C4694 H4688 0.930 . S
C4694 C4690 1.429 . S
C4694 C4693 1.391 . S
H4695 C4698 0.931 . S
H4696 C4701 0.928 . S
H4697 C4703 0.930 . S
C4698 H4695 0.931 . S
C4698 C4699 1.413 . S
C4698 C4700 1.360 . S
C4699 C4698 1.413 . S
C4699 C4703 1.429 . S
C4700 C4698 1.360 . S
C4700 C4701 1.372 . S
C4701 H4696 0.928 . S
C4701 C4700 1.372 . S
C4701 C4702 1.404 . S
C4702 C4701 1.404 . S
C4702 C4703 1.391 . S
C4703 H4697 0.930 . S
C4703 C4699 1.429 . S
C4703 C4702 1.391 . S
C4704 C4705 1.369 . S
C4704 C4706 1.419 . S
C4704 H4708 0.930 1_655 S
C4705 C4704 1.369 . S
C4705 C4714 1.429 . S
C4706 C4704 1.419 . S
C4706 C4707 1.363 . S
C4706 H4709 0.929 . S
C4707 C4706 1.363 . S
C4707 C4713 1.428 . S
H4708 C4704 0.930 1_455 S
H4709 C4706 0.929 . S
S4710 N4711 1.613 . S
S4710 N4712 1.610 . S
N4711 S4710 1.613 . S
N4711 C4714 1.350 . S
N4712 S4710 1.610 . S
N4712 C4713 1.351 . S
C4713 C4707 1.428 . S
C4713 N4712 1.351 . S
C4713 C4714 1.434 . S
C4714 C4705 1.429 . S
C4714 N4711 1.350 . S
C4714 C4713 1.434 . S
C4715 C4716 1.369 . S
C4715 C4717 1.419 . S
C4715 H4719 0.930 . S
C4716 C4715 1.369 . S
C4716 C4725 1.429 . S
C4717 C4715 1.419 . S
C4717 C4718 1.363 . S
C4717 H4720 0.929 . S
C4718 C4717 1.363 . S
C4718 C4724 1.428 . S
H4719 C4715 0.930 . S
H4720 C4717 0.929 . S
S4721 N4722 1.613 . S
S4721 N4723 1.610 . S
N4722 S4721 1.613 . S
N4722 C4725 1.350 . S
N4723 S4721 1.610 . S
N4723 C4724 1.351 . S
C4724 C4718 1.428 . S
C4724 N4723 1.351 . S
C4724 C4725 1.434 . S
C4725 C4716 1.429 . S
C4725 N4722 1.350 . S
C4725 C4724 1.434 . S
C4726 C4727 1.369 . S
C4726 C4728 1.419 . S
C4726 H4730 0.930 . S
C4727 C4726 1.369 . S
C4727 C4736 1.429 . S
C4728 C4726 1.419 . S
C4728 C4729 1.363 . S
C4728 H4731 0.929 . S
C4729 C4728 1.363 . S
C4729 C4735 1.428 . S
H4730 C4726 0.930 . S
H4731 C4728 0.929 . S
S4732 N4733 1.613 . S
S4732 N4734 1.610 . S
N4733 S4732 1.613 . S
N4733 C4736 1.350 . S
N4734 S4732 1.610 . S
N4734 C4735 1.351 . S
C4735 C4729 1.428 . S
C4735 N4734 1.351 . S
C4735 C4736 1.434 . S
C4736 C4727 1.429 . S
C4736 N4733 1.350 . S
C4736 C4735 1.434 . S
C4737 C4738 1.369 . S
C4737 C4739 1.419 . S
C4737 H4741 0.930 . S
C4738 C4737 1.369 . S
C4738 C4747 1.429 . S
C4739 C4737 1.419 . S
C4739 C4740 1.363 . S
C4739 H4742 0.929 . S
C4740 C4739 1.363 . S
C4740 C4746 1.428 . S
H4741 C4737 0.930 . S
H4742 C4739 0.929 . S
S4743 N4744 1.613 . S
S4743 N4745 1.610 . S
N4744 S4743 1.613 . S
N4744 C4747 1.350 . S
N4745 S4743 1.610 . S
N4745 C4746 1.351 . S
C4746 C4740 1.428 . S
C4746 N4745 1.351 . S
C4746 C4747 1.434 . S
C4747 C4738 1.429 . S
C4747 N4744 1.350 . S
C4747 C4746 1.434 . S
C4748 C4749 1.369 . S
C4748 C4750 1.419 . S
C4748 H4752 0.930 . S
C4749 C4748 1.369 . S
C4749 C4758 1.429 . S
C4750 C4748 1.419 . S
C4750 C4751 1.363 . S
C4750 H4753 0.929 . S
C4751 C4750 1.363 . S
C4751 C4757 1.428 . S
H4752 C4748 0.930 . S
H4753 C4750 0.929 . S
S4754 N4755 1.613 . S
S4754 N4756 1.610 . S
N4755 S4754 1.613 . S
N4755 C4758 1.350 . S
N4756 S4754 1.610 . S
N4756 C4757 1.351 . S
C4757 C4751 1.428 . S
C4757 N4756 1.351 . S
C4757 C4758 1.434 . S
C4758 C4749 1.429 . S
C4758 N4755 1.350 . S
C4758 C4757 1.434 . S
C4759 C4760 1.369 . S
C4759 C4761 1.419 . S
C4759 H4763 0.930 . S
C4760 C4759 1.369 . S
C4760 C4769 1.429 . S
C4761 C4759 1.419 . S
C4761 C4762 1.363 . S
C4761 H4764 0.929 . S
C4762 C4761 1.363 . S
C4762 C4768 1.428 . S
H4763 C4759 0.930 . S
H4764 C4761 0.929 . S
S4765 N4766 1.613 . S
S4765 N4767 1.610 . S
N4766 S4765 1.613 . S
N4766 C4769 1.350 . S
N4767 S4765 1.610 . S
N4767 C4768 1.351 . S
C4768 C4762 1.428 . S
C4768 N4767 1.351 . S
C4768 C4769 1.434 . S
C4769 C4760 1.429 . S
C4769 N4766 1.350 . S
C4769 C4768 1.434 . S
C4770 C4771 1.369 . S
C4770 C4772 1.419 . S
C4770 H4774 0.930 . S
C4771 C4770 1.369 . S
C4771 C4780 1.429 . S
C4772 C4770 1.419 . S
C4772 C4773 1.363 . S
C4772 H4775 0.929 . S
C4773 C4772 1.363 . S
C4773 C4779 1.428 . S
H4774 C4770 0.930 . S
H4775 C4772 0.929 . S
S4776 N4777 1.613 . S
S4776 N4778 1.610 . S
N4777 S4776 1.613 . S
N4777 C4780 1.350 . S
N4778 S4776 1.610 . S
N4778 C4779 1.351 . S
C4779 C4773 1.428 . S
C4779 N4778 1.351 . S
C4779 C4780 1.434 . S
C4780 C4771 1.429 . S
C4780 N4777 1.350 . S
C4780 C4779 1.434 . S
C4781 C4782 1.369 . S
C4781 C4783 1.419 . S
C4781 H4785 0.930 . S
C4782 C4781 1.369 . S
C4782 C4791 1.429 . S
C4783 C4781 1.419 . S
C4783 C4784 1.363 . S
C4783 H4786 0.929 . S
C4784 C4783 1.363 . S
C4784 C4790 1.428 . S
H4785 C4781 0.930 . S
H4786 C4783 0.929 . S
S4787 N4788 1.613 . S
S4787 N4789 1.610 . S
N4788 S4787 1.613 . S
N4788 C4791 1.350 . S
N4789 S4787 1.610 . S
N4789 C4790 1.351 . S
C4790 C4784 1.428 . S
C4790 N4789 1.351 . S
C4790 C4791 1.434 . S
C4791 C4782 1.429 . S
C4791 N4788 1.350 . S
C4791 C4790 1.434 . S
C4792 C4793 1.369 . S
C4792 C4794 1.419 . S
C4792 H4796 0.930 . S
C4793 C4792 1.369 . S
C4793 C4802 1.429 . S
C4794 C4792 1.419 . S
C4794 C4795 1.363 . S
C4794 H4797 0.929 . S
C4795 C4794 1.363 . S
C4795 C4801 1.428 . S
H4796 C4792 0.930 . S
H4797 C4794 0.929 . S
S4798 N4799 1.613 . S
S4798 N4800 1.610 . S
N4799 S4798 1.613 . S
N4799 C4802 1.350 . S
N4800 S4798 1.610 . S
N4800 C4801 1.351 . S
C4801 C4795 1.428 . S
C4801 N4800 1.351 . S
C4801 C4802 1.434 . S
C4802 C4793 1.429 . S
C4802 N4799 1.350 . S
C4802 C4801 1.434 . S
C4803 C4804 1.369 . S
C4803 C4805 1.419 . S
C4803 H4807 0.930 . S
C4804 C4803 1.369 . S
C4804 C4813 1.429 . S
C4805 C4803 1.419 . S
C4805 C4806 1.363 . S
C4805 H4808 0.929 . S
C4806 C4805 1.363 . S
C4806 C4812 1.428 . S
H4807 C4803 0.930 . S
H4808 C4805 0.929 . S
S4809 N4810 1.613 . S
S4809 N4811 1.610 . S
N4810 S4809 1.613 . S
N4810 C4813 1.350 . S
N4811 S4809 1.610 . S
N4811 C4812 1.351 . S
C4812 C4806 1.428 . S
C4812 N4811 1.351 . S
C4812 C4813 1.434 . S
C4813 C4804 1.429 . S
C4813 N4810 1.350 . S
C4813 C4812 1.434 . S
C4814 C4815 1.369 . S
C4814 C4816 1.419 . S
C4814 H4818 0.930 . S
C4815 C4814 1.369 . S
C4815 C4824 1.429 . S
C4816 C4814 1.419 . S
C4816 C4817 1.363 . S
C4816 H4819 0.929 . S
C4817 C4816 1.363 . S
C4817 C4823 1.428 . S
H4818 C4814 0.930 . S
H4819 C4816 0.929 . S
S4820 N4821 1.613 . S
S4820 N4822 1.610 . S
N4821 S4820 1.613 . S
N4821 C4824 1.350 . S
N4822 S4820 1.610 . S
N4822 C4823 1.351 . S
C4823 C4817 1.428 . S
C4823 N4822 1.351 . S
C4823 C4824 1.434 . S
C4824 C4815 1.429 . S
C4824 N4821 1.350 . S
C4824 C4823 1.434 . S
C4825 C4826 1.369 . S
C4825 C4827 1.419 . S
C4825 H4829 0.930 . S
C4826 C4825 1.369 . S
C4826 C4835 1.429 . S
C4827 C4825 1.419 . S
C4827 C4828 1.363 . S
C4827 H4830 0.929 . S
C4828 C4827 1.363 . S
C4828 C4834 1.428 . S
H4829 C4825 0.930 . S
H4830 C4827 0.929 . S
S4831 N4832 1.613 . S
S4831 N4833 1.610 . S
N4832 S4831 1.613 . S
N4832 C4835 1.350 . S
N4833 S4831 1.610 . S
N4833 C4834 1.351 . S
C4834 C4828 1.428 . S
C4834 N4833 1.351 . S
C4834 C4835 1.434 . S
C4835 C4826 1.429 . S
C4835 N4832 1.350 . S
C4835 C4834 1.434 . S
C4836 C4837 1.369 . S
C4836 C4838 1.419 . S
C4836 H4840 0.930 . S
C4837 C4836 1.369 . S
C4837 C4846 1.429 . S
C4838 C4836 1.419 . S
C4838 C4839 1.363 . S
C4838 H4841 0.929 . S
C4839 C4838 1.363 . S
C4839 C4845 1.428 . S
H4840 C4836 0.930 . S
H4841 C4838 0.929 . S
S4842 N4843 1.613 . S
S4842 N4844 1.610 . S
N4843 S4842 1.613 . S
N4843 C4846 1.350 . S
N4844 S4842 1.610 . S
N4844 C4845 1.351 . S
C4845 C4839 1.428 . S
C4845 N4844 1.351 . S
C4845 C4846 1.434 . S
C4846 C4837 1.429 . S
C4846 N4843 1.350 . S
C4846 C4845 1.434 . S
C4847 C4848 1.369 . S
C4847 C4849 1.419 . S
C4847 H4851 0.930 . S
C4848 C4847 1.369 . S
C4848 C4857 1.429 . S
C4849 C4847 1.419 . S
C4849 C4850 1.363 . S
C4849 H4852 0.929 . S
C4850 C4849 1.363 . S
C4850 C4856 1.428 . S
H4851 C4847 0.930 . S
H4852 C4849 0.929 . S
S4853 N4854 1.613 . S
S4853 N4855 1.610 . S
N4854 S4853 1.613 . S
N4854 C4857 1.350 . S
N4855 S4853 1.610 . S
N4855 C4856 1.351 . S
C4856 C4850 1.428 . S
C4856 N4855 1.351 . S
C4856 C4857 1.434 . S
C4857 C4848 1.429 . S
C4857 N4854 1.350 . S
C4857 C4856 1.434 . S
C4858 C4859 1.369 . S
C4858 C4860 1.419 . S
C4858 H4862 0.930 . S
C4859 C4858 1.369 . S
C4859 C4868 1.429 . S
C4860 C4858 1.419 . S
C4860 C4861 1.363 . S
C4860 H4863 0.929 . S
C4861 C4860 1.363 . S
C4861 C4867 1.428 . S
H4862 C4858 0.930 . S
H4863 C4860 0.929 . S
S4864 N4865 1.613 . S
S4864 N4866 1.610 . S
N4865 S4864 1.613 . S
N4865 C4868 1.350 . S
N4866 S4864 1.610 . S
N4866 C4867 1.351 . S
C4867 C4861 1.428 . S
C4867 N4866 1.351 . S
C4867 C4868 1.434 . S
C4868 C4859 1.429 . S
C4868 N4865 1.350 . S
C4868 C4867 1.434 . S
C4869 C4870 1.369 . S
C4869 C4871 1.419 . S
C4869 H4873 0.930 . S
C4870 C4869 1.369 . S
C4870 C4879 1.429 . S
C4871 C4869 1.419 . S
C4871 C4872 1.363 . S
C4871 H4874 0.929 . S
C4872 C4871 1.363 . S
C4872 C4878 1.428 . S
H4873 C4869 0.930 . S
H4874 C4871 0.929 . S
S4875 N4876 1.613 . S
S4875 N4877 1.610 . S
N4876 S4875 1.613 . S
N4876 C4879 1.350 . S
N4877 S4875 1.610 . S
N4877 C4878 1.351 . S
C4878 C4872 1.428 . S
C4878 N4877 1.351 . S
C4878 C4879 1.434 . S
C4879 C4870 1.429 . S
C4879 N4876 1.350 . S
C4879 C4878 1.434 . S
C4880 C4881 1.369 1_556 S
C4880 C4882 1.419 . S
C4880 H4884 0.930 . S
C4881 C4880 1.369 1_554 S
C4881 C4890 1.429 . S
C4882 C4880 1.419 . S
C4882 C4883 1.363 . S
C4882 H4885 0.929 . S
C4883 C4882 1.363 . S
C4883 C4889 1.428 . S
H4884 C4880 0.930 . S
H4885 C4882 0.929 . S
S4886 N4887 1.613 . S
S4886 N4888 1.610 1_554 S
N4887 S4886 1.613 . S
N4887 C4890 1.350 . S
N4888 S4886 1.610 1_556 S
N4888 C4889 1.351 . S
C4889 C4883 1.428 . S
C4889 N4888 1.351 . S
C4889 C4890 1.434 1_556 S
C4890 C4881 1.429 . S
C4890 N4887 1.350 . S
C4890 C4889 1.434 1_554 S
C4891 C4892 1.369 1_554 S
C4891 C4893 1.419 . S
C4891 H4895 0.930 1_554 S
C4892 C4891 1.369 1_556 S
C4892 C4901 1.429 1_556 S
C4893 C4891 1.419 . S
C4893 C4894 1.363 . S
C4893 H4896 0.929 . S
C4894 C4893 1.363 . S
C4894 C4900 1.428 . S
H4895 C4891 0.930 1_556 S
H4896 C4893 0.929 . S
S4897 N4898 1.613 1_554 S
S4897 N4899 1.610 . S
N4898 S4897 1.613 1_556 S
N4898 C4901 1.350 1_556 S
N4899 S4897 1.610 . S
N4899 C4900 1.351 . S
C4900 C4894 1.428 . S
C4900 N4899 1.351 . S
C4900 C4901 1.434 . S
C4901 C4892 1.429 1_554 S
C4901 N4898 1.350 1_554 S
C4901 C4900 1.434 . S
C4902 C4903 1.369 . S
C4902 C4904 1.419 . S
C4902 H4906 0.930 . S
C4903 C4902 1.369 . S
C4903 C4912 1.429 . S
C4904 C4902 1.419 . S
C4904 C4905 1.363 . S
C4904 H4907 0.929 . S
C4905 C4904 1.363 . S
C4905 C4911 1.428 . S
H4906 C4902 0.930 . S
H4907 C4904 0.929 . S
S4908 N4909 1.613 . S
S4908 N4910 1.610 . S
N4909 S4908 1.613 . S
N4909 C4912 1.350 . S
N4910 S4908 1.610 . S
N4910 C4911 1.351 . S
C4911 C4905 1.428 . S
C4911 N4910 1.351 . S
C4911 C4912 1.434 . S
C4912 C4903 1.429 . S
C4912 N4909 1.350 . S
C4912 C4911 1.434 . S
C4913 C4914 1.369 . S
C4913 C4915 1.419 . S
C4913 H4917 0.930 . S
C4914 C4913 1.369 . S
C4914 C4923 1.429 . S
C4915 C4913 1.419 . S
C4915 C4916 1.363 . S
C4915 H4918 0.929 . S
C4916 C4915 1.363 . S
C4916 C4922 1.428 . S
H4917 C4913 0.930 . S
H4918 C4915 0.929 . S
S4919 N4920 1.613 . S
S4919 N4921 1.610 . S
N4920 S4919 1.613 . S
N4920 C4923 1.350 . S
N4921 S4919 1.610 . S
N4921 C4922 1.351 . S
C4922 C4916 1.428 . S
C4922 N4921 1.351 . S
C4922 C4923 1.434 . S
C4923 C4914 1.429 . S
C4923 N4920 1.350 . S
C4923 C4922 1.434 . S
C4924 C4925 1.369 . S
C4924 C4926 1.419 . S
C4924 H4928 0.930 . S
C4925 C4924 1.369 . S
C4925 C4934 1.429 . S
C4926 C4924 1.419 . S
C4926 C4927 1.363 . S
C4926 H4929 0.929 . S
C4927 C4926 1.363 . S
C4927 C4933 1.428 . S
H4928 C4924 0.930 . S
H4929 C4926 0.929 . S
S4930 N4931 1.613 . S
S4930 N4932 1.610 . S
N4931 S4930 1.613 . S
N4931 C4934 1.350 . S
N4932 S4930 1.610 . S
N4932 C4933 1.351 . S
C4933 C4927 1.428 . S
C4933 N4932 1.351 . S
C4933 C4934 1.434 . S
C4934 C4925 1.429 . S
C4934 N4931 1.350 . S
C4934 C4933 1.434 . S
C4935 C4936 1.369 . S
C4935 C4937 1.419 . S
C4935 H4939 0.930 . S
C4936 C4935 1.369 . S
C4936 C4945 1.429 . S
C4937 C4935 1.419 . S
C4937 C4938 1.363 . S
C4937 H4940 0.929 . S
C4938 C4937 1.363 . S
C4938 C4944 1.428 . S
H4939 C4935 0.930 . S
H4940 C4937 0.929 . S
S4941 N4942 1.613 . S
S4941 N4943 1.610 . S
N4942 S4941 1.613 . S
N4942 C4945 1.350 . S
N4943 S4941 1.610 . S
N4943 C4944 1.351 . S
C4944 C4938 1.428 . S
C4944 N4943 1.351 . S
C4944 C4945 1.434 . S
C4945 C4936 1.429 . S
C4945 N4942 1.350 . S
C4945 C4944 1.434 . S
C4946 C4947 1.369 . S
C4946 C4948 1.419 . S
C4946 H4950 0.930 . S
C4947 C4946 1.369 . S
C4947 C4956 1.429 . S
C4948 C4946 1.419 . S
C4948 C4949 1.363 . S
C4948 H4951 0.929 . S
C4949 C4948 1.363 . S
C4949 C4955 1.428 . S
H4950 C4946 0.930 . S
H4951 C4948 0.929 . S
S4952 N4953 1.613 . S
S4952 N4954 1.610 . S
N4953 S4952 1.613 . S
N4953 C4956 1.350 . S
N4954 S4952 1.610 . S
N4954 C4955 1.351 . S
C4955 C4949 1.428 . S
C4955 N4954 1.351 . S
C4955 C4956 1.434 . S
C4956 C4947 1.429 . S
C4956 N4953 1.350 . S
C4956 C4955 1.434 . S
C4957 C4958 1.369 . S
C4957 C4959 1.419 . S
C4957 H4961 0.930 . S
C4958 C4957 1.369 . S
C4958 C4967 1.429 . S
C4959 C4957 1.419 . S
C4959 C4960 1.363 . S
C4959 H4962 0.929 . S
C4960 C4959 1.363 . S
C4960 C4966 1.428 . S
H4961 C4957 0.930 . S
H4962 C4959 0.929 . S
S4963 N4964 1.613 . S
S4963 N4965 1.610 . S
N4964 S4963 1.613 . S
N4964 C4967 1.350 . S
N4965 S4963 1.610 . S
N4965 C4966 1.351 . S
C4966 C4960 1.428 . S
C4966 N4965 1.351 . S
C4966 C4967 1.434 . S
C4967 C4958 1.429 . S
C4967 N4964 1.350 . S
C4967 C4966 1.434 . S
C4968 C4969 1.369 . S
C4968 C4970 1.419 . S
C4968 H4972 0.930 . S
C4969 C4968 1.369 . S
C4969 C4978 1.429 . S
C4970 C4968 1.419 . S
C4970 C4971 1.363 . S
C4970 H4973 0.929 . S
C4971 C4970 1.363 . S
C4971 C4977 1.428 . S
H4972 C4968 0.930 . S
H4973 C4970 0.929 . S
S4974 N4975 1.613 . S
S4974 N4976 1.610 . S
N4975 S4974 1.613 . S
N4975 C4978 1.350 . S
N4976 S4974 1.610 . S
N4976 C4977 1.351 . S
C4977 C4971 1.428 . S
C4977 N4976 1.351 . S
C4977 C4978 1.434 . S
C4978 C4969 1.429 . S
C4978 N4975 1.350 . S
C4978 C4977 1.434 . S
C4979 C4980 1.369 . S
C4979 C4981 1.419 . S
C4979 H4983 0.930 . S
C4980 C4979 1.369 . S
C4980 C4989 1.429 . S
C4981 C4979 1.419 . S
C4981 C4982 1.363 . S
C4981 H4984 0.929 . S
C4982 C4981 1.363 . S
C4982 C4988 1.428 . S
H4983 C4979 0.930 . S
H4984 C4981 0.929 . S
S4985 N4986 1.613 . S
S4985 N4987 1.610 . S
N4986 S4985 1.613 . S
N4986 C4989 1.350 . S
N4987 S4985 1.610 . S
N4987 C4988 1.351 . S
C4988 C4982 1.428 . S
C4988 N4987 1.351 . S
C4988 C4989 1.434 . S
C4989 C4980 1.429 . S
C4989 N4986 1.350 . S
C4989 C4988 1.434 . S
C4990 C4991 1.369 . S
C4990 C4992 1.419 . S
C4990 H4994 0.930 . S
C4991 C4990 1.369 . S
C4991 C5000 1.429 . S
C4992 C4990 1.419 . S
C4992 C4993 1.363 . S
C4992 H4995 0.929 . S
C4993 C4992 1.363 . S
C4993 C4999 1.428 . S
H4994 C4990 0.930 . S
H4995 C4992 0.929 . S
S4996 N4997 1.613 . S
S4996 N4998 1.610 . S
N4997 S4996 1.613 . S
N4997 C5000 1.350 . S
N4998 S4996 1.610 . S
N4998 C4999 1.351 . S
C4999 C4993 1.428 . S
C4999 N4998 1.351 . S
C4999 C5000 1.434 . S
C5000 C4991 1.429 . S
C5000 N4997 1.350 . S
C5000 C4999 1.434 . S
C5001 C5002 1.369 . S
C5001 C5003 1.419 . S
C5001 H5005 0.930 . S
C5002 C5001 1.369 . S
C5002 C5011 1.429 . S
C5003 C5001 1.419 . S
C5003 C5004 1.363 . S
C5003 H5006 0.929 . S
C5004 C5003 1.363 . S
C5004 C5010 1.428 . S
H5005 C5001 0.930 . S
H5006 C5003 0.929 . S
S5007 N5008 1.613 . S
S5007 N5009 1.610 . S
N5008 S5007 1.613 . S
N5008 C5011 1.350 . S
N5009 S5007 1.610 . S
N5009 C5010 1.351 . S
C5010 C5004 1.428 . S
C5010 N5009 1.351 . S
C5010 C5011 1.434 . S
C5011 C5002 1.429 . S
C5011 N5008 1.350 . S
C5011 C5010 1.434 . S
C5012 C5013 1.369 . S
C5012 C5014 1.419 . S
C5012 H5016 0.930 . S
C5013 C5012 1.369 . S
C5013 C5022 1.429 . S
C5014 C5012 1.419 . S
C5014 C5015 1.363 . S
C5014 H5017 0.929 . S
C5015 C5014 1.363 . S
C5015 C5021 1.428 . S
H5016 C5012 0.930 . S
H5017 C5014 0.929 . S
S5018 N5019 1.613 . S
S5018 N5020 1.610 1_655 S
N5019 S5018 1.613 . S
N5019 C5022 1.350 1_655 S
N5020 S5018 1.610 1_455 S
N5020 C5021 1.351 . S
C5021 C5015 1.428 . S
C5021 N5020 1.351 . S
C5021 C5022 1.434 . S
C5022 C5013 1.429 . S
C5022 N5019 1.350 1_455 S
C5022 C5021 1.434 . S
C5023 C5024 1.369 . S
C5023 C5025 1.419 . S
C5023 H5027 0.930 . S
C5024 C5023 1.369 . S
C5024 C5033 1.429 . S
C5025 C5023 1.419 . S
C5025 C5026 1.363 . S
C5025 H5028 0.929 . S
C5026 C5025 1.363 . S
C5026 C5032 1.428 . S
H5027 C5023 0.930 . S
H5028 C5025 0.929 . S
S5029 N5030 1.613 . S
S5029 N5031 1.610 . S
N5030 S5029 1.613 . S
N5030 C5033 1.350 . S
N5031 S5029 1.610 . S
N5031 C5032 1.351 . S
C5032 C5026 1.428 . S
C5032 N5031 1.351 . S
C5032 C5033 1.434 . S
C5033 C5024 1.429 . S
C5033 N5030 1.350 . S
C5033 C5032 1.434 . S
C5034 C5035 1.369 . S
C5034 C5036 1.419 . S
C5034 H5038 0.930 . S
C5035 C5034 1.369 . S
C5035 C5044 1.429 . S
C5036 C5034 1.419 . S
C5036 C5037 1.363 . S
C5036 H5039 0.929 . S
C5037 C5036 1.363 . S
C5037 C5043 1.428 . S
H5038 C5034 0.930 . S
H5039 C5036 0.929 . S
S5040 N5041 1.613 . S
S5040 N5042 1.610 . S
N5041 S5040 1.613 . S
N5041 C5044 1.350 . S
N5042 S5040 1.610 . S
N5042 C5043 1.351 . S
C5043 C5037 1.428 . S
C5043 N5042 1.351 . S
C5043 C5044 1.434 . S
C5044 C5035 1.429 . S
C5044 N5041 1.350 . S
C5044 C5043 1.434 . S
C5045 C5046 1.369 . S
C5045 C5047 1.419 . S
C5045 H5049 0.930 . S
C5046 C5045 1.369 . S
C5046 C5055 1.429 . S
C5047 C5045 1.419 . S
C5047 C5048 1.363 . S
C5047 H5050 0.929 . S
C5048 C5047 1.363 . S
C5048 C5054 1.428 . S
H5049 C5045 0.930 . S
H5050 C5047 0.929 . S
S5051 N5052 1.613 . S
S5051 N5053 1.610 . S
N5052 S5051 1.613 . S
N5052 C5055 1.350 . S
N5053 S5051 1.610 . S
N5053 C5054 1.351 . S
C5054 C5048 1.428 . S
C5054 N5053 1.351 . S
C5054 C5055 1.434 . S
C5055 C5046 1.429 . S
C5055 N5052 1.350 . S
C5055 C5054 1.434 . S
C5056 C5057 1.369 1_545 S
C5056 C5058 1.419 . S
C5056 H5060 0.930 . S
C5057 C5056 1.369 1_565 S
C5057 C5066 1.429 . S
C5058 C5056 1.419 . S
C5058 C5059 1.363 . S
C5058 H5061 0.929 . S
C5059 C5058 1.363 . S
C5059 C5065 1.428 . S
H5060 C5056 0.930 . S
H5061 C5058 0.929 . S
S5062 N5063 1.613 . S
S5062 N5064 1.610 1_565 S
N5063 S5062 1.613 . S
N5063 C5066 1.350 . S
N5064 S5062 1.610 1_545 S
N5064 C5065 1.351 . S
C5065 C5059 1.428 . S
C5065 N5064 1.351 . S
C5065 C5066 1.434 1_545 S
C5066 C5057 1.429 . S
C5066 N5063 1.350 . S
C5066 C5065 1.434 1_565 S
C5067 C5068 1.369 . S
C5067 C5069 1.419 . S
C5067 H5071 0.930 . S
C5068 C5067 1.369 . S
C5068 C5077 1.429 . S
C5069 C5067 1.419 . S
C5069 C5070 1.363 . S
C5069 H5072 0.929 . S
C5070 C5069 1.363 . S
C5070 C5076 1.428 . S
H5071 C5067 0.930 . S
H5072 C5069 0.929 . S
S5073 N5074 1.613 . S
S5073 N5075 1.610 . S
N5074 S5073 1.613 . S
N5074 C5077 1.350 . S
N5075 S5073 1.610 . S
N5075 C5076 1.351 . S
C5076 C5070 1.428 . S
C5076 N5075 1.351 . S
C5076 C5077 1.434 . S
C5077 C5068 1.429 . S
C5077 N5074 1.350 . S
C5077 C5076 1.434 . S
C5078 C5079 1.369 . S
C5078 C5080 1.419 . S
C5078 H5082 0.835 1_565 S
C5079 C5078 1.369 . S
C5079 C5088 1.429 . S
C5080 C5078 1.419 . S
C5080 C5081 1.363 . S
C5080 H5083 0.929 . S
C5081 C5080 1.363 . S
C5081 C5087 1.428 . S
H5082 C5078 0.835 1_545 S
H5083 C5080 0.929 . S
S5084 N5085 1.613 . S
S5084 N5086 1.610 . S
N5085 S5084 1.613 . S
N5085 C5088 1.350 . S
N5086 S5084 1.610 . S
N5086 C5087 1.351 . S
C5087 C5081 1.428 . S
C5087 N5086 1.351 . S
C5087 C5088 1.434 . S
C5088 C5079 1.429 . S
C5088 N5085 1.350 . S
C5088 C5087 1.434 . S
C5089 C5090 1.369 . S
C5089 C5091 1.419 . S
C5089 H5093 0.930 . S
C5090 C5089 1.369 . S
C5090 C5099 1.429 . S
C5091 C5089 1.419 . S
C5091 C5092 1.363 . S
C5091 H5094 0.929 . S
C5092 C5091 1.363 . S
C5092 C5098 1.428 . S
H5093 C5089 0.930 . S
H5094 C5091 0.929 . S
S5095 N5096 1.613 . S
S5095 N5097 1.610 . S
N5096 S5095 1.613 . S
N5096 C5099 1.350 . S
N5097 S5095 1.610 . S
N5097 C5098 1.351 . S
C5098 C5092 1.428 . S
C5098 N5097 1.351 . S
C5098 C5099 1.434 . S
C5099 C5090 1.429 . S
C5099 N5096 1.350 . S
C5099 C5098 1.434 . S
C5100 C5101 1.369 1_565 S
C5100 C5102 1.419 . S
C5100 H5104 0.929 . S
C5101 C5100 1.369 1_545 S
C5101 C5110 1.429 1_545 S
C5102 C5100 1.419 . S
C5102 C5103 1.363 . S
C5102 H5105 0.929 . S
C5103 C5102 1.363 . S
C5103 C5109 1.428 . S
H5104 C5100 0.929 . S
H5105 C5102 0.929 . S
S5106 N5107 1.635 . S
S5106 N5108 1.610 . S
N5107 S5106 1.635 . S
N5107 C5110 1.361 . S
N5108 S5106 1.610 . S
N5108 C5109 1.351 . S
C5109 C5103 1.428 . S
C5109 N5108 1.351 . S
C5109 C5110 1.434 . S
C5110 C5101 1.429 1_565 S
C5110 N5107 1.361 . S
C5110 C5109 1.434 . S
C5111 C5112 1.369 . S
C5111 C5113 1.419 . S
C5111 H5115 0.930 . S
C5112 C5111 1.369 . S
C5112 C5121 1.429 . S
C5113 C5111 1.419 . S
C5113 C5114 1.363 . S
C5113 H5116 0.929 . S
C5114 C5113 1.363 . S
C5114 C5120 1.428 . S
H5115 C5111 0.930 . S
H5116 C5113 0.929 . S
S5117 N5118 1.613 . S
S5117 N5119 1.610 . S
N5118 S5117 1.613 . S
N5118 C5121 1.350 . S
N5119 S5117 1.610 . S
N5119 C5120 1.351 . S
C5120 C5114 1.428 . S
C5120 N5119 1.351 . S
C5120 C5121 1.434 . S
C5121 C5112 1.429 . S
C5121 N5118 1.350 . S
C5121 C5120 1.434 . S
C5122 C5123 1.369 . S
C5122 C5124 1.419 . S
C5122 H5126 0.930 . S
C5123 C5122 1.369 . S
C5123 C5132 1.429 . S
C5124 C5122 1.419 . S
C5124 C5125 1.363 . S
C5124 H5127 0.929 . S
C5125 C5124 1.363 . S
C5125 C5131 1.428 . S
H5126 C5122 0.930 . S
H5127 C5124 0.929 . S
S5128 N5129 1.613 . S
S5128 N5130 1.610 . S
N5129 S5128 1.613 . S
N5129 C5132 1.350 . S
N5130 S5128 1.610 . S
N5130 C5131 1.351 . S
C5131 C5125 1.428 . S
C5131 N5130 1.351 . S
C5131 C5132 1.434 . S
C5132 C5123 1.429 . S
C5132 N5129 1.350 . S
C5132 C5131 1.434 . S
C5133 C5134 1.369 . S
C5133 C5135 1.419 . S
C5133 H5137 0.930 . S
C5134 C5133 1.369 . S
C5134 C5143 1.429 . S
C5135 C5133 1.419 . S
C5135 C5136 1.363 . S
C5135 H5138 0.929 . S
C5136 C5135 1.363 . S
C5136 C5142 1.428 . S
H5137 C5133 0.930 . S
H5138 C5135 0.929 . S
S5139 N5140 1.613 . S
S5139 N5141 1.610 . S
N5140 S5139 1.613 . S
N5140 C5143 1.350 . S
N5141 S5139 1.610 . S
N5141 C5142 1.351 . S
C5142 C5136 1.428 . S
C5142 N5141 1.351 . S
C5142 C5143 1.434 . S
C5143 C5134 1.429 . S
C5143 N5140 1.350 . S
C5143 C5142 1.434 . S
C5144 C5145 1.369 . S
C5144 C5146 1.419 . S
C5144 H5148 0.930 . S
C5145 C5144 1.369 . S
C5145 C5154 1.429 . S
C5146 C5144 1.419 . S
C5146 C5147 1.363 . S
C5146 H5149 0.929 . S
C5147 C5146 1.363 . S
C5147 C5153 1.428 . S
H5148 C5144 0.930 . S
H5149 C5146 0.929 . S
S5150 N5151 1.613 . S
S5150 N5152 1.610 . S
N5151 S5150 1.613 . S
N5151 C5154 1.350 . S
N5152 S5150 1.610 . S
N5152 C5153 1.351 . S
C5153 C5147 1.428 . S
C5153 N5152 1.351 . S
C5153 C5154 1.434 . S
C5154 C5145 1.429 . S
C5154 N5151 1.350 . S
C5154 C5153 1.434 . S
C5155 C5156 1.369 . S
C5155 C5157 1.419 . S
C5155 H5159 0.930 . S
C5156 C5155 1.369 . S
C5156 C5165 1.429 . S
C5157 C5155 1.419 . S
C5157 C5158 1.363 . S
C5157 H5160 0.929 . S
C5158 C5157 1.363 . S
C5158 C5164 1.428 . S
H5159 C5155 0.930 . S
H5160 C5157 0.929 . S
S5161 N5162 1.613 . S
S5161 N5163 1.610 . S
N5162 S5161 1.613 . S
N5162 C5165 1.350 . S
N5163 S5161 1.610 . S
N5163 C5164 1.351 . S
C5164 C5158 1.428 . S
C5164 N5163 1.351 . S
C5164 C5165 1.434 . S
C5165 C5156 1.429 . S
C5165 N5162 1.350 . S
C5165 C5164 1.434 . S
C5166 C5167 1.369 . S
C5166 C5168 1.419 . S
C5166 H5170 0.930 . S
C5167 C5166 1.369 . S
C5167 C5176 1.429 . S
C5168 C5166 1.419 . S
C5168 C5169 1.363 . S
C5168 H5171 0.929 . S
C5169 C5168 1.363 . S
C5169 C5175 1.428 . S
H5170 C5166 0.930 . S
H5171 C5168 0.929 . S
S5172 N5173 1.613 . S
S5172 N5174 1.610 . S
N5173 S5172 1.613 . S
N5173 C5176 1.350 . S
N5174 S5172 1.610 . S
N5174 C5175 1.351 . S
C5175 C5169 1.428 . S
C5175 N5174 1.351 . S
C5175 C5176 1.434 . S
C5176 C5167 1.429 . S
C5176 N5173 1.350 . S
C5176 C5175 1.434 . S
C5177 C5178 1.369 . S
C5177 C5179 1.419 . S
C5177 H5181 0.930 . S
C5178 C5177 1.369 . S
C5178 C5187 1.429 . S
C5179 C5177 1.419 . S
C5179 C5180 1.363 . S
C5179 H5182 0.929 . S
C5180 C5179 1.363 . S
C5180 C5186 1.428 . S
H5181 C5177 0.930 . S
H5182 C5179 0.929 . S
S5183 N5184 1.613 . S
S5183 N5185 1.610 . S
N5184 S5183 1.613 . S
N5184 C5187 1.350 . S
N5185 S5183 1.610 . S
N5185 C5186 1.351 . S
C5186 C5180 1.428 . S
C5186 N5185 1.351 . S
C5186 C5187 1.434 . S
C5187 C5178 1.429 . S
C5187 N5184 1.350 . S
C5187 C5186 1.434 . S
C5188 C5189 1.369 . S
C5188 C5190 1.419 . S
C5188 H5192 0.930 . S
C5189 C5188 1.369 . S
C5189 C5198 1.429 . S
C5190 C5188 1.419 . S
C5190 C5191 1.363 . S
C5190 H5193 0.929 . S
C5191 C5190 1.363 . S
C5191 C5197 1.428 . S
H5192 C5188 0.930 . S
H5193 C5190 0.929 . S
S5194 N5195 1.613 . S
S5194 N5196 1.610 . S
N5195 S5194 1.613 . S
N5195 C5198 1.350 . S
N5196 S5194 1.610 . S
N5196 C5197 1.351 . S
C5197 C5191 1.428 . S
C5197 N5196 1.351 . S
C5197 C5198 1.434 . S
C5198 C5189 1.429 . S
C5198 N5195 1.350 . S
C5198 C5197 1.434 . S
C5199 C5200 1.369 . S
C5199 C5201 1.419 . S
C5199 H5203 0.930 . S
C5200 C5199 1.369 . S
C5200 C5209 1.429 . S
C5201 C5199 1.419 . S
C5201 C5202 1.363 . S
C5201 H5204 0.929 . S
C5202 C5201 1.363 . S
C5202 C5208 1.428 . S
H5203 C5199 0.930 . S
H5204 C5201 0.929 . S
S5205 N5206 1.613 . S
S5205 N5207 1.610 . S
N5206 S5205 1.613 . S
N5206 C5209 1.350 . S
N5207 S5205 1.610 . S
N5207 C5208 1.351 . S
C5208 C5202 1.428 . S
C5208 N5207 1.351 . S
C5208 C5209 1.434 . S
C5209 C5200 1.429 . S
C5209 N5206 1.350 . S
C5209 C5208 1.434 . S
C5210 C5211 1.369 . S
C5210 C5212 1.419 . S
C5210 H5214 0.930 . S
C5211 C5210 1.369 . S
C5211 C5220 1.429 . S
C5212 C5210 1.419 . S
C5212 C5213 1.363 . S
C5212 H5215 0.929 . S
C5213 C5212 1.363 . S
C5213 C5219 1.428 . S
H5214 C5210 0.930 . S
H5215 C5212 0.929 . S
S5216 N5217 1.613 . S
S5216 N5218 1.610 . S
N5217 S5216 1.613 . S
N5217 C5220 1.350 . S
N5218 S5216 1.610 . S
N5218 C5219 1.351 . S
C5219 C5213 1.428 . S
C5219 N5218 1.351 . S
C5219 C5220 1.434 . S
C5220 C5211 1.429 . S
C5220 N5217 1.350 . S
C5220 C5219 1.434 . S
C5221 C5222 1.369 . S
C5221 C5223 1.419 . S
C5221 H5225 0.930 . S
C5222 C5221 1.369 . S
C5222 C5231 1.429 . S
C5223 C5221 1.419 . S
C5223 C5224 1.363 . S
C5223 H5226 0.929 . S
C5224 C5223 1.363 . S
C5224 C5230 1.428 . S
H5225 C5221 0.930 . S
H5226 C5223 0.929 . S
S5227 N5228 1.613 . S
S5227 N5229 1.610 . S
N5228 S5227 1.613 . S
N5228 C5231 1.350 . S
N5229 S5227 1.610 . S
N5229 C5230 1.351 . S
C5230 C5224 1.428 . S
C5230 N5229 1.351 . S
C5230 C5231 1.434 . S
C5231 C5222 1.429 . S
C5231 N5228 1.350 . S
C5231 C5230 1.434 . S
C5232 C5233 1.369 . S
C5232 C5234 1.419 . S
C5232 H5236 0.930 . S
C5233 C5232 1.369 . S
C5233 C5242 1.429 . S
C5234 C5232 1.419 . S
C5234 C5235 1.363 . S
C5234 H5237 0.929 . S
C5235 C5234 1.363 . S
C5235 C5241 1.428 . S
H5236 C5232 0.930 . S
H5237 C5234 0.929 . S
S5238 N5239 1.613 . S
S5238 N5240 1.610 . S
N5239 S5238 1.613 . S
N5239 C5242 1.350 . S
N5240 S5238 1.610 . S
N5240 C5241 1.351 . S
C5241 C5235 1.428 . S
C5241 N5240 1.351 . S
C5241 C5242 1.434 . S
C5242 C5233 1.429 . S
C5242 N5239 1.350 . S
C5242 C5241 1.434 . S
C5243 C5244 1.369 . S
C5243 C5245 1.419 . S
C5243 H5247 0.930 . S
C5244 C5243 1.369 . S
C5244 C5253 1.429 . S
C5245 C5243 1.419 . S
C5245 C5246 1.363 . S
C5245 H5248 0.929 . S
C5246 C5245 1.363 . S
C5246 C5252 1.428 . S
H5247 C5243 0.930 . S
H5248 C5245 0.929 . S
S5249 N5250 1.613 . S
S5249 N5251 1.610 . S
N5250 S5249 1.613 . S
N5250 C5253 1.350 . S
N5251 S5249 1.610 . S
N5251 C5252 1.351 . S
C5252 C5246 1.428 . S
C5252 N5251 1.351 . S
C5252 C5253 1.434 . S
C5253 C5244 1.429 . S
C5253 N5250 1.350 . S
C5253 C5252 1.434 . S
C5254 C5255 1.369 . S
C5254 C5256 1.419 . S
C5254 H5258 0.930 . S
C5255 C5254 1.369 . S
C5255 C5264 1.429 . S
C5256 C5254 1.419 . S
C5256 C5257 1.363 . S
C5256 H5259 0.929 . S
C5257 C5256 1.363 . S
C5257 C5263 1.428 . S
H5258 C5254 0.930 . S
H5259 C5256 0.929 . S
S5260 N5261 1.613 . S
S5260 N5262 1.610 . S
N5261 S5260 1.613 . S
N5261 C5264 1.350 . S
N5262 S5260 1.610 . S
N5262 C5263 1.351 . S
C5263 C5257 1.428 . S
C5263 N5262 1.351 . S
C5263 C5264 1.434 . S
C5264 C5255 1.429 . S
C5264 N5261 1.350 . S
C5264 C5263 1.434 . S
C5265 C5266 1.369 . S
C5265 C5267 1.419 . S
C5265 H5269 0.930 . S
C5266 C5265 1.369 . S
C5266 C5275 1.429 . S
C5267 C5265 1.419 . S
C5267 C5268 1.363 . S
C5267 H5270 0.929 . S
C5268 C5267 1.363 . S
C5268 C5274 1.428 . S
H5269 C5265 0.930 . S
H5270 C5267 0.929 . S
S5271 N5272 1.613 . S
S5271 N5273 1.610 . S
N5272 S5271 1.613 . S
N5272 C5275 1.350 . S
N5273 S5271 1.610 . S
N5273 C5274 1.351 . S
C5274 C5268 1.428 . S
C5274 N5273 1.351 . S
C5274 C5275 1.434 . S
C5275 C5266 1.429 . S
C5275 N5272 1.350 . S
C5275 C5274 1.434 . S
C5276 C5277 1.369 . S
C5276 C5278 1.419 . S
C5276 H5280 0.930 . S
C5277 C5276 1.369 . S
C5277 C5286 1.429 . S
C5278 C5276 1.419 . S
C5278 C5279 1.363 . S
C5278 H5281 0.929 . S
C5279 C5278 1.363 . S
C5279 C5285 1.428 . S
H5280 C5276 0.930 . S
H5281 C5278 0.929 . S
S5282 N5283 1.613 . S
S5282 N5284 1.610 . S
N5283 S5282 1.613 . S
N5283 C5286 1.350 . S
N5284 S5282 1.610 . S
N5284 C5285 1.351 . S
C5285 C5279 1.428 . S
C5285 N5284 1.351 . S
C5285 C5286 1.434 . S
C5286 C5277 1.429 . S
C5286 N5283 1.350 . S
C5286 C5285 1.434 . S
C5287 C5288 1.369 . S
C5287 C5289 1.419 . S
C5287 H5291 0.930 . S
C5288 C5287 1.369 . S
C5288 C5297 1.429 . S
C5289 C5287 1.419 . S
C5289 C5290 1.363 . S
C5289 H5292 0.929 . S
C5290 C5289 1.363 . S
C5290 C5296 1.428 . S
H5291 C5287 0.930 . S
H5292 C5289 0.929 . S
S5293 N5294 1.613 . S
S5293 N5295 1.610 . S
N5294 S5293 1.613 . S
N5294 C5297 1.350 . S
N5295 S5293 1.610 . S
N5295 C5296 1.351 . S
C5296 C5290 1.428 . S
C5296 N5295 1.351 . S
C5296 C5297 1.434 . S
C5297 C5288 1.429 . S
C5297 N5294 1.350 . S
C5297 C5296 1.434 . S
C5298 C5299 1.369 . S
C5298 C5300 1.419 . S
C5298 H5302 0.930 . S
C5299 C5298 1.369 . S
C5299 C5308 1.429 . S
C5300 C5298 1.419 . S
C5300 C5301 1.363 . S
C5300 H5303 0.929 . S
C5301 C5300 1.363 . S
C5301 C5307 1.428 . S
H5302 C5298 0.930 . S
H5303 C5300 0.929 . S
S5304 N5305 1.613 . S
S5304 N5306 1.610 . S
N5305 S5304 1.613 . S
N5305 C5308 1.350 . S
N5306 S5304 1.610 . S
N5306 C5307 1.351 . S
C5307 C5301 1.428 . S
C5307 N5306 1.351 . S
C5307 C5308 1.434 . S
C5308 C5299 1.429 . S
C5308 N5305 1.350 . S
C5308 C5307 1.434 . S
C5309 C5310 1.369 . S
C5309 C5311 1.419 . S
C5309 H5313 0.930 . S
C5310 C5309 1.369 . S
C5310 C5319 1.429 . S
C5311 C5309 1.419 . S
C5311 C5312 1.363 . S
C5311 H5314 0.929 . S
C5312 C5311 1.363 . S
C5312 C5318 1.428 . S
H5313 C5309 0.930 . S
H5314 C5311 0.929 . S
S5315 N5316 1.613 . S
S5315 N5317 1.610 . S
N5316 S5315 1.613 . S
N5316 C5319 1.350 . S
N5317 S5315 1.610 . S
N5317 C5318 1.351 . S
C5318 C5312 1.428 . S
C5318 N5317 1.351 . S
C5318 C5319 1.434 . S
C5319 C5310 1.429 . S
C5319 N5316 1.350 . S
C5319 C5318 1.434 . S
C5320 C5321 1.369 . S
C5320 C5322 1.419 . S
C5320 H5324 0.930 . S
C5321 C5320 1.369 . S
C5321 C5330 1.429 . S
C5322 C5320 1.419 . S
C5322 C5323 1.363 . S
C5322 H5325 0.929 . S
C5323 C5322 1.363 . S
C5323 C5329 1.428 . S
H5324 C5320 0.930 . S
H5325 C5322 0.929 . S
S5326 N5327 1.613 . S
S5326 N5328 1.610 . S
N5327 S5326 1.613 . S
N5327 C5330 1.350 . S
N5328 S5326 1.610 . S
N5328 C5329 1.351 . S
C5329 C5323 1.428 . S
C5329 N5328 1.351 . S
C5329 C5330 1.434 . S
C5330 C5321 1.429 . S
C5330 N5327 1.350 . S
C5330 C5329 1.434 . S
C5331 C5332 1.369 . S
C5331 C5333 1.419 . S
C5331 H5335 0.930 . S
C5332 C5331 1.369 . S
C5332 C5341 1.429 . S
C5333 C5331 1.419 . S
C5333 C5334 1.363 . S
C5333 H5336 0.929 . S
C5334 C5333 1.363 . S
C5334 C5340 1.428 . S
H5335 C5331 0.930 . S
H5336 C5333 0.929 . S
S5337 N5338 1.613 . S
S5337 N5339 1.610 . S
N5338 S5337 1.613 . S
N5338 C5341 1.350 . S
N5339 S5337 1.610 . S
N5339 C5340 1.351 . S
C5340 C5334 1.428 . S
C5340 N5339 1.351 . S
C5340 C5341 1.434 . S
C5341 C5332 1.429 . S
C5341 N5338 1.350 . S
C5341 C5340 1.434 . S
C5342 C5343 1.369 . S
C5342 C5344 1.419 . S
C5342 H5346 0.930 . S
C5343 C5342 1.369 . S
C5343 C5352 1.429 . S
C5344 C5342 1.419 . S
C5344 C5345 1.363 . S
C5344 H5347 0.929 . S
C5345 C5344 1.363 . S
C5345 C5351 1.428 . S
H5346 C5342 0.930 . S
H5347 C5344 0.929 . S
S5348 N5349 1.613 . S
S5348 N5350 1.610 . S
N5349 S5348 1.613 . S
N5349 C5352 1.350 . S
N5350 S5348 1.610 . S
N5350 C5351 1.351 . S
C5351 C5345 1.428 . S
C5351 N5350 1.351 . S
C5351 C5352 1.434 . S
C5352 C5343 1.429 . S
C5352 N5349 1.350 . S
C5352 C5351 1.434 . S
C5353 C5354 1.369 . S
C5353 C5355 1.419 . S
C5353 H5357 0.930 . S
C5354 C5353 1.369 . S
C5354 C5363 1.429 . S
C5355 C5353 1.419 . S
C5355 C5356 1.363 . S
C5355 H5358 0.929 . S
C5356 C5355 1.363 . S
C5356 C5362 1.428 . S
H5357 C5353 0.930 . S
H5358 C5355 0.929 . S
S5359 N5360 1.613 . S
S5359 N5361 1.610 . S
N5360 S5359 1.613 . S
N5360 C5363 1.350 . S
N5361 S5359 1.610 . S
N5361 C5362 1.351 . S
C5362 C5356 1.428 . S
C5362 N5361 1.351 . S
C5362 C5363 1.434 . S
C5363 C5354 1.429 . S
C5363 N5360 1.350 . S
C5363 C5362 1.434 . S
C5364 C5365 1.369 . S
C5364 C5366 1.419 . S
C5364 H5368 0.930 . S
C5365 C5364 1.369 . S
C5365 C5374 1.429 . S
C5366 C5364 1.419 . S
C5366 C5367 1.363 . S
C5366 H5369 0.929 . S
C5367 C5366 1.363 . S
C5367 C5373 1.428 . S
H5368 C5364 0.930 . S
H5369 C5366 0.929 . S
S5370 N5371 1.613 . S
S5370 N5372 1.610 . S
N5371 S5370 1.613 . S
N5371 C5374 1.350 . S
N5372 S5370 1.610 . S
N5372 C5373 1.351 . S
C5373 C5367 1.428 . S
C5373 N5372 1.351 . S
C5373 C5374 1.434 . S
C5374 C5365 1.429 . S
C5374 N5371 1.350 . S
C5374 C5373 1.434 . S
C5375 C5376 1.369 . S
C5375 C5377 1.419 . S
C5375 H5379 0.930 . S
C5376 C5375 1.369 . S
C5376 C5385 1.429 . S
C5377 C5375 1.419 . S
C5377 C5378 1.363 . S
C5377 H5380 0.929 . S
C5378 C5377 1.363 . S
C5378 C5384 1.428 . S
H5379 C5375 0.930 . S
H5380 C5377 0.929 . S
S5381 N5382 1.613 . S
S5381 N5383 1.610 . S
N5382 S5381 1.613 . S
N5382 C5385 1.350 . S
N5383 S5381 1.610 . S
N5383 C5384 1.351 . S
C5384 C5378 1.428 . S
C5384 N5383 1.351 . S
C5384 C5385 1.434 . S
C5385 C5376 1.429 . S
C5385 N5382 1.350 . S
C5385 C5384 1.434 . S
C5386 C5387 1.369 . S
C5386 C5388 1.419 . S
C5386 H5390 0.930 . S
C5387 C5386 1.369 . S
C5387 C5396 1.429 . S
C5388 C5386 1.419 . S
C5388 C5389 1.363 . S
C5388 H5391 0.929 . S
C5389 C5388 1.363 . S
C5389 C5395 1.428 . S
H5390 C5386 0.930 . S
H5391 C5388 0.929 . S
S5392 N5393 1.613 . S
S5392 N5394 1.610 . S
N5393 S5392 1.613 . S
N5393 C5396 1.350 . S
N5394 S5392 1.610 . S
N5394 C5395 1.351 . S
C5395 C5389 1.428 . S
C5395 N5394 1.351 . S
C5395 C5396 1.434 . S
C5396 C5387 1.429 . S
C5396 N5393 1.350 . S
C5396 C5395 1.434 . S
C5397 C5398 1.369 . S
C5397 C5399 1.419 . S
C5397 H5401 0.930 . S
C5398 C5397 1.369 . S
C5398 C5407 1.429 . S
C5399 C5397 1.419 . S
C5399 C5400 1.363 . S
C5399 H5402 0.929 . S
C5400 C5399 1.363 . S
C5400 C5406 1.428 . S
H5401 C5397 0.930 . S
H5402 C5399 0.929 . S
S5403 N5404 1.613 . S
S5403 N5405 1.610 . S
N5404 S5403 1.613 . S
N5404 C5407 1.350 . S
N5405 S5403 1.610 . S
N5405 C5406 1.351 . S
C5406 C5400 1.428 . S
C5406 N5405 1.351 . S
C5406 C5407 1.434 . S
C5407 C5398 1.429 . S
C5407 N5404 1.350 . S
C5407 C5406 1.434 . S
C5408 C5409 1.369 . S
C5408 C5410 1.419 . S
C5408 H5412 0.930 . S
C5409 C5408 1.369 . S
C5409 C5418 1.429 . S
C5410 C5408 1.419 . S
C5410 C5411 1.363 . S
C5410 H5413 0.929 . S
C5411 C5410 1.363 . S
C5411 C5417 1.428 . S
H5412 C5408 0.930 . S
H5413 C5410 0.929 . S
S5414 N5415 1.613 . S
S5414 N5416 1.610 . S
N5415 S5414 1.613 . S
N5415 C5418 1.350 . S
N5416 S5414 1.610 . S
N5416 C5417 1.351 . S
C5417 C5411 1.428 . S
C5417 N5416 1.351 . S
C5417 C5418 1.434 . S
C5418 C5409 1.429 . S
C5418 N5415 1.350 . S
C5418 C5417 1.434 . S
C5419 C5420 1.369 . S
C5419 C5421 1.419 . S
C5419 H5423 0.930 . S
C5420 C5419 1.369 . S
C5420 C5429 1.429 . S
C5421 C5419 1.419 . S
C5421 C5422 1.363 . S
C5421 H5424 0.929 . S
C5422 C5421 1.363 . S
C5422 C5428 1.428 . S
H5423 C5419 0.930 . S
H5424 C5421 0.929 . S
S5425 N5426 1.613 . S
S5425 N5427 1.610 . S
N5426 S5425 1.613 . S
N5426 C5429 1.350 . S
N5427 S5425 1.610 . S
N5427 C5428 1.351 . S
C5428 C5422 1.428 . S
C5428 N5427 1.351 . S
C5428 C5429 1.434 . S
C5429 C5420 1.429 . S
C5429 N5426 1.350 . S
C5429 C5428 1.434 . S
C5430 C5431 1.369 . S
C5430 C5432 1.419 . S
C5430 H5434 0.930 . S
C5431 C5430 1.369 . S
C5431 C5440 1.429 . S
C5432 C5430 1.419 . S
C5432 C5433 1.363 . S
C5432 H5435 0.929 . S
C5433 C5432 1.363 . S
C5433 C5439 1.428 . S
H5434 C5430 0.930 . S
H5435 C5432 0.929 . S
S5436 N5437 1.613 . S
S5436 N5438 1.610 . S
N5437 S5436 1.613 . S
N5437 C5440 1.350 . S
N5438 S5436 1.610 . S
N5438 C5439 1.351 . S
C5439 C5433 1.428 . S
C5439 N5438 1.351 . S
C5439 C5440 1.434 . S
C5440 C5431 1.429 . S
C5440 N5437 1.350 . S
C5440 C5439 1.434 . S
C5441 C5442 1.369 . S
C5441 C5443 1.419 . S
C5441 H5445 0.930 . S
C5442 C5441 1.369 . S
C5442 C5451 1.429 . S
C5443 C5441 1.419 . S
C5443 C5444 1.363 1_556 S
C5443 H5446 0.929 . S
C5444 C5443 1.363 1_554 S
C5444 C5450 1.428 . S
H5445 C5441 0.930 . S
H5446 C5443 0.929 . S
S5447 N5448 1.540 1_554 S
S5447 N5449 1.610 . S
N5448 S5447 1.540 1_556 S
N5448 C5451 1.366 . S
N5449 S5447 1.610 . S
N5449 C5450 1.351 . S
C5450 C5444 1.428 . S
C5450 N5449 1.351 . S
C5450 C5451 1.434 1_554 S
C5451 C5442 1.429 . S
C5451 N5448 1.366 . S
C5451 C5450 1.434 1_556 S
C5452 C5453 1.369 . S
C5452 C5454 1.419 . S
C5452 H5456 0.930 . S
C5453 C5452 1.369 . S
C5453 C5462 1.429 . S
C5454 C5452 1.419 . S
C5454 C5455 1.363 . S
C5454 H5457 0.929 . S
C5455 C5454 1.363 . S
C5455 C5461 1.428 . S
H5456 C5452 0.930 . S
H5457 C5454 0.929 . S
S5458 N5459 1.613 . S
S5458 N5460 1.610 . S
N5459 S5458 1.613 . S
N5459 C5462 1.350 . S
N5460 S5458 1.610 . S
N5460 C5461 1.351 . S
C5461 C5455 1.428 . S
C5461 N5460 1.351 . S
C5461 C5462 1.434 . S
C5462 C5453 1.429 . S
C5462 N5459 1.350 . S
C5462 C5461 1.434 . S
C5463 C5464 1.369 . S
C5463 C5465 1.419 . S
C5463 H5467 0.930 . S
C5464 C5463 1.369 . S
C5464 C5473 1.429 . S
C5465 C5463 1.419 . S
C5465 C5466 1.363 1_554 S
C5465 H5468 0.941 . S
C5466 C5465 1.363 1_556 S
C5466 C5472 1.428 . S
H5467 C5463 0.930 . S
H5468 C5465 0.941 . S
S5469 N5470 1.613 1_556 S
S5469 N5471 1.610 . S
N5470 S5469 1.613 1_554 S
N5470 C5473 1.350 . S
N5471 S5469 1.610 . S
N5471 C5472 1.351 . S
C5472 C5466 1.428 . S
C5472 N5471 1.351 . S
C5472 C5473 1.434 1_556 S
C5473 C5464 1.429 . S
C5473 N5470 1.350 . S
C5473 C5472 1.434 1_554 S
C5474 C5475 1.369 . S
C5474 C5476 1.419 . S
C5474 H5478 0.930 . S
C5475 C5474 1.369 . S
C5475 C5484 1.429 . S
C5476 C5474 1.419 . S
C5476 C5477 1.363 . S
C5476 H5479 0.929 . S
C5477 C5476 1.363 . S
C5477 C5483 1.428 . S
H5478 C5474 0.930 . S
H5479 C5476 0.929 . S
S5480 N5481 1.613 . S
S5480 N5482 1.610 . S
N5481 S5480 1.613 . S
N5481 C5484 1.350 . S
N5482 S5480 1.610 . S
N5482 C5483 1.351 . S
C5483 C5477 1.428 . S
C5483 N5482 1.351 . S
C5483 C5484 1.434 . S
C5484 C5475 1.429 . S
C5484 N5481 1.350 . S
C5484 C5483 1.434 . S
C5485 C5486 1.369 . S
C5485 C5487 1.419 . S
C5485 H5489 0.930 . S
C5486 C5485 1.369 . S
C5486 C5495 1.429 . S
C5487 C5485 1.419 . S
C5487 C5488 1.363 . S
C5487 H5490 0.929 . S
C5488 C5487 1.363 . S
C5488 C5494 1.428 . S
H5489 C5485 0.930 . S
H5490 C5487 0.929 . S
S5491 N5492 1.613 . S
S5491 N5493 1.610 . S
N5492 S5491 1.613 . S
N5492 C5495 1.350 . S
N5493 S5491 1.610 . S
N5493 C5494 1.351 . S
C5494 C5488 1.428 . S
C5494 N5493 1.351 . S
C5494 C5495 1.434 . S
C5495 C5486 1.429 . S
C5495 N5492 1.350 . S
C5495 C5494 1.434 . S
C5496 C5497 1.369 . S
C5496 C5498 1.419 . S
C5496 H5500 0.930 . S
C5497 C5496 1.369 . S
C5497 C5506 1.429 . S
C5498 C5496 1.419 . S
C5498 C5499 1.363 . S
C5498 H5501 0.929 . S
C5499 C5498 1.363 . S
C5499 C5505 1.428 . S
H5500 C5496 0.930 . S
H5501 C5498 0.929 . S
S5502 N5503 1.613 . S
S5502 N5504 1.610 . S
N5503 S5502 1.613 . S
N5503 C5506 1.350 . S
N5504 S5502 1.610 . S
N5504 C5505 1.351 . S
C5505 C5499 1.428 . S
C5505 N5504 1.351 . S
C5505 C5506 1.434 . S
C5506 C5497 1.429 . S
C5506 N5503 1.350 . S
C5506 C5505 1.434 . S
C5507 C5508 1.369 . S
C5507 C5509 1.419 . S
C5507 H5511 0.930 . S
C5508 C5507 1.369 . S
C5508 C5517 1.429 . S
C5509 C5507 1.419 . S
C5509 C5510 1.363 . S
C5509 H5512 0.929 . S
C5510 C5509 1.363 . S
C5510 C5516 1.428 . S
H5511 C5507 0.930 . S
H5512 C5509 0.929 . S
S5513 N5514 1.613 . S
S5513 N5515 1.610 . S
N5514 S5513 1.613 . S
N5514 C5517 1.350 . S
N5515 S5513 1.610 . S
N5515 C5516 1.351 . S
C5516 C5510 1.428 . S
C5516 N5515 1.351 . S
C5516 C5517 1.434 . S
C5517 C5508 1.429 . S
C5517 N5514 1.350 . S
C5517 C5516 1.434 . S
C5518 C5519 1.369 . S
C5518 C5520 1.419 . S
C5518 H5522 0.930 . S
C5519 C5518 1.369 . S
C5519 C5528 1.429 . S
C5520 C5518 1.419 . S
C5520 C5521 1.363 . S
C5520 H5523 0.929 . S
C5521 C5520 1.363 . S
C5521 C5527 1.428 . S
H5522 C5518 0.930 . S
H5523 C5520 0.929 . S
S5524 N5525 1.613 . S
S5524 N5526 1.610 . S
N5525 S5524 1.613 . S
N5525 C5528 1.350 . S
N5526 S5524 1.610 . S
N5526 C5527 1.351 . S
C5527 C5521 1.428 . S
C5527 N5526 1.351 . S
C5527 C5528 1.434 . S
C5528 C5519 1.429 . S
C5528 N5525 1.350 . S
C5528 C5527 1.434 . S
C5529 C5530 1.369 . S
C5529 C5531 1.419 . S
C5529 H5533 0.930 . S
C5530 C5529 1.369 . S
C5530 C5539 1.429 . S
C5531 C5529 1.419 . S
C5531 C5532 1.363 . S
C5531 H5534 0.929 . S
C5532 C5531 1.363 . S
C5532 C5538 1.428 . S
H5533 C5529 0.930 . S
H5534 C5531 0.929 . S
S5535 N5536 1.613 . S
S5535 N5537 1.610 . S
N5536 S5535 1.613 . S
N5536 C5539 1.350 . S
N5537 S5535 1.610 . S
N5537 C5538 1.351 . S
C5538 C5532 1.428 . S
C5538 N5537 1.351 . S
C5538 C5539 1.434 . S
C5539 C5530 1.429 . S
C5539 N5536 1.350 . S
C5539 C5538 1.434 . S
C5540 C5541 1.369 . S
C5540 C5542 1.419 . S
C5540 H5544 0.930 . S
C5541 C5540 1.369 . S
C5541 C5550 1.429 . S
C5542 C5540 1.419 . S
C5542 C5543 1.363 . S
C5542 H5545 0.929 . S
C5543 C5542 1.363 . S
C5543 C5549 1.428 . S
H5544 C5540 0.930 . S
H5545 C5542 0.929 . S
S5546 N5547 1.613 . S
S5546 N5548 1.610 . S
N5547 S5546 1.613 . S
N5547 C5550 1.350 . S
N5548 S5546 1.610 . S
N5548 C5549 1.351 . S
C5549 C5543 1.428 . S
C5549 N5548 1.351 . S
C5549 C5550 1.434 . S
C5550 C5541 1.429 . S
C5550 N5547 1.350 . S
C5550 C5549 1.434 . S
C5551 C5552 1.369 . S
C5551 C5553 1.419 . S
C5551 H5555 0.930 . S
C5552 C5551 1.369 . S
C5552 C5561 1.429 . S
C5553 C5551 1.419 . S
C5553 C5554 1.363 . S
C5553 H5556 0.929 . S
C5554 C5553 1.363 . S
C5554 C5560 1.428 . S
H5555 C5551 0.930 . S
H5556 C5553 0.929 . S
S5557 N5558 1.613 . S
S5557 N5559 1.610 . S
N5558 S5557 1.613 . S
N5558 C5561 1.350 . S
N5559 S5557 1.610 . S
N5559 C5560 1.351 . S
C5560 C5554 1.428 . S
C5560 N5559 1.351 . S
C5560 C5561 1.434 . S
C5561 C5552 1.429 . S
C5561 N5558 1.350 . S
C5561 C5560 1.434 . S
C5562 C5563 1.369 . S
C5562 C5564 1.419 . S
C5562 H5566 0.930 . S
C5563 C5562 1.369 . S
C5563 C5572 1.429 . S
C5564 C5562 1.419 . S
C5564 C5565 1.363 . S
C5564 H5567 0.929 . S
C5565 C5564 1.363 . S
C5565 C5571 1.428 . S
H5566 C5562 0.930 . S
H5567 C5564 0.929 . S
S5568 N5569 1.613 . S
S5568 N5570 1.610 . S
N5569 S5568 1.613 . S
N5569 C5572 1.350 . S
N5570 S5568 1.610 . S
N5570 C5571 1.351 . S
C5571 C5565 1.428 . S
C5571 N5570 1.351 . S
C5571 C5572 1.434 . S
C5572 C5563 1.429 . S
C5572 N5569 1.350 . S
C5572 C5571 1.434 . S
C5573 C5574 1.369 . S
C5573 C5575 1.419 . S
C5573 H5577 0.930 . S
C5574 C5573 1.369 . S
C5574 C5583 1.429 . S
C5575 C5573 1.419 . S
C5575 C5576 1.363 . S
C5575 H5578 0.929 . S
C5576 C5575 1.363 . S
C5576 C5582 1.428 . S
H5577 C5573 0.930 . S
H5578 C5575 0.929 . S
S5579 N5580 1.613 . S
S5579 N5581 1.610 . S
N5580 S5579 1.613 . S
N5580 C5583 1.350 . S
N5581 S5579 1.610 . S
N5581 C5582 1.351 . S
C5582 C5576 1.428 . S
C5582 N5581 1.351 . S
C5582 C5583 1.434 . S
C5583 C5574 1.429 . S
C5583 N5580 1.350 . S
C5583 C5582 1.434 . S
C5584 C5585 1.369 . S
C5584 C5586 1.419 . S
C5584 H5588 0.930 . S
C5585 C5584 1.369 . S
C5585 C5594 1.429 . S
C5586 C5584 1.419 . S
C5586 C5587 1.363 . S
C5586 H5589 0.929 . S
C5587 C5586 1.363 . S
C5587 C5593 1.428 . S
H5588 C5584 0.930 . S
H5589 C5586 0.929 . S
S5590 N5591 1.613 . S
S5590 N5592 1.610 . S
N5591 S5590 1.613 . S
N5591 C5594 1.350 . S
N5592 S5590 1.610 . S
N5592 C5593 1.351 . S
C5593 C5587 1.428 . S
C5593 N5592 1.351 . S
C5593 C5594 1.434 . S
C5594 C5585 1.429 . S
C5594 N5591 1.350 . S
C5594 C5593 1.434 . S
C5595 C5596 1.369 . S
C5595 C5597 1.419 . S
C5595 H5599 0.930 . S
C5596 C5595 1.369 . S
C5596 C5605 1.429 . S
C5597 C5595 1.419 . S
C5597 C5598 1.363 . S
C5597 H5600 0.929 . S
C5598 C5597 1.363 . S
C5598 C5604 1.428 . S
H5599 C5595 0.930 . S
H5600 C5597 0.929 . S
S5601 N5602 1.613 . S
S5601 N5603 1.610 . S
N5602 S5601 1.613 . S
N5602 C5605 1.350 . S
N5603 S5601 1.610 . S
N5603 C5604 1.351 . S
C5604 C5598 1.428 . S
C5604 N5603 1.351 . S
C5604 C5605 1.434 . S
C5605 C5596 1.429 . S
C5605 N5602 1.350 . S
C5605 C5604 1.434 . S
C5606 C5607 1.369 . S
C5606 C5608 1.419 . S
C5606 H5610 0.930 . S
C5607 C5606 1.369 . S
C5607 C5616 1.429 . S
C5608 C5606 1.419 . S
C5608 C5609 1.363 . S
C5608 H5611 0.929 . S
C5609 C5608 1.363 . S
C5609 C5615 1.428 . S
H5610 C5606 0.930 . S
H5611 C5608 0.929 . S
S5612 N5613 1.613 . S
S5612 N5614 1.610 . S
N5613 S5612 1.613 . S
N5613 C5616 1.350 . S
N5614 S5612 1.610 . S
N5614 C5615 1.351 . S
C5615 C5609 1.428 . S
C5615 N5614 1.351 . S
C5615 C5616 1.434 . S
C5616 C5607 1.429 . S
C5616 N5613 1.350 . S
C5616 C5615 1.434 . S
C5617 C5618 1.369 . S
C5617 C5619 1.419 . S
C5617 H5621 0.930 . S
C5618 C5617 1.369 . S
C5618 C5627 1.429 . S
C5619 C5617 1.419 . S
C5619 C5620 1.363 . S
C5619 H5622 0.929 . S
C5620 C5619 1.363 . S
C5620 C5626 1.428 . S
H5621 C5617 0.930 . S
H5622 C5619 0.929 . S
S5623 N5624 1.613 . S
S5623 N5625 1.610 . S
N5624 S5623 1.613 . S
N5624 C5627 1.350 . S
N5625 S5623 1.610 . S
N5625 C5626 1.351 . S
C5626 C5620 1.428 . S
C5626 N5625 1.351 . S
C5626 C5627 1.434 . S
C5627 C5618 1.429 . S
C5627 N5624 1.350 . S
C5627 C5626 1.434 . S
C5628 C5629 1.369 . S
C5628 C5630 1.419 . S
C5628 H5632 0.930 . S
C5629 C5628 1.369 . S
C5629 C5638 1.429 . S
C5630 C5628 1.419 . S
C5630 C5631 1.363 . S
C5630 H5633 0.929 . S
C5631 C5630 1.363 . S
C5631 C5637 1.428 . S
H5632 C5628 0.930 . S
H5633 C5630 0.929 . S
S5634 N5635 1.613 . S
S5634 N5636 1.610 . S
N5635 S5634 1.613 . S
N5635 C5638 1.350 . S
N5636 S5634 1.610 . S
N5636 C5637 1.351 . S
C5637 C5631 1.428 . S
C5637 N5636 1.351 . S
C5637 C5638 1.434 . S
C5638 C5629 1.429 . S
C5638 N5635 1.350 . S
C5638 C5637 1.434 . S
C5639 C5640 1.369 . S
C5639 C5641 1.419 . S
C5639 H5643 0.930 . S
C5640 C5639 1.369 . S
C5640 C5649 1.429 . S
C5641 C5639 1.419 . S
C5641 C5642 1.363 . S
C5641 H5644 0.929 . S
C5642 C5641 1.363 . S
C5642 C5648 1.428 . S
H5643 C5639 0.930 . S
H5644 C5641 0.929 . S
S5645 N5646 1.613 . S
S5645 N5647 1.610 . S
N5646 S5645 1.613 . S
N5646 C5649 1.350 . S
N5647 S5645 1.610 . S
N5647 C5648 1.351 . S
C5648 C5642 1.428 . S
C5648 N5647 1.351 . S
C5648 C5649 1.434 . S
C5649 C5640 1.429 . S
C5649 N5646 1.350 . S
C5649 C5648 1.434 . S
C5650 C5651 1.369 . S
C5650 C5652 1.419 . S
C5650 H5654 0.930 . S
C5651 C5650 1.369 . S
C5651 C5660 1.429 . S
C5652 C5650 1.419 . S
C5652 C5653 1.363 . S
C5652 H5655 0.929 . S
C5653 C5652 1.363 . S
C5653 C5659 1.428 . S
H5654 C5650 0.930 . S
H5655 C5652 0.929 . S
S5656 N5657 1.613 . S
S5656 N5658 1.610 . S
N5657 S5656 1.613 . S
N5657 C5660 1.350 . S
N5658 S5656 1.610 . S
N5658 C5659 1.351 . S
C5659 C5653 1.428 . S
C5659 N5658 1.351 . S
C5659 C5660 1.434 . S
C5660 C5651 1.429 . S
C5660 N5657 1.350 . S
C5660 C5659 1.434 . S
C5661 C5662 1.369 . S
C5661 C5663 1.419 . S
C5661 H5665 0.930 . S
C5662 C5661 1.369 . S
C5662 C5671 1.429 . S
C5663 C5661 1.419 . S
C5663 C5664 1.363 . S
C5663 H5666 0.929 . S
C5664 C5663 1.363 . S
C5664 C5670 1.428 . S
H5665 C5661 0.930 . S
H5666 C5663 0.929 . S
S5667 N5668 1.613 . S
S5667 N5669 1.610 . S
N5668 S5667 1.613 . S
N5668 C5671 1.350 . S
N5669 S5667 1.610 . S
N5669 C5670 1.351 . S
C5670 C5664 1.428 . S
C5670 N5669 1.351 . S
C5670 C5671 1.434 . S
C5671 C5662 1.429 . S
C5671 N5668 1.350 . S
C5671 C5670 1.434 . S
C5672 C5673 1.369 . S
C5672 C5674 1.419 . S
C5672 H5676 0.930 . S
C5673 C5672 1.369 . S
C5673 C5682 1.429 . S
C5674 C5672 1.419 . S
C5674 C5675 1.363 . S
C5674 H5677 0.929 . S
C5675 C5674 1.363 . S
C5675 C5681 1.428 . S
H5676 C5672 0.930 . S
H5677 C5674 0.929 . S
S5678 N5679 1.613 . S
S5678 N5680 1.610 . S
N5679 S5678 1.613 . S
N5679 C5682 1.350 . S
N5680 S5678 1.610 . S
N5680 C5681 1.351 . S
C5681 C5675 1.428 . S
C5681 N5680 1.351 . S
C5681 C5682 1.434 . S
C5682 C5673 1.429 . S
C5682 N5679 1.350 . S
C5682 C5681 1.434 . S
C5683 C5684 1.369 . S
C5683 C5685 1.419 . S
C5683 H5687 0.930 . S
C5684 C5683 1.369 . S
C5684 C5693 1.429 . S
C5685 C5683 1.419 . S
C5685 C5686 1.363 . S
C5685 H5688 0.929 . S
C5686 C5685 1.363 . S
C5686 C5692 1.428 . S
H5687 C5683 0.930 . S
H5688 C5685 0.929 . S
S5689 N5690 1.613 . S
S5689 N5691 1.610 . S
N5690 S5689 1.613 . S
N5690 C5693 1.350 . S
N5691 S5689 1.610 . S
N5691 C5692 1.351 . S
C5692 C5686 1.428 . S
C5692 N5691 1.351 . S
C5692 C5693 1.434 . S
C5693 C5684 1.429 . S
C5693 N5690 1.350 . S
C5693 C5692 1.434 . S
C5694 C5695 1.369 . S
C5694 C5696 1.419 . S
C5694 H5698 0.930 . S
C5695 C5694 1.369 . S
C5695 C5704 1.429 . S
C5696 C5694 1.419 . S
C5696 C5697 1.363 . S
C5696 H5699 0.929 . S
C5697 C5696 1.363 . S
C5697 C5703 1.428 . S
H5698 C5694 0.930 . S
H5699 C5696 0.929 . S
S5700 N5701 1.613 . S
S5700 N5702 1.610 . S
N5701 S5700 1.613 . S
N5701 C5704 1.350 . S
N5702 S5700 1.610 . S
N5702 C5703 1.351 . S
C5703 C5697 1.428 . S
C5703 N5702 1.351 . S
C5703 C5704 1.434 . S
C5704 C5695 1.429 . S
C5704 N5701 1.350 . S
C5704 C5703 1.434 . S
C5705 C5706 1.369 . S
C5705 C5707 1.419 . S
C5705 H5709 0.930 . S
C5706 C5705 1.369 . S
C5706 C5715 1.429 . S
C5707 C5705 1.419 . S
C5707 C5708 1.363 . S
C5707 H5710 0.929 . S
C5708 C5707 1.363 . S
C5708 C5714 1.428 . S
H5709 C5705 0.930 . S
H5710 C5707 0.929 . S
S5711 N5712 1.613 . S
S5711 N5713 1.610 . S
N5712 S5711 1.613 . S
N5712 C5715 1.350 . S
N5713 S5711 1.610 . S
N5713 C5714 1.351 . S
C5714 C5708 1.428 . S
C5714 N5713 1.351 . S
C5714 C5715 1.434 . S
C5715 C5706 1.429 . S
C5715 N5712 1.350 . S
C5715 C5714 1.434 . S
C5716 C5717 1.369 . S
C5716 C5718 1.419 . S
C5716 H5720 0.930 . S
C5717 C5716 1.369 . S
C5717 C5726 1.429 . S
C5718 C5716 1.419 . S
C5718 C5719 1.363 . S
C5718 H5721 0.929 . S
C5719 C5718 1.363 . S
C5719 C5725 1.428 . S
H5720 C5716 0.930 . S
H5721 C5718 0.929 . S
S5722 N5723 1.613 . S
S5722 N5724 1.610 . S
N5723 S5722 1.613 . S
N5723 C5726 1.350 . S
N5724 S5722 1.610 . S
N5724 C5725 1.351 . S
C5725 C5719 1.428 . S
C5725 N5724 1.351 . S
C5725 C5726 1.434 . S
C5726 C5717 1.429 . S
C5726 N5723 1.350 . S
C5726 C5725 1.434 . S
C5727 C5728 1.369 . S
C5727 C5729 1.419 . S
C5727 H5731 0.930 . S
C5728 C5727 1.369 . S
C5728 C5737 1.429 . S
C5729 C5727 1.419 . S
C5729 C5730 1.363 . S
C5729 H5732 0.929 . S
C5730 C5729 1.363 . S
C5730 C5736 1.428 . S
H5731 C5727 0.930 . S
H5732 C5729 0.929 . S
S5733 N5734 1.613 . S
S5733 N5735 1.610 . S
N5734 S5733 1.613 . S
N5734 C5737 1.350 . S
N5735 S5733 1.610 . S
N5735 C5736 1.351 . S
C5736 C5730 1.428 . S
C5736 N5735 1.351 . S
C5736 C5737 1.434 . S
C5737 C5728 1.429 . S
C5737 N5734 1.350 . S
C5737 C5736 1.434 . S
C5738 C5739 1.369 . S
C5738 C5740 1.419 . S
C5738 H5742 0.930 . S
C5739 C5738 1.369 . S
C5739 C5748 1.429 . S
C5740 C5738 1.419 . S
C5740 C5741 1.363 . S
C5740 H5743 0.929 . S
C5741 C5740 1.363 . S
C5741 C5747 1.428 . S
H5742 C5738 0.930 . S
H5743 C5740 0.929 . S
S5744 N5745 1.613 . S
S5744 N5746 1.610 . S
N5745 S5744 1.613 . S
N5745 C5748 1.350 . S
N5746 S5744 1.610 . S
N5746 C5747 1.351 . S
C5747 C5741 1.428 . S
C5747 N5746 1.351 . S
C5747 C5748 1.434 . S
C5748 C5739 1.429 . S
C5748 N5745 1.350 . S
C5748 C5747 1.434 . S
C5749 C5750 1.369 . S
C5749 C5751 1.419 . S
C5749 H5753 0.930 . S
C5750 C5749 1.369 . S
C5750 C5759 1.429 . S
C5751 C5749 1.419 . S
C5751 C5752 1.363 . S
C5751 H5754 0.929 . S
C5752 C5751 1.363 . S
C5752 C5758 1.428 . S
H5753 C5749 0.930 . S
H5754 C5751 0.929 . S
S5755 N5756 1.613 . S
S5755 N5757 1.610 . S
N5756 S5755 1.613 . S
N5756 C5759 1.350 . S
N5757 S5755 1.610 . S
N5757 C5758 1.351 . S
C5758 C5752 1.428 . S
C5758 N5757 1.351 . S
C5758 C5759 1.434 . S
C5759 C5750 1.429 . S
C5759 N5756 1.350 . S
C5759 C5758 1.434 . S
C5760 C5761 1.369 . S
C5760 C5762 1.419 . S
C5760 H5764 0.930 . S
C5761 C5760 1.369 . S
C5761 C5770 1.429 . S
C5762 C5760 1.419 . S
C5762 C5763 1.363 . S
C5762 H5765 0.929 . S
C5763 C5762 1.363 . S
C5763 C5769 1.428 . S
H5764 C5760 0.930 . S
H5765 C5762 0.929 . S
S5766 N5767 1.613 . S
S5766 N5768 1.610 . S
N5767 S5766 1.613 . S
N5767 C5770 1.350 . S
N5768 S5766 1.610 . S
N5768 C5769 1.351 . S
C5769 C5763 1.428 . S
C5769 N5768 1.351 . S
C5769 C5770 1.434 . S
C5770 C5761 1.429 . S
C5770 N5767 1.350 . S
C5770 C5769 1.434 . S
C5771 C5772 1.369 . S
C5771 C5773 1.419 . S
C5771 H5775 0.930 . S
C5772 C5771 1.369 . S
C5772 C5781 1.429 . S
C5773 C5771 1.419 . S
C5773 C5774 1.363 . S
C5773 H5776 0.929 . S
C5774 C5773 1.363 . S
C5774 C5780 1.428 . S
H5775 C5771 0.930 . S
H5776 C5773 0.929 . S
S5777 N5778 1.613 . S
S5777 N5779 1.610 . S
N5778 S5777 1.613 . S
N5778 C5781 1.350 . S
N5779 S5777 1.610 . S
N5779 C5780 1.351 . S
C5780 C5774 1.428 . S
C5780 N5779 1.351 . S
C5780 C5781 1.434 . S
C5781 C5772 1.429 . S
C5781 N5778 1.350 . S
C5781 C5780 1.434 . S
C5782 C5783 1.369 . S
C5782 C5784 1.419 . S
C5782 H5786 0.930 . S
C5783 C5782 1.369 . S
C5783 C5792 1.429 . S
C5784 C5782 1.419 . S
C5784 C5785 1.363 . S
C5784 H5787 0.929 . S
C5785 C5784 1.363 . S
C5785 C5791 1.428 . S
H5786 C5782 0.930 . S
H5787 C5784 0.929 . S
S5788 N5789 1.613 . S
S5788 N5790 1.610 . S
N5789 S5788 1.613 . S
N5789 C5792 1.350 . S
N5790 S5788 1.610 . S
N5790 C5791 1.351 . S
C5791 C5785 1.428 . S
C5791 N5790 1.351 . S
C5791 C5792 1.434 . S
C5792 C5783 1.429 . S
C5792 N5789 1.350 . S
C5792 C5791 1.434 . S
C5793 C5794 1.369 . S
C5793 C5795 1.419 . S
C5793 H5797 0.930 . S
C5794 C5793 1.369 . S
C5794 C5803 1.429 . S
C5795 C5793 1.419 . S
C5795 C5796 1.363 . S
C5795 H5798 0.929 . S
C5796 C5795 1.363 . S
C5796 C5802 1.428 . S
H5797 C5793 0.930 . S
H5798 C5795 0.929 . S
S5799 N5800 1.613 . S
S5799 N5801 1.610 . S
N5800 S5799 1.613 . S
N5800 C5803 1.350 . S
N5801 S5799 1.610 . S
N5801 C5802 1.351 . S
C5802 C5796 1.428 . S
C5802 N5801 1.351 . S
C5802 C5803 1.434 . S
C5803 C5794 1.429 . S
C5803 N5800 1.350 . S
C5803 C5802 1.434 . S
C5804 C5805 1.369 . S
C5804 C5806 1.419 . S
C5804 H5808 0.930 . S
C5805 C5804 1.369 . S
C5805 C5814 1.429 . S
C5806 C5804 1.419 . S
C5806 C5807 1.363 . S
C5806 H5809 0.929 . S
C5807 C5806 1.363 . S
C5807 C5813 1.428 . S
H5808 C5804 0.930 . S
H5809 C5806 0.929 . S
S5810 N5811 1.613 . S
S5810 N5812 1.610 . S
N5811 S5810 1.613 . S
N5811 C5814 1.350 . S
N5812 S5810 1.610 . S
N5812 C5813 1.351 . S
C5813 C5807 1.428 . S
C5813 N5812 1.351 . S
C5813 C5814 1.434 . S
C5814 C5805 1.429 . S
C5814 N5811 1.350 . S
C5814 C5813 1.434 . S
C5815 C5816 1.369 . S
C5815 C5817 1.419 . S
C5815 H5819 0.930 . S
C5816 C5815 1.369 . S
C5816 C5825 1.429 . S
C5817 C5815 1.419 . S
C5817 C5818 1.363 . S
C5817 H5820 0.929 . S
C5818 C5817 1.363 . S
C5818 C5824 1.428 . S
H5819 C5815 0.930 . S
H5820 C5817 0.929 . S
S5821 N5822 1.613 . S
S5821 N5823 1.610 . S
N5822 S5821 1.613 . S
N5822 C5825 1.350 . S
N5823 S5821 1.610 . S
N5823 C5824 1.351 . S
C5824 C5818 1.428 . S
C5824 N5823 1.351 . S
C5824 C5825 1.434 . S
C5825 C5816 1.429 . S
C5825 N5822 1.350 . S
C5825 C5824 1.434 . S
C5826 C5827 1.369 . S
C5826 C5828 1.419 . S
C5826 H5830 0.930 . S
C5827 C5826 1.369 . S
C5827 C5836 1.429 . S
C5828 C5826 1.419 . S
C5828 C5829 1.363 . S
C5828 H5831 0.929 . S
C5829 C5828 1.363 . S
C5829 C5835 1.428 . S
H5830 C5826 0.930 . S
H5831 C5828 0.929 . S
S5832 N5833 1.613 . S
S5832 N5834 1.610 . S
N5833 S5832 1.613 . S
N5833 C5836 1.350 . S
N5834 S5832 1.610 . S
N5834 C5835 1.351 . S
C5835 C5829 1.428 . S
C5835 N5834 1.351 . S
C5835 C5836 1.434 . S
C5836 C5827 1.429 . S
C5836 N5833 1.350 . S
C5836 C5835 1.434 . S
C5837 C5838 1.369 . S
C5837 C5839 1.419 . S
C5837 H5841 0.930 . S
C5838 C5837 1.369 . S
C5838 C5847 1.429 . S
C5839 C5837 1.419 . S
C5839 C5840 1.363 . S
C5839 H5842 0.929 . S
C5840 C5839 1.363 . S
C5840 C5846 1.428 . S
H5841 C5837 0.930 . S
H5842 C5839 0.929 . S
S5843 N5844 1.613 . S
S5843 N5845 1.610 . S
N5844 S5843 1.613 . S
N5844 C5847 1.350 . S
N5845 S5843 1.610 . S
N5845 C5846 1.351 . S
C5846 C5840 1.428 . S
C5846 N5845 1.351 . S
C5846 C5847 1.434 . S
C5847 C5838 1.429 . S
C5847 N5844 1.350 . S
C5847 C5846 1.434 . S
C5848 C5849 1.369 . S
C5848 C5850 1.419 . S
C5848 H5852 0.930 . S
C5849 C5848 1.369 . S
C5849 C5858 1.429 . S
C5850 C5848 1.419 . S
C5850 C5851 1.363 . S
C5850 H5853 0.929 . S
C5851 C5850 1.363 . S
C5851 C5857 1.428 . S
H5852 C5848 0.930 . S
H5853 C5850 0.929 . S
S5854 N5855 1.613 . S
S5854 N5856 1.610 . S
N5855 S5854 1.613 . S
N5855 C5858 1.350 . S
N5856 S5854 1.610 . S
N5856 C5857 1.351 . S
C5857 C5851 1.428 . S
C5857 N5856 1.351 . S
C5857 C5858 1.434 . S
C5858 C5849 1.429 . S
C5858 N5855 1.350 . S
C5858 C5857 1.434 . S
C5859 C5860 1.369 . S
C5859 C5861 1.419 . S
C5859 H5863 0.930 . S
C5860 C5859 1.369 . S
C5860 C5869 1.429 . S
C5861 C5859 1.419 . S
C5861 C5862 1.363 . S
C5861 H5864 0.929 . S
C5862 C5861 1.363 . S
C5862 C5868 1.428 . S
H5863 C5859 0.930 . S
H5864 C5861 0.929 . S
S5865 N5866 1.613 . S
S5865 N5867 1.610 . S
N5866 S5865 1.613 . S
N5866 C5869 1.350 . S
N5867 S5865 1.610 . S
N5867 C5868 1.351 . S
C5868 C5862 1.428 . S
C5868 N5867 1.351 . S
C5868 C5869 1.434 . S
C5869 C5860 1.429 . S
C5869 N5866 1.350 . S
C5869 C5868 1.434 . S
C5870 C5871 1.369 . S
C5870 C5872 1.419 . S
C5870 H5874 0.930 . S
C5871 C5870 1.369 . S
C5871 C5880 1.429 . S
C5872 C5870 1.419 . S
C5872 C5873 1.363 . S
C5872 H5875 0.929 . S
C5873 C5872 1.363 . S
C5873 C5879 1.428 . S
H5874 C5870 0.930 . S
H5875 C5872 0.929 . S
S5876 N5877 1.613 . S
S5876 N5878 1.610 . S
N5877 S5876 1.613 . S
N5877 C5880 1.350 . S
N5878 S5876 1.610 . S
N5878 C5879 1.351 . S
C5879 C5873 1.428 . S
C5879 N5878 1.351 . S
C5879 C5880 1.434 . S
C5880 C5871 1.429 . S
C5880 N5877 1.350 . S
C5880 C5879 1.434 . S
C5881 C5882 1.369 . S
C5881 C5883 1.419 . S
C5881 H5885 0.930 . S
C5882 C5881 1.369 . S
C5882 C5891 1.429 . S
C5883 C5881 1.419 . S
C5883 C5884 1.363 . S
C5883 H5886 0.929 . S
C5884 C5883 1.363 . S
C5884 C5890 1.428 . S
H5885 C5881 0.930 . S
H5886 C5883 0.929 . S
S5887 N5888 1.613 . S
S5887 N5889 1.610 . S
N5888 S5887 1.613 . S
N5888 C5891 1.350 . S
N5889 S5887 1.610 . S
N5889 C5890 1.351 . S
C5890 C5884 1.428 . S
C5890 N5889 1.351 . S
C5890 C5891 1.434 . S
C5891 C5882 1.429 . S
C5891 N5888 1.350 . S
C5891 C5890 1.434 . S
C5892 C5893 1.369 . S
C5892 C5894 1.419 . S
C5892 H5896 0.930 . S
C5893 C5892 1.369 . S
C5893 C5902 1.429 . S
C5894 C5892 1.419 . S
C5894 C5895 1.363 . S
C5894 H5897 0.929 . S
C5895 C5894 1.363 . S
C5895 C5901 1.428 . S
H5896 C5892 0.930 . S
H5897 C5894 0.929 . S
S5898 N5899 1.613 . S
S5898 N5900 1.610 . S
N5899 S5898 1.613 . S
N5899 C5902 1.350 . S
N5900 S5898 1.610 . S
N5900 C5901 1.351 . S
C5901 C5895 1.428 . S
C5901 N5900 1.351 . S
C5901 C5902 1.434 . S
C5902 C5893 1.429 . S
C5902 N5899 1.350 . S
C5902 C5901 1.434 . S
C5903 C5904 1.369 . S
C5903 C5905 1.419 . S
C5903 H5907 0.930 . S
C5904 C5903 1.369 . S
C5904 C5913 1.429 . S
C5905 C5903 1.419 . S
C5905 C5906 1.363 . S
C5905 H5908 0.929 . S
C5906 C5905 1.363 . S
C5906 C5912 1.428 . S
H5907 C5903 0.930 . S
H5908 C5905 0.929 . S
S5909 N5910 1.613 . S
S5909 N5911 1.610 . S
N5910 S5909 1.613 . S
N5910 C5913 1.350 . S
N5911 S5909 1.610 . S
N5911 C5912 1.351 . S
C5912 C5906 1.428 . S
C5912 N5911 1.351 . S
C5912 C5913 1.434 . S
C5913 C5904 1.429 . S
C5913 N5910 1.350 . S
C5913 C5912 1.434 . S
C5914 C5915 1.369 . S
C5914 C5916 1.419 . S
C5914 H5918 0.930 . S
C5915 C5914 1.369 . S
C5915 C5924 1.429 . S
C5916 C5914 1.419 . S
C5916 C5917 1.363 . S
C5916 H5919 0.929 . S
C5917 C5916 1.363 . S
C5917 C5923 1.428 . S
H5918 C5914 0.930 . S
H5919 C5916 0.929 . S
S5920 N5921 1.613 . S
S5920 N5922 1.610 . S
N5921 S5920 1.613 . S
N5921 C5924 1.350 . S
N5922 S5920 1.610 . S
N5922 C5923 1.351 . S
C5923 C5917 1.428 . S
C5923 N5922 1.351 . S
C5923 C5924 1.434 . S
C5924 C5915 1.429 . S
C5924 N5921 1.350 . S
C5924 C5923 1.434 . S
C5925 C5926 1.369 . S
C5925 C5927 1.419 . S
C5925 H5929 0.930 . S
C5926 C5925 1.369 . S
C5926 C5935 1.429 . S
C5927 C5925 1.419 . S
C5927 C5928 1.363 . S
C5927 H5930 0.929 . S
C5928 C5927 1.363 . S
C5928 C5934 1.428 . S
H5929 C5925 0.930 . S
H5930 C5927 0.929 . S
S5931 N5932 1.613 . S
S5931 N5933 1.610 . S
N5932 S5931 1.613 . S
N5932 C5935 1.350 . S
N5933 S5931 1.610 . S
N5933 C5934 1.351 . S
C5934 C5928 1.428 . S
C5934 N5933 1.351 . S
C5934 C5935 1.434 . S
C5935 C5926 1.429 . S
C5935 N5932 1.350 . S
C5935 C5934 1.434 . S
C5936 C5937 1.369 . S
C5936 C5938 1.419 . S
C5936 H5940 0.930 . S
C5937 C5936 1.369 . S
C5937 C5946 1.429 . S
C5938 C5936 1.419 . S
C5938 C5939 1.363 . S
C5938 H5941 0.929 . S
C5939 C5938 1.363 . S
C5939 C5945 1.428 . S
H5940 C5936 0.930 . S
H5941 C5938 0.929 . S
S5942 N5943 1.613 . S
S5942 N5944 1.610 . S
N5943 S5942 1.613 . S
N5943 C5946 1.350 . S
N5944 S5942 1.610 . S
N5944 C5945 1.351 . S
C5945 C5939 1.428 . S
C5945 N5944 1.351 . S
C5945 C5946 1.434 . S
C5946 C5937 1.429 . S
C5946 N5943 1.350 . S
C5946 C5945 1.434 . S
C5947 C5948 1.369 . S
C5947 C5949 1.419 . S
C5947 H5951 0.930 . S
C5948 C5947 1.369 . S
C5948 C5957 1.429 . S
C5949 C5947 1.419 . S
C5949 C5950 1.363 . S
C5949 H5952 0.929 . S
C5950 C5949 1.363 . S
C5950 C5956 1.428 . S
H5951 C5947 0.930 . S
H5952 C5949 0.929 . S
S5953 N5954 1.613 . S
S5953 N5955 1.610 . S
N5954 S5953 1.613 . S
N5954 C5957 1.350 . S
N5955 S5953 1.610 . S
N5955 C5956 1.351 . S
C5956 C5950 1.428 . S
C5956 N5955 1.351 . S
C5956 C5957 1.434 . S
C5957 C5948 1.429 . S
C5957 N5954 1.350 . S
C5957 C5956 1.434 . S
C5958 C5959 1.369 . S
C5958 C5960 1.419 . S
C5958 H5962 0.930 . S
C5959 C5958 1.369 . S
C5959 C5968 1.429 . S
C5960 C5958 1.419 . S
C5960 C5961 1.363 . S
C5960 H5963 0.929 . S
C5961 C5960 1.363 . S
C5961 C5967 1.428 . S
H5962 C5958 0.930 . S
H5963 C5960 0.929 . S
S5964 N5965 1.613 . S
S5964 N5966 1.610 . S
N5965 S5964 1.613 . S
N5965 C5968 1.350 . S
N5966 S5964 1.610 . S
N5966 C5967 1.351 . S
C5967 C5961 1.428 . S
C5967 N5966 1.351 . S
C5967 C5968 1.434 . S
C5968 C5959 1.429 . S
C5968 N5965 1.350 . S
C5968 C5967 1.434 . S
C5969 C5970 1.369 . S
C5969 C5971 1.419 . S
C5969 H5973 0.930 . S
C5970 C5969 1.369 . S
C5970 C5979 1.429 . S
C5971 C5969 1.419 . S
C5971 C5972 1.363 . S
C5971 H5974 0.929 . S
C5972 C5971 1.363 . S
C5972 C5978 1.428 . S
H5973 C5969 0.930 . S
H5974 C5971 0.929 . S
S5975 N5976 1.613 . S
S5975 N5977 1.610 . S
N5976 S5975 1.613 . S
N5976 C5979 1.350 . S
N5977 S5975 1.610 . S
N5977 C5978 1.351 . S
C5978 C5972 1.428 . S
C5978 N5977 1.351 . S
C5978 C5979 1.434 . S
C5979 C5970 1.429 . S
C5979 N5976 1.350 . S
C5979 C5978 1.434 . S
C5980 C5981 1.369 . S
C5980 C5982 1.419 . S
C5980 H5984 0.930 . S
C5981 C5980 1.369 . S
C5981 C5990 1.429 . S
C5982 C5980 1.419 . S
C5982 C5983 1.363 . S
C5982 H5985 0.929 . S
C5983 C5982 1.363 . S
C5983 C5989 1.428 . S
H5984 C5980 0.930 . S
H5985 C5982 0.929 . S
S5986 N5987 1.613 . S
S5986 N5988 1.610 . S
N5987 S5986 1.613 . S
N5987 C5990 1.350 . S
N5988 S5986 1.610 . S
N5988 C5989 1.351 . S
C5989 C5983 1.428 . S
C5989 N5988 1.351 . S
C5989 C5990 1.434 . S
C5990 C5981 1.429 . S
C5990 N5987 1.350 . S
C5990 C5989 1.434 . S
C5991 C5992 1.369 . S
C5991 C5993 1.419 . S
C5991 H5995 0.930 . S
C5992 C5991 1.369 . S
C5992 C6001 1.429 . S
C5993 C5991 1.419 . S
C5993 C5994 1.363 . S
C5993 H5996 0.929 . S
C5994 C5993 1.363 . S
C5994 C6000 1.428 . S
H5995 C5991 0.930 . S
H5996 C5993 0.929 . S
S5997 N5998 1.613 . S
S5997 N5999 1.610 . S
N5998 S5997 1.613 . S
N5998 C6001 1.350 . S
N5999 S5997 1.610 . S
N5999 C6000 1.351 . S
C6000 C5994 1.428 . S
C6000 N5999 1.351 . S
C6000 C6001 1.434 . S
C6001 C5992 1.429 . S
C6001 N5998 1.350 . S
C6001 C6000 1.434 . S
C6002 C6003 1.369 . S
C6002 C6004 1.419 . S
C6002 H6006 0.930 . S
C6003 C6002 1.369 . S
C6003 C6012 1.429 . S
C6004 C6002 1.419 . S
C6004 C6005 1.363 . S
C6004 H6007 0.929 . S
C6005 C6004 1.363 . S
C6005 C6011 1.428 . S
H6006 C6002 0.930 . S
H6007 C6004 0.929 . S
S6008 N6009 1.613 . S
S6008 N6010 1.610 . S
N6009 S6008 1.613 . S
N6009 C6012 1.350 . S
N6010 S6008 1.610 . S
N6010 C6011 1.351 . S
C6011 C6005 1.428 . S
C6011 N6010 1.351 . S
C6011 C6012 1.434 . S
C6012 C6003 1.429 . S
C6012 N6009 1.350 . S
C6012 C6011 1.434 . S
C6013 C6014 1.369 . S
C6013 C6015 1.419 . S
C6013 H6017 0.930 . S
C6014 C6013 1.369 . S
C6014 C6023 1.429 . S
C6015 C6013 1.419 . S
C6015 C6016 1.363 . S
C6015 H6018 0.929 . S
C6016 C6015 1.363 . S
C6016 C6022 1.428 . S
H6017 C6013 0.930 . S
H6018 C6015 0.929 . S
S6019 N6020 1.613 . S
S6019 N6021 1.610 . S
N6020 S6019 1.613 . S
N6020 C6023 1.350 . S
N6021 S6019 1.610 . S
N6021 C6022 1.351 . S
C6022 C6016 1.428 . S
C6022 N6021 1.351 . S
C6022 C6023 1.434 . S
C6023 C6014 1.429 . S
C6023 N6020 1.350 . S
C6023 C6022 1.434 . S
C6024 C6025 1.369 . S
C6024 C6026 1.419 . S
C6024 H6028 0.930 . S
C6025 C6024 1.369 . S
C6025 C6034 1.429 . S
C6026 C6024 1.419 . S
C6026 C6027 1.363 . S
C6026 H6029 0.929 . S
C6027 C6026 1.363 . S
C6027 C6033 1.428 . S
H6028 C6024 0.930 . S
H6029 C6026 0.929 . S
S6030 N6031 1.613 . S
S6030 N6032 1.610 . S
N6031 S6030 1.613 . S
N6031 C6034 1.350 . S
N6032 S6030 1.610 . S
N6032 C6033 1.351 . S
C6033 C6027 1.428 . S
C6033 N6032 1.351 . S
C6033 C6034 1.434 . S
C6034 C6025 1.429 . S
C6034 N6031 1.350 . S
C6034 C6033 1.434 . S
C6035 C6036 1.369 . S
C6035 C6037 1.419 . S
C6035 H6039 0.930 . S
C6036 C6035 1.369 . S
C6036 C6045 1.429 . S
C6037 C6035 1.419 . S
C6037 C6038 1.363 . S
C6037 H6040 0.929 . S
C6038 C6037 1.363 . S
C6038 C6044 1.428 . S
H6039 C6035 0.930 . S
H6040 C6037 0.929 . S
S6041 N6042 1.613 . S
S6041 N6043 1.610 . S
N6042 S6041 1.613 . S
N6042 C6045 1.350 . S
N6043 S6041 1.610 . S
N6043 C6044 1.351 . S
C6044 C6038 1.428 . S
C6044 N6043 1.351 . S
C6044 C6045 1.434 . S
C6045 C6036 1.429 . S
C6045 N6042 1.350 . S
C6045 C6044 1.434 . S
C6046 C6047 1.369 . S
C6046 C6048 1.419 . S
C6046 H6050 0.930 . S
C6047 C6046 1.369 . S
C6047 C6056 1.429 . S
C6048 C6046 1.419 . S
C6048 C6049 1.363 . S
C6048 H6051 0.929 . S
C6049 C6048 1.363 . S
C6049 C6055 1.428 . S
H6050 C6046 0.930 . S
H6051 C6048 0.929 . S
S6052 N6053 1.613 . S
S6052 N6054 1.610 . S
N6053 S6052 1.613 . S
N6053 C6056 1.350 . S
N6054 S6052 1.610 . S
N6054 C6055 1.351 . S
C6055 C6049 1.428 . S
C6055 N6054 1.351 . S
C6055 C6056 1.434 . S
C6056 C6047 1.429 . S
C6056 N6053 1.350 . S
C6056 C6055 1.434 . S
C6057 C6058 1.369 . S
C6057 C6059 1.419 . S
C6057 H6061 0.930 . S
C6058 C6057 1.369 . S
C6058 C6067 1.429 . S
C6059 C6057 1.419 . S
C6059 C6060 1.363 . S
C6059 H6062 0.929 . S
C6060 C6059 1.363 . S
C6060 C6066 1.428 . S
H6061 C6057 0.930 . S
H6062 C6059 0.929 . S
S6063 N6064 1.613 . S
S6063 N6065 1.610 . S
N6064 S6063 1.613 . S
N6064 C6067 1.350 . S
N6065 S6063 1.610 . S
N6065 C6066 1.351 . S
C6066 C6060 1.428 . S
C6066 N6065 1.351 . S
C6066 C6067 1.434 . S
C6067 C6058 1.429 . S
C6067 N6064 1.350 . S
C6067 C6066 1.434 . S
C6068 C6069 1.369 . S
C6068 C6070 1.419 . S
C6068 H6072 0.930 . S
C6069 C6068 1.369 . S
C6069 C6078 1.429 . S
C6070 C6068 1.419 . S
C6070 C6071 1.363 . S
C6070 H6073 0.929 . S
C6071 C6070 1.363 . S
C6071 C6077 1.428 . S
H6072 C6068 0.930 . S
H6073 C6070 0.929 . S
S6074 N6075 1.613 . S
S6074 N6076 1.610 . S
N6075 S6074 1.613 . S
N6075 C6078 1.350 . S
N6076 S6074 1.610 . S
N6076 C6077 1.351 . S
C6077 C6071 1.428 . S
C6077 N6076 1.351 . S
C6077 C6078 1.434 . S
C6078 C6069 1.429 . S
C6078 N6075 1.350 . S
C6078 C6077 1.434 . S
C6079 C6080 1.369 . S
C6079 C6081 1.419 . S
C6079 H6083 0.930 . S
C6080 C6079 1.369 . S
C6080 C6089 1.429 . S
C6081 C6079 1.419 . S
C6081 C6082 1.363 . S
C6081 H6084 0.929 . S
C6082 C6081 1.363 . S
C6082 C6088 1.428 . S
H6083 C6079 0.930 . S
H6084 C6081 0.929 . S
S6085 N6086 1.613 . S
S6085 N6087 1.610 . S
N6086 S6085 1.613 . S
N6086 C6089 1.350 . S
N6087 S6085 1.610 . S
N6087 C6088 1.351 . S
C6088 C6082 1.428 . S
C6088 N6087 1.351 . S
C6088 C6089 1.434 . S
C6089 C6080 1.429 . S
C6089 N6086 1.350 . S
C6089 C6088 1.434 . S
C6090 C6091 1.369 . S
C6090 C6092 1.419 . S
C6090 H6094 0.930 . S
C6091 C6090 1.369 . S
C6091 C6100 1.429 . S
C6092 C6090 1.419 . S
C6092 C6093 1.363 . S
C6092 H6095 0.929 . S
C6093 C6092 1.363 . S
C6093 C6099 1.428 . S
H6094 C6090 0.930 . S
H6095 C6092 0.929 . S
S6096 N6097 1.613 . S
S6096 N6098 1.610 . S
N6097 S6096 1.613 . S
N6097 C6100 1.350 . S
N6098 S6096 1.610 . S
N6098 C6099 1.351 . S
C6099 C6093 1.428 . S
C6099 N6098 1.351 . S
C6099 C6100 1.434 . S
C6100 C6091 1.429 . S
C6100 N6097 1.350 . S
C6100 C6099 1.434 . S
C6101 C6102 1.369 . S
C6101 C6103 1.419 . S
C6101 H6105 0.930 . S
C6102 C6101 1.369 . S
C6102 C6111 1.429 . S
C6103 C6101 1.419 . S
C6103 C6104 1.363 . S
C6103 H6106 0.929 . S
C6104 C6103 1.363 . S
C6104 C6110 1.428 . S
H6105 C6101 0.930 . S
H6106 C6103 0.929 . S
S6107 N6108 1.613 . S
S6107 N6109 1.610 . S
N6108 S6107 1.613 . S
N6108 C6111 1.350 . S
N6109 S6107 1.610 . S
N6109 C6110 1.351 . S
C6110 C6104 1.428 . S
C6110 N6109 1.351 . S
C6110 C6111 1.434 . S
C6111 C6102 1.429 . S
C6111 N6108 1.350 . S
C6111 C6110 1.434 . S
C6112 C6113 1.369 . S
C6112 C6114 1.419 . S
C6112 H6116 0.930 . S
C6113 C6112 1.369 . S
C6113 C6122 1.429 . S
C6114 C6112 1.419 . S
C6114 C6115 1.363 . S
C6114 H6117 0.929 . S
C6115 C6114 1.363 . S
C6115 C6121 1.428 . S
H6116 C6112 0.930 . S
H6117 C6114 0.929 . S
S6118 N6119 1.613 . S
S6118 N6120 1.610 . S
N6119 S6118 1.613 . S
N6119 C6122 1.350 . S
N6120 S6118 1.610 . S
N6120 C6121 1.351 . S
C6121 C6115 1.428 . S
C6121 N6120 1.351 . S
C6121 C6122 1.434 . S
C6122 C6113 1.429 . S
C6122 N6119 1.350 . S
C6122 C6121 1.434 . S
C6123 C6124 1.369 . S
C6123 C6125 1.419 . S
C6123 H6127 0.930 . S
C6124 C6123 1.369 . S
C6124 C6133 1.429 . S
C6125 C6123 1.419 . S
C6125 C6126 1.363 . S
C6125 H6128 0.929 . S
C6126 C6125 1.363 . S
C6126 C6132 1.428 . S
H6127 C6123 0.930 . S
H6128 C6125 0.929 . S
S6129 N6130 1.613 . S
S6129 N6131 1.610 . S
N6130 S6129 1.613 . S
N6130 C6133 1.350 . S
N6131 S6129 1.610 . S
N6131 C6132 1.351 . S
C6132 C6126 1.428 . S
C6132 N6131 1.351 . S
C6132 C6133 1.434 . S
C6133 C6124 1.429 . S
C6133 N6130 1.350 . S
C6133 C6132 1.434 . S
C6134 C6135 1.369 . S
C6134 C6136 1.419 . S
C6134 H6138 0.930 . S
C6135 C6134 1.369 . S
C6135 C6144 1.429 . S
C6136 C6134 1.419 . S
C6136 C6137 1.363 . S
C6136 H6139 0.929 . S
C6137 C6136 1.363 . S
C6137 C6143 1.428 . S
H6138 C6134 0.930 . S
H6139 C6136 0.929 . S
S6140 N6141 1.613 . S
S6140 N6142 1.610 . S
N6141 S6140 1.613 . S
N6141 C6144 1.350 . S
N6142 S6140 1.610 . S
N6142 C6143 1.351 . S
C6143 C6137 1.428 . S
C6143 N6142 1.351 . S
C6143 C6144 1.434 . S
C6144 C6135 1.429 . S
C6144 N6141 1.350 . S
C6144 C6143 1.434 . S
C6145 C6146 1.369 . S
C6145 C6147 1.419 . S
C6145 H6149 0.930 . S
C6146 C6145 1.369 . S
C6146 C6155 1.429 . S
C6147 C6145 1.419 . S
C6147 C6148 1.363 . S
C6147 H6150 0.929 . S
C6148 C6147 1.363 . S
C6148 C6154 1.428 . S
H6149 C6145 0.930 . S
H6150 C6147 0.929 . S
S6151 N6152 1.613 . S
S6151 N6153 1.610 . S
N6152 S6151 1.613 . S
N6152 C6155 1.350 . S
N6153 S6151 1.610 . S
N6153 C6154 1.351 . S
C6154 C6148 1.428 . S
C6154 N6153 1.351 . S
C6154 C6155 1.434 . S
C6155 C6146 1.429 . S
C6155 N6152 1.350 . S
C6155 C6154 1.434 . S
C6156 C6157 1.369 . S
C6156 C6158 1.419 . S
C6156 H6160 0.930 . S
C6157 C6156 1.369 . S
C6157 C6166 1.429 . S
C6158 C6156 1.419 . S
C6158 C6159 1.363 . S
C6158 H6161 0.929 . S
C6159 C6158 1.363 . S
C6159 C6165 1.428 . S
H6160 C6156 0.930 . S
H6161 C6158 0.929 . S
S6162 N6163 1.613 . S
S6162 N6164 1.610 . S
N6163 S6162 1.613 . S
N6163 C6166 1.350 . S
N6164 S6162 1.610 . S
N6164 C6165 1.351 . S
C6165 C6159 1.428 . S
C6165 N6164 1.351 . S
C6165 C6166 1.434 . S
C6166 C6157 1.429 . S
C6166 N6163 1.350 . S
C6166 C6165 1.434 . S
C6167 C6168 1.369 . S
C6167 C6169 1.419 . S
C6167 H6171 0.930 . S
C6168 C6167 1.369 . S
C6168 C6177 1.429 . S
C6169 C6167 1.419 . S
C6169 C6170 1.363 . S
C6169 H6172 0.929 . S
C6170 C6169 1.363 . S
C6170 C6176 1.428 . S
H6171 C6167 0.930 . S
H6172 C6169 0.929 . S
S6173 N6174 1.613 . S
S6173 N6175 1.610 . S
N6174 S6173 1.613 . S
N6174 C6177 1.350 . S
N6175 S6173 1.610 . S
N6175 C6176 1.351 . S
C6176 C6170 1.428 . S
C6176 N6175 1.351 . S
C6176 C6177 1.434 . S
C6177 C6168 1.429 . S
C6177 N6174 1.350 . S
C6177 C6176 1.434 . S
C6178 C6179 1.369 . S
C6178 C6180 1.419 . S
C6178 H6182 0.930 . S
C6179 C6178 1.369 . S
C6179 C6188 1.429 . S
C6180 C6178 1.419 . S
C6180 C6181 1.363 . S
C6180 H6183 0.929 . S
C6181 C6180 1.363 . S
C6181 C6187 1.428 . S
H6182 C6178 0.930 . S
H6183 C6180 0.929 . S
S6184 N6185 1.613 . S
S6184 N6186 1.610 . S
N6185 S6184 1.613 . S
N6185 C6188 1.350 . S
N6186 S6184 1.610 . S
N6186 C6187 1.351 . S
C6187 C6181 1.428 . S
C6187 N6186 1.351 . S
C6187 C6188 1.434 . S
C6188 C6179 1.429 . S
C6188 N6185 1.350 . S
C6188 C6187 1.434 . S
C6189 C6190 1.369 . S
C6189 C6191 1.419 . S
C6189 H6193 0.930 . S
C6190 C6189 1.369 . S
C6190 C6199 1.429 . S
C6191 C6189 1.419 . S
C6191 C6192 1.363 . S
C6191 H6194 0.929 . S
C6192 C6191 1.363 . S
C6192 C6198 1.428 . S
H6193 C6189 0.930 . S
H6194 C6191 0.929 . S
S6195 N6196 1.613 . S
S6195 N6197 1.610 . S
N6196 S6195 1.613 . S
N6196 C6199 1.350 . S
N6197 S6195 1.610 . S
N6197 C6198 1.351 . S
C6198 C6192 1.428 . S
C6198 N6197 1.351 . S
C6198 C6199 1.434 . S
C6199 C6190 1.429 . S
C6199 N6196 1.350 . S
C6199 C6198 1.434 . S
C6200 C6201 1.369 . S
C6200 C6202 1.419 . S
C6200 H6204 0.930 . S
C6201 C6200 1.369 . S
C6201 C6210 1.429 . S
C6202 C6200 1.419 . S
C6202 C6203 1.363 . S
C6202 H6205 0.929 . S
C6203 C6202 1.363 . S
C6203 C6209 1.428 . S
H6204 C6200 0.930 . S
H6205 C6202 0.929 . S
S6206 N6207 1.613 . S
S6206 N6208 1.610 . S
N6207 S6206 1.613 . S
N6207 C6210 1.350 . S
N6208 S6206 1.610 . S
N6208 C6209 1.351 . S
C6209 C6203 1.428 . S
C6209 N6208 1.351 . S
C6209 C6210 1.434 . S
C6210 C6201 1.429 . S
C6210 N6207 1.350 . S
C6210 C6209 1.434 . S
C6211 C6212 1.369 . S
C6211 C6213 1.419 . S
C6211 H6215 0.930 . S
C6212 C6211 1.369 . S
C6212 C6221 1.429 . S
C6213 C6211 1.419 . S
C6213 C6214 1.363 . S
C6213 H6216 0.929 . S
C6214 C6213 1.363 . S
C6214 C6220 1.428 . S
H6215 C6211 0.930 . S
H6216 C6213 0.929 . S
S6217 N6218 1.613 . S
S6217 N6219 1.610 . S
N6218 S6217 1.613 . S
N6218 C6221 1.350 . S
N6219 S6217 1.610 . S
N6219 C6220 1.351 . S
C6220 C6214 1.428 . S
C6220 N6219 1.351 . S
C6220 C6221 1.434 . S
C6221 C6212 1.429 . S
C6221 N6218 1.350 . S
C6221 C6220 1.434 . S
C6222 C6223 1.369 . S
C6222 C6224 1.419 . S
C6222 H6226 0.930 . S
C6223 C6222 1.369 . S
C6223 C6232 1.429 . S
C6224 C6222 1.419 . S
C6224 C6225 1.363 . S
C6224 H6227 0.929 . S
C6225 C6224 1.363 . S
C6225 C6231 1.428 . S
H6226 C6222 0.930 . S
H6227 C6224 0.929 . S
S6228 N6229 1.613 . S
S6228 N6230 1.610 . S
N6229 S6228 1.613 . S
N6229 C6232 1.350 . S
N6230 S6228 1.610 . S
N6230 C6231 1.351 . S
C6231 C6225 1.428 . S
C6231 N6230 1.351 . S
C6231 C6232 1.434 . S
C6232 C6223 1.429 . S
C6232 N6229 1.350 . S
C6232 C6231 1.434 . S
C6233 C6234 1.369 . S
C6233 C6235 1.419 . S
C6233 H6237 0.930 . S
C6234 C6233 1.369 . S
C6234 C6243 1.429 . S
C6235 C6233 1.419 . S
C6235 C6236 1.363 . S
C6235 H6238 0.929 . S
C6236 C6235 1.363 . S
C6236 C6242 1.428 . S
H6237 C6233 0.930 . S
H6238 C6235 0.929 . S
S6239 N6240 1.613 . S
S6239 N6241 1.610 . S
N6240 S6239 1.613 . S
N6240 C6243 1.350 . S
N6241 S6239 1.610 . S
N6241 C6242 1.351 . S
C6242 C6236 1.428 . S
C6242 N6241 1.351 . S
C6242 C6243 1.434 . S
C6243 C6234 1.429 . S
C6243 N6240 1.350 . S
C6243 C6242 1.434 . S
C6244 C6245 1.369 . S
C6244 C6246 1.419 . S
C6244 H6248 0.930 . S
C6245 C6244 1.369 . S
C6245 C6254 1.429 . S
C6246 C6244 1.419 . S
C6246 C6247 1.363 . S
C6246 H6249 0.929 . S
C6247 C6246 1.363 . S
C6247 C6253 1.428 . S
H6248 C6244 0.930 . S
H6249 C6246 0.929 . S
S6250 N6251 1.613 . S
S6250 N6252 1.610 . S
N6251 S6250 1.613 . S
N6251 C6254 1.350 . S
N6252 S6250 1.610 . S
N6252 C6253 1.351 . S
C6253 C6247 1.428 . S
C6253 N6252 1.351 . S
C6253 C6254 1.434 . S
C6254 C6245 1.429 . S
C6254 N6251 1.350 . S
C6254 C6253 1.434 . S
C6255 C6256 1.369 . S
C6255 C6257 1.419 . S
C6255 H6259 0.930 . S
C6256 C6255 1.369 . S
C6256 C6265 1.429 . S
C6257 C6255 1.419 . S
C6257 C6258 1.363 . S
C6257 H6260 0.929 . S
C6258 C6257 1.363 . S
C6258 C6264 1.428 . S
H6259 C6255 0.930 . S
H6260 C6257 0.929 . S
S6261 N6262 1.613 . S
S6261 N6263 1.610 . S
N6262 S6261 1.613 . S
N6262 C6265 1.350 . S
N6263 S6261 1.610 . S
N6263 C6264 1.351 . S
C6264 C6258 1.428 . S
C6264 N6263 1.351 . S
C6264 C6265 1.434 . S
C6265 C6256 1.429 . S
C6265 N6262 1.350 . S
C6265 C6264 1.434 . S
C6266 C6267 1.369 . S
C6266 C6268 1.419 . S
C6266 H6270 0.930 . S
C6267 C6266 1.369 . S
C6267 C6276 1.429 . S
C6268 C6266 1.419 . S
C6268 C6269 1.363 . S
C6268 H6271 0.929 . S
C6269 C6268 1.363 . S
C6269 C6275 1.428 . S
H6270 C6266 0.930 . S
H6271 C6268 0.929 . S
S6272 N6273 1.613 . S
S6272 N6274 1.610 . S
N6273 S6272 1.613 . S
N6273 C6276 1.350 . S
N6274 S6272 1.610 . S
N6274 C6275 1.351 . S
C6275 C6269 1.428 . S
C6275 N6274 1.351 . S
C6275 C6276 1.434 . S
C6276 C6267 1.429 . S
C6276 N6273 1.350 . S
C6276 C6275 1.434 . S
C6277 C6278 1.369 . S
C6277 C6279 1.419 . S
C6277 H6281 0.930 . S
C6278 C6277 1.369 . S
C6278 C6287 1.429 . S
C6279 C6277 1.419 . S
C6279 C6280 1.363 . S
C6279 H6282 0.929 . S
C6280 C6279 1.363 . S
C6280 C6286 1.428 . S
H6281 C6277 0.930 . S
H6282 C6279 0.929 . S
S6283 N6284 1.613 . S
S6283 N6285 1.610 . S
N6284 S6283 1.613 . S
N6284 C6287 1.350 . S
N6285 S6283 1.610 . S
N6285 C6286 1.351 . S
C6286 C6280 1.428 . S
C6286 N6285 1.351 . S
C6286 C6287 1.434 . S
C6287 C6278 1.429 . S
C6287 N6284 1.350 . S
C6287 C6286 1.434 . S
C6288 C6289 1.369 . S
C6288 C6290 1.419 . S
C6288 H6292 0.930 . S
C6289 C6288 1.369 . S
C6289 C6298 1.429 . S
C6290 C6288 1.419 . S
C6290 C6291 1.363 . S
C6290 H6293 0.929 . S
C6291 C6290 1.363 . S
C6291 C6297 1.428 . S
H6292 C6288 0.930 . S
H6293 C6290 0.929 . S
S6294 N6295 1.613 . S
S6294 N6296 1.610 . S
N6295 S6294 1.613 . S
N6295 C6298 1.350 . S
N6296 S6294 1.610 . S
N6296 C6297 1.351 . S
C6297 C6291 1.428 . S
C6297 N6296 1.351 . S
C6297 C6298 1.434 . S
C6298 C6289 1.429 . S
C6298 N6295 1.350 . S
C6298 C6297 1.434 . S
C6299 C6300 1.369 . S
C6299 C6301 1.419 . S
C6299 H6303 0.930 . S
C6300 C6299 1.369 . S
C6300 C6309 1.429 . S
C6301 C6299 1.419 . S
C6301 C6302 1.363 . S
C6301 H6304 0.929 . S
C6302 C6301 1.363 . S
C6302 C6308 1.428 . S
H6303 C6299 0.930 . S
H6304 C6301 0.929 . S
S6305 N6306 1.613 . S
S6305 N6307 1.610 . S
N6306 S6305 1.613 . S
N6306 C6309 1.350 . S
N6307 S6305 1.610 . S
N6307 C6308 1.351 . S
C6308 C6302 1.428 . S
C6308 N6307 1.351 . S
C6308 C6309 1.434 . S
C6309 C6300 1.429 . S
C6309 N6306 1.350 . S
C6309 C6308 1.434 . S
C6310 C6311 1.369 . S
C6310 C6312 1.419 . S
C6310 H6314 0.930 . S
C6311 C6310 1.369 . S
C6311 C6320 1.429 . S
C6312 C6310 1.419 . S
C6312 C6313 1.363 . S
C6312 H6315 0.929 . S
C6313 C6312 1.363 . S
C6313 C6319 1.428 . S
H6314 C6310 0.930 . S
H6315 C6312 0.929 . S
S6316 N6317 1.613 . S
S6316 N6318 1.610 . S
N6317 S6316 1.613 . S
N6317 C6320 1.350 . S
N6318 S6316 1.610 . S
N6318 C6319 1.351 . S
C6319 C6313 1.428 . S
C6319 N6318 1.351 . S
C6319 C6320 1.434 . S
C6320 C6311 1.429 . S
C6320 N6317 1.350 . S
C6320 C6319 1.434 . S
C6321 C6322 1.369 . S
C6321 C6323 1.419 . S
C6321 H6325 0.930 . S
C6322 C6321 1.369 . S
C6322 C6331 1.429 . S
C6323 C6321 1.419 . S
C6323 C6324 1.363 . S
C6323 H6326 0.929 . S
C6324 C6323 1.363 . S
C6324 C6330 1.428 . S
H6325 C6321 0.930 . S
H6326 C6323 0.929 . S
S6327 N6328 1.613 . S
S6327 N6329 1.610 . S
N6328 S6327 1.613 . S
N6328 C6331 1.350 . S
N6329 S6327 1.610 . S
N6329 C6330 1.351 . S
C6330 C6324 1.428 . S
C6330 N6329 1.351 . S
C6330 C6331 1.434 . S
C6331 C6322 1.429 . S
C6331 N6328 1.350 . S
C6331 C6330 1.434 . S
C6332 C6333 1.369 . S
C6332 C6334 1.419 . S
C6332 H6336 0.930 . S
C6333 C6332 1.369 . S
C6333 C6342 1.429 . S
C6334 C6332 1.419 . S
C6334 C6335 1.363 . S
C6334 H6337 0.929 . S
C6335 C6334 1.363 . S
C6335 C6341 1.428 . S
H6336 C6332 0.930 . S
H6337 C6334 0.929 . S
S6338 N6339 1.613 . S
S6338 N6340 1.610 . S
N6339 S6338 1.613 . S
N6339 C6342 1.350 . S
N6340 S6338 1.610 . S
N6340 C6341 1.351 . S
C6341 C6335 1.428 . S
C6341 N6340 1.351 . S
C6341 C6342 1.434 . S
C6342 C6333 1.429 . S
C6342 N6339 1.350 . S
C6342 C6341 1.434 . S
C6343 C6344 1.369 . S
C6343 C6345 1.419 . S
C6343 H6347 0.930 . S
C6344 C6343 1.369 . S
C6344 C6353 1.429 . S
C6345 C6343 1.419 . S
C6345 C6346 1.363 . S
C6345 H6348 0.929 . S
C6346 C6345 1.363 . S
C6346 C6352 1.428 . S
H6347 C6343 0.930 . S
H6348 C6345 0.929 . S
S6349 N6350 1.613 . S
S6349 N6351 1.610 . S
N6350 S6349 1.613 . S
N6350 C6353 1.350 . S
N6351 S6349 1.610 . S
N6351 C6352 1.351 . S
C6352 C6346 1.428 . S
C6352 N6351 1.351 . S
C6352 C6353 1.434 . S
C6353 C6344 1.429 . S
C6353 N6350 1.350 . S
C6353 C6352 1.434 . S
C6354 C6355 1.369 . S
C6354 C6356 1.419 . S
C6354 H6358 0.930 . S
C6355 C6354 1.369 . S
C6355 C6364 1.429 . S
C6356 C6354 1.419 . S
C6356 C6357 1.363 . S
C6356 H6359 0.929 . S
C6357 C6356 1.363 . S
C6357 C6363 1.428 . S
H6358 C6354 0.930 . S
H6359 C6356 0.929 . S
S6360 N6361 1.613 . S
S6360 N6362 1.610 . S
N6361 S6360 1.613 . S
N6361 C6364 1.350 . S
N6362 S6360 1.610 . S
N6362 C6363 1.351 . S
C6363 C6357 1.428 . S
C6363 N6362 1.351 . S
C6363 C6364 1.434 . S
C6364 C6355 1.429 . S
C6364 N6361 1.350 . S
C6364 C6363 1.434 . S
C6365 C6366 1.369 . S
C6365 C6367 1.419 . S
C6365 H6369 0.930 . S
C6366 C6365 1.369 . S
C6366 C6375 1.429 . S
C6367 C6365 1.419 . S
C6367 C6368 1.363 . S
C6367 H6370 0.929 . S
C6368 C6367 1.363 . S
C6368 C6374 1.428 . S
H6369 C6365 0.930 . S
H6370 C6367 0.929 . S
S6371 N6372 1.613 . S
S6371 N6373 1.610 . S
N6372 S6371 1.613 . S
N6372 C6375 1.350 . S
N6373 S6371 1.610 . S
N6373 C6374 1.351 . S
C6374 C6368 1.428 . S
C6374 N6373 1.351 . S
C6374 C6375 1.434 . S
C6375 C6366 1.429 . S
C6375 N6372 1.350 . S
C6375 C6374 1.434 . S
C6376 C6377 1.369 . S
C6376 C6378 1.419 . S
C6376 H6380 0.930 . S
C6377 C6376 1.369 . S
C6377 C6386 1.429 . S
C6378 C6376 1.419 . S
C6378 C6379 1.363 . S
C6378 H6381 0.929 . S
C6379 C6378 1.363 . S
C6379 C6385 1.428 . S
H6380 C6376 0.930 . S
H6381 C6378 0.929 . S
S6382 N6383 1.613 . S
S6382 N6384 1.610 . S
N6383 S6382 1.613 . S
N6383 C6386 1.350 . S
N6384 S6382 1.610 . S
N6384 C6385 1.351 . S
C6385 C6379 1.428 . S
C6385 N6384 1.351 . S
C6385 C6386 1.434 . S
C6386 C6377 1.429 . S
C6386 N6383 1.350 . S
C6386 C6385 1.434 . S
C6387 C6388 1.369 . S
C6387 C6389 1.419 . S
C6387 H6391 0.930 . S
C6388 C6387 1.369 . S
C6388 C6397 1.429 . S
C6389 C6387 1.419 . S
C6389 C6390 1.363 . S
C6389 H6392 0.929 . S
C6390 C6389 1.363 . S
C6390 C6396 1.428 . S
H6391 C6387 0.930 . S
H6392 C6389 0.929 . S
S6393 N6394 1.613 . S
S6393 N6395 1.610 . S
N6394 S6393 1.613 . S
N6394 C6397 1.350 . S
N6395 S6393 1.610 . S
N6395 C6396 1.351 . S
C6396 C6390 1.428 . S
C6396 N6395 1.351 . S
C6396 C6397 1.434 . S
C6397 C6388 1.429 . S
C6397 N6394 1.350 . S
C6397 C6396 1.434 . S
C6398 C6399 1.369 . S
C6398 C6400 1.419 . S
C6398 H6402 0.930 . S
C6399 C6398 1.369 . S
C6399 C6408 1.429 . S
C6400 C6398 1.419 . S
C6400 C6401 1.363 . S
C6400 H6403 0.929 . S
C6401 C6400 1.363 . S
C6401 C6407 1.428 . S
H6402 C6398 0.930 . S
H6403 C6400 0.929 . S
S6404 N6405 1.613 . S
S6404 N6406 1.610 . S
N6405 S6404 1.613 . S
N6405 C6408 1.350 . S
N6406 S6404 1.610 . S
N6406 C6407 1.351 . S
C6407 C6401 1.428 . S
C6407 N6406 1.351 . S
C6407 C6408 1.434 . S
C6408 C6399 1.429 . S
C6408 N6405 1.350 . S
C6408 C6407 1.434 . S
C6409 C6410 1.369 . S
C6409 C6411 1.419 . S
C6409 H6413 0.930 . S
C6410 C6409 1.369 . S
C6410 C6419 1.429 . S
C6411 C6409 1.419 . S
C6411 C6412 1.363 . S
C6411 H6414 0.929 . S
C6412 C6411 1.363 . S
C6412 C6418 1.428 . S
H6413 C6409 0.930 . S
H6414 C6411 0.929 . S
S6415 N6416 1.613 . S
S6415 N6417 1.610 . S
N6416 S6415 1.613 . S
N6416 C6419 1.350 . S
N6417 S6415 1.610 . S
N6417 C6418 1.351 . S
C6418 C6412 1.428 . S
C6418 N6417 1.351 . S
C6418 C6419 1.434 . S
C6419 C6410 1.429 . S
C6419 N6416 1.350 . S
C6419 C6418 1.434 . S
C6420 C6421 1.369 . S
C6420 C6422 1.419 . S
C6420 H6424 0.930 . S
C6421 C6420 1.369 . S
C6421 C6430 1.429 . S
C6422 C6420 1.419 . S
C6422 C6423 1.363 . S
C6422 H6425 0.929 . S
C6423 C6422 1.363 . S
C6423 C6429 1.428 . S
H6424 C6420 0.930 . S
H6425 C6422 0.929 . S
S6426 N6427 1.613 . S
S6426 N6428 1.610 . S
N6427 S6426 1.613 . S
N6427 C6430 1.350 . S
N6428 S6426 1.610 . S
N6428 C6429 1.351 . S
C6429 C6423 1.428 . S
C6429 N6428 1.351 . S
C6429 C6430 1.434 . S
C6430 C6421 1.429 . S
C6430 N6427 1.350 . S
C6430 C6429 1.434 . S
C6431 C6432 1.369 . S
C6431 C6433 1.419 . S
C6431 H6435 0.930 . S
C6432 C6431 1.369 . S
C6432 C6441 1.429 . S
C6433 C6431 1.419 . S
C6433 C6434 1.363 . S
C6433 H6436 0.929 . S
C6434 C6433 1.363 . S
C6434 C6440 1.428 . S
H6435 C6431 0.930 . S
H6436 C6433 0.929 . S
S6437 N6438 1.613 . S
S6437 N6439 1.610 . S
N6438 S6437 1.613 . S
N6438 C6441 1.350 . S
N6439 S6437 1.610 . S
N6439 C6440 1.351 . S
C6440 C6434 1.428 . S
C6440 N6439 1.351 . S
C6440 C6441 1.434 . S
C6441 C6432 1.429 . S
C6441 N6438 1.350 . S
C6441 C6440 1.434 . S
C6442 C6443 1.369 . S
C6442 C6444 1.419 . S
C6442 H6446 0.930 . S
C6443 C6442 1.369 . S
C6443 C6452 1.429 . S
C6444 C6442 1.419 . S
C6444 C6445 1.363 . S
C6444 H6447 0.929 . S
C6445 C6444 1.363 . S
C6445 C6451 1.428 . S
H6446 C6442 0.930 . S
H6447 C6444 0.929 . S
S6448 N6449 1.613 . S
S6448 N6450 1.610 . S
N6449 S6448 1.613 . S
N6449 C6452 1.350 . S
N6450 S6448 1.610 . S
N6450 C6451 1.351 . S
C6451 C6445 1.428 . S
C6451 N6450 1.351 . S
C6451 C6452 1.434 . S
C6452 C6443 1.429 . S
C6452 N6449 1.350 . S
C6452 C6451 1.434 . S
C6453 C6454 1.369 . S
C6453 C6455 1.419 . S
C6453 H6457 0.930 . S
C6454 C6453 1.369 . S
C6454 C6463 1.429 . S
C6455 C6453 1.419 . S
C6455 C6456 1.363 . S
C6455 H6458 0.929 . S
C6456 C6455 1.363 . S
C6456 C6462 1.428 . S
H6457 C6453 0.930 . S
H6458 C6455 0.929 . S
S6459 N6460 1.613 . S
S6459 N6461 1.610 . S
N6460 S6459 1.613 . S
N6460 C6463 1.350 . S
N6461 S6459 1.610 . S
N6461 C6462 1.351 . S
C6462 C6456 1.428 . S
C6462 N6461 1.351 . S
C6462 C6463 1.434 . S
C6463 C6454 1.429 . S
C6463 N6460 1.350 . S
C6463 C6462 1.434 . S
C6464 C6465 1.369 . S
C6464 C6466 1.419 . S
C6464 H6468 0.930 . S
C6465 C6464 1.369 . S
C6465 C6474 1.429 . S
C6466 C6464 1.419 . S
C6466 C6467 1.363 . S
C6466 H6469 0.929 . S
C6467 C6466 1.363 . S
C6467 C6473 1.428 . S
H6468 C6464 0.930 . S
H6469 C6466 0.929 . S
S6470 N6471 1.613 . S
S6470 N6472 1.610 . S
N6471 S6470 1.613 . S
N6471 C6474 1.350 . S
N6472 S6470 1.610 . S
N6472 C6473 1.351 . S
C6473 C6467 1.428 . S
C6473 N6472 1.351 . S
C6473 C6474 1.434 . S
C6474 C6465 1.429 . S
C6474 N6471 1.350 . S
C6474 C6473 1.434 . S
C6475 C6476 1.369 . S
C6475 C6477 1.419 . S
C6475 H6479 0.930 . S
C6476 C6475 1.369 . S
C6476 C6485 1.429 . S
C6477 C6475 1.419 . S
C6477 C6478 1.363 . S
C6477 H6480 0.929 . S
C6478 C6477 1.363 . S
C6478 C6484 1.428 . S
H6479 C6475 0.930 . S
H6480 C6477 0.929 . S
S6481 N6482 1.613 . S
S6481 N6483 1.610 . S
N6482 S6481 1.613 . S
N6482 C6485 1.350 . S
N6483 S6481 1.610 . S
N6483 C6484 1.351 . S
C6484 C6478 1.428 . S
C6484 N6483 1.351 . S
C6484 C6485 1.434 . S
C6485 C6476 1.429 . S
C6485 N6482 1.350 . S
C6485 C6484 1.434 . S
C6486 C6487 1.369 . S
C6486 C6488 1.419 . S
C6486 H6490 0.930 . S
C6487 C6486 1.369 . S
C6487 C6496 1.429 . S
C6488 C6486 1.419 . S
C6488 C6489 1.363 . S
C6488 H6491 0.929 . S
C6489 C6488 1.363 . S
C6489 C6495 1.428 . S
H6490 C6486 0.930 . S
H6491 C6488 0.929 . S
S6492 N6493 1.613 . S
S6492 N6494 1.610 . S
N6493 S6492 1.613 . S
N6493 C6496 1.350 . S
N6494 S6492 1.610 . S
N6494 C6495 1.351 . S
C6495 C6489 1.428 . S
C6495 N6494 1.351 . S
C6495 C6496 1.434 . S
C6496 C6487 1.429 . S
C6496 N6493 1.350 . S
C6496 C6495 1.434 . S
C6497 C6498 1.369 . S
C6497 C6499 1.419 . S
C6497 H6501 0.930 . S
C6498 C6497 1.369 . S
C6498 C6507 1.429 . S
C6499 C6497 1.419 . S
C6499 C6500 1.363 . S
C6499 H6502 0.929 . S
C6500 C6499 1.363 . S
C6500 C6506 1.428 . S
H6501 C6497 0.930 . S
H6502 C6499 0.929 . S
S6503 N6504 1.613 . S
S6503 N6505 1.610 . S
N6504 S6503 1.613 . S
N6504 C6507 1.350 . S
N6505 S6503 1.610 . S
N6505 C6506 1.351 . S
C6506 C6500 1.428 . S
C6506 N6505 1.351 . S
C6506 C6507 1.434 . S
C6507 C6498 1.429 . S
C6507 N6504 1.350 . S
C6507 C6506 1.434 . S
C6508 C6509 1.369 . S
C6508 C6510 1.419 . S
C6508 H6512 0.930 . S
C6509 C6508 1.369 . S
C6509 C6518 1.429 . S
C6510 C6508 1.419 . S
C6510 C6511 1.363 . S
C6510 H6513 0.929 . S
C6511 C6510 1.363 . S
C6511 C6517 1.428 . S
H6512 C6508 0.930 . S
H6513 C6510 0.929 . S
S6514 N6515 1.613 . S
S6514 N6516 1.610 . S
N6515 S6514 1.613 . S
N6515 C6518 1.350 . S
N6516 S6514 1.610 . S
N6516 C6517 1.351 . S
C6517 C6511 1.428 . S
C6517 N6516 1.351 . S
C6517 C6518 1.434 . S
C6518 C6509 1.429 . S
C6518 N6515 1.350 . S
C6518 C6517 1.434 . S
C6519 C6520 1.369 . S
C6519 C6521 1.419 . S
C6519 H6523 0.930 . S
C6520 C6519 1.369 . S
C6520 C6529 1.429 . S
C6521 C6519 1.419 . S
C6521 C6522 1.363 . S
C6521 H6524 0.929 . S
C6522 C6521 1.363 . S
C6522 C6528 1.428 . S
H6523 C6519 0.930 . S
H6524 C6521 0.929 . S
S6525 N6526 1.613 . S
S6525 N6527 1.610 . S
N6526 S6525 1.613 . S
N6526 C6529 1.350 . S
N6527 S6525 1.610 . S
N6527 C6528 1.351 . S
C6528 C6522 1.428 . S
C6528 N6527 1.351 . S
C6528 C6529 1.434 . S
C6529 C6520 1.429 . S
C6529 N6526 1.350 . S
C6529 C6528 1.434 . S
C6530 C6531 1.369 . S
C6530 C6532 1.419 . S
C6530 H6534 0.930 . S
C6531 C6530 1.369 . S
C6531 C6540 1.429 . S
C6532 C6530 1.419 . S
C6532 C6533 1.363 . S
C6532 H6535 0.929 . S
C6533 C6532 1.363 . S
C6533 C6539 1.428 . S
H6534 C6530 0.930 . S
H6535 C6532 0.929 . S
S6536 N6537 1.613 . S
S6536 N6538 1.610 . S
N6537 S6536 1.613 . S
N6537 C6540 1.350 . S
N6538 S6536 1.610 . S
N6538 C6539 1.351 . S
C6539 C6533 1.428 . S
C6539 N6538 1.351 . S
C6539 C6540 1.434 . S
C6540 C6531 1.429 . S
C6540 N6537 1.350 . S
C6540 C6539 1.434 . S
C6541 C6542 1.369 . S
C6541 C6543 1.419 . S
C6541 H6545 0.930 . S
C6542 C6541 1.369 . S
C6542 C6551 1.429 . S
C6543 C6541 1.419 . S
C6543 C6544 1.363 . S
C6543 H6546 0.929 . S
C6544 C6543 1.363 . S
C6544 C6550 1.428 . S
H6545 C6541 0.930 . S
H6546 C6543 0.929 . S
S6547 N6548 1.613 . S
S6547 N6549 1.610 . S
N6548 S6547 1.613 . S
N6548 C6551 1.350 . S
N6549 S6547 1.610 . S
N6549 C6550 1.351 . S
C6550 C6544 1.428 . S
C6550 N6549 1.351 . S
C6550 C6551 1.434 . S
C6551 C6542 1.429 . S
C6551 N6548 1.350 . S
C6551 C6550 1.434 . S
C6552 C6553 1.369 . S
C6552 C6554 1.419 . S
C6552 H6556 0.930 . S
C6553 C6552 1.369 . S
C6553 C6562 1.429 . S
C6554 C6552 1.419 . S
C6554 C6555 1.363 . S
C6554 H6557 0.929 . S
C6555 C6554 1.363 . S
C6555 C6561 1.428 . S
H6556 C6552 0.930 . S
H6557 C6554 0.929 . S
S6558 N6559 1.613 . S
S6558 N6560 1.610 . S
N6559 S6558 1.613 . S
N6559 C6562 1.350 . S
N6560 S6558 1.610 . S
N6560 C6561 1.351 . S
C6561 C6555 1.428 . S
C6561 N6560 1.351 . S
C6561 C6562 1.434 . S
C6562 C6553 1.429 . S
C6562 N6559 1.350 . S
C6562 C6561 1.434 . S
C6563 C6564 1.369 . S
C6563 C6565 1.419 . S
C6563 H6567 0.930 . S
C6564 C6563 1.369 . S
C6564 C6573 1.429 . S
C6565 C6563 1.419 . S
C6565 C6566 1.363 . S
C6565 H6568 0.929 . S
C6566 C6565 1.363 . S
C6566 C6572 1.428 . S
H6567 C6563 0.930 . S
H6568 C6565 0.929 . S
S6569 N6570 1.613 . S
S6569 N6571 1.610 . S
N6570 S6569 1.613 . S
N6570 C6573 1.350 . S
N6571 S6569 1.610 . S
N6571 C6572 1.351 . S
C6572 C6566 1.428 . S
C6572 N6571 1.351 . S
C6572 C6573 1.434 . S
C6573 C6564 1.429 . S
C6573 N6570 1.350 . S
C6573 C6572 1.434 . S
C6574 C6575 1.369 . S
C6574 C6576 1.419 . S
C6574 H6578 0.930 . S
C6575 C6574 1.369 . S
C6575 C6584 1.429 . S
C6576 C6574 1.419 . S
C6576 C6577 1.363 . S
C6576 H6579 0.929 . S
C6577 C6576 1.363 . S
C6577 C6583 1.428 . S
H6578 C6574 0.930 . S
H6579 C6576 0.929 . S
S6580 N6581 1.613 . S
S6580 N6582 1.610 . S
N6581 S6580 1.613 . S
N6581 C6584 1.350 . S
N6582 S6580 1.610 . S
N6582 C6583 1.351 . S
C6583 C6577 1.428 . S
C6583 N6582 1.351 . S
C6583 C6584 1.434 . S
C6584 C6575 1.429 . S
C6584 N6581 1.350 . S
C6584 C6583 1.434 . S
C6585 C6586 1.369 . S
C6585 C6587 1.419 . S
C6585 H6589 0.930 . S
C6586 C6585 1.369 . S
C6586 C6595 1.429 . S
C6587 C6585 1.419 . S
C6587 C6588 1.363 . S
C6587 H6590 0.929 . S
C6588 C6587 1.363 . S
C6588 C6594 1.428 . S
H6589 C6585 0.930 . S
H6590 C6587 0.929 . S
S6591 N6592 1.613 . S
S6591 N6593 1.610 . S
N6592 S6591 1.613 . S
N6592 C6595 1.350 . S
N6593 S6591 1.610 . S
N6593 C6594 1.351 . S
C6594 C6588 1.428 . S
C6594 N6593 1.351 . S
C6594 C6595 1.434 . S
C6595 C6586 1.429 . S
C6595 N6592 1.350 . S
C6595 C6594 1.434 . S
C6596 C6597 1.369 . S
C6596 C6598 1.419 . S
C6596 H6600 0.930 . S
C6597 C6596 1.369 . S
C6597 C6606 1.429 . S
C6598 C6596 1.419 . S
C6598 C6599 1.363 . S
C6598 H6601 0.929 . S
C6599 C6598 1.363 . S
C6599 C6605 1.428 . S
H6600 C6596 0.930 . S
H6601 C6598 0.929 . S
S6602 N6603 1.613 . S
S6602 N6604 1.610 . S
N6603 S6602 1.613 . S
N6603 C6606 1.350 . S
N6604 S6602 1.610 . S
N6604 C6605 1.351 . S
C6605 C6599 1.428 . S
C6605 N6604 1.351 . S
C6605 C6606 1.434 . S
C6606 C6597 1.429 . S
C6606 N6603 1.350 . S
C6606 C6605 1.434 . S
C6607 C6608 1.369 . S
C6607 C6609 1.419 . S
C6607 H6611 0.930 . S
C6608 C6607 1.369 . S
C6608 C6617 1.429 . S
C6609 C6607 1.419 . S
C6609 C6610 1.363 . S
C6609 H6612 0.929 . S
C6610 C6609 1.363 . S
C6610 C6616 1.428 . S
H6611 C6607 0.930 . S
H6612 C6609 0.929 . S
S6613 N6614 1.613 . S
S6613 N6615 1.610 . S
N6614 S6613 1.613 . S
N6614 C6617 1.350 . S
N6615 S6613 1.610 . S
N6615 C6616 1.351 . S
C6616 C6610 1.428 . S
C6616 N6615 1.351 . S
C6616 C6617 1.434 . S
C6617 C6608 1.429 . S
C6617 N6614 1.350 . S
C6617 C6616 1.434 . S
C6618 C6619 1.369 . S
C6618 C6620 1.419 . S
C6618 H6622 0.930 . S
C6619 C6618 1.369 . S
C6619 C6628 1.429 . S
C6620 C6618 1.419 . S
C6620 C6621 1.363 . S
C6620 H6623 0.929 . S
C6621 C6620 1.363 . S
C6621 C6627 1.428 . S
H6622 C6618 0.930 . S
H6623 C6620 0.929 . S
S6624 N6625 1.613 . S
S6624 N6626 1.610 . S
N6625 S6624 1.613 . S
N6625 C6628 1.350 . S
N6626 S6624 1.610 . S
N6626 C6627 1.351 . S
C6627 C6621 1.428 . S
C6627 N6626 1.351 . S
C6627 C6628 1.434 . S
C6628 C6619 1.429 . S
C6628 N6625 1.350 . S
C6628 C6627 1.434 . S
C6629 C6630 1.369 . S
C6629 C6631 1.419 . S
C6629 H6633 0.930 . S
C6630 C6629 1.369 . S
C6630 C6639 1.429 . S
C6631 C6629 1.419 . S
C6631 C6632 1.363 . S
C6631 H6634 0.929 . S
C6632 C6631 1.363 . S
C6632 C6638 1.428 . S
H6633 C6629 0.930 . S
H6634 C6631 0.929 . S
S6635 N6636 1.613 . S
S6635 N6637 1.610 . S
N6636 S6635 1.613 . S
N6636 C6639 1.350 . S
N6637 S6635 1.610 . S
N6637 C6638 1.351 . S
C6638 C6632 1.428 . S
C6638 N6637 1.351 . S
C6638 C6639 1.434 . S
C6639 C6630 1.429 . S
C6639 N6636 1.350 . S
C6639 C6638 1.434 . S
C6640 C6641 1.369 . S
C6640 C6642 1.419 . S
C6640 H6644 0.930 . S
C6641 C6640 1.369 . S
C6641 C6650 1.429 . S
C6642 C6640 1.419 . S
C6642 C6643 1.363 . S
C6642 H6645 0.929 . S
C6643 C6642 1.363 . S
C6643 C6649 1.428 . S
H6644 C6640 0.930 . S
H6645 C6642 0.929 . S
S6646 N6647 1.613 . S
S6646 N6648 1.610 . S
N6647 S6646 1.613 . S
N6647 C6650 1.350 . S
N6648 S6646 1.610 . S
N6648 C6649 1.351 . S
C6649 C6643 1.428 . S
C6649 N6648 1.351 . S
C6649 C6650 1.434 . S
C6650 C6641 1.429 . S
C6650 N6647 1.350 . S
C6650 C6649 1.434 . S
C6651 C6652 1.369 . S
C6651 C6653 1.419 . S
C6651 H6655 0.930 . S
C6652 C6651 1.369 . S
C6652 C6661 1.429 . S
C6653 C6651 1.419 . S
C6653 C6654 1.363 . S
C6653 H6656 0.929 . S
C6654 C6653 1.363 . S
C6654 C6660 1.428 . S
H6655 C6651 0.930 . S
H6656 C6653 0.929 . S
S6657 N6658 1.613 . S
S6657 N6659 1.610 . S
N6658 S6657 1.613 . S
N6658 C6661 1.350 . S
N6659 S6657 1.610 . S
N6659 C6660 1.351 . S
C6660 C6654 1.428 . S
C6660 N6659 1.351 . S
C6660 C6661 1.434 . S
C6661 C6652 1.429 . S
C6661 N6658 1.350 . S
C6661 C6660 1.434 . S
C6662 C6663 1.369 . S
C6662 C6664 1.419 . S
C6662 H6666 0.930 . S
C6663 C6662 1.369 . S
C6663 C6672 1.429 . S
C6664 C6662 1.419 . S
C6664 C6665 1.363 . S
C6664 H6667 0.929 . S
C6665 C6664 1.363 . S
C6665 C6671 1.428 . S
H6666 C6662 0.930 . S
H6667 C6664 0.929 . S
S6668 N6669 1.613 . S
S6668 N6670 1.610 . S
N6669 S6668 1.613 . S
N6669 C6672 1.350 . S
N6670 S6668 1.610 . S
N6670 C6671 1.351 . S
C6671 C6665 1.428 . S
C6671 N6670 1.351 . S
C6671 C6672 1.434 . S
C6672 C6663 1.429 . S
C6672 N6669 1.350 . S
C6672 C6671 1.434 . S
C6673 C6674 1.369 . S
C6673 C6675 1.419 . S
C6673 H6677 0.930 . S
C6674 C6673 1.369 . S
C6674 C6683 1.429 . S
C6675 C6673 1.419 . S
C6675 C6676 1.363 . S
C6675 H6678 0.929 . S
C6676 C6675 1.363 . S
C6676 C6682 1.428 . S
H6677 C6673 0.930 . S
H6678 C6675 0.929 . S
S6679 N6680 1.613 . S
S6679 N6681 1.610 . S
N6680 S6679 1.613 . S
N6680 C6683 1.350 . S
N6681 S6679 1.610 . S
N6681 C6682 1.351 . S
C6682 C6676 1.428 . S
C6682 N6681 1.351 . S
C6682 C6683 1.434 . S
C6683 C6674 1.429 . S
C6683 N6680 1.350 . S
C6683 C6682 1.434 . S
C6684 C6685 1.369 . S
C6684 C6686 1.419 . S
C6684 H6688 0.930 . S
C6685 C6684 1.369 . S
C6685 C6694 1.429 . S
C6686 C6684 1.419 . S
C6686 C6687 1.363 . S
C6686 H6689 0.929 . S
C6687 C6686 1.363 . S
C6687 C6693 1.428 . S
H6688 C6684 0.930 . S
H6689 C6686 0.929 . S
S6690 N6691 1.613 . S
S6690 N6692 1.610 . S
N6691 S6690 1.613 . S
N6691 C6694 1.350 . S
N6692 S6690 1.610 . S
N6692 C6693 1.351 . S
C6693 C6687 1.428 . S
C6693 N6692 1.351 . S
C6693 C6694 1.434 . S
C6694 C6685 1.429 . S
C6694 N6691 1.350 . S
C6694 C6693 1.434 . S
C6695 C6696 1.369 . S
C6695 C6697 1.419 . S
C6695 H6699 0.930 . S
C6696 C6695 1.369 . S
C6696 C6705 1.429 . S
C6697 C6695 1.419 . S
C6697 C6698 1.363 . S
C6697 H6700 0.929 . S
C6698 C6697 1.363 . S
C6698 C6704 1.428 . S
H6699 C6695 0.930 . S
H6700 C6697 0.929 . S
S6701 N6702 1.613 . S
S6701 N6703 1.610 . S
N6702 S6701 1.613 . S
N6702 C6705 1.350 . S
N6703 S6701 1.610 . S
N6703 C6704 1.351 . S
C6704 C6698 1.428 . S
C6704 N6703 1.351 . S
C6704 C6705 1.434 . S
C6705 C6696 1.429 . S
C6705 N6702 1.350 . S
C6705 C6704 1.434 . S
C6706 C6707 1.369 . S
C6706 C6708 1.419 . S
C6706 H6710 0.930 . S
C6707 C6706 1.369 . S
C6707 C6716 1.429 . S
C6708 C6706 1.419 . S
C6708 C6709 1.363 . S
C6708 H6711 0.929 . S
C6709 C6708 1.363 . S
C6709 C6715 1.428 . S
H6710 C6706 0.930 . S
H6711 C6708 0.929 . S
S6712 N6713 1.613 . S
S6712 N6714 1.610 . S
N6713 S6712 1.613 . S
N6713 C6716 1.350 . S
N6714 S6712 1.610 . S
N6714 C6715 1.351 . S
C6715 C6709 1.428 . S
C6715 N6714 1.351 . S
C6715 C6716 1.434 . S
C6716 C6707 1.429 . S
C6716 N6713 1.350 . S
C6716 C6715 1.434 . S
C6717 C6718 1.369 . S
C6717 C6719 1.419 . S
C6717 H6721 0.930 . S
C6718 C6717 1.369 . S
C6718 C6727 1.429 . S
C6719 C6717 1.419 . S
C6719 C6720 1.363 . S
C6719 H6722 0.929 . S
C6720 C6719 1.363 . S
C6720 C6726 1.428 . S
H6721 C6717 0.930 . S
H6722 C6719 0.929 . S
S6723 N6724 1.613 . S
S6723 N6725 1.610 . S
N6724 S6723 1.613 . S
N6724 C6727 1.350 . S
N6725 S6723 1.610 . S
N6725 C6726 1.351 . S
C6726 C6720 1.428 . S
C6726 N6725 1.351 . S
C6726 C6727 1.434 . S
C6727 C6718 1.429 . S
C6727 N6724 1.350 . S
C6727 C6726 1.434 . S
C6728 C6729 1.369 . S
C6728 C6730 1.419 . S
C6728 H6732 0.930 . S
C6729 C6728 1.369 . S
C6729 C6738 1.429 . S
C6730 C6728 1.419 . S
C6730 C6731 1.363 . S
C6730 H6733 0.929 . S
C6731 C6730 1.363 . S
C6731 C6737 1.428 . S
H6732 C6728 0.930 . S
H6733 C6730 0.929 . S
S6734 N6735 1.613 . S
S6734 N6736 1.610 . S
N6735 S6734 1.613 . S
N6735 C6738 1.350 . S
N6736 S6734 1.610 . S
N6736 C6737 1.351 . S
C6737 C6731 1.428 . S
C6737 N6736 1.351 . S
C6737 C6738 1.434 . S
C6738 C6729 1.429 . S
C6738 N6735 1.350 . S
C6738 C6737 1.434 . S
C6739 C6740 1.369 . S
C6739 C6741 1.419 . S
C6739 H6743 0.930 . S
C6740 C6739 1.369 . S
C6740 C6749 1.429 . S
C6741 C6739 1.419 . S
C6741 C6742 1.363 . S
C6741 H6744 0.929 . S
C6742 C6741 1.363 . S
C6742 C6748 1.428 . S
H6743 C6739 0.930 . S
H6744 C6741 0.929 . S
S6745 N6746 1.613 . S
S6745 N6747 1.610 . S
N6746 S6745 1.613 . S
N6746 C6749 1.350 . S
N6747 S6745 1.610 . S
N6747 C6748 1.351 . S
C6748 C6742 1.428 . S
C6748 N6747 1.351 . S
C6748 C6749 1.434 . S
C6749 C6740 1.429 . S
C6749 N6746 1.350 . S
C6749 C6748 1.434 . S
C6750 C6751 1.369 . S
C6750 C6752 1.419 . S
C6750 H6754 0.930 . S
C6751 C6750 1.369 . S
C6751 C6760 1.429 . S
C6752 C6750 1.419 . S
C6752 C6753 1.363 . S
C6752 H6755 0.929 . S
C6753 C6752 1.363 . S
C6753 C6759 1.428 . S
H6754 C6750 0.930 . S
H6755 C6752 0.929 . S
S6756 N6757 1.613 . S
S6756 N6758 1.610 . S
N6757 S6756 1.613 . S
N6757 C6760 1.350 . S
N6758 S6756 1.610 . S
N6758 C6759 1.351 . S
C6759 C6753 1.428 . S
C6759 N6758 1.351 . S
C6759 C6760 1.434 . S
C6760 C6751 1.429 . S
C6760 N6757 1.350 . S
C6760 C6759 1.434 . S
C6761 C6762 1.369 . S
C6761 C6763 1.419 . S
C6761 H6765 0.930 . S
C6762 C6761 1.369 . S
C6762 C6771 1.429 . S
C6763 C6761 1.419 . S
C6763 C6764 1.363 . S
C6763 H6766 0.929 . S
C6764 C6763 1.363 . S
C6764 C6770 1.428 . S
H6765 C6761 0.930 . S
H6766 C6763 0.929 . S
S6767 N6768 1.613 . S
S6767 N6769 1.610 . S
N6768 S6767 1.613 . S
N6768 C6771 1.350 . S
N6769 S6767 1.610 . S
N6769 C6770 1.351 . S
C6770 C6764 1.428 . S
C6770 N6769 1.351 . S
C6770 C6771 1.434 . S
C6771 C6762 1.429 . S
C6771 N6768 1.350 . S
C6771 C6770 1.434 . S
C6772 C6773 1.369 . S
C6772 C6774 1.419 . S
C6772 H6776 0.930 . S
C6773 C6772 1.369 . S
C6773 C6782 1.429 . S
C6774 C6772 1.419 . S
C6774 C6775 1.363 . S
C6774 H6777 0.929 . S
C6775 C6774 1.363 . S
C6775 C6781 1.428 . S
H6776 C6772 0.930 . S
H6777 C6774 0.929 . S
S6778 N6779 1.613 . S
S6778 N6780 1.610 . S
N6779 S6778 1.613 . S
N6779 C6782 1.350 . S
N6780 S6778 1.610 . S
N6780 C6781 1.351 . S
C6781 C6775 1.428 . S
C6781 N6780 1.351 . S
C6781 C6782 1.434 . S
C6782 C6773 1.429 . S
C6782 N6779 1.350 . S
C6782 C6781 1.434 . S
C6783 C6784 1.369 . S
C6783 C6785 1.419 . S
C6783 H6787 0.930 . S
C6784 C6783 1.369 . S
C6784 C6793 1.429 . S
C6785 C6783 1.419 . S
C6785 C6786 1.363 . S
C6785 H6788 0.929 . S
C6786 C6785 1.363 . S
C6786 C6792 1.428 . S
H6787 C6783 0.930 . S
H6788 C6785 0.929 . S
S6789 N6790 1.613 . S
S6789 N6791 1.610 . S
N6790 S6789 1.613 . S
N6790 C6793 1.350 . S
N6791 S6789 1.610 . S
N6791 C6792 1.351 . S
C6792 C6786 1.428 . S
C6792 N6791 1.351 . S
C6792 C6793 1.434 . S
C6793 C6784 1.429 . S
C6793 N6790 1.350 . S
C6793 C6792 1.434 . S
C6794 C6795 1.369 . S
C6794 C6796 1.419 . S
C6794 H6798 0.930 . S
C6795 C6794 1.369 . S
C6795 C6804 1.429 . S
C6796 C6794 1.419 . S
C6796 C6797 1.363 . S
C6796 H6799 0.929 . S
C6797 C6796 1.363 . S
C6797 C6803 1.428 . S
H6798 C6794 0.930 . S
H6799 C6796 0.929 . S
S6800 N6801 1.613 . S
S6800 N6802 1.610 . S
N6801 S6800 1.613 . S
N6801 C6804 1.350 . S
N6802 S6800 1.610 . S
N6802 C6803 1.351 . S
C6803 C6797 1.428 . S
C6803 N6802 1.351 . S
C6803 C6804 1.434 . S
C6804 C6795 1.429 . S
C6804 N6801 1.350 . S
C6804 C6803 1.434 . S
C6805 C6806 1.369 . S
C6805 C6807 1.419 . S
C6805 H6809 0.930 . S
C6806 C6805 1.369 . S
C6806 C6815 1.429 . S
C6807 C6805 1.419 . S
C6807 C6808 1.363 . S
C6807 H6810 0.929 . S
C6808 C6807 1.363 . S
C6808 C6814 1.428 . S
H6809 C6805 0.930 . S
H6810 C6807 0.929 . S
S6811 N6812 1.613 . S
S6811 N6813 1.610 . S
N6812 S6811 1.613 . S
N6812 C6815 1.350 . S
N6813 S6811 1.610 . S
N6813 C6814 1.351 . S
C6814 C6808 1.428 . S
C6814 N6813 1.351 . S
C6814 C6815 1.434 . S
C6815 C6806 1.429 . S
C6815 N6812 1.350 . S
C6815 C6814 1.434 . S
C6816 C6817 1.369 . S
C6816 C6818 1.419 . S
C6816 H6820 0.930 . S
C6817 C6816 1.369 . S
C6817 C6826 1.429 . S
C6818 C6816 1.419 . S
C6818 C6819 1.363 . S
C6818 H6821 0.929 . S
C6819 C6818 1.363 . S
C6819 C6825 1.428 . S
H6820 C6816 0.930 . S
H6821 C6818 0.929 . S
S6822 N6823 1.613 . S
S6822 N6824 1.610 . S
N6823 S6822 1.613 . S
N6823 C6826 1.350 . S
N6824 S6822 1.610 . S
N6824 C6825 1.351 . S
C6825 C6819 1.428 . S
C6825 N6824 1.351 . S
C6825 C6826 1.434 . S
C6826 C6817 1.429 . S
C6826 N6823 1.350 . S
C6826 C6825 1.434 . S
C6827 C6828 1.369 . S
C6827 C6829 1.419 . S
C6827 H6831 0.930 . S
C6828 C6827 1.369 . S
C6828 C6837 1.429 . S
C6829 C6827 1.419 . S
C6829 C6830 1.363 . S
C6829 H6832 0.929 . S
C6830 C6829 1.363 . S
C6830 C6836 1.428 . S
H6831 C6827 0.930 . S
H6832 C6829 0.929 . S
S6833 N6834 1.613 . S
S6833 N6835 1.610 . S
N6834 S6833 1.613 . S
N6834 C6837 1.350 . S
N6835 S6833 1.610 . S
N6835 C6836 1.351 . S
C6836 C6830 1.428 . S
C6836 N6835 1.351 . S
C6836 C6837 1.434 . S
C6837 C6828 1.429 . S
C6837 N6834 1.350 . S
C6837 C6836 1.434 . S
C6838 C6839 1.369 . S
C6838 C6840 1.419 . S
C6838 H6842 0.930 . S
C6839 C6838 1.369 . S
C6839 C6848 1.429 . S
C6840 C6838 1.419 . S
C6840 C6841 1.363 . S
C6840 H6843 0.929 . S
C6841 C6840 1.363 . S
C6841 C6847 1.428 . S
H6842 C6838 0.930 . S
H6843 C6840 0.929 . S
S6844 N6845 1.613 . S
S6844 N6846 1.610 . S
N6845 S6844 1.613 . S
N6845 C6848 1.350 . S
N6846 S6844 1.610 . S
N6846 C6847 1.351 . S
C6847 C6841 1.428 . S
C6847 N6846 1.351 . S
C6847 C6848 1.434 . S
C6848 C6839 1.429 . S
C6848 N6845 1.350 . S
C6848 C6847 1.434 . S
C6849 C6850 1.369 . S
C6849 C6851 1.419 . S
C6849 H6853 0.930 . S
C6850 C6849 1.369 . S
C6850 C6859 1.429 . S
C6851 C6849 1.419 . S
C6851 C6852 1.363 . S
C6851 H6854 0.929 . S
C6852 C6851 1.363 . S
C6852 C6858 1.428 . S
H6853 C6849 0.930 . S
H6854 C6851 0.929 . S
S6855 N6856 1.613 . S
S6855 N6857 1.610 . S
N6856 S6855 1.613 . S
N6856 C6859 1.350 . S
N6857 S6855 1.610 . S
N6857 C6858 1.351 . S
C6858 C6852 1.428 . S
C6858 N6857 1.351 . S
C6858 C6859 1.434 . S
C6859 C6850 1.429 . S
C6859 N6856 1.350 . S
C6859 C6858 1.434 . S
C6860 C6861 1.369 . S
C6860 C6862 1.419 . S
C6860 H6864 0.930 . S
C6861 C6860 1.369 . S
C6861 C6870 1.429 . S
C6862 C6860 1.419 . S
C6862 C6863 1.363 . S
C6862 H6865 0.929 . S
C6863 C6862 1.363 . S
C6863 C6869 1.428 . S
H6864 C6860 0.930 . S
H6865 C6862 0.929 . S
S6866 N6867 1.613 . S
S6866 N6868 1.610 . S
N6867 S6866 1.613 . S
N6867 C6870 1.350 . S
N6868 S6866 1.610 . S
N6868 C6869 1.351 . S
C6869 C6863 1.428 . S
C6869 N6868 1.351 . S
C6869 C6870 1.434 . S
C6870 C6861 1.429 . S
C6870 N6867 1.350 . S
C6870 C6869 1.434 . S
C6871 C6872 1.369 . S
C6871 C6873 1.419 . S
C6871 H6875 0.930 . S
C6872 C6871 1.369 . S
C6872 C6881 1.429 . S
C6873 C6871 1.419 . S
C6873 C6874 1.363 . S
C6873 H6876 0.929 . S
C6874 C6873 1.363 . S
C6874 C6880 1.428 . S
H6875 C6871 0.930 . S
H6876 C6873 0.929 . S
S6877 N6878 1.613 . S
S6877 N6879 1.610 . S
N6878 S6877 1.613 . S
N6878 C6881 1.350 . S
N6879 S6877 1.610 . S
N6879 C6880 1.351 . S
C6880 C6874 1.428 . S
C6880 N6879 1.351 . S
C6880 C6881 1.434 . S
C6881 C6872 1.429 . S
C6881 N6878 1.350 . S
C6881 C6880 1.434 . S
C6882 C6883 1.369 . S
C6882 C6884 1.419 . S
C6882 H6886 0.930 . S
C6883 C6882 1.369 . S
C6883 C6892 1.429 . S
C6884 C6882 1.419 . S
C6884 C6885 1.363 . S
C6884 H6887 0.929 . S
C6885 C6884 1.363 . S
C6885 C6891 1.428 . S
H6886 C6882 0.930 . S
H6887 C6884 0.929 . S
S6888 N6889 1.613 . S
S6888 N6890 1.610 . S
N6889 S6888 1.613 . S
N6889 C6892 1.350 . S
N6890 S6888 1.610 . S
N6890 C6891 1.351 . S
C6891 C6885 1.428 . S
C6891 N6890 1.351 . S
C6891 C6892 1.434 . S
C6892 C6883 1.429 . S
C6892 N6889 1.350 . S
C6892 C6891 1.434 . S
C6893 C6894 1.369 . S
C6893 C6895 1.419 . S
C6893 H6897 0.930 . S
C6894 C6893 1.369 . S
C6894 C6903 1.429 . S
C6895 C6893 1.419 . S
C6895 C6896 1.363 . S
C6895 H6898 0.929 . S
C6896 C6895 1.363 . S
C6896 C6902 1.428 . S
H6897 C6893 0.930 . S
H6898 C6895 0.929 . S
S6899 N6900 1.613 . S
S6899 N6901 1.610 . S
N6900 S6899 1.613 . S
N6900 C6903 1.350 . S
N6901 S6899 1.610 . S
N6901 C6902 1.351 . S
C6902 C6896 1.428 . S
C6902 N6901 1.351 . S
C6902 C6903 1.434 . S
C6903 C6894 1.429 . S
C6903 N6900 1.350 . S
C6903 C6902 1.434 . S
C6904 C6905 1.369 . S
C6904 C6906 1.419 . S
C6904 H6908 0.930 . S
C6905 C6904 1.369 . S
C6905 C6914 1.429 . S
C6906 C6904 1.419 . S
C6906 C6907 1.363 . S
C6906 H6909 0.929 . S
C6907 C6906 1.363 . S
C6907 C6913 1.428 . S
H6908 C6904 0.930 . S
H6909 C6906 0.929 . S
S6910 N6911 1.613 . S
S6910 N6912 1.610 . S
N6911 S6910 1.613 . S
N6911 C6914 1.350 . S
N6912 S6910 1.610 . S
N6912 C6913 1.351 . S
C6913 C6907 1.428 . S
C6913 N6912 1.351 . S
C6913 C6914 1.434 . S
C6914 C6905 1.429 . S
C6914 N6911 1.350 . S
C6914 C6913 1.434 . S
C6915 C6916 1.369 . S
C6915 C6917 1.419 . S
C6915 H6919 0.930 . S
C6916 C6915 1.369 . S
C6916 C6925 1.429 . S
C6917 C6915 1.419 . S
C6917 C6918 1.363 . S
C6917 H6920 0.929 . S
C6918 C6917 1.363 . S
C6918 C6924 1.428 . S
H6919 C6915 0.930 . S
H6920 C6917 0.929 . S
S6921 N6922 1.613 . S
S6921 N6923 1.610 . S
N6922 S6921 1.613 . S
N6922 C6925 1.350 . S
N6923 S6921 1.610 . S
N6923 C6924 1.351 . S
C6924 C6918 1.428 . S
C6924 N6923 1.351 . S
C6924 C6925 1.434 . S
C6925 C6916 1.429 . S
C6925 N6922 1.350 . S
C6925 C6924 1.434 . S
C6926 C6927 1.369 . S
C6926 C6928 1.419 . S
C6926 H6930 0.930 . S
C6927 C6926 1.369 . S
C6927 C6936 1.429 . S
C6928 C6926 1.419 . S
C6928 C6929 1.363 . S
C6928 H6931 0.929 . S
C6929 C6928 1.363 . S
C6929 C6935 1.428 . S
H6930 C6926 0.930 . S
H6931 C6928 0.929 . S
S6932 N6933 1.613 . S
S6932 N6934 1.610 . S
N6933 S6932 1.613 . S
N6933 C6936 1.350 . S
N6934 S6932 1.610 . S
N6934 C6935 1.351 . S
C6935 C6929 1.428 . S
C6935 N6934 1.351 . S
C6935 C6936 1.434 . S
C6936 C6927 1.429 . S
C6936 N6933 1.350 . S
C6936 C6935 1.434 . S
C6937 C6938 1.369 . S
C6937 C6939 1.419 . S
C6937 H6941 0.930 . S
C6938 C6937 1.369 . S
C6938 C6947 1.429 . S
C6939 C6937 1.419 . S
C6939 C6940 1.363 . S
C6939 H6942 0.929 . S
C6940 C6939 1.363 . S
C6940 C6946 1.428 . S
H6941 C6937 0.930 . S
H6942 C6939 0.929 . S
S6943 N6944 1.613 . S
S6943 N6945 1.610 . S
N6944 S6943 1.613 . S
N6944 C6947 1.350 . S
N6945 S6943 1.610 . S
N6945 C6946 1.351 . S
C6946 C6940 1.428 . S
C6946 N6945 1.351 . S
C6946 C6947 1.434 . S
C6947 C6938 1.429 . S
C6947 N6944 1.350 . S
C6947 C6946 1.434 . S
C6948 C6949 1.369 . S
C6948 C6950 1.419 . S
C6948 H6952 0.930 . S
C6949 C6948 1.369 . S
C6949 C6958 1.429 . S
C6950 C6948 1.419 . S
C6950 C6951 1.363 . S
C6950 H6953 0.929 . S
C6951 C6950 1.363 . S
C6951 C6957 1.428 . S
H6952 C6948 0.930 . S
H6953 C6950 0.929 . S
S6954 N6955 1.613 . S
S6954 N6956 1.610 . S
N6955 S6954 1.613 . S
N6955 C6958 1.350 . S
N6956 S6954 1.610 . S
N6956 C6957 1.351 . S
C6957 C6951 1.428 . S
C6957 N6956 1.351 . S
C6957 C6958 1.434 . S
C6958 C6949 1.429 . S
C6958 N6955 1.350 . S
C6958 C6957 1.434 . S
C6959 C6960 1.369 . S
C6959 C6961 1.419 . S
C6959 H6963 0.930 . S
C6960 C6959 1.369 . S
C6960 C6969 1.429 . S
C6961 C6959 1.419 . S
C6961 C6962 1.363 . S
C6961 H6964 0.929 . S
C6962 C6961 1.363 . S
C6962 C6968 1.428 . S
H6963 C6959 0.930 . S
H6964 C6961 0.929 . S
S6965 N6966 1.613 . S
S6965 N6967 1.610 . S
N6966 S6965 1.613 . S
N6966 C6969 1.350 . S
N6967 S6965 1.610 . S
N6967 C6968 1.351 . S
C6968 C6962 1.428 . S
C6968 N6967 1.351 . S
C6968 C6969 1.434 . S
C6969 C6960 1.429 . S
C6969 N6966 1.350 . S
C6969 C6968 1.434 . S
C6970 C6971 1.369 . S
C6970 C6972 1.419 . S
C6970 H6974 0.930 . S
C6971 C6970 1.369 . S
C6971 C6980 1.429 . S
C6972 C6970 1.419 . S
C6972 C6973 1.363 . S
C6972 H6975 0.929 . S
C6973 C6972 1.363 . S
C6973 C6979 1.428 . S
H6974 C6970 0.930 . S
H6975 C6972 0.929 . S
S6976 N6977 1.613 . S
S6976 N6978 1.610 . S
N6977 S6976 1.613 . S
N6977 C6980 1.350 . S
N6978 S6976 1.610 . S
N6978 C6979 1.351 . S
C6979 C6973 1.428 . S
C6979 N6978 1.351 . S
C6979 C6980 1.434 . S
C6980 C6971 1.429 . S
C6980 N6977 1.350 . S
C6980 C6979 1.434 . S
C6981 C6982 1.369 . S
C6981 C6983 1.419 . S
C6981 H6985 0.930 . S
C6982 C6981 1.369 . S
C6982 C6991 1.429 . S
C6983 C6981 1.419 . S
C6983 C6984 1.363 . S
C6983 H6986 0.929 . S
C6984 C6983 1.363 . S
C6984 C6990 1.428 . S
H6985 C6981 0.930 . S
H6986 C6983 0.929 . S
S6987 N6988 1.613 . S
S6987 N6989 1.610 . S
N6988 S6987 1.613 . S
N6988 C6991 1.350 . S
N6989 S6987 1.610 . S
N6989 C6990 1.351 . S
C6990 C6984 1.428 . S
C6990 N6989 1.351 . S
C6990 C6991 1.434 . S
C6991 C6982 1.429 . S
C6991 N6988 1.350 . S
C6991 C6990 1.434 . S
C6992 C6993 1.369 . S
C6992 C6994 1.419 . S
C6992 H6996 0.930 . S
C6993 C6992 1.369 . S
C6993 C7002 1.429 . S
C6994 C6992 1.419 . S
C6994 C6995 1.363 . S
C6994 H6997 0.929 . S
C6995 C6994 1.363 . S
C6995 C7001 1.428 . S
H6996 C6992 0.930 . S
H6997 C6994 0.929 . S
S6998 N6999 1.613 . S
S6998 N7000 1.610 . S
N6999 S6998 1.613 . S
N6999 C7002 1.350 . S
N7000 S6998 1.610 . S
N7000 C7001 1.351 . S
C7001 C6995 1.428 . S
C7001 N7000 1.351 . S
C7001 C7002 1.434 . S
C7002 C6993 1.429 . S
C7002 N6999 1.350 . S
C7002 C7001 1.434 . S
C7003 C7004 1.369 . S
C7003 C7005 1.419 . S
C7003 H7007 0.930 . S
C7004 C7003 1.369 . S
C7004 C7013 1.429 . S
C7005 C7003 1.419 . S
C7005 C7006 1.363 . S
C7005 H7008 0.929 . S
C7006 C7005 1.363 . S
C7006 C7012 1.428 . S
H7007 C7003 0.930 . S
H7008 C7005 0.929 . S
S7009 N7010 1.613 . S
S7009 N7011 1.610 . S
N7010 S7009 1.613 . S
N7010 C7013 1.350 . S
N7011 S7009 1.610 . S
N7011 C7012 1.351 . S
C7012 C7006 1.428 . S
C7012 N7011 1.351 . S
C7012 C7013 1.434 . S
C7013 C7004 1.429 . S
C7013 N7010 1.350 . S
C7013 C7012 1.434 . S
C7014 C7015 1.369 . S
C7014 C7016 1.419 . S
C7014 H7018 0.930 . S
C7015 C7014 1.369 . S
C7015 C7024 1.429 . S
C7016 C7014 1.419 . S
C7016 C7017 1.363 . S
C7016 H7019 0.929 . S
C7017 C7016 1.363 . S
C7017 C7023 1.428 . S
H7018 C7014 0.930 . S
H7019 C7016 0.929 . S
S7020 N7021 1.613 . S
S7020 N7022 1.610 . S
N7021 S7020 1.613 . S
N7021 C7024 1.350 . S
N7022 S7020 1.610 . S
N7022 C7023 1.351 . S
C7023 C7017 1.428 . S
C7023 N7022 1.351 . S
C7023 C7024 1.434 . S
C7024 C7015 1.429 . S
C7024 N7021 1.350 . S
C7024 C7023 1.434 . S
C7025 C7026 1.369 . S
C7025 C7027 1.419 . S
C7025 H7029 0.930 . S
C7026 C7025 1.369 . S
C7026 C7035 1.429 . S
C7027 C7025 1.419 . S
C7027 C7028 1.363 . S
C7027 H7030 0.929 . S
C7028 C7027 1.363 . S
C7028 C7034 1.428 . S
H7029 C7025 0.930 . S
H7030 C7027 0.929 . S
S7031 N7032 1.613 . S
S7031 N7033 1.610 . S
N7032 S7031 1.613 . S
N7032 C7035 1.350 . S
N7033 S7031 1.610 . S
N7033 C7034 1.351 . S
C7034 C7028 1.428 . S
C7034 N7033 1.351 . S
C7034 C7035 1.434 . S
C7035 C7026 1.429 . S
C7035 N7032 1.350 . S
C7035 C7034 1.434 . S
C7036 C7037 1.369 . S
C7036 C7038 1.419 . S
C7036 H7040 0.930 . S
C7037 C7036 1.369 . S
C7037 C7046 1.429 . S
C7038 C7036 1.419 . S
C7038 C7039 1.363 . S
C7038 H7041 0.929 . S
C7039 C7038 1.363 . S
C7039 C7045 1.428 . S
H7040 C7036 0.930 . S
H7041 C7038 0.929 . S
S7042 N7043 1.613 . S
S7042 N7044 1.610 . S
N7043 S7042 1.613 . S
N7043 C7046 1.350 . S
N7044 S7042 1.610 . S
N7044 C7045 1.351 . S
C7045 C7039 1.428 . S
C7045 N7044 1.351 . S
C7045 C7046 1.434 . S
C7046 C7037 1.429 . S
C7046 N7043 1.350 . S
C7046 C7045 1.434 . S
C7047 C7048 1.369 . S
C7047 C7049 1.419 . S
C7047 H7051 0.930 . S
C7048 C7047 1.369 . S
C7048 C7057 1.429 . S
C7049 C7047 1.419 . S
C7049 C7050 1.363 . S
C7049 H7052 0.929 . S
C7050 C7049 1.363 . S
C7050 C7056 1.428 . S
H7051 C7047 0.930 . S
H7052 C7049 0.929 . S
S7053 N7054 1.613 . S
S7053 N7055 1.610 . S
N7054 S7053 1.613 . S
N7054 C7057 1.350 . S
N7055 S7053 1.610 . S
N7055 C7056 1.351 . S
C7056 C7050 1.428 . S
C7056 N7055 1.351 . S
C7056 C7057 1.434 . S
C7057 C7048 1.429 . S
C7057 N7054 1.350 . S
C7057 C7056 1.434 . S
C7058 C7059 1.369 . S
C7058 C7060 1.419 . S
C7058 H7062 0.930 . S
C7059 C7058 1.369 . S
C7059 C7068 1.429 . S
C7060 C7058 1.419 . S
C7060 C7061 1.363 . S
C7060 H7063 0.929 . S
C7061 C7060 1.363 . S
C7061 C7067 1.428 . S
H7062 C7058 0.930 . S
H7063 C7060 0.929 . S
S7064 N7065 1.613 . S
S7064 N7066 1.610 . S
N7065 S7064 1.613 . S
N7065 C7068 1.350 . S
N7066 S7064 1.610 . S
N7066 C7067 1.351 . S
C7067 C7061 1.428 . S
C7067 N7066 1.351 . S
C7067 C7068 1.434 . S
C7068 C7059 1.429 . S
C7068 N7065 1.350 . S
C7068 C7067 1.434 . S
C7069 C7070 1.369 . S
C7069 C7071 1.419 . S
C7069 H7073 0.930 . S
C7070 C7069 1.369 . S
C7070 C7079 1.429 . S
C7071 C7069 1.419 . S
C7071 C7072 1.363 . S
C7071 H7074 0.929 . S
C7072 C7071 1.363 . S
C7072 C7078 1.428 . S
H7073 C7069 0.930 . S
H7074 C7071 0.929 . S
S7075 N7076 1.613 . S
S7075 N7077 1.610 . S
N7076 S7075 1.613 . S
N7076 C7079 1.350 . S
N7077 S7075 1.610 . S
N7077 C7078 1.351 . S
C7078 C7072 1.428 . S
C7078 N7077 1.351 . S
C7078 C7079 1.434 . S
C7079 C7070 1.429 . S
C7079 N7076 1.350 . S
C7079 C7078 1.434 . S
C7080 C7081 1.369 . S
C7080 C7082 1.419 . S
C7080 H7084 0.930 . S
C7081 C7080 1.369 . S
C7081 C7090 1.429 . S
C7082 C7080 1.419 . S
C7082 C7083 1.363 . S
C7082 H7085 0.929 . S
C7083 C7082 1.363 . S
C7083 C7089 1.428 . S
H7084 C7080 0.930 . S
H7085 C7082 0.929 . S
S7086 N7087 1.613 . S
S7086 N7088 1.610 . S
N7087 S7086 1.613 . S
N7087 C7090 1.350 . S
N7088 S7086 1.610 . S
N7088 C7089 1.351 . S
C7089 C7083 1.428 . S
C7089 N7088 1.351 . S
C7089 C7090 1.434 . S
C7090 C7081 1.429 . S
C7090 N7087 1.350 . S
C7090 C7089 1.434 . S
C7091 C7092 1.369 . S
C7091 C7093 1.419 . S
C7091 H7095 0.930 . S
C7092 C7091 1.369 . S
C7092 C7101 1.429 . S
C7093 C7091 1.419 . S
C7093 C7094 1.363 . S
C7093 H7096 0.929 . S
C7094 C7093 1.363 . S
C7094 C7100 1.428 . S
H7095 C7091 0.930 . S
H7096 C7093 0.929 . S
S7097 N7098 1.613 . S
S7097 N7099 1.610 . S
N7098 S7097 1.613 . S
N7098 C7101 1.350 . S
N7099 S7097 1.610 . S
N7099 C7100 1.351 . S
C7100 C7094 1.428 . S
C7100 N7099 1.351 . S
C7100 C7101 1.434 . S
C7101 C7092 1.429 . S
C7101 N7098 1.350 . S
C7101 C7100 1.434 . S
C7102 C7103 1.369 . S
C7102 C7104 1.419 . S
C7102 H7106 0.930 . S
C7103 C7102 1.369 . S
C7103 C7112 1.429 . S
C7104 C7102 1.419 . S
C7104 C7105 1.363 . S
C7104 H7107 0.929 . S
C7105 C7104 1.363 . S
C7105 C7111 1.428 . S
H7106 C7102 0.930 . S
H7107 C7104 0.929 . S
S7108 N7109 1.613 . S
S7108 N7110 1.610 . S
N7109 S7108 1.613 . S
N7109 C7112 1.350 . S
N7110 S7108 1.610 . S
N7110 C7111 1.351 . S
C7111 C7105 1.428 . S
C7111 N7110 1.351 . S
C7111 C7112 1.434 . S
C7112 C7103 1.429 . S
C7112 N7109 1.350 . S
C7112 C7111 1.434 . S
C7113 C7114 1.369 . S
C7113 C7115 1.419 . S
C7113 H7117 0.930 . S
C7114 C7113 1.369 . S
C7114 C7123 1.429 . S
C7115 C7113 1.419 . S
C7115 C7116 1.363 . S
C7115 H7118 0.929 . S
C7116 C7115 1.363 . S
C7116 C7122 1.428 . S
H7117 C7113 0.930 . S
H7118 C7115 0.929 . S
S7119 N7120 1.613 . S
S7119 N7121 1.610 . S
N7120 S7119 1.613 . S
N7120 C7123 1.350 . S
N7121 S7119 1.610 . S
N7121 C7122 1.351 . S
C7122 C7116 1.428 . S
C7122 N7121 1.351 . S
C7122 C7123 1.434 . S
C7123 C7114 1.429 . S
C7123 N7120 1.350 . S
C7123 C7122 1.434 . S
C7124 C7125 1.369 . S
C7124 C7126 1.419 . S
C7124 H7128 0.930 . S
C7125 C7124 1.369 . S
C7125 C7134 1.429 . S
C7126 C7124 1.419 . S
C7126 C7127 1.363 . S
C7126 H7129 0.929 . S
C7127 C7126 1.363 . S
C7127 C7133 1.428 . S
H7128 C7124 0.930 . S
H7129 C7126 0.929 . S
S7130 N7131 1.613 . S
S7130 N7132 1.610 . S
N7131 S7130 1.613 . S
N7131 C7134 1.350 . S
N7132 S7130 1.610 . S
N7132 C7133 1.351 . S
C7133 C7127 1.428 . S
C7133 N7132 1.351 . S
C7133 C7134 1.434 . S
C7134 C7125 1.429 . S
C7134 N7131 1.350 . S
C7134 C7133 1.434 . S
C7135 C7136 1.369 . S
C7135 C7137 1.419 . S
C7135 H7139 0.930 . S
C7136 C7135 1.369 . S
C7136 C7145 1.429 . S
C7137 C7135 1.419 . S
C7137 C7138 1.363 . S
C7137 H7140 0.929 . S
C7138 C7137 1.363 . S
C7138 C7144 1.428 . S
H7139 C7135 0.930 . S
H7140 C7137 0.929 . S
S7141 N7142 1.613 . S
S7141 N7143 1.610 . S
N7142 S7141 1.613 . S
N7142 C7145 1.350 . S
N7143 S7141 1.610 . S
N7143 C7144 1.351 . S
C7144 C7138 1.428 . S
C7144 N7143 1.351 . S
C7144 C7145 1.434 . S
C7145 C7136 1.429 . S
C7145 N7142 1.350 . S
C7145 C7144 1.434 . S
C7146 C7147 1.369 . S
C7146 C7148 1.419 . S
C7146 H7150 0.930 . S
C7147 C7146 1.369 . S
C7147 C7156 1.429 . S
C7148 C7146 1.419 . S
C7148 C7149 1.363 . S
C7148 H7151 0.929 . S
C7149 C7148 1.363 . S
C7149 C7155 1.428 . S
H7150 C7146 0.930 . S
H7151 C7148 0.929 . S
S7152 N7153 1.613 . S
S7152 N7154 1.610 . S
N7153 S7152 1.613 . S
N7153 C7156 1.350 . S
N7154 S7152 1.610 . S
N7154 C7155 1.351 . S
C7155 C7149 1.428 . S
C7155 N7154 1.351 . S
C7155 C7156 1.434 . S
C7156 C7147 1.429 . S
C7156 N7153 1.350 . S
C7156 C7155 1.434 . S
C7157 C7158 1.369 . S
C7157 C7159 1.419 . S
C7157 H7161 0.930 . S
C7158 C7157 1.369 . S
C7158 C7167 1.429 . S
C7159 C7157 1.419 . S
C7159 C7160 1.363 . S
C7159 H7162 0.929 . S
C7160 C7159 1.363 . S
C7160 C7166 1.428 . S
H7161 C7157 0.930 . S
H7162 C7159 0.929 . S
S7163 N7164 1.613 . S
S7163 N7165 1.610 . S
N7164 S7163 1.613 . S
N7164 C7167 1.350 . S
N7165 S7163 1.610 . S
N7165 C7166 1.351 . S
C7166 C7160 1.428 . S
C7166 N7165 1.351 . S
C7166 C7167 1.434 . S
C7167 C7158 1.429 . S
C7167 N7164 1.350 . S
C7167 C7166 1.434 . S
C7168 C7169 1.369 . S
C7168 C7170 1.419 . S
C7168 H7172 0.930 . S
C7169 C7168 1.369 . S
C7169 C7178 1.429 . S
C7170 C7168 1.419 . S
C7170 C7171 1.363 . S
C7170 H7173 0.929 . S
C7171 C7170 1.363 . S
C7171 C7177 1.428 . S
H7172 C7168 0.930 . S
H7173 C7170 0.929 . S
S7174 N7175 1.613 . S
S7174 N7176 1.610 . S
N7175 S7174 1.613 . S
N7175 C7178 1.350 . S
N7176 S7174 1.610 . S
N7176 C7177 1.351 . S
C7177 C7171 1.428 . S
C7177 N7176 1.351 . S
C7177 C7178 1.434 . S
C7178 C7169 1.429 . S
C7178 N7175 1.350 . S
C7178 C7177 1.434 . S
C7179 C7180 1.369 . S
C7179 C7181 1.419 . S
C7179 H7183 0.930 . S
C7180 C7179 1.369 . S
C7180 C7189 1.429 . S
C7181 C7179 1.419 . S
C7181 C7182 1.363 . S
C7181 H7184 0.929 . S
C7182 C7181 1.363 . S
C7182 C7188 1.428 . S
H7183 C7179 0.930 . S
H7184 C7181 0.929 . S
S7185 N7186 1.613 . S
S7185 N7187 1.610 . S
N7186 S7185 1.613 . S
N7186 C7189 1.350 . S
N7187 S7185 1.610 . S
N7187 C7188 1.351 . S
C7188 C7182 1.428 . S
C7188 N7187 1.351 . S
C7188 C7189 1.434 . S
C7189 C7180 1.429 . S
C7189 N7186 1.350 . S
C7189 C7188 1.434 . S
C7190 C7191 1.369 . S
C7190 C7192 1.419 . S
C7190 H7194 0.930 . S
C7191 C7190 1.369 . S
C7191 C7200 1.429 . S
C7192 C7190 1.419 . S
C7192 C7193 1.363 . S
C7192 H7195 0.929 . S
C7193 C7192 1.363 . S
C7193 C7199 1.428 . S
H7194 C7190 0.930 . S
H7195 C7192 0.929 . S
S7196 N7197 1.613 . S
S7196 N7198 1.610 . S
N7197 S7196 1.613 . S
N7197 C7200 1.350 . S
N7198 S7196 1.610 . S
N7198 C7199 1.351 . S
C7199 C7193 1.428 . S
C7199 N7198 1.351 . S
C7199 C7200 1.434 . S
C7200 C7191 1.429 . S
C7200 N7197 1.350 . S
C7200 C7199 1.434 . S
C7201 C7202 1.369 . S
C7201 C7203 1.419 . S
C7201 H7205 0.930 . S
C7202 C7201 1.369 . S
C7202 C7211 1.429 . S
C7203 C7201 1.419 . S
C7203 C7204 1.363 . S
C7203 H7206 0.929 . S
C7204 C7203 1.363 . S
C7204 C7210 1.428 . S
H7205 C7201 0.930 . S
H7206 C7203 0.929 . S
S7207 N7208 1.613 . S
S7207 N7209 1.610 . S
N7208 S7207 1.613 . S
N7208 C7211 1.350 . S
N7209 S7207 1.610 . S
N7209 C7210 1.351 . S
C7210 C7204 1.428 . S
C7210 N7209 1.351 . S
C7210 C7211 1.434 . S
C7211 C7202 1.429 . S
C7211 N7208 1.350 . S
C7211 C7210 1.434 . S
C7212 C7213 1.369 . S
C7212 C7214 1.419 . S
C7212 H7216 0.930 . S
C7213 C7212 1.369 . S
C7213 C7222 1.429 . S
C7214 C7212 1.419 . S
C7214 C7215 1.363 . S
C7214 H7217 0.929 . S
C7215 C7214 1.363 . S
C7215 C7221 1.428 . S
H7216 C7212 0.930 . S
H7217 C7214 0.929 . S
S7218 N7219 1.613 . S
S7218 N7220 1.610 . S
N7219 S7218 1.613 . S
N7219 C7222 1.350 . S
N7220 S7218 1.610 . S
N7220 C7221 1.351 . S
C7221 C7215 1.428 . S
C7221 N7220 1.351 . S
C7221 C7222 1.434 . S
C7222 C7213 1.429 . S
C7222 N7219 1.350 . S
C7222 C7221 1.434 . S
C7223 C7224 1.369 . S
C7223 C7225 1.419 . S
C7223 H7227 0.930 . S
C7224 C7223 1.369 . S
C7224 C7233 1.429 . S
C7225 C7223 1.419 . S
C7225 C7226 1.363 . S
C7225 H7228 0.929 . S
C7226 C7225 1.363 . S
C7226 C7232 1.428 . S
H7227 C7223 0.930 . S
H7228 C7225 0.929 . S
S7229 N7230 1.613 . S
S7229 N7231 1.610 . S
N7230 S7229 1.613 . S
N7230 C7233 1.350 . S
N7231 S7229 1.610 . S
N7231 C7232 1.351 . S
C7232 C7226 1.428 . S
C7232 N7231 1.351 . S
C7232 C7233 1.434 . S
C7233 C7224 1.429 . S
C7233 N7230 1.350 . S
C7233 C7232 1.434 . S
C7234 C7235 1.369 . S
C7234 C7236 1.419 . S
C7234 H7238 0.930 . S
C7235 C7234 1.369 . S
C7235 C7244 1.429 . S
C7236 C7234 1.419 . S
C7236 C7237 1.363 . S
C7236 H7239 0.929 . S
C7237 C7236 1.363 . S
C7237 C7243 1.428 . S
H7238 C7234 0.930 . S
H7239 C7236 0.929 . S
S7240 N7241 1.613 . S
S7240 N7242 1.610 . S
N7241 S7240 1.613 . S
N7241 C7244 1.350 . S
N7242 S7240 1.610 . S
N7242 C7243 1.351 . S
C7243 C7237 1.428 . S
C7243 N7242 1.351 . S
C7243 C7244 1.434 . S
C7244 C7235 1.429 . S
C7244 N7241 1.350 . S
C7244 C7243 1.434 . S
C7245 C7246 1.369 . S
C7245 C7247 1.419 . S
C7245 H7249 0.930 . S
C7246 C7245 1.369 . S
C7246 C7255 1.429 . S
C7247 C7245 1.419 . S
C7247 C7248 1.363 . S
C7247 H7250 0.929 . S
C7248 C7247 1.363 . S
C7248 C7254 1.428 . S
H7249 C7245 0.930 . S
H7250 C7247 0.929 . S
S7251 N7252 1.613 . S
S7251 N7253 1.610 . S
N7252 S7251 1.613 . S
N7252 C7255 1.350 . S
N7253 S7251 1.610 . S
N7253 C7254 1.351 . S
C7254 C7248 1.428 . S
C7254 N7253 1.351 . S
C7254 C7255 1.434 . S
C7255 C7246 1.429 . S
C7255 N7252 1.350 . S
C7255 C7254 1.434 . S
C7256 C7257 1.369 . S
C7256 C7258 1.419 . S
C7256 H7260 0.930 . S
C7257 C7256 1.369 . S
C7257 C7266 1.429 . S
C7258 C7256 1.419 . S
C7258 C7259 1.363 . S
C7258 H7261 0.929 . S
C7259 C7258 1.363 . S
C7259 C7265 1.428 . S
H7260 C7256 0.930 . S
H7261 C7258 0.929 . S
S7262 N7263 1.613 . S
S7262 N7264 1.610 . S
N7263 S7262 1.613 . S
N7263 C7266 1.350 . S
N7264 S7262 1.610 . S
N7264 C7265 1.351 . S
C7265 C7259 1.428 . S
C7265 N7264 1.351 . S
C7265 C7266 1.434 . S
C7266 C7257 1.429 . S
C7266 N7263 1.350 . S
C7266 C7265 1.434 . S
C7267 C7268 1.369 . S
C7267 C7269 1.419 . S
C7267 H7271 0.930 . S
C7268 C7267 1.369 . S
C7268 C7277 1.429 . S
C7269 C7267 1.419 . S
C7269 C7270 1.363 . S
C7269 H7272 0.929 . S
C7270 C7269 1.363 . S
C7270 C7276 1.428 . S
H7271 C7267 0.930 . S
H7272 C7269 0.929 . S
S7273 N7274 1.613 . S
S7273 N7275 1.610 . S
N7274 S7273 1.613 . S
N7274 C7277 1.350 . S
N7275 S7273 1.610 . S
N7275 C7276 1.351 . S
C7276 C7270 1.428 . S
C7276 N7275 1.351 . S
C7276 C7277 1.434 . S
C7277 C7268 1.429 . S
C7277 N7274 1.350 . S
C7277 C7276 1.434 . S
C7278 C7279 1.369 . S
C7278 C7280 1.419 . S
C7278 H7282 0.930 . S
C7279 C7278 1.369 . S
C7279 C7288 1.429 . S
C7280 C7278 1.419 . S
C7280 C7281 1.363 . S
C7280 H7283 0.929 . S
C7281 C7280 1.363 . S
C7281 C7287 1.428 . S
H7282 C7278 0.930 . S
H7283 C7280 0.929 . S
S7284 N7285 1.613 . S
S7284 N7286 1.610 . S
N7285 S7284 1.613 . S
N7285 C7288 1.350 . S
N7286 S7284 1.610 . S
N7286 C7287 1.351 . S
C7287 C7281 1.428 . S
C7287 N7286 1.351 . S
C7287 C7288 1.434 . S
C7288 C7279 1.429 . S
C7288 N7285 1.350 . S
C7288 C7287 1.434 . S
C7289 C7290 1.369 . S
C7289 C7291 1.419 . S
C7289 H7293 0.930 . S
C7290 C7289 1.369 . S
C7290 C7299 1.429 . S
C7291 C7289 1.419 . S
C7291 C7292 1.363 . S
C7291 H7294 0.929 . S
C7292 C7291 1.363 . S
C7292 C7298 1.428 . S
H7293 C7289 0.930 . S
H7294 C7291 0.929 . S
S7295 N7296 1.613 . S
S7295 N7297 1.610 . S
N7296 S7295 1.613 . S
N7296 C7299 1.350 . S
N7297 S7295 1.610 . S
N7297 C7298 1.351 . S
C7298 C7292 1.428 . S
C7298 N7297 1.351 . S
C7298 C7299 1.434 . S
C7299 C7290 1.429 . S
C7299 N7296 1.350 . S
C7299 C7298 1.434 . S
C7300 C7301 1.369 . S
C7300 C7302 1.419 . S
C7300 H7304 0.930 . S
C7301 C7300 1.369 . S
C7301 C7310 1.429 . S
C7302 C7300 1.419 . S
C7302 C7303 1.363 . S
C7302 H7305 0.929 . S
C7303 C7302 1.363 . S
C7303 C7309 1.428 . S
H7304 C7300 0.930 . S
H7305 C7302 0.929 . S
S7306 N7307 1.613 . S
S7306 N7308 1.610 . S
N7307 S7306 1.613 . S
N7307 C7310 1.350 . S
N7308 S7306 1.610 . S
N7308 C7309 1.351 . S
C7309 C7303 1.428 . S
C7309 N7308 1.351 . S
C7309 C7310 1.434 . S
C7310 C7301 1.429 . S
C7310 N7307 1.350 . S
C7310 C7309 1.434 . S
C7311 C7312 1.369 . S
C7311 C7313 1.419 . S
C7311 H7315 0.930 . S
C7312 C7311 1.369 . S
C7312 C7321 1.429 . S
C7313 C7311 1.419 . S
C7313 C7314 1.363 . S
C7313 H7316 0.929 . S
C7314 C7313 1.363 . S
C7314 C7320 1.428 . S
H7315 C7311 0.930 . S
H7316 C7313 0.929 . S
S7317 N7318 1.613 . S
S7317 N7319 1.610 . S
N7318 S7317 1.613 . S
N7318 C7321 1.350 . S
N7319 S7317 1.610 . S
N7319 C7320 1.351 . S
C7320 C7314 1.428 . S
C7320 N7319 1.351 . S
C7320 C7321 1.434 . S
C7321 C7312 1.429 . S
C7321 N7318 1.350 . S
C7321 C7320 1.434 . S
C7322 C7323 1.369 . S
C7322 C7324 1.419 . S
C7322 H7326 0.930 . S
C7323 C7322 1.369 . S
C7323 C7332 1.429 . S
C7324 C7322 1.419 . S
C7324 C7325 1.363 . S
C7324 H7327 0.929 . S
C7325 C7324 1.363 . S
C7325 C7331 1.428 . S
H7326 C7322 0.930 . S
H7327 C7324 0.929 . S
S7328 N7329 1.613 . S
S7328 N7330 1.610 . S
N7329 S7328 1.613 . S
N7329 C7332 1.350 . S
N7330 S7328 1.610 . S
N7330 C7331 1.351 . S
C7331 C7325 1.428 . S
C7331 N7330 1.351 . S
C7331 C7332 1.434 . S
C7332 C7323 1.429 . S
C7332 N7329 1.350 . S
C7332 C7331 1.434 . S
C7333 C7334 1.369 . S
C7333 C7335 1.419 . S
C7333 H7337 0.930 . S
C7334 C7333 1.369 . S
C7334 C7343 1.429 . S
C7335 C7333 1.419 . S
C7335 C7336 1.363 . S
C7335 H7338 0.929 . S
C7336 C7335 1.363 . S
C7336 C7342 1.428 . S
H7337 C7333 0.930 . S
H7338 C7335 0.929 . S
S7339 N7340 1.613 . S
S7339 N7341 1.610 . S
N7340 S7339 1.613 . S
N7340 C7343 1.350 . S
N7341 S7339 1.610 . S
N7341 C7342 1.351 . S
C7342 C7336 1.428 . S
C7342 N7341 1.351 . S
C7342 C7343 1.434 . S
C7343 C7334 1.429 . S
C7343 N7340 1.350 . S
C7343 C7342 1.434 . S
C7344 C7345 1.369 . S
C7344 C7346 1.419 . S
C7344 H7348 0.930 . S
C7345 C7344 1.369 . S
C7345 C7354 1.429 . S
C7346 C7344 1.419 . S
C7346 C7347 1.363 . S
C7346 H7349 0.929 . S
C7347 C7346 1.363 . S
C7347 C7353 1.428 . S
H7348 C7344 0.930 . S
H7349 C7346 0.929 . S
S7350 N7351 1.613 . S
S7350 N7352 1.610 . S
N7351 S7350 1.613 . S
N7351 C7354 1.350 . S
N7352 S7350 1.610 . S
N7352 C7353 1.351 . S
C7353 C7347 1.428 . S
C7353 N7352 1.351 . S
C7353 C7354 1.434 . S
C7354 C7345 1.429 . S
C7354 N7351 1.350 . S
C7354 C7353 1.434 . S
C7355 C7356 1.369 . S
C7355 C7357 1.419 . S
C7355 H7359 0.930 . S
C7356 C7355 1.369 . S
C7356 C7365 1.429 . S
C7357 C7355 1.419 . S
C7357 C7358 1.363 . S
C7357 H7360 0.929 . S
C7358 C7357 1.363 . S
C7358 C7364 1.428 . S
H7359 C7355 0.930 . S
H7360 C7357 0.929 . S
S7361 N7362 1.613 . S
S7361 N7363 1.610 . S
N7362 S7361 1.613 . S
N7362 C7365 1.350 . S
N7363 S7361 1.610 . S
N7363 C7364 1.351 . S
C7364 C7358 1.428 . S
C7364 N7363 1.351 . S
C7364 C7365 1.434 . S
C7365 C7356 1.429 . S
C7365 N7362 1.350 . S
C7365 C7364 1.434 . S
C7366 C7367 1.369 . S
C7366 C7368 1.419 . S
C7366 H7370 0.930 . S
C7367 C7366 1.369 . S
C7367 C7376 1.429 . S
C7368 C7366 1.419 . S
C7368 C7369 1.363 . S
C7368 H7371 0.929 . S
C7369 C7368 1.363 . S
C7369 C7375 1.428 . S
H7370 C7366 0.930 . S
H7371 C7368 0.929 . S
S7372 N7373 1.613 . S
S7372 N7374 1.610 . S
N7373 S7372 1.613 . S
N7373 C7376 1.350 . S
N7374 S7372 1.610 . S
N7374 C7375 1.351 . S
C7375 C7369 1.428 . S
C7375 N7374 1.351 . S
C7375 C7376 1.434 . S
C7376 C7367 1.429 . S
C7376 N7373 1.350 . S
C7376 C7375 1.434 . S
C7377 C7378 1.369 . S
C7377 C7379 1.419 . S
C7377 H7381 0.930 . S
C7378 C7377 1.369 . S
C7378 C7387 1.429 . S
C7379 C7377 1.419 . S
C7379 C7380 1.363 . S
C7379 H7382 0.929 . S
C7380 C7379 1.363 . S
C7380 C7386 1.428 . S
H7381 C7377 0.930 . S
H7382 C7379 0.929 . S
S7383 N7384 1.613 . S
S7383 N7385 1.610 . S
N7384 S7383 1.613 . S
N7384 C7387 1.350 . S
N7385 S7383 1.610 . S
N7385 C7386 1.351 . S
C7386 C7380 1.428 . S
C7386 N7385 1.351 . S
C7386 C7387 1.434 . S
C7387 C7378 1.429 . S
C7387 N7384 1.350 . S
C7387 C7386 1.434 . S
C7388 C7389 1.369 . S
C7388 C7390 1.419 . S
C7388 H7392 0.930 . S
C7389 C7388 1.369 . S
C7389 C7398 1.429 . S
C7390 C7388 1.419 . S
C7390 C7391 1.363 . S
C7390 H7393 0.929 . S
C7391 C7390 1.363 . S
C7391 C7397 1.428 . S
H7392 C7388 0.930 . S
H7393 C7390 0.929 . S
S7394 N7395 1.613 . S
S7394 N7396 1.610 . S
N7395 S7394 1.613 . S
N7395 C7398 1.350 . S
N7396 S7394 1.610 . S
N7396 C7397 1.351 . S
C7397 C7391 1.428 . S
C7397 N7396 1.351 . S
C7397 C7398 1.434 . S
C7398 C7389 1.429 . S
C7398 N7395 1.350 . S
C7398 C7397 1.434 . S
C7399 C7400 1.369 . S
C7399 C7401 1.419 . S
C7399 H7403 0.930 . S
C7400 C7399 1.369 . S
C7400 C7409 1.429 . S
C7401 C7399 1.419 . S
C7401 C7402 1.363 . S
C7401 H7404 0.929 . S
C7402 C7401 1.363 . S
C7402 C7408 1.428 . S
H7403 C7399 0.930 . S
H7404 C7401 0.929 . S
S7405 N7406 1.613 . S
S7405 N7407 1.610 . S
N7406 S7405 1.613 . S
N7406 C7409 1.350 . S
N7407 S7405 1.610 . S
N7407 C7408 1.351 . S
C7408 C7402 1.428 . S
C7408 N7407 1.351 . S
C7408 C7409 1.434 . S
C7409 C7400 1.429 . S
C7409 N7406 1.350 . S
C7409 C7408 1.434 . S
C7410 C7411 1.369 . S
C7410 C7412 1.419 . S
C7410 H7414 0.930 . S
C7411 C7410 1.369 . S
C7411 C7420 1.429 . S
C7412 C7410 1.419 . S
C7412 C7413 1.363 . S
C7412 H7415 0.929 . S
C7413 C7412 1.363 . S
C7413 C7419 1.428 . S
H7414 C7410 0.930 . S
H7415 C7412 0.929 . S
S7416 N7417 1.613 . S
S7416 N7418 1.610 . S
N7417 S7416 1.613 . S
N7417 C7420 1.350 . S
N7418 S7416 1.610 . S
N7418 C7419 1.351 . S
C7419 C7413 1.428 . S
C7419 N7418 1.351 . S
C7419 C7420 1.434 . S
C7420 C7411 1.429 . S
C7420 N7417 1.350 . S
C7420 C7419 1.434 . S
C7421 C7422 1.369 . S
C7421 C7423 1.419 . S
C7421 H7425 0.930 . S
C7422 C7421 1.369 . S
C7422 C7431 1.429 . S
C7423 C7421 1.419 . S
C7423 C7424 1.363 . S
C7423 H7426 0.929 . S
C7424 C7423 1.363 . S
C7424 C7430 1.428 . S
H7425 C7421 0.930 . S
H7426 C7423 0.929 . S
S7427 N7428 1.613 . S
S7427 N7429 1.610 . S
N7428 S7427 1.613 . S
N7428 C7431 1.350 . S
N7429 S7427 1.610 . S
N7429 C7430 1.351 . S
C7430 C7424 1.428 . S
C7430 N7429 1.351 . S
C7430 C7431 1.434 . S
C7431 C7422 1.429 . S
C7431 N7428 1.350 . S
C7431 C7430 1.434 . S
C7432 C7433 1.369 . S
C7432 C7434 1.419 . S
C7432 H7436 0.930 . S
C7433 C7432 1.369 . S
C7433 C7442 1.429 . S
C7434 C7432 1.419 . S
C7434 C7435 1.363 . S
C7434 H7437 0.929 . S
C7435 C7434 1.363 . S
C7435 C7441 1.428 . S
H7436 C7432 0.930 . S
H7437 C7434 0.929 . S
S7438 N7439 1.613 . S
S7438 N7440 1.610 . S
N7439 S7438 1.613 . S
N7439 C7442 1.350 . S
N7440 S7438 1.610 . S
N7440 C7441 1.351 . S
C7441 C7435 1.428 . S
C7441 N7440 1.351 . S
C7441 C7442 1.434 . S
C7442 C7433 1.429 . S
C7442 N7439 1.350 . S
C7442 C7441 1.434 . S
C7443 C7444 1.369 . S
C7443 C7445 1.419 . S
C7443 H7447 0.930 . S
C7444 C7443 1.369 . S
C7444 C7453 1.429 . S
C7445 C7443 1.419 . S
C7445 C7446 1.363 . S
C7445 H7448 0.929 . S
C7446 C7445 1.363 . S
C7446 C7452 1.428 . S
H7447 C7443 0.930 . S
H7448 C7445 0.929 . S
S7449 N7450 1.613 . S
S7449 N7451 1.610 . S
N7450 S7449 1.613 . S
N7450 C7453 1.350 . S
N7451 S7449 1.610 . S
N7451 C7452 1.351 . S
C7452 C7446 1.428 . S
C7452 N7451 1.351 . S
C7452 C7453 1.434 . S
C7453 C7444 1.429 . S
C7453 N7450 1.350 . S
C7453 C7452 1.434 . S
C7454 C7455 1.369 . S
C7454 C7456 1.419 . S
C7454 H7458 0.930 . S
C7455 C7454 1.369 . S
C7455 C7464 1.429 . S
C7456 C7454 1.419 . S
C7456 C7457 1.363 . S
C7456 H7459 0.929 . S
C7457 C7456 1.363 . S
C7457 C7463 1.428 . S
H7458 C7454 0.930 . S
H7459 C7456 0.929 . S
S7460 N7461 1.613 . S
S7460 N7462 1.610 . S
N7461 S7460 1.613 . S
N7461 C7464 1.350 . S
N7462 S7460 1.610 . S
N7462 C7463 1.351 . S
C7463 C7457 1.428 . S
C7463 N7462 1.351 . S
C7463 C7464 1.434 . S
C7464 C7455 1.429 . S
C7464 N7461 1.350 . S
C7464 C7463 1.434 . S
C7465 C7466 1.369 . S
C7465 C7467 1.419 . S
C7465 H7469 0.930 . S
C7466 C7465 1.369 . S
C7466 C7475 1.429 . S
C7467 C7465 1.419 . S
C7467 C7468 1.363 . S
C7467 H7470 0.929 . S
C7468 C7467 1.363 . S
C7468 C7474 1.428 . S
H7469 C7465 0.930 . S
H7470 C7467 0.929 . S
S7471 N7472 1.613 . S
S7471 N7473 1.610 . S
N7472 S7471 1.613 . S
N7472 C7475 1.350 . S
N7473 S7471 1.610 . S
N7473 C7474 1.351 . S
C7474 C7468 1.428 . S
C7474 N7473 1.351 . S
C7474 C7475 1.434 . S
C7475 C7466 1.429 . S
C7475 N7472 1.350 . S
C7475 C7474 1.434 . S
C7476 C7477 1.369 . S
C7476 C7478 1.419 . S
C7476 H7480 0.930 . S
C7477 C7476 1.369 . S
C7477 C7486 1.429 . S
C7478 C7476 1.419 . S
C7478 C7479 1.363 . S
C7478 H7481 0.929 . S
C7479 C7478 1.363 . S
C7479 C7485 1.428 . S
H7480 C7476 0.930 . S
H7481 C7478 0.929 . S
S7482 N7483 1.613 . S
S7482 N7484 1.610 . S
N7483 S7482 1.613 . S
N7483 C7486 1.350 . S
N7484 S7482 1.610 . S
N7484 C7485 1.351 . S
C7485 C7479 1.428 . S
C7485 N7484 1.351 . S
C7485 C7486 1.434 . S
C7486 C7477 1.429 . S
C7486 N7483 1.350 . S
C7486 C7485 1.434 . S
C7487 C7488 1.369 . S
C7487 C7489 1.419 . S
C7487 H7491 0.930 . S
C7488 C7487 1.369 . S
C7488 C7497 1.429 . S
C7489 C7487 1.419 . S
C7489 C7490 1.363 . S
C7489 H7492 0.929 . S
C7490 C7489 1.363 . S
C7490 C7496 1.428 . S
H7491 C7487 0.930 . S
H7492 C7489 0.929 . S
S7493 N7494 1.613 . S
S7493 N7495 1.610 . S
N7494 S7493 1.613 . S
N7494 C7497 1.350 . S
N7495 S7493 1.610 . S
N7495 C7496 1.351 . S
C7496 C7490 1.428 . S
C7496 N7495 1.351 . S
C7496 C7497 1.434 . S
C7497 C7488 1.429 . S
C7497 N7494 1.350 . S
C7497 C7496 1.434 . S
C7498 C7499 1.369 . S
C7498 C7500 1.419 . S
C7498 H7502 0.930 . S
C7499 C7498 1.369 . S
C7499 C7508 1.429 . S
C7500 C7498 1.419 . S
C7500 C7501 1.363 . S
C7500 H7503 0.929 . S
C7501 C7500 1.363 . S
C7501 C7507 1.428 . S
H7502 C7498 0.930 . S
H7503 C7500 0.929 . S
S7504 N7505 1.613 . S
S7504 N7506 1.610 . S
N7505 S7504 1.613 . S
N7505 C7508 1.350 . S
N7506 S7504 1.610 . S
N7506 C7507 1.351 . S
C7507 C7501 1.428 . S
C7507 N7506 1.351 . S
C7507 C7508 1.434 . S
C7508 C7499 1.429 . S
C7508 N7505 1.350 . S
C7508 C7507 1.434 . S
C7509 C7510 1.369 . S
C7509 C7511 1.419 . S
C7509 H7513 0.930 . S
C7510 C7509 1.369 . S
C7510 C7519 1.429 . S
C7511 C7509 1.419 . S
C7511 C7512 1.363 . S
C7511 H7514 0.929 . S
C7512 C7511 1.363 . S
C7512 C7518 1.428 . S
H7513 C7509 0.930 . S
H7514 C7511 0.929 . S
S7515 N7516 1.613 . S
S7515 N7517 1.610 . S
N7516 S7515 1.613 . S
N7516 C7519 1.350 . S
N7517 S7515 1.610 . S
N7517 C7518 1.351 . S
C7518 C7512 1.428 . S
C7518 N7517 1.351 . S
C7518 C7519 1.434 . S
C7519 C7510 1.429 . S
C7519 N7516 1.350 . S
C7519 C7518 1.434 . S
C7520 C7521 1.369 . S
C7520 C7522 1.419 . S
C7520 H7524 0.930 . S
C7521 C7520 1.369 . S
C7521 C7530 1.429 . S
C7522 C7520 1.419 . S
C7522 C7523 1.363 . S
C7522 H7525 0.929 . S
C7523 C7522 1.363 . S
C7523 C7529 1.428 . S
H7524 C7520 0.930 . S
H7525 C7522 0.929 . S
S7526 N7527 1.613 . S
S7526 N7528 1.610 . S
N7527 S7526 1.613 . S
N7527 C7530 1.350 . S
N7528 S7526 1.610 . S
N7528 C7529 1.351 . S
C7529 C7523 1.428 . S
C7529 N7528 1.351 . S
C7529 C7530 1.434 . S
C7530 C7521 1.429 . S
C7530 N7527 1.350 . S
C7530 C7529 1.434 . S
C7531 C7532 1.369 . S
C7531 C7533 1.419 . S
C7531 H7535 0.930 . S
C7532 C7531 1.369 . S
C7532 C7541 1.429 . S
C7533 C7531 1.419 . S
C7533 C7534 1.363 . S
C7533 H7536 0.929 . S
C7534 C7533 1.363 . S
C7534 C7540 1.428 . S
H7535 C7531 0.930 . S
H7536 C7533 0.929 . S
S7537 N7538 1.613 . S
S7537 N7539 1.610 . S
N7538 S7537 1.613 . S
N7538 C7541 1.350 . S
N7539 S7537 1.610 . S
N7539 C7540 1.351 . S
C7540 C7534 1.428 . S
C7540 N7539 1.351 . S
C7540 C7541 1.434 . S
C7541 C7532 1.429 . S
C7541 N7538 1.350 . S
C7541 C7540 1.434 . S
C7542 C7543 1.369 . S
C7542 C7544 1.419 . S
C7542 H7546 0.930 . S
C7543 C7542 1.369 . S
C7543 C7552 1.429 . S
C7544 C7542 1.419 . S
C7544 C7545 1.363 . S
C7544 H7547 0.929 . S
C7545 C7544 1.363 . S
C7545 C7551 1.428 . S
H7546 C7542 0.930 . S
H7547 C7544 0.929 . S
S7548 N7549 1.613 . S
S7548 N7550 1.610 . S
N7549 S7548 1.613 . S
N7549 C7552 1.350 . S
N7550 S7548 1.610 . S
N7550 C7551 1.351 . S
C7551 C7545 1.428 . S
C7551 N7550 1.351 . S
C7551 C7552 1.434 . S
C7552 C7543 1.429 . S
C7552 N7549 1.350 . S
C7552 C7551 1.434 . S
C7553 C7554 1.369 . S
C7553 C7555 1.419 . S
C7553 H7557 0.930 . S
C7554 C7553 1.369 . S
C7554 C7563 1.429 . S
C7555 C7553 1.419 . S
C7555 C7556 1.363 . S
C7555 H7558 0.929 . S
C7556 C7555 1.363 . S
C7556 C7562 1.428 . S
H7557 C7553 0.930 . S
H7558 C7555 0.929 . S
S7559 N7560 1.613 . S
S7559 N7561 1.610 . S
N7560 S7559 1.613 . S
N7560 C7563 1.350 . S
N7561 S7559 1.610 . S
N7561 C7562 1.351 . S
C7562 C7556 1.428 . S
C7562 N7561 1.351 . S
C7562 C7563 1.434 . S
C7563 C7554 1.429 . S
C7563 N7560 1.350 . S
C7563 C7562 1.434 . S
C7564 C7565 1.369 . S
C7564 C7566 1.419 . S
C7564 H7568 0.930 . S
C7565 C7564 1.369 . S
C7565 C7574 1.429 . S
C7566 C7564 1.419 . S
C7566 C7567 1.363 . S
C7566 H7569 0.929 . S
C7567 C7566 1.363 . S
C7567 C7573 1.428 . S
H7568 C7564 0.930 . S
H7569 C7566 0.929 . S
S7570 N7571 1.613 . S
S7570 N7572 1.610 . S
N7571 S7570 1.613 . S
N7571 C7574 1.350 . S
N7572 S7570 1.610 . S
N7572 C7573 1.351 . S
C7573 C7567 1.428 . S
C7573 N7572 1.351 . S
C7573 C7574 1.434 . S
C7574 C7565 1.429 . S
C7574 N7571 1.350 . S
C7574 C7573 1.434 . S
C7575 C7576 1.369 . S
C7575 C7577 1.419 . S
C7575 H7579 0.930 . S
C7576 C7575 1.369 . S
C7576 C7585 1.429 . S
C7577 C7575 1.419 . S
C7577 C7578 1.363 . S
C7577 H7580 0.929 . S
C7578 C7577 1.363 . S
C7578 C7584 1.428 . S
H7579 C7575 0.930 . S
H7580 C7577 0.929 . S
S7581 N7582 1.613 . S
S7581 N7583 1.610 . S
N7582 S7581 1.613 . S
N7582 C7585 1.350 . S
N7583 S7581 1.610 . S
N7583 C7584 1.351 . S
C7584 C7578 1.428 . S
C7584 N7583 1.351 . S
C7584 C7585 1.434 . S
C7585 C7576 1.429 . S
C7585 N7582 1.350 . S
C7585 C7584 1.434 . S
C7586 C7587 1.369 . S
C7586 C7588 1.419 . S
C7586 H7590 0.930 . S
C7587 C7586 1.369 . S
C7587 C7596 1.429 . S
C7588 C7586 1.419 . S
C7588 C7589 1.363 . S
C7588 H7591 0.929 . S
C7589 C7588 1.363 . S
C7589 C7595 1.428 . S
H7590 C7586 0.930 . S
H7591 C7588 0.929 . S
S7592 N7593 1.613 . S
S7592 N7594 1.610 . S
N7593 S7592 1.613 . S
N7593 C7596 1.350 . S
N7594 S7592 1.610 . S
N7594 C7595 1.351 . S
C7595 C7589 1.428 . S
C7595 N7594 1.351 . S
C7595 C7596 1.434 . S
C7596 C7587 1.429 . S
C7596 N7593 1.350 . S
C7596 C7595 1.434 . S
C7597 C7598 1.369 . S
C7597 C7599 1.419 . S
C7597 H7601 0.930 . S
C7598 C7597 1.369 . S
C7598 C7607 1.429 . S
C7599 C7597 1.419 . S
C7599 C7600 1.363 . S
C7599 H7602 0.929 . S
C7600 C7599 1.363 . S
C7600 C7606 1.428 . S
H7601 C7597 0.930 . S
H7602 C7599 0.929 . S
S7603 N7604 1.613 . S
S7603 N7605 1.610 . S
N7604 S7603 1.613 . S
N7604 C7607 1.350 . S
N7605 S7603 1.610 . S
N7605 C7606 1.351 . S
C7606 C7600 1.428 . S
C7606 N7605 1.351 . S
C7606 C7607 1.434 . S
C7607 C7598 1.429 . S
C7607 N7604 1.350 . S
C7607 C7606 1.434 . S
C7608 C7609 1.369 . S
C7608 C7610 1.419 . S
C7608 H7612 0.930 . S
C7609 C7608 1.369 . S
C7609 C7618 1.429 . S
C7610 C7608 1.419 . S
C7610 C7611 1.363 . S
C7610 H7613 0.929 . S
C7611 C7610 1.363 . S
C7611 C7617 1.428 . S
H7612 C7608 0.930 . S
H7613 C7610 0.929 . S
S7614 N7615 1.613 . S
S7614 N7616 1.610 . S
N7615 S7614 1.613 . S
N7615 C7618 1.350 . S
N7616 S7614 1.610 . S
N7616 C7617 1.351 . S
C7617 C7611 1.428 . S
C7617 N7616 1.351 . S
C7617 C7618 1.434 . S
C7618 C7609 1.429 . S
C7618 N7615 1.350 . S
C7618 C7617 1.434 . S
C7619 C7620 1.369 . S
C7619 C7621 1.419 . S
C7619 H7623 0.930 . S
C7620 C7619 1.369 . S
C7620 C7629 1.429 . S
C7621 C7619 1.419 . S
C7621 C7622 1.363 . S
C7621 H7624 0.929 . S
C7622 C7621 1.363 . S
C7622 C7628 1.428 . S
H7623 C7619 0.930 . S
H7624 C7621 0.929 . S
S7625 N7626 1.613 . S
S7625 N7627 1.610 . S
N7626 S7625 1.613 . S
N7626 C7629 1.350 . S
N7627 S7625 1.610 . S
N7627 C7628 1.351 . S
C7628 C7622 1.428 . S
C7628 N7627 1.351 . S
C7628 C7629 1.434 . S
C7629 C7620 1.429 . S
C7629 N7626 1.350 . S
C7629 C7628 1.434 . S
C7630 C7631 1.369 . S
C7630 C7632 1.419 . S
C7630 H7634 0.930 . S
C7631 C7630 1.369 . S
C7631 C7640 1.429 . S
C7632 C7630 1.419 . S
C7632 C7633 1.363 . S
C7632 H7635 0.929 . S
C7633 C7632 1.363 . S
C7633 C7639 1.428 . S
H7634 C7630 0.930 . S
H7635 C7632 0.929 . S
S7636 N7637 1.613 . S
S7636 N7638 1.610 . S
N7637 S7636 1.613 . S
N7637 C7640 1.350 . S
N7638 S7636 1.610 . S
N7638 C7639 1.351 . S
C7639 C7633 1.428 . S
C7639 N7638 1.351 . S
C7639 C7640 1.434 . S
C7640 C7631 1.429 . S
C7640 N7637 1.350 . S
C7640 C7639 1.434 . S
C7641 C7642 1.369 . S
C7641 C7643 1.419 . S
C7641 H7645 0.930 . S
C7642 C7641 1.369 . S
C7642 C7651 1.429 . S
C7643 C7641 1.419 . S
C7643 C7644 1.363 . S
C7643 H7646 0.929 . S
C7644 C7643 1.363 . S
C7644 C7650 1.428 . S
H7645 C7641 0.930 . S
H7646 C7643 0.929 . S
S7647 N7648 1.613 . S
S7647 N7649 1.610 . S
N7648 S7647 1.613 . S
N7648 C7651 1.350 . S
N7649 S7647 1.610 . S
N7649 C7650 1.351 . S
C7650 C7644 1.428 . S
C7650 N7649 1.351 . S
C7650 C7651 1.434 . S
C7651 C7642 1.429 . S
C7651 N7648 1.350 . S
C7651 C7650 1.434 . S
C7652 C7653 1.369 . S
C7652 C7654 1.419 . S
C7652 H7656 0.930 . S
C7653 C7652 1.369 . S
C7653 C7662 1.429 . S
C7654 C7652 1.419 . S
C7654 C7655 1.363 . S
C7654 H7657 0.929 . S
C7655 C7654 1.363 . S
C7655 C7661 1.428 . S
H7656 C7652 0.930 . S
H7657 C7654 0.929 . S
S7658 N7659 1.613 . S
S7658 N7660 1.610 . S
N7659 S7658 1.613 . S
N7659 C7662 1.350 . S
N7660 S7658 1.610 . S
N7660 C7661 1.351 . S
C7661 C7655 1.428 . S
C7661 N7660 1.351 . S
C7661 C7662 1.434 . S
C7662 C7653 1.429 . S
C7662 N7659 1.350 . S
C7662 C7661 1.434 . S
C7663 C7664 1.369 . S
C7663 C7665 1.419 . S
C7663 H7667 0.930 . S
C7664 C7663 1.369 . S
C7664 C7673 1.429 . S
C7665 C7663 1.419 . S
C7665 C7666 1.363 . S
C7665 H7668 0.929 . S
C7666 C7665 1.363 . S
C7666 C7672 1.428 . S
H7667 C7663 0.930 . S
H7668 C7665 0.929 . S
S7669 N7670 1.613 . S
S7669 N7671 1.610 . S
N7670 S7669 1.613 . S
N7670 C7673 1.350 . S
N7671 S7669 1.610 . S
N7671 C7672 1.351 . S
C7672 C7666 1.428 . S
C7672 N7671 1.351 . S
C7672 C7673 1.434 . S
C7673 C7664 1.429 . S
C7673 N7670 1.350 . S
C7673 C7672 1.434 . S
C7674 C7675 1.369 . S
C7674 C7676 1.419 . S
C7674 H7678 0.930 . S
C7675 C7674 1.369 . S
C7675 C7684 1.429 . S
C7676 C7674 1.419 . S
C7676 C7677 1.363 . S
C7676 H7679 0.929 . S
C7677 C7676 1.363 . S
C7677 C7683 1.428 . S
H7678 C7674 0.930 . S
H7679 C7676 0.929 . S
S7680 N7681 1.613 . S
S7680 N7682 1.610 . S
N7681 S7680 1.613 . S
N7681 C7684 1.350 . S
N7682 S7680 1.610 . S
N7682 C7683 1.351 . S
C7683 C7677 1.428 . S
C7683 N7682 1.351 . S
C7683 C7684 1.434 . S
C7684 C7675 1.429 . S
C7684 N7681 1.350 . S
C7684 C7683 1.434 . S
C7685 C7686 1.369 . S
C7685 C7687 1.419 . S
C7685 H7689 0.930 . S
C7686 C7685 1.369 . S
C7686 C7695 1.429 . S
C7687 C7685 1.419 . S
C7687 C7688 1.363 . S
C7687 H7690 0.929 . S
C7688 C7687 1.363 . S
C7688 C7694 1.428 . S
H7689 C7685 0.930 . S
H7690 C7687 0.929 . S
S7691 N7692 1.613 . S
S7691 N7693 1.610 . S
N7692 S7691 1.613 . S
N7692 C7695 1.350 . S
N7693 S7691 1.610 . S
N7693 C7694 1.351 . S
C7694 C7688 1.428 . S
C7694 N7693 1.351 . S
C7694 C7695 1.434 . S
C7695 C7686 1.429 . S
C7695 N7692 1.350 . S
C7695 C7694 1.434 . S
C7696 C7697 1.369 . S
C7696 C7698 1.419 . S
C7696 H7700 0.930 . S
C7697 C7696 1.369 . S
C7697 C7706 1.429 . S
C7698 C7696 1.419 . S
C7698 C7699 1.363 . S
C7698 H7701 0.929 . S
C7699 C7698 1.363 . S
C7699 C7705 1.428 . S
H7700 C7696 0.930 . S
H7701 C7698 0.929 . S
S7702 N7703 1.613 . S
S7702 N7704 1.610 . S
N7703 S7702 1.613 . S
N7703 C7706 1.350 . S
N7704 S7702 1.610 . S
N7704 C7705 1.351 . S
C7705 C7699 1.428 . S
C7705 N7704 1.351 . S
C7705 C7706 1.434 . S
C7706 C7697 1.429 . S
C7706 N7703 1.350 . S
C7706 C7705 1.434 . S
C7707 C7708 1.369 . S
C7707 C7709 1.419 . S
C7707 H7711 0.930 . S
C7708 C7707 1.369 . S
C7708 C7717 1.429 . S
C7709 C7707 1.419 . S
C7709 C7710 1.363 . S
C7709 H7712 0.929 . S
C7710 C7709 1.363 . S
C7710 C7716 1.428 . S
H7711 C7707 0.930 . S
H7712 C7709 0.929 . S
S7713 N7714 1.613 . S
S7713 N7715 1.610 . S
N7714 S7713 1.613 . S
N7714 C7717 1.350 . S
N7715 S7713 1.610 . S
N7715 C7716 1.351 . S
C7716 C7710 1.428 . S
C7716 N7715 1.351 . S
C7716 C7717 1.434 . S
C7717 C7708 1.429 . S
C7717 N7714 1.350 . S
C7717 C7716 1.434 . S
C7718 C7719 1.369 . S
C7718 C7720 1.419 . S
C7718 H7722 0.930 . S
C7719 C7718 1.369 . S
C7719 C7728 1.429 . S
C7720 C7718 1.419 . S
C7720 C7721 1.363 . S
C7720 H7723 0.929 . S
C7721 C7720 1.363 . S
C7721 C7727 1.428 . S
H7722 C7718 0.930 . S
H7723 C7720 0.929 . S
S7724 N7725 1.613 . S
S7724 N7726 1.610 . S
N7725 S7724 1.613 . S
N7725 C7728 1.350 . S
N7726 S7724 1.610 . S
N7726 C7727 1.351 . S
C7727 C7721 1.428 . S
C7727 N7726 1.351 . S
C7727 C7728 1.434 . S
C7728 C7719 1.429 . S
C7728 N7725 1.350 . S
C7728 C7727 1.434 . S
C7729 C7730 1.369 . S
C7729 C7731 1.419 . S
C7729 H7733 0.930 . S
C7730 C7729 1.369 . S
C7730 C7739 1.429 . S
C7731 C7729 1.419 . S
C7731 C7732 1.363 . S
C7731 H7734 0.929 . S
C7732 C7731 1.363 . S
C7732 C7738 1.428 . S
H7733 C7729 0.930 . S
H7734 C7731 0.929 . S
S7735 N7736 1.613 . S
S7735 N7737 1.610 . S
N7736 S7735 1.613 . S
N7736 C7739 1.350 . S
N7737 S7735 1.610 . S
N7737 C7738 1.351 . S
C7738 C7732 1.428 . S
C7738 N7737 1.351 . S
C7738 C7739 1.434 . S
C7739 C7730 1.429 . S
C7739 N7736 1.350 . S
C7739 C7738 1.434 . S
C7740 C7741 1.369 . S
C7740 C7742 1.419 . S
C7740 H7744 0.930 . S
C7741 C7740 1.369 . S
C7741 C7750 1.429 . S
C7742 C7740 1.419 . S
C7742 C7743 1.363 . S
C7742 H7745 0.929 . S
C7743 C7742 1.363 . S
C7743 C7749 1.428 . S
H7744 C7740 0.930 . S
H7745 C7742 0.929 . S
S7746 N7747 1.613 . S
S7746 N7748 1.610 . S
N7747 S7746 1.613 . S
N7747 C7750 1.350 . S
N7748 S7746 1.610 . S
N7748 C7749 1.351 . S
C7749 C7743 1.428 . S
C7749 N7748 1.351 . S
C7749 C7750 1.434 . S
C7750 C7741 1.429 . S
C7750 N7747 1.350 . S
C7750 C7749 1.434 . S
C7751 C7752 1.369 . S
C7751 C7753 1.419 . S
C7751 H7755 0.930 . S
C7752 C7751 1.369 . S
C7752 C7761 1.429 . S
C7753 C7751 1.419 . S
C7753 C7754 1.363 . S
C7753 H7756 0.929 . S
C7754 C7753 1.363 . S
C7754 C7760 1.428 . S
H7755 C7751 0.930 . S
H7756 C7753 0.929 . S
S7757 N7758 1.613 . S
S7757 N7759 1.610 . S
N7758 S7757 1.613 . S
N7758 C7761 1.350 . S
N7759 S7757 1.610 . S
N7759 C7760 1.351 . S
C7760 C7754 1.428 . S
C7760 N7759 1.351 . S
C7760 C7761 1.434 . S
C7761 C7752 1.429 . S
C7761 N7758 1.350 . S
C7761 C7760 1.434 . S
C7762 C7763 1.369 . S
C7762 C7764 1.419 . S
C7762 H7766 0.930 . S
C7763 C7762 1.369 . S
C7763 C7772 1.429 . S
C7764 C7762 1.419 . S
C7764 C7765 1.363 . S
C7764 H7767 0.929 . S
C7765 C7764 1.363 . S
C7765 C7771 1.428 . S
H7766 C7762 0.930 . S
H7767 C7764 0.929 . S
S7768 N7769 1.613 . S
S7768 N7770 1.610 . S
N7769 S7768 1.613 . S
N7769 C7772 1.350 . S
N7770 S7768 1.610 . S
N7770 C7771 1.351 . S
C7771 C7765 1.428 . S
C7771 N7770 1.351 . S
C7771 C7772 1.434 . S
C7772 C7763 1.429 . S
C7772 N7769 1.350 . S
C7772 C7771 1.434 . S
C7773 C7774 1.369 . S
C7773 C7775 1.419 . S
C7773 H7777 0.930 . S
C7774 C7773 1.369 . S
C7774 C7783 1.429 . S
C7775 C7773 1.419 . S
C7775 C7776 1.363 . S
C7775 H7778 0.929 . S
C7776 C7775 1.363 . S
C7776 C7782 1.428 . S
H7777 C7773 0.930 . S
H7778 C7775 0.929 . S
S7779 N7780 1.613 . S
S7779 N7781 1.610 . S
N7780 S7779 1.613 . S
N7780 C7783 1.350 . S
N7781 S7779 1.610 . S
N7781 C7782 1.351 . S
C7782 C7776 1.428 . S
C7782 N7781 1.351 . S
C7782 C7783 1.434 . S
C7783 C7774 1.429 . S
C7783 N7780 1.350 . S
C7783 C7782 1.434 . S
C7784 C7785 1.369 . S
C7784 C7786 1.419 . S
C7784 H7788 0.930 . S
C7785 C7784 1.369 . S
C7785 C7794 1.429 . S
C7786 C7784 1.419 . S
C7786 C7787 1.363 . S
C7786 H7789 0.929 . S
C7787 C7786 1.363 . S
C7787 C7793 1.428 . S
H7788 C7784 0.930 . S
H7789 C7786 0.929 . S
S7790 N7791 1.613 . S
S7790 N7792 1.610 . S
N7791 S7790 1.613 . S
N7791 C7794 1.350 . S
N7792 S7790 1.610 . S
N7792 C7793 1.351 . S
C7793 C7787 1.428 . S
C7793 N7792 1.351 . S
C7793 C7794 1.434 . S
C7794 C7785 1.429 . S
C7794 N7791 1.350 . S
C7794 C7793 1.434 . S
C7795 C7796 1.369 . S
C7795 C7797 1.419 . S
C7795 H7799 0.930 . S
C7796 C7795 1.369 . S
C7796 C7805 1.429 . S
C7797 C7795 1.419 . S
C7797 C7798 1.363 . S
C7797 H7800 0.929 . S
C7798 C7797 1.363 . S
C7798 C7804 1.428 . S
H7799 C7795 0.930 . S
H7800 C7797 0.929 . S
S7801 N7802 1.613 . S
S7801 N7803 1.610 . S
N7802 S7801 1.613 . S
N7802 C7805 1.350 . S
N7803 S7801 1.610 . S
N7803 C7804 1.351 . S
C7804 C7798 1.428 . S
C7804 N7803 1.351 . S
C7804 C7805 1.434 . S
C7805 C7796 1.429 . S
C7805 N7802 1.350 . S
C7805 C7804 1.434 . S
C7806 C7807 1.369 . S
C7806 C7808 1.419 . S
C7806 H7810 0.930 . S
C7807 C7806 1.369 . S
C7807 C7816 1.429 . S
C7808 C7806 1.419 . S
C7808 C7809 1.363 . S
C7808 H7811 0.929 . S
C7809 C7808 1.363 . S
C7809 C7815 1.428 . S
H7810 C7806 0.930 . S
H7811 C7808 0.929 . S
S7812 N7813 1.613 . S
S7812 N7814 1.610 . S
N7813 S7812 1.613 . S
N7813 C7816 1.350 . S
N7814 S7812 1.610 . S
N7814 C7815 1.351 . S
C7815 C7809 1.428 . S
C7815 N7814 1.351 . S
C7815 C7816 1.434 . S
C7816 C7807 1.429 . S
C7816 N7813 1.350 . S
C7816 C7815 1.434 . S
C7817 C7818 1.369 . S
C7817 C7819 1.419 . S
C7817 H7821 0.930 . S
C7818 C7817 1.369 . S
C7818 C7827 1.429 . S
C7819 C7817 1.419 . S
C7819 C7820 1.363 . S
C7819 H7822 0.929 . S
C7820 C7819 1.363 . S
C7820 C7826 1.428 . S
H7821 C7817 0.930 . S
H7822 C7819 0.929 . S
S7823 N7824 1.613 . S
S7823 N7825 1.610 . S
N7824 S7823 1.613 . S
N7824 C7827 1.350 . S
N7825 S7823 1.610 . S
N7825 C7826 1.351 . S
C7826 C7820 1.428 . S
C7826 N7825 1.351 . S
C7826 C7827 1.434 . S
C7827 C7818 1.429 . S
C7827 N7824 1.350 . S
C7827 C7826 1.434 . S
C7828 C7829 1.369 . S
C7828 C7830 1.419 . S
C7828 H7832 0.930 . S
C7829 C7828 1.369 . S
C7829 C7838 1.429 . S
C7830 C7828 1.419 . S
C7830 C7831 1.363 . S
C7830 H7833 0.929 . S
C7831 C7830 1.363 . S
C7831 C7837 1.428 . S
H7832 C7828 0.930 . S
H7833 C7830 0.929 . S
S7834 N7835 1.613 . S
S7834 N7836 1.610 . S
N7835 S7834 1.613 . S
N7835 C7838 1.350 . S
N7836 S7834 1.610 . S
N7836 C7837 1.351 . S
C7837 C7831 1.428 . S
C7837 N7836 1.351 . S
C7837 C7838 1.434 . S
C7838 C7829 1.429 . S
C7838 N7835 1.350 . S
C7838 C7837 1.434 . S
C7839 C7840 1.369 . S
C7839 C7841 1.419 . S
C7839 H7843 0.930 . S
C7840 C7839 1.369 . S
C7840 C7849 1.429 . S
C7841 C7839 1.419 . S
C7841 C7842 1.363 . S
C7841 H7844 0.929 . S
C7842 C7841 1.363 . S
C7842 C7848 1.428 . S
H7843 C7839 0.930 . S
H7844 C7841 0.929 . S
S7845 N7846 1.613 . S
S7845 N7847 1.610 . S
N7846 S7845 1.613 . S
N7846 C7849 1.350 . S
N7847 S7845 1.610 . S
N7847 C7848 1.351 . S
C7848 C7842 1.428 . S
C7848 N7847 1.351 . S
C7848 C7849 1.434 . S
C7849 C7840 1.429 . S
C7849 N7846 1.350 . S
C7849 C7848 1.434 . S
C7850 C7851 1.369 . S
C7850 C7852 1.419 . S
C7850 H7854 0.930 . S
C7851 C7850 1.369 . S
C7851 C7860 1.429 . S
C7852 C7850 1.419 . S
C7852 C7853 1.363 . S
C7852 H7855 0.929 . S
C7853 C7852 1.363 . S
C7853 C7859 1.428 . S
H7854 C7850 0.930 . S
H7855 C7852 0.929 . S
S7856 N7857 1.613 . S
S7856 N7858 1.610 . S
N7857 S7856 1.613 . S
N7857 C7860 1.350 . S
N7858 S7856 1.610 . S
N7858 C7859 1.351 . S
C7859 C7853 1.428 . S
C7859 N7858 1.351 . S
C7859 C7860 1.434 . S
C7860 C7851 1.429 . S
C7860 N7857 1.350 . S
C7860 C7859 1.434 . S
C7861 C7862 1.369 . S
C7861 C7863 1.419 . S
C7861 H7865 0.930 . S
C7862 C7861 1.369 . S
C7862 C7871 1.429 . S
C7863 C7861 1.419 . S
C7863 C7864 1.363 . S
C7863 H7866 0.929 . S
C7864 C7863 1.363 . S
C7864 C7870 1.428 . S
H7865 C7861 0.930 . S
H7866 C7863 0.929 . S
S7867 N7868 1.613 . S
S7867 N7869 1.610 . S
N7868 S7867 1.613 . S
N7868 C7871 1.350 . S
N7869 S7867 1.610 . S
N7869 C7870 1.351 . S
C7870 C7864 1.428 . S
C7870 N7869 1.351 . S
C7870 C7871 1.434 . S
C7871 C7862 1.429 . S
C7871 N7868 1.350 . S
C7871 C7870 1.434 . S
C4707 C4072 1.772 . S
C4705 C15 1.799 1_655 S
C4718 C4513 1.793 . S
C4716 C55 1.836 . S
C4729 C4090 1.593 . S
C4727 C95 1.528 . S
C4740 C4495 1.659 . S
C4738 C135 1.711 . S
C4751 C4126 1.773 . S
C4749 C175 1.795 1_655 S
C4760 C215 1.703 . S
C4762 C4531 1.665 . S
C4773 C4108 1.592 . S
C4771 C255 1.527 . S
C4784 C4549 1.796 . S
C4782 C295 1.837 . S
C4795 C4693 1.917 . S
C4793 C335 1.836 . S
C4804 C375 1.531 . S
C4806 C4639 1.591 . S
C4817 C4702 2.008 . S
C4815 C415 1.923 . S
C4826 C455 1.793 . S
C4828 C4684 1.775 . S
C4839 C4657 1.921 . S
C4837 C495 1.833 . S
C4850 C4234 1.778 . S
C4848 C535 1.792 . S
C4861 C4243 2.010 . S
C4859 C575 1.923 . S
C4870 C615 1.532 . S
C4872 C4216 1.592 . S
C4881 C655 1.704 . S
C4883 C4612 1.666 . S
C4894 C4162 1.662 . S
C4892 C695 1.705 . S
C4905 C4567 1.916 . S
C4903 C735 1.840 . S
C4916 C4144 1.800 . S
C4914 C775 1.832 . S
C4925 C815 1.923 . S
C4927 C4153 2.010 . S
C4938 C4630 1.792 . S
C4936 C855 1.839 . S
C4949 C4603 1.917 . S
C4947 C895 1.842 . S
C4958 C935 1.928 . S
C4960 C4621 2.009 . S
C4969 C975 1.491 1_455 S
C4971 C3856 1.487 . S
C4980 C1015 1.585 . S
C4982 C4297 1.631 . S
C4993 C3874 1.488 . S
C4991 C1055 1.488 . S
C5002 C1095 1.851 . S
C5004 C4279 1.910 . S
C5015 C3910 1.490 . S
C5013 C1135 1.484 1_455 S
C5024 C1175 1.850 . S
C5026 C4315 1.910 . S
C5037 C3892 1.488 . S
C5035 C1215 1.485 . S
C5048 C4333 1.630 . S
C5046 C1255 1.585 . S
C5057 C1295 1.903 . S
C5059 C4477 1.919 . S
C5070 C4423 1.488 . S
C5068 C1335 1.484 . S
C5079 C1375 1.935 1_565 S
C5081 C4486 1.926 . S
C5092 C4468 1.487 . S
C5090 C1415 1.491 . S
C5103 C4441 1.920 . S
C5101 C1455 1.905 . S
C5112 C1495 1.488 . S
C5114 C4018 1.489 . S
C5123 C1535 1.930 1_545 S
C5125 C4027 1.930 . S
C5136 C4000 1.493 . S
C5134 C1575 1.484 . S
C5145 C1615 1.845 . S
C5147 C4396 1.911 . S
C5158 C3946 1.910 . S
C5156 C1655 1.850 . S
C5167 C1695 1.910 . S
C5169 C4351 1.914 . S
C5180 C3928 1.631 . S
C5178 C1735 1.579 . S
C5189 C1775 1.936 . S
C5191 C3937 1.924 . S
C5202 C4414 1.631 . S
C5200 C1815 1.584 . S
C5213 C4387 1.921 . S
C5211 C1855 1.901 . S
C5224 C4405 1.924 . S
C5222 C1895 1.937 . S
C5233 C1935 1.792 . S
C5235 C4504 1.776 . S
C5246 C4081 1.792 . S
C5244 C1975 1.840 . S
C5257 C4522 1.591 . S
C5255 C2015 1.530 . S
C5268 C4063 1.658 . S
C5266 C2055 1.710 . S
C5277 C2095 1.792 . S
C5279 C4558 1.776 . S
C5290 C4099 1.666 . S
C5288 C2135 1.703 . S
C5301 C4540 1.593 . S
C5299 C2175 1.524 . S
C5312 C4117 1.800 . S
C5310 C2215 1.830 . S
C5321 C2255 1.840 . S
C5323 C4261 1.916 . S
C5334 C4207 1.592 . S
C5332 C2295 1.524 . S
C5345 C4270 2.006 . S
C5343 C2335 1.926 . S
C5354 C2375 1.790 . S
C5356 C4252 1.778 . S
C5365 C2415 1.839 . S
C5367 C4225 1.916 . S
C5376 C2455 1.797 . S
C5378 C4666 1.774 . S
C5387 C2495 1.929 . S
C5389 C4675 2.009 . S
C5400 C4648 1.592 . S
C5398 C2535 1.525 . S
C5409 C2575 1.710 . S
C5411 C4180 1.658 . S
C5422 C4594 1.663 . S
C5420 C2615 1.704 . S
C5433 C4135 1.916 . S
C5431 C2655 1.839 . S
C5444 C4576 1.792 . S
C5442 C2695 1.839 . S
C5453 C2735 1.928 . S
C5455 C4585 2.009 . S
C5464 C2775 1.839 . S
C5466 C4198 1.794 . S
C5477 C4171 1.917 . S
C5475 C2815 1.842 . S
C5486 C2855 1.929 . S
C5488 C4189 2.005 . S
C5497 C2895 1.485 . S
C5499 C4288 1.488 . S
C5510 C3865 1.630 . S
C5508 C2935 1.580 . S
C5521 C4306 1.493 . S
C5519 C2975 1.479 . S
C5530 C3015 1.851 . S
C5532 C3847 1.911 . S
C5543 C4342 1.491 . S
C5541 C3055 1.485 . S
C5554 C3883 1.910 . S
C5552 C3095 1.849 . S
C5563 C3135 1.485 . S
C5565 C4324 1.488 . S
C5574 C3175 1.579 . S
C5576 C3901 1.631 . S
C5587 C4045 1.920 . S
C5585 C3215 1.902 . S
C5596 C3255 1.487 . S
C5598 C3991 1.490 . S
C5609 C4054 1.925 . S
C5607 C3295 1.933 . S
C5620 C4036 1.491 . S
C5618 C3335 1.485 . S
C5629 C3375 1.905 . S
C5631 C4009 1.920 . S
C5640 C3415 1.492 . S
C5642 C4450 1.484 . S
C5653 C4459 1.924 . S
C5651 C3455 1.937 . S
C5662 C3495 1.488 . S
C5664 C4432 1.488 . S
C5675 C3964 1.911 . S
C5673 C3535 1.843 . S
C5686 C4378 1.912 . S
C5684 C3575 1.849 . S
C5695 C3615 1.904 . S
C5697 C3919 1.921 . S
C5706 C3655 1.578 . S
C5708 C4360 1.631 . S
C5717 C3695 1.937 . S
C5719 C4369 1.924 . S
C5728 C3735 1.579 . S
C5730 C3982 1.631 . S
C5739 C3775 1.902 . S
C5741 C3955 1.920 . S
C5752 C3973 1.924 . S
C5750 C3815 1.937 . S
C5763 C3925 1.842 . S
C5761 C2 1.794 . S
C5774 C3935 1.901 . S
C5772 C42 1.866 . S
C5783 C82 1.816 . S
C5785 C3943 1.941 . S
C5794 C122 1.796 . S
C5796 C3916 1.827 . S
C5805 C162 1.794 . S
C5807 C3979 1.842 . S
C5818 C3952 1.825 . S
C5816 C202 1.792 . S
C5829 C3961 1.943 . S
C5827 C242 1.806 . S
C5838 C282 1.863 . S
C5840 C3971 1.901 . S
C5849 C322 1.806 . S
C5851 C3871 1.982 . S
C5860 C362 1.809 . S
C5862 C3844 1.945 . S
C5871 C402 1.860 . S
C5873 C3853 2.034 . S
C5884 C3862 1.843 . S
C5882 C442 1.796 . S
C5893 C482 1.817 . S
C5895 C3889 1.979 . S
C5904 C522 1.797 . S
C5906 C3898 1.843 . S
C5915 C562 1.860 . S
C5917 C3907 2.034 . S
C5926 C602 1.817 . S
C5928 C3880 1.940 . S
C5939 C4006 1.826 . S
C5937 C642 1.792 . S
C5948 C682 1.796 . S
C5950 C4474 1.826 . S
C5961 C3988 1.980 . S
C5959 C722 1.816 . S
C5972 C4484 1.902 . S
C5970 C762 1.868 . S
C5981 C802 1.860 . S
C5983 C4465 2.034 . S
C5992 C842 1.866 . S
C5994 C4457 1.902 . S
C6005 C4429 1.977 . S
C6003 C882 1.815 . S
C6016 C4447 2.039 . S
C6014 C922 1.848 . S
C6027 C4141 1.723 . S
C6025 C962 1.787 . S
C6038 C4150 1.941 . S
C6036 C1002 1.955 . S
C6049 C4159 1.742 . S
C6047 C1042 1.802 . S
C6058 C1082 2.051 . S
C6060 C4132 2.039 . S
C6069 C1122 1.783 . S
C6071 C4195 1.725 . S
C6082 C4168 2.043 . S
C6080 C1162 2.049 . S
C6091 C1202 1.803 . S
C6093 C4177 1.741 . S
C6104 C4186 1.936 . S
C6102 C1242 1.957 . S
C6113 C1282 1.792 . S
C6115 C4087 1.970 . S
C6126 C4060 1.742 . S
C6124 C1322 1.806 . S
C6135 C1362 1.859 . S
C6137 C4069 2.029 . S
C6148 C4078 1.728 . S
C6146 C1402 1.782 . S
C6159 C4105 1.971 . S
C6157 C1442 1.785 . S
C6168 C1482 1.783 . S
C6170 C4114 1.729 . S
C6181 C4123 2.030 . S
C6179 C1522 1.861 . S
C6192 C4096 1.744 . S
C6190 C1562 1.802 . S
C6203 C4222 2.042 . S
C6201 C1602 2.050 . S
C6214 C4690 2.044 . S
C6212 C1642 2.046 . S
C6225 C4204 1.970 . S
C6223 C1682 1.789 . S
C6234 C1722 1.957 . S
C6236 C4699 1.936 . S
C6245 C1762 1.860 . S
C6247 C4681 2.030 . S
C6258 C4672 1.939 . S
C6256 C1802 1.954 . S
C6269 C4645 1.970 . S
C6267 C1842 1.792 . S
C6280 C4663 2.030 . S
C6278 C1882 1.852 . S
C6289 C1922 1.797 . S
C6291 C4357 1.842 . S
C6302 C4367 1.901 . S
C6300 C1962 1.867 . S
C6311 C2002 1.815 . S
C6313 C4375 1.940 . S
C6324 C4348 1.826 . S
C6322 C2042 1.791 . S
C6333 C2082 1.798 . S
C6335 C4411 1.842 . S
C6344 C2122 1.796 . S
C6346 C4384 1.827 . S
C6355 C2162 1.811 . S
C6357 C4393 1.941 . S
C6366 C2202 1.863 . S
C6368 C4403 1.901 . S
C6377 C2242 1.808 . S
C6379 C4303 1.980 . S
C6390 C4276 1.944 . S
C6388 C2282 1.810 . S
C6401 C4285 2.039 . S
C6399 C2322 1.848 . S
C6410 C2362 1.800 . S
C6412 C4294 1.842 . S
C6421 C2402 1.815 . S
C6423 C4321 1.977 . S
C6432 C2442 1.795 . S
C6434 C4330 1.843 . S
C6443 C2482 1.859 . S
C6445 C4339 2.034 . S
C6454 C2522 1.812 . S
C6456 C4312 1.944 . S
C6467 C4438 1.826 . S
C6465 C2562 1.792 . S
C6478 C4042 1.826 . S
C6476 C2602 1.796 . S
C6489 C4420 1.981 . S
C6487 C2642 1.812 . S
C6500 C4052 1.901 . S
C6498 C2682 1.863 . S
C6511 C4033 2.034 . S
C6509 C2722 1.856 . S
C6522 C4025 1.902 . S
C6520 C2762 1.867 . S
C6531 C2802 1.807 . S
C6533 C3997 1.981 . S
C6544 C4015 2.034 . S
C6542 C2842 1.858 . S
C6553 C2882 1.785 . S
C6555 C4573 1.728 . S
C6564 C2922 1.956 . S
C6566 C4582 1.940 . S
C6577 C4591 1.745 . S
C6575 C2962 1.802 . S
C6586 C3002 2.046 . S
C6588 C4564 2.044 . S
C6599 C4627 1.727 . S
C6597 C3042 1.786 . S
C6608 C3082 2.046 . S
C6610 C4600 2.044 . S
C6619 C3122 1.805 . S
C6621 C4609 1.739 . S
C6632 C4618 1.937 . S
C6630 C3162 1.956 . S
C6643 C4519 1.970 . S
C6641 C3202 1.787 . S
C6654 C4492 1.740 . S
C6652 C3242 1.804 . S
C6665 C4501 2.029 . S
C6663 C3282 1.856 . S
C6676 C4510 1.726 . S
C6674 C3322 1.786 . S
C6685 C3362 1.782 . S
C6687 C4537 1.970 . S
C6698 C4546 1.723 . S
C6696 C3402 1.787 . S
C6707 C3442 1.852 . S
C6709 C4555 2.030 . S
C6718 C3482 1.805 . S
C6720 C4528 1.739 . S
C6729 C3522 2.046 . S
C6731 C4654 2.044 . S
C6740 C3562 2.047 . S
C6742 C4258 2.041 . S
C6751 C3602 1.786 . S
C6753 C4636 1.970 . S
C6764 C4267 1.941 . S
C6762 C3642 1.955 . S
C6773 C3682 1.856 . S
C6775 C4249 2.030 . S
C6784 C3722 1.955 . S
C6786 C4240 1.937 . S
C6795 C3762 1.787 . S
C6797 C4213 1.970 . S
C6808 C4231 2.030 . S
C6806 C3802 1.851 . S
C6817 C21 1.864 . S
C6819 C3845 1.914 . S
C6828 C61 1.736 . S
C6830 C3854 1.785 . S
C6839 C101 1.674 . S
C6841 C3863 1.807 . S
C6852 C3872 1.652 . S
C6850 C141 1.618 . S
C6863 C3881 1.914 . S
C6861 C181 1.868 . S
C6872 C221 1.618 . S
C6874 C3890 1.652 . S
C6883 C261 1.667 . S
C6885 C3899 1.809 . S
C6894 C301 1.736 . S
C6896 C3908 1.785 . S
C6907 C3917 2.171 . S
C6905 C341 1.967 . S
C6918 C3926 1.810 . S
C6916 C381 1.664 . S
C6927 C421 1.990 . S
C6929 C3934 2.195 . S
C6940 C3944 1.914 . S
C6938 C461 1.865 . S
C6949 C501 1.973 . S
C6951 C3953 2.170 . S
C6960 C541 1.867 . S
C6962 C3962 1.915 . S
C6971 C581 1.988 . S
C6973 C3970 2.195 . S
C6982 C621 1.666 . S
C6984 C3980 1.811 . S
C6993 C661 1.613 . S
C6995 C3989 1.652 . S
C7004 C701 1.613 . S
C7006 C3998 1.652 . S
C7017 C4007 2.170 . S
C7015 C741 1.969 . S
C7028 C4016 1.785 . S
C7026 C781 1.730 . S
C7039 C4024 2.194 . S
C7037 C821 1.994 . S
C7050 C4034 1.785 . S
C7048 C861 1.730 . S
C7059 C901 1.962 . S
C7061 C4043 2.173 . S
C7072 C4051 2.194 . S
C7070 C941 1.991 . S
C7081 C981 1.808 . S
C7083 C4061 1.798 . S
C7092 C1021 1.963 . S
C7094 C4070 1.951 . S
C7103 C1061 1.813 . S
C7105 C4079 1.803 . S
C7116 C4088 2.068 . S
C7114 C1101 2.043 . S
C7125 C1141 1.808 . S
C7127 C4097 1.799 . S
C7138 C4106 2.070 . S
C7136 C1181 2.041 . S
C7147 C1221 1.817 . S
C7149 C4115 1.808 . S
C7158 C1261 1.964 . S
C7160 C4124 1.951 . S
C7171 C4133 1.853 . S
C7169 C1301 1.683 . S
C7180 C1341 1.818 . S
C7182 C4142 1.804 . S
C7193 C4151 1.888 . S
C7191 C1381 1.720 . S
C7202 C1421 1.814 . S
C7204 C4160 1.802 . S
C7215 C4169 1.854 . S
C7213 C1461 1.694 . S
C7226 C4178 1.803 . S
C7224 C1501 1.813 . S
C7237 C4187 1.889 . S
C7235 C1541 1.730 . S
C7246 C1581 1.818 . S
C7248 C4196 1.805 . S
C7257 C1621 2.042 . S
C7259 C4205 2.069 . S
C7268 C1661 2.041 . S
C7270 C4214 2.069 . S
C7279 C1701 1.689 . S
C7281 C4223 1.854 . S
C7290 C1741 1.966 . S
C7292 C4232 1.949 . S
C7301 C1781 1.731 . S
C7303 C4241 1.889 . S
C7314 C4250 1.946 . S
C7312 C1821 1.964 . S
C7323 C1861 1.688 . S
C7325 C4259 1.853 . S
C7336 C4268 1.889 . S
C7334 C1901 1.726 . S
C7345 C1941 1.870 . S
C7347 C4277 1.915 . S
C7358 C4286 1.786 . S
C7356 C1981 1.733 . S
C7369 C4295 1.807 . S
C7367 C2021 1.674 . S
C7380 C4304 1.652 . S
C7378 C2061 1.616 . S
C7389 C2101 1.865 . S
C7391 C4313 1.914 . S
C7400 C2141 1.619 . S
C7402 C4322 1.652 . S
C7413 C4331 1.810 . S
C7411 C2181 1.669 . S
C7424 C4340 1.785 . S
C7422 C2221 1.736 . S
C7433 C2261 1.965 . S
C7435 C4349 2.175 . S
C7444 C2301 1.669 . S
C7446 C4358 1.808 . S
C7455 C2341 1.996 . S
C7457 C4366 2.193 . S
C7466 C2381 1.866 . S
C7468 C4376 1.914 . S
C7477 C2421 1.970 . S
C7479 C4385 2.170 . S
C7490 C4394 1.915 . S
C7488 C2461 1.870 . S
C7501 C4402 2.193 . S
C7499 C2501 1.989 . S
C7512 C4412 1.808 . S
C7510 C2541 1.669 . S
C7523 C4421 1.652 . S
C7521 C2581 1.616 . S
C7532 C2621 1.618 . S
C7534 C4430 1.652 . S
C7543 C2661 1.967 . S
C7545 C4439 2.171 . S
C7556 C4448 1.785 . S
C7554 C2701 1.736 . S
C7565 C2741 1.990 . S
C7567 C4456 2.195 . S
C7578 C4466 1.785 . S
C7576 C2781 1.730 . S
C7589 C4475 2.175 . S
C7587 C2821 1.963 . S
C7600 C4483 2.194 . S
C7598 C2861 1.992 . S
C7609 C2901 1.815 . S
C7611 C4493 1.799 . S
C7620 C2941 1.964 . S
C7622 C4502 1.946 . S
C7631 C2981 1.811 . S
C7633 C4511 1.805 . S
C7642 C3021 2.042 . S
C7644 C4520 2.065 . S
C7655 C4529 1.797 . S
C7653 C3061 1.812 . S
C7666 C4538 2.066 . S
C7664 C3101 2.039 . S
C7677 C4547 1.808 . S
C7675 C3141 1.816 . S
C7686 C3181 1.963 . S
C7688 C4556 1.951 . S
C7697 C3221 1.689 . S
C7699 C4565 1.854 . S
C7710 C4574 1.805 . S
C7708 C3261 1.818 . S
C7721 C4583 1.889 . S
C7719 C3301 1.728 . S
C7732 C4592 1.799 . S
C7730 C3341 1.808 . S
C7743 C4601 1.853 . S
C7741 C3381 1.683 . S
C7754 C4610 1.797 . S
C7752 C3421 1.811 . S
C7765 C4619 1.889 . S
C7763 C3461 1.726 . S
C7776 C4628 1.804 . S
C7774 C3501 1.812 . S
C7787 C4637 2.066 . S
C7785 C3541 2.044 . S
C7798 C4646 2.068 . S
C7796 C3581 2.043 . S
C7809 C4655 1.854 . S
C7807 C3621 1.692 . S
C7818 C3661 1.963 . S
C7820 C4664 1.946 . S
C7831 C4673 1.888 . S
C7829 C3701 1.721 . S
C7840 C3741 1.964 . S
C7842 C4682 1.951 . S
C7853 C4691 1.854 . S
C7851 C3781 1.687 . S
C7864 C4700 1.889 . S
C7862 C3821 1.729 . S
