# Generated by pormake.
# Topology rtl, (3,6)-cn, num edge types: 1
# Building blocks:
#     Node 0, Type 0, BuildingBlock: CUQRIR_clean_linker_1, # of connection points: 3
#     Node 1, Type 0, BuildingBlock: CUQRIR_clean_linker_1, # of connection points: 3
#     Node 2, Type 0, BuildingBlock: CUQRIR_clean_linker_1, # of connection points: 3
#     Node 3, Type 0, BuildingBlock: CUQRIR_clean_linker_1, # of connection points: 3
#     Node 4, Type 1, BuildingBlock: CIFDUS_clean_sbu_1, # of connection points: 6
#     Node 5, Type 1, BuildingBlock: CIFDUS_clean_sbu_1, # of connection points: 6
#     Edge 6, Type (0, 1), BuildingBlock: FUNLAD_clean_linker_1, # of connection points: 2
#     Edge 7, Type (0, 1), BuildingBlock: FUNLAD_clean_linker_1, # of connection points: 2
#     Edge 8, Type (0, 1), BuildingBlock: FUNLAD_clean_linker_1, # of connection points: 2
#     Edge 9, Type (0, 1), BuildingBlock: FUNLAD_clean_linker_1, # of connection points: 2
#     Edge 10, Type (0, 1), BuildingBlock: FUNLAD_clean_linker_1, # of connection points: 2
#     Edge 11, Type (0, 1), BuildingBlock: FUNLAD_clean_linker_1, # of connection points: 2
#     Edge 12, Type (0, 1), BuildingBlock: FUNLAD_clean_linker_1, # of connection points: 2
#     Edge 13, Type (0, 1), BuildingBlock: FUNLAD_clean_linker_1, # of connection points: 2
#     Edge 14, Type (0, 1), BuildingBlock: FUNLAD_clean_linker_1, # of connection points: 2
#     Edge 15, Type (0, 1), BuildingBlock: FUNLAD_clean_linker_1, # of connection points: 2
#     Edge 16, Type (0, 1), BuildingBlock: FUNLAD_clean_linker_1, # of connection points: 2
#     Edge 17, Type (0, 1), BuildingBlock: FUNLAD_clean_linker_1, # of connection points: 2
# Relax obj value: 0.023
# Max RMSD: 0.122
# Mean RMSD: 0.101
data_MOF--net-rtl--node1-CIFDUS_clean_sbu_1--node2-CUQRIR_clean_linker_1--edge1-FUNLAD_clean_linker_1
_symmetry_space_group_name_H-M    P1
_symmetry_Int_Tables_number       1
_symmetry_cell_setting            triclinic
loop_
_symmetry_equiv_pos_as_xyz
'x, y, z'
_cell_length_a     34.062896
_cell_length_b     34.174981
_cell_length_c     21.003052
_cell_angle_alpha  89.892485
_cell_angle_beta   98.223913
_cell_angle_gamma 89.949831
loop_
_atom_site_label
_atom_site_type_symbol
_atom_site_fract_x
_atom_site_fract_y
_atom_site_fract_z
_atom_type_partial_charge
C0 C 0.24362 0.80968 0.05877 0.0
N1 N 0.21596 0.83569 0.07253 0.0
N2 N 0.2663 0.79715 0.11334 0.0
C3 C 0.24993 0.79825 0.99174 0.0
C4 C 0.2523 0.81745 0.16081 0.0
N5 N 0.2213 0.84062 0.13602 0.0
C6 C 0.27324 0.81946 0.22895 0.0
H7 H 0.2453 0.82387 0.95902 0.0
H8 H 0.22811 0.77533 0.97377 0.0
H9 H 0.27998 0.7864 0.98991 0.0
H10 H 0.30548 0.81401 0.23078 0.0
H11 H 0.26107 0.79663 0.25824 0.0
H12 H 0.26925 0.84852 0.25054 0.0
C13 C 0.74945 0.73288 0.65755 0.0
N14 N 0.71745 0.71112 0.63346 0.0
N15 N 0.76213 0.75463 0.61075 0.0
C16 C 0.76629 0.73602 0.72753 0.0
C17 C 0.73684 0.74545 0.55705 0.0
N18 N 0.70974 0.71862 0.57067 0.0
C19 C 0.73792 0.76392 0.4922 0.0
H20 H 0.7837 0.76333 0.7373 0.0
H21 H 0.78626 0.71082 0.74125 0.0
H22 H 0.74206 0.73572 0.75761 0.0
H23 H 0.75957 0.74795 0.46712 0.0
H24 H 0.74754 0.79483 0.49721 0.0
H25 H 0.70834 0.76307 0.46228 0.0
C26 C 0.80474 0.24825 0.0603 0.0
N27 N 0.83091 0.22036 0.04847 0.0
N28 N 0.79197 0.26906 1.00644 0.0
C29 C 0.79195 0.25594 0.12483 0.0
C30 C 0.81154 0.25282 0.96109 0.0
N31 N 0.83465 0.22258 0.98641 0.0
C32 C 0.81241 0.26982 0.8952 0.0
H33 H 0.80209 0.23282 0.16053 0.0
H34 H 0.75914 0.25833 0.11936 0.0
H35 H 0.80438 0.28441 0.14332 0.0
H36 H 0.80802 0.30198 0.89546 0.0
H37 H 0.78812 0.25671 0.86112 0.0
H38 H 0.84108 0.26353 0.87805 0.0
C39 C 0.29626 0.31144 0.44745 0.0
N40 N 0.31932 0.34171 0.47229 0.0
N41 N 0.28172 0.29152 0.49497 0.0
C42 C 0.2923 0.29837 0.37843 0.0
C43 C 0.29766 0.31016 0.54942 0.0
N44 N 0.32081 0.34027 0.53581 0.0
C45 C 0.29021 0.29894 0.61596 0.0
H46 H 0.26555 0.31217 0.35114 0.0
H47 H 0.28905 0.26613 0.37479 0.0
H48 H 0.31848 0.30718 0.35591 0.0
H49 H 0.30912 0.2734 0.63252 0.0
H50 H 0.25879 0.29016 0.6152 0.0
H51 H 0.29733 0.32318 0.65074 0.0
O52 O 1.00174 0.06686 0.48531 0.0
Mn53 Mn 0.02167 0.02653 0.55969 0.0
O54 O 0.95419 0.03661 0.41779 0.0
Mn55 Mn 0.96926 0.98691 0.44537 0.0
O56 O 0.04197 0.98636 0.63409 0.0
O57 O 0.06629 0.06369 0.58985 0.0
Mn58 Mn 0.07171 0.06807 0.67433 0.0
O59 O 0.98487 0.05406 0.61847 0.0
O60 O 0.0842 0.0189 0.7076 0.0
O61 O 0.05793 0.99875 0.5003 0.0
O62 O 0.01647 0.96932 0.42134 0.0
O63 O 0.10968 0.10005 0.64778 0.0
O64 O 0.02443 0.0886 0.69303 0.0
C65 C 0.94889 0.96409 0.52958 0.0
C66 C 0.97377 0.06713 0.43695 0.0
C67 C 0.06683 0.98752 0.68654 0.0
C68 C 0.09489 0.08859 0.5906 0.0
C69 C 0.99014 0.07791 0.66631 0.0
C70 C 0.0513 0.97789 0.4488 0.0
O71 O 0.97718 0.98925 0.52993 0.0
O72 O 0.93311 0.95296 0.47282 0.0
O73 O 0.54445 0.5613 0.12872 0.0
Mn74 Mn 0.5194 0.5244 0.05318 0.0
O75 O 0.57227 0.52148 0.20841 0.0
Mn76 Mn 0.55742 0.47449 0.1683 0.0
O77 O 0.49483 0.48685 0.97816 0.0
O78 O 0.48114 0.56752 0.02181 0.0
Mn79 Mn 0.47619 0.57094 0.9374 0.0
O80 O 0.56077 0.54554 0.99581 0.0
O81 O 0.4551 0.52365 0.90696 0.0
O82 O 0.47697 0.50335 0.1089 0.0
O83 O 0.50698 0.45776 0.17604 0.0
O84 O 0.44402 0.60935 0.96332 0.0
O85 O 0.52622 0.58238 0.91797 0.0
C86 C 0.585 0.45482 0.08851 0.0
C87 C 0.56366 0.55553 0.1855 0.0
C88 C 0.46864 0.49054 0.9278 0.0
C89 C 0.4562 0.59612 0.02058 0.0
C90 C 0.55877 0.56802 0.94606 0.0
C91 C 0.47597 0.4758 0.15053 0.0
O92 O 0.55815 0.48178 0.08528 0.0
O93 O 0.59454 0.44009 0.14552 0.0
H94 H 0.26207 0.2364 0.53213 0.0
C95 C 0.25759 0.25664 0.49173 0.0
H96 H 0.21978 0.27175 0.40663 0.0
H97 H 0.19054 0.08398 0.49097 0.0
H98 H 0.25538 0.07087 0.45892 0.0
H99 H 0.29473 0.12439 0.42051 0.0
H100 H 0.26969 0.19129 0.41411 0.0
C101 C 0.22711 0.25028 0.44456 0.0
C102 C 0.19975 0.21657 0.44909 0.0
C103 C 0.2143 0.17765 0.4505 0.0
C104 C 0.19153 0.14676 0.47199 0.0
C105 C 0.2071 0.10834 0.47526 0.0
C106 C 0.244 0.10051 0.45675 0.0
C107 C 0.26616 0.13066 0.43511 0.0
C108 C 0.25164 0.16888 0.432 0.0
H109 H 0.09125 0.10209 0.4858 0.0
C110 C 0.10856 0.10586 0.53298 0.0
H111 H 0.15831 0.13152 0.58862 0.0
H112 H 0.15905 0.28598 0.43607 0.0
H113 H 0.09187 0.29721 0.45786 0.0
H114 H 0.05238 0.2433 0.49444 0.0
H115 H 0.07989 0.17779 0.50942 0.0
C116 C 0.14079 0.12914 0.54128 0.0
C117 C 0.15431 0.15473 0.49148 0.0
C118 C 0.13726 0.1924 0.48046 0.0
C119 C 0.16005 0.22347 0.45917 0.0
C120 C 0.14304 0.2613 0.45178 0.0
C121 C 0.10451 0.26814 0.46416 0.0
C122 C 0.08228 0.23779 0.48482 0.0
C123 C 0.09842 0.20036 0.49339 0.0
H124 H 0.31945 0.7727 0.08118 0.0
C125 C 0.30008 0.77118 0.11792 0.0
H126 H 0.28579 0.73873 0.19699 0.0
H127 H 0.36493 0.58999 0.08177 0.0
H128 H 0.29675 0.56866 0.0806 0.0
H129 H 0.24688 0.6129 0.11613 0.0
H130 H 0.26478 0.67871 0.15287 0.0
C131 C 0.30635 0.74266 0.16251 0.0
C132 C 0.33793 0.71278 0.15865 0.0
C133 C 0.32722 0.67394 0.13996 0.0
C134 C 0.35595 0.64841 0.11936 0.0
C135 C 0.34417 0.61047 0.09767 0.0
C136 C 0.30522 0.59788 0.09696 0.0
C137 C 0.27714 0.62279 0.11701 0.0
C138 C 0.28779 0.66049 0.138 0.0
H139 H 0.44556 0.59712 0.12313 0.0
C140 C 0.44071 0.61241 0.0773 0.0
H141 H 0.41465 0.6604 0.02367 0.0
H142 H 0.37042 0.78077 0.20983 0.0
H143 H 0.43992 0.7998 0.2189 0.0
H144 H 0.48942 0.75549 0.18227 0.0
H145 H 0.46968 0.69171 0.13639 0.0
C146 C 0.41822 0.645 0.06948 0.0
C147 C 0.39512 0.66181 0.11772 0.0
C148 C 0.40698 0.69835 0.1454 0.0
C149 C 0.37839 0.72393 0.16603 0.0
C150 C 0.39098 0.7606 0.1925 0.0
C151 C 0.43071 0.77171 0.19822 0.0
C152 C 0.4586 0.74676 0.17757 0.0
C153 C 0.44698 0.71047 0.15116 0.0
H154 H 0.82646 0.76099 0.62914 0.0
C155 C 0.7986 0.77643 0.61553 0.0
H156 H 0.77101 0.8311 0.59586 0.0
H157 H 0.92345 0.92844 0.71323 0.0
H158 H 0.88472 0.93328 0.80149 0.0
H159 H 0.82372 0.89438 0.80141 0.0
H160 H 0.80112 0.8502 0.71328 0.0
C161 C 0.79885 0.81517 0.60516 0.0
C162 C 0.83672 0.83734 0.60665 0.0
C163 C 0.84932 0.86338 0.65802 0.0
C164 C 0.88428 0.88623 0.65771 0.0
C165 C 0.89666 0.91116 0.71046 0.0
C166 C 0.87484 0.91402 0.76154 0.0
C167 C 0.8405 0.89209 0.76152 0.0
C168 C 0.82779 0.86694 0.71059 0.0
H169 H 0.90628 0.96136 0.59628 0.0
C170 C 0.9339 0.94833 0.58649 0.0
H171 H 0.96747 0.89714 0.58805 0.0
H172 H 0.82118 0.79025 0.5005 0.0
H173 H 0.85944 0.78537 0.41254 0.0
H174 H 0.91945 0.82539 0.4109 0.0
H175 H 0.94141 0.87027 0.49692 0.0
C176 C 0.94046 0.91027 0.60033 0.0
C177 C 0.90626 0.88357 0.60541 0.0
C178 C 0.8941 0.85679 0.55458 0.0
C179 C 0.85937 0.83372 0.55528 0.0
C180 C 0.84742 0.80815 0.50304 0.0
C181 C 0.86908 0.80513 0.45191 0.0
C182 C 0.90284 0.82763 0.45101 0.0
C183 C 0.91522 0.85328 0.50127 0.0
H184 H 0.76537 0.3201 0.04539 0.0
C185 C 0.76565 0.3024 1.00248 0.0
H186 H 0.73558 0.2906 0.9095 0.0
H187 H 0.57948 0.36663 0.99099 0.0
H188 H 0.55733 0.30117 0.95744 0.0
H189 H 0.60391 0.25349 0.92131 0.0
H190 H 0.67274 0.27081 0.91844 0.0
C191 C 0.73837 0.30985 0.95087 0.0
C192 C 0.708 0.34105 0.95417 0.0
C193 C 0.66758 0.33072 0.953 0.0
C194 C 0.6407 0.35809 0.97411 0.0
C195 C 0.60096 0.3467 0.97564 0.0
C196 C 0.58793 0.30936 0.95637 0.0
C197 C 0.61416 0.28252 0.93597 0.0
C198 C 0.65361 0.29284 0.93453 0.0
H199 H 0.59309 0.45017 0.98502 0.0
C200 C 0.6041 0.44083 0.03376 0.0
H201 H 0.64543 0.4068 0.09486 0.0
H202 H 0.77965 0.37379 0.94188 0.0
H203 H 0.80001 0.44082 0.96845 0.0
H204 H 0.75364 0.48757 1.00767 0.0
H205 H 0.68634 0.46763 0.01991 0.0
C206 C 0.63438 0.41523 0.04563 0.0
C207 C 0.65435 0.39542 0.99626 0.0
C208 C 0.693 0.4075 0.98823 0.0
C209 C 0.71985 0.38038 0.96666 0.0
C210 C 0.75847 0.39313 0.95956 0.0
C211 C 0.77037 0.43148 0.97427 0.0
C212 C 0.74424 0.45783 0.99633 0.0
C213 C 0.70593 0.44608 1.00346 0.0
H214 H 0.18499 0.89266 0.14637 0.0
C215 C 0.19774 0.86639 0.17016 0.0
H216 H 0.19765 0.82911 0.25004 0.0
H217 H 0.13827 0.99967 0.35966 0.0
H218 H 0.20231 0.02539 0.34298 0.0
H219 H 0.24905 0.98517 0.29153 0.0
H220 H 0.23173 0.91928 0.25534 0.0
C221 C 0.18855 0.85716 0.2286 0.0
C222 C 0.16147 0.88153 0.26216 0.0
C223 C 0.17274 0.91952 0.28532 0.0
C224 C 0.14647 0.94214 0.3177 0.0
C225 C 0.15757 0.98072 0.337 0.0
C226 C 0.19419 0.99593 0.32741 0.0
C227 C 0.22046 0.97333 0.29827 0.0
C228 C 0.21004 0.93557 0.27739 0.0
H229 H 0.11375 0.95839 0.44997 0.0
C230 C 0.08518 0.96182 0.42005 0.0
H231 H 0.05137 0.95359 0.32888 0.0
H232 H 0.13036 0.81002 0.22362 0.0
H233 H 0.06808 0.78292 0.2458 0.0
H234 H 0.02456 0.82035 0.30775 0.0
H235 H 0.0429 0.88525 0.34731 0.0
C236 C 0.08013 0.94988 0.35821 0.0
C237 C 0.10975 0.92607 0.32928 0.0
C238 C 0.09914 0.8876 0.30791 0.0
C239 C 0.12475 0.86555 0.27377 0.0
C240 C 0.11259 0.82777 0.25116 0.0
C241 C 0.07678 0.81186 0.2633 0.0
C242 C 0.05224 0.83296 0.29802 0.0
C243 C 0.0631 0.87034 0.32017 0.0
H244 H 0.66132 0.68967 0.65864 0.0
C245 C 0.69338 0.68686 0.66894 0.0
H246 H 0.74126 0.65744 0.72353 0.0
H247 H 0.64456 0.63394 0.95837 0.0
H248 H 0.701 0.67198 1.00614 0.0
H249 H 0.75131 0.69456 0.94087 0.0
H250 H 0.74506 0.67961 0.82726 0.0
C251 C 0.70934 0.6612 0.71421 0.0
C252 C 0.68422 0.63992 0.75582 0.0
C253 C 0.68962 0.64677 0.82321 0.0
C254 C 0.66126 0.63259 0.86143 0.0
C255 C 0.66572 0.64272 0.92742 0.0
C256 C 0.69795 0.66478 0.9555 0.0
C257 C 0.72621 0.67758 0.91872 0.0
C258 C 0.72216 0.66892 0.85336 0.0
H259 H 0.62309 0.56306 0.93793 0.0
C260 C 0.59538 0.5771 0.9181 0.0
H261 H 0.56622 0.61481 0.84667 0.0
H262 H 0.67109 0.61291 0.63204 0.0
H263 H 0.61704 0.57112 0.58528 0.0
H264 H 0.568 0.54627 0.65122 0.0
H265 H 0.57286 0.56291 0.76439 0.0
C266 C 0.59425 0.60175 0.86749 0.0
C267 C 0.62853 0.61005 0.8326 0.0
C268 C 0.62546 0.59997 0.76652 0.0
C269 C 0.65339 0.61472 0.72821 0.0
C270 C 0.64992 0.60357 0.66273 0.0
C271 C 0.61925 0.57929 0.63544 0.0
C272 C 0.59167 0.56528 0.67259 0.0
C273 C 0.59467 0.57526 0.73739 0.0
H274 H 0.82844 0.17269 0.11643 0.0
C275 C 0.84829 0.19152 0.0941 0.0
H276 H 0.90587 0.21435 0.10067 0.0
H277 H 0.9481 0.17893 0.39876 0.0
H278 H 0.95298 0.24958 0.39432 0.0
H279 H 0.93479 0.28507 0.29201 0.0
H280 H 0.91149 0.25024 0.19361 0.0
C281 C 0.88681 0.193 0.11933 0.0
C282 C 0.90211 0.17088 0.17959 0.0
C283 C 0.91696 0.19165 0.23664 0.0
C284 C 0.92787 0.17114 0.29585 0.0
C285 C 0.94043 0.19285 0.3524 0.0
C286 C 0.94313 0.23348 0.35061 0.0
C287 C 0.93287 0.25347 0.293 0.0
C288 C 0.91969 0.23302 0.23669 0.0
H289 H 0.99162 0.12048 0.38797 0.0
C290 C 0.96653 0.10236 0.39568 0.0
H291 H 0.90632 0.08896 0.36898 0.0
H292 H 0.87875 0.12142 0.07906 0.0
H293 H 0.87321 0.05082 0.08388 0.0
H294 H 0.89401 0.01533 0.18525 0.0
H295 H 0.91885 0.05018 0.28272 0.0
C296 C 0.93078 0.1076 0.35979 0.0
C297 C 0.92464 0.12982 0.29779 0.0
C298 C 0.91152 0.10896 0.24022 0.0
C299 C 0.90011 0.12941 0.18137 0.0
C300 C 0.88693 0.10756 0.12518 0.0
C301 C 0.8841 0.06694 0.12711 0.0
C302 C 0.89565 0.04695 0.18422 0.0
C303 C 0.90955 0.06747 0.24004 0.0
H304 H 0.32175 0.39486 0.58904 0.0
C305 C 0.33878 0.36889 0.58107 0.0
H306 H 0.38827 0.334 0.61222 0.0
H307 H 0.42054 0.50855 0.76358 0.0
H308 H 0.40761 0.53933 0.65912 0.0
H309 H 0.3872 0.50028 0.56182 0.0
H310 H 0.38207 0.42968 0.56825 0.0
C311 C 0.37293 0.36113 0.61968 0.0
C312 C 0.3874 0.38533 0.67803 0.0
C313 C 0.39365 0.4263 0.67311 0.0
C314 C 0.40537 0.44896 0.72949 0.0
C315 C 0.41084 0.48986 0.72288 0.0
C316 C 0.40389 0.508 0.66302 0.0
C317 C 0.39265 0.48594 0.60819 0.0
C318 C 0.38878 0.4455 0.61272 0.0
H319 H 0.4771 0.43238 0.88476 0.0
C320 C 0.456 0.45593 0.88771 0.0
H321 H 0.40012 0.47992 0.85342 0.0
H322 H 0.37808 0.30763 0.70651 0.0
H323 H 0.38867 0.27766 0.81184 0.0
H324 H 0.40927 0.31714 0.90897 0.0
H325 H 0.41946 0.38701 0.90113 0.0
C326 C 0.42077 0.4561 0.8491 0.0
C327 C 0.41172 0.43078 0.79095 0.0
C328 C 0.40632 0.38985 0.79606 0.0
C329 C 0.39426 0.3671 0.73969 0.0
C330 C 0.38793 0.32643 0.74695 0.0
C331 C 0.39365 0.30876 0.80739 0.0
C332 C 0.40525 0.33099 0.86208 0.0
C333 C 0.41127 0.37108 0.85683 0.0
H334 H 0.65228 0.68999 0.54173 0.0
C335 C 0.68015 0.69836 0.52612 0.0
H336 H 0.71738 0.6904 0.45546 0.0
H337 H 0.64598 0.54033 0.32076 0.0
H338 H 0.70665 0.51537 0.38119 0.0
H339 H 0.74653 0.55596 0.46323 0.0
H340 H 0.72613 0.62194 0.48476 0.0
C341 C 0.68801 0.68596 0.46839 0.0
C342 C 0.66053 0.66048 0.42476 0.0
C343 C 0.67227 0.62157 0.41367 0.0
C344 C 0.64858 0.59776 0.36775 0.0
C345 C 0.66202 0.55945 0.35635 0.0
C346 C 0.697 0.54474 0.39048 0.0
C347 C 0.7195 0.56762 0.43651 0.0
C348 C 0.70748 0.60556 0.44814 0.0
H349 H 0.58591 0.61636 0.20324 0.0
C350 C 0.57866 0.58932 0.22619 0.0
H351 H 0.57878 0.55794 0.31255 0.0
H352 H 0.63039 0.73442 0.43097 0.0
H353 H 0.56801 0.75856 0.37416 0.0
H354 H 0.52459 0.71579 0.30031 0.0
H355 H 0.5436 0.64881 0.28184 0.0
C356 C 0.58661 0.58521 0.29075 0.0
C357 C 0.61243 0.61242 0.33388 0.0
C358 C 0.60025 0.65113 0.34576 0.0
C359 C 0.62467 0.67541 0.39041 0.0
C360 C 0.61257 0.71442 0.39913 0.0
C361 C 0.57688 0.72869 0.36665 0.0
C362 C 0.55246 0.70463 0.32493 0.0
C363 C 0.56382 0.66626 0.31452 0.0
H364 H 0.8902 0.19352 0.97367 0.0
C365 C 0.85935 0.19768 0.9532 0.0
H366 H 0.81373 0.18461 0.87829 0.0
H367 H 0.9202 0.16282 0.65921 0.0
H368 H 0.87334 0.21283 0.61582 0.0
H369 H 0.82447 0.23926 0.68049 0.0
H370 H 0.82224 0.21607 0.78853 0.0
C371 C 0.84494 0.18076 0.89666 0.0
C372 C 0.87088 0.16074 0.85468 0.0
C373 C 0.87091 0.17391 0.79031 0.0
C374 C 0.89879 0.15836 0.75247 0.0
C375 C 0.89931 0.17319 0.68959 0.0
C376 C 0.87264 0.20198 0.6641 0.0
C377 C 0.84516 0.21688 0.70054 0.0
C378 C 0.84427 0.20326 0.76286 0.0
H379 H 0.92583 0.08229 0.67386 0.0
C380 C 0.9552 0.09266 0.69367 0.0
H381 H 0.98893 0.12688 0.76542 0.0
H382 H 0.87105 0.12047 0.9673 0.0
H383 H 0.91734 0.06917 1.0093 0.0
H384 H 0.96777 0.04501 0.9462 0.0
H385 H 0.97231 0.07147 0.84035 0.0
C386 C 0.95954 0.11737 0.74416 0.0
C387 C 0.92619 0.12936 0.77854 0.0
C388 C 0.92441 0.11431 0.84092 0.0
C389 C 0.8962 0.12934 0.87845 0.0
C390 C 0.89357 0.11186 0.93877 0.0
C391 C 0.91943 0.08201 0.96291 0.0
C392 C 0.94786 0.0683 0.92727 0.0
C393 C 0.95027 0.08392 0.86675 0.0
H394 H 0.37535 0.36557 0.45132 0.0
C395 C 0.34336 0.36659 0.43799 0.0
H396 H 0.29496 0.38854 0.37577 0.0
H397 H 0.46682 0.47264 0.31278 0.0
H398 H 0.47876 0.49177 0.42485 0.0
H399 H 0.43131 0.47485 0.4981 0.0
H400 H 0.37061 0.43906 0.45938 0.0
C401 C 0.32706 0.38799 0.38697 0.0
C402 C 0.35138 0.40616 0.34044 0.0
C403 C 0.38444 0.43046 0.3622 0.0
C404 C 0.41125 0.44151 0.3193 0.0
C405 C 0.44534 0.46364 0.34319 0.0
C406 C 0.45247 0.47504 0.4073 0.0
C407 C 0.42558 0.46553 0.44858 0.0
C408 C 0.39151 0.44421 0.42625 0.0
H409 H 0.41361 0.48695 0.1656 0.0
C410 C 0.4383 0.4666 0.17487 0.0
H411 H 0.46079 0.41522 0.22317 0.0
H412 H 0.28776 0.36459 0.27842 0.0
H413 H 0.27487 0.349 0.16536 0.0
H414 H 0.3204 0.3707 0.09104 0.0
H415 H 0.37947 0.40822 0.1301 0.0
C416 C 0.43595 0.43537 0.21341 0.0
C417 C 0.40395 0.43025 0.25389 0.0
C418 C 0.36904 0.40946 0.23046 0.0
C419 C 0.3427 0.39723 0.27363 0.0
C420 C 0.30883 0.37508 0.24863 0.0
C421 C 0.301 0.36582 0.18346 0.0
C422 C 0.32663 0.37801 0.14161 0.0
C423 C 0.3604 0.39947 0.16461 0.0
H424 H 0.18902 0.88998 0.03212 0.0
C425 C 0.18922 0.85836 0.02691 0.0
H426 H 0.16539 0.8099 0.97321 0.0
H427 H 0.05766 0.9701 0.86949 0.0
H428 H 0.0391 0.97297 0.97681 0.0
H429 H 0.06652 0.92567 0.06047 0.0
H430 H 0.11287 0.87544 0.03749 0.0
C431 C 0.16564 0.84154 0.97743 0.0
C432 C 0.14285 0.86535 0.92449 0.0
C433 C 0.11488 0.89382 0.9381 0.0
C434 C 0.09849 0.92065 0.88945 0.0
C435 C 0.07121 0.94922 0.90479 0.0
C436 C 0.06012 0.95103 0.96605 0.0
C437 C 0.07559 0.92443 1.01317 0.0
C438 C 0.10249 0.89598 0.99954 0.0
H439 H 0.06122 0.92415 0.70937 0.0
C440 C 0.0754 0.95147 0.72592 0.0
H441 H 0.11305 0.98036 0.79982 0.0
H442 H 0.18818 0.80879 0.87753 0.0
H443 H 0.20425 0.80416 0.76935 0.0
H444 H 0.17788 0.85217 0.68629 0.0
H445 H 0.13494 0.90475 0.71092 0.0
C446 C 0.10015 0.95265 0.78233 0.0
C447 C 0.10948 0.91872 0.82685 0.0
C448 C 0.1346 0.88804 0.81161 0.0
C449 C 0.1507 0.86091 0.86018 0.0
C450 C 0.17571 0.83064 0.84336 0.0
C451 C 0.18509 0.82754 0.78118 0.0
C452 C 0.17019 0.85451 0.7344 0.0
C453 C 0.14539 0.88455 0.74921 0.0
loop_
_geom_bond_atom_site_label_1
_geom_bond_atom_site_label_2
_geom_bond_distance
_geom_bond_site_symmetry_2
_ccdc_geom_bond_type
C0 N1 1.317 . S
C0 N2 1.348 . S
C0 C3 1.485 1_554 S
N1 C0 1.317 . S
N1 N5 1.370 . S
N2 C0 1.348 . S
N2 C4 1.346 . S
C3 C0 1.485 1_556 S
C3 H7 0.960 . S
C3 H8 0.961 . S
C3 H9 0.960 . S
C4 N2 1.346 . S
C4 N5 1.307 . S
C4 C6 1.486 . S
N5 N1 1.370 . S
N5 C4 1.307 . S
C6 C4 1.486 . S
C6 H10 0.960 . S
C6 H11 0.960 . S
C6 H12 0.959 . S
H7 C3 0.960 . S
H8 C3 0.961 . S
H9 C3 0.960 . S
H10 C6 0.960 . S
H11 C6 0.960 . S
H12 C6 0.959 . S
C13 N14 1.317 . S
C13 N15 1.348 . S
C13 C16 1.485 . S
N14 C13 1.317 . S
N14 N18 1.370 . S
N15 C13 1.348 . S
N15 C17 1.346 . S
C16 C13 1.485 . S
C16 H20 0.960 . S
C16 H21 0.961 . S
C16 H22 0.960 . S
C17 N15 1.346 . S
C17 N18 1.307 . S
C17 C19 1.486 . S
N18 N14 1.370 . S
N18 C17 1.307 . S
C19 C17 1.486 . S
C19 H23 0.960 . S
C19 H24 0.960 . S
C19 H25 0.959 . S
H20 C16 0.960 . S
H21 C16 0.961 . S
H22 C16 0.960 . S
H23 C19 0.960 . S
H24 C19 0.960 . S
H25 C19 0.959 . S
C26 N27 1.317 . S
C26 N28 1.354 . S
C26 C29 1.485 . S
N27 C26 1.317 . S
N27 N31 1.370 1_554 S
N28 C26 1.354 . S
N28 C30 1.340 1_554 S
C29 C26 1.485 . S
C29 H33 0.960 . S
C29 H34 0.961 . S
C29 H35 0.960 . S
C30 N28 1.340 1_556 S
C30 N31 1.307 . S
C30 C32 1.486 . S
N31 N27 1.370 1_556 S
N31 C30 1.307 . S
C32 C30 1.486 . S
C32 H36 0.960 . S
C32 H37 0.960 . S
C32 H38 0.959 . S
H33 C29 0.960 . S
H34 C29 0.961 . S
H35 C29 0.960 . S
H36 C32 0.960 . S
H37 C32 0.960 . S
H38 C32 0.959 . S
C39 N40 1.317 . S
C39 N41 1.348 . S
C39 C42 1.485 . S
N40 C39 1.317 . S
N40 N44 1.370 . S
N41 C39 1.348 . S
N41 C43 1.346 . S
C42 C39 1.485 . S
C42 H46 0.960 . S
C42 H47 0.961 . S
C42 H48 0.960 . S
C43 N41 1.346 . S
C43 N44 1.307 . S
C43 C45 1.486 . S
N44 N40 1.370 . S
N44 C43 1.307 . S
C45 C43 1.486 . S
C45 H49 0.960 . S
C45 H50 0.960 . S
C45 H51 0.959 . S
H46 C42 0.960 . S
H47 C42 0.961 . S
H48 C42 0.960 . S
H49 C45 0.960 . S
H50 C45 0.960 . S
H51 C45 0.959 . S
O52 Mn53 2.163 1_655 S
O52 C66 1.244 . S
Mn53 O52 2.163 1_455 S
Mn53 O56 2.160 1_545 S
Mn53 O57 2.221 . S
Mn53 O59 2.163 1_455 S
Mn53 O61 2.160 1_545 S
Mn53 O71 2.221 1_445 S
O54 Mn55 2.087 1_545 S
O54 C66 1.256 . S
Mn55 O54 2.087 1_565 S
Mn55 O62 2.089 1_655 S
Mn55 O71 2.290 . S
Mn55 O72 2.251 . S
O56 Mn53 2.160 1_565 S
O56 C67 1.239 . S
O57 Mn53 2.221 . S
O57 Mn58 2.290 . S
O57 C68 1.278 . S
Mn58 O57 2.290 . S
Mn58 O60 2.089 . S
Mn58 O63 2.251 . S
Mn58 O64 2.087 . S
O59 Mn53 2.163 1_655 S
O59 C69 1.244 . S
O60 Mn58 2.089 . S
O60 C67 1.256 1_545 S
O61 Mn53 2.160 1_565 S
O61 C70 1.239 . S
O62 Mn55 2.089 1_455 S
O62 C70 1.256 . S
O63 Mn58 2.251 . S
O63 C68 1.241 . S
O64 Mn58 2.087 . S
O64 C69 1.256 1_455 S
C65 O71 1.278 . S
C65 O72 1.241 . S
C66 O52 1.244 . S
C66 O54 1.256 . S
C67 O56 1.239 . S
C67 O60 1.256 1_565 S
C68 O57 1.278 . S
C68 O63 1.241 . S
C69 O59 1.244 . S
C69 O64 1.256 1_655 S
C70 O61 1.239 . S
C70 O62 1.256 . S
O71 Mn53 2.221 1_665 S
O71 Mn55 2.290 . S
O71 C65 1.278 . S
O72 Mn55 2.251 . S
O72 C65 1.241 . S
O73 Mn74 2.163 . S
O73 C87 1.244 . S
Mn74 O73 2.163 . S
Mn74 O77 2.160 1_554 S
Mn74 O78 2.221 . S
Mn74 O80 2.163 1_554 S
Mn74 O82 2.160 . S
Mn74 O92 2.221 . S
O75 Mn76 2.087 . S
O75 C87 1.256 . S
Mn76 O75 2.087 . S
Mn76 O83 2.089 . S
Mn76 O92 2.290 . S
Mn76 O93 2.251 . S
O77 Mn74 2.160 1_556 S
O77 C88 1.239 . S
O78 Mn74 2.221 . S
O78 Mn79 2.290 1_554 S
O78 C89 1.278 . S
Mn79 O78 2.290 1_556 S
Mn79 O81 2.089 . S
Mn79 O84 2.251 . S
Mn79 O85 2.087 . S
O80 Mn74 2.163 1_556 S
O80 C90 1.244 . S
O81 Mn79 2.089 . S
O81 C88 1.256 . S
O82 Mn74 2.160 . S
O82 C91 1.239 . S
O83 Mn76 2.089 . S
O83 C91 1.256 . S
O84 Mn79 2.251 . S
O84 C89 1.241 1_556 S
O85 Mn79 2.087 . S
O85 C90 1.256 . S
C86 O92 1.278 . S
C86 O93 1.241 . S
C87 O73 1.244 . S
C87 O75 1.256 . S
C88 O77 1.239 . S
C88 O81 1.256 . S
C89 O78 1.278 . S
C89 O84 1.241 1_554 S
C90 O80 1.244 . S
C90 O85 1.256 . S
C91 O82 1.239 . S
C91 O83 1.256 . S
O92 Mn74 2.221 . S
O92 Mn76 2.290 . S
O92 C86 1.278 . S
O93 Mn76 2.251 . S
O93 C86 1.241 . S
H94 C95 0.951 . S
C95 H94 0.951 . S
C95 C101 1.265 . S
H96 C101 0.950 . S
H97 C105 0.949 . S
H98 C106 0.950 . S
H99 C107 0.951 . S
H100 C108 0.951 . S
C101 C95 1.265 . S
C101 H96 0.950 . S
C101 C102 1.478 . S
C102 C101 1.478 . S
C102 C103 1.397 . S
C102 C119 1.394 . S
C103 C102 1.397 . S
C103 C104 1.438 . S
C103 C108 1.429 . S
C104 C103 1.438 . S
C104 C105 1.428 . S
C104 C117 1.394 . S
C105 H97 0.949 . S
C105 C104 1.428 . S
C105 C106 1.345 . S
C106 H98 0.950 . S
C106 C105 1.345 . S
C106 C107 1.424 . S
C107 H99 0.951 . S
C107 C106 1.424 . S
C107 C108 1.347 . S
C108 H100 0.951 . S
C108 C103 1.429 . S
C108 C107 1.347 . S
H109 C110 0.951 . S
C110 H109 0.951 . S
C110 C116 1.265 . S
H111 C116 0.950 . S
H112 C120 0.949 . S
H113 C121 0.950 . S
H114 C122 0.951 . S
H115 C123 0.951 . S
C116 C110 1.265 . S
C116 H111 0.950 . S
C116 C117 1.478 . S
C117 C104 1.394 . S
C117 C116 1.478 . S
C117 C118 1.397 . S
C118 C117 1.397 . S
C118 C119 1.438 . S
C118 C123 1.429 . S
C119 C102 1.394 . S
C119 C118 1.438 . S
C119 C120 1.428 . S
C120 H112 0.949 . S
C120 C119 1.428 . S
C120 C121 1.345 . S
C121 H113 0.950 . S
C121 C120 1.345 . S
C121 C122 1.424 . S
C122 H114 0.951 . S
C122 C121 1.424 . S
C122 C123 1.347 . S
C123 H115 0.951 . S
C123 C118 1.429 . S
C123 C122 1.347 . S
H124 C125 0.951 . S
C125 H124 0.951 . S
C125 C131 1.265 . S
H126 C131 0.950 . S
H127 C135 0.949 . S
H128 C136 0.950 . S
H129 C137 0.951 . S
H130 C138 0.951 . S
C131 C125 1.265 . S
C131 H126 0.950 . S
C131 C132 1.478 . S
C132 C131 1.478 . S
C132 C133 1.397 . S
C132 C149 1.394 . S
C133 C132 1.397 . S
C133 C134 1.438 . S
C133 C138 1.429 1_554 S
C134 C133 1.438 . S
C134 C135 1.428 1_554 S
C134 C147 1.394 . S
C135 H127 0.949 . S
C135 C134 1.428 1_556 S
C135 C136 1.345 . S
C136 H128 0.950 . S
C136 C135 1.345 . S
C136 C137 1.424 . S
C137 H129 0.951 . S
C137 C136 1.424 . S
C137 C138 1.347 . S
C138 H130 0.951 . S
C138 C133 1.429 1_556 S
C138 C137 1.347 . S
H139 C140 0.951 . S
C140 H139 0.951 . S
C140 C146 1.265 . S
H141 C146 0.950 . S
H142 C150 0.949 . S
H143 C151 0.950 . S
H144 C152 0.951 . S
H145 C153 0.951 . S
C146 C140 1.265 . S
C146 H141 0.950 . S
C146 C147 1.478 . S
C147 C134 1.394 . S
C147 C146 1.478 . S
C147 C148 1.397 . S
C148 C147 1.397 . S
C148 C149 1.438 . S
C148 C153 1.429 . S
C149 C132 1.394 . S
C149 C148 1.438 . S
C149 C150 1.428 . S
C150 H142 0.949 . S
C150 C149 1.428 . S
C150 C151 1.345 . S
C151 H143 0.950 . S
C151 C150 1.345 . S
C151 C152 1.424 . S
C152 H144 0.951 . S
C152 C151 1.424 . S
C152 C153 1.347 . S
C153 H145 0.951 . S
C153 C148 1.429 . S
C153 C152 1.347 . S
H154 C155 0.951 . S
C155 H154 0.951 . S
C155 C161 1.265 . S
H156 C161 0.950 . S
H157 C165 0.949 . S
H158 C166 0.950 . S
H159 C167 0.951 . S
H160 C168 0.951 . S
C161 C155 1.265 . S
C161 H156 0.950 . S
C161 C162 1.478 . S
C162 C161 1.478 . S
C162 C163 1.397 . S
C162 C179 1.394 . S
C163 C162 1.397 . S
C163 C164 1.438 . S
C163 C168 1.429 . S
C164 C163 1.438 . S
C164 C165 1.428 . S
C164 C177 1.394 . S
C165 H157 0.949 . S
C165 C164 1.428 . S
C165 C166 1.345 . S
C166 H158 0.950 . S
C166 C165 1.345 . S
C166 C167 1.424 . S
C167 H159 0.951 . S
C167 C166 1.424 . S
C167 C168 1.347 . S
C168 H160 0.951 . S
C168 C163 1.429 . S
C168 C167 1.347 . S
H169 C170 0.951 . S
C170 H169 0.951 . S
C170 C176 1.265 . S
H171 C176 0.950 . S
H172 C180 0.949 . S
H173 C181 0.950 . S
H174 C182 0.951 . S
H175 C183 0.951 . S
C176 C170 1.265 . S
C176 H171 0.950 . S
C176 C177 1.478 . S
C177 C164 1.394 . S
C177 C176 1.478 . S
C177 C178 1.397 . S
C178 C177 1.397 . S
C178 C179 1.438 . S
C178 C183 1.429 . S
C179 C162 1.394 . S
C179 C178 1.438 . S
C179 C180 1.428 . S
C180 H172 0.949 . S
C180 C179 1.428 . S
C180 C181 1.345 . S
C181 H173 0.950 . S
C181 C180 1.345 . S
C181 C182 1.424 . S
C182 H174 0.951 . S
C182 C181 1.424 . S
C182 C183 1.347 . S
C183 H175 0.951 . S
C183 C178 1.429 . S
C183 C182 1.347 . S
H184 C185 0.951 . S
C185 H184 0.951 . S
C185 C191 1.265 1_556 S
H186 C191 0.950 . S
H187 C195 0.949 . S
H188 C196 0.950 . S
H189 C197 0.951 . S
H190 C198 0.951 . S
C191 C185 1.265 1_554 S
C191 H186 0.950 . S
C191 C192 1.478 . S
C192 C191 1.478 . S
C192 C193 1.397 . S
C192 C209 1.394 1_554 S
C193 C192 1.397 . S
C193 C194 1.438 . S
C193 C198 1.429 . S
C194 C193 1.438 . S
C194 C195 1.428 . S
C194 C207 1.394 . S
C195 H187 0.949 . S
C195 C194 1.428 . S
C195 C196 1.345 . S
C196 H188 0.950 . S
C196 C195 1.345 . S
C196 C197 1.424 . S
C197 H189 0.951 . S
C197 C196 1.424 . S
C197 C198 1.347 . S
C198 H190 0.951 . S
C198 C193 1.429 . S
C198 C197 1.347 . S
H199 C200 0.951 . S
C200 H199 0.951 . S
C200 C206 1.265 . S
H201 C206 0.953 . S
H202 C210 0.949 . S
H203 C211 0.950 . S
H204 C212 0.951 . S
H205 C213 0.951 . S
C206 C200 1.265 . S
C206 H201 0.953 . S
C206 C207 1.478 . S
C207 C194 1.394 . S
C207 C206 1.478 . S
C207 C208 1.397 1_554 S
C208 C207 1.397 1_556 S
C208 C209 1.438 . S
C208 C213 1.429 . S
C209 C192 1.394 1_556 S
C209 C208 1.438 . S
C209 C210 1.428 . S
C210 H202 0.949 . S
C210 C209 1.428 . S
C210 C211 1.345 . S
C211 H203 0.950 . S
C211 C210 1.345 . S
C211 C212 1.424 . S
C212 H204 0.951 . S
C212 C211 1.424 . S
C212 C213 1.347 . S
C213 H205 0.951 . S
C213 C208 1.429 . S
C213 C212 1.347 . S
H214 C215 0.951 . S
C215 H214 0.951 . S
C215 C221 1.265 . S
H216 C221 0.950 . S
H217 C225 0.949 . S
H218 C226 0.950 . S
H219 C227 0.951 . S
H220 C228 0.951 . S
C221 C215 1.265 . S
C221 H216 0.950 . S
C221 C222 1.478 . S
C222 C221 1.478 . S
C222 C223 1.397 . S
C222 C239 1.394 . S
C223 C222 1.397 . S
C223 C224 1.438 . S
C223 C228 1.429 . S
C224 C223 1.438 . S
C224 C225 1.428 . S
C224 C237 1.394 . S
C225 H217 0.949 . S
C225 C224 1.428 . S
C225 C226 1.345 . S
C226 H218 0.950 . S
C226 C225 1.345 . S
C226 C227 1.424 . S
C227 H219 0.951 . S
C227 C226 1.424 . S
C227 C228 1.347 . S
C228 H220 0.951 . S
C228 C223 1.429 . S
C228 C227 1.347 . S
H229 C230 0.951 . S
C230 H229 0.951 . S
C230 C236 1.265 . S
H231 C236 0.950 . S
H232 C240 0.949 . S
H233 C241 0.950 . S
H234 C242 0.951 . S
H235 C243 0.951 . S
C236 C230 1.265 . S
C236 H231 0.950 . S
C236 C237 1.478 . S
C237 C224 1.394 . S
C237 C236 1.478 . S
C237 C238 1.397 . S
C238 C237 1.397 . S
C238 C239 1.438 . S
C238 C243 1.429 . S
C239 C222 1.394 . S
C239 C238 1.438 . S
C239 C240 1.428 . S
C240 H232 0.949 . S
C240 C239 1.428 . S
C240 C241 1.345 . S
C241 H233 0.950 . S
C241 C240 1.345 . S
C241 C242 1.424 . S
C242 H234 0.951 . S
C242 C241 1.424 . S
C242 C243 1.347 . S
C243 H235 0.951 . S
C243 C238 1.429 . S
C243 C242 1.347 . S
H244 C245 0.951 . S
C245 H244 0.951 . S
C245 C251 1.265 . S
H246 C251 0.950 . S
H247 C255 0.949 . S
H248 C256 0.950 . S
H249 C257 0.951 . S
H250 C258 0.951 . S
C251 C245 1.265 . S
C251 H246 0.950 . S
C251 C252 1.478 . S
C252 C251 1.478 . S
C252 C253 1.397 . S
C252 C269 1.394 . S
C253 C252 1.397 . S
C253 C254 1.438 . S
C253 C258 1.429 . S
C254 C253 1.438 . S
C254 C255 1.428 . S
C254 C267 1.394 . S
C255 H247 0.949 . S
C255 C254 1.428 . S
C255 C256 1.345 . S
C256 H248 0.950 . S
C256 C255 1.345 . S
C256 C257 1.424 . S
C257 H249 0.951 . S
C257 C256 1.424 . S
C257 C258 1.347 . S
C258 H250 0.951 . S
C258 C253 1.429 . S
C258 C257 1.347 . S
H259 C260 0.951 . S
C260 H259 0.951 . S
C260 C266 1.265 . S
H261 C266 0.950 . S
H262 C270 0.949 . S
H263 C271 0.950 . S
H264 C272 0.951 . S
H265 C273 0.951 . S
C266 C260 1.265 . S
C266 H261 0.950 . S
C266 C267 1.478 . S
C267 C254 1.394 . S
C267 C266 1.478 . S
C267 C268 1.397 . S
C268 C267 1.397 . S
C268 C269 1.438 . S
C268 C273 1.429 . S
C269 C252 1.394 . S
C269 C268 1.438 . S
C269 C270 1.428 . S
C270 H262 0.949 . S
C270 C269 1.428 . S
C270 C271 1.345 . S
C271 H263 0.950 . S
C271 C270 1.345 . S
C271 C272 1.424 . S
C272 H264 0.951 . S
C272 C271 1.424 . S
C272 C273 1.347 . S
C273 H265 0.951 . S
C273 C268 1.429 . S
C273 C272 1.347 . S
H274 C275 0.951 . S
C275 H274 0.951 . S
C275 C281 1.265 . S
H276 C281 0.950 . S
H277 C285 0.949 . S
H278 C286 0.950 . S
H279 C287 0.951 . S
H280 C288 0.951 . S
C281 C275 1.265 . S
C281 H276 0.950 . S
C281 C282 1.478 . S
C282 C281 1.478 . S
C282 C283 1.397 . S
C282 C299 1.394 . S
C283 C282 1.397 . S
C283 C284 1.438 . S
C283 C288 1.429 . S
C284 C283 1.438 . S
C284 C285 1.428 . S
C284 C297 1.394 . S
C285 H277 0.949 . S
C285 C284 1.428 . S
C285 C286 1.345 . S
C286 H278 0.950 . S
C286 C285 1.345 . S
C286 C287 1.424 . S
C287 H279 0.951 . S
C287 C286 1.424 . S
C287 C288 1.347 . S
C288 H280 0.951 . S
C288 C283 1.429 . S
C288 C287 1.347 . S
H289 C290 0.951 . S
C290 H289 0.951 . S
C290 C296 1.265 . S
H291 C296 0.950 . S
H292 C300 0.949 . S
H293 C301 0.950 . S
H294 C302 0.951 . S
H295 C303 0.951 . S
C296 C290 1.265 . S
C296 H291 0.950 . S
C296 C297 1.478 . S
C297 C284 1.394 . S
C297 C296 1.478 . S
C297 C298 1.397 . S
C298 C297 1.397 . S
C298 C299 1.438 . S
C298 C303 1.429 . S
C299 C282 1.394 . S
C299 C298 1.438 . S
C299 C300 1.428 . S
C300 H292 0.949 . S
C300 C299 1.428 . S
C300 C301 1.345 . S
C301 H293 0.950 . S
C301 C300 1.345 . S
C301 C302 1.424 . S
C302 H294 0.951 . S
C302 C301 1.424 . S
C302 C303 1.347 . S
C303 H295 0.951 . S
C303 C298 1.429 . S
C303 C302 1.347 . S
H304 C305 0.951 . S
C305 H304 0.951 . S
C305 C311 1.265 . S
H306 C311 0.950 . S
H307 C315 0.949 . S
H308 C316 0.950 . S
H309 C317 0.951 . S
H310 C318 0.951 . S
C311 C305 1.265 . S
C311 H306 0.950 . S
C311 C312 1.478 . S
C312 C311 1.478 . S
C312 C313 1.397 . S
C312 C329 1.394 . S
C313 C312 1.397 . S
C313 C314 1.438 . S
C313 C318 1.429 . S
C314 C313 1.438 . S
C314 C315 1.428 . S
C314 C327 1.394 . S
C315 H307 0.949 . S
C315 C314 1.428 . S
C315 C316 1.345 . S
C316 H308 0.950 . S
C316 C315 1.345 . S
C316 C317 1.424 . S
C317 H309 0.951 . S
C317 C316 1.424 . S
C317 C318 1.347 . S
C318 H310 0.951 . S
C318 C313 1.429 . S
C318 C317 1.347 . S
H319 C320 0.951 . S
C320 H319 0.951 . S
C320 C326 1.265 . S
H321 C326 0.950 . S
H322 C330 0.949 . S
H323 C331 0.950 . S
H324 C332 0.951 . S
H325 C333 0.951 . S
C326 C320 1.265 . S
C326 H321 0.950 . S
C326 C327 1.478 . S
C327 C314 1.394 . S
C327 C326 1.478 . S
C327 C328 1.397 . S
C328 C327 1.397 . S
C328 C329 1.438 . S
C328 C333 1.429 . S
C329 C312 1.394 . S
C329 C328 1.438 . S
C329 C330 1.428 . S
C330 H322 0.949 . S
C330 C329 1.428 . S
C330 C331 1.345 . S
C331 H323 0.950 . S
C331 C330 1.345 . S
C331 C332 1.424 . S
C332 H324 0.951 . S
C332 C331 1.424 . S
C332 C333 1.347 . S
C333 H325 0.951 . S
C333 C328 1.429 . S
C333 C332 1.347 . S
H334 C335 0.951 . S
C335 H334 0.951 . S
C335 C341 1.265 . S
H336 C341 0.950 . S
H337 C345 0.949 . S
H338 C346 0.950 . S
H339 C347 0.951 . S
H340 C348 0.951 . S
C341 C335 1.265 . S
C341 H336 0.950 . S
C341 C342 1.478 . S
C342 C341 1.478 . S
C342 C343 1.397 . S
C342 C359 1.394 . S
C343 C342 1.397 . S
C343 C344 1.438 . S
C343 C348 1.429 . S
C344 C343 1.438 . S
C344 C345 1.428 . S
C344 C357 1.394 . S
C345 H337 0.949 . S
C345 C344 1.428 . S
C345 C346 1.345 . S
C346 H338 0.950 . S
C346 C345 1.345 . S
C346 C347 1.424 . S
C347 H339 0.951 . S
C347 C346 1.424 . S
C347 C348 1.347 . S
C348 H340 0.951 . S
C348 C343 1.429 . S
C348 C347 1.347 . S
H349 C350 0.951 . S
C350 H349 0.951 . S
C350 C356 1.265 . S
H351 C356 0.950 . S
H352 C360 0.949 . S
H353 C361 0.950 . S
H354 C362 0.951 . S
H355 C363 0.951 . S
C356 C350 1.265 . S
C356 H351 0.950 . S
C356 C357 1.478 . S
C357 C344 1.394 . S
C357 C356 1.478 . S
C357 C358 1.397 . S
C358 C357 1.397 . S
C358 C359 1.438 . S
C358 C363 1.429 . S
C359 C342 1.394 . S
C359 C358 1.438 . S
C359 C360 1.428 . S
C360 H352 0.949 . S
C360 C359 1.428 . S
C360 C361 1.345 . S
C361 H353 0.950 . S
C361 C360 1.345 . S
C361 C362 1.424 . S
C362 H354 0.951 . S
C362 C361 1.424 . S
C362 C363 1.347 . S
C363 H355 0.951 . S
C363 C358 1.429 . S
C363 C362 1.347 . S
H364 C365 0.951 . S
C365 H364 0.951 . S
C365 C371 1.265 . S
H366 C371 0.950 . S
H367 C375 0.949 . S
H368 C376 0.950 . S
H369 C377 0.951 . S
H370 C378 0.951 . S
C371 C365 1.265 . S
C371 H366 0.950 . S
C371 C372 1.478 . S
C372 C371 1.478 . S
C372 C373 1.397 . S
C372 C389 1.394 . S
C373 C372 1.397 . S
C373 C374 1.438 . S
C373 C378 1.429 . S
C374 C373 1.438 . S
C374 C375 1.428 . S
C374 C387 1.394 . S
C375 H367 0.949 . S
C375 C374 1.428 . S
C375 C376 1.345 . S
C376 H368 0.950 . S
C376 C375 1.345 . S
C376 C377 1.424 . S
C377 H369 0.951 . S
C377 C376 1.424 . S
C377 C378 1.347 . S
C378 H370 0.951 . S
C378 C373 1.429 . S
C378 C377 1.347 . S
H379 C380 0.951 . S
C380 H379 0.951 . S
C380 C386 1.265 . S
H381 C386 0.950 . S
H382 C390 0.949 . S
H383 C391 0.950 1_554 S
H384 C392 0.951 . S
H385 C393 0.951 . S
C386 C380 1.265 . S
C386 H381 0.950 . S
C386 C387 1.478 . S
C387 C374 1.394 . S
C387 C386 1.478 . S
C387 C388 1.397 . S
C388 C387 1.397 . S
C388 C389 1.438 . S
C388 C393 1.429 . S
C389 C372 1.394 . S
C389 C388 1.438 . S
C389 C390 1.428 . S
C390 H382 0.949 . S
C390 C389 1.428 . S
C390 C391 1.345 . S
C391 H383 0.950 1_556 S
C391 C390 1.345 . S
C391 C392 1.424 . S
C392 H384 0.951 . S
C392 C391 1.424 . S
C392 C393 1.347 . S
C393 H385 0.951 . S
C393 C388 1.429 . S
C393 C392 1.347 . S
H394 C395 0.951 . S
C395 H394 0.951 . S
C395 C401 1.265 . S
H396 C401 0.950 . S
H397 C405 0.949 . S
H398 C406 0.950 . S
H399 C407 0.951 . S
H400 C408 0.951 . S
C401 C395 1.265 . S
C401 H396 0.950 . S
C401 C402 1.478 . S
C402 C401 1.478 . S
C402 C403 1.397 . S
C402 C419 1.394 . S
C403 C402 1.397 . S
C403 C404 1.438 . S
C403 C408 1.429 . S
C404 C403 1.438 . S
C404 C405 1.428 . S
C404 C417 1.394 . S
C405 H397 0.949 . S
C405 C404 1.428 . S
C405 C406 1.345 . S
C406 H398 0.950 . S
C406 C405 1.345 . S
C406 C407 1.424 . S
C407 H399 0.951 . S
C407 C406 1.424 . S
C407 C408 1.347 . S
C408 H400 0.951 . S
C408 C403 1.429 . S
C408 C407 1.347 . S
H409 C410 0.951 . S
C410 H409 0.951 . S
C410 C416 1.265 . S
H411 C416 0.950 . S
H412 C420 0.949 . S
H413 C421 0.950 . S
H414 C422 0.951 . S
H415 C423 0.951 . S
C416 C410 1.265 . S
C416 H411 0.950 . S
C416 C417 1.478 . S
C417 C404 1.394 . S
C417 C416 1.478 . S
C417 C418 1.397 . S
C418 C417 1.397 . S
C418 C419 1.438 . S
C418 C423 1.429 . S
C419 C402 1.394 . S
C419 C418 1.438 . S
C419 C420 1.428 . S
C420 H412 0.949 . S
C420 C419 1.428 . S
C420 C421 1.345 . S
C421 H413 0.950 . S
C421 C420 1.345 . S
C421 C422 1.424 . S
C422 H414 0.951 . S
C422 C421 1.424 . S
C422 C423 1.347 . S
C423 H415 0.951 . S
C423 C418 1.429 . S
C423 C422 1.347 . S
H424 C425 0.951 . S
C425 H424 0.951 . S
C425 C431 1.265 . S
H426 C431 0.950 1_554 S
H427 C435 0.949 . S
H428 C436 0.950 . S
H429 C437 0.951 1_545 S
H430 C438 0.951 . S
C431 C425 1.265 . S
C431 H426 0.950 1_556 S
C431 C432 1.478 . S
C432 C431 1.478 . S
C432 C433 1.397 . S
C432 C449 1.394 . S
C433 C432 1.397 . S
C433 C434 1.438 . S
C433 C438 1.429 . S
C434 C433 1.438 . S
C434 C435 1.428 . S
C434 C447 1.394 . S
C435 H427 0.949 . S
C435 C434 1.428 . S
C435 C436 1.345 1_565 S
C436 H428 0.950 . S
C436 C435 1.345 1_545 S
C436 C437 1.424 1_545 S
C437 H429 0.951 1_565 S
C437 C436 1.424 1_565 S
C437 C438 1.347 . S
C438 H430 0.951 . S
C438 C433 1.429 . S
C438 C437 1.347 . S
H439 C440 0.951 . S
C440 H439 0.951 . S
C440 C446 1.265 . S
H441 C446 0.950 . S
H442 C450 0.949 . S
H443 C451 0.950 . S
H444 C452 0.951 . S
H445 C453 0.951 . S
C446 C440 1.265 . S
C446 H441 0.950 . S
C446 C447 1.478 . S
C447 C434 1.394 . S
C447 C446 1.478 . S
C447 C448 1.397 . S
C448 C447 1.397 . S
C448 C449 1.438 . S
C448 C453 1.429 . S
C449 C432 1.394 . S
C449 C448 1.438 . S
C449 C450 1.428 . S
C450 H442 0.949 . S
C450 C449 1.428 . S
C450 C451 1.345 . S
C451 H443 0.950 . S
C451 C450 1.345 . S
C451 C452 1.424 . S
C452 H444 0.951 . S
C452 C451 1.424 . S
C452 C453 1.347 . S
C453 H445 0.951 . S
C453 C448 1.429 . S
C453 C452 1.347 . S
C110 C68 1.276 . S
C95 N41 1.443 . S
C125 N2 1.451 . S
C140 C89 1.248 . S
C155 N15 1.606 . S
C170 C65 1.391 . S
C185 N28 1.604 1_556 S
C200 C86 1.371 . S
C230 C70 1.453 . S
C215 N5 1.498 . S
C260 C90 1.557 . S
C245 N14 1.577 . S
C275 N27 1.546 . S
C290 C66 1.542 . S
C305 N44 1.468 . S
C320 C88 1.449 . S
C350 C87 1.487 . S
C335 N18 1.555 . S
C380 C69 1.556 . S
C365 N31 1.574 . S
C410 C91 1.474 . S
C395 N40 1.463 . S
C425 N1 1.459 1_556 S
C440 C67 1.423 . S
