# Generated by pormake.
# Topology zzz, (3,6)-cn, num edge types: 1
# Building blocks:
#     Node 0, Type 0, BuildingBlock: BETDIP_clean_linker_0, # of connection points: 3
#     Node 1, Type 0, BuildingBlock: BETDIP_clean_linker_0, # of connection points: 3
#     Node 2, Type 0, BuildingBlock: BETDIP_clean_linker_0, # of connection points: 3
#     Node 3, Type 0, BuildingBlock: BETDIP_clean_linker_0, # of connection points: 3
#     Node 4, Type 0, BuildingBlock: BETDIP_clean_linker_0, # of connection points: 3
#     Node 5, Type 0, BuildingBlock: BETDIP_clean_linker_0, # of connection points: 3
#     Node 6, Type 0, BuildingBlock: BETDIP_clean_linker_0, # of connection points: 3
#     Node 7, Type 0, BuildingBlock: BETDIP_clean_linker_0, # of connection points: 3
#     Node 8, Type 1, BuildingBlock: NUHQIS_clean_sbu_0, # of connection points: 6
#     Node 9, Type 1, BuildingBlock: NUHQIS_clean_sbu_0, # of connection points: 6
#     Node 10, Type 1, BuildingBlock: NUHQIS_clean_sbu_0, # of connection points: 6
#     Node 11, Type 1, BuildingBlock: NUHQIS_clean_sbu_0, # of connection points: 6
#     Edge 12, Type (0, 1), BuildingBlock: OJICUG_clean_linker_0, # of connection points: 2
#     Edge 13, Type (0, 1), BuildingBlock: OJICUG_clean_linker_0, # of connection points: 2
#     Edge 14, Type (0, 1), BuildingBlock: OJICUG_clean_linker_0, # of connection points: 2
#     Edge 15, Type (0, 1), BuildingBlock: OJICUG_clean_linker_0, # of connection points: 2
#     Edge 16, Type (0, 1), BuildingBlock: OJICUG_clean_linker_0, # of connection points: 2
#     Edge 17, Type (0, 1), BuildingBlock: OJICUG_clean_linker_0, # of connection points: 2
#     Edge 18, Type (0, 1), BuildingBlock: OJICUG_clean_linker_0, # of connection points: 2
#     Edge 19, Type (0, 1), BuildingBlock: OJICUG_clean_linker_0, # of connection points: 2
#     Edge 20, Type (0, 1), BuildingBlock: OJICUG_clean_linker_0, # of connection points: 2
#     Edge 21, Type (0, 1), BuildingBlock: OJICUG_clean_linker_0, # of connection points: 2
#     Edge 22, Type (0, 1), BuildingBlock: OJICUG_clean_linker_0, # of connection points: 2
#     Edge 23, Type (0, 1), BuildingBlock: OJICUG_clean_linker_0, # of connection points: 2
#     Edge 24, Type (0, 1), BuildingBlock: OJICUG_clean_linker_0, # of connection points: 2
#     Edge 25, Type (0, 1), BuildingBlock: OJICUG_clean_linker_0, # of connection points: 2
#     Edge 26, Type (0, 1), BuildingBlock: OJICUG_clean_linker_0, # of connection points: 2
#     Edge 27, Type (0, 1), BuildingBlock: OJICUG_clean_linker_0, # of connection points: 2
#     Edge 28, Type (0, 1), BuildingBlock: OJICUG_clean_linker_0, # of connection points: 2
#     Edge 29, Type (0, 1), BuildingBlock: OJICUG_clean_linker_0, # of connection points: 2
#     Edge 30, Type (0, 1), BuildingBlock: OJICUG_clean_linker_0, # of connection points: 2
#     Edge 31, Type (0, 1), BuildingBlock: OJICUG_clean_linker_0, # of connection points: 2
#     Edge 32, Type (0, 1), BuildingBlock: OJICUG_clean_linker_0, # of connection points: 2
#     Edge 33, Type (0, 1), BuildingBlock: OJICUG_clean_linker_0, # of connection points: 2
#     Edge 34, Type (0, 1), BuildingBlock: OJICUG_clean_linker_0, # of connection points: 2
#     Edge 35, Type (0, 1), BuildingBlock: OJICUG_clean_linker_0, # of connection points: 2
# Relax obj value: 0.347
# Max RMSD: 0.178
# Mean RMSD: 0.137
data_MOF--net-zzz--node1-NUHQIS_clean_sbu_0--node2-BETDIP_clean_linker_0--edge1-OJICUG_clean_linker_0
_symmetry_space_group_name_H-M    P1
_symmetry_Int_Tables_number       1
_symmetry_cell_setting            triclinic
loop_
_symmetry_equiv_pos_as_xyz
'x, y, z'
_cell_length_a     37.799879
_cell_length_b     37.800216
_cell_length_c     10.299468
_cell_angle_alpha  89.870528
_cell_angle_beta   89.953057
_cell_angle_gamma 89.999957
loop_
_atom_site_label
_atom_site_type_symbol
_atom_site_fract_x
_atom_site_fract_y
_atom_site_fract_z
_atom_type_partial_charge
H0 H 0.78298 0.54832 0.53269 0.0
H1 H 0.75015 0.45669 0.31464 0.0
H2 H 0.84448 0.45298 0.54556 0.0
H3 H 0.74807 0.51205 0.16845 0.0
C4 C 0.72645 0.52104 0.22994 0.0
C5 C 0.78614 0.52064 0.5084 0.0
C6 C 0.81588 0.50164 0.5552 0.0
C7 C 0.76165 0.50413 0.42347 0.0
C8 C 0.76761 0.46892 0.38487 0.0
C9 C 0.79754 0.45037 0.42726 0.0
C10 C 0.82031 0.46642 0.5172 0.0
N11 N 0.73303 0.5235 0.36634 0.0
H12 H 1.00627 0.78327 0.5322 0.0
H13 H 0.09809 0.75009 0.315 0.0
H14 H 0.10182 0.84441 0.54549 0.0
H15 H 0.04293 0.74827 0.16834 0.0
C16 C 0.03378 0.72666 0.22977 0.0
C17 C 0.03399 0.78633 0.50809 0.0
C18 C 0.05305 0.81599 0.55495 0.0
C19 C 0.05053 0.76176 0.42338 0.0
C20 C 0.08582 0.7676 0.38506 0.0
C21 C 0.10442 0.79747 0.42739 0.0
C22 C 0.08833 0.82029 0.51714 0.0
N23 N 0.03114 0.73322 0.36615 0.0
H24 H 0.77182 1.00657 0.53431 0.0
H25 H 0.80458 0.09801 0.31336 0.0
H26 H 0.71015 0.10181 0.54428 0.0
H27 H 0.80651 0.04216 0.16903 0.0
C28 C 0.82822 0.03344 0.23063 0.0
C29 C 0.76863 0.03422 0.50922 0.0
C30 C 0.73885 0.05322 0.55538 0.0
C31 C 0.79313 0.05069 0.42381 0.0
C32 C 0.78712 0.08584 0.38406 0.0
C33 C 0.75714 0.10439 0.4259 0.0
C34 C 0.73436 0.08839 0.51634 0.0
N35 N 0.82177 0.0313 0.36723 0.0
H36 H 0.54777 0.77208 0.53542 0.0
H37 H 0.45632 0.8048 0.31538 0.0
H38 H 0.45248 0.71051 0.54762 0.0
H39 H 0.5121 0.80649 0.17022 0.0
C40 C 0.52094 0.82822 0.23132 0.0
C41 C 0.5201 0.76891 0.51083 0.0
C42 C 0.50109 0.73918 0.55767 0.0
C43 C 0.50364 0.79336 0.42535 0.0
C44 C 0.46847 0.78737 0.38617 0.0
C45 C 0.44991 0.75742 0.42861 0.0
C46 C 0.4659 0.7347 0.51921 0.0
N47 N 0.52309 0.82189 0.36799 0.0
H48 H 0.26722 0.51598 0.13512 0.0
H49 H 0.2981 0.60537 0.37057 0.0
H50 H 0.20318 0.60995 0.14578 0.0
H51 H 0.35309 0.58759 0.30293 0.0
C52 C 0.35096 0.55979 0.32864 0.0
C53 C 0.26298 0.54285 0.16781 0.0
C54 C 0.23242 0.56166 0.12681 0.0
C55 C 0.28827 0.5593 0.25034 0.0
C56 C 0.2811 0.59353 0.29808 0.0
C57 C 0.25088 0.61201 0.25922 0.0
C58 C 0.22746 0.59626 0.17126 0.0
N59 N 0.31966 0.541 0.29134 0.0
H60 H 0.03982 0.26736 0.13464 0.0
H61 H 0.95058 0.29871 0.37088 0.0
H62 H 0.94565 0.20362 0.14773 0.0
H63 H 0.96852 0.35365 0.3008 0.0
C64 C 0.99626 0.35144 0.32697 0.0
C65 C 1.01294 0.26322 0.16782 0.0
C66 C 0.99403 0.23268 0.12753 0.0
C67 C 0.9966 0.28863 0.25023 0.0
C68 C 0.96235 0.28161 0.29854 0.0
C69 C 0.94378 0.2514 0.26044 0.0
C70 C 0.95943 0.22787 0.17263 0.0
N71 N 1.01497 0.32001 0.29056 0.0
H72 H 0.28727 0.03905 0.13256 0.0
H73 H 0.25617 0.94999 0.37092 0.0
H74 H 0.35131 0.94511 0.14693 0.0
H75 H 0.20121 0.96771 0.30093 0.0
C76 C 0.20334 0.99549 0.32633 0.0
C77 C 0.29149 1.01222 0.16622 0.0
C78 C 0.32207 0.99336 0.12607 0.0
C79 C 0.26613 0.99589 0.24915 0.0
C80 C 0.27325 0.96172 0.29815 0.0
C81 C 0.30351 0.94319 0.26014 0.0
C82 C 0.327 0.95883 0.17178 0.0
N83 N 0.23471 1.01424 0.28925 0.0
H84 H 0.51543 0.28722 0.13227 0.0
H85 H 0.60446 0.25623 0.37013 0.0
H86 H 0.60912 0.3516 0.1468 0.0
H87 H 0.58698 0.20126 0.29934 0.0
C88 C 0.55918 0.20328 0.32505 0.0
C89 C 0.54222 0.29151 0.16588 0.0
C90 C 0.56099 0.32219 0.12594 0.0
C91 C 0.5586 0.26615 0.24856 0.0
C92 C 0.59271 0.27334 0.29754 0.0
C93 C 0.61115 0.30371 0.25969 0.0
C94 C 0.59548 0.32722 0.17154 0.0
N95 N 0.54035 0.23462 0.28842 0.0
Tb96 Tb 0.04719 1.0179 0.94311 0.0
Eu97 Eu 1.00174 0.03663 0.68241 0.0
C98 C 0.08578 1.02594 0.67043 0.0
C99 C 1.02303 0.09742 0.88821 0.0
C100 C 0.1109 0.97445 0.16337 0.0
C101 C 0.14887 0.92652 0.09012 0.0
C102 C 0.13009 0.95765 0.06406 0.0
C103 C 0.11236 0.96105 0.28969 0.0
C104 C 0.13128 0.93027 0.31603 0.0
C105 C 0.14869 0.9119 0.21572 0.0
C106 C 0.08591 1.00313 0.1349 0.0
O107 O 0.99382 0.02761 0.02015 0.0
O108 O 0.96187 1.02008 0.83312 0.0
O109 O 1.0171 0.97935 0.65729 0.0
O110 O 0.03137 0.96559 0.86867 0.0
C111 C 0.96345 1.0231 0.95989 0.0
O112 O 0.95644 1.02629 0.55665 0.0
O113 O 0.99337 0.06802 0.50752 0.0
O114 O 0.05918 0.04485 0.62674 0.0
O115 O 0.08297 1.0081 0.77973 0.0
O116 O 0.04766 0.07606 0.93359 0.0
O117 O 0.99924 0.08606 0.80522 0.0
C118 C 1.02403 0.95591 0.7484 0.0
O119 O 0.09494 1.02526 0.04349 0.0
O120 O 0.05295 0.99337 0.12478 0.0
C121 C 0.93368 0.07871 0.46448 0.0
C122 C 0.89075 0.139 0.43736 0.0
C123 C 0.90699 0.12342 0.3282 0.0
C124 C 0.9288 0.09403 0.34236 0.0
C125 C 0.91443 0.09152 0.57127 0.0
C126 C 0.89301 0.12151 0.55775 0.0
C127 C 0.9628 0.05357 0.48267 0.0
H128 H 0.16157 0.91269 1.01077 0.0
H129 H 0.12893 0.96741 0.96519 0.0
H130 H 0.09727 0.97334 0.36687 0.0
H131 H 0.1297 0.91936 0.41323 0.0
H132 H 0.90653 0.1363 0.23415 0.0
H133 H 0.944 0.08505 0.25959 0.0
H134 H 0.91813 0.08011 0.6669 0.0
H135 H 0.88098 0.1329 0.6435 0.0
Tb136 Tb 0.53666 0.04701 0.94199 0.0
Eu137 Eu 0.51832 1.00151 0.68135 0.0
C138 C 0.52887 0.08555 0.66928 0.0
C139 C 0.4573 1.02273 0.88661 0.0
C140 C 0.57996 0.11069 0.1615 0.0
C141 C 0.62807 0.14845 0.08757 0.0
C142 C 0.59688 0.12978 0.0619 0.0
C143 C 0.59334 0.11212 0.28771 0.0
C144 C 0.62418 0.13095 0.31368 0.0
C145 C 0.64264 0.14827 0.21309 0.0
C146 C 0.55122 0.08578 0.13342 0.0
O147 O 0.52692 0.99364 0.01921 0.0
O148 O 0.53471 0.96167 0.83238 0.0
O149 O 0.57562 1.01692 0.65669 0.0
O150 O 0.58903 0.03113 0.86821 0.0
C151 C 0.53155 0.96327 0.95913 0.0
O152 O 0.52873 0.95621 0.55583 0.0
O153 O 0.48714 0.99323 0.50628 0.0
O154 O 0.50996 0.05897 0.62584 0.0
O155 O 0.5467 0.0827 0.77834 0.0
O156 O 0.47853 0.04745 0.93173 0.0
O157 O 0.46883 0.99888 0.80418 0.0
C158 C 0.59889 1.02382 0.74807 0.0
O159 O 0.52922 0.09481 0.04178 0.0
O160 O 0.56088 0.05279 0.1239 0.0
C161 C 0.47633 0.93356 0.46377 0.0
C162 C 0.41603 0.89065 0.43725 0.0
C163 C 0.43353 0.89284 0.55743 0.0
C164 C 0.46353 0.91423 0.57064 0.0
C165 C 0.46096 0.92881 0.34187 0.0
C166 C 0.43156 0.90701 0.32798 0.0
C167 C 0.50153 0.96262 0.48174 0.0
H168 H 0.64199 0.16106 1.00801 0.0
H169 H 0.58716 0.12861 0.96309 0.0
H170 H 0.58099 0.09708 0.36508 0.0
H171 H 0.63505 0.12936 0.41081 0.0
H172 H 0.42215 0.88073 0.64327 0.0
H173 H 0.47497 0.91785 0.66613 0.0
H174 H 0.46991 0.9441 0.25907 0.0
H175 H 0.41866 0.90661 0.23414 0.0
Tb176 Tb 0.50738 0.5369 0.94392 0.0
Eu177 Eu 0.55279 0.51869 0.68256 0.0
C178 C 0.46873 0.52927 0.67167 0.0
C179 C 0.53157 0.45756 0.88784 0.0
C180 C 0.44378 0.58016 0.16439 0.0
C181 C 0.40599 0.62829 0.09104 0.0
C182 C 0.42464 0.5971 0.0651 0.0
C183 C 0.44244 0.59353 0.29057 0.0
C184 C 0.42364 0.62437 0.3168 0.0
C185 C 0.40624 0.64284 0.21651 0.0
C186 C 0.46865 0.55141 0.13592 0.0
O187 O 0.56079 0.52717 0.02051 0.0
O188 O 0.59275 0.53479 0.83314 0.0
O189 O 0.53747 0.57601 0.65837 0.0
O190 O 0.52327 0.5893 0.87009 0.0
C191 C 0.59117 0.53169 0.95997 0.0
O192 O 0.59807 0.5291 0.55637 0.0
O193 O 0.56095 0.48762 0.50722 0.0
O194 O 0.49531 0.5104 0.62779 0.0
O195 O 0.47161 0.54703 0.78078 0.0
O196 O 0.50691 0.47878 0.93358 0.0
O197 O 0.55539 0.46912 0.80505 0.0
C198 C 0.53058 0.59922 0.74992 0.0
O199 O 0.45959 0.52946 0.04437 0.0
O200 O 0.50166 0.56103 0.12597 0.0
C201 C 0.62058 0.47669 0.46393 0.0
C202 C 0.66337 0.41631 0.43685 0.0
C203 C 0.64699 0.43189 0.32783 0.0
C204 C 0.62525 0.46132 0.342 0.0
C205 C 0.63991 0.46381 0.57055 0.0
C206 C 0.66123 0.43376 0.55707 0.0
C207 C 0.59159 0.50196 0.48231 0.0
H208 H 0.39332 0.64223 1.01169 0.0
H209 H 0.42574 0.58739 0.9663 0.0
H210 H 0.45754 0.58117 0.36768 0.0
H211 H 0.42528 0.63523 0.41386 0.0
H212 H 0.64733 0.41901 0.234 0.0
H213 H 0.60994 0.47032 0.25944 0.0
H214 H 0.63634 0.47522 0.66607 0.0
H215 H 0.67333 0.42232 0.64273 0.0
Tb216 Tb 1.01789 0.50773 0.9426 0.0
Eu217 Eu 0.0364 0.55331 0.68152 0.0
C218 C 1.026 0.46921 0.6702 0.0
C219 C 0.09733 0.53212 0.88741 0.0
C220 C 0.97464 0.44382 0.16304 0.0
C221 C 0.92657 0.40604 0.08991 0.0
C222 C 0.95772 0.42478 0.06375 0.0
C223 C 0.96135 0.44223 0.28944 0.0
C224 C 0.93055 0.42334 0.31589 0.0
C225 C 0.91204 0.40611 0.21559 0.0
C226 C 1.00329 0.46884 0.13447 0.0
O227 O 0.02739 0.5611 0.01963 0.0
O228 O 1.02034 0.59324 0.83226 0.0
O229 O 0.97911 0.53793 0.65699 0.0
O230 O 0.96552 0.52351 0.86846 0.0
C231 C 1.02314 0.59155 0.95915 0.0
O232 O 1.02587 0.59855 0.55512 0.0
O233 O 0.06768 0.56172 0.50645 0.0
O234 O 0.04483 0.49588 0.62644 0.0
O235 O 1.00813 0.47197 0.77933 0.0
O236 O 0.07604 0.50748 0.93324 0.0
O237 O 0.08591 0.55586 0.80401 0.0
C238 C 0.95575 0.53092 0.74824 0.0
O239 O 1.02536 0.4599 0.04295 0.0
O240 O 0.99352 0.5018 0.12442 0.0
C241 C 0.07817 0.62143 0.46236 0.0
C242 C 0.13825 0.66463 0.43447 0.0
C243 C 0.12282 0.64811 0.32569 0.0
C244 C 0.09354 0.62617 0.34027 0.0
C245 C 0.09083 0.64092 0.56865 0.0
C246 C 0.12072 0.66247 0.55475 0.0
C247 C 0.05313 0.59224 0.48116 0.0
H248 H 0.91263 0.39348 1.01056 0.0
H249 H 0.96739 0.42606 0.96481 0.0
H250 H 0.97372 0.45722 0.3666 0.0
H251 H 0.91973 0.42483 0.41316 0.0
H252 H 0.13574 0.64849 0.23179 0.0
H253 H 0.08468 0.61077 0.25791 0.0
H254 H 0.0794 0.63732 0.66426 0.0
H255 H 0.13202 0.6747 0.64021 0.0
C256 C 0.15496 0.03713 0.4003 0.0
C257 C 0.17754 1.00834 0.42476 0.0
H258 H 0.10786 0.06515 0.45743 0.0
C259 C 0.17105 0.98716 0.53442 0.0
H260 H 0.1588 0.05331 0.31451 0.0
C261 C 0.14228 0.99394 0.61652 0.0
C262 C 0.1185 1.02166 0.58961 0.0
H263 H 0.18759 0.96435 0.55397 0.0
H264 H 0.13783 0.97633 0.69799 0.0
C265 C 0.12556 0.04359 0.48145 0.0
C266 C 0.51756 0.15489 0.39963 0.0
C267 C 0.54641 0.1774 0.42354 0.0
H268 H 0.48951 0.1078 0.45723 0.0
C269 C 0.56766 0.17082 0.53271 0.0
H270 H 0.50131 0.15882 0.31423 0.0
C271 C 0.5609 0.14201 0.61486 0.0
C272 C 0.53313 0.11829 0.58845 0.0
H273 H 0.59051 0.18732 0.55183 0.0
H274 H 0.57857 0.13749 0.69594 0.0
C275 C 0.51112 0.12545 0.48081 0.0
C276 C 0.3993 0.51806 0.40287 0.0
C277 C 0.37679 0.5469 0.42703 0.0
H278 H 0.44642 0.49 0.45987 0.0
C279 C 0.38339 0.5681 0.53616 0.0
H280 H 0.39539 0.50185 0.31749 0.0
C281 C 0.41221 0.56131 0.61796 0.0
C282 C 0.43595 0.53356 0.59127 0.0
H283 H 0.36691 0.59095 0.55547 0.0
H284 H 0.41675 0.57895 0.69898 0.0
C285 C 0.42876 0.51159 0.48371 0.0
C286 C 0.03763 0.40004 0.40087 0.0
C287 C 1.00901 0.37726 0.42545 0.0
H288 H 0.06533 0.44735 0.45757 0.0
C289 C 0.98779 0.38362 0.53495 0.0
H290 H 0.05382 0.39634 0.31517 0.0
C291 C 0.99438 0.41246 0.61676 0.0
C292 C 1.02192 0.43644 0.58972 0.0
H293 H 0.96508 0.36694 0.55457 0.0
H294 H 0.97673 0.41679 0.69809 0.0
C295 C 0.0439 0.4295 0.48173 0.0
C296 C 0.86544 0.0334 0.03199 0.0
C297 C 0.86333 0.02812 0.16678 0.0
H298 H 0.89792 0.03603 0.86277 0.0
C299 C 0.89451 1.01955 0.23456 0.0
H300 H 0.84195 0.03997 0.97664 0.0
C301 C 0.92724 1.01742 0.16838 0.0
C302 C 0.92925 1.02361 0.03337 0.0
H303 H 0.89378 1.01523 0.33849 0.0
H304 H 0.95095 1.01134 0.22299 0.0
C305 C 0.89771 0.03109 0.96641 0.0
C306 C 0.52081 0.86536 0.03231 0.0
C307 C 0.52633 0.86325 0.16692 0.0
H308 H 0.51806 0.89782 0.86292 0.0
C309 C 0.53523 0.8944 0.23412 0.0
H310 H 0.514 0.8419 0.97741 0.0
C311 C 0.53743 0.92709 0.16761 0.0
C312 C 0.53098 0.9291 0.03284 0.0
H313 H 0.53976 0.89366 0.33788 0.0
H314 H 0.54376 0.95078 0.22177 0.0
C315 C 0.52319 0.8976 0.96638 0.0
C316 C 0.68912 0.52073 0.03177 0.0
C317 C 0.69133 0.52641 0.16623 0.0
H318 H 0.65655 0.51785 0.86305 0.0
C319 C 0.66024 0.53545 0.23382 0.0
H320 H 0.71252 0.5138 0.97654 0.0
C321 C 0.6275 0.53766 0.16784 0.0
C322 C 0.62538 0.53106 0.03322 0.0
H323 H 0.66105 0.54009 0.33747 0.0
H324 H 0.60386 0.54412 0.22231 0.0
C325 C 0.65684 0.5231 0.96639 0.0
C326 C 1.01918 0.66046 0.23333 0.0
C327 C 0.0284 0.69158 0.16594 0.0
H328 H 1.01042 0.6041 0.22157 0.0
C329 C 0.03425 0.68943 0.0315 0.0
H330 H 1.01441 0.66122 0.33695 0.0
C331 C 0.03188 0.6572 0.96598 0.0
C332 C 1.02375 0.62571 0.0326 0.0
H333 H 0.04132 0.71285 0.9764 0.0
H334 H 0.03726 0.65697 0.86267 0.0
C335 C 1.01699 0.62776 0.16721 0.0
C336 C 0.91678 0.23068 0.46417 0.0
C337 C 0.9122 0.23906 0.33247 0.0
H338 H 0.91113 0.19039 0.6071 0.0
C339 C 0.88476 0.2224 0.26371 0.0
H340 H 0.937 0.24379 0.52099 0.0
C341 C 0.86953 0.19157 0.31381 0.0
C342 C 0.88249 0.17737 0.43083 0.0
H343 H 0.87989 0.22922 0.16306 0.0
H344 H 0.8533 0.17554 0.25023 0.0
C345 C 0.90173 0.19977 0.51384 0.0
C346 C 0.33271 0.88429 0.26428 0.0
C347 C 0.31596 0.91174 0.3327 0.0
H348 H 0.37966 0.85298 0.2509 0.0
C349 C 0.32429 0.91646 0.46426 0.0
H350 H 0.32593 0.87932 0.16377 0.0
C351 C 0.35524 0.90154 0.51393 0.0
C352 C 0.3777 0.88227 0.43109 0.0
H353 H 0.31112 0.9367 0.52084 0.0
H354 H 0.36458 0.91103 0.60697 0.0
C355 C 0.36357 0.86919 0.31438 0.0
C356 C 0.66996 0.33306 0.26368 0.0
C357 C 0.64251 0.3162 0.33218 0.0
H358 H 0.70114 0.38011 0.25017 0.0
C359 C 0.63767 0.32449 0.46373 0.0
H360 H 0.67501 0.32633 0.16315 0.0
C361 C 0.65246 0.35546 0.51334 0.0
C362 C 0.67176 0.37799 0.43048 0.0
H363 H 0.61742 0.31125 0.52034 0.0
H364 H 0.64288 0.36476 0.60638 0.0
C365 C 0.68493 0.36395 0.3137 0.0
C366 C 0.23002 0.63905 0.46233 0.0
C367 C 0.23838 0.64357 0.33057 0.0
H368 H 0.18971 0.64463 0.60496 0.0
C369 C 0.22161 0.67091 0.2612 0.0
H370 H 0.24321 0.61891 0.51962 0.0
C371 C 0.19071 0.68604 0.31084 0.0
C372 C 0.17657 0.6731 0.42804 0.0
H373 H 0.2284 0.67575 0.16049 0.0
H374 H 0.17461 0.70215 0.24685 0.0
C375 C 0.19905 0.65401 0.51155 0.0
C376 C 0.16038 0.83217 0.41533 0.0
C377 C 0.13476 0.81154 0.3516 0.0
H378 H 0.18622 0.88255 0.41793 0.0
C379 C 0.12926 0.81727 0.21821 0.0
H380 H 0.1662 0.8275 0.51692 0.0
C381 C 0.14074 0.84879 0.16136 0.0
C382 C 0.15791 0.87427 0.23789 0.0
H383 H 0.11059 0.80121 0.16453 0.0
H384 H 0.13055 0.85557 0.0662 0.0
C385 C 0.17175 0.86382 0.35871 0.0
C386 C 0.72226 0.1602 0.41225 0.0
C387 C 0.74295 0.1345 0.34919 0.0
H388 H 0.67187 0.18603 0.41428 0.0
C389 C 0.73726 0.1287 0.21604 0.0
H390 H 0.72689 0.16623 0.51363 0.0
C391 C 0.70577 0.14006 0.15897 0.0
C392 C 0.68027 0.15742 0.23504 0.0
H393 H 0.75334 0.10992 0.1629 0.0
H394 H 0.69903 0.1297 0.06417 0.0
C395 C 0.69063 0.17146 0.35543 0.0
C396 C 0.39417 0.72241 0.41568 0.0
C397 C 0.41984 0.74317 0.35227 0.0
H398 H 0.36847 0.67195 0.41819 0.0
C399 C 0.42565 0.7375 0.21907 0.0
H400 H 0.38812 0.72701 0.5171 0.0
C401 C 0.41435 0.706 0.16223 0.0
C402 C 0.39705 0.68045 0.23857 0.0
H403 H 0.44438 0.75364 0.16564 0.0
H404 H 0.42473 0.69929 0.06732 0.0
C405 C 0.38301 0.69075 0.35911 0.0
C406 C 0.81743 0.4258 0.21817 0.0
C407 C 0.8117 0.42014 0.35151 0.0
H408 H 0.85568 0.4246 0.06622 0.0
C409 C 0.83234 0.39447 0.41527 0.0
H410 H 0.80137 0.44453 0.16452 0.0
C411 C 0.86397 0.38311 0.35868 0.0
C412 C 0.87438 0.39703 0.23786 0.0
H413 H 0.82769 0.38854 0.51684 0.0
H414 H 0.88269 0.36855 0.41787 0.0
C415 C 0.84891 0.41433 0.16135 0.0
C416 C 0.99083 0.19235 0.93492 0.0
C417 C 1.00912 0.20327 0.04703 0.0
H418 H 0.9807 0.15107 0.79768 0.0
C419 C 0.03505 0.18045 0.09816 0.0
H420 H 0.97023 0.20896 0.89435 0.0
C421 C 0.04092 0.14676 0.04318 0.0
C422 C 1.02082 0.13494 0.93617 0.0
H423 H 0.04895 0.18756 0.18624 0.0
H424 H 0.05989 0.12928 0.08899 0.0
C425 C 0.99655 0.15881 0.88045 0.0
C426 C 0.36251 0.99019 0.93348 0.0
C427 C 0.35143 1.00852 0.04529 0.0
H428 H 0.40396 0.98013 0.79646 0.0
C429 C 0.37406 0.03462 0.09598 0.0
H430 H 0.34603 0.96947 0.89327 0.0
C431 C 0.40776 0.0406 0.04096 0.0
C432 C 0.41976 1.02044 0.93436 0.0
H433 H 0.3668 0.04855 0.18382 0.0
H434 H 0.42511 0.05969 0.08647 0.0
C435 C 0.39606 0.99602 0.87895 0.0
C436 C 0.51973 0.37418 0.0969 0.0
C437 C 0.54577 0.35157 0.04549 0.0
H438 H 0.49472 0.42526 0.08826 0.0
C439 C 0.56402 0.3627 0.93333 0.0
H440 H 0.50587 0.36686 0.18504 0.0
C441 C 0.55817 0.39629 0.87912 0.0
C442 C 0.53383 0.41998 0.93525 0.0
H443 H 0.58468 0.34624 0.89261 0.0
H444 H 0.574 0.40424 0.79632 0.0
C445 C 0.51374 0.40792 0.04221 0.0
C446 C 0.19216 0.56459 0.9338 0.0
C447 C 0.20311 0.54641 0.04636 0.0
H448 H 0.15085 0.57451 0.79612 0.0
C449 C 0.18037 0.52044 0.09788 0.0
H450 H 0.20871 0.58521 0.89293 0.0
C451 C 0.14671 0.51443 0.04283 0.0
C452 C 0.13484 0.53444 0.93538 0.0
H453 H 0.18752 0.50663 0.18629 0.0
H454 H 0.12928 0.49544 0.08894 0.0
C455 C 0.15864 0.55873 0.87925 0.0
C456 C 0.04972 0.85805 0.74343 0.0
C457 C 0.03648 0.84688 0.62235 0.0
H458 H 0.05596 0.90075 0.87898 0.0
C459 C 1.01591 0.87085 0.55018 0.0
H460 H 0.06657 0.8406 0.79956 0.0
C461 C 1.01064 0.90571 0.59379 0.0
C462 C 1.02551 0.91753 0.71155 0.0
H463 H 1.0063 0.86353 0.45489 0.0
H464 H 0.99609 0.92385 0.53223 0.0
C465 C 0.04399 0.89276 0.78814 0.0
C466 C 0.69658 0.04994 0.74362 0.0
C467 C 0.70799 0.03658 0.623 0.0
H468 H 0.65364 0.05617 0.87852 0.0
C469 C 0.68427 1.01574 0.55116 0.0
H470 H 0.71385 0.06698 0.79942 0.0
C471 C 0.64939 1.01035 0.59452 0.0
C472 C 0.63731 1.02537 0.71172 0.0
H473 H 0.6918 1.00601 0.45621 0.0
H474 H 0.63141 0.99562 0.53319 0.0
C475 C 0.66185 0.04409 0.78811 0.0
C476 C 0.50436 0.69686 0.74587 0.0
C477 C 0.51775 0.70834 0.62517 0.0
H478 H 0.49814 0.65385 0.88074 0.0
C479 C 0.53867 0.6847 0.5532 0.0
H480 H 0.48727 0.71408 0.80179 0.0
C481 C 0.54409 0.6498 0.59648 0.0
C482 C 0.52903 0.63765 0.71372 0.0
H483 H 0.54843 0.69229 0.4582 0.0
H484 H 0.55888 0.63188 0.53504 0.0
C485 C 0.51025 0.66212 0.79029 0.0
C486 C 0.87054 0.53901 0.5505 0.0
C487 C 0.84671 0.51825 0.62266 0.0
H488 H 0.92345 0.55904 0.53243 0.0
C489 C 0.858 0.50492 0.74365 0.0
H490 H 0.86312 0.54871 0.45528 0.0
C491 C 0.89271 0.51073 0.78825 0.0
C492 C 0.91736 0.52938 0.71162 0.0
H493 H 0.84066 0.48794 0.79975 0.0
H494 H 0.90081 0.49868 0.879 0.0
C495 C 0.9054 0.54436 0.59399 0.0
loop_
_geom_bond_atom_site_label_1
_geom_bond_atom_site_label_2
_geom_bond_distance
_geom_bond_site_symmetry_2
_ccdc_geom_bond_type
H0 C5 0.930 . S
H1 C8 0.930 . S
H2 C10 0.930 . S
H3 C4 1.016 . S
C4 H3 1.016 . S
C4 N11 1.286 . S
C5 H0 0.930 . S
C5 C6 1.397 . S
C5 C7 1.361 . S
C6 C5 1.397 . S
C6 C10 1.390 . S
C7 C5 1.361 . S
C7 C8 1.393 . S
C7 N11 1.413 . S
C8 H1 0.930 . S
C8 C7 1.393 . S
C8 C9 1.399 . S
C9 C8 1.399 . S
C9 C10 1.381 . S
C10 H2 0.930 . S
C10 C6 1.390 . S
C10 C9 1.381 . S
N11 C4 1.286 . S
N11 C7 1.413 . S
H12 C17 0.930 . S
H13 C20 0.930 . S
H14 C22 0.930 . S
H15 C16 1.016 . S
C16 H15 1.016 . S
C16 N23 1.286 1_655 S
C17 H12 0.930 . S
C17 C18 1.397 . S
C17 C19 1.361 . S
C18 C17 1.397 . S
C18 C22 1.390 1_455 S
C19 C17 1.361 . S
C19 C20 1.393 . S
C19 N23 1.413 . S
C20 H13 0.930 . S
C20 C19 1.393 . S
C20 C21 1.403 . S
C21 C20 1.403 . S
C21 C22 1.379 1_455 S
C22 H14 0.930 . S
C22 C18 1.390 1_655 S
C22 C21 1.379 1_655 S
N23 C16 1.286 1_455 S
N23 C19 1.413 . S
H24 C29 0.930 . S
H25 C32 0.930 . S
H26 C34 0.930 . S
H27 C28 1.016 . S
C28 H27 1.016 . S
C28 N35 1.286 1_565 S
C29 H24 0.930 . S
C29 C30 1.397 . S
C29 C31 1.361 . S
C30 C29 1.397 . S
C30 C34 1.390 1_545 S
C31 C29 1.361 . S
C31 C32 1.393 . S
C31 N35 1.413 . S
C32 H25 0.930 . S
C32 C31 1.393 . S
C32 C33 1.403 . S
C33 C32 1.403 . S
C33 C34 1.379 1_545 S
C34 H26 0.930 . S
C34 C30 1.390 1_565 S
C34 C33 1.379 1_565 S
N35 C28 1.286 1_545 S
N35 C31 1.413 . S
H36 C41 0.930 . S
H37 C44 0.930 . S
H38 C46 0.930 . S
H39 C40 1.016 . S
C40 H39 1.016 . S
C40 N47 1.286 . S
C41 H36 0.930 . S
C41 C42 1.397 . S
C41 C43 1.361 . S
C42 C41 1.397 . S
C42 C46 1.390 . S
C43 C41 1.361 . S
C43 C44 1.393 . S
C43 N47 1.413 . S
C44 H37 0.930 . S
C44 C43 1.393 . S
C44 C45 1.399 . S
C45 C44 1.399 . S
C45 C46 1.381 . S
C46 H38 0.930 . S
C46 C42 1.390 . S
C46 C45 1.381 . S
N47 C40 1.286 . S
N47 C43 1.413 . S
H48 C53 0.930 . S
H49 C56 0.930 . S
H50 C58 0.930 . S
H51 C52 1.016 . S
C52 H51 1.016 . S
C52 N59 1.286 . S
C53 H48 0.930 . S
C53 C54 1.397 . S
C53 C55 1.361 1_556 S
C54 C53 1.397 . S
C54 C58 1.390 1_556 S
C55 C53 1.361 1_554 S
C55 C56 1.393 . S
C55 N59 1.413 . S
C56 H49 0.930 . S
C56 C55 1.393 . S
C56 C57 1.399 . S
C57 C56 1.399 . S
C57 C58 1.381 . S
C58 H50 0.930 . S
C58 C54 1.390 1_554 S
C58 C57 1.381 . S
N59 C52 1.286 . S
N59 C55 1.413 . S
H60 C65 0.930 . S
H61 C68 0.930 . S
H62 C70 0.930 . S
H63 C64 1.026 . S
C64 H63 1.026 . S
C64 N71 1.272 1_655 S
C65 H60 0.930 . S
C65 C66 1.397 . S
C65 C67 1.361 1_556 S
C66 C65 1.397 . S
C66 C70 1.390 1_456 S
C67 C65 1.361 1_554 S
C67 C68 1.393 . S
C67 N71 1.413 . S
C68 H61 0.930 . S
C68 C67 1.393 . S
C68 C69 1.404 . S
C69 C68 1.404 . S
C69 C70 1.378 1_455 S
C70 H62 0.930 . S
C70 C66 1.390 1_654 S
C70 C69 1.378 1_655 S
N71 C64 1.272 1_455 S
N71 C67 1.413 . S
H72 C77 0.930 . S
H73 C80 0.930 . S
H74 C82 0.930 . S
H75 C76 1.026 . S
C76 H75 1.026 . S
C76 N83 1.272 1_565 S
C77 H72 0.930 . S
C77 C78 1.397 . S
C77 C79 1.361 1_556 S
C78 C77 1.397 . S
C78 C82 1.390 1_546 S
C79 C77 1.361 1_554 S
C79 C80 1.393 . S
C79 N83 1.413 . S
C80 H73 0.930 . S
C80 C79 1.393 . S
C80 C81 1.404 . S
C81 C80 1.404 . S
C81 C82 1.378 1_545 S
C82 H74 0.930 . S
C82 C78 1.390 1_564 S
C82 C81 1.378 1_565 S
N83 C76 1.272 1_545 S
N83 C79 1.413 . S
H84 C89 0.930 . S
H85 C92 0.930 . S
H86 C94 0.930 . S
H87 C88 1.016 . S
C88 H87 1.016 . S
C88 N95 1.286 . S
C89 H84 0.930 . S
C89 C90 1.397 . S
C89 C91 1.361 1_556 S
C90 C89 1.397 . S
C90 C94 1.390 1_556 S
C91 C89 1.361 1_554 S
C91 C92 1.393 . S
C91 N95 1.413 . S
C92 H85 0.930 . S
C92 C91 1.393 . S
C92 C93 1.399 . S
C93 C92 1.399 . S
C93 C94 1.381 . S
C94 H86 0.930 . S
C94 C90 1.390 1_554 S
C94 C93 1.381 . S
N95 C88 1.286 . S
N95 C91 1.413 . S
Tb96 C106 2.825 1_556 S
Tb96 O107 2.347 1_455 S
Tb96 O110 2.366 . S
Tb96 O115 2.418 . S
Tb96 O116 2.384 1_565 S
Tb96 O119 2.479 1_556 S
Tb96 O120 2.471 1_556 S
Eu97 O108 2.418 . S
Eu97 O109 2.384 1_545 S
Eu97 O112 2.479 . S
Eu97 O113 2.471 . S
Eu97 O114 2.347 1_655 S
Eu97 O117 2.366 . S
Eu97 C127 2.825 . S
C98 O114 1.259 1_565 S
C98 O115 1.265 . S
C99 O116 1.255 . S
C99 O117 1.265 1_455 S
C100 C102 1.380 . S
C100 C103 1.374 . S
C100 C106 1.507 . S
C101 C102 1.384 . S
C101 C105 1.387 . S
C101 H128 0.930 . S
C102 C100 1.380 . S
C102 C101 1.384 . S
C102 H129 0.931 . S
C103 C100 1.374 . S
C103 C104 1.390 . S
C103 H130 0.930 1_455 S
C104 C103 1.390 . S
C104 C105 1.391 . S
C104 H131 0.930 1_455 S
C105 C101 1.387 . S
C105 C104 1.391 . S
C106 Tb96 2.825 1_554 S
C106 C100 1.507 . S
C106 O119 1.238 . S
C106 O120 1.247 . S
O107 Tb96 2.347 1_655 S
O107 C111 1.259 1_565 S
O108 Eu97 2.418 . S
O108 C111 1.265 . S
O109 Eu97 2.384 1_565 S
O109 C118 1.255 . S
O110 Tb96 2.366 . S
O110 C118 1.265 1_455 S
C111 O107 1.259 1_545 S
C111 O108 1.265 . S
O112 Eu97 2.479 . S
O112 C127 1.238 . S
O113 Eu97 2.471 . S
O113 C127 1.247 . S
O114 Eu97 2.347 1_455 S
O114 C98 1.259 1_545 S
O115 Tb96 2.418 . S
O115 C98 1.265 . S
O116 Tb96 2.384 1_545 S
O116 C99 1.255 . S
O117 Eu97 2.366 . S
O117 C99 1.265 1_655 S
C118 O109 1.255 . S
C118 O110 1.265 1_655 S
O119 Tb96 2.479 1_554 S
O119 C106 1.238 . S
O120 Tb96 2.471 1_554 S
O120 C106 1.247 . S
C121 C124 1.380 . S
C121 C125 1.374 . S
C121 C127 1.507 . S
C122 C123 1.387 . S
C122 C126 1.391 . S
C123 C122 1.387 . S
C123 C124 1.384 . S
C123 H132 0.930 . S
C124 C121 1.380 . S
C124 C123 1.384 . S
C124 H133 0.931 . S
C125 C121 1.374 . S
C125 C126 1.390 . S
C125 H134 0.930 1_655 S
C126 C122 1.391 . S
C126 C125 1.390 . S
C126 H135 0.930 1_655 S
C127 Eu97 2.825 . S
C127 O112 1.238 . S
C127 O113 1.247 . S
C127 C121 1.507 . S
H128 C101 0.930 . S
H129 C102 0.931 . S
H130 C103 0.930 1_655 S
H131 C104 0.930 1_655 S
H132 C123 0.930 . S
H133 C124 0.931 . S
H134 C125 0.930 1_455 S
H135 C126 0.930 1_455 S
Tb136 C146 2.825 1_556 S
Tb136 O147 2.347 1_545 S
Tb136 O150 2.366 . S
Tb136 O155 2.418 . S
Tb136 O156 2.384 . S
Tb136 O159 2.479 1_556 S
Tb136 O160 2.471 1_556 S
Eu137 O148 2.418 . S
Eu137 O149 2.384 . S
Eu137 O152 2.479 . S
Eu137 O153 2.471 . S
Eu137 O154 2.347 1_565 S
Eu137 O157 2.366 . S
Eu137 C167 2.825 . S
C138 O154 1.259 . S
C138 O155 1.265 . S
C139 O156 1.255 . S
C139 O157 1.265 1_545 S
C140 C142 1.380 . S
C140 C143 1.374 . S
C140 C146 1.507 . S
C141 C142 1.384 . S
C141 C145 1.387 . S
C141 H168 0.930 . S
C142 C140 1.380 . S
C142 C141 1.384 . S
C142 H169 0.931 . S
C143 C140 1.374 . S
C143 C144 1.390 . S
C143 H170 0.930 1_545 S
C144 C143 1.390 . S
C144 C145 1.391 . S
C144 H171 0.930 1_545 S
C145 C141 1.387 . S
C145 C144 1.391 . S
C146 Tb136 2.825 1_554 S
C146 C140 1.507 . S
C146 O159 1.238 . S
C146 O160 1.247 . S
O147 Tb136 2.347 1_565 S
O147 C151 1.259 . S
O148 Eu137 2.418 . S
O148 C151 1.265 . S
O149 Eu137 2.384 . S
O149 C158 1.255 . S
O150 Tb136 2.366 . S
O150 C158 1.265 1_545 S
C151 O147 1.259 . S
C151 O148 1.265 . S
O152 Eu137 2.479 . S
O152 C167 1.238 . S
O153 Eu137 2.471 . S
O153 C167 1.247 . S
O154 Eu137 2.347 1_545 S
O154 C138 1.259 . S
O155 Tb136 2.418 . S
O155 C138 1.265 . S
O156 Tb136 2.384 . S
O156 C139 1.255 . S
O157 Eu137 2.366 . S
O157 C139 1.265 1_565 S
C158 O149 1.255 . S
C158 O150 1.265 1_565 S
O159 Tb136 2.479 1_554 S
O159 C146 1.238 . S
O160 Tb136 2.471 1_554 S
O160 C146 1.247 . S
C161 C164 1.380 . S
C161 C165 1.374 . S
C161 C167 1.507 . S
C162 C163 1.387 . S
C162 C166 1.391 . S
C163 C162 1.387 . S
C163 C164 1.384 . S
C163 H172 0.930 . S
C164 C161 1.380 . S
C164 C163 1.384 . S
C164 H173 0.931 . S
C165 C161 1.374 . S
C165 C166 1.390 . S
C165 H174 0.930 1_565 S
C166 C162 1.391 . S
C166 C165 1.390 . S
C166 H175 0.930 1_565 S
C167 Eu137 2.825 . S
C167 O152 1.238 . S
C167 O153 1.247 . S
C167 C161 1.507 . S
H168 C141 0.930 . S
H169 C142 0.931 . S
H170 C143 0.930 1_565 S
H171 C144 0.930 1_565 S
H172 C163 0.930 . S
H173 C164 0.931 . S
H174 C165 0.930 1_545 S
H175 C166 0.930 1_545 S
Tb176 C186 2.825 1_556 S
Tb176 O187 2.347 . S
Tb176 O190 2.366 . S
Tb176 O195 2.418 . S
Tb176 O196 2.384 . S
Tb176 O199 2.479 1_556 S
Tb176 O200 2.471 1_556 S
Eu177 O188 2.418 . S
Eu177 O189 2.384 . S
Eu177 O192 2.479 . S
Eu177 O193 2.471 . S
Eu177 O194 2.347 . S
Eu177 O197 2.366 . S
Eu177 C207 2.825 . S
C178 O194 1.259 . S
C178 O195 1.265 . S
C179 O196 1.255 . S
C179 O197 1.265 . S
C180 C182 1.380 . S
C180 C183 1.374 . S
C180 C186 1.507 . S
C181 C182 1.384 . S
C181 C185 1.387 . S
C181 H208 0.930 . S
C182 C180 1.380 . S
C182 C181 1.384 . S
C182 H209 0.931 . S
C183 C180 1.374 . S
C183 C184 1.390 . S
C183 H210 0.930 . S
C184 C183 1.390 . S
C184 C185 1.391 . S
C184 H211 0.930 . S
C185 C181 1.387 . S
C185 C184 1.391 . S
C186 Tb176 2.825 1_554 S
C186 C180 1.507 . S
C186 O199 1.238 . S
C186 O200 1.247 . S
O187 Tb176 2.347 . S
O187 C191 1.259 . S
O188 Eu177 2.418 . S
O188 C191 1.265 . S
O189 Eu177 2.384 . S
O189 C198 1.255 . S
O190 Tb176 2.366 . S
O190 C198 1.265 . S
C191 O187 1.259 . S
C191 O188 1.265 . S
O192 Eu177 2.479 . S
O192 C207 1.238 . S
O193 Eu177 2.471 . S
O193 C207 1.247 . S
O194 Eu177 2.347 . S
O194 C178 1.259 . S
O195 Tb176 2.418 . S
O195 C178 1.265 . S
O196 Tb176 2.384 . S
O196 C179 1.255 . S
O197 Eu177 2.366 . S
O197 C179 1.265 . S
C198 O189 1.255 . S
C198 O190 1.265 . S
O199 Tb176 2.479 1_554 S
O199 C186 1.238 . S
O200 Tb176 2.471 1_554 S
O200 C186 1.247 . S
C201 C204 1.380 . S
C201 C205 1.374 . S
C201 C207 1.507 . S
C202 C203 1.387 . S
C202 C206 1.391 . S
C203 C202 1.387 . S
C203 C204 1.384 . S
C203 H212 0.930 . S
C204 C201 1.380 . S
C204 C203 1.384 . S
C204 H213 0.931 . S
C205 C201 1.374 . S
C205 C206 1.390 . S
C205 H214 0.930 . S
C206 C202 1.391 . S
C206 C205 1.390 . S
C206 H215 0.930 . S
C207 Eu177 2.825 . S
C207 O192 1.238 . S
C207 O193 1.247 . S
C207 C201 1.507 . S
H208 C181 0.930 . S
H209 C182 0.931 . S
H210 C183 0.930 . S
H211 C184 0.930 . S
H212 C203 0.930 . S
H213 C204 0.931 . S
H214 C205 0.930 . S
H215 C206 0.930 . S
Tb216 C226 2.825 1_556 S
Tb216 O227 2.347 . S
Tb216 O230 2.366 . S
Tb216 O235 2.418 . S
Tb216 O236 2.384 1_655 S
Tb216 O239 2.479 1_556 S
Tb216 O240 2.471 1_556 S
Eu217 O228 2.418 . S
Eu217 O229 2.384 1_455 S
Eu217 O232 2.479 . S
Eu217 O233 2.471 . S
Eu217 O234 2.347 . S
Eu217 O237 2.366 . S
Eu217 C247 2.825 . S
C218 O234 1.259 1_655 S
C218 O235 1.265 . S
C219 O236 1.255 . S
C219 O237 1.265 . S
C220 C222 1.380 . S
C220 C223 1.374 . S
C220 C226 1.507 . S
C221 C222 1.384 . S
C221 C225 1.387 . S
C221 H248 0.930 . S
C222 C220 1.380 . S
C222 C221 1.384 . S
C222 H249 0.931 . S
C223 C220 1.374 . S
C223 C224 1.390 . S
C223 H250 0.930 . S
C224 C223 1.390 . S
C224 C225 1.391 . S
C224 H251 0.930 . S
C225 C221 1.387 . S
C225 C224 1.391 . S
C226 Tb216 2.825 1_554 S
C226 C220 1.507 . S
C226 O239 1.238 . S
C226 O240 1.247 . S
O227 Tb216 2.347 . S
O227 C231 1.259 1_655 S
O228 Eu217 2.418 . S
O228 C231 1.265 . S
O229 Eu217 2.384 1_655 S
O229 C238 1.255 . S
O230 Tb216 2.366 . S
O230 C238 1.265 . S
C231 O227 1.259 1_455 S
C231 O228 1.265 . S
O232 Eu217 2.479 . S
O232 C247 1.238 . S
O233 Eu217 2.471 . S
O233 C247 1.247 . S
O234 Eu217 2.347 . S
O234 C218 1.259 1_455 S
O235 Tb216 2.418 . S
O235 C218 1.265 . S
O236 Tb216 2.384 1_455 S
O236 C219 1.255 . S
O237 Eu217 2.366 . S
O237 C219 1.265 . S
C238 O229 1.255 . S
C238 O230 1.265 . S
O239 Tb216 2.479 1_554 S
O239 C226 1.238 . S
O240 Tb216 2.471 1_554 S
O240 C226 1.247 . S
C241 C244 1.380 . S
C241 C245 1.374 . S
C241 C247 1.507 . S
C242 C243 1.387 . S
C242 C246 1.391 . S
C243 C242 1.387 . S
C243 C244 1.384 . S
C243 H252 0.930 . S
C244 C241 1.380 . S
C244 C243 1.384 . S
C244 H253 0.931 . S
C245 C241 1.374 . S
C245 C246 1.390 . S
C245 H254 0.930 . S
C246 C242 1.391 . S
C246 C245 1.390 . S
C246 H255 0.930 . S
C247 Eu217 2.825 . S
C247 O232 1.238 . S
C247 O233 1.247 . S
C247 C241 1.507 . S
H248 C221 0.930 . S
H249 C222 0.931 . S
H250 C223 0.930 . S
H251 C224 0.930 . S
H252 C243 0.930 . S
H253 C244 0.931 . S
H254 C245 0.930 . S
H255 C246 0.930 . S
C256 C257 1.389 1_545 S
C256 H260 0.950 . S
C256 C265 1.390 . S
C257 C256 1.389 1_565 S
C257 C259 1.386 . S
H258 C265 0.950 . S
C259 C257 1.386 . S
C259 C261 1.390 . S
C259 H263 0.950 . S
H260 C256 0.950 . S
C261 C259 1.390 . S
C261 C262 1.397 . S
C261 H264 0.950 . S
C262 C261 1.397 . S
C262 C265 1.378 1_565 S
H263 C259 0.950 . S
H264 C261 0.950 . S
C265 C256 1.390 . S
C265 H258 0.950 . S
C265 C262 1.378 1_545 S
C266 C267 1.387 . S
C266 H270 0.950 . S
C266 C275 1.390 . S
C267 C266 1.387 . S
C267 C269 1.387 . S
H268 C275 0.950 . S
C269 C267 1.387 . S
C269 C271 1.390 . S
C269 H273 0.950 . S
H270 C266 0.950 . S
C271 C269 1.390 . S
C271 C272 1.387 . S
C271 H274 0.950 . S
C272 C271 1.387 . S
C272 C275 1.387 . S
H273 C269 0.950 . S
H274 C271 0.950 . S
C275 C266 1.390 . S
C275 H268 0.950 . S
C275 C272 1.387 . S
C276 C277 1.387 . S
C276 H280 0.950 . S
C276 C285 1.390 . S
C277 C276 1.387 . S
C277 C279 1.387 . S
H278 C285 0.950 . S
C279 C277 1.387 . S
C279 C281 1.390 . S
C279 H283 0.950 . S
H280 C276 0.950 . S
C281 C279 1.390 . S
C281 C282 1.387 . S
C281 H284 0.950 . S
C282 C281 1.387 . S
C282 C285 1.387 . S
H283 C279 0.950 . S
H284 C281 0.950 . S
C285 C276 1.390 . S
C285 H278 0.950 . S
C285 C282 1.387 . S
C286 C287 1.398 . S
C286 H290 0.950 . S
C286 C295 1.390 . S
C287 C286 1.398 . S
C287 C289 1.377 1_455 S
H288 C295 0.950 . S
C289 C287 1.377 1_655 S
C289 C291 1.390 . S
C289 H293 0.950 . S
H290 C286 0.950 . S
C291 C289 1.390 . S
C291 C292 1.387 1_655 S
C291 H294 0.950 . S
C292 C291 1.387 1_455 S
C292 C295 1.387 . S
H293 C289 0.950 . S
H294 C291 0.950 . S
C295 C286 1.390 . S
C295 H288 0.950 . S
C295 C292 1.387 . S
C296 C297 1.393 . S
C296 H300 0.950 . S
C296 C305 1.390 . S
C297 C296 1.393 . S
C297 C299 1.382 1_545 S
H298 C305 0.950 . S
C299 C297 1.382 1_565 S
C299 C301 1.390 . S
C299 H303 0.950 . S
H300 C296 0.950 . S
C301 C299 1.390 . S
C301 C302 1.372 1_565 S
C301 H304 0.950 . S
C302 C301 1.372 1_545 S
C302 C305 1.404 . S
H303 C299 0.950 . S
H304 C301 0.950 . S
C305 C296 1.390 . S
C305 H298 0.950 . S
C305 C302 1.404 . S
C306 C307 1.387 . S
C306 H310 0.950 . S
C306 C315 1.390 . S
C307 C306 1.387 . S
C307 C309 1.387 . S
H308 C315 0.950 . S
C309 C307 1.387 . S
C309 C311 1.390 . S
C309 H313 0.950 . S
H310 C306 0.950 . S
C311 C309 1.390 . S
C311 C312 1.387 . S
C311 H314 0.950 . S
C312 C311 1.387 . S
C312 C315 1.387 . S
H313 C309 0.950 . S
H314 C311 0.950 . S
C315 C306 1.390 . S
C315 H308 0.950 . S
C315 C312 1.387 . S
C316 C317 1.387 . S
C316 H320 0.950 . S
C316 C325 1.390 . S
C317 C316 1.387 . S
C317 C319 1.387 . S
H318 C325 0.950 . S
C319 C317 1.387 . S
C319 C321 1.390 . S
C319 H323 0.950 . S
H320 C316 0.950 . S
C321 C319 1.390 . S
C321 C322 1.387 . S
C321 H324 0.950 . S
C322 C321 1.387 . S
C322 C325 1.387 . S
H323 C319 0.950 . S
H324 C321 0.950 . S
C325 C316 1.390 . S
C325 H318 0.950 . S
C325 C322 1.387 . S
C326 C327 1.396 . S
C326 H330 0.950 . S
C326 C335 1.390 . S
C327 C326 1.396 . S
C327 C329 1.379 1_655 S
H328 C335 0.950 . S
C329 C327 1.379 1_455 S
C329 C331 1.390 . S
C329 H333 0.950 . S
H330 C326 0.950 . S
C331 C329 1.390 . S
C331 C332 1.387 1_455 S
C331 H334 0.950 . S
C332 C331 1.387 1_655 S
C332 C335 1.387 . S
H333 C329 0.950 . S
H334 C331 0.950 . S
C335 C326 1.390 . S
C335 H328 0.950 . S
C335 C332 1.387 . S
C336 C337 1.388 . S
C336 H340 0.950 1_655 S
C336 C345 1.390 . S
C337 C336 1.388 . S
C337 C339 1.389 . S
H338 C345 0.950 . S
C339 C337 1.389 . S
C339 C341 1.390 . S
C339 H343 0.950 . S
H340 C336 0.950 1_455 S
C341 C339 1.390 . S
C341 C342 1.387 . S
C341 H344 0.950 . S
C342 C341 1.387 . S
C342 C345 1.387 . S
H343 C339 0.950 . S
H344 C341 0.950 . S
C345 C336 1.390 . S
C345 H338 0.950 . S
C345 C342 1.387 . S
C346 C347 1.395 . S
C346 H350 0.950 . S
C346 C355 1.390 . S
C347 C346 1.395 . S
C347 C349 1.385 1_565 S
H348 C355 0.950 . S
C349 C347 1.385 1_545 S
C349 C351 1.390 1_545 S
C349 H353 0.950 . S
H350 C346 0.950 . S
C351 C349 1.390 1_565 S
C351 C352 1.387 . S
C351 H354 0.950 . S
C352 C351 1.387 . S
C352 C355 1.387 . S
H353 C349 0.950 . S
H354 C351 0.950 . S
C355 C346 1.390 . S
C355 H348 0.950 . S
C355 C352 1.387 . S
C356 C357 1.387 . S
C356 H360 0.950 . S
C356 C365 1.390 . S
C357 C356 1.387 . S
C357 C359 1.387 . S
H358 C365 0.950 . S
C359 C357 1.387 . S
C359 C361 1.390 . S
C359 H363 0.950 . S
H360 C356 0.950 . S
C361 C359 1.390 . S
C361 C362 1.387 . S
C361 H364 0.950 . S
C362 C361 1.387 . S
C362 C365 1.387 . S
H363 C359 0.950 . S
H364 C361 0.950 . S
C365 C356 1.390 . S
C365 H358 0.950 . S
C365 C362 1.387 . S
C366 C367 1.387 . S
C366 H370 0.950 . S
C366 C375 1.390 . S
C367 C366 1.387 . S
C367 C369 1.387 . S
H368 C375 0.950 . S
C369 C367 1.387 . S
C369 C371 1.390 . S
C369 H373 0.950 . S
H370 C366 0.950 . S
C371 C369 1.390 . S
C371 C372 1.387 . S
C371 H374 0.950 . S
C372 C371 1.387 . S
C372 C375 1.387 . S
H373 C369 0.950 . S
H374 C371 0.950 . S
C375 C366 1.390 . S
C375 H368 0.950 . S
C375 C372 1.387 . S
C376 C377 1.388 . S
C376 H380 0.950 1_455 S
C376 C385 1.390 . S
C377 C376 1.388 . S
C377 C379 1.389 . S
H378 C385 0.950 . S
C379 C377 1.389 . S
C379 C381 1.390 . S
C379 H383 0.950 . S
H380 C376 0.950 1_655 S
C381 C379 1.390 . S
C381 C382 1.387 . S
C381 H384 0.950 . S
C382 C381 1.387 . S
C382 C385 1.387 . S
H383 C379 0.950 . S
H384 C381 0.950 . S
C385 C376 1.390 . S
C385 H378 0.950 . S
C385 C382 1.387 . S
C386 C387 1.395 . S
C386 H390 0.950 . S
C386 C395 1.390 . S
C387 C386 1.395 . S
C387 C389 1.386 1_545 S
H388 C395 0.950 . S
C389 C387 1.386 1_565 S
C389 C391 1.390 1_565 S
C389 H393 0.950 . S
H390 C386 0.950 . S
C391 C389 1.390 1_545 S
C391 C392 1.387 . S
C391 H394 0.950 . S
C392 C391 1.387 . S
C392 C395 1.387 . S
H393 C389 0.950 . S
H394 C391 0.950 . S
C395 C386 1.390 . S
C395 H388 0.950 . S
C395 C392 1.387 . S
C396 C397 1.387 . S
C396 H400 0.950 . S
C396 C405 1.390 . S
C397 C396 1.387 . S
C397 C399 1.387 . S
H398 C405 0.950 . S
C399 C397 1.387 . S
C399 C401 1.390 . S
C399 H403 0.950 . S
H400 C396 0.950 . S
C401 C399 1.390 . S
C401 C402 1.387 . S
C401 H404 0.950 . S
C402 C401 1.387 . S
C402 C405 1.387 . S
H403 C399 0.950 . S
H404 C401 0.950 . S
C405 C396 1.390 . S
C405 H398 0.950 . S
C405 C402 1.387 . S
C406 C407 1.387 . S
C406 H410 0.950 . S
C406 C415 1.390 . S
C407 C406 1.387 . S
C407 C409 1.387 . S
H408 C415 0.950 . S
C409 C407 1.387 . S
C409 C411 1.390 . S
C409 H413 0.950 . S
H410 C406 0.950 . S
C411 C409 1.390 . S
C411 C412 1.387 . S
C411 H414 0.950 . S
C412 C411 1.387 . S
C412 C415 1.387 . S
H413 C409 0.950 . S
H414 C411 0.950 . S
C415 C406 1.390 . S
C415 H408 0.950 . S
C415 C412 1.387 . S
C416 C417 1.387 1_655 S
C416 H420 0.950 . S
C416 C425 1.390 . S
C417 C416 1.387 1_455 S
C417 C419 1.387 . S
H418 C425 0.950 . S
C419 C417 1.387 . S
C419 C421 1.390 . S
C419 H423 0.950 . S
H420 C416 0.950 . S
C421 C419 1.390 . S
C421 C422 1.387 . S
C421 H424 0.950 . S
C422 C421 1.387 . S
C422 C425 1.387 1_455 S
H423 C419 0.950 . S
H424 C421 0.950 . S
C425 C416 1.390 . S
C425 H418 0.950 . S
C425 C422 1.387 1_655 S
C426 C427 1.387 1_565 S
C426 H430 0.950 . S
C426 C435 1.390 . S
C427 C426 1.387 1_545 S
C427 C429 1.387 . S
H428 C435 0.950 1_554 S
C429 C427 1.387 . S
C429 C431 1.390 . S
C429 H433 0.950 . S
H430 C426 0.950 . S
C431 C429 1.390 . S
C431 C432 1.387 . S
C431 H434 0.950 . S
C432 C431 1.387 . S
C432 C435 1.387 1_545 S
H433 C429 0.950 . S
H434 C431 0.950 . S
C435 C426 1.390 . S
C435 H428 0.950 1_556 S
C435 C432 1.387 1_565 S
C436 C437 1.387 . S
C436 H440 0.950 1_556 S
C436 C445 1.390 . S
C437 C436 1.387 . S
C437 C439 1.387 . S
H438 C445 0.950 1_554 S
C439 C437 1.387 . S
C439 C441 1.390 . S
C439 H443 0.950 . S
H440 C436 0.950 1_554 S
C441 C439 1.390 . S
C441 C442 1.387 . S
C441 H444 0.950 . S
C442 C441 1.387 . S
C442 C445 1.387 . S
H443 C439 0.950 . S
H444 C441 0.950 . S
C445 C436 1.390 . S
C445 H438 0.950 1_556 S
C445 C442 1.387 . S
C446 C447 1.387 . S
C446 H450 0.950 . S
C446 C455 1.390 . S
C447 C446 1.387 . S
C447 C449 1.387 . S
H448 C455 0.950 . S
C449 C447 1.387 . S
C449 C451 1.390 . S
C449 H453 0.950 1_556 S
H450 C446 0.950 . S
C451 C449 1.390 . S
C451 C452 1.387 . S
C451 H454 0.950 1_556 S
C452 C451 1.387 . S
C452 C455 1.387 . S
H453 C449 0.950 1_554 S
H454 C451 0.950 1_554 S
C455 C446 1.390 . S
C455 H448 0.950 . S
C455 C452 1.387 . S
C456 C457 1.387 . S
C456 H460 0.950 . S
C456 C465 1.390 . S
C457 C456 1.387 . S
C457 C459 1.387 . S
H458 C465 0.950 . S
C459 C457 1.387 . S
C459 C461 1.390 . S
C459 H463 0.952 . S
H460 C456 0.950 . S
C461 C459 1.390 . S
C461 C462 1.387 . S
C461 H464 0.950 . S
C462 C461 1.387 . S
C462 C465 1.387 . S
H463 C459 0.952 . S
H464 C461 0.950 . S
C465 C456 1.390 . S
C465 H458 0.950 . S
C465 C462 1.387 . S
C466 C467 1.387 1_545 S
C466 H470 0.950 . S
C466 C475 1.390 . S
C467 C466 1.387 1_565 S
C467 C469 1.387 . S
H468 C475 0.950 . S
C469 C467 1.387 . S
C469 C471 1.390 . S
C469 H473 0.950 . S
H470 C466 0.950 . S
C471 C469 1.390 . S
C471 C472 1.387 . S
C471 H474 0.950 . S
C472 C471 1.387 . S
C472 C475 1.387 1_565 S
H473 C469 0.950 . S
H474 C471 0.950 . S
C475 C466 1.390 . S
C475 H468 0.950 . S
C475 C472 1.387 1_545 S
C476 C477 1.387 . S
C476 H480 0.950 . S
C476 C485 1.390 . S
C477 C476 1.387 . S
C477 C479 1.387 . S
H478 C485 0.950 . S
C479 C477 1.387 . S
C479 C481 1.390 . S
C479 H483 0.950 . S
H480 C476 0.950 . S
C481 C479 1.390 . S
C481 C482 1.387 . S
C481 H484 0.950 . S
C482 C481 1.387 . S
C482 C485 1.387 . S
H483 C479 0.950 . S
H484 C481 0.950 . S
C485 C476 1.390 . S
C485 H478 0.950 . S
C485 C482 1.387 . S
C486 C487 1.387 . S
C486 H490 0.950 . S
C486 C495 1.390 . S
C487 C486 1.387 . S
C487 C489 1.387 . S
H488 C495 0.950 . S
C489 C487 1.387 . S
C489 C491 1.390 . S
C489 H493 0.950 . S
H490 C486 0.950 . S
C491 C489 1.390 . S
C491 C492 1.387 . S
C491 H494 0.950 . S
C492 C491 1.387 . S
C492 C495 1.387 . S
H493 C489 0.950 . S
H494 C491 0.950 . S
C495 C486 1.390 . S
C495 H488 0.950 . S
C495 C492 1.387 . S
C257 C76 1.930 . S
C262 C98 2.214 . S
C272 C138 2.231 . S
C267 C88 1.951 . S
C282 C178 2.242 . S
C277 C52 1.965 . S
C292 C218 2.225 1_455 S
C287 C64 1.943 1_455 S
C302 C111 2.216 1_554 S
C297 C28 1.934 1_545 S
C307 C40 1.947 . S
C312 C151 2.233 1_554 S
C317 C4 1.960 . S
C322 C191 2.242 1_554 S
C327 C16 1.948 . S
C332 C231 2.227 1_654 S
C342 C122 0.772 . S
C337 C69 0.767 1_655 S
C352 C162 0.764 . S
C347 C81 0.765 1_565 S
C362 C202 0.751 . S
C357 C93 0.753 . S
C367 C57 0.755 . S
C372 C242 0.754 . S
C377 C21 0.770 . S
C382 C105 0.775 . S
C392 C145 0.769 . S
C387 C33 0.765 . S
C402 C185 0.759 . S
C397 C45 0.758 . S
C407 C9 0.755 . S
C412 C225 0.755 . S
C417 C66 2.250 . S
C422 C99 2.583 . S
C427 C78 2.207 . S
C432 C139 2.545 . S
C442 C179 2.531 . S
C437 C90 2.190 . S
C452 C219 2.574 . S
C447 C54 2.230 . S
C457 C18 2.260 1_655 S
C462 C118 2.591 . S
C472 C158 2.546 . S
C467 C30 2.218 1_565 S
C482 C198 2.532 . S
C477 C42 2.207 . S
C487 C6 2.248 . S
C492 C238 2.576 . S
