# Generated by pormake.
# Topology sit, (3,6)-cn, num edge types: 1
# Building blocks:
#     Node 0, Type 0, BuildingBlock: CUQRIR_clean_linker_1, # of connection points: 3
#     Node 1, Type 0, BuildingBlock: CUQRIR_clean_linker_1, # of connection points: 3
#     Node 2, Type 0, BuildingBlock: CUQRIR_clean_linker_1, # of connection points: 3
#     Node 3, Type 0, BuildingBlock: CUQRIR_clean_linker_1, # of connection points: 3
#     Node 4, Type 1, BuildingBlock: MIDCAF_clean_sbu_0, # of connection points: 6
#     Node 5, Type 1, BuildingBlock: MIDCAF_clean_sbu_0, # of connection points: 6
#     Edge 6, Type (0, 1), BuildingBlock: ZUJKAS_clean_linker_0, # of connection points: 2
#     Edge 7, Type (0, 1), BuildingBlock: ZUJKAS_clean_linker_0, # of connection points: 2
#     Edge 8, Type (0, 1), BuildingBlock: ZUJKAS_clean_linker_0, # of connection points: 2
#     Edge 9, Type (0, 1), BuildingBlock: ZUJKAS_clean_linker_0, # of connection points: 2
#     Edge 10, Type (0, 1), BuildingBlock: ZUJKAS_clean_linker_0, # of connection points: 2
#     Edge 11, Type (0, 1), BuildingBlock: ZUJKAS_clean_linker_0, # of connection points: 2
#     Edge 12, Type (0, 1), BuildingBlock: ZUJKAS_clean_linker_0, # of connection points: 2
#     Edge 13, Type (0, 1), BuildingBlock: ZUJKAS_clean_linker_0, # of connection points: 2
#     Edge 14, Type (0, 1), BuildingBlock: ZUJKAS_clean_linker_0, # of connection points: 2
#     Edge 15, Type (0, 1), BuildingBlock: ZUJKAS_clean_linker_0, # of connection points: 2
#     Edge 16, Type (0, 1), BuildingBlock: ZUJKAS_clean_linker_0, # of connection points: 2
#     Edge 17, Type (0, 1), BuildingBlock: ZUJKAS_clean_linker_0, # of connection points: 2
# Relax obj value: 0.072
# Max RMSD: 0.180
# Mean RMSD: 0.122
data_MOF--net-sit--node1-MIDCAF_clean_sbu_0--node2-CUQRIR_clean_linker_1--edge1-ZUJKAS_clean_linker_0
_symmetry_space_group_name_H-M    P1
_symmetry_Int_Tables_number       1
_symmetry_cell_setting            triclinic
loop_
_symmetry_equiv_pos_as_xyz
'x, y, z'
_cell_length_a     25.419961
_cell_length_b     41.413326
_cell_length_c     45.837288
_cell_angle_alpha  90.180362
_cell_angle_beta   89.321443
_cell_angle_gamma 84.268736
loop_
_atom_site_label
_atom_site_type_symbol
_atom_site_fract_x
_atom_site_fract_y
_atom_site_fract_z
_atom_type_partial_charge
C0 C 0.06065 0.29149 0.04865 0.0
N1 N 0.07395 0.31631 0.03183 0.0
N2 N 0.10416 0.2715 0.05539 0.0
C3 C 0.00532 0.2866 0.05844 0.0
C4 C 0.14448 0.2851 0.0423 0.0
N5 N 0.12614 0.31249 0.02812 0.0
C6 C 0.20146 0.27133 0.04288 0.0
H7 H 0.98065 0.31017 0.06046 0.0
H8 H 0.00531 0.27375 0.07962 0.0
H9 H 0.98733 0.27149 0.042 0.0
H10 H 0.20548 0.24525 0.04871 0.0
H11 H 0.22239 0.2847 0.05943 0.0
H12 H 0.22073 0.27453 0.02137 0.0
C13 C 0.01959 0.73477 0.04137 0.0
N14 N 0.03712 0.70696 0.02718 0.0
N15 N 0.06068 0.7491 0.05241 0.0
C16 C 0.96291 0.74923 0.04252 0.0
C17 C 0.10382 0.72897 0.0445 0.0
N18 N 0.08953 0.70345 0.02898 0.0
C19 C 0.15934 0.73306 0.0538 0.0
H20 H 0.96027 0.77599 0.04512 0.0
H21 H 0.94283 0.73898 0.06147 0.0
H22 H 0.94187 0.7432 0.02245 0.0
H23 H 0.15929 0.74596 0.07505 0.0
H24 H 0.17835 0.74769 0.03722 0.0
H25 H 0.1831 0.70919 0.05566 0.0
C26 C 0.544 0.79425 0.54825 0.0
N27 N 0.55688 0.81959 0.53198 0.0
N28 N 0.58766 0.7739 0.55415 0.0
C29 C 0.48942 0.79051 0.55998 0.0
C30 C 0.62762 0.78794 0.54101 0.0
N31 N 0.60888 0.81578 0.52762 0.0
C32 C 0.68399 0.773 0.53904 0.0
H33 H 0.49142 0.77771 0.58122 0.0
H34 H 0.46849 0.77601 0.5443 0.0
H35 H 0.46629 0.81452 0.56279 0.0
H36 H 0.68625 0.7462 0.54087 0.0
H37 H 0.70659 0.78249 0.55718 0.0
H38 H 0.70276 0.77941 0.51815 0.0
C39 C 0.49884 0.22579 0.54965 0.0
N40 N 0.51748 0.19833 0.53526 0.0
N41 N 0.53885 0.2393 0.56275 0.0
C42 C 0.44188 0.2397 0.55029 0.0
C43 C 0.58247 0.21917 0.55572 0.0
N44 N 0.5695 0.19437 0.53883 0.0
C45 C 0.6378 0.22431 0.56465 0.0
H46 H 0.4372 0.26519 0.55809 0.0
H47 H 0.41932 0.22501 0.56522 0.0
H48 H 0.4247 0.23834 0.52823 0.0
H49 H 0.66296 0.20088 0.56579 0.0
H50 H 0.63801 0.23677 0.58607 0.0
H51 H 0.65517 0.23988 0.54821 0.0
Zn52 Zn 0.03357 0.07427 0.33723 0.0
Zn53 Zn 0.09776 0.94808 0.33274 0.0
Zn54 Zn 0.06584 0.0114 0.33501 0.0
C55 C 0.08757 0.96941 0.2754 0.0
C56 C -0.00161 0.95547 0.36079 0.0
O57 O 0.12754 0.03537 0.35765 0.0
O58 O 0.09544 0.08708 0.35919 0.0
C59 C 0.04672 0.05825 0.27846 0.0
O60 O 0.07223 0.9964 0.28842 0.0
O61 O 0.10229 0.94432 0.28984 0.0
O62 O 0.03482 0.93383 0.35353 0.0
O63 O 0.00325 0.98562 0.35564 0.0
O64 O 0.03077 0.08186 0.29483 0.0
O65 O 0.06172 0.03029 0.28954 0.0
O66 O 0.98953 0.01911 0.35989 0.0
O67 O 0.96641 0.07204 0.3584 0.0
C68 C 0.95717 0.04411 0.3666 0.0
O69 O 0.14104 1.00162 0.35956 0.0
O70 O 0.16398 0.94891 0.35435 0.0
C71 C 0.13186 0.06507 0.36494 0.0
C72 C 0.173 0.97609 0.36457 0.0
Zn73 Zn 0.55504 0.56981 0.83745 0.0
Zn74 Zn 0.61675 0.44478 0.83457 0.0
Zn75 Zn 0.58423 0.50756 0.83511 0.0
C76 C 0.60188 0.46348 0.77658 0.0
C77 C 0.51798 0.45287 0.8634 0.0
O78 O 0.64552 0.53143 0.85874 0.0
O79 O 0.60898 0.58172 0.86541 0.0
C80 C 0.57851 0.55453 0.77914 0.0
O81 O 0.58812 0.49126 0.7887 0.0
O82 O 0.61737 0.4392 0.7919 0.0
O83 O 0.55534 0.43133 0.85741 0.0
O84 O 0.52156 0.4827 0.85645 0.0
O85 O 0.56856 0.57862 0.79592 0.0
O86 O 0.58274 0.52545 0.78938 0.0
O87 O 0.50725 0.51649 0.85886 0.0
O88 O 0.48169 0.5685 0.85187 0.0
C89 C 0.47286 0.54134 0.86221 0.0
O90 O 0.65988 0.49769 0.85939 0.0
O91 O 0.68502 0.44524 0.85404 0.0
C92 C 0.64698 0.5602 0.86936 0.0
C93 C 0.69313 0.47266 0.86407 0.0
H94 H 0.11807 0.21015 0.0352 0.0
H95 H 0.1179 0.16016 0.06434 0.0
H96 H 0.09414 0.21819 0.14266 0.0
H97 H 0.09514 0.26779 0.11345 0.0
H98 H 0.1719 0.16463 0.14742 0.0
H99 H 0.98359 0.12903 0.10204 0.0
H100 H 0.03581 0.13558 0.07657 0.0
H101 H 0.00413 0.16915 0.09713 0.0
C102 C 0.11321 0.21187 0.05867 0.0
C103 C 0.10651 0.24238 0.07236 0.0
C104 C 0.11281 0.18353 0.07522 0.0
C105 C 0.10544 0.18551 0.10562 0.0
C106 C 0.09987 0.21613 0.11924 0.0
H107 H 0.98241 0.10001 0.24676 0.0
H108 H 0.001 0.12148 0.19878 0.0
C109 C 0.10033 0.24434 0.10271 0.0
C110 C 0.10225 0.15607 0.12361 0.0
H111 H 0.01934 0.09909 0.14167 0.0
C112 C 0.13923 0.14978 0.14586 0.0
C113 C 0.05954 0.13681 0.12137 0.0
C114 C 0.01819 0.14292 0.09814 0.0
C115 C 0.13277 0.12618 0.16715 0.0
C116 C 0.0885 0.10801 0.16584 0.0
C117 C 0.05345 0.11284 0.14244 0.0
C118 C 0.07235 0.08926 0.19137 0.0
C119 C 0.17107 0.12272 0.19215 0.0
C120 C 0.10475 0.06274 0.20251 0.0
C121 C 0.09414 0.05039 0.2302 0.0
C122 C 0.05101 0.06444 0.24688 0.0
C123 C 0.01619 0.08891 0.23446 0.0
C124 C 0.02667 0.10113 0.20697 0.0
H125 H 0.19944 0.14146 0.19166 0.0
H126 H 0.14938 0.12457 0.21336 0.0
H127 H 0.19404 0.09851 0.19101 0.0
H128 H 0.1398 0.05291 0.1906 0.0
H129 H 0.12185 0.0317 0.23938 0.0
H130 H 0.11264 0.80124 0.04053 0.0
H131 H 0.11598 0.84967 0.0715 0.0
H132 H 0.00828 0.81156 0.13283 0.0
H133 H 0.00544 0.76311 0.10201 0.0
H134 H 0.02437 0.89676 0.09916 0.0
H135 H 0.15583 0.82255 0.17493 0.0
H136 H 0.14727 0.81089 0.13742 0.0
H137 H 0.09668 0.80544 0.16408 0.0
C138 C 0.08946 0.80352 0.06053 0.0
C139 C 0.05909 0.7786 0.06917 0.0
C140 C 0.09101 0.83116 0.078 0.0
C141 C 0.06236 0.83407 0.10437 0.0
C142 C 0.03051 0.80971 0.11248 0.0
H143 H 0.00036 0.9722 0.24174 0.0
H144 H 0.99615 0.94566 0.19411 0.0
C145 C 0.02886 0.78217 0.09497 0.0
C146 C 0.06971 0.86081 0.12488 0.0
H147 H 0.12424 0.87526 0.19052 0.0
C148 C 0.04653 0.8923 0.11906 0.0
C149 C 0.09932 0.85487 0.15049 0.0
C150 C 0.12664 0.8217 0.15716 0.0
C151 C 0.05089 0.91793 0.13888 0.0
C152 C 0.07874 0.91162 0.16514 0.0
C153 C 0.10308 0.88023 0.17036 0.0
C154 C 0.08109 0.93615 0.18868 0.0
C155 C 0.02577 0.95138 0.13154 0.0
C156 C 0.13013 0.94091 0.20095 0.0
C157 C 0.13239 0.95543 0.22835 0.0
C158 C 0.08571 0.96605 0.24359 0.0
C159 C 0.03683 0.96469 0.23002 0.0
C160 C 0.03447 0.94955 0.20277 0.0
H161 H 0.02175 0.95457 0.10758 0.0
H162 H 0.98553 0.95485 0.14143 0.0
H163 H 0.04908 0.97049 0.14023 0.0
H164 H 0.16659 0.93081 0.1905 0.0
H165 H 0.17044 0.95597 0.23865 0.0
H166 H 0.65161 0.75686 0.59915 0.0
H167 H 0.65372 0.70693 0.62798 0.0
H168 H 0.53116 0.67381 0.57452 0.0
H169 H 0.52996 0.72354 0.54529 0.0
H170 H 0.51088 0.67339 0.6357 0.0
H171 H 0.7086 0.61155 0.60816 0.0
H172 H 0.7094 0.65362 0.61766 0.0
H173 H 0.67544 0.64269 0.58546 0.0
C174 C 0.62597 0.73858 0.59329 0.0
C175 C 0.59057 0.74392 0.57015 0.0
C176 C 0.62724 0.71009 0.60964 0.0
C177 C 0.59311 0.68648 0.6031 0.0
C178 C 0.55807 0.69162 0.57976 0.0
H179 H 0.52226 0.5382 0.73166 0.0
H180 H 0.52702 0.56173 0.68263 0.0
C181 C 0.55711 0.72003 0.56328 0.0
C182 C 0.59086 0.658 0.62239 0.0
H183 H 0.66781 0.59472 0.65238 0.0
C184 C 0.5447 0.65569 0.63898 0.0
C185 C 0.63505 0.635 0.62646 0.0
C186 C 0.68481 0.63556 0.6083 0.0
C187 C 0.54283 0.63249 0.66112 0.0
C188 C 0.58803 0.6104 0.66624 0.0
C189 C 0.63314 0.61153 0.6484 0.0
C190 C 0.59204 0.5898 0.69272 0.0
C191 C 0.49383 0.63346 0.68019 0.0
C192 C 0.62934 0.59586 0.71385 0.0
C193 C 0.62743 0.58182 0.74137 0.0
C194 C 0.58851 0.56124 0.74824 0.0
C195 C 0.55359 0.55317 0.72654 0.0
C196 C 0.55569 0.56713 0.69877 0.0
H197 H 0.46639 0.65564 0.67652 0.0
H198 H 0.47234 0.61209 0.67525 0.0
H199 H 0.50447 0.63254 0.70362 0.0
H200 H 0.65773 0.61322 0.70974 0.0
H201 H 0.65437 0.58864 0.75794 0.0
H202 H 0.51867 0.30008 0.54227 0.0
H203 H 0.51842 0.3509 0.57045 0.0
H204 H 0.55524 0.29521 0.64833 0.0
H205 H 0.55385 0.24476 0.6202 0.0
H206 H 0.47789 0.34534 0.65762 0.0
H207 H 0.6504 0.38885 0.59918 0.0
H208 H 0.5951 0.38103 0.57709 0.0
H209 H 0.63257 0.348 0.5951 0.0
C210 C 0.52626 0.29902 0.56546 0.0
C211 C 0.53646 0.26891 0.57929 0.0
C212 C 0.52656 0.32787 0.58145 0.0
C213 C 0.53762 0.32685 0.61141 0.0
C214 C 0.54673 0.2966 0.62523 0.0
H215 H 0.67063 0.42872 0.74054 0.0
H216 H 0.64921 0.40397 0.69442 0.0
C217 C 0.54609 0.26787 0.60929 0.0
C218 C 0.54046 0.35695 0.62873 0.0
H219 H 0.61599 0.41964 0.63934 0.0
C220 C 0.50748 0.36196 0.65341 0.0
C221 C 0.57916 0.37853 0.62311 0.0
C222 C 0.61667 0.37387 0.59733 0.0
C223 C 0.51418 0.38667 0.67364 0.0
C224 C 0.55416 0.4076 0.6686 0.0
C225 C 0.58507 0.4038 0.64299 0.0
C226 C 0.57059 0.42922 0.692 0.0
C227 C 0.48099 0.38848 0.70126 0.0
C228 C 0.53483 0.45324 0.70507 0.0
C229 C 0.54702 0.46729 0.73171 0.0
C230 C 0.59544 0.4579 0.74516 0.0
C231 C 0.63312 0.43647 0.73048 0.0
C232 C 0.62087 0.42232 0.70411 0.0
H233 H 0.45818 0.36711 0.70383 0.0
H234 H 0.50625 0.39004 0.72072 0.0
H235 H 0.45241 0.41053 0.70077 0.0
H236 H 0.49613 0.45936 0.69583 0.0
H237 H 0.51682 0.48304 0.74301 0.0
H238 H 0.20738 0.34481 0.04491 0.0
H239 H 0.2626 0.37606 0.01359 0.0
H240 H 0.16744 0.35631 0.93951 0.0
H241 H 0.11295 0.32455 0.9709 0.0
H242 H 0.27434 0.3409 0.93006 0.0
H243 H 0.23612 0.46548 0.97491 0.0
H244 H 0.25301 0.43561 0.00247 0.0
H245 H 0.19309 0.43416 0.98223 0.0
C246 C 0.19833 0.34744 0.02197 0.0
C247 C 0.1564 0.33238 0.01011 0.0
C248 C 0.22928 0.36556 0.0042 0.0
C249 C 0.21856 0.36895 0.97431 0.0
C250 C 0.176 0.35428 0.96256 0.0
H251 H 0.41455 0.47685 0.85638 0.0
H252 H 0.33663 0.45924 0.88183 0.0
C253 C 0.145 0.33623 0.98039 0.0
C254 C 0.25516 0.38482 0.95493 0.0
H255 H 0.31522 0.45436 0.94564 0.0
C256 C 0.28266 0.36587 0.93317 0.0
C257 C 0.2655 0.4175 0.95877 0.0
C258 C 0.23498 0.4395 0.98067 0.0
C259 C 0.32227 0.37816 0.91623 0.0
C260 C 0.33508 0.41009 0.92143 0.0
C261 C 0.30566 0.42973 0.94201 0.0
C262 C 0.38155 0.42236 0.90718 0.0
C263 C 0.35097 0.35663 0.89331 0.0
C264 C 0.43232 0.40786 0.91352 0.0
C265 C 0.47654 0.41812 0.8994 0.0
C266 C 0.47085 0.44328 0.87888 0.0
C267 C 0.42001 0.45798 0.87267 0.0
C268 C 0.3756 0.44781 0.88698 0.0
H269 H 0.32761 0.33658 0.88671 0.0
H270 H 0.35981 0.3708 0.87363 0.0
H271 H 0.38901 0.3457 0.90226 0.0
H272 H 0.43766 0.3884 0.92928 0.0
H273 H 0.51529 0.40637 0.90458 0.0
H274 H 0.04825 0.69158 0.97017 0.0
H275 H 0.99117 0.65934 0.94143 0.0
H276 H 0.89764 0.64483 0.01856 0.0
H277 H 0.95557 0.67647 0.04733 0.0
H278 H 0.91995 0.58787 0.98132 0.0
H279 H 0.83883 0.69852 0.92185 0.0
H280 H 0.90956 0.68993 0.92102 0.0
H281 H 0.87612 0.70052 0.95495 0.0
C282 C 0.01593 0.68101 0.98091 0.0
C283 C 0.00573 0.68648 0.01076 0.0
C284 C 0.98334 0.6628 0.96456 0.0
C285 C 0.93996 0.65002 0.97786 0.0
C286 C 0.93093 0.65452 0.00793 0.0
H287 H 0.64503 0.60116 0.91554 0.0
H288 H 0.72037 0.61932 0.94143 0.0
C289 C 0.96356 0.6727 0.02426 0.0
C290 C 0.90174 0.63394 0.9602 0.0
H291 H 0.80555 0.64942 0.9094 0.0
C292 C 0.89528 0.60114 0.96534 0.0
C293 C 0.86931 0.65154 0.93967 0.0
C294 C 0.87328 0.68714 0.93408 0.0
C295 C 0.85667 0.58557 0.95059 0.0
C296 C 0.82399 0.60333 0.93033 0.0
C297 C 0.83106 0.63591 0.92487 0.0
C298 C 0.77924 0.58958 0.91619 0.0
C299 C 0.84931 0.55075 0.95757 0.0
C300 C 0.78761 0.56677 0.89348 0.0
C301 C 0.74451 0.55651 0.87848 0.0
C302 C 0.69266 0.56875 0.88624 0.0
C303 C 0.68459 0.59123 0.90924 0.0
C304 C 0.72749 0.60153 0.92408 0.0
H305 H 0.87704 0.54052 0.9745 0.0
H306 H 0.80812 0.54899 0.96527 0.0
H307 H 0.8556 0.53575 0.93753 0.0
H308 H 0.82739 0.55768 0.88682 0.0
H309 H 0.75174 0.53974 0.86037 0.0
H310 H 0.0791 0.38094 0.03675 0.0
H311 H 0.01872 0.42422 0.01479 0.0
H312 H 0.92986 0.35166 0.97659 0.0
H313 H 0.99046 0.30875 -0.00197 0.0
H314 H 0.9938 0.43413 0.95438 0.0
H315 H 0.81699 0.41331 0.0203 0.0
H316 H 0.88325 0.39865 0.03107 0.0
H317 H 0.84862 0.3763 0.005 0.0
C318 C 0.04654 0.37448 0.02364 0.0
C319 C 0.03861 0.34173 0.01932 0.0
C320 C 0.01217 0.39907 0.01124 0.0
C321 C 0.96924 0.39109 0.99463 0.0
C322 C 0.96196 0.35833 0.98997 0.0
H323 H 0.79214 0.44502 0.85358 0.0
H324 H 0.86391 0.43707 0.88836 0.0
C325 C 0.99637 0.33387 0.0022 0.0
C326 C 0.93252 0.41653 0.98107 0.0
H327 H 0.80068 0.43794 0.97306 0.0
C328 C 0.95163 0.43567 0.95889 0.0
C329 C 0.87777 0.41921 0.98752 0.0
C330 C 0.85548 0.40102 0.01251 0.0
C331 C 0.91674 0.45495 0.94104 0.0
C332 C 0.86154 0.45457 0.94532 0.0
C333 C 0.84291 0.43803 0.96944 0.0
C334 C 0.8228 0.46593 0.92269 0.0
C335 C 0.93953 0.4743 0.91701 0.0
C336 C 0.77563 0.485 0.93019 0.0
C337 C 0.73424 0.48933 0.91026 0.0
C338 C 0.73951 0.47458 0.88263 0.0
C339 C 0.78752 0.45695 0.87466 0.0
C340 C 0.82876 0.45269 0.89446 0.0
H341 H 0.97605 0.48435 0.92443 0.0
H342 H 0.95069 0.45802 0.89818 0.0
H343 H 0.91108 0.49457 0.90955 0.0
H344 H 0.7698 0.49504 0.95197 0.0
H345 H 0.69712 0.5025 0.91704 0.0
H346 H 0.08397 0.63905 0.03588 0.0
H347 H 0.14369 0.59471 0.01397 0.0
H348 H 0.23207 0.66531 0.97161 0.0
H349 H 0.17214 0.70927 0.99304 0.0
H350 H 0.16862 0.58188 0.95306 0.0
H351 H 0.34483 0.6058 0.01608 0.0
H352 H 0.27842 0.62078 0.02731 0.0
H353 H 0.31304 0.64206 0.00011 0.0
C354 C 0.11618 0.64485 0.02181 0.0
C355 C 0.12417 0.67737 0.0163 0.0
C356 C 0.15019 0.61966 0.00943 0.0
C357 C 0.19282 0.6268 0.99167 0.0
C358 C 0.20012 0.65932 0.98582 0.0
H359 H 0.37513 0.57073 0.85186 0.0
H360 H 0.30157 0.57905 0.88656 0.0
C361 C 0.16609 0.68437 -0.00198 0.0
C362 C 0.22961 0.60072 0.97844 0.0
H363 H 0.36158 0.57888 0.9695 0.0
C364 C 0.21073 0.58055 0.9571 0.0
C365 C 0.2843 0.59831 0.98433 0.0
C366 C 0.30633 0.61765 0.00845 0.0
C367 C 0.24589 0.56042 0.9395 0.0
C368 C 0.30096 0.56104 0.94311 0.0
C369 C 0.31937 0.57866 0.96644 0.0
C370 C 0.33979 0.54892 0.92026 0.0
C371 C 0.22391 0.53974 0.91638 0.0
C372 C 0.38556 0.52876 0.92742 0.0
C373 C 0.42791 0.52412 0.90753 0.0
C374 C 0.425 0.53973 0.88034 0.0
C375 C 0.37807 0.55825 0.87261 0.0
C376 C 0.33581 0.56274 0.89235 0.0
H377 H 0.18493 0.5322 0.92328 0.0
H378 H 0.21791 0.55409 0.89607 0.0
H379 H 0.25126 0.51772 0.91146 0.0
H380 H 0.38967 0.51817 0.94895 0.0
H381 H 0.46405 0.51009 0.9141 0.0
H382 H 0.6925 0.84636 0.54357 0.0
H383 H 0.74698 0.87779 0.51197 0.0
H384 H 0.64585 0.86209 0.43939 0.0
H385 H 0.59223 0.83006 0.47098 0.0
H386 H 0.75105 0.8454 0.42733 0.0
H387 H 0.72292 0.9685 0.47608 0.0
H388 H 0.74035 0.93748 0.50251 0.0
H389 H 0.67868 0.9379 0.4836 0.0
C390 C 0.68191 0.85 0.52092 0.0
C391 C 0.63851 0.836 0.50954 0.0
C392 C 0.71248 0.8682 0.503 0.0
C393 C 0.69991 0.87275 0.47344 0.0
C394 C 0.65587 0.85918 0.4622 0.0
H395 H 0.89542 0.9813 0.35556 0.0
H396 H 0.81753 0.96388 0.38122 0.0
C397 C 0.62531 0.84099 0.48016 0.0
C398 C 0.73609 0.88855 0.45372 0.0
H399 H 0.7998 0.95683 0.44509 0.0
C400 C 0.76103 0.86995 0.43093 0.0
C401 C 0.74864 0.92072 0.4582 0.0
C402 C 0.72084 0.94245 0.48124 0.0
C403 C 0.80028 0.88199 0.41353 0.0
C404 C 0.81539 0.91329 0.41931 0.0
C405 C 0.78847 0.93266 0.44098 0.0
C406 C 0.86185 0.92502 0.40457 0.0
C407 C 0.82622 0.86083 0.3895 0.0
C408 C 0.91228 0.90923 0.40962 0.0
C409 C 0.95649 0.91933 0.39537 0.0
C410 C 0.95115 0.94561 0.376 0.0
C411 C 0.90063 0.96145 0.37091 0.0
C412 C 0.85623 0.95143 0.38537 0.0
H413 H 0.80111 0.84168 0.38281 0.0
H414 H 0.83468 0.87552 0.37008 0.0
H415 H 0.86427 0.84871 0.39741 0.0
H416 H 0.9174 0.889 0.4246 0.0
H417 H 0.995 0.90668 0.39966 0.0
H418 H 0.43462 0.16616 0.55069 0.0
H419 H 0.38071 0.13604 0.51819 0.0
H420 H 0.48111 0.15646 0.44534 0.0
H421 H 0.53398 0.18731 0.47786 0.0
H422 H 0.37624 0.17265 0.43496 0.0
H423 H 0.40647 0.04749 0.47797 0.0
H424 H 0.38798 0.07704 0.50594 0.0
H425 H 0.4498 0.07813 0.48661 0.0
C426 C 0.44505 0.16396 0.52776 0.0
C427 C 0.48798 0.17897 0.51658 0.0
C428 C 0.41487 0.14645 0.50931 0.0
C429 C 0.42746 0.14355 0.47943 0.0
C430 C 0.47107 0.15811 0.46837 0.0
H431 H 0.23506 0.03984 0.35789 0.0
H432 H 0.31236 0.05617 0.38393 0.0
C433 C 0.50119 0.17563 0.48685 0.0
C434 C 0.39175 0.12839 0.45935 0.0
H435 H 0.32948 0.06005 0.44826 0.0
C436 C 0.36671 0.14786 0.43757 0.0
C437 C 0.37981 0.09592 0.46251 0.0
C438 C 0.40785 0.0733 0.48433 0.0
C439 C 0.32791 0.13632 0.41997 0.0
C440 C 0.31335 0.10466 0.42452 0.0
C441 C 0.34039 0.08448 0.44512 0.0
C442 C 0.26724 0.09333 0.40969 0.0
C443 C 0.30183 0.15838 0.39707 0.0
C444 C 0.21656 0.10846 0.41599 0.0
C445 C 0.17269 0.09898 0.4015 0.0
C446 C 0.17864 0.07397 0.38063 0.0
C447 C 0.22939 0.05869 0.37437 0.0
C448 C 0.27345 0.06809 0.38906 0.0
H449 H 0.32653 0.17808 0.39108 0.0
H450 H 0.29399 0.14451 0.37708 0.0
H451 H 0.26343 0.16978 0.40575 0.0
H452 H 0.21101 0.12778 0.43206 0.0
H453 H 0.134 0.11118 0.40671 0.0
H454 H 0.47316 0.81211 0.49851 0.0
H455 H 0.41281 0.85502 0.4769 0.0
H456 H 0.5002 0.92757 0.51634 0.0
H457 H 0.56084 0.88424 0.53803 0.0
H458 H 0.34918 0.90551 0.50567 0.0
H459 H 0.49519 0.95251 0.42907 0.0
H460 H 0.50796 0.91374 0.44687 0.0
H461 H 0.51092 0.95054 0.46724 0.0
C462 C 0.47897 0.83724 0.50275 0.0
C463 C 0.52106 0.84508 0.51997 0.0
C464 C 0.44479 0.86169 0.49038 0.0
C465 C 0.4522 0.89446 0.49492 0.0
C466 C 0.49418 0.90244 0.5123 0.0
H467 H 0.18077 0.01012 0.41552 0.0
H468 H 0.25323 1.00256 0.45075 0.0
C469 C 0.52855 0.87783 0.52469 0.0
C470 C 0.41548 0.91971 0.48102 0.0
H471 H 0.40592 0.97126 0.42296 0.0
C472 C 0.36151 0.92053 0.488 0.0
C473 C 0.43202 0.9393 0.45813 0.0
C474 C 0.48959 0.93906 0.44963 0.0
C475 C 0.32313 0.93829 0.47116 0.0
C476 C 0.3394 0.95627 0.44702 0.0
C477 C 0.39365 0.95758 0.44155 0.0
C478 C 0.30145 0.96765 0.42404 0.0
C479 C 0.2655 0.93529 0.47784 0.0
C480 C 0.30617 0.95222 0.39672 0.0
C481 C 0.26554 0.95686 0.37661 0.0
C482 C 0.21947 0.97719 0.38332 0.0
C483 C 0.21615 0.99451 0.40979 0.0
C484 C 0.25724 0.99 0.42997 0.0
H485 H 0.26004 0.91714 0.49514 0.0
H486 H 0.24614 0.95909 0.48539 0.0
H487 H 0.24496 0.92813 0.45794 0.0
H488 H 0.33985 0.93486 0.39166 0.0
H489 H 0.26902 0.94327 0.35632 0.0
H490 H 0.65213 0.20231 0.50351 0.0
H491 H 0.71256 0.15962 0.48057 0.0
H492 H 0.62642 0.08664 0.52101 0.0
H493 H 0.56581 0.12976 0.5441 0.0
H494 H 0.77649 0.10883 0.50928 0.0
H495 H 0.63247 0.06211 0.43291 0.0
H496 H 0.61953 0.10112 0.45067 0.0
H497 H 0.6158 0.06461 0.47119 0.0
C498 C 0.64662 0.17715 0.50767 0.0
C499 C 0.60506 0.1691 0.5257 0.0
C500 C 0.68082 0.15282 0.49454 0.0
C501 C 0.67385 0.12 0.49906 0.0
C502 C 0.63215 0.11182 0.51704 0.0
H503 H 0.94815 0.00733 0.41571 0.0
H504 H 0.87441 0.01284 0.45126 0.0
C505 C 0.59781 0.1363 0.53022 0.0
C506 C 0.71093 0.09489 0.48465 0.0
H507 H 0.72214 0.04427 0.42554 0.0
C508 C 0.76469 0.09402 0.4914 0.0
C509 C 0.69503 0.07556 0.46152 0.0
C510 C 0.63765 0.07579 0.45339 0.0
C511 C 0.80355 0.07656 0.47406 0.0
C512 C 0.78797 0.059 0.4496 0.0
C513 C 0.73388 0.05763 0.44438 0.0
C514 C 0.82646 0.04854 0.42605 0.0
C515 C 0.861 0.07951 0.48056 0.0
C516 C 0.82232 0.06509 0.3994 0.0
C517 C 0.86373 0.06167 0.37914 0.0
C518 C 0.90996 0.04147 0.38501 0.0
C519 C 0.91266 0.02291 0.41066 0.0
C520 C 0.87082 0.02622 0.43101 0.0
H521 H 0.86596 0.09706 0.49846 0.0
H522 H 0.88043 0.0555 0.48714 0.0
H523 H 0.88183 0.08745 0.46081 0.0
H524 H 0.78853 0.08244 0.3951 0.0
H525 H 0.86075 0.0762 0.35949 0.0
loop_
_geom_bond_atom_site_label_1
_geom_bond_atom_site_label_2
_geom_bond_distance
_geom_bond_site_symmetry_2
_ccdc_geom_bond_type
C0 N1 1.317 . S
C0 N2 1.348 . S
C0 C3 1.485 . S
N1 C0 1.317 . S
N1 N5 1.370 . S
N2 C0 1.348 . S
N2 C4 1.346 . S
C3 C0 1.485 . S
C3 H7 0.960 . S
C3 H8 0.961 . S
C3 H9 0.960 . S
C4 N2 1.346 . S
C4 N5 1.307 . S
C4 C6 1.486 . S
N5 N1 1.370 . S
N5 C4 1.307 . S
C6 C4 1.486 . S
C6 H10 0.960 . S
C6 H11 0.960 . S
C6 H12 0.959 . S
H7 C3 0.960 . S
H8 C3 0.961 . S
H9 C3 0.960 . S
H10 C6 0.960 . S
H11 C6 0.960 . S
H12 C6 0.959 . S
C13 N14 1.317 . S
C13 N15 1.347 1_655 S
C13 C16 1.485 . S
N14 C13 1.317 . S
N14 N18 1.370 1_655 S
N15 C13 1.347 1_455 S
N15 C17 1.347 . S
C16 C13 1.485 . S
C16 H20 0.960 . S
C16 H21 0.961 . S
C16 H22 0.960 . S
C17 N15 1.347 . S
C17 N18 1.307 . S
C17 C19 1.486 . S
N18 N14 1.370 1_455 S
N18 C17 1.307 . S
C19 C17 1.486 . S
C19 H23 0.960 . S
C19 H24 0.960 . S
C19 H25 0.959 . S
H20 C16 0.960 . S
H21 C16 0.961 . S
H22 C16 0.960 . S
H23 C19 0.960 . S
H24 C19 0.960 . S
H25 C19 0.959 . S
C26 N27 1.317 . S
C26 N28 1.348 . S
C26 C29 1.485 . S
N27 C26 1.317 . S
N27 N31 1.370 . S
N28 C26 1.348 . S
N28 C30 1.346 . S
C29 C26 1.485 . S
C29 H33 0.960 . S
C29 H34 0.961 . S
C29 H35 0.960 . S
C30 N28 1.346 . S
C30 N31 1.307 . S
C30 C32 1.486 . S
N31 N27 1.370 . S
N31 C30 1.307 . S
C32 C30 1.486 . S
C32 H36 0.960 . S
C32 H37 0.960 . S
C32 H38 0.959 . S
H33 C29 0.960 . S
H34 C29 0.961 . S
H35 C29 0.960 . S
H36 C32 0.960 . S
H37 C32 0.960 . S
H38 C32 0.959 . S
C39 N40 1.317 . S
C39 N41 1.348 . S
C39 C42 1.485 . S
N40 C39 1.317 . S
N40 N44 1.370 . S
N41 C39 1.348 . S
N41 C43 1.346 . S
C42 C39 1.485 . S
C42 H46 0.960 . S
C42 H47 0.961 . S
C42 H48 0.960 . S
C43 N41 1.346 . S
C43 N44 1.307 . S
C43 C45 1.486 . S
N44 N40 1.370 . S
N44 C43 1.307 . S
C45 C43 1.486 . S
C45 H49 0.960 . S
C45 H50 0.960 . S
C45 H51 0.959 . S
H46 C42 0.960 . S
H47 C42 0.961 . S
H48 C42 0.960 . S
H49 C45 0.960 . S
H50 C45 0.960 . S
H51 C45 0.959 . S
Zn52 O58 1.920 . S
Zn52 O64 1.898 . S
Zn52 O67 1.905 1_455 S
Zn53 O61 1.905 . S
Zn53 O62 1.898 . S
Zn53 O70 1.920 . S
Zn54 O57 2.080 . S
Zn54 O60 2.114 1_545 S
Zn54 O63 2.120 1_545 S
Zn54 O65 2.120 . S
Zn54 O66 2.114 . S
Zn54 O69 2.080 1_545 S
C55 O60 1.166 . S
C55 O61 1.182 . S
C56 O62 1.167 . S
C56 O63 1.299 . S
O57 Zn54 2.080 . S
O57 C71 1.305 . S
O58 Zn52 1.920 . S
O58 C71 1.234 . S
C59 O64 1.167 . S
C59 O65 1.299 . S
O60 Zn54 2.114 1_565 S
O60 C55 1.166 . S
O61 Zn53 1.905 . S
O61 C55 1.182 . S
O62 Zn53 1.898 . S
O62 C56 1.167 . S
O63 Zn54 2.120 1_565 S
O63 C56 1.299 . S
O64 Zn52 1.898 . S
O64 C59 1.167 . S
O65 Zn54 2.120 . S
O65 C59 1.299 . S
O66 Zn54 2.114 . S
O66 C68 1.166 1_455 S
O67 Zn52 1.905 1_655 S
O67 C68 1.182 . S
C68 O66 1.166 1_655 S
C68 O67 1.182 . S
O69 Zn54 2.080 1_565 S
O69 C72 1.305 . S
O70 Zn53 1.920 . S
O70 C72 1.234 . S
C71 O57 1.305 . S
C71 O58 1.234 . S
C72 O69 1.305 . S
C72 O70 1.234 . S
Zn73 O79 1.920 . S
Zn73 O85 1.898 . S
Zn73 O88 1.905 . S
Zn74 O82 1.905 . S
Zn74 O83 1.898 . S
Zn74 O91 1.920 . S
Zn75 O78 2.080 . S
Zn75 O81 2.114 . S
Zn75 O84 2.120 . S
Zn75 O86 2.120 . S
Zn75 O87 2.114 . S
Zn75 O90 2.080 . S
C76 O81 1.166 . S
C76 O82 1.182 . S
C77 O83 1.167 . S
C77 O84 1.299 . S
O78 Zn75 2.080 . S
O78 C92 1.305 . S
O79 Zn73 1.920 . S
O79 C92 1.234 . S
C80 O85 1.167 . S
C80 O86 1.299 . S
O81 Zn75 2.114 . S
O81 C76 1.166 . S
O82 Zn74 1.905 . S
O82 C76 1.182 . S
O83 Zn74 1.898 . S
O83 C77 1.167 . S
O84 Zn75 2.120 . S
O84 C77 1.299 . S
O85 Zn73 1.898 . S
O85 C80 1.167 . S
O86 Zn75 2.120 . S
O86 C80 1.299 . S
O87 Zn75 2.114 . S
O87 C89 1.166 . S
O88 Zn73 1.905 . S
O88 C89 1.182 . S
C89 O87 1.166 . S
C89 O88 1.182 . S
O90 Zn75 2.080 . S
O90 C93 1.305 . S
O91 Zn74 1.920 . S
O91 C93 1.234 . S
C92 O78 1.305 . S
C92 O79 1.234 . S
C93 O90 1.305 . S
C93 O91 1.234 . S
H94 C102 0.929 . S
H95 C104 0.930 . S
H96 C106 0.930 . S
H97 C109 0.929 . S
H98 C112 0.930 . S
H99 C114 0.960 . S
H100 C114 0.960 . S
H101 C114 0.960 . S
C102 H94 0.929 . S
C102 C103 1.377 . S
C102 C104 1.384 . S
C103 C102 1.377 . S
C103 C109 1.390 . S
C104 H95 0.930 . S
C104 C102 1.384 . S
C104 C105 1.372 . S
C105 C104 1.372 . S
C105 C106 1.400 . S
C105 C110 1.490 . S
C106 H96 0.930 . S
C106 C105 1.400 . S
C106 C109 1.386 . S
H107 C123 0.930 . S
H108 C124 0.931 . S
C109 H97 0.929 . S
C109 C103 1.390 . S
C109 C106 1.386 . S
C110 C105 1.490 . S
C110 C112 1.395 . S
C110 C113 1.403 . S
H111 C117 0.930 . S
C112 H98 0.930 . S
C112 C110 1.395 . S
C112 C115 1.403 . S
C113 C110 1.403 . S
C113 C114 1.524 . S
C113 C117 1.400 . S
C114 H99 0.960 . S
C114 H100 0.960 . S
C114 H101 0.960 . S
C114 C113 1.524 . S
C115 C112 1.403 . S
C115 C116 1.392 . S
C115 C119 1.495 . S
C116 C115 1.392 . S
C116 C117 1.385 . S
C116 C118 1.478 . S
C117 H111 0.930 . S
C117 C113 1.400 . S
C117 C116 1.385 . S
C118 C116 1.478 . S
C118 C120 1.381 . S
C118 C124 1.383 . S
C119 C115 1.495 . S
C119 H125 0.959 . S
C119 H126 0.961 . S
C119 H127 0.960 . S
C120 C118 1.381 . S
C120 C121 1.394 . S
C120 H128 0.930 . S
C121 C120 1.394 . S
C121 C122 1.383 . S
C121 H129 0.929 . S
C122 C121 1.383 . S
C122 C123 1.377 . S
C123 H107 0.930 . S
C123 C122 1.377 . S
C123 C124 1.379 . S
C124 H108 0.931 . S
C124 C118 1.383 . S
C124 C123 1.379 . S
H125 C119 0.959 . S
H126 C119 0.961 . S
H127 C119 0.960 . S
H128 C120 0.930 . S
H129 C121 0.929 . S
H130 C138 0.929 . S
H131 C140 0.930 . S
H132 C142 0.930 . S
H133 C145 0.929 . S
H134 C148 0.930 . S
H135 C150 0.960 1_655 S
H136 C150 0.960 . S
H137 C150 0.960 1_655 S
C138 H130 0.929 . S
C138 C139 1.377 . S
C138 C140 1.384 . S
C139 C138 1.377 . S
C139 C145 1.390 1_455 S
C140 H131 0.930 . S
C140 C138 1.384 . S
C140 C141 1.372 . S
C141 C140 1.372 . S
C141 C142 1.400 1_455 S
C141 C146 1.490 . S
C142 H132 0.930 . S
C142 C141 1.400 1_655 S
C142 C145 1.386 . S
H143 C159 0.939 . S
H144 C160 0.931 . S
C145 H133 0.929 . S
C145 C139 1.390 1_655 S
C145 C142 1.386 . S
C146 C141 1.490 . S
C146 C148 1.395 . S
C146 C149 1.403 . S
H147 C153 0.930 . S
C148 H134 0.930 . S
C148 C146 1.395 . S
C148 C151 1.403 . S
C149 C146 1.403 . S
C149 C150 1.524 . S
C149 C153 1.400 . S
C150 H135 0.960 1_455 S
C150 H136 0.960 . S
C150 H137 0.960 1_455 S
C150 C149 1.524 . S
C151 C148 1.403 . S
C151 C152 1.392 . S
C151 C155 1.495 . S
C152 C151 1.392 . S
C152 C153 1.385 . S
C152 C154 1.478 . S
C153 H147 0.930 . S
C153 C149 1.400 . S
C153 C152 1.385 . S
C154 C152 1.478 . S
C154 C156 1.381 . S
C154 C160 1.383 1_455 S
C155 C151 1.495 . S
C155 H161 0.959 . S
C155 H162 0.961 . S
C155 H163 0.960 . S
C156 C154 1.381 . S
C156 C157 1.394 . S
C156 H164 0.930 . S
C157 C156 1.394 . S
C157 C158 1.383 . S
C157 H165 0.929 . S
C158 C157 1.383 . S
C158 C159 1.366 1_455 S
C159 H143 0.939 . S
C159 C158 1.366 1_655 S
C159 C160 1.381 . S
C160 H144 0.931 . S
C160 C154 1.383 1_655 S
C160 C159 1.381 . S
H161 C155 0.959 . S
H162 C155 0.961 . S
H163 C155 0.960 . S
H164 C156 0.930 . S
H165 C157 0.929 . S
H166 C174 0.929 . S
H167 C176 0.930 . S
H168 C178 0.930 . S
H169 C181 0.929 . S
H170 C184 0.930 . S
H171 C186 0.960 . S
H172 C186 0.960 . S
H173 C186 0.960 . S
C174 H166 0.929 . S
C174 C175 1.377 . S
C174 C176 1.384 . S
C175 C174 1.377 . S
C175 C181 1.390 . S
C176 H167 0.930 . S
C176 C174 1.384 . S
C176 C177 1.372 . S
C177 C176 1.372 . S
C177 C178 1.400 . S
C177 C182 1.490 . S
C178 H168 0.930 . S
C178 C177 1.400 . S
C178 C181 1.386 . S
H179 C195 0.930 . S
H180 C196 0.931 . S
C181 H169 0.929 . S
C181 C175 1.390 . S
C181 C178 1.386 . S
C182 C177 1.490 . S
C182 C184 1.395 . S
C182 C185 1.403 . S
H183 C189 0.930 . S
C184 H170 0.930 . S
C184 C182 1.395 . S
C184 C187 1.403 . S
C185 C182 1.403 . S
C185 C186 1.524 . S
C185 C189 1.400 . S
C186 H171 0.960 . S
C186 H172 0.960 . S
C186 H173 0.960 . S
C186 C185 1.524 . S
C187 C184 1.403 . S
C187 C188 1.392 . S
C187 C191 1.495 . S
C188 C187 1.392 . S
C188 C189 1.385 . S
C188 C190 1.478 . S
C189 H183 0.930 . S
C189 C185 1.400 . S
C189 C188 1.385 . S
C190 C188 1.478 . S
C190 C192 1.381 . S
C190 C196 1.383 . S
C191 C187 1.495 . S
C191 H197 0.959 . S
C191 H198 0.961 . S
C191 H199 0.960 . S
C192 C190 1.381 . S
C192 C193 1.394 . S
C192 H200 0.930 . S
C193 C192 1.394 . S
C193 C194 1.383 . S
C193 H201 0.929 . S
C194 C193 1.383 . S
C194 C195 1.377 . S
C195 H179 0.930 . S
C195 C194 1.377 . S
C195 C196 1.379 . S
C196 H180 0.931 . S
C196 C190 1.383 . S
C196 C195 1.379 . S
H197 C191 0.959 . S
H198 C191 0.961 . S
H199 C191 0.960 . S
H200 C192 0.930 . S
H201 C193 0.929 . S
H202 C210 0.929 . S
H203 C212 0.930 . S
H204 C214 0.930 . S
H205 C217 0.929 . S
H206 C220 0.930 . S
H207 C222 0.960 . S
H208 C222 0.960 . S
H209 C222 0.960 . S
C210 H202 0.929 . S
C210 C211 1.377 . S
C210 C212 1.384 . S
C211 C210 1.377 . S
C211 C217 1.390 . S
C212 H203 0.930 . S
C212 C210 1.384 . S
C212 C213 1.372 . S
C213 C212 1.372 . S
C213 C214 1.400 . S
C213 C218 1.490 . S
C214 H204 0.930 . S
C214 C213 1.400 . S
C214 C217 1.386 . S
H215 C231 0.930 . S
H216 C232 0.931 . S
C217 H205 0.929 . S
C217 C211 1.390 . S
C217 C214 1.386 . S
C218 C213 1.490 . S
C218 C220 1.395 . S
C218 C221 1.403 . S
H219 C225 0.930 . S
C220 H206 0.930 . S
C220 C218 1.395 . S
C220 C223 1.403 . S
C221 C218 1.403 . S
C221 C222 1.524 . S
C221 C225 1.400 . S
C222 H207 0.960 . S
C222 H208 0.960 . S
C222 H209 0.960 . S
C222 C221 1.524 . S
C223 C220 1.403 . S
C223 C224 1.392 . S
C223 C227 1.495 . S
C224 C223 1.392 . S
C224 C225 1.385 . S
C224 C226 1.478 . S
C225 H219 0.930 . S
C225 C221 1.400 . S
C225 C224 1.385 . S
C226 C224 1.478 . S
C226 C228 1.381 . S
C226 C232 1.383 . S
C227 C223 1.495 . S
C227 H233 0.959 . S
C227 H234 0.961 . S
C227 H235 0.960 . S
C228 C226 1.381 . S
C228 C229 1.394 . S
C228 H236 0.930 . S
C229 C228 1.394 . S
C229 C230 1.383 . S
C229 H237 0.929 . S
C230 C229 1.383 . S
C230 C231 1.377 . S
C231 H215 0.930 . S
C231 C230 1.377 . S
C231 C232 1.379 . S
C232 H216 0.931 . S
C232 C226 1.383 . S
C232 C231 1.379 . S
H233 C227 0.959 . S
H234 C227 0.961 . S
H235 C227 0.960 . S
H236 C228 0.930 . S
H237 C229 0.929 . S
H238 C246 0.929 . S
H239 C248 0.930 . S
H240 C250 0.930 . S
H241 C253 0.929 . S
H242 C256 0.930 . S
H243 C258 0.960 . S
H244 C258 0.960 . S
H245 C258 0.960 . S
C246 H238 0.929 . S
C246 C247 1.364 1_554 S
C246 C248 1.384 . S
C247 C246 1.364 1_556 S
C247 C253 1.411 . S
C248 H239 0.930 . S
C248 C246 1.384 . S
C248 C249 1.372 1_554 S
C249 C248 1.372 1_556 S
C249 C250 1.400 . S
C249 C254 1.490 . S
C250 H240 0.930 . S
C250 C249 1.400 . S
C250 C253 1.386 . S
H251 C267 0.930 . S
H252 C268 0.931 . S
C253 H241 0.929 . S
C253 C247 1.411 . S
C253 C250 1.386 . S
C254 C249 1.490 . S
C254 C256 1.395 . S
C254 C257 1.403 . S
H255 C261 0.930 . S
C256 H242 0.930 . S
C256 C254 1.395 . S
C256 C259 1.403 . S
C257 C254 1.403 . S
C257 C258 1.524 . S
C257 C261 1.400 . S
C258 H243 0.960 . S
C258 H244 0.960 . S
C258 H245 0.960 . S
C258 C257 1.524 . S
C259 C256 1.403 . S
C259 C260 1.392 . S
C259 C263 1.495 . S
C260 C259 1.392 . S
C260 C261 1.385 . S
C260 C262 1.478 . S
C261 H255 0.930 . S
C261 C257 1.400 . S
C261 C260 1.385 . S
C262 C260 1.478 . S
C262 C264 1.381 . S
C262 C268 1.383 . S
C263 C259 1.495 . S
C263 H269 0.959 . S
C263 H270 0.961 . S
C263 H271 0.960 . S
C264 C262 1.381 . S
C264 C265 1.394 . S
C264 H272 0.930 . S
C265 C264 1.394 . S
C265 C266 1.383 . S
C265 H273 0.929 . S
C266 C265 1.383 . S
C266 C267 1.377 . S
C267 H251 0.930 . S
C267 C266 1.377 . S
C267 C268 1.379 . S
C268 H252 0.931 . S
C268 C262 1.383 . S
C268 C267 1.379 . S
H269 C263 0.959 . S
H270 C263 0.961 . S
H271 C263 0.960 . S
H272 C264 0.930 . S
H273 C265 0.929 . S
H274 C282 0.929 . S
H275 C284 0.930 . S
H276 C286 0.930 . S
H277 C289 0.929 . S
H278 C292 0.930 . S
H279 C294 0.960 . S
H280 C294 0.960 . S
H281 C294 0.960 . S
C282 H274 0.929 . S
C282 C283 1.341 1_556 S
C282 C284 1.384 . S
C283 C282 1.341 1_554 S
C283 C289 1.411 . S
C284 H275 0.930 . S
C284 C282 1.384 . S
C284 C285 1.372 . S
C285 C284 1.372 . S
C285 C286 1.400 1_556 S
C285 C290 1.490 . S
C286 H276 0.930 . S
C286 C285 1.400 1_554 S
C286 C289 1.386 . S
H287 C303 0.930 . S
H288 C304 0.931 . S
C289 H277 0.929 . S
C289 C283 1.411 . S
C289 C286 1.386 . S
C290 C285 1.490 . S
C290 C292 1.395 . S
C290 C293 1.403 . S
H291 C297 0.930 . S
C292 H278 0.930 . S
C292 C290 1.395 . S
C292 C295 1.403 . S
C293 C290 1.403 . S
C293 C294 1.524 . S
C293 C297 1.400 . S
C294 H279 0.960 . S
C294 H280 0.960 . S
C294 H281 0.960 . S
C294 C293 1.524 . S
C295 C292 1.403 . S
C295 C296 1.392 . S
C295 C299 1.495 . S
C296 C295 1.392 . S
C296 C297 1.385 . S
C296 C298 1.478 . S
C297 H291 0.930 . S
C297 C293 1.400 . S
C297 C296 1.385 . S
C298 C296 1.478 . S
C298 C300 1.381 . S
C298 C304 1.383 . S
C299 C295 1.495 . S
C299 H305 0.959 . S
C299 H306 0.961 . S
C299 H307 0.960 . S
C300 C298 1.381 . S
C300 C301 1.394 . S
C300 H308 0.930 . S
C301 C300 1.394 . S
C301 C302 1.383 . S
C301 H309 0.929 . S
C302 C301 1.383 . S
C302 C303 1.377 . S
C303 H287 0.930 . S
C303 C302 1.377 . S
C303 C304 1.379 . S
C304 H288 0.931 . S
C304 C298 1.383 . S
C304 C303 1.379 . S
H305 C299 0.959 . S
H306 C299 0.961 . S
H307 C299 0.960 . S
H308 C300 0.930 . S
H309 C301 0.929 . S
H310 C318 0.929 . S
H311 C320 0.930 . S
H312 C322 0.930 1_655 S
H313 C325 0.929 . S
H314 C328 0.930 . S
H315 C330 0.960 . S
H316 C330 0.960 . S
H317 C330 0.960 . S
C318 H310 0.929 . S
C318 C319 1.377 1_554 S
C318 C320 1.384 1_554 S
C319 C318 1.377 1_556 S
C319 C325 1.390 . S
C320 H311 0.930 . S
C320 C318 1.384 1_556 S
C320 C321 1.372 1_455 S
C321 C320 1.372 1_655 S
C321 C322 1.400 1_655 S
C321 C326 1.490 . S
C322 H312 0.930 1_455 S
C322 C321 1.400 1_455 S
C322 C325 1.386 . S
H323 C339 0.930 . S
H324 C340 0.931 . S
C325 H313 0.929 . S
C325 C319 1.390 . S
C325 C322 1.386 . S
C326 C321 1.490 . S
C326 C328 1.395 . S
C326 C329 1.403 . S
H327 C333 0.930 . S
C328 H314 0.930 . S
C328 C326 1.395 . S
C328 C331 1.403 . S
C329 C326 1.403 . S
C329 C330 1.524 . S
C329 C333 1.400 . S
C330 H315 0.960 . S
C330 H316 0.960 . S
C330 H317 0.960 . S
C330 C329 1.524 . S
C331 C328 1.403 . S
C331 C332 1.392 . S
C331 C335 1.495 . S
C332 C331 1.392 . S
C332 C333 1.385 . S
C332 C334 1.478 . S
C333 H327 0.930 . S
C333 C329 1.400 . S
C333 C332 1.385 . S
C334 C332 1.478 . S
C334 C336 1.381 . S
C334 C340 1.383 . S
C335 C331 1.495 . S
C335 H341 0.959 . S
C335 H342 0.961 . S
C335 H343 0.960 . S
C336 C334 1.381 . S
C336 C337 1.394 . S
C336 H344 0.930 . S
C337 C336 1.394 . S
C337 C338 1.383 . S
C337 H345 0.929 . S
C338 C337 1.383 . S
C338 C339 1.377 . S
C339 H323 0.930 . S
C339 C338 1.377 . S
C339 C340 1.379 . S
C340 H324 0.931 . S
C340 C334 1.383 . S
C340 C339 1.379 . S
H341 C335 0.959 . S
H342 C335 0.961 . S
H343 C335 0.960 . S
H344 C336 0.930 . S
H345 C337 0.929 . S
H346 C354 0.929 . S
H347 C356 0.935 . S
H348 C358 0.930 . S
H349 C361 0.929 . S
H350 C364 0.930 . S
H351 C366 0.960 . S
H352 C366 0.960 . S
H353 C366 0.960 . S
C354 H346 0.929 . S
C354 C355 1.377 1_554 S
C354 C356 1.384 1_554 S
C355 C354 1.377 1_556 S
C355 C361 1.390 . S
C356 H347 0.935 . S
C356 C354 1.384 1_556 S
C356 C357 1.372 . S
C357 C356 1.372 . S
C357 C358 1.400 . S
C357 C362 1.490 . S
C358 H348 0.930 . S
C358 C357 1.400 . S
C358 C361 1.386 . S
H359 C375 0.930 . S
H360 C376 0.931 . S
C361 H349 0.929 . S
C361 C355 1.390 . S
C361 C358 1.386 . S
C362 C357 1.490 . S
C362 C364 1.395 . S
C362 C365 1.403 . S
H363 C369 0.930 . S
C364 H350 0.930 . S
C364 C362 1.395 . S
C364 C367 1.403 . S
C365 C362 1.403 . S
C365 C366 1.524 . S
C365 C369 1.400 . S
C366 H351 0.960 . S
C366 H352 0.960 . S
C366 H353 0.960 . S
C366 C365 1.524 . S
C367 C364 1.403 . S
C367 C368 1.392 . S
C367 C371 1.495 . S
C368 C367 1.392 . S
C368 C369 1.385 . S
C368 C370 1.478 . S
C369 H363 0.930 . S
C369 C365 1.400 . S
C369 C368 1.385 . S
C370 C368 1.478 . S
C370 C372 1.381 . S
C370 C376 1.383 . S
C371 C367 1.495 . S
C371 H377 0.959 . S
C371 H378 0.961 . S
C371 H379 0.960 . S
C372 C370 1.381 . S
C372 C373 1.394 . S
C372 H380 0.930 . S
C373 C372 1.394 . S
C373 C374 1.383 . S
C373 H381 0.929 . S
C374 C373 1.383 . S
C374 C375 1.377 . S
C375 H359 0.930 . S
C375 C374 1.377 . S
C375 C376 1.379 . S
C376 H360 0.931 . S
C376 C370 1.383 . S
C376 C375 1.379 . S
H377 C371 0.959 . S
H378 C371 0.961 . S
H379 C371 0.960 . S
H380 C372 0.930 . S
H381 C373 0.929 . S
H382 C390 0.929 . S
H383 C392 0.930 . S
H384 C394 0.930 . S
H385 C397 0.929 . S
H386 C400 0.930 . S
H387 C402 0.960 . S
H388 C402 0.960 . S
H389 C402 0.960 . S
C390 H382 0.929 . S
C390 C391 1.377 . S
C390 C392 1.384 . S
C391 C390 1.377 . S
C391 C397 1.390 . S
C392 H383 0.930 . S
C392 C390 1.384 . S
C392 C393 1.372 . S
C393 C392 1.372 . S
C393 C394 1.400 . S
C393 C398 1.490 . S
C394 H384 0.930 . S
C394 C393 1.400 . S
C394 C397 1.386 . S
H395 C411 0.930 . S
H396 C412 0.931 . S
C397 H385 0.929 . S
C397 C391 1.390 . S
C397 C394 1.386 . S
C398 C393 1.490 . S
C398 C400 1.395 . S
C398 C401 1.403 . S
H399 C405 0.930 . S
C400 H386 0.930 . S
C400 C398 1.395 . S
C400 C403 1.403 . S
C401 C398 1.403 . S
C401 C402 1.524 . S
C401 C405 1.400 . S
C402 H387 0.960 . S
C402 H388 0.960 . S
C402 H389 0.960 . S
C402 C401 1.524 . S
C403 C400 1.403 . S
C403 C404 1.392 . S
C403 C407 1.495 . S
C404 C403 1.392 . S
C404 C405 1.385 . S
C404 C406 1.478 . S
C405 H399 0.930 . S
C405 C401 1.400 . S
C405 C404 1.385 . S
C406 C404 1.478 . S
C406 C408 1.381 . S
C406 C412 1.383 . S
C407 C403 1.495 . S
C407 H413 0.959 . S
C407 H414 0.961 . S
C407 H415 0.960 . S
C408 C406 1.381 . S
C408 C409 1.394 1_655 S
C408 H416 0.930 . S
C409 C408 1.394 1_455 S
C409 C410 1.383 1_455 S
C409 H417 0.929 . S
C410 C409 1.383 1_655 S
C410 C411 1.377 . S
C411 H395 0.930 . S
C411 C410 1.377 . S
C411 C412 1.379 . S
C412 H396 0.931 . S
C412 C406 1.383 . S
C412 C411 1.379 . S
H413 C407 0.959 . S
H414 C407 0.961 . S
H415 C407 0.960 . S
H416 C408 0.930 . S
H417 C409 0.929 . S
H418 C426 0.929 . S
H419 C428 0.930 . S
H420 C430 0.930 . S
H421 C433 0.929 . S
H422 C436 0.930 . S
H423 C438 0.960 . S
H424 C438 0.960 . S
H425 C438 0.960 . S
C426 H418 0.929 . S
C426 C427 1.377 . S
C426 C428 1.384 . S
C427 C426 1.377 . S
C427 C433 1.390 . S
C428 H419 0.930 . S
C428 C426 1.384 . S
C428 C429 1.372 . S
C429 C428 1.372 . S
C429 C430 1.400 . S
C429 C434 1.490 . S
C430 H420 0.930 . S
C430 C429 1.400 . S
C430 C433 1.386 . S
H431 C447 0.930 . S
H432 C448 0.931 . S
C433 H421 0.929 . S
C433 C427 1.390 . S
C433 C430 1.386 . S
C434 C429 1.490 . S
C434 C436 1.395 . S
C434 C437 1.403 . S
H435 C441 0.930 . S
C436 H422 0.930 . S
C436 C434 1.395 . S
C436 C439 1.403 . S
C437 C434 1.403 . S
C437 C438 1.524 . S
C437 C441 1.400 . S
C438 H423 0.960 . S
C438 H424 0.960 . S
C438 H425 0.960 . S
C438 C437 1.524 . S
C439 C436 1.403 . S
C439 C440 1.392 . S
C439 C443 1.495 . S
C440 C439 1.392 . S
C440 C441 1.385 . S
C440 C442 1.478 . S
C441 H435 0.930 . S
C441 C437 1.400 . S
C441 C440 1.385 . S
C442 C440 1.478 . S
C442 C444 1.381 . S
C442 C448 1.383 . S
C443 C439 1.495 . S
C443 H449 0.959 . S
C443 H450 0.961 . S
C443 H451 0.960 . S
C444 C442 1.381 . S
C444 C445 1.394 . S
C444 H452 0.930 . S
C445 C444 1.394 . S
C445 C446 1.383 . S
C445 H453 0.929 . S
C446 C445 1.383 . S
C446 C447 1.377 . S
C447 H431 0.930 . S
C447 C446 1.377 . S
C447 C448 1.379 . S
C448 H432 0.931 . S
C448 C442 1.383 . S
C448 C447 1.379 . S
H449 C443 0.959 . S
H450 C443 0.961 . S
H451 C443 0.960 . S
H452 C444 0.930 . S
H453 C445 0.929 . S
H454 C462 0.929 . S
H455 C464 0.930 . S
H456 C466 0.930 . S
H457 C469 0.929 . S
H458 C472 0.930 . S
H459 C474 0.960 . S
H460 C474 0.960 . S
H461 C474 0.960 . S
C462 H454 0.929 . S
C462 C463 1.377 . S
C462 C464 1.384 . S
C463 C462 1.377 . S
C463 C469 1.390 . S
C464 H455 0.930 . S
C464 C462 1.384 . S
C464 C465 1.372 . S
C465 C464 1.372 . S
C465 C466 1.400 . S
C465 C470 1.490 . S
C466 H456 0.930 . S
C466 C465 1.400 . S
C466 C469 1.386 . S
H467 C483 0.930 . S
H468 C484 0.931 . S
C469 H457 0.929 . S
C469 C463 1.390 . S
C469 C466 1.386 . S
C470 C465 1.490 . S
C470 C472 1.395 . S
C470 C473 1.403 . S
H471 C477 0.930 . S
C472 H458 0.930 . S
C472 C470 1.395 . S
C472 C475 1.403 . S
C473 C470 1.403 . S
C473 C474 1.524 . S
C473 C477 1.400 . S
C474 H459 0.960 . S
C474 H460 0.960 . S
C474 H461 0.960 . S
C474 C473 1.524 . S
C475 C472 1.403 . S
C475 C476 1.392 . S
C475 C479 1.495 . S
C476 C475 1.392 . S
C476 C477 1.385 . S
C476 C478 1.478 . S
C477 H471 0.930 . S
C477 C473 1.400 . S
C477 C476 1.385 . S
C478 C476 1.478 . S
C478 C480 1.381 . S
C478 C484 1.383 . S
C479 C475 1.495 . S
C479 H485 0.959 . S
C479 H486 0.961 . S
C479 H487 0.960 . S
C480 C478 1.381 . S
C480 C481 1.394 . S
C480 H488 0.930 . S
C481 C480 1.394 . S
C481 C482 1.383 . S
C481 H489 0.929 . S
C482 C481 1.383 . S
C482 C483 1.377 . S
C483 H467 0.930 . S
C483 C482 1.377 . S
C483 C484 1.379 . S
C484 H468 0.931 . S
C484 C478 1.383 . S
C484 C483 1.379 . S
H485 C479 0.959 . S
H486 C479 0.961 . S
H487 C479 0.960 . S
H488 C480 0.930 . S
H489 C481 0.929 . S
H490 C498 0.929 . S
H491 C500 0.930 . S
H492 C502 0.930 . S
H493 C505 0.929 . S
H494 C508 0.930 . S
H495 C510 0.960 . S
H496 C510 0.960 . S
H497 C510 0.960 . S
C498 H490 0.929 . S
C498 C499 1.377 . S
C498 C500 1.384 . S
C499 C498 1.377 . S
C499 C505 1.390 . S
C500 H491 0.930 . S
C500 C498 1.384 . S
C500 C501 1.372 . S
C501 C500 1.372 . S
C501 C502 1.400 . S
C501 C506 1.490 . S
C502 H492 0.930 . S
C502 C501 1.400 . S
C502 C505 1.386 . S
H503 C519 0.930 . S
H504 C520 0.931 . S
C505 H493 0.929 . S
C505 C499 1.390 . S
C505 C502 1.386 . S
C506 C501 1.490 . S
C506 C508 1.395 . S
C506 C509 1.403 . S
H507 C513 0.930 . S
C508 H494 0.930 . S
C508 C506 1.395 . S
C508 C511 1.403 . S
C509 C506 1.403 . S
C509 C510 1.524 . S
C509 C513 1.400 . S
C510 H495 0.960 . S
C510 H496 0.960 . S
C510 H497 0.960 . S
C510 C509 1.524 . S
C511 C508 1.403 . S
C511 C512 1.392 . S
C511 C515 1.495 . S
C512 C511 1.392 . S
C512 C513 1.385 . S
C512 C514 1.478 . S
C513 H507 0.930 . S
C513 C509 1.400 . S
C513 C512 1.385 . S
C514 C512 1.478 . S
C514 C516 1.381 . S
C514 C520 1.383 . S
C515 C511 1.495 . S
C515 H521 0.959 . S
C515 H522 0.961 . S
C515 H523 0.960 . S
C516 C514 1.381 . S
C516 C517 1.394 . S
C516 H524 0.930 . S
C517 C516 1.394 . S
C517 C518 1.383 . S
C517 H525 0.929 . S
C518 C517 1.383 . S
C518 C519 1.377 . S
C519 H503 0.930 . S
C519 C518 1.377 . S
C519 C520 1.379 . S
C520 H504 0.931 . S
C520 C514 1.383 . S
C520 C519 1.379 . S
H521 C515 0.959 . S
H522 C515 0.961 . S
H523 C515 0.960 . S
H524 C516 0.930 . S
H525 C517 0.929 . S
C122 C59 1.358 . S
C103 N2 1.515 . S
C158 C55 1.426 . S
C139 N15 1.509 . S
C194 C80 1.347 . S
C175 N28 1.514 . S
C211 N41 1.513 . S
C230 C76 1.371 . S
C247 N5 1.177 1_556 S
C266 C77 1.030 . S
C302 C92 1.127 . S
C283 N14 1.227 . S
C319 N1 1.793 1_556 S
C338 C93 1.672 . S
C374 C89 1.692 . S
C355 N18 1.800 1_556 S
C410 C56 1.013 1_655 S
C391 N31 1.187 . S
C427 N40 1.197 . S
C446 C71 1.032 . S
C482 C72 1.613 . S
C463 N27 1.795 . S
C518 C68 1.638 . S
C499 N44 1.804 . S
