# Generated by pormake.
# Topology pth, (4,4)-cn, num edge types: 1
# Building blocks:
#     Node 0, Type 0, BuildingBlock: UXUYUI_clean_sbu_0, # of connection points: 4
#     Node 1, Type 0, BuildingBlock: UXUYUI_clean_sbu_0, # of connection points: 4
#     Node 2, Type 0, BuildingBlock: UXUYUI_clean_sbu_0, # of connection points: 4
#     Node 3, Type 1, BuildingBlock: MUDLON_clean_linker_0, # of connection points: 4
#     Node 4, Type 1, BuildingBlock: MUDLON_clean_linker_0, # of connection points: 4
#     Node 5, Type 1, BuildingBlock: MUDLON_clean_linker_0, # of connection points: 4
#     Edge 6, Type (0, 1), BuildingBlock: MIFKUJ_clean_linker_0, # of connection points: 2
#     Edge 7, Type (0, 1), BuildingBlock: MIFKUJ_clean_linker_0, # of connection points: 2
#     Edge 8, Type (0, 1), BuildingBlock: MIFKUJ_clean_linker_0, # of connection points: 2
#     Edge 9, Type (0, 1), BuildingBlock: MIFKUJ_clean_linker_0, # of connection points: 2
#     Edge 10, Type (0, 1), BuildingBlock: MIFKUJ_clean_linker_0, # of connection points: 2
#     Edge 11, Type (0, 1), BuildingBlock: MIFKUJ_clean_linker_0, # of connection points: 2
#     Edge 12, Type (0, 1), BuildingBlock: MIFKUJ_clean_linker_0, # of connection points: 2
#     Edge 13, Type (0, 1), BuildingBlock: MIFKUJ_clean_linker_0, # of connection points: 2
#     Edge 14, Type (0, 1), BuildingBlock: MIFKUJ_clean_linker_0, # of connection points: 2
#     Edge 15, Type (0, 1), BuildingBlock: MIFKUJ_clean_linker_0, # of connection points: 2
#     Edge 16, Type (0, 1), BuildingBlock: MIFKUJ_clean_linker_0, # of connection points: 2
#     Edge 17, Type (0, 1), BuildingBlock: MIFKUJ_clean_linker_0, # of connection points: 2
# Relax obj value: 0.087
# Max RMSD: 0.213
# Mean RMSD: 0.143
data_MOF--net-pth--node1-UXUYUI_clean_sbu_0--node2-MUDLON_clean_linker_0--edge1-MIFKUJ_clean_linker_0
_symmetry_space_group_name_H-M    P1
_symmetry_Int_Tables_number       1
_symmetry_cell_setting            triclinic
loop_
_symmetry_equiv_pos_as_xyz
'x, y, z'
_cell_length_a     46.785429
_cell_length_b     46.786872
_cell_length_c     94.137039
_cell_angle_alpha  90.036565
_cell_angle_beta   89.98436
_cell_angle_gamma 119.99763
loop_
_atom_site_label
_atom_site_type_symbol
_atom_site_fract_x
_atom_site_fract_y
_atom_site_fract_z
_atom_type_partial_charge
Li0 Li 0.04637 0.02229 0.02584 0.0
Li1 Li 0.01053 0.02544 0.04436 0.0
Li2 Li 0.02625 0.98331 0.0443 0.0
Li3 Li 0.98713 0.98046 0.02606 0.0
C4 C 0.07359 0.03201 0.05774 0.0
N5 N 0.1085 0.02983 0.08099 0.0
C6 C 0.06567 0.03767 0.07138 0.0
C7 C 0.09951 0.02558 0.05592 0.0
C8 C 0.08357 0.0364 0.083 0.0
C9 C 0.11678 0.02447 0.06781 0.0
C10 C 0.00583 0.05227 0.01589 0.0
C11 C 0.97495 0.07107 0.00208 0.0
N12 N 0.00276 0.10091 0.00044 0.0
C13 C 0.03408 0.08318 0.01408 0.0
C14 C 0.976 0.04617 0.00984 0.0
C15 C 0.03203 0.10742 0.00623 0.0
C16 C 0.07641 0.04986 -0.00059 0.0
N17 N 0.08197 0.04946 0.01356 0.0
C18 C 0.1374 0.09363 0.01101 0.0
C19 C 0.1118 0.07038 0.01943 0.0
C20 C 0.13212 0.09544 0.99643 0.0
C21 C 0.10134 0.07272 0.99058 0.0
H22 H 0.0522 0.03332 0.99511 0.0
H23 H 0.11536 0.06981 0.03074 0.0
C24 C 0.98661 0.04383 0.06847 0.0
N25 N 0.00168 0.0542 0.05564 0.0
C26 C 0.98097 0.06497 0.07701 0.0
C27 C 0.00628 0.107 0.05895 0.0
C28 C 0.01169 0.08519 0.05086 0.0
C29 C 0.99092 0.09713 0.07229 0.0
H30 H 0.97955 0.01934 0.07223 0.0
H31 H 0.02429 0.09325 0.04084 0.0
C32 C 0.04302 0.97164 0.01261 0.0
N33 N 0.07901 0.96968 0.98971 0.0
C34 C 0.02801 0.96091 -0.00066 0.0
C35 C 0.07626 0.98093 0.01426 0.0
C36 C 0.04663 0.96019 0.98788 0.0
C37 C 0.09407 0.97991 0.00255 0.0
C38 C 0.95006 0.97 0.05089 0.0
C39 C 0.93255 0.94656 0.06139 0.0
C40 C 0.9355 0.98605 0.04407 0.0
C41 C 0.90063 0.93949 0.06486 0.0
C42 C 0.90355 0.9783 0.04784 0.0
N43 N 0.88691 0.95537 0.05807 0.0
C44 C 0.02434 0.9517 0.07006 0.0
C45 C 0.04748 0.93789 0.05066 0.0
C46 C 0.02717 0.92908 0.07876 0.0
N47 N 0.03426 0.95546 0.05628 0.0
C48 C 0.05062 0.9149 0.05894 0.0
C49 C 0.03992 0.90991 0.07313 0.0
H50 H 0.01342 0.96565 0.07417 0.0
H51 H 0.05475 0.94103 0.03963 0.0
C52 C 0.94746 0.96023 0.0013 0.0
N53 N 0.94941 0.95219 0.015 0.0
C54 C 0.92092 0.93865 0.99278 0.0
C55 C 0.8984 0.90144 0.01276 0.0
C56 C 0.92567 0.92344 0.02081 0.0
C57 C 0.89605 0.90882 0.99852 0.0
H58 H 0.96697 0.98303 0.9969 0.0
H59 H 0.92818 0.91726 0.03162 0.0
O60 O 0.05585 0.03242 0.04626 0.0
O61 O 0.0074 0.02785 0.02326 0.0
O62 O 0.02529 0.97298 0.02391 0.0
O63 O 0.98133 0.97711 0.04741 0.0
H64 H 0.04579 0.04276 0.073 0.0
H65 H 0.10603 0.02119 0.04545 0.0
H66 H 0.07757 0.04056 0.09362 0.0
H67 H 0.13673 0.01928 0.06656 0.0
H68 H 0.95202 0.06665 0.99735 0.0
H69 H 0.05727 0.08865 0.01887 0.0
H70 H 0.95384 0.02246 0.01112 0.0
H71 H 0.0537 0.13145 0.00478 0.0
H72 H 0.16084 0.1105 0.01591 0.0
H73 H 0.09607 0.07359 0.97944 0.0
H74 H 0.96964 0.05641 0.08732 0.0
H75 H 0.01406 0.13135 0.05476 0.0
H76 H 0.00226 0.9532 0.99788 0.0
H77 H 0.08831 0.98928 0.02444 0.0
H78 H 0.03533 0.95207 0.97754 0.0
H79 H 0.11987 0.98733 0.00366 0.0
H80 H 0.94353 0.93396 0.06678 0.0
H81 H 0.94875 0.00438 0.036 0.0
H82 H 0.88677 0.92137 0.07295 0.0
H83 H 0.89199 0.99055 0.04265 0.0
H84 H 0.01821 0.92565 0.08959 0.0
H85 H 0.06078 0.90078 0.05423 0.0
H86 H 0.91987 0.94511 0.98182 0.0
H87 H 0.87989 0.87844 0.01748 0.0
Li88 Li 0.00198 0.97457 0.36131 0.0
Li89 Li 0.04004 0.01582 0.37801 0.0
Li90 Li 0.98117 0.99805 0.37824 0.0
Li91 Li 0.01712 0.03263 0.35926 0.0
C92 C 0.99798 0.94088 0.38425 0.0
N93 N 0.99031 0.87858 0.38676 0.0
C94 C 0.025 0.93717 0.38772 0.0
C95 C 0.96703 0.91291 0.38214 0.0
C96 C 0.02061 0.90546 0.38894 0.0
C97 C 0.96368 0.88163 0.38342 0.0
C98 C 0.0629 0.02827 0.34547 0.0
C99 C 0.10434 0.07669 0.33328 0.0
N100 N 0.09506 0.0599 0.32077 0.0
C101 C 0.05381 0.01146 0.3325 0.0
C102 C 0.08843 0.06112 0.34589 0.0
C103 C 0.07037 0.0279 0.32013 0.0
C104 C 0.96657 0.91875 0.34319 0.0
N105 N 0.99441 0.93653 0.35099 0.0
C106 C 0.01538 0.90164 0.34366 0.0
C107 C 0.01868 0.92864 0.35132 0.0
C108 C 0.98701 0.88285 0.33538 0.0
C109 C 0.96231 0.89162 0.33527 0.0
H110 H 0.94796 0.92598 0.3429 0.0
H111 H 0.04078 0.94356 0.35747 0.0
C112 C 0.07471 0.02291 0.4036 0.0
N113 N 0.07787 0.02709 0.38929 0.0
C114 C 0.10159 0.02774 0.41183 0.0
C115 C 0.13444 0.0413 0.39043 0.0
C116 C 0.107 0.03641 0.38263 0.0
C117 C 0.13177 0.03645 0.40519 0.0
H118 H 0.051 0.01469 0.40855 0.0
H119 H 0.10866 0.03898 0.37122 0.0
C120 C 0.94145 0.98681 0.35669 0.0
N121 N 0.87764 0.97574 0.35659 0.0
C122 C 0.9354 0.01238 0.35327 0.0
C123 C 0.91503 0.95556 0.35997 0.0
C124 C 0.90296 0.00628 0.35328 0.0
C125 C 0.88296 0.95048 0.3599 0.0
C126 C 0.03658 0.0637 0.3905 0.0
C127 C 0.02289 0.05756 0.40412 0.0
C128 C 0.06871 0.08973 0.38834 0.0
C129 C 0.04168 0.07757 0.41539 0.0
C130 C 0.08672 0.10913 0.39989 0.0
N131 N 0.07295 0.1027 0.41307 0.0
C132 C 0.92694 0.96377 0.39749 0.0
C133 C 0.93702 0.0158 0.38914 0.0
C134 C 0.89984 0.95977 0.40537 0.0
N135 N 0.9447 0.99139 0.38954 0.0
C136 C 0.91009 0.01276 0.39675 0.0
C137 C 0.89105 0.98444 0.40498 0.0
H138 H 0.93375 0.94485 0.39769 0.0
H139 H 0.95187 0.03766 0.38284 0.0
C140 C 0.01409 0.05812 0.33264 0.0
N141 N 0.02377 0.06652 0.34635 0.0
C142 C 0.0157 0.08171 0.32313 0.0
C143 C 0.03762 0.12226 0.34197 0.0
C144 C 0.03562 0.09786 0.35112 0.0
C145 C 0.02708 0.11417 0.32782 0.0
H146 H 0.00432 0.03285 0.32922 0.0
H147 H 0.04253 0.10368 0.36214 0.0
O148 O 0.00188 0.97171 0.38276 0.0
O149 O 0.04658 0.01284 0.35766 0.0
O150 O 0.9731 0.99247 0.35707 0.0
O151 O 0.01878 0.04409 0.37935 0.0
H152 H 0.04917 0.9585 0.38932 0.0
H153 H 0.94592 0.91532 0.37933 0.0
H154 H 0.04133 0.90222 0.39156 0.0
H155 H 0.93992 0.85977 0.38171 0.0
H156 H 0.124 0.10216 0.33344 0.0
H157 H 0.03397 0.98612 0.33195 0.0
H158 H 0.09559 0.07456 0.35582 0.0
H159 H 0.06352 0.01524 0.31002 0.0
H160 H 0.03489 0.89562 0.34421 0.0
H161 H 0.94032 0.87825 0.32884 0.0
H162 H 0.09837 0.02322 0.42316 0.0
H163 H 0.15731 0.04813 0.38493 0.0
H164 H 0.95553 0.03679 0.35082 0.0
H165 H 0.91928 0.93556 0.36275 0.0
H166 H 0.89793 0.02589 0.35073 0.0
H167 H 0.86231 0.92649 0.36252 0.0
H168 H 0.99816 0.03738 0.40601 0.0
H169 H 0.07978 0.09463 0.37788 0.0
H170 H 0.03146 0.07304 0.426 0.0
H171 H 0.11168 0.12924 0.39839 0.0
H172 H 0.88572 0.93752 0.41156 0.0
H173 H 0.90456 0.03263 0.39636 0.0
H174 H 0.00762 0.07449 0.31227 0.0
H175 H 0.04605 0.14682 0.34609 0.0
Li176 Li 0.02359 0.9849 0.69192 0.0
Li177 Li 0.02757 0.0238 0.71039 0.0
Li178 Li 0.98101 0.96515 0.70971 0.0
Li179 Li 0.9825 0.005 0.69264 0.0
C180 C 0.05228 0.97343 0.71445 0.0
N181 N 0.10064 0.95634 0.7171 0.0
C182 C 0.08351 0.99638 0.7196 0.0
C183 C 0.04552 0.94169 0.7108 0.0
C184 C 0.10766 0.98728 0.72083 0.0
C185 C 0.07034 0.93356 0.71217 0.0
C186 C 0.04808 0.06006 0.6829 0.0
C187 C 0.05368 0.11223 0.6759 0.0
N188 N 0.08266 0.12035 0.66933 0.0
C189 C 0.07774 0.06879 0.67593 0.0
C190 C 0.0358 0.08184 0.68277 0.0
C191 C 0.09493 0.09943 0.6692 0.0
C192 C 0.03605 0.95215 0.66938 0.0
N193 N 0.05007 0.97482 0.67995 0.0
C194 C 0.10369 0.98443 0.67378 0.0
C195 C 0.08323 0.99118 0.68216 0.0
C196 C 0.08996 0.96121 0.66278 0.0
C197 C 0.05572 0.94507 0.66053 0.0
H198 H 0.00964 0.93975 0.66777 0.0
H199 H 0.09382 0.0097 0.6904 0.0
C200 C 0.05104 0.0591 0.73607 0.0
N201 N 0.05777 0.0594 0.722 0.0
C202 C 0.07324 0.08451 0.74494 0.0
C203 C 0.10868 0.11003 0.72464 0.0
C204 C 0.08603 0.084 0.71623 0.0
C205 C 0.10243 0.11044 0.7392 0.0
H206 H 0.02848 0.03903 0.74039 0.0
H207 H 0.09131 0.08324 0.70513 0.0
C208 C 0.94849 0.92927 0.6873 0.0
N209 N 0.89385 0.86687 0.68535 0.0
C210 C 0.91736 0.92542 0.68465 0.0
C211 C 0.95191 0.90141 0.68877 0.0
C212 C 0.89002 0.89365 0.68374 0.0
C213 C 0.92396 0.87007 0.68781 0.0
C214 C 0.96883 0.02583 0.71961 0.0
C215 C 0.93994 0.01196 0.72773 0.0
C216 C 0.98706 0.06003 0.71781 0.0
C217 C 0.92944 0.03252 0.73367 0.0
C218 C 0.97579 0.07977 0.72395 0.0
N219 N 0.94742 0.06572 0.73167 0.0
C220 C 0.96003 0.90979 0.72828 0.0
C221 C 0.91874 0.92139 0.72044 0.0
C222 C 0.93668 0.88263 0.73604 0.0
N223 N 0.95063 0.9284 0.72068 0.0
C224 C 0.89462 0.89443 0.72794 0.0
C225 C 0.90345 0.87463 0.73588 0.0
H226 H 0.98561 0.91604 0.72834 0.0
H227 H 0.91207 0.9368 0.71437 0.0
C228 C 0.96332 0.02248 0.66738 0.0
N229 N 0.95612 0.01669 0.68143 0.0
C230 C 0.94358 0.02928 0.65848 0.0
C231 C 0.9096 0.02435 0.67872 0.0
C232 C 0.92982 0.01737 0.6872 0.0
C233 C 0.91624 0.03014 0.66414 0.0
H234 H 0.98418 0.02138 0.66306 0.0
H235 H 0.92394 0.01167 0.69829 0.0
O236 O 0.02845 0.98203 0.71304 0.0
O237 O 0.03093 0.03005 0.6895 0.0
O238 O 0.97544 0.96017 0.68852 0.0
O239 O 0.97938 0.00596 0.71372 0.0
H240 H 0.08912 0.02101 0.72253 0.0
H241 H 0.02147 0.92363 0.70684 0.0
H242 H 0.13199 0.00483 0.72473 0.0
H243 H 0.06553 0.90917 0.70928 0.0
H244 H 0.04445 0.1293 0.67574 0.0
H245 H 0.08751 0.0522 0.67579 0.0
H246 H 0.01252 0.07529 0.68774 0.0
H247 H 0.118 0.10656 0.66385 0.0
H248 H 0.13007 0.99778 0.67565 0.0
H249 H 0.04434 0.92705 0.65211 0.0
H250 H 0.06755 0.08404 0.75612 0.0
H251 H 0.1312 0.12928 0.71988 0.0
H252 H 0.91429 0.94673 0.68346 0.0
H253 H 0.97586 0.90398 0.69072 0.0
H254 H 0.86574 0.89029 0.6818 0.0
H255 H 0.92621 0.84828 0.68902 0.0
H256 H 0.92569 0.98558 0.72938 0.0
H257 H 0.0099 0.0713 0.71192 0.0
H258 H 0.90703 0.02208 0.73991 0.0
H259 H 0.98967 0.10628 0.72262 0.0
H260 H 0.94446 0.86792 0.74201 0.0
H261 H 0.86941 0.88953 0.72773 0.0
H262 H 0.94958 0.03373 0.64729 0.0
H263 H 0.88839 0.02416 0.68344 0.0
H264 H 0.89575 0.59499 0.20926 0.0
N265 N 0.93622 0.57492 0.19978 0.0
H266 H 0.90284 0.62894 0.23018 0.0
H267 H 0.98509 0.59438 0.2197 0.0
H268 H 0.99223 0.62796 0.24081 0.0
H269 H 0.00132 0.62202 0.19655 0.0
H270 H 0.02452 0.66325 0.17764 0.0
H271 H 0.90584 0.5778 0.17644 0.0
H272 H 0.92898 0.6188 0.15735 0.0
H273 H 0.90171 0.52324 0.21668 0.0
H274 H 0.9788 0.56028 0.18495 0.0
H275 H 0.90453 0.47289 0.21848 0.0
H276 H 0.97994 0.50927 0.18598 0.0
H277 H 0.90226 0.31263 0.22089 0.0
H278 H 0.92106 0.29153 0.24037 0.0
H279 H 0.02092 0.37111 0.23384 0.0
H280 H 0.00199 0.39169 0.21435 0.0
H281 H 0.99631 0.37552 0.19021 0.0
H282 H 0.00111 0.34559 0.17002 0.0
H283 H 0.8947 0.28904 0.16679 0.0
H284 H 0.89031 0.31828 0.1875 0.0
H285 H 0.88881 0.37231 0.20717 0.0
H286 H 0.88917 0.42457 0.20625 0.0
H287 H 0.99449 0.47567 0.19856 0.0
N288 N 0.93901 0.36218 0.20357 0.0
H289 H 0.99308 0.4229 0.19839 0.0
C290 C 0.93979 0.59224 0.21294 0.0
C291 C 0.9166 0.6018 0.21624 0.0
C292 C 0.92064 0.62104 0.22822 0.0
C293 C 0.94813 0.63117 0.23716 0.0
C294 C 0.97101 0.62086 0.23404 0.0
C295 C 0.96689 0.60156 0.22203 0.0
C296 C 0.95162 0.59705 0.18796 0.0
C297 C 0.98539 0.62105 0.18802 0.0
C298 C 0.99864 0.64456 0.17721 0.0
C299 C 0.97851 0.64432 0.16608 0.0
C300 C 0.94515 0.6194 0.16572 0.0
C301 C 0.93186 0.59607 0.17661 0.0
C302 C 0.9401 0.54611 0.20085 0.0
C303 C 0.91929 0.52062 0.21011 0.0
C304 C 0.92064 0.49157 0.21098 0.0
C305 C 0.94225 0.48666 0.20227 0.0
C306 C 0.96333 0.51223 0.19303 0.0
C307 C 0.96246 0.54166 0.19238 0.0
C308 C 0.95054 0.35359 0.21614 0.0
C309 C 0.92807 0.32582 0.22388 0.0
C310 C 0.93887 0.31393 0.23502 0.0
C311 C 0.97253 0.32962 0.23862 0.0
C312 C 0.99489 0.35829 0.23121 0.0
C313 C 0.98401 0.37021 0.22008 0.0
C314 C 0.94283 0.34876 0.19044 0.0
C315 C 0.97404 0.35697 0.18509 0.0
C316 C 0.97673 0.33991 0.17344 0.0
C317 C 0.94827 0.31458 0.16685 0.0
C318 C 0.91712 0.30786 0.17179 0.0
C319 C 0.91451 0.32471 0.1835 0.0
C320 C 0.94085 0.39374 0.20312 0.0
C321 C 0.91189 0.39489 0.20528 0.0
C322 C 0.91231 0.42489 0.20489 0.0
C323 C 0.94199 0.45465 0.20254 0.0
C324 C 0.9711 0.45336 0.20029 0.0
C325 C 0.97048 0.42314 0.20041 0.0
H326 H 0.68019 0.09337 0.54407 0.0
N327 N 0.62723 0.04013 0.53418 0.0
H328 H 0.71419 0.09674 0.56455 0.0
H329 H 0.61127 0.99177 0.55433 0.0
H330 H 0.64521 0.99489 0.57452 0.0
H331 H 0.62841 0.98214 0.5317 0.0
H332 H 0.65261 0.96686 0.51241 0.0
H333 H 0.65297 0.07296 0.51021 0.0
H334 H 0.67815 0.05808 0.49086 0.0
H335 H 0.59904 0.07713 0.53429 0.0
H336 H 0.57627 0.97576 0.53482 0.0
H337 H 0.54006 0.05882 0.5341 0.0
H338 H 0.51776 0.95731 0.53545 0.0
H339 H 0.37933 0.01336 0.54318 0.0
H340 H 0.34304 0.00956 0.56251 0.0
H341 H 0.31523 0.9076 0.56907 0.0
H342 H 0.35146 0.91132 0.54938 0.0
H343 H 0.33752 0.92327 0.51413 0.0
H344 H 0.31542 0.93998 0.49422 0.0
H345 H 0.38857 0.04194 0.50181 0.0
H346 H 0.41085 0.02502 0.52154 0.0
H347 H 0.43261 0.0165 0.54642 0.0
H348 H 0.49113 0.03444 0.54775 0.0
H349 H 0.47521 0.95292 0.52076 0.0
N350 N 0.38508 0.96216 0.53198 0.0
H351 H 0.41628 0.93421 0.52013 0.0
C352 C 0.64335 0.04241 0.54754 0.0
C353 C 0.67205 0.07206 0.5509 0.0
C354 C 0.69136 0.07395 0.56258 0.0
C355 C 0.68239 0.04597 0.57101 0.0
C356 C 0.65279 0.01671 0.56808 0.0
C357 C 0.63331 0.01497 0.55651 0.0
C358 C 0.63887 0.02891 0.52243 0.0
C359 C 0.63867 0.99874 0.52279 0.0
C360 C 0.65281 0.99007 0.51176 0.0
C361 C 0.66753 0.01134 0.50015 0.0
C362 C 0.66673 0.04097 0.49958 0.0
C363 C 0.65252 0.04961 0.51063 0.0
C364 C 0.59223 0.02804 0.53464 0.0
C365 C 0.58129 0.05095 0.53456 0.0
C366 C 0.54758 0.0404 0.53456 0.0
C367 C 0.524 0.00652 0.53478 0.0
C368 C 0.5351 0.98357 0.53505 0.0
C369 C 0.5688 0.99416 0.53486 0.0
C370 C 0.36782 0.96233 0.54466 0.0
C371 C 0.36578 0.9902 0.54877 0.0
C372 C 0.34496 0.98805 0.55984 0.0
C373 C 0.3261 0.9582 0.56714 0.0
C374 C 0.32958 0.93092 0.56361 0.0
C375 C 0.35018 0.93299 0.5524 0.0
C376 C 0.37557 0.97275 0.51935 0.0
C377 C 0.34913 0.94912 0.51129 0.0
C378 C 0.33664 0.95871 0.49994 0.0
C379 C 0.35024 0.99227 0.49654 0.0
C380 C 0.3775 0.01593 0.5043 0.0
C381 C 0.39027 0.00626 0.51554 0.0
C382 C 0.41984 0.97354 0.53331 0.0
C383 C 0.44151 0.00218 0.54095 0.0
C384 C 0.4752 0.01267 0.54157 0.0
C385 C 0.48804 0.99512 0.5344 0.0
C386 C 0.46624 0.96669 0.52668 0.0
C387 C 0.43257 0.95603 0.52622 0.0
H388 H 0.59713 0.69846 0.87983 0.0
N389 N 0.58377 0.64165 0.86807 0.0
H390 H 0.63053 0.72438 0.90107 0.0
H391 H 0.60774 0.61306 0.8863 0.0
H392 H 0.64215 0.63932 0.9073 0.0
H393 H 0.63316 0.62704 0.86373 0.0
H394 H 0.67166 0.64525 0.84387 0.0
H395 H 0.5826 0.67347 0.84494 0.0
H396 H 0.62127 0.6919 0.82491 0.0
H397 H 0.52434 0.6306 0.87501 0.0
H398 H 0.57671 0.58077 0.86233 0.0
H399 H 0.4727 0.57799 0.87542 0.0
H400 H 0.52505 0.52834 0.86179 0.0
H401 H 0.33297 0.42713 0.88933 0.0
H402 H 0.31096 0.38697 0.90876 0.0
H403 H 0.36398 0.34027 0.89255 0.0
H404 H 0.38533 0.37993 0.87319 0.0
H405 H 0.39895 0.40308 0.85031 0.0
H406 H 0.3734 0.36713 0.82965 0.0
H407 H 0.28867 0.38009 0.83386 0.0
H408 H 0.31381 0.41497 0.8548 0.0
H409 H 0.38127 0.48734 0.86017 0.0
H410 H 0.43403 0.5388 0.85999 0.0
H411 H 0.48239 0.48645 0.8752 0.0
N412 N 0.36947 0.42795 0.86757 0.0
H413 H 0.42992 0.43497 0.87445 0.0
C414 C 0.60036 0.65419 0.88142 0.0
C415 C 0.60637 0.68521 0.88596 0.0
C416 C 0.6253 0.69986 0.89807 0.0
C417 C 0.63893 0.68382 0.90575 0.0
C418 C 0.63203 0.65221 0.90148 0.0
C419 C 0.61251 0.63728 0.88949 0.0
C420 C 0.60505 0.64921 0.85589 0.0
C421 C 0.63013 0.64096 0.85531 0.0
C422 C 0.65224 0.65145 0.84394 0.0
C423 C 0.64962 0.67017 0.83288 0.0
C424 C 0.62375 0.67726 0.83321 0.0
C425 C 0.60175 0.6669 0.84464 0.0
C426 C 0.55422 0.6098 0.86844 0.0
C427 C 0.52456 0.60826 0.8722 0.0
C428 C 0.49505 0.57816 0.87228 0.0
C429 C 0.49446 0.54881 0.86839 0.0
C430 C 0.52447 0.55031 0.86493 0.0
C431 C 0.55414 0.58046 0.86509 0.0
C432 C 0.36064 0.40661 0.87978 0.0
C433 C 0.34022 0.40854 0.89015 0.0
C434 C 0.32778 0.38565 0.90124 0.0
C435 C 0.33555 0.36029 0.90212 0.0
C436 C 0.35714 0.35921 0.89203 0.0
C437 C 0.36956 0.3821 0.88097 0.0
C438 C 0.35788 0.4112 0.85418 0.0
C439 C 0.37499 0.39833 0.84673 0.0
C440 C 0.36047 0.37793 0.83493 0.0
C441 C 0.3291 0.37087 0.83023 0.0
C442 C 0.313 0.3854 0.8372 0.0
C443 C 0.32723 0.40521 0.84914 0.0
C444 C 0.4014 0.45743 0.86751 0.0
C445 C 0.40335 0.48708 0.8634 0.0
C446 C 0.43353 0.5165 0.86345 0.0
C447 C 0.46257 0.51703 0.86782 0.0
C448 C 0.46067 0.48706 0.87169 0.0
C449 C 0.43045 0.45748 0.87141 0.0
H450 H 0.93837 0.08354 0.08963 0.0
H451 H 0.931 0.12191 0.10464 0.0
H452 H 0.02391 0.2022 0.08986 0.0
H453 H 0.03245 0.16373 0.0755 0.0
H454 H 0.01972 0.20739 0.11706 0.0
H455 H 0.94761 0.19003 0.07792 0.0
H456 H 0.90303 0.15776 0.06079 0.0
H457 H 0.83326 0.11649 0.09497 0.0
H458 H 0.87752 0.14819 0.11233 0.0
H459 H 0.99353 0.33391 0.14514 0.0
H460 H 0.00033 0.29853 0.12792 0.0
H461 H 0.91605 0.21302 0.14571 0.0
H462 H 0.90955 0.24788 0.16316 0.0
H463 H 0.91649 0.2128 0.11609 0.0
H464 H 0.99043 0.22931 0.15507 0.0
H465 H 0.03547 0.26286 0.17182 0.0
H466 H 0.10254 0.3076 0.13695 0.0
H467 H 0.05774 0.27463 0.11997 0.0
C468 C 0.95743 0.10929 0.08967 0.0
C469 C 0.98596 0.12048 0.08128 0.0
C470 C 0.95296 0.13131 0.09812 0.0
C471 C 0.97663 0.16508 0.0982 0.0
C472 C 0.00519 0.1763 0.08991 0.0
C473 C 0.00986 0.15427 0.08158 0.0
C474 C 0.97206 0.18862 0.10718 0.0
C475 C 0.99734 0.20892 0.11665 0.0
C476 C 0.94266 0.1903 0.10685 0.0
C477 C 0.91595 0.17127 0.09644 0.0
C478 C 0.92281 0.17389 0.0818 0.0
C479 C 0.89759 0.15573 0.07204 0.0
C480 C 0.86535 0.13503 0.07679 0.0
C481 C 0.85825 0.13251 0.09131 0.0
C482 C 0.88339 0.15059 0.10111 0.0
C483 C 0.97647 0.30758 0.14541 0.0
C484 C 0.95104 0.29378 0.15558 0.0
C485 C 0.98032 0.28743 0.13553 0.0
C486 C 0.95881 0.25317 0.13562 0.0
C487 C 0.93281 0.23944 0.14543 0.0
C488 C 0.92905 0.25949 0.15536 0.0
C489 C 0.96407 0.23133 0.1259 0.0
C490 C 0.93892 0.21135 0.11635 0.0
C491 C 0.99368 0.23012 0.12605 0.0
C492 C 0.02066 0.24977 0.13625 0.0
C493 C 0.01472 0.2465 0.15097 0.0
C494 C 0.04021 0.26537 0.16051 0.0
C495 C 0.07183 0.28742 0.15545 0.0
C496 C 0.07803 0.29056 0.14085 0.0
C497 C 0.05261 0.27177 0.13127 0.0
H498 H 0.09153 0.30201 0.16285 0.0
H499 H 0.84586 0.12099 0.06922 0.0
H500 H 0.8746 0.96318 0.43239 0.0
H501 H 0.83056 0.96213 0.44675 0.0
H502 H 0.79971 0.99775 0.41097 0.0
H503 H 0.84385 0.99898 0.39657 0.0
H504 H 0.80541 0.03266 0.43392 0.0
H505 H 0.75279 0.91784 0.42292 0.0
H506 H 0.74761 0.86292 0.42082 0.0
H507 H 0.75993 0.8604 0.46592 0.0
H508 H 0.76566 0.91554 0.46827 0.0
H509 H 0.66707 0.01914 0.47127 0.0
H510 H 0.69934 0.0094 0.45341 0.0
H511 H 0.7405 0.97648 0.48624 0.0
H512 H 0.7085 0.98619 0.50411 0.0
H513 H 0.72505 0.93777 0.46292 0.0
H514 H 0.78311 0.05466 0.47334 0.0
H515 H 0.78868 0.10976 0.47546 0.0
H516 H 0.76607 0.10796 0.43115 0.0
H517 H 0.75993 0.05262 0.42881 0.0
C518 C 0.85807 0.97022 0.42751 0.0
C519 C 0.86275 0.98127 0.41337 0.0
C520 C 0.83288 0.96959 0.43573 0.0
C521 C 0.81165 0.97962 0.4299 0.0
C522 C 0.81584 0.98997 0.41569 0.0
C523 C 0.84111 0.99075 0.40749 0.0
C524 C 0.78651 0.98133 0.43891 0.0
C525 C 0.7874 0.01169 0.44004 0.0
C526 C 0.76344 0.95419 0.44712 0.0
C527 C 0.75992 0.92097 0.44575 0.0
C528 C 0.75465 0.9057 0.43238 0.0
C529 C 0.75157 0.8745 0.43115 0.0
C530 C 0.75351 0.85821 0.44323 0.0
C531 C 0.75846 0.87306 0.45657 0.0
C532 C 0.76158 0.90427 0.45786 0.0
C533 C 0.68299 0.0098 0.47467 0.0
C534 C 0.6853 0.00354 0.48911 0.0
C535 C 0.70133 0.00418 0.46446 0.0
C536 C 0.72256 0.99251 0.46852 0.0
C537 C 0.72417 0.98535 0.48286 0.0
C538 C 0.7058 0.99087 0.49306 0.0
C539 C 0.74428 0.98913 0.458 0.0
C540 C 0.74279 0.95853 0.45663 0.0
C541 C 0.76683 0.01603 0.44956 0.0
C542 C 0.7707 0.04937 0.45094 0.0
C543 C 0.77909 0.06592 0.46408 0.0
C544 C 0.78238 0.0972 0.46531 0.0
C545 C 0.77764 0.11231 0.45346 0.0
C546 C 0.76968 0.0962 0.44033 0.0
C547 C 0.7663 0.06489 0.43904 0.0
H548 H 0.7802 0.13654 0.45444 0.0
H549 H 0.75112 0.83405 0.44225 0.0
H550 H 0.8411 0.82862 0.72764 0.0
H551 H 0.7973 0.78643 0.7424 0.0
H552 H 0.86456 0.81518 0.77784 0.0
H553 H 0.90852 0.85742 0.76313 0.0
H554 H 0.8235 0.74794 0.77657 0.0
H555 H 0.81363 0.84591 0.77462 0.0
H556 H 0.8086 0.88984 0.76243 0.0
H557 H 0.71826 0.81709 0.7429 0.0
H558 H 0.72303 0.77269 0.75482 0.0
H559 H 0.71641 0.70025 0.8359 0.0
H560 H 0.75842 0.72722 0.81757 0.0
H561 H 0.68226 0.69874 0.78588 0.0
H562 H 0.64 0.672 0.80428 0.0
H563 H 0.72574 0.76144 0.78344 0.0
H564 H 0.73243 0.66334 0.78742 0.0
H565 H 0.73755 0.61951 0.79963 0.0
H566 H 0.83308 0.69135 0.81534 0.0
H567 H 0.82835 0.7357 0.80339 0.0
C568 C 0.8466 0.8258 0.73856 0.0
C569 C 0.87811 0.8466 0.74429 0.0
C570 C 0.8216 0.80164 0.74695 0.0
C571 C 0.82757 0.79806 0.76127 0.0
C572 C 0.85946 0.81757 0.76681 0.0
C573 C 0.88454 0.84167 0.7584 0.0
C574 C 0.80007 0.77579 0.77074 0.0
C575 C 0.80219 0.75094 0.77817 0.0
C576 C 0.77194 0.77929 0.77253 0.0
C577 C 0.76887 0.80598 0.76548 0.0
C578 C 0.79282 0.83928 0.76764 0.0
C579 C 0.79 0.86426 0.76079 0.0
C580 C 0.76318 0.85626 0.75186 0.0
C581 C 0.73906 0.82325 0.7498 0.0
C582 C 0.74179 0.79817 0.7566 0.0
C583 C 0.7086 0.69916 0.82498 0.0
C584 C 0.67491 0.68399 0.82151 0.0
C585 C 0.73266 0.71455 0.8145 0.0
C586 C 0.72353 0.71469 0.80031 0.0
C587 C 0.68988 0.69892 0.79676 0.0
C588 C 0.66578 0.68373 0.80727 0.0
C589 C 0.74909 0.7335 0.78941 0.0
C590 C 0.74672 0.75794 0.78173 0.0
C591 C 0.77692 0.72953 0.78741 0.0
C592 C 0.77992 0.70289 0.79458 0.0
C593 C 0.75443 0.66984 0.79356 0.0
C594 C 0.75728 0.64489 0.80043 0.0
C595 C 0.78559 0.65265 0.80828 0.0
C596 C 0.81115 0.68538 0.80926 0.0
C597 C 0.80842 0.71043 0.80242 0.0
H598 H 0.78775 0.6333 0.81359 0.0
H599 H 0.76104 0.87563 0.74656 0.0
H600 H 0.05821 0.91236 0.10095 0.0
H601 H 0.05371 0.8668 0.11545 0.0
H602 H 0.01691 0.80192 0.07917 0.0
H603 H 0.02083 0.8471 0.06471 0.0
H604 H 0.97802 0.776 0.1026 0.0
H605 H 0.09301 0.82672 0.09118 0.0
H606 H 0.15038 0.87255 0.0893 0.0
H607 H 0.15432 0.88632 0.1345 0.0
H608 H 0.09678 0.84086 0.13664 0.0
H609 H 0.97018 0.63898 0.13724 0.0
H610 H 0.98683 0.6839 0.1201 0.0
H611 H 0.03183 0.75519 0.15385 0.0
H612 H 0.0158 0.71043 0.17096 0.0
H613 H 0.06842 0.77691 0.13051 0.0
H614 H 0.95345 0.73079 0.14199 0.0
H615 H 0.89558 0.68632 0.14451 0.0
H616 H 0.89105 0.66582 0.09984 0.0
H617 H 0.94908 0.70989 0.0971 0.0
C618 C 0.04933 0.88841 0.09607 0.0
C619 C 0.03989 0.8833 0.0817 0.0
C620 C 0.04703 0.86251 0.10432 0.0
C621 C 0.03518 0.83107 0.09835 0.0
C622 C 0.02624 0.82604 0.08396 0.0
C623 C 0.02871 0.85194 0.07569 0.0
C624 C 0.03002 0.80288 0.10732 0.0
C625 C 0.9979 0.77591 0.1085 0.0
C626 C 0.05582 0.80327 0.1153 0.0
C627 C 0.09046 0.83056 0.11406 0.0
C628 C 0.10601 0.8397 0.10071 0.0
C629 C 0.13858 0.86557 0.0996 0.0
C630 C 0.15596 0.88239 0.11177 0.0
C631 C 0.14082 0.8733 0.12508 0.0
C632 C 0.10823 0.84745 0.12625 0.0
C633 C 0.98388 0.66426 0.14096 0.0
C634 C 0.9915 0.67124 0.15543 0.0
C635 C 0.99337 0.68988 0.13117 0.0
C636 C 0.01006 0.7229 0.13574 0.0
C637 C 0.01898 0.72992 0.15009 0.0
C638 C 0.00982 0.70432 0.15985 0.0
C639 C 0.01639 0.75004 0.12579 0.0
C640 C 0.04864 0.77685 0.12448 0.0
C641 C 0.99065 0.74973 0.11777 0.0
C642 C 0.9557 0.72338 0.11937 0.0
C643 C 0.94018 0.71664 0.13273 0.0
C644 C 0.90735 0.69153 0.13419 0.0
C645 C 0.88968 0.67319 0.12234 0.0
C646 C 0.90479 0.68 0.109 0.0
C647 C 0.93764 0.70505 0.10749 0.0
H648 H 0.86426 0.65376 0.1235 0.0
H649 H 0.18118 0.90241 0.11089 0.0
H650 H 0.16994 0.00982 0.39805 0.0
H651 H 0.21229 0.00773 0.41246 0.0
H652 H 0.19789 0.06313 0.44553 0.0
H653 H 0.15551 0.06559 0.43107 0.0
H654 H 0.26594 0.08248 0.44015 0.0
H655 H 0.16105 0.98499 0.44947 0.0
H656 H 0.10902 0.93529 0.44268 0.0
H657 H 0.16354 0.89466 0.42287 0.0
H658 H 0.21593 0.94439 0.42936 0.0
H659 H 0.33288 0.03962 0.49883 0.0
H660 H 0.30102 0.05212 0.48193 0.0
H661 H 0.29994 0.98043 0.4527 0.0
H662 H 0.33107 0.96724 0.4698 0.0
H663 H 0.24093 0.9708 0.45539 0.0
H664 H 0.34603 0.06638 0.44672 0.0
H665 H 0.39855 0.11625 0.45284 0.0
H666 H 0.34551 0.16075 0.47057 0.0
H667 H 0.29265 0.11095 0.46474 0.0
C668 C 0.17622 0.02213 0.40827 0.0
C669 C 0.15938 0.03783 0.41346 0.0
C670 C 0.20028 0.02075 0.41651 0.0
C671 C 0.20798 0.03508 0.43007 0.0
C672 C 0.19223 0.05194 0.43507 0.0
C673 C 0.16792 0.05311 0.42687 0.0
C674 C 0.23085 0.03046 0.43935 0.0
C675 C 0.26046 0.05815 0.44364 0.0
C676 C 0.22387 0.99862 0.44356 0.0
C677 C 0.1924 0.96856 0.43977 0.0
C678 C 0.16194 0.96558 0.44357 0.0
C679 C 0.13239 0.93738 0.43979 0.0
C680 C 0.13298 0.91187 0.43231 0.0
C681 C 0.16313 0.91446 0.42864 0.0
C682 C 0.19276 0.94264 0.43237 0.0
C683 C 0.32639 0.02702 0.48867 0.0
C684 C 0.33442 0.00248 0.4856 0.0
C685 C 0.30824 0.03422 0.479 0.0
C686 C 0.29831 0.01746 0.46596 0.0
C687 C 0.30726 0.99366 0.4627 0.0
C688 C 0.32503 0.98614 0.47245 0.0
C689 C 0.27649 0.02285 0.45622 0.0
C690 C 0.24681 0.99522 0.45187 0.0
C691 C 0.2836 0.05476 0.4519 0.0
C692 C 0.31536 0.08479 0.4554 0.0
C693 C 0.34556 0.08669 0.45203 0.0
C694 C 0.37539 0.11497 0.45542 0.0
C695 C 0.37537 0.14162 0.46212 0.0
C696 C 0.3455 0.14008 0.4654 0.0
C697 C 0.31559 0.11184 0.46203 0.0
H698 H 0.39849 0.1635 0.46474 0.0
H699 H 0.11007 0.89005 0.4294 0.0
H700 H 0.13287 0.17656 0.73403 0.0
H701 H 0.174 0.22133 0.74876 0.0
H702 H 0.16842 0.15016 0.77944 0.0
H703 H 0.12656 0.10538 0.76489 0.0
H704 H 0.17027 0.19934 0.79274 0.0
H705 H 0.23405 0.18981 0.75546 0.0
H706 H 0.24993 0.18688 0.73076 0.0
H707 H 0.26671 0.28446 0.72284 0.0
H708 H 0.25046 0.2878 0.74745 0.0
H709 H 0.31867 0.30839 0.82899 0.0
H710 H 0.2829 0.26465 0.81236 0.0
H711 H 0.26396 0.33352 0.78969 0.0
H712 H 0.29927 0.3773 0.80648 0.0
H713 H 0.27648 0.28582 0.77235 0.0
H714 H 0.20973 0.29216 0.81044 0.0
H715 H 0.19631 0.29371 0.83565 0.0
H716 H 0.18813 0.19912 0.84237 0.0
H717 H 0.20209 0.1973 0.81722 0.0
C718 C 0.1405 0.17053 0.74391 0.0
C719 C 0.12666 0.13755 0.74832 0.0
C720 C 0.1641 0.19609 0.75229 0.0
C721 C 0.1748 0.18911 0.76509 0.0
C722 C 0.16061 0.15617 0.76959 0.0
C723 C 0.13668 0.13062 0.7613 0.0
C724 C 0.20041 0.21619 0.77387 0.0
C725 C 0.19364 0.21792 0.78828 0.0
C726 C 0.23085 0.24078 0.76807 0.0
C727 C 0.24073 0.23892 0.75327 0.0
C728 C 0.24088 0.21055 0.74842 0.0
C729 C 0.24999 0.20883 0.73444 0.0
C730 C 0.25924 0.23544 0.72523 0.0
C731 C 0.25949 0.26385 0.72998 0.0
C732 C 0.25036 0.26569 0.74395 0.0
C733 C 0.30744 0.31433 0.82027 0.0
C734 C 0.31164 0.34612 0.81897 0.0
C735 C 0.28697 0.28936 0.81085 0.0
C736 C 0.27081 0.29596 0.79988 0.0
C737 C 0.27635 0.32809 0.79809 0.0
C738 C 0.29636 0.35295 0.80767 0.0
C739 C 0.24607 0.26872 0.79104 0.0
C740 C 0.25306 0.26705 0.7767 0.0
C741 C 0.21607 0.24388 0.79692 0.0
C742 C 0.20733 0.24478 0.812 0.0
C743 C 0.20539 0.27185 0.81732 0.0
C744 C 0.19762 0.27275 0.8316 0.0
C745 C 0.19147 0.24658 0.84062 0.0
C746 C 0.19297 0.21941 0.83537 0.0
C747 C 0.20079 0.21842 0.82111 0.0
H748 H 0.18545 0.24731 0.85167 0.0
H749 H 0.26629 0.23406 0.7144 0.0
H750 H 0.89058 0.07055 0.66887 0.0
H751 H 0.85198 0.07774 0.65379 0.0
H752 H 0.85224 0.00846 0.62356 0.0
H753 H 0.89126 0.00176 0.63844 0.0
H754 H 0.85476 0.05805 0.60999 0.0
H755 H 0.78834 0.98724 0.64791 0.0
H756 H 0.77199 0.97093 0.67281 0.0
H757 H 0.75955 0.05505 0.67886 0.0
H758 H 0.77628 0.07211 0.65403 0.0
H759 H 0.70344 0.00183 0.57415 0.0
H760 H 0.74441 0.00409 0.59094 0.0
H761 H 0.75448 0.09323 0.60919 0.0
H762 H 0.71359 0.09135 0.59219 0.0
H763 H 0.7481 0.03959 0.62929 0.0
H764 H 0.8114 0.10689 0.58978 0.0
H765 H 0.82485 0.11888 0.56438 0.0
H766 H 0.84026 0.03603 0.56099 0.0
H767 H 0.82636 0.02322 0.58634 0.0
C768 C 0.88236 0.05689 0.659 0.0
C769 C 0.89387 0.03557 0.65482 0.0
C770 C 0.86027 0.06095 0.65041 0.0
C771 C 0.84884 0.0433 0.63763 0.0
C772 C 0.86075 0.0224 0.63336 0.0
C773 C 0.88309 0.01863 0.64185 0.0
C774 C 0.8243 0.04626 0.62869 0.0
C775 C 0.83138 0.05379 0.61422 0.0
C776 C 0.79399 0.04136 0.63424 0.0
C777 C 0.78394 0.03116 0.64916 0.0
C778 C 0.78239 0.00241 0.65458 0.0
C779 C 0.77301 0.99301 0.66868 0.0
C780 C 0.76484 0.012 0.67743 0.0
C781 C 0.76596 0.0404 0.67208 0.0
C782 C 0.77537 0.04994 0.658 0.0
C783 C 0.71404 0.02167 0.58186 0.0
C784 C 0.70533 0.04637 0.58193 0.0
C785 C 0.73752 0.02301 0.59138 0.0
C786 C 0.75244 0.04888 0.60122 0.0
C787 C 0.74313 0.07309 0.60164 0.0
C788 C 0.71997 0.07206 0.59194 0.0
C789 C 0.77857 0.05089 0.61068 0.0
C790 C 0.77172 0.04426 0.62518 0.0
C791 C 0.80889 0.05613 0.60515 0.0
C792 C 0.81755 0.06393 0.58993 0.0
C793 C 0.81737 0.09105 0.58359 0.0
C794 C 0.82513 0.09803 0.56921 0.0
C795 C 0.83333 0.07818 0.56107 0.0
C796 C 0.83387 0.05136 0.56731 0.0
C797 C 0.82609 0.04426 0.58169 0.0
H798 H 0.83933 0.08362 0.54993 0.0
H799 H 0.75757 0.00467 0.68834 0.0
H800 H 0.83013 0.87852 0.00429 0.0
H801 H 0.78463 0.83812 0.98958 0.0
H802 H 0.85465 0.84363 0.95825 0.0
H803 H 0.89996 0.88505 0.97266 0.0
H804 H 0.80666 0.84253 0.94523 0.0
H805 H 0.81333 0.77709 0.98269 0.0
H806 H 0.81472 0.76055 0.00743 0.0
H807 H 0.71769 0.74605 0.01455 0.0
H808 H 0.7159 0.76294 0.9899 0.0
H809 H 0.70096 0.69366 0.90869 0.0
H810 H 0.7429 0.72941 0.92597 0.0
H811 H 0.67224 0.74978 0.94615 0.0
H812 H 0.63029 0.71451 0.92868 0.0
H813 H 0.71865 0.73642 0.96502 0.0
H814 H 0.71513 0.80381 0.92642 0.0
H815 H 0.71526 0.81706 0.90106 0.0
H816 H 0.80976 0.82414 0.89575 0.0
H817 H 0.80989 0.81035 0.92105 0.0
C818 C 0.83567 0.87104 0.99424 0.0
C819 C 0.86845 0.88482 0.98957 0.0
C820 C 0.80972 0.84782 0.98589 0.0
C821 C 0.81616 0.83731 0.97289 0.0
C822 C 0.84898 0.8513 0.96821 0.0
C823 C 0.87486 0.87497 0.97643 0.0
C824 C 0.78879 0.8122 0.96402 0.0
C825 C 0.78773 0.81921 0.94959 0.0
C826 C 0.76366 0.78183 0.96966 0.0
C827 C 0.76463 0.77161 0.98449 0.0
C828 C 0.79239 0.77062 0.98956 0.0
C829 C 0.79324 0.76114 0.00356 0.0
C830 C 0.76635 0.75234 0.01257 0.0
C831 C 0.73852 0.75292 0.00757 0.0
C832 C 0.73757 0.76242 0.99358 0.0
C833 C 0.69421 0.70521 0.917 0.0
C834 C 0.66249 0.70143 0.91739 0.0
C835 C 0.71815 0.72564 0.92681 0.0
C836 C 0.71055 0.74218 0.93726 0.0
C837 C 0.67842 0.73708 0.93816 0.0
C838 C 0.65461 0.71711 0.92818 0.0
C839 C 0.73697 0.76696 0.94641 0.0
C840 C 0.73774 0.75984 0.96081 0.0
C841 C 0.7622 0.79697 0.94073 0.0
C842 C 0.76235 0.8057 0.92558 0.0
C843 C 0.73579 0.80789 0.91981 0.0
C844 C 0.73584 0.81555 0.90546 0.0
C845 C 0.76246 0.82135 0.89679 0.0
C846 C 0.78913 0.81959 0.90247 0.0
C847 C 0.78916 0.81187 0.91682 0.0
H848 H 0.76246 0.82728 0.88568 0.0
H849 H 0.76705 0.74501 0.02341 0.0
H850 H 0.03536 0.87982 0.3202 0.0
H851 H 0.02999 0.83487 0.30523 0.0
H852 H 0.92604 0.7786 0.3149 0.0
H853 H 0.93149 0.82294 0.33047 0.0
H854 H 0.95323 0.73972 0.31492 0.0
H855 H 0.95321 0.82093 0.28369 0.0
H856 H 0.9747 0.87659 0.27359 0.0
H857 H 0.06352 0.87803 0.2608 0.0
H858 H 0.04274 0.82254 0.27101 0.0
H859 H 0.90251 0.62932 0.25597 0.0
H860 H 0.91083 0.67018 0.2741 0.0
H861 H 0.01457 0.72505 0.26388 0.0
H862 H 0.00623 0.6849 0.2454 0.0
H863 H 0.98854 0.76434 0.26458 0.0
H864 H 0.9872 0.68166 0.29502 0.0
H865 H 0.9651 0.62581 0.30499 0.0
H866 H 0.87817 0.6266 0.31903 0.0
H867 H 0.89955 0.6823 0.30896 0.0
C868 C 0.01143 0.85769 0.31936 0.0
C869 C 0.98381 0.85506 0.32653 0.0
C870 C 0.00834 0.83213 0.31066 0.0
C871 C 0.97751 0.80359 0.30877 0.0
C872 C 0.95004 0.80049 0.31615 0.0
C873 C 0.95313 0.826 0.32494 0.0
C874 C 0.97383 0.77739 0.29881 0.0
C875 C 0.96059 0.74498 0.30387 0.0
C876 C 0.9841 0.78443 0.28447 0.0
C877 C 0.99655 0.81772 0.27824 0.0
C878 C 0.97743 0.83322 0.27882 0.0
C879 C 0.98946 0.86472 0.27306 0.0
C880 C 0.02049 0.88087 0.26659 0.0
C881 C 0.03951 0.86551 0.26583 0.0
C882 C 0.02761 0.83403 0.27159 0.0
C883 C 0.92712 0.65003 0.25762 0.0
C884 C 0.95369 0.65391 0.24921 0.0
C885 C 0.93189 0.67319 0.26808 0.0
C886 C 0.96337 0.70055 0.27042 0.0
C887 C 0.99008 0.70406 0.26228 0.0
C888 C 0.98532 0.68094 0.2518 0.0
C889 C 0.96803 0.72661 0.28067 0.0
C890 C 0.98135 0.75903 0.27565 0.0
C891 C 0.95774 0.71951 0.29501 0.0
C892 C 0.94486 0.68605 0.30111 0.0
C893 C 0.96325 0.66982 0.30013 0.0
C894 C 0.95088 0.63821 0.30582 0.0
C895 C 0.92022 0.62264 0.31261 0.0
C896 C 0.9019 0.63868 0.31375 0.0
C897 C 0.91415 0.67029 0.30807 0.0
H898 H 0.91068 0.59817 0.31701 0.0
H899 H 0.02977 0.90526 0.26214 0.0
H900 H 0.09217 0.96268 0.63389 0.0
H901 H 0.13097 0.95668 0.61853 0.0
H902 H 0.17495 0.93883 0.65532 0.0
H903 H 0.13697 0.94628 0.67073 0.0
H904 H 0.22121 0.97928 0.63919 0.0
H905 H 0.12424 0.87605 0.63068 0.0
H906 H 0.06583 0.8379 0.62485 0.0
H907 H 0.07983 0.8822 0.58363 0.0
H908 H 0.13824 0.92095 0.58928 0.0
H909 H 0.31649 0.93309 0.59412 0.0
H910 H 0.27491 0.92834 0.61141 0.0
H911 H 0.23787 0.97075 0.58097 0.0
H912 H 0.27939 0.97583 0.56378 0.0
H913 H 0.18811 0.9123 0.59506 0.0
H914 H 0.2849 0.01839 0.60541 0.0
H915 H 0.34341 0.05466 0.61173 0.0
H916 H 0.32893 0.00051 0.65042 0.0
H917 H 0.27039 0.9636 0.64423 0.0
C918 C 0.10986 0.95705 0.63865 0.0
C919 C 0.11161 0.95484 0.65345 0.0
C920 C 0.13195 0.95348 0.62987 0.0
C921 C 0.15563 0.94676 0.63572 0.0
C922 C 0.15695 0.94399 0.65054 0.0
C923 C 0.13525 0.94817 0.65933 0.0
C924 C 0.18012 0.94446 0.62643 0.0
C925 C 0.21382 0.96405 0.62971 0.0
C926 C 0.17069 0.92494 0.61394 0.0
C927 C 0.13559 0.90158 0.61046 0.0
C928 C 0.11482 0.87781 0.62041 0.0
C929 C 0.08171 0.85605 0.61713 0.0
C930 C 0.06911 0.85767 0.60389 0.0
C931 C 0.08962 0.881 0.59388 0.0
C932 C 0.12274 0.90283 0.59711 0.0
C933 C 0.2994 0.94131 0.59116 0.0
C934 C 0.30124 0.95506 0.57769 0.0
C935 C 0.27578 0.93864 0.60101 0.0
C936 C 0.25344 0.94925 0.59743 0.0
C937 C 0.2549 0.96242 0.5839 0.0
C938 C 0.27875 0.96553 0.57416 0.0
C939 C 0.2288 0.94733 0.6078 0.0
C940 C 0.19521 0.92703 0.60469 0.0
C941 C 0.23826 0.96577 0.62054 0.0
C942 C 0.2734 0.988 0.62427 0.0
C943 C 0.29427 0.01402 0.6152 0.0
C944 C 0.32742 0.03474 0.61877 0.0
C945 C 0.33991 0.02983 0.63145 0.0
C946 C 0.31924 0.00424 0.6406 0.0
C947 C 0.28608 0.98343 0.63706 0.0
H948 H 0.36557 0.0459 0.6342 0.0
H949 H 0.04347 0.8408 0.60137 0.0
H950 H 0.17032 0.16035 0.0036 0.0
H951 H 0.20948 0.20563 0.9886 0.0
H952 H 0.18997 0.13737 0.95418 0.0
H953 H 0.15119 0.09164 0.96928 0.0
H954 H 0.25661 0.18418 0.95678 0.0
H955 H 0.15232 0.18105 0.95451 0.0
H956 H 0.10321 0.18024 0.96453 0.0
H957 H 0.16494 0.2743 0.98425 0.0
H958 H 0.21449 0.27543 0.97453 0.0
H959 H 0.30911 0.29403 0.89823 0.0
H960 H 0.27957 0.25003 0.9155 0.0
H961 H 0.29538 0.32235 0.9476 0.0
H962 H 0.32502 0.36666 0.9303 0.0
H963 H 0.23271 0.27444 0.94716 0.0
H964 H 0.33712 0.2792 0.9484 0.0
H965 H 0.38626 0.2799 0.93851 0.0
H966 H 0.32508 0.18333 0.92084 0.0
H967 H 0.27548 0.18223 0.93045 0.0
C968 C 0.17481 0.15483 0.99293 0.0
C969 C 0.15761 0.12241 0.98761 0.0
C970 C 0.197 0.18078 0.98434 0.0
C971 C 0.2023 0.17486 0.97025 0.0
C972 C 0.18612 0.14241 0.96503 0.0
C973 C 0.16381 0.1164 0.97362 0.0
C974 C 0.22356 0.20276 0.96078 0.0
C975 C 0.25128 0.20378 0.95454 0.0
C976 C 0.21691 0.22866 0.95816 0.0
C977 C 0.18713 0.22816 0.96392 0.0
C978 C 0.15544 0.20144 0.96108 0.0
C979 C 0.12753 0.20094 0.96669 0.0
C980 C 0.13096 0.22716 0.97505 0.0
C981 C 0.16232 0.25398 0.97779 0.0
C982 C 0.19033 0.25458 0.97222 0.0
C983 C 0.30687 0.30064 0.90903 0.0
C984 C 0.31952 0.33384 0.91292 0.0
C985 C 0.28994 0.27543 0.9189 0.0
C986 C 0.28558 0.2829 0.93289 0.0
C987 C 0.29849 0.31605 0.93686 0.0
C988 C 0.31534 0.34131 0.92697 0.0
C989 C 0.26592 0.256 0.94311 0.0
C990 C 0.23833 0.25506 0.94946 0.0
C991 C 0.27275 0.23023 0.94582 0.0
C992 C 0.30254 0.23077 0.94005 0.0
C993 C 0.3341 0.25822 0.94231 0.0
C994 C 0.36205 0.25867 0.93677 0.0
C995 C 0.35879 0.23171 0.92903 0.0
C996 C 0.32756 0.20421 0.92683 0.0
C997 C 0.29953 0.20365 0.93234 0.0
H998 H 0.38046 0.2321 0.92475 0.0
H999 H 0.10932 0.22673 0.97938 0.0
H1000 H 0.07318 0.1798 0.3249 0.0
H1001 H 0.06931 0.22076 0.31007 0.0
H1002 H 0.97448 0.14528 0.29457 0.0
H1003 H 0.97808 0.1044 0.30935 0.0
H1004 H 0.01133 0.1839 0.27336 0.0
H1005 H 0.98047 0.19864 0.32055 0.0
H1006 H 0.98872 0.2092 0.34632 0.0
H1007 H 0.07451 0.30351 0.33831 0.0
H1008 H 0.067 0.29329 0.31248 0.0
H1009 H 0.9449 0.30236 0.26431 0.0
H1010 H 0.96015 0.27053 0.28006 0.0
H1011 H 0.04227 0.29104 0.25275 0.0
H1012 H 0.02669 0.32212 0.23677 0.0
H1013 H 0.01488 0.28209 0.29535 0.0
H1014 H 0.04471 0.21934 0.24962 0.0
H1015 H 0.03159 0.20615 0.22423 0.0
H1016 H 0.93901 0.20296 0.23009 0.0
H1017 H 0.95137 0.21565 0.25554 0.0
C1018 C 0.05151 0.17198 0.31833 0.0
C1019 C 0.02594 0.13885 0.31829 0.0
C1020 C 0.04936 0.19538 0.30987 0.0
C1021 C 0.02149 0.1861 0.30131 0.0
C1022 C 0.99628 0.15295 0.30104 0.0
C1023 C 0.99844 0.12958 0.30946 0.0
C1024 C 0.01799 0.21083 0.29281 0.0
C1025 C 0.01237 0.20549 0.27816 0.0
C1026 C 0.01897 0.23881 0.2991 0.0
C1027 C 0.02338 0.24505 0.3146 0.0
C1028 C 0.00123 0.22152 0.32429 0.0
C1029 C 0.00575 0.22746 0.3389 0.0
C1030 C 0.03218 0.25697 0.34395 0.0
C1031 C 0.05408 0.28064 0.33439 0.0
C1032 C 0.0497 0.2748 0.31976 0.0
C1033 C 0.96635 0.30029 0.26173 0.0
C1034 C 0.98439 0.31447 0.24923 0.0
C1035 C 0.9752 0.28236 0.27079 0.0
C1036 C 0.00209 0.27814 0.26747 0.0
C1037 C 0.02125 0.29379 0.25542 0.0
C1038 C 0.01244 0.31173 0.24636 0.0
C1039 C 0.0083 0.25512 0.27593 0.0
C1040 C 0.01438 0.26076 0.29054 0.0
C1041 C 0.00715 0.22705 0.26967 0.0
C1042 C 0.99917 0.21883 0.25443 0.0
C1043 C 0.02151 0.21571 0.24549 0.0
C1044 C 0.01421 0.20833 0.23109 0.0
C1045 C 0.98454 0.20384 0.22554 0.0
C1046 C 0.96204 0.20657 0.23439 0.0
C1047 C 0.9692 0.21388 0.2488 0.0
H1048 H 0.97896 0.19818 0.21438 0.0
H1049 H 0.03563 0.26152 0.35526 0.0
loop_
_geom_bond_atom_site_label_1
_geom_bond_atom_site_label_2
_geom_bond_distance
_geom_bond_site_symmetry_2
_ccdc_geom_bond_type
Li0 N17 1.990 . S
Li0 O60 1.956 . S
Li0 O61 1.970 1_455 S
Li0 O62 1.961 1_545 S
Li1 N25 1.990 . S
Li1 O60 1.970 1_655 S
Li1 O61 1.956 . S
Li1 O63 1.961 1_545 S
Li2 N47 1.990 . S
Li2 O60 1.961 1_565 S
Li2 O62 1.956 . S
Li2 O63 1.970 1_455 S
Li3 N53 1.990 . S
Li3 O61 1.961 1_565 S
Li3 O62 1.970 1_655 S
Li3 O63 1.956 . S
C4 C6 1.348 . S
C4 C7 1.356 . S
C4 O60 1.325 . S
N5 C8 1.314 . S
N5 C9 1.279 . S
C6 C4 1.348 . S
C6 C8 1.353 . S
C6 H64 0.929 . S
C7 C4 1.356 . S
C7 C9 1.358 . S
C7 H65 0.930 . S
C8 N5 1.314 . S
C8 C6 1.353 . S
C8 H66 0.930 . S
C9 N5 1.279 . S
C9 C7 1.358 . S
C9 H67 0.930 . S
C10 C13 1.348 1_655 S
C10 C14 1.356 . S
C10 O61 1.325 . S
C11 N12 1.276 1_554 S
C11 C14 1.358 . S
C11 H68 0.930 . S
N12 C11 1.276 1_556 S
N12 C15 1.313 1_556 S
C13 C10 1.348 1_455 S
C13 C15 1.353 1_455 S
C13 H69 0.929 . S
C14 C10 1.356 . S
C14 C11 1.358 . S
C14 H70 0.930 . S
C15 N12 1.313 1_554 S
C15 C13 1.353 1_655 S
C15 H71 0.930 1_654 S
C16 N17 1.321 1_556 S
C16 C21 1.349 . S
C16 H22 0.927 . S
N17 Li0 1.990 . S
N17 C16 1.321 1_554 S
N17 C19 1.279 . S
C18 C19 1.358 . S
C18 C20 1.356 1_554 S
C18 H72 0.930 . S
C19 N17 1.279 . S
C19 C18 1.358 . S
C19 H23 0.930 . S
C20 C18 1.356 1_556 S
C20 C21 1.348 . S
C21 C16 1.349 . S
C21 C20 1.348 . S
C21 H73 0.929 . S
H22 C16 0.927 . S
H23 C19 0.930 . S
C24 N25 1.314 . S
C24 C26 1.353 . S
C24 H30 0.930 . S
N25 Li1 1.990 . S
N25 C24 1.314 . S
N25 C28 1.279 . S
C26 C24 1.353 . S
C26 C29 1.348 . S
C26 H74 0.929 . S
C27 C28 1.358 . S
C27 C29 1.356 . S
C27 H75 0.930 . S
C28 N25 1.279 . S
C28 C27 1.358 . S
C28 H31 0.930 . S
C29 C26 1.348 . S
C29 C27 1.356 . S
H30 C24 0.930 . S
H31 C28 0.930 . S
C32 C34 1.348 1_455 S
C32 C35 1.356 . S
C32 O62 1.325 . S
N33 C36 1.313 1_556 S
N33 C37 1.276 1_556 S
C34 C32 1.348 1_655 S
C34 C36 1.353 1_655 S
C34 H76 0.929 . S
C35 C32 1.356 . S
C35 C37 1.358 . S
C35 H77 0.930 . S
C36 N33 1.313 1_554 S
C36 C34 1.353 1_455 S
C36 H78 0.930 1_454 S
C37 N33 1.276 1_554 S
C37 C35 1.358 . S
C37 H79 0.930 . S
C38 C39 1.348 . S
C38 C40 1.356 . S
C38 O63 1.325 . S
C39 C38 1.348 . S
C39 C41 1.353 . S
C39 H80 0.929 . S
C40 C38 1.356 . S
C40 C42 1.358 . S
C40 H81 0.930 . S
C41 C39 1.353 . S
C41 N43 1.314 . S
C41 H82 0.930 . S
C42 C40 1.358 . S
C42 N43 1.279 . S
C42 H83 0.930 . S
N43 C41 1.314 . S
N43 C42 1.279 . S
C44 C46 1.353 . S
C44 N47 1.314 . S
C44 H50 0.930 . S
C45 N47 1.279 . S
C45 C48 1.358 . S
C45 H51 0.930 . S
C46 C44 1.353 . S
C46 C49 1.348 . S
C46 H84 0.929 . S
N47 Li2 1.990 . S
N47 C44 1.314 . S
N47 C45 1.279 . S
C48 C45 1.358 . S
C48 C49 1.356 . S
C48 H85 0.930 . S
C49 C46 1.348 . S
C49 C48 1.356 . S
H50 C44 0.930 . S
H51 C45 0.930 . S
C52 N53 1.321 1_556 S
C52 C54 1.349 . S
C52 H58 0.927 . S
N53 Li3 1.990 . S
N53 C52 1.321 1_554 S
N53 C56 1.279 . S
C54 C52 1.349 . S
C54 C57 1.348 . S
C54 H86 0.929 . S
C55 C56 1.358 . S
C55 C57 1.356 1_554 S
C55 H87 0.930 . S
C56 N53 1.279 . S
C56 C55 1.358 . S
C56 H59 0.930 . S
C57 C54 1.348 . S
C57 C55 1.356 1_556 S
H58 C52 0.927 . S
H59 C56 0.930 . S
O60 Li0 1.956 . S
O60 Li1 1.970 1_455 S
O60 Li2 1.961 1_545 S
O60 C4 1.325 . S
O61 Li0 1.970 1_655 S
O61 Li1 1.956 . S
O61 Li3 1.961 1_545 S
O61 C10 1.325 . S
O62 Li0 1.961 1_565 S
O62 Li2 1.956 . S
O62 Li3 1.970 1_455 S
O62 C32 1.325 . S
O63 Li1 1.961 1_565 S
O63 Li2 1.970 1_655 S
O63 Li3 1.956 . S
O63 C38 1.325 . S
H64 C6 0.929 . S
H65 C7 0.930 . S
H66 C8 0.930 . S
H67 C9 0.930 . S
H68 C11 0.930 . S
H69 C13 0.929 . S
H70 C14 0.930 . S
H71 C15 0.930 1_456 S
H72 C18 0.930 . S
H73 C21 0.929 . S
H74 C26 0.929 . S
H75 C27 0.930 . S
H76 C34 0.929 . S
H77 C35 0.930 . S
H78 C36 0.930 1_656 S
H79 C37 0.930 . S
H80 C39 0.929 . S
H81 C40 0.930 . S
H82 C41 0.930 . S
H83 C42 0.930 . S
H84 C46 0.929 . S
H85 C48 0.930 . S
H86 C54 0.929 . S
H87 C55 0.930 . S
Li88 N105 1.990 . S
Li88 O148 1.956 . S
Li88 O149 1.970 1_665 S
Li88 O150 1.961 . S
Li89 N113 1.990 . S
Li89 O148 1.970 1_445 S
Li89 O149 1.956 . S
Li89 O151 1.961 . S
Li90 N135 1.990 . S
Li90 O148 1.961 . S
Li90 O150 1.956 . S
Li90 O151 1.970 1_665 S
Li91 N141 1.990 . S
Li91 O149 1.961 . S
Li91 O150 1.970 1_445 S
Li91 O151 1.956 . S
C92 C94 1.348 1_655 S
C92 C95 1.356 . S
C92 O148 1.325 . S
N93 C96 1.314 . S
N93 C97 1.279 . S
C94 C92 1.348 1_455 S
C94 C96 1.353 1_455 S
C94 H152 0.929 . S
C95 C92 1.356 . S
C95 C97 1.358 . S
C95 H153 0.930 . S
C96 N93 1.314 . S
C96 C94 1.353 1_655 S
C96 H154 0.930 1_655 S
C97 N93 1.279 . S
C97 C95 1.358 . S
C97 H155 0.930 . S
C98 C101 1.348 1_545 S
C98 C102 1.356 . S
C98 O149 1.325 . S
C99 N100 1.279 . S
C99 C102 1.358 . S
C99 H156 0.930 . S
N100 C99 1.279 . S
N100 C103 1.314 . S
C101 C98 1.348 1_565 S
C101 C103 1.353 1_565 S
C101 H157 0.929 . S
C102 C98 1.356 . S
C102 C99 1.358 . S
C102 H158 0.930 . S
C103 N100 1.314 . S
C103 C101 1.353 1_545 S
C103 H159 0.930 1_545 S
C104 N105 1.314 . S
C104 C109 1.353 . S
C104 H110 0.930 . S
N105 Li88 1.990 . S
N105 C104 1.314 . S
N105 C107 1.279 . S
C106 C107 1.358 . S
C106 C108 1.356 . S
C106 H160 0.930 . S
C107 N105 1.279 . S
C107 C106 1.358 . S
C107 H111 0.930 . S
C108 C106 1.356 . S
C108 C109 1.348 . S
C109 C104 1.353 . S
C109 C108 1.348 . S
C109 H161 0.929 . S
H110 C104 0.930 . S
H111 C107 0.930 . S
C112 N113 1.314 . S
C112 C114 1.353 . S
C112 H118 0.930 . S
N113 Li89 1.990 . S
N113 C112 1.314 . S
N113 C116 1.279 . S
C114 C112 1.353 . S
C114 C117 1.348 . S
C114 H162 0.929 . S
C115 C116 1.358 . S
C115 C117 1.356 . S
C115 H163 0.930 . S
C116 N113 1.279 . S
C116 C115 1.358 . S
C116 H119 0.930 . S
C117 C114 1.348 . S
C117 C115 1.356 . S
H118 C112 0.930 . S
H119 C116 0.930 . S
C120 C122 1.348 1_565 S
C120 C123 1.356 . S
C120 O150 1.325 . S
N121 C124 1.314 . S
N121 C125 1.279 . S
C122 C120 1.348 1_545 S
C122 C124 1.353 1_545 S
C122 H164 0.929 . S
C123 C120 1.356 . S
C123 C125 1.358 . S
C123 H165 0.930 . S
C124 N121 1.314 . S
C124 C122 1.353 1_565 S
C124 H166 0.930 1_565 S
C125 N121 1.279 . S
C125 C123 1.358 . S
C125 H167 0.930 . S
C126 C127 1.348 1_455 S
C126 C128 1.356 . S
C126 O151 1.325 . S
C127 C126 1.348 1_655 S
C127 C129 1.353 1_655 S
C127 H168 0.929 . S
C128 C126 1.356 . S
C128 C130 1.358 . S
C128 H169 0.930 . S
C129 C127 1.353 1_455 S
C129 N131 1.314 . S
C129 H170 0.930 1_455 S
C130 C128 1.358 . S
C130 N131 1.279 . S
C130 H171 0.930 . S
N131 C129 1.314 . S
N131 C130 1.279 . S
C132 C134 1.353 . S
C132 N135 1.314 . S
C132 H138 0.930 . S
C133 N135 1.279 . S
C133 C136 1.358 . S
C133 H139 0.930 . S
C134 C132 1.353 . S
C134 C137 1.348 . S
C134 H172 0.929 . S
N135 Li90 1.990 . S
N135 C132 1.314 . S
N135 C133 1.279 . S
C136 C133 1.358 . S
C136 C137 1.356 . S
C136 H173 0.930 . S
C137 C134 1.348 . S
C137 C136 1.356 . S
H138 C132 0.930 . S
H139 C133 0.930 . S
C140 N141 1.314 . S
C140 C142 1.353 . S
C140 H146 0.930 . S
N141 Li91 1.990 . S
N141 C140 1.314 . S
N141 C144 1.279 . S
C142 C140 1.353 . S
C142 C145 1.348 . S
C142 H174 0.929 . S
C143 C144 1.358 . S
C143 C145 1.356 . S
C143 H175 0.930 . S
C144 N141 1.279 . S
C144 C143 1.358 . S
C144 H147 0.930 . S
C145 C142 1.348 . S
C145 C143 1.356 . S
H146 C140 0.930 . S
H147 C144 0.930 . S
O148 Li88 1.956 . S
O148 Li89 1.970 1_665 S
O148 Li90 1.961 . S
O148 C92 1.325 . S
O149 Li88 1.970 1_445 S
O149 Li89 1.956 . S
O149 Li91 1.961 . S
O149 C98 1.325 . S
O150 Li88 1.961 . S
O150 Li90 1.956 . S
O150 Li91 1.970 1_665 S
O150 C120 1.325 . S
O151 Li89 1.961 . S
O151 Li90 1.970 1_445 S
O151 Li91 1.956 . S
O151 C126 1.325 . S
H152 C94 0.929 . S
H153 C95 0.930 . S
H154 C96 0.930 1_455 S
H155 C97 0.930 . S
H156 C99 0.930 . S
H157 C101 0.929 . S
H158 C102 0.930 . S
H159 C103 0.930 1_565 S
H160 C106 0.930 . S
H161 C109 0.929 . S
H162 C114 0.929 . S
H163 C115 0.930 . S
H164 C122 0.929 . S
H165 C123 0.930 . S
H166 C124 0.930 1_545 S
H167 C125 0.930 . S
H168 C127 0.929 . S
H169 C128 0.930 . S
H170 C129 0.930 1_655 S
H171 C130 0.930 . S
H172 C134 0.929 . S
H173 C136 0.930 . S
H174 C142 0.929 . S
H175 C143 0.930 . S
Li176 N193 1.990 . S
Li176 O236 1.956 . S
Li176 O237 1.970 1_565 S
Li176 O238 1.961 1_455 S
Li177 N201 1.990 . S
Li177 O236 1.970 1_545 S
Li177 O237 1.956 . S
Li177 O239 1.961 1_455 S
Li178 N223 1.990 . S
Li178 O236 1.961 1_655 S
Li178 O238 1.956 . S
Li178 O239 1.970 1_565 S
Li179 N229 1.990 . S
Li179 O237 1.961 1_655 S
Li179 O238 1.970 1_545 S
Li179 O239 1.956 . S
C180 C182 1.348 1_565 S
C180 C183 1.356 . S
C180 O236 1.325 . S
N181 C184 1.314 . S
N181 C185 1.279 . S
C182 C180 1.348 1_545 S
C182 C184 1.353 1_545 S
C182 H240 0.929 . S
C183 C180 1.356 . S
C183 C185 1.358 . S
C183 H241 0.930 . S
C184 N181 1.314 . S
C184 C182 1.353 1_565 S
C184 H242 0.930 1_565 S
C185 N181 1.279 . S
C185 C183 1.358 . S
C185 H243 0.930 . S
C186 C189 1.348 . S
C186 C190 1.356 . S
C186 O237 1.325 . S
C187 N188 1.279 . S
C187 C190 1.358 . S
C187 H244 0.930 . S
N188 C187 1.279 . S
N188 C191 1.314 . S
C189 C186 1.348 . S
C189 C191 1.353 . S
C189 H245 0.929 . S
C190 C186 1.356 . S
C190 C187 1.358 . S
C190 H246 0.930 . S
C191 N188 1.314 . S
C191 C189 1.353 . S
C191 H247 0.930 . S
C192 N193 1.314 . S
C192 C197 1.353 . S
C192 H198 0.930 . S
N193 Li176 1.990 . S
N193 C192 1.314 . S
N193 C195 1.279 . S
C194 C195 1.358 . S
C194 C196 1.356 . S
C194 H248 0.930 . S
C195 N193 1.279 . S
C195 C194 1.358 . S
C195 H199 0.930 . S
C196 C194 1.356 . S
C196 C197 1.348 . S
C197 C192 1.353 . S
C197 C196 1.348 . S
C197 H249 0.929 . S
H198 C192 0.930 . S
H199 C195 0.930 . S
C200 N201 1.314 . S
C200 C202 1.353 . S
C200 H206 0.930 . S
N201 Li177 1.990 . S
N201 C200 1.314 . S
N201 C204 1.279 . S
C202 C200 1.353 . S
C202 C205 1.348 . S
C202 H250 0.929 . S
C203 C204 1.358 . S
C203 C205 1.356 . S
C203 H251 0.930 . S
C204 N201 1.279 . S
C204 C203 1.358 . S
C204 H207 0.930 . S
C205 C202 1.348 . S
C205 C203 1.356 . S
H206 C200 0.930 . S
H207 C204 0.930 . S
C208 C210 1.348 . S
C208 C211 1.356 . S
C208 O238 1.325 . S
N209 C212 1.314 . S
N209 C213 1.279 . S
C210 C208 1.348 . S
C210 C212 1.353 . S
C210 H252 0.929 . S
C211 C208 1.356 . S
C211 C213 1.358 . S
C211 H253 0.930 . S
C212 N209 1.314 . S
C212 C210 1.353 . S
C212 H254 0.930 . S
C213 N209 1.279 . S
C213 C211 1.358 . S
C213 H255 0.930 . S
C214 C215 1.348 1_545 S
C214 C216 1.356 . S
C214 O239 1.325 . S
C215 C214 1.348 1_565 S
C215 C217 1.353 1_565 S
C215 H256 0.929 . S
C216 C214 1.356 . S
C216 C218 1.358 . S
C216 H257 0.930 . S
C217 C215 1.353 1_545 S
C217 N219 1.314 . S
C217 H258 0.930 1_545 S
C218 C216 1.358 . S
C218 N219 1.279 . S
C218 H259 0.930 . S
N219 C217 1.314 . S
N219 C218 1.279 . S
C220 C222 1.353 . S
C220 N223 1.314 . S
C220 H226 0.930 . S
C221 N223 1.279 . S
C221 C224 1.358 . S
C221 H227 0.930 . S
C222 C220 1.353 . S
C222 C225 1.348 . S
C222 H260 0.929 . S
N223 Li178 1.990 . S
N223 C220 1.314 . S
N223 C221 1.279 . S
C224 C221 1.358 . S
C224 C225 1.356 . S
C224 H261 0.930 . S
C225 C222 1.348 . S
C225 C224 1.356 . S
H226 C220 0.930 . S
H227 C221 0.930 . S
C228 N229 1.314 . S
C228 C230 1.353 . S
C228 H234 0.930 . S
N229 Li179 1.990 . S
N229 C228 1.314 . S
N229 C232 1.279 . S
C230 C228 1.353 . S
C230 C233 1.348 . S
C230 H262 0.929 . S
C231 C232 1.358 . S
C231 C233 1.356 . S
C231 H263 0.930 . S
C232 N229 1.279 . S
C232 C231 1.358 . S
C232 H235 0.930 . S
C233 C230 1.348 . S
C233 C231 1.356 . S
H234 C228 0.930 . S
H235 C232 0.930 . S
O236 Li176 1.956 . S
O236 Li177 1.970 1_565 S
O236 Li178 1.961 1_455 S
O236 C180 1.325 . S
O237 Li176 1.970 1_545 S
O237 Li177 1.956 . S
O237 Li179 1.961 1_455 S
O237 C186 1.325 . S
O238 Li176 1.961 1_655 S
O238 Li178 1.956 . S
O238 Li179 1.970 1_565 S
O238 C208 1.325 . S
O239 Li177 1.961 1_655 S
O239 Li178 1.970 1_545 S
O239 Li179 1.956 . S
O239 C214 1.325 . S
H240 C182 0.929 . S
H241 C183 0.930 . S
H242 C184 0.930 1_545 S
H243 C185 0.930 . S
H244 C187 0.930 . S
H245 C189 0.929 . S
H246 C190 0.930 . S
H247 C191 0.930 . S
H248 C194 0.930 . S
H249 C197 0.929 . S
H250 C202 0.929 . S
H251 C203 0.930 . S
H252 C210 0.929 . S
H253 C211 0.930 . S
H254 C212 0.930 . S
H255 C213 0.930 . S
H256 C215 0.929 . S
H257 C216 0.930 . S
H258 C217 0.930 1_565 S
H259 C218 0.930 . S
H260 C222 0.929 . S
H261 C224 0.930 . S
H262 C230 0.929 . S
H263 C231 0.930 . S
H264 C291 0.929 . S
N265 C290 1.433 . S
N265 C296 1.435 . S
N265 C302 1.423 . S
H266 C292 0.930 . S
H267 C295 0.931 . S
H268 C294 0.929 . S
H269 C297 0.930 . S
H270 C298 0.932 . S
H271 C301 0.929 . S
H272 C300 0.931 . S
H273 C303 0.929 . S
H274 C307 0.932 1_455 S
H275 C304 0.931 . S
H276 C306 0.929 1_455 S
H277 C309 0.929 . S
H278 C310 0.930 . S
H279 C312 0.929 . S
H280 C313 0.931 . S
H281 C315 0.930 . S
H282 C316 0.932 . S
H283 C318 0.931 . S
H284 C319 0.929 . S
H285 C321 0.929 . S
H286 C322 0.931 . S
H287 C324 0.929 1_455 S
N288 C308 1.433 . S
N288 C314 1.435 . S
N288 C320 1.423 . S
H289 C325 0.932 1_455 S
C290 N265 1.433 . S
C290 C291 1.363 . S
C290 C295 1.370 1_655 S
C291 H264 0.929 . S
C291 C290 1.363 . S
C291 C292 1.385 . S
C292 H266 0.930 . S
C292 C291 1.385 . S
C292 C293 1.357 . S
C293 C292 1.357 . S
C293 C294 1.406 1_655 S
C294 H268 0.929 . S
C294 C293 1.406 1_455 S
C294 C295 1.391 . S
C295 H267 0.931 . S
C295 C290 1.370 1_455 S
C295 C294 1.391 . S
C296 N265 1.435 . S
C296 C297 1.358 1_655 S
C296 C301 1.371 . S
C297 H269 0.930 . S
C297 C296 1.358 1_455 S
C297 C298 1.405 . S
C298 H270 0.932 . S
C298 C297 1.405 . S
C298 C299 1.383 1_455 S
C299 C298 1.383 1_655 S
C299 C300 1.393 . S
C300 H272 0.931 . S
C300 C299 1.393 . S
C300 C301 1.382 . S
C301 H271 0.929 . S
C301 C296 1.371 . S
C301 C300 1.382 . S
C302 N265 1.423 . S
C302 C303 1.362 . S
C302 C307 1.388 . S
C303 H273 0.929 . S
C303 C302 1.362 . S
C303 C304 1.376 . S
C304 H275 0.931 . S
C304 C303 1.376 . S
C304 C305 1.396 . S
C305 C304 1.396 . S
C305 C306 1.348 . S
C305 C323 1.472 . S
C306 H276 0.929 1_655 S
C306 C305 1.348 . S
C306 C307 1.443 . S
C307 H274 0.932 1_655 S
C307 C302 1.388 . S
C307 C306 1.443 . S
C308 N288 1.433 . S
C308 C309 1.363 . S
C308 C313 1.370 1_655 S
C309 H277 0.929 . S
C309 C308 1.363 . S
C309 C310 1.385 . S
C310 H278 0.930 . S
C310 C309 1.385 . S
C310 C311 1.357 . S
C311 C310 1.357 . S
C311 C312 1.406 1_655 S
C312 H279 0.929 . S
C312 C311 1.406 1_455 S
C312 C313 1.391 . S
C313 H280 0.931 . S
C313 C308 1.370 1_455 S
C313 C312 1.391 . S
C314 N288 1.435 . S
C314 C315 1.358 1_655 S
C314 C319 1.371 . S
C315 H281 0.930 . S
C315 C314 1.358 1_455 S
C315 C316 1.405 . S
C316 H282 0.932 . S
C316 C315 1.405 . S
C316 C317 1.383 1_455 S
C317 C316 1.383 1_655 S
C317 C318 1.393 . S
C318 H283 0.931 . S
C318 C317 1.393 . S
C318 C319 1.382 . S
C319 H284 0.929 . S
C319 C314 1.371 . S
C319 C318 1.382 . S
C320 N288 1.423 . S
C320 C321 1.362 . S
C320 C325 1.388 . S
C321 H285 0.929 . S
C321 C320 1.362 . S
C321 C322 1.376 . S
C322 H286 0.931 . S
C322 C321 1.376 . S
C322 C323 1.396 . S
C323 C305 1.472 . S
C323 C322 1.396 . S
C323 C324 1.348 . S
C324 H287 0.929 1_655 S
C324 C323 1.348 . S
C324 C325 1.443 . S
C325 H289 0.932 1_655 S
C325 C320 1.388 . S
C325 C324 1.443 . S
H326 C353 0.929 . S
N327 C352 1.433 . S
N327 C358 1.435 . S
N327 C364 1.423 . S
H328 C354 0.930 . S
H329 C357 0.931 . S
H330 C356 0.929 . S
H331 C359 0.930 . S
H332 C360 0.932 . S
H333 C363 0.929 . S
H334 C362 0.931 . S
H335 C365 0.929 . S
H336 C369 0.932 1_565 S
H337 C366 0.931 . S
H338 C368 0.929 1_565 S
H339 C371 0.929 . S
H340 C372 0.930 . S
H341 C374 0.929 . S
H342 C375 0.931 . S
H343 C377 0.930 . S
H344 C378 0.932 . S
H345 C380 0.931 . S
H346 C381 0.929 . S
H347 C383 0.929 . S
H348 C384 0.931 . S
H349 C386 0.929 1_565 S
N350 C370 1.433 . S
N350 C376 1.435 . S
N350 C382 1.423 . S
H351 C387 0.932 1_565 S
C352 N327 1.433 . S
C352 C353 1.363 . S
C352 C357 1.370 1_545 S
C353 H326 0.929 . S
C353 C352 1.363 . S
C353 C354 1.385 . S
C354 H328 0.930 . S
C354 C353 1.385 . S
C354 C355 1.357 . S
C355 C354 1.357 . S
C355 C356 1.406 1_545 S
C356 H330 0.929 . S
C356 C355 1.406 1_565 S
C356 C357 1.391 . S
C357 H329 0.931 . S
C357 C352 1.370 1_565 S
C357 C356 1.391 . S
C358 N327 1.435 . S
C358 C359 1.358 1_545 S
C358 C363 1.371 . S
C359 H331 0.930 . S
C359 C358 1.358 1_565 S
C359 C360 1.405 . S
C360 H332 0.932 . S
C360 C359 1.405 . S
C360 C361 1.383 1_565 S
C361 C360 1.383 1_545 S
C361 C362 1.393 . S
C362 H334 0.931 . S
C362 C361 1.393 . S
C362 C363 1.382 . S
C363 H333 0.929 . S
C363 C358 1.371 . S
C363 C362 1.382 . S
C364 N327 1.423 . S
C364 C365 1.362 . S
C364 C369 1.388 . S
C365 H335 0.929 . S
C365 C364 1.362 . S
C365 C366 1.376 . S
C366 H337 0.931 . S
C366 C365 1.376 . S
C366 C367 1.396 . S
C367 C366 1.396 . S
C367 C368 1.348 . S
C367 C385 1.472 . S
C368 H338 0.929 1_545 S
C368 C367 1.348 . S
C368 C369 1.443 . S
C369 H336 0.932 1_545 S
C369 C364 1.388 . S
C369 C368 1.443 . S
C370 N350 1.433 . S
C370 C371 1.363 . S
C370 C375 1.370 1_545 S
C371 H339 0.929 . S
C371 C370 1.363 . S
C371 C372 1.385 . S
C372 H340 0.930 . S
C372 C371 1.385 . S
C372 C373 1.357 . S
C373 C372 1.357 . S
C373 C374 1.406 1_545 S
C374 H341 0.929 . S
C374 C373 1.406 1_565 S
C374 C375 1.391 . S
C375 H342 0.931 . S
C375 C370 1.370 1_565 S
C375 C374 1.391 . S
C376 N350 1.435 . S
C376 C377 1.358 1_545 S
C376 C381 1.371 . S
C377 H343 0.930 . S
C377 C376 1.358 1_565 S
C377 C378 1.405 . S
C378 H344 0.932 . S
C378 C377 1.405 . S
C378 C379 1.383 1_565 S
C379 C378 1.383 1_545 S
C379 C380 1.393 . S
C380 H345 0.931 . S
C380 C379 1.393 . S
C380 C381 1.382 . S
C381 H346 0.929 . S
C381 C376 1.371 . S
C381 C380 1.382 . S
C382 N350 1.423 . S
C382 C383 1.362 . S
C382 C387 1.388 . S
C383 H347 0.929 . S
C383 C382 1.362 . S
C383 C384 1.376 . S
C384 H348 0.931 . S
C384 C383 1.376 . S
C384 C385 1.396 . S
C385 C367 1.472 . S
C385 C384 1.396 . S
C385 C386 1.348 . S
C386 H349 0.929 1_545 S
C386 C385 1.348 . S
C386 C387 1.443 . S
C387 H351 0.932 1_545 S
C387 C382 1.388 . S
C387 C386 1.443 . S
H388 C415 0.929 . S
N389 C414 1.433 . S
N389 C420 1.435 . S
N389 C426 1.423 . S
H390 C416 0.930 . S
H391 C419 0.931 . S
H392 C418 0.929 . S
H393 C421 0.930 . S
H394 C422 0.932 . S
H395 C425 0.929 . S
H396 C424 0.931 . S
H397 C427 0.929 . S
H398 C431 0.932 . S
H399 C428 0.931 . S
H400 C430 0.929 . S
H401 C433 0.929 . S
H402 C434 0.930 . S
H403 C436 0.929 . S
H404 C437 0.931 . S
H405 C439 0.930 . S
H406 C440 0.932 . S
H407 C442 0.931 . S
H408 C443 0.929 . S
H409 C445 0.929 . S
H410 C446 0.931 . S
H411 C448 0.929 . S
N412 C432 1.433 . S
N412 C438 1.435 . S
N412 C444 1.423 . S
H413 C449 0.932 . S
C414 N389 1.433 . S
C414 C415 1.363 . S
C414 C419 1.370 . S
C415 H388 0.929 . S
C415 C414 1.363 . S
C415 C416 1.385 . S
C416 H390 0.930 . S
C416 C415 1.385 . S
C416 C417 1.357 . S
C417 C416 1.357 . S
C417 C418 1.406 . S
C418 H392 0.929 . S
C418 C417 1.406 . S
C418 C419 1.391 . S
C419 H391 0.931 . S
C419 C414 1.370 . S
C419 C418 1.391 . S
C420 N389 1.435 . S
C420 C421 1.358 . S
C420 C425 1.371 . S
C421 H393 0.930 . S
C421 C420 1.358 . S
C421 C422 1.405 . S
C422 H394 0.932 . S
C422 C421 1.405 . S
C422 C423 1.383 . S
C423 C422 1.383 . S
C423 C424 1.393 . S
C424 H396 0.931 . S
C424 C423 1.393 . S
C424 C425 1.382 . S
C425 H395 0.929 . S
C425 C420 1.371 . S
C425 C424 1.382 . S
C426 N389 1.423 . S
C426 C427 1.362 . S
C426 C431 1.388 . S
C427 H397 0.929 . S
C427 C426 1.362 . S
C427 C428 1.376 . S
C428 H399 0.931 . S
C428 C427 1.376 . S
C428 C429 1.396 . S
C429 C428 1.396 . S
C429 C430 1.348 . S
C429 C447 1.472 . S
C430 H400 0.929 . S
C430 C429 1.348 . S
C430 C431 1.443 . S
C431 H398 0.932 . S
C431 C426 1.388 . S
C431 C430 1.443 . S
C432 N412 1.433 . S
C432 C433 1.363 . S
C432 C437 1.370 . S
C433 H401 0.929 . S
C433 C432 1.363 . S
C433 C434 1.385 . S
C434 H402 0.930 . S
C434 C433 1.385 . S
C434 C435 1.357 . S
C435 C434 1.357 . S
C435 C436 1.406 . S
C436 H403 0.929 . S
C436 C435 1.406 . S
C436 C437 1.391 . S
C437 H404 0.931 . S
C437 C432 1.370 . S
C437 C436 1.391 . S
C438 N412 1.435 . S
C438 C439 1.358 . S
C438 C443 1.371 . S
C439 H405 0.930 . S
C439 C438 1.358 . S
C439 C440 1.405 . S
C440 H406 0.932 . S
C440 C439 1.405 . S
C440 C441 1.383 . S
C441 C440 1.383 . S
C441 C442 1.393 . S
C442 H407 0.931 . S
C442 C441 1.393 . S
C442 C443 1.382 . S
C443 H408 0.929 . S
C443 C438 1.371 . S
C443 C442 1.382 . S
C444 N412 1.423 . S
C444 C445 1.362 . S
C444 C449 1.388 . S
C445 H409 0.929 . S
C445 C444 1.362 . S
C445 C446 1.376 . S
C446 H410 0.931 . S
C446 C445 1.376 . S
C446 C447 1.396 . S
C447 C429 1.472 . S
C447 C446 1.396 . S
C447 C448 1.348 . S
C448 H411 0.929 . S
C448 C447 1.348 . S
C448 C449 1.443 . S
C449 H413 0.932 . S
C449 C444 1.388 . S
C449 C448 1.443 . S
H450 C468 0.951 . S
H451 C470 0.951 . S
H452 C472 0.950 1_455 S
H453 C473 0.939 1_455 S
H454 C475 0.950 . S
H455 C478 0.950 . S
H456 C479 0.950 . S
H457 C481 0.950 . S
H458 C482 0.950 . S
H459 C483 0.951 . S
H460 C485 0.951 . S
H461 C487 0.950 . S
H462 C488 0.950 . S
H463 C490 0.950 . S
H464 C493 0.950 . S
H465 C494 0.950 . S
H466 C496 0.950 . S
H467 C497 0.950 . S
C468 H450 0.951 . S
C468 C469 1.366 . S
C468 C470 1.388 . S
C469 C468 1.366 . S
C469 C473 1.385 . S
C470 H451 0.951 . S
C470 C468 1.388 . S
C470 C471 1.366 . S
C471 C470 1.366 . S
C471 C472 1.414 . S
C471 C474 1.499 . S
C472 H452 0.950 1_655 S
C472 C471 1.414 . S
C472 C473 1.374 . S
C473 H453 0.939 1_655 S
C473 C469 1.385 . S
C473 C472 1.374 . S
C474 C471 1.499 . S
C474 C475 1.373 1_655 S
C474 C476 1.389 . S
C475 H454 0.950 . S
C475 C474 1.373 1_455 S
C475 C491 1.377 . S
C476 C474 1.389 . S
C476 C477 1.524 . S
C476 C490 1.377 . S
C477 C476 1.524 . S
C477 C478 1.397 . S
C477 C482 1.363 . S
C478 H455 0.950 . S
C478 C477 1.397 . S
C478 C479 1.334 . S
C479 H456 0.950 . S
C479 C478 1.334 . S
C479 C480 1.287 . S
C480 C479 1.287 . S
C480 C481 1.524 . S
C480 H499 0.913 . S
C481 H457 0.950 . S
C481 C480 1.524 . S
C481 C482 1.415 . S
C482 H458 0.950 . S
C482 C477 1.363 . S
C482 C481 1.415 . S
C483 H459 0.951 . S
C483 C484 1.366 1_455 S
C483 C485 1.388 . S
C484 C483 1.366 1_655 S
C484 C488 1.385 . S
C485 H460 0.951 . S
C485 C483 1.388 . S
C485 C486 1.366 1_455 S
C486 C485 1.366 1_655 S
C486 C487 1.414 . S
C486 C489 1.499 . S
C487 H461 0.950 . S
C487 C486 1.414 . S
C487 C488 1.374 . S
C488 H462 0.950 . S
C488 C484 1.385 . S
C488 C487 1.374 . S
C489 C486 1.499 . S
C489 C490 1.373 . S
C489 C491 1.389 1_655 S
C490 H463 0.950 . S
C490 C476 1.377 . S
C490 C489 1.373 . S
C491 C475 1.377 . S
C491 C489 1.389 1_455 S
C491 C492 1.524 . S
C492 C491 1.524 . S
C492 C493 1.397 . S
C492 C497 1.363 . S
C493 H464 0.950 . S
C493 C492 1.397 . S
C493 C494 1.334 . S
C494 H465 0.950 . S
C494 C493 1.334 . S
C494 C495 1.287 . S
C495 C494 1.287 . S
C495 C496 1.524 . S
C495 H498 0.999 . S
C496 H466 0.950 . S
C496 C495 1.524 . S
C496 C497 1.415 . S
C497 H467 0.950 . S
C497 C492 1.363 . S
C497 C496 1.415 . S
H498 C495 0.999 . S
H499 C480 0.913 . S
H500 C518 0.951 . S
H501 C520 0.951 . S
H502 C522 0.950 . S
H503 C523 0.950 . S
H504 C525 0.950 1_545 S
H505 C528 0.950 . S
H506 C529 0.950 . S
H507 C531 0.950 . S
H508 C532 0.950 . S
H509 C533 0.951 . S
H510 C535 0.951 . S
H511 C537 0.950 . S
H512 C538 0.949 1_545 S
H513 C540 0.950 . S
H514 C543 0.950 . S
H515 C544 0.950 . S
H516 C546 0.950 . S
H517 C547 0.950 . S
C518 H500 0.951 . S
C518 C519 1.366 . S
C518 C520 1.388 . S
C519 C518 1.366 . S
C519 C523 1.385 . S
C520 H501 0.951 . S
C520 C518 1.388 . S
C520 C521 1.366 . S
C521 C520 1.366 . S
C521 C522 1.414 . S
C521 C524 1.499 . S
C522 H502 0.950 . S
C522 C521 1.414 . S
C522 C523 1.374 . S
C523 H503 0.950 . S
C523 C519 1.385 . S
C523 C522 1.374 . S
C524 C521 1.499 . S
C524 C525 1.373 . S
C524 C526 1.389 . S
C525 H504 0.950 1_565 S
C525 C524 1.373 . S
C525 C541 1.377 1_565 S
C526 C524 1.389 . S
C526 C527 1.524 . S
C526 C540 1.377 . S
C527 C526 1.524 . S
C527 C528 1.397 . S
C527 C532 1.363 . S
C528 H505 0.950 . S
C528 C527 1.397 . S
C528 C529 1.334 . S
C529 H506 0.950 . S
C529 C528 1.334 . S
C529 C530 1.287 . S
C530 C529 1.287 . S
C530 C531 1.524 . S
C530 H549 0.913 . S
C531 H507 0.950 . S
C531 C530 1.524 . S
C531 C532 1.415 . S
C532 H508 0.950 . S
C532 C527 1.363 . S
C532 C531 1.415 . S
C533 H509 0.951 . S
C533 C534 1.366 . S
C533 C535 1.388 . S
C534 C533 1.366 . S
C534 C538 1.375 . S
C535 H510 0.951 . S
C535 C533 1.388 . S
C535 C536 1.366 . S
C536 C535 1.366 . S
C536 C537 1.414 . S
C536 C539 1.499 . S
C537 H511 0.950 . S
C537 C536 1.414 . S
C537 C538 1.385 . S
C538 H512 0.949 1_565 S
C538 C534 1.375 . S
C538 C537 1.385 . S
C539 C536 1.499 . S
C539 C540 1.373 . S
C539 C541 1.389 1_565 S
C540 H513 0.950 . S
C540 C526 1.377 . S
C540 C539 1.373 . S
C541 C525 1.377 1_545 S
C541 C539 1.389 1_545 S
C541 C542 1.524 . S
C542 C541 1.524 . S
C542 C543 1.397 . S
C542 C547 1.363 . S
C543 H514 0.950 . S
C543 C542 1.397 . S
C543 C544 1.334 . S
C544 H515 0.950 . S
C544 C543 1.334 . S
C544 C545 1.287 . S
C545 C544 1.287 . S
C545 C546 1.524 . S
C545 H548 0.999 . S
C546 H516 0.950 . S
C546 C545 1.524 . S
C546 C547 1.415 . S
C547 H517 0.950 . S
C547 C542 1.363 . S
C547 C546 1.415 . S
H548 C545 0.999 . S
H549 C530 0.913 . S
H550 C568 0.951 . S
H551 C570 0.951 . S
H552 C572 0.950 . S
H553 C573 0.950 . S
H554 C575 0.950 . S
H555 C578 0.950 . S
H556 C579 0.950 . S
H557 C581 0.950 . S
H558 C582 0.950 . S
H559 C583 0.951 . S
H560 C585 0.951 . S
H561 C587 0.950 . S
H562 C588 0.950 . S
H563 C590 0.950 . S
H564 C593 0.950 . S
H565 C594 0.950 . S
H566 C596 0.950 . S
H567 C597 0.950 . S
C568 H550 0.951 . S
C568 C569 1.366 . S
C568 C570 1.388 . S
C569 C568 1.366 . S
C569 C573 1.385 . S
C570 H551 0.951 . S
C570 C568 1.388 . S
C570 C571 1.366 . S
C571 C570 1.366 . S
C571 C572 1.414 . S
C571 C574 1.499 . S
C572 H552 0.950 . S
C572 C571 1.414 . S
C572 C573 1.374 . S
C573 H553 0.950 . S
C573 C569 1.385 . S
C573 C572 1.374 . S
C574 C571 1.499 . S
C574 C575 1.373 . S
C574 C576 1.389 . S
C575 H554 0.950 . S
C575 C574 1.373 . S
C575 C591 1.377 . S
C576 C574 1.389 . S
C576 C577 1.524 . S
C576 C590 1.377 . S
C577 C576 1.524 . S
C577 C578 1.397 . S
C577 C582 1.363 . S
C578 H555 0.950 . S
C578 C577 1.397 . S
C578 C579 1.334 . S
C579 H556 0.950 . S
C579 C578 1.334 . S
C579 C580 1.287 . S
C580 C579 1.287 . S
C580 C581 1.524 . S
C580 H599 0.913 . S
C581 H557 0.950 . S
C581 C580 1.524 . S
C581 C582 1.415 . S
C582 H558 0.950 . S
C582 C577 1.363 . S
C582 C581 1.415 . S
C583 H559 0.951 . S
C583 C584 1.366 . S
C583 C585 1.388 . S
C584 C583 1.366 . S
C584 C588 1.385 . S
C585 H560 0.951 . S
C585 C583 1.388 . S
C585 C586 1.366 . S
C586 C585 1.366 . S
C586 C587 1.414 . S
C586 C589 1.499 . S
C587 H561 0.950 . S
C587 C586 1.414 . S
C587 C588 1.374 . S
C588 H562 0.950 . S
C588 C584 1.385 . S
C588 C587 1.374 . S
C589 C586 1.499 . S
C589 C590 1.373 . S
C589 C591 1.389 . S
C590 H563 0.950 . S
C590 C576 1.377 . S
C590 C589 1.373 . S
C591 C575 1.377 . S
C591 C589 1.389 . S
C591 C592 1.524 . S
C592 C591 1.524 . S
C592 C593 1.397 . S
C592 C597 1.363 . S
C593 H564 0.950 . S
C593 C592 1.397 . S
C593 C594 1.334 . S
C594 H565 0.950 . S
C594 C593 1.334 . S
C594 C595 1.287 . S
C595 C594 1.287 . S
C595 C596 1.524 . S
C595 H598 0.999 . S
C596 H566 0.950 . S
C596 C595 1.524 . S
C596 C597 1.415 . S
C597 H567 0.950 . S
C597 C592 1.363 . S
C597 C596 1.415 . S
H598 C595 0.999 . S
H599 C580 0.913 . S
H600 C618 0.951 . S
H601 C620 0.951 . S
H602 C622 0.950 1_655 S
H603 C623 0.950 1_655 S
H604 C625 0.950 . S
H605 C628 0.950 . S
H606 C629 0.950 . S
H607 C631 0.950 . S
H608 C632 0.950 . S
H609 C633 0.951 . S
H610 C635 0.951 . S
H611 C637 0.950 . S
H612 C638 0.950 . S
H613 C640 0.950 . S
H614 C643 0.950 . S
H615 C644 0.950 . S
H616 C646 0.950 . S
H617 C647 0.950 . S
C618 H600 0.951 . S
C618 C619 1.366 . S
C618 C620 1.388 . S
C619 C618 1.366 . S
C619 C623 1.385 . S
C620 H601 0.951 . S
C620 C618 1.388 . S
C620 C621 1.366 . S
C621 C620 1.366 . S
C621 C622 1.414 . S
C621 C624 1.499 . S
C622 H602 0.950 1_455 S
C622 C621 1.414 . S
C622 C623 1.374 . S
C623 H603 0.950 1_455 S
C623 C619 1.385 . S
C623 C622 1.374 . S
C624 C621 1.499 . S
C624 C625 1.373 1_455 S
C624 C626 1.389 . S
C625 H604 0.950 . S
C625 C624 1.373 1_655 S
C625 C641 1.377 . S
C626 C624 1.389 . S
C626 C627 1.524 . S
C626 C640 1.377 . S
C627 C626 1.524 . S
C627 C628 1.397 . S
C627 C632 1.363 . S
C628 H605 0.950 . S
C628 C627 1.397 . S
C628 C629 1.334 . S
C629 H606 0.950 . S
C629 C628 1.334 . S
C629 C630 1.287 . S
C630 C629 1.287 . S
C630 C631 1.524 . S
C630 H649 0.913 . S
C631 H607 0.950 . S
C631 C630 1.524 . S
C631 C632 1.415 . S
C632 H608 0.950 . S
C632 C627 1.363 . S
C632 C631 1.415 . S
C633 H609 0.951 . S
C633 C634 1.366 1_655 S
C633 C635 1.388 . S
C634 C633 1.366 1_455 S
C634 C638 1.385 . S
C635 H610 0.951 . S
C635 C633 1.388 . S
C635 C636 1.366 1_655 S
C636 C635 1.366 1_455 S
C636 C637 1.414 . S
C636 C639 1.499 . S
C637 H611 0.950 . S
C637 C636 1.414 . S
C637 C638 1.374 . S
C638 H612 0.950 . S
C638 C634 1.385 . S
C638 C637 1.374 . S
C639 C636 1.499 . S
C639 C640 1.373 . S
C639 C641 1.389 1_455 S
C640 H613 0.950 . S
C640 C626 1.377 . S
C640 C639 1.373 . S
C641 C625 1.377 . S
C641 C639 1.389 1_655 S
C641 C642 1.524 . S
C642 C641 1.524 . S
C642 C643 1.397 . S
C642 C647 1.363 . S
C643 H614 0.950 . S
C643 C642 1.397 . S
C643 C644 1.334 . S
C644 H615 0.950 . S
C644 C643 1.334 . S
C644 C645 1.287 . S
C645 C644 1.287 . S
C645 C646 1.524 . S
C645 H648 0.999 . S
C646 H616 0.950 . S
C646 C645 1.524 . S
C646 C647 1.415 . S
C647 H617 0.950 . S
C647 C642 1.363 . S
C647 C646 1.415 . S
H648 C645 0.999 . S
H649 C630 0.913 . S
H650 C668 0.951 . S
H651 C670 0.951 . S
H652 C672 0.950 . S
H653 C673 0.950 . S
H654 C675 0.950 . S
H655 C678 0.950 . S
H656 C679 0.950 . S
H657 C681 0.950 . S
H658 C682 0.950 . S
H659 C683 0.951 . S
H660 C685 0.951 . S
H661 C687 0.950 . S
H662 C688 0.950 . S
H663 C690 0.950 . S
H664 C693 0.950 . S
H665 C694 0.950 . S
H666 C696 0.950 . S
H667 C697 0.950 . S
C668 H650 0.951 . S
C668 C669 1.366 . S
C668 C670 1.388 . S
C669 C668 1.366 . S
C669 C673 1.385 . S
C670 H651 0.951 . S
C670 C668 1.388 . S
C670 C671 1.366 . S
C671 C670 1.366 . S
C671 C672 1.414 . S
C671 C674 1.499 . S
C672 H652 0.950 . S
C672 C671 1.414 . S
C672 C673 1.374 . S
C673 H653 0.950 . S
C673 C669 1.385 . S
C673 C672 1.374 . S
C674 C671 1.499 . S
C674 C675 1.373 . S
C674 C676 1.389 1_545 S
C675 H654 0.950 . S
C675 C674 1.373 . S
C675 C691 1.377 . S
C676 C674 1.389 1_565 S
C676 C677 1.524 . S
C676 C690 1.377 . S
C677 C676 1.524 . S
C677 C678 1.397 . S
C677 C682 1.363 . S
C678 H655 0.950 . S
C678 C677 1.397 . S
C678 C679 1.334 . S
C679 H656 0.950 . S
C679 C678 1.334 . S
C679 C680 1.287 . S
C680 C679 1.287 . S
C680 C681 1.524 . S
C680 H699 0.913 . S
C681 H657 0.950 . S
C681 C680 1.524 . S
C681 C682 1.415 . S
C682 H658 0.950 . S
C682 C677 1.363 . S
C682 C681 1.415 . S
C683 H659 0.951 . S
C683 C684 1.366 . S
C683 C685 1.388 . S
C684 C683 1.366 . S
C684 C688 1.385 1_545 S
C685 H660 0.951 . S
C685 C683 1.388 . S
C685 C686 1.366 . S
C686 C685 1.366 . S
C686 C687 1.414 1_545 S
C686 C689 1.499 . S
C687 H661 0.950 . S
C687 C686 1.414 1_565 S
C687 C688 1.374 . S
C688 H662 0.950 . S
C688 C684 1.385 1_565 S
C688 C687 1.374 . S
C689 C686 1.499 . S
C689 C690 1.373 1_545 S
C689 C691 1.389 . S
C690 H663 0.950 . S
C690 C676 1.377 . S
C690 C689 1.373 1_565 S
C691 C675 1.377 . S
C691 C689 1.389 . S
C691 C692 1.524 . S
C692 C691 1.524 . S
C692 C693 1.397 . S
C692 C697 1.363 . S
C693 H664 0.950 . S
C693 C692 1.397 . S
C693 C694 1.334 . S
C694 H665 0.950 . S
C694 C693 1.334 . S
C694 C695 1.287 . S
C695 C694 1.287 . S
C695 C696 1.524 . S
C695 H698 0.999 . S
C696 H666 0.950 . S
C696 C695 1.524 . S
C696 C697 1.415 . S
C697 H667 0.950 . S
C697 C692 1.363 . S
C697 C696 1.415 . S
H698 C695 0.999 . S
H699 C680 0.913 . S
H700 C718 0.951 . S
H701 C720 0.951 . S
H702 C722 0.950 . S
H703 C723 0.950 . S
H704 C725 0.950 . S
H705 C728 0.950 . S
H706 C729 0.950 . S
H707 C731 0.950 . S
H708 C732 0.950 . S
H709 C733 0.951 . S
H710 C735 0.951 . S
H711 C737 0.950 . S
H712 C738 0.950 . S
H713 C740 0.950 . S
H714 C743 0.950 . S
H715 C744 0.950 . S
H716 C746 0.950 . S
H717 C747 0.950 . S
C718 H700 0.951 . S
C718 C719 1.366 . S
C718 C720 1.388 . S
C719 C718 1.366 . S
C719 C723 1.385 . S
C720 H701 0.951 . S
C720 C718 1.388 . S
C720 C721 1.366 . S
C721 C720 1.366 . S
C721 C722 1.414 . S
C721 C724 1.499 . S
C722 H702 0.950 . S
C722 C721 1.414 . S
C722 C723 1.374 . S
C723 H703 0.950 . S
C723 C719 1.385 . S
C723 C722 1.374 . S
C724 C721 1.499 . S
C724 C725 1.373 . S
C724 C726 1.389 . S
C725 H704 0.950 . S
C725 C724 1.373 . S
C725 C741 1.377 . S
C726 C724 1.389 . S
C726 C727 1.524 . S
C726 C740 1.377 . S
C727 C726 1.524 . S
C727 C728 1.397 . S
C727 C732 1.363 . S
C728 H705 0.950 . S
C728 C727 1.397 . S
C728 C729 1.334 . S
C729 H706 0.950 . S
C729 C728 1.334 . S
C729 C730 1.287 . S
C730 C729 1.287 . S
C730 C731 1.524 . S
C730 H749 0.913 . S
C731 H707 0.950 . S
C731 C730 1.524 . S
C731 C732 1.415 . S
C732 H708 0.950 . S
C732 C727 1.363 . S
C732 C731 1.415 . S
C733 H709 0.951 . S
C733 C734 1.366 . S
C733 C735 1.388 . S
C734 C733 1.366 . S
C734 C738 1.385 . S
C735 H710 0.951 . S
C735 C733 1.388 . S
C735 C736 1.366 . S
C736 C735 1.366 . S
C736 C737 1.414 . S
C736 C739 1.499 . S
C737 H711 0.950 . S
C737 C736 1.414 . S
C737 C738 1.374 . S
C738 H712 0.950 . S
C738 C734 1.385 . S
C738 C737 1.374 . S
C739 C736 1.499 . S
C739 C740 1.373 . S
C739 C741 1.389 . S
C740 H713 0.950 . S
C740 C726 1.377 . S
C740 C739 1.373 . S
C741 C725 1.377 . S
C741 C739 1.389 . S
C741 C742 1.524 . S
C742 C741 1.524 . S
C742 C743 1.397 . S
C742 C747 1.363 . S
C743 H714 0.950 . S
C743 C742 1.397 . S
C743 C744 1.334 . S
C744 H715 0.950 . S
C744 C743 1.334 . S
C744 C745 1.287 . S
C745 C744 1.287 . S
C745 C746 1.524 . S
C745 H748 0.999 . S
C746 H716 0.950 . S
C746 C745 1.524 . S
C746 C747 1.415 . S
C747 H717 0.950 . S
C747 C742 1.363 . S
C747 C746 1.415 . S
H748 C745 0.999 . S
H749 C730 0.913 . S
H750 C768 0.951 . S
H751 C770 0.951 . S
H752 C772 0.950 . S
H753 C773 0.950 . S
H754 C775 0.950 . S
H755 C778 0.950 . S
H756 C779 0.950 . S
H757 C781 0.950 . S
H758 C782 0.950 . S
H759 C783 0.951 . S
H760 C785 0.951 . S
H761 C787 0.950 . S
H762 C788 0.950 . S
H763 C790 0.956 1_565 S
H764 C793 0.950 . S
H765 C794 0.950 . S
H766 C796 0.950 . S
H767 C797 0.950 . S
C768 H750 0.951 . S
C768 C769 1.366 . S
C768 C770 1.388 . S
C769 C768 1.366 . S
C769 C773 1.385 . S
C770 H751 0.951 . S
C770 C768 1.388 . S
C770 C771 1.366 . S
C771 C770 1.366 . S
C771 C772 1.414 . S
C771 C774 1.499 . S
C772 H752 0.950 . S
C772 C771 1.414 . S
C772 C773 1.374 . S
C773 H753 0.950 . S
C773 C769 1.385 . S
C773 C772 1.374 . S
C774 C771 1.499 . S
C774 C775 1.373 . S
C774 C776 1.389 . S
C775 H754 0.950 . S
C775 C774 1.373 . S
C775 C791 1.377 . S
C776 C774 1.389 . S
C776 C777 1.524 1_545 S
C776 C790 1.377 . S
C777 C776 1.524 1_565 S
C777 C778 1.397 . S
C777 C782 1.363 1_565 S
C778 H755 0.950 . S
C778 C777 1.397 . S
C778 C779 1.334 . S
C779 H756 0.950 . S
C779 C778 1.334 . S
C779 C780 1.287 . S
C780 C779 1.287 . S
C780 C781 1.524 . S
C780 H799 0.913 . S
C781 H757 0.950 . S
C781 C780 1.524 . S
C781 C782 1.415 1_565 S
C782 H758 0.950 . S
C782 C777 1.363 1_545 S
C782 C781 1.415 1_545 S
C783 H759 0.951 . S
C783 C784 1.366 1_565 S
C783 C785 1.388 . S
C784 C783 1.366 1_545 S
C784 C788 1.385 . S
C785 H760 0.951 . S
C785 C783 1.388 . S
C785 C786 1.366 1_565 S
C786 C785 1.366 1_545 S
C786 C787 1.414 . S
C786 C789 1.499 . S
C787 H761 0.950 . S
C787 C786 1.414 . S
C787 C788 1.374 . S
C788 H762 0.950 . S
C788 C784 1.385 . S
C788 C787 1.374 . S
C789 C786 1.499 . S
C789 C790 1.373 . S
C789 C791 1.389 . S
C790 H763 0.956 1_545 S
C790 C776 1.377 . S
C790 C789 1.373 . S
C791 C775 1.377 . S
C791 C789 1.389 . S
C791 C792 1.524 . S
C792 C791 1.524 . S
C792 C793 1.397 . S
C792 C797 1.363 . S
C793 H764 0.950 . S
C793 C792 1.397 . S
C793 C794 1.334 . S
C794 H765 0.950 . S
C794 C793 1.334 . S
C794 C795 1.287 . S
C795 C794 1.287 . S
C795 C796 1.524 . S
C795 H798 0.999 . S
C796 H766 0.950 . S
C796 C795 1.524 . S
C796 C797 1.415 . S
C797 H767 0.950 . S
C797 C792 1.363 . S
C797 C796 1.415 . S
H798 C795 0.999 . S
H799 C780 0.913 . S
H800 C818 0.951 . S
H801 C820 0.951 . S
H802 C822 0.950 . S
H803 C823 0.950 . S
H804 C825 0.950 . S
H805 C828 0.950 . S
H806 C829 0.949 . S
H807 C831 0.950 . S
H808 C832 0.950 . S
H809 C833 0.951 . S
H810 C835 0.951 . S
H811 C837 0.950 . S
H812 C838 0.950 . S
H813 C840 0.950 . S
H814 C843 0.950 . S
H815 C844 0.950 . S
H816 C846 0.950 . S
H817 C847 0.950 . S
C818 H800 0.951 . S
C818 C819 1.366 . S
C818 C820 1.388 . S
C819 C818 1.366 . S
C819 C823 1.385 . S
C820 H801 0.951 . S
C820 C818 1.388 . S
C820 C821 1.366 . S
C821 C820 1.366 . S
C821 C822 1.414 . S
C821 C824 1.499 . S
C822 H802 0.950 . S
C822 C821 1.414 . S
C822 C823 1.374 . S
C823 H803 0.950 . S
C823 C819 1.385 . S
C823 C822 1.374 . S
C824 C821 1.499 . S
C824 C825 1.373 . S
C824 C826 1.389 . S
C825 H804 0.950 . S
C825 C824 1.373 . S
C825 C841 1.377 . S
C826 C824 1.389 . S
C826 C827 1.524 . S
C826 C840 1.377 . S
C827 C826 1.524 . S
C827 C828 1.397 . S
C827 C832 1.363 . S
C828 H805 0.950 . S
C828 C827 1.397 . S
C828 C829 1.337 1_556 S
C829 H806 0.949 . S
C829 C828 1.337 1_554 S
C829 C830 1.285 . S
C830 C829 1.285 . S
C830 C831 1.524 . S
C830 H849 0.913 . S
C831 H807 0.950 . S
C831 C830 1.524 . S
C831 C832 1.415 1_554 S
C832 H808 0.950 . S
C832 C827 1.363 . S
C832 C831 1.415 1_556 S
C833 H809 0.951 . S
C833 C834 1.366 . S
C833 C835 1.388 . S
C834 C833 1.366 . S
C834 C838 1.385 . S
C835 H810 0.951 . S
C835 C833 1.388 . S
C835 C836 1.366 . S
C836 C835 1.366 . S
C836 C837 1.414 . S
C836 C839 1.499 . S
C837 H811 0.950 . S
C837 C836 1.414 . S
C837 C838 1.374 . S
C838 H812 0.950 . S
C838 C834 1.385 . S
C838 C837 1.374 . S
C839 C836 1.499 . S
C839 C840 1.373 . S
C839 C841 1.389 . S
C840 H813 0.950 . S
C840 C826 1.377 . S
C840 C839 1.373 . S
C841 C825 1.377 . S
C841 C839 1.389 . S
C841 C842 1.524 . S
C842 C841 1.524 . S
C842 C843 1.397 . S
C842 C847 1.363 . S
C843 H814 0.950 . S
C843 C842 1.397 . S
C843 C844 1.334 . S
C844 H815 0.950 . S
C844 C843 1.334 . S
C844 C845 1.287 . S
C845 C844 1.287 . S
C845 C846 1.524 . S
C845 H848 0.999 . S
C846 H816 0.950 . S
C846 C845 1.524 . S
C846 C847 1.415 . S
C847 H817 0.950 . S
C847 C842 1.363 . S
C847 C846 1.415 . S
H848 C845 0.999 . S
H849 C830 0.913 . S
H850 C868 0.951 . S
H851 C870 0.951 1_455 S
H852 C872 0.950 . S
H853 C873 0.950 . S
H854 C875 0.950 . S
H855 C878 0.950 . S
H856 C879 0.950 . S
H857 C881 0.950 . S
H858 C882 0.950 . S
H859 C883 0.951 . S
H860 C885 0.951 . S
H861 C887 0.950 . S
H862 C888 0.950 . S
H863 C890 0.950 . S
H864 C893 0.950 . S
H865 C894 0.950 . S
H866 C896 0.950 . S
H867 C897 0.950 . S
C868 H850 0.951 . S
C868 C869 1.366 . S
C868 C870 1.388 . S
C869 C868 1.366 . S
C869 C873 1.385 . S
C870 H851 0.951 1_655 S
C870 C868 1.388 . S
C870 C871 1.366 . S
C871 C870 1.366 . S
C871 C872 1.414 . S
C871 C874 1.499 . S
C872 H852 0.950 . S
C872 C871 1.414 . S
C872 C873 1.374 . S
C873 H853 0.950 . S
C873 C869 1.385 . S
C873 C872 1.374 . S
C874 C871 1.499 . S
C874 C875 1.373 . S
C874 C876 1.389 1_655 S
C875 H854 0.950 . S
C875 C874 1.373 . S
C875 C891 1.377 . S
C876 C874 1.389 1_455 S
C876 C877 1.524 . S
C876 C890 1.377 . S
C877 C876 1.524 . S
C877 C878 1.397 . S
C877 C882 1.363 . S
C878 H855 0.950 . S
C878 C877 1.397 . S
C878 C879 1.334 . S
C879 H856 0.950 . S
C879 C878 1.334 . S
C879 C880 1.287 . S
C880 C879 1.287 . S
C880 C881 1.524 . S
C880 H899 0.913 . S
C881 H857 0.950 . S
C881 C880 1.524 . S
C881 C882 1.415 . S
C882 H858 0.950 . S
C882 C877 1.363 . S
C882 C881 1.415 . S
C883 H859 0.951 . S
C883 C884 1.366 . S
C883 C885 1.388 . S
C884 C883 1.366 . S
C884 C888 1.385 1_655 S
C885 H860 0.951 . S
C885 C883 1.388 . S
C885 C886 1.366 . S
C886 C885 1.366 . S
C886 C887 1.414 1_655 S
C886 C889 1.499 . S
C887 H861 0.950 . S
C887 C886 1.414 1_455 S
C887 C888 1.374 . S
C888 H862 0.950 . S
C888 C884 1.385 1_455 S
C888 C887 1.374 . S
C889 C886 1.499 . S
C889 C890 1.373 1_655 S
C889 C891 1.389 . S
C890 H863 0.950 . S
C890 C876 1.377 . S
C890 C889 1.373 1_455 S
C891 C875 1.377 . S
C891 C889 1.389 . S
C891 C892 1.524 . S
C892 C891 1.524 . S
C892 C893 1.397 . S
C892 C897 1.363 . S
C893 H864 0.950 . S
C893 C892 1.397 . S
C893 C894 1.334 . S
C894 H865 0.950 . S
C894 C893 1.334 . S
C894 C895 1.287 . S
C895 C894 1.287 . S
C895 C896 1.524 . S
C895 H898 0.999 . S
C896 H866 0.950 . S
C896 C895 1.524 . S
C896 C897 1.415 . S
C897 H867 0.950 . S
C897 C892 1.363 . S
C897 C896 1.415 . S
H898 C895 0.999 . S
H899 C880 0.913 . S
H900 C918 0.951 . S
H901 C920 0.951 1_545 S
H902 C922 0.950 . S
H903 C923 0.950 . S
H904 C925 0.950 . S
H905 C928 0.950 . S
H906 C929 0.950 . S
H907 C931 0.950 . S
H908 C932 0.950 . S
H909 C933 0.951 . S
H910 C935 0.951 . S
H911 C937 0.950 . S
H912 C938 0.950 . S
H913 C940 0.950 . S
H914 C943 0.950 . S
H915 C944 0.950 . S
H916 C946 0.950 . S
H917 C947 0.950 . S
C918 H900 0.951 . S
C918 C919 1.366 . S
C918 C920 1.388 . S
C919 C918 1.366 . S
C919 C923 1.385 . S
C920 H901 0.951 1_565 S
C920 C918 1.388 . S
C920 C921 1.366 . S
C921 C920 1.366 . S
C921 C922 1.414 . S
C921 C924 1.499 . S
C922 H902 0.950 . S
C922 C921 1.414 . S
C922 C923 1.374 . S
C923 H903 0.950 . S
C923 C919 1.385 . S
C923 C922 1.374 . S
C924 C921 1.499 . S
C924 C925 1.373 . S
C924 C926 1.389 . S
C925 H904 0.950 . S
C925 C924 1.373 . S
C925 C941 1.377 . S
C926 C924 1.389 . S
C926 C927 1.524 . S
C926 C940 1.377 . S
C927 C926 1.524 . S
C927 C928 1.397 . S
C927 C932 1.363 . S
C928 H905 0.950 . S
C928 C927 1.397 . S
C928 C929 1.334 . S
C929 H906 0.950 . S
C929 C928 1.334 . S
C929 C930 1.287 . S
C930 C929 1.287 . S
C930 C931 1.524 . S
C930 H949 0.913 . S
C931 H907 0.950 . S
C931 C930 1.524 . S
C931 C932 1.415 . S
C932 H908 0.950 . S
C932 C927 1.363 . S
C932 C931 1.415 . S
C933 H909 0.951 . S
C933 C934 1.366 . S
C933 C935 1.388 . S
C934 C933 1.366 . S
C934 C938 1.385 1_565 S
C935 H910 0.951 . S
C935 C933 1.388 . S
C935 C936 1.366 . S
C936 C935 1.366 . S
C936 C937 1.414 1_565 S
C936 C939 1.499 . S
C937 H911 0.950 . S
C937 C936 1.414 1_545 S
C937 C938 1.374 . S
C938 H912 0.950 . S
C938 C934 1.385 1_545 S
C938 C937 1.374 . S
C939 C936 1.499 . S
C939 C940 1.373 . S
C939 C941 1.389 . S
C940 H913 0.950 . S
C940 C926 1.377 . S
C940 C939 1.373 . S
C941 C925 1.377 . S
C941 C939 1.389 . S
C941 C942 1.524 1_565 S
C942 C941 1.524 1_545 S
C942 C943 1.397 . S
C942 C947 1.363 1_545 S
C943 H914 0.950 . S
C943 C942 1.397 . S
C943 C944 1.334 . S
C944 H915 0.950 . S
C944 C943 1.334 . S
C944 C945 1.287 . S
C945 C944 1.287 . S
C945 C946 1.524 1_545 S
C945 H948 0.999 . S
C946 H916 0.950 . S
C946 C945 1.524 1_565 S
C946 C947 1.415 . S
C947 H917 0.950 . S
C947 C942 1.363 1_565 S
C947 C946 1.415 . S
H948 C945 0.999 . S
H949 C930 0.913 . S
H950 C968 0.950 . S
H951 C970 0.951 . S
H952 C972 0.950 . S
H953 C973 0.950 . S
H954 C975 0.950 . S
H955 C978 0.950 . S
H956 C979 0.950 . S
H957 C981 0.950 . S
H958 C982 0.950 . S
H959 C983 0.951 . S
H960 C985 0.951 . S
H961 C987 0.950 . S
H962 C988 0.950 . S
H963 C990 0.950 . S
H964 C993 0.950 . S
H965 C994 0.950 . S
H966 C996 0.950 . S
H967 C997 0.950 . S
C968 H950 0.950 . S
C968 C969 1.366 . S
C968 C970 1.388 . S
C969 C968 1.366 . S
C969 C973 1.385 . S
C970 H951 0.951 . S
C970 C968 1.388 . S
C970 C971 1.366 . S
C971 C970 1.366 . S
C971 C972 1.414 . S
C971 C974 1.499 . S
C972 H952 0.950 . S
C972 C971 1.414 . S
C972 C973 1.374 . S
C973 H953 0.950 . S
C973 C969 1.385 . S
C973 C972 1.374 . S
C974 C971 1.499 . S
C974 C975 1.373 . S
C974 C976 1.389 . S
C975 H954 0.950 . S
C975 C974 1.373 . S
C975 C991 1.377 . S
C976 C974 1.389 . S
C976 C977 1.524 . S
C976 C990 1.377 . S
C977 C976 1.524 . S
C977 C978 1.397 . S
C977 C982 1.363 . S
C978 H955 0.950 . S
C978 C977 1.397 . S
C978 C979 1.334 . S
C979 H956 0.950 . S
C979 C978 1.334 . S
C979 C980 1.287 . S
C980 C979 1.287 . S
C980 C981 1.524 . S
C980 H999 0.913 . S
C981 H957 0.950 . S
C981 C980 1.524 . S
C981 C982 1.415 . S
C982 H958 0.950 . S
C982 C977 1.363 . S
C982 C981 1.415 . S
C983 H959 0.951 . S
C983 C984 1.366 . S
C983 C985 1.388 . S
C984 C983 1.366 . S
C984 C988 1.385 . S
C985 H960 0.951 . S
C985 C983 1.388 . S
C985 C986 1.366 . S
C986 C985 1.366 . S
C986 C987 1.414 . S
C986 C989 1.499 . S
C987 H961 0.950 . S
C987 C986 1.414 . S
C987 C988 1.374 . S
C988 H962 0.950 . S
C988 C984 1.385 . S
C988 C987 1.374 . S
C989 C986 1.499 . S
C989 C990 1.373 . S
C989 C991 1.389 . S
C990 H963 0.950 . S
C990 C976 1.377 . S
C990 C989 1.373 . S
C991 C975 1.377 . S
C991 C989 1.389 . S
C991 C992 1.524 . S
C992 C991 1.524 . S
C992 C993 1.397 . S
C992 C997 1.363 . S
C993 H964 0.950 . S
C993 C992 1.397 . S
C993 C994 1.334 . S
C994 H965 0.950 . S
C994 C993 1.334 . S
C994 C995 1.287 . S
C995 C994 1.287 . S
C995 C996 1.524 . S
C995 H998 0.999 . S
C996 H966 0.950 . S
C996 C995 1.524 . S
C996 C997 1.415 . S
C997 H967 0.950 . S
C997 C992 1.363 . S
C997 C996 1.415 . S
H998 C995 0.999 . S
H999 C980 0.913 . S
H1000 C1018 0.951 . S
H1001 C1020 0.951 . S
H1002 C1022 0.966 . S
H1003 C1023 0.950 1_655 S
H1004 C1025 0.950 1_655 S
H1005 C1028 0.950 . S
H1006 C1029 0.950 . S
H1007 C1031 0.950 . S
H1008 C1032 0.950 . S
H1009 C1033 0.951 . S
H1010 C1035 0.951 . S
H1011 C1037 0.950 . S
H1012 C1038 0.950 . S
H1013 C1040 0.950 . S
H1014 C1043 0.950 . S
H1015 C1044 0.950 . S
H1016 C1046 0.950 . S
H1017 C1047 0.950 . S
C1018 H1000 0.951 . S
C1018 C1019 1.366 . S
C1018 C1020 1.388 . S
C1019 C1018 1.366 . S
C1019 C1023 1.385 . S
C1020 H1001 0.951 . S
C1020 C1018 1.388 . S
C1020 C1021 1.366 . S
C1021 C1020 1.366 . S
C1021 C1022 1.408 1_455 S
C1021 C1024 1.499 . S
C1022 H1002 0.966 . S
C1022 C1021 1.408 1_655 S
C1022 C1023 1.365 1_655 S
C1023 H1003 0.950 1_455 S
C1023 C1019 1.385 . S
C1023 C1022 1.365 1_455 S
C1024 C1021 1.499 . S
C1024 C1025 1.373 . S
C1024 C1026 1.389 . S
C1025 H1004 0.950 1_455 S
C1025 C1024 1.373 . S
C1025 C1041 1.377 . S
C1026 C1024 1.389 . S
C1026 C1027 1.524 . S
C1026 C1040 1.377 . S
C1027 C1026 1.524 . S
C1027 C1028 1.397 . S
C1027 C1032 1.363 . S
C1028 H1005 0.950 . S
C1028 C1027 1.397 . S
C1028 C1029 1.334 . S
C1029 H1006 0.950 . S
C1029 C1028 1.334 . S
C1029 C1030 1.287 . S
C1030 C1029 1.287 . S
C1030 C1031 1.524 . S
C1030 H1049 0.913 . S
C1031 H1007 0.950 . S
C1031 C1030 1.524 . S
C1031 C1032 1.415 . S
C1032 H1008 0.950 . S
C1032 C1027 1.363 . S
C1032 C1031 1.415 . S
C1033 H1009 0.951 . S
C1033 C1034 1.366 1_655 S
C1033 C1035 1.388 . S
C1034 C1033 1.366 1_455 S
C1034 C1038 1.385 . S
C1035 H1010 0.951 . S
C1035 C1033 1.388 . S
C1035 C1036 1.366 1_655 S
C1036 C1035 1.366 1_455 S
C1036 C1037 1.414 . S
C1036 C1039 1.499 . S
C1037 H1011 0.950 . S
C1037 C1036 1.414 . S
C1037 C1038 1.374 . S
C1038 H1012 0.950 . S
C1038 C1034 1.385 . S
C1038 C1037 1.374 . S
C1039 C1036 1.499 . S
C1039 C1040 1.373 . S
C1039 C1041 1.389 . S
C1040 H1013 0.950 . S
C1040 C1026 1.377 . S
C1040 C1039 1.373 . S
C1041 C1025 1.377 . S
C1041 C1039 1.389 . S
C1041 C1042 1.524 1_455 S
C1042 C1041 1.524 1_655 S
C1042 C1043 1.397 1_655 S
C1042 C1047 1.363 . S
C1043 H1014 0.950 . S
C1043 C1042 1.397 1_455 S
C1043 C1044 1.334 . S
C1044 H1015 0.950 . S
C1044 C1043 1.334 . S
C1044 C1045 1.287 1_455 S
C1045 C1044 1.287 1_655 S
C1045 C1046 1.524 . S
C1045 H1048 0.999 . S
C1046 H1016 0.950 . S
C1046 C1045 1.524 . S
C1046 C1047 1.415 . S
C1047 H1017 0.950 . S
C1047 C1042 1.363 . S
C1047 C1046 1.415 . S
H1048 C1045 0.999 . S
H1049 C1030 0.913 . S
C484 C317 1.242 . S
C469 C29 1.243 . S
C519 C137 1.247 . S
C534 C361 1.252 1_565 S
C569 C225 1.248 . S
C584 C423 1.252 . S
C619 C49 1.247 . S
C634 C299 1.252 1_455 S
C684 C379 1.242 . S
C669 C117 1.244 . S
C719 C205 1.248 . S
C734 C441 1.239 . S
C784 C355 1.533 . S
C769 C233 1.633 . S
C819 C57 1.629 . S
C834 C417 1.536 . S
C884 C293 1.533 . S
C869 C108 1.633 . S
C934 C373 1.549 1_565 S
C919 C196 1.625 . S
C984 C435 1.550 . S
C969 C20 1.625 . S
C1019 C145 1.629 . S
C1034 C311 1.548 1_455 S
