# Generated by pormake.
# Topology tsx, (6,3)-cn, num edge types: 1
# Building blocks:
#     Node 0, Type 0, BuildingBlock: CIFDUS_clean_sbu_1, # of connection points: 6
#     Node 1, Type 0, BuildingBlock: CIFDUS_clean_sbu_1, # of connection points: 6
#     Node 2, Type 1, BuildingBlock: INOVEN_clean_linker_0, # of connection points: 3
#     Node 3, Type 1, BuildingBlock: INOVEN_clean_linker_0, # of connection points: 3
#     Node 4, Type 1, BuildingBlock: INOVEN_clean_linker_0, # of connection points: 3
#     Node 5, Type 1, BuildingBlock: INOVEN_clean_linker_0, # of connection points: 3
#     Edge 6, Type (0, 1), BuildingBlock: KIFKEQ_clean_linker_1, # of connection points: 2
#     Edge 7, Type (0, 1), BuildingBlock: KIFKEQ_clean_linker_1, # of connection points: 2
#     Edge 8, Type (0, 1), BuildingBlock: KIFKEQ_clean_linker_1, # of connection points: 2
#     Edge 9, Type (0, 1), BuildingBlock: KIFKEQ_clean_linker_1, # of connection points: 2
#     Edge 10, Type (0, 1), BuildingBlock: KIFKEQ_clean_linker_1, # of connection points: 2
#     Edge 11, Type (0, 1), BuildingBlock: KIFKEQ_clean_linker_1, # of connection points: 2
#     Edge 12, Type (0, 1), BuildingBlock: KIFKEQ_clean_linker_1, # of connection points: 2
#     Edge 13, Type (0, 1), BuildingBlock: KIFKEQ_clean_linker_1, # of connection points: 2
#     Edge 14, Type (0, 1), BuildingBlock: KIFKEQ_clean_linker_1, # of connection points: 2
#     Edge 15, Type (0, 1), BuildingBlock: KIFKEQ_clean_linker_1, # of connection points: 2
#     Edge 16, Type (0, 1), BuildingBlock: KIFKEQ_clean_linker_1, # of connection points: 2
#     Edge 17, Type (0, 1), BuildingBlock: KIFKEQ_clean_linker_1, # of connection points: 2
# Relax obj value: 0.088
# Max RMSD: 0.137
# Mean RMSD: 0.102
data_MOF--net-tsx--node1-CIFDUS_clean_sbu_1--node2-INOVEN_clean_linker_0--edge1-KIFKEQ_clean_linker_1
_symmetry_space_group_name_H-M    P1
_symmetry_Int_Tables_number       1
_symmetry_cell_setting            triclinic
loop_
_symmetry_equiv_pos_as_xyz
'x, y, z'
_cell_length_a     17.739221
_cell_length_b     23.149144
_cell_length_c     35.096786
_cell_angle_alpha  96.233925
_cell_angle_beta   104.6583
_cell_angle_gamma 92.03249
loop_
_atom_site_label
_atom_site_type_symbol
_atom_site_fract_x
_atom_site_fract_y
_atom_site_fract_z
_atom_type_partial_charge
O0 O 1.0439 0.10764 0.00862 0.0
Mn1 Mn 0.09887 0.02895 0.00253 0.0
O2 O 0.91452 0.08629 0.9879 0.0
Mn3 Mn 0.92453 0.01816 0.95756 0.0
O4 O 0.15595 0.95118 0.99654 0.0
O5 O 0.20059 0.07646 0.01581 0.0
Mn6 Mn 0.2726 0.0464 0.05083 0.0
O7 O 0.10935 0.02155 0.06266 0.0
O8 O 0.28316 0.97286 0.02743 0.0
O9 O 0.08835 0.03656 0.94272 0.0
O10 O 0.95922 0.02809 0.91295 0.0
O11 O 0.31959 0.1126 0.03927 0.0
O12 O 0.23444 0.04834 0.09533 0.0
C13 C 0.9424 0.94012 0.98486 0.0
C14 C 0.97295 0.12164 0.00461 0.0
C15 C 0.22742 0.93713 0.00711 0.0
C16 C 0.25119 0.11805 0.0164 0.0
C17 C 0.1643 0.03334 0.09489 0.0
C18 C 1.03031 0.03608 0.91209 0.0
O19 O 0.99629 0.98091 0.98827 0.0
O20 O 0.87485 0.94936 0.96258 0.0
O21 O 0.5404 0.59547 0.50654 0.0
Mn22 Mn 0.598 0.51839 0.49925 0.0
O23 O 0.41157 0.57199 0.48385 0.0
Mn24 Mn 0.42428 0.50559 0.45253 0.0
O25 O 0.65645 0.44145 0.4917 0.0
O26 O 0.69885 0.56767 0.51493 0.0
Mn27 Mn 0.7714 0.53342 0.54709 0.0
O28 O 0.60662 0.50731 0.55856 0.0
O29 O 0.78441 0.46461 0.51871 0.0
O30 O 0.58928 0.52957 0.44006 0.0
O31 O 0.46074 0.5187 0.40894 0.0
O32 O 0.8178 0.60328 0.54096 0.0
O33 O 0.734 0.52431 0.59093 0.0
C34 C 0.44486 0.42668 0.47889 0.0
C35 C 0.46867 0.60785 0.50192 0.0
C36 C 0.72851 0.42849 0.49932 0.0
C37 C 0.74967 0.6105 0.51844 0.0
C38 C 0.66307 0.51144 0.59026 0.0
C39 C 0.53198 0.52893 0.40904 0.0
O40 O 0.4968 0.46906 0.48318 0.0
O41 O 0.37732 0.43478 0.45611 0.0
H42 H 0.10462 0.96784 0.47703 0.0
H43 H 0.20545 0.91638 0.38047 0.0
H44 H 1.0186 0.03188 0.36442 0.0
N45 N 1.00305 0.03841 0.43877 0.0
N46 N 0.94904 0.06194 0.41686 0.0
C47 C 0.10595 0.9694 0.44653 0.0
C48 C 0.16104 0.93841 0.43151 0.0
C49 C 0.0539 0.00303 0.4224 0.0
C50 C 0.05685 0.00464 0.38285 0.0
C51 C 0.1115 0.97392 0.36745 0.0
C52 C 0.16362 0.94102 0.3921 0.0
H53 H 1.03145 0.01254 0.51506 0.0
H54 H 0.94705 0.97023 0.61355 0.0
H55 H 0.14177 0.09539 0.63281 0.0
N56 N 0.14738 0.08815 0.55642 0.0
N57 N 0.20725 0.11536 0.57869 0.0
C58 C 1.03531 0.0184 0.54643 0.0
C59 C 0.98167 0.98738 0.56123 0.0
C60 C 0.09393 0.05691 0.5721 0.0
C61 C 0.09791 0.06478 0.61294 0.0
C62 C 1.04433 0.03446 0.62813 0.0
C63 C 0.98666 0.99578 0.60198 0.0
H64 H 0.62325 0.49131 0.98005 0.0
H65 H 0.71831 0.43268 0.88261 0.0
H66 H 0.52802 0.54476 0.86455 0.0
N67 N 0.51748 0.55762 0.9403 0.0
N68 N 0.46594 0.58322 0.91837 0.0
C69 C 0.62255 0.49042 0.94911 0.0
C70 C 0.67675 0.45816 0.93419 0.0
C71 C 0.56861 0.52203 0.92425 0.0
C72 C 0.5686 0.52015 0.884 0.0
C73 C 0.62282 0.48855 0.86892 0.0
C74 C 0.67709 0.45805 0.89427 0.0
H75 H 0.53119 0.5178 0.01252 0.0
H76 H 0.44599 0.47254 0.11008 0.0
H77 H 0.64175 0.59724 0.13121 0.0
N78 N 0.64765 0.59255 0.05497 0.0
N79 N 0.70682 0.61979 0.07784 0.0
C80 C 0.53505 0.52289 0.04391 0.0
C81 C 0.4811 0.49143 0.05822 0.0
C82 C 0.59383 0.56069 0.07007 0.0
C83 C 0.59771 0.56722 0.11091 0.0
C84 C 0.54397 0.53629 0.12564 0.0
C85 C 0.4859 0.49851 0.09897 0.0
H86 H 0.29318 0.15017 0.95239 0.0
H87 H 0.18093 0.20884 0.04356 0.0
H88 H 0.32536 0.25085 0.94483 0.0
H89 H 0.21732 0.30902 0.03864 0.0
H90 H 0.51131 0.39832 0.01168 0.0
H91 H 0.42589 0.31159 0.98445 0.0
H92 H 0.23466 0.39731 0.01743 0.0
H93 H 0.32294 0.48281 0.04706 0.0
C94 C 0.27217 0.18489 0.96948 0.0
C95 C 0.23464 0.17208 -0.0015 0.0
C96 C 0.29214 0.24271 0.96589 0.0
C97 C 0.27745 0.2886 0.99235 0.0
C98 C 0.23042 0.27556 0.01769 0.0
C99 C 0.20886 0.21778 0.0205 0.0
C100 C 0.45042 0.39906 0.01202 0.0
C101 C 0.42393 0.44669 0.03197 0.0
C102 C 0.40075 0.34925 0.99615 0.0
C103 C 0.32291 0.34632 -0.0007 0.0
C104 C 0.29456 0.39686 0.01548 0.0
C105 C 0.34483 0.44617 0.03214 0.0
H106 H 0.14315 0.85008 0.95011 0.0
H107 H 0.36094 0.88787 0.04035 0.0
H108 H 0.18771 0.75465 0.9306 0.0
H109 H 0.4052 0.79488 0.02063 0.0
H110 H 0.46455 0.61474 0.99551 0.0
H111 H 0.39069 0.69188 0.01878 0.0
H112 H 0.28565 0.71949 0.89739 0.0
H113 H 0.358 0.64082 0.87443 0.0
C114 C 0.19994 0.83798 0.96596 0.0
C115 C 0.24873 0.8771 0.9964 0.0
C116 C 0.22565 0.78347 0.95473 0.0
C117 C 0.30015 0.76693 0.97406 0.0
C118 C 0.34711 0.80537 0.00543 0.0
C119 C 0.32185 0.85939 0.01642 0.0
C120 C 0.42444 0.63646 0.97387 0.0
C121 C 0.41711 0.62237 0.93308 0.0
C122 C 0.38235 0.68092 0.98714 0.0
C123 C 0.33282 0.71257 0.95997 0.0
C124 C 0.32249 0.69589 0.91916 0.0
C125 C 0.36422 0.6512 0.90597 0.0
H126 H 0.95255 0.8306 0.952 0.0
H127 H 0.93941 0.93186 0.06017 0.0
H128 H 0.9125 0.74208 0.97606 0.0
H129 H 0.89997 0.84418 0.08467 0.0
H130 H 0.8345 0.67696 0.12372 0.0
H131 H 0.92062 0.74744 0.10487 0.0
H132 H 0.7831 0.71345 0.98314 0.0
H133 H 0.69849 0.64245 0.00214 0.0
C134 C 0.94523 0.83327 0.98187 0.0
C135 C 0.95153 0.88753 0.00492 0.0
C136 C 0.92103 0.78286 0.99539 0.0
C137 C 0.90202 0.78606 0.03209 0.0
C138 C 0.91509 0.8398 0.05652 0.0
C139 C 0.93896 0.89012 0.04285 0.0
C140 C 0.82403 0.68405 0.09286 0.0
C141 C 0.76002 0.65488 0.06456 0.0
C142 C 0.87295 0.72439 0.08207 0.0
C143 C 0.85868 0.73638 0.04255 0.0
C144 C 0.79653 0.7048 0.01376 0.0
C145 C 0.74755 0.66442 0.02464 0.0
H146 H 0.87615 0.16423 0.04806 0.0
H147 H 1.02594 0.2153 0.97655 0.0
H148 H 0.81643 0.25728 0.04412 0.0
H149 H 0.96258 0.30626 0.96944 0.0
H150 H 0.63832 0.3664 0.96898 0.0
H151 H 0.72377 0.29392 -0.00248 0.0
H152 H 0.92362 0.39629 0.98529 0.0
H153 H 0.83595 0.46633 0.95388 0.0
C154 C 0.89757 0.19627 0.03233 0.0
C155 C 0.95564 0.18287 0.01271 0.0
C156 C 0.86233 0.24928 0.02932 0.0
C157 C 0.88218 0.28918 0.00526 0.0
C158 C 0.94527 0.27743 0.98844 0.0
C159 C 0.9821 0.22508 0.99251 0.0
C160 C 0.70073 0.37373 0.97319 0.0
C161 C 0.73065 0.42153 0.95909 0.0
C162 C 0.75033 0.3323 0.98986 0.0
C163 C 0.83151 0.33829 0.99362 0.0
C164 C 0.86162 0.38885 0.98204 0.0
C165 C 0.81162 0.4295 0.96444 0.0
H166 H 0.68688 0.70175 0.55038 0.0
H167 H 0.78762 0.64567 0.45426 0.0
H168 H 0.7243 0.80232 0.54663 0.0
H169 H 0.82159 0.74681 0.44839 0.0
H170 H 1.01054 0.89412 0.51406 0.0
H171 H 0.92527 0.80676 0.48799 0.0
H172 H 0.73637 0.89131 0.52403 0.0
H173 H 0.82414 0.97759 0.55209 0.0
C174 C 0.71252 0.71145 0.52666 0.0
C175 C 0.73432 0.66623 0.5026 0.0
C176 C 0.73465 0.76939 0.52452 0.0
C177 C 0.77864 0.78315 0.49798 0.0
C178 C 0.79033 0.73801 0.47014 0.0
C179 C 0.76935 0.68 0.47284 0.0
C180 C 0.95012 0.89451 0.51528 0.0
C181 C 0.92422 0.9421 0.53561 0.0
C182 C 0.90063 0.84434 0.50015 0.0
C183 C 0.82364 0.84098 0.50449 0.0
C184 C 0.79568 0.89132 0.52112 0.0
C185 C 0.84568 0.94104 0.5369 0.0
H186 H 0.63457 0.33481 0.45312 0.0
H187 H 0.8723 0.38632 0.51975 0.0
H188 H 0.67543 0.23704 0.43569 0.0
H189 H 0.91178 0.29069 0.50252 0.0
H190 H 0.96436 0.10713 0.49376 0.0
H191 H 0.89674 0.18953 0.51542 0.0
H192 H 0.76221 0.19324 0.39457 0.0
H193 H 0.82939 0.10988 0.37322 0.0
C194 C 0.69511 0.32549 0.46406 0.0
C195 C 0.74997 0.3688 0.48766 0.0
C196 C 0.71846 0.26957 0.45416 0.0
C197 C 0.79669 0.25588 0.46822 0.0
C198 C 0.8508 0.29915 0.49194 0.0
C199 C 0.82797 0.35456 0.50143 0.0
C200 C 0.91891 0.12449 0.47206 0.0
C201 C 0.90204 0.10253 0.43169 0.0
C202 C 0.88042 0.17192 0.48436 0.0
C203 C 0.82476 0.19844 0.45659 0.0
C204 C 0.80428 0.17367 0.41672 0.0
C205 C 0.84283 0.12624 0.40446 0.0
H206 H 0.46607 0.41776 0.55718 0.0
H207 H 0.43851 0.31694 0.44336 0.0
H208 H 0.42315 0.33224 0.58303 0.0
H209 H 0.39896 0.23042 0.46927 0.0
H210 H 0.19222 0.1398 0.50296 0.0
H211 H 0.27694 0.20781 0.48195 0.0
H212 H 0.42749 0.23596 0.60123 0.0
H213 H 0.34025 0.16888 0.62224 0.0
C214 C 0.45531 0.37633 0.53845 0.0
C215 C 0.45578 0.3736 0.49844 0.0
C216 C 0.43003 0.32722 0.55309 0.0
C217 C 0.40531 0.2746 0.52788 0.0
C218 C 0.41522 0.27056 0.48918 0.0
C219 C 0.43937 0.31978 0.4745 0.0
C220 C 0.24397 0.1599 0.5245 0.0
C221 C 0.25985 0.14952 0.56436 0.0
C222 C 0.29318 0.19862 0.51245 0.0
C223 C 0.35953 0.22759 0.53988 0.0
C224 C 0.37667 0.21509 0.57939 0.0
C225 C 0.32714 0.17657 0.59142 0.0
H226 H 0.3665 0.6451 0.54371 0.0
H227 H 0.5217 0.70488 0.47751 0.0
H228 H 0.30242 0.73641 0.5398 0.0
H229 H 0.45429 0.79417 0.4704 0.0
H230 H 0.12324 0.8424 0.46244 0.0
H231 H 0.21079 0.77137 0.49154 0.0
H232 H 0.40922 0.8821 0.48653 0.0
H233 H 0.31986 0.95076 0.45457 0.0
C234 C 0.38816 0.67871 0.52924 0.0
C235 C 0.44892 0.66819 0.51095 0.0
C236 C 0.35048 0.7307 0.52623 0.0
C237 C 0.37073 0.77243 0.50349 0.0
C238 C 0.43652 0.76375 0.4883 0.0
C239 C 0.47569 0.71239 0.49238 0.0
C240 C 0.1857 0.85174 0.46828 0.0
C241 C 0.215 0.90155 0.4561 0.0
C242 C 0.23644 0.81122 0.48531 0.0
C243 C 0.31802 0.82017 0.49134 0.0
C244 C 0.3471 0.87249 0.48153 0.0
C245 C 0.29608 0.91228 0.46359 0.0
H246 H 0.2416 0.09019 0.16669 0.0
H247 H 0.05219 0.96218 0.11071 0.0
H248 H 0.22532 0.07421 0.23149 0.0
H249 H 1.03633 0.94518 0.17593 0.0
H250 H 0.99057 0.97302 0.30079 0.0
H251 H 0.99837 0.98884 0.23423 0.0
H252 H 0.25029 -0.00153 0.27396 0.0
H253 H 0.24254 0.98555 0.34073 0.0
C254 C 0.19615 0.05869 0.16824 0.0
C255 C 0.14804 0.02734 0.13358 0.0
C256 C 0.18719 0.04922 0.20542 0.0
C257 C 0.13036 0.00776 0.20895 0.0
C258 C 0.08039 0.9777 0.17422 0.0
C259 C 0.08914 0.98751 0.13685 0.0
C260 C 0.04761 0.97882 0.29531 0.0
C261 C 0.11596 0.97848 0.32616 0.0
C262 C 0.05203 0.98728 0.25707 0.0
C263 C 0.12491 0.99552 0.24888 0.0
C264 C 0.19318 0.99338 0.27946 0.0
C265 C 0.18877 0.98512 0.31764 0.0
H266 H 0.14583 0.995 0.87942 0.0
H267 H 0.94644 0.09979 0.85852 0.0
H268 H 0.15511 0.00052 0.81142 0.0
H269 H 0.95788 0.10832 0.79181 0.0
H270 H 0.92295 0.04026 0.66277 0.0
H271 H 0.92783 0.04564 0.73258 0.0
H272 H 0.18021 0.05583 0.76176 0.0
H273 H 0.17503 0.04625 0.69116 0.0
C274 C 0.10527 0.02031 0.86052 0.0
C275 C 1.04457 0.04605 0.87373 0.0
C276 C 0.11063 0.02374 0.82165 0.0
C277 C 0.05615 0.05389 0.79576 0.0
C278 C 0.99915 0.08307 0.81035 0.0
C279 C 0.99285 0.07857 0.84867 0.0
C280 C 0.97958 0.04312 0.68397 0.0
C281 C 0.04852 0.0423 0.67124 0.0
C282 C 0.9825 0.04721 0.7242 0.0
C283 C 0.05452 0.05162 0.75302 0.0
C284 C 0.12373 0.05199 0.74041 0.0
C285 C 0.12076 0.04727 0.69994 0.0
H286 H 0.7561 0.45855 0.64758 0.0
H287 H 0.53534 0.53764 0.61813 0.0
H288 H 0.74069 0.44763 0.71319 0.0
H289 H 0.52122 0.52948 0.68511 0.0
H290 H 0.49948 0.46902 0.80294 0.0
H291 H 0.50253 0.46864 0.73358 0.0
H292 H 0.75183 0.51056 0.77166 0.0
H293 H 0.74865 0.50887 0.84034 0.0
C294 C 0.70418 0.47374 0.65531 0.0
C295 C 0.64747 0.49979 0.6281 0.0
C296 C 0.69555 0.46788 0.69304 0.0
C297 C 0.63075 0.48908 0.70493 0.0
C298 C 0.57188 0.51263 0.67698 0.0
C299 C 0.57992 0.51751 0.63869 0.0
C300 C 0.55476 0.47805 0.79624 0.0
C301 C 0.62398 0.48851 0.82688 0.0
C302 C 0.55652 0.47804 0.75659 0.0
C303 C 0.62749 0.489 0.74689 0.0
C304 C 0.69637 0.50033 0.77781 0.0
C305 C 0.69469 0.49965 0.81725 0.0
H306 H 0.44952 0.59549 0.3571 0.0
H307 H 0.6477 0.48946 0.37597 0.0
H308 H 0.46061 0.60603 0.29057 0.0
H309 H 0.65666 0.49706 0.30812 0.0
H310 H 0.67521 0.54588 0.18828 0.0
H311 H 0.68144 0.55364 0.25894 0.0
H312 H 0.42916 0.5443 0.23073 0.0
H313 H 0.42325 0.54064 0.16085 0.0
C314 C 0.49573 0.57458 0.34687 0.0
C315 C 0.54714 0.54106 0.37127 0.0
C316 C 0.50178 0.58018 0.30864 0.0
C317 C 0.5582 0.55114 0.29348 0.0
C318 C 0.6126 0.52017 0.3188 0.0
C319 C 0.60748 0.5156 0.35759 0.0
C320 C 0.62118 0.54667 0.19729 0.0
C321 C 0.54866 0.54254 0.16882 0.0
C322 C 0.62476 0.55036 0.2378 0.0
C323 C 0.5559 0.54978 0.2507 0.0
C324 C 0.48359 0.54605 0.22213 0.0
C325 C 0.48006 0.54294 0.18184 0.0
loop_
_geom_bond_atom_site_label_1
_geom_bond_atom_site_label_2
_geom_bond_distance
_geom_bond_site_symmetry_2
_ccdc_geom_bond_type
O0 Mn1 2.163 . S
O0 C14 1.244 1_455 S
Mn1 O0 2.163 . S
Mn1 O4 2.160 1_545 S
Mn1 O5 2.221 1_556 S
Mn1 O7 2.163 1_556 S
Mn1 O9 2.160 . S
Mn1 O19 2.221 1_445 S
O2 Mn3 2.087 1_545 S
O2 C14 1.256 . S
Mn3 O2 2.087 1_565 S
Mn3 O10 2.089 1_565 S
Mn3 O19 2.290 . S
Mn3 O20 2.251 . S
O4 Mn1 2.160 1_565 S
O4 C15 1.239 1_556 S
O5 Mn1 2.221 1_554 S
O5 Mn6 2.290 . S
O5 C16 1.278 . S
Mn6 O5 2.290 . S
Mn6 O8 2.089 1_545 S
Mn6 O11 2.251 . S
Mn6 O12 2.087 . S
O7 Mn1 2.163 1_554 S
O7 C17 1.244 . S
O8 Mn6 2.089 1_565 S
O8 C15 1.256 . S
O9 Mn1 2.160 . S
O9 C18 1.239 . S
O10 Mn3 2.089 1_545 S
O10 C18 1.256 1_655 S
O11 Mn6 2.251 . S
O11 C16 1.241 . S
O12 Mn6 2.087 . S
O12 C17 1.256 . S
C13 O19 1.278 . S
C13 O20 1.241 . S
C14 O0 1.244 1_655 S
C14 O2 1.256 . S
C15 O4 1.239 1_554 S
C15 O8 1.256 . S
C16 O5 1.278 . S
C16 O11 1.241 . S
C17 O7 1.244 . S
C17 O12 1.256 . S
C18 O9 1.239 . S
C18 O10 1.256 1_455 S
O19 Mn1 2.221 1_665 S
O19 Mn3 2.290 . S
O19 C13 1.278 . S
O20 Mn3 2.251 . S
O20 C13 1.241 . S
O21 Mn22 2.163 . S
O21 C35 1.244 . S
Mn22 O21 2.163 . S
Mn22 O25 2.160 . S
Mn22 O26 2.221 . S
Mn22 O28 2.163 . S
Mn22 O30 2.160 . S
Mn22 O40 2.221 . S
O23 Mn24 2.087 . S
O23 C35 1.256 . S
Mn24 O23 2.087 . S
Mn24 O31 2.089 . S
Mn24 O40 2.290 . S
Mn24 O41 2.251 . S
O25 Mn22 2.160 . S
O25 C36 1.239 . S
O26 Mn22 2.221 . S
O26 Mn27 2.290 . S
O26 C37 1.278 . S
Mn27 O26 2.290 . S
Mn27 O29 2.089 . S
Mn27 O32 2.251 . S
Mn27 O33 2.087 . S
O28 Mn22 2.163 . S
O28 C38 1.244 . S
O29 Mn27 2.089 . S
O29 C36 1.256 . S
O30 Mn22 2.160 . S
O30 C39 1.239 . S
O31 Mn24 2.089 . S
O31 C39 1.256 . S
O32 Mn27 2.251 . S
O32 C37 1.241 . S
O33 Mn27 2.087 . S
O33 C38 1.256 . S
C34 O40 1.278 . S
C34 O41 1.241 . S
C35 O21 1.244 . S
C35 O23 1.256 . S
C36 O25 1.239 . S
C36 O29 1.256 . S
C37 O26 1.278 . S
C37 O32 1.241 . S
C38 O28 1.244 . S
C38 O33 1.256 . S
C39 O30 1.239 . S
C39 O31 1.256 . S
O40 Mn22 2.221 . S
O40 Mn24 2.290 . S
O40 C34 1.278 . S
O41 Mn24 2.251 . S
O41 C34 1.241 . S
H42 C47 0.929 . S
H43 C52 0.931 . S
H44 C50 0.930 . S
N45 N46 1.232 1_455 S
N45 C49 1.459 . S
N46 N45 1.232 1_655 S
C47 H42 0.929 . S
C47 C48 1.373 . S
C47 C49 1.368 1_565 S
C48 C47 1.373 . S
C48 C52 1.397 . S
C49 N45 1.459 . S
C49 C47 1.368 1_545 S
C49 C50 1.373 . S
C50 H44 0.930 . S
C50 C49 1.373 . S
C50 C51 1.371 1_545 S
C51 C50 1.371 1_565 S
C51 C52 1.383 . S
C52 H43 0.931 . S
C52 C48 1.397 . S
C52 C51 1.383 . S
H53 C58 0.929 . S
H54 C63 0.931 1_565 S
H55 C61 0.930 . S
N56 N57 1.234 . S
N56 C60 1.453 . S
N57 N56 1.234 . S
C58 H53 0.929 . S
C58 C59 1.373 1_545 S
C58 C60 1.368 1_655 S
C59 C58 1.373 1_565 S
C59 C63 1.397 1_565 S
C60 N56 1.453 . S
C60 C58 1.368 1_455 S
C60 C61 1.373 . S
C61 H55 0.930 . S
C61 C60 1.373 . S
C61 C62 1.371 1_455 S
C62 C61 1.371 1_655 S
C62 C63 1.383 . S
C63 H54 0.931 1_545 S
C63 C59 1.397 1_545 S
C63 C62 1.383 . S
H64 C69 0.929 . S
H65 C74 0.931 . S
H66 C72 0.930 . S
N67 N68 1.234 . S
N67 C71 1.453 . S
N68 N67 1.234 . S
C69 H64 0.929 . S
C69 C70 1.373 . S
C69 C71 1.368 . S
C70 C69 1.373 . S
C70 C74 1.397 . S
C71 N67 1.453 . S
C71 C69 1.368 . S
C71 C72 1.373 . S
C72 H66 0.930 . S
C72 C71 1.373 . S
C72 C73 1.371 . S
C73 C72 1.371 . S
C73 C74 1.383 . S
C74 H65 0.931 . S
C74 C70 1.397 . S
C74 C73 1.383 . S
H75 C80 0.929 . S
H76 C85 0.931 . S
H77 C83 0.930 . S
N78 N79 1.234 . S
N78 C82 1.453 . S
N79 N78 1.234 . S
C80 H75 0.929 . S
C80 C81 1.373 . S
C80 C82 1.368 . S
C81 C80 1.373 . S
C81 C85 1.397 . S
C82 N78 1.453 . S
C82 C80 1.368 . S
C82 C83 1.373 . S
C83 H77 0.930 . S
C83 C82 1.373 . S
C83 C84 1.371 . S
C84 C83 1.371 . S
C84 C85 1.383 . S
C85 H76 0.931 . S
C85 C81 1.397 . S
C85 C84 1.383 . S
H86 C94 0.950 . S
H87 C99 0.950 . S
H88 C96 0.950 . S
H89 C98 0.950 . S
H90 C100 0.950 . S
H91 C102 0.950 . S
H92 C104 0.950 . S
H93 C105 0.950 1_556 S
C94 H86 0.950 . S
C94 C95 1.386 1_556 S
C94 C96 1.391 . S
C95 C94 1.386 1_554 S
C95 C99 1.393 . S
C96 H88 0.950 . S
C96 C94 1.391 . S
C96 C97 1.400 1_556 S
C97 C96 1.400 1_554 S
C97 C98 1.398 . S
C97 C103 1.491 . S
C98 H89 0.950 . S
C98 C97 1.398 . S
C98 C99 1.391 . S
C99 H87 0.950 . S
C99 C95 1.393 . S
C99 C98 1.391 . S
C100 H90 0.950 . S
C100 C101 1.386 . S
C100 C102 1.391 . S
C101 C100 1.386 . S
C101 C105 1.393 . S
C102 H91 0.950 . S
C102 C100 1.391 . S
C102 C103 1.400 . S
C103 C97 1.491 . S
C103 C102 1.400 . S
C103 C104 1.398 1_554 S
C104 H92 0.950 . S
C104 C103 1.398 1_556 S
C104 C105 1.391 1_556 S
C105 H93 0.950 1_554 S
C105 C101 1.393 . S
C105 C104 1.391 1_554 S
H106 C114 0.950 . S
H107 C119 0.950 . S
H108 C116 0.950 . S
H109 C118 0.950 . S
H110 C120 0.950 . S
H111 C122 0.950 . S
H112 C124 0.950 . S
H113 C125 0.950 . S
C114 H106 0.950 . S
C114 C115 1.386 . S
C114 C116 1.391 1_554 S
C115 C114 1.386 . S
C115 C119 1.393 . S
C116 H108 0.950 . S
C116 C114 1.391 1_556 S
C116 C117 1.400 . S
C117 C116 1.400 . S
C117 C118 1.398 . S
C117 C123 1.491 . S
C118 H109 0.950 . S
C118 C117 1.398 . S
C118 C119 1.391 1_556 S
C119 H107 0.950 . S
C119 C115 1.393 . S
C119 C118 1.391 1_554 S
C120 H110 0.950 . S
C120 C121 1.386 . S
C120 C122 1.391 . S
C121 C120 1.386 . S
C121 C125 1.393 . S
C122 H111 0.950 . S
C122 C120 1.391 . S
C122 C123 1.400 . S
C123 C117 1.491 . S
C123 C122 1.400 . S
C123 C124 1.398 . S
C124 H112 0.950 . S
C124 C123 1.398 . S
C124 C125 1.391 . S
C125 H113 0.950 . S
C125 C121 1.393 . S
C125 C124 1.391 . S
H126 C134 0.950 . S
H127 C139 0.950 . S
H128 C136 0.950 . S
H129 C138 0.950 . S
H130 C140 0.950 . S
H131 C142 0.950 . S
H132 C144 0.950 . S
H133 C145 0.965 . S
C134 H126 0.950 . S
C134 C135 1.386 1_556 S
C134 C136 1.391 . S
C135 C134 1.386 1_554 S
C135 C139 1.393 . S
C136 H128 0.950 . S
C136 C134 1.391 . S
C136 C137 1.400 1_556 S
C137 C136 1.400 1_554 S
C137 C138 1.398 . S
C137 C143 1.491 . S
C138 H129 0.950 . S
C138 C137 1.398 . S
C138 C139 1.391 . S
C139 H127 0.950 . S
C139 C135 1.393 . S
C139 C138 1.391 . S
C140 H130 0.950 . S
C140 C141 1.386 . S
C140 C142 1.391 . S
C141 C140 1.386 . S
C141 C145 1.369 1_554 S
C142 H131 0.950 . S
C142 C140 1.391 . S
C142 C143 1.400 . S
C143 C137 1.491 . S
C143 C142 1.400 . S
C143 C144 1.398 1_554 S
C144 H132 0.950 . S
C144 C143 1.398 1_556 S
C144 C145 1.399 . S
C145 H133 0.965 . S
C145 C141 1.369 1_556 S
C145 C144 1.399 . S
H146 C154 0.950 . S
H147 C159 0.950 . S
H148 C156 0.950 . S
H149 C158 0.950 . S
H150 C160 0.950 . S
H151 C162 0.950 . S
H152 C164 0.950 . S
H153 C165 0.950 1_554 S
C154 H146 0.950 . S
C154 C155 1.386 1_554 S
C154 C156 1.391 . S
C155 C154 1.386 1_556 S
C155 C159 1.393 . S
C156 H148 0.950 . S
C156 C154 1.391 . S
C156 C157 1.400 1_554 S
C157 C156 1.400 1_556 S
C157 C158 1.398 . S
C157 C163 1.491 . S
C158 H149 0.950 . S
C158 C157 1.398 . S
C158 C159 1.391 . S
C159 H147 0.950 . S
C159 C155 1.393 . S
C159 C158 1.391 . S
C160 H150 0.950 . S
C160 C161 1.386 . S
C160 C162 1.391 . S
C161 C160 1.386 . S
C161 C165 1.393 . S
C162 H151 0.950 . S
C162 C160 1.391 . S
C162 C163 1.400 . S
C163 C157 1.491 . S
C163 C162 1.400 . S
C163 C164 1.398 1_556 S
C164 H152 0.950 . S
C164 C163 1.398 1_554 S
C164 C165 1.391 1_554 S
C165 H153 0.950 1_556 S
C165 C161 1.393 . S
C165 C164 1.391 1_556 S
H166 C174 0.950 . S
H167 C179 0.950 . S
H168 C176 0.950 . S
H169 C178 0.950 . S
H170 C180 0.950 . S
H171 C182 0.950 . S
H172 C184 0.950 . S
H173 C185 0.950 . S
C174 H166 0.950 . S
C174 C175 1.386 . S
C174 C176 1.391 . S
C175 C174 1.386 . S
C175 C179 1.393 . S
C176 H168 0.950 . S
C176 C174 1.391 . S
C176 C177 1.400 . S
C177 C176 1.400 . S
C177 C178 1.398 . S
C177 C183 1.491 . S
C178 H169 0.950 . S
C178 C177 1.398 . S
C178 C179 1.391 . S
C179 H167 0.950 . S
C179 C175 1.393 . S
C179 C178 1.391 . S
C180 H170 0.950 . S
C180 C181 1.386 . S
C180 C182 1.391 . S
C181 C180 1.386 . S
C181 C185 1.393 . S
C182 H171 0.950 . S
C182 C180 1.391 . S
C182 C183 1.400 . S
C183 C177 1.491 . S
C183 C182 1.400 . S
C183 C184 1.398 . S
C184 H172 0.950 . S
C184 C183 1.398 . S
C184 C185 1.391 . S
C185 H173 0.950 . S
C185 C181 1.393 . S
C185 C184 1.391 . S
H186 C194 0.950 . S
H187 C199 0.950 . S
H188 C196 0.950 . S
H189 C198 0.950 . S
H190 C200 0.950 1_455 S
H191 C202 0.950 . S
H192 C204 0.950 . S
H193 C205 0.950 . S
C194 H186 0.950 . S
C194 C195 1.386 . S
C194 C196 1.391 . S
C195 C194 1.386 . S
C195 C199 1.393 . S
C196 H188 0.950 . S
C196 C194 1.391 . S
C196 C197 1.400 . S
C197 C196 1.400 . S
C197 C198 1.398 . S
C197 C203 1.491 . S
C198 H189 0.950 . S
C198 C197 1.398 . S
C198 C199 1.391 . S
C199 H187 0.950 . S
C199 C195 1.393 . S
C199 C198 1.391 . S
C200 H190 0.950 1_655 S
C200 C201 1.386 . S
C200 C202 1.391 . S
C201 C200 1.386 . S
C201 C205 1.393 . S
C202 H191 0.950 . S
C202 C200 1.391 . S
C202 C203 1.400 . S
C203 C197 1.491 . S
C203 C202 1.400 . S
C203 C204 1.398 . S
C204 H192 0.950 . S
C204 C203 1.398 . S
C204 C205 1.391 . S
C205 H193 0.950 . S
C205 C201 1.393 . S
C205 C204 1.391 . S
H206 C214 0.950 . S
H207 C219 0.950 . S
H208 C216 0.950 . S
H209 C218 0.950 . S
H210 C220 0.950 . S
H211 C222 0.950 . S
H212 C224 0.950 . S
H213 C225 0.950 . S
C214 H206 0.950 . S
C214 C215 1.386 . S
C214 C216 1.391 . S
C215 C214 1.386 . S
C215 C219 1.393 . S
C216 H208 0.950 . S
C216 C214 1.391 . S
C216 C217 1.400 . S
C217 C216 1.400 . S
C217 C218 1.398 . S
C217 C223 1.491 . S
C218 H209 0.950 . S
C218 C217 1.398 . S
C218 C219 1.391 . S
C219 H207 0.950 . S
C219 C215 1.393 . S
C219 C218 1.391 . S
C220 H210 0.950 . S
C220 C221 1.386 . S
C220 C222 1.391 . S
C221 C220 1.386 . S
C221 C225 1.393 . S
C222 H211 0.950 . S
C222 C220 1.391 . S
C222 C223 1.400 . S
C223 C217 1.491 . S
C223 C222 1.400 . S
C223 C224 1.398 . S
C224 H212 0.950 . S
C224 C223 1.398 . S
C224 C225 1.391 . S
C225 H213 0.950 . S
C225 C221 1.393 . S
C225 C224 1.391 . S
H226 C234 0.950 . S
H227 C239 0.950 . S
H228 C236 0.950 . S
H229 C238 0.950 . S
H230 C240 0.950 . S
H231 C242 0.950 . S
H232 C244 0.950 . S
H233 C245 0.950 . S
C234 H226 0.950 . S
C234 C235 1.386 . S
C234 C236 1.391 . S
C235 C234 1.386 . S
C235 C239 1.393 . S
C236 H228 0.950 . S
C236 C234 1.391 . S
C236 C237 1.400 . S
C237 C236 1.400 . S
C237 C238 1.398 . S
C237 C243 1.491 . S
C238 H229 0.950 . S
C238 C237 1.398 . S
C238 C239 1.391 . S
C239 H227 0.950 . S
C239 C235 1.393 . S
C239 C238 1.391 . S
C240 H230 0.950 . S
C240 C241 1.386 . S
C240 C242 1.391 . S
C241 C240 1.386 . S
C241 C245 1.393 . S
C242 H231 0.950 . S
C242 C240 1.391 . S
C242 C243 1.400 . S
C243 C237 1.491 . S
C243 C242 1.400 . S
C243 C244 1.398 . S
C244 H232 0.950 . S
C244 C243 1.398 . S
C244 C245 1.391 . S
C245 H233 0.950 . S
C245 C241 1.393 . S
C245 C244 1.391 . S
H246 C254 0.950 . S
H247 C259 0.950 . S
H248 C256 0.950 . S
H249 C258 0.950 . S
H250 C260 0.950 . S
H251 C262 0.950 . S
H252 C264 0.950 . S
H253 C265 0.950 . S
C254 H246 0.950 . S
C254 C255 1.386 . S
C254 C256 1.391 . S
C255 C254 1.386 . S
C255 C259 1.393 1_545 S
C256 H248 0.950 . S
C256 C254 1.391 . S
C256 C257 1.390 1_545 S
C257 C256 1.390 1_565 S
C257 C258 1.406 . S
C257 C263 1.493 . S
C258 H249 0.950 . S
C258 C257 1.406 . S
C258 C259 1.391 . S
C259 H247 0.950 . S
C259 C255 1.393 1_565 S
C259 C258 1.391 . S
C260 H250 0.950 . S
C260 C261 1.386 . S
C260 C262 1.391 . S
C261 C260 1.386 . S
C261 C265 1.393 1_565 S
C262 H251 0.950 . S
C262 C260 1.391 . S
C262 C263 1.400 . S
C263 C257 1.493 . S
C263 C262 1.400 . S
C263 C264 1.398 1_565 S
C264 H252 0.950 . S
C264 C263 1.398 1_545 S
C264 C265 1.391 . S
C265 H253 0.950 . S
C265 C261 1.393 1_545 S
C265 C264 1.391 . S
H266 C274 0.950 1_565 S
H267 C279 0.950 . S
H268 C276 0.950 . S
H269 C278 0.950 . S
H270 C280 0.950 . S
H271 C282 0.950 . S
H272 C284 0.950 . S
H273 C285 0.950 . S
C274 H266 0.950 1_545 S
C274 C275 1.386 . S
C274 C276 1.391 . S
C275 C274 1.386 . S
C275 C279 1.393 1_455 S
C276 H268 0.950 . S
C276 C274 1.391 . S
C276 C277 1.400 . S
C277 C276 1.400 . S
C277 C278 1.398 1_455 S
C277 C283 1.491 . S
C278 H269 0.950 . S
C278 C277 1.398 1_655 S
C278 C279 1.391 . S
C279 H267 0.950 . S
C279 C275 1.393 1_655 S
C279 C278 1.391 . S
C280 H270 0.950 . S
C280 C281 1.390 . S
C280 C282 1.391 . S
C281 C280 1.390 . S
C281 C285 1.389 1_655 S
C282 H271 0.950 . S
C282 C280 1.391 . S
C282 C283 1.400 1_655 S
C283 C277 1.491 . S
C283 C282 1.400 1_455 S
C283 C284 1.398 . S
C284 H272 0.950 . S
C284 C283 1.398 . S
C284 C285 1.391 . S
C285 H273 0.950 . S
C285 C281 1.389 1_455 S
C285 C284 1.391 . S
H286 C294 0.950 . S
H287 C299 0.950 . S
H288 C296 0.950 . S
H289 C298 0.950 . S
H290 C300 0.950 . S
H291 C302 0.950 . S
H292 C304 0.950 . S
H293 C305 0.950 . S
C294 H286 0.950 . S
C294 C295 1.386 . S
C294 C296 1.391 . S
C295 C294 1.386 . S
C295 C299 1.393 . S
C296 H288 0.950 . S
C296 C294 1.391 . S
C296 C297 1.400 . S
C297 C296 1.400 . S
C297 C298 1.398 . S
C297 C303 1.491 . S
C298 H289 0.950 . S
C298 C297 1.398 . S
C298 C299 1.391 . S
C299 H287 0.950 . S
C299 C295 1.393 . S
C299 C298 1.391 . S
C300 H290 0.950 . S
C300 C301 1.386 . S
C300 C302 1.391 . S
C301 C300 1.386 . S
C301 C305 1.393 . S
C302 H291 0.950 . S
C302 C300 1.391 . S
C302 C303 1.400 . S
C303 C297 1.491 . S
C303 C302 1.400 . S
C303 C304 1.398 . S
C304 H292 0.950 . S
C304 C303 1.398 . S
C304 C305 1.391 . S
C305 H293 0.950 . S
C305 C301 1.393 . S
C305 C304 1.391 . S
H306 C314 0.950 . S
H307 C319 0.950 . S
H308 C316 0.950 . S
H309 C318 0.950 . S
H310 C320 0.950 . S
H311 C322 0.950 . S
H312 C324 0.950 . S
H313 C325 0.950 . S
C314 H306 0.950 . S
C314 C315 1.386 . S
C314 C316 1.391 . S
C315 C314 1.386 . S
C315 C319 1.393 . S
C316 H308 0.950 . S
C316 C314 1.391 . S
C316 C317 1.400 . S
C317 C316 1.400 . S
C317 C318 1.398 . S
C317 C323 1.491 . S
C318 H309 0.950 . S
C318 C317 1.398 . S
C318 C319 1.391 . S
C319 H307 0.950 . S
C319 C315 1.393 . S
C319 C318 1.391 . S
C320 H310 0.950 . S
C320 C321 1.386 . S
C320 C322 1.391 . S
C321 C320 1.386 . S
C321 C325 1.393 . S
C322 H311 0.950 . S
C322 C320 1.391 . S
C322 C323 1.400 . S
C323 C317 1.491 . S
C323 C322 1.400 . S
C323 C324 1.398 . S
C324 H312 0.950 . S
C324 C323 1.398 . S
C324 C325 1.391 . S
C325 H313 0.950 . S
C325 C321 1.393 . S
C325 C324 1.391 . S
C101 C81 1.445 . S
C95 C16 1.323 . S
C115 C15 1.430 . S
C121 N68 1.415 . S
C135 C13 1.283 1_554 S
C141 N79 1.416 . S
C155 C14 1.429 . S
C161 C70 1.453 . S
C175 C37 1.305 . S
C181 C59 1.454 . S
C195 C36 1.429 . S
C201 N46 1.415 . S
C221 N57 1.419 . S
C215 C34 1.254 . S
C241 C48 1.451 . S
C235 C35 1.430 . S
C255 C17 1.577 . S
C261 C51 1.608 . S
C275 C18 1.382 . S
C281 C62 1.423 . S
C301 C73 1.608 . S
C295 C38 1.568 . S
C315 C39 1.395 . S
C321 C84 1.408 . S
