# Generated by pormake.
# Topology zzz, (3,6)-cn, num edge types: 1
# Building blocks:
#     Node 0, Type 0, BuildingBlock: ESEHIV_clean_linker_0, # of connection points: 3
#     Node 1, Type 0, BuildingBlock: ESEHIV_clean_linker_0, # of connection points: 3
#     Node 2, Type 0, BuildingBlock: ESEHIV_clean_linker_0, # of connection points: 3
#     Node 3, Type 0, BuildingBlock: ESEHIV_clean_linker_0, # of connection points: 3
#     Node 4, Type 0, BuildingBlock: ESEHIV_clean_linker_0, # of connection points: 3
#     Node 5, Type 0, BuildingBlock: ESEHIV_clean_linker_0, # of connection points: 3
#     Node 6, Type 0, BuildingBlock: ESEHIV_clean_linker_0, # of connection points: 3
#     Node 7, Type 0, BuildingBlock: ESEHIV_clean_linker_0, # of connection points: 3
#     Node 8, Type 1, BuildingBlock: KUMBOL_clean_sbu_0, # of connection points: 6
#     Node 9, Type 1, BuildingBlock: KUMBOL_clean_sbu_0, # of connection points: 6
#     Node 10, Type 1, BuildingBlock: KUMBOL_clean_sbu_0, # of connection points: 6
#     Node 11, Type 1, BuildingBlock: KUMBOL_clean_sbu_0, # of connection points: 6
#     Edge 12, Type (0, 1), BuildingBlock: KIFKEQ_clean_linker_1, # of connection points: 2
#     Edge 13, Type (0, 1), BuildingBlock: KIFKEQ_clean_linker_1, # of connection points: 2
#     Edge 14, Type (0, 1), BuildingBlock: KIFKEQ_clean_linker_1, # of connection points: 2
#     Edge 15, Type (0, 1), BuildingBlock: KIFKEQ_clean_linker_1, # of connection points: 2
#     Edge 16, Type (0, 1), BuildingBlock: KIFKEQ_clean_linker_1, # of connection points: 2
#     Edge 17, Type (0, 1), BuildingBlock: KIFKEQ_clean_linker_1, # of connection points: 2
#     Edge 18, Type (0, 1), BuildingBlock: KIFKEQ_clean_linker_1, # of connection points: 2
#     Edge 19, Type (0, 1), BuildingBlock: KIFKEQ_clean_linker_1, # of connection points: 2
#     Edge 20, Type (0, 1), BuildingBlock: KIFKEQ_clean_linker_1, # of connection points: 2
#     Edge 21, Type (0, 1), BuildingBlock: KIFKEQ_clean_linker_1, # of connection points: 2
#     Edge 22, Type (0, 1), BuildingBlock: KIFKEQ_clean_linker_1, # of connection points: 2
#     Edge 23, Type (0, 1), BuildingBlock: KIFKEQ_clean_linker_1, # of connection points: 2
#     Edge 24, Type (0, 1), BuildingBlock: KIFKEQ_clean_linker_1, # of connection points: 2
#     Edge 25, Type (0, 1), BuildingBlock: KIFKEQ_clean_linker_1, # of connection points: 2
#     Edge 26, Type (0, 1), BuildingBlock: KIFKEQ_clean_linker_1, # of connection points: 2
#     Edge 27, Type (0, 1), BuildingBlock: KIFKEQ_clean_linker_1, # of connection points: 2
#     Edge 28, Type (0, 1), BuildingBlock: KIFKEQ_clean_linker_1, # of connection points: 2
#     Edge 29, Type (0, 1), BuildingBlock: KIFKEQ_clean_linker_1, # of connection points: 2
#     Edge 30, Type (0, 1), BuildingBlock: KIFKEQ_clean_linker_1, # of connection points: 2
#     Edge 31, Type (0, 1), BuildingBlock: KIFKEQ_clean_linker_1, # of connection points: 2
#     Edge 32, Type (0, 1), BuildingBlock: KIFKEQ_clean_linker_1, # of connection points: 2
#     Edge 33, Type (0, 1), BuildingBlock: KIFKEQ_clean_linker_1, # of connection points: 2
#     Edge 34, Type (0, 1), BuildingBlock: KIFKEQ_clean_linker_1, # of connection points: 2
#     Edge 35, Type (0, 1), BuildingBlock: KIFKEQ_clean_linker_1, # of connection points: 2
# Relax obj value: 0.335
# Max RMSD: 0.221
# Mean RMSD: 0.214
data_MOF--net-zzz--node1-KUMBOL_clean_sbu_0--node2-ESEHIV_clean_linker_0--edge1-KIFKEQ_clean_linker_1
_symmetry_space_group_name_H-M    P1
_symmetry_Int_Tables_number       1
_symmetry_cell_setting            triclinic
loop_
_symmetry_equiv_pos_as_xyz
'x, y, z'
_cell_length_a     44.419105
_cell_length_b     44.403471
_cell_length_c     15.528653
_cell_angle_alpha  91.472062
_cell_angle_beta   89.974771
_cell_angle_gamma 89.97353
loop_
_atom_site_label
_atom_site_type_symbol
_atom_site_fract_x
_atom_site_fract_y
_atom_site_fract_z
_atom_type_partial_charge
H0 H 0.81123 0.58994 0.24141 0.0
H1 H 0.73417 0.60208 0.07984 0.0
H2 H 0.73534 0.53092 0.26485 0.0
C3 C 0.78838 0.5841 0.22306 0.0
C4 C 0.77487 0.55975 0.26331 0.0
C5 C 0.77413 0.59941 0.15647 0.0
C6 C 0.74509 0.59044 0.13169 0.0
C7 C 0.73049 0.56581 0.16941 0.0
C8 C 0.74586 0.55007 0.23531 0.0
H9 H 0.93967 0.81583 0.23207 0.0
H10 H 0.93306 0.73701 0.06704 0.0
H11 H 1.00991 0.74938 0.23419 0.0
C12 C 0.94788 0.79387 0.211 0.0
C13 C 0.97509 0.78384 0.24573 0.0
C14 C 0.93307 0.77794 0.14424 0.0
C15 C 0.94489 0.75002 0.11636 0.0
C16 C 0.97289 0.73953 0.14563 0.0
C17 C 0.98809 0.75664 0.21158 0.0
H18 H 0.71197 0.93108 0.23714 0.0
H19 H 0.79346 0.92232 0.08848 0.0
H20 H 0.78134 0.99779 0.26495 0.0
C21 C 0.73466 0.93826 0.22234 0.0
C22 C 0.7454 0.96452 0.26382 0.0
C23 C 0.75103 0.92348 0.1562 0.0
C24 C 0.78016 0.93384 0.13775 0.0
C25 C 0.79128 0.96078 0.1748 0.0
C26 C 0.77354 0.97651 0.23763 0.0
H27 H 0.6051 0.7273 0.29933 0.0
H28 H 0.54173 0.79924 0.27066 0.0
H29 H 0.62253 0.79488 0.11472 0.0
C30 C 0.59958 0.74876 0.27144 0.0
C31 C 0.61637 0.75896 0.20172 0.0
C32 C 0.57305 0.7632 0.29826 0.0
C33 C 0.56328 0.78918 0.25454 0.0
C34 C 0.5811 0.80103 0.18696 0.0
C35 C 0.60849 0.78646 0.16581 0.0
H36 H 0.23015 0.44595 0.09032 0.0
H37 H 0.30032 0.4378 0.27733 0.0
H38 H 0.29985 0.51299 0.10582 0.0
C39 C 0.2516 0.45345 0.11654 0.0
C40 C 0.26403 0.48015 0.0864 0.0
C41 C 0.26393 0.43867 0.1869 0.0
C42 C 0.29083 0.44945 0.22314 0.0
C43 C 0.30436 0.47617 0.19506 0.0
C44 C 0.29065 0.49173 0.12606 0.0
H45 H 0.09318 0.21378 0.12433 0.0
H46 H 0.10449 0.29356 0.28204 0.0
H47 H 0.03011 0.28665 0.10321 0.0
C48 C 0.08663 0.23665 0.14183 0.0
C49 C 0.06103 0.24857 0.1027 0.0
C50 C 0.10203 0.25233 0.20775 0.0
C51 C 0.09248 0.28152 0.23122 0.0
C52 C 0.06657 0.29461 0.19526 0.0
C53 C 0.0504 0.27753 0.13104 0.0
H54 H 0.31946 0.10511 0.10816 0.0
H55 H 0.23911 0.11427 0.26173 0.0
H56 H 0.25099 0.03718 0.09088 0.0
C57 C 0.29703 0.09776 0.12518 0.0
C58 C 0.28645 0.07086 0.08713 0.0
C59 C 0.28091 0.1131 0.19079 0.0
C60 C 0.25217 0.10244 0.21252 0.0
C61 C 0.24115 0.075 0.1783 0.0
C62 C 0.25868 0.05882 0.11593 0.0
H63 H 0.43146 0.32108 0.11141 0.0
H64 H 0.49136 0.24523 0.08892 0.0
H65 H 0.42383 0.24882 0.28849 0.0
C66 C 0.43764 0.29859 0.13071 0.0
C67 C 0.42444 0.28655 0.20437 0.0
C68 C 0.46162 0.28409 0.08811 0.0
C69 C 0.4719 0.25601 0.11839 0.0
C70 C 0.45755 0.24272 0.18978 0.0
C71 C 0.43372 0.2581 0.23104 0.0
Gd72 Gd 0.98849 0.02733 0.59651 0.0
Gd73 Gd 0.04411 1.00552 0.75586 0.0
C74 C 0.09035 0.07068 0.94804 0.0
C75 C 0.14269 0.06717 0.90341 0.0
C76 C 0.1043 0.03729 0.82918 0.0
C77 C 0.08243 0.04969 0.882 0.0
C78 C 0.13481 0.04537 0.84029 0.0
C79 C 0.12048 0.07982 0.95722 0.0
C80 C 0.06794 0.08114 1.00448 0.0
C81 C 0.03878 0.06987 0.99616 0.0
N82 N 0.05366 0.04 0.87182 0.0
C83 C 0.03211 0.0489 0.93014 0.0
H84 H 1.00936 0.0408 0.92527 0.0
C85 C 0.11722 1.00058 0.72282 0.0
N86 N 0.09593 0.01605 0.76987 0.0
C87 C 0.14773 1.00785 0.73113 0.0
C88 C 0.15655 0.03063 0.78937 0.0
H89 H 0.11058 0.98312 0.677 0.0
H90 H 0.12693 0.09606 1.00714 0.0
H91 H 0.02348 0.99277 0.42643 0.0
H92 H 0.07306 0.09733 0.05582 0.0
H93 H 0.02134 0.0774 0.04043 0.0
H94 H 0.16596 0.07384 0.91256 0.0
H95 H 0.92191 0.04916 0.6755 0.0
H96 H 0.96019 0.93613 0.2946 0.0
H97 H 1.01176 0.95642 0.31038 0.0
H98 H 0.86713 0.95861 0.43821 0.0
H99 H 0.16439 0.99596 0.69237 0.0
H100 H 0.1802 0.03618 0.79592 0.0
H101 H 0.90631 0.93687 0.34328 0.0
H102 H 0.86815 0.03609 0.65956 0.0
N103 N 0.97922 0.993 0.48004 0.0
C104 C 0.9652 0.95218 0.34635 0.0
C105 C 0.99428 0.96366 0.3549 0.0
C106 C 0.94273 0.9623 0.4031 0.0
C107 C 0.95051 0.98313 0.46968 0.0
C108 C 1.00081 0.98447 0.42143 0.0
N109 N 0.93677 0.01639 0.58252 0.0
C110 C 0.92855 0.99523 0.52276 0.0
C111 C 0.8849 0.02433 0.62082 0.0
C112 C 0.87624 1.00159 0.56225 0.0
C113 C 0.91537 0.03172 0.62948 0.0
C114 C 0.89809 0.98704 0.51129 0.0
H115 H 0.85261 0.99595 0.55541 0.0
O116 O 0.96689 0.06989 0.56921 0.0
O117 O 0.01971 0.04401 0.70043 0.0
O118 O 0.99648 1.0071 0.81321 0.0
O119 O 0.96328 1.00126 0.69814 0.0
O120 O 0.97691 0.06179 0.70157 0.0
O121 O 1.00194 0.0525 0.48481 0.0
O122 O 0.06536 0.96292 0.78464 0.0
O123 O 0.01312 0.98888 0.65137 0.0
O124 O 0.03622 0.02624 0.53936 0.0
O125 O 0.06941 0.03166 0.65468 0.0
O126 O 0.05592 0.97116 0.65072 0.0
O127 O 0.02982 0.98048 0.86702 0.0
C128 C 1.00286 0.06333 0.73818 0.0
C129 C 0.89036 0.96537 0.44764 0.0
C130 C 0.91266 0.95299 0.39363 0.0
C131 C 0.9873 0.07637 0.51236 0.0
C132 C 1.00562 0.10346 0.53276 0.0
C133 C 0.99426 0.12621 0.58842 0.0
C134 C 0.03588 0.10487 0.50628 0.0
C135 C 0.05484 0.12828 0.5358 0.0
C136 C 0.01293 0.14936 0.61871 0.0
C137 C 0.04298 0.15042 0.59298 0.0
C138 C 0.96931 1.00069 0.78181 0.0
C139 C 0.03008 0.96969 0.61346 0.0
C140 C 0.04458 0.95655 0.84054 0.0
C141 C 0.02629 0.92945 0.81984 0.0
C142 C 0.03739 0.90715 0.7622 0.0
C143 C 0.99632 0.92749 0.84867 0.0
C144 C 0.9774 0.90397 0.81948 0.0
C145 C 0.01873 0.88395 0.73223 0.0
C146 C 0.98898 0.88235 0.76027 0.0
C147 C 0.06339 0.0325 0.57105 0.0
H148 H 0.97115 0.12565 0.61067 0.0
H149 H 0.0448 0.0875 0.46338 0.0
H150 H 1.00407 0.16659 0.66234 0.0
H151 H 0.05653 0.16927 0.61557 0.0
H152 H 0.06026 0.90808 0.73821 0.0
H153 H 0.98758 0.9445 0.89314 0.0
H154 H 0.02739 0.86709 0.68709 0.0
H155 H 0.97546 0.86345 0.73784 0.0
Gd156 Gd 0.50349 0.99013 0.59106 0.0
Gd157 Gd 0.5268 0.04647 0.75395 0.0
C158 C 0.46336 0.09271 0.94946 0.0
C159 C 0.4652 0.14482 0.90579 0.0
C160 C 0.49479 0.10649 0.82951 0.0
C161 C 0.48364 0.08473 0.88258 0.0
C162 C 0.48619 0.13691 0.84143 0.0
C163 C 0.45378 0.12274 0.95971 0.0
C164 C 0.45388 0.07043 1.00535 0.0
C165 C 0.46534 0.04132 0.99549 0.0
N166 N 0.49363 0.056 0.87123 0.0
C167 C 0.48559 0.03457 0.92871 0.0
H168 H 0.49387 1.01186 0.92282 0.0
C169 C 0.52944 0.11936 0.72106 0.0
N170 N 0.51523 0.09813 0.76876 0.0
C171 C 0.52155 0.14977 0.73003 0.0
C172 C 0.49956 0.15856 0.78982 0.0
H173 H 0.54629 0.11266 0.67417 0.0
H174 H 0.4381 0.12923 1.01035 0.0
H175 H 0.53941 0.0244 0.4271 0.0
H176 H 0.43825 0.07559 0.05726 0.0
H177 H 0.45854 0.02399 0.03921 0.0
H178 H 0.45816 0.16802 0.91562 0.0
H179 H 0.4799 0.92424 0.66326 0.0
H180 H 0.59297 0.95932 0.29095 0.0
H181 H 0.57496 1.01167 0.31168 0.0
H182 H 0.56699 0.86658 0.42307 0.0
H183 H 0.53238 0.16637 0.69069 0.0
H184 H 0.49354 0.18215 0.79691 0.0
H185 H 0.59 0.90524 0.33332 0.0
H186 H 0.4907 0.87003 0.64221 0.0
N187 N 0.53735 0.9799 0.47564 0.0
C188 C 0.57727 0.96477 0.34247 0.0
C189 C 0.56708 0.99429 0.35378 0.0
C190 C 0.56635 0.94247 0.39615 0.0
C191 C 0.54605 0.95085 0.46262 0.0
C192 C 0.54668 1.00139 0.41992 0.0
N193 N 0.51275 0.93809 0.57273 0.0
C194 C 0.53329 0.92921 0.51291 0.0
C195 C 0.50295 0.88642 0.60556 0.0
C196 C 0.52502 0.87702 0.54675 0.0
C197 C 0.49685 0.91717 0.61715 0.0
C198 C 0.5402 0.89846 0.49854 0.0
H199 H 0.52965 0.85319 0.53762 0.0
O200 O 0.46008 0.97009 0.56082 0.0
O201 O 0.48829 0.02168 0.69656 0.0
O202 O 0.52615 0.99919 0.80939 0.0
O203 O 0.52901 0.96483 0.69337 0.0
O204 O 0.46948 0.97932 0.69465 0.0
O205 O 0.47806 1.0048 0.48026 0.0
O206 O 0.56925 0.06893 0.78112 0.0
O207 O 0.5423 0.01438 0.64984 0.0
O208 O 0.50554 0.0376 0.53686 0.0
O209 O 0.49906 0.07056 0.65415 0.0
O210 O 0.56058 0.057 0.64966 0.0
O211 O 0.55348 0.03387 0.86446 0.0
C212 C 0.469 1.00534 0.73314 0.0
C213 C 0.56126 0.89006 0.4348 0.0
C214 C 0.57435 0.91206 0.38372 0.0
C215 C 0.45392 0.99081 0.50561 0.0
C216 C 0.42741 1.0099 0.52637 0.0
C217 C 0.40509 0.99957 0.58266 0.0
C218 C 0.42608 0.03983 0.49886 0.0
C219 C 0.40324 0.05952 0.52831 0.0
C220 C 0.3825 0.01893 0.61264 0.0
C221 C 0.38157 0.04867 0.58609 0.0
C222 C 0.53117 0.97164 0.777 0.0
C223 C 0.56166 0.03066 0.61316 0.0
C224 C 0.57674 0.04891 0.83721 0.0
C225 C 0.60411 0.03115 0.81615 0.0
C226 C 0.6264 0.0431 0.7626 0.0
C227 C 0.6064 1.0009 0.84033 0.0
C228 C 0.63034 0.98258 0.81105 0.0
C229 C 0.65 0.02504 0.73228 0.0
C230 C 0.65201 0.99503 0.75605 0.0
C231 C 0.49853 0.06457 0.57008 0.0
H232 H 0.40554 0.97673 0.60556 0.0
H233 H 0.44309 0.04794 0.45531 0.0
H234 H 0.36562 1.01085 0.65673 0.0
H235 H 0.36315 0.06276 0.60862 0.0
H236 H 0.62515 0.0662 0.74209 0.0
H237 H 0.58933 0.99149 0.88128 0.0
H238 H 0.66687 0.03436 0.69028 0.0
H239 H 0.67118 0.98198 0.73361 0.0
Gd240 Gd 0.48258 0.53582 0.75687 0.0
Gd241 Gd 0.54788 0.51377 0.62529 0.0
C242 C 0.64392 0.52079 0.73214 0.0
C243 C 0.66418 0.56267 0.65305 0.0
C244 C 0.61302 0.54521 0.6262 0.0
C245 C 0.61625 0.52364 0.68815 0.0
C246 C 0.63723 0.56442 0.60627 0.0
C247 C 0.6675 0.54091 0.71593 0.0
C248 C 0.64738 0.49735 0.78961 0.0
C249 C 0.62406 0.4768 0.79969 0.0
N250 N 0.59296 0.50452 0.70246 0.0
C251 C 0.5971 0.48044 0.75467 0.0
H252 H 0.57983 0.46394 0.76411 0.0
C253 C 0.58433 0.56407 0.51125 0.0
N254 N 0.58684 0.54622 0.58169 0.0
C255 C 0.60763 0.58359 0.48932 0.0
C256 C 0.63402 0.58414 0.53797 0.0
H257 H 0.56379 0.5639 0.47386 0.0
H258 H 0.6887 0.53928 0.75001 0.0
H259 H 0.4472 0.58105 0.61206 0.0
H260 H 0.6682 0.49449 0.82485 0.0
H261 H 0.62676 0.45814 0.84252 0.0
H262 H 0.68288 0.57747 0.63938 0.0
H263 H 0.46691 0.49431 0.92934 0.0
H264 H 0.36072 0.5443 0.55762 0.0
H265 H 0.4001 0.58229 0.53228 0.0
H266 H 0.34996 0.46722 0.7645 0.0
H267 H 0.60514 0.59825 0.43516 0.0
H268 H 0.6521 0.59922 0.52075 0.0
H269 H 0.34257 0.50082 0.64286 0.0
H270 H 0.42719 0.45982 0.97847 0.0
N271 N 0.43673 0.54109 0.67972 0.0
C272 C 0.38176 0.54334 0.59276 0.0
C273 C 0.40392 0.5648 0.57832 0.0
C274 C 0.3865 0.52172 0.6551 0.0
C275 C 0.41438 0.52143 0.699 0.0
C276 C 0.43107 0.56372 0.62368 0.0
N277 N 0.44439 0.50475 0.81279 0.0
C278 C 0.41845 0.50252 0.76728 0.0
C279 C 0.42454 0.47143 0.91849 0.0
C280 C 0.39863 0.46717 0.8689 0.0
C281 C 0.44698 0.49092 0.89042 0.0
C282 C 0.39496 0.48339 0.79352 0.0
H283 H 0.38112 0.45227 0.89115 0.0
O284 O 0.45842 0.55423 0.86826 0.0
O285 O 0.53269 0.53268 0.75143 0.0
O286 O 0.53386 0.47344 0.70481 0.0
O287 O 0.4871 0.48523 0.76582 0.0
O288 O 0.51323 0.5219 0.86664 0.0
O289 O 0.48956 0.58215 0.80017 0.0
O290 O 0.56531 0.50324 0.49783 0.0
O291 O 0.49734 0.51489 0.63142 0.0
O292 O 0.49477 0.57279 0.66251 0.0
O293 O 0.54584 0.56476 0.6421 0.0
O294 O 0.51673 0.52787 0.5177 0.0
O295 O 0.55169 0.46714 0.58039 0.0
C296 C 0.53855 0.52462 0.82714 0.0
C297 C 0.36807 0.48209 0.74611 0.0
C298 C 0.36385 0.50124 0.67696 0.0
C299 C 0.47349 0.57923 0.86937 0.0
C300 C 0.48758 0.58806 0.95208 0.0
C301 C 0.46947 0.5916 0.02546 0.0
C302 C 0.51879 0.59316 0.95855 0.0
C303 C 0.53181 0.60341 0.03673 0.0
C304 C 0.48216 0.60069 0.10387 0.0
C305 C 0.51288 0.60697 0.10945 0.0
C306 C 0.50935 0.46626 0.74865 0.0
C307 C 0.4915 0.52292 0.55552 0.0
C308 C 0.5594 0.47472 0.50277 0.0
C309 C 0.54161 0.46224 0.43069 0.0
C310 C 0.55502 0.45945 0.34926 0.0
C311 C 0.51094 0.4553 0.44067 0.0
C312 C 0.49372 0.44498 0.36977 0.0
C313 C 0.53812 0.44961 0.27846 0.0
C314 C 0.50782 0.44227 0.28844 0.0
C315 C 0.52171 0.58213 0.63749 0.0
H316 H 0.44545 0.58752 0.02192 0.0
H317 H 0.53271 0.58954 0.90212 0.0
H318 H 0.46798 0.60368 0.16017 0.0
H319 H 0.5213 0.61571 0.17043 0.0
H320 H 0.57851 0.46517 0.34036 0.0
H321 H 0.5006 0.45804 0.50352 0.0
H322 H 0.54863 0.44734 0.21571 0.0
H323 H 0.49584 0.43351 0.23255 0.0
Gd324 Gd 1.00892 0.48694 0.74169 0.0
Gd325 Gd 0.03097 0.54713 0.59982 0.0
C326 C 0.02037 0.64638 0.68212 0.0
C327 C 0.98014 0.66259 0.58815 0.0
C328 C 0.99895 0.61112 0.57746 0.0
C329 C 0.01906 0.61714 0.64399 0.0
C330 C 0.97987 0.63403 0.54737 0.0
C331 C 1.00032 0.66874 0.65545 0.0
C332 C 0.04227 0.6526 0.74458 0.0
C333 C 0.06288 0.63033 0.76549 0.0
N334 N 0.03822 0.595 0.66869 0.0
C335 C 0.06087 0.60176 0.72597 0.0
H336 H 0.07738 0.58546 0.74417 0.0
C337 C 0.98286 0.57785 0.46519 0.0
N338 N 0.99923 0.58341 0.53877 0.0
C339 C 0.96357 0.59978 0.43333 0.0
C340 C 0.9617 0.62785 0.47542 0.0
H341 H 0.98408 0.55605 0.43272 0.0
H342 H 1.0008 0.69112 0.68493 0.0
H343 H 0.95908 0.4475 0.61264 0.0
H344 H 0.0439 0.67469 0.77555 0.0
H345 H 0.08035 0.63512 0.81245 0.0
H346 H 0.9654 0.68033 0.56659 0.0
H347 H 0.0513 0.47313 0.91554 0.0
H348 H 0.99662 0.36131 0.55333 0.0
H349 H 0.95682 0.39941 0.53383 0.0
H350 H 0.07823 0.35455 0.75264 0.0
H351 H 0.95011 0.59498 0.37655 0.0
H352 H 0.94678 0.64486 0.45048 0.0
H353 H 0.04248 0.34501 0.63405 0.0
H354 H 0.08714 0.43459 0.96465 0.0
N355 N 1.0015 0.43907 0.67195 0.0
C356 C 0.99806 0.38284 0.58751 0.0
C357 C 0.97559 0.40428 0.57634 0.0
C358 C 0.02116 0.38884 0.64648 0.0
C359 C 0.02202 0.41735 0.68899 0.0
C360 C 0.97733 0.43208 0.62058 0.0
N361 N 0.03995 0.44908 0.79982 0.0
C362 C 0.04206 0.42262 0.75516 0.0
C363 C 0.07487 0.43102 0.90506 0.0
C364 C 0.07903 0.4046 0.85586 0.0
C365 C 0.05463 0.4528 0.87701 0.0
C366 C 0.06189 0.39973 0.78121 0.0
H367 H 0.0945 0.38759 0.87803 0.0
O368 O 0.99296 0.47099 0.86496 0.0
O369 O 1.01127 0.53705 0.72753 0.0
O370 O 0.07068 0.53813 0.68919 0.0
O371 O 0.05969 0.49253 0.75362 0.0
O372 O 0.02417 0.5208 0.84476 0.0
O373 O 0.96224 0.49306 0.78022 0.0
O374 O 0.04558 0.56728 0.48093 0.0
O375 O 0.02908 0.49702 0.61416 0.0
O376 O 0.97075 0.49657 0.64591 0.0
O377 O 0.97986 0.54583 0.60743 0.0
O378 O 0.01558 0.51303 0.49716 0.0
O379 O 0.07683 0.54087 0.55416 0.0
C380 C 0.01983 0.54503 0.80271 0.0
C381 C 0.06282 0.37223 0.7346 0.0
C382 C 0.04246 0.36679 0.66716 0.0
C383 C 0.96768 0.48546 0.85902 0.0
C384 C 0.96166 0.50861 0.92723 0.0
C385 C 0.97432 0.50597 1.00961 0.0
C386 C 0.9456 0.53491 0.90811 0.0
C387 C 0.94137 0.55803 0.97062 0.0
C388 C 0.97116 0.52923 0.07111 0.0
C389 C 0.95476 0.55505 0.05211 0.0
C390 C 0.07827 0.51493 0.73684 0.0
C391 C 0.02017 0.48891 0.53948 0.0
C392 C 0.07143 0.55368 0.48124 0.0
C393 C 0.07931 0.53684 0.40137 0.0
C394 C 0.07918 0.55193 0.32331 0.0
C395 C 0.0869 0.50607 0.402 0.0
C396 C 0.09632 0.49068 0.32598 0.0
C397 C 0.08713 0.53677 0.24713 0.0
C398 C 0.09606 0.50667 0.24833 0.0
C399 C 0.96186 0.5222 0.6115 0.0
H400 H 0.98714 0.48617 0.026 0.0
H401 H 0.93638 0.53745 0.84415 0.0
H402 H 0.98111 0.52706 0.13427 0.0
H403 H 0.95161 0.57203 0.10256 0.0
H404 H 0.07309 0.57554 0.32138 0.0
H405 H 0.08594 0.49449 0.46227 0.0
H406 H 0.08726 0.54866 0.18712 0.0
H407 H 0.10393 0.49667 0.18828 0.0
H408 H 0.23761 0.0344 0.30619 0.0
H409 H 0.18238 0.09094 0.14975 0.0
H410 H 0.19428 0.0244 0.39911 0.0
H411 H 0.13875 0.08072 0.24185 0.0
H412 H 0.12218 0.0489 0.60665 0.0
H413 H 0.16368 0.05584 0.50586 0.0
H414 H 0.10324 0.0398 0.29242 0.0
H415 H 0.06188 0.03183 0.39314 0.0
C416 C 0.2159 0.0438 0.28984 0.0
C417 C 0.21329 0.06274 0.21901 0.0
C418 C 0.19114 0.03853 0.344 0.0
C419 C 0.1629 0.05189 0.32871 0.0
C420 C 0.15998 0.06982 0.2555 0.0
C421 C 0.18492 0.07548 0.2021 0.0
C422 C 0.1177 0.0463 0.53844 0.0
C423 C 0.08856 0.03891 0.50898 0.0
C424 C 0.1416 0.0504 0.48033 0.0
C425 C 0.13708 0.04795 0.39056 0.0
C426 C 0.10772 0.04175 0.36088 0.0
C427 C 0.08393 0.03708 0.41905 0.0
H428 H 0.4488 0.1832 0.14219 0.0
H429 H 0.48961 0.24045 0.33738 0.0
H430 H 0.45766 0.13912 0.23158 0.0
H431 H 0.49882 0.1968 0.42622 0.0
H432 H 0.47649 0.1213 0.60881 0.0
H433 H 0.46855 0.16287 0.51173 0.0
H434 H 0.49578 0.10596 0.29606 0.0
H435 H 0.50387 0.06439 0.39322 0.0
C436 C 0.46056 0.18618 0.2029 0.0
C437 C 0.46908 0.21519 0.23203 0.0
C438 C 0.46545 0.16098 0.25458 0.0
C439 C 0.47865 0.16432 0.33701 0.0
C440 C 0.48811 0.1933 0.36412 0.0
C441 C 0.48333 0.21831 0.31256 0.0
C442 C 0.48113 0.11764 0.54093 0.0
C443 C 0.49167 0.08952 0.5098 0.0
C444 C 0.47654 0.14157 0.48494 0.0
C445 C 0.48205 0.13811 0.39577 0.0
C446 C 0.49136 0.10962 0.36411 0.0
C447 C 0.49617 0.08573 0.42024 0.0
H448 H 0.30963 0.48289 0.36958 0.0
H449 H 0.35992 0.49526 0.13556 0.0
H450 H 0.3544 0.49397 0.45485 0.0
H451 H 0.40522 0.50658 0.22158 0.0
H452 H 0.47342 0.55187 0.41269 0.0
H453 H 0.4289 0.54249 0.32322 0.0
H454 H 0.40235 0.471 0.49046 0.0
H455 H 0.44707 0.4805 0.5796 0.0
C456 C 0.33029 0.48821 0.33613 0.0
C457 C 0.33106 0.48797 0.24526 0.0
C458 C 0.35613 0.49436 0.38531 0.0
C459 C 0.38378 0.50079 0.34568 0.0
C460 C 0.38438 0.50185 0.25474 0.0
C461 C 0.35835 0.49552 0.20517 0.0
C462 C 0.45791 0.53428 0.43064 0.0
C463 C 0.46325 0.51765 0.5051 0.0
C464 C 0.43247 0.52872 0.37884 0.0
C465 C 0.41161 0.50617 0.39954 0.0
C466 C 0.41741 0.48903 0.47317 0.0
C467 C 0.443 0.49453 0.52476 0.0
H468 H 0.10218 0.34348 0.23624 0.0
H469 H 1.00925 0.31533 0.24127 0.0
H470 H 0.08978 0.38773 0.32426 0.0
H471 H 0.99652 0.36128 0.32593 0.0
H472 H 0.9859 0.46438 0.41057 0.0
H473 H 0.99487 0.41834 0.32368 0.0
H474 H 0.07457 0.40087 0.47309 0.0
H475 H 0.06525 0.44681 0.56038 0.0
C476 C 0.07891 0.34683 0.25501 0.0
C477 C 0.05687 0.32512 0.23198 0.0
C478 C 0.07183 0.37247 0.30585 0.0
C479 C 0.04223 0.37826 0.33357 0.0
C480 C 0.01965 0.3577 0.30613 0.0
C481 C 0.02689 0.3314 0.25663 0.0
C482 C 1.00508 0.45041 0.42572 0.0
C483 C 0.02443 0.45898 0.49395 0.0
C484 C 1.01021 0.42392 0.37586 0.0
C485 C 0.03546 0.40558 0.39076 0.0
C486 C 0.05494 0.41433 0.45896 0.0
C487 C 0.04946 0.44055 0.50989 0.0
H488 H 0.79533 1.00138 0.04733 0.0
H489 H 0.84997 0.94499 0.20583 0.0
H490 H 0.83881 1.01078 0.95455 0.0
H491 H 0.89377 0.95461 0.1138 0.0
H492 H 0.97108 1.00186 0.95969 0.0
H493 H 0.92977 0.99478 0.06116 0.0
H494 H 0.86891 0.97851 0.84885 0.0
H495 H 0.91036 0.98452 0.74738 0.0
C496 C 0.81696 0.99194 0.06428 0.0
C497 C 0.81933 0.97319 0.1356 0.0
C498 C 0.84181 0.99685 1.01015 0.0
C499 C 0.86991 0.98328 0.02589 0.0
C500 C 0.87265 0.96564 0.09977 0.0
C501 C 0.84761 0.96036 0.15318 0.0
C502 C 0.94895 0.99674 0.93418 0.0
C503 C 0.94419 0.99463 0.84432 0.0
C504 C 0.92518 0.99259 0.9928 0.0
C505 C 0.89572 0.98663 0.96365 0.0
C506 C 0.89107 0.98381 0.87398 0.0
C507 C 0.91494 0.98739 0.81545 0.0
H508 H 0.58776 0.80435 1.01235 0.0
H509 H 0.55011 0.85425 0.22903 0.0
H510 H 0.57816 0.84553 0.92032 0.0
H511 H 0.53671 0.89506 0.13277 0.0
H512 H 0.53859 0.97579 0.95368 0.0
H513 H 0.54949 0.93574 0.05305 0.0
H514 H 0.54727 0.87106 0.83987 0.0
H515 H 0.54008 0.91137 0.74124 0.0
C516 C 0.57721 0.8242 0.04085 0.0
C517 C 0.57064 0.82596 0.12971 0.0
C518 C 0.57086 0.84795 0.98654 0.0
C519 C 0.55622 0.87423 1.01717 0.0
C520 C 0.54845 0.87568 0.10577 0.0
C521 C 0.55569 0.85195 0.16128 0.0
C522 C 0.54074 0.953 0.92793 0.0
C523 C 0.53805 0.94702 0.83859 0.0
C524 C 0.54668 0.92975 0.98558 0.0
C525 C 0.54942 0.89952 0.95624 0.0
C526 C 0.54628 0.89374 0.8667 0.0
C527 C 0.54139 0.91705 0.80913 0.0
H528 H 0.68371 0.60309 0.1297 0.0
H529 H 0.70789 0.50891 0.12596 0.0
H530 H 0.63946 0.59145 0.04356 0.0
H531 H 0.66188 0.49717 0.04301 0.0
H532 H 0.559 0.49092 0.95893 0.0
H533 H 0.60446 0.49854 0.04673 0.0
H534 H 0.62779 0.57535 0.89557 0.0
H535 H 0.58243 0.56754 0.80813 0.0
C536 C 0.6794 0.57975 0.11173 0.0
C537 C 0.69996 0.55703 0.13421 0.0
C538 C 0.65382 0.57315 0.06214 0.0
C539 C 0.647 0.54353 0.0353 0.0
C540 C 0.66635 0.52034 0.06238 0.0
C541 C 0.69263 0.52703 0.11072 0.0
C542 C 0.57412 0.50919 0.94393 0.0
C543 C 0.56752 0.52814 0.87507 0.0
C544 C 0.60023 0.5135 0.99411 0.0
C545 C 0.62003 0.5375 0.97854 0.0
C546 C 0.61312 0.55668 0.91006 0.0
C547 C 0.58726 0.55206 0.85912 0.0
H548 H 0.98048 0.73153 0.97242 0.0
H549 H 0.99338 0.68523 0.21007 0.0
H550 H 0.99228 0.68555 0.89029 0.0
H551 H 1.00524 0.63865 0.12742 0.0
H552 H 0.04876 0.56583 0.94619 0.0
H553 H 0.04019 0.6123 0.03066 0.0
H554 H 0.97004 0.6371 0.85373 0.0
H555 H 0.97857 0.59026 0.76999 0.0
C556 C 0.98626 0.71153 1.00739 0.0
C557 C 0.98598 0.71233 0.09838 0.0
C558 C 0.99272 0.68492 0.95996 0.0
C559 C 0.99934 0.6579 1.00141 0.0
C560 C 1.00042 0.65891 0.09262 0.0
C561 C 0.99379 0.68572 0.1404 0.0
C562 C 0.03166 0.58137 0.92486 0.0
C563 C 0.01512 0.57473 0.8493 0.0
C564 C 0.02656 0.60801 0.97389 0.0
C565 C 1.0046 0.629 0.94933 0.0
C566 C 0.98766 0.62204 0.87423 0.0
C567 C 0.9926 0.59517 0.8256 0.0
H568 H 0.11036 0.25837 0.38256 0.0
H569 H 0.14346 0.20814 0.15973 0.0
H570 H 0.12615 0.21902 0.47375 0.0
H571 H 0.15808 0.16723 0.25281 0.0
H572 H 0.10623 0.14978 0.61638 0.0
H573 H 0.14686 0.17548 0.5425 0.0
H574 H 0.11442 0.13912 0.29915 0.0
H575 H 0.07401 0.11448 0.37136 0.0
C576 C 0.12234 0.23963 0.35271 0.0
C577 C 0.12373 0.2357 0.26264 0.0
C578 C 0.13165 0.21667 0.40597 0.0
C579 C 0.14163 0.189 0.37005 0.0
C580 C 0.1492 0.18779 0.28208 0.0
C581 C 0.14037 0.21111 0.22861 0.0
C582 C 0.10836 0.1466 0.54726 0.0
C583 C 0.08557 0.13198 0.49916 0.0
C584 C 0.13197 0.16093 0.50508 0.0
C585 C 0.13262 0.1611 0.41452 0.0
C586 C 0.11411 0.14052 0.36887 0.0
C587 C 0.09046 0.12638 0.41074 0.0
H588 H 0.32602 0.15412 0.15167 0.0
H589 H 0.27358 0.12218 0.36564 0.0
H590 H 0.36758 0.16519 0.24986 0.0
H591 H 0.31363 0.13484 0.46202 0.0
H592 H 0.41551 0.07695 0.36361 0.0
H593 H 0.3919 0.11803 0.29224 0.0
H594 H 0.35864 0.15313 0.53621 0.0
H595 H 0.38346 0.11197 0.60923 0.0
C596 C 0.32271 0.15061 0.21976 0.0
C597 C 0.2973 0.13484 0.24924 0.0
C598 C 0.34646 0.15742 0.27623 0.0
C599 C 0.34464 0.14911 0.36283 0.0
C600 C 0.31637 0.14071 0.3952 0.0
C601 C 0.293 0.13326 0.33882 0.0
C602 C 0.40456 0.09409 0.40328 0.0
C603 C 0.39967 0.09001 0.49167 0.0
C604 C 0.39102 0.11809 0.36195 0.0
C605 C 0.3718 0.13792 0.40804 0.0
C606 C 0.37231 0.13746 0.49854 0.0
C607 C 0.38611 0.11356 0.54016 0.0
H608 H 0.37939 0.32735 0.16818 0.0
H609 H 0.43213 0.29321 0.37753 0.0
H610 H 0.37245 0.37466 0.24836 0.0
H611 H 0.42664 0.33979 0.45514 0.0
H612 H 0.46825 0.41842 0.51182 0.0
H613 H 0.42474 0.38593 0.50992 0.0
H614 H 0.40535 0.41222 0.24928 0.0
H615 H 0.44624 0.44755 0.25612 0.0
C616 C 0.38865 0.32958 0.23257 0.0
C617 C 0.40782 0.30725 0.26431 0.0
C618 C 0.38502 0.3569 0.27843 0.0
C619 C 0.40148 0.36255 0.35486 0.0
C620 C 0.41467 0.33755 0.39477 0.0
C621 C 0.41788 0.31021 0.34973 0.0
C622 C 0.45403 0.41829 0.45526 0.0
C623 C 0.46233 0.43377 0.38096 0.0
C624 C 0.42908 0.39913 0.45364 0.0
C625 C 0.41337 0.39354 0.37599 0.0
C626 C 0.41777 0.41399 0.30901 0.0
C627 C 0.44191 0.43407 0.31193 0.0
H628 H 0.25314 0.43977 0.3591 0.0
H629 H 0.22918 0.39121 0.12497 0.0
H630 H 0.20506 0.42907 0.41915 0.0
H631 H 0.18048 0.37894 0.18688 0.0
H632 H 0.1019 0.44734 0.19453 0.0
H633 H 0.14175 0.4111 0.18379 0.0
H634 H 0.15776 0.42121 0.45769 0.0
H635 H 0.12152 0.46117 0.46571 0.0
C636 C 0.23817 0.42521 0.32199 0.0
C637 C 0.24417 0.41803 0.23518 0.0
C638 C 0.21 0.41897 0.35668 0.0
C639 C 0.18738 0.40547 0.30484 0.0
C640 C 0.19638 0.39158 0.22629 0.0
C641 C 0.22452 0.39824 0.19096 0.0
C642 C 0.11427 0.44248 0.25252 0.0
C643 C 0.11036 0.45993 0.32868 0.0
C644 C 0.13689 0.42069 0.24696 0.0
C645 C 0.15527 0.41492 0.31872 0.0
C646 C 0.14597 0.42682 0.39929 0.0
C647 C 0.12449 0.4498 0.40399 0.0
H648 H 0.89028 0.82063 0.19584 0.0
H649 H 0.92286 0.77185 0.96969 0.0
H650 H 0.87563 0.8622 0.10533 0.0
H651 H 0.90671 0.81173 0.88112 0.0
H652 H 0.92553 0.88274 0.7412 0.0
H653 H 0.88572 0.85603 0.81573 0.0
H654 H 0.92016 0.88999 0.05948 0.0
H655 H 0.95981 0.9157 0.98637 0.0
C656 C 0.89327 0.81808 0.12684 0.0
C657 C 0.91013 0.79386 0.09134 0.0
C658 C 0.88438 0.84179 0.07482 0.0
C659 C 0.89178 0.84114 0.98675 0.0
C660 C 0.90148 0.81365 0.94916 0.0
C661 C 0.91098 0.79036 1.00102 0.0
C662 C 0.92399 0.8852 0.81064 0.0
C663 C 0.94709 0.89955 0.8582 0.0
C664 C 0.90086 0.87027 0.85324 0.0
C665 C 0.9009 0.86928 0.9437 0.0
C666 C 0.91986 0.88936 0.98972 0.0
C667 C 0.94303 0.90411 0.94736 0.0
H668 H 0.70436 0.88313 0.18606 0.0
H669 H 0.76029 0.91659 0.98135 0.0
H670 H 0.66402 0.87398 0.08234 0.0
H671 H 0.72139 0.906 0.87972 0.0
H672 H 0.65315 0.93188 0.7275 0.0
H673 H 0.67761 0.89007 0.79853 0.0
H674 H 0.64056 0.92131 0.04212 0.0
H675 H 0.61717 0.96291 0.97282 0.0
C676 C 0.70866 0.88744 0.11886 0.0
C677 C 0.73479 0.90299 0.09381 0.0
C678 C 0.68561 0.88175 0.05917 0.0
C679 C 0.68876 0.8911 0.97379 0.0
C680 C 0.7176 0.89936 0.94546 0.0
C681 C 0.74032 0.90561 1.00501 0.0
C682 C 0.64964 0.92932 0.79594 0.0
C683 C 0.63481 0.95186 0.84527 0.0
C684 C 0.66327 0.90506 0.83638 0.0
C685 C 0.66242 0.90323 0.92665 0.0
C686 C 0.6424 0.92222 0.9727 0.0
C687 C 0.62899 0.94653 0.93257 0.0
H688 H 0.61729 0.7505 0.02697 0.0
H689 H 0.65612 0.7153 0.25843 0.0
H690 H 0.61639 0.70134 0.96276 0.0
H691 H 0.65625 0.66501 0.19204 0.0
H692 H 0.57039 0.60514 0.17658 0.0
H693 H 0.61303 0.63787 0.19436 0.0
H694 H 0.6136 0.65311 0.92021 0.0
H695 H 0.568 0.62435 0.90483 0.0
C696 C 0.62738 0.73251 0.06289 0.0
C697 C 0.63434 0.73643 0.15075 0.0
C698 C 0.62677 0.70368 0.02552 0.0
C699 C 0.63342 0.67846 0.07544 0.0
C700 C 0.64851 0.68365 0.15426 0.0
C701 C 0.64882 0.71261 0.19213 0.0
C702 C 0.57921 0.61577 0.11996 0.0
C703 C 0.56391 0.61379 0.04072 0.0
C704 C 0.60451 0.63416 0.12974 0.0
C705 C 0.61606 0.64998 0.05938 0.0
C706 C 0.60436 0.64296 0.97706 0.0
C707 C 0.57814 0.6258 0.96804 0.0
H708 H 0.8178 0.6398 0.21161 0.0
H709 H 0.77082 0.60987 0.98139 0.0
H710 H 0.86164 0.65054 0.12681 0.0
H711 H 0.81306 0.62508 0.89514 0.0
H712 H 0.88988 0.55578 0.87476 0.0
H713 H 0.84855 0.58951 0.88322 0.0
H714 H 0.90164 0.65239 0.03764 0.0
H715 H 0.94379 0.61741 0.0296 0.0
C716 C 0.81635 0.63661 0.14235 0.0
C717 C 0.79199 0.62095 0.10459 0.0
C718 C 0.84154 0.64339 0.09277 0.0
C719 C 0.84212 0.63541 1.00436 0.0
C720 C 0.81439 0.6287 0.96425 0.0
C721 C 0.78975 0.62033 1.01415 0.0
C722 C 0.89348 0.57721 0.90788 0.0
C723 C 0.91993 0.5831 0.95478 0.0
C724 C 0.86934 0.59709 0.9127 0.0
C725 C 0.87073 0.6233 0.9658 0.0
C726 C 0.89897 0.63166 1.00024 0.0
C727 C 0.92323 0.61153 0.99581 0.0
H728 H 0.01327 0.21094 0.12747 0.0
H729 H 0.0777 0.23647 0.93592 0.0
H730 H 1.00001 0.16633 0.04043 0.0
H731 H 0.06396 0.19241 0.84645 0.0
H732 H 0.0581 0.09307 0.75044 0.0
H733 H 0.06954 0.13969 0.83256 0.0
H734 H 0.97734 0.14379 0.92085 0.0
H735 H 0.96666 0.09697 0.84222 0.0
C736 C 0.02354 0.20782 0.06457 0.0
C737 C 0.04576 0.22808 0.0376 0.0
C738 C 0.01621 0.18188 1.0145 0.0
C739 C 0.03094 0.17509 0.93549 0.0
C740 C 0.05232 0.19616 0.90704 0.0
C741 C 0.05972 0.22201 0.95745 0.0
C742 C 0.04053 0.10368 0.78888 0.0
C743 C 1.01165 0.09068 0.79145 0.0
C744 C 0.04688 0.13083 0.83515 0.0
C745 C 0.02446 0.14603 0.88469 0.0
C746 C 0.99557 0.13292 0.88578 0.0
C747 C 0.98932 0.10592 0.84001 0.0
H748 H 0.3234 0.02291 0.1157 0.0
H749 H 0.29951 0.08638 0.92246 0.0
H750 H 0.36761 1.00771 0.0316 0.0
H751 H 0.34298 0.07057 0.83573 0.0
H752 H 0.44123 0.06133 0.74541 0.0
H753 H 0.39552 0.0748 0.82627 0.0
H754 H 0.38895 0.98328 0.91269 0.0
H755 H 0.43512 0.97063 0.83559 0.0
C756 C 0.32686 0.03262 0.05317 0.0
C757 C 0.30733 0.05519 0.02472 0.0
C758 C 0.35249 0.02413 1.00481 0.0
C759 C 0.35947 0.03795 0.92619 0.0
C760 C 0.33905 0.05967 0.89627 0.0
C761 C 0.3136 0.0683 0.94507 0.0
C762 C 0.43032 0.04437 0.78337 0.0
C763 C 0.44239 0.01513 0.78605 0.0
C764 C 0.40369 0.05187 0.82875 0.0
C765 C 0.38808 0.03022 0.8771 0.0
C766 C 0.40025 1.00092 0.87839 0.0
C767 C 0.42682 0.99355 0.8336 0.0
H768 H 0.44448 0.29376 0.92207 0.0
H769 H 0.51226 0.31783 0.10954 0.0
H770 H 0.46036 0.33567 0.83272 0.0
H771 H 0.528 0.35998 0.02123 0.0
H772 H 0.5069 0.45599 0.91942 0.0
H773 H 0.50086 0.40814 0.99157 0.0
H774 H 0.50189 0.36098 0.74502 0.0
H775 H 0.50825 0.40941 0.6727 0.0
C776 C 0.4637 0.30718 0.94221 0.0
C777 C 0.47763 0.30193 0.02184 0.0
C778 C 0.47266 0.33142 0.89138 0.0
C779 C 0.49531 0.35152 0.91993 0.0
C780 C 0.51034 0.34518 0.99735 0.0
C781 C 0.50169 0.32069 0.04741 0.0
C782 C 0.50599 0.4354 0.88063 0.0
C783 C 0.5079 0.43647 0.79046 0.0
C784 C 0.5028 0.40787 0.92203 0.0
C785 C 0.50099 0.3805 0.87442 0.0
C786 C 0.50316 0.38156 0.78382 0.0
C787 C 0.50694 0.40923 0.74235 0.0
H788 H 0.22381 0.52525 0.11923 0.0
H789 H 0.25842 0.46847 0.91336 0.0
H790 H 0.18025 0.53784 0.03048 0.0
H791 H 0.215 0.48109 0.8238 0.0
H792 H 0.13536 0.52125 0.66872 0.0
H793 H 0.18386 0.51905 0.74548 0.0
H794 H 0.13631 0.50782 0.985 0.0
H795 H 0.08847 0.51027 0.90858 0.0
C796 C 0.2229 0.51665 0.05335 0.0
C797 C 0.24517 0.49654 0.02273 0.0
C798 C 0.19755 0.52336 1.00285 0.0
C799 C 0.19368 0.51023 0.91985 0.0
C800 C 0.21712 0.49187 0.88685 0.0
C801 C 0.24229 0.48487 0.93789 0.0
C802 C 0.1354 0.51847 0.73782 0.0
C803 C 0.10801 0.51533 0.78225 0.0
C804 C 0.16319 0.51708 0.7819 0.0
C805 C 0.16427 0.51327 0.87191 0.0
C806 C 0.13666 0.51104 0.9161 0.0
C807 C 0.10909 0.51195 0.87198 0.0
H808 H 0.9577 0.7962 0.41168 0.0
H809 H 0.0223 0.82244 0.22136 0.0
H810 H 0.97061 0.84046 0.50116 0.0
H811 H 0.03471 0.86732 0.3085 0.0
H812 H 0.06671 0.93701 0.5083 0.0
H813 H 0.05672 0.89034 0.42822 0.0
H814 H 0.96439 0.89292 0.51583 0.0
H815 H 0.97516 0.93939 0.59946 0.0
C816 C 0.9755 0.81093 0.39032 0.0
C817 C 0.98973 0.80499 0.31048 0.0
C818 C 0.98243 0.83688 0.44079 0.0
C819 C 1.0036 0.85822 0.41276 0.0
C820 C 0.01863 0.85158 0.33407 0.0
C821 C 1.01179 0.82549 0.28393 0.0
C822 C 0.04416 0.92776 0.51002 0.0
C823 C 0.02161 0.94252 0.55893 0.0
C824 C 0.03831 0.90084 0.46339 0.0
C825 C 1.0096 0.88732 0.46394 0.0
C826 C 0.98693 0.90209 0.51365 0.0
C827 C 0.99289 0.92915 0.5608 0.0
H828 H 0.70956 0.01354 0.23841 0.0
H829 H 0.73088 0.9472 0.42604 0.0
H830 H 0.66533 0.02884 0.32212 0.0
H831 H 0.68743 0.96313 0.51271 0.0
H832 H 0.58892 0.97427 0.60111 0.0
H833 H 0.63495 0.96048 0.52213 0.0
H834 H 0.64378 0.05245 0.44097 0.0
H835 H 0.59731 0.06541 0.51574 0.0
C836 C 0.70553 1.00317 0.29974 0.0
C837 C 0.72436 0.97978 0.32667 0.0
C838 C 0.67989 1.01174 0.34794 0.0
C839 C 0.67219 0.99723 0.42499 0.0
C840 C 0.6919 0.97462 0.45341 0.0
C841 C 0.71735 0.96588 0.40467 0.0
C842 C 0.60046 0.9913 0.56486 0.0
C843 C 0.58887 0.02076 0.56279 0.0
C844 C 0.62726 0.98358 0.52048 0.0
C845 C 0.64355 1.00522 0.47383 0.0
C846 C 0.63195 0.03477 0.47369 0.0
C847 C 0.6052 0.04234 0.51729 0.0
H848 H 0.5841 0.75905 0.4697 0.0
H849 H 0.52437 0.72685 0.2696 0.0
H850 H 0.56857 0.71778 0.56086 0.0
H851 H 0.50906 0.68508 0.35959 0.0
H852 H 0.4789 0.61636 0.55612 0.0
H853 H 0.48552 0.66447 0.48581 0.0
H854 H 0.5793 0.66487 0.55888 0.0
H855 H 0.57233 0.61731 0.63126 0.0
C856 C 0.56655 0.74392 0.44679 0.0
C857 C 0.55491 0.74678 0.36315 0.0
C858 C 0.55812 0.71975 0.49828 0.0
C859 C 0.53792 0.69749 0.46748 0.0
C860 C 0.52449 0.70171 0.38628 0.0
C861 C 0.53296 0.72596 0.33477 0.0
C862 C 0.50079 0.62691 0.55866 0.0
C863 C 0.52505 0.61269 0.59961 0.0
C864 C 0.5047 0.6545 0.51731 0.0
C865 C 0.53296 0.66892 0.51621 0.0
C866 C 0.55704 0.65495 0.55903 0.0
C867 C 0.55314 0.62736 0.59996 0.0
H868 H 0.78365 0.57996 0.4281 0.0
H869 H 0.81131 0.5101 0.24791 0.0
H870 H 0.82668 0.56885 0.5201 0.0
H871 H 0.85471 0.49894 0.33914 0.0
H872 H 0.92536 0.47677 0.54441 0.0
H873 H 0.87678 0.48132 0.47231 0.0
H874 H 0.88004 0.5778 0.51248 0.0
H875 H 0.9282 0.57307 0.58626 0.0
C876 C 0.79821 0.56126 0.41007 0.0
C877 C 0.79336 0.54532 0.33174 0.0
C878 C 0.82339 0.55529 0.46193 0.0
C879 C 0.84479 0.53324 0.43706 0.0
C880 C 0.83883 0.51592 0.36139 0.0
C881 C 0.81362 0.52203 0.30928 0.0
C882 C 0.91556 0.49891 0.53945 0.0
C883 C 0.93099 0.52449 0.572 0.0
C884 C 0.88766 0.50158 0.49691 0.0
C885 C 0.87403 0.52994 0.48614 0.0
C886 C 0.88928 0.55546 0.52019 0.0
C887 C 0.91723 0.55278 0.56208 0.0
loop_
_geom_bond_atom_site_label_1
_geom_bond_atom_site_label_2
_geom_bond_distance
_geom_bond_site_symmetry_2
_ccdc_geom_bond_type
H0 C3 0.931 . S
H1 C6 0.928 . S
H2 C8 0.930 . S
C3 H0 0.931 . S
C3 C4 1.413 . S
C3 C5 1.360 . S
C4 C3 1.413 . S
C4 C8 1.429 . S
C5 C3 1.360 . S
C5 C6 1.372 . S
C6 H1 0.928 . S
C6 C5 1.372 . S
C6 C7 1.404 . S
C7 C6 1.404 . S
C7 C8 1.391 . S
C8 H2 0.930 . S
C8 C4 1.429 . S
C8 C7 1.391 . S
H9 C12 0.931 . S
H10 C15 0.928 . S
H11 C17 0.930 . S
C12 H9 0.931 . S
C12 C13 1.413 . S
C12 C14 1.360 . S
C13 C12 1.413 . S
C13 C17 1.429 . S
C14 C12 1.360 . S
C14 C15 1.372 . S
C15 H10 0.928 . S
C15 C14 1.372 . S
C15 C16 1.404 . S
C16 C15 1.404 . S
C16 C17 1.391 . S
C17 H11 0.930 . S
C17 C13 1.429 . S
C17 C16 1.391 . S
H18 C21 0.931 . S
H19 C24 0.928 . S
H20 C26 0.930 . S
C21 H18 0.931 . S
C21 C22 1.413 . S
C21 C23 1.360 . S
C22 C21 1.413 . S
C22 C26 1.429 . S
C23 C21 1.360 . S
C23 C24 1.372 . S
C24 H19 0.928 . S
C24 C23 1.372 . S
C24 C25 1.404 . S
C25 C24 1.404 . S
C25 C26 1.391 . S
C26 H20 0.930 . S
C26 C22 1.429 . S
C26 C25 1.391 . S
H27 C30 0.931 . S
H28 C33 0.928 . S
H29 C35 0.930 . S
C30 H27 0.931 . S
C30 C31 1.413 . S
C30 C32 1.360 . S
C31 C30 1.413 . S
C31 C35 1.429 . S
C32 C30 1.360 . S
C32 C33 1.372 . S
C33 H28 0.928 . S
C33 C32 1.372 . S
C33 C34 1.404 . S
C34 C33 1.404 . S
C34 C35 1.391 . S
C35 H29 0.930 . S
C35 C31 1.429 . S
C35 C34 1.391 . S
H36 C39 0.931 1_556 S
H37 C42 0.928 . S
H38 C44 0.930 . S
C39 H36 0.931 1_554 S
C39 C40 1.413 1_554 S
C39 C41 1.360 . S
C40 C39 1.413 1_556 S
C40 C44 1.429 . S
C41 C39 1.360 . S
C41 C42 1.372 . S
C42 H37 0.928 . S
C42 C41 1.372 . S
C42 C43 1.404 . S
C43 C42 1.404 . S
C43 C44 1.391 1_554 S
C44 H38 0.930 . S
C44 C40 1.429 . S
C44 C43 1.391 1_556 S
H45 C48 0.931 1_556 S
H46 C51 0.928 . S
H47 C53 0.930 . S
C48 H45 0.931 1_554 S
C48 C49 1.413 1_554 S
C48 C50 1.360 . S
C49 C48 1.413 1_556 S
C49 C53 1.429 . S
C50 C48 1.360 . S
C50 C51 1.372 . S
C51 H46 0.928 . S
C51 C50 1.372 . S
C51 C52 1.404 . S
C52 C51 1.404 . S
C52 C53 1.391 1_554 S
C53 H47 0.930 . S
C53 C49 1.429 . S
C53 C52 1.391 1_556 S
H54 C57 0.931 1_556 S
H55 C60 0.928 . S
H56 C62 0.930 . S
C57 H54 0.931 1_554 S
C57 C58 1.413 1_554 S
C57 C59 1.360 . S
C58 C57 1.413 1_556 S
C58 C62 1.429 . S
C59 C57 1.360 . S
C59 C60 1.372 . S
C60 H55 0.928 . S
C60 C59 1.372 . S
C60 C61 1.404 . S
C61 C60 1.404 . S
C61 C62 1.391 1_554 S
C62 H56 0.930 . S
C62 C58 1.429 . S
C62 C61 1.391 1_556 S
H63 C66 0.931 1_556 S
H64 C69 0.928 . S
H65 C71 0.930 . S
C66 H63 0.931 1_554 S
C66 C67 1.413 . S
C66 C68 1.360 1_554 S
C67 C66 1.413 . S
C67 C71 1.429 . S
C68 C66 1.360 1_556 S
C68 C69 1.372 . S
C69 H64 0.928 . S
C69 C68 1.372 . S
C69 C70 1.404 1_556 S
C70 C69 1.404 1_554 S
C70 C71 1.391 . S
C71 H65 0.930 . S
C71 C67 1.429 . S
C71 C70 1.391 . S
Gd72 N103 2.661 1_545 S
Gd72 N109 2.601 . S
Gd72 O116 2.545 . S
Gd72 O117 2.606 1_655 S
Gd72 O119 2.429 . S
Gd72 O120 2.538 1_655 S
Gd72 O121 2.412 . S
Gd72 O123 2.362 1_545 S
Gd72 O124 2.324 1_655 S
Gd72 C131 2.828 . S
Gd73 N82 2.661 1_565 S
Gd73 N86 2.601 . S
Gd73 O117 2.362 1_565 S
Gd73 O118 2.324 1_455 S
Gd73 O122 2.545 . S
Gd73 O123 2.606 1_455 S
Gd73 O125 2.429 . S
Gd73 O126 2.545 . S
Gd73 O127 2.412 . S
Gd73 C140 2.828 . S
C74 C77 1.417 . S
C74 C79 1.431 1_556 S
C74 C80 1.412 1_556 S
C75 C78 1.437 . S
C75 C79 1.317 1_556 S
C75 H94 0.929 . S
C76 C77 1.426 . S
C76 C78 1.413 . S
C76 N86 1.359 1_545 S
C77 C74 1.417 . S
C77 C76 1.426 . S
C77 N82 1.350 . S
C78 C75 1.437 . S
C78 C76 1.413 . S
C78 C88 1.391 . S
C79 C74 1.431 1_554 S
C79 C75 1.317 1_554 S
C79 H90 0.930 . S
C80 C74 1.412 1_554 S
C80 C81 1.355 1_554 S
C80 H92 0.930 . S
C81 C80 1.355 1_556 S
C81 C83 1.402 . S
C81 H93 0.930 1_456 S
N82 Gd73 2.661 1_545 S
N82 C77 1.350 . S
N82 C83 1.307 . S
C83 C81 1.402 . S
C83 N82 1.307 . S
C83 H84 0.930 1_455 S
H84 C83 0.930 1_655 S
C85 N86 1.334 . S
C85 C87 1.394 . S
C85 H89 0.930 . S
N86 Gd73 2.601 . S
N86 C76 1.359 1_565 S
N86 C85 1.334 . S
C87 C85 1.394 . S
C87 C88 1.359 1_565 S
C87 H99 0.930 . S
C88 C78 1.391 . S
C88 C87 1.359 1_545 S
C88 H100 0.929 . S
H89 C85 0.930 . S
H90 C79 0.930 . S
H91 C108 0.930 1_455 S
H92 C80 0.930 . S
H93 C81 0.930 1_654 S
H94 C75 0.929 . S
H95 C113 0.930 . S
H96 C104 0.930 . S
H97 C105 0.930 1_455 S
H98 C129 0.929 . S
H99 C87 0.930 . S
H100 C88 0.929 . S
H101 C130 0.930 . S
H102 C111 0.930 . S
N103 Gd72 2.661 1_565 S
N103 C107 1.350 . S
N103 C108 1.307 . S
C104 H96 0.930 . S
C104 C105 1.355 . S
C104 C106 1.412 . S
C105 H97 0.930 1_655 S
C105 C104 1.355 . S
C105 C108 1.402 . S
C106 C104 1.412 . S
C106 C107 1.417 . S
C106 C130 1.431 . S
C107 N103 1.350 . S
C107 C106 1.417 . S
C107 C110 1.426 1_565 S
C108 H91 0.930 1_655 S
C108 N103 1.307 . S
C108 C105 1.402 . S
N109 Gd72 2.601 . S
N109 C110 1.359 . S
N109 C113 1.334 . S
C110 C107 1.426 1_545 S
C110 N109 1.359 . S
C110 C114 1.413 1_545 S
C111 H102 0.930 . S
C111 C112 1.359 . S
C111 C113 1.394 . S
C112 C111 1.359 . S
C112 C114 1.391 1_545 S
C112 H115 0.929 . S
C113 H95 0.930 . S
C113 N109 1.334 . S
C113 C111 1.394 . S
C114 C110 1.413 1_565 S
C114 C112 1.391 1_565 S
C114 C129 1.437 . S
H115 C112 0.929 . S
O116 Gd72 2.545 . S
O116 C131 1.258 . S
O117 Gd72 2.606 1_455 S
O117 Gd73 2.362 1_545 S
O117 C128 1.284 . S
O118 Gd73 2.324 1_655 S
O118 C138 1.243 1_565 S
O119 Gd72 2.429 . S
O119 C138 1.297 . S
O120 Gd72 2.538 1_455 S
O120 C128 1.263 . S
O121 Gd72 2.412 . S
O121 C131 1.252 . S
O122 Gd73 2.545 . S
O122 C140 1.258 . S
O123 Gd72 2.362 1_565 S
O123 Gd73 2.606 1_655 S
O123 C139 1.284 . S
O124 Gd72 2.324 1_455 S
O124 C147 1.254 . S
O125 Gd73 2.429 . S
O125 C147 1.268 1_565 S
O126 Gd73 2.545 . S
O126 C139 1.250 1_455 S
O127 Gd73 2.412 . S
O127 C140 1.252 . S
C128 O117 1.284 . S
C128 O120 1.263 . S
C129 H98 0.929 . S
C129 C114 1.437 . S
C129 C130 1.317 . S
C130 H101 0.930 . S
C130 C106 1.431 . S
C130 C129 1.317 . S
C131 Gd72 2.828 . S
C131 O116 1.258 . S
C131 O121 1.252 . S
C131 C132 1.497 . S
C132 C131 1.497 . S
C132 C133 1.395 . S
C132 C134 1.380 . S
C133 C132 1.395 . S
C133 C136 1.398 . S
C133 H148 0.930 . S
C134 C132 1.380 . S
C134 C135 1.391 . S
C134 H149 0.930 1_655 S
C135 C134 1.391 . S
C135 C137 1.387 . S
C136 C133 1.398 . S
C136 C137 1.380 . S
C136 H150 0.930 . S
C137 C135 1.387 . S
C137 C136 1.380 . S
C137 H151 0.930 . S
C138 O118 1.243 1_545 S
C138 O119 1.297 . S
C139 O123 1.284 . S
C139 O126 1.250 1_655 S
C140 Gd73 2.828 . S
C140 O122 1.258 . S
C140 O127 1.252 . S
C140 C141 1.497 . S
C141 C140 1.497 . S
C141 C142 1.395 . S
C141 C143 1.380 . S
C142 C141 1.395 . S
C142 C145 1.398 . S
C142 H152 0.930 . S
C143 C141 1.380 . S
C143 C144 1.391 . S
C143 H153 0.930 . S
C144 C143 1.391 . S
C144 C146 1.387 . S
C145 C142 1.398 . S
C145 C146 1.380 . S
C145 H154 0.930 . S
C146 C144 1.387 . S
C146 C145 1.380 . S
C146 H155 0.930 . S
C147 O124 1.254 . S
C147 O125 1.268 1_545 S
H148 C133 0.930 . S
H149 C134 0.930 1_455 S
H150 C136 0.930 . S
H151 C137 0.930 . S
H152 C142 0.930 . S
H153 C143 0.930 . S
H154 C145 0.930 . S
H155 C146 0.930 . S
Gd156 N187 2.661 . S
Gd156 N193 2.601 . S
Gd156 O200 2.545 . S
Gd156 O201 2.606 1_565 S
Gd156 O203 2.429 . S
Gd156 O204 2.545 1_565 S
Gd156 O205 2.412 . S
Gd156 O207 2.362 . S
Gd156 O208 2.324 1_565 S
Gd156 C215 2.828 . S
Gd157 N166 2.661 . S
Gd157 N170 2.601 . S
Gd157 O201 2.362 . S
Gd157 O202 2.324 1_545 S
Gd157 O206 2.545 . S
Gd157 O207 2.606 1_545 S
Gd157 O209 2.429 . S
Gd157 O210 2.545 . S
Gd157 O211 2.412 . S
Gd157 C224 2.828 . S
C158 C161 1.417 . S
C158 C163 1.431 1_556 S
C158 C164 1.412 1_556 S
C159 C162 1.437 . S
C159 C163 1.317 1_556 S
C159 H178 0.929 . S
C160 C161 1.426 . S
C160 C162 1.413 . S
C160 N170 1.359 . S
C161 C158 1.417 . S
C161 C160 1.426 . S
C161 N166 1.350 . S
C162 C159 1.437 . S
C162 C160 1.413 . S
C162 C172 1.391 . S
C163 C158 1.431 1_554 S
C163 C159 1.317 1_554 S
C163 H174 0.930 . S
C164 C158 1.412 1_554 S
C164 C165 1.355 1_554 S
C164 H176 0.930 . S
C165 C164 1.355 1_556 S
C165 C167 1.402 . S
C165 H177 0.930 1_546 S
N166 Gd157 2.661 . S
N166 C161 1.350 . S
N166 C167 1.307 . S
C167 C165 1.402 . S
C167 N166 1.307 . S
C167 H168 0.930 1_545 S
H168 C167 0.930 1_565 S
C169 N170 1.334 . S
C169 C171 1.394 . S
C169 H173 0.930 . S
N170 Gd157 2.601 . S
N170 C160 1.359 . S
N170 C169 1.334 . S
C171 C169 1.394 . S
C171 C172 1.359 . S
C171 H183 0.930 . S
C172 C162 1.391 . S
C172 C171 1.359 . S
C172 H184 0.929 . S
H173 C169 0.930 . S
H174 C163 0.930 . S
H175 C192 0.930 . S
H176 C164 0.930 . S
H177 C165 0.930 1_564 S
H178 C159 0.929 . S
H179 C197 0.930 . S
H180 C188 0.930 . S
H181 C189 0.931 1_545 S
H182 C213 0.929 . S
H183 C171 0.930 . S
H184 C172 0.929 . S
H185 C214 0.930 . S
H186 C195 0.930 . S
N187 Gd156 2.661 . S
N187 C191 1.350 . S
N187 C192 1.307 1_565 S
C188 H180 0.930 . S
C188 C189 1.353 . S
C188 C190 1.412 . S
C189 H181 0.931 1_565 S
C189 C188 1.353 . S
C189 C192 1.402 1_565 S
C190 C188 1.412 . S
C190 C191 1.417 . S
C190 C214 1.431 . S
C191 N187 1.350 . S
C191 C190 1.417 . S
C191 C194 1.426 . S
C192 H175 0.930 . S
C192 N187 1.307 1_545 S
C192 C189 1.402 1_545 S
N193 Gd156 2.601 . S
N193 C194 1.359 . S
N193 C197 1.334 . S
C194 C191 1.426 . S
C194 N193 1.359 . S
C194 C198 1.413 . S
C195 H186 0.930 . S
C195 C196 1.359 . S
C195 C197 1.394 . S
C196 C195 1.359 . S
C196 C198 1.391 . S
C196 H199 0.929 . S
C197 H179 0.930 . S
C197 N193 1.334 . S
C197 C195 1.394 . S
C198 C194 1.413 . S
C198 C196 1.391 . S
C198 C213 1.437 . S
H199 C196 0.929 . S
O200 Gd156 2.545 . S
O200 C215 1.258 . S
O201 Gd156 2.606 1_545 S
O201 Gd157 2.362 . S
O201 C212 1.284 . S
O202 Gd157 2.324 1_565 S
O202 C222 1.254 . S
O203 Gd156 2.429 . S
O203 C222 1.268 . S
O204 Gd156 2.545 1_545 S
O204 C212 1.250 . S
O205 Gd156 2.412 . S
O205 C215 1.252 . S
O206 Gd157 2.545 . S
O206 C224 1.258 . S
O207 Gd156 2.362 . S
O207 Gd157 2.606 1_565 S
O207 C223 1.284 . S
O208 Gd156 2.324 1_545 S
O208 C231 1.254 . S
O209 Gd157 2.429 . S
O209 C231 1.268 . S
O210 Gd157 2.545 . S
O210 C223 1.250 1_545 S
O211 Gd157 2.412 . S
O211 C224 1.252 . S
C212 O201 1.284 . S
C212 O204 1.250 . S
C213 H182 0.929 . S
C213 C198 1.437 . S
C213 C214 1.317 . S
C214 H185 0.930 . S
C214 C190 1.431 . S
C214 C213 1.317 . S
C215 Gd156 2.828 . S
C215 O200 1.258 . S
C215 O205 1.252 . S
C215 C216 1.497 . S
C216 C215 1.497 . S
C216 C217 1.395 . S
C216 C218 1.380 . S
C217 C216 1.395 . S
C217 C220 1.398 . S
C217 H232 0.930 . S
C218 C216 1.380 . S
C218 C219 1.391 . S
C218 H233 0.930 1_565 S
C219 C218 1.391 . S
C219 C221 1.387 . S
C220 C217 1.398 . S
C220 C221 1.380 . S
C220 H234 0.930 . S
C221 C219 1.387 . S
C221 C220 1.380 . S
C221 H235 0.930 . S
C222 O202 1.254 . S
C222 O203 1.268 . S
C223 O207 1.284 . S
C223 O210 1.250 1_565 S
C224 Gd157 2.828 . S
C224 O206 1.258 . S
C224 O211 1.252 . S
C224 C225 1.497 . S
C225 C224 1.497 . S
C225 C226 1.395 . S
C225 C227 1.380 . S
C226 C225 1.395 . S
C226 C229 1.398 . S
C226 H236 0.930 . S
C227 C225 1.380 . S
C227 C228 1.391 . S
C227 H237 0.930 . S
C228 C227 1.391 . S
C228 C230 1.387 . S
C229 C226 1.398 . S
C229 C230 1.380 . S
C229 H238 0.930 . S
C230 C228 1.387 . S
C230 C229 1.380 . S
C230 H239 0.930 1_556 S
C231 O208 1.254 . S
C231 O209 1.268 . S
H232 C217 0.930 . S
H233 C218 0.930 1_545 S
H234 C220 0.930 . S
H235 C221 0.930 . S
H236 C226 0.930 . S
H237 C227 0.930 . S
H238 C229 0.930 . S
H239 C230 0.930 1_554 S
Gd240 N271 2.661 . S
Gd240 N277 2.601 . S
Gd240 O284 2.545 . S
Gd240 O285 2.606 . S
Gd240 O287 2.429 . S
Gd240 O288 2.545 . S
Gd240 O289 2.412 . S
Gd240 O291 2.362 . S
Gd240 O292 2.324 . S
Gd240 C299 2.828 . S
Gd241 N250 2.661 . S
Gd241 N254 2.601 . S
Gd241 O285 2.362 . S
Gd241 O286 2.324 . S
Gd241 O290 2.545 . S
Gd241 O291 2.606 . S
Gd241 O293 2.429 . S
Gd241 O294 2.545 . S
Gd241 O295 2.412 . S
Gd241 C308 2.828 . S
C242 C245 1.417 . S
C242 C247 1.431 . S
C242 C248 1.412 . S
C243 C246 1.437 . S
C243 C247 1.317 . S
C243 H262 0.929 . S
C244 C245 1.426 . S
C244 C246 1.413 . S
C244 N254 1.359 . S
C245 C242 1.417 . S
C245 C244 1.426 . S
C245 N250 1.350 . S
C246 C243 1.437 . S
C246 C244 1.413 . S
C246 C256 1.391 . S
C247 C242 1.431 . S
C247 C243 1.317 . S
C247 H258 0.930 . S
C248 C242 1.412 . S
C248 C249 1.355 . S
C248 H260 0.930 . S
C249 C248 1.355 . S
C249 C251 1.402 . S
C249 H261 0.930 . S
N250 Gd241 2.661 . S
N250 C245 1.350 . S
N250 C251 1.307 . S
C251 C249 1.402 . S
C251 N250 1.307 . S
C251 H252 0.930 . S
H252 C251 0.930 . S
C253 N254 1.334 . S
C253 C255 1.394 . S
C253 H257 0.930 . S
N254 Gd241 2.601 . S
N254 C244 1.359 . S
N254 C253 1.334 . S
C255 C253 1.394 . S
C255 C256 1.359 . S
C255 H267 0.930 . S
C256 C246 1.391 . S
C256 C255 1.359 . S
C256 H268 0.929 . S
H257 C253 0.930 . S
H258 C247 0.930 . S
H259 C276 0.930 . S
H260 C248 0.930 . S
H261 C249 0.930 . S
H262 C243 0.929 . S
H263 C281 0.930 . S
H264 C272 0.930 . S
H265 C273 0.930 . S
H266 C297 0.929 . S
H267 C255 0.930 . S
H268 C256 0.929 . S
H269 C298 0.930 . S
H270 C279 0.930 . S
N271 Gd240 2.661 . S
N271 C275 1.350 . S
N271 C276 1.307 . S
C272 H264 0.930 . S
C272 C273 1.355 . S
C272 C274 1.412 . S
C273 H265 0.930 . S
C273 C272 1.355 . S
C273 C276 1.402 . S
C274 C272 1.412 . S
C274 C275 1.417 . S
C274 C298 1.431 . S
C275 N271 1.350 . S
C275 C274 1.417 . S
C275 C278 1.426 . S
C276 H259 0.930 . S
C276 N271 1.307 . S
C276 C273 1.402 . S
N277 Gd240 2.601 . S
N277 C278 1.359 . S
N277 C281 1.334 . S
C278 C275 1.426 . S
C278 N277 1.359 . S
C278 C282 1.413 . S
C279 H270 0.930 . S
C279 C280 1.359 . S
C279 C281 1.394 . S
C280 C279 1.359 . S
C280 C282 1.391 . S
C280 H283 0.929 . S
C281 H263 0.930 . S
C281 N277 1.334 . S
C281 C279 1.394 . S
C282 C278 1.413 . S
C282 C280 1.391 . S
C282 C297 1.437 . S
H283 C280 0.929 . S
O284 Gd240 2.545 . S
O284 C299 1.258 . S
O285 Gd240 2.606 . S
O285 Gd241 2.362 . S
O285 C296 1.284 . S
O286 Gd241 2.324 . S
O286 C306 1.254 . S
O287 Gd240 2.429 . S
O287 C306 1.268 . S
O288 Gd240 2.545 . S
O288 C296 1.250 . S
O289 Gd240 2.412 . S
O289 C299 1.252 . S
O290 Gd241 2.545 . S
O290 C308 1.258 . S
O291 Gd240 2.362 . S
O291 Gd241 2.606 . S
O291 C307 1.284 . S
O292 Gd240 2.324 . S
O292 C315 1.254 . S
O293 Gd241 2.429 . S
O293 C315 1.268 . S
O294 Gd241 2.545 . S
O294 C307 1.250 . S
O295 Gd241 2.412 . S
O295 C308 1.252 . S
C296 O285 1.284 . S
C296 O288 1.250 . S
C297 H266 0.929 . S
C297 C282 1.437 . S
C297 C298 1.317 . S
C298 H269 0.930 . S
C298 C274 1.431 . S
C298 C297 1.317 . S
C299 Gd240 2.828 . S
C299 O284 1.258 . S
C299 O289 1.252 . S
C299 C300 1.497 . S
C300 C299 1.497 . S
C300 C301 1.395 1_556 S
C300 C302 1.380 . S
C301 C300 1.395 1_554 S
C301 C304 1.398 . S
C301 H316 0.930 . S
C302 C300 1.380 . S
C302 C303 1.391 . S
C302 H317 0.930 . S
C303 C302 1.391 . S
C303 C305 1.387 1_556 S
C304 C301 1.398 . S
C304 C305 1.380 . S
C304 H318 0.930 . S
C305 C303 1.387 1_554 S
C305 C304 1.380 . S
C305 H319 0.930 . S
C306 O286 1.254 . S
C306 O287 1.268 . S
C307 O291 1.284 . S
C307 O294 1.250 . S
C308 Gd241 2.828 . S
C308 O290 1.258 . S
C308 O295 1.252 . S
C308 C309 1.497 . S
C309 C308 1.497 . S
C309 C310 1.395 . S
C309 C311 1.380 . S
C310 C309 1.395 . S
C310 C313 1.398 . S
C310 H320 0.930 . S
C311 C309 1.380 . S
C311 C312 1.391 . S
C311 H321 0.930 . S
C312 C311 1.391 . S
C312 C314 1.387 . S
C313 C310 1.398 . S
C313 C314 1.380 . S
C313 H322 0.930 . S
C314 C312 1.387 . S
C314 C313 1.380 . S
C314 H323 0.930 . S
C315 O292 1.254 . S
C315 O293 1.268 . S
H316 C301 0.930 . S
H317 C302 0.930 . S
H318 C304 0.930 . S
H319 C305 0.930 . S
H320 C310 0.930 . S
H321 C311 0.930 . S
H322 C313 0.930 . S
H323 C314 0.930 . S
Gd324 N355 2.661 . S
Gd324 N361 2.601 . S
Gd324 O368 2.545 . S
Gd324 O369 2.615 . S
Gd324 O371 2.429 1_655 S
Gd324 O372 2.545 . S
Gd324 O373 2.412 . S
Gd324 O375 2.362 1_655 S
Gd324 O376 2.324 . S
Gd324 C383 2.828 . S
Gd325 N334 2.661 . S
Gd325 N338 2.601 . S
Gd325 O369 2.347 1_455 S
Gd325 O370 2.324 . S
Gd325 O374 2.545 . S
Gd325 O375 2.606 . S
Gd325 O377 2.429 1_455 S
Gd325 O378 2.545 . S
Gd325 O379 2.412 . S
Gd325 C392 2.828 . S
C326 C329 1.417 . S
C326 C331 1.431 . S
C326 C332 1.412 . S
C327 C330 1.437 . S
C327 C331 1.317 . S
C327 H346 0.929 . S
C328 C329 1.426 . S
C328 C330 1.413 . S
C328 N338 1.359 . S
C329 C326 1.417 . S
C329 C328 1.426 . S
C329 N334 1.350 . S
C330 C327 1.437 . S
C330 C328 1.413 . S
C330 C340 1.391 . S
C331 C326 1.431 . S
C331 C327 1.317 . S
C331 H342 0.930 . S
C332 C326 1.412 . S
C332 C333 1.355 . S
C332 H344 0.930 . S
C333 C332 1.355 . S
C333 C335 1.402 . S
C333 H345 0.930 . S
N334 Gd325 2.661 . S
N334 C329 1.350 . S
N334 C335 1.307 . S
C335 C333 1.402 . S
C335 N334 1.307 . S
C335 H336 0.930 . S
H336 C335 0.930 . S
C337 N338 1.334 1_655 S
C337 C339 1.394 . S
C337 H341 0.930 . S
N338 Gd325 2.601 . S
N338 C328 1.359 . S
N338 C337 1.334 1_455 S
C339 C337 1.394 . S
C339 C340 1.359 1_655 S
C339 H351 0.930 . S
C340 C330 1.391 . S
C340 C339 1.359 1_455 S
C340 H352 0.929 . S
H341 C337 0.930 . S
H342 C331 0.930 . S
H343 C360 0.930 . S
H344 C332 0.930 . S
H345 C333 0.930 . S
H346 C327 0.929 . S
H347 C365 0.930 . S
H348 C356 0.930 . S
H349 C357 0.930 . S
H350 C381 0.929 . S
H351 C339 0.930 . S
H352 C340 0.929 . S
H353 C382 0.930 . S
H354 C363 0.930 . S
N355 Gd324 2.661 . S
N355 C359 1.350 . S
N355 C360 1.307 . S
C356 H348 0.930 . S
C356 C357 1.355 . S
C356 C358 1.412 . S
C357 H349 0.930 . S
C357 C356 1.355 . S
C357 C360 1.402 . S
C358 C356 1.412 . S
C358 C359 1.417 . S
C358 C382 1.431 . S
C359 N355 1.350 . S
C359 C358 1.417 . S
C359 C362 1.426 . S
C360 H343 0.930 . S
C360 N355 1.307 . S
C360 C357 1.402 . S
N361 Gd324 2.601 . S
N361 C362 1.359 . S
N361 C365 1.334 1_655 S
C362 C359 1.426 . S
C362 N361 1.359 . S
C362 C366 1.413 . S
C363 H354 0.930 . S
C363 C364 1.369 . S
C363 C365 1.394 . S
C364 C363 1.369 . S
C364 C366 1.378 1_455 S
C364 H367 0.933 . S
C365 H347 0.930 . S
C365 N361 1.334 1_455 S
C365 C363 1.394 . S
C366 C362 1.413 . S
C366 C364 1.378 1_655 S
C366 C381 1.437 . S
H367 C364 0.933 . S
O368 Gd324 2.545 . S
O368 C383 1.258 . S
O369 Gd324 2.615 . S
O369 Gd325 2.347 1_655 S
O369 C380 1.296 . S
O370 Gd325 2.324 . S
O370 C390 1.254 . S
O371 Gd324 2.429 1_455 S
O371 C390 1.268 . S
O372 Gd324 2.545 . S
O372 C380 1.250 . S
O373 Gd324 2.412 . S
O373 C383 1.252 . S
O374 Gd325 2.545 . S
O374 C392 1.258 . S
O375 Gd324 2.362 1_455 S
O375 Gd325 2.606 . S
O375 C391 1.284 . S
O376 Gd324 2.324 . S
O376 C399 1.254 . S
O377 Gd325 2.429 1_655 S
O377 C399 1.268 . S
O378 Gd325 2.545 . S
O378 C391 1.250 . S
O379 Gd325 2.412 . S
O379 C392 1.252 . S
C380 O369 1.296 . S
C380 O372 1.250 . S
C381 H350 0.929 . S
C381 C366 1.437 . S
C381 C382 1.317 . S
C382 H353 0.930 . S
C382 C358 1.431 . S
C382 C381 1.317 . S
C383 Gd324 2.828 . S
C383 O368 1.258 . S
C383 O373 1.252 . S
C383 C384 1.497 . S
C384 C383 1.497 . S
C384 C385 1.395 1_556 S
C384 C386 1.380 . S
C385 C384 1.395 1_554 S
C385 C388 1.398 . S
C385 H400 0.930 . S
C386 C384 1.380 . S
C386 C387 1.391 . S
C386 H401 0.930 . S
C387 C386 1.391 . S
C387 C389 1.387 1_556 S
C388 C385 1.398 . S
C388 C389 1.380 . S
C388 H402 0.930 . S
C389 C387 1.387 1_554 S
C389 C388 1.380 . S
C389 H403 0.930 . S
C390 O370 1.254 . S
C390 O371 1.268 . S
C391 O375 1.284 . S
C391 O378 1.250 . S
C392 Gd325 2.828 . S
C392 O374 1.258 . S
C392 O379 1.252 . S
C392 C393 1.497 . S
C393 C392 1.497 . S
C393 C394 1.395 . S
C393 C395 1.380 . S
C394 C393 1.395 . S
C394 C397 1.398 . S
C394 H404 0.930 . S
C395 C393 1.380 . S
C395 C396 1.391 . S
C395 H405 0.930 . S
C396 C395 1.391 . S
C396 C398 1.387 . S
C397 C394 1.398 . S
C397 C398 1.380 . S
C397 H406 0.930 . S
C398 C396 1.387 . S
C398 C397 1.380 . S
C398 H407 0.930 . S
C399 O376 1.254 . S
C399 O377 1.268 . S
H400 C385 0.930 . S
H401 C386 0.930 . S
H402 C388 0.930 . S
H403 C389 0.930 . S
H404 C394 0.930 . S
H405 C395 0.930 . S
H406 C397 0.930 . S
H407 C398 0.930 . S
H408 C416 0.950 . S
H409 C421 0.950 . S
H410 C418 0.950 . S
H411 C420 0.950 . S
H412 C422 0.950 . S
H413 C424 0.950 . S
H414 C426 0.950 . S
H415 C427 0.950 1_565 S
C416 H408 0.950 . S
C416 C417 1.386 . S
C416 C418 1.391 . S
C417 C416 1.386 . S
C417 C421 1.393 . S
C418 H410 0.950 . S
C418 C416 1.391 . S
C418 C419 1.400 . S
C419 C418 1.400 . S
C419 C420 1.398 . S
C419 C425 1.491 . S
C420 H411 0.950 . S
C420 C419 1.398 . S
C420 C421 1.391 . S
C421 H409 0.950 . S
C421 C417 1.393 . S
C421 C420 1.391 . S
C422 H412 0.950 . S
C422 C423 1.386 . S
C422 C424 1.391 . S
C423 C422 1.386 . S
C423 C427 1.393 . S
C424 H413 0.950 . S
C424 C422 1.391 . S
C424 C425 1.400 . S
C425 C419 1.491 . S
C425 C424 1.400 . S
C425 C426 1.398 . S
C426 H414 0.950 . S
C426 C425 1.398 . S
C426 C427 1.391 . S
C427 H415 0.950 1_545 S
C427 C423 1.393 . S
C427 C426 1.391 . S
H428 C436 0.950 . S
H429 C441 0.950 . S
H430 C438 0.950 . S
H431 C440 0.950 . S
H432 C442 0.950 . S
H433 C444 0.950 . S
H434 C446 0.950 . S
H435 C447 0.950 . S
C436 H428 0.950 . S
C436 C437 1.386 . S
C436 C438 1.391 . S
C437 C436 1.386 . S
C437 C441 1.393 . S
C438 H430 0.950 . S
C438 C436 1.391 . S
C438 C439 1.400 . S
C439 C438 1.400 . S
C439 C440 1.398 . S
C439 C445 1.491 . S
C440 H431 0.950 . S
C440 C439 1.398 . S
C440 C441 1.391 . S
C441 H429 0.950 . S
C441 C437 1.393 . S
C441 C440 1.391 . S
C442 H432 0.950 . S
C442 C443 1.386 . S
C442 C444 1.391 . S
C443 C442 1.386 . S
C443 C447 1.393 . S
C444 H433 0.950 . S
C444 C442 1.391 . S
C444 C445 1.400 . S
C445 C439 1.491 . S
C445 C444 1.400 . S
C445 C446 1.398 . S
C446 H434 0.950 . S
C446 C445 1.398 . S
C446 C447 1.391 . S
C447 H435 0.950 . S
C447 C443 1.393 . S
C447 C446 1.391 . S
H448 C456 0.950 . S
H449 C461 0.950 . S
H450 C458 0.950 . S
H451 C460 0.950 . S
H452 C462 0.950 . S
H453 C464 0.950 . S
H454 C466 0.950 . S
H455 C467 0.950 . S
C456 H448 0.950 . S
C456 C457 1.386 . S
C456 C458 1.391 . S
C457 C456 1.386 . S
C457 C461 1.393 . S
C458 H450 0.950 . S
C458 C456 1.391 . S
C458 C459 1.400 . S
C459 C458 1.400 . S
C459 C460 1.398 . S
C459 C465 1.491 . S
C460 H451 0.950 . S
C460 C459 1.398 . S
C460 C461 1.391 . S
C461 H449 0.950 . S
C461 C457 1.393 . S
C461 C460 1.391 . S
C462 H452 0.950 . S
C462 C463 1.386 . S
C462 C464 1.391 . S
C463 C462 1.386 . S
C463 C467 1.393 . S
C464 H453 0.950 . S
C464 C462 1.391 . S
C464 C465 1.400 . S
C465 C459 1.491 . S
C465 C464 1.400 . S
C465 C466 1.398 . S
C466 H454 0.950 . S
C466 C465 1.398 . S
C466 C467 1.391 . S
C467 H455 0.950 . S
C467 C463 1.393 . S
C467 C466 1.391 . S
H468 C476 0.950 . S
H469 C481 0.950 . S
H470 C478 0.950 . S
H471 C480 0.950 . S
H472 C482 0.950 1_655 S
H473 C484 0.950 . S
H474 C486 0.950 . S
H475 C487 0.950 . S
C476 H468 0.950 . S
C476 C477 1.386 . S
C476 C478 1.391 . S
C477 C476 1.386 . S
C477 C481 1.393 . S
C478 H470 0.950 . S
C478 C476 1.391 . S
C478 C479 1.400 . S
C479 C478 1.400 . S
C479 C480 1.398 . S
C479 C485 1.491 . S
C480 H471 0.950 . S
C480 C479 1.398 . S
C480 C481 1.391 . S
C481 H469 0.950 . S
C481 C477 1.393 . S
C481 C480 1.391 . S
C482 H472 0.950 1_455 S
C482 C483 1.386 . S
C482 C484 1.391 . S
C483 C482 1.386 . S
C483 C487 1.393 . S
C484 H473 0.950 . S
C484 C482 1.391 . S
C484 C485 1.400 . S
C485 C479 1.491 . S
C485 C484 1.400 . S
C485 C486 1.398 . S
C486 H474 0.950 . S
C486 C485 1.398 . S
C486 C487 1.391 . S
C487 H475 0.950 . S
C487 C483 1.393 . S
C487 C486 1.391 . S
H488 C496 0.950 . S
H489 C501 0.950 . S
H490 C498 0.950 . S
H491 C500 0.950 . S
H492 C502 0.950 . S
H493 C504 0.950 1_554 S
H494 C506 0.950 . S
H495 C507 0.950 1_545 S
C496 H488 0.950 . S
C496 C497 1.386 . S
C496 C498 1.391 . S
C497 C496 1.386 . S
C497 C501 1.393 . S
C498 H490 0.950 . S
C498 C496 1.391 . S
C498 C499 1.400 . S
C499 C498 1.400 . S
C499 C500 1.398 . S
C499 C505 1.491 1_554 S
C500 H491 0.950 . S
C500 C499 1.398 . S
C500 C501 1.391 . S
C501 H489 0.950 . S
C501 C497 1.393 . S
C501 C500 1.391 . S
C502 H492 0.950 . S
C502 C503 1.386 . S
C502 C504 1.391 . S
C503 C502 1.386 . S
C503 C507 1.393 . S
C504 H493 0.950 1_556 S
C504 C502 1.391 . S
C504 C505 1.400 . S
C505 C499 1.491 1_556 S
C505 C504 1.400 . S
C505 C506 1.398 . S
C506 H494 0.950 . S
C506 C505 1.398 . S
C506 C507 1.391 . S
C507 H495 0.950 1_565 S
C507 C503 1.393 . S
C507 C506 1.391 . S
H508 C516 0.950 . S
H509 C521 0.950 . S
H510 C518 0.950 . S
H511 C520 0.950 . S
H512 C522 0.950 . S
H513 C524 0.950 . S
H514 C526 0.950 . S
H515 C527 0.950 . S
C516 H508 0.950 . S
C516 C517 1.386 . S
C516 C518 1.391 . S
C517 C516 1.386 . S
C517 C521 1.393 . S
C518 H510 0.950 . S
C518 C516 1.391 . S
C518 C519 1.400 . S
C519 C518 1.400 . S
C519 C520 1.398 . S
C519 C525 1.491 1_554 S
C520 H511 0.950 . S
C520 C519 1.398 . S
C520 C521 1.391 . S
C521 H509 0.950 . S
C521 C517 1.393 . S
C521 C520 1.391 . S
C522 H512 0.950 . S
C522 C523 1.386 . S
C522 C524 1.391 . S
C523 C522 1.386 . S
C523 C527 1.393 . S
C524 H513 0.950 . S
C524 C522 1.391 . S
C524 C525 1.400 . S
C525 C519 1.491 1_556 S
C525 C524 1.400 . S
C525 C526 1.398 . S
C526 H514 0.950 . S
C526 C525 1.398 . S
C526 C527 1.391 . S
C527 H515 0.950 . S
C527 C523 1.393 . S
C527 C526 1.391 . S
H528 C536 0.950 . S
H529 C541 0.950 . S
H530 C538 0.950 . S
H531 C540 0.950 . S
H532 C542 0.950 . S
H533 C544 0.950 1_554 S
H534 C546 0.950 . S
H535 C547 0.950 . S
C536 H528 0.950 . S
C536 C537 1.386 . S
C536 C538 1.391 . S
C537 C536 1.386 . S
C537 C541 1.393 . S
C538 H530 0.950 . S
C538 C536 1.391 . S
C538 C539 1.400 . S
C539 C538 1.400 . S
C539 C540 1.398 . S
C539 C545 1.491 1_554 S
C540 H531 0.950 . S
C540 C539 1.398 . S
C540 C541 1.391 . S
C541 H529 0.950 . S
C541 C537 1.393 . S
C541 C540 1.391 . S
C542 H532 0.950 . S
C542 C543 1.386 . S
C542 C544 1.391 . S
C543 C542 1.386 . S
C543 C547 1.393 . S
C544 H533 0.950 1_556 S
C544 C542 1.391 . S
C544 C545 1.400 . S
C545 C539 1.491 1_556 S
C545 C544 1.400 . S
C545 C546 1.398 . S
C546 H534 0.950 . S
C546 C545 1.398 . S
C546 C547 1.391 . S
C547 H535 0.950 . S
C547 C543 1.393 . S
C547 C546 1.391 . S
H548 C556 0.950 . S
H549 C561 0.950 . S
H550 C558 0.950 . S
H551 C560 0.950 . S
H552 C562 0.950 . S
H553 C564 0.950 1_554 S
H554 C566 0.950 . S
H555 C567 0.950 . S
C556 H548 0.950 . S
C556 C557 1.386 . S
C556 C558 1.391 . S
C557 C556 1.386 . S
C557 C561 1.393 . S
C558 H550 0.950 . S
C558 C556 1.391 . S
C558 C559 1.400 . S
C559 C558 1.400 . S
C559 C560 1.398 . S
C559 C565 1.491 1_554 S
C560 H551 0.950 . S
C560 C559 1.398 . S
C560 C561 1.391 . S
C561 H549 0.950 . S
C561 C557 1.393 . S
C561 C560 1.391 . S
C562 H552 0.950 . S
C562 C563 1.386 . S
C562 C564 1.391 . S
C563 C562 1.386 . S
C563 C567 1.393 . S
C564 H553 0.950 1_556 S
C564 C562 1.391 . S
C564 C565 1.400 . S
C565 C559 1.491 1_556 S
C565 C564 1.400 . S
C565 C566 1.398 . S
C566 H554 0.950 . S
C566 C565 1.398 . S
C566 C567 1.391 . S
C567 H555 0.950 . S
C567 C563 1.393 . S
C567 C566 1.391 . S
H568 C576 0.950 . S
H569 C581 0.950 . S
H570 C578 0.950 . S
H571 C580 0.950 . S
H572 C582 0.950 . S
H573 C584 0.950 . S
H574 C586 0.950 1_655 S
H575 C587 0.950 . S
C576 H568 0.950 . S
C576 C577 1.386 . S
C576 C578 1.391 . S
C577 C576 1.386 . S
C577 C581 1.393 . S
C578 H570 0.950 . S
C578 C576 1.391 . S
C578 C579 1.400 . S
C579 C578 1.400 . S
C579 C580 1.398 . S
C579 C585 1.491 . S
C580 H571 0.950 . S
C580 C579 1.398 . S
C580 C581 1.391 . S
C581 H569 0.950 . S
C581 C577 1.393 . S
C581 C580 1.391 . S
C582 H572 0.950 . S
C582 C583 1.386 1_455 S
C582 C584 1.391 . S
C583 C582 1.386 1_655 S
C583 C587 1.393 . S
C584 H573 0.950 . S
C584 C582 1.391 . S
C584 C585 1.400 . S
C585 C579 1.491 . S
C585 C584 1.400 . S
C585 C586 1.398 . S
C586 H574 0.950 1_455 S
C586 C585 1.398 . S
C586 C587 1.391 1_455 S
C587 H575 0.950 . S
C587 C583 1.393 . S
C587 C586 1.391 1_655 S
H588 C596 0.950 . S
H589 C601 0.950 . S
H590 C598 0.950 . S
H591 C600 0.950 1_565 S
H592 C602 0.950 . S
H593 C604 0.950 . S
H594 C606 0.950 . S
H595 C607 0.950 . S
C596 H588 0.950 . S
C596 C597 1.386 . S
C596 C598 1.391 . S
C597 C596 1.386 . S
C597 C601 1.393 . S
C598 H590 0.950 . S
C598 C596 1.391 . S
C598 C599 1.400 . S
C599 C598 1.400 . S
C599 C600 1.398 . S
C599 C605 1.491 . S
C600 H591 0.950 1_545 S
C600 C599 1.398 . S
C600 C601 1.391 . S
C601 H589 0.950 . S
C601 C597 1.393 . S
C601 C600 1.391 . S
C602 H592 0.950 . S
C602 C603 1.386 . S
C602 C604 1.391 . S
C603 C602 1.386 . S
C603 C607 1.393 1_565 S
C604 H593 0.950 . S
C604 C602 1.391 . S
C604 C605 1.400 1_565 S
C605 C599 1.491 . S
C605 C604 1.400 1_545 S
C605 C606 1.398 . S
C606 H594 0.950 . S
C606 C605 1.398 . S
C606 C607 1.391 . S
C607 H595 0.950 . S
C607 C603 1.393 1_545 S
C607 C606 1.391 . S
H608 C616 0.950 . S
H609 C621 0.950 . S
H610 C618 0.950 . S
H611 C620 0.950 . S
H612 C622 0.950 . S
H613 C624 0.950 . S
H614 C626 0.950 . S
H615 C627 0.950 . S
C616 H608 0.950 . S
C616 C617 1.386 . S
C616 C618 1.391 . S
C617 C616 1.386 . S
C617 C621 1.393 . S
C618 H610 0.950 . S
C618 C616 1.391 . S
C618 C619 1.400 . S
C619 C618 1.400 . S
C619 C620 1.398 . S
C619 C625 1.491 . S
C620 H611 0.950 . S
C620 C619 1.398 . S
C620 C621 1.391 . S
C621 H609 0.950 . S
C621 C617 1.393 . S
C621 C620 1.391 . S
C622 H612 0.950 . S
C622 C623 1.386 . S
C622 C624 1.391 . S
C623 C622 1.386 . S
C623 C627 1.393 . S
C624 H613 0.950 . S
C624 C622 1.391 . S
C624 C625 1.400 . S
C625 C619 1.491 . S
C625 C624 1.400 . S
C625 C626 1.398 . S
C626 H614 0.950 . S
C626 C625 1.398 . S
C626 C627 1.391 . S
C627 H615 0.950 . S
C627 C623 1.393 . S
C627 C626 1.391 . S
H628 C636 0.950 . S
H629 C641 0.950 . S
H630 C638 0.950 . S
H631 C640 0.950 . S
H632 C642 0.950 . S
H633 C644 0.950 . S
H634 C646 0.950 . S
H635 C647 0.950 . S
C636 H628 0.950 . S
C636 C637 1.386 . S
C636 C638 1.391 . S
C637 C636 1.386 . S
C637 C641 1.393 . S
C638 H630 0.950 . S
C638 C636 1.391 . S
C638 C639 1.400 . S
C639 C638 1.400 . S
C639 C640 1.398 . S
C639 C645 1.491 . S
C640 H631 0.950 . S
C640 C639 1.398 . S
C640 C641 1.391 . S
C641 H629 0.950 . S
C641 C637 1.393 . S
C641 C640 1.391 . S
C642 H632 0.950 . S
C642 C643 1.386 . S
C642 C644 1.391 . S
C643 C642 1.386 . S
C643 C647 1.393 . S
C644 H633 0.950 . S
C644 C642 1.391 . S
C644 C645 1.400 . S
C645 C639 1.491 . S
C645 C644 1.400 . S
C645 C646 1.398 . S
C646 H634 0.950 . S
C646 C645 1.398 . S
C646 C647 1.391 . S
C647 H635 0.950 . S
C647 C643 1.393 . S
C647 C646 1.391 . S
H648 C656 0.950 . S
H649 C661 0.950 . S
H650 C658 0.950 . S
H651 C660 0.950 . S
H652 C662 0.950 . S
H653 C664 0.950 . S
H654 C666 0.950 . S
H655 C667 0.950 . S
C656 H648 0.950 . S
C656 C657 1.386 . S
C656 C658 1.391 . S
C657 C656 1.386 . S
C657 C661 1.393 . S
C658 H650 0.950 . S
C658 C656 1.391 . S
C658 C659 1.400 . S
C659 C658 1.400 . S
C659 C660 1.398 . S
C659 C665 1.491 . S
C660 H651 0.950 . S
C660 C659 1.398 . S
C660 C661 1.391 . S
C661 H649 0.950 . S
C661 C657 1.393 . S
C661 C660 1.391 . S
C662 H652 0.950 . S
C662 C663 1.386 . S
C662 C664 1.391 1_455 S
C663 C662 1.386 . S
C663 C667 1.393 1_556 S
C664 H653 0.950 . S
C664 C662 1.391 1_655 S
C664 C665 1.400 1_556 S
C665 C659 1.491 . S
C665 C664 1.400 1_554 S
C665 C666 1.398 . S
C666 H654 0.950 . S
C666 C665 1.398 . S
C666 C667 1.391 1_655 S
C667 H655 0.950 . S
C667 C663 1.393 1_554 S
C667 C666 1.391 1_455 S
H668 C676 0.950 . S
H669 C681 0.950 . S
H670 C678 0.950 . S
H671 C680 0.950 . S
H672 C682 0.950 . S
H673 C684 0.950 . S
H674 C686 0.950 . S
H675 C687 0.950 . S
C676 H668 0.950 . S
C676 C677 1.386 . S
C676 C678 1.391 . S
C677 C676 1.386 . S
C677 C681 1.393 . S
C678 H670 0.950 . S
C678 C676 1.391 . S
C678 C679 1.400 . S
C679 C678 1.400 . S
C679 C680 1.398 . S
C679 C685 1.491 . S
C680 H671 0.950 . S
C680 C679 1.398 . S
C680 C681 1.391 . S
C681 H669 0.950 . S
C681 C677 1.393 . S
C681 C680 1.391 . S
C682 H672 0.950 . S
C682 C683 1.386 . S
C682 C684 1.391 . S
C683 C682 1.386 . S
C683 C687 1.393 1_556 S
C684 H673 0.950 . S
C684 C682 1.391 . S
C684 C685 1.400 1_546 S
C685 C679 1.491 . S
C685 C684 1.400 1_564 S
C685 C686 1.398 . S
C686 H674 0.950 . S
C686 C685 1.398 . S
C686 C687 1.391 1_565 S
C687 H675 0.950 . S
C687 C683 1.393 1_554 S
C687 C686 1.391 1_545 S
H688 C696 0.950 . S
H689 C701 0.950 . S
H690 C698 0.950 . S
H691 C700 0.950 . S
H692 C702 0.950 . S
H693 C704 0.950 . S
H694 C706 0.950 . S
H695 C707 0.950 . S
C696 H688 0.950 . S
C696 C697 1.386 . S
C696 C698 1.391 . S
C697 C696 1.386 . S
C697 C701 1.393 . S
C698 H690 0.950 . S
C698 C696 1.391 . S
C698 C699 1.400 . S
C699 C698 1.400 . S
C699 C700 1.398 . S
C699 C705 1.491 . S
C700 H691 0.950 . S
C700 C699 1.398 . S
C700 C701 1.391 . S
C701 H689 0.950 . S
C701 C697 1.393 . S
C701 C700 1.391 . S
C702 H692 0.950 . S
C702 C703 1.386 . S
C702 C704 1.391 1_556 S
C703 C702 1.386 . S
C703 C707 1.393 1_556 S
C704 H693 0.950 . S
C704 C702 1.391 1_554 S
C704 C705 1.400 . S
C705 C699 1.491 . S
C705 C704 1.400 . S
C705 C706 1.398 . S
C706 H694 0.950 . S
C706 C705 1.398 . S
C706 C707 1.391 . S
C707 H695 0.950 . S
C707 C703 1.393 1_554 S
C707 C706 1.391 . S
H708 C716 0.950 . S
H709 C721 0.950 . S
H710 C718 0.950 . S
H711 C720 0.950 . S
H712 C722 0.950 . S
H713 C724 0.950 . S
H714 C726 0.950 . S
H715 C727 0.950 1_556 S
C716 H708 0.950 . S
C716 C717 1.386 . S
C716 C718 1.391 . S
C717 C716 1.386 . S
C717 C721 1.393 . S
C718 H710 0.950 . S
C718 C716 1.391 . S
C718 C719 1.400 . S
C719 C718 1.400 . S
C719 C720 1.398 . S
C719 C725 1.491 . S
C720 H711 0.950 . S
C720 C719 1.398 . S
C720 C721 1.391 . S
C721 H709 0.950 . S
C721 C717 1.393 . S
C721 C720 1.391 . S
C722 H712 0.950 . S
C722 C723 1.386 . S
C722 C724 1.391 1_556 S
C723 C722 1.386 . S
C723 C727 1.393 1_556 S
C724 H713 0.950 . S
C724 C722 1.391 1_554 S
C724 C725 1.400 . S
C725 C719 1.491 . S
C725 C724 1.400 . S
C725 C726 1.398 . S
C726 H714 0.950 . S
C726 C725 1.398 . S
C726 C727 1.391 . S
C727 H715 0.950 1_554 S
C727 C723 1.393 1_554 S
C727 C726 1.391 . S
H728 C736 0.950 . S
H729 C741 0.950 . S
H730 C738 0.950 . S
H731 C740 0.950 . S
H732 C742 0.950 . S
H733 C744 0.950 . S
H734 C746 0.950 . S
H735 C747 0.950 . S
C736 H728 0.950 . S
C736 C737 1.386 . S
C736 C738 1.391 . S
C737 C736 1.386 . S
C737 C741 1.393 . S
C738 H730 0.950 . S
C738 C736 1.391 . S
C738 C739 1.400 . S
C739 C738 1.400 . S
C739 C740 1.398 . S
C739 C745 1.491 . S
C740 H731 0.950 . S
C740 C739 1.398 . S
C740 C741 1.391 . S
C741 H729 0.950 . S
C741 C737 1.393 . S
C741 C740 1.391 . S
C742 H732 0.950 . S
C742 C743 1.386 . S
C742 C744 1.391 . S
C743 C742 1.386 . S
C743 C747 1.393 . S
C744 H733 0.950 . S
C744 C742 1.391 . S
C744 C745 1.400 . S
C745 C739 1.491 . S
C745 C744 1.400 . S
C745 C746 1.398 . S
C746 H734 0.950 . S
C746 C745 1.398 . S
C746 C747 1.391 . S
C747 H735 0.950 . S
C747 C743 1.393 . S
C747 C746 1.391 . S
H748 C756 0.950 . S
H749 C761 0.950 . S
H750 C758 0.950 . S
H751 C760 0.950 . S
H752 C762 0.950 . S
H753 C764 0.950 . S
H754 C766 0.950 . S
H755 C767 0.950 . S
C756 H748 0.950 . S
C756 C757 1.386 . S
C756 C758 1.391 . S
C757 C756 1.386 . S
C757 C761 1.393 . S
C758 H750 0.950 . S
C758 C756 1.391 . S
C758 C759 1.400 . S
C759 C758 1.400 . S
C759 C760 1.398 . S
C759 C765 1.491 . S
C760 H751 0.950 . S
C760 C759 1.398 . S
C760 C761 1.391 . S
C761 H749 0.950 . S
C761 C757 1.393 . S
C761 C760 1.391 . S
C762 H752 0.950 . S
C762 C763 1.386 . S
C762 C764 1.391 . S
C763 C762 1.386 . S
C763 C767 1.393 . S
C764 H753 0.950 . S
C764 C762 1.391 . S
C764 C765 1.400 . S
C765 C759 1.491 . S
C765 C764 1.400 . S
C765 C766 1.398 . S
C766 H754 0.950 . S
C766 C765 1.398 . S
C766 C767 1.391 . S
C767 H755 0.950 . S
C767 C763 1.393 . S
C767 C766 1.391 . S
H768 C776 0.950 . S
H769 C781 0.950 . S
H770 C778 0.950 . S
H771 C780 0.950 . S
H772 C782 0.950 . S
H773 C784 0.950 . S
H774 C786 0.950 . S
H775 C787 0.950 . S
C776 H768 0.950 . S
C776 C777 1.386 . S
C776 C778 1.391 . S
C777 C776 1.386 . S
C777 C781 1.393 . S
C778 H770 0.950 . S
C778 C776 1.391 . S
C778 C779 1.400 . S
C779 C778 1.400 . S
C779 C780 1.398 . S
C779 C785 1.491 . S
C780 H771 0.950 . S
C780 C779 1.398 . S
C780 C781 1.391 . S
C781 H769 0.950 . S
C781 C777 1.393 . S
C781 C780 1.391 . S
C782 H772 0.950 . S
C782 C783 1.386 . S
C782 C784 1.391 . S
C783 C782 1.386 . S
C783 C787 1.393 . S
C784 H773 0.950 . S
C784 C782 1.391 . S
C784 C785 1.400 . S
C785 C779 1.491 . S
C785 C784 1.400 . S
C785 C786 1.398 . S
C786 H774 0.950 . S
C786 C785 1.398 . S
C786 C787 1.391 . S
C787 H775 0.950 . S
C787 C783 1.393 . S
C787 C786 1.391 . S
H788 C796 0.950 . S
H789 C801 0.950 . S
H790 C798 0.950 . S
H791 C800 0.950 . S
H792 C802 0.950 . S
H793 C804 0.950 . S
H794 C806 0.950 . S
H795 C807 0.950 . S
C796 H788 0.950 . S
C796 C797 1.386 . S
C796 C798 1.391 . S
C797 C796 1.386 . S
C797 C801 1.393 . S
C798 H790 0.950 . S
C798 C796 1.391 . S
C798 C799 1.400 . S
C799 C798 1.400 . S
C799 C800 1.398 . S
C799 C805 1.491 . S
C800 H791 0.950 . S
C800 C799 1.398 . S
C800 C801 1.391 . S
C801 H789 0.950 . S
C801 C797 1.393 . S
C801 C800 1.391 . S
C802 H792 0.950 . S
C802 C803 1.386 . S
C802 C804 1.391 . S
C803 C802 1.386 . S
C803 C807 1.393 . S
C804 H793 0.950 . S
C804 C802 1.391 . S
C804 C805 1.400 . S
C805 C799 1.491 . S
C805 C804 1.400 . S
C805 C806 1.398 . S
C806 H794 0.950 . S
C806 C805 1.398 . S
C806 C807 1.391 . S
C807 H795 0.950 . S
C807 C803 1.393 . S
C807 C806 1.391 . S
H808 C816 0.950 . S
H809 C821 0.950 . S
H810 C818 0.950 . S
H811 C820 0.931 1_455 S
H812 C822 0.950 1_455 S
H813 C824 0.950 1_455 S
H814 C826 0.950 . S
H815 C827 0.950 . S
C816 H808 0.950 . S
C816 C817 1.386 . S
C816 C818 1.391 . S
C817 C816 1.386 . S
C817 C821 1.393 . S
C818 H810 0.950 . S
C818 C816 1.391 . S
C818 C819 1.400 . S
C819 C818 1.400 . S
C819 C820 1.398 . S
C819 C825 1.491 . S
C820 H811 0.931 1_655 S
C820 C819 1.398 . S
C820 C821 1.391 . S
C821 H809 0.950 . S
C821 C817 1.393 . S
C821 C820 1.391 . S
C822 H812 0.950 1_655 S
C822 C823 1.386 . S
C822 C824 1.391 . S
C823 C822 1.386 . S
C823 C827 1.393 . S
C824 H813 0.950 1_655 S
C824 C822 1.391 . S
C824 C825 1.400 . S
C825 C819 1.491 . S
C825 C824 1.400 . S
C825 C826 1.398 . S
C826 H814 0.950 . S
C826 C825 1.398 . S
C826 C827 1.391 . S
C827 H815 0.950 . S
C827 C823 1.393 . S
C827 C826 1.391 . S
H828 C836 0.950 . S
H829 C841 0.950 . S
H830 C838 0.950 . S
H831 C840 0.950 . S
H832 C842 0.950 . S
H833 C844 0.950 . S
H834 C846 0.950 1_545 S
H835 C847 0.950 1_545 S
C836 H828 0.950 . S
C836 C837 1.386 . S
C836 C838 1.391 . S
C837 C836 1.386 . S
C837 C841 1.393 . S
C838 H830 0.950 . S
C838 C836 1.391 . S
C838 C839 1.400 . S
C839 C838 1.400 . S
C839 C840 1.398 . S
C839 C845 1.491 . S
C840 H831 0.950 . S
C840 C839 1.398 . S
C840 C841 1.391 . S
C841 H829 0.950 . S
C841 C837 1.393 . S
C841 C840 1.391 . S
C842 H832 0.950 . S
C842 C843 1.386 . S
C842 C844 1.391 . S
C843 C842 1.386 . S
C843 C847 1.393 . S
C844 H833 0.950 . S
C844 C842 1.391 . S
C844 C845 1.400 . S
C845 C839 1.491 . S
C845 C844 1.400 . S
C845 C846 1.398 . S
C846 H834 0.950 1_565 S
C846 C845 1.398 . S
C846 C847 1.391 . S
C847 H835 0.950 1_565 S
C847 C843 1.393 . S
C847 C846 1.391 . S
H848 C856 0.950 . S
H849 C861 0.950 . S
H850 C858 0.950 . S
H851 C860 0.950 . S
H852 C862 0.950 . S
H853 C864 0.950 . S
H854 C866 0.950 . S
H855 C867 0.950 . S
C856 H848 0.950 . S
C856 C857 1.386 . S
C856 C858 1.391 . S
C857 C856 1.386 . S
C857 C861 1.393 . S
C858 H850 0.950 . S
C858 C856 1.391 . S
C858 C859 1.400 . S
C859 C858 1.400 . S
C859 C860 1.398 . S
C859 C865 1.491 . S
C860 H851 0.950 . S
C860 C859 1.398 . S
C860 C861 1.391 . S
C861 H849 0.950 . S
C861 C857 1.393 . S
C861 C860 1.391 . S
C862 H852 0.950 . S
C862 C863 1.386 . S
C862 C864 1.391 . S
C863 C862 1.386 . S
C863 C867 1.393 . S
C864 H853 0.950 . S
C864 C862 1.391 . S
C864 C865 1.400 . S
C865 C859 1.491 . S
C865 C864 1.400 . S
C865 C866 1.398 . S
C866 H854 0.950 . S
C866 C865 1.398 . S
C866 C867 1.391 . S
C867 H855 0.950 . S
C867 C863 1.393 . S
C867 C866 1.391 . S
H868 C876 0.950 . S
H869 C881 0.950 . S
H870 C878 0.950 . S
H871 C880 0.950 . S
H872 C882 0.950 . S
H873 C884 0.950 . S
H874 C886 0.950 . S
H875 C887 0.950 . S
C876 H868 0.950 . S
C876 C877 1.386 . S
C876 C878 1.391 . S
C877 C876 1.386 . S
C877 C881 1.393 . S
C878 H870 0.950 . S
C878 C876 1.391 . S
C878 C879 1.400 . S
C879 C878 1.400 . S
C879 C880 1.398 . S
C879 C885 1.491 . S
C880 H871 0.950 . S
C880 C879 1.398 . S
C880 C881 1.391 . S
C881 H869 0.950 . S
C881 C877 1.393 . S
C881 C880 1.391 . S
C882 H872 0.950 . S
C882 C883 1.386 . S
C882 C884 1.391 . S
C883 C882 1.386 . S
C883 C887 1.393 . S
C884 H873 0.950 . S
C884 C882 1.391 . S
C884 C885 1.400 . S
C885 C879 1.491 . S
C885 C884 1.400 . S
C885 C886 1.398 . S
C886 H874 0.950 . S
C886 C885 1.398 . S
C886 C887 1.391 . S
C887 H875 0.950 . S
C887 C883 1.393 . S
C887 C886 1.391 . S
C417 C61 1.816 . S
C423 C147 1.891 . S
C443 C231 1.919 . S
C437 C70 1.870 . S
C463 C307 1.861 . S
C457 C43 1.927 . S
C483 C391 1.873 . S
C477 C52 1.935 . S
C503 C138 1.891 1_565 S
C497 C25 1.841 . S
C517 C34 1.869 . S
C523 C222 1.914 . S
C537 C7 1.924 . S
C543 C296 1.853 . S
C557 C16 1.932 . S
C563 C380 1.864 . S
C583 C135 0.563 . S
C577 C50 0.621 . S
C603 C219 0.561 . S
C597 C59 0.572 . S
C623 C312 0.520 . S
C617 C67 0.513 . S
C637 C41 0.519 . S
C643 C396 0.589 . S
C657 C14 0.564 . S
C663 C144 0.611 . S
C683 C228 0.588 . S
C677 C23 0.532 . S
C703 C303 0.502 . S
C697 C31 0.544 . S
C717 C5 0.520 . S
C723 C387 0.597 . S
C737 C49 1.984 . S
C743 C128 2.068 . S
C757 C58 1.958 . S
C763 C212 2.043 . S
C783 C306 2.019 . S
C777 C68 1.848 . S
C803 C390 2.050 . S
C797 C40 1.870 . S
C817 C13 1.994 . S
C823 C139 2.064 . S
C843 C223 2.018 . S
C837 C22 1.945 . S
C863 C315 2.025 . S
C857 C32 1.862 . S
C877 C4 1.881 . S
C883 C399 2.035 . S
