# Generated by pormake.
# Topology eea, (3,6)-cn, num edge types: 1
# Building blocks:
#     Node 0, Type 0, BuildingBlock: PAMTOO_clean_linker_0, # of connection points: 3
#     Node 1, Type 0, BuildingBlock: PAMTOO_clean_linker_0, # of connection points: 3
#     Node 2, Type 0, BuildingBlock: PAMTOO_clean_linker_0, # of connection points: 3
#     Node 3, Type 0, BuildingBlock: PAMTOO_clean_linker_0, # of connection points: 3
#     Node 4, Type 0, BuildingBlock: PAMTOO_clean_linker_0, # of connection points: 3
#     Node 5, Type 0, BuildingBlock: PAMTOO_clean_linker_0, # of connection points: 3
#     Node 6, Type 0, BuildingBlock: PAMTOO_clean_linker_0, # of connection points: 3
#     Node 7, Type 0, BuildingBlock: PAMTOO_clean_linker_0, # of connection points: 3
#     Node 8, Type 0, BuildingBlock: PAMTOO_clean_linker_0, # of connection points: 3
#     Node 9, Type 0, BuildingBlock: PAMTOO_clean_linker_0, # of connection points: 3
#     Node 10, Type 0, BuildingBlock: PAMTOO_clean_linker_0, # of connection points: 3
#     Node 11, Type 0, BuildingBlock: PAMTOO_clean_linker_0, # of connection points: 3
#     Node 12, Type 0, BuildingBlock: PAMTOO_clean_linker_0, # of connection points: 3
#     Node 13, Type 0, BuildingBlock: PAMTOO_clean_linker_0, # of connection points: 3
#     Node 14, Type 0, BuildingBlock: PAMTOO_clean_linker_0, # of connection points: 3
#     Node 15, Type 0, BuildingBlock: PAMTOO_clean_linker_0, # of connection points: 3
#     Node 16, Type 0, BuildingBlock: PAMTOO_clean_linker_0, # of connection points: 3
#     Node 17, Type 0, BuildingBlock: PAMTOO_clean_linker_0, # of connection points: 3
#     Node 18, Type 1, BuildingBlock: CUWYAW_clean_sbu_0, # of connection points: 6
#     Node 19, Type 1, BuildingBlock: CUWYAW_clean_sbu_0, # of connection points: 6
#     Node 20, Type 1, BuildingBlock: CUWYAW_clean_sbu_0, # of connection points: 6
#     Node 21, Type 1, BuildingBlock: CUWYAW_clean_sbu_0, # of connection points: 6
#     Node 22, Type 1, BuildingBlock: CUWYAW_clean_sbu_0, # of connection points: 6
#     Node 23, Type 1, BuildingBlock: CUWYAW_clean_sbu_0, # of connection points: 6
#     Node 24, Type 1, BuildingBlock: CUWYAW_clean_sbu_0, # of connection points: 6
#     Node 25, Type 1, BuildingBlock: CUWYAW_clean_sbu_0, # of connection points: 6
#     Node 26, Type 1, BuildingBlock: CUWYAW_clean_sbu_0, # of connection points: 6
#     Edge 27, Type (0, 1), BuildingBlock: CIFDUS_clean_linker_0, # of connection points: 2
#     Edge 28, Type (0, 1), BuildingBlock: CIFDUS_clean_linker_0, # of connection points: 2
#     Edge 29, Type (0, 1), BuildingBlock: CIFDUS_clean_linker_0, # of connection points: 2
#     Edge 30, Type (0, 1), BuildingBlock: CIFDUS_clean_linker_0, # of connection points: 2
#     Edge 31, Type (0, 1), BuildingBlock: CIFDUS_clean_linker_0, # of connection points: 2
#     Edge 32, Type (0, 1), BuildingBlock: CIFDUS_clean_linker_0, # of connection points: 2
#     Edge 33, Type (0, 1), BuildingBlock: CIFDUS_clean_linker_0, # of connection points: 2
#     Edge 34, Type (0, 1), BuildingBlock: CIFDUS_clean_linker_0, # of connection points: 2
#     Edge 35, Type (0, 1), BuildingBlock: CIFDUS_clean_linker_0, # of connection points: 2
#     Edge 36, Type (0, 1), BuildingBlock: CIFDUS_clean_linker_0, # of connection points: 2
#     Edge 37, Type (0, 1), BuildingBlock: CIFDUS_clean_linker_0, # of connection points: 2
#     Edge 38, Type (0, 1), BuildingBlock: CIFDUS_clean_linker_0, # of connection points: 2
#     Edge 39, Type (0, 1), BuildingBlock: CIFDUS_clean_linker_0, # of connection points: 2
#     Edge 40, Type (0, 1), BuildingBlock: CIFDUS_clean_linker_0, # of connection points: 2
#     Edge 41, Type (0, 1), BuildingBlock: CIFDUS_clean_linker_0, # of connection points: 2
#     Edge 42, Type (0, 1), BuildingBlock: CIFDUS_clean_linker_0, # of connection points: 2
#     Edge 43, Type (0, 1), BuildingBlock: CIFDUS_clean_linker_0, # of connection points: 2
#     Edge 44, Type (0, 1), BuildingBlock: CIFDUS_clean_linker_0, # of connection points: 2
#     Edge 45, Type (0, 1), BuildingBlock: CIFDUS_clean_linker_0, # of connection points: 2
#     Edge 46, Type (0, 1), BuildingBlock: CIFDUS_clean_linker_0, # of connection points: 2
#     Edge 47, Type (0, 1), BuildingBlock: CIFDUS_clean_linker_0, # of connection points: 2
#     Edge 48, Type (0, 1), BuildingBlock: CIFDUS_clean_linker_0, # of connection points: 2
#     Edge 49, Type (0, 1), BuildingBlock: CIFDUS_clean_linker_0, # of connection points: 2
#     Edge 50, Type (0, 1), BuildingBlock: CIFDUS_clean_linker_0, # of connection points: 2
#     Edge 51, Type (0, 1), BuildingBlock: CIFDUS_clean_linker_0, # of connection points: 2
#     Edge 52, Type (0, 1), BuildingBlock: CIFDUS_clean_linker_0, # of connection points: 2
#     Edge 53, Type (0, 1), BuildingBlock: CIFDUS_clean_linker_0, # of connection points: 2
#     Edge 54, Type (0, 1), BuildingBlock: CIFDUS_clean_linker_0, # of connection points: 2
#     Edge 55, Type (0, 1), BuildingBlock: CIFDUS_clean_linker_0, # of connection points: 2
#     Edge 56, Type (0, 1), BuildingBlock: CIFDUS_clean_linker_0, # of connection points: 2
#     Edge 57, Type (0, 1), BuildingBlock: CIFDUS_clean_linker_0, # of connection points: 2
#     Edge 58, Type (0, 1), BuildingBlock: CIFDUS_clean_linker_0, # of connection points: 2
#     Edge 59, Type (0, 1), BuildingBlock: CIFDUS_clean_linker_0, # of connection points: 2
#     Edge 60, Type (0, 1), BuildingBlock: CIFDUS_clean_linker_0, # of connection points: 2
#     Edge 61, Type (0, 1), BuildingBlock: CIFDUS_clean_linker_0, # of connection points: 2
#     Edge 62, Type (0, 1), BuildingBlock: CIFDUS_clean_linker_0, # of connection points: 2
#     Edge 63, Type (0, 1), BuildingBlock: CIFDUS_clean_linker_0, # of connection points: 2
#     Edge 64, Type (0, 1), BuildingBlock: CIFDUS_clean_linker_0, # of connection points: 2
#     Edge 65, Type (0, 1), BuildingBlock: CIFDUS_clean_linker_0, # of connection points: 2
#     Edge 66, Type (0, 1), BuildingBlock: CIFDUS_clean_linker_0, # of connection points: 2
#     Edge 67, Type (0, 1), BuildingBlock: CIFDUS_clean_linker_0, # of connection points: 2
#     Edge 68, Type (0, 1), BuildingBlock: CIFDUS_clean_linker_0, # of connection points: 2
#     Edge 69, Type (0, 1), BuildingBlock: CIFDUS_clean_linker_0, # of connection points: 2
#     Edge 70, Type (0, 1), BuildingBlock: CIFDUS_clean_linker_0, # of connection points: 2
#     Edge 71, Type (0, 1), BuildingBlock: CIFDUS_clean_linker_0, # of connection points: 2
#     Edge 72, Type (0, 1), BuildingBlock: CIFDUS_clean_linker_0, # of connection points: 2
#     Edge 73, Type (0, 1), BuildingBlock: CIFDUS_clean_linker_0, # of connection points: 2
#     Edge 74, Type (0, 1), BuildingBlock: CIFDUS_clean_linker_0, # of connection points: 2
#     Edge 75, Type (0, 1), BuildingBlock: CIFDUS_clean_linker_0, # of connection points: 2
#     Edge 76, Type (0, 1), BuildingBlock: CIFDUS_clean_linker_0, # of connection points: 2
#     Edge 77, Type (0, 1), BuildingBlock: CIFDUS_clean_linker_0, # of connection points: 2
#     Edge 78, Type (0, 1), BuildingBlock: CIFDUS_clean_linker_0, # of connection points: 2
#     Edge 79, Type (0, 1), BuildingBlock: CIFDUS_clean_linker_0, # of connection points: 2
#     Edge 80, Type (0, 1), BuildingBlock: CIFDUS_clean_linker_0, # of connection points: 2
# Relax obj value: 0.057
# Max RMSD: 0.214
# Mean RMSD: 0.152
data_MOF--net-eea--node1-CUWYAW_clean_sbu_0--node2-PAMTOO_clean_linker_0--edge1-CIFDUS_clean_linker_0
_symmetry_space_group_name_H-M    P1
_symmetry_Int_Tables_number       1
_symmetry_cell_setting            triclinic
loop_
_symmetry_equiv_pos_as_xyz
'x, y, z'
_cell_length_a     47.479456
_cell_length_b     47.177088
_cell_length_c     62.773716
_cell_angle_alpha  93.16766
_cell_angle_beta   93.200353
_cell_angle_gamma 119.85204
loop_
_atom_site_label
_atom_site_type_symbol
_atom_site_fract_x
_atom_site_fract_y
_atom_site_fract_z
_atom_type_partial_charge
H0 H 0.23652 0.06202 0.42648 0.0
H1 H 0.22133 0.14479 0.42828 0.0
H2 H 0.20529 0.08766 0.36855 0.0
H3 H 0.23477 0.15988 0.36446 0.0
C4 C 0.22594 0.16641 0.37893 0.0
O5 O 0.20383 0.13807 0.38732 0.0
H6 H 0.24725 0.1814 0.391 0.0
C7 C 0.23 0.0779 0.41829 0.0
C8 C 0.22118 0.07165 0.39609 0.0
C9 C 0.23004 0.10408 0.43011 0.0
C10 C 0.22166 0.12459 0.41942 0.0
C11 C 0.21288 0.11873 0.39727 0.0
C12 C 0.21238 0.09216 0.38565 0.0
H13 H 0.9568 0.19492 0.43602 0.0
H14 H 0.86328 0.10642 0.43073 0.0
H15 H 0.92036 0.12914 0.37749 0.0
H16 H 0.84706 0.09189 0.36476 0.0
C17 C 0.83997 0.08182 0.38043 0.0
O18 O 0.86716 0.08577 0.39246 0.0
H19 H 0.82967 0.09544 0.38894 0.0
C20 C 0.93827 0.17284 0.42657 0.0
C21 C 0.94305 0.16505 0.40543 0.0
C22 C 0.90917 0.15219 0.43556 0.0
C23 C 0.88546 0.12294 0.42382 0.0
C24 C 0.88986 0.11469 0.40313 0.0
C25 C 0.91816 0.1358 0.39384 0.0
H26 H 0.82772 0.7543 0.43063 0.0
H27 H 0.91782 0.75291 0.43495 0.0
H28 H 0.89254 0.79063 0.38094 0.0
H29 H 0.91795 0.74498 0.3721 0.0
C30 C 0.93794 0.75493 0.38537 0.0
O31 O 0.93617 0.77835 0.39856 0.0
H32 H 0.93455 0.73425 0.39469 0.0
C33 C 0.85025 0.75949 0.42405 0.0
C34 C 0.85736 0.77363 0.4045 0.0
C35 C 0.87171 0.75184 0.43525 0.0
C36 C 0.90097 0.75872 0.42666 0.0
C37 C 0.90819 0.77226 0.40694 0.0
C38 C 0.88644 0.77972 0.39596 0.0
H39 H 0.06455 0.24103 0.57412 0.0
H40 H 0.15045 0.23183 0.58003 0.0
H41 H 0.09014 0.20965 0.63177 0.0
H42 H 0.16502 0.24327 0.64555 0.0
C43 C 0.17125 0.23683 0.62987 0.0
O44 O 0.14285 0.2129 0.61826 0.0
H45 H 0.18304 0.25937 0.62127 0.0
C46 C 0.0807 0.23527 0.58337 0.0
C47 C 0.07365 0.22503 0.6041 0.0
C48 C 0.10825 0.23765 0.57437 0.0
C49 C 0.12886 0.22984 0.58642 0.0
C50 C 0.12255 0.22028 0.60708 0.0
C51 C 0.0951 0.21792 0.61593 0.0
H52 H 0.77178 0.82846 0.59766 0.0
H53 H 0.78201 0.92426 0.59558 0.0
H54 H 0.80492 0.89601 0.65482 0.0
H55 H 0.76935 0.93464 0.65833 0.0
C56 C 0.77805 0.94827 0.64396 0.0
O57 O 0.80162 0.94273 0.63604 0.0
H58 H 0.75666 0.93894 0.63179 0.0
C59 C 0.77826 0.85216 0.60563 0.0
C60 C 0.78888 0.8592 0.6277 0.0
C61 C 0.77572 0.87544 0.59381 0.0
C62 C 0.78417 0.90611 0.60428 0.0
C63 C 0.79422 0.91325 0.62622 0.0
C64 C 0.7966 0.88991 0.6379 0.0
H65 H 0.18588 0.96376 0.59094 0.0
H66 H 0.09631 0.87059 0.58439 0.0
H67 H 0.12636 0.9316 0.64371 0.0
H68 H 0.09423 0.86024 0.64863 0.0
C69 C 0.07848 0.85067 0.63318 0.0
O70 O 0.08071 0.87673 0.62287 0.0
H71 H 0.08728 0.83698 0.62318 0.0
C72 C 0.16472 0.94529 0.59783 0.0
C73 C 0.1594 0.95134 0.61903 0.0
C74 C 0.14222 0.91627 0.58507 0.0
C75 C 0.114 0.89316 0.59382 0.0
C76 C 0.10842 0.89878 0.61489 0.0
C77 C 0.13102 0.92772 0.62742 0.0
H78 H 0.9048 0.39939 0.75651 0.0
H79 H 0.90728 0.49206 0.76189 0.0
H80 H 0.87363 0.43208 0.70198 0.0
H81 H 0.92395 0.50648 0.70324 0.0
C82 C 0.91203 0.51493 0.71477 0.0
O83 O 0.88613 0.488 0.72204 0.0
H84 H 0.93044 0.52996 0.72847 0.0
C85 C 0.90061 0.41754 0.7494 0.0
C86 C 0.8879 0.41176 0.7278 0.0
C87 C 0.90791 0.44647 0.76189 0.0
C88 C 0.90218 0.46973 0.75254 0.0
C89 C 0.89015 0.46464 0.73098 0.0
C90 C 0.88286 0.43568 0.71867 0.0
H91 H 0.61271 0.53715 0.76823 0.0
H92 H 0.52722 0.44168 0.75639 0.0
H93 H 0.58991 0.48019 0.70668 0.0
H94 H 0.51869 0.43181 0.68917 0.0
C95 C 0.5113 0.42282 0.70505 0.0
O96 O 0.53864 0.42926 0.71807 0.0
H97 H 0.49945 0.43599 0.71208 0.0
C98 C 0.59735 0.5155 0.75733 0.0
C99 C 0.60587 0.51267 0.73633 0.0
C100 C 0.56849 0.49056 0.76443 0.0
C101 C 0.54903 0.46157 0.75098 0.0
C102 C 0.55727 0.45789 0.73045 0.0
C103 C 0.58506 0.48346 0.72299 0.0
H104 H 0.51166 0.10283 0.77219 0.0
H105 H 0.60046 0.09989 0.76808 0.0
H106 H 0.56594 0.13539 0.71727 0.0
H107 H 0.59246 0.09188 0.70337 0.0
C108 C 0.61164 0.09923 0.71692 0.0
O109 O 0.61169 0.1231 0.73071 0.0
H110 H 0.60593 0.07722 0.72547 0.0
C111 C 0.53267 0.10747 0.76379 0.0
C112 C 0.53614 0.12052 0.74387 0.0
C113 C 0.55562 0.09991 0.77283 0.0
C114 C 0.58214 0.10504 0.76137 0.0
C115 C 0.58556 0.1174 0.74128 0.0
C116 C 0.56259 0.12508 0.73255 0.0
H117 H 0.73598 0.58559 0.91381 0.0
H118 H 0.82395 0.5805 0.91911 0.0
H119 H 0.76956 0.56545 0.97347 0.0
H120 H 0.84131 0.60231 0.98333 0.0
C121 C 0.84807 0.59091 0.97006 0.0
O122 O 0.82 0.56603 0.95867 0.0
H123 H 0.8623 0.61026 0.95943 0.0
C124 C 0.75341 0.58206 0.9234 0.0
C125 C 0.74852 0.57498 0.94496 0.0
C126 C 0.78094 0.58505 0.91398 0.0
C127 C 0.80308 0.5793 0.92611 0.0
C128 C 0.7986 0.57193 0.94737 0.0
C129 C 0.77178 0.57022 0.95681 0.0
H130 H 0.45004 0.15328 0.92516 0.0
H131 H 0.44797 0.2437 0.92774 0.0
H132 H 0.49175 0.22299 0.98143 0.0
H133 H 0.45045 0.25277 0.99137 0.0
C134 C 0.45648 0.26891 0.97806 0.0
O135 O 0.4781 0.26541 0.96597 0.0
H136 H 0.4334 0.26136 0.96795 0.0
C137 C 0.45568 0.17632 0.93376 0.0
C138 C 0.47229 0.18545 0.9545 0.0
C139 C 0.4464 0.197 0.92407 0.0
C140 C 0.4543 0.22711 0.93511 0.0
C141 C 0.47058 0.23629 0.95566 0.0
C142 C 0.47944 0.21556 0.96535 0.0
H143 H 0.85985 0.2937 0.9321 0.0
H144 H 0.77356 0.19797 0.9222 0.0
H145 H 0.7918 0.25982 0.98007 0.0
H146 H 0.76979 0.18896 0.98343 0.0
C147 C 0.75001 0.17826 0.97 0.0
O148 O 0.75122 0.2031 0.95867 0.0
H149 H 0.75428 0.16148 0.95927 0.0
C150 C 0.83777 0.27465 0.9378 0.0
C151 C 0.82871 0.28043 0.95782 0.0
C152 C 0.81836 0.245 0.92477 0.0
C153 C 0.78887 0.22109 0.93186 0.0
C154 C 0.77938 0.22649 0.95179 0.0
C155 C 0.79922 0.25612 0.96464 0.0
H156 H 0.5991 0.73835 0.09003 0.0
H157 H 0.58891 0.82413 0.09604 0.0
H158 H 0.55626 0.76238 0.03679 0.0
H159 H 0.59034 0.83224 0.03204 0.0
C160 C 0.58251 0.84129 0.04597 0.0
O161 O 0.5621 0.81529 0.05694 0.0
H162 H 0.60462 0.85871 0.0568 0.0
C163 C 0.59152 0.75435 0.08316 0.0
C164 C 0.5773 0.74691 0.06188 0.0
C165 C 0.59584 0.78208 0.0957 0.0
C166 C 0.58568 0.80252 0.08672 0.0
C167 C 0.57178 0.7955 0.06546 0.0
C168 C 0.56755 0.76778 0.0531 0.0
H169 H 0.29945 0.85114 0.10904 0.0
H170 H 0.2092 0.75925 0.09879 0.0
H171 H 0.26486 0.79861 0.04587 0.0
H172 H 0.19081 0.75856 0.03427 0.0
C173 C 0.18514 0.74458 0.04864 0.0
O174 O 0.21369 0.7483 0.05851 0.0
H175 H 0.17405 0.75477 0.05963 0.0
C176 C 0.28129 0.83077 0.09816 0.0
C177 C 0.28609 0.82894 0.07621 0.0
C178 C 0.25338 0.80631 0.1065 0.0
C179 C 0.23091 0.7785 0.09287 0.0
C180 C 0.23544 0.77569 0.0712 0.0
C181 C 0.26257 0.80097 0.06283 0.0
H182 H 0.17882 0.44958 0.11342 0.0
H183 H 0.2687 0.44817 0.11179 0.0
H184 H 0.23715 0.48554 0.06056 0.0
H185 H 0.269 0.4462 0.0463 0.0
C186 C 0.28402 0.4501 0.0616 0.0
O187 O 0.28263 0.47333 0.07521 0.0
H188 H 0.27383 0.42633 0.06884 0.0
C189 C 0.20061 0.45505 0.10572 0.0
C190 C 0.20538 0.4691 0.08612 0.0
C191 C 0.22312 0.44727 0.11523 0.0
C192 C 0.2507 0.45345 0.10467 0.0
C193 C 0.25553 0.46686 0.0849 0.0
C194 C 0.23287 0.47459 0.07563 0.0
H195 H 0.3958 0.91115 0.24111 0.0
H196 H 0.48215 0.90347 0.24843 0.0
H197 H 0.4281 0.89386 0.30236 0.0
H198 H 0.50175 0.93076 0.3114 0.0
C199 C 0.50703 0.91735 0.29854 0.0
O200 O 0.47802 0.89197 0.28847 0.0
H201 H 0.52072 0.93513 0.28688 0.0
C202 C 0.41274 0.90761 0.25124 0.0
C203 C 0.40759 0.90202 0.27298 0.0
C204 C 0.44005 0.90924 0.24234 0.0
C205 C 0.46148 0.90328 0.25507 0.0
C206 C 0.45686 0.89749 0.27653 0.0
C207 C 0.43039 0.89735 0.28553 0.0
H208 H 0.1182 0.50111 0.2627 0.0
H209 H 0.12997 0.59762 0.26155 0.0
H210 H 0.15381 0.56896 0.31999 0.0
H211 H 0.11854 0.60566 0.32556 0.0
C212 C 0.12548 0.61929 0.31106 0.0
O213 O 0.14919 0.61506 0.30207 0.0
H214 H 0.10321 0.60906 0.29956 0.0
C215 C 0.12533 0.52483 0.27088 0.0
C216 C 0.13601 0.53143 0.29301 0.0
C217 C 0.1237 0.54875 0.25918 0.0
C218 C 0.13203 0.57919 0.26998 0.0
C219 C 0.1422 0.58596 0.29186 0.0
C220 C 0.14481 0.56254 0.3032 0.0
H221 H 0.50875 0.63058 0.25635 0.0
H222 H 0.42445 0.53291 0.25013 0.0
H223 H 0.44992 0.59443 0.30888 0.0
H224 H 0.42959 0.52416 0.31164 0.0
C225 C 0.40867 0.51309 0.29898 0.0
O226 O 0.40768 0.5376 0.28848 0.0
H227 H 0.41248 0.49687 0.2874 0.0
C228 C 0.48834 0.61082 0.26302 0.0
C229 C 0.48238 0.61593 0.2842 0.0
C230 C 0.4677 0.58103 0.2503 0.0
C231 C 0.44055 0.55634 0.25924 0.0
C232 C 0.43415 0.56131 0.28023 0.0
C233 C 0.45496 0.59103 0.29261 0.0
C234 C 0.53893 0.02333 0.07225 0.0
Eu235 Eu 0.51971 0.01629 0.03158 0.0
C236 C 0.5267 0.01036 0.0927 0.0
C237 C 0.53977 0.03153 0.1116 0.0
C238 C 0.53043 0.01973 0.13144 0.0
C239 C 0.50786 0.98635 0.13285 0.0
C240 C 0.49397 0.96531 0.11377 0.0
C241 C 0.50332 0.97721 0.09384 0.0
C242 C 0.49831 0.05155 0.01093 0.0
C243 C 0.44436 0.95415 0.02032 0.0
C244 C 0.47426 0.98483 0.94401 0.0
Eu245 Eu 0.49193 0.99031 0.98477 0.0
C246 C 0.48641 1.00362 0.92525 0.0
C247 C 0.51711 0.01196 0.91841 0.0
C248 C 0.52743 0.02867 0.9001 0.0
C249 C 0.50741 0.03761 0.88839 0.0
C250 C 0.47695 0.02963 0.89546 0.0
C251 C 0.46654 0.01273 0.91364 0.0
C252 C 0.51621 0.95696 0.00517 0.0
C253 C 0.56727 0.05126 0.99571 0.0
O254 O 0.54163 1.00364 0.05804 0.0
O255 O 0.52797 0.04105 0.06368 0.0
O256 O 0.52346 0.06444 0.02511 0.0
O257 O 0.48433 0.02057 0.00927 0.0
O258 O 0.46944 0.97228 0.03484 0.0
O259 O 0.44593 0.95798 0.99966 0.0
O260 O 0.46423 0.99747 0.9588 0.0
O261 O 0.49057 0.97161 0.95203 0.0
O262 O 0.49085 0.94292 0.99113 0.0
O263 O 0.52843 0.98765 0.0067 0.0
O264 O 0.54083 0.03615 0.98189 0.0
O265 O 0.56641 0.04467 0.01597 0.0
H266 H 0.55766 0.05722 0.11105 0.0
H267 H 0.54111 0.03678 0.14574 0.0
H268 H 0.47663 0.93947 0.11426 0.0
H269 H 0.49277 0.96043 0.0794 0.0
H270 H 0.53311 1.00547 0.92711 0.0
H271 H 0.55116 0.03479 0.89518 0.0
H272 H 0.46081 0.03586 0.88666 0.0
H273 H 0.44275 1.00649 0.91853 0.0
C274 C 0.01927 0.53506 0.07512 0.0
Eu275 Eu 0.01217 0.51395 0.03487 0.0
C276 C 0.04003 0.54039 0.09505 0.0
C277 C 0.04647 0.51599 0.10164 0.0
C278 C 0.06317 0.52019 0.12171 0.0
C279 C 0.07401 0.54898 0.13544 0.0
C280 C 0.06862 0.57384 0.12842 0.0
C281 C 0.05169 0.56951 0.10845 0.0
C282 C 0.96945 0.4523 0.01699 0.0
C283 C 0.06742 0.49331 0.02454 0.0
C284 C 1.0043 0.45932 0.95008 0.0
Eu285 Eu 0.01955 0.49477 0.98659 0.0
C286 C 0.99088 0.45737 0.92782 0.0
C287 C 0.01157 0.47165 0.91166 0.0
C288 C 0.99859 0.46773 0.89041 0.0
C289 C 0.96467 0.44923 0.88488 0.0
C290 C 0.94405 0.43531 0.90111 0.0
C291 C 0.95697 0.43921 0.92228 0.0
C292 C 0.05884 0.56063 0.99736 0.0
C293 C 0.97143 0.52455 0.99675 0.0
O294 O 0.03259 0.5547 0.06018 0.0
O295 O 0.9995 0.50456 0.06742 0.0
O296 O 0.9611 0.46907 0.0296 0.0
O297 O 0.99952 0.46852 0.01492 0.0
O298 O 0.05613 0.50674 0.03832 0.0
O299 O 0.05533 0.48401 0.00421 0.0
O300 O 0.98419 0.45335 0.96491 0.0
O301 O 0.03413 0.48307 0.95641 0.0
O302 O 0.0567 0.54623 0.97855 0.0
O303 O 0.03967 0.5393 0.00864 0.0
O304 O 0.97882 0.50691 0.98338 0.0
O305 O 0.9842 0.53369 0.01697 0.0
H306 H 0.03798 0.49336 0.09153 0.0
H307 H 0.06735 0.50081 0.12658 0.0
H308 H 0.07644 0.59617 0.1387 0.0
H309 H 0.04693 0.58859 0.10372 0.0
H310 H 0.03781 0.48537 0.91535 0.0
H311 H 0.01515 0.47844 0.87823 0.0
H312 H 0.91781 0.42128 0.89744 0.0
H313 H 0.94028 0.42754 0.93425 0.0
C314 C 0.48927 0.49559 0.94636 0.0
Eu315 Eu 0.51205 0.51222 0.98656 0.0
C316 C 0.50261 0.50035 0.92541 0.0
C317 C 0.53438 0.52559 0.92306 0.0
C318 C 0.54727 0.52827 0.90323 0.0
C319 C 0.52867 0.50561 0.88545 0.0
C320 C 0.49681 0.48044 0.88802 0.0
C321 C 0.48395 0.47791 0.90777 0.0
C322 C 0.53688 0.57074 0.0103 0.0
C323 C 0.58634 0.53247 1.00141 0.0
C324 C 0.5537 0.53477 0.07738 0.0
Eu325 Eu 0.53299 0.51522 0.03712 0.0
C326 C 0.54788 0.54797 0.09739 0.0
C327 C 0.56829 0.55322 0.11592 0.0
C328 C 0.56163 0.56209 0.13578 0.0
C329 C 0.53441 0.5662 0.1376 0.0
C330 C 0.51429 0.56158 0.11879 0.0
C331 C 0.52089 0.55238 0.09885 0.0
C332 C 0.51663 0.45624 0.01589 0.0
C333 C 0.45727 0.49152 0.02126 0.0
O334 O 0.49576 0.47727 0.95827 0.0
O335 O 0.49205 0.52147 0.95734 0.0
O336 O 0.54095 0.56812 0.9901 0.0
O337 O 0.51851 0.54288 0.01629 0.0
O338 O 0.56321 0.52207 0.98535 0.0
O339 O 0.58116 0.53454 0.02192 0.0
O340 O 0.56536 0.55421 0.06203 0.0
O341 O 0.53158 0.50458 0.0703 0.0
O342 O 0.52609 0.46355 0.03621 0.0
O343 O 0.51724 0.48072 0.00859 0.0
O344 O 0.48035 0.50296 0.03759 0.0
O345 O 0.46351 0.49017 1.00096 0.0
H346 H 0.54932 0.54296 0.9366 0.0
H347 H 0.57176 0.5481 0.90183 0.0
H348 H 0.48198 0.46211 0.8749 0.0
H349 H 0.45955 0.45799 0.90937 0.0
H350 H 0.58895 0.54943 0.11515 0.0
H351 H 0.57732 0.56466 0.14982 0.0
H352 H 0.49333 0.56484 0.11948 0.0
H353 H 0.5046 0.54804 0.08472 0.0
C354 C 0.20334 0.36817 0.40948 0.0
Eu355 Eu 0.18382 0.36086 0.3689 0.0
C356 C 0.18851 0.35413 0.42913 0.0
C357 C 0.15771 0.34921 0.43342 0.0
C358 C 0.14413 0.33558 0.45212 0.0
C359 C 0.1609 0.32623 0.46669 0.0
C360 C 0.19157 0.33096 0.46223 0.0
C361 C 0.20525 0.34486 0.44367 0.0
C362 C 0.16597 0.3975 0.34661 0.0
C363 C 0.10593 0.30406 0.36125 0.0
C364 C 0.13257 0.32232 0.28276 0.0
Eu365 Eu 0.15178 0.33064 0.32341 0.0
C366 C 0.14475 0.34097 0.26394 0.0
C367 C 0.1757 0.34969 0.25743 0.0
C368 C 0.18659 0.36717 0.23949 0.0
C369 C 0.16688 0.37648 0.22779 0.0
C370 C 0.13606 0.36796 0.23446 0.0
C371 C 0.1251 0.35032 0.2523 0.0
C372 C 0.17151 0.29492 0.34545 0.0
C373 C 0.22927 0.38844 0.3313 0.0
O374 O 0.20577 0.34813 0.39544 0.0
O375 O 0.19429 0.38719 0.40057 0.0
O376 O 0.191 0.41004 0.36088 0.0
O377 O 0.14989 0.36658 0.34619 0.0
O378 O 0.13239 0.32207 0.37465 0.0
O379 O 0.10619 0.30434 0.34023 0.0
O380 O 0.12222 0.33501 0.2973 0.0
O381 O 0.14937 0.30981 0.2911 0.0
O382 O 0.14544 0.28206 0.33205 0.0
O383 O 0.18685 0.32581 0.34556 0.0
O384 O 0.20197 0.37304 0.31827 0.0
O385 O 0.22952 0.38463 0.352 0.0
H386 H 0.14408 0.35577 0.42232 0.0
H387 H 0.12033 0.33192 0.45503 0.0
H388 H 0.20522 0.32432 0.47325 0.0
H389 H 0.22897 0.34834 0.44064 0.0
H390 H 0.19157 0.34307 0.26616 0.0
H391 H 0.2106 0.37371 0.23491 0.0
H392 H 0.12015 0.37447 0.22566 0.0
H393 H 0.10116 0.34389 0.25698 0.0
C394 C 0.66704 0.85795 0.40921 0.0
Eu395 Eu 0.668 0.84167 0.36896 0.0
C396 C 0.68468 0.86126 0.4301 0.0
C397 C 0.6673 0.8524 0.44821 0.0
C398 C 0.68332 0.85553 0.4683 0.0
C399 C 0.71716 0.86773 0.47069 0.0
C400 C 0.73453 0.87631 0.45244 0.0
C401 C 0.71841 0.87297 0.43228 0.0
C402 C 0.62554 0.78226 0.34773 0.0
C403 C 0.72155 0.81785 0.36466 0.0
C404 C 0.68558 0.81156 0.28559 0.0
Eu405 Eu 0.68517 0.8297 0.32549 0.0
C406 C 0.67209 0.81235 0.26404 0.0
C407 C 0.6935 0.82652 0.24831 0.0
C408 C 0.68151 0.82635 0.22746 0.0
C409 C 0.64775 0.81167 0.22183 0.0
C410 C 0.62633 0.79814 0.23778 0.0
C411 C 0.63838 0.79852 0.25871 0.0
C412 C 0.72894 0.88871 0.34623 0.0
C413 C 0.63324 0.85638 0.33025 0.0
O414 O 0.68294 0.87928 0.39568 0.0
O415 O 0.64906 0.82811 0.39994 0.0
O416 O 0.61654 0.7997 0.35902 0.0
O417 O 0.65619 0.79635 0.34867 0.0
O418 O 0.71106 0.8342 0.37642 0.0
O419 O 0.71108 0.80851 0.34417 0.0
O420 O 0.66524 0.79211 0.29844 0.0
O421 O 0.70776 0.83981 0.29544 0.0
O422 O 0.73656 0.87045 0.33457 0.0
O423 O 0.69827 0.87572 0.34587 0.0
O424 O 0.6448 0.84175 0.31775 0.0
O425 O 0.64174 0.86273 0.35107 0.0
H426 H 0.64126 0.84326 0.44684 0.0
H427 H 0.66932 0.84911 0.48207 0.0
H428 H 0.76056 0.88547 0.45374 0.0
H429 H 0.73228 0.87965 0.41845 0.0
H430 H 0.71959 0.83747 0.25209 0.0
H431 H 0.69874 0.83755 0.21571 0.0
H432 H 0.60018 0.78639 0.23395 0.0
H433 H 0.62129 0.78753 0.27058 0.0
C434 C 0.15269 0.81561 0.27955 0.0
Eu435 Eu 0.17019 0.84156 0.31911 0.0
C436 C 0.16747 0.80897 0.26127 0.0
C437 C 0.19986 0.83091 0.2575 0.0
C438 C 0.21234 0.82606 0.23884 0.0
C439 C 0.19278 0.79904 0.2237 0.0
C440 C 0.16081 0.77642 0.228 0.0
C441 C 0.14828 0.78142 0.24659 0.0
C442 C 0.17992 0.90069 0.33441 0.0
C443 C 0.24931 0.8719 0.33059 0.0
C444 C 0.22486 0.90496 0.40385 0.0
Eu445 Eu 0.20337 0.86803 0.36765 0.0
C446 C 0.21626 0.90399 0.42629 0.0
C447 C 0.23108 0.89448 0.44218 0.0
C448 C 0.22413 0.89516 0.46353 0.0
C449 C 0.20233 0.90554 0.46953 0.0
C450 C 0.1874 0.91488 0.4536 0.0
C451 C 0.19435 0.91422 0.43228 0.0
C452 C 0.18309 0.80296 0.35902 0.0
C453 C 0.12343 0.82842 0.35714 0.0
O454 O 0.14841 0.7981 0.29585 0.0
O455 O 0.16305 0.84657 0.28541 0.0
O456 O 0.15508 0.87986 0.32125 0.0
O457 O 0.19935 0.8901 0.33812 0.0
O458 O 0.22312 0.8558 0.31659 0.0
O459 O 0.24843 0.88155 0.35065 0.0
O460 O 0.20507 0.90659 0.38917 0.0
O461 O 0.23596 0.88578 0.39726 0.0
O462 O 0.19625 0.81894 0.37775 0.0
O463 O 0.18115 0.82236 0.34699 0.0
O464 O 0.14955 0.8491 0.37029 0.0
O465 O 0.1252 0.8188 0.33719 0.0
H466 H 0.21527 0.85224 0.2687 0.0
H467 H 0.2372 0.84366 0.23613 0.0
H468 H 0.14503 0.75552 0.21659 0.0
H469 H 0.12324 0.76423 0.2492 0.0
H470 H 0.24831 0.88678 0.43817 0.0
H471 H 0.23586 0.88753 0.47535 0.0
H472 H 0.17095 0.92357 0.45768 0.0
H473 H 0.18284 0.92223 0.42056 0.0
C474 C 0.86678 0.70533 0.74326 0.0
Eu475 Eu 0.84472 0.69265 0.70275 0.0
C476 C 0.85764 0.69111 0.76386 0.0
C477 C 0.87229 0.71145 0.78298 0.0
C478 C 0.86495 0.69864 0.80279 0.0
C479 C 0.84279 0.66507 0.80396 0.0
C480 C 0.82761 0.64478 0.78469 0.0
C481 C 0.83498 0.65769 0.7648 0.0
C482 C 0.82407 0.72662 0.67893 0.0
C483 C 0.772 0.63586 0.68768 0.0
C484 C 0.8088 0.65827 0.61427 0.0
Eu485 Eu 0.82937 0.67023 0.65495 0.0
C486 C 0.82112 0.67182 0.59395 0.0
C487 C 0.8096 0.65091 0.5749 0.0
C488 C 0.82093 0.66301 0.55541 0.0
C489 C 0.84393 0.69643 0.5545 0.0
C490 C 0.8557 0.71727 0.57377 0.0
C491 C 0.84453 0.70504 0.59331 0.0
C492 C 0.85344 0.63865 0.67767 0.0
C493 C 0.90279 0.72565 0.67058 0.0
O494 O 0.87468 0.68966 0.72915 0.0
O495 O 0.84896 0.71644 0.73458 0.0
O496 O 0.81707 0.72042 0.69844 0.0
O497 O 0.843 0.71662 0.67373 0.0
O498 O 0.79419 0.65056 0.70419 0.0
O499 O 0.77925 0.64107 0.66763 0.0
O500 O 0.80272 0.67626 0.62781 0.0
O501 O 0.82307 0.64407 0.62371 0.0
O502 O 0.86005 0.64641 0.65832 0.0
O503 O 0.83298 0.64631 0.68382 0.0
O504 O 0.88034 0.71279 0.65402 0.0
O505 O 0.89507 0.71905 0.6904 0.0
H506 H 0.88964 0.73733 0.7826 0.0
H507 H 0.87663 0.71516 0.81724 0.0
H508 H 0.81059 0.61881 0.78495 0.0
H509 H 0.82328 0.64158 0.75019 0.0
H510 H 0.79184 0.62511 0.57509 0.0
H511 H 0.81179 0.64601 0.54106 0.0
H512 H 0.87316 0.74317 0.57375 0.0
H513 H 0.85413 0.72155 0.60786 0.0
C514 C 0.35693 0.19241 0.73996 0.0
Eu515 Eu 0.35137 0.17877 0.69864 0.0
C516 C 0.36801 0.18378 0.75975 0.0
C517 C 0.34541 0.16694 0.77437 0.0
C518 C 0.35567 0.16103 0.79405 0.0
C519 C 0.38889 0.17223 0.79968 0.0
C520 C 0.41135 0.18789 0.78463 0.0
C521 C 0.40102 0.19359 0.76485 0.0
C522 C 0.30707 0.11933 0.67803 0.0
C523 C 0.40233 0.15445 0.68648 0.0
C524 C 0.35392 0.15392 0.61178 0.0
Eu525 Eu 0.36032 0.16977 0.65292 0.0
C526 C 0.33811 0.15619 0.59155 0.0
C527 C 0.35763 0.17262 0.57538 0.0
C528 C 0.34341 0.17279 0.55535 0.0
C529 C 0.3093 0.15627 0.55104 0.0
C530 C 0.28972 0.14063 0.56746 0.0
C531 C 0.30399 0.14065 0.58757 0.0
C532 C 0.40602 0.22875 0.67304 0.0
C533 C 0.31218 0.19764 0.66625 0.0
O534 O 0.3791 0.21045 0.72755 0.0
O535 O 0.33014 0.16925 0.72919 0.0
O536 O 0.29957 0.13576 0.69148 0.0
O537 O 0.33729 0.1344 0.6765 0.0
O538 O 0.39349 0.16904 0.70099 0.0
O539 O 0.38928 0.14759 0.66641 0.0
O540 O 0.33526 0.13406 0.62516 0.0
O541 O 0.37789 0.18135 0.62142 0.0
O542 O 0.41215 0.21136 0.6594 0.0
O543 O 0.37581 0.2148 0.6751 0.0
O544 O 0.31806 0.18058 0.65144 0.0
O545 O 0.32738 0.20526 0.68565 0.0
H546 H 0.31982 0.15901 0.77079 0.0
H547 H 0.33765 0.14835 0.80509 0.0
H548 H 0.43714 0.19709 0.78849 0.0
H549 H 0.41906 0.20652 0.75387 0.0
H550 H 0.38398 0.1846 0.57803 0.0
H551 H 0.35912 0.18467 0.54296 0.0
H552 H 0.26337 0.12793 0.56462 0.0
H553 H 0.28829 0.12788 0.59978 0.0
C554 C 0.82879 0.16199 0.61516 0.0
Eu555 Eu 0.84543 0.18151 0.65591 0.0
C556 C 0.84477 0.16208 0.59571 0.0
C557 C 0.87808 0.18424 0.59455 0.0
C558 C 0.89229 0.18536 0.5754 0.0
C559 C 0.87326 0.16465 0.55705 0.0
C560 C 0.84008 0.14204 0.5585 0.0
C561 C 0.82602 0.14075 0.57766 0.0
C562 C 0.86322 0.24212 0.67416 0.0
C563 C 0.92349 0.20566 0.66739 0.0
C564 C 0.89582 0.23162 0.7427 0.0
Eu565 Eu 0.87727 0.20026 0.7046 0.0
C566 C 0.8815 0.22772 0.76355 0.0
C567 C 0.89488 0.21993 0.78126 0.0
C568 C 0.88209 0.21723 0.80113 0.0
C569 C 0.85572 0.22249 0.80382 0.0
C570 C 0.84226 0.23007 0.78599 0.0
C571 C 0.8549 0.23258 0.76615 0.0
C572 C 0.85096 0.1346 0.69352 0.0
C573 C 0.79789 0.16758 0.69271 0.0
O574 O 0.82842 0.14275 0.62952 0.0
O575 O 0.83508 0.1907 0.62368 0.0
O576 O 0.8372 0.22473 0.66098 0.0
O577 O 0.87885 0.22718 0.67657 0.0
O578 O 0.89718 0.1921 0.65339 0.0
O579 O 0.9228 0.21367 0.68791 0.0
O580 O 0.88204 0.23927 0.72711 0.0
O581 O 0.90424 0.21018 0.73615 0.0
O582 O 0.86575 0.14904 0.71228 0.0
O583 O 0.85121 0.1559 0.6822 0.0
O584 O 0.82418 0.18632 0.70627 0.0
O585 O 0.79964 0.15857 0.67269 0.0
H586 H 0.89288 0.20115 0.60828 0.0
H587 H 0.91786 0.20311 0.57476 0.0
H588 H 0.8249 0.1254 0.54475 0.0
H589 H 0.80031 0.12347 0.57826 0.0
H590 H 0.9154 0.2161 0.77977 0.0
H591 H 0.89286 0.21093 0.81438 0.0
H592 H 0.82236 0.23487 0.78744 0.0
H593 H 0.84395 0.23875 0.75292 0.0
H594 H 0.31871 0.82593 0.0417 0.0
H595 H 0.31992 0.89493 0.09063 0.0
H596 H 0.36936 0.93853 0.07865 0.0
H597 H 0.41301 0.95785 0.05433 0.0
H598 H 0.4075 0.89133 1.00227 0.0
H599 H 0.35865 0.84647 0.01502 0.0
C600 C 0.32918 0.85049 0.04961 0.0
C601 C 0.31542 0.85631 0.06757 0.0
C602 C 0.35704 0.87623 0.04197 0.0
C603 C 0.33019 0.88875 0.07742 0.0
C604 C 0.35847 0.91411 0.07039 0.0
C605 C 0.40096 0.93353 0.04578 0.0
C606 C 0.41385 0.92777 0.02749 0.0
C607 C 0.37228 0.90813 0.05279 0.0
C608 C 0.39788 0.89631 0.01635 0.0
C609 C 0.37004 0.87066 0.02369 0.0
H610 H 0.17778 0.45751 0.0448 0.0
H611 H 0.17939 0.50111 0.10743 0.0
H612 H 0.13732 0.51267 0.09396 0.0
H613 H 0.09891 0.50903 0.06481 0.0
H614 H 0.09678 0.46538 1.00199 0.0
H615 H 0.14021 0.45548 0.01509 0.0
C616 C 0.16919 0.4699 0.05539 0.0
C617 C 0.18158 0.47821 0.07712 0.0
C618 C 0.14475 0.47636 0.04756 0.0
C619 C 0.16996 0.49403 0.09071 0.0
C620 C 0.14594 0.50074 0.08301 0.0
C621 C 0.10792 0.49741 0.0539 0.0
C622 C 0.09436 0.4879 0.03242 0.0
C623 C 0.13289 0.4917 0.06153 0.0
C624 C 0.10658 0.47293 0.01861 0.0
C625 C 0.1315 0.46725 0.02609 0.0
H626 H 0.55311 0.68591 0.07482 0.0
H627 H 0.58999 0.74084 0.02036 0.0
H628 H 0.58228 0.69147 0.99974 0.0
H629 H 0.5645 0.63233 0.9972 0.0
H630 H 0.526 0.57781 0.0516 0.0
H631 H 0.53576 0.62749 0.07244 0.0
C632 C 0.55977 0.68716 0.0585 0.0
C633 C 0.57223 0.71699 0.04916 0.0
C634 C 0.55527 0.6588 0.04681 0.0
C635 C 0.58011 0.71807 0.02785 0.0
C636 C 0.57589 0.68992 0.01611 0.0
C637 C 0.55856 0.63149 0.01367 0.0
C638 C 0.54498 0.60156 0.02296 0.0
C639 C 0.56347 0.66012 0.02542 0.0
C640 C 0.53697 0.60065 0.04422 0.0
C641 C 0.5423 0.62901 0.0561 0.0
H642 H 0.89492 0.31258 0.96489 0.0
H643 H 0.81122 0.31927 0.98119 0.0
H644 H 0.84718 0.3725 1.00158 0.0
H645 H 0.90283 0.41848 0.01353 0.0
H646 H 0.986 0.41142 0.9964 0.0
H647 H 0.94991 0.35738 0.97732 0.0
C648 C 0.88448 0.32573 0.97279 0.0
C649 C 0.85036 0.31196 0.97133 0.0
C650 C 0.90528 0.35646 0.98423 0.0
C651 C 0.83734 0.32909 0.98213 0.0
C652 C 0.85792 0.35968 0.99369 0.0
C653 C 0.91296 0.40498 0.00569 0.0
C654 C 0.94704 0.41906 0.00619 0.0
C655 C 0.89197 0.37377 0.99468 0.0
C656 C 0.95987 0.40126 0.99607 0.0
C657 C 0.93924 0.37032 0.98517 0.0
H658 H 0.71627 0.53864 0.9779 0.0
H659 H 0.71453 0.6069 0.93524 0.0
H660 H 0.66479 0.59959 0.94878 0.0
H661 H 0.6202 0.57248 0.97185 0.0
H662 H 0.62553 0.51051 0.01787 0.0
H663 H 0.67616 0.51787 0.00451 0.0
C664 C 0.70573 0.55265 0.97177 0.0
C665 C 0.71932 0.57263 0.95491 0.0
C666 C 0.67769 0.5497 0.98042 0.0
C667 C 0.70439 0.59011 0.94739 0.0
C668 C 0.67596 0.58637 0.95538 0.0
C669 C 0.63281 0.56104 0.97915 0.0
C670 C 0.61927 0.54095 0.99576 0.0
C671 C 0.66216 0.56593 0.97168 0.0
C672 C 0.63574 0.52632 0.00518 0.0
C673 C 0.66451 0.53033 0.99742 0.0
H674 H 0.43743 0.11863 0.95491 0.0
H675 H 0.53017 0.20406 0.97748 0.0
H676 H 0.54613 0.17001 0.99669 0.0
H677 H 0.53345 0.11652 0.00792 0.0
H678 H 0.44156 0.03044 0.98526 0.0
H679 H 0.42573 0.06408 0.96491 0.0
C680 C 0.46128 0.12971 0.9638 0.0
C681 C 0.48241 0.16395 0.96493 0.0
C682 C 0.47043 0.1099 0.9748 0.0
C683 C 0.51316 0.17792 0.97668 0.0
C684 C 0.5224 0.15845 0.9876 0.0
C685 C 0.50994 0.1051 0.99853 0.0
C686 C 0.48861 0.07114 0.99814 0.0
C687 C 0.50112 0.12453 0.98697 0.0
C688 C 0.45838 0.05658 0.98574 0.0
C689 C 0.44933 0.07582 0.97417 0.0
H690 H 0.69046 0.14122 0.94714 0.0
H691 H 0.73617 0.17072 0.01191 0.0
H692 H 0.68392 0.1348 0.02565 0.0
H693 H 0.62556 0.09302 0.01919 0.0
H694 H 0.57975 0.06392 0.95426 0.0
H695 H 0.63135 0.10151 0.94077 0.0
C696 C 0.68877 0.13998 0.96426 0.0
C697 C 0.71709 0.15857 0.97847 0.0
C698 C 0.65861 0.11913 0.97205 0.0
C699 C 0.71471 0.1567 1.00063 0.0
C700 C 0.68485 0.13607 0.0085 0.0
C701 C 0.62681 0.09494 1.00209 0.0
C702 C 0.59869 0.07537 0.98783 0.0
C703 C 0.65669 0.11681 0.99436 0.0
C704 C 0.60087 0.07851 0.96571 0.0
C705 C 0.63046 0.10005 0.95791 0.0
H706 H 0.87615 0.56214 0.94743 0.0
H707 H 0.86771 0.59088 0.01204 0.0
H708 H 0.90483 0.57293 0.026 0.0
H709 H 0.94084 0.55033 0.01979 0.0
H710 H 0.94871 0.5208 0.95507 0.0
H711 H 0.9108 0.53766 0.94129 0.0
C712 C 0.88231 0.56416 0.96456 0.0
C713 C 0.86921 0.57774 0.97869 0.0
C714 C 0.90372 0.55381 0.97247 0.0
C715 C 0.87742 0.58043 1.00086 0.0
C716 C 0.89871 0.57024 0.00884 0.0
C717 C 0.93432 0.54758 1.00267 0.0
C718 C 0.94787 0.53443 0.98854 0.0
C719 C 0.91225 0.55715 0.99479 0.0
C720 C 0.93877 0.53082 0.96639 0.0
C721 C 0.91705 0.54049 0.95844 0.0
H722 H 0.44768 0.31731 0.96264 0.0
H723 H 0.50014 0.2991 0.01322 0.0
H724 H 0.52493 0.35617 0.0286 0.0
H725 H 0.52984 0.41036 0.02842 0.0
H726 H 0.47587 0.4284 0.97889 0.0
H727 H 0.45376 0.37246 0.96201 0.0
C728 C 0.46449 0.32596 0.97705 0.0
C729 C 0.47166 0.30409 0.98713 0.0
C730 C 0.4785 0.35872 0.9858 0.0
C731 C 0.49394 0.31552 0.00551 0.0
C732 C 0.50812 0.34807 0.01423 0.0
C733 C 0.51346 0.4021 0.01381 0.0
C734 C 0.50499 0.4236 0.00457 0.0
C735 C 0.50031 0.36975 0.00463 0.0
C736 C 0.48361 0.41265 0.98578 0.0
C737 C 0.47061 0.3805 0.97636 0.0
H738 H 0.16283 0.71209 0.00851 0.0
H739 H 0.15315 0.69678 0.07533 0.0
H740 H 0.1124 0.63864 0.06575 0.0
H741 H 0.07968 0.59198 0.03802 0.0
H742 H 0.09024 0.60818 0.97131 0.0
H743 H 0.13028 0.66597 0.98108 0.0
C744 C 0.1518 0.69598 0.02095 0.0
C745 C 0.16084 0.70861 0.04258 0.0
C746 C 0.1284 0.66275 0.01529 0.0
C747 C 0.14646 0.68748 0.05856 0.0
C748 C 0.12316 0.65433 0.05308 0.0
C749 C 0.09042 0.60831 0.02569 0.0
C750 C 0.08173 0.59588 1.00398 0.0
C751 C 0.11381 0.64166 0.03146 0.0
C752 C 0.09643 0.61716 0.98814 0.0
C753 C 0.1194 0.65024 0.99371 0.0
H754 H 0.30764 0.44645 0.02352 0.0
H755 H 0.33803 0.47614 0.09085 0.0
H756 H 0.39409 0.49118 0.08456 0.0
H757 H 0.43441 0.49577 0.05979 0.0
H758 H 0.40315 0.465 0.99242 0.0
H759 H 0.34768 0.45048 0.99889 0.0
C760 C 0.32664 0.45653 0.03677 0.0
C761 C 0.31892 0.46097 0.05754 0.0
C762 C 0.35866 0.46475 0.03304 0.0
C763 C 0.34358 0.47323 0.07465 0.0
C764 C 0.37556 0.48164 0.07106 0.0
C765 C 0.41549 0.48578 0.04651 0.0
C766 C 0.4232 0.48156 0.02563 0.0
C767 C 0.38341 0.47749 0.05031 0.0
C768 C 0.39817 0.46861 0.00867 0.0
C769 C 0.36632 0.4603 0.01233 0.0
H770 H 0.60187 0.90647 0.05154 0.0
H771 H 0.52411 0.8137 0.02149 0.0
H772 H 0.49593 0.84099 0.00679 0.0
H773 H 0.49426 0.89156 1.00182 0.0
H774 H 0.57329 0.98455 0.03081 0.0
H775 H 0.60003 0.95692 0.04678 0.0
C776 C 0.57864 0.89227 0.0419 0.0
C777 C 0.5648 0.85814 0.03777 0.0
C778 C 0.56287 0.90818 0.03334 0.0
C779 C 0.53494 0.83999 0.02502 0.0
C780 C 0.51892 0.85557 0.0166 0.0
C781 C 0.51727 0.9057 0.0117 0.0
C782 C 0.53171 0.93998 0.01525 0.0
C783 C 0.53275 0.88969 0.02057 0.0
C784 C 0.56156 0.95809 0.02802 0.0
C785 C 0.57693 0.94233 0.03708 0.0
H786 H 0.98171 0.23247 0.41198 0.0
H787 H 0.9741 0.1477 0.37598 0.0
H788 H 0.02126 0.1832 0.35776 0.0
H789 H 0.06591 0.23846 0.35227 0.0
H790 H 0.07825 0.32222 0.39172 0.0
H791 H 0.02857 0.28705 0.40855 0.0
C792 C 0.99049 0.22149 0.40044 0.0
C793 C 0.9735 0.18714 0.39528 0.0
C794 C 0.01867 0.24203 0.39051 0.0
C795 C 0.98559 0.17394 0.37996 0.0
C796 C 0.01294 0.19426 0.36958 0.0
C797 C 0.05741 0.24891 0.36441 0.0
C798 C 0.07516 0.28283 0.37051 0.0
C799 C 0.02961 0.22834 0.37464 0.0
C800 C 0.06462 0.29614 0.38665 0.0
C801 C 0.03632 0.27604 0.3963 0.0
H802 H 0.82485 0.80141 0.42227 0.0
H803 H 0.8374 0.76401 0.36144 0.0
H804 H 0.79659 0.77429 0.34359 0.0
H805 H 0.75597 0.7925 0.34553 0.0
H806 H 0.7435 0.82872 0.40696 0.0
H807 H 0.78504 0.81962 0.42423 0.0
C808 C 0.81852 0.79523 0.40511 0.0
C809 C 0.83405 0.78169 0.39327 0.0
C810 C 0.79476 0.80075 0.39504 0.0
C811 C 0.82606 0.77467 0.37096 0.0
C812 C 0.80251 0.7803 0.36076 0.0
C813 C 0.76225 0.79827 0.3627 0.0
C814 C 0.74641 0.81119 0.37486 0.0
C815 C 0.78645 0.79307 0.37267 0.0
C816 C 0.75513 0.81874 0.3971 0.0
C817 C 0.77899 0.81359 0.40706 0.0
H818 H 0.17204 0.02479 0.36823 0.0
H819 H 0.26764 0.0536 0.39802 0.0
H820 H 0.26392 1.0036 0.3813 0.0
H821 H 0.23259 0.95063 0.35895 0.0
H822 H 0.13622 0.92143 0.33027 0.0
H823 H 0.14127 0.97261 0.34551 0.0
C824 C 0.19223 0.02034 0.37077 0.0
C825 C 0.22006 0.04286 0.3843 0.0
C826 C 0.18972 0.99132 0.36137 0.0
C827 C 0.24586 0.03651 0.38775 0.0
C828 C 0.24376 0.00794 0.37819 0.0
C829 C 0.21271 0.9555 0.35613 0.0
C830 C 0.18398 0.93216 0.34367 0.0
C831 C 0.21563 0.98494 0.36517 0.0
C832 C 0.15856 0.93894 0.33989 0.0
C833 C 0.1614 0.96822 0.3486 0.0
H834 H 0.5487 0.64778 0.28922 0.0
H835 H 0.46648 0.65438 0.30904 0.0
H836 H 0.50342 0.70629 0.33052 0.0
H837 H 0.55925 0.75029 0.34332 0.0
H838 H 0.6413 0.74259 0.3244 0.0
H839 H 0.6044 0.69092 0.30277 0.0
C840 C 0.53891 0.66069 0.29816 0.0
C841 C 0.50489 0.6473 0.29747 0.0
C842 C 0.56029 0.69041 0.31058 0.0
C843 C 0.49254 0.66405 0.30942 0.0
C844 C 0.51366 0.6938 0.32163 0.0
C845 C 0.56901 0.73723 0.33449 0.0
C846 C 0.60298 0.75043 0.33525 0.0
C847 C 0.54758 0.70725 0.32231 0.0
C848 C 0.61528 0.73316 0.32385 0.0
C849 C 0.59417 0.70355 0.31153 0.0
H850 H 0.37498 0.8691 0.30686 0.0
H851 H 0.37451 0.93412 0.26099 0.0
H852 H 0.32542 0.92941 0.27398 0.0
H853 H 0.28145 0.90627 0.2981 0.0
H854 H 0.28665 0.84864 0.34738 0.0
H855 H 0.33561 0.85208 0.33384 0.0
C856 C 0.36488 0.88298 0.29987 0.0
C857 C 0.37867 0.90125 0.28238 0.0
C858 C 0.33734 0.8817 0.3082 0.0
C859 C 0.36422 0.91855 0.27372 0.0
C860 C 0.33615 0.91633 0.28138 0.0
C861 C 0.29364 0.89485 0.30597 0.0
C862 C 0.28065 0.87723 0.32366 0.0
C863 C 0.32231 0.89776 0.29847 0.0
C864 C 0.29651 0.86255 0.33382 0.0
C865 C 0.32435 0.86437 0.32601 0.0
H866 H 0.14988 0.48353 0.27919 0.0
H867 H 0.12581 0.52142 0.33534 0.0
H868 H 0.13308 0.4837 0.35662 0.0
H869 H 0.14796 0.44089 0.35985 0.0
H870 H 0.16662 0.3992 0.3034 0.0
H871 H 0.15863 0.43653 0.28157 0.0
C872 C 0.14551 0.48326 0.29595 0.0
C873 C 0.13797 0.50618 0.30554 0.0
C874 C 0.14853 0.46052 0.3081 0.0
C875 C 0.13282 0.50519 0.32747 0.0
C876 C 0.13659 0.48326 0.33971 0.0
C877 C 0.14981 0.4398 0.34271 0.0
C878 C 0.15757 0.4173 0.33314 0.0
C879 C 0.14481 0.46109 0.33028 0.0
C880 C 0.16009 0.41599 0.31099 0.0
C881 C 0.1558 0.43755 0.29857 0.0
H882 H 0.3483 0.47318 0.27807 0.0
H883 H 0.39841 0.50733 0.34156 0.0
H884 H 0.34768 0.472 0.3572 0.0
H885 H 0.28918 0.43038 0.35277 0.0
H886 H 0.23895 0.39692 0.28909 0.0
H887 H 0.28934 0.4328 0.27368 0.0
C888 C 0.34793 0.47293 0.29533 0.0
C889 C 0.37698 0.49268 0.30864 0.0
C890 C 0.31865 0.45253 0.30419 0.0
C891 C 0.37634 0.49227 0.33099 0.0
C892 C 0.34735 0.47203 0.33992 0.0
C893 C 0.28923 0.43088 0.33552 0.0
C894 C 0.2602 0.4107 0.32217 0.0
C895 C 0.31838 0.45184 0.32668 0.0
C896 C 0.26081 0.412 0.29983 0.0
C897 C 0.28969 0.43258 0.29095 0.0
H898 H 0.54137 0.89456 0.27701 0.0
H899 H 0.51935 0.91091 0.34063 0.0
H900 H 0.55612 0.89343 0.35593 0.0
H901 H 0.59586 0.8753 0.35136 0.0
H902 H 0.61757 0.85782 0.28774 0.0
H903 H 0.57974 0.87392 0.27233 0.0
C904 C 0.54459 0.89407 0.2942 0.0
C905 C 0.52801 0.90433 0.30772 0.0
C906 C 0.56587 0.88401 0.30289 0.0
C907 C 0.53206 0.90337 0.32995 0.0
C908 C 0.55312 0.89344 0.33869 0.0
C909 C 0.59242 0.87504 0.33411 0.0
C910 C 0.60986 0.86563 0.32077 0.0
C911 C 0.57044 0.88408 0.32534 0.0
C912 C 0.60463 0.86505 0.29843 0.0
C913 C 0.58297 0.87426 0.28959 0.0
H914 H 0.1401 0.65258 0.35082 0.0
H915 H 0.13819 0.66625 0.28358 0.0
H916 H 0.1558 0.72441 0.29224 0.0
H917 H 0.17138 0.7712 0.3192 0.0
H918 H 0.17266 0.757 0.38635 0.0
H919 H 0.15595 0.69931 0.37761 0.0
C920 C 0.14363 0.66837 0.33811 0.0
C921 C 0.13775 0.65529 0.31661 0.0
C922 C 0.15353 0.70159 0.34323 0.0
C923 C 0.14255 0.67594 0.30024 0.0
C924 C 0.15253 0.70908 0.30519 0.0
C925 C 0.16739 0.75528 0.33183 0.0
C926 C 0.17256 0.76809 0.35333 0.0
C927 C 0.15785 0.72212 0.32664 0.0
C928 C 0.16857 0.74758 0.36966 0.0
C929 C 0.15904 0.71461 0.36467 0.0
H930 H 0.84931 0.0315 0.36726 0.0
H931 H 0.77398 0.05191 0.38398 0.0
H932 H 0.73276 0.99371 0.37595 0.0
H933 H 0.71802 0.93697 0.36295 0.0
H934 H 0.79434 0.9176 0.34662 0.0
H935 H 0.83519 0.97508 0.35604 0.0
C936 C 0.8239 0.02308 0.36936 0.0
C937 C 0.81473 0.0458 0.37645 0.0
C938 C 0.80048 0.9897 0.3648 0.0
C939 C 0.78165 0.03475 0.37876 0.0
C940 C 0.7581 1.00151 0.37416 0.0
C941 C 0.74363 0.94537 0.36166 0.0
C942 C 0.75311 0.92313 0.35394 0.0
C943 C 0.76719 0.97873 0.36704 0.0
C944 C 0.78637 0.93428 0.35237 0.0
C945 C 0.8098 0.96718 0.35773 0.0
H946 H 0.99817 0.78366 0.40755 0.0
H947 H 0.95093 0.75733 0.34319 0.0
H948 H 1.00364 0.77692 0.32869 0.0
H949 H 0.06338 0.80088 0.33434 0.0
H950 H 0.11053 0.82824 0.39891 0.0
H951 H 0.05799 0.80897 0.41318 0.0
C952 C 0.99958 0.78255 0.39036 0.0
C953 C 0.97078 0.7693 0.37648 0.0
C954 C 0.03 0.79385 0.38214 0.0
C955 C 0.97279 0.76765 0.35422 0.0
C956 C 1.00292 0.77873 0.34592 0.0
C957 C 0.06214 0.8025 0.35152 0.0
C958 C 0.09098 0.81592 0.36547 0.0
C959 C 0.03172 0.7917 0.35972 0.0
C960 C 0.08884 0.81812 0.38772 0.0
C961 C 0.05874 0.80708 0.39596 0.0
H962 H 0.25067 0.23267 0.38599 0.0
H963 H 0.16628 0.14397 0.3567 0.0
H964 H 0.14132 0.17568 0.34478 0.0
H965 H 0.14425 0.22877 0.34176 0.0
H966 H 0.22973 0.31788 0.36953 0.0
H967 H 0.25337 0.28594 0.38323 0.0
C968 C 0.22666 0.22031 0.3772 0.0
C969 C 0.21 0.18596 0.37261 0.0
C970 C 0.21271 0.23879 0.37014 0.0
C971 C 0.17926 0.1703 0.36077 0.0
C972 C 0.16506 0.18843 0.35389 0.0
C973 C 0.16798 0.24118 0.35092 0.0
C974 C 0.18516 0.27563 0.35471 0.0
C975 C 0.18164 0.22269 0.35839 0.0
C976 C 0.21591 0.29138 0.36654 0.0
C977 C 0.2295 0.27313 0.37428 0.0
H978 H 0.64298 0.50905 0.70484 0.0
H979 H 0.63747 0.57932 0.74927 0.0
H980 H 0.68789 0.62283 0.73836 0.0
H981 H 0.73476 0.6414 0.71679 0.0
H982 H 0.73608 0.57333 0.66879 0.0
H983 H 0.68522 0.52888 0.67985 0.0
C984 C 0.65197 0.53383 0.71192 0.0
C985 C 0.63604 0.54004 0.72841 0.0
C986 C 0.6803 0.55947 0.70471 0.0
C987 C 0.64929 0.57281 0.73729 0.0
C988 C 0.67812 0.59812 0.7308 0.0
C989 C 0.72354 0.61689 0.70857 0.0
C990 C 0.739 0.61051 0.69204 0.0
C991 C 0.69399 0.59171 0.71469 0.0
C992 C 0.72436 0.5788 0.68141 0.0
C993 C 0.69546 0.55338 0.68787 0.0
H994 H 0.50605 0.10869 0.70316 0.0
H995 H 0.51347 0.15471 0.7662 0.0
H996 H 0.47282 0.16885 0.75398 0.0
H997 H 0.43479 0.16762 0.72588 0.0
H998 H 0.42652 0.12222 0.66247 0.0
H999 H 0.46801 0.10854 0.67432 0.0
C1000 C 0.49895 0.12207 0.71412 0.0
C1001 C 0.51259 0.13037 0.73562 0.0
C1002 C 0.47537 0.13016 0.70697 0.0
C1003 C 0.50299 0.14755 0.74968 0.0
C1004 C 0.47983 0.15578 0.74269 0.0
C1005 C 0.44194 0.15471 0.71455 0.0
C1006 C 0.42739 0.14588 0.69329 0.0
C1007 C 0.46571 0.147 0.72145 0.0
C1008 C 0.43722 0.12926 0.67893 0.0
C1009 C 0.46098 0.12146 0.68571 0.0
H1010 H 0.92376 0.38122 0.72642 0.0
H1011 H 0.83313 0.37204 0.70067 0.0
H1012 H 0.81776 0.31909 0.68147 0.0
H1013 H 0.82915 0.27431 0.67309 0.0
H1014 H 0.91998 0.28382 0.69867 0.0
H1015 H 0.93597 0.33743 0.7171 0.0
C1016 C 0.90059 0.36758 0.71666 0.0
C1017 C 0.87956 0.38053 0.71508 0.0
C1018 C 0.89183 0.33706 0.70578 0.0
C1019 C 0.8499 0.3628 0.70203 0.0
C1020 C 0.84099 0.3324 0.69116 0.0
C1021 C 0.85247 0.28819 0.68266 0.0
C1022 C 0.87317 0.27495 0.68477 0.0
C1023 C 0.86162 0.31915 0.69307 0.0
C1024 C 0.90344 0.29331 0.69704 0.0
C1025 C 0.91263 0.324 0.70753 0.0
H1026 H 0.22598 0.98373 0.62124 0.0
H1027 H 0.14603 0.98974 0.64619 0.0
H1028 H 0.1845 0.0416 0.66699 0.0
H1029 H 0.24096 0.08614 0.67752 0.0
H1030 H 0.32069 0.08066 0.65186 0.0
H1031 H 0.28225 0.02812 0.63167 0.0
C1032 C 0.21691 0.99647 0.63108 0.0
C1033 C 0.18305 0.98269 0.6321 0.0
C1034 C 0.23917 0.02655 0.64283 0.0
C1035 C 0.1719 0.99941 0.64529 0.0
C1036 C 0.1939 0.02925 0.65709 0.0
C1037 C 0.24988 0.07336 0.66755 0.0
C1038 C 0.2836 0.08727 0.66616 0.0
C1039 C 0.22759 0.04313 0.65594 0.0
C1040 C 0.29484 0.07051 0.65315 0.0
C1041 C 0.27286 0.04043 0.64161 0.0
H1042 H 0.06563 0.24129 0.64512 0.0
H1043 H 0.01279 0.19757 0.58294 0.0
H1044 H 0.9624 0.18829 0.59701 0.0
H1045 H 0.93302 0.19111 0.62686 0.0
H1046 H 0.98472 0.23466 0.68933 0.0
H1047 H 0.03573 0.24482 0.67531 0.0
C1048 C 0.04306 0.2296 0.63467 0.0
C1049 C 0.04318 0.22029 0.61293 0.0
C1050 C 0.01391 0.22408 0.64293 0.0
C1051 C 0.01368 0.20551 0.59961 0.0
C1052 C 0.98473 0.19993 0.60769 0.0
C1053 C 0.95537 0.20307 0.6375 0.0
C1054 C 0.95483 0.2122 0.65918 0.0
C1055 C 0.98455 0.209 0.62931 0.0
C1056 C 0.98424 0.22734 0.6726 0.0
C1057 C 0.01347 0.23319 0.66457 0.0
H1058 H 0.81523 0.82183 0.61553 0.0
H1059 H 0.76982 0.84136 0.66757 0.0
H1060 H 0.77559 0.80139 0.68783 0.0
H1061 H 0.79424 0.76109 0.69095 0.0
H1062 H 0.84101 0.74332 0.63912 0.0
H1063 H 0.83343 0.7817 0.61848 0.0
C1064 C 0.80628 0.81711 0.63121 0.0
C1065 C 0.79207 0.83458 0.63997 0.0
C1066 C 0.80979 0.7942 0.6428 0.0
C1067 C 0.78115 0.82853 0.66051 0.0
C1068 C 0.78428 0.80553 0.67207 0.0
C1069 C 0.80256 0.76553 0.67509 0.0
C1070 C 0.81792 0.74913 0.66649 0.0
C1071 C 0.79867 0.78827 0.66342 0.0
C1072 C 0.82883 0.75533 0.646 0.0
C1073 C 0.82465 0.77744 0.63421 0.0
H1074 H 0.05337 0.82866 0.67102 0.0
H1075 H 0.02552 0.8198 0.60341 0.0
H1076 H 0.9688 0.78038 0.60882 0.0
H1077 H 0.92734 0.74822 0.6328 0.0
H1078 H 0.95564 0.75682 0.7005 0.0
H1079 H 0.01188 0.79643 0.69501 0.0
C1080 C 0.0348 0.81821 0.65751 0.0
C1081 C 0.04344 0.82735 0.63687 0.0
C1082 C 1.00237 0.79542 0.66075 0.0
C1083 C 0.01927 0.81334 0.61946 0.0
C1084 C 0.98693 0.79077 0.62255 0.0
C1085 C 0.94577 0.75869 0.64638 0.0
C1086 C 0.9371 0.74943 0.66705 0.0
C1087 C 0.9782 0.78156 0.64313 0.0
C1088 C 0.96145 0.7634 0.68441 0.0
C1089 C 0.99371 0.78612 0.6813 0.0
H1090 H 0.21415 0.25137 0.66459 0.0
H1091 H 0.18399 0.19814 0.60188 0.0
H1092 H 0.22522 0.18167 0.60716 0.0
H1093 H 0.2699 0.18222 0.63002 0.0
H1094 H 0.29997 0.23723 0.69242 0.0
H1095 H 0.25901 0.25314 0.68678 0.0
C1096 C 0.21639 0.23585 0.65219 0.0
C1097 C 0.19539 0.22508 0.63321 0.0
C1098 C 0.24034 0.22692 0.65522 0.0
C1099 C 0.19926 0.20592 0.61693 0.0
C1100 C 0.22297 0.19668 0.61989 0.0
C1101 C 0.26757 0.1978 0.64232 0.0
C1102 C 0.28803 0.20831 0.66165 0.0
C1103 C 0.24367 0.20699 0.63902 0.0
C1104 C 0.28459 0.22854 0.6774 0.0
C1105 C 0.26108 0.23772 0.67423 0.0
H1106 H 0.80168 0.98276 0.68327 0.0
H1107 H 0.78558 0.99476 0.61701 0.0
H1108 H 0.80627 0.05352 0.62616 0.0
H1109 H 0.82839 0.1014 0.65342 0.0
H1110 H 0.84453 0.08855 0.71954 0.0
H1111 H 0.82425 0.03036 0.71017 0.0
C1112 C 0.8027 0.99831 0.67088 0.0
C1113 C 0.79173 0.98454 0.64958 0.0
C1114 C 0.81448 0.03188 0.67629 0.0
C1115 C 0.7936 1.00492 0.63357 0.0
C1116 C 0.80537 0.03843 0.6388 0.0
C1117 C 0.82724 0.08579 0.66571 0.0
C1118 C 0.83776 0.09927 0.68712 0.0
C1119 C 0.81568 0.05218 0.66016 0.0
C1120 C 0.83653 0.07879 0.70292 0.0
C1121 C 0.82496 0.04547 0.69759 0.0
H1122 H 0.52232 0.37492 0.68908 0.0
H1123 H 0.44728 0.38931 0.71418 0.0
H1124 H 0.40832 0.3303 0.70768 0.0
H1125 H 0.39504 0.27468 0.69334 0.0
H1126 H 0.4706 0.26093 0.66821 0.0
H1127 H 0.50989 0.31927 0.67646 0.0
C1128 C 0.49748 0.36498 0.69325 0.0
C1129 C 0.48765 0.38631 0.70206 0.0
C1130 C 0.47529 0.33111 0.68946 0.0
C1131 C 0.45539 0.37331 0.70737 0.0
C1132 C 0.43313 0.33959 0.70365 0.0
C1133 C 0.42018 0.28447 0.68988 0.0
C1134 C 0.42985 0.26358 0.68004 0.0
C1135 C 0.44271 0.31825 0.69451 0.0
C1136 C 0.4625 0.27655 0.67565 0.0
C1137 C 0.485 0.30994 0.68034 0.0
H1138 H 0.67108 0.12862 0.7402 0.0
H1139 H 0.62593 0.09672 0.67535 0.0
H1140 H 0.67921 0.11457 0.66212 0.0
H1141 H 0.73866 0.13894 0.66903 0.0
H1142 H 0.78389 0.17181 0.734 0.0
H1143 H 0.73076 0.1541 0.74706 0.0
C1144 C 0.67306 0.12593 0.72317 0.0
C1145 C 0.64475 0.11185 0.70874 0.0
C1146 C 0.70379 0.13632 0.71568 0.0
C1147 C 0.64746 0.1079 0.68673 0.0
C1148 C 0.67789 0.11801 0.67918 0.0
C1149 C 0.73693 0.14219 0.68605 0.0
C1150 C 0.76535 0.15663 0.70046 0.0
C1151 C 0.70624 0.13218 0.69351 0.0
C1152 C 0.76254 0.16083 0.72247 0.0
C1153 C 0.7321 0.15067 0.73 0.0
H1154 H 0.88071 0.54454 0.73252 0.0
H1155 H 0.91925 0.53347 0.67403 0.0
H1156 H 0.90505 0.57109 0.65779 0.0
H1157 H 0.88282 0.60786 0.66034 0.0
H1158 H 0.8425 0.61854 0.71808 0.0
H1159 H 0.85636 0.58053 0.73462 0.0
C1160 C 0.88562 0.55021 0.71616 0.0
C1161 C 0.90078 0.53613 0.70441 0.0
C1162 C 0.87735 0.57195 0.7069 0.0
C1163 C 0.90739 0.54382 0.68331 0.0
C1164 C 0.8994 0.56542 0.67405 0.0
C1165 C 0.87707 0.60192 0.67657 0.0
C1166 C 0.86185 0.61611 0.68805 0.0
C1167 C 0.88461 0.57978 0.68574 0.0
C1168 C 0.85435 0.608 0.70898 0.0
C1169 C 0.8622 0.58623 0.71839 0.0
H1170 H 0.49884 0.95111 0.22883 0.0
H1171 H 0.39718 0.88933 0.20596 0.0
H1172 H 0.40901 0.9074 0.17009 0.0
H1173 H 0.44832 0.94179 0.14533 0.0
H1174 H 0.55009 1.00214 0.16858 0.0
H1175 H 0.53808 0.98341 0.20406 0.0
C1176 C 0.47929 0.94115 0.21595 0.0
C1177 C 0.44716 0.91883 0.22016 0.0
C1178 C 0.48626 0.95155 0.19539 0.0
C1179 C 0.42208 0.90679 0.20329 0.0
C1180 C 0.42886 0.91701 0.18273 0.0
C1181 C 0.4679 0.95059 0.15811 0.0
C1182 C 0.50004 0.97366 0.15426 0.0
C1183 C 0.46086 0.93955 0.1786 0.0
C1184 C 0.52504 0.98494 0.17111 0.0
C1185 C 0.51825 0.97407 0.19143 0.0
H1186 H 0.14893 0.59019 0.22813 0.0
H1187 H 0.07342 0.49223 0.2377 0.0
H1188 H 0.05303 0.4828 0.19987 0.0
H1189 H 0.05422 0.50382 0.16465 0.0
H1190 H 0.12842 0.60257 0.15565 0.0
H1191 H 0.15139 0.61044 0.19276 0.0
C1192 C 0.12792 0.56679 0.22198 0.0
C1193 C 0.11263 0.54206 0.23583 0.0
C1194 C 0.11592 0.56177 0.20033 0.0
C1195 C 0.08588 0.51163 0.22742 0.0
C1196 C 0.07404 0.5063 0.2058 0.0
C1197 C 0.07572 0.52687 0.17073 0.0
C1198 C 0.08953 0.55262 0.15742 0.0
C1199 C 0.08857 0.53136 0.19218 0.0
C1200 C 0.11713 0.58251 0.16562 0.0
C1201 C 0.13032 0.58699 0.18682 0.0
H1202 H 0.52719 0.60442 0.23442 0.0
H1203 H 0.42376 0.54589 0.21514 0.0
H1204 H 0.43509 0.53633 0.17889 0.0
H1205 H 0.47438 0.54378 0.15264 0.0
H1206 H 0.57746 0.60674 0.1714 0.0
H1207 H 0.56599 0.61578 0.20766 0.0
C1208 C 0.50695 0.59008 0.2223 0.0
C1209 C 0.47459 0.57582 0.22784 0.0
C1210 C 0.51355 0.58542 0.20124 0.0
C1211 C 0.44896 0.55667 0.21173 0.0
C1212 C 0.45539 0.55141 0.19083 0.0
C1213 C 0.49436 0.55996 0.16451 0.0
C1214 C 0.52682 0.57414 0.15918 0.0
C1215 C 0.48761 0.56559 0.1854 0.0
C1216 C 0.55228 0.59477 0.17502 0.0
C1217 C 0.54575 0.60014 0.1958 0.0
H1218 H 0.88992 0.40282 0.79203 0.0
H1219 H 0.95733 0.50383 0.78276 0.0
H1220 H 0.98066 0.51373 0.81993 0.0
H1221 H 0.98216 0.49357 0.85507 0.0
H1222 H 0.91582 0.39203 0.86378 0.0
H1223 H 0.89203 0.38247 0.82682 0.0
C1224 C 0.90993 0.42693 0.79807 0.0
C1225 C 0.92183 0.45251 0.7846 0.0
C1226 C 0.92345 0.43238 0.81938 0.0
C1227 C 0.94739 0.48378 0.79284 0.0
C1228 C 0.96091 0.48942 0.81406 0.0
C1229 C 0.96269 0.4693 0.84882 0.0
C1230 C 0.95073 0.44362 0.86223 0.0
C1231 C 0.94918 0.46389 0.82747 0.0
C1232 C 0.92518 0.41238 0.85393 0.0
C1233 C 0.91166 0.40682 0.83275 0.0
H1234 H 0.60357 0.51027 0.80384 0.0
H1235 H 0.50871 0.48035 0.77212 0.0
H1236 H 0.48864 0.4841 0.80649 0.0
H1237 H 0.49731 0.49412 0.84552 0.0
H1238 H 0.59111 0.52135 0.87793 0.0
H1239 H 0.61251 0.52132 0.84342 0.0
C1240 C 0.57863 0.5049 0.80451 0.0
C1241 C 0.55758 0.49483 0.78549 0.0
C1242 C 0.56706 0.50671 0.82445 0.0
C1243 C 0.52525 0.48774 0.78657 0.0
C1244 C 0.51378 0.48998 0.80621 0.0
C1245 C 0.52238 0.49982 0.84512 0.0
C1246 C 0.54241 0.50751 0.86441 0.0
C1247 C 0.53432 0.49902 0.82526 0.0
C1248 C 0.57512 0.51565 0.86341 0.0
C1249 C 0.58735 0.51538 0.84364 0.0
H1250 H 0.53615 0.11929 0.80802 0.0
H1251 H 0.56592 0.0509 0.78575 0.0
H1252 H 0.55567 0.027 0.82003 0.0
H1253 H 0.53482 0.02319 0.85552 0.0
H1254 H 0.50316 0.09039 0.87695 0.0
H1255 H 0.51692 0.1166 0.84364 0.0
C1256 C 0.54023 0.09901 0.81058 0.0
C1257 C 0.55152 0.08675 0.79419 0.0
C1258 C 0.53366 0.08496 0.83014 0.0
C1259 C 0.55746 0.06101 0.79807 0.0
C1260 C 0.55137 0.04716 0.81764 0.0
C1261 C 0.53134 0.04385 0.853 0.0
C1262 C 0.51782 0.05471 0.86866 0.0
C1263 C 0.53905 0.05865 0.83368 0.0
C1264 C 0.51312 0.08127 0.86504 0.0
C1265 C 0.52109 0.09635 0.84603 0.0
H1266 H 0.10458 0.28731 0.55623 0.0
H1267 H 0.12923 0.21186 0.54324 0.0
H1268 H 0.14693 0.23212 0.50875 0.0
H1269 H 0.15759 0.27254 0.48284 0.0
H1270 H 0.13236 0.34758 0.4952 0.0
H1271 H 0.11206 0.32579 0.52908 0.0
C1272 C 0.11334 0.27498 0.54571 0.0
C1273 C 0.11594 0.24834 0.5525 0.0
C1274 C 0.12343 0.28671 0.52577 0.0
C1275 C 0.12758 0.23283 0.53867 0.0
C1276 C 0.13759 0.2443 0.51887 0.0
C1277 C 0.14766 0.28413 0.49297 0.0
C1278 C 0.14674 0.31179 0.48661 0.0
C1279 C 0.13612 0.27152 0.51241 0.0
C1280 C 0.13323 0.32617 0.4997 0.0
C1281 C 0.12177 0.31381 0.51912 0.0
H1282 H 0.79965 0.91389 0.56108 0.0
H1283 H 0.72285 0.81905 0.5749 0.0
H1284 H 0.69901 0.80748 0.53774 0.0
H1285 H 0.69816 0.82563 0.50183 0.0
H1286 H 0.77447 0.92084 0.48816 0.0
H1287 H 0.8004 0.93086 0.52465 0.0
C1288 C 0.77771 0.89068 0.55593 0.0
C1289 C 0.76295 0.86746 0.57078 0.0
C1290 C 0.764 0.88429 0.53457 0.0
C1291 C 0.73485 0.83725 0.56378 0.0
C1292 C 0.72107 0.83071 0.54256 0.0
C1293 C 0.72049 0.84856 0.50685 0.0
C1294 C 0.73422 0.87254 0.49233 0.0
C1295 C 0.73515 0.85424 0.5279 0.0
C1296 C 0.76349 0.90188 0.49895 0.0
C1297 C 0.77822 0.90771 0.51987 0.0
H1298 H 0.19939 0.92856 0.56952 0.0
H1299 H 0.0976 0.89135 0.54974 0.0
H1300 H 0.10689 0.88349 0.51256 0.0
H1301 H 0.14417 0.88858 0.48546 0.0
H1302 H 0.24633 0.92761 0.50511 0.0
H1303 H 0.23658 0.93321 0.54246 0.0
C1304 C 0.17926 0.91892 0.55707 0.0
C1305 C 0.14785 0.91065 0.56248 0.0
C1306 C 0.18482 0.91473 0.53565 0.0
C1307 C 0.12195 0.8976 0.54613 0.0
C1308 C 0.12728 0.89328 0.52482 0.0
C1309 C 0.16435 0.89849 0.49789 0.0
C1310 C 0.19596 0.90769 0.49239 0.0
C1311 C 0.15865 0.90199 0.51936 0.0
C1312 C 0.22168 0.91993 0.50882 0.0
C1313 C 0.21618 0.92338 0.53021 0.0
H1314 H 0.57563 0.80021 0.13112 0.0
H1315 H 0.64957 0.77983 0.11066 0.0
H1316 H 0.67218 0.78754 0.14776 0.0
H1317 H 0.66968 0.79778 0.18595 0.0
H1318 H 0.59688 0.81961 0.20684 0.0
H1319 H 0.57494 0.81339 0.16961 0.0
C1320 C 0.59696 0.79792 0.13479 0.0
C1321 C 0.61075 0.78923 0.11817 0.0
C1322 C 0.60986 0.80235 0.15621 0.0
C1323 C 0.63819 0.786 0.12319 0.0
C1324 C 0.65121 0.79051 0.14438 0.0
C1325 C 0.64936 0.80176 0.1824 0.0
C1326 C 0.63501 0.8092 0.19921 0.0
C1327 C 0.63704 0.79835 0.16102 0.0
C1328 C 0.60819 0.81349 0.19425 0.0
C1329 C 0.59574 0.81012 0.17295 0.0
H1330 H 0.22715 0.75969 0.13493 0.0
H1331 H 0.26445 0.86283 0.12894 0.0
H1332 H 0.25117 0.86998 0.16503 0.0
H1333 H 0.22587 0.84653 0.19748 0.0
H1334 H 0.18641 0.74312 0.20315 0.0
H1335 H 0.20301 0.73643 0.16789 0.0
C1336 C 0.23228 0.78372 0.14146 0.0
C1337 C 0.24687 0.81065 0.1291 0.0
C1338 C 0.22393 0.78761 0.16215 0.0
C1339 C 0.25377 0.84171 0.13809 0.0
C1340 C 0.24591 0.84581 0.15871 0.0
C1341 C 0.22135 0.82261 0.19115 0.0
C1342 C 0.20491 0.79537 0.20295 0.0
C1343 C 0.23067 0.81889 0.17079 0.0
C1344 C 0.19875 0.76444 0.19432 0.0
C1345 C 0.20832 0.76062 0.17418 0.0
H1346 H 0.20039 0.46361 0.14997 0.0
H1347 H 0.2328 0.39755 0.12736 0.0
H1348 H 0.22 0.37104 0.16065 0.0
H1349 H 0.19648 0.36448 0.19531 0.0
H1350 H 0.16246 0.42951 0.21715 0.0
H1351 H 0.1783 0.45804 0.18481 0.0
C1352 C 0.20449 0.44328 0.15223 0.0
C1353 C 0.21733 0.43248 0.13606 0.0
C1354 C 0.19648 0.42774 0.17121 0.0
C1355 C 0.22321 0.40659 0.13956 0.0
C1356 C 0.21565 0.39124 0.15854 0.0
C1357 C 0.1929 0.38515 0.1931 0.0
C1358 C 0.17814 0.39473 0.20858 0.0
C1359 C 0.20191 0.40135 0.17437 0.0
C1360 C 0.17334 0.42134 0.20535 0.0
C1361 C 0.18253 0.43776 0.18691 0.0
H1362 H 0.839 0.62759 0.89947 0.0
H1363 H 0.73669 0.56551 0.87835 0.0
H1364 H 0.74664 0.58427 0.84257 0.0
H1365 H 0.78436 0.61948 0.81737 0.0
H1366 H 0.88686 0.68001 0.83862 0.0
H1367 H 0.87682 0.66047 0.87405 0.0
C1368 C 0.81889 0.61772 0.88699 0.0
C1369 C 0.78711 0.59517 0.89175 0.0
C1370 C 0.82479 0.62848 0.86639 0.0
C1371 C 0.76134 0.58322 0.87535 0.0
C1372 C 0.76704 0.59382 0.85479 0.0
C1373 C 0.80456 0.62812 0.82967 0.0
C1374 C 0.8363 0.65152 0.82527 0.0
C1375 C 0.79866 0.61663 0.85014 0.0
C1376 C 0.86208 0.66257 0.84156 0.0
C1377 C 0.85641 0.65124 0.86186 0.0
H1378 H 0.46153 0.17475 0.88794 0.0
H1379 H 0.39206 0.1994 0.9116 0.0
H1380 H 0.36676 0.1916 0.87524 0.0
H1381 H 0.36754 0.18284 0.83675 0.0
H1382 H 0.43664 0.15816 0.81237 0.0
H1383 H 0.45906 0.16106 0.84901 0.0
C1384 C 0.44047 0.17778 0.88511 0.0
C1385 C 0.42882 0.18792 0.90234 0.0
C1386 C 0.42628 0.17367 0.86407 0.0
C1387 C 0.40169 0.19202 0.89851 0.0
C1388 C 0.38721 0.18755 0.87775 0.0
C1389 C 0.38698 0.17728 0.83938 0.0
C1390 C 0.4004 0.17036 0.8218 0.0
C1391 C 0.39977 0.17911 0.86039 0.0
C1392 C 0.42611 0.16397 0.82561 0.0
C1393 C 0.43887 0.1655 0.84656 0.0
H1394 H 0.78197 0.21715 0.88608 0.0
H1395 H 0.88005 0.2605 0.91661 0.0
H1396 H 0.89997 0.25663 0.88226 0.0
H1397 H 0.8903 0.24386 0.84329 0.0
H1398 H 0.79209 0.19837 0.81262 0.0
H1399 H 0.77165 0.20024 0.84718 0.0
C1400 C 0.80761 0.22529 0.88527 0.0
C1401 C 0.82948 0.23954 0.90394 0.0
C1402 C 0.81902 0.2229 0.86537 0.0
C1403 C 0.8627 0.2501 0.90248 0.0
C1404 C 0.87415 0.24776 0.88283 0.0
C1405 C 0.86433 0.23376 0.84413 0.0
C1406 C 0.84292 0.22125 0.8252 0.0
C1407 C 0.85264 0.23465 0.86411 0.0
C1408 C 0.80936 0.20878 0.82677 0.0
C1409 C 0.79756 0.20964 0.8466 0.0
H1410 H 0.27156 0.16173 0.45396 0.0
H1411 H 0.20766 0.05843 0.45893 0.0
H1412 H 0.22477 0.06603 0.49721 0.0
H1413 H 0.26059 0.1012 0.52864 0.0
H1414 H 0.32545 0.20434 0.52384 0.0
H1415 H 0.30511 0.19775 0.48616 0.0
C1416 C 0.26107 0.14103 0.46352 0.0
C1417 C 0.23862 0.10954 0.45363 0.0
C1418 C 0.27129 0.14552 0.4855 0.0
C1419 C 0.22538 0.08283 0.46615 0.0
C1420 C 0.23505 0.08717 0.48803 0.0
C1421 C 0.2698 0.12236 0.51947 0.0
C1422 C 0.29448 0.15319 0.52899 0.0
C1423 C 0.25837 0.11828 0.4978 0.0
C1424 C 0.30661 0.18029 0.51679 0.0
C1425 C 0.29498 0.17654 0.49527 0.0
H1426 H 0.94383 0.16334 0.47445 0.0
H1427 H 0.85797 0.15932 0.44422 0.0
H1428 H 0.84031 0.16483 0.47921 0.0
H1429 H 0.84685 0.16632 0.51817 0.0
H1430 H 0.93151 0.16884 0.54918 0.0
H1431 H 0.95232 0.16882 0.51429 0.0
C1432 C 0.92164 0.16435 0.47565 0.0
C1433 C 0.90212 0.16086 0.45687 0.0
C1434 C 0.91125 0.16687 0.49593 0.0
C1435 C 0.87325 0.16187 0.45851 0.0
C1436 C 0.86309 0.16489 0.47849 0.0
C1437 C 0.86985 0.16681 0.5173 0.0
C1438 C 0.88733 0.16705 0.53619 0.0
C1439 C 0.88144 0.16655 0.49727 0.0
C1440 C 0.91753 0.16857 0.53485 0.0
C1441 C 0.92937 0.16845 0.5149 0.0
H1442 H 0.91022 0.76744 0.47312 0.0
H1443 H 0.8129 0.70127 0.44335 0.0
H1444 H 0.79593 0.67856 0.47736 0.0
H1445 H 0.80777 0.67897 0.51576 0.0
H1446 H 0.90532 0.74346 0.54584 0.0
H1447 H 0.92292 0.76555 0.51165 0.0
C1448 C 0.88545 0.74775 0.47405 0.0
C1449 C 0.86281 0.73633 0.45572 0.0
C1450 C 0.87572 0.73473 0.49377 0.0
C1451 C 0.8307 0.71093 0.45726 0.0
C1452 C 0.82096 0.69784 0.4767 0.0
C1453 C 0.83305 0.69746 0.51487 0.0
C1454 C 0.85508 0.70945 0.53351 0.0
C1455 C 0.84313 0.7098 0.49511 0.0
C1456 C 0.88758 0.73402 0.53192 0.0
C1457 C 0.89778 0.74654 0.5123 0.0
loop_
_geom_bond_atom_site_label_1
_geom_bond_atom_site_label_2
_geom_bond_distance
_geom_bond_site_symmetry_2
_ccdc_geom_bond_type
H0 C7 0.929 . S
H1 C10 0.930 . S
H2 C12 0.929 . S
H3 C4 0.969 . S
C4 H3 0.969 . S
C4 O5 1.550 . S
C4 H6 0.973 . S
O5 C4 1.550 . S
O5 C11 1.412 . S
H6 C4 0.973 . S
C7 H0 0.929 . S
C7 C8 1.400 . S
C7 C9 1.364 . S
C8 C7 1.400 . S
C8 C12 1.377 . S
C9 C7 1.364 . S
C9 C10 1.374 . S
C10 H1 0.930 . S
C10 C9 1.374 . S
C10 C11 1.383 . S
C11 O5 1.412 . S
C11 C10 1.383 . S
C11 C12 1.394 . S
C12 H2 0.929 . S
C12 C8 1.377 . S
C12 C11 1.394 . S
H13 C20 0.929 . S
H14 C23 0.930 . S
H15 C25 0.929 . S
H16 C17 0.969 . S
C17 H16 0.969 . S
C17 O18 1.550 . S
C17 H19 0.973 . S
O18 C17 1.550 . S
O18 C24 1.412 . S
H19 C17 0.973 . S
C20 H13 0.929 . S
C20 C21 1.400 . S
C20 C22 1.364 . S
C21 C20 1.400 . S
C21 C25 1.377 . S
C22 C20 1.364 . S
C22 C23 1.374 . S
C23 H14 0.930 . S
C23 C22 1.374 . S
C23 C24 1.383 . S
C24 O18 1.412 . S
C24 C23 1.383 . S
C24 C25 1.394 . S
C25 H15 0.929 . S
C25 C21 1.377 . S
C25 C24 1.394 . S
H26 C33 0.929 . S
H27 C36 0.930 . S
H28 C38 0.929 . S
H29 C30 0.969 . S
C30 H29 0.969 . S
C30 O31 1.550 . S
C30 H32 0.973 . S
O31 C30 1.550 . S
O31 C37 1.412 . S
H32 C30 0.973 . S
C33 H26 0.929 . S
C33 C34 1.400 . S
C33 C35 1.364 . S
C34 C33 1.400 . S
C34 C38 1.377 . S
C35 C33 1.364 . S
C35 C36 1.374 . S
C36 H27 0.930 . S
C36 C35 1.374 . S
C36 C37 1.383 . S
C37 O31 1.412 . S
C37 C36 1.383 . S
C37 C38 1.394 . S
C38 H28 0.929 . S
C38 C34 1.377 . S
C38 C37 1.394 . S
H39 C46 0.929 . S
H40 C49 0.930 . S
H41 C51 0.929 . S
H42 C43 0.969 . S
C43 H42 0.969 . S
C43 O44 1.550 . S
C43 H45 0.973 . S
O44 C43 1.550 . S
O44 C50 1.412 . S
H45 C43 0.973 . S
C46 H39 0.929 . S
C46 C47 1.400 . S
C46 C48 1.364 . S
C47 C46 1.400 . S
C47 C51 1.377 . S
C48 C46 1.364 . S
C48 C49 1.374 . S
C49 H40 0.930 . S
C49 C48 1.374 . S
C49 C50 1.383 . S
C50 O44 1.412 . S
C50 C49 1.383 . S
C50 C51 1.394 . S
C51 H41 0.929 . S
C51 C47 1.377 . S
C51 C50 1.394 . S
H52 C59 0.929 . S
H53 C62 0.930 . S
H54 C64 0.929 . S
H55 C56 0.969 . S
C56 H55 0.969 . S
C56 O57 1.550 . S
C56 H58 0.973 . S
O57 C56 1.550 . S
O57 C63 1.412 . S
H58 C56 0.973 . S
C59 H52 0.929 . S
C59 C60 1.400 . S
C59 C61 1.364 . S
C60 C59 1.400 . S
C60 C64 1.377 . S
C61 C59 1.364 . S
C61 C62 1.374 . S
C62 H53 0.930 . S
C62 C61 1.374 . S
C62 C63 1.383 . S
C63 O57 1.412 . S
C63 C62 1.383 . S
C63 C64 1.394 . S
C64 H54 0.929 . S
C64 C60 1.377 . S
C64 C63 1.394 . S
H65 C72 0.929 . S
H66 C75 0.930 . S
H67 C77 0.929 . S
H68 C69 0.969 . S
C69 H68 0.969 . S
C69 O70 1.550 . S
C69 H71 0.973 . S
O70 C69 1.550 . S
O70 C76 1.412 . S
H71 C69 0.973 . S
C72 H65 0.929 . S
C72 C73 1.400 . S
C72 C74 1.364 . S
C73 C72 1.400 . S
C73 C77 1.377 . S
C74 C72 1.364 . S
C74 C75 1.374 . S
C75 H66 0.930 . S
C75 C74 1.374 . S
C75 C76 1.383 . S
C76 O70 1.412 . S
C76 C75 1.383 . S
C76 C77 1.394 . S
C77 H67 0.929 . S
C77 C73 1.377 . S
C77 C76 1.394 . S
H78 C85 0.929 . S
H79 C88 0.930 . S
H80 C90 0.929 . S
H81 C82 0.969 . S
C82 H81 0.969 . S
C82 O83 1.550 . S
C82 H84 0.973 . S
O83 C82 1.550 . S
O83 C89 1.412 . S
H84 C82 0.973 . S
C85 H78 0.929 . S
C85 C86 1.400 . S
C85 C87 1.364 . S
C86 C85 1.400 . S
C86 C90 1.377 . S
C87 C85 1.364 . S
C87 C88 1.374 . S
C88 H79 0.930 . S
C88 C87 1.374 . S
C88 C89 1.383 . S
C89 O83 1.412 . S
C89 C88 1.383 . S
C89 C90 1.394 . S
C90 H80 0.929 . S
C90 C86 1.377 . S
C90 C89 1.394 . S
H91 C98 0.929 . S
H92 C101 0.930 . S
H93 C103 0.929 . S
H94 C95 0.969 . S
C95 H94 0.969 . S
C95 O96 1.550 . S
C95 H97 0.973 . S
O96 C95 1.550 . S
O96 C102 1.412 . S
H97 C95 0.973 . S
C98 H91 0.929 . S
C98 C99 1.400 . S
C98 C100 1.364 . S
C99 C98 1.400 . S
C99 C103 1.377 . S
C100 C98 1.364 . S
C100 C101 1.374 . S
C101 H92 0.930 . S
C101 C100 1.374 . S
C101 C102 1.383 . S
C102 O96 1.412 . S
C102 C101 1.383 . S
C102 C103 1.394 . S
C103 H93 0.929 . S
C103 C99 1.377 . S
C103 C102 1.394 . S
H104 C111 0.929 . S
H105 C114 0.930 . S
H106 C116 0.929 . S
H107 C108 0.969 . S
C108 H107 0.969 . S
C108 O109 1.550 . S
C108 H110 0.973 . S
O109 C108 1.550 . S
O109 C115 1.412 . S
H110 C108 0.973 . S
C111 H104 0.929 . S
C111 C112 1.400 . S
C111 C113 1.364 . S
C112 C111 1.400 . S
C112 C116 1.377 . S
C113 C111 1.364 . S
C113 C114 1.374 . S
C114 H105 0.930 . S
C114 C113 1.374 . S
C114 C115 1.383 . S
C115 O109 1.412 . S
C115 C114 1.383 . S
C115 C116 1.394 . S
C116 H106 0.929 . S
C116 C112 1.377 . S
C116 C115 1.394 . S
H117 C124 0.929 . S
H118 C127 0.930 . S
H119 C129 0.929 . S
H120 C121 0.969 . S
C121 H120 0.969 . S
C121 O122 1.550 . S
C121 H123 0.973 . S
O122 C121 1.550 . S
O122 C128 1.412 . S
H123 C121 0.973 . S
C124 H117 0.929 . S
C124 C125 1.400 . S
C124 C126 1.364 . S
C125 C124 1.400 . S
C125 C129 1.377 . S
C126 C124 1.364 . S
C126 C127 1.374 . S
C127 H118 0.930 . S
C127 C126 1.374 . S
C127 C128 1.383 . S
C128 O122 1.412 . S
C128 C127 1.383 . S
C128 C129 1.394 . S
C129 H119 0.929 . S
C129 C125 1.377 . S
C129 C128 1.394 . S
H130 C137 0.929 . S
H131 C140 0.930 . S
H132 C142 0.929 1_554 S
H133 C134 0.969 . S
C134 H133 0.969 . S
C134 O135 1.550 . S
C134 H136 0.973 . S
O135 C134 1.550 . S
O135 C141 1.412 . S
H136 C134 0.973 . S
C137 H130 0.929 . S
C137 C138 1.400 . S
C137 C139 1.364 . S
C138 C137 1.400 . S
C138 C142 1.377 . S
C139 C137 1.364 . S
C139 C140 1.374 . S
C140 H131 0.930 . S
C140 C139 1.374 . S
C140 C141 1.383 . S
C141 O135 1.412 . S
C141 C140 1.383 . S
C141 C142 1.394 . S
C142 H132 0.929 1_556 S
C142 C138 1.377 . S
C142 C141 1.394 . S
H143 C150 0.929 . S
H144 C153 0.930 . S
H145 C155 0.929 . S
H146 C147 0.969 . S
C147 H146 0.969 . S
C147 O148 1.550 . S
C147 H149 0.973 . S
O148 C147 1.550 . S
O148 C154 1.412 . S
H149 C147 0.973 . S
C150 H143 0.929 . S
C150 C151 1.400 . S
C150 C152 1.364 . S
C151 C150 1.400 . S
C151 C155 1.377 . S
C152 C150 1.364 . S
C152 C153 1.374 . S
C153 H144 0.930 . S
C153 C152 1.374 . S
C153 C154 1.383 . S
C154 O148 1.412 . S
C154 C153 1.383 . S
C154 C155 1.394 . S
C155 H145 0.929 . S
C155 C151 1.377 . S
C155 C154 1.394 . S
H156 C163 0.929 . S
H157 C166 0.930 . S
H158 C168 0.929 . S
H159 C160 0.969 . S
C160 H159 0.969 . S
C160 O161 1.550 . S
C160 H162 0.973 . S
O161 C160 1.550 . S
O161 C167 1.412 . S
H162 C160 0.973 . S
C163 H156 0.929 . S
C163 C164 1.400 . S
C163 C165 1.364 . S
C164 C163 1.400 . S
C164 C168 1.377 . S
C165 C163 1.364 . S
C165 C166 1.374 . S
C166 H157 0.930 . S
C166 C165 1.374 . S
C166 C167 1.383 . S
C167 O161 1.412 . S
C167 C166 1.383 . S
C167 C168 1.394 . S
C168 H158 0.929 . S
C168 C164 1.377 . S
C168 C167 1.394 . S
H169 C176 0.929 . S
H170 C179 0.930 . S
H171 C181 0.929 . S
H172 C173 0.969 . S
C173 H172 0.969 . S
C173 O174 1.550 . S
C173 H175 0.973 . S
O174 C173 1.550 . S
O174 C180 1.412 . S
H175 C173 0.973 . S
C176 H169 0.929 . S
C176 C177 1.400 . S
C176 C178 1.364 . S
C177 C176 1.400 . S
C177 C181 1.377 . S
C178 C176 1.364 . S
C178 C179 1.374 . S
C179 H170 0.930 . S
C179 C178 1.374 . S
C179 C180 1.383 . S
C180 O174 1.412 . S
C180 C179 1.383 . S
C180 C181 1.394 . S
C181 H171 0.929 . S
C181 C177 1.377 . S
C181 C180 1.394 . S
H182 C189 0.929 . S
H183 C192 0.930 . S
H184 C194 0.929 . S
H185 C186 0.969 . S
C186 H185 0.969 . S
C186 O187 1.550 . S
C186 H188 0.973 . S
O187 C186 1.550 . S
O187 C193 1.412 . S
H188 C186 0.973 . S
C189 H182 0.929 . S
C189 C190 1.400 . S
C189 C191 1.364 . S
C190 C189 1.400 . S
C190 C194 1.377 . S
C191 C189 1.364 . S
C191 C192 1.374 . S
C192 H183 0.930 . S
C192 C191 1.374 . S
C192 C193 1.383 . S
C193 O187 1.412 . S
C193 C192 1.383 . S
C193 C194 1.394 . S
C194 H184 0.929 . S
C194 C190 1.377 . S
C194 C193 1.394 . S
H195 C202 0.929 . S
H196 C205 0.930 . S
H197 C207 0.929 . S
H198 C199 0.969 . S
C199 H198 0.969 . S
C199 O200 1.550 . S
C199 H201 0.973 . S
O200 C199 1.550 . S
O200 C206 1.412 . S
H201 C199 0.973 . S
C202 H195 0.929 . S
C202 C203 1.400 . S
C202 C204 1.364 . S
C203 C202 1.400 . S
C203 C207 1.377 . S
C204 C202 1.364 . S
C204 C205 1.374 . S
C205 H196 0.930 . S
C205 C204 1.374 . S
C205 C206 1.383 . S
C206 O200 1.412 . S
C206 C205 1.383 . S
C206 C207 1.394 . S
C207 H197 0.929 . S
C207 C203 1.377 . S
C207 C206 1.394 . S
H208 C215 0.929 . S
H209 C218 0.930 . S
H210 C220 0.929 . S
H211 C212 0.969 . S
C212 H211 0.969 . S
C212 O213 1.550 . S
C212 H214 0.973 . S
O213 C212 1.550 . S
O213 C219 1.412 . S
H214 C212 0.973 . S
C215 H208 0.929 . S
C215 C216 1.400 . S
C215 C217 1.364 . S
C216 C215 1.400 . S
C216 C220 1.377 . S
C217 C215 1.364 . S
C217 C218 1.374 . S
C218 H209 0.930 . S
C218 C217 1.374 . S
C218 C219 1.383 . S
C219 O213 1.412 . S
C219 C218 1.383 . S
C219 C220 1.394 . S
C220 H210 0.929 . S
C220 C216 1.377 . S
C220 C219 1.394 . S
H221 C228 0.929 . S
H222 C231 0.930 . S
H223 C233 0.929 . S
H224 C225 0.969 . S
C225 H224 0.969 . S
C225 O226 1.550 . S
C225 H227 0.973 . S
O226 C225 1.550 . S
O226 C232 1.412 . S
H227 C225 0.973 . S
C228 H221 0.929 . S
C228 C229 1.400 . S
C228 C230 1.364 . S
C229 C228 1.400 . S
C229 C233 1.377 . S
C230 C228 1.364 . S
C230 C231 1.374 . S
C231 H222 0.930 . S
C231 C230 1.374 . S
C231 C232 1.383 . S
C232 O226 1.412 . S
C232 C231 1.383 . S
C232 C233 1.394 . S
C233 H223 0.929 . S
C233 C229 1.377 . S
C233 C232 1.394 . S
C234 Eu235 2.835 . S
C234 C236 1.500 1_545 S
C234 O254 1.257 1_545 S
C234 O255 1.260 . S
Eu235 C234 2.835 . S
Eu235 O254 2.473 1_545 S
Eu235 O255 2.480 . S
Eu235 O256 2.430 . S
Eu235 O257 2.670 1_554 S
Eu235 O258 2.394 1_545 S
Eu235 O263 2.355 1_545 S
Eu235 O265 2.374 . S
C236 C234 1.500 1_565 S
C236 C237 1.377 1_565 S
C236 C241 1.377 . S
C237 C236 1.377 1_545 S
C237 C238 1.395 . S
C237 H266 0.931 . S
C238 C237 1.395 . S
C238 C239 1.383 1_545 S
C238 H267 0.931 . S
C239 C238 1.383 1_565 S
C239 C240 1.394 . S
C240 C239 1.394 . S
C240 C241 1.378 . S
C240 H268 0.931 . S
C241 C236 1.377 . S
C241 C240 1.378 . S
C241 H269 0.931 . S
C242 O256 1.259 . S
C242 O257 1.270 1_554 S
C243 O258 1.251 . S
C243 O259 1.251 1_554 S
C244 Eu245 2.835 1_545 S
C244 C246 1.500 . S
C244 O260 1.257 . S
C244 O261 1.260 1_545 S
Eu245 C244 2.835 1_565 S
Eu245 O257 2.355 1_565 S
Eu245 O259 2.374 . S
Eu245 O260 2.473 1_565 S
Eu245 O261 2.480 . S
Eu245 O262 2.430 . S
Eu245 O263 2.670 1_556 S
Eu245 O264 2.394 1_565 S
C246 C244 1.500 . S
C246 C247 1.377 . S
C246 C251 1.377 . S
C247 C246 1.377 . S
C247 C248 1.395 . S
C247 H270 0.931 1_545 S
C248 C247 1.395 . S
C248 C249 1.383 . S
C248 H271 0.931 1_545 S
C249 C248 1.383 . S
C249 C250 1.394 . S
C250 C249 1.394 . S
C250 C251 1.378 . S
C250 H272 0.931 . S
C251 C246 1.377 . S
C251 C250 1.378 . S
C251 H273 0.931 . S
C252 O262 1.259 1_554 S
C252 O263 1.270 . S
C253 O264 1.251 . S
C253 O265 1.251 1_556 S
O254 C234 1.257 1_565 S
O254 Eu235 2.473 1_565 S
O255 C234 1.260 . S
O255 Eu235 2.480 . S
O256 Eu235 2.430 . S
O256 C242 1.259 . S
O257 Eu235 2.670 1_556 S
O257 C242 1.270 1_556 S
O257 Eu245 2.355 1_545 S
O258 Eu235 2.394 1_565 S
O258 C243 1.251 . S
O259 C243 1.251 1_556 S
O259 Eu245 2.374 . S
O260 C244 1.257 . S
O260 Eu245 2.473 1_545 S
O261 C244 1.260 1_565 S
O261 Eu245 2.480 . S
O262 Eu245 2.430 . S
O262 C252 1.259 1_556 S
O263 Eu235 2.355 1_565 S
O263 Eu245 2.670 1_554 S
O263 C252 1.270 . S
O264 Eu245 2.394 1_545 S
O264 C253 1.251 . S
O265 Eu235 2.374 . S
O265 C253 1.251 1_554 S
H266 C237 0.931 . S
H267 C238 0.931 . S
H268 C240 0.931 . S
H269 C241 0.931 . S
H270 C247 0.931 1_565 S
H271 C248 0.931 1_565 S
H272 C250 0.931 . S
H273 C251 0.931 . S
C274 Eu275 2.835 1_455 S
C274 C276 1.500 . S
C274 O294 1.257 . S
C274 O295 1.260 1_455 S
Eu275 C274 2.835 1_655 S
Eu275 O294 2.473 1_655 S
Eu275 O295 2.480 . S
Eu275 O296 2.430 . S
Eu275 O297 2.670 1_554 S
Eu275 O298 2.394 1_655 S
Eu275 O303 2.355 1_655 S
Eu275 O305 2.374 . S
C276 C274 1.500 . S
C276 C277 1.377 . S
C276 C281 1.377 . S
C277 C276 1.377 . S
C277 C278 1.395 . S
C277 H306 0.931 1_455 S
C278 C277 1.395 . S
C278 C279 1.383 . S
C278 H307 0.931 . S
C279 C278 1.383 . S
C279 C280 1.394 . S
C280 C279 1.394 . S
C280 C281 1.378 . S
C280 H308 0.931 . S
C281 C276 1.377 . S
C281 C280 1.378 . S
C281 H309 0.931 . S
C282 O296 1.259 . S
C282 O297 1.270 1_554 S
C283 O298 1.251 . S
C283 O299 1.251 . S
C284 Eu285 2.835 1_655 S
C284 C286 1.500 . S
C284 O300 1.257 . S
C284 O301 1.260 1_655 S
Eu285 C284 2.835 1_455 S
Eu285 O297 2.355 1_455 S
Eu285 O299 2.374 1_556 S
Eu285 O300 2.473 1_455 S
Eu285 O301 2.480 . S
Eu285 O302 2.430 . S
Eu285 O303 2.670 1_556 S
Eu285 O304 2.394 1_455 S
C286 C284 1.500 . S
C286 C287 1.374 1_655 S
C286 C291 1.377 . S
C287 C286 1.374 1_455 S
C287 C288 1.393 1_455 S
C287 H310 0.935 . S
C288 C287 1.393 1_655 S
C288 C289 1.383 . S
C288 H311 0.931 1_655 S
C289 C288 1.383 . S
C289 C290 1.394 . S
C290 C289 1.394 . S
C290 C291 1.378 . S
C290 H312 0.931 . S
C291 C286 1.377 . S
C291 C290 1.378 . S
C291 H313 0.931 . S
C292 O302 1.259 1_554 S
C292 O303 1.270 . S
C293 O304 1.251 . S
C293 O305 1.251 1_556 S
O294 C274 1.257 . S
O294 Eu275 2.473 1_455 S
O295 C274 1.260 1_655 S
O295 Eu275 2.480 . S
O296 Eu275 2.430 . S
O296 C282 1.259 . S
O297 Eu275 2.670 1_556 S
O297 C282 1.270 1_556 S
O297 Eu285 2.355 1_655 S
O298 Eu275 2.394 1_455 S
O298 C283 1.251 . S
O299 C283 1.251 . S
O299 Eu285 2.374 1_554 S
O300 C284 1.257 . S
O300 Eu285 2.473 1_655 S
O301 C284 1.260 1_455 S
O301 Eu285 2.480 . S
O302 Eu285 2.430 . S
O302 C292 1.259 1_556 S
O303 Eu275 2.355 1_455 S
O303 Eu285 2.670 1_554 S
O303 C292 1.270 . S
O304 Eu285 2.394 1_655 S
O304 C293 1.251 . S
O305 Eu275 2.374 . S
O305 C293 1.251 1_554 S
H306 C277 0.931 1_655 S
H307 C278 0.931 . S
H308 C280 0.931 . S
H309 C281 0.931 . S
H310 C287 0.935 . S
H311 C288 0.931 1_455 S
H312 C290 0.931 . S
H313 C291 0.931 . S
C314 Eu315 2.835 . S
C314 C316 1.500 . S
C314 O334 1.257 . S
C314 O335 1.260 . S
Eu315 C314 2.835 . S
Eu315 O334 2.473 . S
Eu315 O335 2.480 . S
Eu315 O336 2.430 . S
Eu315 O337 2.670 1_556 S
Eu315 O338 2.394 . S
Eu315 O343 2.350 1_556 S
Eu315 O345 2.374 1_556 S
C316 C314 1.500 . S
C316 C317 1.377 . S
C316 C321 1.377 . S
C317 C316 1.377 . S
C317 C318 1.395 . S
C317 H346 0.931 . S
C318 C317 1.395 . S
C318 C319 1.383 . S
C318 H347 0.931 . S
C319 C318 1.383 . S
C319 C320 1.394 . S
C320 C319 1.394 . S
C320 C321 1.378 . S
C320 H348 0.931 . S
C321 C316 1.377 . S
C321 C320 1.378 . S
C321 H349 0.931 . S
C322 O336 1.259 1_554 S
C322 O337 1.270 . S
C323 O338 1.251 . S
C323 O339 1.251 1_556 S
C324 Eu325 2.835 . S
C324 C326 1.500 . S
C324 O340 1.257 . S
C324 O341 1.260 . S
Eu325 C324 2.835 . S
Eu325 O337 2.355 . S
Eu325 O339 2.374 . S
Eu325 O340 2.473 . S
Eu325 O341 2.480 . S
Eu325 O342 2.430 . S
Eu325 O343 2.679 . S
Eu325 O344 2.394 . S
C326 C324 1.500 . S
C326 C327 1.377 . S
C326 C331 1.377 . S
C327 C326 1.377 . S
C327 C328 1.395 . S
C327 H350 0.931 . S
C328 C327 1.395 . S
C328 C329 1.383 . S
C328 H351 0.931 . S
C329 C328 1.383 . S
C329 C330 1.394 . S
C330 C329 1.394 . S
C330 C331 1.378 . S
C330 H352 0.931 . S
C331 C326 1.377 . S
C331 C330 1.378 . S
C331 H353 0.931 . S
C332 O342 1.259 . S
C332 O343 1.274 . S
C333 O344 1.251 . S
C333 O345 1.251 . S
O334 C314 1.257 . S
O334 Eu315 2.473 . S
O335 C314 1.260 . S
O335 Eu315 2.480 . S
O336 Eu315 2.430 . S
O336 C322 1.259 1_556 S
O337 Eu315 2.670 1_554 S
O337 C322 1.270 . S
O337 Eu325 2.355 . S
O338 Eu315 2.394 . S
O338 C323 1.251 . S
O339 C323 1.251 1_554 S
O339 Eu325 2.374 . S
O340 C324 1.257 . S
O340 Eu325 2.473 . S
O341 C324 1.260 . S
O341 Eu325 2.480 . S
O342 Eu325 2.430 . S
O342 C332 1.259 . S
O343 Eu315 2.350 1_554 S
O343 Eu325 2.679 . S
O343 C332 1.274 . S
O344 Eu325 2.394 . S
O344 C333 1.251 . S
O345 Eu315 2.374 1_554 S
O345 C333 1.251 . S
H346 C317 0.931 . S
H347 C318 0.931 . S
H348 C320 0.931 . S
H349 C321 0.931 . S
H350 C327 0.931 . S
H351 C328 0.931 . S
H352 C330 0.931 . S
H353 C331 0.931 . S
C354 Eu355 2.835 . S
C354 C356 1.500 . S
C354 O374 1.257 . S
C354 O375 1.260 . S
Eu355 C354 2.835 . S
Eu355 O374 2.473 . S
Eu355 O375 2.480 . S
Eu355 O376 2.430 . S
Eu355 O377 2.670 . S
Eu355 O378 2.394 . S
Eu355 O383 2.355 . S
Eu355 O385 2.374 . S
C356 C354 1.500 . S
C356 C357 1.377 . S
C356 C361 1.377 . S
C357 C356 1.377 . S
C357 C358 1.395 . S
C357 H386 0.931 . S
C358 C357 1.395 . S
C358 C359 1.383 . S
C358 H387 0.931 . S
C359 C358 1.383 . S
C359 C360 1.394 . S
C360 C359 1.394 . S
C360 C361 1.378 . S
C360 H388 0.931 . S
C361 C356 1.377 . S
C361 C360 1.378 . S
C361 H389 0.931 . S
C362 O376 1.259 . S
C362 O377 1.270 . S
C363 O378 1.251 . S
C363 O379 1.251 . S
C364 Eu365 2.835 . S
C364 C366 1.500 . S
C364 O380 1.257 . S
C364 O381 1.260 . S
Eu365 C364 2.835 . S
Eu365 O377 2.355 . S
Eu365 O379 2.374 . S
Eu365 O380 2.473 . S
Eu365 O381 2.480 . S
Eu365 O382 2.430 . S
Eu365 O383 2.670 . S
Eu365 O384 2.394 . S
C366 C364 1.500 . S
C366 C367 1.377 . S
C366 C371 1.377 . S
C367 C366 1.377 . S
C367 C368 1.395 . S
C367 H390 0.931 . S
C368 C367 1.395 . S
C368 C369 1.383 . S
C368 H391 0.931 . S
C369 C368 1.383 . S
C369 C370 1.394 . S
C370 C369 1.394 . S
C370 C371 1.378 . S
C370 H392 0.931 . S
C371 C366 1.377 . S
C371 C370 1.378 . S
C371 H393 0.931 . S
C372 O382 1.259 . S
C372 O383 1.270 . S
C373 O384 1.251 . S
C373 O385 1.251 . S
O374 C354 1.257 . S
O374 Eu355 2.473 . S
O375 C354 1.260 . S
O375 Eu355 2.480 . S
O376 Eu355 2.430 . S
O376 C362 1.259 . S
O377 Eu355 2.670 . S
O377 C362 1.270 . S
O377 Eu365 2.355 . S
O378 Eu355 2.394 . S
O378 C363 1.251 . S
O379 C363 1.251 . S
O379 Eu365 2.374 . S
O380 C364 1.257 . S
O380 Eu365 2.473 . S
O381 C364 1.260 . S
O381 Eu365 2.480 . S
O382 Eu365 2.430 . S
O382 C372 1.259 . S
O383 Eu355 2.355 . S
O383 Eu365 2.670 . S
O383 C372 1.270 . S
O384 Eu365 2.394 . S
O384 C373 1.251 . S
O385 Eu355 2.374 . S
O385 C373 1.251 . S
H386 C357 0.931 . S
H387 C358 0.931 . S
H388 C360 0.931 . S
H389 C361 0.931 . S
H390 C367 0.931 . S
H391 C368 0.931 . S
H392 C370 0.931 . S
H393 C371 0.931 . S
C394 Eu395 2.835 . S
C394 C396 1.500 . S
C394 O414 1.257 . S
C394 O415 1.260 . S
Eu395 C394 2.835 . S
Eu395 O414 2.473 . S
Eu395 O415 2.480 . S
Eu395 O416 2.430 . S
Eu395 O417 2.670 . S
Eu395 O418 2.394 . S
Eu395 O423 2.355 . S
Eu395 O425 2.374 . S
C396 C394 1.500 . S
C396 C397 1.377 . S
C396 C401 1.377 . S
C397 C396 1.377 . S
C397 C398 1.395 . S
C397 H426 0.931 . S
C398 C397 1.395 . S
C398 C399 1.383 . S
C398 H427 0.931 . S
C399 C398 1.383 . S
C399 C400 1.394 . S
C400 C399 1.394 . S
C400 C401 1.378 . S
C400 H428 0.931 . S
C401 C396 1.377 . S
C401 C400 1.378 . S
C401 H429 0.931 . S
C402 O416 1.259 . S
C402 O417 1.270 . S
C403 O418 1.251 . S
C403 O419 1.251 . S
C404 Eu405 2.835 . S
C404 C406 1.500 . S
C404 O420 1.257 . S
C404 O421 1.260 . S
Eu405 C404 2.835 . S
Eu405 O417 2.355 . S
Eu405 O419 2.374 . S
Eu405 O420 2.473 . S
Eu405 O421 2.480 . S
Eu405 O422 2.430 . S
Eu405 O423 2.670 . S
Eu405 O424 2.394 . S
C406 C404 1.500 . S
C406 C407 1.377 . S
C406 C411 1.377 . S
C407 C406 1.377 . S
C407 C408 1.395 . S
C407 H430 0.931 . S
C408 C407 1.395 . S
C408 C409 1.383 . S
C408 H431 0.931 . S
C409 C408 1.383 . S
C409 C410 1.394 . S
C410 C409 1.394 . S
C410 C411 1.378 . S
C410 H432 0.931 . S
C411 C406 1.377 . S
C411 C410 1.378 . S
C411 H433 0.931 . S
C412 O422 1.259 . S
C412 O423 1.270 . S
C413 O424 1.251 . S
C413 O425 1.251 . S
O414 C394 1.257 . S
O414 Eu395 2.473 . S
O415 C394 1.260 . S
O415 Eu395 2.480 . S
O416 Eu395 2.430 . S
O416 C402 1.259 . S
O417 Eu395 2.670 . S
O417 C402 1.270 . S
O417 Eu405 2.355 . S
O418 Eu395 2.394 . S
O418 C403 1.251 . S
O419 C403 1.251 . S
O419 Eu405 2.374 . S
O420 C404 1.257 . S
O420 Eu405 2.473 . S
O421 C404 1.260 . S
O421 Eu405 2.480 . S
O422 Eu405 2.430 . S
O422 C412 1.259 . S
O423 Eu395 2.355 . S
O423 Eu405 2.670 . S
O423 C412 1.270 . S
O424 Eu405 2.394 . S
O424 C413 1.251 . S
O425 Eu395 2.374 . S
O425 C413 1.251 . S
H426 C397 0.931 . S
H427 C398 0.931 . S
H428 C400 0.931 . S
H429 C401 0.931 . S
H430 C407 0.931 . S
H431 C408 0.931 . S
H432 C410 0.931 . S
H433 C411 0.931 . S
C434 Eu435 2.835 . S
C434 C436 1.500 . S
C434 O454 1.257 . S
C434 O455 1.260 . S
Eu435 C434 2.835 . S
Eu435 O454 2.473 . S
Eu435 O455 2.480 . S
Eu435 O456 2.430 . S
Eu435 O457 2.670 . S
Eu435 O458 2.394 . S
Eu435 O463 2.355 . S
Eu435 O465 2.374 . S
C436 C434 1.500 . S
C436 C437 1.377 . S
C436 C441 1.377 . S
C437 C436 1.377 . S
C437 C438 1.395 . S
C437 H466 0.931 . S
C438 C437 1.395 . S
C438 C439 1.383 . S
C438 H467 0.931 . S
C439 C438 1.383 . S
C439 C440 1.394 . S
C440 C439 1.394 . S
C440 C441 1.378 . S
C440 H468 0.931 . S
C441 C436 1.377 . S
C441 C440 1.378 . S
C441 H469 0.931 . S
C442 O456 1.259 . S
C442 O457 1.270 . S
C443 O458 1.251 . S
C443 O459 1.251 . S
C444 Eu445 2.835 . S
C444 C446 1.500 . S
C444 O460 1.257 . S
C444 O461 1.260 . S
Eu445 C444 2.835 . S
Eu445 O457 2.355 . S
Eu445 O459 2.374 . S
Eu445 O460 2.473 . S
Eu445 O461 2.480 . S
Eu445 O462 2.430 . S
Eu445 O463 2.670 . S
Eu445 O464 2.394 . S
C446 C444 1.500 . S
C446 C447 1.377 . S
C446 C451 1.377 . S
C447 C446 1.377 . S
C447 C448 1.395 . S
C447 H470 0.931 . S
C448 C447 1.395 . S
C448 C449 1.383 . S
C448 H471 0.931 . S
C449 C448 1.383 . S
C449 C450 1.394 . S
C450 C449 1.394 . S
C450 C451 1.378 . S
C450 H472 0.931 . S
C451 C446 1.377 . S
C451 C450 1.378 . S
C451 H473 0.931 . S
C452 O462 1.259 . S
C452 O463 1.270 . S
C453 O464 1.251 . S
C453 O465 1.251 . S
O454 C434 1.257 . S
O454 Eu435 2.473 . S
O455 C434 1.260 . S
O455 Eu435 2.480 . S
O456 Eu435 2.430 . S
O456 C442 1.259 . S
O457 Eu435 2.670 . S
O457 C442 1.270 . S
O457 Eu445 2.355 . S
O458 Eu435 2.394 . S
O458 C443 1.251 . S
O459 C443 1.251 . S
O459 Eu445 2.374 . S
O460 C444 1.257 . S
O460 Eu445 2.473 . S
O461 C444 1.260 . S
O461 Eu445 2.480 . S
O462 Eu445 2.430 . S
O462 C452 1.259 . S
O463 Eu435 2.355 . S
O463 Eu445 2.670 . S
O463 C452 1.270 . S
O464 Eu445 2.394 . S
O464 C453 1.251 . S
O465 Eu435 2.374 . S
O465 C453 1.251 . S
H466 C437 0.931 . S
H467 C438 0.931 . S
H468 C440 0.931 . S
H469 C441 0.931 . S
H470 C447 0.931 . S
H471 C448 0.931 . S
H472 C450 0.931 . S
H473 C451 0.931 . S
C474 Eu475 2.835 . S
C474 C476 1.500 . S
C474 O494 1.257 . S
C474 O495 1.260 . S
Eu475 C474 2.835 . S
Eu475 O494 2.473 . S
Eu475 O495 2.480 . S
Eu475 O496 2.430 . S
Eu475 O497 2.670 . S
Eu475 O498 2.394 . S
Eu475 O503 2.355 . S
Eu475 O505 2.374 . S
C476 C474 1.500 . S
C476 C477 1.377 . S
C476 C481 1.377 . S
C477 C476 1.377 . S
C477 C478 1.395 . S
C477 H506 0.931 . S
C478 C477 1.395 . S
C478 C479 1.383 . S
C478 H507 0.931 . S
C479 C478 1.383 . S
C479 C480 1.394 . S
C480 C479 1.394 . S
C480 C481 1.378 . S
C480 H508 0.931 . S
C481 C476 1.377 . S
C481 C480 1.378 . S
C481 H509 0.931 . S
C482 O496 1.259 . S
C482 O497 1.270 . S
C483 O498 1.251 . S
C483 O499 1.251 . S
C484 Eu485 2.835 . S
C484 C486 1.500 . S
C484 O500 1.257 . S
C484 O501 1.260 . S
Eu485 C484 2.835 . S
Eu485 O497 2.355 . S
Eu485 O499 2.374 . S
Eu485 O500 2.473 . S
Eu485 O501 2.480 . S
Eu485 O502 2.430 . S
Eu485 O503 2.670 . S
Eu485 O504 2.394 . S
C486 C484 1.500 . S
C486 C487 1.377 . S
C486 C491 1.377 . S
C487 C486 1.377 . S
C487 C488 1.395 . S
C487 H510 0.931 . S
C488 C487 1.395 . S
C488 C489 1.383 . S
C488 H511 0.931 . S
C489 C488 1.383 . S
C489 C490 1.394 . S
C490 C489 1.394 . S
C490 C491 1.378 . S
C490 H512 0.931 . S
C491 C486 1.377 . S
C491 C490 1.378 . S
C491 H513 0.931 . S
C492 O502 1.259 . S
C492 O503 1.270 . S
C493 O504 1.251 . S
C493 O505 1.251 . S
O494 C474 1.257 . S
O494 Eu475 2.473 . S
O495 C474 1.260 . S
O495 Eu475 2.480 . S
O496 Eu475 2.430 . S
O496 C482 1.259 . S
O497 Eu475 2.670 . S
O497 C482 1.270 . S
O497 Eu485 2.355 . S
O498 Eu475 2.394 . S
O498 C483 1.251 . S
O499 C483 1.251 . S
O499 Eu485 2.374 . S
O500 C484 1.257 . S
O500 Eu485 2.473 . S
O501 C484 1.260 . S
O501 Eu485 2.480 . S
O502 Eu485 2.430 . S
O502 C492 1.259 . S
O503 Eu475 2.355 . S
O503 Eu485 2.670 . S
O503 C492 1.270 . S
O504 Eu485 2.394 . S
O504 C493 1.251 . S
O505 Eu475 2.374 . S
O505 C493 1.251 . S
H506 C477 0.931 . S
H507 C478 0.931 . S
H508 C480 0.931 . S
H509 C481 0.931 . S
H510 C487 0.931 . S
H511 C488 0.931 . S
H512 C490 0.931 . S
H513 C491 0.931 . S
C514 Eu515 2.835 . S
C514 C516 1.500 . S
C514 O534 1.257 . S
C514 O535 1.260 . S
Eu515 C514 2.835 . S
Eu515 O534 2.473 . S
Eu515 O535 2.480 . S
Eu515 O536 2.430 . S
Eu515 O537 2.670 . S
Eu515 O538 2.394 . S
Eu515 O543 2.355 . S
Eu515 O545 2.374 . S
C516 C514 1.500 . S
C516 C517 1.377 . S
C516 C521 1.377 . S
C517 C516 1.377 . S
C517 C518 1.395 . S
C517 H546 0.931 . S
C518 C517 1.395 . S
C518 C519 1.383 . S
C518 H547 0.931 . S
C519 C518 1.383 . S
C519 C520 1.394 . S
C520 C519 1.394 . S
C520 C521 1.378 . S
C520 H548 0.931 . S
C521 C516 1.377 . S
C521 C520 1.378 . S
C521 H549 0.931 . S
C522 O536 1.259 . S
C522 O537 1.270 . S
C523 O538 1.251 . S
C523 O539 1.251 . S
C524 Eu525 2.835 . S
C524 C526 1.500 . S
C524 O540 1.257 . S
C524 O541 1.260 . S
Eu525 C524 2.835 . S
Eu525 O537 2.355 . S
Eu525 O539 2.374 . S
Eu525 O540 2.473 . S
Eu525 O541 2.480 . S
Eu525 O542 2.430 . S
Eu525 O543 2.670 . S
Eu525 O544 2.394 . S
C526 C524 1.500 . S
C526 C527 1.377 . S
C526 C531 1.377 . S
C527 C526 1.377 . S
C527 C528 1.395 . S
C527 H550 0.931 . S
C528 C527 1.395 . S
C528 C529 1.383 . S
C528 H551 0.931 . S
C529 C528 1.383 . S
C529 C530 1.394 . S
C530 C529 1.394 . S
C530 C531 1.378 . S
C530 H552 0.931 . S
C531 C526 1.377 . S
C531 C530 1.378 . S
C531 H553 0.931 . S
C532 O542 1.259 . S
C532 O543 1.270 . S
C533 O544 1.251 . S
C533 O545 1.251 . S
O534 C514 1.257 . S
O534 Eu515 2.473 . S
O535 C514 1.260 . S
O535 Eu515 2.480 . S
O536 Eu515 2.430 . S
O536 C522 1.259 . S
O537 Eu515 2.670 . S
O537 C522 1.270 . S
O537 Eu525 2.355 . S
O538 Eu515 2.394 . S
O538 C523 1.251 . S
O539 C523 1.251 . S
O539 Eu525 2.374 . S
O540 C524 1.257 . S
O540 Eu525 2.473 . S
O541 C524 1.260 . S
O541 Eu525 2.480 . S
O542 Eu525 2.430 . S
O542 C532 1.259 . S
O543 Eu515 2.355 . S
O543 Eu525 2.670 . S
O543 C532 1.270 . S
O544 Eu525 2.394 . S
O544 C533 1.251 . S
O545 Eu515 2.374 . S
O545 C533 1.251 . S
H546 C517 0.931 . S
H547 C518 0.931 . S
H548 C520 0.931 . S
H549 C521 0.931 . S
H550 C527 0.931 . S
H551 C528 0.931 . S
H552 C530 0.931 . S
H553 C531 0.931 . S
C554 Eu555 2.835 . S
C554 C556 1.500 . S
C554 O574 1.257 . S
C554 O575 1.260 . S
Eu555 C554 2.835 . S
Eu555 O574 2.473 . S
Eu555 O575 2.480 . S
Eu555 O576 2.430 . S
Eu555 O577 2.670 . S
Eu555 O578 2.394 . S
Eu555 O583 2.355 . S
Eu555 O585 2.374 . S
C556 C554 1.500 . S
C556 C557 1.377 . S
C556 C561 1.377 . S
C557 C556 1.377 . S
C557 C558 1.395 . S
C557 H586 0.931 . S
C558 C557 1.395 . S
C558 C559 1.383 . S
C558 H587 0.931 . S
C559 C558 1.383 . S
C559 C560 1.394 . S
C560 C559 1.394 . S
C560 C561 1.378 . S
C560 H588 0.931 . S
C561 C556 1.377 . S
C561 C560 1.378 . S
C561 H589 0.931 . S
C562 O576 1.259 . S
C562 O577 1.270 . S
C563 O578 1.251 . S
C563 O579 1.251 . S
C564 Eu565 2.835 . S
C564 C566 1.500 . S
C564 O580 1.257 . S
C564 O581 1.260 . S
Eu565 C564 2.835 . S
Eu565 O577 2.355 . S
Eu565 O579 2.374 . S
Eu565 O580 2.473 . S
Eu565 O581 2.480 . S
Eu565 O582 2.430 . S
Eu565 O583 2.670 . S
Eu565 O584 2.394 . S
C566 C564 1.500 . S
C566 C567 1.377 . S
C566 C571 1.377 . S
C567 C566 1.377 . S
C567 C568 1.395 . S
C567 H590 0.931 . S
C568 C567 1.395 . S
C568 C569 1.383 . S
C568 H591 0.931 . S
C569 C568 1.383 . S
C569 C570 1.394 . S
C570 C569 1.394 . S
C570 C571 1.378 . S
C570 H592 0.931 . S
C571 C566 1.377 . S
C571 C570 1.378 . S
C571 H593 0.931 . S
C572 O582 1.259 . S
C572 O583 1.270 . S
C573 O584 1.251 . S
C573 O585 1.251 . S
O574 C554 1.257 . S
O574 Eu555 2.473 . S
O575 C554 1.260 . S
O575 Eu555 2.480 . S
O576 Eu555 2.430 . S
O576 C562 1.259 . S
O577 Eu555 2.670 . S
O577 C562 1.270 . S
O577 Eu565 2.355 . S
O578 Eu555 2.394 . S
O578 C563 1.251 . S
O579 C563 1.251 . S
O579 Eu565 2.374 . S
O580 C564 1.257 . S
O580 Eu565 2.473 . S
O581 C564 1.260 . S
O581 Eu565 2.480 . S
O582 Eu565 2.430 . S
O582 C572 1.259 . S
O583 Eu555 2.355 . S
O583 Eu565 2.670 . S
O583 C572 1.270 . S
O584 Eu565 2.394 . S
O584 C573 1.251 . S
O585 Eu555 2.374 . S
O585 C573 1.251 . S
H586 C557 0.931 . S
H587 C558 0.931 . S
H588 C560 0.931 . S
H589 C561 0.931 . S
H590 C567 0.931 . S
H591 C568 0.931 . S
H592 C570 0.931 . S
H593 C571 0.931 . S
H594 C600 0.930 . S
H595 C603 0.930 . S
H596 C604 0.930 . S
H597 C605 0.930 . S
H598 C608 0.930 . S
H599 C609 0.930 . S
C600 H594 0.930 . S
C600 C601 1.355 . S
C600 C602 1.415 . S
C601 C600 1.355 . S
C601 C603 1.419 . S
C602 C600 1.415 . S
C602 C607 1.425 . S
C602 C609 1.409 . S
C603 H595 0.930 . S
C603 C601 1.419 . S
C603 C604 1.362 . S
C604 H596 0.930 . S
C604 C603 1.362 . S
C604 C607 1.409 . S
C605 H597 0.930 . S
C605 C606 1.355 . S
C605 C607 1.415 . S
C606 C605 1.355 . S
C606 C608 1.419 . S
C607 C602 1.425 . S
C607 C604 1.409 . S
C607 C605 1.415 . S
C608 H598 0.930 . S
C608 C606 1.419 . S
C608 C609 1.362 . S
C609 H599 0.930 . S
C609 C602 1.409 . S
C609 C608 1.362 . S
H610 C616 0.930 . S
H611 C619 0.930 . S
H612 C620 0.930 . S
H613 C621 0.930 . S
H614 C624 0.888 1_556 S
H615 C625 0.930 . S
C616 H610 0.930 . S
C616 C617 1.355 . S
C616 C618 1.415 . S
C617 C616 1.355 . S
C617 C619 1.419 . S
C618 C616 1.415 . S
C618 C623 1.425 . S
C618 C625 1.409 . S
C619 H611 0.930 . S
C619 C617 1.419 . S
C619 C620 1.362 . S
C620 H612 0.930 . S
C620 C619 1.362 . S
C620 C623 1.409 . S
C621 H613 0.930 . S
C621 C622 1.355 . S
C621 C623 1.415 . S
C622 C621 1.355 . S
C622 C624 1.419 . S
C623 C618 1.425 . S
C623 C620 1.409 . S
C623 C621 1.415 . S
C624 H614 0.888 1_554 S
C624 C622 1.419 . S
C624 C625 1.362 . S
C625 H615 0.930 . S
C625 C618 1.409 . S
C625 C624 1.362 . S
H626 C632 0.930 . S
H627 C635 0.930 . S
H628 C636 0.930 . S
H629 C637 0.930 . S
H630 C640 0.930 1_556 S
H631 C641 0.930 1_556 S
C632 H626 0.930 . S
C632 C633 1.355 . S
C632 C634 1.415 . S
C633 C632 1.355 . S
C633 C635 1.419 . S
C634 C632 1.415 . S
C634 C639 1.425 . S
C634 C641 1.409 . S
C635 H627 0.930 . S
C635 C633 1.419 . S
C635 C636 1.362 . S
C636 H628 0.930 . S
C636 C635 1.362 . S
C636 C639 1.409 . S
C637 H629 0.930 . S
C637 C638 1.355 . S
C637 C639 1.415 . S
C638 C637 1.355 . S
C638 C640 1.419 . S
C639 C634 1.425 . S
C639 C636 1.409 . S
C639 C637 1.415 . S
C640 H630 0.930 1_554 S
C640 C638 1.419 . S
C640 C641 1.362 . S
C641 H631 0.930 1_554 S
C641 C634 1.409 . S
C641 C640 1.362 . S
H642 C648 0.930 . S
H643 C651 0.930 . S
H644 C652 0.930 . S
H645 C653 0.930 . S
H646 C656 0.930 . S
H647 C657 0.930 . S
C648 H642 0.930 . S
C648 C649 1.355 . S
C648 C650 1.415 . S
C649 C648 1.355 . S
C649 C651 1.419 . S
C650 C648 1.415 . S
C650 C655 1.425 . S
C650 C657 1.409 . S
C651 H643 0.930 . S
C651 C649 1.419 . S
C651 C652 1.362 . S
C652 H644 0.930 . S
C652 C651 1.362 . S
C652 C655 1.409 . S
C653 H645 0.930 . S
C653 C654 1.355 . S
C653 C655 1.415 . S
C654 C653 1.355 . S
C654 C656 1.419 . S
C655 C650 1.425 . S
C655 C652 1.409 . S
C655 C653 1.415 . S
C656 H646 0.930 . S
C656 C654 1.419 . S
C656 C657 1.362 . S
C657 H647 0.930 . S
C657 C650 1.409 . S
C657 C656 1.362 . S
H658 C664 0.930 . S
H659 C667 0.930 . S
H660 C668 0.930 . S
H661 C669 0.930 . S
H662 C672 0.930 . S
H663 C673 0.930 . S
C664 H658 0.930 . S
C664 C665 1.355 . S
C664 C666 1.415 . S
C665 C664 1.355 . S
C665 C667 1.419 . S
C666 C664 1.415 . S
C666 C671 1.425 . S
C666 C673 1.409 . S
C667 H659 0.930 . S
C667 C665 1.419 . S
C667 C668 1.362 . S
C668 H660 0.930 . S
C668 C667 1.362 . S
C668 C671 1.409 . S
C669 H661 0.930 . S
C669 C670 1.355 . S
C669 C671 1.415 . S
C670 C669 1.355 . S
C670 C672 1.419 . S
C671 C666 1.425 . S
C671 C668 1.409 . S
C671 C669 1.415 . S
C672 H662 0.930 . S
C672 C670 1.419 . S
C672 C673 1.362 . S
C673 H663 0.930 . S
C673 C666 1.409 . S
C673 C672 1.362 . S
H674 C680 0.936 . S
H675 C683 0.930 . S
H676 C684 0.930 . S
H677 C685 0.930 . S
H678 C688 0.930 . S
H679 C689 0.930 . S
C680 H674 0.936 . S
C680 C681 1.355 . S
C680 C682 1.415 . S
C681 C680 1.355 . S
C681 C683 1.419 . S
C682 C680 1.415 . S
C682 C687 1.425 . S
C682 C689 1.409 1_556 S
C683 H675 0.930 . S
C683 C681 1.419 . S
C683 C684 1.362 . S
C684 H676 0.930 . S
C684 C683 1.362 . S
C684 C687 1.409 . S
C685 H677 0.930 . S
C685 C686 1.355 . S
C685 C687 1.415 . S
C686 C685 1.355 . S
C686 C688 1.419 1_556 S
C687 C682 1.425 . S
C687 C684 1.409 . S
C687 C685 1.415 . S
C688 H678 0.930 . S
C688 C686 1.419 1_554 S
C688 C689 1.362 . S
C689 H679 0.930 . S
C689 C682 1.409 1_554 S
C689 C688 1.362 . S
H690 C696 0.930 . S
H691 C699 0.930 1_554 S
H692 C700 0.930 . S
H693 C701 0.930 1_554 S
H694 C704 0.930 . S
H695 C705 0.930 . S
C696 H690 0.930 . S
C696 C697 1.355 . S
C696 C698 1.415 . S
C697 C696 1.355 . S
C697 C699 1.419 . S
C698 C696 1.415 . S
C698 C703 1.425 . S
C698 C705 1.409 . S
C699 H691 0.930 1_556 S
C699 C697 1.419 . S
C699 C700 1.362 1_556 S
C700 H692 0.930 . S
C700 C699 1.362 1_554 S
C700 C703 1.409 1_554 S
C701 H693 0.930 1_556 S
C701 C702 1.355 . S
C701 C703 1.415 . S
C702 C701 1.355 . S
C702 C704 1.419 . S
C703 C698 1.425 . S
C703 C700 1.409 1_556 S
C703 C701 1.415 . S
C704 H694 0.930 . S
C704 C702 1.419 . S
C704 C705 1.362 . S
C705 H695 0.930 . S
C705 C698 1.409 . S
C705 C704 1.362 . S
H706 C712 0.930 . S
H707 C715 0.930 . S
H708 C716 0.930 . S
H709 C717 0.974 . S
H710 C720 0.930 . S
H711 C721 0.930 . S
C712 H706 0.930 . S
C712 C713 1.355 . S
C712 C714 1.415 . S
C713 C712 1.355 . S
C713 C715 1.419 . S
C714 C712 1.415 . S
C714 C719 1.425 . S
C714 C721 1.409 . S
C715 H707 0.930 . S
C715 C713 1.419 . S
C715 C716 1.362 . S
C716 H708 0.930 . S
C716 C715 1.362 . S
C716 C719 1.409 . S
C717 H709 0.974 . S
C717 C718 1.355 . S
C717 C719 1.415 . S
C718 C717 1.355 . S
C718 C720 1.419 . S
C719 C714 1.425 . S
C719 C716 1.409 . S
C719 C717 1.415 . S
C720 H710 0.930 . S
C720 C718 1.419 . S
C720 C721 1.362 . S
C721 H711 0.930 . S
C721 C714 1.409 . S
C721 C720 1.362 . S
H722 C728 0.930 . S
H723 C731 0.930 . S
H724 C732 0.930 . S
H725 C733 0.930 . S
H726 C736 0.930 . S
H727 C737 0.930 . S
C728 H722 0.930 . S
C728 C729 1.355 . S
C728 C730 1.415 . S
C729 C728 1.355 . S
C729 C731 1.419 1_556 S
C730 C728 1.415 . S
C730 C735 1.425 1_556 S
C730 C737 1.409 . S
C731 H723 0.930 . S
C731 C729 1.419 1_554 S
C731 C732 1.362 . S
C732 H724 0.930 . S
C732 C731 1.362 . S
C732 C735 1.409 . S
C733 H725 0.930 . S
C733 C734 1.355 1_554 S
C733 C735 1.415 . S
C734 C733 1.355 1_556 S
C734 C736 1.419 . S
C735 C730 1.425 1_554 S
C735 C732 1.409 . S
C735 C733 1.415 . S
C736 H726 0.930 . S
C736 C734 1.419 . S
C736 C737 1.362 . S
C737 H727 0.930 . S
C737 C730 1.409 . S
C737 C736 1.362 . S
H738 C744 0.930 . S
H739 C747 0.930 . S
H740 C748 0.930 . S
H741 C749 0.930 . S
H742 C752 0.930 . S
H743 C753 0.930 . S
C744 H738 0.930 . S
C744 C745 1.355 . S
C744 C746 1.415 . S
C745 C744 1.355 . S
C745 C747 1.419 . S
C746 C744 1.415 . S
C746 C751 1.425 . S
C746 C753 1.409 1_554 S
C747 H739 0.930 . S
C747 C745 1.419 . S
C747 C748 1.362 . S
C748 H740 0.930 . S
C748 C747 1.362 . S
C748 C751 1.409 . S
C749 H741 0.930 . S
C749 C750 1.355 . S
C749 C751 1.415 . S
C750 C749 1.355 . S
C750 C752 1.419 1_554 S
C751 C746 1.425 . S
C751 C748 1.409 . S
C751 C749 1.415 . S
C752 H742 0.930 . S
C752 C750 1.419 1_556 S
C752 C753 1.362 . S
C753 H743 0.930 . S
C753 C746 1.409 1_556 S
C753 C752 1.362 . S
H754 C760 0.930 . S
H755 C763 0.930 . S
H756 C764 0.930 . S
H757 C765 0.930 . S
H758 C768 0.930 . S
H759 C769 0.930 . S
C760 H754 0.930 . S
C760 C761 1.355 . S
C760 C762 1.415 . S
C761 C760 1.355 . S
C761 C763 1.419 . S
C762 C760 1.415 . S
C762 C767 1.425 . S
C762 C769 1.409 . S
C763 H755 0.930 . S
C763 C761 1.419 . S
C763 C764 1.362 . S
C764 H756 0.930 . S
C764 C763 1.362 . S
C764 C767 1.409 . S
C765 H757 0.930 . S
C765 C766 1.355 . S
C765 C767 1.415 . S
C766 C765 1.355 . S
C766 C768 1.419 . S
C767 C762 1.425 . S
C767 C764 1.409 . S
C767 C765 1.415 . S
C768 H758 0.930 . S
C768 C766 1.419 . S
C768 C769 1.362 . S
C769 H759 0.930 . S
C769 C762 1.409 . S
C769 C768 1.362 . S
H770 C776 0.930 . S
H771 C779 0.930 . S
H772 C780 0.930 . S
H773 C781 0.930 . S
H774 C784 0.930 . S
H775 C785 0.930 . S
C776 H770 0.930 . S
C776 C777 1.355 . S
C776 C778 1.415 . S
C777 C776 1.355 . S
C777 C779 1.419 . S
C778 C776 1.415 . S
C778 C783 1.425 . S
C778 C785 1.409 . S
C779 H771 0.930 . S
C779 C777 1.419 . S
C779 C780 1.362 . S
C780 H772 0.930 . S
C780 C779 1.362 . S
C780 C783 1.409 . S
C781 H773 0.930 . S
C781 C782 1.355 . S
C781 C783 1.415 . S
C782 C781 1.355 . S
C782 C784 1.419 . S
C783 C778 1.425 . S
C783 C780 1.409 . S
C783 C781 1.415 . S
C784 H774 0.930 . S
C784 C782 1.419 . S
C784 C785 1.362 . S
C785 H775 0.930 . S
C785 C778 1.409 . S
C785 C784 1.362 . S
H786 C792 0.930 . S
H787 C795 0.930 . S
H788 C796 0.930 . S
H789 C797 0.930 . S
H790 C800 0.930 . S
H791 C801 0.930 . S
C792 H786 0.930 . S
C792 C793 1.355 . S
C792 C794 1.415 . S
C793 C792 1.355 . S
C793 C795 1.419 . S
C794 C792 1.415 . S
C794 C799 1.425 . S
C794 C801 1.409 1_655 S
C795 H787 0.930 . S
C795 C793 1.419 . S
C795 C796 1.362 . S
C796 H788 0.930 . S
C796 C795 1.362 . S
C796 C799 1.409 . S
C797 H789 0.930 . S
C797 C798 1.355 . S
C797 C799 1.415 1_455 S
C798 C797 1.355 . S
C798 C800 1.419 . S
C799 C794 1.425 . S
C799 C796 1.409 . S
C799 C797 1.415 1_655 S
C800 H790 0.930 . S
C800 C798 1.419 . S
C800 C801 1.362 . S
C801 H791 0.930 . S
C801 C794 1.409 1_455 S
C801 C800 1.362 . S
H802 C808 0.930 . S
H803 C811 0.930 . S
H804 C812 0.930 . S
H805 C813 0.930 . S
H806 C816 0.930 . S
H807 C817 0.930 . S
C808 H802 0.930 . S
C808 C809 1.355 . S
C808 C810 1.415 . S
C809 C808 1.355 . S
C809 C811 1.419 . S
C810 C808 1.415 . S
C810 C815 1.425 . S
C810 C817 1.409 . S
C811 H803 0.930 . S
C811 C809 1.419 . S
C811 C812 1.362 . S
C812 H804 0.930 . S
C812 C811 1.362 . S
C812 C815 1.409 . S
C813 H805 0.930 . S
C813 C814 1.355 . S
C813 C815 1.415 . S
C814 C813 1.355 . S
C814 C816 1.419 . S
C815 C810 1.425 . S
C815 C812 1.409 . S
C815 C813 1.415 . S
C816 H806 0.930 . S
C816 C814 1.419 . S
C816 C817 1.362 . S
C817 H807 0.930 . S
C817 C810 1.409 . S
C817 C816 1.362 . S
H818 C824 0.930 . S
H819 C827 0.930 . S
H820 C828 0.930 . S
H821 C829 0.930 . S
H822 C832 0.930 . S
H823 C833 0.930 . S
C824 H818 0.930 . S
C824 C825 1.355 . S
C824 C826 1.415 . S
C825 C824 1.355 . S
C825 C827 1.419 . S
C826 C824 1.415 . S
C826 C831 1.425 . S
C826 C833 1.409 1_545 S
C827 H819 0.930 . S
C827 C825 1.419 . S
C827 C828 1.362 . S
C828 H820 0.930 . S
C828 C827 1.362 . S
C828 C831 1.409 . S
C829 H821 0.930 . S
C829 C830 1.355 . S
C829 C831 1.415 1_565 S
C830 C829 1.355 . S
C830 C832 1.419 . S
C831 C826 1.425 . S
C831 C828 1.409 . S
C831 C829 1.415 1_545 S
C832 H822 0.930 . S
C832 C830 1.419 . S
C832 C833 1.362 . S
C833 H823 0.930 . S
C833 C826 1.409 1_565 S
C833 C832 1.362 . S
H834 C840 0.930 . S
H835 C843 0.930 . S
H836 C844 0.930 . S
H837 C845 0.930 . S
H838 C848 0.930 . S
H839 C849 0.930 . S
C840 H834 0.930 . S
C840 C841 1.355 . S
C840 C842 1.415 . S
C841 C840 1.355 . S
C841 C843 1.419 . S
C842 C840 1.415 . S
C842 C847 1.425 . S
C842 C849 1.409 . S
C843 H835 0.930 . S
C843 C841 1.419 . S
C843 C844 1.362 . S
C844 H836 0.930 . S
C844 C843 1.362 . S
C844 C847 1.409 . S
C845 H837 0.930 . S
C845 C846 1.355 . S
C845 C847 1.415 . S
C846 C845 1.355 . S
C846 C848 1.419 . S
C847 C842 1.425 . S
C847 C844 1.409 . S
C847 C845 1.415 . S
C848 H838 0.930 . S
C848 C846 1.419 . S
C848 C849 1.362 . S
C849 H839 0.930 . S
C849 C842 1.409 . S
C849 C848 1.362 . S
H850 C856 0.930 . S
H851 C859 0.930 . S
H852 C860 0.930 . S
H853 C861 0.930 . S
H854 C864 0.930 . S
H855 C865 0.930 . S
C856 H850 0.930 . S
C856 C857 1.355 . S
C856 C858 1.415 . S
C857 C856 1.355 . S
C857 C859 1.419 . S
C858 C856 1.415 . S
C858 C863 1.425 . S
C858 C865 1.409 . S
C859 H851 0.930 . S
C859 C857 1.419 . S
C859 C860 1.362 . S
C860 H852 0.930 . S
C860 C859 1.362 . S
C860 C863 1.409 . S
C861 H853 0.930 . S
C861 C862 1.355 . S
C861 C863 1.415 . S
C862 C861 1.355 . S
C862 C864 1.419 . S
C863 C858 1.425 . S
C863 C860 1.409 . S
C863 C861 1.415 . S
C864 H854 0.930 . S
C864 C862 1.419 . S
C864 C865 1.362 . S
C865 H855 0.930 . S
C865 C858 1.409 . S
C865 C864 1.362 . S
H866 C872 0.930 . S
H867 C875 0.930 . S
H868 C876 0.930 . S
H869 C877 0.930 . S
H870 C880 0.930 . S
H871 C881 0.930 . S
C872 H866 0.930 . S
C872 C873 1.355 . S
C872 C874 1.415 . S
C873 C872 1.355 . S
C873 C875 1.419 . S
C874 C872 1.415 . S
C874 C879 1.425 . S
C874 C881 1.409 . S
C875 H867 0.930 . S
C875 C873 1.419 . S
C875 C876 1.362 . S
C876 H868 0.930 . S
C876 C875 1.362 . S
C876 C879 1.409 . S
C877 H869 0.930 . S
C877 C878 1.355 . S
C877 C879 1.415 . S
C878 C877 1.355 . S
C878 C880 1.419 . S
C879 C874 1.425 . S
C879 C876 1.409 . S
C879 C877 1.415 . S
C880 H870 0.930 . S
C880 C878 1.419 . S
C880 C881 1.362 . S
C881 H871 0.930 . S
C881 C874 1.409 . S
C881 C880 1.362 . S
H882 C888 0.930 . S
H883 C891 0.930 . S
H884 C892 0.930 . S
H885 C893 0.930 . S
H886 C896 0.930 . S
H887 C897 0.930 . S
C888 H882 0.930 . S
C888 C889 1.355 . S
C888 C890 1.415 . S
C889 C888 1.355 . S
C889 C891 1.419 . S
C890 C888 1.415 . S
C890 C895 1.425 . S
C890 C897 1.409 . S
C891 H883 0.930 . S
C891 C889 1.419 . S
C891 C892 1.362 . S
C892 H884 0.930 . S
C892 C891 1.362 . S
C892 C895 1.409 . S
C893 H885 0.930 . S
C893 C894 1.355 . S
C893 C895 1.415 . S
C894 C893 1.355 . S
C894 C896 1.419 . S
C895 C890 1.425 . S
C895 C892 1.409 . S
C895 C893 1.415 . S
C896 H886 0.930 . S
C896 C894 1.419 . S
C896 C897 1.362 . S
C897 H887 0.930 . S
C897 C890 1.409 . S
C897 C896 1.362 . S
H898 C904 0.930 . S
H899 C907 0.930 . S
H900 C908 0.930 . S
H901 C909 0.930 . S
H902 C912 0.930 . S
H903 C913 0.930 . S
C904 H898 0.930 . S
C904 C905 1.355 . S
C904 C906 1.415 . S
C905 C904 1.355 . S
C905 C907 1.419 . S
C906 C904 1.415 . S
C906 C911 1.425 . S
C906 C913 1.409 . S
C907 H899 0.930 . S
C907 C905 1.419 . S
C907 C908 1.362 . S
C908 H900 0.930 . S
C908 C907 1.362 . S
C908 C911 1.409 . S
C909 H901 0.930 . S
C909 C910 1.355 . S
C909 C911 1.415 . S
C910 C909 1.355 . S
C910 C912 1.419 . S
C911 C906 1.425 . S
C911 C908 1.409 . S
C911 C909 1.415 . S
C912 H902 0.930 . S
C912 C910 1.419 . S
C912 C913 1.362 . S
C913 H903 0.930 . S
C913 C906 1.409 . S
C913 C912 1.362 . S
H914 C920 0.930 . S
H915 C923 0.930 . S
H916 C924 0.930 . S
H917 C925 0.930 . S
H918 C928 0.930 . S
H919 C929 0.930 . S
C920 H914 0.930 . S
C920 C921 1.355 . S
C920 C922 1.415 . S
C921 C920 1.355 . S
C921 C923 1.419 . S
C922 C920 1.415 . S
C922 C927 1.425 . S
C922 C929 1.409 . S
C923 H915 0.930 . S
C923 C921 1.419 . S
C923 C924 1.362 . S
C924 H916 0.930 . S
C924 C923 1.362 . S
C924 C927 1.409 . S
C925 H917 0.930 . S
C925 C926 1.355 . S
C925 C927 1.415 . S
C926 C925 1.355 . S
C926 C928 1.419 . S
C927 C922 1.425 . S
C927 C924 1.409 . S
C927 C925 1.415 . S
C928 H918 0.930 . S
C928 C926 1.419 . S
C928 C929 1.362 . S
C929 H919 0.930 . S
C929 C922 1.409 . S
C929 C928 1.362 . S
H930 C936 0.930 . S
H931 C939 0.930 . S
H932 C940 0.930 . S
H933 C941 0.930 . S
H934 C944 0.930 . S
H935 C945 0.930 . S
C936 H930 0.930 . S
C936 C937 1.355 . S
C936 C938 1.415 1_545 S
C937 C936 1.355 . S
C937 C939 1.419 . S
C938 C936 1.415 1_565 S
C938 C943 1.425 . S
C938 C945 1.409 . S
C939 H931 0.930 . S
C939 C937 1.419 . S
C939 C940 1.362 1_545 S
C940 H932 0.930 . S
C940 C939 1.362 1_565 S
C940 C943 1.409 . S
C941 H933 0.930 . S
C941 C942 1.355 . S
C941 C943 1.415 . S
C942 C941 1.355 . S
C942 C944 1.419 . S
C943 C938 1.425 . S
C943 C940 1.409 . S
C943 C941 1.415 . S
C944 H934 0.930 . S
C944 C942 1.419 . S
C944 C945 1.362 . S
C945 H935 0.930 . S
C945 C938 1.409 . S
C945 C944 1.362 . S
H946 C952 0.930 . S
H947 C955 0.930 . S
H948 C956 0.930 . S
H949 C957 0.930 . S
H950 C960 0.930 . S
H951 C961 0.930 . S
C952 H946 0.930 . S
C952 C953 1.355 1_455 S
C952 C954 1.415 . S
C953 C952 1.355 1_655 S
C953 C955 1.419 . S
C954 C952 1.415 . S
C954 C959 1.425 . S
C954 C961 1.409 . S
C955 H947 0.930 . S
C955 C953 1.419 . S
C955 C956 1.362 1_655 S
C956 H948 0.930 . S
C956 C955 1.362 1_455 S
C956 C959 1.409 . S
C957 H949 0.930 . S
C957 C958 1.355 . S
C957 C959 1.415 . S
C958 C957 1.355 . S
C958 C960 1.419 . S
C959 C954 1.425 . S
C959 C956 1.409 . S
C959 C957 1.415 . S
C960 H950 0.930 . S
C960 C958 1.419 . S
C960 C961 1.362 . S
C961 H951 0.930 . S
C961 C954 1.409 . S
C961 C960 1.362 . S
H962 C968 0.930 . S
H963 C971 0.930 . S
H964 C972 0.930 . S
H965 C973 0.930 . S
H966 C976 0.930 . S
H967 C977 0.930 . S
C968 H962 0.930 . S
C968 C969 1.355 . S
C968 C970 1.415 . S
C969 C968 1.355 . S
C969 C971 1.419 . S
C970 C968 1.415 . S
C970 C975 1.425 . S
C970 C977 1.409 . S
C971 H963 0.930 . S
C971 C969 1.419 . S
C971 C972 1.362 . S
C972 H964 0.930 . S
C972 C971 1.362 . S
C972 C975 1.409 . S
C973 H965 0.930 . S
C973 C974 1.355 . S
C973 C975 1.415 . S
C974 C973 1.355 . S
C974 C976 1.419 . S
C975 C970 1.425 . S
C975 C972 1.409 . S
C975 C973 1.415 . S
C976 H966 0.930 . S
C976 C974 1.419 . S
C976 C977 1.362 . S
C977 H967 0.930 . S
C977 C970 1.409 . S
C977 C976 1.362 . S
H978 C984 0.930 . S
H979 C987 0.930 . S
H980 C988 0.930 . S
H981 C989 0.930 . S
H982 C992 0.930 . S
H983 C993 0.930 . S
C984 H978 0.930 . S
C984 C985 1.355 . S
C984 C986 1.415 . S
C985 C984 1.355 . S
C985 C987 1.419 . S
C986 C984 1.415 . S
C986 C991 1.425 . S
C986 C993 1.409 . S
C987 H979 0.930 . S
C987 C985 1.419 . S
C987 C988 1.362 . S
C988 H980 0.930 . S
C988 C987 1.362 . S
C988 C991 1.409 . S
C989 H981 0.930 . S
C989 C990 1.355 . S
C989 C991 1.415 . S
C990 C989 1.355 . S
C990 C992 1.419 . S
C991 C986 1.425 . S
C991 C988 1.409 . S
C991 C989 1.415 . S
C992 H982 0.930 . S
C992 C990 1.419 . S
C992 C993 1.362 . S
C993 H983 0.930 . S
C993 C986 1.409 . S
C993 C992 1.362 . S
H994 C1000 0.930 . S
H995 C1003 0.930 . S
H996 C1004 0.930 . S
H997 C1005 0.930 . S
H998 C1008 0.930 . S
H999 C1009 0.930 . S
C1000 H994 0.930 . S
C1000 C1001 1.355 . S
C1000 C1002 1.415 . S
C1001 C1000 1.355 . S
C1001 C1003 1.419 . S
C1002 C1000 1.415 . S
C1002 C1007 1.425 . S
C1002 C1009 1.409 . S
C1003 H995 0.930 . S
C1003 C1001 1.419 . S
C1003 C1004 1.362 . S
C1004 H996 0.930 . S
C1004 C1003 1.362 . S
C1004 C1007 1.409 . S
C1005 H997 0.930 . S
C1005 C1006 1.355 . S
C1005 C1007 1.415 . S
C1006 C1005 1.355 . S
C1006 C1008 1.419 . S
C1007 C1002 1.425 . S
C1007 C1004 1.409 . S
C1007 C1005 1.415 . S
C1008 H998 0.930 . S
C1008 C1006 1.419 . S
C1008 C1009 1.362 . S
C1009 H999 0.930 . S
C1009 C1002 1.409 . S
C1009 C1008 1.362 . S
H1010 C1016 0.930 . S
H1011 C1019 0.930 . S
H1012 C1020 0.930 . S
H1013 C1021 0.930 . S
H1014 C1024 0.930 . S
H1015 C1025 0.930 . S
C1016 H1010 0.930 . S
C1016 C1017 1.355 . S
C1016 C1018 1.415 . S
C1017 C1016 1.355 . S
C1017 C1019 1.419 . S
C1018 C1016 1.415 . S
C1018 C1023 1.425 . S
C1018 C1025 1.409 . S
C1019 H1011 0.930 . S
C1019 C1017 1.419 . S
C1019 C1020 1.362 . S
C1020 H1012 0.930 . S
C1020 C1019 1.362 . S
C1020 C1023 1.409 . S
C1021 H1013 0.930 . S
C1021 C1022 1.355 . S
C1021 C1023 1.415 . S
C1022 C1021 1.355 . S
C1022 C1024 1.419 . S
C1023 C1018 1.425 . S
C1023 C1020 1.409 . S
C1023 C1021 1.415 . S
C1024 H1014 0.930 . S
C1024 C1022 1.419 . S
C1024 C1025 1.362 . S
C1025 H1015 0.930 . S
C1025 C1018 1.409 . S
C1025 C1024 1.362 . S
H1026 C1032 0.930 . S
H1027 C1035 0.930 . S
H1028 C1036 0.930 . S
H1029 C1037 0.930 . S
H1030 C1040 0.930 . S
H1031 C1041 0.930 . S
C1032 H1026 0.930 . S
C1032 C1033 1.355 . S
C1032 C1034 1.415 . S
C1033 C1032 1.355 . S
C1033 C1035 1.419 . S
C1034 C1032 1.415 . S
C1034 C1039 1.425 . S
C1034 C1041 1.409 1_565 S
C1035 H1027 0.930 . S
C1035 C1033 1.419 . S
C1035 C1036 1.362 . S
C1036 H1028 0.930 . S
C1036 C1035 1.362 . S
C1036 C1039 1.409 . S
C1037 H1029 0.930 . S
C1037 C1038 1.355 . S
C1037 C1039 1.415 1_545 S
C1038 C1037 1.355 . S
C1038 C1040 1.419 . S
C1039 C1034 1.425 . S
C1039 C1036 1.409 . S
C1039 C1037 1.415 1_565 S
C1040 H1030 0.930 . S
C1040 C1038 1.419 . S
C1040 C1041 1.362 . S
C1041 H1031 0.930 . S
C1041 C1034 1.409 1_545 S
C1041 C1040 1.362 . S
H1042 C1048 0.930 . S
H1043 C1051 0.930 . S
H1044 C1052 0.930 1_655 S
H1045 C1053 0.930 . S
H1046 C1056 0.930 . S
H1047 C1057 0.930 . S
C1048 H1042 0.930 . S
C1048 C1049 1.355 . S
C1048 C1050 1.415 . S
C1049 C1048 1.355 . S
C1049 C1051 1.419 . S
C1050 C1048 1.415 . S
C1050 C1055 1.425 1_455 S
C1050 C1057 1.409 . S
C1051 H1043 0.930 . S
C1051 C1049 1.419 . S
C1051 C1052 1.362 . S
C1052 H1044 0.930 1_455 S
C1052 C1051 1.362 . S
C1052 C1055 1.409 1_455 S
C1053 H1045 0.930 . S
C1053 C1054 1.355 . S
C1053 C1055 1.415 . S
C1054 C1053 1.355 . S
C1054 C1056 1.419 . S
C1055 C1050 1.425 1_655 S
C1055 C1052 1.409 1_655 S
C1055 C1053 1.415 . S
C1056 H1046 0.930 . S
C1056 C1054 1.419 . S
C1056 C1057 1.362 1_655 S
C1057 H1047 0.930 . S
C1057 C1050 1.409 . S
C1057 C1056 1.362 1_455 S
H1058 C1064 0.930 . S
H1059 C1067 0.930 . S
H1060 C1068 0.930 . S
H1061 C1069 0.930 . S
H1062 C1072 0.930 . S
H1063 C1073 0.930 . S
C1064 H1058 0.930 . S
C1064 C1065 1.355 . S
C1064 C1066 1.415 . S
C1065 C1064 1.355 . S
C1065 C1067 1.419 . S
C1066 C1064 1.415 . S
C1066 C1071 1.425 . S
C1066 C1073 1.409 . S
C1067 H1059 0.930 . S
C1067 C1065 1.419 . S
C1067 C1068 1.362 . S
C1068 H1060 0.930 . S
C1068 C1067 1.362 . S
C1068 C1071 1.409 . S
C1069 H1061 0.930 . S
C1069 C1070 1.355 . S
C1069 C1071 1.415 . S
C1070 C1069 1.355 . S
C1070 C1072 1.419 . S
C1071 C1066 1.425 . S
C1071 C1068 1.409 . S
C1071 C1069 1.415 . S
C1072 H1062 0.930 . S
C1072 C1070 1.419 . S
C1072 C1073 1.362 . S
C1073 H1063 0.930 . S
C1073 C1066 1.409 . S
C1073 C1072 1.362 . S
H1074 C1080 0.930 . S
H1075 C1083 0.930 . S
H1076 C1084 0.930 . S
H1077 C1085 0.930 . S
H1078 C1088 0.930 . S
H1079 C1089 0.930 . S
C1080 H1074 0.930 . S
C1080 C1081 1.355 . S
C1080 C1082 1.415 1_455 S
C1081 C1080 1.355 . S
C1081 C1083 1.419 . S
C1082 C1080 1.415 1_655 S
C1082 C1087 1.425 . S
C1082 C1089 1.409 . S
C1083 H1075 0.930 . S
C1083 C1081 1.419 . S
C1083 C1084 1.362 1_455 S
C1084 H1076 0.930 . S
C1084 C1083 1.362 1_655 S
C1084 C1087 1.409 . S
C1085 H1077 0.930 . S
C1085 C1086 1.355 . S
C1085 C1087 1.415 . S
C1086 C1085 1.355 . S
C1086 C1088 1.419 . S
C1087 C1082 1.425 . S
C1087 C1084 1.409 . S
C1087 C1085 1.415 . S
C1088 H1078 0.930 . S
C1088 C1086 1.419 . S
C1088 C1089 1.362 . S
C1089 H1079 0.930 . S
C1089 C1082 1.409 . S
C1089 C1088 1.362 . S
H1090 C1096 0.930 . S
H1091 C1099 0.930 . S
H1092 C1100 0.930 . S
H1093 C1101 0.930 . S
H1094 C1104 0.930 . S
H1095 C1105 0.930 . S
C1096 H1090 0.930 . S
C1096 C1097 1.355 . S
C1096 C1098 1.415 . S
C1097 C1096 1.355 . S
C1097 C1099 1.419 . S
C1098 C1096 1.415 . S
C1098 C1103 1.425 . S
C1098 C1105 1.409 . S
C1099 H1091 0.930 . S
C1099 C1097 1.419 . S
C1099 C1100 1.362 . S
C1100 H1092 0.930 . S
C1100 C1099 1.362 . S
C1100 C1103 1.409 . S
C1101 H1093 0.930 . S
C1101 C1102 1.355 . S
C1101 C1103 1.415 . S
C1102 C1101 1.355 . S
C1102 C1104 1.419 . S
C1103 C1098 1.425 . S
C1103 C1100 1.409 . S
C1103 C1101 1.415 . S
C1104 H1094 0.930 . S
C1104 C1102 1.419 . S
C1104 C1105 1.362 . S
C1105 H1095 0.930 . S
C1105 C1098 1.409 . S
C1105 C1104 1.362 . S
H1106 C1112 0.930 1_565 S
H1107 C1115 0.930 . S
H1108 C1116 0.930 . S
H1109 C1117 0.930 . S
H1110 C1120 0.930 . S
H1111 C1121 0.930 . S
C1112 H1106 0.930 1_545 S
C1112 C1113 1.355 1_545 S
C1112 C1114 1.415 . S
C1113 C1112 1.355 1_565 S
C1113 C1115 1.419 . S
C1114 C1112 1.415 . S
C1114 C1119 1.425 . S
C1114 C1121 1.409 . S
C1115 H1107 0.930 . S
C1115 C1113 1.419 . S
C1115 C1116 1.362 1_565 S
C1116 H1108 0.930 . S
C1116 C1115 1.362 1_545 S
C1116 C1119 1.409 . S
C1117 H1109 0.930 . S
C1117 C1118 1.355 . S
C1117 C1119 1.415 . S
C1118 C1117 1.355 . S
C1118 C1120 1.419 . S
C1119 C1114 1.425 . S
C1119 C1116 1.409 . S
C1119 C1117 1.415 . S
C1120 H1110 0.930 . S
C1120 C1118 1.419 . S
C1120 C1121 1.362 . S
C1121 H1111 0.930 . S
C1121 C1114 1.409 . S
C1121 C1120 1.362 . S
H1122 C1128 0.930 . S
H1123 C1131 0.930 . S
H1124 C1132 0.930 . S
H1125 C1133 0.930 . S
H1126 C1136 0.930 . S
H1127 C1137 0.930 . S
C1128 H1122 0.930 . S
C1128 C1129 1.355 . S
C1128 C1130 1.415 . S
C1129 C1128 1.355 . S
C1129 C1131 1.419 . S
C1130 C1128 1.415 . S
C1130 C1135 1.425 . S
C1130 C1137 1.409 . S
C1131 H1123 0.930 . S
C1131 C1129 1.419 . S
C1131 C1132 1.362 . S
C1132 H1124 0.930 . S
C1132 C1131 1.362 . S
C1132 C1135 1.409 . S
C1133 H1125 0.930 . S
C1133 C1134 1.355 . S
C1133 C1135 1.415 . S
C1134 C1133 1.355 . S
C1134 C1136 1.419 . S
C1135 C1130 1.425 . S
C1135 C1132 1.409 . S
C1135 C1133 1.415 . S
C1136 H1126 0.930 . S
C1136 C1134 1.419 . S
C1136 C1137 1.362 . S
C1137 H1127 0.930 . S
C1137 C1130 1.409 . S
C1137 C1136 1.362 . S
H1138 C1144 0.930 . S
H1139 C1147 0.930 . S
H1140 C1148 0.930 . S
H1141 C1149 0.930 . S
H1142 C1152 0.930 . S
H1143 C1153 0.930 . S
C1144 H1138 0.930 . S
C1144 C1145 1.355 . S
C1144 C1146 1.415 . S
C1145 C1144 1.355 . S
C1145 C1147 1.419 . S
C1146 C1144 1.415 . S
C1146 C1151 1.425 . S
C1146 C1153 1.409 . S
C1147 H1139 0.930 . S
C1147 C1145 1.419 . S
C1147 C1148 1.362 . S
C1148 H1140 0.930 . S
C1148 C1147 1.362 . S
C1148 C1151 1.409 . S
C1149 H1141 0.930 . S
C1149 C1150 1.355 . S
C1149 C1151 1.415 . S
C1150 C1149 1.355 . S
C1150 C1152 1.419 . S
C1151 C1146 1.425 . S
C1151 C1148 1.409 . S
C1151 C1149 1.415 . S
C1152 H1142 0.930 . S
C1152 C1150 1.419 . S
C1152 C1153 1.362 . S
C1153 H1143 0.930 . S
C1153 C1146 1.409 . S
C1153 C1152 1.362 . S
H1154 C1160 0.930 . S
H1155 C1163 0.930 . S
H1156 C1164 0.930 . S
H1157 C1165 0.930 . S
H1158 C1168 0.930 . S
H1159 C1169 0.930 . S
C1160 H1154 0.930 . S
C1160 C1161 1.355 . S
C1160 C1162 1.415 . S
C1161 C1160 1.355 . S
C1161 C1163 1.419 . S
C1162 C1160 1.415 . S
C1162 C1167 1.425 . S
C1162 C1169 1.409 . S
C1163 H1155 0.930 . S
C1163 C1161 1.419 . S
C1163 C1164 1.362 . S
C1164 H1156 0.930 . S
C1164 C1163 1.362 . S
C1164 C1167 1.409 . S
C1165 H1157 0.930 . S
C1165 C1166 1.355 . S
C1165 C1167 1.415 . S
C1166 C1165 1.355 . S
C1166 C1168 1.419 . S
C1167 C1162 1.425 . S
C1167 C1164 1.409 . S
C1167 C1165 1.415 . S
C1168 H1158 0.930 . S
C1168 C1166 1.419 . S
C1168 C1169 1.362 . S
C1169 H1159 0.930 . S
C1169 C1162 1.409 . S
C1169 C1168 1.362 . S
H1170 C1176 0.930 . S
H1171 C1179 0.930 . S
H1172 C1180 0.930 . S
H1173 C1181 0.930 . S
H1174 C1184 0.930 . S
H1175 C1185 0.930 . S
C1176 H1170 0.930 . S
C1176 C1177 1.355 . S
C1176 C1178 1.415 . S
C1177 C1176 1.355 . S
C1177 C1179 1.419 . S
C1178 C1176 1.415 . S
C1178 C1183 1.425 . S
C1178 C1185 1.409 . S
C1179 H1171 0.930 . S
C1179 C1177 1.419 . S
C1179 C1180 1.362 . S
C1180 H1172 0.930 . S
C1180 C1179 1.362 . S
C1180 C1183 1.409 . S
C1181 H1173 0.930 . S
C1181 C1182 1.355 . S
C1181 C1183 1.415 . S
C1182 C1181 1.355 . S
C1182 C1184 1.419 . S
C1183 C1178 1.425 . S
C1183 C1180 1.409 . S
C1183 C1181 1.415 . S
C1184 H1174 0.930 . S
C1184 C1182 1.419 . S
C1184 C1185 1.362 . S
C1185 H1175 0.930 . S
C1185 C1178 1.409 . S
C1185 C1184 1.362 . S
H1186 C1192 0.930 . S
H1187 C1195 0.930 . S
H1188 C1196 0.930 1_655 S
H1189 C1197 0.930 . S
H1190 C1200 0.930 . S
H1191 C1201 0.930 . S
C1192 H1186 0.930 . S
C1192 C1193 1.355 . S
C1192 C1194 1.415 . S
C1193 C1192 1.355 . S
C1193 C1195 1.419 . S
C1194 C1192 1.415 . S
C1194 C1199 1.425 . S
C1194 C1201 1.409 . S
C1195 H1187 0.930 . S
C1195 C1193 1.419 . S
C1195 C1196 1.362 . S
C1196 H1188 0.930 1_455 S
C1196 C1195 1.362 . S
C1196 C1199 1.409 . S
C1197 H1189 0.930 . S
C1197 C1198 1.355 . S
C1197 C1199 1.415 . S
C1198 C1197 1.355 . S
C1198 C1200 1.419 . S
C1199 C1194 1.425 . S
C1199 C1196 1.409 . S
C1199 C1197 1.415 . S
C1200 H1190 0.930 . S
C1200 C1198 1.419 . S
C1200 C1201 1.362 . S
C1201 H1191 0.930 . S
C1201 C1194 1.409 . S
C1201 C1200 1.362 . S
H1202 C1208 0.930 . S
H1203 C1211 0.930 . S
H1204 C1212 0.930 . S
H1205 C1213 0.930 . S
H1206 C1216 0.930 . S
H1207 C1217 0.930 . S
C1208 H1202 0.930 . S
C1208 C1209 1.355 . S
C1208 C1210 1.415 . S
C1209 C1208 1.355 . S
C1209 C1211 1.419 . S
C1210 C1208 1.415 . S
C1210 C1215 1.425 . S
C1210 C1217 1.409 . S
C1211 H1203 0.930 . S
C1211 C1209 1.419 . S
C1211 C1212 1.362 . S
C1212 H1204 0.930 . S
C1212 C1211 1.362 . S
C1212 C1215 1.409 . S
C1213 H1205 0.930 . S
C1213 C1214 1.355 . S
C1213 C1215 1.415 . S
C1214 C1213 1.355 . S
C1214 C1216 1.419 . S
C1215 C1210 1.425 . S
C1215 C1212 1.409 . S
C1215 C1213 1.415 . S
C1216 H1206 0.930 . S
C1216 C1214 1.419 . S
C1216 C1217 1.362 . S
C1217 H1207 0.930 . S
C1217 C1210 1.409 . S
C1217 C1216 1.362 . S
H1218 C1224 0.930 . S
H1219 C1227 0.930 . S
H1220 C1228 0.930 . S
H1221 C1229 0.930 . S
H1222 C1232 0.930 . S
H1223 C1233 0.930 . S
C1224 H1218 0.930 . S
C1224 C1225 1.355 . S
C1224 C1226 1.415 . S
C1225 C1224 1.355 . S
C1225 C1227 1.419 . S
C1226 C1224 1.415 . S
C1226 C1231 1.425 . S
C1226 C1233 1.409 . S
C1227 H1219 0.930 . S
C1227 C1225 1.419 . S
C1227 C1228 1.362 . S
C1228 H1220 0.930 . S
C1228 C1227 1.362 . S
C1228 C1231 1.409 . S
C1229 H1221 0.930 . S
C1229 C1230 1.355 . S
C1229 C1231 1.415 . S
C1230 C1229 1.355 . S
C1230 C1232 1.419 . S
C1231 C1226 1.425 . S
C1231 C1228 1.409 . S
C1231 C1229 1.415 . S
C1232 H1222 0.930 . S
C1232 C1230 1.419 . S
C1232 C1233 1.362 . S
C1233 H1223 0.930 . S
C1233 C1226 1.409 . S
C1233 C1232 1.362 . S
H1234 C1240 0.930 . S
H1235 C1243 0.930 . S
H1236 C1244 0.930 . S
H1237 C1245 0.930 . S
H1238 C1248 0.930 . S
H1239 C1249 0.930 . S
C1240 H1234 0.930 . S
C1240 C1241 1.355 . S
C1240 C1242 1.415 . S
C1241 C1240 1.355 . S
C1241 C1243 1.419 . S
C1242 C1240 1.415 . S
C1242 C1247 1.425 . S
C1242 C1249 1.409 . S
C1243 H1235 0.930 . S
C1243 C1241 1.419 . S
C1243 C1244 1.362 . S
C1244 H1236 0.930 . S
C1244 C1243 1.362 . S
C1244 C1247 1.409 . S
C1245 H1237 0.930 . S
C1245 C1246 1.355 . S
C1245 C1247 1.415 . S
C1246 C1245 1.355 . S
C1246 C1248 1.419 . S
C1247 C1242 1.425 . S
C1247 C1244 1.409 . S
C1247 C1245 1.415 . S
C1248 H1238 0.930 . S
C1248 C1246 1.419 . S
C1248 C1249 1.362 . S
C1249 H1239 0.930 . S
C1249 C1242 1.409 . S
C1249 C1248 1.362 . S
H1250 C1256 0.930 . S
H1251 C1259 0.930 . S
H1252 C1260 0.930 . S
H1253 C1261 0.930 . S
H1254 C1264 0.930 . S
H1255 C1265 0.930 . S
C1256 H1250 0.930 . S
C1256 C1257 1.355 . S
C1256 C1258 1.415 . S
C1257 C1256 1.355 . S
C1257 C1259 1.419 . S
C1258 C1256 1.415 . S
C1258 C1263 1.425 . S
C1258 C1265 1.409 . S
C1259 H1251 0.930 . S
C1259 C1257 1.419 . S
C1259 C1260 1.362 . S
C1260 H1252 0.930 . S
C1260 C1259 1.362 . S
C1260 C1263 1.409 . S
C1261 H1253 0.930 . S
C1261 C1262 1.355 . S
C1261 C1263 1.415 . S
C1262 C1261 1.355 . S
C1262 C1264 1.419 . S
C1263 C1258 1.425 . S
C1263 C1260 1.409 . S
C1263 C1261 1.415 . S
C1264 H1254 0.930 . S
C1264 C1262 1.419 . S
C1264 C1265 1.362 . S
C1265 H1255 0.930 . S
C1265 C1258 1.409 . S
C1265 C1264 1.362 . S
H1266 C1272 0.930 . S
H1267 C1275 0.930 . S
H1268 C1276 0.930 . S
H1269 C1277 0.930 . S
H1270 C1280 0.930 . S
H1271 C1281 0.930 . S
C1272 H1266 0.930 . S
C1272 C1273 1.355 . S
C1272 C1274 1.415 . S
C1273 C1272 1.355 . S
C1273 C1275 1.419 . S
C1274 C1272 1.415 . S
C1274 C1279 1.425 . S
C1274 C1281 1.409 . S
C1275 H1267 0.930 . S
C1275 C1273 1.419 . S
C1275 C1276 1.362 . S
C1276 H1268 0.930 . S
C1276 C1275 1.362 . S
C1276 C1279 1.409 . S
C1277 H1269 0.930 . S
C1277 C1278 1.355 . S
C1277 C1279 1.415 . S
C1278 C1277 1.355 . S
C1278 C1280 1.419 . S
C1279 C1274 1.425 . S
C1279 C1276 1.409 . S
C1279 C1277 1.415 . S
C1280 H1270 0.930 . S
C1280 C1278 1.419 . S
C1280 C1281 1.362 . S
C1281 H1271 0.930 . S
C1281 C1274 1.409 . S
C1281 C1280 1.362 . S
H1282 C1288 0.930 . S
H1283 C1291 0.930 . S
H1284 C1292 0.930 . S
H1285 C1293 0.930 . S
H1286 C1296 0.930 . S
H1287 C1297 0.930 . S
C1288 H1282 0.930 . S
C1288 C1289 1.355 . S
C1288 C1290 1.415 . S
C1289 C1288 1.355 . S
C1289 C1291 1.419 . S
C1290 C1288 1.415 . S
C1290 C1295 1.425 . S
C1290 C1297 1.409 . S
C1291 H1283 0.930 . S
C1291 C1289 1.419 . S
C1291 C1292 1.362 . S
C1292 H1284 0.930 . S
C1292 C1291 1.362 . S
C1292 C1295 1.409 . S
C1293 H1285 0.930 . S
C1293 C1294 1.355 . S
C1293 C1295 1.415 . S
C1294 C1293 1.355 . S
C1294 C1296 1.419 . S
C1295 C1290 1.425 . S
C1295 C1292 1.409 . S
C1295 C1293 1.415 . S
C1296 H1286 0.930 . S
C1296 C1294 1.419 . S
C1296 C1297 1.362 . S
C1297 H1287 0.930 . S
C1297 C1290 1.409 . S
C1297 C1296 1.362 . S
H1298 C1304 0.930 . S
H1299 C1307 0.930 . S
H1300 C1308 0.930 . S
H1301 C1309 0.930 . S
H1302 C1312 0.930 . S
H1303 C1313 0.930 . S
C1304 H1298 0.930 . S
C1304 C1305 1.355 . S
C1304 C1306 1.415 . S
C1305 C1304 1.355 . S
C1305 C1307 1.419 . S
C1306 C1304 1.415 . S
C1306 C1311 1.425 . S
C1306 C1313 1.409 . S
C1307 H1299 0.930 . S
C1307 C1305 1.419 . S
C1307 C1308 1.362 . S
C1308 H1300 0.930 . S
C1308 C1307 1.362 . S
C1308 C1311 1.409 . S
C1309 H1301 0.930 . S
C1309 C1310 1.355 . S
C1309 C1311 1.415 . S
C1310 C1309 1.355 . S
C1310 C1312 1.419 . S
C1311 C1306 1.425 . S
C1311 C1308 1.409 . S
C1311 C1309 1.415 . S
C1312 H1302 0.930 . S
C1312 C1310 1.419 . S
C1312 C1313 1.362 . S
C1313 H1303 0.930 . S
C1313 C1306 1.409 . S
C1313 C1312 1.362 . S
H1314 C1320 0.930 . S
H1315 C1323 0.930 . S
H1316 C1324 0.930 . S
H1317 C1325 0.930 . S
H1318 C1328 0.930 . S
H1319 C1329 0.930 . S
C1320 H1314 0.930 . S
C1320 C1321 1.355 . S
C1320 C1322 1.415 . S
C1321 C1320 1.355 . S
C1321 C1323 1.419 . S
C1322 C1320 1.415 . S
C1322 C1327 1.425 . S
C1322 C1329 1.409 . S
C1323 H1315 0.930 . S
C1323 C1321 1.419 . S
C1323 C1324 1.362 . S
C1324 H1316 0.930 . S
C1324 C1323 1.362 . S
C1324 C1327 1.409 . S
C1325 H1317 0.930 . S
C1325 C1326 1.355 . S
C1325 C1327 1.415 . S
C1326 C1325 1.355 . S
C1326 C1328 1.419 . S
C1327 C1322 1.425 . S
C1327 C1324 1.409 . S
C1327 C1325 1.415 . S
C1328 H1318 0.930 . S
C1328 C1326 1.419 . S
C1328 C1329 1.362 . S
C1329 H1319 0.930 . S
C1329 C1322 1.409 . S
C1329 C1328 1.362 . S
H1330 C1336 0.930 . S
H1331 C1339 0.930 . S
H1332 C1340 0.930 . S
H1333 C1341 0.930 . S
H1334 C1344 0.930 . S
H1335 C1345 0.930 . S
C1336 H1330 0.930 . S
C1336 C1337 1.355 . S
C1336 C1338 1.415 . S
C1337 C1336 1.355 . S
C1337 C1339 1.419 . S
C1338 C1336 1.415 . S
C1338 C1343 1.425 . S
C1338 C1345 1.409 . S
C1339 H1331 0.930 . S
C1339 C1337 1.419 . S
C1339 C1340 1.362 . S
C1340 H1332 0.930 . S
C1340 C1339 1.362 . S
C1340 C1343 1.409 . S
C1341 H1333 0.930 . S
C1341 C1342 1.355 . S
C1341 C1343 1.415 . S
C1342 C1341 1.355 . S
C1342 C1344 1.419 . S
C1343 C1338 1.425 . S
C1343 C1340 1.409 . S
C1343 C1341 1.415 . S
C1344 H1334 0.930 . S
C1344 C1342 1.419 . S
C1344 C1345 1.362 . S
C1345 H1335 0.930 . S
C1345 C1338 1.409 . S
C1345 C1344 1.362 . S
H1346 C1352 0.930 . S
H1347 C1355 0.930 . S
H1348 C1356 0.930 . S
H1349 C1357 0.930 . S
H1350 C1360 0.930 . S
H1351 C1361 0.930 . S
C1352 H1346 0.930 . S
C1352 C1353 1.355 . S
C1352 C1354 1.415 . S
C1353 C1352 1.355 . S
C1353 C1355 1.419 . S
C1354 C1352 1.415 . S
C1354 C1359 1.425 . S
C1354 C1361 1.409 . S
C1355 H1347 0.930 . S
C1355 C1353 1.419 . S
C1355 C1356 1.362 . S
C1356 H1348 0.930 . S
C1356 C1355 1.362 . S
C1356 C1359 1.409 . S
C1357 H1349 0.930 . S
C1357 C1358 1.355 . S
C1357 C1359 1.415 . S
C1358 C1357 1.355 . S
C1358 C1360 1.419 . S
C1359 C1354 1.425 . S
C1359 C1356 1.409 . S
C1359 C1357 1.415 . S
C1360 H1350 0.930 . S
C1360 C1358 1.419 . S
C1360 C1361 1.362 . S
C1361 H1351 0.930 . S
C1361 C1354 1.409 . S
C1361 C1360 1.362 . S
H1362 C1368 0.930 . S
H1363 C1371 0.930 . S
H1364 C1372 0.930 . S
H1365 C1373 0.930 . S
H1366 C1376 0.930 . S
H1367 C1377 0.930 . S
C1368 H1362 0.930 . S
C1368 C1369 1.355 . S
C1368 C1370 1.415 . S
C1369 C1368 1.355 . S
C1369 C1371 1.419 . S
C1370 C1368 1.415 . S
C1370 C1375 1.425 . S
C1370 C1377 1.409 . S
C1371 H1363 0.930 . S
C1371 C1369 1.419 . S
C1371 C1372 1.362 . S
C1372 H1364 0.930 . S
C1372 C1371 1.362 . S
C1372 C1375 1.409 . S
C1373 H1365 0.930 . S
C1373 C1374 1.355 . S
C1373 C1375 1.415 . S
C1374 C1373 1.355 . S
C1374 C1376 1.419 . S
C1375 C1370 1.425 . S
C1375 C1372 1.409 . S
C1375 C1373 1.415 . S
C1376 H1366 0.930 . S
C1376 C1374 1.419 . S
C1376 C1377 1.362 . S
C1377 H1367 0.930 . S
C1377 C1370 1.409 . S
C1377 C1376 1.362 . S
H1378 C1384 0.930 . S
H1379 C1387 0.930 . S
H1380 C1388 0.930 . S
H1381 C1389 0.930 . S
H1382 C1392 0.930 . S
H1383 C1393 0.930 . S
C1384 H1378 0.930 . S
C1384 C1385 1.355 . S
C1384 C1386 1.415 . S
C1385 C1384 1.355 . S
C1385 C1387 1.419 . S
C1386 C1384 1.415 . S
C1386 C1391 1.425 . S
C1386 C1393 1.409 . S
C1387 H1379 0.930 . S
C1387 C1385 1.419 . S
C1387 C1388 1.362 . S
C1388 H1380 0.930 . S
C1388 C1387 1.362 . S
C1388 C1391 1.409 . S
C1389 H1381 0.930 . S
C1389 C1390 1.355 . S
C1389 C1391 1.415 . S
C1390 C1389 1.355 . S
C1390 C1392 1.419 . S
C1391 C1386 1.425 . S
C1391 C1388 1.409 . S
C1391 C1389 1.415 . S
C1392 H1382 0.930 . S
C1392 C1390 1.419 . S
C1392 C1393 1.362 . S
C1393 H1383 0.930 . S
C1393 C1386 1.409 . S
C1393 C1392 1.362 . S
H1394 C1400 0.930 . S
H1395 C1403 0.930 . S
H1396 C1404 0.930 . S
H1397 C1405 0.930 . S
H1398 C1408 0.930 . S
H1399 C1409 0.930 . S
C1400 H1394 0.930 . S
C1400 C1401 1.355 . S
C1400 C1402 1.415 . S
C1401 C1400 1.355 . S
C1401 C1403 1.419 . S
C1402 C1400 1.415 . S
C1402 C1407 1.425 . S
C1402 C1409 1.409 . S
C1403 H1395 0.930 . S
C1403 C1401 1.419 . S
C1403 C1404 1.362 . S
C1404 H1396 0.930 . S
C1404 C1403 1.362 . S
C1404 C1407 1.409 . S
C1405 H1397 0.930 . S
C1405 C1406 1.355 . S
C1405 C1407 1.415 . S
C1406 C1405 1.355 . S
C1406 C1408 1.419 . S
C1407 C1402 1.425 . S
C1407 C1404 1.409 . S
C1407 C1405 1.415 . S
C1408 H1398 0.930 . S
C1408 C1406 1.419 . S
C1408 C1409 1.362 . S
C1409 H1399 0.930 . S
C1409 C1402 1.409 . S
C1409 C1408 1.362 . S
H1410 C1416 0.930 . S
H1411 C1419 0.930 . S
H1412 C1420 0.930 . S
H1413 C1421 0.930 . S
H1414 C1424 0.930 . S
H1415 C1425 0.930 . S
C1416 H1410 0.930 . S
C1416 C1417 1.355 . S
C1416 C1418 1.415 . S
C1417 C1416 1.355 . S
C1417 C1419 1.419 . S
C1418 C1416 1.415 . S
C1418 C1423 1.425 . S
C1418 C1425 1.409 . S
C1419 H1411 0.930 . S
C1419 C1417 1.419 . S
C1419 C1420 1.362 . S
C1420 H1412 0.930 . S
C1420 C1419 1.362 . S
C1420 C1423 1.409 . S
C1421 H1413 0.930 . S
C1421 C1422 1.355 . S
C1421 C1423 1.415 . S
C1422 C1421 1.355 . S
C1422 C1424 1.419 . S
C1423 C1418 1.425 . S
C1423 C1420 1.409 . S
C1423 C1421 1.415 . S
C1424 H1414 0.930 . S
C1424 C1422 1.419 . S
C1424 C1425 1.362 . S
C1425 H1415 0.930 . S
C1425 C1418 1.409 . S
C1425 C1424 1.362 . S
H1426 C1432 0.930 . S
H1427 C1435 0.930 . S
H1428 C1436 0.930 . S
H1429 C1437 0.930 . S
H1430 C1440 0.930 . S
H1431 C1441 0.930 . S
C1432 H1426 0.930 . S
C1432 C1433 1.355 . S
C1432 C1434 1.415 . S
C1433 C1432 1.355 . S
C1433 C1435 1.419 . S
C1434 C1432 1.415 . S
C1434 C1439 1.425 . S
C1434 C1441 1.409 . S
C1435 H1427 0.930 . S
C1435 C1433 1.419 . S
C1435 C1436 1.362 . S
C1436 H1428 0.930 . S
C1436 C1435 1.362 . S
C1436 C1439 1.409 . S
C1437 H1429 0.930 . S
C1437 C1438 1.355 . S
C1437 C1439 1.415 . S
C1438 C1437 1.355 . S
C1438 C1440 1.419 . S
C1439 C1434 1.425 . S
C1439 C1436 1.409 . S
C1439 C1437 1.415 . S
C1440 H1430 0.930 . S
C1440 C1438 1.419 . S
C1440 C1441 1.362 . S
C1441 H1431 0.930 . S
C1441 C1434 1.409 . S
C1441 C1440 1.362 . S
H1442 C1448 0.930 . S
H1443 C1451 0.930 . S
H1444 C1452 0.930 . S
H1445 C1453 0.930 . S
H1446 C1456 0.930 . S
H1447 C1457 0.930 . S
C1448 H1442 0.930 . S
C1448 C1449 1.355 . S
C1448 C1450 1.415 . S
C1449 C1448 1.355 . S
C1449 C1451 1.419 . S
C1450 C1448 1.415 . S
C1450 C1455 1.425 . S
C1450 C1457 1.409 . S
C1451 H1443 0.930 . S
C1451 C1449 1.419 . S
C1451 C1452 1.362 . S
C1452 H1444 0.930 . S
C1452 C1451 1.362 . S
C1452 C1455 1.409 . S
C1453 H1445 0.930 . S
C1453 C1454 1.355 . S
C1453 C1455 1.415 . S
C1454 C1453 1.355 . S
C1454 C1456 1.419 . S
C1455 C1450 1.425 . S
C1455 C1452 1.409 . S
C1455 C1453 1.415 . S
C1456 H1446 0.930 . S
C1456 C1454 1.419 . S
C1456 C1457 1.362 . S
C1457 H1447 0.930 . S
C1457 C1450 1.409 . S
C1457 C1456 1.362 . S
C601 C177 1.649 . S
C606 C243 1.651 . S
C617 C190 1.739 . S
C622 C283 1.730 . S
C633 C164 1.567 . S
C638 C322 1.521 . S
C649 C151 1.476 . S
C654 C282 1.471 1_556 S
C670 C323 1.503 . S
C665 C125 1.504 . S
C681 C138 1.359 . S
C686 C242 1.373 1_556 S
C702 C253 1.602 . S
C697 C147 1.651 . S
C718 C293 1.608 . S
C713 C121 1.622 . S
C729 C134 1.643 . S
C734 C332 1.683 1_556 S
C745 C173 1.435 . S
C750 C292 1.479 . S
C761 C186 1.432 . S
C766 C333 1.419 . S
C782 C252 1.487 . S
C777 C160 1.458 . S
C798 C363 1.644 . S
C793 C21 1.650 . S
C809 C34 1.760 . S
C814 C403 1.757 . S
C825 C8 1.582 . S
C830 C442 1.524 . S
C841 C229 1.467 . S
C846 C402 1.457 . S
C857 C203 1.500 . S
C862 C443 1.496 . S
C873 C216 1.396 . S
C878 C362 1.349 . S
C889 C225 1.633 . S
C894 C373 1.649 . S
C905 C199 1.588 . S
C910 C413 1.645 . S
C926 C452 1.628 . S
C921 C212 1.564 . S
C937 C17 1.432 . S
C942 C412 1.475 . S
C958 C453 1.448 . S
C953 C30 1.474 . S
C969 C4 1.458 . S
C974 C372 1.487 . S
C990 C483 1.656 . S
C985 C99 1.655 . S
C1001 C112 1.740 . S
C1006 C523 1.730 . S
C1022 C562 1.586 . S
C1017 C86 1.587 . S
C1038 C522 1.456 . S
C1033 C73 1.499 . S
C1054 C563 1.492 . S
C1049 C47 1.499 . S
C1065 C60 1.364 . S
C1070 C482 1.331 . S
C1081 C69 1.612 . S
C1086 C493 1.587 . S
C1097 C43 1.602 . S
C1102 C533 1.592 . S
C1118 C572 1.637 . S
C1113 C56 1.575 . S
C1129 C95 1.479 . S
C1134 C532 1.514 . S
C1145 C108 1.469 . S
C1150 C573 1.457 . S
C1161 C82 1.479 . S
C1166 C492 1.510 . S
C1177 C204 1.511 . S
C1182 C239 1.496 . S
C1198 C279 1.908 . S
C1193 C217 1.913 . S
C1209 C230 1.557 . S
C1214 C329 1.571 . S
C1225 C87 1.745 . S
C1230 C289 1.751 . S
C1241 C100 1.681 . S
C1246 C319 1.684 . S
C1262 C249 1.344 . S
C1257 C113 1.349 . S
C1273 C48 1.521 . S
C1278 C359 1.512 . S
C1289 C61 1.889 . S
C1294 C399 1.883 . S
C1305 C74 1.558 . S
C1310 C449 1.572 . S
C1321 C165 1.745 . S
C1326 C409 1.759 . S
C1342 C439 1.672 . S
C1337 C178 1.675 . S
C1353 C191 1.344 . S
C1358 C369 1.342 . S
C1369 C126 1.514 . S
C1374 C479 1.502 . S
C1385 C139 1.918 . S
C1390 C519 1.915 . S
C1406 C569 1.564 . S
C1401 C152 1.548 . S
C1417 C9 1.714 . S
C1422 C529 1.739 . S
C1433 C22 1.674 . S
C1438 C559 1.680 . S
C1449 C35 1.331 . S
C1454 C489 1.339 . S
