# Generated by pormake.
# Topology zzz, (3,6)-cn, num edge types: 1
# Building blocks:
#     Node 0, Type 0, BuildingBlock: BETDAH_clean_linker_0, # of connection points: 3
#     Node 1, Type 0, BuildingBlock: BETDAH_clean_linker_0, # of connection points: 3
#     Node 2, Type 0, BuildingBlock: BETDAH_clean_linker_0, # of connection points: 3
#     Node 3, Type 0, BuildingBlock: BETDAH_clean_linker_0, # of connection points: 3
#     Node 4, Type 0, BuildingBlock: BETDAH_clean_linker_0, # of connection points: 3
#     Node 5, Type 0, BuildingBlock: BETDAH_clean_linker_0, # of connection points: 3
#     Node 6, Type 0, BuildingBlock: BETDAH_clean_linker_0, # of connection points: 3
#     Node 7, Type 0, BuildingBlock: BETDAH_clean_linker_0, # of connection points: 3
#     Node 8, Type 1, BuildingBlock: CUWYAW_clean_sbu_0, # of connection points: 6
#     Node 9, Type 1, BuildingBlock: CUWYAW_clean_sbu_0, # of connection points: 6
#     Node 10, Type 1, BuildingBlock: CUWYAW_clean_sbu_0, # of connection points: 6
#     Node 11, Type 1, BuildingBlock: CUWYAW_clean_sbu_0, # of connection points: 6
#     Edge 12, Type (0, 1), BuildingBlock: EZIPEK_clean_linker_0, # of connection points: 2
#     Edge 13, Type (0, 1), BuildingBlock: EZIPEK_clean_linker_0, # of connection points: 2
#     Edge 14, Type (0, 1), BuildingBlock: EZIPEK_clean_linker_0, # of connection points: 2
#     Edge 15, Type (0, 1), BuildingBlock: EZIPEK_clean_linker_0, # of connection points: 2
#     Edge 16, Type (0, 1), BuildingBlock: EZIPEK_clean_linker_0, # of connection points: 2
#     Edge 17, Type (0, 1), BuildingBlock: EZIPEK_clean_linker_0, # of connection points: 2
#     Edge 18, Type (0, 1), BuildingBlock: EZIPEK_clean_linker_0, # of connection points: 2
#     Edge 19, Type (0, 1), BuildingBlock: EZIPEK_clean_linker_0, # of connection points: 2
#     Edge 20, Type (0, 1), BuildingBlock: EZIPEK_clean_linker_0, # of connection points: 2
#     Edge 21, Type (0, 1), BuildingBlock: EZIPEK_clean_linker_0, # of connection points: 2
#     Edge 22, Type (0, 1), BuildingBlock: EZIPEK_clean_linker_0, # of connection points: 2
#     Edge 23, Type (0, 1), BuildingBlock: EZIPEK_clean_linker_0, # of connection points: 2
#     Edge 24, Type (0, 1), BuildingBlock: EZIPEK_clean_linker_0, # of connection points: 2
#     Edge 25, Type (0, 1), BuildingBlock: EZIPEK_clean_linker_0, # of connection points: 2
#     Edge 26, Type (0, 1), BuildingBlock: EZIPEK_clean_linker_0, # of connection points: 2
#     Edge 27, Type (0, 1), BuildingBlock: EZIPEK_clean_linker_0, # of connection points: 2
#     Edge 28, Type (0, 1), BuildingBlock: EZIPEK_clean_linker_0, # of connection points: 2
#     Edge 29, Type (0, 1), BuildingBlock: EZIPEK_clean_linker_0, # of connection points: 2
#     Edge 30, Type (0, 1), BuildingBlock: EZIPEK_clean_linker_0, # of connection points: 2
#     Edge 31, Type (0, 1), BuildingBlock: EZIPEK_clean_linker_0, # of connection points: 2
#     Edge 32, Type (0, 1), BuildingBlock: EZIPEK_clean_linker_0, # of connection points: 2
#     Edge 33, Type (0, 1), BuildingBlock: EZIPEK_clean_linker_0, # of connection points: 2
#     Edge 34, Type (0, 1), BuildingBlock: EZIPEK_clean_linker_0, # of connection points: 2
#     Edge 35, Type (0, 1), BuildingBlock: EZIPEK_clean_linker_0, # of connection points: 2
# Relax obj value: 0.358
# Max RMSD: 0.188
# Mean RMSD: 0.137
data_MOF--net-zzz--node1-CUWYAW_clean_sbu_0--node2-BETDAH_clean_linker_0--edge1-EZIPEK_clean_linker_0
_symmetry_space_group_name_H-M    P1
_symmetry_Int_Tables_number       1
_symmetry_cell_setting            triclinic
loop_
_symmetry_equiv_pos_as_xyz
'x, y, z'
_cell_length_a     37.784187
_cell_length_b     38.115949
_cell_length_c     10.726498
_cell_angle_alpha  89.885556
_cell_angle_beta   89.673018
_cell_angle_gamma 89.801495
loop_
_atom_site_label
_atom_site_type_symbol
_atom_site_fract_x
_atom_site_fract_y
_atom_site_fract_z
_atom_type_partial_charge
H0 H 0.83801 0.49781 0.39756 0.0
H1 H 0.73194 0.50414 0.26427 0.0
H2 H 0.75626 0.53937 0.63822 0.0
C3 C 0.81079 0.50584 0.41447 0.0
C4 C 0.80152 0.51982 0.53046 0.0
C5 C 0.78561 0.49947 0.32226 0.0
C6 C 0.75052 0.50944 0.33837 0.0
C7 C 0.73909 0.52427 0.45074 0.0
C8 C 0.7648 0.52907 0.54898 0.0
N9 N 0.70203 0.53288 0.46602 0.0
C10 C 0.67564 0.53013 0.372 0.0
H11 H 0.02685 0.83474 0.39462 0.0
H12 H 1.01687 0.72907 0.26997 0.0
H13 H 0.99616 0.75452 0.65768 0.0
C14 C 1.01961 0.80785 0.41638 0.0
C15 C 1.00997 0.79927 0.53847 0.0
C16 C 0.02284 0.78236 0.32311 0.0
C17 C 1.01406 0.7477 0.34555 0.0
C18 C 1.00467 0.73655 0.46504 0.0
C19 C 1.00265 0.76265 0.56359 0.0
N20 N 0.99911 0.69939 0.48537 0.0
C21 C 1.00228 0.67282 0.39188 0.0
H22 H 0.70498 0.02564 0.38121 0.0
H23 H 0.81276 0.0191 0.2664 0.0
H24 H 0.78255 0.98518 0.63816 0.0
C25 C 0.73175 1.01717 0.40253 0.0
C26 C 0.73908 1.00377 0.52099 0.0
C27 C 0.75862 0.02432 0.31626 0.0
C28 C 0.79313 1.01374 0.33762 0.0
C29 C 0.80273 0.99921 0.45234 0.0
C30 C 0.77545 0.99473 0.54653 0.0
N31 N 0.83962 0.99132 0.47419 0.0
C32 C 0.86746 0.99718 0.38639 0.0
H33 H 0.52609 0.70314 0.42578 0.0
H34 H 0.54336 0.80489 0.2749 0.0
H35 H 0.53171 0.79096 0.67398 0.0
C36 C 0.53026 0.73081 0.44105 0.0
C37 C 0.52908 0.74263 0.56325 0.0
C38 C 0.53564 0.75303 0.33842 0.0
C39 C 0.5398 0.78869 0.35581 0.0
C40 C 0.53856 0.80353 0.47457 0.0
C41 C 0.53315 0.78014 0.58088 0.0
N42 N 0.54241 0.84135 0.48488 0.0
C43 C 0.54632 0.86545 0.38272 0.0
H44 H 0.2062 0.54806 0.17764 0.0
H45 H 0.31115 0.53537 0.31651 0.0
H46 H 0.27969 0.48148 0.97958 0.0
C47 C 0.23229 0.53633 0.16698 0.0
C48 C 0.23897 0.51435 0.0656 0.0
C49 C 0.25831 0.54412 0.25467 0.0
C50 C 0.29181 0.52907 0.24609 0.0
C51 C 0.30004 0.50571 0.14938 0.0
C52 C 0.27353 0.49877 0.05669 0.0
N53 N 0.33443 0.48932 0.14539 0.0
C54 C 0.36108 0.49316 0.23706 0.0
H55 H 0.99527 0.20261 0.19006 0.0
H56 H 1.00543 0.30578 0.33893 0.0
H57 H 0.05929 0.27843 0.99419 0.0
C58 C 1.00637 0.22876 0.18111 0.0
C59 C 0.02838 0.23623 0.08003 0.0
C60 C 0.99786 0.25393 0.27114 0.0
C61 C 1.01189 0.28755 0.26527 0.0
C62 C 0.03397 0.29747 0.16634 0.0
C63 C 0.04237 0.27141 0.07201 0.0
N64 N 0.04718 0.33311 0.16137 0.0
C65 C 0.04071 0.36016 0.25097 0.0
H66 H 0.33533 1.01127 0.25154 0.0
H67 H 0.22636 0.01833 0.34994 0.0
H68 H 0.26081 0.05171 0.98291 0.0
C69 C 0.3089 0.0197 0.2258 0.0
C70 C 0.30283 0.0325 0.10512 0.0
C71 C 0.28108 1.0128 0.30848 0.0
C72 C 0.247 0.02387 0.28235 0.0
C73 C 0.23908 0.03913 0.16712 0.0
C74 C 0.26703 0.04238 0.07563 0.0
N75 N 0.20301 0.04906 0.14186 0.0
C76 C 0.1749 0.04579 0.22942 0.0
H77 H 0.55271 0.33282 0.15709 0.0
H78 H 0.54363 0.22911 0.30412 0.0
H79 H 0.48855 0.25725 0.96456 0.0
C80 C 0.54239 0.3064 0.14707 0.0
C81 C 0.51996 0.29906 0.04804 0.0
C82 C 0.55074 0.28129 0.23736 0.0
C83 C 0.53733 0.2474 0.23043 0.0
C84 C 0.51514 0.23764 0.13233 0.0
C85 C 0.5062 0.26392 0.03992 0.0
N86 N 0.50146 0.20223 0.12792 0.0
C87 C 0.50757 0.17528 0.21782 0.0
C88 C 0.95696 0.03812 0.531 0.0
Eu89 Eu 0.99418 0.02319 0.7276 0.0
C90 C 0.94204 0.07135 0.48649 0.0
C91 C 0.91977 0.09157 0.56382 0.0
C92 C 0.91661 0.12759 0.54365 0.0
C93 C 0.93566 0.14328 0.44641 0.0
C94 C 0.95407 0.12249 0.35996 0.0
C95 C 0.95709 0.08658 0.37962 0.0
C96 C 0.96425 1.01491 0.96099 0.0
C97 C 0.02721 0.09342 0.8671 0.0
C98 C 0.10237 0.99228 0.0353 0.0
Eu99 Eu 0.05419 1.01334 0.88106 0.0
C100 C 0.10594 0.95673 0.08687 0.0
C101 C 0.12524 0.93131 0.01964 0.0
C102 C 0.11768 0.89587 0.03541 0.0
C103 C 0.09202 0.88568 0.12234 0.0
C104 C 0.07623 0.91057 0.201 0.0
C105 C 0.08302 0.94597 0.18306 0.0
C106 C 0.07332 0.03273 0.64395 0.0
C107 C 1.01802 0.94179 0.7575 0.0
O108 O 0.9915 0.03757 0.53238 0.0
O109 O 0.94323 0.02451 0.63205 0.0
O110 O 0.94725 0.02087 0.85904 0.0
O111 O 0.99752 1.01405 0.93868 0.0
O112 O 1.00882 0.08147 0.77045 0.0
O113 O 0.04436 0.07041 0.93666 0.0
O114 O 0.07426 1.0098 0.07071 0.0
O115 O 0.10764 0.99457 0.91528 0.0
O116 O 0.08504 0.04717 0.74462 0.0
O117 O 0.05007 1.01012 0.67434 0.0
O118 O 0.04069 0.95466 0.84037 0.0
O119 O 0.99688 0.96377 0.69819 0.0
H120 H 0.90766 0.08041 0.64651 0.0
H121 H 0.90228 0.14357 0.61051 0.0
H122 H 0.96889 0.13448 0.28431 0.0
H123 H 0.97429 0.07141 0.31884 0.0
H124 H 0.14341 0.93889 0.94597 0.0
H125 H 0.13014 0.87668 0.97491 0.0
H126 H 0.0565 0.90277 0.26937 0.0
H127 H 0.0679 0.96485 0.23695 0.0
C128 C 0.48661 0.95335 0.53982 0.0
Eu129 Eu 0.51191 0.98982 0.72197 0.0
C130 C 0.45013 0.94201 0.51846 0.0
C131 C 0.43153 0.92265 0.60955 0.0
C132 C 0.39462 0.92121 0.60675 0.0
C133 C 0.3763 0.93948 0.51402 0.0
C134 C 0.39502 0.9559 0.41681 0.0
C135 C 0.43173 0.95693 0.4185 0.0
C136 C 0.527 0.95919 0.94852 0.0
C137 C 0.44468 0.0261 0.87196 0.0
C138 C 0.54613 0.09054 0.06679 0.0
Eu139 Eu 0.52713 0.05037 0.88317 0.0
C140 C 0.58166 0.09694 0.11643 0.0
C141 C 0.60287 0.12328 0.06222 0.0
C142 C 0.63955 0.12164 0.07249 0.0
C143 C 0.65499 0.09438 0.14046 0.0
C144 C 0.63372 0.07094 0.20817 0.0
C145 C 0.59716 0.07225 0.19664 0.0
C146 C 0.51746 0.07998 0.65074 0.0
C147 C 0.59507 1.0121 0.73914 0.0
O148 O 0.49131 0.98722 0.5339 0.0
O149 O 0.50351 0.93906 0.63287 0.0
O150 O 0.51605 0.94334 0.85004 0.0
O151 O 0.52724 0.99245 0.92638 0.0
O152 O 0.45548 1.00192 0.79179 0.0
O153 O 0.46762 0.04791 0.92197 0.0
O154 O 0.53318 0.0591 0.08314 0.0
O155 O 0.54142 0.10169 0.95331 0.0
O156 O 0.52106 0.09678 0.75374 0.0
O157 O 0.51543 0.04712 0.67653 0.0
O158 O 0.58441 0.03423 0.82807 0.0
O159 O 0.57145 0.99303 0.67825 0.0
H160 H 0.44516 0.91079 0.68761 0.0
H161 H 0.38038 0.90802 0.68108 0.0
H162 H 0.38111 0.96991 0.34382 0.0
H163 H 0.44551 0.97198 0.34752 0.0
H164 H 0.59142 0.14318 1.00235 0.0
H165 H 0.65585 0.14013 0.02144 0.0
H166 H 0.64557 0.05004 0.26269 0.0
H167 H 0.58146 0.05206 0.24156 0.0
C168 C 0.59197 0.49869 0.56724 0.0
Eu169 Eu 0.54452 0.51772 0.73164 0.0
C170 C 0.60129 0.46431 0.51432 0.0
C171 C 0.62359 0.44121 0.58009 0.0
C172 C 0.62482 0.40579 0.54865 0.0
C173 C 0.60445 0.3935 0.44966 0.0
C174 C 0.58545 0.41709 0.37512 0.0
C175 C 0.58379 0.45235 0.40743 0.0
C176 C 0.56817 0.53463 0.96767 0.0
C177 C 0.51351 0.44593 0.87001 0.0
C178 C 0.43962 0.54697 0.02924 0.0
Eu179 Eu 0.48674 0.52502 0.87225 0.0
C180 C 0.45141 0.57577 0.10728 0.0
C181 C 0.43034 0.60556 0.12939 0.0
C182 C 0.44664 0.63781 0.15482 0.0
C183 C 0.48371 0.64099 0.14171 0.0
C184 C 0.50363 0.61099 0.11716 0.0
C185 C 0.48821 0.57857 0.11437 0.0
C186 C 0.46641 0.50424 0.6369 0.0
C187 C 0.52111 0.59816 0.75719 0.0
O188 O 0.56081 0.51091 0.53806 0.0
O189 O 0.59868 0.50282 0.68524 0.0
O190 O 0.57882 0.54869 0.86423 0.0
O191 O 0.54246 0.51397 0.94327 0.0
O192 O 0.53096 0.45846 0.77119 0.0
O193 O 0.49575 0.4691 0.93527 0.0
O194 O 0.45678 0.5176 0.04656 0.0
O195 O 0.43891 0.55564 0.9118 0.0
O196 O 0.45512 0.4909 0.74046 0.0
O197 O 0.48929 0.52741 0.66296 0.0
O198 O 0.50205 0.58407 0.84834 0.0
O199 O 0.53923 0.57648 0.68544 0.0
H200 H 0.63789 0.44985 0.66162 0.0
H201 H 0.6396 0.38767 0.60646 0.0
H202 H 0.56966 0.40772 0.29804 0.0
H203 H 0.56692 0.46968 0.35374 0.0
H204 H 0.40185 0.60432 0.12052 0.0
H205 H 0.43034 0.66049 0.17556 0.0
H206 H 0.53158 0.61255 0.10048 0.0
H207 H 0.50541 0.55638 0.09624 0.0
C208 C 0.0421 0.59188 0.57196 0.0
Eu209 Eu 0.0229 0.54558 0.73833 0.0
C210 C 0.0773 0.60101 0.52217 0.0
C211 C 0.09936 0.62431 0.58727 0.0
C212 C 0.13545 0.62583 0.55952 0.0
C213 C 0.14946 0.60461 0.46507 0.0
C214 C 0.12696 0.58426 0.39147 0.0
C215 C 0.09107 0.58246 0.41973 0.0
C216 C 1.00874 0.56929 0.97769 0.0
C217 C 0.09639 0.51382 0.85869 0.0
C218 C 0.99983 0.44517 0.06418 0.0
Eu219 Eu 1.01694 0.48999 0.89042 0.0
C220 C 0.96544 0.43019 0.09771 0.0
C221 C 0.94405 0.41519 1.00506 0.0
C222 C 0.90739 0.41515 0.01939 0.0
C223 C 0.89228 0.43023 0.12588 0.0
C224 C 0.91371 0.44014 0.22601 0.0
C225 C 0.95031 0.43986 0.2123 0.0
C226 C 0.03326 0.46622 0.65316 0.0
C227 C 0.943 0.52035 0.75982 0.0
O228 O 0.03059 0.56063 0.54407 0.0
O229 O 0.03641 0.59941 0.68878 0.0
O230 O 0.99203 0.57889 0.87809 0.0
O231 O 0.03068 0.54516 0.94766 0.0
O232 O 0.0824 0.53075 0.76251 0.0
O233 O 0.07481 0.4978 0.93608 0.0
O234 O 1.00183 0.47897 0.08211 0.0
O235 O 1.0133 0.43593 0.95696 0.0
O236 O 0.04834 0.456 0.755 0.0
O237 O 1.01052 0.48992 0.68075 0.0
O238 O 0.95694 0.50031 0.84896 0.0
O239 O 0.96442 0.54036 0.69424 0.0
H240 H 0.08935 0.63936 0.66548 0.0
H241 H 0.15271 0.64158 0.61689 0.0
H242 H 0.13763 0.56774 0.31808 0.0
H243 H 0.07466 0.56472 0.36667 0.0
H244 H 0.95509 0.40718 0.91618 0.0
H245 H 0.89092 0.40722 0.94215 0.0
H246 H 0.90213 0.45155 0.30938 0.0
H247 H 0.9664 0.45127 0.28503 0.0
C248 C 0.13638 1.00831 0.36988 0.0
C249 C 0.14622 0.04204 0.32468 0.0
C250 C 0.10442 0.06897 0.47607 0.0
C251 C 0.09413 0.03516 0.52136 0.0
N252 N 0.09488 0.97238 0.48759 0.0
N253 N 0.13476 0.10405 0.31802 0.0
C254 C 0.10833 1.00476 0.46061 0.0
C255 C 0.12871 0.07219 0.37288 0.0
N256 N 0.15455 0.97952 0.32803 0.0
N257 N 0.09115 0.09831 0.53297 0.0
H258 H 0.15262 0.1074 0.24443 0.0
H259 H 0.12031 0.12664 0.33829 0.0
H260 H 0.07072 0.09749 0.59871 0.0
H261 H 0.1011 0.12343 0.51853 0.0
H262 H 0.15224 0.95461 0.367 0.0
H263 H 0.17385 0.98088 0.25824 0.0
H264 H 0.10239 0.94945 0.4421 0.0
H265 H 0.07344 0.96833 0.54655 0.0
C266 C 0.54326 0.14615 0.38769 0.0
C267 C 0.51267 0.14659 0.31251 0.0
C268 C 0.49054 0.09493 0.43375 0.0
C269 C 0.5179 0.09922 0.52409 0.0
N270 N 0.56942 0.13286 0.58666 0.0
N271 N 0.45852 0.11851 0.25363 0.0
C272 C 0.54401 0.12583 0.50029 0.0
C273 C 0.4869 0.11979 0.33185 0.0
N274 N 0.5726 0.16402 0.34863 0.0
N275 N 0.4675 0.06765 0.44668 0.0
H276 H 0.4562 0.13499 0.17625 0.0
H277 H 0.43684 0.10216 0.26653 0.0
H278 H 0.46763 0.05103 0.52373 0.0
H279 H 0.44949 0.06022 0.37876 0.0
H280 H 0.59712 0.16191 0.39201 0.0
H281 H 0.57355 0.17726 0.26344 0.0
H282 H 0.58562 0.15491 0.58191 0.0
H283 H 0.57304 0.11842 0.66766 0.0
C284 C 0.40464 0.46497 0.3855 0.0
C285 C 0.38997 0.49575 0.33095 0.0
C286 C 0.43376 0.53113 0.44719 0.0
C287 C 0.44464 0.5011 0.51736 0.0
N288 N 0.44117 0.4384 0.54664 0.0
N289 N 0.38784 0.55874 0.32299 0.0
C290 C 0.43024 0.46774 0.48399 0.0
C291 C 0.40384 0.52892 0.36552 0.0
N292 N 0.39463 0.4329 0.34127 0.0
N293 N 0.4526 0.56159 0.45324 0.0
H294 H 0.36745 0.55847 0.25789 0.0
H295 H 0.39314 0.58351 0.35917 0.0
H296 H 0.47615 0.56406 0.50176 0.0
H297 H 0.44753 0.58319 0.39642 0.0
H298 H 0.40681 0.40939 0.36607 0.0
H299 H 0.37559 0.42992 0.27202 0.0
H300 H 0.42844 0.41428 0.54151 0.0
H301 H 0.46274 0.43834 0.60691 0.0
C302 C 1.00678 0.39151 0.42418 0.0
C303 C 0.03648 0.38994 0.34238 0.0
C304 C 0.0592 0.44408 0.4453 0.0
C305 C 0.03229 0.44207 0.53897 0.0
N306 N 0.98364 0.4093 0.62607 0.0
N307 N 0.0906 0.41644 0.27074 0.0
C308 C 1.00687 0.41461 0.53009 0.0
C309 C 0.0625 0.41693 0.35151 0.0
N310 N 0.97754 0.37204 0.39776 0.0
N311 N 0.08149 0.47226 0.44566 0.0
H312 H 0.0928 0.39826 0.19847 0.0
H313 H 0.11237 0.43294 0.27734 0.0
H314 H 0.07983 0.49202 0.51269 0.0
H315 H 0.0999 0.47757 0.37577 0.0
H316 H 0.9538 0.37429 0.44706 0.0
H317 H 0.97563 0.35718 0.31652 0.0
H318 H 0.96694 0.38765 0.63139 0.0
H319 H 0.98345 0.42478 0.70601 0.0
C320 C 0.89693 0.03565 0.22299 0.0
C321 C 0.89613 1.00369 0.29181 0.0
C322 C 0.94603 0.98144 0.16094 0.0
C323 C 0.9454 1.01263 0.08729 0.0
N324 N 0.92695 0.07279 0.07033 0.0
N325 N 0.92644 0.95054 0.34883 0.0
C326 C 0.92265 0.04066 0.12501 0.0
C327 C 0.9228 0.97797 0.26768 0.0
N328 N 0.87303 0.06143 0.25171 0.0
N329 N 0.9677 0.95443 0.12563 0.0
H330 H 0.90998 0.94736 0.4265 0.0
H331 H 0.94737 0.93274 0.34578 0.0
H332 H 0.98552 0.95644 0.05137 0.0
H333 H 0.96694 0.92952 0.16547 0.0
H334 H 0.86863 0.08354 0.19687 0.0
H335 H 0.85663 0.06022 0.33016 0.0
H336 H 0.91392 0.0955 0.09887 0.0
H337 H 0.94644 0.07752 1.00323 0.0
C338 C 0.54343 0.92782 0.293 0.0
C339 C 0.54883 0.89129 0.2756 0.0
C340 C 0.55355 0.9034 0.04858 0.0
C341 C 0.539 0.93815 0.06451 0.0
N342 N 0.51919 0.98212 0.21137 0.0
N343 N 0.57861 0.85049 0.14273 0.0
C344 C 0.53429 0.9502 0.18947 0.0
C345 C 0.55909 0.88053 0.15429 0.0
N346 N 0.55111 0.94193 0.40595 0.0
N347 N 0.56303 0.89228 0.93206 0.0
H348 H 0.58828 0.83723 0.22067 0.0
H349 H 0.58931 0.84123 0.05951 0.0
H350 H 0.56717 0.90941 0.85772 0.0
H351 H 0.56713 0.86607 0.90889 0.0
H352 H 0.55302 0.96894 0.41977 0.0
H353 H 0.55953 0.92646 0.48068 0.0
H354 H 0.51309 0.99102 0.30071 0.0
H355 H 0.50984 0.99822 0.14042 0.0
C356 C 0.63665 0.49874 0.21319 0.0
C357 C 0.64682 0.53001 0.2759 0.0
C358 C 0.60645 0.56342 0.13767 0.0
C359 C 0.59366 0.53208 0.08002 0.0
N360 N 0.59653 0.46863 0.07227 0.0
N361 N 0.63519 0.59096 0.31472 0.0
C362 C 0.60854 0.49934 0.12159 0.0
C363 C 0.62966 0.56185 0.24333 0.0
N364 N 0.65469 0.46842 0.23858 0.0
N365 N 0.59784 0.59526 0.08801 0.0
H366 H 0.65202 0.59105 0.39151 0.0
H367 H 0.62082 0.61411 0.3047 0.0
H368 H 0.58134 0.59799 0.01161 0.0
H369 H 0.6094 0.61875 0.11549 0.0
H370 H 0.65204 0.44535 0.18788 0.0
H371 H 0.67407 0.46686 0.30734 0.0
H372 H 0.60261 0.44399 0.10835 0.0
H373 H 0.57912 0.46743 0.9979 0.0
C374 C 0.03781 0.63622 0.23536 0.0
C375 C 1.00488 0.64448 0.2942 0.0
C376 C 0.9758 0.60089 0.15558 0.0
C377 C 1.00873 0.59225 0.09637 0.0
N378 N 0.07242 0.59815 0.09834 0.0
N379 N 0.94384 0.62946 0.32627 0.0
C380 C 0.04013 0.60873 0.14245 0.0
C381 C 0.97434 0.62522 0.25865 0.0
N382 N 0.06697 0.65543 0.26629 0.0
N383 N 0.94544 0.58587 0.11239 0.0
H384 H 0.94162 0.64719 0.39993 0.0
H385 H 0.92161 0.6137 0.31645 0.0
H386 H 0.94541 0.56563 0.04709 0.0
H387 H 0.92014 0.59428 0.13723 0.0
H388 H 0.09103 0.65419 0.2189 0.0
H389 H 0.06658 0.67434 0.33649 0.0
H390 H 0.09641 0.6059 0.13634 0.0
H391 H 0.07562 0.57944 0.02901 0.0
C392 C 0.98874 0.22554 0.47204 0.0
C393 C 0.97346 0.24341 0.37116 0.0
C394 C 0.92329 0.20371 0.36966 0.0
C395 C 0.94297 0.18111 0.44817 0.0
N396 N 0.99271 0.17065 0.58451 0.0
N397 N 0.92184 0.25941 0.25735 0.0
C398 C 0.97457 0.19265 0.50675 0.0
C399 C 0.93856 0.23616 0.33408 0.0
N400 N 1.01804 0.23923 0.52729 0.0
N401 N 0.89187 0.19262 0.32164 0.0
H402 H 0.93398 0.2829 0.2309 0.0
H403 H 0.89592 0.25673 0.22687 0.0
H404 H 0.88027 0.16894 0.34849 0.0
H405 H 0.87749 0.20637 0.25503 0.0
H406 H 0.02978 0.22872 0.60663 0.0
H407 H 0.02858 0.26324 0.49869 0.0
H408 H 1.01785 0.17587 0.6188 0.0
H409 H 0.98314 0.14612 0.61108 0.0
C410 C 0.30259 0.99906 0.52075 0.0
C411 C 0.28745 0.98731 0.40873 0.0
C412 C 0.31714 0.93095 0.42582 0.0
C413 C 0.33787 0.94559 0.52132 0.0
N414 N 0.34123 0.98524 0.69437 0.0
N415 N 0.26819 0.93903 0.28265 0.0
C416 C 0.32673 0.97659 0.58261 0.0
C417 C 0.28997 0.95169 0.37303 0.0
N418 N 0.29599 0.03245 0.56057 0.0
N419 N 0.32639 0.89908 0.37777 0.0
H420 H 0.24847 0.95451 0.24241 0.0
H421 H 0.26773 0.91289 0.25498 0.0
H422 H 0.34622 0.88378 0.41844 0.0
H423 H 0.31533 0.88836 0.29784 0.0
H424 H 0.30886 0.04422 0.63504 0.0
H425 H 0.27755 0.04855 0.51594 0.0
H426 H 0.33324 1.00683 0.74667 0.0
H427 H 0.35922 0.96875 0.73913 0.0
C428 C 0.55308 0.30947 0.44069 0.0
C429 C 0.57196 0.29305 0.3436 0.0
C430 C 0.62026 0.33477 0.36259 0.0
C431 C 0.59741 0.3558 0.43663 0.0
N432 N 0.54334 0.36319 0.5556 0.0
N433 N 0.62685 0.28094 0.24154 0.0
C434 C 0.56462 0.34263 0.48222 0.0
C435 C 0.60728 0.30235 0.31716 0.0
N436 N 0.52313 0.29407 0.48636 0.0
N437 N 0.65282 0.34718 0.32877 0.0
H438 H 0.61656 0.25729 0.20879 0.0
H439 H 0.6531 0.28533 0.21663 0.0
H440 H 0.66263 0.37099 0.36145 0.0
H441 H 0.6702 0.33426 0.2689 0.0
H442 H 0.50892 0.30344 0.56281 0.0
H443 H 0.51452 0.26979 0.45386 0.0
H444 H 0.51751 0.35676 0.58055 0.0
H445 H 0.55102 0.38779 0.58762 0.0
C446 C 0.23973 0.60273 0.32147 0.0
C447 C 0.24853 0.56811 0.35648 0.0
C448 C 0.20141 0.56692 0.51035 0.0
C449 C 0.1878 0.59812 0.45566 0.0
N450 N 0.1957 0.64944 0.32797 0.0
N451 N 0.24883 0.52364 0.51426 0.0
C452 C 0.20819 0.6179 0.36978 0.0
C453 C 0.23346 0.55278 0.46358 0.0
N454 N 0.26047 0.61932 0.23525 0.0
N455 N 0.18179 0.54923 0.59726 0.0
H456 H 0.27223 0.51307 0.47822 0.0
H457 H 0.24046 0.51192 0.59696 0.0
H458 H 0.158 0.55907 0.63244 0.0
H459 H 0.1881 0.52439 0.63099 0.0
H460 H 0.25637 0.64485 0.20402 0.0
H461 H 0.28339 0.60741 0.20007 0.0
H462 H 0.20779 0.66432 0.25857 0.0
H463 H 0.17268 0.66083 0.36409 0.0
C464 C 0.0784 0.79182 0.2146 0.0
C465 C 0.04121 0.79215 0.20784 0.0
C466 C 0.04239 0.84494 0.08235 0.0
C467 C 0.07787 0.8499 0.12222 0.0
N468 N 0.13093 0.82772 0.21943 0.0
N469 N 0.98823 0.81088 0.10785 0.0
C470 C 0.0968 0.82269 0.18235 0.0
C471 C 0.02351 0.81561 0.12851 0.0
N472 N 0.09536 0.76295 0.26047 0.0
N473 N 0.02661 0.86953 0.00832 0.0
H474 H 0.97507 0.78885 0.14281 0.0
H475 H 0.97232 0.82779 0.05641 0.0
H476 H 0.04038 0.89119 0.974 0.0
H477 H 1.00063 0.86811 0.97763 0.0
H478 H 0.12279 0.76024 0.26161 0.0
H479 H 0.0816 0.74031 0.28551 0.0
H480 H 0.14443 0.81041 0.27761 0.0
H481 H 0.14524 0.85025 0.19749 0.0
C482 C 0.73286 0.03689 0.11152 0.0
C483 C 0.75067 0.04956 0.21698 0.0
C484 C 0.71588 0.1031 0.21763 0.0
C485 C 0.69304 0.087 0.13188 0.0
N486 N 0.68462 0.0458 0.96547 0.0
N487 N 0.76791 0.09937 0.34168 0.0
C488 C 0.7038 0.05657 0.06566 0.0
C489 C 0.74611 0.08469 0.25604 0.0
N490 N 0.74193 1.0048 0.06482 0.0
N491 N 0.70734 0.13457 0.27034 0.0
H492 H 0.79043 0.08675 0.37592 0.0
H493 H 0.79043 0.08675 0.37592 0.0
H494 H 0.68487 0.14877 0.24467 0.0
H495 H 0.72308 0.14632 0.33808 0.0
H496 H 0.72861 0.99221 0.9932 0.0
H497 H 0.76362 0.99088 0.09961 0.0
H498 H 0.69093 0.02399 0.91163 0.0
H499 H 0.66314 0.06036 0.9326 0.0
C500 C 0.5561 0.70684 0.20519 0.0
C501 C 0.53569 0.73744 0.21249 0.0
C502 C 0.48888 0.70661 0.10384 0.0
C503 C 0.50289 0.67477 0.15312 0.0
N504 N 0.54834 0.64915 0.2868 0.0
N505 N 0.48574 0.76961 0.13331 0.0
C506 C 0.53705 0.67536 0.20931 0.0
C507 C 0.50344 0.73865 0.14656 0.0
N508 N 0.59133 0.70794 0.22978 0.0
N509 N 0.46296 0.70636 0.0159 0.0
H510 H 0.497 0.79353 0.15755 0.0
H511 H 0.45988 0.77122 0.10054 0.0
H512 H 0.45398 0.68321 0.97549 0.0
H513 H 0.45368 0.72914 0.973 0.0
H514 H 0.6071 0.68539 0.22867 0.0
H515 H 0.60428 0.7319 0.24116 0.0
H516 H 0.5717 0.65105 0.33751 0.0
H517 H 0.53203 0.62871 0.31639 0.0
C518 C 0.79891 0.44184 0.23386 0.0
C519 C 0.79678 0.47839 0.21472 0.0
C520 C 0.84879 0.47752 0.08177 0.0
C521 C 0.85546 0.44274 0.12456 0.0
N522 N 0.83615 0.38984 0.22617 0.0
N523 N 0.8095 0.52835 0.0882 0.0
C524 C 0.82962 0.42383 0.19261 0.0
C525 C 0.81807 0.4951 0.125 0.0
N526 N 0.77232 0.42533 0.29724 0.0
N527 N 0.87354 0.49461 0.01103 0.0
H528 H 0.78692 0.541 0.12281 0.0
H529 H 0.82268 0.54214 0.0183 0.0
H530 H 0.89623 0.48229 0.97692 0.0
H531 H 0.87228 0.52113 0.9885 0.0
H532 H 0.77109 0.39834 0.31102 0.0
H533 H 0.74981 0.43886 0.32752 0.0
H534 H 0.82035 0.37552 0.28741 0.0
H535 H 0.85831 0.3761 0.1938 0.0
C536 C 1.00403 0.19325 0.92047 0.0
C537 C 0.03375 0.20539 0.9889 0.0
C538 C 0.06242 0.14779 0.94286 0.0
C539 C 0.02991 0.13314 0.89818 0.0
N540 N 0.96765 0.14384 0.86037 0.0
N541 N 0.09127 0.19207 0.07055 0.0
C542 C 1.00029 0.15659 0.88956 0.0
C543 C 0.06305 0.18206 1.00048 0.0
N544 N 0.97883 0.21704 0.88617 0.0
N545 N 0.0933 0.12969 0.92572 0.0
H546 H 0.0933 0.21719 0.10833 0.0
H547 H 0.11147 0.17491 0.09655 0.0
H548 H 0.09461 0.10617 0.87661 0.0
H549 H 0.11805 0.14004 0.94644 0.0
H550 H 0.95826 0.21109 0.82552 0.0
H551 H 0.98102 0.24365 0.90775 0.0
H552 H 0.94462 0.15888 0.86606 0.0
H553 H 0.9628 0.11761 0.84088 0.0
C554 C 0.35433 0.99806 0.01153 0.0
C555 C 0.33465 0.03014 0.01477 0.0
C556 C 0.384 0.05701 0.89308 0.0
C557 C 0.40601 0.02706 0.91428 0.0
N558 N 0.41221 0.97047 0.01259 0.0
N559 N 0.33241 0.09128 0.95726 0.0
C560 C 0.39105 0.99789 0.9778 0.0
C561 C 0.34977 0.05987 0.95354 0.0
N562 N 0.33761 0.96733 0.03986 0.0
N563 N 0.39541 0.08239 0.81255 0.0
H564 H 0.3077 0.09436 0.99936 0.0
H565 H 0.34349 0.11466 0.92557 0.0
H566 H 0.41989 0.08094 0.76723 0.0
H567 H 0.37936 0.10289 0.78189 0.0
H568 H 0.34963 0.94283 0.0302 0.0
H569 H 0.31052 0.96626 0.05924 0.0
H570 H 0.40362 0.95059 0.07223 0.0
H571 H 0.43922 0.96933 0.99227 0.0
C572 C 0.48334 0.35335 1.00182 0.0
C573 C 0.51138 0.33094 0.96557 0.0
C574 C 0.54089 0.38259 0.86682 0.0
C575 C 0.51328 0.40612 0.90761 0.0
N576 N 0.46478 0.41146 0.05999 0.0
N577 N 0.56177 0.32235 0.8344 0.0
C578 C 0.48596 0.39087 0.98625 0.0
C579 C 0.53833 0.34517 0.88811 0.0
N580 N 0.45389 0.33854 0.05377 0.0
N581 N 0.57202 0.3961 0.82287 0.0
H582 H 0.56006 0.29531 0.84926 0.0
H583 H 0.58005 0.32952 0.76606 0.0
H584 H 0.57781 0.42273 0.82312 0.0
H585 H 0.59419 0.3809 0.80206 0.0
H586 H 0.43034 0.35223 0.06892 0.0
H587 H 0.45176 0.31151 0.06745 0.0
H588 H 0.44705 0.40137 0.12534 0.0
H589 H 0.46824 0.43795 0.0759 0.0
C590 C 0.18779 0.47931 0.96798 0.0
C591 C 0.20828 0.51049 0.97401 0.0
C592 C 0.15702 0.54367 0.88901 0.0
C593 C 0.1363 0.51253 0.88294 0.0
N594 N 0.13696 0.44931 0.88019 0.0
N595 N 0.21575 0.56949 0.89986 0.0
C596 C 0.15333 0.47992 0.91105 0.0
C597 C 0.19389 0.54159 0.92012 0.0
N598 N 0.20035 0.44934 0.0219 0.0
N599 N 0.14135 0.57566 0.87227 0.0
H600 H 0.24269 0.56846 0.9209 0.0
H601 H 0.20808 0.59181 0.85052 0.0
H602 H 0.11484 0.57882 0.84883 0.0
H603 H 0.15412 0.59928 0.89034 0.0
H604 H 0.18507 0.4269 0.03448 0.0
H605 H 0.22555 0.44761 0.06044 0.0
H606 H 0.14915 0.42483 0.88676 0.0
H607 H 0.11264 0.44878 0.83497 0.0
C608 C 0.04508 0.8462 0.65496 0.0
C609 C 1.01166 0.83016 0.63199 0.0
C610 C 0.98342 0.88385 0.72305 0.0
C611 C 1.01651 0.90209 0.7257 0.0
N612 N 0.07931 0.8995 0.68389 0.0
N613 N 0.94843 0.83488 0.64426 0.0
C614 C 0.0475 0.88268 0.69079 0.0
C615 C 0.98072 0.84927 0.66763 0.0
N616 N 0.07491 0.82619 0.64169 0.0
N617 N 0.95459 0.89903 0.77851 0.0
H618 H 0.94568 0.80943 0.61012 0.0
H619 H 0.92467 0.8486 0.65296 0.0
H620 H 0.9558 0.9233 0.82311 0.0
H621 H 0.93061 0.88616 0.79188 0.0
H622 H 0.10001 0.8345 0.66792 0.0
H623 H 0.07389 0.7998 0.61609 0.0
H624 H 0.10185 0.88851 0.64337 0.0
H625 H 0.0828 0.92556 0.70954 0.0
C626 C 0.68885 0.97436 0.65031 0.0
C627 C 0.70766 1.00512 0.61349 0.0
C628 C 0.65391 0.04019 0.66721 0.0
C629 C 0.63463 1.00965 0.70259 0.0
N630 N 0.63798 0.94856 0.75814 0.0
N631 N 0.70839 0.06868 0.61557 0.0
C632 C 0.65345 0.97697 0.70295 0.0
C633 C 0.69049 0.0381 0.63329 0.0
N634 N 0.70423 0.94241 0.63034 0.0
N635 N 0.63719 0.07188 0.66171 0.0
H636 H 0.73535 0.06991 0.59408 0.0
H637 H 0.73535 0.06991 0.59408 0.0
H638 H 0.61022 0.07462 0.67798 0.0
H639 H 0.65003 0.09492 0.6349 0.0
H640 H 0.69094 0.9187 0.64089 0.0
H641 H 0.73013 0.93984 0.59744 0.0
H642 H 0.65106 0.92489 0.77369 0.0
H643 H 0.61294 0.94985 0.79928 0.0
C644 C 0.55054 0.69737 0.72674 0.0
C645 C 0.5221 0.71262 0.65871 0.0
C646 C 0.49047 0.65503 0.6798 0.0
C647 C 0.52085 0.63833 0.73191 0.0
N648 N 0.58109 0.6446 0.79943 0.0
N649 N 0.46167 0.7053 0.59059 0.0
C650 C 0.55103 0.66004 0.75547 0.0
C651 C 0.49116 0.69142 0.64396 0.0
N652 N 0.5771 0.71887 0.76497 0.0
N653 N 0.46077 0.63577 0.65752 0.0
H654 H 0.45952 0.73155 0.56342 0.0
H655 H 0.45952 0.73155 0.56342 0.0
H656 H 0.45881 0.60916 0.67926 0.0
H657 H 0.43819 0.64651 0.61654 0.0
H658 H 0.59698 0.71114 0.82601 0.0
H659 H 0.5769 0.74569 0.74536 0.0
H660 H 0.605 0.65763 0.81051 0.0
H661 H 0.58286 0.61771 0.81524 0.0
C662 C 0.84866 0.5523 0.66272 0.0
C663 C 0.83174 0.52054 0.62685 0.0
C664 C 0.88597 0.48801 0.69276 0.0
C665 C 0.90323 0.51973 0.72756 0.0
N666 N 0.89617 0.58087 0.77747 0.0
N667 N 0.83102 0.45774 0.64493 0.0
C668 C 0.88298 0.55149 0.72222 0.0
C669 C 0.84943 0.48836 0.6552 0.0
N670 N 0.83269 0.58349 0.63515 0.0
N671 N 0.90499 0.45756 0.68742 0.0
H672 H 0.80444 0.45726 0.61896 0.0
H673 H 0.84082 0.43355 0.67429 0.0
H674 H 0.93134 0.45594 0.71406 0.0
H675 H 0.89556 0.43459 0.64721 0.0
H676 H 0.84504 0.6077 0.64478 0.0
H677 H 0.80746 0.58492 0.59651 0.0
H678 H 0.88166 0.60392 0.78893 0.0
H679 H 0.92045 0.58098 0.82317 0.0
loop_
_geom_bond_atom_site_label_1
_geom_bond_atom_site_label_2
_geom_bond_distance
_geom_bond_site_symmetry_2
_ccdc_geom_bond_type
H0 C3 0.929 . S
H1 C6 0.929 . S
H2 C8 0.930 . S
C3 H0 0.929 . S
C3 C4 1.398 . S
C3 C5 1.396 . S
C4 C3 1.398 . S
C4 C8 1.407 . S
C5 C3 1.396 . S
C5 C6 1.394 . S
C6 H1 0.929 . S
C6 C5 1.394 . S
C6 C7 1.382 . S
C7 C6 1.382 . S
C7 C8 1.392 . S
C7 N9 1.420 . S
C8 H2 0.930 . S
C8 C4 1.407 . S
C8 C7 1.392 . S
N9 C7 1.420 . S
N9 C10 1.244 . S
C10 N9 1.244 . S
H11 C14 0.929 . S
H12 C17 0.929 . S
H13 C19 0.930 . S
C14 H11 0.929 . S
C14 C15 1.395 1_655 S
C14 C16 1.394 1_655 S
C15 C14 1.395 1_455 S
C15 C19 1.414 . S
C16 C14 1.394 1_455 S
C16 C17 1.397 . S
C17 H12 0.929 . S
C17 C16 1.397 . S
C17 C18 1.382 . S
C18 C17 1.382 . S
C18 C19 1.392 . S
C18 N20 1.420 . S
C19 H13 0.930 . S
C19 C15 1.414 . S
C19 C18 1.392 . S
N20 C18 1.420 . S
N20 C21 1.232 1_455 S
C21 N20 1.232 1_655 S
H22 C25 0.929 . S
H23 C28 0.929 . S
H24 C30 0.930 . S
C25 H22 0.929 . S
C25 C26 1.395 1_565 S
C25 C27 1.395 1_565 S
C26 C25 1.395 1_545 S
C26 C30 1.414 . S
C27 C25 1.395 1_545 S
C27 C28 1.397 . S
C28 H23 0.929 . S
C28 C27 1.397 . S
C28 C29 1.382 . S
C29 C28 1.382 . S
C29 C30 1.392 . S
C29 N31 1.420 . S
C30 H24 0.930 . S
C30 C26 1.414 . S
C30 C29 1.392 . S
N31 C29 1.420 . S
N31 C32 1.231 1_545 S
C32 N31 1.231 1_565 S
H33 C36 0.929 . S
H34 C39 0.929 . S
H35 C41 0.930 . S
C36 H33 0.929 . S
C36 C37 1.398 . S
C36 C38 1.396 . S
C37 C36 1.398 . S
C37 C41 1.407 . S
C38 C36 1.396 . S
C38 C39 1.394 . S
C39 H34 0.929 . S
C39 C38 1.394 . S
C39 C40 1.382 . S
C40 C39 1.382 . S
C40 C41 1.392 . S
C40 N42 1.420 . S
C41 H35 0.930 . S
C41 C37 1.407 . S
C41 C40 1.392 . S
N42 C40 1.420 . S
N42 C43 1.244 . S
C43 N42 1.244 . S
H44 C47 0.929 . S
H45 C50 0.929 . S
H46 C52 0.930 . S
C47 H44 0.929 . S
C47 C48 1.398 1_554 S
C47 C49 1.396 . S
C48 C47 1.398 1_556 S
C48 C52 1.407 . S
C49 C47 1.396 . S
C49 C50 1.394 . S
C50 H45 0.929 . S
C50 C49 1.394 . S
C50 C51 1.382 . S
C51 C50 1.382 . S
C51 C52 1.392 1_554 S
C51 N53 1.420 . S
C52 H46 0.930 . S
C52 C48 1.407 . S
C52 C51 1.392 1_556 S
N53 C51 1.420 . S
N53 C54 1.244 . S
C54 N53 1.244 . S
H55 C58 0.929 . S
H56 C61 0.929 . S
H57 C63 0.930 . S
C58 H55 0.929 . S
C58 C59 1.398 1_654 S
C58 C60 1.394 1_655 S
C59 C58 1.398 1_456 S
C59 C63 1.407 . S
C60 C58 1.394 1_455 S
C60 C61 1.398 . S
C61 H56 0.929 . S
C61 C60 1.398 . S
C61 C62 1.382 . S
C62 C61 1.382 . S
C62 C63 1.392 1_554 S
C62 N64 1.420 . S
C63 H57 0.930 . S
C63 C59 1.407 . S
C63 C62 1.392 1_556 S
N64 C62 1.420 . S
N64 C65 1.235 1_455 S
C65 N64 1.235 1_655 S
H66 C69 0.929 . S
H67 C72 0.929 . S
H68 C74 0.930 . S
C69 H66 0.929 . S
C69 C70 1.398 1_564 S
C69 C71 1.393 1_565 S
C70 C69 1.398 1_546 S
C70 C74 1.407 . S
C71 C69 1.393 1_545 S
C71 C72 1.398 . S
C72 H67 0.929 . S
C72 C71 1.398 . S
C72 C73 1.382 . S
C73 C72 1.382 . S
C73 C74 1.392 1_554 S
C73 N75 1.420 . S
C74 H68 0.930 . S
C74 C70 1.407 . S
C74 C73 1.392 1_556 S
N75 C73 1.420 . S
N75 C76 1.235 1_545 S
C76 N75 1.235 1_565 S
H77 C80 0.929 . S
H78 C83 0.929 . S
H79 C85 0.930 . S
C80 H77 0.929 . S
C80 C81 1.398 1_554 S
C80 C82 1.396 . S
C81 C80 1.398 1_556 S
C81 C85 1.407 . S
C82 C80 1.396 . S
C82 C83 1.394 . S
C83 H78 0.929 . S
C83 C82 1.394 . S
C83 C84 1.382 . S
C84 C83 1.382 . S
C84 C85 1.392 1_554 S
C84 N86 1.420 . S
C85 H79 0.930 . S
C85 C81 1.407 . S
C85 C84 1.392 1_556 S
N86 C84 1.420 . S
N86 C87 1.244 . S
C87 N86 1.244 . S
C88 Eu89 2.835 . S
C88 C90 1.500 . S
C88 O108 1.257 . S
C88 O109 1.260 . S
Eu89 C88 2.835 . S
Eu89 O108 2.473 . S
Eu89 O109 2.480 . S
Eu89 O110 2.430 . S
Eu89 O111 2.670 1_545 S
Eu89 O112 2.394 . S
Eu89 O117 2.355 1_655 S
Eu89 O119 2.374 1_545 S
C90 C88 1.500 . S
C90 C91 1.377 . S
C90 C95 1.377 . S
C91 C90 1.377 . S
C91 C92 1.395 . S
C91 H120 0.931 . S
C92 C91 1.395 . S
C92 C93 1.383 . S
C92 H121 0.931 . S
C93 C92 1.383 . S
C93 C94 1.394 . S
C94 C93 1.394 . S
C94 C95 1.378 . S
C94 H122 0.931 1_655 S
C95 C90 1.377 . S
C95 C94 1.378 . S
C95 H123 0.931 1_655 S
C96 O110 1.259 . S
C96 O111 1.270 1_545 S
C97 O112 1.251 1_455 S
C97 O113 1.251 . S
C98 Eu99 2.835 1_554 S
C98 C100 1.500 . S
C98 O114 1.257 . S
C98 O115 1.260 . S
Eu99 C98 2.835 1_556 S
Eu99 O111 2.355 1_455 S
Eu99 O113 2.374 1_565 S
Eu99 O114 2.473 1_556 S
Eu99 O115 2.480 1_556 S
Eu99 O116 2.430 . S
Eu99 O117 2.670 1_565 S
Eu99 O118 2.394 . S
C100 C98 1.500 . S
C100 C101 1.377 . S
C100 C105 1.377 . S
C101 C100 1.377 . S
C101 C102 1.395 . S
C101 H124 0.931 . S
C102 C101 1.395 . S
C102 C103 1.383 . S
C102 H125 0.931 . S
C103 C102 1.383 . S
C103 C104 1.394 . S
C104 C103 1.394 . S
C104 C105 1.378 . S
C104 H126 0.931 1_455 S
C105 C100 1.377 . S
C105 C104 1.378 . S
C105 H127 0.931 1_455 S
C106 O116 1.259 . S
C106 O117 1.270 1_565 S
C107 O118 1.251 1_655 S
C107 O119 1.251 . S
O108 C88 1.257 . S
O108 Eu89 2.473 . S
O109 C88 1.260 . S
O109 Eu89 2.480 . S
O110 Eu89 2.430 . S
O110 C96 1.259 . S
O111 Eu89 2.670 1_565 S
O111 C96 1.270 1_565 S
O111 Eu99 2.355 1_655 S
O112 Eu89 2.394 . S
O112 C97 1.251 1_655 S
O113 C97 1.251 . S
O113 Eu99 2.374 1_545 S
O114 C98 1.257 . S
O114 Eu99 2.473 1_554 S
O115 C98 1.260 . S
O115 Eu99 2.480 1_554 S
O116 Eu99 2.430 . S
O116 C106 1.259 . S
O117 Eu89 2.355 1_455 S
O117 Eu99 2.670 1_545 S
O117 C106 1.270 1_545 S
O118 Eu99 2.394 . S
O118 C107 1.251 1_455 S
O119 Eu89 2.374 1_565 S
O119 C107 1.251 . S
H120 C91 0.931 . S
H121 C92 0.931 . S
H122 C94 0.931 1_455 S
H123 C95 0.931 1_455 S
H124 C101 0.931 . S
H125 C102 0.931 . S
H126 C104 0.931 1_655 S
H127 C105 0.931 1_655 S
C128 Eu129 2.835 . S
C128 C130 1.500 . S
C128 O148 1.257 . S
C128 O149 1.260 . S
Eu129 C128 2.835 . S
Eu129 O148 2.473 . S
Eu129 O149 2.480 . S
Eu129 O150 2.430 . S
Eu129 O151 2.670 . S
Eu129 O152 2.394 . S
Eu129 O157 2.355 1_565 S
Eu129 O159 2.374 . S
C130 C128 1.500 . S
C130 C131 1.377 . S
C130 C135 1.377 . S
C131 C130 1.377 . S
C131 C132 1.395 . S
C131 H160 0.931 . S
C132 C131 1.395 . S
C132 C133 1.383 . S
C132 H161 0.931 . S
C133 C132 1.383 . S
C133 C134 1.394 . S
C134 C133 1.394 . S
C134 C135 1.378 . S
C134 H162 0.931 1_565 S
C135 C130 1.377 . S
C135 C134 1.378 . S
C135 H163 0.931 1_565 S
C136 O150 1.259 . S
C136 O151 1.270 . S
C137 O152 1.251 1_545 S
C137 O153 1.251 . S
C138 Eu139 2.835 1_554 S
C138 C140 1.500 . S
C138 O154 1.257 . S
C138 O155 1.260 . S
Eu139 C138 2.835 1_556 S
Eu139 O151 2.355 1_545 S
Eu139 O153 2.374 . S
Eu139 O154 2.473 1_556 S
Eu139 O155 2.480 1_556 S
Eu139 O156 2.430 . S
Eu139 O157 2.670 . S
Eu139 O158 2.394 . S
C140 C138 1.500 . S
C140 C141 1.377 . S
C140 C145 1.377 . S
C141 C140 1.377 . S
C141 C142 1.395 . S
C141 H164 0.931 . S
C142 C141 1.395 . S
C142 C143 1.383 . S
C142 H165 0.931 . S
C143 C142 1.383 . S
C143 C144 1.394 . S
C144 C143 1.394 . S
C144 C145 1.378 . S
C144 H166 0.931 1_545 S
C145 C140 1.377 . S
C145 C144 1.378 . S
C145 H167 0.931 1_545 S
C146 O156 1.259 . S
C146 O157 1.270 . S
C147 O158 1.251 1_565 S
C147 O159 1.251 . S
O148 C128 1.257 . S
O148 Eu129 2.473 . S
O149 C128 1.260 . S
O149 Eu129 2.480 . S
O150 Eu129 2.430 . S
O150 C136 1.259 . S
O151 Eu129 2.670 . S
O151 C136 1.270 . S
O151 Eu139 2.355 1_565 S
O152 Eu129 2.394 . S
O152 C137 1.251 1_565 S
O153 C137 1.251 . S
O153 Eu139 2.374 . S
O154 C138 1.257 . S
O154 Eu139 2.473 1_554 S
O155 C138 1.260 . S
O155 Eu139 2.480 1_554 S
O156 Eu139 2.430 . S
O156 C146 1.259 . S
O157 Eu129 2.355 1_545 S
O157 Eu139 2.670 . S
O157 C146 1.270 . S
O158 Eu139 2.394 . S
O158 C147 1.251 1_545 S
O159 Eu129 2.374 . S
O159 C147 1.251 . S
H160 C131 0.931 . S
H161 C132 0.931 . S
H162 C134 0.931 1_545 S
H163 C135 0.931 1_545 S
H164 C141 0.931 . S
H165 C142 0.931 . S
H166 C144 0.931 1_565 S
H167 C145 0.931 1_565 S
C168 Eu169 2.835 . S
C168 C170 1.500 . S
C168 O188 1.257 . S
C168 O189 1.260 . S
Eu169 C168 2.835 . S
Eu169 O188 2.473 . S
Eu169 O189 2.480 . S
Eu169 O190 2.430 . S
Eu169 O191 2.670 . S
Eu169 O192 2.394 . S
Eu169 O197 2.355 . S
Eu169 O199 2.374 . S
C170 C168 1.500 . S
C170 C171 1.377 . S
C170 C175 1.377 . S
C171 C170 1.377 . S
C171 C172 1.395 . S
C171 H200 0.931 . S
C172 C171 1.395 . S
C172 C173 1.383 . S
C172 H201 0.931 . S
C173 C172 1.383 . S
C173 C174 1.394 . S
C174 C173 1.394 . S
C174 C175 1.378 . S
C174 H202 0.931 . S
C175 C170 1.377 . S
C175 C174 1.378 . S
C175 H203 0.931 . S
C176 O190 1.259 . S
C176 O191 1.270 . S
C177 O192 1.251 . S
C177 O193 1.251 . S
C178 Eu179 2.835 1_554 S
C178 C180 1.500 . S
C178 O194 1.257 . S
C178 O195 1.260 . S
Eu179 C178 2.835 1_556 S
Eu179 O191 2.355 . S
Eu179 O193 2.374 . S
Eu179 O194 2.473 1_556 S
Eu179 O195 2.480 1_556 S
Eu179 O196 2.430 . S
Eu179 O197 2.670 . S
Eu179 O198 2.394 . S
C180 C178 1.500 . S
C180 C181 1.377 . S
C180 C185 1.377 . S
C181 C180 1.377 . S
C181 C182 1.395 . S
C181 H204 0.931 . S
C182 C181 1.395 . S
C182 C183 1.383 . S
C182 H205 0.931 . S
C183 C182 1.383 . S
C183 C184 1.394 . S
C184 C183 1.394 . S
C184 C185 1.378 . S
C184 H206 0.931 . S
C185 C180 1.377 . S
C185 C184 1.378 . S
C185 H207 0.931 . S
C186 O196 1.259 . S
C186 O197 1.270 . S
C187 O198 1.251 . S
C187 O199 1.251 . S
O188 C168 1.257 . S
O188 Eu169 2.473 . S
O189 C168 1.260 . S
O189 Eu169 2.480 . S
O190 Eu169 2.430 . S
O190 C176 1.259 . S
O191 Eu169 2.670 . S
O191 C176 1.270 . S
O191 Eu179 2.355 . S
O192 Eu169 2.394 . S
O192 C177 1.251 . S
O193 C177 1.251 . S
O193 Eu179 2.374 . S
O194 C178 1.257 . S
O194 Eu179 2.473 1_554 S
O195 C178 1.260 . S
O195 Eu179 2.480 1_554 S
O196 Eu179 2.430 . S
O196 C186 1.259 . S
O197 Eu169 2.355 . S
O197 Eu179 2.670 . S
O197 C186 1.270 . S
O198 Eu179 2.394 . S
O198 C187 1.251 . S
O199 Eu169 2.374 . S
O199 C187 1.251 . S
H200 C171 0.931 . S
H201 C172 0.931 . S
H202 C174 0.931 . S
H203 C175 0.931 . S
H204 C181 0.931 . S
H205 C182 0.931 . S
H206 C184 0.931 . S
H207 C185 0.931 . S
C208 Eu209 2.835 . S
C208 C210 1.500 . S
C208 O228 1.257 . S
C208 O229 1.260 . S
Eu209 C208 2.835 . S
Eu209 O228 2.473 . S
Eu209 O229 2.480 . S
Eu209 O230 2.430 . S
Eu209 O231 2.670 1_455 S
Eu209 O232 2.394 . S
Eu209 O237 2.355 . S
Eu209 O239 2.374 1_455 S
C210 C208 1.500 . S
C210 C211 1.377 . S
C210 C215 1.377 . S
C211 C210 1.377 . S
C211 C212 1.395 . S
C211 H240 0.931 . S
C212 C211 1.395 . S
C212 C213 1.383 . S
C212 H241 0.931 . S
C213 C212 1.383 . S
C213 C214 1.394 . S
C214 C213 1.394 . S
C214 C215 1.378 . S
C214 H242 0.931 . S
C215 C210 1.377 . S
C215 C214 1.378 . S
C215 H243 0.931 . S
C216 O230 1.262 . S
C216 O231 1.267 1_455 S
C217 O232 1.251 . S
C217 O233 1.251 . S
C218 Eu219 2.835 1_554 S
C218 C220 1.500 . S
C218 O234 1.257 . S
C218 O235 1.260 . S
Eu219 C218 2.835 1_556 S
Eu219 O231 2.355 . S
Eu219 O233 2.374 1_655 S
Eu219 O234 2.473 1_556 S
Eu219 O235 2.480 1_556 S
Eu219 O236 2.430 . S
Eu219 O237 2.670 1_655 S
Eu219 O238 2.394 . S
C220 C218 1.500 . S
C220 C221 1.377 . S
C220 C225 1.377 . S
C221 C220 1.377 . S
C221 C222 1.395 . S
C221 H244 0.931 . S
C222 C221 1.395 . S
C222 C223 1.383 . S
C222 H245 0.931 . S
C223 C222 1.383 . S
C223 C224 1.394 . S
C224 C223 1.394 . S
C224 C225 1.378 . S
C224 H246 0.931 . S
C225 C220 1.377 . S
C225 C224 1.378 . S
C225 H247 0.931 . S
C226 O236 1.259 . S
C226 O237 1.270 1_655 S
C227 O238 1.251 . S
C227 O239 1.251 . S
O228 C208 1.257 . S
O228 Eu209 2.473 . S
O229 C208 1.260 . S
O229 Eu209 2.480 . S
O230 Eu209 2.430 . S
O230 C216 1.262 . S
O231 Eu209 2.670 1_655 S
O231 C216 1.267 1_655 S
O231 Eu219 2.355 . S
O232 Eu209 2.394 . S
O232 C217 1.251 . S
O233 C217 1.251 . S
O233 Eu219 2.374 1_455 S
O234 C218 1.257 . S
O234 Eu219 2.473 1_554 S
O235 C218 1.260 . S
O235 Eu219 2.480 1_554 S
O236 Eu219 2.430 . S
O236 C226 1.259 . S
O237 Eu209 2.355 . S
O237 Eu219 2.670 1_455 S
O237 C226 1.270 1_455 S
O238 Eu219 2.394 . S
O238 C227 1.251 . S
O239 Eu209 2.374 1_655 S
O239 C227 1.251 . S
H240 C211 0.931 . S
H241 C212 0.931 . S
H242 C214 0.931 . S
H243 C215 0.931 . S
H244 C221 0.931 . S
H245 C222 0.931 . S
H246 C224 0.931 . S
H247 C225 0.931 . S
C248 C249 1.362 . S
C248 C254 1.379 . S
C248 N256 1.356 . S
C249 C248 1.362 . S
C249 C255 1.364 1_565 S
C250 C251 1.356 1_545 S
C250 C255 1.379 . S
C250 N257 1.356 . S
C251 C250 1.356 1_565 S
C251 C254 1.371 . S
N252 C254 1.356 . S
N252 H264 0.984 . S
N252 H265 0.985 . S
N253 C255 1.356 . S
N253 H258 0.984 . S
N253 H259 0.985 . S
C254 C248 1.379 . S
C254 C251 1.371 . S
C254 N252 1.356 . S
C255 C249 1.364 1_545 S
C255 C250 1.379 . S
C255 N253 1.356 . S
N256 C248 1.356 . S
N256 H262 0.984 . S
N256 H263 0.984 . S
N257 C250 1.356 . S
N257 H260 0.984 . S
N257 H261 0.985 . S
H258 N253 0.984 . S
H259 N253 0.985 . S
H260 N257 0.984 . S
H261 N257 0.985 . S
H262 N256 0.984 . S
H263 N256 0.984 . S
H264 N252 0.984 . S
H265 N252 0.985 . S
C266 C267 1.363 . S
C266 C272 1.379 . S
C266 N274 1.356 . S
C267 C266 1.363 . S
C267 C273 1.363 . S
C268 C269 1.363 . S
C268 C273 1.379 . S
C268 N275 1.356 . S
C269 C268 1.363 . S
C269 C272 1.363 . S
N270 C272 1.356 . S
N270 H282 0.984 . S
N270 H283 0.985 . S
N271 C273 1.356 . S
N271 H276 0.984 . S
N271 H277 0.985 . S
C272 C266 1.379 . S
C272 C269 1.363 . S
C272 N270 1.356 . S
C273 C267 1.363 . S
C273 C268 1.379 . S
C273 N271 1.356 . S
N274 C266 1.356 . S
N274 H280 0.984 . S
N274 H281 0.984 . S
N275 C268 1.356 . S
N275 H278 0.984 . S
N275 H279 0.985 . S
H276 N271 0.984 . S
H277 N271 0.985 . S
H278 N275 0.984 . S
H279 N275 0.985 . S
H280 N274 0.984 . S
H281 N274 0.984 . S
H282 N270 0.984 . S
H283 N270 0.985 . S
C284 C285 1.363 . S
C284 C290 1.379 . S
C284 N292 1.356 . S
C285 C284 1.363 . S
C285 C291 1.363 . S
C286 C287 1.363 . S
C286 C291 1.379 . S
C286 N293 1.356 . S
C287 C286 1.363 . S
C287 C290 1.363 . S
N288 C290 1.356 . S
N288 H300 0.984 . S
N288 H301 0.985 . S
N289 C291 1.356 . S
N289 H294 0.984 . S
N289 H295 0.985 . S
C290 C284 1.379 . S
C290 C287 1.363 . S
C290 N288 1.356 . S
C291 C285 1.363 . S
C291 C286 1.379 . S
C291 N289 1.356 . S
N292 C284 1.356 . S
N292 H298 0.984 . S
N292 H299 0.984 . S
N293 C286 1.356 . S
N293 H296 0.984 . S
N293 H297 0.985 . S
H294 N289 0.984 . S
H295 N289 0.985 . S
H296 N293 0.984 . S
H297 N293 0.985 . S
H298 N292 0.984 . S
H299 N292 0.984 . S
H300 N288 0.984 . S
H301 N288 0.985 . S
C302 C303 1.356 1_655 S
C302 C308 1.379 . S
C302 N310 1.356 . S
C303 C302 1.356 1_455 S
C303 C309 1.370 . S
C304 C305 1.363 . S
C304 C309 1.379 . S
C304 N311 1.356 . S
C305 C304 1.363 . S
C305 C308 1.363 1_455 S
N306 C308 1.356 . S
N306 H318 0.984 . S
N306 H319 0.985 . S
N307 C309 1.356 . S
N307 H312 0.984 . S
N307 H313 0.985 . S
C308 C302 1.379 . S
C308 C305 1.363 1_655 S
C308 N306 1.356 . S
C309 C303 1.370 . S
C309 C304 1.379 . S
C309 N307 1.356 . S
N310 C302 1.356 . S
N310 H316 0.984 . S
N310 H317 0.984 . S
N311 C304 1.356 . S
N311 H314 0.984 . S
N311 H315 0.985 . S
H312 N307 0.984 . S
H313 N307 0.985 . S
H314 N311 0.984 . S
H315 N311 0.985 . S
H316 N310 0.984 . S
H317 N310 0.984 . S
H318 N306 0.984 . S
H319 N306 0.985 . S
C320 C321 1.367 . S
C320 C326 1.379 . S
C320 N328 1.356 . S
C321 C320 1.367 . S
C321 C327 1.359 1_545 S
C322 C323 1.350 1_565 S
C322 C327 1.379 . S
C322 N329 1.356 . S
C323 C322 1.350 1_545 S
C323 C326 1.376 . S
N324 C326 1.356 . S
N324 H336 0.984 . S
N324 H337 0.985 1_554 S
N325 C327 1.356 . S
N325 H330 0.984 . S
N325 H331 0.985 . S
C326 C320 1.379 . S
C326 C323 1.376 . S
C326 N324 1.356 . S
C327 C321 1.359 1_565 S
C327 C322 1.379 . S
C327 N325 1.356 . S
N328 C320 1.356 . S
N328 H334 0.984 . S
N328 H335 0.984 . S
N329 C322 1.356 . S
N329 H332 0.984 . S
N329 H333 0.985 . S
H330 N325 0.984 . S
H331 N325 0.985 . S
H332 N329 0.984 . S
H333 N329 0.985 . S
H334 N328 0.984 . S
H335 N328 0.984 . S
H336 N324 0.984 . S
H337 N324 0.985 1_556 S
C338 C339 1.363 . S
C338 C344 1.379 . S
C338 N346 1.356 . S
C339 C338 1.363 . S
C339 C345 1.363 . S
C340 C341 1.363 . S
C340 C345 1.379 . S
C340 N347 1.359 . S
C341 C340 1.363 . S
C341 C344 1.363 . S
N342 C344 1.356 . S
N342 H354 0.984 . S
N342 H355 0.985 . S
N343 C345 1.356 . S
N343 H348 0.984 . S
N343 H349 0.985 . S
C344 C338 1.379 . S
C344 C341 1.363 . S
C344 N342 1.356 . S
C345 C339 1.363 . S
C345 C340 1.379 . S
C345 N343 1.356 . S
N346 C338 1.356 . S
N346 H352 0.984 . S
N346 H353 0.984 . S
N347 C340 1.359 . S
N347 H350 0.982 1_554 S
N347 H351 0.984 1_554 S
H348 N343 0.984 . S
H349 N343 0.985 . S
H350 N347 0.982 1_556 S
H351 N347 0.984 1_556 S
H352 N346 0.984 . S
H353 N346 0.984 . S
H354 N342 0.984 . S
H355 N342 0.985 . S
C356 C357 1.363 . S
C356 C362 1.379 . S
C356 N364 1.356 . S
C357 C356 1.363 . S
C357 C363 1.363 . S
C358 C359 1.363 . S
C358 C363 1.379 . S
C358 N365 1.356 . S
C359 C358 1.363 . S
C359 C362 1.363 . S
N360 C362 1.356 . S
N360 H372 0.984 . S
N360 H373 0.985 1_554 S
N361 C363 1.356 . S
N361 H366 0.984 . S
N361 H367 0.985 . S
C362 C356 1.379 . S
C362 C359 1.363 . S
C362 N360 1.356 . S
C363 C357 1.363 . S
C363 C358 1.379 . S
C363 N361 1.356 . S
N364 C356 1.356 . S
N364 H370 0.984 . S
N364 H371 0.984 . S
N365 C358 1.356 . S
N365 H368 0.984 1_554 S
N365 H369 0.985 . S
H366 N361 0.984 . S
H367 N361 0.985 . S
H368 N365 0.984 1_556 S
H369 N365 0.985 . S
H370 N364 0.984 . S
H371 N364 0.984 . S
H372 N360 0.984 . S
H373 N360 0.985 1_556 S
C374 C375 1.353 1_455 S
C374 C380 1.379 . S
C374 N382 1.356 . S
C375 C374 1.353 1_655 S
C375 C381 1.374 . S
C376 C377 1.363 . S
C376 C381 1.379 . S
C376 N383 1.356 . S
C377 C376 1.363 . S
C377 C380 1.363 1_655 S
N378 C380 1.356 . S
N378 H390 0.984 . S
N378 H391 0.985 . S
N379 C381 1.356 . S
N379 H384 0.984 . S
N379 H385 0.985 . S
C380 C374 1.379 . S
C380 C377 1.363 1_455 S
C380 N378 1.356 . S
C381 C375 1.374 . S
C381 C376 1.379 . S
C381 N379 1.356 . S
N382 C374 1.356 . S
N382 H388 0.984 . S
N382 H389 0.984 . S
N383 C376 1.356 . S
N383 H386 0.984 1_554 S
N383 H387 0.985 . S
H384 N379 0.984 . S
H385 N379 0.985 . S
H386 N383 0.984 1_556 S
H387 N383 0.985 . S
H388 N382 0.984 . S
H389 N382 0.984 . S
H390 N378 0.984 . S
H391 N378 0.985 . S
C392 C393 1.361 1_455 S
C392 C398 1.379 1_455 S
C392 N400 1.356 . S
C393 C392 1.361 1_655 S
C393 C399 1.381 . S
C394 C395 1.363 . S
C394 C399 1.379 . S
C394 N401 1.356 . S
C395 C394 1.363 . S
C395 C398 1.363 . S
N396 C398 1.356 . S
N396 H408 0.984 . S
N396 H409 0.985 . S
N397 C399 1.356 . S
N397 H402 0.984 . S
N397 H403 0.985 1_554 S
C398 C392 1.379 1_655 S
C398 C395 1.363 . S
C398 N396 1.356 . S
C399 C393 1.381 . S
C399 C394 1.379 . S
C399 N397 1.356 . S
N400 C392 1.356 . S
N400 H406 0.984 . S
N400 H407 0.984 . S
N401 C394 1.356 . S
N401 H404 0.984 . S
N401 H405 0.985 . S
H402 N397 0.984 . S
H403 N397 0.985 1_556 S
H404 N401 0.984 . S
H405 N401 0.985 . S
H406 N400 0.984 . S
H407 N400 0.984 . S
H408 N396 0.984 . S
H409 N396 0.985 . S
C410 C411 1.364 . S
C410 C416 1.379 . S
C410 N418 1.356 1_565 S
C411 C410 1.364 . S
C411 C417 1.374 . S
C412 C413 1.363 . S
C412 C417 1.379 . S
C412 N419 1.356 . S
C413 C412 1.363 . S
C413 C416 1.363 . S
N414 C416 1.356 . S
N414 H426 0.984 . S
N414 H427 0.985 . S
N415 C417 1.356 . S
N415 H420 0.984 1_565 S
N415 H421 0.985 1_554 S
C416 C410 1.379 . S
C416 C413 1.363 . S
C416 N414 1.356 . S
C417 C411 1.374 . S
C417 C412 1.379 . S
C417 N415 1.356 . S
N418 C410 1.356 1_545 S
N418 H424 0.984 . S
N418 H425 0.984 . S
N419 C412 1.356 . S
N419 H422 0.984 . S
N419 H423 0.985 . S
H420 N415 0.984 1_545 S
H421 N415 0.985 1_556 S
H422 N419 0.984 . S
H423 N419 0.985 . S
H424 N418 0.984 . S
H425 N418 0.984 . S
H426 N414 0.984 . S
H427 N414 0.985 . S
C428 C429 1.363 . S
C428 C434 1.379 . S
C428 N436 1.356 . S
C429 C428 1.363 . S
C429 C435 1.363 . S
C430 C431 1.363 . S
C430 C435 1.379 . S
C430 N437 1.356 . S
C431 C430 1.363 . S
C431 C434 1.363 . S
N432 C434 1.356 . S
N432 H444 0.984 . S
N432 H445 0.985 . S
N433 C435 1.356 . S
N433 H438 0.984 . S
N433 H439 0.985 1_554 S
C434 C428 1.379 . S
C434 C431 1.363 . S
C434 N432 1.356 . S
C435 C429 1.363 . S
C435 C430 1.379 . S
C435 N433 1.356 . S
N436 C428 1.356 . S
N436 H442 0.984 . S
N436 H443 0.984 . S
N437 C430 1.356 . S
N437 H440 0.984 . S
N437 H441 0.985 . S
H438 N433 0.984 . S
H439 N433 0.985 1_556 S
H440 N437 0.984 . S
H441 N437 0.985 . S
H442 N436 0.984 . S
H443 N436 0.984 . S
H444 N432 0.984 . S
H445 N432 0.985 . S
C446 C447 1.363 . S
C446 C452 1.379 . S
C446 N454 1.356 . S
C447 C446 1.363 . S
C447 C453 1.363 . S
C448 C449 1.363 . S
C448 C453 1.379 . S
C448 N455 1.356 . S
C449 C448 1.363 . S
C449 C452 1.363 . S
N450 C452 1.356 . S
N450 H462 0.984 . S
N450 H463 0.985 . S
N451 C453 1.356 . S
N451 H456 0.984 . S
N451 H457 0.985 . S
C452 C446 1.379 . S
C452 C449 1.363 . S
C452 N450 1.356 . S
C453 C447 1.363 . S
C453 C448 1.379 . S
C453 N451 1.356 . S
N454 C446 1.356 . S
N454 H460 0.984 1_554 S
N454 H461 0.984 . S
N455 C448 1.356 . S
N455 H458 0.984 . S
N455 H459 0.985 . S
H456 N451 0.984 . S
H457 N451 0.985 . S
H458 N455 0.984 . S
H459 N455 0.985 . S
H460 N454 0.984 1_556 S
H461 N454 0.984 . S
H462 N450 0.984 . S
H463 N450 0.985 . S
C464 C465 1.386 . S
C464 C470 1.379 . S
C464 N472 1.356 . S
C465 C464 1.386 . S
C465 C471 1.357 1_455 S
C466 C467 1.363 . S
C466 C471 1.379 1_455 S
C466 N473 1.356 . S
C467 C466 1.363 . S
C467 C470 1.363 . S
N468 C470 1.356 . S
N468 H480 0.984 . S
N468 H481 0.985 . S
N469 C471 1.356 . S
N469 H474 0.984 . S
N469 H475 0.985 . S
C470 C464 1.379 . S
C470 C467 1.363 . S
C470 N468 1.356 . S
C471 C465 1.357 1_655 S
C471 C466 1.379 1_655 S
C471 N469 1.356 . S
N472 C464 1.356 . S
N472 H478 0.984 . S
N472 H479 0.984 . S
N473 C466 1.356 . S
N473 H476 0.984 . S
N473 H477 0.985 1_455 S
H474 N469 0.984 . S
H475 N469 0.985 . S
H476 N473 0.984 . S
H477 N473 0.985 1_655 S
H478 N472 0.984 . S
H479 N472 0.984 . S
H480 N468 0.984 . S
H481 N468 0.985 . S
C482 C483 1.367 . S
C482 C488 1.379 . S
C482 N490 1.356 1_545 S
C483 C482 1.367 . S
C483 C489 1.377 . S
C484 C485 1.363 . S
C484 C489 1.379 . S
C484 N491 1.356 . S
C485 C484 1.363 . S
C485 C488 1.363 . S
N486 C488 1.356 . S
N486 H498 0.984 . S
N486 H499 0.985 . S
N487 C489 1.356 . S
N487 H492 0.984 1_545 S
N487 H493 0.985 . S
C488 C482 1.379 . S
C488 C485 1.363 . S
C488 N486 1.356 . S
C489 C483 1.377 . S
C489 C484 1.379 . S
C489 N487 1.356 . S
N490 C482 1.356 1_565 S
N490 H496 0.984 . S
N490 H497 0.984 . S
N491 C484 1.356 . S
N491 H494 0.984 . S
N491 H495 0.985 . S
H492 N487 0.984 1_565 S
H493 N487 0.985 . S
H494 N491 0.984 . S
H495 N491 0.985 . S
H496 N490 0.984 . S
H497 N490 0.984 . S
H498 N486 0.984 . S
H499 N486 0.985 . S
C500 C501 1.363 . S
C500 C506 1.379 . S
C500 N508 1.356 . S
C501 C500 1.363 . S
C501 C507 1.363 . S
C502 C503 1.363 . S
C502 C507 1.379 . S
C502 N509 1.356 . S
C503 C502 1.363 . S
C503 C506 1.363 . S
N504 C506 1.356 . S
N504 H516 0.984 . S
N504 H517 0.985 . S
N505 C507 1.356 . S
N505 H510 0.984 . S
N505 H511 0.985 . S
C506 C500 1.379 . S
C506 C503 1.363 . S
C506 N504 1.356 . S
C507 C501 1.363 . S
C507 C502 1.379 . S
C507 N505 1.356 . S
N508 C500 1.356 . S
N508 H514 0.984 . S
N508 H515 0.984 . S
N509 C502 1.356 . S
N509 H512 0.984 . S
N509 H513 0.985 . S
H510 N505 0.984 . S
H511 N505 0.985 . S
H512 N509 0.984 . S
H513 N509 0.985 . S
H514 N508 0.984 . S
H515 N508 0.984 . S
H516 N504 0.984 . S
H517 N504 0.985 . S
C518 C519 1.363 . S
C518 C524 1.379 . S
C518 N526 1.356 . S
C519 C518 1.363 . S
C519 C525 1.363 . S
C520 C521 1.363 . S
C520 C525 1.379 . S
C520 N527 1.356 . S
C521 C520 1.363 . S
C521 C524 1.363 . S
N522 C524 1.356 . S
N522 H534 0.984 . S
N522 H535 0.985 . S
N523 C525 1.356 . S
N523 H528 0.984 . S
N523 H529 0.985 . S
C524 C518 1.379 . S
C524 C521 1.363 . S
C524 N522 1.356 . S
C525 C519 1.363 . S
C525 C520 1.379 . S
C525 N523 1.356 . S
N526 C518 1.356 . S
N526 H532 0.984 . S
N526 H533 0.984 . S
N527 C520 1.356 . S
N527 H530 0.984 . S
N527 H531 0.985 . S
H528 N523 0.984 . S
H529 N523 0.985 . S
H530 N527 0.984 . S
H531 N527 0.985 . S
H532 N526 0.984 . S
H533 N526 0.984 . S
H534 N522 0.984 . S
H535 N522 0.985 . S
C536 C537 1.363 1_655 S
C536 C542 1.379 . S
C536 N544 1.356 . S
C537 C536 1.363 1_455 S
C537 C543 1.363 . S
C538 C539 1.363 . S
C538 C543 1.379 . S
C538 N545 1.356 1_556 S
C539 C538 1.363 . S
C539 C542 1.363 1_455 S
N540 C542 1.356 . S
N540 H552 0.984 . S
N540 H553 0.985 . S
N541 C543 1.356 1_554 S
N541 H546 0.984 1_554 S
N541 H547 0.985 . S
C542 C536 1.379 . S
C542 C539 1.363 1_655 S
C542 N540 1.356 . S
C543 C537 1.363 . S
C543 C538 1.379 . S
C543 N541 1.356 1_556 S
N544 C536 1.356 . S
N544 H550 0.984 . S
N544 H551 0.984 . S
N545 C538 1.356 1_554 S
N545 H548 0.984 . S
N545 H549 0.985 . S
H546 N541 0.984 1_556 S
H547 N541 0.985 . S
H548 N545 0.984 . S
H549 N545 0.985 . S
H550 N544 0.984 . S
H551 N544 0.984 . S
H552 N540 0.984 . S
H553 N540 0.985 . S
C554 C555 1.363 1_565 S
C554 C560 1.379 1_565 S
C554 N562 1.356 1_556 S
C555 C554 1.363 1_545 S
C555 C561 1.363 . S
C556 C557 1.363 . S
C556 C561 1.379 . S
C556 N563 1.356 . S
C557 C556 1.363 . S
C557 C560 1.363 . S
N558 C560 1.356 1_564 S
N558 H570 0.984 . S
N558 H571 0.985 1_565 S
N559 C561 1.356 . S
N559 H564 0.984 . S
N559 H565 0.985 . S
C560 C554 1.379 1_545 S
C560 C557 1.363 . S
C560 N558 1.356 1_546 S
C561 C555 1.363 . S
C561 C556 1.379 . S
C561 N559 1.356 . S
N562 C554 1.356 1_554 S
N562 H568 0.984 . S
N562 H569 0.984 . S
N563 C556 1.356 . S
N563 H566 0.984 . S
N563 H567 0.985 . S
H564 N559 0.984 . S
H565 N559 0.985 . S
H566 N563 0.984 . S
H567 N563 0.985 . S
H568 N562 0.984 . S
H569 N562 0.984 . S
H570 N558 0.984 . S
H571 N558 0.985 1_545 S
C572 C573 1.363 . S
C572 C578 1.379 . S
C572 N580 1.356 1_556 S
C573 C572 1.363 . S
C573 C579 1.363 . S
C574 C575 1.363 . S
C574 C579 1.379 . S
C574 N581 1.356 . S
C575 C574 1.363 . S
C575 C578 1.363 . S
N576 C578 1.356 1_554 S
N576 H588 0.984 . S
N576 H589 0.985 . S
N577 C579 1.356 . S
N577 H582 0.984 . S
N577 H583 0.985 . S
C578 C572 1.379 . S
C578 C575 1.363 . S
C578 N576 1.356 1_556 S
C579 C573 1.363 . S
C579 C574 1.379 . S
C579 N577 1.356 . S
N580 C572 1.356 1_554 S
N580 H586 0.984 . S
N580 H587 0.984 1_554 S
N581 C574 1.356 . S
N581 H584 0.984 . S
N581 H585 0.985 . S
H582 N577 0.984 . S
H583 N577 0.985 . S
H584 N581 0.984 . S
H585 N581 0.985 . S
H586 N580 0.984 . S
H587 N580 0.984 1_556 S
H588 N576 0.984 . S
H589 N576 0.985 . S
C590 C591 1.363 . S
C590 C596 1.379 . S
C590 N598 1.356 . S
C591 C590 1.363 . S
C591 C597 1.363 . S
C592 C593 1.363 . S
C592 C597 1.379 . S
C592 N599 1.356 . S
C593 C592 1.363 . S
C593 C596 1.363 . S
N594 C596 1.356 . S
N594 H606 0.984 . S
N594 H607 0.985 . S
N595 C597 1.356 . S
N595 H600 0.984 . S
N595 H601 0.985 . S
C596 C590 1.379 . S
C596 C593 1.363 . S
C596 N594 1.356 . S
C597 C591 1.363 . S
C597 C592 1.379 . S
C597 N595 1.356 . S
N598 C590 1.356 . S
N598 H604 0.984 . S
N598 H605 0.984 . S
N599 C592 1.356 . S
N599 H602 0.984 . S
N599 H603 0.985 . S
H600 N595 0.984 . S
H601 N595 0.985 . S
H602 N599 0.984 . S
H603 N599 0.985 . S
H604 N598 0.984 . S
H605 N598 0.984 . S
H606 N594 0.984 . S
H607 N594 0.985 . S
C608 C609 1.363 1_455 S
C608 C614 1.379 . S
C608 N616 1.356 . S
C609 C608 1.363 1_655 S
C609 C615 1.363 . S
C610 C611 1.363 . S
C610 C615 1.379 . S
C610 N617 1.356 . S
C611 C610 1.363 . S
C611 C614 1.363 1_655 S
N612 C614 1.356 . S
N612 H624 0.984 . S
N612 H625 0.985 . S
N613 C615 1.356 . S
N613 H618 0.984 . S
N613 H619 0.985 . S
C614 C608 1.379 . S
C614 C611 1.363 1_455 S
C614 N612 1.356 . S
C615 C609 1.363 . S
C615 C610 1.379 . S
C615 N613 1.356 . S
N616 C608 1.356 . S
N616 H622 0.984 . S
N616 H623 0.984 . S
N617 C610 1.356 . S
N617 H620 0.984 . S
N617 H621 0.985 . S
H618 N613 0.984 . S
H619 N613 0.985 . S
H620 N617 0.984 . S
H621 N617 0.985 . S
H622 N616 0.984 . S
H623 N616 0.984 . S
H624 N612 0.984 . S
H625 N612 0.985 . S
C626 C627 1.363 . S
C626 C632 1.379 . S
C626 N634 1.356 . S
C627 C626 1.363 . S
C627 C633 1.363 1_565 S
C628 C629 1.363 1_545 S
C628 C633 1.379 . S
C628 N635 1.356 . S
C629 C628 1.363 1_565 S
C629 C632 1.363 . S
N630 C632 1.356 . S
N630 H642 0.984 . S
N630 H643 0.985 . S
N631 C633 1.356 . S
N631 H636 0.984 . S
N631 H637 0.985 . S
C632 C626 1.379 . S
C632 C629 1.363 . S
C632 N630 1.356 . S
C633 C627 1.363 1_545 S
C633 C628 1.379 . S
C633 N631 1.356 . S
N634 C626 1.356 . S
N634 H640 0.984 . S
N634 H641 0.984 . S
N635 C628 1.356 . S
N635 H638 0.984 . S
N635 H639 0.985 . S
H636 N631 0.984 . S
H637 N631 0.985 . S
H638 N635 0.984 . S
H639 N635 0.985 . S
H640 N634 0.984 . S
H641 N634 0.984 . S
H642 N630 0.984 . S
H643 N630 0.985 . S
C644 C645 1.363 . S
C644 C650 1.379 . S
C644 N652 1.356 . S
C645 C644 1.363 . S
C645 C651 1.363 . S
C646 C647 1.363 . S
C646 C651 1.379 . S
C646 N653 1.356 . S
C647 C646 1.363 . S
C647 C650 1.363 . S
N648 C650 1.356 . S
N648 H660 0.984 . S
N648 H661 0.985 . S
N649 C651 1.356 . S
N649 H654 0.984 . S
N649 H655 0.985 . S
C650 C644 1.379 . S
C650 C647 1.363 . S
C650 N648 1.356 . S
C651 C645 1.363 . S
C651 C646 1.379 . S
C651 N649 1.356 . S
N652 C644 1.356 . S
N652 H658 0.984 . S
N652 H659 0.984 . S
N653 C646 1.356 . S
N653 H656 0.984 . S
N653 H657 0.985 . S
H654 N649 0.984 . S
H655 N649 0.985 . S
H656 N653 0.984 . S
H657 N653 0.985 . S
H658 N652 0.984 . S
H659 N652 0.984 . S
H660 N648 0.984 . S
H661 N648 0.985 . S
C662 C663 1.363 . S
C662 C668 1.379 . S
C662 N670 1.356 . S
C663 C662 1.363 . S
C663 C669 1.363 . S
C664 C665 1.363 . S
C664 C669 1.379 . S
C664 N671 1.356 . S
C665 C664 1.363 . S
C665 C668 1.363 . S
N666 C668 1.356 . S
N666 H678 0.984 . S
N666 H679 0.985 . S
N667 C669 1.356 . S
N667 H672 0.984 . S
N667 H673 0.985 . S
C668 C662 1.379 . S
C668 C665 1.363 . S
C668 N666 1.356 . S
C669 C663 1.363 . S
C669 C664 1.379 . S
C669 N667 1.356 . S
N670 C662 1.356 . S
N670 H676 0.984 . S
N670 H677 0.984 . S
N671 C664 1.356 . S
N671 H674 0.984 . S
N671 H675 0.985 . S
H672 N667 0.984 . S
H673 N667 0.985 . S
H674 N671 0.984 . S
H675 N671 0.985 . S
H676 N670 0.984 . S
H677 N670 0.984 . S
H678 N666 0.984 . S
H679 N666 0.985 . S
C249 C76 1.963 . S
C251 C106 2.230 . S
C269 C146 2.251 . S
C267 C87 1.982 . S
C287 C186 2.262 . S
C285 C54 1.998 . S
C305 C226 2.243 1_455 S
C303 C65 1.976 1_455 S
C323 C96 2.232 1_554 S
C321 C32 1.966 1_545 S
C339 C43 1.981 . S
C341 C136 2.252 1_554 S
C357 C10 1.994 . S
C359 C176 2.262 1_554 S
C375 C21 1.976 . S
C377 C216 2.243 1_654 S
C395 C93 0.779 . S
C393 C60 0.778 1_655 S
C413 C133 0.777 . S
C411 C71 0.778 1_565 S
C431 C173 0.767 . S
C429 C82 0.768 . S
C447 C49 0.768 . S
C449 C213 0.763 . S
C465 C16 0.781 . S
C467 C103 0.782 . S
C485 C143 0.777 . S
C483 C27 0.778 . S
C503 C183 0.767 . S
C501 C38 0.767 . S
C519 C5 0.767 . S
C521 C223 0.769 . S
C537 C59 2.239 . S
C539 C97 2.560 . S
C555 C70 2.195 . S
C557 C137 2.519 . S
C575 C177 2.502 . S
C573 C81 2.178 . S
C593 C217 2.547 . S
C591 C48 2.217 . S
C609 C15 2.242 1_655 S
C611 C107 2.568 . S
C629 C147 2.519 . S
C627 C26 2.198 1_565 S
C647 C187 2.502 . S
C645 C37 2.190 . S
C663 C4 2.232 . S
C665 C227 2.551 . S
