# Generated by pormake.
# Topology rtl, (3,6)-cn, num edge types: 1
# Building blocks:
#     Node 0, Type 0, BuildingBlock: BETDIP_clean_linker_0, # of connection points: 3
#     Node 1, Type 0, BuildingBlock: BETDIP_clean_linker_0, # of connection points: 3
#     Node 2, Type 0, BuildingBlock: BETDIP_clean_linker_0, # of connection points: 3
#     Node 3, Type 0, BuildingBlock: BETDIP_clean_linker_0, # of connection points: 3
#     Node 4, Type 1, BuildingBlock: FUNLAD_clean_sbu_0, # of connection points: 6
#     Node 5, Type 1, BuildingBlock: FUNLAD_clean_sbu_0, # of connection points: 6
#     Edge 6, Type (0, 1), BuildingBlock: CIFDUS_clean_linker_0, # of connection points: 2
#     Edge 7, Type (0, 1), BuildingBlock: CIFDUS_clean_linker_0, # of connection points: 2
#     Edge 8, Type (0, 1), BuildingBlock: CIFDUS_clean_linker_0, # of connection points: 2
#     Edge 9, Type (0, 1), BuildingBlock: CIFDUS_clean_linker_0, # of connection points: 2
#     Edge 10, Type (0, 1), BuildingBlock: CIFDUS_clean_linker_0, # of connection points: 2
#     Edge 11, Type (0, 1), BuildingBlock: CIFDUS_clean_linker_0, # of connection points: 2
#     Edge 12, Type (0, 1), BuildingBlock: CIFDUS_clean_linker_0, # of connection points: 2
#     Edge 13, Type (0, 1), BuildingBlock: CIFDUS_clean_linker_0, # of connection points: 2
#     Edge 14, Type (0, 1), BuildingBlock: CIFDUS_clean_linker_0, # of connection points: 2
#     Edge 15, Type (0, 1), BuildingBlock: CIFDUS_clean_linker_0, # of connection points: 2
#     Edge 16, Type (0, 1), BuildingBlock: CIFDUS_clean_linker_0, # of connection points: 2
#     Edge 17, Type (0, 1), BuildingBlock: CIFDUS_clean_linker_0, # of connection points: 2
# Relax obj value: 0.002
# Max RMSD: 0.035
# Mean RMSD: 0.023
data_MOF--net-rtl--node1-FUNLAD_clean_sbu_0--node2-BETDIP_clean_linker_0--edge1-CIFDUS_clean_linker_0
_symmetry_space_group_name_H-M    P1
_symmetry_Int_Tables_number       1
_symmetry_cell_setting            triclinic
loop_
_symmetry_equiv_pos_as_xyz
'x, y, z'
_cell_length_a     35.854041
_cell_length_b     35.531508
_cell_length_c     18.340032
_cell_angle_alpha  90.948328
_cell_angle_beta   92.383331
_cell_angle_gamma 89.699035
loop_
_atom_site_label
_atom_site_type_symbol
_atom_site_fract_x
_atom_site_fract_y
_atom_site_fract_z
_atom_type_partial_charge
H0 H 0.18107 0.82513 0.88551 0.0
H1 H 0.19012 0.83794 0.11989 0.0
H2 H 0.10026 0.89128 -0.00157 0.0
H3 H 0.25179 0.8267 0.09885 0.0
C4 C 0.24956 0.80365 0.05926 0.0
C5 C 0.17062 0.83647 0.936 0.0
C6 C 0.13829 0.85889 0.93453 0.0
C7 C 0.18969 0.82876 0.00252 0.0
C8 C 0.17621 0.84402 0.06788 0.0
C9 C 0.1438 0.86636 0.06663 0.0
C10 C 0.12484 0.87333 -0.00011 0.0
N11 N 0.22145 0.80461 0.00231 0.0
H12 H 0.68418 0.69032 0.65281 0.0
H13 H 0.67837 0.69329 0.41804 0.0
H14 H 0.5983 0.62909 0.53137 0.0
H15 H 0.75167 0.68866 0.46881 0.0
C16 C 0.74658 0.71561 0.49558 0.0
C17 C 0.67066 0.68192 0.60116 0.0
C18 C 0.6398 0.65779 0.59986 0.0
C19 C 0.68468 0.69472 0.5359 0.0
C20 C 0.66768 0.68338 0.46865 0.0
C21 C 0.63591 0.66042 0.46721 0.0
C22 C 0.62211 0.64785 0.5328 0.0
N23 N 0.71508 0.72006 0.53918 0.0
H24 H 0.83232 0.19377 0.87387 0.0
H25 H 0.84231 0.20592 0.10832 0.0
H26 H 0.90463 0.12005 -0.00065 0.0
H27 H 0.83027 0.26768 0.07893 0.0
C28 C 0.80775 0.26452 0.03782 0.0
C29 C 0.84414 0.18476 0.92611 0.0
C30 C 0.86994 0.1549 0.92908 0.0
C31 C 0.83474 0.20414 0.99018 0.0
C32 C 0.85022 0.1923 0.05799 0.0
C33 C 0.87501 0.16169 0.06129 0.0
C34 C 0.88501 0.14339 -0.0032 0.0
N35 N 0.80919 0.23484 0.98504 0.0
H36 H 0.32025 0.33607 0.38534 0.0
H37 H 0.33183 0.33171 0.61993 0.0
H38 H 0.41246 0.39101 0.49919 0.0
H39 H 0.29386 0.278 0.40122 0.0
C40 C 0.27791 0.28174 0.44993 0.0
C41 C 0.33563 0.34264 0.43596 0.0
C42 C 0.36807 0.36458 0.43439 0.0
C43 C 0.323 0.32983 0.50297 0.0
C44 C 0.34204 0.34069 0.56821 0.0
C45 C 0.37472 0.36211 0.56685 0.0
C46 C 0.38778 0.37351 0.49992 0.0
N47 N 0.29111 0.30648 0.50689 0.0
C48 C 0.03388 0.96587 0.38557 0.0
N49 N 0.06867 0.06767 0.4829 0.0
C50 C 0.10407 0.05552 0.47172 0.0
C51 C 0.1325 0.08132 0.46117 0.0
C52 C 0.12456 0.12005 0.46286 0.0
C53 C 0.08799 0.13188 0.476 0.0
C54 C 0.06027 0.10507 0.48549 0.0
Zn55 Zn 0.02731 0.02868 0.49256 0.0
C56 C 0.96011 0.04603 0.39636 0.0
N57 N 0.94011 0.94718 0.51029 0.0
C58 C 0.94786 0.91078 0.49206 0.0
C59 C 0.90547 0.95739 0.53117 0.0
C60 C 0.87712 0.93063 0.53398 0.0
C61 C 0.88381 0.89299 0.51247 0.0
C62 C 0.92001 0.88349 0.49123 0.0
Zn63 Zn 0.98137 0.98693 0.50224 0.0
O64 O 0.04965 0.99624 0.40685 0.0
C65 C 0.04865 0.96873 0.59724 0.0
O66 O 0.00452 0.95542 0.41569 0.0
H67 H 0.89958 0.9864 0.54533 0.0
H68 H 0.11025 0.0257 0.47026 0.0
H69 H 0.97559 0.90274 0.4768 0.0
O70 O 0.061 0.99837 0.56891 0.0
O71 O 0.01579 0.95759 0.5795 0.0
H72 H 0.03193 0.11414 0.49404 0.0
O73 O 0.959 0.0201 0.58796 0.0
O74 O 0.0048 0.06038 0.57911 0.0
O75 O 0.94807 0.01633 0.42489 0.0
O76 O 0.99247 0.05815 0.41542 0.0
C77 C 0.97528 0.05027 0.60932 0.0
H78 H 0.16045 0.07108 0.45204 0.0
H79 H 0.0807 0.1615 0.47717 0.0
H80 H 0.8503 0.93969 0.55284 0.0
H81 H 0.92704 0.85544 0.47245 0.0
C82 C 0.46308 0.472 0.91237 0.0
N83 N 0.5714 0.4514 0.00046 0.0
C84 C 0.56304 0.41411 -0.00487 0.0
C85 C 0.59145 0.38723 0.99012 0.0
C86 C 0.62887 0.39879 0.99112 0.0
C87 C 0.63666 0.43748 -0.00408 0.0
C88 C 0.60738 0.46341 0.00034 0.0
Zn89 Zn 0.5292 0.48998 0.01138 0.0
C90 C 0.535 0.55415 0.91252 0.0
N91 N 0.44019 0.56944 0.03473 0.0
C92 C 0.40377 0.55872 0.03318 0.0
C93 C 0.44977 0.60644 0.03876 0.0
C94 C 0.42229 0.63436 0.04017 0.0
C95 C 0.38446 0.62421 0.03705 0.0
C96 C 0.37531 0.58578 0.03409 0.0
Zn97 Zn 0.48197 0.53034 0.02481 0.0
O98 O 0.49616 0.46128 0.92938 0.0
C99 C 0.47571 0.46605 0.12314 0.0
O100 O 0.44973 0.50081 0.94408 0.0
H101 H 0.47884 0.61443 0.03925 0.0
H102 H 0.53428 0.40512 -0.00435 0.0
H103 H 0.39674 0.52915 0.03 0.0
O104 O 0.50576 0.45672 0.09287 0.0
O105 O 0.45923 0.49653 0.10542 0.0
H106 H 0.61345 0.49318 0.0043 0.0
O107 O 0.51528 0.55929 0.10645 0.0
O108 O 0.56135 0.51927 0.09272 0.0
O109 O 0.50496 0.56321 0.9428 0.0
O110 O 0.55197 0.52406 0.93091 0.0
C111 C 0.54823 0.54834 0.12392 0.0
H112 H 0.58423 0.35766 0.98727 0.0
H113 H 0.66509 0.44762 -0.00399 0.0
H114 H 0.43061 0.66363 0.04148 0.0
H115 H 0.34649 0.57675 0.03234 0.0
H116 H 0.25861 0.22063 0.36851 0.0
H117 H 0.2265 0.28564 0.55656 0.0
H118 H 0.17555 0.24189 0.57582 0.0
H119 H 0.14103 0.1841 0.54087 0.0
H120 H 0.1746 0.11809 0.35512 0.0
H121 H 0.22415 0.16302 0.33353 0.0
C122 C 0.24031 0.22521 0.4135 0.0
C123 C 0.24629 0.25618 0.46103 0.0
C124 C 0.21147 0.19965 0.42487 0.0
C125 C 0.22257 0.26187 0.51936 0.0
C126 C 0.19341 0.23688 0.53039 0.0
C127 C 0.15905 0.17977 0.4954 0.0
C128 C 0.15422 0.14782 0.44972 0.0
C129 C 0.18773 0.20554 0.48374 0.0
C130 C 0.17804 0.14227 0.39149 0.0
C131 C 0.20625 0.16802 0.37893 0.0
H132 H 0.25035 0.73773 0.97992 0.0
H133 H 0.31111 0.80057 0.14898 0.0
H134 H 0.35796 0.7504 0.15843 0.0
H135 H 0.38175 0.68889 0.11824 0.0
H136 H 0.32087 0.62583 0.94958 0.0
H137 H 0.27364 0.67558 0.94119 0.0
C138 C 0.2739 0.74049 0.01863 0.0
C139 C 0.27752 0.77291 0.06337 0.0
C140 C 0.30054 0.71139 0.02419 0.0
C141 C 0.30793 0.77589 0.11381 0.0
C142 C 0.33466 0.74723 0.11928 0.0
C143 C 0.35822 0.68612 0.07943 0.0
C144 C 0.35491 0.65372 0.03453 0.0
C145 C 0.33129 0.7149 0.07465 0.0
C146 C 0.32391 0.65027 0.98536 0.0
C147 C 0.29702 0.67884 0.98014 0.0
H148 H 0.73825 0.79135 0.49414 0.0
H149 H 0.82115 0.70323 0.50563 0.0
H150 H 0.87092 0.75027 0.51732 0.0
H151 H 0.89025 0.81599 0.52606 0.0
H152 H 0.80759 0.90407 0.49365 0.0
H153 H 0.75836 0.85752 0.49131 0.0
C154 C 0.76727 0.78262 0.49924 0.0
C155 C 0.77629 0.74413 0.49988 0.0
C156 C 0.79567 0.80976 0.50314 0.0
C157 C 0.81381 0.73285 0.50515 0.0
C158 C 0.84215 0.75969 0.51202 0.0
C159 C 0.86172 0.8254 0.51675 0.0
C160 C 0.85332 0.86414 0.51067 0.0
C161 C 0.83337 0.79825 0.51099 0.0
C162 C 0.81554 0.87493 0.50085 0.0
C163 C 0.78709 0.84816 0.49842 0.0
H164 H 0.74407 0.26531 0.94971 0.0
H165 H 0.80357 0.32741 0.1215 0.0
H166 H 0.75402 0.37493 0.12144 0.0
H167 H 0.69335 0.39821 0.07424 0.0
H168 H 0.63317 0.33591 0.90362 0.0
H169 H 0.68325 0.28892 0.9019 0.0
C170 C 0.74624 0.28932 0.98688 0.0
C171 C 0.77748 0.29301 0.03543 0.0
C172 C 0.71746 0.31638 0.98696 0.0
C173 C 0.77977 0.32409 0.0836 0.0
C174 C 0.75147 0.35123 0.08361 0.0
C175 C 0.69138 0.37456 0.03612 0.0
C176 C 0.65963 0.37063 0.989 0.0
C177 C 0.72016 0.34762 0.03566 0.0
C178 C 0.65718 0.33943 0.94088 0.0
C179 C 0.68587 0.31264 0.93966 0.0
H180 H 0.07396 0.86305 0.11639 0.0
H181 H 0.18305 0.90931 0.16695 0.0
H182 H 0.15871 0.94432 0.27104 0.0
H183 H 0.10553 0.96418 0.34347 0.0
H184 H 0.99697 0.91575 0.29546 0.0
H185 H 0.02187 0.87924 0.19425 0.0
C186 C 0.09237 0.88061 0.1507 0.0
C187 C 0.1301 0.88388 0.13419 0.0
C188 C 0.07821 0.90046 0.21028 0.0
C189 C 0.15392 0.9063 0.17915 0.0
C190 C 0.13996 0.92648 0.2382 0.0
C191 C 0.08738 0.9456 0.31079 0.0
C192 C 0.04941 0.94295 0.3262 0.0
C193 C 0.10202 0.92421 0.25355 0.0
C194 C 0.02629 0.91832 0.2844 0.0
C195 C 0.04048 0.89747 0.22656 0.0
H196 H 0.56969 0.65813 0.64903 0.0
H197 H 0.68147 0.61887 0.7005 0.0
H198 H 0.65906 0.58335 0.80317 0.0
H199 H 0.60685 0.5604 0.87323 0.0
H200 H 0.49545 0.60195 0.82442 0.0
H201 H 0.51842 0.63957 0.7256 0.0
C202 C 0.58909 0.64209 0.6834 0.0
C203 C 0.62704 0.64087 0.66746 0.0
C204 C 0.57602 0.62189 0.74214 0.0
C205 C 0.65214 0.62033 0.71235 0.0
C206 C 0.6393 0.59983 0.77056 0.0
C207 C 0.58769 0.57778 0.84097 0.0
C208 C 0.5495 0.5781 0.85534 0.0
C209 C 0.60119 0.59986 0.7851 0.0
C210 C 0.52499 0.60119 0.81415 0.0
C211 C 0.53807 0.62267 0.75763 0.0
H212 H 0.86128 0.09513 0.122 0.0
H213 H 0.92354 0.19761 0.15649 0.0
H214 H 0.95489 0.17143 0.2661 0.0
H215 H 0.96728 0.11748 0.34696 0.0
H216 H 0.90264 0.01599 0.31386 0.0
H217 H 0.86924 0.04371 0.20928 0.0
C218 C 0.8814 0.11176 0.15431 0.0
C219 C 0.89041 0.14799 0.13178 0.0
C220 C 0.89893 0.09663 0.21706 0.0
C221 C 0.91628 0.16963 0.17353 0.0
C222 C 0.93425 0.1546 0.23575 0.0
C223 C 0.94567 0.1016 0.31714 0.0
C224 C 0.93771 0.06461 0.33771 0.0
C225 C 0.92626 0.11785 0.25729 0.0
C226 C 0.90933 0.0445 0.29917 0.0
C227 C 0.89028 0.06026 0.23916 0.0
H228 H 0.34784 0.40559 0.67499 0.0
H229 H 0.44678 0.34746 0.60812 0.0
H230 H 0.48265 0.3746 0.71255 0.0
H231 H 0.48669 0.41831 0.81745 0.0
H232 H 0.3885 0.47977 0.87977 0.0
H233 H 0.35148 0.44796 0.78271 0.0
C234 C 0.37708 0.39843 0.6844 0.0
C235 C 0.39475 0.37447 0.63485 0.0
C236 C 0.39769 0.41509 0.74305 0.0
C237 C 0.43276 0.36578 0.64618 0.0
C238 C 0.45322 0.38139 0.70553 0.0
C239 C 0.45714 0.42456 0.81015 0.0
C240 C 0.44045 0.4515 0.85553 0.0
C241 C 0.43615 0.40666 0.75347 0.0
C242 C 0.40212 0.45934 0.84522 0.0
C243 C 0.38088 0.44111 0.78983 0.0
H244 H 0.66276 0.61335 0.36457 0.0
H245 H 0.56615 0.67907 0.41821 0.0
H246 H 0.53081 0.65184 0.31319 0.0
H247 H 0.52609 0.60576 0.21223 0.0
H248 H 0.62175 0.53705 0.16282 0.0
H249 H 0.65875 0.56887 0.25985 0.0
C250 C 0.63422 0.62214 0.352 0.0
C251 C 0.617 0.64831 0.39795 0.0
C252 C 0.6138 0.60543 0.29307 0.0
C253 C 0.57984 0.65913 0.38272 0.0
C254 C 0.55965 0.64342 0.32313 0.0
C255 C 0.5551 0.5979 0.22233 0.0
C256 C 0.57101 0.56888 0.18062 0.0
C257 C 0.5761 0.61594 0.27888 0.0
C258 C 0.60868 0.55909 0.19446 0.0
C259 C 0.62993 0.57733 0.24986 0.0
H260 H 0.93982 0.15305 0.88149 0.0
H261 H 0.82822 0.11441 0.8281 0.0
H262 H 0.85093 0.07789 0.72387 0.0
H263 H 0.90339 0.05521 0.6512 0.0
H264 H 0.01432 0.09723 0.70197 0.0
H265 H 0.99116 0.13419 0.80408 0.0
C266 C 0.92054 0.13684 0.84644 0.0
C267 C 0.88256 0.13611 0.86201 0.0
C268 C 0.93375 0.11639 0.78671 0.0
C269 C 0.85758 0.11535 0.81649 0.0
C270 C 0.8706 0.09439 0.75737 0.0
C271 C 0.92241 0.07249 0.68471 0.0
C272 C 0.96056 0.07324 0.66961 0.0
C273 C 0.90874 0.09434 0.74251 0.0
C274 C 0.98485 0.09617 0.71261 0.0
C275 C 0.97165 0.11728 0.77102 0.0
H276 H 0.43721 0.36 0.38125 0.0
H277 H 0.32735 0.40577 0.33538 0.0
H278 H 0.35079 0.44091 0.23312 0.0
H279 H 0.40374 0.46226 0.16315 0.0
H280 H 0.51327 0.41492 0.2075 0.0
H281 H 0.48886 0.37684 0.30427 0.0
C282 C 0.41839 0.37732 0.34809 0.0
C283 C 0.38073 0.38054 0.3657 0.0
C284 C 0.43211 0.39749 0.28993 0.0
C285 C 0.35641 0.40273 0.3223 0.0
C286 C 0.36988 0.42305 0.26438 0.0
C287 C 0.4222 0.44353 0.19396 0.0
C288 C 0.46033 0.44177 0.17901 0.0
C289 C 0.40786 0.4213 0.2488 0.0
C290 C 0.48384 0.41688 0.21829 0.0
C291 C 0.46992 0.39512 0.27361 0.0
H292 H 0.16469 0.904 0.83202 0.0
H293 H 0.06852 0.83956 0.88562 0.0
H294 H 0.03272 0.86595 0.78165 0.0
H295 H 0.02736 0.91149 0.68265 0.0
H296 H 0.1225 0.97931 0.63414 0.0
H297 H 0.16016 0.94758 0.72879 0.0
C298 C 0.13617 0.89521 0.81955 0.0
C299 C 0.1192 0.86967 0.86522 0.0
C300 C 0.11548 0.91155 0.76146 0.0
C301 C 0.08203 0.85894 0.85025 0.0
C302 C 0.06158 0.8742 0.7913 0.0
C303 C 0.05642 0.91912 0.6923 0.0
C304 C 0.07198 0.94792 0.65168 0.0
C305 C 0.07775 0.90122 0.74762 0.0
C306 C 0.1097 0.95745 0.665 0.0
C307 C 0.13131 0.93927 0.71903 0.0
loop_
_geom_bond_atom_site_label_1
_geom_bond_atom_site_label_2
_geom_bond_distance
_geom_bond_site_symmetry_2
_ccdc_geom_bond_type
H0 C5 0.930 . S
H1 C8 0.930 . S
H2 C10 0.930 . S
H3 C4 1.016 . S
C4 H3 1.016 . S
C4 N11 1.286 1_554 S
C5 H0 0.930 . S
C5 C6 1.397 . S
C5 C7 1.368 . S
C6 C5 1.397 . S
C6 C10 1.390 1_556 S
C7 C5 1.368 . S
C7 C8 1.386 1_556 S
C7 N11 1.414 . S
C8 H1 0.930 . S
C8 C7 1.386 1_554 S
C8 C9 1.399 . S
C9 C8 1.399 . S
C9 C10 1.381 . S
C10 H2 0.930 . S
C10 C6 1.390 1_554 S
C10 C9 1.381 . S
N11 C4 1.286 1_556 S
N11 C7 1.414 . S
H12 C17 0.930 . S
H13 C20 0.930 . S
H14 C22 0.930 . S
H15 C16 1.016 . S
C16 H15 1.016 . S
C16 N23 1.286 . S
C17 H12 0.930 . S
C17 C18 1.397 . S
C17 C19 1.361 . S
C18 C17 1.397 . S
C18 C22 1.390 . S
C19 C17 1.361 . S
C19 C20 1.393 . S
C19 N23 1.413 . S
C20 H13 0.930 . S
C20 C19 1.393 . S
C20 C21 1.399 . S
C21 C20 1.399 . S
C21 C22 1.381 . S
C22 H14 0.930 . S
C22 C18 1.390 . S
C22 C21 1.381 . S
N23 C16 1.286 . S
N23 C19 1.413 . S
H24 C29 0.930 . S
H25 C32 0.930 . S
H26 C34 0.930 . S
H27 C28 1.016 . S
C28 H27 1.016 . S
C28 N35 1.286 1_554 S
C29 H24 0.930 . S
C29 C30 1.397 . S
C29 C31 1.361 . S
C30 C29 1.397 . S
C30 C34 1.390 1_556 S
C31 C29 1.361 . S
C31 C32 1.393 1_556 S
C31 N35 1.413 . S
C32 H25 0.930 . S
C32 C31 1.393 1_554 S
C32 C33 1.399 . S
C33 C32 1.399 . S
C33 C34 1.381 . S
C34 H26 0.930 . S
C34 C30 1.390 1_554 S
C34 C33 1.381 . S
N35 C28 1.286 1_556 S
N35 C31 1.413 . S
H36 C41 0.930 . S
H37 C44 0.930 . S
H38 C46 0.930 . S
H39 C40 1.016 . S
C40 H39 1.016 . S
C40 N47 1.286 . S
C41 H36 0.930 . S
C41 C42 1.397 . S
C41 C43 1.361 . S
C42 C41 1.397 . S
C42 C46 1.390 . S
C43 C41 1.361 . S
C43 C44 1.393 . S
C43 N47 1.413 . S
C44 H37 0.930 . S
C44 C43 1.393 . S
C44 C45 1.399 . S
C45 C44 1.399 . S
C45 C46 1.381 . S
C46 H38 0.930 . S
C46 C42 1.390 . S
C46 C45 1.381 . S
N47 C40 1.286 . S
N47 C43 1.413 . S
C48 O64 1.251 . S
C48 O66 1.254 . S
N49 C50 1.333 . S
N49 C54 1.307 . S
N49 Zn55 2.020 . S
C50 N49 1.333 . S
C50 C51 1.379 . S
C50 H68 0.952 . S
C51 C50 1.379 . S
C51 C52 1.390 . S
C51 H78 0.949 . S
C52 C51 1.390 . S
C52 C53 1.357 . S
C53 C52 1.357 . S
C53 C54 1.370 . S
C53 H79 0.950 . S
C54 N49 1.307 . S
C54 C53 1.370 . S
C54 H72 0.948 . S
Zn55 N49 2.020 . S
Zn55 O64 2.039 1_545 S
Zn55 O70 2.034 1_545 S
Zn55 O74 2.025 1_455 S
Zn55 O76 2.024 1_455 S
C56 O75 1.246 . S
C56 O76 1.249 . S
N57 C58 1.307 . S
N57 C59 1.333 . S
N57 Zn63 2.020 . S
C58 N57 1.307 . S
C58 C62 1.370 . S
C58 H69 0.948 . S
C59 N57 1.333 . S
C59 C60 1.379 . S
C59 H67 0.952 . S
C60 C59 1.379 . S
C60 C61 1.390 . S
C60 H80 0.949 . S
C61 C60 1.390 . S
C61 C62 1.357 . S
C62 C58 1.370 . S
C62 C61 1.357 . S
C62 H81 0.950 . S
Zn63 N57 2.020 . S
Zn63 O66 2.025 1_655 S
Zn63 O71 2.024 1_655 S
Zn63 O73 2.039 1_565 S
Zn63 O75 2.034 1_565 S
O64 C48 1.251 . S
O64 Zn55 2.039 1_565 S
C65 O70 1.246 . S
C65 O71 1.249 . S
O66 C48 1.254 . S
O66 Zn63 2.025 1_455 S
H67 C59 0.952 . S
H68 C50 0.952 . S
H69 C58 0.948 . S
O70 Zn55 2.034 1_565 S
O70 C65 1.246 . S
O71 Zn63 2.024 1_455 S
O71 C65 1.249 . S
H72 C54 0.948 . S
O73 Zn63 2.039 1_545 S
O73 C77 1.251 . S
O74 Zn55 2.025 1_655 S
O74 C77 1.254 . S
O75 C56 1.246 . S
O75 Zn63 2.034 1_545 S
O76 Zn55 2.024 1_655 S
O76 C56 1.249 . S
C77 O73 1.251 . S
C77 O74 1.254 . S
H78 C51 0.949 . S
H79 C53 0.950 . S
H80 C60 0.949 . S
H81 C62 0.950 . S
C82 O98 1.251 . S
C82 O100 1.254 . S
N83 C84 1.333 1_554 S
N83 C88 1.307 . S
N83 Zn89 2.020 . S
C84 N83 1.333 1_556 S
C84 C85 1.379 . S
C84 H102 0.952 . S
C85 C84 1.379 . S
C85 C86 1.390 1_556 S
C85 H112 0.949 . S
C86 C85 1.390 1_554 S
C86 C87 1.357 . S
C87 C86 1.357 . S
C87 C88 1.370 . S
C87 H113 0.950 . S
C88 N83 1.307 . S
C88 C87 1.370 . S
C88 H106 0.948 . S
Zn89 N83 2.020 . S
Zn89 O98 2.039 1_554 S
Zn89 O104 2.034 . S
Zn89 O108 2.025 . S
Zn89 O110 2.024 1_554 S
C90 O109 1.246 . S
C90 O110 1.249 . S
N91 C92 1.307 . S
N91 C93 1.333 . S
N91 Zn97 2.020 . S
C92 N91 1.307 . S
C92 C96 1.370 . S
C92 H103 0.948 1_554 S
C93 N91 1.333 . S
C93 C94 1.379 . S
C93 H101 0.952 . S
C94 C93 1.379 . S
C94 C95 1.390 . S
C94 H114 0.949 . S
C95 C94 1.390 . S
C95 C96 1.357 . S
C96 C92 1.370 . S
C96 C95 1.357 . S
C96 H115 0.950 1_554 S
Zn97 N91 2.020 . S
Zn97 O100 2.025 1_554 S
Zn97 O105 2.024 . S
Zn97 O107 2.039 . S
Zn97 O109 2.034 1_554 S
O98 C82 1.251 . S
O98 Zn89 2.039 1_556 S
C99 O104 1.246 . S
C99 O105 1.249 . S
O100 C82 1.254 . S
O100 Zn97 2.025 1_556 S
H101 C93 0.952 . S
H102 C84 0.952 . S
H103 C92 0.948 1_556 S
O104 Zn89 2.034 . S
O104 C99 1.246 . S
O105 Zn97 2.024 . S
O105 C99 1.249 . S
H106 C88 0.948 . S
O107 Zn97 2.039 . S
O107 C111 1.251 . S
O108 Zn89 2.025 . S
O108 C111 1.254 . S
O109 C90 1.246 . S
O109 Zn97 2.034 1_556 S
O110 Zn89 2.024 1_556 S
O110 C90 1.249 . S
C111 O107 1.251 . S
C111 O108 1.254 . S
H112 C85 0.949 . S
H113 C87 0.950 . S
H114 C94 0.949 . S
H115 C96 0.950 1_556 S
H116 C122 0.930 . S
H117 C125 0.930 . S
H118 C126 0.930 . S
H119 C127 0.930 . S
H120 C130 0.930 . S
H121 C131 0.930 . S
C122 H116 0.930 . S
C122 C123 1.355 . S
C122 C124 1.415 . S
C123 C122 1.355 . S
C123 C125 1.419 . S
C124 C122 1.415 . S
C124 C129 1.425 . S
C124 C131 1.409 . S
C125 H117 0.930 . S
C125 C123 1.419 . S
C125 C126 1.362 . S
C126 H118 0.930 . S
C126 C125 1.362 . S
C126 C129 1.409 . S
C127 H119 0.930 . S
C127 C128 1.355 . S
C127 C129 1.415 . S
C128 C127 1.355 . S
C128 C130 1.419 . S
C129 C124 1.425 . S
C129 C126 1.409 . S
C129 C127 1.415 . S
C130 H120 0.930 . S
C130 C128 1.419 . S
C130 C131 1.362 . S
C131 H121 0.930 . S
C131 C124 1.409 . S
C131 C130 1.362 . S
H132 C138 0.930 1_556 S
H133 C141 0.930 . S
H134 C142 0.930 . S
H135 C143 0.930 . S
H136 C146 0.930 . S
H137 C147 0.930 . S
C138 H132 0.930 1_554 S
C138 C139 1.355 . S
C138 C140 1.415 . S
C139 C138 1.355 . S
C139 C141 1.419 . S
C140 C138 1.415 . S
C140 C145 1.425 . S
C140 C147 1.409 1_554 S
C141 H133 0.930 . S
C141 C139 1.419 . S
C141 C142 1.362 . S
C142 H134 0.930 . S
C142 C141 1.362 . S
C142 C145 1.409 . S
C143 H135 0.930 . S
C143 C144 1.355 . S
C143 C145 1.415 . S
C144 C143 1.355 . S
C144 C146 1.419 1_554 S
C145 C140 1.425 . S
C145 C142 1.409 . S
C145 C143 1.415 . S
C146 H136 0.930 . S
C146 C144 1.419 1_556 S
C146 C147 1.362 . S
C147 H137 0.930 . S
C147 C140 1.409 1_556 S
C147 C146 1.362 . S
H148 C154 0.930 . S
H149 C157 0.930 . S
H150 C158 0.930 . S
H151 C159 0.930 . S
H152 C162 0.930 . S
H153 C163 0.930 . S
C154 H148 0.930 . S
C154 C155 1.355 . S
C154 C156 1.415 . S
C155 C154 1.355 . S
C155 C157 1.419 . S
C156 C154 1.415 . S
C156 C161 1.425 . S
C156 C163 1.409 . S
C157 H149 0.930 . S
C157 C155 1.419 . S
C157 C158 1.362 . S
C158 H150 0.930 . S
C158 C157 1.362 . S
C158 C161 1.409 . S
C159 H151 0.930 . S
C159 C160 1.355 . S
C159 C161 1.415 . S
C160 C159 1.355 . S
C160 C162 1.419 . S
C161 C156 1.425 . S
C161 C158 1.409 . S
C161 C159 1.415 . S
C162 H152 0.930 . S
C162 C160 1.419 . S
C162 C163 1.362 . S
C163 H153 0.930 . S
C163 C156 1.409 . S
C163 C162 1.362 . S
H164 C170 0.930 . S
H165 C173 0.930 . S
H166 C174 0.930 . S
H167 C175 0.930 . S
H168 C178 0.930 . S
H169 C179 0.930 . S
C170 H164 0.930 . S
C170 C171 1.355 1_556 S
C170 C172 1.415 . S
C171 C170 1.355 1_554 S
C171 C173 1.419 . S
C172 C170 1.415 . S
C172 C177 1.425 1_556 S
C172 C179 1.409 . S
C173 H165 0.930 . S
C173 C171 1.419 . S
C173 C174 1.362 . S
C174 H166 0.930 . S
C174 C173 1.362 . S
C174 C177 1.409 . S
C175 H167 0.930 . S
C175 C176 1.355 . S
C175 C177 1.415 . S
C176 C175 1.355 . S
C176 C178 1.419 1_554 S
C177 C172 1.425 1_554 S
C177 C174 1.409 . S
C177 C175 1.415 . S
C178 H168 0.930 . S
C178 C176 1.419 1_556 S
C178 C179 1.362 . S
C179 H169 0.930 . S
C179 C172 1.409 . S
C179 C178 1.362 . S
H180 C186 0.930 . S
H181 C189 0.930 . S
H182 C190 0.930 . S
H183 C191 0.930 . S
H184 C194 0.930 . S
H185 C195 0.930 . S
C186 H180 0.930 . S
C186 C187 1.355 . S
C186 C188 1.415 . S
C187 C186 1.355 . S
C187 C189 1.419 . S
C188 C186 1.415 . S
C188 C193 1.425 . S
C188 C195 1.409 . S
C189 H181 0.930 . S
C189 C187 1.419 . S
C189 C190 1.362 . S
C190 H182 0.930 . S
C190 C189 1.362 . S
C190 C193 1.409 . S
C191 H183 0.930 . S
C191 C192 1.355 . S
C191 C193 1.415 . S
C192 C191 1.355 . S
C192 C194 1.419 . S
C193 C188 1.425 . S
C193 C190 1.409 . S
C193 C191 1.415 . S
C194 H184 0.930 . S
C194 C192 1.419 . S
C194 C195 1.362 . S
C195 H185 0.930 . S
C195 C188 1.409 . S
C195 C194 1.362 . S
H196 C202 0.930 . S
H197 C205 0.930 . S
H198 C206 0.930 . S
H199 C207 0.930 . S
H200 C210 0.930 . S
H201 C211 0.930 . S
C202 H196 0.930 . S
C202 C203 1.355 . S
C202 C204 1.415 . S
C203 C202 1.355 . S
C203 C205 1.419 . S
C204 C202 1.415 . S
C204 C209 1.425 . S
C204 C211 1.409 . S
C205 H197 0.930 . S
C205 C203 1.419 . S
C205 C206 1.362 . S
C206 H198 0.930 . S
C206 C205 1.362 . S
C206 C209 1.409 . S
C207 H199 0.930 . S
C207 C208 1.355 . S
C207 C209 1.415 . S
C208 C207 1.355 . S
C208 C210 1.419 . S
C209 C204 1.425 . S
C209 C206 1.409 . S
C209 C207 1.415 . S
C210 H200 0.930 . S
C210 C208 1.419 . S
C210 C211 1.362 . S
C211 H201 0.930 . S
C211 C204 1.409 . S
C211 C210 1.362 . S
H212 C218 0.930 . S
H213 C221 0.930 . S
H214 C222 0.930 . S
H215 C223 0.930 . S
H216 C226 0.930 . S
H217 C227 0.930 . S
C218 H212 0.930 . S
C218 C219 1.355 . S
C218 C220 1.415 . S
C219 C218 1.355 . S
C219 C221 1.419 . S
C220 C218 1.415 . S
C220 C225 1.425 . S
C220 C227 1.409 . S
C221 H213 0.930 . S
C221 C219 1.419 . S
C221 C222 1.362 . S
C222 H214 0.930 . S
C222 C221 1.362 . S
C222 C225 1.409 . S
C223 H215 0.930 . S
C223 C224 1.355 . S
C223 C225 1.415 . S
C224 C223 1.355 . S
C224 C226 1.419 . S
C225 C220 1.425 . S
C225 C222 1.409 . S
C225 C223 1.415 . S
C226 H216 0.930 . S
C226 C224 1.419 . S
C226 C227 1.362 . S
C227 H217 0.930 . S
C227 C220 1.409 . S
C227 C226 1.362 . S
H228 C234 0.930 . S
H229 C237 0.930 . S
H230 C238 0.930 . S
H231 C239 0.930 . S
H232 C242 0.930 . S
H233 C243 0.930 . S
C234 H228 0.930 . S
C234 C235 1.355 . S
C234 C236 1.415 . S
C235 C234 1.355 . S
C235 C237 1.419 . S
C236 C234 1.415 . S
C236 C241 1.425 . S
C236 C243 1.409 . S
C237 H229 0.930 . S
C237 C235 1.419 . S
C237 C238 1.362 . S
C238 H230 0.930 . S
C238 C237 1.362 . S
C238 C241 1.409 . S
C239 H231 0.930 . S
C239 C240 1.355 . S
C239 C241 1.415 . S
C240 C239 1.355 . S
C240 C242 1.419 . S
C241 C236 1.425 . S
C241 C238 1.409 . S
C241 C239 1.415 . S
C242 H232 0.930 . S
C242 C240 1.419 . S
C242 C243 1.362 . S
C243 H233 0.930 . S
C243 C236 1.409 . S
C243 C242 1.362 . S
H244 C250 0.930 . S
H245 C253 0.930 . S
H246 C254 0.930 . S
H247 C255 0.930 . S
H248 C258 0.930 . S
H249 C259 0.930 . S
C250 H244 0.930 . S
C250 C251 1.355 . S
C250 C252 1.415 . S
C251 C250 1.355 . S
C251 C253 1.419 . S
C252 C250 1.415 . S
C252 C257 1.425 . S
C252 C259 1.409 . S
C253 H245 0.930 . S
C253 C251 1.419 . S
C253 C254 1.362 . S
C254 H246 0.930 . S
C254 C253 1.362 . S
C254 C257 1.409 . S
C255 H247 0.930 . S
C255 C256 1.355 . S
C255 C257 1.415 . S
C256 C255 1.355 . S
C256 C258 1.419 . S
C257 C252 1.425 . S
C257 C254 1.409 . S
C257 C255 1.415 . S
C258 H248 0.930 . S
C258 C256 1.419 . S
C258 C259 1.362 . S
C259 H249 0.930 . S
C259 C252 1.409 . S
C259 C258 1.362 . S
H260 C266 0.930 . S
H261 C269 0.930 . S
H262 C270 0.930 . S
H263 C271 0.930 . S
H264 C274 0.930 . S
H265 C275 0.930 . S
C266 H260 0.930 . S
C266 C267 1.355 . S
C266 C268 1.415 . S
C267 C266 1.355 . S
C267 C269 1.419 . S
C268 C266 1.415 . S
C268 C273 1.425 . S
C268 C275 1.409 . S
C269 H261 0.930 . S
C269 C267 1.419 . S
C269 C270 1.362 . S
C270 H262 0.930 . S
C270 C269 1.362 . S
C270 C273 1.409 . S
C271 H263 0.930 . S
C271 C272 1.355 . S
C271 C273 1.415 . S
C272 C271 1.355 . S
C272 C274 1.419 . S
C273 C268 1.425 . S
C273 C270 1.409 . S
C273 C271 1.415 . S
C274 H264 0.930 . S
C274 C272 1.419 . S
C274 C275 1.362 . S
C275 H265 0.930 . S
C275 C268 1.409 . S
C275 C274 1.362 . S
H276 C282 0.930 . S
H277 C285 0.930 . S
H278 C286 0.930 . S
H279 C287 0.930 . S
H280 C290 0.930 . S
H281 C291 0.930 . S
C282 H276 0.930 . S
C282 C283 1.355 . S
C282 C284 1.415 . S
C283 C282 1.355 . S
C283 C285 1.419 . S
C284 C282 1.415 . S
C284 C289 1.425 . S
C284 C291 1.409 . S
C285 H277 0.930 . S
C285 C283 1.419 . S
C285 C286 1.362 . S
C286 H278 0.930 . S
C286 C285 1.362 . S
C286 C289 1.409 . S
C287 H279 0.930 . S
C287 C288 1.355 . S
C287 C289 1.415 . S
C288 C287 1.355 . S
C288 C290 1.419 . S
C289 C284 1.425 . S
C289 C286 1.409 . S
C289 C287 1.415 . S
C290 H280 0.930 . S
C290 C288 1.419 . S
C290 C291 1.362 . S
C291 H281 0.930 . S
C291 C284 1.409 . S
C291 C290 1.362 . S
H292 C298 0.930 . S
H293 C301 0.930 . S
H294 C302 0.930 . S
H295 C303 0.930 . S
H296 C306 0.930 . S
H297 C307 0.930 . S
C298 H292 0.930 . S
C298 C299 1.355 . S
C298 C300 1.415 . S
C299 C298 1.355 . S
C299 C301 1.419 . S
C300 C298 1.415 . S
C300 C305 1.425 . S
C300 C307 1.409 . S
C301 H293 0.930 . S
C301 C299 1.419 . S
C301 C302 1.362 . S
C302 H294 0.930 . S
C302 C301 1.362 . S
C302 C305 1.409 . S
C303 H295 0.930 . S
C303 C304 1.355 . S
C303 C305 1.415 . S
C304 C303 1.355 . S
C304 C306 1.419 . S
C305 C300 1.425 . S
C305 C302 1.409 . S
C305 C303 1.415 . S
C306 H296 0.930 . S
C306 C304 1.419 . S
C306 C307 1.362 . S
C307 H297 0.930 . S
C307 C300 1.409 . S
C307 C306 1.362 . S
C128 C52 1.506 . S
C123 C40 1.498 . S
C139 C4 1.492 . S
C144 C95 1.496 . S
C155 C16 1.484 . S
C160 C61 1.508 . S
C171 C28 1.498 . S
C176 C86 1.505 . S
C192 C48 1.543 . S
C187 C9 1.503 . S
C208 C90 1.536 . S
C203 C18 1.535 . S
C219 C33 1.531 . S
C224 C56 1.549 . S
C235 C45 1.502 . S
C240 C82 1.530 . S
C256 C111 1.474 . S
C251 C21 1.443 . S
C272 C77 1.467 . S
C267 C30 1.469 . S
C288 C99 1.474 . S
C283 C42 1.461 . S
C299 C6 1.456 . S
C304 C65 1.455 . S
