# Generated by pormake.
# Topology wbl, (4,4)-cn, num edge types: 1
# Building blocks:
#     Node 0, Type 0, BuildingBlock: MIFKUJ_clean_linker_1, # of connection points: 4
#     Node 1, Type 0, BuildingBlock: MIFKUJ_clean_linker_1, # of connection points: 4
#     Node 2, Type 0, BuildingBlock: MIFKUJ_clean_linker_1, # of connection points: 4
#     Node 3, Type 0, BuildingBlock: MIFKUJ_clean_linker_1, # of connection points: 4
#     Node 4, Type 0, BuildingBlock: MIFKUJ_clean_linker_1, # of connection points: 4
#     Node 5, Type 0, BuildingBlock: MIFKUJ_clean_linker_1, # of connection points: 4
#     Node 6, Type 0, BuildingBlock: MIFKUJ_clean_linker_1, # of connection points: 4
#     Node 7, Type 0, BuildingBlock: MIFKUJ_clean_linker_1, # of connection points: 4
#     Node 8, Type 1, BuildingBlock: TATPOV_clean_sbu_0, # of connection points: 4
#     Node 9, Type 1, BuildingBlock: TATPOV_clean_sbu_0, # of connection points: 4
#     Node 10, Type 1, BuildingBlock: TATPOV_clean_sbu_0, # of connection points: 4
#     Node 11, Type 1, BuildingBlock: TATPOV_clean_sbu_0, # of connection points: 4
#     Node 12, Type 1, BuildingBlock: TATPOV_clean_sbu_0, # of connection points: 4
#     Node 13, Type 1, BuildingBlock: TATPOV_clean_sbu_0, # of connection points: 4
#     Node 14, Type 1, BuildingBlock: TATPOV_clean_sbu_0, # of connection points: 4
#     Node 15, Type 1, BuildingBlock: TATPOV_clean_sbu_0, # of connection points: 4
#     Edge 16, Type (0, 1), BuildingBlock: XIVTED_clean_linker_0, # of connection points: 2
#     Edge 17, Type (0, 1), BuildingBlock: XIVTED_clean_linker_0, # of connection points: 2
#     Edge 18, Type (0, 1), BuildingBlock: XIVTED_clean_linker_0, # of connection points: 2
#     Edge 19, Type (0, 1), BuildingBlock: XIVTED_clean_linker_0, # of connection points: 2
#     Edge 20, Type (0, 1), BuildingBlock: XIVTED_clean_linker_0, # of connection points: 2
#     Edge 21, Type (0, 1), BuildingBlock: XIVTED_clean_linker_0, # of connection points: 2
#     Edge 22, Type (0, 1), BuildingBlock: XIVTED_clean_linker_0, # of connection points: 2
#     Edge 23, Type (0, 1), BuildingBlock: XIVTED_clean_linker_0, # of connection points: 2
#     Edge 24, Type (0, 1), BuildingBlock: XIVTED_clean_linker_0, # of connection points: 2
#     Edge 25, Type (0, 1), BuildingBlock: XIVTED_clean_linker_0, # of connection points: 2
#     Edge 26, Type (0, 1), BuildingBlock: XIVTED_clean_linker_0, # of connection points: 2
#     Edge 27, Type (0, 1), BuildingBlock: XIVTED_clean_linker_0, # of connection points: 2
#     Edge 28, Type (0, 1), BuildingBlock: XIVTED_clean_linker_0, # of connection points: 2
#     Edge 29, Type (0, 1), BuildingBlock: XIVTED_clean_linker_0, # of connection points: 2
#     Edge 30, Type (0, 1), BuildingBlock: XIVTED_clean_linker_0, # of connection points: 2
#     Edge 31, Type (0, 1), BuildingBlock: XIVTED_clean_linker_0, # of connection points: 2
#     Edge 32, Type (0, 1), BuildingBlock: XIVTED_clean_linker_0, # of connection points: 2
#     Edge 33, Type (0, 1), BuildingBlock: XIVTED_clean_linker_0, # of connection points: 2
#     Edge 34, Type (0, 1), BuildingBlock: XIVTED_clean_linker_0, # of connection points: 2
#     Edge 35, Type (0, 1), BuildingBlock: XIVTED_clean_linker_0, # of connection points: 2
#     Edge 36, Type (0, 1), BuildingBlock: XIVTED_clean_linker_0, # of connection points: 2
#     Edge 37, Type (0, 1), BuildingBlock: XIVTED_clean_linker_0, # of connection points: 2
#     Edge 38, Type (0, 1), BuildingBlock: XIVTED_clean_linker_0, # of connection points: 2
#     Edge 39, Type (0, 1), BuildingBlock: XIVTED_clean_linker_0, # of connection points: 2
#     Edge 40, Type (0, 1), BuildingBlock: XIVTED_clean_linker_0, # of connection points: 2
#     Edge 41, Type (0, 1), BuildingBlock: XIVTED_clean_linker_0, # of connection points: 2
#     Edge 42, Type (0, 1), BuildingBlock: XIVTED_clean_linker_0, # of connection points: 2
#     Edge 43, Type (0, 1), BuildingBlock: XIVTED_clean_linker_0, # of connection points: 2
#     Edge 44, Type (0, 1), BuildingBlock: XIVTED_clean_linker_0, # of connection points: 2
#     Edge 45, Type (0, 1), BuildingBlock: XIVTED_clean_linker_0, # of connection points: 2
#     Edge 46, Type (0, 1), BuildingBlock: XIVTED_clean_linker_0, # of connection points: 2
#     Edge 47, Type (0, 1), BuildingBlock: XIVTED_clean_linker_0, # of connection points: 2
# Relax obj value: 0.161
# Max RMSD: 0.153
# Mean RMSD: 0.128
data_MOF--net-wbl--node1-TATPOV_clean_sbu_0--node2-MIFKUJ_clean_linker_1--edge1-XIVTED_clean_linker_0
_symmetry_space_group_name_H-M    P1
_symmetry_Int_Tables_number       1
_symmetry_cell_setting            triclinic
loop_
_symmetry_equiv_pos_as_xyz
'x, y, z'
_cell_length_a     46.139647
_cell_length_b     46.063686
_cell_length_c     73.159795
_cell_angle_alpha  91.383909
_cell_angle_beta   91.304481
_cell_angle_gamma 90.140599
loop_
_atom_site_label
_atom_site_type_symbol
_atom_site_fract_x
_atom_site_fract_y
_atom_site_fract_z
_atom_type_partial_charge
H0 H 0.06488 0.08933 0.38425 0.0
H1 H 0.03989 0.12238 0.40524 0.0
H2 H 0.95774 0.08427 0.38789 0.0
H3 H 0.98286 0.05174 0.36674 0.0
H4 H 0.06609 0.02987 0.38293 0.0
H5 H 0.03383 0.10667 0.34549 0.0
H6 H -0.00226 0.14009 0.33296 0.0
H7 H 0.9535 0.0681 0.30566 0.0
H8 H 0.9886 0.03441 0.31899 0.0
H9 H 0.04191 0.9639 0.31754 0.0
H10 H 0.06554 0.92672 0.2985 0.0
H11 H 0.14897 0.96498 0.31244 0.0
H12 H 0.12528 0.00197 0.33138 0.0
H13 H 0.04292 0.02538 0.31635 0.0
H14 H 0.07021 0.9491 0.35711 0.0
H15 H 0.09999 0.91514 0.3745 0.0
H16 H 0.1533 0.98658 0.39498 0.0
H17 H 0.12334 0.02039 0.37765 0.0
C18 C 0.0257 0.06829 0.37384 0.0
C19 C 0.04148 0.08815 0.38501 0.0
C20 C 0.02716 0.10695 0.39703 0.0
C21 C -0.00322 0.10606 0.39822 0.0
C22 C 0.98108 0.08595 0.38708 0.0
C23 C 0.99541 0.06722 0.37504 0.0
C24 C 0.04092 0.04845 0.36106 0.0
C25 C 0.0614 0.02924 0.36832 0.0
C26 C 0.03426 0.04728 0.34206 0.0
C27 C 0.01362 0.06789 0.33351 0.0
C28 C 0.01614 0.09796 0.33704 0.0
C29 C 0.99566 0.11706 0.32983 0.0
C30 C 0.97292 0.10652 0.31847 0.0
C31 C 0.97096 0.07665 0.31437 0.0
C32 C 0.99103 0.05747 0.32193 0.0
C33 C 0.08191 0.98547 0.32594 0.0
C34 C 0.06526 0.96439 0.3163 0.0
C35 C 0.07875 0.94315 0.30552 0.0
C36 C 0.10905 0.94303 0.30398 0.0
C37 C 0.12555 0.96476 0.3132 0.0
C38 C 0.1121 0.98574 0.32413 0.0
C39 C 0.06785 0.00673 0.33831 0.0
C40 C 0.04771 0.02623 0.33094 0.0
C41 C 0.07479 0.00824 0.35722 0.0
C42 C 0.09461 0.98727 0.36607 0.0
C43 C 0.08869 0.95735 0.36504 0.0
C44 C 0.10574 0.93796 0.37498 0.0
C45 C 0.12886 0.94821 0.38623 0.0
C46 C 0.13535 0.97807 0.38668 0.0
C47 C 0.11833 -0.00259 0.37674 0.0
H48 H 0.98238 0.49563 0.56176 0.0
H49 H 0.9515 0.46142 0.54428 0.0
H50 H 0.8755 0.50234 0.56668 0.0
H51 H 0.90659 0.53662 0.58413 0.0
H52 H 0.98964 0.55337 0.56411 0.0
H53 H 0.96042 0.47802 0.60602 0.0
H54 H 0.92918 0.4479 0.62435 0.0
H55 H 0.88613 0.52514 0.64462 0.0
H56 H 0.91832 0.55503 0.6268 0.0
H57 H 0.99402 0.60934 0.63644 0.0
H58 H 0.02929 0.63263 0.65756 0.0
H59 H 0.09838 0.58529 0.63144 0.0
H60 H 0.06303 0.56205 0.6104 0.0
H61 H 0.98037 0.55343 0.63155 0.0
H62 H 0.01897 0.62772 0.59589 0.0
H63 H 0.05839 0.6559 0.58381 0.0
H64 H 0.08356 0.58182 0.55036 0.0
H65 H 0.0454 0.55299 0.56379 0.0
C66 C 0.94681 0.51834 0.57447 0.0
C67 C 0.95905 0.49759 0.56264 0.0
C68 C 0.94135 0.47812 0.5526 0.0
C69 C 0.91106 0.47906 0.5542 0.0
C70 C 0.89879 0.50081 0.56538 0.0
C71 C 0.91651 0.52037 0.57536 0.0
C72 C 0.96584 0.53665 0.5866 0.0
C73 C 0.98778 0.5533 0.57886 0.0
C74 C 0.96291 0.53713 0.6058 0.0
C75 C 0.94165 0.51872 0.61508 0.0
C76 C 0.94396 0.48836 0.61424 0.0
C77 C 0.92595 0.47117 0.62469 0.0
C78 C 0.9052 0.48403 0.63615 0.0
C79 C 0.90225 0.51446 0.63631 0.0
C80 C 0.92046 0.53161 0.62602 0.0
C81 C 0.02594 0.58423 0.62173 0.0
C82 C 0.01677 0.60398 0.63529 0.0
C83 C 0.03692 0.61719 0.64737 0.0
C84 C 0.0666 0.61082 0.64612 0.0
C85 C 0.07571 0.59097 0.63255 0.0
C86 C 0.05555 0.57767 0.62054 0.0
C87 C 0.00448 0.56983 0.60914 0.0
C88 C 0.98206 0.55392 0.61678 0.0
C89 C 0.00708 0.57011 0.58988 0.0
C90 C 0.02949 0.588 0.58107 0.0
C91 C 0.03317 0.6174 0.58611 0.0
C92 C 0.05559 0.63368 0.57893 0.0
C93 C 0.07443 0.62126 0.56606 0.0
C94 C 0.06999 0.59205 0.56051 0.0
C95 C 0.04785 0.57559 0.56799 0.0
H96 H 0.50686 0.52872 0.88225 0.0
H97 H 0.47979 0.56366 0.90109 0.0
H98 H 0.39926 0.52538 0.88118 0.0
H99 H 0.42637 0.49091 0.86202 0.0
H100 H 0.50591 0.46628 0.88072 0.0
H101 H 0.48872 0.54783 0.84493 0.0
H102 H 0.45837 0.5868 0.83309 0.0
H103 H 0.40789 0.52392 0.80124 0.0
H104 H 0.43763 0.48463 0.81377 0.0
H105 H 0.49792 0.40632 0.81161 0.0
H106 H 0.52826 0.37775 0.79062 0.0
H107 H 0.60381 0.42525 0.81061 0.0
H108 H 0.5736 0.45329 0.83163 0.0
H109 H 0.4948 0.47135 0.81321 0.0
H110 H 0.51799 0.38895 0.85246 0.0
H111 H 0.54832 0.35509 0.86981 0.0
H112 H 0.59489 0.42775 0.8949 0.0
H113 H 0.56485 0.46124 0.87746 0.0
C114 C 0.46855 0.50735 0.87078 0.0
C115 C 0.48339 0.52774 0.88208 0.0
C116 C 0.46798 0.54774 0.89269 0.0
C117 C 0.43755 0.54713 0.89247 0.0
C118 C 0.42274 0.52614 0.88158 0.0
C119 C 0.43814 0.50653 0.87068 0.0
C120 C 0.48482 0.4879 0.85838 0.0
C121 C 0.50358 0.46741 0.86596 0.0
C122 C 0.48181 0.48961 0.83916 0.0
C123 C 0.46492 0.51324 0.83063 0.0
C124 C 0.47091 0.54233 0.83558 0.0
C125 C 0.45369 0.56459 0.82876 0.0
C126 C 0.4307 0.55824 0.81643 0.0
C127 C 0.42555 0.52928 0.81075 0.0
C128 C 0.44248 0.5069 0.81787 0.0
C129 C 0.53365 0.43167 0.8232 0.0
C130 C 0.52104 0.41043 0.81144 0.0
C131 C 0.5383 0.3942 0.79951 0.0
C132 C 0.56826 0.39954 0.79892 0.0
C133 C 0.58071 0.421 0.81063 0.0
C134 C 0.56356 0.43683 0.82272 0.0
C135 C 0.51562 0.44934 0.83558 0.0
C136 C 0.4967 0.4698 0.82797 0.0
C137 C 0.51925 0.44826 0.85479 0.0
C138 C 0.53924 0.42756 0.86368 0.0
C139 C 0.53509 0.39747 0.86146 0.0
C140 C 0.55226 0.37821 0.87147 0.0
C141 C 0.57396 0.38877 0.88372 0.0
C142 C 0.57862 0.4189 0.88541 0.0
C143 C 0.56135 0.43809 0.87555 0.0
H144 H 0.51512 0.93609 0.06834 0.0
H145 H 0.47932 0.90523 0.05199 0.0
H146 H 0.4104 0.94968 0.08004 0.0
H147 H 0.44608 0.98124 0.09585 0.0
H148 H 0.52606 0.99151 0.06911 0.0
H149 H 0.49841 0.92357 0.11533 0.0
H150 H 0.46641 0.89711 0.13534 0.0
H151 H 0.43292 0.97869 0.15624 0.0
H152 H 0.46552 0.00485 0.13658 0.0
H153 H 0.53254 0.06069 0.13571 0.0
H154 H 0.56642 0.0905 0.15424 0.0
H155 H 0.63837 0.04499 0.13004 0.0
H156 H 0.60434 0.01501 0.11165 0.0
H157 H 0.52451 0.00373 0.13664 0.0
H158 H 0.54628 0.07116 0.08881 0.0
H159 H 0.58008 0.0999 0.07127 0.0
H160 H 0.62402 0.02141 0.05433 0.0
H161 H 0.58978 0.99263 0.07179 0.0
C162 C 0.48335 0.96061 0.08359 0.0
C163 C 0.4923 0.9394 0.07084 0.0
C164 C 0.47188 0.92184 0.06151 0.0
C165 C 0.44221 0.92505 0.06489 0.0
C166 C 0.43321 0.94658 0.0774 0.0
C167 C 0.45358 0.96446 0.08649 0.0
C168 C 0.5051 0.9788 0.09378 0.0
C169 C 0.52595 0.99378 0.0839 0.0
C170 C 0.50469 0.98236 0.11305 0.0
C171 C 0.48433 0.96616 0.12448 0.0
C172 C 0.48401 0.93569 0.12415 0.0
C173 C 0.46559 0.92061 0.13555 0.0
C174 C 0.44713 0.93574 0.1475 0.0
C175 C 0.44722 0.9663 0.14751 0.0
C176 C 0.46575 0.98132 0.13621 0.0
C177 C 0.5659 0.03576 0.12222 0.0
C178 C 0.55561 0.0572 0.13435 0.0
C179 C 0.57497 0.07415 0.14496 0.0
C180 C 0.60502 0.06996 0.14364 0.0
C181 C 0.61534 0.0489 0.1312 0.0
C182 C 0.59592 0.03181 0.12066 0.0
C183 C 0.54512 0.01656 0.11198 0.0
C184 C 0.5246 0.0013 0.12185 0.0
C185 C 0.54577 0.01278 0.09277 0.0
C186 C 0.56566 0.02985 0.08161 0.0
C187 C 0.56307 0.06015 0.08122 0.0
C188 C 0.58227 0.07649 0.07113 0.0
C189 C 0.60458 0.06282 0.06142 0.0
C190 C 0.60705 0.03243 0.06175 0.0
C191 C 0.5875 0.01603 0.07162 0.0
H192 H 0.98418 0.59977 0.88837 0.0
H193 H 0.01615 0.63079 0.87121 0.0
H194 H 0.09032 0.59619 0.9005 0.0
H195 H 0.05826 0.5642 0.91695 0.0
H196 H 0.98275 0.54218 0.88749 0.0
H197 H 0.00463 0.61622 0.93265 0.0
H198 H 0.03973 0.64569 0.94998 0.0
H199 H 0.06522 0.57025 0.98061 0.0
H200 H 0.03293 0.54037 0.96154 0.0
H201 H 0.98809 0.474 0.95122 0.0
H202 H 0.9629 0.43236 0.96364 0.0
H203 H 0.88268 0.46136 0.93855 0.0
H204 H 0.90809 0.50279 0.92605 0.0
H205 H 0.98165 0.53258 0.95484 0.0
H206 H 0.97348 0.45961 0.90688 0.0
H207 H 0.94831 0.42538 0.88594 0.0
H208 H 0.89953 0.4962 0.8629 0.0
H209 H 0.92471 0.53034 0.88397 0.0
C210 C 0.01876 0.57981 0.90405 0.0
C211 C 0.00733 0.59897 0.89113 0.0
C212 C 0.02566 0.61691 0.88145 0.0
C213 C 0.05588 0.61607 0.88446 0.0
C214 C 0.06722 0.59718 0.89765 0.0
C215 C 0.04888 0.57908 0.90724 0.0
C216 C -0.00069 0.55937 0.91333 0.0
C217 C 0.98217 0.54053 0.90225 0.0
C218 C -0.00098 0.55673 0.93262 0.0
C219 C 0.01686 0.57577 0.94519 0.0
C220 C 0.01814 0.60593 0.9429 0.0
C221 C 0.03792 0.62296 0.95318 0.0
C222 C 0.05606 0.61041 0.96657 0.0
C223 C 0.05265 0.58066 0.96998 0.0
C224 C 0.03367 0.5635 0.95923 0.0
C225 C 0.95001 0.49135 0.9376 0.0
C226 C 0.96501 0.47153 0.94857 0.0
C227 C 0.95058 0.44773 0.95566 0.0
C228 C 0.92082 0.44338 0.95195 0.0
C229 C 0.90572 0.46374 0.94134 0.0
C230 C 0.92016 0.48753 0.93428 0.0
C231 C 0.96599 0.51519 0.92895 0.0
C232 C 0.98216 0.5347 0.94012 0.0
C233 C 0.96593 0.51824 0.90977 0.0
C234 C 0.95064 0.49744 0.89714 0.0
C235 C 0.95713 0.4677 0.89746 0.0
C236 C 0.94274 0.44818 0.88549 0.0
C237 C 0.92188 0.45811 0.87283 0.0
C238 C 0.91568 0.48796 0.8724 0.0
C239 C 0.92997 0.50745 0.88445 0.0
H240 H 0.48886 0.53798 0.20596 0.0
H241 H 0.45081 0.56659 0.2204 0.0
H242 H 0.38678 0.52603 0.18415 0.0
H243 H 0.42476 0.49628 0.17022 0.0
H244 H 0.50337 0.48499 0.20188 0.0
H245 H 0.47288 0.55911 0.16094 0.0
H246 H 0.43965 0.58702 0.14183 0.0
H247 H 0.42166 0.5101 0.10838 0.0
H248 H 0.45373 0.48204 0.12816 0.0
H249 H 0.54559 0.41517 0.1614 0.0
H250 H 0.58231 0.38951 0.14374 0.0
H251 H 0.60271 0.46895 0.11652 0.0
H252 H 0.56622 0.49464 0.1344 0.0
H253 H 0.5102 0.48741 0.13434 0.0
H254 H 0.52346 0.42648 0.20131 0.0
H255 H 0.56247 0.4025 0.21825 0.0
H256 H 0.62356 0.46566 0.19902 0.0
H257 H 0.58457 0.48858 0.18151 0.0
C258 C 0.45979 0.51529 0.18678 0.0
C259 C 0.46658 0.53467 0.20137 0.0
C260 C 0.44485 0.55104 0.2096 0.0
C261 C 0.41598 0.54857 0.20327 0.0
C262 C 0.40896 0.52846 0.18913 0.0
C263 C 0.43064 0.5116 0.18115 0.0
C264 C 0.48345 0.50027 0.17693 0.0
C265 C 0.50472 0.48549 0.1871 0.0
C266 C 0.48578 0.50137 0.15767 0.0
C267 C 0.46552 0.5184 0.14612 0.0
C268 C 0.46143 0.54818 0.14965 0.0
C269 C 0.44264 0.56418 0.13857 0.0
C270 C 0.42792 0.55084 0.12353 0.0
C271 C 0.4322 0.521 0.12001 0.0
C272 C 0.45079 0.50497 0.13119 0.0
C273 C 0.55327 0.4569 0.14933 0.0
C274 C 0.55836 0.42721 0.1519 0.0
C275 C 0.57933 0.41255 0.14179 0.0
C276 C 0.59534 0.42722 0.12872 0.0
C277 C 0.59048 0.45702 0.12634 0.0
C278 C 0.56967 0.47171 0.13656 0.0
C279 C 0.52989 0.47219 0.15928 0.0
C280 C 0.50867 0.48689 0.14911 0.0
C281 C 0.52814 0.47196 0.17854 0.0
C282 C 0.55127 0.459 0.19001 0.0
C283 C 0.54526 0.43522 0.20091 0.0
C284 C 0.56759 0.42169 0.21068 0.0
C285 C 0.5963 0.432 0.20995 0.0
C286 C 0.60189 0.4567 0.19961 0.0
C287 C 0.57962 0.46995 0.18966 0.0
H288 H 0.54019 0.9298 0.37957 0.0
H289 H 0.50796 0.89681 0.36214 0.0
H290 H 0.43563 0.92693 0.3939 0.0
H291 H 0.46817 0.95997 0.41139 0.0
H292 H 0.53648 0.98881 0.38158 0.0
H293 H 0.52555 0.90841 0.4221 0.0
H294 H 0.49532 0.87661 0.43966 0.0
H295 H 0.47533 0.94884 0.47614 0.0
H296 H 0.50277 0.98101 0.45722 0.0
H297 H 0.55601 0.04351 0.45343 0.0
H298 H 0.59012 0.07716 0.46866 0.0
H299 H 0.65487 0.0537 0.42909 0.0
H300 H 0.62144 0.01851 0.41494 0.0
H301 H 0.55465 0.98786 0.4486 0.0
H302 H 0.56015 0.0685 0.40867 0.0
H303 H 0.58235 0.10401 0.38883 0.0
H304 H 0.6099 0.03442 0.35273 0.0
H305 H 0.58873 -0.00108 0.37287 0.0
C306 C 0.50659 0.94724 0.3968 0.0
C307 C 0.51739 0.92926 0.3828 0.0
C308 C 0.49894 0.91048 0.37283 0.0
C309 C 0.46923 0.90938 0.37659 0.0
C310 C 0.45847 0.92709 0.39082 0.0
C311 C 0.47699 0.94601 0.40078 0.0
C312 C 0.52639 0.96792 0.40664 0.0
C313 C 0.54075 0.98844 0.39623 0.0
C314 C 0.531 0.9679 0.42586 0.0
C315 C 0.51564 0.94744 0.43784 0.0
C316 C 0.51419 0.91753 0.43367 0.0
C317 C 0.49727 0.89914 0.44405 0.0
C318 C 0.48223 0.91003 0.45929 0.0
C319 C 0.48557 0.93964 0.46418 0.0
C320 C 0.50173 0.95813 0.45348 0.0
C321 C 0.58599 0.02874 0.43288 0.0
C322 C 0.57769 0.04538 0.4482 0.0
C323 C 0.59714 0.06494 0.45674 0.0
C324 C 0.62527 0.06846 0.45005 0.0
C325 C 0.63359 0.05142 0.43483 0.0
C326 C 0.61431 0.03151 0.42651 0.0
C327 C 0.56496 0.00866 0.4235 0.0
C328 C 0.55038 0.98827 0.43397 0.0
C329 C 0.55969 0.00906 0.40435 0.0
C330 C 0.57305 0.03092 0.39243 0.0
C331 C 0.57136 0.06082 0.39665 0.0
C332 C 0.58396 0.08111 0.3853 0.0
C333 C 0.59779 0.07192 0.36926 0.0
C334 C 0.59916 0.04209 0.36493 0.0
C335 C 0.58704 0.02181 0.37643 0.0
H336 H 0.04307 0.08966 0.71142 0.0
H337 H 0.00317 0.11926 0.72327 0.0
H338 H 0.94288 0.07298 0.68712 0.0
H339 H 0.98246 0.0428 0.67582 0.0
H340 H 0.05617 0.03258 0.70972 0.0
H341 H 0.03404 0.10646 0.66655 0.0
H342 H 0.00086 0.13461 0.64735 0.0
H343 H 0.97893 0.05691 0.61574 0.0
H344 H 0.0116 0.02877 0.63514 0.0
H345 H 0.06723 0.97148 0.64196 0.0
H346 H 0.0994 0.94126 0.62366 0.0
H347 H 0.17333 0.97518 0.65458 0.0
H348 H 0.14092 0.00595 0.67283 0.0
H349 H 0.06676 0.02876 0.64237 0.0
H350 H 0.07521 0.95511 0.68952 0.0
H351 H 0.10286 0.92333 0.70979 0.0
H352 H 0.14934 -0.00224 0.73259 0.0
H353 H 0.12124 0.02957 0.71236 0.0
C354 C 0.01582 0.06446 0.69248 0.0
C355 C 0.02119 0.08558 0.70629 0.0
C356 C -0.00154 0.10247 0.713 0.0
C357 C 0.97013 0.09858 0.70588 0.0
C358 C 0.96463 0.07668 0.69259 0.0
C359 C 0.98721 0.05949 0.68614 0.0
C360 C 0.04009 0.0485 0.68396 0.0
C361 C 0.05882 0.03215 0.69502 0.0
C362 C 0.04351 0.04781 0.66477 0.0
C363 C 0.02511 0.06544 0.65239 0.0
C364 C 0.02203 0.09549 0.65551 0.0
C365 C 0.00305 0.11153 0.64458 0.0
C366 C 0.98727 0.0979 0.63012 0.0
C367 C 0.99102 0.06801 0.62669 0.0
C368 C 0.00972 0.05194 0.63775 0.0
C369 C 0.10164 0.9911 0.65871 0.0
C370 C 0.09034 0.97231 0.64492 0.0
C371 C 0.10873 0.95509 0.63445 0.0
C372 C 0.13885 0.95618 0.63757 0.0
C373 C 0.15016 0.9739 0.65195 0.0
C374 C 0.13167 0.9914 0.66239 0.0
C375 C 0.0819 0.01175 0.66803 0.0
C376 C 0.06434 0.02946 0.65709 0.0
C377 C 0.0795 0.01358 0.68725 0.0
C378 C 0.0964 0.99456 0.69942 0.0
C379 C 0.09131 0.96455 0.69892 0.0
C380 C 0.10693 0.94651 0.71057 0.0
C381 C 0.12808 0.95818 0.7228 0.0
C382 C 0.13317 0.98828 0.72327 0.0
C383 C 0.11718 0.00639 0.71178 0.0
Zn384 Zn 0.2883 0.73904 0.97551 0.0
Zn385 Zn 0.30353 0.70772 0.00585 0.0
O386 O 0.25997 0.70203 0.00482 0.0
O387 O 0.24646 0.72805 0.9812 0.0
O388 O 0.31778 0.68626 0.02784 0.0
O389 O 0.30725 0.77481 0.98738 0.0
O390 O 0.31748 0.74898 0.01162 0.0
C391 C 0.24015 0.71163 0.99423 0.0
C392 C 0.32565 0.69003 0.96793 0.0
O393 O 0.3236 0.68648 0.98504 0.0
O394 O 0.313 0.71114 0.96035 0.0
C395 C 0.31145 0.65987 0.03053 0.0
O396 O 0.29381 0.64607 0.01893 0.0
C397 C 0.31805 0.77298 0.00338 0.0
Zn398 Zn 0.28654 0.75092 0.28641 0.0
Zn399 Zn 0.30826 0.77996 0.25737 0.0
O400 O 0.26714 0.79583 0.25914 0.0
O401 O 0.24808 0.77099 0.28128 0.0
O402 O 0.32556 0.80164 0.23657 0.0
O403 O 0.29715 0.7131 0.27342 0.0
O404 O 0.31239 0.73717 0.24978 0.0
C405 C 0.24576 0.79016 0.26918 0.0
C406 C 0.33468 0.78858 0.2962 0.0
O407 O 0.33405 0.79288 0.27907 0.0
O408 O 0.31641 0.77165 0.30308 0.0
C409 C 0.33053 0.82867 0.23883 0.0
O410 O 0.32329 0.84155 0.25428 0.0
C411 C 0.30774 0.71323 0.25759 0.0
Zn412 Zn 0.26571 0.76537 0.48531 0.0
Zn413 Zn 0.25283 0.80676 0.5116 0.0
O414 O 0.29676 0.8094 0.51043 0.0
O415 O 0.3085 0.77618 0.48977 0.0
O416 O 0.24184 0.83622 0.5309 0.0
O417 O 0.24465 0.73506 0.50032 0.0
O418 O 0.23401 0.76971 0.52026 0.0
C419 C 0.31588 0.79648 0.50098 0.0
C420 C 0.23088 0.81367 0.47223 0.0
O421 O 0.2335 0.82234 0.48882 0.0
O422 O 0.24217 0.78982 0.46708 0.0
C423 C 0.24692 0.83305 0.54788 0.0
O424 O 0.26101 0.80995 0.55334 0.0
C425 C 0.23208 0.74335 0.51477 0.0
Zn426 Zn 0.26214 0.74096 0.74329 0.0
Zn427 Zn 0.22828 0.72532 0.77153 0.0
O428 O 0.22434 0.76955 0.77191 0.0
O429 O 0.25396 0.78296 0.75044 0.0
O430 O 0.20485 0.71147 0.79256 0.0
O431 O 0.29589 0.71895 0.75419 0.0
O432 O 0.26831 0.70818 0.77726 0.0
C433 C 0.23602 0.78945 0.76275 0.0
C434 C 0.21196 0.70643 0.73222 0.0
O435 O 0.20748 0.70666 0.74933 0.0
O436 O 0.23374 0.71953 0.72608 0.0
C437 C 0.18004 0.72129 0.79663 0.0
O438 O 0.16877 0.74244 0.78709 0.0
C439 C 0.29253 0.70666 0.76929 0.0
Zn440 Zn 0.79554 0.2386 0.54023 0.0
Zn441 Zn 0.83243 0.22732 0.5118 0.0
O442 O 0.83309 0.27153 0.51377 0.0
O443 O 0.80315 0.28151 0.53609 0.0
O444 O 0.85849 0.21711 0.49095 0.0
O445 O 0.76362 0.21682 0.52574 0.0
O446 O 0.79442 0.20816 0.50372 0.0
C447 C 0.82045 0.28997 0.52408 0.0
C448 C 0.84653 0.20527 0.55022 0.0
O449 O 0.85198 0.20794 0.53338 0.0
O450 O 0.82374 0.21633 0.55677 0.0
C451 C 0.88589 0.21624 0.49305 0.0
O452 O 0.89767 0.22366 0.50901 0.0
C453 C 0.7693 0.20542 0.51029 0.0
Zn454 Zn 0.78565 0.26936 0.77396 0.0
Zn455 Zn 0.79973 0.30369 0.74571 0.0
O456 O 0.75541 0.30656 0.74636 0.0
O457 O 0.74329 0.27639 0.76782 0.0
O458 O 0.81096 0.3288 0.72472 0.0
O459 O 0.80777 0.23636 0.76236 0.0
O460 O 0.81778 0.2641 0.73921 0.0
C461 C 0.73607 0.29439 0.75572 0.0
C462 C 0.82007 0.31951 0.78492 0.0
O463 O 0.81929 0.32412 0.76783 0.0
O464 O 0.80716 0.29767 0.79115 0.0
C465 C 0.80939 0.35629 0.72636 0.0
O466 O 0.79947 0.36784 0.74157 0.0
C467 C 0.8198 0.23987 0.74719 0.0
Zn468 Zn 0.76728 0.26703 0.03682 0.0
Zn469 Zn 0.73095 0.28149 0.00836 0.0
O470 O 0.72245 0.23847 0.01131 0.0
O471 O 0.75297 0.22517 0.03311 0.0
O472 O 0.70736 0.29317 0.98634 0.0
O473 O 0.80178 0.28345 0.02331 0.0
O474 O 0.77131 0.29346 1.00082 0.0
C475 C 0.73272 0.21896 0.02164 0.0
C476 C 0.72207 0.30889 0.04614 0.0
O477 O 0.71514 0.30627 0.02923 0.0
O478 O 0.74315 0.29455 0.05271 0.0
C479 C 0.68145 0.28546 0.98246 0.0
O480 O 0.66783 0.26817 0.99344 0.0
C481 C 0.7969 0.29378 0.00765 0.0
Zn482 Zn 0.77564 0.24044 0.23342 0.0
Zn483 Zn 0.7438 0.22288 0.26234 0.0
O484 O 0.73084 0.26511 0.25964 0.0
O485 O 0.75763 0.28016 0.23716 0.0
O486 O 0.72042 0.20737 0.28306 0.0
O487 O 0.81196 0.22854 0.24717 0.0
O488 O 0.78598 0.21587 0.2706 0.0
C489 C 0.73836 0.28505 0.24893 0.0
C490 C 0.73571 0.19464 0.22378 0.0
O491 O 0.73015 0.19709 0.24071 0.0
O492 O 0.75463 0.21082 0.21692 0.0
C493 C 0.69397 0.20049 0.28015 0.0
O494 O 0.68202 0.2053 0.26404 0.0
C495 C 0.81047 0.21853 0.26309 0.0
H496 H 0.1528 0.94767 0.27958 0.0
H497 H 0.19405 0.78173 0.28598 0.0
H498 H 0.09906 0.88464 0.30545 0.0
H499 H 0.23832 0.84141 0.25148 0.0
H500 H 0.15565 0.81746 0.29012 0.0
H501 H 0.18127 0.9081 0.2663 0.0
C502 C 0.14683 0.92545 0.28228 0.0
C503 C 0.12379 0.91939 0.29378 0.0
C504 C 0.1735 0.82257 0.28138 0.0
C505 C 0.1563 0.874 0.27876 0.0
C506 C 0.19545 0.80214 0.279 0.0
C507 C 0.2197 0.80877 0.26862 0.0
C508 C 0.17602 0.84997 0.27355 0.0
C509 C 0.22018 0.83546 0.25975 0.0
C510 C 0.16297 0.90286 0.27464 0.0
C511 C 0.11666 0.89024 0.29664 0.0
N512 N 0.19895 0.85529 0.2627 0.0
N513 N 0.13315 0.86863 0.28942 0.0
H514 H 0.07529 0.67967 0.55896 0.0
H515 H 0.22654 0.68395 0.51047 0.0
H516 H 0.12895 0.60298 0.55594 0.0
H517 H 0.19163 0.75777 0.53999 0.0
H518 H 0.18911 0.65315 0.52358 0.0
H519 H 0.11554 0.70825 0.54812 0.0
C520 C 0.09552 0.66875 0.55619 0.0
C521 C 0.09859 0.63873 0.55862 0.0
C522 C 0.18995 0.67605 0.52728 0.0
C523 C 0.14468 0.67152 0.54559 0.0
C524 C 0.21125 0.69362 0.51983 0.0
C525 C 0.21219 0.72352 0.52409 0.0
C526 C 0.16915 0.68864 0.53871 0.0
C527 C 0.19181 0.73487 0.5363 0.0
C528 C 0.11848 0.68516 0.54989 0.0
C529 C 0.12527 0.62591 0.55411 0.0
N530 N 0.17093 0.71752 0.54297 0.0
N531 N 0.14724 0.64235 0.54773 0.0
H532 H 0.40326 0.59943 0.83696 0.0
H533 H 0.33925 0.68438 0.7515 0.0
H534 H 0.41535 0.57043 0.78116 0.0
H535 H 0.29853 0.68649 0.80408 0.0
H536 H 0.37458 0.64955 0.76323 0.0
H537 H 0.37148 0.6382 0.82595 0.0
C538 C 0.39931 0.6014 0.82238 0.0
C539 C 0.41178 0.58179 0.8099 0.0
C540 C 0.358 0.65783 0.7722 0.0
C541 C 0.37589 0.626 0.7973 0.0
C542 C 0.33797 0.67784 0.76559 0.0
C543 C 0.31583 0.68823 0.77682 0.0
C544 C 0.35615 0.64851 0.79024 0.0
C545 C 0.31514 0.67888 0.79493 0.0
C546 C 0.38115 0.62337 0.81614 0.0
C547 C 0.40591 0.58504 0.79119 0.0
N548 N 0.33504 0.65952 0.80109 0.0
N549 N 0.38845 0.60686 0.78542 0.0
H550 H 0.39933 0.89436 0.08073 0.0
H551 H 0.33914 0.82145 0.98724 0.0
H552 H 0.43667 0.91097 0.02847 0.0
H553 H 0.33037 0.78191 0.03975 0.0
H554 H 0.36692 0.86115 0.00216 0.0
H555 H 0.36574 0.85958 0.06568 0.0
C556 C 0.40019 0.89088 0.06606 0.0
C557 C 0.42079 0.90535 0.05579 0.0
C558 C 0.35872 0.84384 0.01038 0.0
C559 C 0.38258 0.86588 0.03857 0.0
C560 C 0.34277 0.82129 1.00192 0.0
C561 C 0.33264 0.79828 0.01227 0.0
C562 C 0.36412 0.84353 0.02932 0.0
C563 C 0.33802 0.79911 0.03124 0.0
C564 C 0.38119 0.87098 0.05752 0.0
C565 C 0.42124 0.89997 0.03685 0.0
N566 N 0.35341 0.82138 0.03916 0.0
N567 N 0.40236 0.88063 0.02881 0.0
H568 H 0.05851 0.66943 0.97517 0.0
H569 H 0.22189 0.66424 0.01251 0.0
H570 H 0.10923 0.59077 0.97871 0.0
H571 H 0.19024 0.73406 0.97921 0.0
H572 H 0.17391 0.64164 0.01028 0.0
H573 H 0.10107 0.6972 0.98603 0.0
C574 C 0.0783 0.65785 0.97831 0.0
C575 C 0.08006 0.62751 0.9757 0.0
C576 C 0.17742 0.66219 0.00377 0.0
C577 C 0.1283 0.65924 0.98888 0.0
C578 C 0.20471 0.67517 0.00507 0.0
C579 C 0.21016 0.70083 0.99576 0.0
C580 C 0.15537 0.67518 0.99333 0.0
C581 C 0.18704 0.71404 0.98635 0.0
C582 C 0.10246 0.67378 0.98467 0.0
C583 C 0.10627 0.6139 0.98067 0.0
N584 N 0.16061 0.70091 0.98524 0.0
N585 N 0.12929 0.62985 0.98695 0.0
H586 H 0.37893 0.58314 0.18415 0.0
H587 H 0.31533 0.66058 0.2735 0.0
H588 H 0.40338 0.55962 0.23906 0.0
H589 H 0.32176 0.70314 0.22179 0.0
H590 H 0.33658 0.61692 0.25972 0.0
H591 H 0.34686 0.6207 0.19671 0.0
C592 C 0.37707 0.58555 0.19884 0.0
C593 C 0.39382 0.56847 0.21064 0.0
C594 C 0.33302 0.63574 0.25137 0.0
C595 C 0.35743 0.61113 0.225 0.0
C596 C 0.32079 0.66062 0.25918 0.0
C597 C 0.31707 0.68566 0.24882 0.0
C598 C 0.34123 0.63577 0.23303 0.0
C599 C 0.32454 0.68442 0.23033 0.0
C600 C 0.35898 0.60704 0.20597 0.0
C601 C 0.39094 0.57258 0.22955 0.0
N602 N 0.3364 0.65991 0.22303 0.0
N603 N 0.37313 0.59357 0.23617 0.0
H604 H 0.48519 0.8507 0.46502 0.0
H605 H 0.33605 0.84631 0.51796 0.0
H606 H 0.43202 0.92587 0.47654 0.0
H607 H 0.36325 0.77538 0.48272 0.0
H608 H 0.38058 0.87227 0.51128 0.0
H609 H 0.4486 0.8202 0.47892 0.0
C610 C 0.46606 0.86095 0.47048 0.0
C611 C 0.46186 0.89115 0.46935 0.0
C612 C 0.37699 0.85079 0.50528 0.0
C613 C 0.42053 0.85625 0.48593 0.0
C614 C 0.35165 0.83583 0.50916 0.0
C615 C 0.34558 0.80879 0.50061 0.0
C616 C 0.39659 0.83856 0.49294 0.0
C617 C 0.36683 0.79633 0.48942 0.0
C618 C 0.44534 0.84346 0.47856 0.0
C619 C 0.43682 0.90296 0.47724 0.0
N620 N 0.3913 0.81147 0.48573 0.0
N621 N 0.4172 0.88552 0.48514 0.0
H622 H 0.10845 0.91518 0.74441 0.0
H623 H 0.26023 0.83864 0.74931 0.0
H624 H 0.187 0.95658 0.72747 0.0
H625 H 0.18621 0.80863 0.77864 0.0
H626 H 0.2358 0.8849 0.74471 0.0
H627 H 0.13756 0.87873 0.76011 0.0
C628 C 0.13188 0.91673 0.7442 0.0
C629 C 0.1454 0.93861 0.73446 0.0
C630 C 0.22513 0.86845 0.7525 0.0
C631 C 0.17886 0.89694 0.75222 0.0
C632 C 0.2391 0.84201 0.75515 0.0
C633 C 0.22501 0.81952 0.76406 0.0
C634 C 0.19667 0.87221 0.75852 0.0
C635 C 0.19778 0.82523 0.77151 0.0
C636 C 0.1485 0.89605 0.75324 0.0
C637 C 0.17578 0.93997 0.7348 0.0
N638 N 0.18421 0.85079 0.76822 0.0
N639 N 0.19151 0.91908 0.74326 0.0
H640 H 0.60853 0.41957 0.77556 0.0
H641 H 0.68801 0.26909 0.76984 0.0
H642 H 0.57071 0.34048 0.79461 0.0
H643 H 0.71527 0.34387 0.74015 0.0
H644 H 0.64148 0.29253 0.77512 0.0
H645 H 0.64436 0.39089 0.75899 0.0
C646 C 0.60761 0.39609 0.77603 0.0
C647 C 0.58698 0.38232 0.78664 0.0
C648 C 0.65738 0.30358 0.76712 0.0
C649 C 0.628 0.34935 0.76791 0.0
C650 C 0.68397 0.29018 0.76407 0.0
C651 C 0.70579 0.30479 0.75486 0.0
C652 C 0.65277 0.33199 0.76117 0.0
C653 C 0.69922 0.33192 0.74751 0.0
C654 C 0.62795 0.37971 0.76651 0.0
C655 C 0.58637 0.35188 0.78662 0.0
N656 N 0.67353 0.34493 0.75117 0.0
N657 N 0.60696 0.3364 0.77768 0.0
H658 H 0.66381 0.05987 0.06298 0.0
H659 H 0.68311 0.20146 0.00324 0.0
H660 H 0.59317 0.10626 0.03758 0.0
H661 H 0.74809 0.1716 0.04178 0.0
H662 H 0.65374 0.15879 0.00934 0.0
H663 H 0.69815 0.09325 0.04921 0.0
C664 C 0.6556 0.07678 0.05425 0.0
C665 C 0.62565 0.08056 0.05154 0.0
C666 C 0.67462 0.16138 0.01626 0.0
C667 C 0.66463 0.11863 0.03578 0.0
C668 C 0.69152 0.18567 0.01272 0.0
C669 C 0.71793 0.19042 0.02226 0.0
C670 C 0.68422 0.1416 0.02936 0.0
C671 C 0.72771 0.16904 0.03429 0.0
C672 C 0.67515 0.09586 0.04648 0.0
C673 C 0.61609 0.10289 0.0402 0.0
N674 N 0.71069 0.14572 0.03766 0.0
N675 N 0.6355 0.12117 0.03281 0.0
H676 H 0.93897 0.14481 0.33725 0.0
H677 H 0.8626 0.20703 0.24762 0.0
H678 H 0.95734 0.11342 0.28275 0.0
H679 H 0.81856 0.20376 0.299 0.0
H680 H 0.9042 0.18279 0.26164 0.0
H681 H 0.90087 0.17615 0.32445 0.0
C682 C 0.93511 0.1448 0.32258 0.0
C683 C 0.95106 0.12656 0.31097 0.0
C684 C 0.8855 0.18764 0.26986 0.0
C685 C 0.90817 0.16229 0.29636 0.0
C686 C 0.86181 0.20162 0.26193 0.0
C687 C 0.83694 0.20722 0.27213 0.0
C688 C 0.88454 0.17956 0.28819 0.0
C689 C 0.8372 0.19963 0.29061 0.0
C690 C 0.9134 0.1625 0.31534 0.0
C691 C 0.94528 0.12708 0.29211 0.0
N692 N 0.86065 0.18611 0.29807 0.0
N693 N 0.92434 0.14476 0.28536 0.0
H694 H 0.91461 0.45449 0.51971 0.0
H695 H 0.86101 0.31545 0.50279 0.0
H696 H 0.86588 0.45038 0.56923 0.0
H697 H 0.79864 0.3353 0.54435 0.0
H698 H 0.87981 0.36461 0.50601 0.0
H699 H 0.88845 0.41186 0.50765 0.0
C700 C 0.89836 0.44459 0.52803 0.0
C701 C 0.89274 0.45576 0.54561 0.0
C702 C 0.86148 0.35872 0.51409 0.0
C703 C 0.86317 0.40634 0.53216 0.0
C704 C 0.85079 0.33039 0.5123 0.0
C705 C 0.82845 0.32106 0.52349 0.0
C706 C 0.84968 0.37792 0.52716 0.0
C707 C 0.8161 0.3414 0.53557 0.0
C708 C 0.88351 0.42005 0.52119 0.0
C709 C 0.87093 0.44257 0.5556 0.0
N710 N 0.82716 0.36869 0.53726 0.0
N711 N 0.8572 0.41841 0.54881 0.0
H712 H 0.61329 0.12194 0.46582 0.0
H713 H 0.77844 0.1664 0.48241 0.0
H714 H 0.68442 0.06381 0.45448 0.0
H715 H 0.71061 0.20255 0.51563 0.0
H716 H 0.74297 0.13385 0.46743 0.0
H717 H 0.64771 0.15637 0.48022 0.0
C718 C 0.63603 0.11624 0.46643 0.0
C719 C 0.64585 0.08976 0.45887 0.0
C720 C 0.73587 0.14898 0.47797 0.0
C721 C 0.68531 0.12957 0.47486 0.0
C722 C 0.75603 0.16769 0.48645 0.0
C723 C 0.74748 0.18716 0.50035 0.0
C724 C 0.70683 0.14998 0.4832 0.0
C725 C 0.71814 0.18776 0.50505 0.0
C726 C 0.65564 0.13604 0.47455 0.0
C727 C 0.67576 0.08407 0.45974 0.0
N728 N 0.69879 0.16945 0.49644 0.0
N729 N 0.6944 0.10386 0.4675 0.0
H730 H 0.95464 0.11246 0.74081 0.0
H731 H 0.84279 0.23516 0.71295 0.0
H732 H 0.93216 0.12858 0.68442 0.0
H733 H 0.84026 0.19219 0.76471 0.0
H734 H 0.87806 0.19914 0.70236 0.0
H735 H 0.91565 0.14519 0.7503 0.0
C736 C 0.94145 0.12293 0.73046 0.0
C737 C 0.94646 0.11787 0.71185 0.0
C738 C 0.86951 0.1975 0.71596 0.0
C739 C 0.90215 0.1553 0.72251 0.0
C740 C 0.84942 0.21803 0.72201 0.0
C741 C 0.83861 0.21672 0.73975 0.0
C742 C 0.87919 0.17593 0.72786 0.0
C743 C 0.84796 0.19404 0.75091 0.0
C744 C 0.91915 0.14141 0.73585 0.0
C745 C 0.92874 0.1318 0.69893 0.0
N746 N 0.86796 0.17475 0.74486 0.0
N747 N 0.90748 0.15011 0.7045 0.0
H748 H 0.87996 0.40907 0.93424 0.0
H749 H 0.85004 0.31215 0.02124 0.0
H750 H 0.92712 0.41879 0.98567 0.0
H751 H 0.79572 0.312 0.97239 0.0
H752 H 0.88351 0.34533 0.00669 0.0
H753 H 0.85338 0.36833 0.94653 0.0
C754 C 0.88469 0.40269 0.94815 0.0
C755 C 0.90556 0.41765 0.95901 0.0
C756 C 0.86443 0.33774 0.9991 0.0
C757 C 0.87544 0.37067 0.97311 0.0
C758 C 0.8454 0.31865 0.00735 0.0
C759 C 0.81986 0.30953 0.9981 0.0
C760 C 0.85788 0.34767 0.98147 0.0
C761 C 0.81498 0.31871 0.98013 0.0
C762 C 0.86964 0.37927 0.95511 0.0
C763 C 0.9113 0.40787 0.97677 0.0
N764 N 0.83366 0.33744 0.97248 0.0
N765 N 0.89618 0.38512 0.98331 0.0
H766 H 0.65121 0.42321 0.19739 0.0
H767 H 0.68951 0.30029 0.2677 0.0
H768 H 0.59675 0.40369 0.24279 0.0
H769 H 0.74918 0.33227 0.22819 0.0
H770 H 0.65742 0.34117 0.26127 0.0
H771 H 0.68916 0.39336 0.21061 0.0
C772 C 0.64733 0.41311 0.21032 0.0
C773 C 0.62051 0.41594 0.21889 0.0
C774 C 0.67778 0.33949 0.25425 0.0
C775 C 0.66394 0.38082 0.23392 0.0
C776 C 0.69618 0.3162 0.25796 0.0
C777 C 0.72186 0.31253 0.24823 0.0
C778 C 0.68505 0.35908 0.24064 0.0
C779 C 0.7294 0.33391 0.23582 0.0
C780 C 0.66906 0.39584 0.21783 0.0
C781 C 0.61678 0.40168 0.23546 0.0
N782 N 0.71089 0.35598 0.23219 0.0
N783 N 0.63811 0.38446 0.24232 0.0
H784 H 0.14512 0.95807 0.42191 0.0
H785 H 0.21986 0.80315 0.43545 0.0
H786 H 0.14834 0.89279 0.37868 0.0
H787 H 0.20665 0.86671 0.47882 0.0
H788 H 0.19533 0.83557 0.41398 0.0
H789 H 0.16997 0.92506 0.44239 0.0
C790 C 0.15134 0.93685 0.41666 0.0
C791 C 0.1448 0.92827 0.3985 0.0
C792 C 0.19779 0.8423 0.42821 0.0
C793 C 0.17293 0.88997 0.42207 0.0
C794 C 0.21176 0.82382 0.44048 0.0
C795 C 0.21536 0.8322 0.45898 0.0
C796 C 0.1875 0.86935 0.43451 0.0
C797 C 0.20443 0.85926 0.46471 0.0
C798 C 0.16533 0.91787 0.42843 0.0
C799 C 0.15282 0.90022 0.39261 0.0
N800 N 0.19111 0.87682 0.45253 0.0
N801 N 0.16653 0.88205 0.40436 0.0
H802 H 0.062 0.61961 0.68308 0.0
H803 H 0.21576 0.69939 0.69506 0.0
H804 H 0.11986 0.63337 0.63856 0.0
H805 H 0.16091 0.6795 0.74018 0.0
H806 H 0.18063 0.67582 0.6741 0.0
H807 H 0.09754 0.64244 0.70415 0.0
C808 C 0.08213 0.62758 0.67773 0.0
C809 C 0.08798 0.62463 0.65904 0.0
C810 C 0.17631 0.67655 0.68859 0.0
C811 C 0.12887 0.65053 0.68308 0.0
C812 C 0.19637 0.69001 0.70058 0.0
C813 C 0.19129 0.69146 0.71943 0.0
C814 C 0.1509 0.66452 0.69546 0.0
C815 C 0.16577 0.6789 0.72577 0.0
C816 C 0.1025 0.64044 0.68978 0.0
C817 C 0.11461 0.63493 0.6529 0.0
N818 N 0.1465 0.66603 0.71381 0.0
N819 N 0.13404 0.64749 0.66488 0.0
H820 H 0.44191 0.60612 0.89203 0.0
H821 H 0.3397 0.63438 0.97637 0.0
H822 H 0.39633 0.53672 0.91763 0.0
H823 H 0.34956 0.69777 0.93443 0.0
H824 H 0.36692 0.59947 0.95783 0.0
H825 H 0.41446 0.64152 0.91033 0.0
C826 C 0.42618 0.59843 0.90157 0.0
C827 C 0.42126 0.56861 0.90341 0.0
C828 C 0.36307 0.62102 0.95271 0.0
C829 C 0.39024 0.60864 0.92437 0.0
C830 C 0.3477 0.64099 0.96329 0.0
C831 C 0.34236 0.669 0.9569 0.0
C832 C 0.37367 0.62929 0.93579 0.0
C833 C 0.3531 0.67635 0.93982 0.0
C834 C 0.41048 0.61854 0.91189 0.0
C835 C 0.40057 0.55959 0.91582 0.0
N836 N 0.36847 0.65666 0.92988 0.0
N837 N 0.38594 0.57955 0.92597 0.0
H838 H 0.41733 0.88432 0.14143 0.0
H839 H 0.34947 0.88491 0.24117 0.0
H840 H 0.43455 0.95075 0.18295 0.0
H841 H 0.34656 0.80998 0.20456 0.0
H842 H 0.37657 0.91121 0.21858 0.0
H843 H 0.38782 0.85836 0.16314 0.0
C844 C 0.41502 0.89344 0.1551 0.0
C845 C 0.42851 0.91985 0.16031 0.0
C846 C 0.36997 0.88903 0.21545 0.0
C847 C 0.39437 0.89039 0.18514 0.0
C848 C 0.3544 0.874 0.22834 0.0
C849 C 0.3458 0.84513 0.2248 0.0
C850 C 0.37694 0.87521 0.19881 0.0
C851 C 0.35284 0.83217 0.2079 0.0
C852 C 0.39804 0.87865 0.16745 0.0
C853 C 0.42425 0.93077 0.17815 0.0
N854 N 0.36802 0.8473 0.19553 0.0
N855 N 0.40759 0.91603 0.18988 0.0
H856 H 0.04782 0.67179 0.87251 0.0
H857 H 0.19504 0.67402 0.8167 0.0
H858 H 0.10863 0.60072 0.8706 0.0
H859 H 0.12701 0.7373 0.80983 0.0
H860 H 0.16615 0.65004 0.83945 0.0
H861 H 0.07891 0.69895 0.85233 0.0
C862 C 0.06768 0.66186 0.86788 0.0
C863 C 0.07547 0.63379 0.87324 0.0
C864 C 0.15756 0.66923 0.83302 0.0
C865 C 0.11136 0.665 0.85029 0.0
C866 C 0.17408 0.683 0.82004 0.0
C867 C 0.16337 0.70764 0.81123 0.0
C868 C 0.13012 0.68018 0.83733 0.0
C869 C 0.13608 0.71828 0.81619 0.0
C870 C 0.08548 0.67746 0.85641 0.0
C871 C 0.10181 0.62237 0.86707 0.0
N872 N 0.12035 0.70444 0.82887 0.0
N873 N 0.11871 0.63796 0.8559 0.0
H874 H 0.43642 0.60645 0.11209 0.0
H875 H 0.30254 0.60379 0.04102 0.0
H876 H 0.37626 0.53462 0.10666 0.0
H877 H 0.35331 0.68053 0.05455 0.0
H878 H 0.32915 0.57781 0.06485 0.0
H879 H 0.40608 0.63378 0.09098 0.0
C880 C 0.41666 0.5965 0.10664 0.0
C881 C 0.40897 0.5681 0.1112 0.0
C882 C 0.3343 0.60039 0.06268 0.0
C883 C 0.37432 0.59921 0.08664 0.0
C884 C 0.31913 0.61524 0.04907 0.0
C885 C 0.32579 0.64435 0.04571 0.0
C886 C 0.35643 0.6147 0.0729 0.0
C887 C 0.34747 0.65808 0.0566 0.0
C888 C 0.39941 0.6121 0.09448 0.0
C889 C 0.38335 0.55623 0.10335 0.0
N890 N 0.36213 0.64309 0.0696 0.0
N891 N 0.36703 0.57178 0.09139 0.0
H892 H 0.42482 0.87461 0.38777 0.0
H893 H 0.37864 0.82399 0.28576 0.0
H894 H 0.46871 0.90139 0.33948 0.0
H895 H 0.33899 0.79 0.33373 0.0
H896 H 0.41175 0.85247 0.30546 0.0
H897 H 0.39265 0.84387 0.36843 0.0
C898 C 0.42763 0.87407 0.3731 0.0
C899 C 0.44953 0.89051 0.36522 0.0
C900 C 0.39591 0.8387 0.31171 0.0
C901 C 0.41299 0.85536 0.34306 0.0
C902 C 0.37697 0.82238 0.30045 0.0
C903 C 0.35594 0.80458 0.30809 0.0
C904 C 0.39378 0.8374 0.33079 0.0
C905 C 0.35487 0.80341 0.32724 0.0
C906 C 0.4094 0.85641 0.36209 0.0
C907 C 0.4524 0.88877 0.34617 0.0
N908 N 0.37344 0.81972 0.33794 0.0
N909 N 0.43432 0.87159 0.33576 0.0
H910 H 0.1852 0.92111 0.6461 0.0
H911 H 0.21474 0.8814 0.54095 0.0
H912 H 0.13646 0.95511 0.60042 0.0
H913 H 0.2513 0.83241 0.58543 0.0
H914 H 0.19148 0.91348 0.56307 0.0
H915 H 0.21494 0.89306 0.62451 0.0
C916 C 0.18094 0.9228 0.63154 0.0
C917 C 0.15817 0.94013 0.625 0.0
C918 C 0.20468 0.89579 0.56803 0.0
C919 C 0.19196 0.90844 0.60037 0.0
C920 C 0.21806 0.87747 0.55539 0.0
C921 C 0.2348 0.85398 0.56133 0.0
C922 C 0.20804 0.89072 0.58681 0.0
C923 C 0.23843 0.85014 0.58024 0.0
C924 C 0.19778 0.90675 0.61926 0.0
C925 C 0.15348 0.9416 0.60604 0.0
N926 N 0.22501 0.86825 0.59233 0.0
N927 N 0.17017 0.92595 0.59442 0.0
H928 H 0.55357 0.3428 0.90281 0.0
H929 H 0.70429 0.32029 0.95671 0.0
H930 H 0.63212 0.38976 0.89199 0.0
H931 H 0.62493 0.27712 0.97072 0.0
H932 H 0.67918 0.34166 0.9307 0.0
H933 H 0.58042 0.31403 0.92519 0.0
C934 C 0.57657 0.34673 0.90492 0.0
C935 C 0.5906 0.36887 0.89563 0.0
C936 C 0.66724 0.32741 0.93939 0.0
C937 C 0.62133 0.33634 0.92138 0.0
C938 C 0.68158 0.31518 0.95428 0.0
C939 C 0.66663 0.29707 0.96604 0.0
C940 C 0.63765 0.32161 0.93618 0.0
C941 C 0.63727 0.29109 0.96208 0.0
C942 C 0.59183 0.33045 0.9178 0.0
C943 C 0.62036 0.37323 0.89906 0.0
N944 N 0.62368 0.30349 0.94754 0.0
N945 N 0.63466 0.35725 0.91172 0.0
H946 H 0.60039 0.08206 0.18015 0.0
H947 H 0.7418 0.18262 0.18714 0.0
H948 H 0.65607 0.0961 0.13457 0.0
H949 H 0.69091 0.15967 0.23349 0.0
H950 H 0.71124 0.15077 0.16761 0.0
H951 H 0.63357 0.11064 0.19982 0.0
C952 C 0.61957 0.0913 0.17427 0.0
C953 C 0.62539 0.08689 0.15568 0.0
C954 C 0.7069 0.15259 0.18208 0.0
C955 C 0.66366 0.11945 0.17816 0.0
C956 C 0.72434 0.17077 0.19324 0.0
C957 C 0.71884 0.17395 0.21198 0.0
C958 C 0.68371 0.13763 0.18969 0.0
C959 C 0.69593 0.15799 0.21913 0.0
C960 C 0.63862 0.10744 0.18553 0.0
C961 C 0.65085 0.09887 0.14886 0.0
N962 N 0.67913 0.14068 0.20796 0.0
N963 N 0.669 0.11476 0.16009 0.0
H964 H 0.94496 0.13425 0.39309 0.0
H965 H 0.94381 0.20335 0.49454 0.0
H966 H 0.01375 0.12236 0.4332 0.0
H967 H 0.86907 0.20133 0.45792 0.0
H968 H 0.97213 0.17936 0.47076 0.0
H969 H 0.91906 0.16406 0.41539 0.0
C970 C 0.95462 0.13785 0.40659 0.0
C971 C 0.98151 0.12554 0.4113 0.0
C972 C 0.94957 0.18433 0.4679 0.0
C973 C 0.95211 0.16004 0.43682 0.0
C974 C 0.93341 0.19812 0.48145 0.0
C975 C 0.90395 0.20418 0.47827 0.0
C976 C 0.93623 0.17664 0.45102 0.0
C977 C 0.89165 0.19691 0.46102 0.0
C978 C 0.93988 0.15502 0.41928 0.0
C979 C 0.99323 0.13157 0.42888 0.0
N980 N 0.90782 0.18342 0.44808 0.0
N981 N 0.97841 0.14828 0.44101 0.0
H982 H 0.88899 0.49772 0.67118 0.0
H983 H 0.82792 0.34025 0.69216 0.0
H984 H 0.88259 0.42897 0.63005 0.0
H985 H 0.81632 0.41528 0.72772 0.0
H986 H 0.84879 0.37174 0.66936 0.0
H987 H 0.86298 0.46742 0.69211 0.0
C988 C 0.88179 0.47642 0.6664 0.0
C989 C 0.88804 0.46603 0.6487 0.0
C990 C 0.84148 0.38131 0.6821 0.0
C991 C 0.85871 0.43075 0.67298 0.0
C992 C 0.82961 0.36335 0.69514 0.0
C993 C 0.82046 0.37512 0.71193 0.0
C994 C 0.8445 0.4112 0.68594 0.0
C995 C 0.82311 0.40522 0.715 0.0
C996 C 0.86707 0.459 0.67847 0.0
C997 C 0.8787 0.43783 0.64361 0.0
N998 N 0.83506 0.42215 0.70221 0.0
N999 N 0.86466 0.42112 0.65571 0.0
H1000 H 0.63432 0.11739 0.37812 0.0
H1001 H 0.64219 0.17212 0.27545 0.0
H1002 H 0.59007 0.07492 0.33227 0.0
H1003 H 0.70867 0.19237 0.31629 0.0
H1004 H 0.61729 0.1428 0.29765 0.0
H1005 H 0.65647 0.15123 0.35699 0.0
C1006 C 0.62913 0.11537 0.36363 0.0
C1007 C 0.6105 0.09328 0.35688 0.0
C1008 C 0.63726 0.15377 0.30177 0.0
C1009 C 0.63547 0.13184 0.33277 0.0
C1010 C 0.65144 0.17064 0.28914 0.0
C1011 C 0.67767 0.18461 0.29398 0.0
C1012 C 0.64918 0.15106 0.31947 0.0
C1013 C 0.6886 0.18183 0.31194 0.0
C1014 C 0.64184 0.13454 0.35161 0.0
C1015 C 0.60457 0.09145 0.33799 0.0
N1016 N 0.6743 0.16535 0.32404 0.0
N1017 N 0.61695 0.11051 0.32661 0.0
H1018 H 0.94679 0.13748 0.64136 0.0
H1019 H 0.89359 0.17371 0.53971 0.0
H1020 H 0.981 0.09629 0.59288 0.0
H1021 H 0.84677 0.20078 0.58763 0.0
H1022 H 0.92801 0.14818 0.55923 0.0
H1023 H 0.91232 0.16408 0.6221 0.0
C1024 C 0.94715 0.1342 0.62666 0.0
C1025 C 0.96674 0.11466 0.61868 0.0
C1026 C 0.91018 0.15964 0.56549 0.0
C1027 C 0.92739 0.14482 0.59664 0.0
C1028 C 0.8905 0.17429 0.55435 0.0
C1029 C 0.86718 0.1894 0.56204 0.0
C1030 C 0.90673 0.16022 0.5845 0.0
C1031 C 0.86436 0.18933 0.58111 0.0
C1032 C 0.92737 0.14921 0.6157 0.0
C1033 C 0.96607 0.11093 0.59959 0.0
N1034 N 0.88397 0.17502 0.59171 0.0
N1035 N 0.94677 0.12592 0.58922 0.0
H1036 H 0.89946 0.40469 0.88021 0.0
H1037 H 0.84661 0.3708 0.77688 0.0
H1038 H 0.91009 0.46439 0.83628 0.0
H1039 H 0.82901 0.31485 0.82187 0.0
H1040 H 0.87153 0.40456 0.7982 0.0
H1041 H 0.87519 0.37063 0.85877 0.0
C1042 C 0.89679 0.41057 0.86603 0.0
C1043 C 0.90682 0.4374 0.86001 0.0
C1044 C 0.86222 0.38489 0.8034 0.0
C1045 C 0.87891 0.39862 0.83541 0.0
C1046 C 0.84804 0.36556 0.79123 0.0
C1047 C 0.83568 0.33993 0.79759 0.0
C1048 C 0.86417 0.37853 0.82206 0.0
C1049 C 0.83816 0.33434 0.81634 0.0
C1050 C 0.8828 0.39119 0.85381 0.0
C1051 C 0.90241 0.44407 0.84154 0.0
N1052 N 0.85213 0.35347 0.8279 0.0
N1053 N 0.88884 0.42478 0.82988 0.0
H1054 H 0.63558 0.38659 0.13893 0.0
H1055 H 0.67973 0.34737 0.03628 0.0
H1056 H 0.60188 0.43117 0.09183 0.0
H1057 H 0.72515 0.31411 0.08357 0.0
H1058 H 0.65031 0.37747 0.05649 0.0
H1059 H 0.66785 0.35888 0.11896 0.0
C1060 C 0.63501 0.39055 0.12439 0.0
C1061 C 0.61603 0.4112 0.11702 0.0
C1062 C 0.6668 0.3637 0.06245 0.0
C1063 C 0.65281 0.37962 0.09412 0.0
C1064 C 0.6836 0.34645 0.05091 0.0
C1065 C 0.70492 0.32811 0.05823 0.0
C1066 C 0.67115 0.36247 0.08148 0.0
C1067 C 0.70898 0.32792 0.07731 0.0
C1068 C 0.65351 0.37485 0.11302 0.0
C1069 C 0.61639 0.41569 0.09812 0.0
N1070 N 0.69213 0.34471 0.08829 0.0
N1071 N 0.63434 0.39992 0.08732 0.0
loop_
_geom_bond_atom_site_label_1
_geom_bond_atom_site_label_2
_geom_bond_distance
_geom_bond_site_symmetry_2
_ccdc_geom_bond_type
H0 C19 0.949 . S
H1 C20 0.950 1_455 S
H2 C22 0.950 . S
H3 C23 0.950 . S
H4 C25 0.950 . S
H5 C28 0.950 . S
H6 C29 0.950 . S
H7 C31 0.951 . S
H8 C32 0.949 . S
H9 C34 0.949 . S
H10 C35 0.950 . S
H11 C37 0.950 . S
H12 C38 0.950 . S
H13 C40 0.945 1_565 S
H14 C43 0.950 . S
H15 C44 0.950 . S
H16 C46 0.951 . S
H17 C47 0.949 1_545 S
C18 C19 1.376 . S
C18 C23 1.386 1_455 S
C18 C24 1.483 . S
C19 H0 0.949 . S
C19 C18 1.376 . S
C19 C20 1.397 1_455 S
C20 H1 0.950 1_655 S
C20 C19 1.397 1_655 S
C20 C21 1.391 . S
C21 C20 1.391 . S
C21 C22 1.405 . S
C22 H2 0.950 . S
C22 C21 1.405 . S
C22 C23 1.367 . S
C23 H3 0.950 . S
C23 C18 1.386 1_655 S
C23 C22 1.367 . S
C24 C18 1.483 . S
C24 C25 1.382 . S
C24 C26 1.403 . S
C25 H4 0.950 . S
C25 C24 1.382 . S
C25 C41 1.411 1_545 S
C26 C24 1.403 . S
C26 C27 1.489 . S
C26 C40 1.411 . S
C27 C26 1.489 . S
C27 C28 1.383 . S
C27 C32 1.382 1_455 S
C28 H5 0.950 . S
C28 C27 1.383 . S
C28 C29 1.395 1_455 S
C29 H6 0.950 . S
C29 C28 1.395 1_655 S
C29 C30 1.288 . S
C30 C29 1.288 . S
C30 C31 1.392 . S
C31 H7 0.951 . S
C31 C30 1.392 . S
C31 C32 1.392 . S
C32 H8 0.949 . S
C32 C27 1.382 1_655 S
C32 C31 1.392 . S
C33 C34 1.376 . S
C33 C38 1.386 . S
C33 C39 1.483 . S
C34 H9 0.949 . S
C34 C33 1.376 . S
C34 C35 1.397 . S
C35 H10 0.950 . S
C35 C34 1.397 . S
C35 C36 1.391 . S
C36 C35 1.391 . S
C36 C37 1.405 . S
C37 H11 0.950 . S
C37 C36 1.405 . S
C37 C38 1.367 . S
C38 H12 0.950 . S
C38 C33 1.386 . S
C38 C37 1.367 . S
C39 C33 1.483 . S
C39 C40 1.382 1_565 S
C39 C41 1.403 . S
C40 H13 0.945 1_545 S
C40 C26 1.411 . S
C40 C39 1.382 1_545 S
C41 C25 1.411 1_565 S
C41 C39 1.403 . S
C41 C42 1.489 . S
C42 C41 1.489 . S
C42 C43 1.383 . S
C42 C47 1.382 . S
C43 H14 0.950 . S
C43 C42 1.383 . S
C43 C44 1.395 . S
C44 H15 0.950 . S
C44 C43 1.395 . S
C44 C45 1.288 . S
C45 C44 1.288 . S
C45 C46 1.392 . S
C46 H16 0.951 . S
C46 C45 1.392 . S
C46 C47 1.392 . S
C47 H17 0.949 1_565 S
C47 C42 1.382 . S
C47 C46 1.392 . S
H48 C67 0.949 1_455 S
H49 C68 0.950 . S
H50 C70 0.950 . S
H51 C71 0.950 . S
H52 C73 0.950 . S
H53 C76 0.950 . S
H54 C77 0.950 . S
H55 C79 0.951 . S
H56 C80 0.949 . S
H57 C82 0.949 . S
H58 C83 0.950 . S
H59 C85 0.950 . S
H60 C86 0.950 . S
H61 C88 0.950 . S
H62 C91 0.950 . S
H63 C92 0.950 . S
H64 C94 0.951 . S
H65 C95 0.949 . S
C66 C67 1.376 . S
C66 C71 1.386 . S
C66 C72 1.483 . S
C67 H48 0.949 1_655 S
C67 C66 1.376 . S
C67 C68 1.397 . S
C68 H49 0.950 . S
C68 C67 1.397 . S
C68 C69 1.391 . S
C69 C68 1.391 . S
C69 C70 1.405 . S
C70 H50 0.950 . S
C70 C69 1.405 . S
C70 C71 1.367 . S
C71 H51 0.950 . S
C71 C66 1.386 . S
C71 C70 1.367 . S
C72 C66 1.483 . S
C72 C73 1.382 1_655 S
C72 C74 1.403 . S
C73 H52 0.950 . S
C73 C72 1.382 1_455 S
C73 C89 1.411 . S
C74 C72 1.403 . S
C74 C75 1.489 . S
C74 C88 1.411 1_655 S
C75 C74 1.489 . S
C75 C76 1.383 . S
C75 C80 1.382 . S
C76 H53 0.950 . S
C76 C75 1.383 . S
C76 C77 1.395 . S
C77 H54 0.950 . S
C77 C76 1.395 . S
C77 C78 1.288 . S
C78 C77 1.288 . S
C78 C79 1.392 . S
C79 H55 0.951 . S
C79 C78 1.392 . S
C79 C80 1.392 . S
C80 H56 0.949 . S
C80 C75 1.382 . S
C80 C79 1.392 . S
C81 C82 1.376 . S
C81 C86 1.386 . S
C81 C87 1.483 . S
C82 H57 0.949 . S
C82 C81 1.376 . S
C82 C83 1.397 . S
C83 H58 0.950 . S
C83 C82 1.397 . S
C83 C84 1.391 . S
C84 C83 1.391 . S
C84 C85 1.405 . S
C85 H59 0.950 . S
C85 C84 1.405 . S
C85 C86 1.367 . S
C86 H60 0.950 . S
C86 C81 1.386 . S
C86 C85 1.367 . S
C87 C81 1.483 . S
C87 C88 1.382 . S
C87 C89 1.403 . S
C88 H61 0.950 . S
C88 C74 1.411 1_455 S
C88 C87 1.382 . S
C89 C73 1.411 . S
C89 C87 1.403 . S
C89 C90 1.489 . S
C90 C89 1.489 . S
C90 C91 1.383 . S
C90 C95 1.382 . S
C91 H62 0.950 . S
C91 C90 1.383 . S
C91 C92 1.395 . S
C92 H63 0.950 . S
C92 C91 1.395 . S
C92 C93 1.288 . S
C93 C92 1.288 . S
C93 C94 1.392 . S
C94 H64 0.951 . S
C94 C93 1.392 . S
C94 C95 1.392 . S
C95 H65 0.949 . S
C95 C90 1.382 . S
C95 C94 1.392 . S
H96 C115 0.949 . S
H97 C116 0.950 . S
H98 C118 0.950 . S
H99 C119 0.950 . S
H100 C121 0.950 . S
H101 C124 0.950 . S
H102 C125 0.950 . S
H103 C127 0.951 . S
H104 C128 0.949 . S
H105 C130 0.949 . S
H106 C131 0.950 . S
H107 C133 0.950 . S
H108 C134 0.950 . S
H109 C136 0.950 . S
H110 C139 0.950 . S
H111 C140 0.950 . S
H112 C142 0.951 . S
H113 C143 0.949 . S
C114 C115 1.376 . S
C114 C119 1.386 . S
C114 C120 1.483 . S
C115 H96 0.949 . S
C115 C114 1.376 . S
C115 C116 1.397 . S
C116 H97 0.950 . S
C116 C115 1.397 . S
C116 C117 1.391 . S
C117 C116 1.391 . S
C117 C118 1.405 . S
C118 H98 0.950 . S
C118 C117 1.405 . S
C118 C119 1.367 . S
C119 H99 0.950 . S
C119 C114 1.386 . S
C119 C118 1.367 . S
C120 C114 1.483 . S
C120 C121 1.382 . S
C120 C122 1.403 . S
C121 H100 0.950 . S
C121 C120 1.382 . S
C121 C137 1.411 . S
C122 C120 1.403 . S
C122 C123 1.489 . S
C122 C136 1.411 . S
C123 C122 1.489 . S
C123 C124 1.383 . S
C123 C128 1.382 . S
C124 H101 0.950 . S
C124 C123 1.383 . S
C124 C125 1.395 . S
C125 H102 0.950 . S
C125 C124 1.395 . S
C125 C126 1.288 . S
C126 C125 1.288 . S
C126 C127 1.392 . S
C127 H103 0.951 . S
C127 C126 1.392 . S
C127 C128 1.392 . S
C128 H104 0.949 . S
C128 C123 1.382 . S
C128 C127 1.392 . S
C129 C130 1.376 . S
C129 C134 1.386 . S
C129 C135 1.483 . S
C130 H105 0.949 . S
C130 C129 1.376 . S
C130 C131 1.397 . S
C131 H106 0.950 . S
C131 C130 1.397 . S
C131 C132 1.391 . S
C132 C131 1.391 . S
C132 C133 1.405 . S
C133 H107 0.950 . S
C133 C132 1.405 . S
C133 C134 1.367 . S
C134 H108 0.950 . S
C134 C129 1.386 . S
C134 C133 1.367 . S
C135 C129 1.483 . S
C135 C136 1.382 . S
C135 C137 1.403 . S
C136 H109 0.950 . S
C136 C122 1.411 . S
C136 C135 1.382 . S
C137 C121 1.411 . S
C137 C135 1.403 . S
C137 C138 1.489 . S
C138 C137 1.489 . S
C138 C139 1.383 . S
C138 C143 1.382 . S
C139 H110 0.950 . S
C139 C138 1.383 . S
C139 C140 1.395 . S
C140 H111 0.950 . S
C140 C139 1.395 . S
C140 C141 1.288 . S
C141 C140 1.288 . S
C141 C142 1.392 . S
C142 H112 0.951 . S
C142 C141 1.392 . S
C142 C143 1.392 . S
C143 H113 0.949 . S
C143 C138 1.382 . S
C143 C142 1.392 . S
H144 C163 0.949 . S
H145 C164 0.950 . S
H146 C166 0.950 . S
H147 C167 0.950 . S
H148 C169 0.950 . S
H149 C172 0.950 . S
H150 C173 0.950 . S
H151 C175 0.951 . S
H152 C176 0.949 . S
H153 C178 0.949 . S
H154 C179 0.950 . S
H155 C181 0.950 . S
H156 C182 0.950 . S
H157 C184 0.950 . S
H158 C187 0.950 . S
H159 C188 0.950 . S
H160 C190 0.951 . S
H161 C191 0.949 . S
C162 C163 1.376 . S
C162 C167 1.386 . S
C162 C168 1.483 . S
C163 H144 0.949 . S
C163 C162 1.376 . S
C163 C164 1.397 . S
C164 H145 0.950 . S
C164 C163 1.397 . S
C164 C165 1.391 . S
C165 C164 1.391 . S
C165 C166 1.405 . S
C166 H146 0.950 . S
C166 C165 1.405 . S
C166 C167 1.367 . S
C167 H147 0.950 . S
C167 C162 1.386 . S
C167 C166 1.367 . S
C168 C162 1.483 . S
C168 C169 1.382 . S
C168 C170 1.403 . S
C169 H148 0.950 . S
C169 C168 1.382 . S
C169 C185 1.411 1_565 S
C170 C168 1.403 . S
C170 C171 1.489 . S
C170 C184 1.411 1_565 S
C171 C170 1.489 . S
C171 C172 1.383 . S
C171 C176 1.382 . S
C172 H149 0.950 . S
C172 C171 1.383 . S
C172 C173 1.395 . S
C173 H150 0.950 . S
C173 C172 1.395 . S
C173 C174 1.288 . S
C174 C173 1.288 . S
C174 C175 1.392 . S
C175 H151 0.951 . S
C175 C174 1.392 . S
C175 C176 1.392 . S
C176 H152 0.949 . S
C176 C171 1.382 . S
C176 C175 1.392 . S
C177 C178 1.376 . S
C177 C182 1.386 . S
C177 C183 1.483 . S
C178 H153 0.949 . S
C178 C177 1.376 . S
C178 C179 1.397 . S
C179 H154 0.950 . S
C179 C178 1.397 . S
C179 C180 1.391 . S
C180 C179 1.391 . S
C180 C181 1.405 . S
C181 H155 0.950 . S
C181 C180 1.405 . S
C181 C182 1.367 . S
C182 H156 0.950 . S
C182 C177 1.386 . S
C182 C181 1.367 . S
C183 C177 1.483 . S
C183 C184 1.382 . S
C183 C185 1.403 . S
C184 H157 0.950 . S
C184 C170 1.411 1_545 S
C184 C183 1.382 . S
C185 C169 1.411 1_545 S
C185 C183 1.403 . S
C185 C186 1.489 . S
C186 C185 1.489 . S
C186 C187 1.383 . S
C186 C191 1.382 . S
C187 H158 0.950 . S
C187 C186 1.383 . S
C187 C188 1.395 . S
C188 H159 0.950 . S
C188 C187 1.395 . S
C188 C189 1.288 . S
C189 C188 1.288 . S
C189 C190 1.392 . S
C190 H160 0.951 . S
C190 C189 1.392 . S
C190 C191 1.392 . S
C191 H161 0.949 . S
C191 C186 1.382 . S
C191 C190 1.392 . S
H192 C211 0.949 . S
H193 C212 0.950 . S
H194 C214 0.950 . S
H195 C215 0.950 . S
H196 C217 0.950 . S
H197 C220 0.950 . S
H198 C221 0.950 . S
H199 C223 0.951 . S
H200 C224 0.949 . S
H201 C226 0.949 . S
H202 C227 0.950 . S
H203 C229 0.950 . S
H204 C230 0.950 . S
H205 C232 0.950 . S
H206 C235 0.950 . S
H207 C236 0.950 . S
H208 C238 0.951 . S
H209 C239 0.949 . S
C210 C211 1.376 . S
C210 C215 1.386 . S
C210 C216 1.483 . S
C211 H192 0.949 . S
C211 C210 1.376 . S
C211 C212 1.397 . S
C212 H193 0.950 . S
C212 C211 1.397 . S
C212 C213 1.391 . S
C213 C212 1.391 . S
C213 C214 1.405 . S
C214 H194 0.950 . S
C214 C213 1.405 . S
C214 C215 1.367 . S
C215 H195 0.950 . S
C215 C210 1.386 . S
C215 C214 1.367 . S
C216 C210 1.483 . S
C216 C217 1.382 1_455 S
C216 C218 1.403 . S
C217 H196 0.950 . S
C217 C216 1.382 1_655 S
C217 C233 1.411 . S
C218 C216 1.403 . S
C218 C219 1.489 . S
C218 C232 1.411 . S
C219 C218 1.489 . S
C219 C220 1.383 . S
C219 C224 1.382 . S
C220 H197 0.950 . S
C220 C219 1.383 . S
C220 C221 1.395 . S
C221 H198 0.950 . S
C221 C220 1.395 . S
C221 C222 1.288 . S
C222 C221 1.288 . S
C222 C223 1.392 . S
C223 H199 0.951 . S
C223 C222 1.392 . S
C223 C224 1.392 . S
C224 H200 0.949 . S
C224 C219 1.382 . S
C224 C223 1.392 . S
C225 C226 1.376 . S
C225 C230 1.386 . S
C225 C231 1.483 . S
C226 H201 0.949 . S
C226 C225 1.376 . S
C226 C227 1.397 . S
C227 H202 0.950 . S
C227 C226 1.397 . S
C227 C228 1.391 . S
C228 C227 1.391 . S
C228 C229 1.405 . S
C229 H203 0.950 . S
C229 C228 1.405 . S
C229 C230 1.367 . S
C230 H204 0.950 . S
C230 C225 1.386 . S
C230 C229 1.367 . S
C231 C225 1.483 . S
C231 C232 1.382 1_655 S
C231 C233 1.403 . S
C232 H205 0.950 . S
C232 C218 1.411 . S
C232 C231 1.382 1_455 S
C233 C217 1.411 . S
C233 C231 1.403 . S
C233 C234 1.489 . S
C234 C233 1.489 . S
C234 C235 1.383 . S
C234 C239 1.382 . S
C235 H206 0.950 . S
C235 C234 1.383 . S
C235 C236 1.395 . S
C236 H207 0.950 . S
C236 C235 1.395 . S
C236 C237 1.288 . S
C237 C236 1.288 . S
C237 C238 1.392 . S
C238 H208 0.951 . S
C238 C237 1.392 . S
C238 C239 1.392 . S
C239 H209 0.949 . S
C239 C234 1.382 . S
C239 C238 1.392 . S
H240 C259 0.949 . S
H241 C260 0.950 . S
H242 C262 0.950 . S
H243 C263 0.950 . S
H244 C265 0.950 . S
H245 C268 0.950 . S
H246 C269 0.950 . S
H247 C271 0.951 . S
H248 C272 0.949 . S
H249 C274 0.949 . S
H250 C275 0.950 . S
H251 C277 0.950 . S
H252 C278 0.950 . S
H253 C280 0.950 . S
H254 C283 0.950 . S
H255 C284 0.950 . S
H256 C286 0.951 . S
H257 C287 0.949 . S
C258 C259 1.376 . S
C258 C263 1.386 . S
C258 C264 1.483 . S
C259 H240 0.949 . S
C259 C258 1.376 . S
C259 C260 1.397 . S
C260 H241 0.950 . S
C260 C259 1.397 . S
C260 C261 1.391 . S
C261 C260 1.391 . S
C261 C262 1.405 . S
C262 H242 0.950 . S
C262 C261 1.405 . S
C262 C263 1.367 . S
C263 H243 0.950 . S
C263 C258 1.386 . S
C263 C262 1.367 . S
C264 C258 1.483 . S
C264 C265 1.382 . S
C264 C266 1.403 . S
C265 H244 0.950 . S
C265 C264 1.382 . S
C265 C281 1.411 . S
C266 C264 1.403 . S
C266 C267 1.489 . S
C266 C280 1.411 . S
C267 C266 1.489 . S
C267 C268 1.383 . S
C267 C272 1.382 . S
C268 H245 0.950 . S
C268 C267 1.383 . S
C268 C269 1.395 . S
C269 H246 0.950 . S
C269 C268 1.395 . S
C269 C270 1.288 . S
C270 C269 1.288 . S
C270 C271 1.392 . S
C271 H247 0.951 . S
C271 C270 1.392 . S
C271 C272 1.392 . S
C272 H248 0.949 . S
C272 C267 1.382 . S
C272 C271 1.392 . S
C273 C274 1.376 . S
C273 C278 1.386 . S
C273 C279 1.483 . S
C274 H249 0.949 . S
C274 C273 1.376 . S
C274 C275 1.397 . S
C275 H250 0.950 . S
C275 C274 1.397 . S
C275 C276 1.391 . S
C276 C275 1.391 . S
C276 C277 1.405 . S
C277 H251 0.950 . S
C277 C276 1.405 . S
C277 C278 1.367 . S
C278 H252 0.950 . S
C278 C273 1.386 . S
C278 C277 1.367 . S
C279 C273 1.483 . S
C279 C280 1.382 . S
C279 C281 1.403 . S
C280 H253 0.950 . S
C280 C266 1.411 . S
C280 C279 1.382 . S
C281 C265 1.411 . S
C281 C279 1.403 . S
C281 C282 1.489 . S
C282 C281 1.489 . S
C282 C283 1.383 . S
C282 C287 1.382 . S
C283 H254 0.950 . S
C283 C282 1.383 . S
C283 C284 1.395 . S
C284 H255 0.950 . S
C284 C283 1.395 . S
C284 C285 1.288 . S
C285 C284 1.288 . S
C285 C286 1.392 . S
C286 H256 0.951 . S
C286 C285 1.392 . S
C286 C287 1.392 . S
C287 H257 0.949 . S
C287 C282 1.382 . S
C287 C286 1.392 . S
H288 C307 0.949 . S
H289 C308 0.950 . S
H290 C310 0.950 . S
H291 C311 0.950 . S
H292 C313 0.950 . S
H293 C316 0.950 . S
H294 C317 0.950 . S
H295 C319 0.951 . S
H296 C320 0.949 1_545 S
H297 C322 0.949 . S
H298 C323 0.950 . S
H299 C325 0.950 . S
H300 C326 0.950 . S
H301 C328 0.950 . S
H302 C331 0.950 . S
H303 C332 0.950 . S
H304 C334 0.951 . S
H305 C335 0.949 1_565 S
C306 C307 1.376 . S
C306 C311 1.386 . S
C306 C312 1.483 . S
C307 H288 0.949 . S
C307 C306 1.376 . S
C307 C308 1.397 . S
C308 H289 0.950 . S
C308 C307 1.397 . S
C308 C309 1.391 . S
C309 C308 1.391 . S
C309 C310 1.405 . S
C310 H290 0.950 . S
C310 C309 1.405 . S
C310 C311 1.367 . S
C311 H291 0.950 . S
C311 C306 1.386 . S
C311 C310 1.367 . S
C312 C306 1.483 . S
C312 C313 1.382 . S
C312 C314 1.403 . S
C313 H292 0.950 . S
C313 C312 1.382 . S
C313 C329 1.411 1_565 S
C314 C312 1.403 . S
C314 C315 1.489 . S
C314 C328 1.411 1_565 S
C315 C314 1.489 . S
C315 C316 1.383 . S
C315 C320 1.382 . S
C316 H293 0.950 . S
C316 C315 1.383 . S
C316 C317 1.395 . S
C317 H294 0.950 . S
C317 C316 1.395 . S
C317 C318 1.288 . S
C318 C317 1.288 . S
C318 C319 1.392 . S
C319 H295 0.951 . S
C319 C318 1.392 . S
C319 C320 1.392 . S
C320 H296 0.949 1_565 S
C320 C315 1.382 . S
C320 C319 1.392 . S
C321 C322 1.376 . S
C321 C326 1.386 . S
C321 C327 1.483 . S
C322 H297 0.949 . S
C322 C321 1.376 . S
C322 C323 1.397 . S
C323 H298 0.950 . S
C323 C322 1.397 . S
C323 C324 1.391 . S
C324 C323 1.391 . S
C324 C325 1.405 . S
C325 H299 0.950 . S
C325 C324 1.405 . S
C325 C326 1.367 . S
C326 H300 0.950 . S
C326 C321 1.386 . S
C326 C325 1.367 . S
C327 C321 1.483 . S
C327 C328 1.382 . S
C327 C329 1.403 . S
C328 H301 0.950 . S
C328 C314 1.411 1_545 S
C328 C327 1.382 . S
C329 C313 1.411 1_545 S
C329 C327 1.403 . S
C329 C330 1.489 . S
C330 C329 1.489 . S
C330 C331 1.383 . S
C330 C335 1.382 . S
C331 H302 0.950 . S
C331 C330 1.383 . S
C331 C332 1.395 . S
C332 H303 0.950 . S
C332 C331 1.395 . S
C332 C333 1.288 . S
C333 C332 1.288 . S
C333 C334 1.392 . S
C334 H304 0.951 . S
C334 C333 1.392 . S
C334 C335 1.392 . S
C335 H305 0.949 1_545 S
C335 C330 1.382 . S
C335 C334 1.392 . S
H336 C355 0.949 . S
H337 C356 0.950 1_455 S
H338 C358 0.950 . S
H339 C359 0.950 . S
H340 C361 0.950 . S
H341 C364 0.950 . S
H342 C365 0.950 . S
H343 C367 0.951 . S
H344 C368 0.949 . S
H345 C370 0.949 . S
H346 C371 0.950 . S
H347 C373 0.950 . S
H348 C374 0.950 1_545 S
H349 C376 0.950 . S
H350 C379 0.950 . S
H351 C380 0.950 . S
H352 C382 0.951 . S
H353 C383 0.949 . S
C354 C355 1.376 . S
C354 C359 1.386 1_455 S
C354 C360 1.483 . S
C355 H336 0.949 . S
C355 C354 1.376 . S
C355 C356 1.397 1_455 S
C356 H337 0.950 1_655 S
C356 C355 1.397 1_655 S
C356 C357 1.391 . S
C357 C356 1.391 . S
C357 C358 1.405 . S
C358 H338 0.950 . S
C358 C357 1.405 . S
C358 C359 1.367 . S
C359 H339 0.950 . S
C359 C354 1.386 1_655 S
C359 C358 1.367 . S
C360 C354 1.483 . S
C360 C361 1.382 . S
C360 C362 1.403 . S
C361 H340 0.950 . S
C361 C360 1.382 . S
C361 C377 1.411 . S
C362 C360 1.403 . S
C362 C363 1.489 . S
C362 C376 1.411 . S
C363 C362 1.489 . S
C363 C364 1.383 . S
C363 C368 1.382 1_455 S
C364 H341 0.950 . S
C364 C363 1.383 . S
C364 C365 1.395 1_455 S
C365 H342 0.950 . S
C365 C364 1.395 1_655 S
C365 C366 1.288 . S
C366 C365 1.288 . S
C366 C367 1.392 . S
C367 H343 0.951 . S
C367 C366 1.392 . S
C367 C368 1.392 . S
C368 H344 0.949 . S
C368 C363 1.382 1_655 S
C368 C367 1.392 . S
C369 C370 1.376 . S
C369 C374 1.386 . S
C369 C375 1.483 1_565 S
C370 H345 0.949 . S
C370 C369 1.376 . S
C370 C371 1.397 . S
C371 H346 0.950 . S
C371 C370 1.397 . S
C371 C372 1.391 . S
C372 C371 1.391 . S
C372 C373 1.405 . S
C373 H347 0.950 . S
C373 C372 1.405 . S
C373 C374 1.367 . S
C374 H348 0.950 1_565 S
C374 C369 1.386 . S
C374 C373 1.367 . S
C375 C369 1.483 1_545 S
C375 C376 1.382 . S
C375 C377 1.403 . S
C376 H349 0.950 . S
C376 C362 1.411 . S
C376 C375 1.382 . S
C377 C361 1.411 . S
C377 C375 1.403 . S
C377 C378 1.489 1_545 S
C378 C377 1.489 1_565 S
C378 C379 1.383 . S
C378 C383 1.382 1_565 S
C379 H350 0.950 . S
C379 C378 1.383 . S
C379 C380 1.395 . S
C380 H351 0.950 . S
C380 C379 1.395 . S
C380 C381 1.288 . S
C381 C380 1.288 . S
C381 C382 1.392 . S
C382 H352 0.951 . S
C382 C381 1.392 . S
C382 C383 1.392 1_565 S
C383 H353 0.949 . S
C383 C378 1.382 1_545 S
C383 C382 1.392 1_545 S
Zn384 O387 2.031 . S
Zn384 O389 2.049 . S
Zn384 O394 2.067 . S
Zn385 O386 1.962 . S
Zn385 O388 1.986 . S
Zn385 O390 1.996 . S
Zn385 O393 1.948 . S
O386 Zn385 1.962 . S
O386 C391 1.254 . S
O387 Zn384 2.031 . S
O387 C391 1.269 1_556 S
O388 Zn385 1.986 . S
O388 C395 1.262 . S
O389 Zn384 2.049 . S
O389 C397 1.260 1_556 S
O390 Zn385 1.996 . S
O390 C397 1.257 . S
C391 O386 1.254 . S
C391 O387 1.269 1_554 S
C392 O393 1.242 1_556 S
C392 O394 1.270 . S
O393 Zn385 1.948 . S
O393 C392 1.242 1_554 S
O394 Zn384 2.067 . S
O394 C392 1.270 . S
C395 O388 1.262 . S
C395 O396 1.232 . S
O396 C395 1.232 . S
C397 O389 1.260 1_554 S
C397 O390 1.257 . S
Zn398 O401 2.031 . S
Zn398 O403 2.049 . S
Zn398 O408 2.067 . S
Zn399 O400 1.962 . S
Zn399 O402 1.986 . S
Zn399 O404 1.996 . S
Zn399 O407 1.943 . S
O400 Zn399 1.962 . S
O400 C405 1.254 . S
O401 Zn398 2.031 . S
O401 C405 1.269 . S
O402 Zn399 1.986 . S
O402 C409 1.262 . S
O403 Zn398 2.049 . S
O403 C411 1.260 . S
O404 Zn399 1.996 . S
O404 C411 1.257 . S
C405 O400 1.254 . S
C405 O401 1.269 . S
C406 O407 1.249 . S
C406 O408 1.270 . S
O407 Zn399 1.943 . S
O407 C406 1.249 . S
O408 Zn398 2.067 . S
O408 C406 1.270 . S
C409 O402 1.262 . S
C409 O410 1.232 . S
O410 C409 1.232 . S
C411 O403 1.260 . S
C411 O404 1.257 . S
Zn412 O415 2.031 . S
Zn412 O417 2.049 . S
Zn412 O422 2.067 . S
Zn413 O414 1.962 . S
Zn413 O416 1.986 . S
Zn413 O418 1.996 . S
Zn413 O421 1.943 . S
O414 Zn413 1.962 . S
O414 C419 1.254 . S
O415 Zn412 2.031 . S
O415 C419 1.269 . S
O416 Zn413 1.986 . S
O416 C423 1.262 . S
O417 Zn412 2.049 . S
O417 C425 1.260 . S
O418 Zn413 1.996 . S
O418 C425 1.257 . S
C419 O414 1.254 . S
C419 O415 1.269 . S
C420 O421 1.249 . S
C420 O422 1.270 . S
O421 Zn413 1.943 . S
O421 C420 1.249 . S
O422 Zn412 2.067 . S
O422 C420 1.270 . S
C423 O416 1.262 . S
C423 O424 1.232 . S
O424 C423 1.232 . S
C425 O417 1.260 . S
C425 O418 1.257 . S
Zn426 O429 2.031 . S
Zn426 O431 2.049 . S
Zn426 O436 2.067 . S
Zn427 O428 1.962 . S
Zn427 O430 1.986 . S
Zn427 O432 1.996 . S
Zn427 O435 1.943 . S
O428 Zn427 1.962 . S
O428 C433 1.254 . S
O429 Zn426 2.031 . S
O429 C433 1.269 . S
O430 Zn427 1.986 . S
O430 C437 1.262 . S
O431 Zn426 2.049 . S
O431 C439 1.260 . S
O432 Zn427 1.996 . S
O432 C439 1.257 . S
C433 O428 1.254 . S
C433 O429 1.269 . S
C434 O435 1.249 . S
C434 O436 1.270 . S
O435 Zn427 1.943 . S
O435 C434 1.249 . S
O436 Zn426 2.067 . S
O436 C434 1.270 . S
C437 O430 1.262 . S
C437 O438 1.232 . S
O438 C437 1.232 . S
C439 O431 1.260 . S
C439 O432 1.257 . S
Zn440 O443 2.031 . S
Zn440 O445 2.049 . S
Zn440 O450 2.067 . S
Zn441 O442 1.962 . S
Zn441 O444 1.986 . S
Zn441 O446 1.996 . S
Zn441 O449 1.943 . S
O442 Zn441 1.962 . S
O442 C447 1.254 . S
O443 Zn440 2.031 . S
O443 C447 1.269 . S
O444 Zn441 1.986 . S
O444 C451 1.262 . S
O445 Zn440 2.049 . S
O445 C453 1.260 . S
O446 Zn441 1.996 . S
O446 C453 1.257 . S
C447 O442 1.254 . S
C447 O443 1.269 . S
C448 O449 1.249 . S
C448 O450 1.270 . S
O449 Zn441 1.943 . S
O449 C448 1.249 . S
O450 Zn440 2.067 . S
O450 C448 1.270 . S
C451 O444 1.262 . S
C451 O452 1.232 . S
O452 C451 1.232 . S
C453 O445 1.260 . S
C453 O446 1.257 . S
Zn454 O457 2.031 . S
Zn454 O459 2.049 . S
Zn454 O464 2.067 . S
Zn455 O456 1.962 . S
Zn455 O458 1.986 . S
Zn455 O460 1.996 . S
Zn455 O463 1.943 . S
O456 Zn455 1.962 . S
O456 C461 1.254 . S
O457 Zn454 2.031 . S
O457 C461 1.269 . S
O458 Zn455 1.986 . S
O458 C465 1.262 . S
O459 Zn454 2.049 . S
O459 C467 1.260 . S
O460 Zn455 1.996 . S
O460 C467 1.257 . S
C461 O456 1.254 . S
C461 O457 1.269 . S
C462 O463 1.249 . S
C462 O464 1.270 . S
O463 Zn455 1.943 . S
O463 C462 1.249 . S
O464 Zn454 2.067 . S
O464 C462 1.270 . S
C465 O458 1.262 . S
C465 O466 1.232 . S
O466 C465 1.232 . S
C467 O459 1.260 . S
C467 O460 1.257 . S
Zn468 O471 2.031 . S
Zn468 O473 2.049 . S
Zn468 O478 2.067 . S
Zn469 O470 1.962 . S
Zn469 O472 1.986 . S
Zn469 O474 1.996 . S
Zn469 O477 1.943 1_556 S
O470 Zn469 1.962 . S
O470 C475 1.254 1_556 S
O471 Zn468 2.031 . S
O471 C475 1.269 . S
O472 Zn469 1.986 . S
O472 C479 1.262 . S
O473 Zn468 2.049 . S
O473 C481 1.260 . S
O474 Zn469 1.996 . S
O474 C481 1.257 1_556 S
C475 O470 1.254 1_554 S
C475 O471 1.269 . S
C476 O477 1.249 . S
C476 O478 1.270 . S
O477 Zn469 1.943 1_554 S
O477 C476 1.249 . S
O478 Zn468 2.067 . S
O478 C476 1.270 . S
C479 O472 1.262 . S
C479 O480 1.232 . S
O480 C479 1.232 . S
C481 O473 1.260 . S
C481 O474 1.257 1_554 S
Zn482 O485 2.031 . S
Zn482 O487 2.049 . S
Zn482 O492 2.067 . S
Zn483 O484 1.962 . S
Zn483 O486 1.986 . S
Zn483 O488 1.996 . S
Zn483 O491 1.943 . S
O484 Zn483 1.962 . S
O484 C489 1.254 . S
O485 Zn482 2.031 . S
O485 C489 1.269 . S
O486 Zn483 1.986 . S
O486 C493 1.262 . S
O487 Zn482 2.049 . S
O487 C495 1.260 . S
O488 Zn483 1.996 . S
O488 C495 1.257 . S
C489 O484 1.254 . S
C489 O485 1.269 . S
C490 O491 1.249 . S
C490 O492 1.270 . S
O491 Zn483 1.943 . S
O491 C490 1.249 . S
O492 Zn482 2.067 . S
O492 C490 1.270 . S
C493 O486 1.262 . S
C493 O494 1.232 . S
O494 C493 1.232 . S
C495 O487 1.260 . S
C495 O488 1.257 . S
H496 C502 0.930 . S
H497 C506 0.930 . S
H498 C511 0.929 . S
H499 C509 0.929 . S
H500 C504 0.929 . S
H501 C510 0.929 . S
C502 H496 0.930 . S
C502 C503 1.367 . S
C502 C510 1.378 . S
C503 C502 1.367 . S
C503 C511 1.433 . S
C504 H500 0.929 . S
C504 C506 1.378 . S
C504 C508 1.350 . S
C505 C508 1.463 . S
C505 C510 1.350 . S
C505 N513 1.427 . S
C506 H497 0.930 . S
C506 C504 1.378 . S
C506 C507 1.367 . S
C507 C506 1.367 . S
C507 C509 1.433 . S
C508 C504 1.350 . S
C508 C505 1.463 . S
C508 N512 1.427 . S
C509 H499 0.929 . S
C509 C507 1.433 . S
C509 N512 1.384 . S
C510 H501 0.929 . S
C510 C502 1.378 . S
C510 C505 1.350 . S
C511 H498 0.929 . S
C511 C503 1.433 . S
C511 N513 1.384 . S
N512 C508 1.427 . S
N512 C509 1.384 . S
N513 C505 1.427 . S
N513 C511 1.384 . S
H514 C520 0.930 . S
H515 C524 0.930 . S
H516 C529 0.929 . S
H517 C527 0.929 . S
H518 C522 0.929 . S
H519 C528 0.929 . S
C520 H514 0.930 . S
C520 C521 1.367 . S
C520 C528 1.378 . S
C521 C520 1.367 . S
C521 C529 1.433 . S
C522 H518 0.929 . S
C522 C524 1.378 . S
C522 C526 1.350 . S
C523 C526 1.463 . S
C523 C528 1.350 . S
C523 N531 1.427 . S
C524 H515 0.930 . S
C524 C522 1.378 . S
C524 C525 1.367 . S
C525 C524 1.367 . S
C525 C527 1.433 . S
C526 C522 1.350 . S
C526 C523 1.463 . S
C526 N530 1.427 . S
C527 H517 0.929 . S
C527 C525 1.433 . S
C527 N530 1.384 . S
C528 H519 0.929 . S
C528 C520 1.378 . S
C528 C523 1.350 . S
C529 H516 0.929 . S
C529 C521 1.433 . S
C529 N531 1.384 . S
N530 C526 1.427 . S
N530 C527 1.384 . S
N531 C523 1.427 . S
N531 C529 1.384 . S
H532 C538 0.930 . S
H533 C542 0.930 . S
H534 C547 0.929 . S
H535 C545 0.929 . S
H536 C540 0.929 . S
H537 C546 0.929 . S
C538 H532 0.930 . S
C538 C539 1.367 . S
C538 C546 1.378 . S
C539 C538 1.367 . S
C539 C547 1.433 . S
C540 H536 0.929 . S
C540 C542 1.378 . S
C540 C544 1.350 . S
C541 C544 1.463 . S
C541 C546 1.350 . S
C541 N549 1.427 . S
C542 H533 0.930 . S
C542 C540 1.378 . S
C542 C543 1.367 . S
C543 C542 1.367 . S
C543 C545 1.433 . S
C544 C540 1.350 . S
C544 C541 1.463 . S
C544 N548 1.427 . S
C545 H535 0.929 . S
C545 C543 1.433 . S
C545 N548 1.384 . S
C546 H537 0.929 . S
C546 C538 1.378 . S
C546 C541 1.350 . S
C547 H534 0.929 . S
C547 C539 1.433 . S
C547 N549 1.384 . S
N548 C544 1.427 . S
N548 C545 1.384 . S
N549 C541 1.427 . S
N549 C547 1.384 . S
H550 C556 0.930 . S
H551 C560 0.930 1_556 S
H552 C565 0.929 . S
H553 C563 0.929 . S
H554 C558 0.929 1_556 S
H555 C564 0.929 . S
C556 H550 0.930 . S
C556 C557 1.367 . S
C556 C564 1.378 . S
C557 C556 1.367 . S
C557 C565 1.433 . S
C558 H554 0.929 1_554 S
C558 C560 1.378 . S
C558 C562 1.350 . S
C559 C562 1.463 . S
C559 C564 1.350 . S
C559 N567 1.427 . S
C560 H551 0.930 1_554 S
C560 C558 1.378 . S
C560 C561 1.367 . S
C561 C560 1.367 . S
C561 C563 1.433 . S
C562 C558 1.350 . S
C562 C559 1.463 . S
C562 N566 1.427 . S
C563 H553 0.929 . S
C563 C561 1.433 . S
C563 N566 1.384 . S
C564 H555 0.929 . S
C564 C556 1.378 . S
C564 C559 1.350 . S
C565 H552 0.929 . S
C565 C557 1.433 . S
C565 N567 1.384 . S
N566 C562 1.427 . S
N566 C563 1.384 . S
N567 C559 1.427 . S
N567 C565 1.384 . S
H568 C574 0.930 . S
H569 C578 0.930 . S
H570 C583 0.929 . S
H571 C581 0.929 . S
H572 C576 0.929 . S
H573 C582 0.929 . S
C574 H568 0.930 . S
C574 C575 1.367 1_554 S
C574 C582 1.378 . S
C575 C574 1.367 1_556 S
C575 C583 1.433 . S
C576 H572 0.929 . S
C576 C578 1.378 . S
C576 C580 1.350 . S
C577 C580 1.463 . S
C577 C582 1.350 1_556 S
C577 N585 1.427 . S
C578 H569 0.930 . S
C578 C576 1.378 . S
C578 C579 1.367 1_556 S
C579 C578 1.367 1_554 S
C579 C581 1.433 . S
C580 C576 1.350 . S
C580 C577 1.463 . S
C580 N584 1.427 1_556 S
C581 H571 0.929 . S
C581 C579 1.433 . S
C581 N584 1.384 . S
C582 H573 0.929 . S
C582 C574 1.378 . S
C582 C577 1.350 1_554 S
C583 H570 0.929 . S
C583 C575 1.433 . S
C583 N585 1.384 . S
N584 C580 1.427 1_554 S
N584 C581 1.384 . S
N585 C577 1.427 . S
N585 C583 1.384 . S
H586 C592 0.930 . S
H587 C596 0.930 . S
H588 C601 0.929 . S
H589 C599 0.929 . S
H590 C594 0.929 . S
H591 C600 0.929 . S
C592 H586 0.930 . S
C592 C593 1.367 . S
C592 C600 1.378 . S
C593 C592 1.367 . S
C593 C601 1.433 . S
C594 H590 0.929 . S
C594 C596 1.378 . S
C594 C598 1.350 . S
C595 C598 1.463 . S
C595 C600 1.350 . S
C595 N603 1.427 . S
C596 H587 0.930 . S
C596 C594 1.378 . S
C596 C597 1.367 . S
C597 C596 1.367 . S
C597 C599 1.433 . S
C598 C594 1.350 . S
C598 C595 1.463 . S
C598 N602 1.427 . S
C599 H589 0.929 . S
C599 C597 1.433 . S
C599 N602 1.384 . S
C600 H591 0.929 . S
C600 C592 1.378 . S
C600 C595 1.350 . S
C601 H588 0.929 . S
C601 C593 1.433 . S
C601 N603 1.384 . S
N602 C598 1.427 . S
N602 C599 1.384 . S
N603 C595 1.427 . S
N603 C601 1.384 . S
H604 C610 0.930 . S
H605 C614 0.930 . S
H606 C619 0.929 . S
H607 C617 0.929 . S
H608 C612 0.929 . S
H609 C618 0.929 . S
C610 H604 0.930 . S
C610 C611 1.367 . S
C610 C618 1.378 . S
C611 C610 1.367 . S
C611 C619 1.433 . S
C612 H608 0.929 . S
C612 C614 1.378 . S
C612 C616 1.350 . S
C613 C616 1.463 . S
C613 C618 1.350 . S
C613 N621 1.427 . S
C614 H605 0.930 . S
C614 C612 1.378 . S
C614 C615 1.367 . S
C615 C614 1.367 . S
C615 C617 1.433 . S
C616 C612 1.350 . S
C616 C613 1.463 . S
C616 N620 1.427 . S
C617 H607 0.929 . S
C617 C615 1.433 . S
C617 N620 1.384 . S
C618 H609 0.929 . S
C618 C610 1.378 . S
C618 C613 1.350 . S
C619 H606 0.929 . S
C619 C611 1.433 . S
C619 N621 1.384 . S
N620 C616 1.427 . S
N620 C617 1.384 . S
N621 C613 1.427 . S
N621 C619 1.384 . S
H622 C628 0.930 . S
H623 C632 0.930 . S
H624 C637 0.929 . S
H625 C635 0.929 . S
H626 C630 0.929 . S
H627 C636 0.929 . S
C628 H622 0.930 . S
C628 C629 1.367 . S
C628 C636 1.378 . S
C629 C628 1.367 . S
C629 C637 1.433 . S
C630 H626 0.929 . S
C630 C632 1.378 . S
C630 C634 1.350 . S
C631 C634 1.463 . S
C631 C636 1.350 . S
C631 N639 1.427 . S
C632 H623 0.930 . S
C632 C630 1.378 . S
C632 C633 1.367 . S
C633 C632 1.367 . S
C633 C635 1.433 . S
C634 C630 1.350 . S
C634 C631 1.463 . S
C634 N638 1.427 . S
C635 H625 0.929 . S
C635 C633 1.433 . S
C635 N638 1.384 . S
C636 H627 0.929 . S
C636 C628 1.378 . S
C636 C631 1.350 . S
C637 H624 0.929 . S
C637 C629 1.433 . S
C637 N639 1.384 . S
N638 C634 1.427 . S
N638 C635 1.384 . S
N639 C631 1.427 . S
N639 C637 1.384 . S
H640 C646 0.930 . S
H641 C650 0.930 . S
H642 C655 0.929 . S
H643 C653 0.929 . S
H644 C648 0.929 . S
H645 C654 0.929 . S
C646 H640 0.930 . S
C646 C647 1.367 . S
C646 C654 1.378 . S
C647 C646 1.367 . S
C647 C655 1.433 . S
C648 H644 0.929 . S
C648 C650 1.378 . S
C648 C652 1.350 . S
C649 C652 1.463 . S
C649 C654 1.350 . S
C649 N657 1.427 . S
C650 H641 0.930 . S
C650 C648 1.378 . S
C650 C651 1.367 . S
C651 C650 1.367 . S
C651 C653 1.433 . S
C652 C648 1.350 . S
C652 C649 1.463 . S
C652 N656 1.427 . S
C653 H643 0.929 . S
C653 C651 1.433 . S
C653 N656 1.384 . S
C654 H645 0.929 . S
C654 C646 1.378 . S
C654 C649 1.350 . S
C655 H642 0.929 . S
C655 C647 1.433 . S
C655 N657 1.384 . S
N656 C652 1.427 . S
N656 C653 1.384 . S
N657 C649 1.427 . S
N657 C655 1.384 . S
H658 C664 0.930 . S
H659 C668 0.930 . S
H660 C673 0.929 . S
H661 C671 0.929 . S
H662 C666 0.929 1_556 S
H663 C672 0.929 . S
C664 H658 0.930 . S
C664 C665 1.367 . S
C664 C672 1.378 . S
C665 C664 1.367 . S
C665 C673 1.433 . S
C666 H662 0.929 1_554 S
C666 C668 1.378 1_554 S
C666 C670 1.350 . S
C667 C670 1.463 . S
C667 C672 1.350 . S
C667 N675 1.427 . S
C668 H659 0.930 . S
C668 C666 1.378 1_556 S
C668 C669 1.367 1_556 S
C669 C668 1.367 1_554 S
C669 C671 1.433 . S
C670 C666 1.350 . S
C670 C667 1.463 . S
C670 N674 1.427 . S
C671 H661 0.929 . S
C671 C669 1.433 . S
C671 N674 1.384 . S
C672 H663 0.929 . S
C672 C664 1.378 . S
C672 C667 1.350 . S
C673 H660 0.929 . S
C673 C665 1.433 . S
C673 N675 1.384 . S
N674 C670 1.427 . S
N674 C671 1.384 . S
N675 C667 1.427 . S
N675 C673 1.384 . S
H676 C682 0.930 . S
H677 C686 0.930 . S
H678 C691 0.929 . S
H679 C689 0.929 . S
H680 C684 0.929 . S
H681 C690 0.929 . S
C682 H676 0.930 . S
C682 C683 1.367 . S
C682 C690 1.378 . S
C683 C682 1.367 . S
C683 C691 1.433 . S
C684 H680 0.929 . S
C684 C686 1.378 . S
C684 C688 1.350 . S
C685 C688 1.463 . S
C685 C690 1.350 . S
C685 N693 1.427 . S
C686 H677 0.930 . S
C686 C684 1.378 . S
C686 C687 1.367 . S
C687 C686 1.367 . S
C687 C689 1.433 . S
C688 C684 1.350 . S
C688 C685 1.463 . S
C688 N692 1.427 . S
C689 H679 0.929 . S
C689 C687 1.433 . S
C689 N692 1.384 . S
C690 H681 0.929 . S
C690 C682 1.378 . S
C690 C685 1.350 . S
C691 H678 0.929 . S
C691 C683 1.433 . S
C691 N693 1.384 . S
N692 C688 1.427 . S
N692 C689 1.384 . S
N693 C685 1.427 . S
N693 C691 1.384 . S
H694 C700 0.930 . S
H695 C704 0.930 . S
H696 C709 0.929 . S
H697 C707 0.929 . S
H698 C702 0.929 . S
H699 C708 0.929 . S
C700 H694 0.930 . S
C700 C701 1.367 . S
C700 C708 1.378 . S
C701 C700 1.367 . S
C701 C709 1.433 . S
C702 H698 0.929 . S
C702 C704 1.378 . S
C702 C706 1.350 . S
C703 C706 1.463 . S
C703 C708 1.350 . S
C703 N711 1.427 . S
C704 H695 0.930 . S
C704 C702 1.378 . S
C704 C705 1.367 . S
C705 C704 1.367 . S
C705 C707 1.433 . S
C706 C702 1.350 . S
C706 C703 1.463 . S
C706 N710 1.427 . S
C707 H697 0.929 . S
C707 C705 1.433 . S
C707 N710 1.384 . S
C708 H699 0.929 . S
C708 C700 1.378 . S
C708 C703 1.350 . S
C709 H696 0.929 . S
C709 C701 1.433 . S
C709 N711 1.384 . S
N710 C706 1.427 . S
N710 C707 1.384 . S
N711 C703 1.427 . S
N711 C709 1.384 . S
H712 C718 0.930 . S
H713 C722 0.930 . S
H714 C727 0.929 . S
H715 C725 0.929 . S
H716 C720 0.929 . S
H717 C726 0.929 . S
C718 H712 0.930 . S
C718 C719 1.367 . S
C718 C726 1.378 . S
C719 C718 1.367 . S
C719 C727 1.433 . S
C720 H716 0.929 . S
C720 C722 1.378 . S
C720 C724 1.350 . S
C721 C724 1.463 . S
C721 C726 1.350 . S
C721 N729 1.427 . S
C722 H713 0.930 . S
C722 C720 1.378 . S
C722 C723 1.367 . S
C723 C722 1.367 . S
C723 C725 1.433 . S
C724 C720 1.350 . S
C724 C721 1.463 . S
C724 N728 1.427 . S
C725 H715 0.929 . S
C725 C723 1.433 . S
C725 N728 1.384 . S
C726 H717 0.929 . S
C726 C718 1.378 . S
C726 C721 1.350 . S
C727 H714 0.929 . S
C727 C719 1.433 . S
C727 N729 1.384 . S
N728 C724 1.427 . S
N728 C725 1.384 . S
N729 C721 1.427 . S
N729 C727 1.384 . S
H730 C736 0.930 . S
H731 C740 0.930 . S
H732 C745 0.929 . S
H733 C743 0.929 . S
H734 C738 0.929 . S
H735 C744 0.929 . S
C736 H730 0.930 . S
C736 C737 1.367 . S
C736 C744 1.378 . S
C737 C736 1.367 . S
C737 C745 1.433 . S
C738 H734 0.929 . S
C738 C740 1.378 . S
C738 C742 1.350 . S
C739 C742 1.463 . S
C739 C744 1.350 . S
C739 N747 1.427 . S
C740 H731 0.930 . S
C740 C738 1.378 . S
C740 C741 1.367 . S
C741 C740 1.367 . S
C741 C743 1.433 . S
C742 C738 1.350 . S
C742 C739 1.463 . S
C742 N746 1.427 . S
C743 H733 0.929 . S
C743 C741 1.433 . S
C743 N746 1.384 . S
C744 H735 0.929 . S
C744 C736 1.378 . S
C744 C739 1.350 . S
C745 H732 0.929 . S
C745 C737 1.433 . S
C745 N747 1.384 . S
N746 C742 1.427 . S
N746 C743 1.384 . S
N747 C739 1.427 . S
N747 C745 1.384 . S
H748 C754 0.930 . S
H749 C758 0.930 . S
H750 C763 0.938 . S
H751 C761 0.929 . S
H752 C756 0.961 . S
H753 C762 0.929 . S
C754 H748 0.930 . S
C754 C755 1.367 . S
C754 C762 1.378 . S
C755 C754 1.367 . S
C755 C763 1.433 . S
C756 H752 0.961 . S
C756 C758 1.391 . S
C756 C760 1.308 1_554 S
C757 C760 1.463 . S
C757 C762 1.350 . S
C757 N765 1.427 . S
C758 H749 0.930 . S
C758 C756 1.391 . S
C758 C759 1.367 1_554 S
C759 C758 1.367 1_556 S
C759 C761 1.433 . S
C760 C756 1.308 1_556 S
C760 C757 1.463 . S
C760 N764 1.427 . S
C761 H751 0.929 . S
C761 C759 1.433 . S
C761 N764 1.384 . S
C762 H753 0.929 . S
C762 C754 1.378 . S
C762 C757 1.350 . S
C763 H750 0.938 . S
C763 C755 1.433 . S
C763 N765 1.384 . S
N764 C760 1.427 . S
N764 C761 1.384 . S
N765 C757 1.427 . S
N765 C763 1.384 . S
H766 C772 0.930 . S
H767 C776 0.930 . S
H768 C781 0.929 . S
H769 C779 0.929 . S
H770 C774 0.929 . S
H771 C780 0.929 . S
C772 H766 0.930 . S
C772 C773 1.367 . S
C772 C780 1.378 . S
C773 C772 1.367 . S
C773 C781 1.433 . S
C774 H770 0.929 . S
C774 C776 1.378 . S
C774 C778 1.350 . S
C775 C778 1.463 . S
C775 C780 1.350 . S
C775 N783 1.427 . S
C776 H767 0.930 . S
C776 C774 1.378 . S
C776 C777 1.367 . S
C777 C776 1.367 . S
C777 C779 1.433 . S
C778 C774 1.350 . S
C778 C775 1.463 . S
C778 N782 1.427 . S
C779 H769 0.929 . S
C779 C777 1.433 . S
C779 N782 1.384 . S
C780 H771 0.929 . S
C780 C772 1.378 . S
C780 C775 1.350 . S
C781 H768 0.929 . S
C781 C773 1.433 . S
C781 N783 1.384 . S
N782 C778 1.427 . S
N782 C779 1.384 . S
N783 C775 1.427 . S
N783 C781 1.384 . S
H784 C790 0.930 . S
H785 C794 0.930 . S
H786 C799 0.929 . S
H787 C797 0.929 . S
H788 C792 0.929 . S
H789 C798 0.929 . S
C790 H784 0.930 . S
C790 C791 1.367 . S
C790 C798 1.378 . S
C791 C790 1.367 . S
C791 C799 1.433 . S
C792 H788 0.929 . S
C792 C794 1.378 . S
C792 C796 1.350 . S
C793 C796 1.463 . S
C793 C798 1.350 . S
C793 N801 1.427 . S
C794 H785 0.930 . S
C794 C792 1.378 . S
C794 C795 1.367 . S
C795 C794 1.367 . S
C795 C797 1.433 . S
C796 C792 1.350 . S
C796 C793 1.463 . S
C796 N800 1.427 . S
C797 H787 0.929 . S
C797 C795 1.433 . S
C797 N800 1.384 . S
C798 H789 0.929 . S
C798 C790 1.378 . S
C798 C793 1.350 . S
C799 H786 0.929 . S
C799 C791 1.433 . S
C799 N801 1.384 . S
N800 C796 1.427 . S
N800 C797 1.384 . S
N801 C793 1.427 . S
N801 C799 1.384 . S
H802 C808 0.930 . S
H803 C812 0.930 . S
H804 C817 0.929 . S
H805 C815 0.929 . S
H806 C810 0.929 . S
H807 C816 0.929 . S
C808 H802 0.930 . S
C808 C809 1.367 . S
C808 C816 1.378 . S
C809 C808 1.367 . S
C809 C817 1.433 . S
C810 H806 0.929 . S
C810 C812 1.378 . S
C810 C814 1.350 . S
C811 C814 1.463 . S
C811 C816 1.350 . S
C811 N819 1.427 . S
C812 H803 0.930 . S
C812 C810 1.378 . S
C812 C813 1.367 . S
C813 C812 1.367 . S
C813 C815 1.433 . S
C814 C810 1.350 . S
C814 C811 1.463 . S
C814 N818 1.427 . S
C815 H805 0.929 . S
C815 C813 1.433 . S
C815 N818 1.384 . S
C816 H807 0.929 . S
C816 C808 1.378 . S
C816 C811 1.350 . S
C817 H804 0.929 . S
C817 C809 1.433 . S
C817 N819 1.384 . S
N818 C814 1.427 . S
N818 C815 1.384 . S
N819 C811 1.427 . S
N819 C817 1.384 . S
H820 C826 0.930 . S
H821 C830 0.930 . S
H822 C835 0.929 . S
H823 C833 0.929 . S
H824 C828 0.929 . S
H825 C834 0.929 . S
C826 H820 0.930 . S
C826 C827 1.367 . S
C826 C834 1.378 . S
C827 C826 1.367 . S
C827 C835 1.433 . S
C828 H824 0.929 . S
C828 C830 1.378 . S
C828 C832 1.350 . S
C829 C832 1.463 . S
C829 C834 1.350 . S
C829 N837 1.427 . S
C830 H821 0.930 . S
C830 C828 1.378 . S
C830 C831 1.367 . S
C831 C830 1.367 . S
C831 C833 1.433 . S
C832 C828 1.350 . S
C832 C829 1.463 . S
C832 N836 1.427 . S
C833 H823 0.929 . S
C833 C831 1.433 . S
C833 N836 1.384 . S
C834 H825 0.929 . S
C834 C826 1.378 . S
C834 C829 1.350 . S
C835 H822 0.929 . S
C835 C827 1.433 . S
C835 N837 1.384 . S
N836 C832 1.427 . S
N836 C833 1.384 . S
N837 C829 1.427 . S
N837 C835 1.384 . S
H838 C844 0.930 . S
H839 C848 0.930 . S
H840 C853 0.929 . S
H841 C851 0.929 . S
H842 C846 0.929 . S
H843 C852 0.929 . S
C844 H838 0.930 . S
C844 C845 1.367 . S
C844 C852 1.378 . S
C845 C844 1.367 . S
C845 C853 1.433 . S
C846 H842 0.929 . S
C846 C848 1.378 . S
C846 C850 1.350 . S
C847 C850 1.463 . S
C847 C852 1.350 . S
C847 N855 1.427 . S
C848 H839 0.930 . S
C848 C846 1.378 . S
C848 C849 1.367 . S
C849 C848 1.367 . S
C849 C851 1.433 . S
C850 C846 1.350 . S
C850 C847 1.463 . S
C850 N854 1.427 . S
C851 H841 0.929 . S
C851 C849 1.433 . S
C851 N854 1.384 . S
C852 H843 0.929 . S
C852 C844 1.378 . S
C852 C847 1.350 . S
C853 H840 0.929 . S
C853 C845 1.433 . S
C853 N855 1.384 . S
N854 C850 1.427 . S
N854 C851 1.384 . S
N855 C847 1.427 . S
N855 C853 1.384 . S
H856 C862 0.930 . S
H857 C866 0.930 . S
H858 C871 0.929 . S
H859 C869 0.929 . S
H860 C864 0.929 . S
H861 C870 0.929 . S
C862 H856 0.930 . S
C862 C863 1.367 . S
C862 C870 1.378 . S
C863 C862 1.367 . S
C863 C871 1.433 . S
C864 H860 0.929 . S
C864 C866 1.378 . S
C864 C868 1.350 . S
C865 C868 1.463 . S
C865 C870 1.350 . S
C865 N873 1.427 . S
C866 H857 0.930 . S
C866 C864 1.378 . S
C866 C867 1.367 . S
C867 C866 1.367 . S
C867 C869 1.433 . S
C868 C864 1.350 . S
C868 C865 1.463 . S
C868 N872 1.427 . S
C869 H859 0.929 . S
C869 C867 1.433 . S
C869 N872 1.384 . S
C870 H861 0.929 . S
C870 C862 1.378 . S
C870 C865 1.350 . S
C871 H858 0.929 . S
C871 C863 1.433 . S
C871 N873 1.384 . S
N872 C868 1.427 . S
N872 C869 1.384 . S
N873 C865 1.427 . S
N873 C871 1.384 . S
H874 C880 0.930 . S
H875 C884 0.930 . S
H876 C889 0.929 . S
H877 C887 0.929 . S
H878 C882 0.929 . S
H879 C888 0.929 . S
C880 H874 0.930 . S
C880 C881 1.367 . S
C880 C888 1.378 . S
C881 C880 1.367 . S
C881 C889 1.433 . S
C882 H878 0.929 . S
C882 C884 1.378 . S
C882 C886 1.350 . S
C883 C886 1.463 . S
C883 C888 1.350 . S
C883 N891 1.427 . S
C884 H875 0.930 . S
C884 C882 1.378 . S
C884 C885 1.367 . S
C885 C884 1.367 . S
C885 C887 1.433 . S
C886 C882 1.350 . S
C886 C883 1.463 . S
C886 N890 1.427 . S
C887 H877 0.929 . S
C887 C885 1.433 . S
C887 N890 1.384 . S
C888 H879 0.929 . S
C888 C880 1.378 . S
C888 C883 1.350 . S
C889 H876 0.929 . S
C889 C881 1.433 . S
C889 N891 1.384 . S
N890 C886 1.427 . S
N890 C887 1.384 . S
N891 C883 1.427 . S
N891 C889 1.384 . S
H892 C898 0.930 . S
H893 C902 0.930 . S
H894 C907 0.929 . S
H895 C905 0.929 . S
H896 C900 0.929 . S
H897 C906 0.929 . S
C898 H892 0.930 . S
C898 C899 1.367 . S
C898 C906 1.378 . S
C899 C898 1.367 . S
C899 C907 1.433 . S
C900 H896 0.929 . S
C900 C902 1.378 . S
C900 C904 1.350 . S
C901 C904 1.463 . S
C901 C906 1.350 . S
C901 N909 1.427 . S
C902 H893 0.930 . S
C902 C900 1.378 . S
C902 C903 1.367 . S
C903 C902 1.367 . S
C903 C905 1.433 . S
C904 C900 1.350 . S
C904 C901 1.463 . S
C904 N908 1.427 . S
C905 H895 0.929 . S
C905 C903 1.433 . S
C905 N908 1.384 . S
C906 H897 0.929 . S
C906 C898 1.378 . S
C906 C901 1.350 . S
C907 H894 0.929 . S
C907 C899 1.433 . S
C907 N909 1.384 . S
N908 C904 1.427 . S
N908 C905 1.384 . S
N909 C901 1.427 . S
N909 C907 1.384 . S
H910 C916 0.930 . S
H911 C920 0.930 . S
H912 C925 0.929 . S
H913 C923 0.929 . S
H914 C918 0.929 . S
H915 C924 0.929 . S
C916 H910 0.930 . S
C916 C917 1.367 . S
C916 C924 1.378 . S
C917 C916 1.367 . S
C917 C925 1.433 . S
C918 H914 0.929 . S
C918 C920 1.378 . S
C918 C922 1.350 . S
C919 C922 1.463 . S
C919 C924 1.350 . S
C919 N927 1.427 . S
C920 H911 0.930 . S
C920 C918 1.378 . S
C920 C921 1.367 . S
C921 C920 1.367 . S
C921 C923 1.433 . S
C922 C918 1.350 . S
C922 C919 1.463 . S
C922 N926 1.427 . S
C923 H913 0.929 . S
C923 C921 1.433 . S
C923 N926 1.384 . S
C924 H915 0.929 . S
C924 C916 1.378 . S
C924 C919 1.350 . S
C925 H912 0.929 . S
C925 C917 1.433 . S
C925 N927 1.384 . S
N926 C922 1.427 . S
N926 C923 1.384 . S
N927 C919 1.427 . S
N927 C925 1.384 . S
H928 C934 0.930 . S
H929 C938 0.930 . S
H930 C943 0.929 . S
H931 C941 0.929 . S
H932 C936 0.929 . S
H933 C942 0.929 . S
C934 H928 0.930 . S
C934 C935 1.367 . S
C934 C942 1.378 . S
C935 C934 1.367 . S
C935 C943 1.433 . S
C936 H932 0.929 . S
C936 C938 1.378 . S
C936 C940 1.350 . S
C937 C940 1.463 . S
C937 C942 1.350 . S
C937 N945 1.427 . S
C938 H929 0.930 . S
C938 C936 1.378 . S
C938 C939 1.367 . S
C939 C938 1.367 . S
C939 C941 1.433 . S
C940 C936 1.350 . S
C940 C937 1.463 . S
C940 N944 1.427 . S
C941 H931 0.929 . S
C941 C939 1.433 . S
C941 N944 1.384 . S
C942 H933 0.929 . S
C942 C934 1.378 . S
C942 C937 1.350 . S
C943 H930 0.929 . S
C943 C935 1.433 . S
C943 N945 1.384 . S
N944 C940 1.427 . S
N944 C941 1.384 . S
N945 C937 1.427 . S
N945 C943 1.384 . S
H946 C952 0.930 . S
H947 C956 0.930 . S
H948 C961 0.929 . S
H949 C959 0.929 . S
H950 C954 0.929 . S
H951 C960 0.929 . S
C952 H946 0.930 . S
C952 C953 1.367 . S
C952 C960 1.378 . S
C953 C952 1.367 . S
C953 C961 1.433 . S
C954 H950 0.929 . S
C954 C956 1.378 . S
C954 C958 1.350 . S
C955 C958 1.463 . S
C955 C960 1.350 . S
C955 N963 1.427 . S
C956 H947 0.930 . S
C956 C954 1.378 . S
C956 C957 1.367 . S
C957 C956 1.367 . S
C957 C959 1.433 . S
C958 C954 1.350 . S
C958 C955 1.463 . S
C958 N962 1.427 . S
C959 H949 0.929 . S
C959 C957 1.433 . S
C959 N962 1.384 . S
C960 H951 0.929 . S
C960 C952 1.378 . S
C960 C955 1.350 . S
C961 H948 0.929 . S
C961 C953 1.433 . S
C961 N963 1.384 . S
N962 C958 1.427 . S
N962 C959 1.384 . S
N963 C955 1.427 . S
N963 C961 1.384 . S
H964 C970 0.930 . S
H965 C974 0.930 . S
H966 C979 0.929 . S
H967 C977 0.929 . S
H968 C972 0.929 . S
H969 C978 0.929 . S
C970 H964 0.930 . S
C970 C971 1.367 . S
C970 C978 1.378 . S
C971 C970 1.367 . S
C971 C979 1.433 . S
C972 H968 0.929 . S
C972 C974 1.378 . S
C972 C976 1.350 . S
C973 C976 1.463 . S
C973 C978 1.350 . S
C973 N981 1.427 . S
C974 H965 0.930 . S
C974 C972 1.378 . S
C974 C975 1.367 . S
C975 C974 1.367 . S
C975 C977 1.433 . S
C976 C972 1.350 . S
C976 C973 1.463 . S
C976 N980 1.427 . S
C977 H967 0.929 . S
C977 C975 1.433 . S
C977 N980 1.384 . S
C978 H969 0.929 . S
C978 C970 1.378 . S
C978 C973 1.350 . S
C979 H966 0.929 . S
C979 C971 1.433 . S
C979 N981 1.384 . S
N980 C976 1.427 . S
N980 C977 1.384 . S
N981 C973 1.427 . S
N981 C979 1.384 . S
H982 C988 0.930 . S
H983 C992 0.930 . S
H984 C997 0.929 . S
H985 C995 0.929 . S
H986 C990 0.929 . S
H987 C996 0.929 . S
C988 H982 0.930 . S
C988 C989 1.367 . S
C988 C996 1.378 . S
C989 C988 1.367 . S
C989 C997 1.433 . S
C990 H986 0.929 . S
C990 C992 1.378 . S
C990 C994 1.350 . S
C991 C994 1.463 . S
C991 C996 1.350 . S
C991 N999 1.427 . S
C992 H983 0.930 . S
C992 C990 1.378 . S
C992 C993 1.367 . S
C993 C992 1.367 . S
C993 C995 1.433 . S
C994 C990 1.350 . S
C994 C991 1.463 . S
C994 N998 1.427 . S
C995 H985 0.929 . S
C995 C993 1.433 . S
C995 N998 1.384 . S
C996 H987 0.929 . S
C996 C988 1.378 . S
C996 C991 1.350 . S
C997 H984 0.929 . S
C997 C989 1.433 . S
C997 N999 1.384 . S
N998 C994 1.427 . S
N998 C995 1.384 . S
N999 C991 1.427 . S
N999 C997 1.384 . S
H1000 C1006 0.930 . S
H1001 C1010 0.930 . S
H1002 C1015 0.929 . S
H1003 C1013 0.929 . S
H1004 C1008 0.929 . S
H1005 C1014 0.929 . S
C1006 H1000 0.930 . S
C1006 C1007 1.367 . S
C1006 C1014 1.378 . S
C1007 C1006 1.367 . S
C1007 C1015 1.433 . S
C1008 H1004 0.929 . S
C1008 C1010 1.378 . S
C1008 C1012 1.350 . S
C1009 C1012 1.463 . S
C1009 C1014 1.350 . S
C1009 N1017 1.427 . S
C1010 H1001 0.930 . S
C1010 C1008 1.378 . S
C1010 C1011 1.367 . S
C1011 C1010 1.367 . S
C1011 C1013 1.433 . S
C1012 C1008 1.350 . S
C1012 C1009 1.463 . S
C1012 N1016 1.427 . S
C1013 H1003 0.929 . S
C1013 C1011 1.433 . S
C1013 N1016 1.384 . S
C1014 H1005 0.929 . S
C1014 C1006 1.378 . S
C1014 C1009 1.350 . S
C1015 H1002 0.929 . S
C1015 C1007 1.433 . S
C1015 N1017 1.384 . S
N1016 C1012 1.427 . S
N1016 C1013 1.384 . S
N1017 C1009 1.427 . S
N1017 C1015 1.384 . S
H1018 C1024 0.930 . S
H1019 C1028 0.930 . S
H1020 C1033 0.929 . S
H1021 C1031 0.929 . S
H1022 C1026 0.929 . S
H1023 C1032 0.929 . S
C1024 H1018 0.930 . S
C1024 C1025 1.367 . S
C1024 C1032 1.378 . S
C1025 C1024 1.367 . S
C1025 C1033 1.433 . S
C1026 H1022 0.929 . S
C1026 C1028 1.378 . S
C1026 C1030 1.350 . S
C1027 C1030 1.463 . S
C1027 C1032 1.350 . S
C1027 N1035 1.427 . S
C1028 H1019 0.930 . S
C1028 C1026 1.378 . S
C1028 C1029 1.367 . S
C1029 C1028 1.367 . S
C1029 C1031 1.433 . S
C1030 C1026 1.350 . S
C1030 C1027 1.463 . S
C1030 N1034 1.427 . S
C1031 H1021 0.929 . S
C1031 C1029 1.433 . S
C1031 N1034 1.384 . S
C1032 H1023 0.929 . S
C1032 C1024 1.378 . S
C1032 C1027 1.350 . S
C1033 H1020 0.929 . S
C1033 C1025 1.433 . S
C1033 N1035 1.384 . S
N1034 C1030 1.427 . S
N1034 C1031 1.384 . S
N1035 C1027 1.427 . S
N1035 C1033 1.384 . S
H1036 C1042 0.930 . S
H1037 C1046 0.930 . S
H1038 C1051 0.929 . S
H1039 C1049 0.929 . S
H1040 C1044 0.929 . S
H1041 C1050 0.929 . S
C1042 H1036 0.930 . S
C1042 C1043 1.367 . S
C1042 C1050 1.378 . S
C1043 C1042 1.367 . S
C1043 C1051 1.433 . S
C1044 H1040 0.929 . S
C1044 C1046 1.378 . S
C1044 C1048 1.350 . S
C1045 C1048 1.463 . S
C1045 C1050 1.350 . S
C1045 N1053 1.427 . S
C1046 H1037 0.930 . S
C1046 C1044 1.378 . S
C1046 C1047 1.367 . S
C1047 C1046 1.367 . S
C1047 C1049 1.433 . S
C1048 C1044 1.350 . S
C1048 C1045 1.463 . S
C1048 N1052 1.427 . S
C1049 H1039 0.929 . S
C1049 C1047 1.433 . S
C1049 N1052 1.384 . S
C1050 H1041 0.929 . S
C1050 C1042 1.378 . S
C1050 C1045 1.350 . S
C1051 H1038 0.929 . S
C1051 C1043 1.433 . S
C1051 N1053 1.384 . S
N1052 C1048 1.427 . S
N1052 C1049 1.384 . S
N1053 C1045 1.427 . S
N1053 C1051 1.384 . S
H1054 C1060 0.930 . S
H1055 C1064 0.930 . S
H1056 C1069 0.929 . S
H1057 C1067 0.929 . S
H1058 C1062 0.929 . S
H1059 C1068 0.929 . S
C1060 H1054 0.930 . S
C1060 C1061 1.367 . S
C1060 C1068 1.378 . S
C1061 C1060 1.367 . S
C1061 C1069 1.433 . S
C1062 H1058 0.929 . S
C1062 C1064 1.378 . S
C1062 C1066 1.350 . S
C1063 C1066 1.463 . S
C1063 C1068 1.350 . S
C1063 N1071 1.427 . S
C1064 H1055 0.930 . S
C1064 C1062 1.378 . S
C1064 C1065 1.367 . S
C1065 C1064 1.367 . S
C1065 C1067 1.433 . S
C1066 C1062 1.350 . S
C1066 C1063 1.463 . S
C1066 N1070 1.427 . S
C1067 H1057 0.929 . S
C1067 C1065 1.433 . S
C1067 N1070 1.384 . S
C1068 H1059 0.929 . S
C1068 C1060 1.378 . S
C1068 C1063 1.350 . S
C1069 H1056 0.929 . S
C1069 C1061 1.433 . S
C1069 N1071 1.384 . S
N1070 C1066 1.427 . S
N1070 C1067 1.384 . S
N1071 C1063 1.427 . S
N1071 C1069 1.384 . S
C507 C405 1.356 . S
C503 C36 1.328 . S
C525 C425 1.375 . S
C521 C93 1.386 . S
C543 C439 1.378 . S
C539 C126 1.403 . S
C557 C165 1.405 . S
C561 C397 1.403 . S
C575 C222 1.451 . S
C579 C391 1.498 . S
C593 C261 1.416 . S
C597 C411 1.422 . S
C615 C419 1.371 . S
C611 C318 1.354 . S
C633 C433 1.448 . S
C629 C381 1.430 . S
C647 C132 1.410 . S
C651 C461 1.450 . S
C669 C475 1.375 . S
C665 C189 1.356 . S
C683 C30 1.430 . S
C687 C495 1.423 . S
C705 C447 1.497 . S
C701 C69 1.441 . S
C719 C324 1.416 . S
C723 C453 1.415 . S
C737 C357 1.400 . S
C741 C467 1.393 . S
C759 C481 1.366 1_556 S
C755 C228 1.368 . S
C773 C285 1.328 . S
C777 C489 1.353 . S
C795 C420 1.742 . S
C791 C45 1.719 . S
C813 C434 1.749 . S
C809 C84 1.732 . S
C827 C117 1.655 . S
C831 C392 1.684 . S
C845 C174 1.486 . S
C849 C409 1.520 . S
C863 C213 1.436 . S
C867 C437 1.445 . S
C885 C395 1.426 . S
C881 C270 1.401 . S
C903 C406 1.648 . S
C899 C309 1.631 . S
C921 C423 1.504 . S
C917 C372 1.499 . S
C939 C479 1.506 . S
C935 C141 1.484 . S
C957 C490 1.642 . S
C953 C180 1.632 . S
C971 C21 1.418 . S
C975 C451 1.427 . S
C993 C465 1.446 . S
C989 C78 1.412 . S
C1011 C493 1.518 . S
C1007 C333 1.510 . S
C1025 C366 1.635 . S
C1029 C448 1.683 . S
C1047 C462 1.752 . S
C1043 C237 1.734 . S
C1065 C476 1.745 . S
C1061 C276 1.736 . S
