# Generated by pormake.
# Topology nom, (4,4)-cn, num edge types: 1
# Building blocks:
#     Node 0, Type 0, BuildingBlock: NAHDIM_clean_linker_0, # of connection points: 4
#     Node 1, Type 0, BuildingBlock: NAHDIM_clean_linker_0, # of connection points: 4
#     Node 2, Type 0, BuildingBlock: NAHDIM_clean_linker_0, # of connection points: 4
#     Node 3, Type 0, BuildingBlock: NAHDIM_clean_linker_0, # of connection points: 4
#     Node 4, Type 0, BuildingBlock: NAHDIM_clean_linker_0, # of connection points: 4
#     Node 5, Type 0, BuildingBlock: NAHDIM_clean_linker_0, # of connection points: 4
#     Node 6, Type 1, BuildingBlock: GALJAG_clean_sbu_0, # of connection points: 4
#     Node 7, Type 1, BuildingBlock: GALJAG_clean_sbu_0, # of connection points: 4
#     Node 8, Type 1, BuildingBlock: GALJAG_clean_sbu_0, # of connection points: 4
#     Node 9, Type 1, BuildingBlock: GALJAG_clean_sbu_0, # of connection points: 4
#     Node 10, Type 1, BuildingBlock: GALJAG_clean_sbu_0, # of connection points: 4
#     Node 11, Type 1, BuildingBlock: GALJAG_clean_sbu_0, # of connection points: 4
#     Edge 12, Type (0, 1), BuildingBlock: EZIPEK_clean_linker_0, # of connection points: 2
#     Edge 13, Type (0, 1), BuildingBlock: EZIPEK_clean_linker_0, # of connection points: 2
#     Edge 14, Type (0, 1), BuildingBlock: EZIPEK_clean_linker_0, # of connection points: 2
#     Edge 15, Type (0, 1), BuildingBlock: EZIPEK_clean_linker_0, # of connection points: 2
#     Edge 16, Type (0, 1), BuildingBlock: EZIPEK_clean_linker_0, # of connection points: 2
#     Edge 17, Type (0, 1), BuildingBlock: EZIPEK_clean_linker_0, # of connection points: 2
#     Edge 18, Type (0, 1), BuildingBlock: EZIPEK_clean_linker_0, # of connection points: 2
#     Edge 19, Type (0, 1), BuildingBlock: EZIPEK_clean_linker_0, # of connection points: 2
#     Edge 20, Type (0, 1), BuildingBlock: EZIPEK_clean_linker_0, # of connection points: 2
#     Edge 21, Type (0, 1), BuildingBlock: EZIPEK_clean_linker_0, # of connection points: 2
#     Edge 22, Type (0, 1), BuildingBlock: EZIPEK_clean_linker_0, # of connection points: 2
#     Edge 23, Type (0, 1), BuildingBlock: EZIPEK_clean_linker_0, # of connection points: 2
#     Edge 24, Type (0, 1), BuildingBlock: EZIPEK_clean_linker_0, # of connection points: 2
#     Edge 25, Type (0, 1), BuildingBlock: EZIPEK_clean_linker_0, # of connection points: 2
#     Edge 26, Type (0, 1), BuildingBlock: EZIPEK_clean_linker_0, # of connection points: 2
#     Edge 27, Type (0, 1), BuildingBlock: EZIPEK_clean_linker_0, # of connection points: 2
#     Edge 28, Type (0, 1), BuildingBlock: EZIPEK_clean_linker_0, # of connection points: 2
#     Edge 29, Type (0, 1), BuildingBlock: EZIPEK_clean_linker_0, # of connection points: 2
#     Edge 30, Type (0, 1), BuildingBlock: EZIPEK_clean_linker_0, # of connection points: 2
#     Edge 31, Type (0, 1), BuildingBlock: EZIPEK_clean_linker_0, # of connection points: 2
#     Edge 32, Type (0, 1), BuildingBlock: EZIPEK_clean_linker_0, # of connection points: 2
#     Edge 33, Type (0, 1), BuildingBlock: EZIPEK_clean_linker_0, # of connection points: 2
#     Edge 34, Type (0, 1), BuildingBlock: EZIPEK_clean_linker_0, # of connection points: 2
#     Edge 35, Type (0, 1), BuildingBlock: EZIPEK_clean_linker_0, # of connection points: 2
# Relax obj value: 0.026
# Max RMSD: 0.128
# Mean RMSD: 0.098
data_MOF--net-nom--node1-GALJAG_clean_sbu_0--node2-NAHDIM_clean_linker_0--edge1-EZIPEK_clean_linker_0
_symmetry_space_group_name_H-M    P1
_symmetry_Int_Tables_number       1
_symmetry_cell_setting            triclinic
loop_
_symmetry_equiv_pos_as_xyz
'x, y, z'
_cell_length_a     46.487152
_cell_length_b     46.423903
_cell_length_c     57.996285
_cell_angle_alpha  90.197742
_cell_angle_beta   90.157436
_cell_angle_gamma 120.04251
loop_
_atom_site_label
_atom_site_type_symbol
_atom_site_fract_x
_atom_site_fract_y
_atom_site_fract_z
_atom_type_partial_charge
C0 C 0.22372 0.73607 0.23007 0.0
C1 C 0.21687 0.70666 0.24552 0.0
C2 C 0.16884 0.6773 0.27094 0.0
C3 C 0.16637 0.64591 0.27067 0.0
C4 C 0.13726 0.61756 0.27812 0.0
C5 C 0.11017 0.62079 0.28592 0.0
C6 C 0.11314 0.65266 0.28692 0.0
C7 C 0.14273 0.68057 0.27975 0.0
C8 C 0.13523 0.58412 0.27738 0.0
C9 C 0.08477 0.65721 0.29491 0.0
C10 C 0.9103 0.48609 0.16319 0.0
C11 C 0.93101 0.50712 0.18282 0.0
C12 C 0.96524 0.50696 0.21472 0.0
C13 C 0.96727 0.53498 0.22577 0.0
C14 C 0.98594 0.54793 0.24605 0.0
C15 C 0.00313 0.53274 0.25548 0.0
C16 C 0.00093 0.50439 0.2446 0.0
C17 C 0.98186 0.49178 0.22437 0.0
C18 C 0.98765 0.57816 0.25726 0.0
C19 C 0.01904 0.4877 0.25424 0.0
C20 C 0.87358 0.44503 0.3835 0.0
C21 C 0.8836 0.4783 0.37886 0.0
C22 C 0.91668 0.50095 0.37305 0.0
C23 C 0.9402 0.49006 0.37229 0.0
C24 C 0.9302 0.4566 0.37747 0.0
C25 C 0.89696 0.43454 0.38319 0.0
C26 C 0.92666 0.53664 0.36814 0.0
C27 C 0.95469 0.44428 0.37708 0.0
C28 C 0.15152 0.66925 0.47536 0.0
C29 C 0.13685 0.63349 0.46638 0.0
C30 C 0.08645 0.60454 0.44312 0.0
C31 C 0.06437 0.61346 0.43374 0.0
C32 C 0.0464 0.59816 0.41358 0.0
C33 C 0.04996 0.57258 0.40304 0.0
C34 C 0.07171 0.56286 0.41287 0.0
C35 C 0.08989 0.57912 0.43282 0.0
C36 C 0.02337 0.60914 0.40371 0.0
C37 C 0.07525 0.53493 0.40254 0.0
C38 C 0.07783 0.59077 0.29125 0.0
C39 C 0.05696 0.57355 0.27268 0.0
C40 C 0.02452 0.54759 0.27616 0.0
C41 C 0.01237 0.53826 0.29883 0.0
C42 C 0.97949 0.51303 0.30296 0.0
C43 C 0.9674 0.50489 0.32534 0.0
C44 C 0.98782 0.52152 0.34443 0.0
C45 C 0.97554 0.51409 0.36719 0.0
C46 C 0.99665 0.53059 0.38579 0.0
C47 C 0.02975 0.55508 0.38237 0.0
C48 C 0.04235 0.56351 0.35971 0.0
C49 C 0.07522 0.58878 0.35557 0.0
C50 C 0.08709 0.59743 0.33317 0.0
C51 C 0.0665 0.5812 0.31407 0.0
C52 C 0.0335 0.55511 0.31785 0.0
C53 C 0.0213 0.54652 0.34068 0.0
C54 C 0.78918 0.38012 0.37678 0.0
C55 C 0.81344 0.41768 0.37831 0.0
O56 O 0.19602 0.70505 0.26305 0.0
O57 O 0.10308 0.61999 0.46266 0.0
O58 O 0.84196 0.4229 0.38956 0.0
O59 O 0.9476 0.49401 0.19487 0.0
H60 H 0.20328 0.6845 0.23424 0.0
H61 H 0.19996 0.73269 0.22304 0.0
H62 H 0.23624 0.75981 0.23998 0.0
H63 H 0.23972 0.73774 0.21534 0.0
H64 H 0.18712 0.64353 0.26477 0.0
H65 H 0.14519 0.70505 0.28023 0.0
H66 H 0.11735 0.56847 0.26374 0.0
H67 H 0.15969 0.5863 0.27368 0.0
H68 H 0.12588 0.5711 0.29406 0.0
H69 H 0.09007 0.68318 0.29265 0.0
H70 H 0.06174 0.64024 0.28521 0.0
H71 H 0.07994 0.65079 0.31344 0.0
H72 H 0.94773 0.53387 0.17847 0.0
H73 H 0.92225 0.50113 0.14729 0.0
H74 H 0.91821 0.46716 0.15979 0.0
H75 H 0.86296 0.47315 0.17291 0.0
H76 H 0.95447 0.54703 0.21867 0.0
H77 H 0.98009 0.47013 0.21585 0.0
H78 H 0.98059 0.57309 0.2757 0.0
H79 H 0.01356 0.5993 0.2566 0.0
H80 H 0.97111 0.58575 0.24866 0.0
H81 H 0.01461 0.46567 0.24386 0.0
H82 H 0.04615 0.50572 0.25477 0.0
H83 H 0.01089 0.47968 0.27222 0.0
H84 H 0.81949 0.42499 0.36003 0.0
H85 H 0.86591 0.48681 0.38053 0.0
H86 H 0.88897 0.40886 0.38728 0.0
H87 H 0.93771 0.54358 0.35067 0.0
H88 H 0.90529 0.54104 0.36911 0.0
H89 H 0.94593 0.5533 0.38072 0.0
H90 H 0.94266 0.41717 0.38051 0.0
H91 H 0.96708 0.44949 0.36003 0.0
H92 H 0.97428 0.45786 0.3903 0.0
H93 H 0.14919 0.63673 0.44952 0.0
H94 H 0.17882 0.68077 0.4778 0.0
H95 H 0.14691 0.68434 0.46263 0.0
H96 H 0.14033 0.67027 0.49199 0.0
H97 H 0.06162 0.63284 0.44213 0.0
H98 H 0.10595 0.57135 0.44078 0.0
H99 H 0.02745 0.61346 0.38488 0.0
H100 H 0.99724 0.58915 0.40626 0.0
H101 H 0.02683 0.63223 0.41208 0.0
H102 H 0.09181 0.52918 0.41297 0.0
H103 H 0.05045 0.51213 0.40106 0.0
H104 H 0.08556 0.54179 0.38489 0.0
H105 H 0.06566 0.58133 0.25522 0.0
H106 H 0.96263 0.49951 0.28891 0.0
H107 H 0.9418 0.48547 0.32749 0.0
H108 H 0.98699 0.52473 0.40321 0.0
H109 H 0.09208 0.60234 0.36961 0.0
H110 H 0.11256 0.61716 0.33097 0.0
H111 H 0.78282 0.36872 0.39417 0.0
H112 H 0.76596 0.37509 0.36778 0.0
H113 H 0.80061 0.36793 0.36684 0.0
C114 C 0.34087 0.8287 0.58586 0.0
C115 C 0.35401 0.81809 0.56512 0.0
C116 C 0.38013 0.86735 0.54107 0.0
C117 C 0.41349 0.87548 0.54057 0.0
C118 C 0.43869 0.90794 0.5355 0.0
C119 C 0.43027 0.93281 0.5312 0.0
C120 C 0.39653 0.92458 0.53163 0.0
C121 C 0.3718 0.89167 0.53611 0.0
C122 C 0.4743 0.91564 0.53468 0.0
C123 C 0.38662 0.95056 0.52765 0.0
C124 C 0.56856 0.05511 0.65484 0.0
C125 C 0.55457 0.07719 0.64657 0.0
C126 C 0.55088 0.07229 0.60488 0.0
C127 C 0.51881 0.06655 0.60024 0.0
C128 C 0.50209 0.05047 0.57984 0.0
C129 C 0.51756 0.03928 0.564 0.0
C130 C 0.55 0.04511 0.56868 0.0
C131 C 0.56654 0.0623 0.58886 0.0
C132 C 0.46784 0.04532 0.5753 0.0
C133 C 0.56699 0.03268 0.55265 0.0
C134 C 0.60208 0.17915 0.44466 0.0
C135 C 0.56885 0.17007 0.44856 0.0
C136 C 0.54439 0.13651 0.45109 0.0
C137 C 0.55346 0.11167 0.44952 0.0
C138 C 0.58672 0.12072 0.44463 0.0
C139 C 0.61058 0.15444 0.44207 0.0
C140 C 0.50894 0.12759 0.45563 0.0
C141 C 0.59711 0.09481 0.44253 0.0
C142 C 0.37247 0.90164 0.34801 0.0
C143 C 0.40928 0.91521 0.35372 0.0
C144 C 0.44019 0.96646 0.37576 0.0
C145 C 0.43086 0.98837 0.38495 0.0
C146 C 0.44573 0.00643 0.4052 0.0
C147 C 0.4713 0.00315 0.41599 0.0
C148 C 0.48155 0.98171 0.40624 0.0
C149 C 0.46561 0.96334 0.38627 0.0
C150 C 0.43411 0.02898 0.41504 0.0
C151 C 0.50954 0.97851 0.41674 0.0
C152 C 0.45679 0.96757 0.52676 0.0
C153 C 0.47453 0.98719 0.5457 0.0
C154 C 0.49932 0.0204 0.54301 0.0
C155 C 0.50639 0.03473 0.52078 0.0
C156 C 0.53019 0.0684 0.5175 0.0
C157 C 0.53744 0.08208 0.49552 0.0
C158 C 0.52102 0.06266 0.47598 0.0
C159 C 0.52835 0.0763 0.45356 0.0
C160 C 0.5119 0.05626 0.43448 0.0
C161 C 0.4878 0.02277 0.43711 0.0
C162 C 0.47973 0.00876 0.45943 0.0
C163 C 0.45519 0.97534 0.46279 0.0
C164 C 0.44774 0.96173 0.48479 0.0
C165 C 0.46431 0.98109 0.50432 0.0
C166 C 0.4891 0.01485 0.50135 0.0
C167 C 0.49662 0.02876 0.4789 0.0
C168 C 0.66513 0.26289 0.45969 0.0
C169 C 0.62847 0.2383 0.45453 0.0
O170 O 0.35544 0.83605 0.5457 0.0
O171 O 0.42512 0.94946 0.35624 0.0
O172 O 0.62648 0.21138 0.44278 0.0
O173 O 0.56723 0.08768 0.62462 0.0
H174 H 0.3794 0.82453 0.57067 0.0
H175 H 0.35874 0.85505 0.59041 0.0
H176 H 0.31654 0.82678 0.58235 0.0
H177 H 0.33835 0.81312 0.60107 0.0
H178 H 0.41987 0.85642 0.54377 0.0
H179 H 0.34586 0.88494 0.53635 0.0
H180 H 0.48841 0.93242 0.54926 0.0
H181 H 0.47633 0.89284 0.53586 0.0
H182 H 0.48617 0.9288 0.51845 0.0
H183 H 0.35984 0.9409 0.53111 0.0
H184 H 0.40157 0.97258 0.53887 0.0
H185 H 0.39172 0.95903 0.50948 0.0
H186 H 0.52702 0.06189 0.64587 0.0
H187 H 0.59598 0.07024 0.65696 0.0
H188 H 0.56296 0.0353 0.64186 0.0
H189 H 0.55765 0.04244 0.67132 0.0
H190 H 0.50699 0.07498 0.61247 0.0
H191 H 0.5914 0.06705 0.59261 0.0
H192 H 0.44917 0.01851 0.57708 0.0
H193 H 0.46137 0.05968 0.5875 0.0
H194 H 0.46607 0.05277 0.5574 0.0
H195 H 0.5899 0.03493 0.56042 0.0
H196 H 0.54989 0.00621 0.54797 0.0
H197 H 0.5739 0.04733 0.5365 0.0
H198 H 0.61722 0.22977 0.47176 0.0
H199 H 0.56187 0.189 0.44925 0.0
H200 H 0.63623 0.16175 0.43858 0.0
H201 H 0.50125 0.11584 0.47284 0.0
H202 H 0.50559 0.14965 0.45513 0.0
H203 H 0.49217 0.10914 0.44263 0.0
H204 H 0.62407 0.10598 0.43894 0.0
H205 H 0.59128 0.08032 0.45874 0.0
H206 H 0.58283 0.07711 0.42841 0.0
H207 H 0.40847 0.90392 0.37067 0.0
H208 H 0.35934 0.87405 0.34663 0.0
H209 H 0.36066 0.90845 0.36201 0.0
H210 H 0.36897 0.91174 0.33161 0.0
H211 H 0.41143 0.99081 0.37641 0.0
H212 H 0.47349 0.9472 0.37852 0.0
H213 H 0.42862 0.02392 0.43369 0.0
H214 H 0.45418 0.05529 0.41334 0.0
H215 H 0.41156 0.02589 0.4061 0.0
H216 H 0.51677 0.96354 0.40576 0.0
H217 H 0.53163 0.00354 0.41952 0.0
H218 H 0.50181 0.96636 0.43382 0.0
H219 H 0.46895 0.97643 0.56282 0.0
H220 H 0.54355 0.08457 0.5319 0.0
H221 H 0.55616 0.1081 0.49406 0.0
H222 H 0.51789 0.06691 0.41734 0.0
H223 H 0.4415 0.95929 0.44843 0.0
H224 H 0.42881 0.93579 0.4863 0.0
H225 H 0.66771 0.28462 0.46959 0.0
H226 H 0.67589 0.25058 0.47019 0.0
H227 H 0.67958 0.27184 0.44348 0.0
C228 C 0.498 0.29261 0.75512 0.0
C229 C 0.52119 0.3219 0.73983 0.0
C230 C 0.50282 0.35138 0.71408 0.0
C231 C 0.53169 0.38277 0.71401 0.0
C232 C 0.53065 0.41102 0.7066 0.0
C233 C 0.50012 0.40764 0.69906 0.0
C234 C 0.47125 0.37573 0.69834 0.0
C235 C 0.47317 0.34795 0.70556 0.0
C236 C 0.56204 0.44451 0.70703 0.0
C237 C 0.43816 0.37103 0.6905 0.0
C238 C 0.43452 0.53777 0.82274 0.0
C239 C 0.43454 0.51735 0.80286 0.0
C240 C 0.4678 0.52035 0.76952 0.0
C241 C 0.44232 0.49154 0.75882 0.0
C242 C 0.44819 0.47906 0.73842 0.0
C243 C 0.4803 0.4954 0.72862 0.0
C244 C 0.50592 0.52459 0.73913 0.0
C245 C 0.49921 0.53685 0.75938 0.0
C246 C 0.42017 0.448 0.72758 0.0
C247 C 0.54046 0.54245 0.72918 0.0
C248 C 0.44309 0.58559 0.60081 0.0
C249 C 0.41936 0.55238 0.6051 0.0
C250 C 0.42913 0.52906 0.61045 0.0
C251 C 0.46338 0.53924 0.61116 0.0
C252 C 0.48732 0.57259 0.6061 0.0
C253 C 0.47679 0.59534 0.6008 0.0
C254 C 0.4029 0.49351 0.6152 0.0
C255 C 0.52397 0.58415 0.60642 0.0
C256 C 0.49323 0.35319 0.51514 0.0
C257 C 0.51476 0.39001 0.52175 0.0
C258 C 0.49362 0.42102 0.54274 0.0
C259 C 0.46263 0.41301 0.55158 0.0
C260 C 0.46002 0.42946 0.57109 0.0
C261 C 0.48924 0.45523 0.5815 0.0
C262 C 0.52069 0.4642 0.57208 0.0
C263 C 0.52254 0.44684 0.55279 0.0
C264 C 0.42605 0.41932 0.58052 0.0
C265 C 0.55225 0.49229 0.58227 0.0
C266 C 0.49766 0.43753 0.69348 0.0
C267 C 0.49374 0.45475 0.71186 0.0
C268 C 0.48727 0.48068 0.70811 0.0
C269 C 0.48489 0.49007 0.68533 0.0
C270 C 0.47741 0.51538 0.6809 0.0
C271 C 0.47414 0.52373 0.6584 0.0
C272 C 0.47823 0.5071 0.63948 0.0
C273 C 0.47403 0.51474 0.61657 0.0
C274 C 0.47862 0.498 0.59816 0.0
C275 C 0.48669 0.47316 0.60193 0.0
C276 C 0.49044 0.46472 0.62472 0.0
C277 C 0.49771 0.43926 0.62916 0.0
C278 C 0.50058 0.43063 0.65167 0.0
C279 C 0.49615 0.44702 0.67057 0.0
C280 C 0.48944 0.47321 0.66649 0.0
C281 C 0.4863 0.48187 0.64354 0.0
C282 C 0.42774 0.65195 0.61287 0.0
C283 C 0.41262 0.61439 0.6091 0.0
O284 O 0.50261 0.32374 0.72182 0.0
O285 O 0.4948 0.40412 0.52404 0.0
O286 O 0.43409 0.60853 0.59602 0.0
O287 O 0.46303 0.53277 0.78954 0.0
H288 H 0.52949 0.344 0.75111 0.0
H289 H 0.47771 0.29637 0.76178 0.0
H290 H 0.48662 0.26885 0.74523 0.0
H291 H 0.51189 0.29067 0.7701 0.0
H292 H 0.55502 0.38518 0.71948 0.0
H293 H 0.45118 0.32344 0.70529 0.0
H294 H 0.55985 0.46053 0.72035 0.0
H295 H 0.58438 0.4425 0.71096 0.0
H296 H 0.56554 0.45702 0.69014 0.0
H297 H 0.41764 0.34498 0.69264 0.0
H298 H 0.43206 0.38777 0.7004 0.0
H299 H 0.43954 0.37773 0.67203 0.0
H300 H 0.42759 0.49127 0.80729 0.0
H301 H 0.43477 0.52389 0.83853 0.0
H302 H 0.46085 0.55876 0.82498 0.0
H303 H 0.39579 0.54552 0.81511 0.0
H304 H 0.41777 0.4785 0.7663 0.0
H305 H 0.51869 0.5591 0.76765 0.0
H306 H 0.41831 0.45189 0.70888 0.0
H307 H 0.42538 0.42725 0.72937 0.0
H308 H 0.39584 0.44049 0.73575 0.0
H309 H 0.55777 0.56467 0.73954 0.0
H310 H 0.55049 0.52522 0.72829 0.0
H311 H 0.53952 0.55045 0.71131 0.0
H312 H 0.41193 0.60523 0.62681 0.0
H313 H 0.39326 0.54456 0.60375 0.0
H314 H 0.49485 0.62102 0.59701 0.0
H315 H 0.40639 0.48653 0.63285 0.0
H316 H 0.37732 0.48951 0.61371 0.0
H317 H 0.40554 0.4766 0.60291 0.0
H318 H 0.5395 0.61119 0.60287 0.0
H319 H 0.53112 0.57885 0.62349 0.0
H320 H 0.52944 0.57014 0.59326 0.0
H321 H 0.52457 0.38898 0.53896 0.0
H322 H 0.50884 0.34132 0.51399 0.0
H323 H 0.47406 0.34001 0.52855 0.0
H324 H 0.48032 0.34979 0.49839 0.0
H325 H 0.44047 0.39334 0.54337 0.0
H326 H 0.54638 0.4539 0.5452 0.0
H327 H 0.42543 0.41502 0.59939 0.0
H328 H 0.42058 0.43974 0.57772 0.0
H329 H 0.40617 0.39641 0.57208 0.0
H330 H 0.57451 0.49765 0.57199 0.0
H331 H 0.55041 0.51521 0.58333 0.0
H332 H 0.55567 0.48582 0.60008 0.0
H333 H 0.49447 0.44701 0.72939 0.0
H334 H 0.47379 0.52885 0.6948 0.0
H335 H 0.46819 0.54329 0.65601 0.0
H336 H 0.4752 0.50392 0.58064 0.0
H337 H 0.50104 0.42556 0.61529 0.0
H338 H 0.50612 0.41079 0.65408 0.0
H339 H 0.43217 0.66559 0.59642 0.0
H340 H 0.41099 0.65692 0.6237 0.0
H341 H 0.45197 0.6621 0.622 0.0
C342 C 0.21114 0.49175 0.94294 0.0
C343 C 0.20295 0.50939 0.92397 0.0
C344 C 0.15144 0.48473 0.90076 0.0
C345 C 0.14924 0.51355 0.8977 0.0
C346 C 0.12003 0.51153 0.88899 0.0
C347 C 0.09274 0.48009 0.88297 0.0
C348 C 0.09546 0.45121 0.88511 0.0
C349 C 0.12491 0.45399 0.89385 0.0
C350 C 0.11814 0.54286 0.88646 0.0
C351 C 0.06698 0.41731 0.87863 0.0
C352 C 0.87734 0.42076 0.99105 0.0
C353 C 0.89223 0.41878 0.96884 0.0
C354 C 0.94125 0.4514 0.94513 0.0
C355 C 0.9373 0.42435 0.93168 0.0
C356 C 0.95853 0.42921 0.91312 0.0
C357 C 0.98356 0.46188 0.9074 0.0
C358 C 0.98743 0.48917 0.92078 0.0
C359 C 0.96644 0.48348 0.93965 0.0
C360 C 0.95436 0.39935 0.89978 0.0
C361 C 0.01382 0.52435 0.91518 0.0
C362 C 0.87064 0.43864 0.77295 0.0
C363 C 0.87761 0.41328 0.77787 0.0
C364 C 0.90952 0.42088 0.78507 0.0
C365 C 0.9349 0.45461 0.7872 0.0
C366 C 0.92798 0.48023 0.78176 0.0
C367 C 0.89589 0.47184 0.77446 0.0
C368 C 0.91627 0.39294 0.79011 0.0
C369 C 0.95446 0.5164 0.78366 0.0
C370 C 0.17056 0.55809 0.71576 0.0
C371 C 0.13901 0.54633 0.70102 0.0
C372 C 0.09368 0.50684 0.72605 0.0
C373 C 0.07139 0.47316 0.73004 0.0
C374 C 0.04908 0.46293 0.74857 0.0
C375 C 0.04886 0.48714 0.76332 0.0
C376 C 0.07122 0.52131 0.75937 0.0
C377 C 0.09365 0.53079 0.741 0.0
C378 C 0.02569 0.42629 0.75235 0.0
C379 C 0.07125 0.54792 0.77446 0.0
C380 C 0.06061 0.47699 0.87583 0.0
C381 C 0.0379 0.47232 0.89318 0.0
C382 C 0.0064 0.46739 0.88792 0.0
C383 C 0.99699 0.46686 0.86463 0.0
C384 C 0.96536 0.4616 0.85866 0.0
C385 C 0.956 0.4601 0.83567 0.0
C386 C 0.97819 0.46456 0.81778 0.0
C387 C 0.96894 0.46301 0.79436 0.0
C388 C 0.99228 0.46962 0.77707 0.0
C389 C 0.02461 0.47705 0.78245 0.0
C390 C 0.03376 0.47677 0.80569 0.0
C391 C 0.06549 0.48228 0.81163 0.0
C392 C 0.07434 0.48228 0.83459 0.0
C393 C 0.05192 0.47711 0.85246 0.0
C394 C 0.01986 0.4717 0.84686 0.0
C395 C 0.01058 0.47097 0.82343 0.0
C396 C 0.79196 0.43194 0.77972 0.0
C397 C 0.81099 0.4129 0.77813 0.0
O398 O 0.17864 0.48529 0.90993 0.0
O399 O 0.11449 0.51487 0.70769 0.0
O400 O 0.84002 0.43164 0.76587 0.0
O401 O 0.92159 0.44754 0.96354 0.0
H402 H 0.1922 0.52257 0.93335 0.0
H403 H 0.18841 0.47534 0.95296 0.0
H404 H 0.22079 0.4762 0.93543 0.0
H405 H 0.23005 0.51025 0.955 0.0
H406 H 0.17018 0.53759 0.90193 0.0
H407 H 0.12709 0.43196 0.89587 0.0
H408 H 0.09854 0.54167 0.89798 0.0
H409 H 0.14206 0.56559 0.89077 0.0
H410 H 0.11104 0.54489 0.86849 0.0
H411 H 0.07338 0.3974 0.88072 0.0
H412 H 0.04514 0.41134 0.88956 0.0
H413 H 0.05958 0.4174 0.86042 0.0
H414 H 0.87465 0.40937 0.95389 0.0
H415 H 0.87887 0.38461 0.01095 0.0
H416 H 0.89033 0.4478 0.99627 0.0
H417 H 0.85335 0.4196 0.98611 0.0
H418 H 0.91801 0.39931 0.93575 0.0
H419 H 0.9694 0.50417 0.95014 0.0
H420 H 0.97869 0.40051 0.89792 0.0
H421 H 0.93668 0.37552 0.90822 0.0
H422 H 0.94491 0.3994 0.8822 0.0
H423 H 0.01115 0.54304 0.92555 0.0
H424 H 0.03873 0.5275 0.91868 0.0
H425 H 0.01271 0.52941 0.89659 0.0
H426 H 0.81727 0.4118 0.7964 0.0
H427 H 0.85832 0.38761 0.77554 0.0
H428 H 0.89023 0.49119 0.7702 0.0
H429 H 0.92389 0.39432 0.80842 0.0
H430 H 0.89419 0.36806 0.78683 0.0
H431 H 0.93714 0.39561 0.7793 0.0
H432 H 0.94448 0.53333 0.78041 0.0
H433 H 0.96594 0.5217 0.80111 0.0
H434 H 0.9744 0.52191 0.77098 0.0
H435 H 0.13126 0.56497 0.70426 0.0
H436 H 0.19154 0.5811 0.70844 0.0
H437 H 0.16623 0.5639 0.73356 0.0
H438 H 0.17782 0.53876 0.7171 0.0
H439 H 0.07156 0.4548 0.71853 0.0
H440 H 0.1108 0.55699 0.73855 0.0
H441 H 0.0272 0.41977 0.77055 0.0
H442 H 0.99977 0.42042 0.74907 0.0
H443 H 0.03123 0.41053 0.74083 0.0
H444 H 0.08759 0.57334 0.76762 0.0
H445 H 0.04564 0.54375 0.77607 0.0
H446 H 0.08007 0.54664 0.79202 0.0
H447 H 0.0447 0.47207 0.91107 0.0
H448 H 0.94735 0.45827 0.87171 0.0
H449 H 0.93122 0.45563 0.83209 0.0
H450 H 0.98531 0.46945 0.75917 0.0
H451 H 0.08375 0.48645 0.79857 0.0
H452 H 0.09905 0.48655 0.83817 0.0
H453 H 0.76834 0.41701 0.78926 0.0
H454 H 0.80719 0.45571 0.78924 0.0
H455 H 0.78618 0.43807 0.76249 0.0
C456 C 0.51459 0.83771 0.88596 0.0
C457 C 0.49477 0.8259 0.90849 0.0
C458 C 0.52007 0.87345 0.93504 0.0
C459 C 0.49465 0.88127 0.93698 0.0
C460 C 0.50156 0.91266 0.94504 0.0
C461 C 0.53454 0.93666 0.95114 0.0
C462 C 0.56004 0.92852 0.94969 0.0
C463 C 0.55228 0.89674 0.94202 0.0
C464 C 0.47367 0.92028 0.94688 0.0
C465 C 0.59559 0.95358 0.9558 0.0
C466 C 0.60616 0.1286 0.8268 0.0
C467 C 0.6039 0.1061 0.84586 0.0
C468 C 0.57722 0.08554 0.88308 0.0
C469 C 0.6002 0.07652 0.89109 0.0
C470 C 0.59462 0.05858 0.91156 0.0
C471 C 0.56493 0.04839 0.92399 0.0
C472 C 0.5417 0.05741 0.91603 0.0
C473 C 0.54854 0.07649 0.89589 0.0
C474 C 0.62027 0.04986 0.91957 0.0
C475 C 0.50931 0.04617 0.9284 0.0
C476 C 0.6028 0.17157 0.05639 0.0
C477 C 0.62781 0.16404 0.05161 0.0
C478 C 0.61973 0.13179 0.04478 0.0
C479 C 0.58593 0.10665 0.04306 0.0
C480 C 0.56069 0.11413 0.04838 0.0
C481 C 0.56953 0.14655 0.05518 0.0
C482 C 0.64724 0.12445 0.03973 0.0
C483 C 0.52443 0.08783 0.04698 0.0
C484 C 0.56579 0.89422 0.13426 0.0
C485 C 0.54271 0.90843 0.13013 0.0
C486 C 0.56127 0.95952 0.10857 0.0
C487 C 0.59145 0.9813 0.09815 0.0
C488 C 0.59257 0.99957 0.07864 0.0
C489 C 0.56275 0.99661 0.06985 0.0
C490 C 0.53215 0.97511 0.08075 0.0
C491 C 0.53174 0.9566 0.09998 0.0
C492 C 0.62568 0.02228 0.06757 0.0
C493 C 0.50007 0.97221 0.07231 0.0
C494 C 0.54276 0.9709 0.95764 0.0
C495 C 0.54741 0.99289 0.93979 0.0
C496 C 0.55736 0.0262 0.94422 0.0
C497 C 0.56214 0.03793 0.96725 0.0
C498 C 0.57235 0.07131 0.97242 0.0
C499 C 0.57681 0.08251 0.99516 0.0
C500 C 0.57199 0.06093 0.01357 0.0
C501 C 0.57687 0.07215 0.03671 0.0
C502 C 0.57293 0.05036 0.05454 0.0
C503 C 0.56405 0.01735 0.05002 0.0
C504 C 0.55819 0.00536 0.02704 0.0
C505 C 0.54866 0.97214 0.02186 0.0
C506 C 0.54306 0.96063 0.99918 0.0
C507 C 0.54744 0.98209 0.98078 0.0
C508 C 0.55707 0.01571 0.98559 0.0
C509 C 0.56228 0.0273 0.00875 0.0
C510 C 0.61469 0.25306 0.05009 0.0
C511 C 0.63126 0.23169 0.05184 0.0
O512 O 0.51433 0.84343 0.92725 0.0
O513 O 0.56147 0.94259 0.12747 0.0
O514 O 0.61007 0.20243 0.06314 0.0
O515 O 0.58179 0.10264 0.86312 0.0
H516 H 0.47482 0.8319 0.90573 0.0
H517 H 0.52295 0.86444 0.88325 0.0
H518 H 0.5369 0.83497 0.88586 0.0
H519 H 0.49852 0.82342 0.87112 0.0
H520 H 0.46935 0.86289 0.9326 0.0
H521 H 0.57157 0.89019 0.9408 0.0
H522 H 0.47733 0.93938 0.93395 0.0
H523 H 0.44892 0.89789 0.94388 0.0
H524 H 0.47395 0.93068 0.96421 0.0
H525 H 0.61283 0.94411 0.95209 0.0
H526 H 0.60382 0.97691 0.946 0.0
H527 H 0.59742 0.95987 0.97442 0.0
H528 H 0.60042 0.08154 0.84019 0.0
H529 H 0.65463 0.16684 0.82889 0.0
H530 H 0.59593 0.11203 0.81117 0.0
H531 H 0.58434 0.13266 0.82871 0.0
H532 H 0.62259 0.08334 0.88148 0.0
H533 H 0.53096 0.08356 0.88964 0.0
H534 H 0.62448 0.05388 0.93845 0.0
H535 H 0.61107 0.02314 0.91594 0.0
H536 H 0.64441 0.06476 0.91064 0.0
H537 H 0.49259 0.05259 0.91878 0.0
H538 H 0.49625 0.01882 0.93102 0.0
H539 H 0.51431 0.05812 0.94567 0.0
H540 H 0.63313 0.22592 0.03357 0.0
H541 H 0.65355 0.18305 0.05384 0.0
H542 H 0.55048 0.15265 0.05935 0.0
H543 H 0.6442 0.11415 0.02201 0.0
H544 H 0.67226 0.14695 0.04128 0.0
H545 H 0.64572 0.1053 0.05186 0.0
H546 H 0.5078 0.09795 0.05092 0.0
H547 H 0.51846 0.07664 0.02943 0.0
H548 H 0.51923 0.0676 0.05934 0.0
H549 H 0.53064 0.89698 0.11347 0.0
H550 H 0.55096 0.86668 0.13567 0.0
H551 H 0.58303 0.90044 0.11947 0.0
H552 H 0.58092 0.90433 0.15015 0.0
H553 H 0.61413 0.98361 0.10521 0.0
H554 H 0.50862 0.94061 0.10873 0.0
H555 H 0.62414 0.01771 0.04867 0.0
H556 H 0.63224 0.04855 0.07032 0.0
H557 H 0.64591 0.01888 0.07483 0.0
H558 H 0.47862 0.95554 0.08331 0.0
H559 H 0.50239 0.99721 0.07199 0.0
H560 H 0.49492 0.96234 0.0544 0.0
H561 H 0.54418 0.98416 0.92207 0.0
H562 H 0.57682 0.08912 0.95893 0.0
H563 H 0.58441 0.10841 0.99812 0.0
H564 H 0.57719 0.05934 0.07223 0.0
H565 H 0.54528 0.95461 0.03531 0.0
H566 H 0.53551 0.93475 0.99622 0.0
H567 H 0.63144 0.27686 0.04123 0.0
H568 H 0.59133 0.23961 0.03988 0.0
H569 H 0.60832 0.25869 0.06731 0.0
C570 C 0.75179 0.5491 0.06215 0.0
C571 C 0.71935 0.5276 0.07513 0.0
C572 C 0.68799 0.54654 0.09845 0.0
C573 C 0.65659 0.51775 0.09683 0.0
C574 C 0.62783 0.51834 0.10346 0.0
C575 C 0.63065 0.54833 0.11182 0.0
C576 C 0.66242 0.57712 0.11401 0.0
C577 C 0.6907 0.57564 0.10758 0.0
C578 C 0.59445 0.48701 0.10145 0.0
C579 C 0.66649 0.60966 0.1227 0.0
C580 C 0.47336 0.60327 0.9981 0.0
C581 C 0.49236 0.60676 0.01963 0.0
C582 C 0.50788 0.57452 0.04466 0.0
C583 C 0.53289 0.60223 0.05663 0.0
C584 C 0.54965 0.5981 0.07535 0.0
C585 C 0.54072 0.56562 0.0826 0.0
C586 C 0.51578 0.5377 0.07048 0.0
C587 C 0.49989 0.54257 0.05152 0.0
C588 C 0.5768 0.62845 0.08745 0.0
C589 C 0.50574 0.50272 0.07769 0.0
C590 C 0.45382 0.60462 0.21097 0.0
C591 C 0.48754 0.62731 0.2075 0.0
C592 C 0.50975 0.61616 0.20208 0.0
C593 C 0.4979 0.58155 0.20046 0.0
C594 C 0.46401 0.55861 0.20467 0.0
C595 C 0.44241 0.57052 0.21007 0.0
C596 C 0.54594 0.6413 0.19832 0.0
C597 C 0.45065 0.52158 0.2034 0.0
C598 C 0.61244 0.46231 0.27471 0.0
C599 C 0.59374 0.47385 0.29072 0.0
C600 C 0.59021 0.51573 0.26674 0.0
C601 C 0.6043 0.54986 0.26289 0.0
C602 C 0.59462 0.56189 0.24396 0.0
C603 C 0.56985 0.53908 0.22869 0.0
C604 C 0.55504 0.50449 0.23265 0.0
C605 C 0.56554 0.49316 0.25148 0.0
C606 C 0.61089 0.59892 0.24025 0.0
C607 C 0.52793 0.47941 0.21702 0.0
C608 C 0.60048 0.55029 0.11728 0.0
C609 C 0.58381 0.55522 0.09898 0.0
C610 C 0.55735 0.5608 0.10291 0.0
C611 C 0.54762 0.56236 0.12575 0.0
C612 C 0.52222 0.56959 0.13042 0.0
C613 C 0.51372 0.57229 0.15299 0.0
C614 C 0.52951 0.56672 0.17174 0.0
C615 C 0.52117 0.56948 0.19475 0.0
C616 C 0.53536 0.56114 0.21292 0.0
C617 C 0.55867 0.55111 0.20881 0.0
C618 C 0.5693 0.55075 0.18604 0.0
C619 C 0.59449 0.54321 0.18141 0.0
C620 C 0.60482 0.54307 0.15891 0.0
C621 C 0.58989 0.54985 0.14018 0.0
C622 C 0.56385 0.55665 0.14443 0.0
C623 C 0.55421 0.55803 0.16742 0.0
C624 C 0.39103 0.62499 0.20037 0.0
C625 C 0.42814 0.63879 0.20495 0.0
O626 O 0.71631 0.54721 0.09184 0.0
O627 O 0.60116 0.5059 0.28527 0.0
O628 O 0.43203 0.61484 0.2164 0.0
O629 O 0.49107 0.57756 0.02646 0.0
H630 H 0.69959 0.52099 0.06202 0.0
H631 H 0.75157 0.57085 0.05441 0.0
H632 H 0.77349 0.55842 0.07402 0.0
H633 H 0.75472 0.53454 0.04803 0.0
H634 H 0.65451 0.49478 0.09068 0.0
H635 H 0.71513 0.59756 0.10909 0.0
H636 H 0.57948 0.49027 0.08786 0.0
H637 H 0.59672 0.46494 0.097 0.0
H638 H 0.5807 0.48222 0.11793 0.0
H639 H 0.69262 0.63035 0.12161 0.0
H640 H 0.65044 0.61643 0.11258 0.0
H641 H 0.65851 0.60695 0.14096 0.0
H642 H 0.48733 0.61938 0.0342 0.0
H643 H 0.5098 0.63429 0.9753 0.0
H644 H 0.45688 0.57579 0.99482 0.0
H645 H 0.45253 0.60748 0.00354 0.0
H646 H 0.5396 0.62718 0.05142 0.0
H647 H 0.48076 0.52136 0.04212 0.0
H648 H 0.56864 0.63009 0.10513 0.0
H649 H 0.59952 0.6264 0.08909 0.0
H650 H 0.58323 0.65183 0.07822 0.0
H651 H 0.48452 0.48366 0.06736 0.0
H652 H 0.52715 0.49859 0.07563 0.0
H653 H 0.49878 0.49921 0.0962 0.0
H654 H 0.43876 0.64208 0.18743 0.0
H655 H 0.49663 0.6536 0.20972 0.0
H656 H 0.41637 0.55324 0.21333 0.0
H657 H 0.55305 0.63886 0.18047 0.0
H658 H 0.55141 0.66727 0.20102 0.0
H659 H 0.56162 0.63632 0.21028 0.0
H660 H 0.42334 0.50704 0.20599 0.0
H661 H 0.4566 0.51488 0.18638 0.0
H662 H 0.46287 0.51432 0.21682 0.0
H663 H 0.56712 0.45596 0.28763 0.0
H664 H 0.60952 0.43833 0.28081 0.0
H665 H 0.60213 0.45831 0.25695 0.0
H666 H 0.63928 0.48097 0.27369 0.0
H667 H 0.62323 0.56714 0.27472 0.0
H668 H 0.5541 0.46665 0.25405 0.0
H669 H 0.62043 0.60513 0.22235 0.0
H670 H 0.59219 0.60689 0.24248 0.0
H671 H 0.63174 0.61327 0.2525 0.0
H672 H 0.51662 0.45365 0.22375 0.0
H673 H 0.50807 0.48584 0.21484 0.0
H674 H 0.53837 0.48003 0.19972 0.0
H675 H 0.59192 0.55531 0.08144 0.0
H676 H 0.50896 0.57379 0.11667 0.0
H677 H 0.49436 0.57846 0.15555 0.0
H678 H 0.52789 0.56211 0.23049 0.0
H679 H 0.6068 0.53775 0.19517 0.0
H680 H 0.6245 0.53737 0.15634 0.0
H681 H 0.38709 0.64363 0.19105 0.0
H682 H 0.38104 0.60219 0.1895 0.0
H683 H 0.37681 0.6184 0.21673 0.0
In684 In 0.64283 0.41387 0.41379 0.0
O685 O 0.69777 0.44449 0.42446 0.0
O686 O 0.68525 0.41665 0.39309 0.0
C687 C 0.60893 0.42085 0.44867 0.0
C688 C 0.62771 0.44112 0.37835 0.0
C689 C 0.625 0.35025 0.42178 0.0
O690 O 0.64017 0.439 0.44716 0.0
O691 O 0.59514 0.40048 0.43231 0.0
O692 O 0.61498 0.35867 0.40413 0.0
O693 O 0.64338 0.37364 0.43534 0.0
C694 C 0.70762 0.43503 0.40724 0.0
O695 O 0.61822 0.41047 0.37924 0.0
O696 O 0.64455 0.45813 0.39547 0.0
In697 In 0.23687 0.60893 0.5753 0.0
O698 O 0.26434 0.58078 0.56613 0.0
O699 O 0.28262 0.61564 0.5939 0.0
C700 C 0.19613 0.59842 0.53928 0.0
C701 C 0.19647 0.57793 0.61113 0.0
C702 C 0.27399 0.67461 0.56845 0.0
O703 O 0.21311 0.58406 0.54069 0.0
O704 O 0.1985 0.6162 0.55644 0.0
O705 O 0.2547 0.66265 0.58547 0.0
O706 O 0.27471 0.65355 0.55499 0.0
C707 C 0.28635 0.59545 0.5815 0.0
O708 O 0.21591 0.60894 0.61057 0.0
O709 O 0.19681 0.56226 0.59341 0.0
In710 In 0.63885 0.23379 0.74592 0.0
O711 O 0.69139 0.26932 0.73267 0.0
O712 O 0.67828 0.27746 0.7663 0.0
C713 C 0.61213 0.186 0.71329 0.0
C714 C 0.63608 0.19629 0.78208 0.0
C715 C 0.60634 0.2672 0.73902 0.0
O716 O 0.64306 0.20613 0.71441 0.0
O717 O 0.5951 0.19004 0.72847 0.0
O718 O 0.60409 0.25221 0.75765 0.0
O719 O 0.62477 0.2653 0.7239 0.0
C720 C 0.70004 0.28695 0.7508 0.0
O721 O 0.61632 0.2073 0.77991 0.0
O722 O 0.65689 0.20406 0.76607 0.0
In723 In 0.40867 0.61537 0.90442 0.0
O724 O 0.35815 0.57429 0.91716 0.0
O725 O 0.35914 0.61117 0.89492 0.0
C726 C 0.44567 0.61317 0.93945 0.0
C727 C 0.41275 0.58445 0.86621 0.0
C728 C 0.43536 0.68181 0.9056 0.0
O729 O 0.41842 0.61223 0.94261 0.0
O730 O 0.45384 0.61399 0.91867 0.0
O731 O 0.44432 0.66764 0.891 0.0
O732 O 0.41271 0.66255 0.91908 0.0
C733 C 0.34191 0.58522 0.9065 0.0
O734 O 0.4152 0.61275 0.8657 0.0
O735 O 0.40902 0.5721 0.88605 0.0
In736 In 0.80096 0.40506 0.08456 0.0
O737 O 0.81561 0.4061 0.12226 0.0
O738 O 0.8453 0.44881 0.10192 0.0
C739 C 0.75341 0.34082 0.08111 0.0
C740 C 0.7673 0.43819 0.08575 0.0
C741 C 0.83912 0.4059 0.04948 0.0
O742 O 0.77491 0.35085 0.09706 0.0
O743 O 0.75615 0.36279 0.06723 0.0
O744 O 0.8165 0.41304 0.0469 0.0
O745 O 0.84323 0.39903 0.0698 0.0
C746 C 0.83986 0.43546 0.1215 0.0
O747 O 0.7909 0.44575 0.07191 0.0
O748 O 0.76063 0.41412 0.09888 0.0
In749 In 0.42202 0.8062 0.24325 0.0
O750 O 0.44722 0.77702 0.25487 0.0
O751 O 0.41994 0.7634 0.2232 0.0
C752 C 0.4328 0.84839 0.27851 0.0
C753 C 0.45623 0.84628 0.20802 0.0
C754 C 0.3563 0.7666 0.24844 0.0
O755 O 0.44741 0.83164 0.27729 0.0
O756 O 0.41433 0.84494 0.26154 0.0
O757 O 0.36858 0.78437 0.23074 0.0
O758 O 0.377 0.76849 0.26334 0.0
C759 C 0.43713 0.75793 0.23746 0.0
O760 O 0.42505 0.83284 0.20953 0.0
O761 O 0.47015 0.84065 0.2247 0.0
C762 C 0.26641 0.69814 0.24058 0.0
C763 C 0.25018 0.71112 0.25431 0.0
C764 C 0.30418 0.75565 0.2683 0.0
C765 C 0.32012 0.7458 0.25185 0.0
N766 N 0.3178 0.70689 0.22332 0.0
N767 N 0.25425 0.74001 0.29 0.0
C768 C 0.30165 0.71649 0.23849 0.0
C769 C 0.26919 0.73623 0.27091 0.0
N770 N 0.24809 0.66751 0.23052 0.0
N771 N 0.32219 0.7845 0.2806 0.0
H772 H 0.22991 0.723 0.29448 0.0
H773 H 0.26725 0.75647 0.3034 0.0
H774 H 0.34797 0.79922 0.27954 0.0
H775 H 0.31137 0.79524 0.29054 0.0
H776 H 0.25822 0.65541 0.2214 0.0
H777 H 0.22283 0.65218 0.2337 0.0
H778 H 0.30584 0.68821 0.21101 0.0
H779 H 0.34365 0.71874 0.22233 0.0
C780 C 0.59604 0.26927 0.45372 0.0
C781 C 0.6134 0.25631 0.44116 0.0
C782 C 0.62929 0.29997 0.41213 0.0
C783 C 0.61643 0.3156 0.42643 0.0
N784 N 0.58485 0.31472 0.45949 0.0
N785 N 0.6302 0.2497 0.40291 0.0
C786 C 0.59845 0.29977 0.44665 0.0
C787 C 0.62483 0.26852 0.41857 0.0
N788 N 0.57632 0.25173 0.47182 0.0
N789 N 0.64793 0.31619 0.39327 0.0
H790 H 0.62377 0.22514 0.4058 0.0
H791 H 0.63608 0.25644 0.38573 0.0
H792 H 0.65163 0.33912 0.3877 0.0
H793 H 0.6619 0.30815 0.38413 0.0
H794 H 0.56139 0.25849 0.48096 0.0
H795 H 0.57182 0.22815 0.47632 0.0
H796 H 0.57512 0.30725 0.47592 0.0
H797 H 0.5842 0.33573 0.45389 0.0
C798 C 0.37307 0.6091 0.57565 0.0
C799 C 0.37776 0.59924 0.5981 0.0
C800 C 0.31891 0.57851 0.60672 0.0
C801 C 0.31499 0.59029 0.58515 0.0
N802 N 0.33454 0.60709 0.54642 0.0
N803 N 0.35071 0.56123 0.62988 0.0
C804 C 0.34074 0.60202 0.56865 0.0
C805 C 0.34928 0.57964 0.61202 0.0
N806 N 0.39952 0.62689 0.56141 0.0
N807 N 0.29375 0.56685 0.62245 0.0
H808 H 0.37141 0.55906 0.63367 0.0
H809 H 0.32987 0.54441 0.63914 0.0
H810 H 0.27029 0.56332 0.61856 0.0
H811 H 0.29671 0.56236 0.63964 0.0
H812 H 0.39835 0.63916 0.54676 0.0
H813 H 0.42336 0.6312 0.56451 0.0
H814 H 0.35106 0.61191 0.53293 0.0
H815 H 0.31162 0.60346 0.54088 0.0
C816 C 0.77351 0.37482 0.74549 0.0
C817 C 0.78914 0.37809 0.76735 0.0
C818 C 0.75327 0.3176 0.77273 0.0
C819 C 0.73317 0.31678 0.75412 0.0
N820 N 0.7229 0.34489 0.72306 0.0
N821 N 0.79654 0.3502 0.80038 0.0
C822 C 0.74323 0.34524 0.74028 0.0
C823 C 0.78012 0.34869 0.78041 0.0
N824 N 0.78742 0.39971 0.72958 0.0
N825 N 0.74712 0.28836 0.78264 0.0
H826 H 0.81953 0.37021 0.80506 0.0
H827 H 0.78726 0.33125 0.81255 0.0
H828 H 0.72788 0.26523 0.77711 0.0
H829 H 0.76277 0.28656 0.79469 0.0
H830 H 0.77868 0.39692 0.71269 0.0
H831 H 0.8096 0.42183 0.73222 0.0
H832 H 0.72695 0.36627 0.71447 0.0
H833 H 0.70053 0.32379 0.71855 0.0
C834 C 0.44487 0.76738 0.91293 0.0
C835 C 0.47999 0.78834 0.9121 0.0
C836 C 0.48557 0.73826 0.9114 0.0
C837 C 0.45087 0.71837 0.90758 0.0
N838 N 0.39769 0.71466 0.90167 0.0
N839 N 0.53373 0.79119 0.9168 0.0
C840 C 0.43054 0.73308 0.9076 0.0
C841 C 0.5003 0.77327 0.91309 0.0
N842 N 0.42519 0.77955 0.92053 0.0
N843 N 0.50485 0.72387 0.91398 0.0
H844 H 0.54723 0.81672 0.91996 0.0
H845 H 0.54723 0.81672 0.91996 0.0
H846 H 0.49524 0.69821 0.91431 0.0
H847 H 0.53051 0.73775 0.91659 0.0
H848 H 0.39972 0.76456 0.92312 0.0
H849 H 0.43482 0.80323 0.92771 0.0
H850 H 0.3827 0.72517 0.89908 0.0
H851 H 0.38625 0.68959 0.89701 0.0
C852 C 0.70704 0.46805 0.07062 0.0
C853 C 0.71962 0.49687 0.08489 0.0
C854 C 0.75735 0.4814 0.10369 0.0
C855 C 0.74887 0.45639 0.08672 0.0
N856 N 0.71506 0.42417 0.05458 0.0
N857 N 0.74343 0.51945 0.12235 0.0
C858 C 0.72315 0.44885 0.07055 0.0
C859 C 0.74089 0.50026 0.1037 0.0
N860 N 0.67875 0.45826 0.05799 0.0
N861 N 0.78203 0.48793 0.11929 0.0
H862 H 0.72779 0.5291 0.12489 0.0
H863 H 0.75702 0.52139 0.13715 0.0
H864 H 0.79321 0.47334 0.12068 0.0
H865 H 0.79285 0.50885 0.12996 0.0
H866 H 0.66677 0.43622 0.04852 0.0
H867 H 0.66465 0.46993 0.05932 0.0
H868 H 0.6996 0.42009 0.04046 0.0
H869 H 0.72534 0.40869 0.0547 0.0
C870 C 0.34847 0.76085 0.56006 0.0
C871 C 0.33296 0.78057 0.56026 0.0
C872 C 0.27817 0.72953 0.56021 0.0
C873 C 0.29414 0.71076 0.56436 0.0
N874 N 0.34441 0.70848 0.57015 0.0
N875 N 0.2835 0.78266 0.55018 0.0
C876 C 0.32925 0.72629 0.56451 0.0
C877 C 0.29781 0.76464 0.55729 0.0
N878 N 0.38111 0.77469 0.55402 0.0
N879 N 0.24421 0.71377 0.55951 0.0
H880 H 0.29703 0.80793 0.54647 0.0
H881 H 0.2586 0.7723 0.54563 0.0
H882 H 0.22914 0.68794 0.55963 0.0
H883 H 0.23066 0.72605 0.55976 0.0
H884 H 0.39298 0.7609 0.55175 0.0
H885 H 0.39493 0.79892 0.54792 0.0
H886 H 0.36984 0.71949 0.57332 0.0
H887 H 0.33138 0.68308 0.57372 0.0
C888 C 0.54397 0.29053 0.71645 0.0
C889 C 0.55013 0.31713 0.73176 0.0
C890 C 0.59893 0.31601 0.74726 0.0
C891 C 0.58868 0.2858 0.73517 0.0
N892 N 0.55101 0.24305 0.70892 0.0
N893 N 0.59184 0.36375 0.75368 0.0
C894 C 0.56143 0.27299 0.71966 0.0
C895 C 0.58027 0.33254 0.74476 0.0
N896 N 0.523 0.28317 0.69804 0.0
N897 N 0.62594 0.32826 0.76166 0.0
H898 H 0.5806 0.37786 0.75036 0.0
H899 H 0.61462 0.37753 0.76201 0.0
H900 H 0.64133 0.31793 0.76276 0.0
H901 H 0.63247 0.34766 0.77332 0.0
H902 H 0.51953 0.26565 0.68546 0.0
H903 H 0.5132 0.29795 0.69299 0.0
H904 H 0.5286 0.23017 0.69996 0.0
H905 H 0.56339 0.22962 0.71047 0.0
C906 C 0.25106 0.52026 0.89667 0.0
C907 C 0.23519 0.53318 0.91101 0.0
C908 C 0.28926 0.58364 0.91802 0.0
C909 C 0.3052 0.5683 0.90683 0.0
N910 N 0.30238 0.52286 0.88489 0.0
N911 N 0.23792 0.5832 0.92581 0.0
C912 C 0.28638 0.53693 0.89586 0.0
C913 C 0.25394 0.56681 0.91875 0.0
N914 N 0.23259 0.49369 0.88245 0.0
N915 N 0.30791 0.61337 0.92924 0.0
H916 H 0.21228 0.5728 0.92487 0.0
H917 H 0.25 0.60849 0.92971 0.0
H918 H 0.33382 0.62665 0.92895 0.0
H919 H 0.29797 0.6238 0.94031 0.0
H920 H 0.24273 0.48429 0.8707 0.0
H921 H 0.20743 0.48414 0.87937 0.0
H922 H 0.29077 0.49809 0.8796 0.0
H923 H 0.32794 0.53562 0.88208 0.0
C924 C 0.66781 0.26527 0.0863 0.0
C925 C 0.66539 0.2512 0.06391 0.0
C926 C 0.72597 0.28713 0.05987 0.0
C927 C 0.72588 0.30624 0.07878 0.0
N928 N 0.69778 0.31372 0.11097 0.0
N929 N 0.69453 0.2452 0.03108 0.0
C930 C 0.69735 0.29495 0.09262 0.0
C931 C 0.69529 0.26062 0.05139 0.0
N932 N 0.64207 0.25065 0.10151 0.0
N933 N 0.75565 0.29431 0.05028 0.0
H934 H 0.67449 0.2227 0.02563 0.0
H935 H 0.71411 0.25478 0.01942 0.0
H936 H 0.77831 0.31342 0.0566 0.0
H937 H 0.75823 0.2797 0.03772 0.0
H938 H 0.64408 0.25809 0.11868 0.0
H939 H 0.61976 0.22909 0.09797 0.0
H940 H 0.67648 0.30939 0.11977 0.0
H941 H 0.71933 0.33493 0.11662 0.0
C942 C 0.42963 0.67288 0.24062 0.0
C943 C 0.44247 0.67186 0.21847 0.0
C944 C 0.46278 0.73172 0.21393 0.0
C945 C 0.44434 0.73067 0.23363 0.0
N946 N 0.4101 0.70101 0.26601 0.0
N947 N 0.48343 0.70371 0.18945 0.0
C948 C 0.42857 0.70179 0.24744 0.0
C949 C 0.46294 0.70241 0.20678 0.0
N950 N 0.4189 0.64663 0.25539 0.0
N951 N 0.47888 0.7605 0.2015 0.0
H952 H 0.48604 0.68357 0.18458 0.0
H953 H 0.50082 0.72554 0.18144 0.0
H954 H 0.48124 0.78293 0.20724 0.0
H955 H 0.48883 0.76217 0.18519 0.0
H956 H 0.41291 0.64765 0.27254 0.0
H957 H 0.41952 0.62506 0.2518 0.0
H958 H 0.39377 0.67929 0.27466 0.0
H959 H 0.40928 0.72179 0.27197 0.0
C960 C 0.78351 0.42539 0.413 0.0
C961 C 0.79655 0.43506 0.3903 0.0
C962 C 0.75998 0.45876 0.38455 0.0
C963 C 0.74208 0.44174 0.40445 0.0
N964 N 0.7365 0.40918 0.43819 0.0
N965 N 0.80409 0.47013 0.3574 0.0
C966 C 0.75428 0.42599 0.41919 0.0
C967 C 0.78716 0.45499 0.37707 0.0
N968 N 0.79879 0.41555 0.42871 0.0
N969 N 0.75048 0.47824 0.37291 0.0
H970 H 0.82649 0.47176 0.35286 0.0
H971 H 0.79705 0.48241 0.34573 0.0
H972 H 0.73167 0.48228 0.37898 0.0
H973 H 0.76179 0.4918 0.35817 0.0
H974 H 0.79228 0.41175 0.44606 0.0
H975 H 0.8203 0.41474 0.42543 0.0
H976 H 0.74128 0.39292 0.44757 0.0
H977 H 0.71554 0.40971 0.44387 0.0
C978 C 0.17101 0.60666 0.47811 0.0
C979 C 0.14454 0.61274 0.48332 0.0
C980 C 0.14423 0.59286 0.52264 0.0
C981 C 0.17597 0.59662 0.51888 0.0
N982 N 0.22135 0.6102 0.49257 0.0
N983 N 0.10549 0.6107 0.51225 0.0
C984 C 0.18971 0.60381 0.49642 0.0
C985 C 0.13051 0.60497 0.50595 0.0
N986 N 0.1782 0.60311 0.45582 0.0
N987 N 0.12725 0.57773 0.54227 0.0
H988 H 0.09342 0.61873 0.50115 0.0
H989 H 0.09804 0.60963 0.5293 0.0
H990 H 0.13658 0.56808 0.55455 0.0
H991 H 0.10264 0.57142 0.54502 0.0
H992 H 0.19576 0.59628 0.45156 0.0
H993 H 0.16367 0.6021 0.44182 0.0
H994 H 0.23352 0.61945 0.47696 0.0
H995 H 0.2366 0.60918 0.50532 0.0
C996 C 0.5577 0.10012 0.68736 0.0
C997 C 0.56412 0.10654 0.66342 0.0
C998 C 0.59846 0.16633 0.6721 0.0
C999 C 0.59644 0.15888 0.69596 0.0
N1000 N 0.57715 0.11802 0.72632 0.0
N1001 N 0.57306 0.14754 0.63457 0.0
C1002 C 0.57655 0.12565 0.70363 0.0
C1003 C 0.57982 0.14023 0.65599 0.0
N1004 N 0.53194 0.07033 0.6945 0.0
N1005 N 0.61788 0.19835 0.66476 0.0
H1006 H 0.55404 0.12975 0.62427 0.0
H1007 H 0.58186 0.17165 0.62864 0.0
H1008 H 0.62982 0.21861 0.67596 0.0
H1009 H 0.62381 0.20456 0.6475 0.0
H1010 H 0.52403 0.06552 0.71156 0.0
H1011 H 0.51586 0.05192 0.68302 0.0
H1012 H 0.56606 0.09367 0.73234 0.0
H1013 H 0.59152 0.13572 0.73879 0.0
C1014 C 0.37876 0.49817 0.81748 0.0
C1015 C 0.40872 0.52201 0.7943 0.0
C1016 C 0.43391 0.58974 0.81956 0.0
C1017 C 0.41159 0.56621 0.8451 0.0
N1018 N 0.36512 0.50463 0.8625 0.0
N1019 N 0.44589 0.58432 0.77308 0.0
C1020 C 0.3834 0.52113 0.84394 0.0
C1021 C 0.43034 0.56825 0.79251 0.0
N1022 N 0.35829 0.46499 0.81561 0.0
N1023 N 0.45359 0.62316 0.82072 0.0
H1024 H 0.44438 0.57071 0.75831 0.0
H1025 H 0.45924 0.61021 0.77237 0.0
H1026 H 0.45751 0.63613 0.83616 0.0
H1027 H 0.46641 0.63675 0.80627 0.0
H1028 H 0.34251 0.4512 0.82897 0.0
H1029 H 0.35797 0.45273 0.80041 0.0
H1030 H 0.34885 0.47904 0.86184 0.0
H1031 H 0.36662 0.51665 0.87798 0.0
C1032 C 0.92373 0.42007 0.0052 0.0
C1033 C 0.89707 0.39495 0.98054 0.0
C1034 C 0.83201 0.37085 0.00811 0.0
C1035 C 0.85652 0.40199 0.02985 0.0
N1036 N 0.9187 0.44649 0.04653 0.0
N1037 N 0.83517 0.34136 0.96706 0.0
C1038 C 0.90166 0.42536 0.0291 0.0
C1039 C 0.85214 0.364 0.98372 0.0
N1040 N 0.95718 0.43659 0.0038 0.0
N1041 N 0.79869 0.35241 0.0104 0.0
H1042 H 0.84773 0.33979 0.95266 0.0
H1043 H 0.80965 0.32514 0.9683 0.0
H1044 H 0.78676 0.35596 0.02439 0.0
H1045 H 0.78415 0.33427 0.99825 0.0
H1046 H 0.97198 0.45187 0.01721 0.0
H1047 H 0.96862 0.43395 0.98913 0.0
H1048 H 0.94458 0.46015 0.04651 0.0
H1049 H 0.9062 0.44976 0.06029 0.0
C1050 C 0.52777 0.91121 0.17288 0.0
C1051 C 0.51752 0.89879 0.14989 0.0
C1052 C 0.46549 0.85317 0.16514 0.0
C1053 C 0.47531 0.86595 0.18779 0.0
N1054 N 0.51035 0.91293 0.21201 0.0
N1055 N 0.46973 0.86692 0.12487 0.0
C1056 C 0.50472 0.89687 0.19126 0.0
C1057 C 0.48418 0.87272 0.1462 0.0
N1058 N 0.55961 0.93566 0.17766 0.0
N1059 N 0.43959 0.82165 0.16149 0.0
H1060 H 0.4808 0.88242 0.11081 0.0
H1061 H 0.44471 0.84961 0.12203 0.0
H1062 H 0.42594 0.80553 0.17474 0.0
H1063 H 0.43402 0.81028 0.14528 0.0
H1064 H 0.56897 0.94183 0.19441 0.0
H1065 H 0.57765 0.94851 0.16531 0.0
H1066 H 0.5297 0.93716 0.21482 0.0
H1067 H 0.49354 0.90348 0.22563 0.0
C1068 C 0.63567 0.4892 0.32349 0.0
C1069 C 0.60215 0.47242 0.31612 0.0
C1070 C 0.5852 0.44353 0.35316 0.0
C1071 C 0.61917 0.45566 0.35864 0.0
N1072 N 0.67729 0.49077 0.34964 0.0
N1073 N 0.54537 0.44829 0.32874 0.0
C1074 C 0.64469 0.47954 0.34432 0.0
C1075 C 0.5768 0.4538 0.33237 0.0
N1076 N 0.65795 0.51509 0.31045 0.0
N1077 N 0.56099 0.42177 0.3677 0.0
H1078 H 0.53946 0.45915 0.31519 0.0
H1079 H 0.52623 0.43691 0.34065 0.0
H1080 H 0.56616 0.41603 0.38402 0.0
H1081 H 0.5359 0.4084 0.36329 0.0
H1082 H 0.68273 0.53102 0.31496 0.0
H1083 H 0.68273 0.53102 0.31496 0.0
H1084 H 0.69688 0.50441 0.33842 0.0
H1085 H 0.68487 0.48463 0.36484 0.0
C1086 C 0.43171 0.87797 0.33981 0.0
C1087 C 0.42575 0.90464 0.33509 0.0
C1088 C 0.43898 0.90124 0.29444 0.0
C1089 C 0.43546 0.86961 0.29854 0.0
N1090 N 0.424 0.82566 0.32572 0.0
N1091 N 0.42393 0.94173 0.30612 0.0
C1092 C 0.43101 0.85744 0.32141 0.0
C1093 C 0.42992 0.9167 0.31194 0.0
N1094 N 0.43884 0.87245 0.36166 0.0
N1095 N 0.4514 0.91676 0.27387 0.0
H1096 H 0.41835 0.9552 0.3178 0.0
H1097 H 0.42228 0.94779 0.28906 0.0
H1098 H 0.45917 0.90646 0.26099 0.0
H1099 H 0.45754 0.94126 0.27071 0.0
H1100 H 0.44552 0.8546 0.36535 0.0
H1101 H 0.44305 0.88861 0.3754 0.0
H1102 H 0.41705 0.81489 0.34199 0.0
H1103 H 0.42176 0.80889 0.31291 0.0
C1104 C 0.57537 0.41554 0.50928 0.0
C1105 C 0.54245 0.40836 0.50389 0.0
C1106 C 0.56035 0.42382 0.46368 0.0
C1107 C 0.58924 0.42198 0.46832 0.0
N1108 N 0.62268 0.41224 0.49573 0.0
N1109 N 0.50384 0.40586 0.47422 0.0
C1110 C 0.59663 0.41722 0.4912 0.0
C1111 C 0.53508 0.41308 0.48066 0.0
N1112 N 0.58691 0.42156 0.53148 0.0
N1113 N 0.55716 0.43607 0.44302 0.0
H1114 H 0.48413 0.39888 0.48545 0.0
H1115 H 0.49667 0.40456 0.45703 0.0
H1116 H 0.57557 0.44461 0.43041 0.0
H1117 H 0.53818 0.44119 0.43947 0.0
H1118 H 0.61153 0.42925 0.53571 0.0
H1119 H 0.5738 0.42375 0.54523 0.0
H1120 H 0.62647 0.40474 0.51183 0.0
H1121 H 0.63869 0.41252 0.48309 0.0
C1122 C 0.13558 0.56247 0.65926 0.0
C1123 C 0.14592 0.54629 0.6752 0.0
C1124 C 0.17889 0.53928 0.64508 0.0
C1125 C 0.17442 0.5618 0.63106 0.0
N1126 N 0.14591 0.59207 0.62309 0.0
N1127 N 0.16233 0.50587 0.6802 0.0
C1128 C 0.15161 0.57222 0.63754 0.0
C1129 C 0.16299 0.53033 0.66696 0.0
N1130 N 0.10901 0.56635 0.66429 0.0
N1131 N 0.20019 0.52864 0.63832 0.0
H1132 H 0.17179 0.49063 0.67528 0.0
H1133 H 0.17179 0.49063 0.67528 0.0
H1134 H 0.21104 0.53348 0.62207 0.0
H1135 H 0.20848 0.5164 0.64908 0.0
H1136 H 0.09866 0.5758 0.65276 0.0
H1137 H 0.09447 0.55606 0.67893 0.0
H1138 H 0.13323 0.60428 0.62798 0.0
H1139 H 0.15498 0.5973 0.60627 0.0
C1140 C 0.65445 0.12568 0.82322 0.0
C1141 C 0.63692 0.13112 0.85057 0.0
C1142 C 0.62796 0.18827 0.83076 0.0
C1143 C 0.6363 0.1773 0.80224 0.0
N1144 N 0.65727 0.14034 0.77723 0.0
N1145 N 0.62618 0.17501 0.87778 0.0
C1146 C 0.6505 0.14731 0.7985 0.0
C1147 C 0.63128 0.16746 0.85625 0.0
N1148 N 0.66444 0.10304 0.8214 0.0
N1149 N 0.62102 0.21311 0.83321 0.0
H1150 H 0.62696 0.16128 0.89173 0.0
H1151 H 0.62165 0.19451 0.88088 0.0
H1152 H 0.62047 0.22671 0.81916 0.0
H1153 H 0.61653 0.21973 0.84942 0.0
H1154 H 0.67268 0.09865 0.8058 0.0
H1155 H 0.66423 0.08972 0.83592 0.0
H1156 H 0.6653 0.12323 0.77492 0.0
H1157 H 0.65338 0.15067 0.76248 0.0
C1158 C 0.50945 0.66023 0.00137 0.0
C1159 C 0.52022 0.62711 0.00594 0.0
C1160 C 0.48676 0.59114 0.96002 0.0
C1161 C 0.46821 0.61752 0.95848 0.0
N1162 N 0.46832 0.67333 0.97486 0.0
N1163 N 0.53098 0.57876 0.98466 0.0
C1164 C 0.48022 0.6524 0.97815 0.0
C1165 C 0.5162 0.59733 0.98279 0.0
N1166 N 0.51912 0.68562 0.01647 0.0
N1167 N 0.47875 0.56707 0.94401 0.0
H1168 H 0.54646 0.58223 0.99872 0.0
H1169 H 0.52747 0.56106 0.97219 0.0
H1170 H 0.46169 0.56313 0.93094 0.0
H1171 H 0.48912 0.55171 0.94452 0.0
H1172 H 0.51168 0.70325 0.01457 0.0
H1173 H 0.53448 0.68787 0.03034 0.0
H1174 H 0.47513 0.69362 0.98579 0.0
H1175 H 0.45238 0.66995 0.96114 0.0
C1176 C 0.87982 0.45267 0.19383 0.0
C1177 C 0.90018 0.49892 0.19279 0.0
C1178 C 0.87038 0.49813 0.14464 0.0
C1179 C 0.85778 0.45398 0.14236 0.0
N1180 N 0.85048 0.39827 0.16495 0.0
N1181 N 0.89869 0.55354 0.17376 0.0
C1182 C 0.8613 0.43115 0.16684 0.0
C1183 C 0.88912 0.52108 0.17106 0.0
N1184 N 0.88263 0.43705 0.21253 0.0
N1185 N 0.86477 0.5138 0.12708 0.0
H1186 H 0.91101 0.56601 0.18883 0.0
H1187 H 0.89391 0.56657 0.16117 0.0
H1188 H 0.85326 0.50167 0.11181 0.0
H1189 H 0.87163 0.53882 0.12843 0.0
H1190 H 0.87248 0.41132 0.21276 0.0
H1191 H 0.89489 0.45081 0.22724 0.0
H1192 H 0.85234 0.38504 0.17879 0.0
H1193 H 0.84109 0.38549 0.14947 0.0
loop_
_geom_bond_atom_site_label_1
_geom_bond_atom_site_label_2
_geom_bond_distance
_geom_bond_site_symmetry_2
_ccdc_geom_bond_type
C0 C1 1.560 . S
C0 H61 0.959 . S
C0 H62 0.959 . S
C0 H63 0.960 . S
C1 C0 1.560 . S
C1 O56 1.426 . S
C1 H60 0.980 . S
C2 C3 1.407 . S
C2 C7 1.418 . S
C2 O56 1.334 . S
C3 C2 1.407 . S
C3 C4 1.360 . S
C3 H64 0.929 . S
C4 C3 1.360 . S
C4 C5 1.401 . S
C4 C8 1.527 . S
C5 C4 1.401 . S
C5 C6 1.405 . S
C5 C38 1.587 . S
C6 C5 1.405 . S
C6 C7 1.332 . S
C6 C9 1.496 . S
C7 C2 1.418 . S
C7 C6 1.332 . S
C7 H65 0.929 . S
C8 C4 1.527 . S
C8 H66 0.959 . S
C8 H67 0.961 . S
C8 H68 0.961 . S
C9 C6 1.496 . S
C9 H69 0.960 . S
C9 H70 0.960 . S
C9 H71 0.961 . S
C10 C11 1.517 . S
C10 H73 0.961 . S
C10 H74 0.960 . S
C10 H75 0.959 . S
C11 C10 1.517 . S
C11 O59 1.468 . S
C11 H72 0.980 . S
C12 C13 1.349 . S
C12 C17 1.367 . S
C12 O59 1.408 . S
C13 C12 1.349 . S
C13 C14 1.407 . S
C13 H76 0.930 . S
C14 C13 1.407 . S
C14 C15 1.449 1_655 S
C14 C18 1.535 1_655 S
C15 C14 1.449 1_455 S
C15 C16 1.384 1_455 S
C15 C40 1.553 . S
C16 C15 1.384 1_655 S
C16 C17 1.364 . S
C16 C19 1.450 1_655 S
C17 C12 1.367 . S
C17 C16 1.364 . S
C17 H77 0.931 . S
C18 C14 1.535 1_455 S
C18 H78 0.959 . S
C18 H79 0.961 . S
C18 H80 0.959 1_455 S
C19 C16 1.450 1_455 S
C19 H81 0.961 1_455 S
C19 H82 0.960 . S
C19 H83 0.960 1_455 S
C20 C21 1.309 . S
C20 C25 1.304 . S
C20 O58 1.435 . S
C21 C20 1.309 . S
C21 C22 1.476 . S
C21 H85 0.930 . S
C22 C21 1.476 . S
C22 C23 1.400 . S
C22 C26 1.567 . S
C23 C22 1.400 . S
C23 C24 1.373 . S
C23 C45 1.432 . S
C24 C23 1.373 . S
C24 C25 1.339 . S
C24 C27 1.530 . S
C25 C20 1.304 . S
C25 C24 1.339 . S
C25 H86 0.930 . S
C26 C22 1.567 . S
C26 H87 0.961 . S
C26 H88 0.960 . S
C26 H89 0.958 . S
C27 C24 1.530 . S
C27 H90 0.961 . S
C27 H91 0.960 . S
C27 H92 0.960 . S
C28 C29 1.530 . S
C28 H94 0.961 . S
C28 H95 0.961 . S
C28 H96 0.959 . S
C29 C28 1.530 . S
C29 O57 1.412 . S
C29 H93 0.980 . S
C30 C31 1.288 . S
C30 C35 1.377 . S
C30 O57 1.393 . S
C31 C30 1.288 . S
C31 C32 1.369 . S
C31 H97 0.932 . S
C32 C31 1.369 . S
C32 C33 1.398 . S
C32 C36 1.527 . S
C33 C32 1.398 . S
C33 C34 1.380 . S
C33 C47 1.497 . S
C34 C33 1.380 . S
C34 C35 1.383 . S
C34 C37 1.603 . S
C35 C30 1.377 . S
C35 C34 1.383 . S
C35 H98 0.929 . S
C36 C32 1.527 . S
C36 H99 0.961 . S
C36 H100 0.959 . S
C36 H101 0.959 . S
C37 C34 1.603 . S
C37 H102 0.960 . S
C37 H103 0.962 . S
C37 H104 0.961 . S
C38 C5 1.587 . S
C38 C39 1.360 . S
C38 C51 1.412 . S
C39 C38 1.360 . S
C39 C40 1.365 . S
C39 H105 0.929 . S
C40 C15 1.553 . S
C40 C39 1.365 . S
C40 C41 1.404 . S
C41 C40 1.404 . S
C41 C42 1.395 1_455 S
C41 C52 1.451 . S
C42 C41 1.395 1_655 S
C42 C43 1.322 . S
C42 H106 0.930 . S
C43 C42 1.322 . S
C43 C44 1.459 . S
C43 H107 0.929 . S
C44 C43 1.459 . S
C44 C45 1.445 . S
C44 C53 1.395 1_655 S
C45 C23 1.432 . S
C45 C44 1.445 . S
C45 C46 1.370 . S
C46 C45 1.370 . S
C46 C47 1.438 1_655 S
C46 H108 0.930 . S
C47 C33 1.497 . S
C47 C46 1.438 1_455 S
C47 C48 1.360 . S
C48 C47 1.360 . S
C48 C49 1.401 . S
C48 C53 1.446 . S
C49 C48 1.401 . S
C49 C50 1.347 . S
C49 H109 0.929 . S
C50 C49 1.347 . S
C50 C51 1.455 . S
C50 H110 0.930 . S
C51 C38 1.412 . S
C51 C50 1.455 . S
C51 C52 1.331 . S
C52 C41 1.451 . S
C52 C51 1.331 . S
C52 C53 1.497 . S
C53 C44 1.395 1_455 S
C53 C48 1.446 . S
C53 C52 1.497 . S
C54 C55 1.582 . S
C54 H111 0.962 . S
C54 H112 0.959 . S
C54 H113 0.958 . S
C55 C54 1.582 . S
C55 O58 1.458 . S
C55 H84 0.980 . S
O56 C1 1.426 . S
O56 C2 1.334 . S
O57 C29 1.412 . S
O57 C30 1.393 . S
O58 C20 1.435 . S
O58 C55 1.458 . S
O59 C11 1.468 . S
O59 C12 1.408 . S
H60 C1 0.980 . S
H61 C0 0.959 . S
H62 C0 0.959 . S
H63 C0 0.960 . S
H64 C3 0.929 . S
H65 C7 0.929 . S
H66 C8 0.959 . S
H67 C8 0.961 . S
H68 C8 0.961 . S
H69 C9 0.960 . S
H70 C9 0.960 . S
H71 C9 0.961 . S
H72 C11 0.980 . S
H73 C10 0.961 . S
H74 C10 0.960 . S
H75 C10 0.959 . S
H76 C13 0.930 . S
H77 C17 0.931 . S
H78 C18 0.959 . S
H79 C18 0.961 . S
H80 C18 0.959 1_655 S
H81 C19 0.961 1_655 S
H82 C19 0.960 . S
H83 C19 0.960 1_655 S
H84 C55 0.980 . S
H85 C21 0.930 . S
H86 C25 0.930 . S
H87 C26 0.961 . S
H88 C26 0.960 . S
H89 C26 0.958 . S
H90 C27 0.961 . S
H91 C27 0.960 . S
H92 C27 0.960 . S
H93 C29 0.980 . S
H94 C28 0.961 . S
H95 C28 0.961 . S
H96 C28 0.959 . S
H97 C31 0.932 . S
H98 C35 0.929 . S
H99 C36 0.961 . S
H100 C36 0.959 . S
H101 C36 0.959 . S
H102 C37 0.960 . S
H103 C37 0.962 . S
H104 C37 0.961 . S
H105 C39 0.929 . S
H106 C42 0.930 . S
H107 C43 0.929 . S
H108 C46 0.930 . S
H109 C49 0.929 . S
H110 C50 0.930 . S
H111 C54 0.962 . S
H112 C54 0.959 . S
H113 C54 0.958 . S
C114 C115 1.560 . S
C114 H175 0.959 . S
C114 H176 0.959 . S
C114 H177 0.960 . S
C115 C114 1.560 . S
C115 O170 1.426 . S
C115 H174 0.980 . S
C116 C117 1.407 . S
C116 C121 1.418 . S
C116 O170 1.334 . S
C117 C116 1.407 . S
C117 C118 1.360 . S
C117 H178 0.929 . S
C118 C117 1.360 . S
C118 C119 1.401 . S
C118 C122 1.527 . S
C119 C118 1.401 . S
C119 C120 1.405 . S
C119 C152 1.587 . S
C120 C119 1.405 . S
C120 C121 1.332 . S
C120 C123 1.496 . S
C121 C116 1.418 . S
C121 C120 1.332 . S
C121 H179 0.929 . S
C122 C118 1.527 . S
C122 H180 0.959 . S
C122 H181 0.961 . S
C122 H182 0.961 . S
C123 C120 1.496 . S
C123 H183 0.960 . S
C123 H184 0.960 . S
C123 H185 0.961 . S
C124 C125 1.517 . S
C124 H187 0.961 . S
C124 H188 0.960 . S
C124 H189 0.959 . S
C125 C124 1.517 . S
C125 O173 1.468 . S
C125 H186 0.980 . S
C126 C127 1.349 . S
C126 C131 1.367 . S
C126 O173 1.408 . S
C127 C126 1.349 . S
C127 C128 1.407 . S
C127 H190 0.930 . S
C128 C127 1.407 . S
C128 C129 1.449 . S
C128 C132 1.535 . S
C129 C128 1.449 . S
C129 C130 1.384 . S
C129 C154 1.553 . S
C130 C129 1.384 . S
C130 C131 1.364 . S
C130 C133 1.450 . S
C131 C126 1.367 . S
C131 C130 1.364 . S
C131 H191 0.931 . S
C132 C128 1.535 . S
C132 H192 0.959 . S
C132 H193 0.961 . S
C132 H194 0.959 . S
C133 C130 1.450 . S
C133 H195 0.960 . S
C133 H196 0.960 . S
C133 H197 0.960 . S
C134 C135 1.309 . S
C134 C139 1.304 . S
C134 O172 1.435 . S
C135 C134 1.309 . S
C135 C136 1.476 . S
C135 H199 0.930 . S
C136 C135 1.476 . S
C136 C137 1.400 . S
C136 C140 1.567 . S
C137 C136 1.400 . S
C137 C138 1.373 . S
C137 C159 1.432 . S
C138 C137 1.373 . S
C138 C139 1.339 . S
C138 C141 1.530 . S
C139 C134 1.304 . S
C139 C138 1.339 . S
C139 H200 0.930 . S
C140 C136 1.567 . S
C140 H201 0.961 . S
C140 H202 0.960 . S
C140 H203 0.958 . S
C141 C138 1.530 . S
C141 H204 0.961 . S
C141 H205 0.960 . S
C141 H206 0.960 . S
C142 C143 1.530 . S
C142 H208 0.961 . S
C142 H209 0.961 . S
C142 H210 0.959 . S
C143 C142 1.530 . S
C143 O171 1.412 . S
C143 H207 0.980 . S
C144 C145 1.288 . S
C144 C149 1.377 . S
C144 O171 1.393 . S
C145 C144 1.288 . S
C145 C146 1.369 . S
C145 H211 0.932 . S
C146 C145 1.369 . S
C146 C147 1.398 . S
C146 C150 1.527 1_565 S
C147 C146 1.398 . S
C147 C148 1.380 . S
C147 C161 1.497 1_565 S
C148 C147 1.380 . S
C148 C149 1.383 . S
C148 C151 1.603 . S
C149 C144 1.377 . S
C149 C148 1.383 . S
C149 H212 0.929 . S
C150 C146 1.527 1_545 S
C150 H213 0.961 . S
C150 H214 0.959 . S
C150 H215 0.959 . S
C151 C148 1.603 . S
C151 H216 0.960 . S
C151 H217 0.962 . S
C151 H218 0.961 . S
C152 C119 1.587 . S
C152 C153 1.360 . S
C152 C165 1.412 . S
C153 C152 1.360 . S
C153 C154 1.365 1_565 S
C153 H219 0.929 . S
C154 C129 1.553 . S
C154 C153 1.365 1_545 S
C154 C155 1.404 . S
C155 C154 1.404 . S
C155 C156 1.395 . S
C155 C166 1.451 . S
C156 C155 1.395 . S
C156 C157 1.322 . S
C156 H220 0.930 . S
C157 C156 1.322 . S
C157 C158 1.459 . S
C157 H221 0.929 . S
C158 C157 1.459 . S
C158 C159 1.445 . S
C158 C167 1.395 . S
C159 C137 1.432 . S
C159 C158 1.445 . S
C159 C160 1.370 . S
C160 C159 1.370 . S
C160 C161 1.438 . S
C160 H222 0.930 . S
C161 C147 1.497 1_545 S
C161 C160 1.438 . S
C161 C162 1.367 . S
C162 C161 1.367 . S
C162 C163 1.387 1_545 S
C162 C167 1.453 . S
C163 C162 1.387 1_565 S
C163 C164 1.347 . S
C163 H223 0.929 . S
C164 C163 1.347 . S
C164 C165 1.455 . S
C164 H224 0.930 . S
C165 C152 1.412 . S
C165 C164 1.455 . S
C165 C166 1.331 1_565 S
C166 C155 1.451 . S
C166 C165 1.331 1_545 S
C166 C167 1.497 . S
C167 C158 1.395 . S
C167 C162 1.453 . S
C167 C166 1.497 . S
C168 C169 1.582 . S
C168 H225 0.962 . S
C168 H226 0.959 . S
C168 H227 0.958 . S
C169 C168 1.582 . S
C169 O172 1.458 . S
C169 H198 0.980 . S
O170 C115 1.426 . S
O170 C116 1.334 . S
O171 C143 1.412 . S
O171 C144 1.393 . S
O172 C134 1.435 . S
O172 C169 1.458 . S
O173 C125 1.468 . S
O173 C126 1.408 . S
H174 C115 0.980 . S
H175 C114 0.959 . S
H176 C114 0.959 . S
H177 C114 0.960 . S
H178 C117 0.929 . S
H179 C121 0.929 . S
H180 C122 0.959 . S
H181 C122 0.961 . S
H182 C122 0.961 . S
H183 C123 0.960 . S
H184 C123 0.960 . S
H185 C123 0.961 . S
H186 C125 0.980 . S
H187 C124 0.961 . S
H188 C124 0.960 . S
H189 C124 0.959 . S
H190 C127 0.930 . S
H191 C131 0.931 . S
H192 C132 0.959 . S
H193 C132 0.961 . S
H194 C132 0.959 . S
H195 C133 0.960 . S
H196 C133 0.960 . S
H197 C133 0.960 . S
H198 C169 0.980 . S
H199 C135 0.930 . S
H200 C139 0.930 . S
H201 C140 0.961 . S
H202 C140 0.960 . S
H203 C140 0.958 . S
H204 C141 0.961 . S
H205 C141 0.960 . S
H206 C141 0.960 . S
H207 C143 0.980 . S
H208 C142 0.961 . S
H209 C142 0.961 . S
H210 C142 0.959 . S
H211 C145 0.932 . S
H212 C149 0.929 . S
H213 C150 0.961 . S
H214 C150 0.959 . S
H215 C150 0.959 . S
H216 C151 0.960 . S
H217 C151 0.962 . S
H218 C151 0.961 . S
H219 C153 0.929 . S
H220 C156 0.930 . S
H221 C157 0.929 . S
H222 C160 0.930 . S
H223 C163 0.929 . S
H224 C164 0.930 . S
H225 C168 0.962 . S
H226 C168 0.959 . S
H227 C168 0.958 . S
C228 C229 1.560 . S
C228 H289 0.959 . S
C228 H290 0.959 . S
C228 H291 0.960 . S
C229 C228 1.560 . S
C229 O284 1.426 . S
C229 H288 0.980 . S
C230 C231 1.407 . S
C230 C235 1.418 . S
C230 O284 1.334 . S
C231 C230 1.407 . S
C231 C232 1.360 . S
C231 H292 0.929 . S
C232 C231 1.360 . S
C232 C233 1.401 . S
C232 C236 1.527 . S
C233 C232 1.401 . S
C233 C234 1.405 . S
C233 C266 1.587 . S
C234 C233 1.405 . S
C234 C235 1.332 . S
C234 C237 1.496 . S
C235 C230 1.418 . S
C235 C234 1.332 . S
C235 H293 0.929 . S
C236 C232 1.527 . S
C236 H294 0.959 . S
C236 H295 0.961 . S
C236 H296 0.961 . S
C237 C234 1.496 . S
C237 H297 0.960 . S
C237 H298 0.960 . S
C237 H299 0.961 . S
C238 C239 1.517 . S
C238 H301 0.961 . S
C238 H302 0.960 . S
C238 H303 0.959 . S
C239 C238 1.517 . S
C239 O287 1.468 . S
C239 H300 0.980 . S
C240 C241 1.349 . S
C240 C245 1.367 . S
C240 O287 1.408 . S
C241 C240 1.349 . S
C241 C242 1.407 . S
C241 H304 0.930 . S
C242 C241 1.407 . S
C242 C243 1.449 . S
C242 C246 1.535 . S
C243 C242 1.449 . S
C243 C244 1.384 . S
C243 C268 1.553 . S
C244 C243 1.384 . S
C244 C245 1.364 . S
C244 C247 1.450 . S
C245 C240 1.367 . S
C245 C244 1.364 . S
C245 H305 0.931 . S
C246 C242 1.535 . S
C246 H306 0.959 . S
C246 H307 0.961 . S
C246 H308 0.959 . S
C247 C244 1.450 . S
C247 H309 0.960 . S
C247 H310 0.960 . S
C247 H311 0.960 . S
C248 C249 1.309 . S
C248 C253 1.304 . S
C248 O286 1.435 . S
C249 C248 1.309 . S
C249 C250 1.476 . S
C249 H313 0.930 . S
C250 C249 1.476 . S
C250 C251 1.400 . S
C250 C254 1.567 . S
C251 C250 1.400 . S
C251 C252 1.373 . S
C251 C273 1.432 . S
C252 C251 1.373 . S
C252 C253 1.339 . S
C252 C255 1.530 . S
C253 C248 1.304 . S
C253 C252 1.339 . S
C253 H314 0.930 . S
C254 C250 1.567 . S
C254 H315 0.961 . S
C254 H316 0.960 . S
C254 H317 0.958 . S
C255 C252 1.530 . S
C255 H318 0.961 . S
C255 H319 0.960 . S
C255 H320 0.960 . S
C256 C257 1.530 . S
C256 H322 0.961 . S
C256 H323 0.961 . S
C256 H324 0.959 . S
C257 C256 1.530 . S
C257 O285 1.412 . S
C257 H321 0.980 . S
C258 C259 1.288 . S
C258 C263 1.377 . S
C258 O285 1.393 . S
C259 C258 1.288 . S
C259 C260 1.369 . S
C259 H325 0.932 . S
C260 C259 1.369 . S
C260 C261 1.398 . S
C260 C264 1.527 . S
C261 C260 1.398 . S
C261 C262 1.380 . S
C261 C275 1.497 . S
C262 C261 1.380 . S
C262 C263 1.383 . S
C262 C265 1.603 . S
C263 C258 1.377 . S
C263 C262 1.383 . S
C263 H326 0.929 . S
C264 C260 1.527 . S
C264 H327 0.961 . S
C264 H328 0.959 . S
C264 H329 0.959 . S
C265 C262 1.603 . S
C265 H330 0.960 . S
C265 H331 0.962 . S
C265 H332 0.961 . S
C266 C233 1.587 . S
C266 C267 1.360 . S
C266 C279 1.412 . S
C267 C266 1.360 . S
C267 C268 1.365 . S
C267 H333 0.929 . S
C268 C243 1.553 . S
C268 C267 1.365 . S
C268 C269 1.404 . S
C269 C268 1.404 . S
C269 C270 1.395 . S
C269 C280 1.451 . S
C270 C269 1.395 . S
C270 C271 1.322 . S
C270 H334 0.930 . S
C271 C270 1.322 . S
C271 C272 1.459 . S
C271 H335 0.929 . S
C272 C271 1.459 . S
C272 C273 1.445 . S
C272 C281 1.395 . S
C273 C251 1.432 . S
C273 C272 1.445 . S
C273 C274 1.370 . S
C274 C273 1.370 . S
C274 C275 1.438 . S
C274 H336 0.930 . S
C275 C261 1.497 . S
C275 C274 1.438 . S
C275 C276 1.360 . S
C276 C275 1.360 . S
C276 C277 1.401 . S
C276 C281 1.446 . S
C277 C276 1.401 . S
C277 C278 1.347 . S
C277 H337 0.929 . S
C278 C277 1.347 . S
C278 C279 1.455 . S
C278 H338 0.930 . S
C279 C266 1.412 . S
C279 C278 1.455 . S
C279 C280 1.331 . S
C280 C269 1.451 . S
C280 C279 1.331 . S
C280 C281 1.497 . S
C281 C272 1.395 . S
C281 C276 1.446 . S
C281 C280 1.497 . S
C282 C283 1.582 . S
C282 H339 0.962 . S
C282 H340 0.959 . S
C282 H341 0.958 . S
C283 C282 1.582 . S
C283 O286 1.458 . S
C283 H312 0.980 . S
O284 C229 1.426 . S
O284 C230 1.334 . S
O285 C257 1.412 . S
O285 C258 1.393 . S
O286 C248 1.435 . S
O286 C283 1.458 . S
O287 C239 1.468 . S
O287 C240 1.408 . S
H288 C229 0.980 . S
H289 C228 0.959 . S
H290 C228 0.959 . S
H291 C228 0.960 . S
H292 C231 0.929 . S
H293 C235 0.929 . S
H294 C236 0.959 . S
H295 C236 0.961 . S
H296 C236 0.961 . S
H297 C237 0.960 . S
H298 C237 0.960 . S
H299 C237 0.961 . S
H300 C239 0.980 . S
H301 C238 0.961 . S
H302 C238 0.960 . S
H303 C238 0.959 . S
H304 C241 0.930 . S
H305 C245 0.931 . S
H306 C246 0.959 . S
H307 C246 0.961 . S
H308 C246 0.959 . S
H309 C247 0.960 . S
H310 C247 0.960 . S
H311 C247 0.960 . S
H312 C283 0.980 . S
H313 C249 0.930 . S
H314 C253 0.930 . S
H315 C254 0.961 . S
H316 C254 0.960 . S
H317 C254 0.958 . S
H318 C255 0.961 . S
H319 C255 0.960 . S
H320 C255 0.960 . S
H321 C257 0.980 . S
H322 C256 0.961 . S
H323 C256 0.961 . S
H324 C256 0.959 . S
H325 C259 0.932 . S
H326 C263 0.929 . S
H327 C264 0.961 . S
H328 C264 0.959 . S
H329 C264 0.959 . S
H330 C265 0.960 . S
H331 C265 0.962 . S
H332 C265 0.961 . S
H333 C267 0.929 . S
H334 C270 0.930 . S
H335 C271 0.929 . S
H336 C274 0.930 . S
H337 C277 0.929 . S
H338 C278 0.930 . S
H339 C282 0.962 . S
H340 C282 0.959 . S
H341 C282 0.958 . S
C342 C343 1.560 . S
C342 H403 0.959 . S
C342 H404 0.959 . S
C342 H405 0.960 . S
C343 C342 1.560 . S
C343 O398 1.426 . S
C343 H402 0.980 . S
C344 C345 1.407 . S
C344 C349 1.418 . S
C344 O398 1.334 . S
C345 C344 1.407 . S
C345 C346 1.360 . S
C345 H406 0.929 . S
C346 C345 1.360 . S
C346 C347 1.401 . S
C346 C350 1.527 . S
C347 C346 1.401 . S
C347 C348 1.405 . S
C347 C380 1.587 . S
C348 C347 1.405 . S
C348 C349 1.332 . S
C348 C351 1.496 . S
C349 C344 1.418 . S
C349 C348 1.332 . S
C349 H407 0.929 . S
C350 C346 1.527 . S
C350 H408 0.959 . S
C350 H409 0.961 . S
C350 H410 0.961 . S
C351 C348 1.496 . S
C351 H411 0.960 . S
C351 H412 0.960 . S
C351 H413 0.961 . S
C352 C353 1.517 . S
C352 H415 0.961 1_556 S
C352 H416 0.960 . S
C352 H417 0.959 . S
C353 C352 1.517 . S
C353 O401 1.468 . S
C353 H414 0.980 . S
C354 C355 1.349 . S
C354 C359 1.367 . S
C354 O401 1.408 . S
C355 C354 1.349 . S
C355 C356 1.407 . S
C355 H418 0.930 . S
C356 C355 1.407 . S
C356 C357 1.449 1_655 S
C356 C360 1.535 1_655 S
C357 C356 1.449 1_455 S
C357 C358 1.384 1_455 S
C357 C382 1.553 . S
C358 C357 1.384 1_655 S
C358 C359 1.364 . S
C358 C361 1.450 1_655 S
C359 C354 1.367 . S
C359 C358 1.364 . S
C359 H419 0.931 . S
C360 C356 1.535 1_455 S
C360 H420 0.959 . S
C360 H421 0.961 . S
C360 H422 0.959 1_455 S
C361 C358 1.450 1_455 S
C361 H423 0.962 1_455 S
C361 H424 0.960 . S
C361 H425 0.960 1_455 S
C362 C363 1.309 . S
C362 C367 1.304 . S
C362 O400 1.435 . S
C363 C362 1.309 . S
C363 C364 1.476 . S
C363 H427 0.930 . S
C364 C363 1.476 . S
C364 C365 1.400 . S
C364 C368 1.567 . S
C365 C364 1.400 . S
C365 C366 1.373 . S
C365 C387 1.432 . S
C366 C365 1.373 . S
C366 C367 1.339 . S
C366 C369 1.530 . S
C367 C362 1.304 . S
C367 C366 1.339 . S
C367 H428 0.930 . S
C368 C364 1.567 . S
C368 H429 0.961 . S
C368 H430 0.960 . S
C368 H431 0.958 . S
C369 C366 1.530 . S
C369 H432 0.961 . S
C369 H433 0.960 . S
C369 H434 0.960 . S
C370 C371 1.530 . S
C370 H436 0.961 . S
C370 H437 0.961 . S
C370 H438 0.959 . S
C371 C370 1.530 . S
C371 O399 1.412 . S
C371 H435 0.980 . S
C372 C373 1.288 . S
C372 C377 1.377 . S
C372 O399 1.393 . S
C373 C372 1.288 . S
C373 C374 1.369 . S
C373 H439 0.932 . S
C374 C373 1.369 . S
C374 C375 1.398 . S
C374 C378 1.527 . S
C375 C374 1.398 . S
C375 C376 1.380 . S
C375 C389 1.497 . S
C376 C375 1.380 . S
C376 C377 1.383 . S
C376 C379 1.603 . S
C377 C372 1.377 . S
C377 C376 1.383 . S
C377 H440 0.929 . S
C378 C374 1.527 . S
C378 H441 0.961 . S
C378 H442 0.959 . S
C378 H443 0.959 . S
C379 C376 1.603 . S
C379 H444 0.960 . S
C379 H445 0.962 . S
C379 H446 0.961 . S
C380 C347 1.587 . S
C380 C381 1.360 . S
C380 C393 1.412 . S
C381 C380 1.360 . S
C381 C382 1.365 . S
C381 H447 0.929 . S
C382 C357 1.553 . S
C382 C381 1.365 . S
C382 C383 1.404 . S
C383 C382 1.404 . S
C383 C384 1.395 1_455 S
C383 C394 1.451 . S
C384 C383 1.395 1_655 S
C384 C385 1.322 . S
C384 H448 0.930 . S
C385 C384 1.322 . S
C385 C386 1.459 . S
C385 H449 0.929 . S
C386 C385 1.459 . S
C386 C387 1.445 . S
C386 C395 1.395 1_655 S
C387 C365 1.432 . S
C387 C386 1.445 . S
C387 C388 1.370 . S
C388 C387 1.370 . S
C388 C389 1.438 1_655 S
C388 H450 0.930 . S
C389 C375 1.497 . S
C389 C388 1.438 1_455 S
C389 C390 1.360 . S
C390 C389 1.360 . S
C390 C391 1.401 . S
C390 C395 1.446 . S
C391 C390 1.401 . S
C391 C392 1.347 . S
C391 H451 0.929 . S
C392 C391 1.347 . S
C392 C393 1.455 . S
C392 H452 0.930 . S
C393 C380 1.412 . S
C393 C392 1.455 . S
C393 C394 1.331 . S
C394 C383 1.451 . S
C394 C393 1.331 . S
C394 C395 1.497 . S
C395 C386 1.395 1_455 S
C395 C390 1.446 . S
C395 C394 1.497 . S
C396 C397 1.582 . S
C396 H453 0.962 . S
C396 H454 0.959 . S
C396 H455 0.958 . S
C397 C396 1.582 . S
C397 O400 1.458 . S
C397 H426 0.980 . S
O398 C343 1.426 . S
O398 C344 1.334 . S
O399 C371 1.412 . S
O399 C372 1.393 . S
O400 C362 1.435 . S
O400 C397 1.458 . S
O401 C353 1.468 . S
O401 C354 1.408 . S
H402 C343 0.980 . S
H403 C342 0.959 . S
H404 C342 0.959 . S
H405 C342 0.960 . S
H406 C345 0.929 . S
H407 C349 0.929 . S
H408 C350 0.959 . S
H409 C350 0.961 . S
H410 C350 0.961 . S
H411 C351 0.960 . S
H412 C351 0.960 . S
H413 C351 0.961 . S
H414 C353 0.980 . S
H415 C352 0.961 1_554 S
H416 C352 0.960 . S
H417 C352 0.959 . S
H418 C355 0.930 . S
H419 C359 0.931 . S
H420 C360 0.959 . S
H421 C360 0.961 . S
H422 C360 0.959 1_655 S
H423 C361 0.962 1_655 S
H424 C361 0.960 . S
H425 C361 0.960 1_655 S
H426 C397 0.980 . S
H427 C363 0.930 . S
H428 C367 0.930 . S
H429 C368 0.961 . S
H430 C368 0.960 . S
H431 C368 0.958 . S
H432 C369 0.961 . S
H433 C369 0.960 . S
H434 C369 0.960 . S
H435 C371 0.980 . S
H436 C370 0.961 . S
H437 C370 0.961 . S
H438 C370 0.959 . S
H439 C373 0.932 . S
H440 C377 0.929 . S
H441 C378 0.961 . S
H442 C378 0.959 . S
H443 C378 0.959 . S
H444 C379 0.960 . S
H445 C379 0.962 . S
H446 C379 0.961 . S
H447 C381 0.929 . S
H448 C384 0.930 . S
H449 C385 0.929 . S
H450 C388 0.930 . S
H451 C391 0.929 . S
H452 C392 0.930 . S
H453 C396 0.962 . S
H454 C396 0.959 . S
H455 C396 0.958 . S
C456 C457 1.560 . S
C456 H517 0.959 . S
C456 H518 0.959 . S
C456 H519 0.960 . S
C457 C456 1.560 . S
C457 O512 1.426 . S
C457 H516 0.980 . S
C458 C459 1.407 . S
C458 C463 1.418 . S
C458 O512 1.334 . S
C459 C458 1.407 . S
C459 C460 1.360 . S
C459 H520 0.929 . S
C460 C459 1.360 . S
C460 C461 1.401 . S
C460 C464 1.527 . S
C461 C460 1.401 . S
C461 C462 1.405 . S
C461 C494 1.587 . S
C462 C461 1.405 . S
C462 C463 1.332 . S
C462 C465 1.496 . S
C463 C458 1.418 . S
C463 C462 1.332 . S
C463 H521 0.929 . S
C464 C460 1.527 . S
C464 H522 0.959 . S
C464 H523 0.961 . S
C464 H524 0.961 . S
C465 C462 1.496 . S
C465 H525 0.960 . S
C465 H526 0.960 . S
C465 H527 0.961 . S
C466 C467 1.517 . S
C466 H529 0.961 . S
C466 H530 0.960 . S
C466 H531 0.959 . S
C467 C466 1.517 . S
C467 O515 1.468 . S
C467 H528 0.980 . S
C468 C469 1.349 . S
C468 C473 1.367 . S
C468 O515 1.408 . S
C469 C468 1.349 . S
C469 C470 1.407 . S
C469 H532 0.930 . S
C470 C469 1.407 . S
C470 C471 1.449 . S
C470 C474 1.535 . S
C471 C470 1.449 . S
C471 C472 1.384 . S
C471 C496 1.553 . S
C472 C471 1.384 . S
C472 C473 1.364 . S
C472 C475 1.450 . S
C473 C468 1.367 . S
C473 C472 1.364 . S
C473 H533 0.931 . S
C474 C470 1.535 . S
C474 H534 0.959 . S
C474 H535 0.961 . S
C474 H536 0.959 . S
C475 C472 1.450 . S
C475 H537 0.960 . S
C475 H538 0.960 . S
C475 H539 0.960 . S
C476 C477 1.309 . S
C476 C481 1.304 . S
C476 O514 1.435 . S
C477 C476 1.309 . S
C477 C478 1.476 . S
C477 H541 0.930 . S
C478 C477 1.476 . S
C478 C479 1.400 . S
C478 C482 1.567 . S
C479 C478 1.400 . S
C479 C480 1.373 . S
C479 C501 1.432 . S
C480 C479 1.373 . S
C480 C481 1.339 . S
C480 C483 1.530 . S
C481 C476 1.304 . S
C481 C480 1.339 . S
C481 H542 0.930 . S
C482 C478 1.567 . S
C482 H543 0.961 . S
C482 H544 0.960 . S
C482 H545 0.958 . S
C483 C480 1.530 . S
C483 H546 0.961 . S
C483 H547 0.960 . S
C483 H548 0.960 . S
C484 C485 1.530 . S
C484 H550 0.961 . S
C484 H551 0.961 . S
C484 H552 0.959 . S
C485 C484 1.530 . S
C485 O513 1.412 . S
C485 H549 0.980 . S
C486 C487 1.288 . S
C486 C491 1.377 . S
C486 O513 1.393 . S
C487 C486 1.288 . S
C487 C488 1.369 . S
C487 H553 0.932 . S
C488 C487 1.369 . S
C488 C489 1.398 . S
C488 C492 1.527 1_565 S
C489 C488 1.398 . S
C489 C490 1.380 . S
C489 C503 1.497 1_565 S
C490 C489 1.380 . S
C490 C491 1.383 . S
C490 C493 1.603 . S
C491 C486 1.377 . S
C491 C490 1.383 . S
C491 H554 0.929 . S
C492 C488 1.527 1_545 S
C492 H555 0.961 . S
C492 H556 0.959 . S
C492 H557 0.959 . S
C493 C490 1.603 . S
C493 H558 0.960 . S
C493 H559 0.985 . S
C493 H560 0.961 . S
C494 C461 1.587 . S
C494 C495 1.360 . S
C494 C507 1.412 . S
C495 C494 1.360 . S
C495 C496 1.365 1_565 S
C495 H561 0.929 . S
C496 C471 1.553 . S
C496 C495 1.365 1_545 S
C496 C497 1.404 . S
C497 C496 1.404 . S
C497 C498 1.395 . S
C497 C508 1.451 . S
C498 C497 1.395 . S
C498 C499 1.322 . S
C498 H562 0.930 . S
C499 C498 1.322 . S
C499 C500 1.459 1_556 S
C499 H563 0.929 . S
C500 C499 1.459 1_554 S
C500 C501 1.445 . S
C500 C509 1.396 . S
C501 C479 1.432 . S
C501 C500 1.445 . S
C501 C502 1.370 . S
C502 C501 1.370 . S
C502 C503 1.438 . S
C502 H564 0.930 . S
C503 C489 1.497 1_545 S
C503 C502 1.438 . S
C503 C504 1.369 . S
C504 C503 1.369 . S
C504 C505 1.374 1_545 S
C504 C509 1.468 . S
C505 C504 1.374 1_565 S
C505 C506 1.347 1_554 S
C505 H565 0.929 . S
C506 C505 1.347 1_556 S
C506 C507 1.455 . S
C506 H566 0.930 . S
C507 C494 1.412 . S
C507 C506 1.455 . S
C507 C508 1.331 1_565 S
C508 C497 1.451 . S
C508 C507 1.331 1_545 S
C508 C509 1.491 1_556 S
C509 C500 1.396 . S
C509 C504 1.468 . S
C509 C508 1.491 1_554 S
C510 C511 1.582 . S
C510 H567 0.962 . S
C510 H568 0.959 . S
C510 H569 0.958 . S
C511 C510 1.582 . S
C511 O514 1.458 . S
C511 H540 0.980 . S
O512 C457 1.426 . S
O512 C458 1.334 . S
O513 C485 1.412 . S
O513 C486 1.393 . S
O514 C476 1.435 . S
O514 C511 1.458 . S
O515 C467 1.468 . S
O515 C468 1.408 . S
H516 C457 0.980 . S
H517 C456 0.959 . S
H518 C456 0.959 . S
H519 C456 0.960 . S
H520 C459 0.929 . S
H521 C463 0.929 . S
H522 C464 0.959 . S
H523 C464 0.961 . S
H524 C464 0.961 . S
H525 C465 0.960 . S
H526 C465 0.960 . S
H527 C465 0.961 . S
H528 C467 0.980 . S
H529 C466 0.961 . S
H530 C466 0.960 . S
H531 C466 0.959 . S
H532 C469 0.930 . S
H533 C473 0.931 . S
H534 C474 0.959 . S
H535 C474 0.961 . S
H536 C474 0.959 . S
H537 C475 0.960 . S
H538 C475 0.960 . S
H539 C475 0.960 . S
H540 C511 0.980 . S
H541 C477 0.930 . S
H542 C481 0.930 . S
H543 C482 0.961 . S
H544 C482 0.960 . S
H545 C482 0.958 . S
H546 C483 0.961 . S
H547 C483 0.960 . S
H548 C483 0.960 . S
H549 C485 0.980 . S
H550 C484 0.961 . S
H551 C484 0.961 . S
H552 C484 0.959 . S
H553 C487 0.932 . S
H554 C491 0.929 . S
H555 C492 0.961 . S
H556 C492 0.959 . S
H557 C492 0.959 . S
H558 C493 0.960 . S
H559 C493 0.985 . S
H560 C493 0.961 . S
H561 C495 0.929 . S
H562 C498 0.930 . S
H563 C499 0.929 . S
H564 C502 0.930 . S
H565 C505 0.929 . S
H566 C506 0.930 . S
H567 C510 0.962 . S
H568 C510 0.959 . S
H569 C510 0.958 . S
C570 C571 1.560 . S
C570 H631 0.959 . S
C570 H632 0.959 . S
C570 H633 0.960 . S
C571 C570 1.560 . S
C571 O626 1.426 . S
C571 H630 0.980 . S
C572 C573 1.407 . S
C572 C577 1.418 . S
C572 O626 1.334 . S
C573 C572 1.407 . S
C573 C574 1.360 . S
C573 H634 0.929 . S
C574 C573 1.360 . S
C574 C575 1.401 . S
C574 C578 1.527 . S
C575 C574 1.401 . S
C575 C576 1.405 . S
C575 C608 1.587 . S
C576 C575 1.405 . S
C576 C577 1.332 . S
C576 C579 1.496 . S
C577 C572 1.418 . S
C577 C576 1.332 . S
C577 H635 0.929 . S
C578 C574 1.527 . S
C578 H636 0.959 . S
C578 H637 0.961 . S
C578 H638 0.961 . S
C579 C576 1.496 . S
C579 H639 0.960 . S
C579 H640 0.960 . S
C579 H641 0.961 . S
C580 C581 1.517 1_556 S
C580 H643 0.961 . S
C580 H644 0.960 . S
C580 H645 0.959 1_556 S
C581 C580 1.517 1_554 S
C581 O629 1.468 . S
C581 H642 0.980 . S
C582 C583 1.349 . S
C582 C587 1.367 . S
C582 O629 1.408 . S
C583 C582 1.349 . S
C583 C584 1.407 . S
C583 H646 0.930 . S
C584 C583 1.407 . S
C584 C585 1.449 . S
C584 C588 1.535 . S
C585 C584 1.449 . S
C585 C586 1.384 . S
C585 C610 1.553 . S
C586 C585 1.384 . S
C586 C587 1.364 . S
C586 C589 1.450 . S
C587 C582 1.367 . S
C587 C586 1.364 . S
C587 H647 0.931 . S
C588 C584 1.535 . S
C588 H648 0.959 . S
C588 H649 0.961 . S
C588 H650 0.959 . S
C589 C586 1.450 . S
C589 H651 0.960 . S
C589 H652 0.960 . S
C589 H653 0.960 . S
C590 C591 1.309 . S
C590 C595 1.304 . S
C590 O628 1.435 . S
C591 C590 1.309 . S
C591 C592 1.476 . S
C591 H655 0.930 . S
C592 C591 1.476 . S
C592 C593 1.400 . S
C592 C596 1.567 . S
C593 C592 1.400 . S
C593 C594 1.373 . S
C593 C615 1.432 . S
C594 C593 1.373 . S
C594 C595 1.339 . S
C594 C597 1.530 . S
C595 C590 1.304 . S
C595 C594 1.339 . S
C595 H656 0.930 . S
C596 C592 1.567 . S
C596 H657 0.961 . S
C596 H658 0.960 . S
C596 H659 0.958 . S
C597 C594 1.530 . S
C597 H660 0.961 . S
C597 H661 0.960 . S
C597 H662 0.960 . S
C598 C599 1.530 . S
C598 H664 0.961 . S
C598 H665 0.961 . S
C598 H666 0.959 . S
C599 C598 1.530 . S
C599 O627 1.412 . S
C599 H663 0.980 . S
C600 C601 1.288 . S
C600 C605 1.377 . S
C600 O627 1.393 . S
C601 C600 1.288 . S
C601 C602 1.369 . S
C601 H667 0.932 . S
C602 C601 1.369 . S
C602 C603 1.398 . S
C602 C606 1.527 . S
C603 C602 1.398 . S
C603 C604 1.380 . S
C603 C617 1.497 . S
C604 C603 1.380 . S
C604 C605 1.383 . S
C604 C607 1.603 . S
C605 C600 1.377 . S
C605 C604 1.383 . S
C605 H668 0.929 . S
C606 C602 1.527 . S
C606 H669 0.961 . S
C606 H670 0.959 . S
C606 H671 0.959 . S
C607 C604 1.603 . S
C607 H672 0.960 . S
C607 H673 0.962 . S
C607 H674 0.961 . S
C608 C575 1.587 . S
C608 C609 1.360 . S
C608 C621 1.412 . S
C609 C608 1.360 . S
C609 C610 1.365 . S
C609 H675 0.929 . S
C610 C585 1.553 . S
C610 C609 1.365 . S
C610 C611 1.404 . S
C611 C610 1.404 . S
C611 C612 1.395 . S
C611 C622 1.451 . S
C612 C611 1.395 . S
C612 C613 1.322 . S
C612 H676 0.930 . S
C613 C612 1.322 . S
C613 C614 1.459 . S
C613 H677 0.929 . S
C614 C613 1.459 . S
C614 C615 1.445 . S
C614 C623 1.395 . S
C615 C593 1.432 . S
C615 C614 1.445 . S
C615 C616 1.370 . S
C616 C615 1.370 . S
C616 C617 1.438 . S
C616 H678 0.930 . S
C617 C603 1.497 . S
C617 C616 1.438 . S
C617 C618 1.360 . S
C618 C617 1.360 . S
C618 C619 1.401 . S
C618 C623 1.446 . S
C619 C618 1.401 . S
C619 C620 1.347 . S
C619 H679 0.929 . S
C620 C619 1.347 . S
C620 C621 1.455 . S
C620 H680 0.930 . S
C621 C608 1.412 . S
C621 C620 1.455 . S
C621 C622 1.331 . S
C622 C611 1.451 . S
C622 C621 1.331 . S
C622 C623 1.497 . S
C623 C614 1.395 . S
C623 C618 1.446 . S
C623 C622 1.497 . S
C624 C625 1.582 . S
C624 H681 0.962 . S
C624 H682 0.959 . S
C624 H683 0.958 . S
C625 C624 1.582 . S
C625 O628 1.458 . S
C625 H654 0.980 . S
O626 C571 1.426 . S
O626 C572 1.334 . S
O627 C599 1.412 . S
O627 C600 1.393 . S
O628 C590 1.435 . S
O628 C625 1.458 . S
O629 C581 1.468 . S
O629 C582 1.408 . S
H630 C571 0.980 . S
H631 C570 0.959 . S
H632 C570 0.959 . S
H633 C570 0.960 . S
H634 C573 0.929 . S
H635 C577 0.929 . S
H636 C578 0.959 . S
H637 C578 0.961 . S
H638 C578 0.961 . S
H639 C579 0.960 . S
H640 C579 0.960 . S
H641 C579 0.961 . S
H642 C581 0.980 . S
H643 C580 0.961 . S
H644 C580 0.960 . S
H645 C580 0.959 1_554 S
H646 C583 0.930 . S
H647 C587 0.931 . S
H648 C588 0.959 . S
H649 C588 0.961 . S
H650 C588 0.959 . S
H651 C589 0.960 . S
H652 C589 0.960 . S
H653 C589 0.960 . S
H654 C625 0.980 . S
H655 C591 0.930 . S
H656 C595 0.930 . S
H657 C596 0.961 . S
H658 C596 0.960 . S
H659 C596 0.958 . S
H660 C597 0.961 . S
H661 C597 0.960 . S
H662 C597 0.960 . S
H663 C599 0.980 . S
H664 C598 0.961 . S
H665 C598 0.961 . S
H666 C598 0.959 . S
H667 C601 0.932 . S
H668 C605 0.929 . S
H669 C606 0.961 . S
H670 C606 0.959 . S
H671 C606 0.959 . S
H672 C607 0.960 . S
H673 C607 0.962 . S
H674 C607 0.961 . S
H675 C609 0.929 . S
H676 C612 0.930 . S
H677 C613 0.929 . S
H678 C616 0.930 . S
H679 C619 0.929 . S
H680 C620 0.930 . S
H681 C624 0.962 . S
H682 C624 0.959 . S
H683 C624 0.958 . S
In684 O685 2.294 . S
In684 O686 2.326 . S
In684 O690 2.266 . S
In684 O691 2.326 . S
In684 O692 2.266 . S
In684 O693 2.326 . S
In684 O695 2.294 . S
In684 O696 2.326 . S
O685 In684 2.294 . S
O685 C694 1.240 . S
O686 In684 2.326 . S
O686 C694 1.252 . S
C687 O690 1.252 . S
C687 O691 1.260 . S
C688 O695 1.240 . S
C688 O696 1.252 . S
C689 O692 1.252 . S
C689 O693 1.260 . S
O690 In684 2.266 . S
O690 C687 1.252 . S
O691 In684 2.326 . S
O691 C687 1.260 . S
O692 In684 2.266 . S
O692 C689 1.252 . S
O693 In684 2.326 . S
O693 C689 1.260 . S
C694 O685 1.240 . S
C694 O686 1.252 . S
O695 In684 2.294 . S
O695 C688 1.240 . S
O696 In684 2.326 . S
O696 C688 1.252 . S
In697 O698 2.294 . S
In697 O699 2.326 . S
In697 O703 2.266 . S
In697 O704 2.326 . S
In697 O705 2.266 . S
In697 O706 2.326 . S
In697 O708 2.294 . S
In697 O709 2.326 . S
O698 In697 2.294 . S
O698 C707 1.240 . S
O699 In697 2.326 . S
O699 C707 1.252 . S
C700 O703 1.252 . S
C700 O704 1.260 . S
C701 O708 1.240 . S
C701 O709 1.252 . S
C702 O705 1.252 . S
C702 O706 1.260 . S
O703 In697 2.266 . S
O703 C700 1.252 . S
O704 In697 2.326 . S
O704 C700 1.260 . S
O705 In697 2.266 . S
O705 C702 1.252 . S
O706 In697 2.326 . S
O706 C702 1.260 . S
C707 O698 1.240 . S
C707 O699 1.252 . S
O708 In697 2.294 . S
O708 C701 1.240 . S
O709 In697 2.326 . S
O709 C701 1.252 . S
In710 O711 2.294 . S
In710 O712 2.326 . S
In710 O716 2.266 . S
In710 O717 2.326 . S
In710 O718 2.266 . S
In710 O719 2.326 . S
In710 O721 2.294 . S
In710 O722 2.326 . S
O711 In710 2.294 . S
O711 C720 1.240 . S
O712 In710 2.326 . S
O712 C720 1.252 . S
C713 O716 1.252 . S
C713 O717 1.260 . S
C714 O721 1.240 . S
C714 O722 1.252 . S
C715 O718 1.252 . S
C715 O719 1.260 . S
O716 In710 2.266 . S
O716 C713 1.252 . S
O717 In710 2.326 . S
O717 C713 1.260 . S
O718 In710 2.266 . S
O718 C715 1.252 . S
O719 In710 2.326 . S
O719 C715 1.260 . S
C720 O711 1.240 . S
C720 O712 1.252 . S
O721 In710 2.294 . S
O721 C714 1.240 . S
O722 In710 2.326 . S
O722 C714 1.252 . S
In723 O724 2.294 . S
In723 O725 2.326 . S
In723 O729 2.266 . S
In723 O730 2.326 . S
In723 O731 2.266 . S
In723 O732 2.326 . S
In723 O734 2.294 . S
In723 O735 2.326 . S
O724 In723 2.294 . S
O724 C733 1.240 . S
O725 In723 2.326 . S
O725 C733 1.252 . S
C726 O729 1.252 . S
C726 O730 1.260 . S
C727 O734 1.240 . S
C727 O735 1.252 . S
C728 O731 1.252 . S
C728 O732 1.260 . S
O729 In723 2.266 . S
O729 C726 1.252 . S
O730 In723 2.326 . S
O730 C726 1.260 . S
O731 In723 2.266 . S
O731 C728 1.252 . S
O732 In723 2.326 . S
O732 C728 1.260 . S
C733 O724 1.240 . S
C733 O725 1.252 . S
O734 In723 2.294 . S
O734 C727 1.240 . S
O735 In723 2.326 . S
O735 C727 1.252 . S
In736 O737 2.294 . S
In736 O738 2.326 . S
In736 O742 2.266 . S
In736 O743 2.326 . S
In736 O744 2.266 . S
In736 O745 2.326 . S
In736 O747 2.294 . S
In736 O748 2.326 . S
O737 In736 2.294 . S
O737 C746 1.240 . S
O738 In736 2.326 . S
O738 C746 1.252 . S
C739 O742 1.252 . S
C739 O743 1.260 . S
C740 O747 1.240 . S
C740 O748 1.252 . S
C741 O744 1.252 . S
C741 O745 1.260 . S
O742 In736 2.266 . S
O742 C739 1.252 . S
O743 In736 2.326 . S
O743 C739 1.260 . S
O744 In736 2.266 . S
O744 C741 1.252 . S
O745 In736 2.326 . S
O745 C741 1.260 . S
C746 O737 1.240 . S
C746 O738 1.252 . S
O747 In736 2.294 . S
O747 C740 1.240 . S
O748 In736 2.326 . S
O748 C740 1.252 . S
In749 O750 2.294 . S
In749 O751 2.326 . S
In749 O755 2.266 . S
In749 O756 2.326 . S
In749 O757 2.266 . S
In749 O758 2.326 . S
In749 O760 2.294 . S
In749 O761 2.326 . S
O750 In749 2.294 . S
O750 C759 1.240 . S
O751 In749 2.326 . S
O751 C759 1.252 . S
C752 O755 1.252 . S
C752 O756 1.260 . S
C753 O760 1.240 . S
C753 O761 1.252 . S
C754 O757 1.252 . S
C754 O758 1.260 . S
O755 In749 2.266 . S
O755 C752 1.252 . S
O756 In749 2.326 . S
O756 C752 1.260 . S
O757 In749 2.266 . S
O757 C754 1.252 . S
O758 In749 2.326 . S
O758 C754 1.260 . S
C759 O750 1.240 . S
C759 O751 1.252 . S
O760 In749 2.294 . S
O760 C753 1.240 . S
O761 In749 2.326 . S
O761 C753 1.252 . S
C762 C763 1.363 . S
C762 C768 1.379 . S
C762 N770 1.356 . S
C763 C762 1.363 . S
C763 C769 1.363 . S
C764 C765 1.363 . S
C764 C769 1.379 . S
C764 N771 1.356 . S
C765 C764 1.363 . S
C765 C768 1.363 . S
N766 C768 1.356 . S
N766 H778 0.984 . S
N766 H779 0.985 . S
N767 C769 1.356 . S
N767 H772 0.984 . S
N767 H773 0.985 . S
C768 C762 1.379 . S
C768 C765 1.363 . S
C768 N766 1.356 . S
C769 C763 1.363 . S
C769 C764 1.379 . S
C769 N767 1.356 . S
N770 C762 1.356 . S
N770 H776 0.984 . S
N770 H777 0.984 . S
N771 C764 1.356 . S
N771 H774 0.984 . S
N771 H775 0.985 . S
H772 N767 0.984 . S
H773 N767 0.985 . S
H774 N771 0.984 . S
H775 N771 0.985 . S
H776 N770 0.984 . S
H777 N770 0.984 . S
H778 N766 0.984 . S
H779 N766 0.985 . S
C780 C781 1.363 . S
C780 C786 1.379 . S
C780 N788 1.356 . S
C781 C780 1.363 . S
C781 C787 1.363 . S
C782 C783 1.363 . S
C782 C787 1.379 . S
C782 N789 1.356 . S
C783 C782 1.363 . S
C783 C786 1.363 . S
N784 C786 1.356 . S
N784 H796 0.984 . S
N784 H797 0.985 . S
N785 C787 1.356 . S
N785 H790 0.984 . S
N785 H791 0.985 . S
C786 C780 1.379 . S
C786 C783 1.363 . S
C786 N784 1.356 . S
C787 C781 1.363 . S
C787 C782 1.379 . S
C787 N785 1.356 . S
N788 C780 1.356 . S
N788 H794 0.984 . S
N788 H795 0.984 . S
N789 C782 1.356 . S
N789 H792 0.984 . S
N789 H793 0.985 . S
H790 N785 0.984 . S
H791 N785 0.985 . S
H792 N789 0.984 . S
H793 N789 0.985 . S
H794 N788 0.984 . S
H795 N788 0.984 . S
H796 N784 0.984 . S
H797 N784 0.985 . S
C798 C799 1.363 . S
C798 C804 1.379 . S
C798 N806 1.356 . S
C799 C798 1.363 . S
C799 C805 1.363 . S
C800 C801 1.363 . S
C800 C805 1.379 . S
C800 N807 1.356 . S
C801 C800 1.363 . S
C801 C804 1.363 . S
N802 C804 1.356 . S
N802 H814 0.984 . S
N802 H815 0.985 . S
N803 C805 1.356 . S
N803 H808 0.984 . S
N803 H809 0.985 . S
C804 C798 1.379 . S
C804 C801 1.363 . S
C804 N802 1.356 . S
C805 C799 1.363 . S
C805 C800 1.379 . S
C805 N803 1.356 . S
N806 C798 1.356 . S
N806 H812 0.984 . S
N806 H813 0.984 . S
N807 C800 1.356 . S
N807 H810 0.984 . S
N807 H811 0.985 . S
H808 N803 0.984 . S
H809 N803 0.985 . S
H810 N807 0.984 . S
H811 N807 0.985 . S
H812 N806 0.984 . S
H813 N806 0.984 . S
H814 N802 0.984 . S
H815 N802 0.985 . S
C816 C817 1.363 . S
C816 C822 1.379 . S
C816 N824 1.356 . S
C817 C816 1.363 . S
C817 C823 1.363 . S
C818 C819 1.363 . S
C818 C823 1.379 . S
C818 N825 1.356 . S
C819 C818 1.363 . S
C819 C822 1.363 . S
N820 C822 1.356 . S
N820 H832 0.984 . S
N820 H833 0.985 . S
N821 C823 1.356 . S
N821 H826 0.984 . S
N821 H827 0.985 . S
C822 C816 1.379 . S
C822 C819 1.363 . S
C822 N820 1.356 . S
C823 C817 1.363 . S
C823 C818 1.379 . S
C823 N821 1.356 . S
N824 C816 1.356 . S
N824 H830 0.984 . S
N824 H831 0.984 . S
N825 C818 1.356 . S
N825 H828 0.984 . S
N825 H829 0.985 . S
H826 N821 0.984 . S
H827 N821 0.985 . S
H828 N825 0.984 . S
H829 N825 0.985 . S
H830 N824 0.984 . S
H831 N824 0.984 . S
H832 N820 0.984 . S
H833 N820 0.985 . S
C834 C835 1.363 . S
C834 C840 1.379 . S
C834 N842 1.356 . S
C835 C834 1.363 . S
C835 C841 1.363 . S
C836 C837 1.363 . S
C836 C841 1.379 . S
C836 N843 1.356 . S
C837 C836 1.363 . S
C837 C840 1.363 . S
N838 C840 1.356 . S
N838 H850 0.984 . S
N838 H851 0.985 . S
N839 C841 1.356 . S
N839 H844 0.984 . S
N839 H845 0.985 . S
C840 C834 1.379 . S
C840 C837 1.363 . S
C840 N838 1.356 . S
C841 C835 1.363 . S
C841 C836 1.379 . S
C841 N839 1.356 . S
N842 C834 1.356 . S
N842 H848 0.984 . S
N842 H849 0.984 . S
N843 C836 1.356 . S
N843 H846 0.984 . S
N843 H847 0.985 . S
H844 N839 0.984 . S
H845 N839 0.985 . S
H846 N843 0.984 . S
H847 N843 0.985 . S
H848 N842 0.984 . S
H849 N842 0.984 . S
H850 N838 0.984 . S
H851 N838 0.985 . S
C852 C853 1.363 . S
C852 C858 1.379 . S
C852 N860 1.356 . S
C853 C852 1.363 . S
C853 C859 1.363 . S
C854 C855 1.363 . S
C854 C859 1.379 . S
C854 N861 1.356 . S
C855 C854 1.363 . S
C855 C858 1.363 . S
N856 C858 1.356 . S
N856 H868 0.984 . S
N856 H869 0.985 . S
N857 C859 1.356 . S
N857 H862 0.984 . S
N857 H863 0.985 . S
C858 C852 1.379 . S
C858 C855 1.363 . S
C858 N856 1.356 . S
C859 C853 1.363 . S
C859 C854 1.379 . S
C859 N857 1.356 . S
N860 C852 1.356 . S
N860 H866 0.984 . S
N860 H867 0.984 . S
N861 C854 1.356 . S
N861 H864 0.984 . S
N861 H865 0.985 . S
H862 N857 0.984 . S
H863 N857 0.985 . S
H864 N861 0.984 . S
H865 N861 0.985 . S
H866 N860 0.984 . S
H867 N860 0.984 . S
H868 N856 0.984 . S
H869 N856 0.985 . S
C870 C871 1.363 . S
C870 C876 1.379 . S
C870 N878 1.356 . S
C871 C870 1.363 . S
C871 C877 1.363 . S
C872 C873 1.363 . S
C872 C877 1.379 . S
C872 N879 1.356 . S
C873 C872 1.363 . S
C873 C876 1.363 . S
N874 C876 1.356 . S
N874 H886 0.984 . S
N874 H887 0.985 . S
N875 C877 1.356 . S
N875 H880 0.984 . S
N875 H881 0.985 . S
C876 C870 1.379 . S
C876 C873 1.363 . S
C876 N874 1.356 . S
C877 C871 1.363 . S
C877 C872 1.379 . S
C877 N875 1.356 . S
N878 C870 1.356 . S
N878 H884 0.984 . S
N878 H885 0.984 . S
N879 C872 1.356 . S
N879 H882 0.984 . S
N879 H883 0.985 . S
H880 N875 0.984 . S
H881 N875 0.985 . S
H882 N879 0.984 . S
H883 N879 0.985 . S
H884 N878 0.984 . S
H885 N878 0.984 . S
H886 N874 0.984 . S
H887 N874 0.985 . S
C888 C889 1.363 . S
C888 C894 1.379 . S
C888 N896 1.356 . S
C889 C888 1.363 . S
C889 C895 1.363 . S
C890 C891 1.363 . S
C890 C895 1.379 . S
C890 N897 1.356 . S
C891 C890 1.363 . S
C891 C894 1.363 . S
N892 C894 1.356 . S
N892 H904 0.984 . S
N892 H905 0.985 . S
N893 C895 1.356 . S
N893 H898 0.984 . S
N893 H899 0.985 . S
C894 C888 1.379 . S
C894 C891 1.363 . S
C894 N892 1.356 . S
C895 C889 1.363 . S
C895 C890 1.379 . S
C895 N893 1.356 . S
N896 C888 1.356 . S
N896 H902 0.984 . S
N896 H903 0.984 . S
N897 C890 1.356 . S
N897 H900 0.984 . S
N897 H901 0.985 . S
H898 N893 0.984 . S
H899 N893 0.985 . S
H900 N897 0.984 . S
H901 N897 0.985 . S
H902 N896 0.984 . S
H903 N896 0.984 . S
H904 N892 0.984 . S
H905 N892 0.985 . S
C906 C907 1.363 . S
C906 C912 1.379 . S
C906 N914 1.356 . S
C907 C906 1.363 . S
C907 C913 1.363 . S
C908 C909 1.363 . S
C908 C913 1.379 . S
C908 N915 1.356 . S
C909 C908 1.363 . S
C909 C912 1.363 . S
N910 C912 1.356 . S
N910 H922 0.984 . S
N910 H923 0.985 . S
N911 C913 1.356 . S
N911 H916 0.984 . S
N911 H917 0.985 . S
C912 C906 1.379 . S
C912 C909 1.363 . S
C912 N910 1.356 . S
C913 C907 1.363 . S
C913 C908 1.379 . S
C913 N911 1.356 . S
N914 C906 1.356 . S
N914 H920 0.984 . S
N914 H921 0.984 . S
N915 C908 1.356 . S
N915 H918 0.984 . S
N915 H919 0.985 . S
H916 N911 0.984 . S
H917 N911 0.985 . S
H918 N915 0.984 . S
H919 N915 0.985 . S
H920 N914 0.984 . S
H921 N914 0.984 . S
H922 N910 0.984 . S
H923 N910 0.985 . S
C924 C925 1.363 . S
C924 C930 1.379 . S
C924 N932 1.356 . S
C925 C924 1.363 . S
C925 C931 1.363 . S
C926 C927 1.363 . S
C926 C931 1.379 . S
C926 N933 1.356 . S
C927 C926 1.363 . S
C927 C930 1.363 . S
N928 C930 1.356 . S
N928 H940 0.984 . S
N928 H941 0.985 . S
N929 C931 1.356 . S
N929 H934 0.984 . S
N929 H935 0.985 1_554 S
C930 C924 1.379 . S
C930 C927 1.363 . S
C930 N928 1.356 . S
C931 C925 1.363 . S
C931 C926 1.379 . S
C931 N929 1.356 . S
N932 C924 1.356 . S
N932 H938 0.984 . S
N932 H939 0.984 . S
N933 C926 1.356 . S
N933 H936 0.984 . S
N933 H937 0.985 . S
H934 N929 0.984 . S
H935 N929 0.985 1_556 S
H936 N933 0.984 . S
H937 N933 0.985 . S
H938 N932 0.984 . S
H939 N932 0.984 . S
H940 N928 0.984 . S
H941 N928 0.985 . S
C942 C943 1.363 . S
C942 C948 1.379 . S
C942 N950 1.356 . S
C943 C942 1.363 . S
C943 C949 1.363 . S
C944 C945 1.363 . S
C944 C949 1.379 . S
C944 N951 1.356 . S
C945 C944 1.363 . S
C945 C948 1.363 . S
N946 C948 1.356 . S
N946 H958 0.984 . S
N946 H959 0.985 . S
N947 C949 1.356 . S
N947 H952 0.984 . S
N947 H953 0.985 . S
C948 C942 1.379 . S
C948 C945 1.363 . S
C948 N946 1.356 . S
C949 C943 1.363 . S
C949 C944 1.379 . S
C949 N947 1.356 . S
N950 C942 1.356 . S
N950 H956 0.984 . S
N950 H957 0.984 . S
N951 C944 1.356 . S
N951 H954 0.984 . S
N951 H955 0.985 . S
H952 N947 0.984 . S
H953 N947 0.985 . S
H954 N951 0.984 . S
H955 N951 0.985 . S
H956 N950 0.984 . S
H957 N950 0.984 . S
H958 N946 0.984 . S
H959 N946 0.985 . S
C960 C961 1.363 . S
C960 C966 1.379 . S
C960 N968 1.356 . S
C961 C960 1.363 . S
C961 C967 1.363 . S
C962 C963 1.363 . S
C962 C967 1.379 . S
C962 N969 1.356 . S
C963 C962 1.363 . S
C963 C966 1.363 . S
N964 C966 1.356 . S
N964 H976 0.984 . S
N964 H977 0.985 . S
N965 C967 1.356 . S
N965 H970 0.984 . S
N965 H971 0.985 . S
C966 C960 1.379 . S
C966 C963 1.363 . S
C966 N964 1.356 . S
C967 C961 1.363 . S
C967 C962 1.379 . S
C967 N965 1.356 . S
N968 C960 1.356 . S
N968 H974 0.984 . S
N968 H975 0.984 . S
N969 C962 1.356 . S
N969 H972 0.984 . S
N969 H973 0.985 . S
H970 N965 0.984 . S
H971 N965 0.985 . S
H972 N969 0.984 . S
H973 N969 0.985 . S
H974 N968 0.984 . S
H975 N968 0.984 . S
H976 N964 0.984 . S
H977 N964 0.985 . S
C978 C979 1.363 . S
C978 C984 1.379 . S
C978 N986 1.356 . S
C979 C978 1.363 . S
C979 C985 1.363 . S
C980 C981 1.363 . S
C980 C985 1.379 . S
C980 N987 1.356 . S
C981 C980 1.363 . S
C981 C984 1.363 . S
N982 C984 1.356 . S
N982 H994 0.984 . S
N982 H995 0.985 . S
N983 C985 1.356 . S
N983 H988 0.984 . S
N983 H989 0.985 . S
C984 C978 1.379 . S
C984 C981 1.363 . S
C984 N982 1.356 . S
C985 C979 1.363 . S
C985 C980 1.379 . S
C985 N983 1.356 . S
N986 C978 1.356 . S
N986 H992 0.984 . S
N986 H993 0.984 . S
N987 C980 1.356 . S
N987 H990 0.984 . S
N987 H991 0.985 . S
H988 N983 0.984 . S
H989 N983 0.985 . S
H990 N987 0.984 . S
H991 N987 0.985 . S
H992 N986 0.984 . S
H993 N986 0.984 . S
H994 N982 0.984 . S
H995 N982 0.985 . S
C996 C997 1.363 . S
C996 C1002 1.379 . S
C996 N1004 1.356 . S
C997 C996 1.363 . S
C997 C1003 1.363 . S
C998 C999 1.363 . S
C998 C1003 1.379 . S
C998 N1005 1.356 . S
C999 C998 1.363 . S
C999 C1002 1.363 . S
N1000 C1002 1.356 . S
N1000 H1012 0.984 . S
N1000 H1013 0.985 . S
N1001 C1003 1.356 . S
N1001 H1006 0.984 . S
N1001 H1007 0.985 . S
C1002 C996 1.379 . S
C1002 C999 1.363 . S
C1002 N1000 1.356 . S
C1003 C997 1.363 . S
C1003 C998 1.379 . S
C1003 N1001 1.356 . S
N1004 C996 1.356 . S
N1004 H1010 0.984 . S
N1004 H1011 0.984 . S
N1005 C998 1.356 . S
N1005 H1008 0.984 . S
N1005 H1009 0.985 . S
H1006 N1001 0.984 . S
H1007 N1001 0.985 . S
H1008 N1005 0.984 . S
H1009 N1005 0.985 . S
H1010 N1004 0.984 . S
H1011 N1004 0.984 . S
H1012 N1000 0.984 . S
H1013 N1000 0.985 . S
C1014 C1015 1.363 . S
C1014 C1020 1.379 . S
C1014 N1022 1.356 . S
C1015 C1014 1.363 . S
C1015 C1021 1.363 . S
C1016 C1017 1.363 . S
C1016 C1021 1.379 . S
C1016 N1023 1.356 . S
C1017 C1016 1.363 . S
C1017 C1020 1.363 . S
N1018 C1020 1.356 . S
N1018 H1030 0.984 . S
N1018 H1031 0.985 . S
N1019 C1021 1.356 . S
N1019 H1024 0.984 . S
N1019 H1025 0.985 . S
C1020 C1014 1.379 . S
C1020 C1017 1.363 . S
C1020 N1018 1.356 . S
C1021 C1015 1.363 . S
C1021 C1016 1.379 . S
C1021 N1019 1.356 . S
N1022 C1014 1.356 . S
N1022 H1028 0.984 . S
N1022 H1029 0.984 . S
N1023 C1016 1.356 . S
N1023 H1026 0.984 . S
N1023 H1027 0.985 . S
H1024 N1019 0.984 . S
H1025 N1019 0.985 . S
H1026 N1023 0.984 . S
H1027 N1023 0.985 . S
H1028 N1022 0.984 . S
H1029 N1022 0.984 . S
H1030 N1018 0.984 . S
H1031 N1018 0.985 . S
C1032 C1033 1.363 . S
C1032 C1038 1.379 1_556 S
C1032 N1040 1.356 . S
C1033 C1032 1.363 . S
C1033 C1039 1.363 . S
C1034 C1035 1.363 . S
C1034 C1039 1.379 1_554 S
C1034 N1041 1.356 . S
C1035 C1034 1.363 . S
C1035 C1038 1.363 . S
N1036 C1038 1.356 . S
N1036 H1048 0.984 . S
N1036 H1049 0.985 . S
N1037 C1039 1.356 . S
N1037 H1042 0.984 . S
N1037 H1043 0.985 . S
C1038 C1032 1.379 1_554 S
C1038 C1035 1.363 . S
C1038 N1036 1.356 . S
C1039 C1033 1.363 . S
C1039 C1034 1.379 1_556 S
C1039 N1037 1.356 . S
N1040 C1032 1.356 . S
N1040 H1046 0.984 . S
N1040 H1047 0.984 . S
N1041 C1034 1.356 . S
N1041 H1044 0.984 . S
N1041 H1045 0.985 . S
H1042 N1037 0.984 . S
H1043 N1037 0.985 . S
H1044 N1041 0.984 . S
H1045 N1041 0.985 . S
H1046 N1040 0.984 . S
H1047 N1040 0.984 . S
H1048 N1036 0.984 . S
H1049 N1036 0.985 . S
C1050 C1051 1.363 . S
C1050 C1056 1.379 . S
C1050 N1058 1.356 . S
C1051 C1050 1.363 . S
C1051 C1057 1.363 . S
C1052 C1053 1.363 . S
C1052 C1057 1.379 . S
C1052 N1059 1.356 . S
C1053 C1052 1.363 . S
C1053 C1056 1.363 . S
N1054 C1056 1.356 . S
N1054 H1066 0.984 . S
N1054 H1067 0.985 . S
N1055 C1057 1.356 . S
N1055 H1060 0.984 . S
N1055 H1061 0.985 . S
C1056 C1050 1.379 . S
C1056 C1053 1.363 . S
C1056 N1054 1.356 . S
C1057 C1051 1.363 . S
C1057 C1052 1.379 . S
C1057 N1055 1.356 . S
N1058 C1050 1.356 . S
N1058 H1064 0.984 . S
N1058 H1065 0.984 . S
N1059 C1052 1.356 . S
N1059 H1062 0.984 . S
N1059 H1063 0.985 . S
H1060 N1055 0.984 . S
H1061 N1055 0.985 . S
H1062 N1059 0.984 . S
H1063 N1059 0.985 . S
H1064 N1058 0.984 . S
H1065 N1058 0.984 . S
H1066 N1054 0.984 . S
H1067 N1054 0.985 . S
C1068 C1069 1.363 . S
C1068 C1074 1.379 . S
C1068 N1076 1.356 . S
C1069 C1068 1.363 . S
C1069 C1075 1.363 . S
C1070 C1071 1.363 . S
C1070 C1075 1.379 . S
C1070 N1077 1.356 . S
C1071 C1070 1.363 . S
C1071 C1074 1.363 . S
N1072 C1074 1.356 . S
N1072 H1084 0.984 . S
N1072 H1085 0.985 . S
N1073 C1075 1.356 . S
N1073 H1078 0.984 . S
N1073 H1079 0.985 . S
C1074 C1068 1.379 . S
C1074 C1071 1.363 . S
C1074 N1072 1.356 . S
C1075 C1069 1.363 . S
C1075 C1070 1.379 . S
C1075 N1073 1.356 . S
N1076 C1068 1.356 . S
N1076 H1082 0.984 . S
N1076 H1083 0.984 . S
N1077 C1070 1.356 . S
N1077 H1080 0.984 . S
N1077 H1081 0.985 . S
H1078 N1073 0.984 . S
H1079 N1073 0.985 . S
H1080 N1077 0.984 . S
H1081 N1077 0.985 . S
H1082 N1076 0.984 . S
H1083 N1076 0.984 . S
H1084 N1072 0.984 . S
H1085 N1072 0.985 . S
C1086 C1087 1.363 . S
C1086 C1092 1.379 . S
C1086 N1094 1.356 . S
C1087 C1086 1.363 . S
C1087 C1093 1.363 . S
C1088 C1089 1.363 . S
C1088 C1093 1.379 . S
C1088 N1095 1.356 . S
C1089 C1088 1.363 . S
C1089 C1092 1.363 . S
N1090 C1092 1.356 . S
N1090 H1102 0.984 . S
N1090 H1103 0.985 . S
N1091 C1093 1.356 . S
N1091 H1096 0.984 . S
N1091 H1097 0.985 . S
C1092 C1086 1.379 . S
C1092 C1089 1.363 . S
C1092 N1090 1.356 . S
C1093 C1087 1.363 . S
C1093 C1088 1.379 . S
C1093 N1091 1.356 . S
N1094 C1086 1.356 . S
N1094 H1100 0.984 . S
N1094 H1101 0.984 . S
N1095 C1088 1.356 . S
N1095 H1098 0.984 . S
N1095 H1099 0.985 . S
H1096 N1091 0.984 . S
H1097 N1091 0.985 . S
H1098 N1095 0.984 . S
H1099 N1095 0.985 . S
H1100 N1094 0.984 . S
H1101 N1094 0.984 . S
H1102 N1090 0.984 . S
H1103 N1090 0.985 . S
C1104 C1105 1.363 . S
C1104 C1110 1.379 . S
C1104 N1112 1.356 . S
C1105 C1104 1.363 . S
C1105 C1111 1.363 . S
C1106 C1107 1.363 . S
C1106 C1111 1.379 . S
C1106 N1113 1.356 . S
C1107 C1106 1.363 . S
C1107 C1110 1.363 . S
N1108 C1110 1.356 . S
N1108 H1120 0.984 . S
N1108 H1121 0.985 . S
N1109 C1111 1.356 . S
N1109 H1114 0.984 . S
N1109 H1115 0.985 . S
C1110 C1104 1.379 . S
C1110 C1107 1.363 . S
C1110 N1108 1.356 . S
C1111 C1105 1.363 . S
C1111 C1106 1.379 . S
C1111 N1109 1.356 . S
N1112 C1104 1.356 . S
N1112 H1118 0.984 . S
N1112 H1119 0.984 . S
N1113 C1106 1.356 . S
N1113 H1116 0.984 . S
N1113 H1117 0.985 . S
H1114 N1109 0.984 . S
H1115 N1109 0.985 . S
H1116 N1113 0.984 . S
H1117 N1113 0.985 . S
H1118 N1112 0.984 . S
H1119 N1112 0.984 . S
H1120 N1108 0.984 . S
H1121 N1108 0.985 . S
C1122 C1123 1.363 . S
C1122 C1128 1.379 . S
C1122 N1130 1.356 . S
C1123 C1122 1.363 . S
C1123 C1129 1.363 . S
C1124 C1125 1.363 . S
C1124 C1129 1.379 . S
C1124 N1131 1.356 . S
C1125 C1124 1.363 . S
C1125 C1128 1.363 . S
N1126 C1128 1.356 . S
N1126 H1138 0.984 . S
N1126 H1139 0.985 . S
N1127 C1129 1.356 . S
N1127 H1132 0.984 . S
N1127 H1133 0.985 . S
C1128 C1122 1.379 . S
C1128 C1125 1.363 . S
C1128 N1126 1.356 . S
C1129 C1123 1.363 . S
C1129 C1124 1.379 . S
C1129 N1127 1.356 . S
N1130 C1122 1.356 . S
N1130 H1136 0.984 . S
N1130 H1137 0.984 . S
N1131 C1124 1.356 . S
N1131 H1134 0.984 . S
N1131 H1135 0.985 . S
H1132 N1127 0.984 . S
H1133 N1127 0.985 . S
H1134 N1131 0.984 . S
H1135 N1131 0.985 . S
H1136 N1130 0.984 . S
H1137 N1130 0.984 . S
H1138 N1126 0.984 . S
H1139 N1126 0.985 . S
C1140 C1141 1.363 . S
C1140 C1146 1.379 . S
C1140 N1148 1.356 . S
C1141 C1140 1.363 . S
C1141 C1147 1.363 . S
C1142 C1143 1.363 . S
C1142 C1147 1.379 . S
C1142 N1149 1.356 . S
C1143 C1142 1.363 . S
C1143 C1146 1.363 . S
N1144 C1146 1.356 . S
N1144 H1156 0.984 . S
N1144 H1157 0.985 . S
N1145 C1147 1.356 . S
N1145 H1150 0.984 . S
N1145 H1151 0.985 . S
C1146 C1140 1.379 . S
C1146 C1143 1.363 . S
C1146 N1144 1.356 . S
C1147 C1141 1.363 . S
C1147 C1142 1.379 . S
C1147 N1145 1.356 . S
N1148 C1140 1.356 . S
N1148 H1154 0.984 . S
N1148 H1155 0.984 . S
N1149 C1142 1.356 . S
N1149 H1152 0.984 . S
N1149 H1153 0.985 . S
H1150 N1145 0.984 . S
H1151 N1145 0.985 . S
H1152 N1149 0.984 . S
H1153 N1149 0.985 . S
H1154 N1148 0.984 . S
H1155 N1148 0.984 . S
H1156 N1144 0.984 . S
H1157 N1144 0.985 . S
C1158 C1159 1.363 . S
C1158 C1164 1.379 1_554 S
C1158 N1166 1.356 . S
C1159 C1158 1.363 . S
C1159 C1165 1.363 1_554 S
C1160 C1161 1.363 . S
C1160 C1165 1.379 . S
C1160 N1167 1.356 . S
C1161 C1160 1.363 . S
C1161 C1164 1.363 . S
N1162 C1164 1.356 . S
N1162 H1174 0.984 . S
N1162 H1175 0.985 . S
N1163 C1165 1.356 1_554 S
N1163 H1168 0.984 . S
N1163 H1169 0.985 1_554 S
C1164 C1158 1.379 1_556 S
C1164 C1161 1.363 . S
C1164 N1162 1.356 . S
C1165 C1159 1.363 1_556 S
C1165 C1160 1.379 . S
C1165 N1163 1.356 1_556 S
N1166 C1158 1.356 . S
N1166 H1172 0.984 . S
N1166 H1173 0.984 . S
N1167 C1160 1.356 . S
N1167 H1170 0.984 . S
N1167 H1171 0.985 . S
H1168 N1163 0.984 . S
H1169 N1163 0.985 1_556 S
H1170 N1167 0.984 . S
H1171 N1167 0.985 . S
H1172 N1166 0.984 . S
H1173 N1166 0.984 . S
H1174 N1162 0.984 . S
H1175 N1162 0.985 . S
C1176 C1177 1.363 . S
C1176 C1182 1.379 . S
C1176 N1184 1.356 . S
C1177 C1176 1.363 . S
C1177 C1183 1.363 . S
C1178 C1179 1.363 . S
C1178 C1183 1.379 . S
C1178 N1185 1.356 . S
C1179 C1178 1.363 . S
C1179 C1182 1.363 . S
N1180 C1182 1.356 . S
N1180 H1192 0.984 . S
N1180 H1193 0.985 . S
N1181 C1183 1.356 . S
N1181 H1186 0.984 . S
N1181 H1187 0.985 . S
C1182 C1176 1.379 . S
C1182 C1179 1.363 . S
C1182 N1180 1.356 . S
C1183 C1177 1.363 . S
C1183 C1178 1.379 . S
C1183 N1181 1.356 . S
N1184 C1176 1.356 . S
N1184 H1190 0.984 . S
N1184 H1191 0.984 . S
N1185 C1178 1.356 . S
N1185 H1188 0.984 . S
N1185 H1189 0.985 . S
H1186 N1181 0.984 . S
H1187 N1181 0.985 . S
H1188 N1185 0.984 . S
H1189 N1185 0.985 . S
H1190 N1184 0.984 . S
H1191 N1184 0.984 . S
H1192 N1180 0.984 . S
H1193 N1180 0.985 . S
C765 C754 1.631 . S
C763 C1 1.254 . S
C781 C169 1.419 . S
C783 C689 1.730 . S
C799 C283 1.396 . S
C801 C707 1.716 . S
C817 C397 1.265 . S
C819 C720 1.574 . S
C837 C728 1.492 . S
C835 C457 1.169 . S
C853 C571 1.160 . S
C855 C740 1.505 . S
C871 C115 1.253 . S
C873 C702 1.622 . S
C889 C229 1.161 . S
C891 C715 1.507 . S
C907 C343 1.163 . S
C909 C733 1.485 . S
C927 C739 1.588 . S
C925 C511 1.282 . S
C945 C759 1.702 . S
C943 C625 1.383 . S
C963 C694 1.743 . S
C961 C55 1.432 . S
C979 C29 1.344 . S
C981 C700 1.567 . S
C997 C125 0.883 . S
C999 C713 1.658 . S
C1017 C727 1.587 . S
C1015 C239 0.838 . S
C1033 C353 0.857 . S
C1035 C741 1.591 . S
C1053 C753 1.503 . S
C1051 C485 1.280 . S
C1071 C688 1.573 . S
C1069 C599 1.337 . S
C1089 C752 1.577 . S
C1087 C143 1.358 . S
C1105 C257 1.333 . S
C1107 C687 1.570 . S
C1125 C701 1.512 . S
C1123 C371 1.288 . S
C1141 C467 0.848 . S
C1143 C714 1.574 . S
C1159 C581 0.841 . S
C1161 C726 1.600 . S
C1177 C11 0.882 . S
C1179 C746 1.644 . S
