# Generated by pormake.
# Topology ptr, (4,4)-cn, num edge types: 1
# Building blocks:
#     Node 0, Type 0, BuildingBlock: NAHDIM_clean_sbu_0, # of connection points: 4
#     Node 1, Type 0, BuildingBlock: NAHDIM_clean_sbu_0, # of connection points: 4
#     Node 2, Type 0, BuildingBlock: NAHDIM_clean_sbu_0, # of connection points: 4
#     Node 3, Type 0, BuildingBlock: NAHDIM_clean_sbu_0, # of connection points: 4
#     Node 4, Type 0, BuildingBlock: NAHDIM_clean_sbu_0, # of connection points: 4
#     Node 5, Type 0, BuildingBlock: NAHDIM_clean_sbu_0, # of connection points: 4
#     Node 6, Type 0, BuildingBlock: NAHDIM_clean_sbu_0, # of connection points: 4
#     Node 7, Type 0, BuildingBlock: NAHDIM_clean_sbu_0, # of connection points: 4
#     Node 8, Type 0, BuildingBlock: NAHDIM_clean_sbu_0, # of connection points: 4
#     Node 9, Type 0, BuildingBlock: NAHDIM_clean_sbu_0, # of connection points: 4
#     Node 10, Type 0, BuildingBlock: NAHDIM_clean_sbu_0, # of connection points: 4
#     Node 11, Type 0, BuildingBlock: NAHDIM_clean_sbu_0, # of connection points: 4
#     Node 12, Type 0, BuildingBlock: NAHDIM_clean_sbu_0, # of connection points: 4
#     Node 13, Type 0, BuildingBlock: NAHDIM_clean_sbu_0, # of connection points: 4
#     Node 14, Type 0, BuildingBlock: NAHDIM_clean_sbu_0, # of connection points: 4
#     Node 15, Type 0, BuildingBlock: NAHDIM_clean_sbu_0, # of connection points: 4
#     Node 16, Type 0, BuildingBlock: NAHDIM_clean_sbu_0, # of connection points: 4
#     Node 17, Type 0, BuildingBlock: NAHDIM_clean_sbu_0, # of connection points: 4
#     Node 18, Type 1, BuildingBlock: KUFVIS_clean_linker_0, # of connection points: 4
#     Node 19, Type 1, BuildingBlock: KUFVIS_clean_linker_0, # of connection points: 4
#     Node 20, Type 1, BuildingBlock: KUFVIS_clean_linker_0, # of connection points: 4
#     Node 21, Type 1, BuildingBlock: KUFVIS_clean_linker_0, # of connection points: 4
#     Node 22, Type 1, BuildingBlock: KUFVIS_clean_linker_0, # of connection points: 4
#     Node 23, Type 1, BuildingBlock: KUFVIS_clean_linker_0, # of connection points: 4
#     Node 24, Type 1, BuildingBlock: KUFVIS_clean_linker_0, # of connection points: 4
#     Node 25, Type 1, BuildingBlock: KUFVIS_clean_linker_0, # of connection points: 4
#     Node 26, Type 1, BuildingBlock: KUFVIS_clean_linker_0, # of connection points: 4
#     Node 27, Type 1, BuildingBlock: KUFVIS_clean_linker_0, # of connection points: 4
#     Node 28, Type 1, BuildingBlock: KUFVIS_clean_linker_0, # of connection points: 4
#     Node 29, Type 1, BuildingBlock: KUFVIS_clean_linker_0, # of connection points: 4
#     Node 30, Type 1, BuildingBlock: KUFVIS_clean_linker_0, # of connection points: 4
#     Node 31, Type 1, BuildingBlock: KUFVIS_clean_linker_0, # of connection points: 4
#     Node 32, Type 1, BuildingBlock: KUFVIS_clean_linker_0, # of connection points: 4
#     Node 33, Type 1, BuildingBlock: KUFVIS_clean_linker_0, # of connection points: 4
#     Node 34, Type 1, BuildingBlock: KUFVIS_clean_linker_0, # of connection points: 4
#     Node 35, Type 1, BuildingBlock: KUFVIS_clean_linker_0, # of connection points: 4
#     Edge 36, Type (0, 1), None
#     Edge 37, Type (0, 1), None
#     Edge 38, Type (0, 1), None
#     Edge 39, Type (0, 1), None
#     Edge 40, Type (0, 1), None
#     Edge 41, Type (0, 1), None
#     Edge 42, Type (0, 1), None
#     Edge 43, Type (0, 1), None
#     Edge 44, Type (0, 1), None
#     Edge 45, Type (0, 1), None
#     Edge 46, Type (0, 1), None
#     Edge 47, Type (0, 1), None
#     Edge 48, Type (0, 1), None
#     Edge 49, Type (0, 1), None
#     Edge 50, Type (0, 1), None
#     Edge 51, Type (0, 1), None
#     Edge 52, Type (0, 1), None
#     Edge 53, Type (0, 1), None
#     Edge 54, Type (0, 1), None
#     Edge 55, Type (0, 1), None
#     Edge 56, Type (0, 1), None
#     Edge 57, Type (0, 1), None
#     Edge 58, Type (0, 1), None
#     Edge 59, Type (0, 1), None
#     Edge 60, Type (0, 1), None
#     Edge 61, Type (0, 1), None
#     Edge 62, Type (0, 1), None
#     Edge 63, Type (0, 1), None
#     Edge 64, Type (0, 1), None
#     Edge 65, Type (0, 1), None
#     Edge 66, Type (0, 1), None
#     Edge 67, Type (0, 1), None
#     Edge 68, Type (0, 1), None
#     Edge 69, Type (0, 1), None
#     Edge 70, Type (0, 1), None
#     Edge 71, Type (0, 1), None
#     Edge 72, Type (0, 1), None
#     Edge 73, Type (0, 1), None
#     Edge 74, Type (0, 1), None
#     Edge 75, Type (0, 1), None
#     Edge 76, Type (0, 1), None
#     Edge 77, Type (0, 1), None
#     Edge 78, Type (0, 1), None
#     Edge 79, Type (0, 1), None
#     Edge 80, Type (0, 1), None
#     Edge 81, Type (0, 1), None
#     Edge 82, Type (0, 1), None
#     Edge 83, Type (0, 1), None
#     Edge 84, Type (0, 1), None
#     Edge 85, Type (0, 1), None
#     Edge 86, Type (0, 1), None
#     Edge 87, Type (0, 1), None
#     Edge 88, Type (0, 1), None
#     Edge 89, Type (0, 1), None
#     Edge 90, Type (0, 1), None
#     Edge 91, Type (0, 1), None
#     Edge 92, Type (0, 1), None
#     Edge 93, Type (0, 1), None
#     Edge 94, Type (0, 1), None
#     Edge 95, Type (0, 1), None
#     Edge 96, Type (0, 1), None
#     Edge 97, Type (0, 1), None
#     Edge 98, Type (0, 1), None
#     Edge 99, Type (0, 1), None
#     Edge 100, Type (0, 1), None
#     Edge 101, Type (0, 1), None
#     Edge 102, Type (0, 1), None
#     Edge 103, Type (0, 1), None
#     Edge 104, Type (0, 1), None
#     Edge 105, Type (0, 1), None
#     Edge 106, Type (0, 1), None
#     Edge 107, Type (0, 1), None
# Relax obj value: 0.075
# Max RMSD: 0.220
# Mean RMSD: 0.123
data_MOF--net-ptr--node1-NAHDIM_clean_sbu_0--node2-KUFVIS_clean_linker_0--edge1-none
_symmetry_space_group_name_H-M    P1
_symmetry_Int_Tables_number       1
_symmetry_cell_setting            triclinic
loop_
_symmetry_equiv_pos_as_xyz
'x, y, z'
_cell_length_a     37.859563
_cell_length_b     36.590776
_cell_length_c     22.2254
_cell_angle_alpha  91.61012
_cell_angle_beta   89.145729
_cell_angle_gamma 122.24199
loop_
_atom_site_label
_atom_site_type_symbol
_atom_site_fract_x
_atom_site_fract_y
_atom_site_fract_z
_atom_type_partial_charge
C0 C 0.04712 0.30245 0.06316 0.0
O1 O 0.0195 0.26721 0.03358 0.0
O2 O 0.9641 0.28981 0.97149 0.0
Zn3 Zn 0.00491 0.34463 0.01721 0.0
O4 O 0.98249 0.36304 0.08686 0.0
C5 C 0.04152 0.42871 0.9459 0.0
O6 O 0.0445 0.45211 -0.00626 0.0
O7 O 0.04777 0.33731 0.05753 0.0
C8 C 0.96769 0.38707 0.08687 0.0
O9 O 0.9591 0.3973 0.03526 0.0
C10 C 0.92949 0.25423 0.97765 0.0
O11 O 0.9095 0.2455 0.02923 0.0
O12 O 0.02878 0.38893 0.95132 0.0
C13 C 0.75847 0.68312 0.97963 0.0
O14 O 0.76594 0.7168 0.01267 0.0
O15 O 0.69158 0.7009 0.06868 0.0
Zn16 Zn 0.67346 0.646 0.02258 0.0
O17 O 0.63637 0.63659 0.95167 0.0
C18 C 0.61059 0.56483 0.08599 0.0
O19 O 0.59223 0.54783 0.03402 0.0
O20 O 0.72308 0.64807 0.98386 0.0
C21 C 0.59778 0.62277 0.94655 0.0
O22 O 0.5744 0.61304 -0.00502 0.0
C23 C 0.69032 0.73421 0.05901 0.0
O24 O 0.67648 0.738 0.00717 0.0
O25 O 0.64443 0.60166 0.08736 0.0
C26 C 0.3464 0.09813 0.97131 0.0
O27 O 0.32446 0.09101 0.02076 0.0
O28 O 0.31701 0.00438 0.06173 0.0
Zn29 Zn 0.37042 0.03774 0.0142 0.0
O30 O 0.37594 1.00057 0.95063 0.0
C31 C 0.41329 0.02319 0.09714 0.0
O32 O 0.38391 0.98488 0.07672 0.0
O33 O 0.37034 0.08367 0.96585 0.0
C34 C 0.41119 0.00594 0.93693 0.0
O35 O 0.44449 0.0339 0.96806 0.0
C36 C 0.2828 0.96869 0.05181 0.0
O37 O 0.27693 0.94789 0.00014 0.0
O38 O 0.41622 0.05667 0.0759 0.0
C39 C 0.95691 0.69197 0.93674 0.0
O40 O 0.96363 0.71664 0.9847 0.0
O41 O 0.0508 0.72027 0.02615 0.0
Zn42 Zn 0.01335 0.66423 0.98208 0.0
O43 O 0.03939 0.6428 0.92346 0.0
C44 C 0.99557 0.59379 0.06054 0.0
O45 O 0.02365 0.59177 0.0278 0.0
O46 O 0.97306 0.66925 0.93234 0.0
C47 C 0.01156 0.60589 0.90207 0.0
O48 O 0.97277 0.58789 0.92053 0.0
C49 C 0.0734 0.76107 0.02074 0.0
O50 O 0.08023 0.77848 0.96762 0.0
O51 O 0.98518 0.6205 0.04747 0.0
C52 C 0.24578 0.31935 0.02634 0.0
O53 O 0.24039 0.28905 0.98769 0.0
O54 O 0.31786 0.31476 0.93088 0.0
Zn55 Zn 0.33075 0.36562 0.98281 0.0
O56 O 0.36936 0.37472 0.05032 0.0
C57 C 0.39662 0.42869 0.91304 0.0
O58 O 0.41558 0.41279 0.94112 0.0
O59 O 0.27957 0.35619 0.02548 0.0
C60 C 0.39221 0.41225 0.07391 0.0
O61 O 0.39235 0.44513 0.05141 0.0
C62 C 0.31038 0.27738 0.94161 0.0
O63 O 0.30974 0.26613 -0.00257 0.0
O64 O 0.35868 0.41513 0.92544 0.0
C65 C 0.67842 0.92604 0.02519 0.0
O66 O 0.70776 0.95212 0.98782 0.0
O67 O 0.67994 0.00985 0.94421 0.0
Zn68 Zn 0.62952 0.96219 0.98525 0.0
O69 O 0.61205 0.98645 0.05419 0.0
C70 C 0.57433 0.96271 0.9061 0.0
O71 O 0.59202 1.0006 0.9338 0.0
O72 O 0.64286 0.92195 0.02403 0.0
C73 C 0.57503 0.9758 0.06826 0.0
O74 O 0.54335 0.94735 0.03485 0.0
C75 C 0.71751 0.03962 0.95585 0.0
O76 O 0.73258 0.04476 0.01042 0.0
O77 O 0.58471 0.93629 0.92065 0.0
C78 C 0.71196 0.63789 0.3877 0.0
O79 O 0.68955 0.60506 0.35052 0.0
O80 O 0.62739 0.62487 0.29914 0.0
Zn81 Zn 0.66705 0.67903 0.34666 0.0
O82 O 0.64398 0.6969 0.41633 0.0
C83 C 0.70953 0.76467 0.27804 0.0
O84 O 0.71618 0.78864 0.32679 0.0
O85 O 0.70874 0.67075 0.38779 0.0
C86 C 0.63396 0.72499 0.41711 0.0
O87 O 0.63002 0.73952 0.36587 0.0
C88 C 0.59507 0.58727 0.30466 0.0
O89 O 0.57678 0.57479 0.3573 0.0
O90 O 0.69259 0.72401 0.2822 0.0
C91 C 0.40742 0.99753 0.31279 0.0
O92 O 0.42055 0.02716 0.35591 0.0
O93 O 0.34876 0.02738 0.39965 0.0
Zn94 Zn 0.32333 0.97347 0.34862 0.0
O95 O 0.29289 0.97653 0.27747 0.0
C96 C 0.26648 0.93273 0.44359 0.0
O97 O 0.27216 0.97141 0.44457 0.0
O98 O 0.36873 0.96859 0.309 0.0
C99 C 0.25391 0.9598 0.27085 0.0
O100 O 0.22903 0.94183 0.31714 0.0
C101 C 0.3614 0.06642 0.38887 0.0
O102 O 0.36015 0.07761 0.33367 0.0
O103 O 0.28457 0.92316 0.40308 0.0
C104 C 0.00795 0.42143 0.3034 0.0
O105 O 0.99515 0.42618 0.35661 0.0
O106 O 0.98645 0.32961 0.40596 0.0
Zn107 Zn 0.03659 0.36433 0.35259 0.0
O108 O 0.04465 0.32702 0.29235 0.0
C109 C 0.08543 0.36306 0.43944 0.0
O110 O 0.0569 0.3226 0.4262 0.0
O111 O 0.02679 0.40131 0.2979 0.0
C112 C 0.08038 0.33364 0.2788 0.0
O113 O 0.11329 0.36219 0.3101 0.0
C114 C 0.95034 0.29621 0.3968 0.0
O115 O 0.93963 0.27892 0.34237 0.0
O116 O 0.08572 0.39289 0.41076 0.0
C117 C 0.61496 0.02024 0.28058 0.0
O118 O 0.61753 0.04201 0.33007 0.0
O119 O 0.71465 0.05781 0.36842 0.0
Zn120 Zn 0.67973 1.00179 0.32253 0.0
O121 O 0.70771 0.98332 0.26177 0.0
C122 C 0.66974 0.93564 0.40217 0.0
O123 O 0.70088 0.93846 0.37122 0.0
O124 O 0.63642 0.00302 0.27474 0.0
C125 C 0.6829 0.94448 0.24337 0.0
O126 O 0.64503 0.92211 0.2658 0.0
C127 C 0.7389 0.09859 0.36542 0.0
O128 O 0.75091 0.11715 0.313 0.0
O129 O 0.65461 0.95796 0.38765 0.0
C130 C 0.91168 0.6558 0.34609 0.0
O131 O 0.90426 0.6264 0.30448 0.0
O132 O 0.98383 0.64235 0.26459 0.0
Zn133 Zn 0.99796 0.69653 0.30923 0.0
O134 O 0.03652 0.70844 0.37742 0.0
C135 C 0.06543 0.76227 0.24025 0.0
O136 O 0.08746 0.75322 0.27476 0.0
O137 O 0.94742 0.69052 0.3487 0.0
C138 C 0.0575 0.74619 0.401 0.0
O139 O 0.05531 0.77771 0.37841 0.0
C140 C 0.97239 0.60371 0.27625 0.0
O141 O 0.96733 0.59132 0.33229 0.0
O142 O 0.02615 0.74337 0.24808 0.0
C143 C 0.33755 0.25207 0.37056 0.0
O144 O 0.34916 0.24843 0.3159 0.0
O145 O 0.35135 0.34443 0.27636 0.0
Zn146 Zn 0.30218 0.30419 0.32746 0.0
O147 O 0.29063 0.33789 0.38927 0.0
C148 C 0.25028 0.30229 0.24249 0.0
O149 O 0.27566 0.34307 0.2583 0.0
O150 O 0.31674 0.26982 0.37928 0.0
C151 C 0.25477 0.33089 0.40279 0.0
O152 O 0.22199 0.30247 0.37114 0.0
C153 C 0.39049 0.37001 0.2836 0.0
O154 O 0.4074 0.37442 0.3366 0.0
O155 O 0.25358 0.2736 0.26837 0.0
C156 C 0.37137 0.96359 0.72594 0.0
O157 O 0.33646 0.92765 0.7109 0.0
O158 O 0.27783 0.95192 0.67213 0.0
Zn159 Zn 0.33111 0.00877 0.68683 0.0
O160 O 0.32364 0.03974 0.7563 0.0
C161 C 0.36223 0.08488 0.60967 0.0
O162 O 0.36811 0.10779 0.6593 0.0
O163 O 0.37601 0.99973 0.71438 0.0
C164 C 0.30255 0.05745 0.75887 0.0
O165 O 0.28141 0.05593 0.71149 0.0
C166 C 0.24392 0.91583 0.6638 0.0
O167 O 0.22114 0.89493 0.71063 0.0
O168 O 0.34821 0.04465 0.6126 0.0
C169 C 0.0898 0.3476 0.6561 0.0
O170 O 0.09543 0.37915 0.69243 0.0
O171 O 0.019 0.35941 0.74056 0.0
Zn172 Zn 0.00397 0.30537 0.69544 0.0
O173 O 0.96701 0.2947 0.62429 0.0
C174 C 0.94072 0.22686 0.75962 0.0
O175 O 0.92013 0.21315 0.70853 0.0
O176 O 0.05528 0.31143 0.65746 0.0
C177 C 0.9299 0.28584 0.61838 0.0
O178 O 0.90737 0.28157 0.66629 0.0
C179 C 0.02016 0.39363 0.72808 0.0
O180 O 0.01057 0.39863 0.67363 0.0
O181 O 0.977 0.26093 0.76033 0.0
C182 C 0.67537 0.75411 0.63337 0.0
O183 O 0.66115 0.75568 0.68701 0.0
O184 O 0.65412 0.66385 0.73314 0.0
Zn185 Zn 0.70376 0.69704 0.67861 0.0
O186 O 0.7105 0.65917 0.6177 0.0
C187 C 0.75259 0.69402 0.76235 0.0
O188 O 0.72394 0.65384 0.74789 0.0
O189 O 0.69538 0.73541 0.62553 0.0
C190 C 0.7462 0.66616 0.60288 0.0
O191 O 0.77945 0.69522 0.63311 0.0
C192 C 0.61769 0.63093 0.72446 0.0
O193 O 0.60655 0.61335 0.67024 0.0
O194 O 0.75296 0.72455 0.73566 0.0
C195 C 0.29396 0.36914 0.61668 0.0
O196 O 0.29112 0.3828 0.67076 0.0
O197 O 0.40328 0.39701 0.69041 0.0
Zn198 Zn 0.35709 0.34277 0.64912 0.0
O199 O 0.37399 0.3168 0.58156 0.0
C200 C 0.32175 0.26212 0.72116 0.0
O201 O 0.32574 0.24252 0.67358 0.0
O202 O 0.31701 0.35394 0.60758 0.0
C203 C 0.39243 0.29617 0.57904 0.0
O204 O 0.40906 0.2923 0.62803 0.0
C205 C 0.40729 0.43386 0.69369 0.0
O206 O 0.38507 0.44205 0.65826 0.0
O207 O 0.33019 0.30066 0.71726 0.0
C208 C 0.5744 0.98173 0.69015 0.0
O209 O 0.57244 0.95137 0.65487 0.0
O210 O 0.65326 0.97899 0.60937 0.0
Zn211 Zn 0.66136 0.03096 0.65475 0.0
O212 O 0.69889 0.04579 0.72596 0.0
C213 C 0.72729 0.09532 0.58502 0.0
O214 O 0.74796 0.08342 0.61758 0.0
O215 O 0.60726 0.01935 0.69017 0.0
C216 C 0.72185 0.0841 0.7472 0.0
O217 O 0.72334 0.1165 0.72062 0.0
C218 C 0.6452 0.94118 0.61911 0.0
O219 O 0.64003 0.92738 0.6744 0.0
O220 O 0.68836 0.07847 0.59406 0.0
C221 C 0.00768 0.585 0.68429 0.0
O222 O 0.03801 0.6086 0.64655 0.0
O223 O 0.01642 0.67172 0.59702 0.0
Zn224 Zn 0.96512 0.62794 0.64229 0.0
O225 O 0.95184 0.65667 0.71097 0.0
C226 C 0.9147 0.63305 0.56053 0.0
O227 O 0.93943 0.67278 0.58121 0.0
O228 O 0.97399 0.58482 0.68239 0.0
C229 C 0.91639 0.6513 0.72363 0.0
O230 O 0.88427 0.62685 0.6883 0.0
C231 C 0.05447 0.70054 0.60792 0.0
O232 O 0.06901 0.70697 0.66305 0.0
O233 O 0.91837 0.6031 0.58092 0.0
H234 H 0.27366 0.30741 0.12818 0.0
H235 H 0.17188 0.30955 0.05228 0.0
H236 H 0.1704 0.2808 0.24075 0.0
H237 H 0.13992 0.31709 0.25084 0.0
H238 H 0.03733 0.31878 0.17694 0.0
H239 H 0.10435 0.27955 0.064 0.0
C240 C 0.24246 0.30151 0.13299 0.0
C241 C 0.22358 0.29264 0.18962 0.0
C242 C 0.22299 0.30624 0.08345 0.0
C243 C 0.18448 0.30254 0.0905 0.0
C244 C 0.16453 0.29347 0.14729 0.0
C245 C 0.18418 0.28725 0.1963 0.0
C246 C 0.12657 0.29613 0.15673 0.0
C247 C 0.11918 0.30971 0.21323 0.0
C248 C 0.08605 0.31614 0.22134 0.0
C249 C 0.06136 0.31125 0.17194 0.0
C250 C 0.06904 0.29961 0.11508 0.0
C251 C 0.1 0.28987 0.10809 0.0
H252 H 0.68197 0.96387 0.12986 0.0
H253 H 0.70227 0.8701 0.04659 0.0
H254 H 0.69675 0.88082 0.24167 0.0
H255 H 0.72082 0.84136 0.24833 0.0
H256 H 0.70687 0.7262 0.17288 0.0
H257 H 0.69076 0.80804 0.05895 0.0
C258 C 0.68897 0.93887 0.134 0.0
C259 C 0.69288 0.92656 0.19084 0.0
C260 C 0.6906 0.91701 0.0826 0.0
C261 C 0.69941 0.88457 0.08782 0.0
C262 C 0.70233 0.87031 0.14535 0.0
C263 C 0.69799 0.89165 0.19662 0.0
C264 C 0.70637 0.83158 0.15211 0.0
C265 C 0.71456 0.82087 0.20905 0.0
C266 C 0.71271 0.78198 0.21713 0.0
C267 C 0.70753 0.75584 0.16674 0.0
C268 C 0.7003 0.76565 0.10952 0.0
C269 C 0.69899 0.80291 0.10273 0.0
H270 H 0.29558 0.99471 0.16783 0.0
H271 H 0.2048 0.89579 0.04895 0.0
H272 H 0.17487 0.9043 0.23576 0.0
H273 H 0.13727 0.83705 0.23259 0.0
H274 H 0.0385 0.73707 0.12884 0.0
H275 H 0.14011 0.84442 0.03768 0.0
C276 C 0.26405 0.96757 0.15973 0.0
C277 C 0.23702 0.94931 0.20865 0.0
C278 C 0.25193 0.94943 0.10146 0.0
C279 C 0.21234 0.91131 0.09296 0.0
C280 C 0.18384 0.89301 0.1415 0.0
C281 C 0.19605 0.91507 0.19803 0.0
C282 C 0.14328 0.84957 0.13599 0.0
C283 C 0.12324 0.82617 0.1886 0.0
C284 C 0.0848 0.78712 0.18583 0.0
C285 C 0.06745 0.76848 0.13022 0.0
C286 C 0.08877 0.78765 0.07686 0.0
C287 C 0.12539 0.82926 0.0795 0.0
H288 H 0.32832 0.05299 0.86863 0.0
H289 H 0.33551 0.16452 0.94875 0.0
H290 H 0.28594 0.12051 0.76851 0.0
H291 H 0.31944 0.18984 0.75182 0.0
H292 H 0.31035 0.29365 0.82483 0.0
H293 H 0.30188 0.19868 0.94318 0.0
C294 C 0.32324 0.07939 0.86562 0.0
C295 C 0.30721 0.08449 0.81243 0.0
C296 C 0.33216 0.1073 0.91538 0.0
C297 C 0.32633 0.14196 0.911 0.0
C298 C 0.31081 0.14827 0.85711 0.0
C299 C 0.29945 0.11773 0.80935 0.0
C300 C 0.30894 0.18776 0.84849 0.0
C301 C 0.31361 0.20466 0.79028 0.0
C302 C 0.31332 0.24232 0.78132 0.0
C303 C 0.3095 0.26396 0.83138 0.0
C304 C 0.30708 0.24934 0.88993 0.0
C305 C 0.30526 0.21047 0.89807 0.0
H306 H 0.69081 0.03716 0.84417 0.0
H307 H 0.80078 0.10599 0.9558 0.0
H308 H 0.80027 0.14783 0.77585 0.0
H309 H 0.86425 0.15563 0.77706 0.0
H310 H 0.96714 0.26209 0.87101 0.0
H311 H 0.8504 0.18284 0.96309 0.0
C312 C 0.72306 0.06313 0.85109 0.0
C313 C 0.74382 0.09127 0.80428 0.0
C314 C 0.74262 0.06897 0.90678 0.0
C315 C 0.78489 0.10238 0.91386 0.0
C316 C 0.8067 0.13046 0.86597 0.0
C317 C 0.78497 0.12558 0.8123 0.0
C318 C 0.85207 0.16452 0.87014 0.0
C319 C 0.87721 0.17461 0.81821 0.0
C320 C 0.91827 0.21032 0.81761 0.0
C321 C 0.93544 0.23424 0.87132 0.0
C322 C 0.91141 0.22457 0.92427 0.0
C323 C 0.86968 0.18939 0.92343 0.0
H324 H 0.73202 0.6947 0.87679 0.0
H325 H 0.82864 0.683 0.95274 0.0
H326 H 0.82901 0.70641 0.7623 0.0
H327 H 0.85493 0.66535 0.75441 0.0
H328 H 0.96252 0.67092 0.82285 0.0
H329 H 0.89641 0.71087 0.93725 0.0
C330 C 0.76155 0.69666 0.87163 0.0
C331 C 0.77905 0.70171 0.8145 0.0
C332 C 0.78008 0.69107 0.92154 0.0
C333 C 0.81641 0.69004 0.91408 0.0
C334 C 0.83496 0.69547 0.85646 0.0
C335 C 0.81619 0.70245 0.8072 0.0
C336 C 0.87141 0.69027 0.84664 0.0
C337 C 0.87698 0.6743 0.79073 0.0
C338 C 0.91058 0.66866 0.78141 0.0
C339 C 0.93747 0.67678 0.82923 0.0
C340 C 0.93139 0.69026 0.88596 0.0
C341 C 0.89964 0.69883 0.89382 0.0
H342 H 0.93875 0.64148 0.44645 0.0
H343 H 0.83734 0.6456 0.37274 0.0
H344 H 0.83551 0.61343 0.55973 0.0
H345 H 0.80588 0.65042 0.57225 0.0
H346 H 0.70191 0.65131 0.50265 0.0
H347 H 0.76956 0.61531 0.38521 0.0
C348 C 0.90769 0.63594 0.4516 0.0
C349 C 0.88872 0.62619 0.508 0.0
C350 C 0.88843 0.64166 0.40271 0.0
C351 C 0.84991 0.63795 0.41033 0.0
C352 C 0.82994 0.62802 0.46718 0.0
C353 C 0.84945 0.62089 0.51538 0.0
C354 C 0.79196 0.63042 0.47787 0.0
C355 C 0.78476 0.64315 0.53518 0.0
C356 C 0.75137 0.64896 0.54484 0.0
C357 C 0.72619 0.64426 0.4963 0.0
C358 C 0.73388 0.63383 0.43858 0.0
C359 C 0.76512 0.62464 0.42993 0.0
H360 H 0.3647 0.3014 0.4706 0.0
H361 H 0.34787 0.18569 0.39006 0.0
H362 H 0.40591 0.23049 0.56555 0.0
H363 H 0.3707 0.16086 0.58276 0.0
H364 H 0.36522 0.05017 0.50423 0.0
H365 H 0.37893 0.14914 0.38945 0.0
C366 C 0.36881 0.27432 0.47261 0.0
C367 C 0.38608 0.26888 0.52441 0.0
C368 C 0.35614 0.24501 0.4236 0.0
C369 C 0.36025 0.20927 0.42676 0.0
C370 C 0.37746 0.20275 0.47846 0.0
C371 C 0.39181 0.23403 0.52597 0.0
C372 C 0.37688 0.16168 0.48526 0.0
C373 C 0.37305 0.14454 0.54302 0.0
C374 C 0.36938 0.10466 0.54996 0.0
C375 C 0.36887 0.08136 0.49881 0.0
C376 C 0.37061 0.09638 0.44089 0.0
C377 C 0.37629 0.13726 0.43434 0.0
H378 H 0.96949 0.31714 0.51394 0.0
H379 H 0.87027 0.22882 0.39628 0.0
H380 H 0.85 0.23127 0.58888 0.0
H381 H 0.80012 0.16852 0.58113 0.0
H382 H 0.70099 0.07379 0.47226 0.0
H383 H 0.80779 0.17828 0.38629 0.0
C384 C 0.93699 0.29182 0.50719 0.0
C385 C 0.91121 0.27427 0.55742 0.0
C386 C 0.92172 0.27648 0.44884 0.0
C387 C 0.8803 0.24142 0.44137 0.0
C388 C 0.85319 0.22281 0.49143 0.0
C389 C 0.8691 0.24204 0.54906 0.0
C390 C 0.80991 0.1822 0.48484 0.0
C391 C 0.78731 0.15905 0.5364 0.0
C392 C 0.7477 0.12136 0.53172 0.0
C393 C 0.73076 0.10434 0.47522 0.0
C394 C 0.75362 0.1237 0.42291 0.0
C395 C 0.79191 0.16362 0.42762 0.0
H396 H 0.98954 0.37751 0.19818 0.0
H397 H 0.99708 0.48806 0.28376 0.0
H398 H 0.95091 0.44986 0.10149 0.0
H399 H 0.9912 0.52071 0.08981 0.0
H400 H 0.97553 0.6207 0.1598 0.0
H401 H 0.96311 0.5237 0.27858 0.0
C402 C 0.98456 0.40402 0.19667 0.0
C403 C 0.97004 0.41118 0.14327 0.0
C404 C 0.99321 0.43089 0.24799 0.0
C405 C 0.98813 0.46616 0.24522 0.0
C406 C 0.97404 0.47434 0.19169 0.0
C407 C 0.96314 0.44514 0.14224 0.0
C408 C 0.97406 0.51495 0.18447 0.0
C409 C 0.98288 0.5341 0.12742 0.0
C410 C 0.98241 0.57149 0.11837 0.0
C411 C 0.9746 0.59101 0.16697 0.0
C412 C 0.97005 0.5755 0.22539 0.0
C413 C 0.96813 0.53646 0.23378 0.0
H414 H 0.36316 0.36347 0.17052 0.0
H415 H 0.47341 0.43617 0.28085 0.0
H416 H 0.47041 0.47584 0.10065 0.0
H417 H 0.53666 0.48964 0.10195 0.0
H418 H 0.63376 0.60031 0.19783 0.0
H419 H 0.51897 0.51233 0.28847 0.0
C420 C 0.3953 0.38992 0.17666 0.0
C421 C 0.41524 0.41817 0.12951 0.0
C422 C 0.4153 0.39709 0.2324 0.0
C423 C 0.45732 0.43129 0.23868 0.0
C424 C 0.47827 0.45938 0.19049 0.0
C425 C 0.45605 0.4533 0.137 0.0
C426 C 0.5227 0.49597 0.19516 0.0
C427 C 0.54826 0.50861 0.14337 0.0
C428 C 0.58782 0.54674 0.14341 0.0
C429 C 0.60318 0.57075 0.19749 0.0
C430 C 0.57883 0.55845 0.2503 0.0
C431 C 0.53859 0.52084 0.24885 0.0
H432 H 0.38592 0.01445 0.20922 0.0
H433 H 0.47987 1.00049 0.29086 0.0
H434 H 0.4888 0.03267 0.10266 0.0
H435 H 0.51147 0.98708 0.09656 0.0
H436 H 0.62076 0.99753 0.16751 0.0
H437 H 0.55052 0.03398 0.27952 0.0
C438 C 0.41557 0.01646 0.20616 0.0
C439 C 0.4362 0.02534 0.15102 0.0
C440 C 0.43165 0.00827 0.25672 0.0
C441 C 0.46891 0.00882 0.25198 0.0
C442 C 0.49004 0.0171 0.19615 0.0
C443 C 0.47362 0.02637 0.14617 0.0
C444 C 0.52689 0.01254 0.18853 0.0
C445 C 0.5333 0.99658 0.1334 0.0
C446 C 0.56772 0.9923 0.12542 0.0
C447 C 0.5948 1.00198 0.17353 0.0
C448 C 0.58796 0.01549 0.22976 0.0
C449 C 0.55482 0.02213 0.2366 0.0
H450 H 0.59772 0.96486 0.79189 0.0
H451 H 0.50174 0.97677 0.71364 0.0
H452 H 0.49751 0.94903 0.90278 0.0
H453 H 0.4718 0.99068 0.9091 0.0
H454 H 0.36364 0.98295 0.83805 0.0
H455 H 0.4323 0.94527 0.72565 0.0
C456 C 0.56766 0.96184 0.79604 0.0
C457 C 0.54905 0.95562 0.85254 0.0
C458 C 0.55012 0.96875 0.74597 0.0
C459 C 0.51322 0.9687 0.75217 0.0
C460 C 0.49316 0.96124 0.8087 0.0
C461 C 0.51139 0.95407 0.85846 0.0
C462 C 0.45598 0.96522 0.81719 0.0
C463 C 0.44971 0.98098 0.87262 0.0
C464 C 0.41581 0.98616 0.88097 0.0
C465 C 0.3887 0.97696 0.83301 0.0
C466 C 0.39553 0.96365 0.77685 0.0
C467 C 0.42814 0.95641 0.76926 0.0
H468 H 0.00857 0.62211 0.78812 0.0
H469 H 0.03115 0.52872 0.70902 0.0
H470 H 0.02574 0.54257 0.9037 0.0
H471 H 0.05065 0.50407 0.91277 0.0
H472 H 0.0383 0.38853 0.84208 0.0
H473 H 0.01922 0.4666 0.72461 0.0
C474 C 0.01572 0.59729 0.79328 0.0
C475 C 0.02035 0.58634 0.85059 0.0
C476 C 0.01811 0.57527 0.74271 0.0
C477 C 0.02766 0.54344 0.74954 0.0
C478 C 0.03081 0.53025 0.8079 0.0
C479 C 0.02635 0.55225 0.85813 0.0
C480 C 0.0355 0.49213 0.81674 0.0
C481 C 0.04431 0.48281 0.87437 0.0
C482 C 0.04334 0.44453 0.8842 0.0
C483 C 0.0381 0.41758 0.83484 0.0
C484 C 0.02997 0.42589 0.77721 0.0
C485 C 0.02806 0.4626 0.76864 0.0
H486 H 0.63669 0.65412 0.84125 0.0
H487 H 0.53826 0.56295 0.72491 0.0
H488 H 0.5178 0.56639 0.91714 0.0
H489 H 0.46858 0.50294 0.90956 0.0
H490 H 0.37115 0.40619 0.79957 0.0
H491 H 0.47537 0.51347 0.71454 0.0
C492 C 0.60438 0.62817 0.83494 0.0
C493 C 0.57888 0.61051 0.8855 0.0
C494 C 0.58922 0.61188 0.7768 0.0
C495 C 0.5481 0.57626 0.76974 0.0
C496 C 0.52112 0.55778 0.81987 0.0
C497 C 0.53693 0.57743 0.87735 0.0
C498 C 0.47818 0.51673 0.81329 0.0
C499 C 0.45586 0.49321 0.86479 0.0
C500 C 0.41674 0.45484 0.85987 0.0
C501 C 0.4002 0.43743 0.80325 0.0
C502 C 0.42246 0.45796 0.7513 0.0
C503 C 0.46018 0.49826 0.75601 0.0
H504 H 0.65442 0.71152 0.52723 0.0
H505 H 0.66784 0.82311 0.61848 0.0
H506 H 0.62158 0.7907 0.43568 0.0
H507 H 0.66464 0.86178 0.42751 0.0
H508 H 0.65274 0.9627 0.50359 0.0
H509 H 0.6354 0.86078 0.6167 0.0
C510 C 0.65097 0.73909 0.52722 0.0
C511 C 0.63746 0.74848 0.47472 0.0
C512 C 0.66093 0.76529 0.57953 0.0
C513 C 0.65793 0.80189 0.57906 0.0
C514 C 0.64489 0.81233 0.52661 0.0
C515 C 0.63293 0.78409 0.47577 0.0
C516 C 0.64714 0.85425 0.52213 0.0
C517 C 0.65699 0.87491 0.46622 0.0
C518 C 0.65765 0.91305 0.4595 0.0
C519 C 0.65076 0.93232 0.50933 0.0
C520 C 0.64487 0.91499 0.56678 0.0
C521 C 0.64166 0.87508 0.57281 0.0
H522 H 0.03053 0.69414 0.49329 0.0
H523 H 0.13498 0.77099 0.61111 0.0
H524 H 0.13158 0.81538 0.43382 0.0
H525 H 0.20023 0.84989 0.43888 0.0
H526 H 0.28274 0.95286 0.55959 0.0
H527 H 0.17418 0.84079 0.63015 0.0
C528 C 0.06122 0.72263 0.50195 0.0
C529 C 0.08015 0.7532 0.45727 0.0
C530 C 0.07974 0.72991 0.5587 0.0
C531 C 0.12003 0.76672 0.56817 0.0
C532 C 0.14015 0.79805 0.52286 0.0
C533 C 0.11877 0.79119 0.46817 0.0
C534 C 0.18171 0.83919 0.53338 0.0
C535 C 0.20807 0.86259 0.48458 0.0
C536 C 0.2437 0.90398 0.49401 0.0
C537 C 0.25511 0.92086 0.55268 0.0
C538 C 0.23097 0.89741 0.60209 0.0
C539 C 0.19397 0.85716 0.59204 0.0
H540 H 0.06224 0.35856 0.55361 0.0
H541 H 0.16341 0.35539 0.63044 0.0
H542 H 0.16479 0.38267 0.44131 0.0
H543 H 0.19298 0.34374 0.43284 0.0
H544 H 0.30172 0.35202 0.50107 0.0
H545 H 0.23164 0.38607 0.61732 0.0
C546 C 0.09315 0.36365 0.5489 0.0
C547 C 0.1119 0.37184 0.49227 0.0
C548 C 0.11245 0.35908 0.59878 0.0
C549 C 0.15069 0.36201 0.59196 0.0
C550 C 0.1704 0.37026 0.53503 0.0
C551 C 0.151 0.37657 0.48576 0.0
C552 C 0.20826 0.36745 0.5256 0.0
C553 C 0.21493 0.35299 0.46939 0.0
C554 C 0.24921 0.34869 0.46008 0.0
C555 C 0.27617 0.35701 0.50797 0.0
C556 C 0.26887 0.36845 0.56548 0.0
C557 C 0.23603 0.37551 0.57346 0.0
loop_
_geom_bond_atom_site_label_1
_geom_bond_atom_site_label_2
_geom_bond_distance
_geom_bond_site_symmetry_2
_ccdc_geom_bond_type
C0 O1 1.160 . S
C0 O7 1.185 . S
O1 C0 1.160 . S
O2 Zn3 1.899 1_656 S
O2 C10 1.284 . S
Zn3 O2 1.899 1_454 S
Zn3 O4 2.032 . S
Zn3 O7 2.086 . S
Zn3 O12 1.977 1_554 S
O4 Zn3 2.032 . S
O4 C8 1.278 1_455 S
C5 O6 1.203 1_455 S
C5 O12 1.267 . S
O6 C5 1.203 1_655 S
O7 C0 1.185 . S
O7 Zn3 2.086 . S
C8 O4 1.278 1_655 S
C8 O9 1.211 . S
O9 C8 1.211 . S
C10 O2 1.284 . S
C10 O11 1.273 1_556 S
O11 C10 1.273 1_554 S
O12 Zn3 1.977 1_556 S
O12 C5 1.267 . S
C13 O14 1.160 . S
C13 O20 1.185 1_556 S
O14 C13 1.160 . S
O15 Zn16 1.899 . S
O15 C23 1.284 . S
Zn16 O15 1.899 . S
Zn16 O17 2.032 1_554 S
Zn16 O20 2.086 . S
Zn16 O25 1.977 . S
O17 Zn16 2.032 1_556 S
O17 C21 1.278 . S
C18 O19 1.203 . S
C18 O25 1.267 . S
O19 C18 1.203 . S
O20 C13 1.185 1_554 S
O20 Zn16 2.086 . S
C21 O17 1.278 . S
C21 O22 1.211 . S
O22 C21 1.211 . S
C23 O15 1.284 . S
C23 O24 1.273 . S
O24 C23 1.273 . S
O25 Zn16 1.977 . S
O25 C18 1.267 . S
C26 O27 1.160 . S
C26 O33 1.185 1_556 S
O27 C26 1.160 . S
O28 Zn29 1.899 1_565 S
O28 C36 1.284 . S
Zn29 O28 1.899 1_545 S
Zn29 O30 2.032 1_554 S
Zn29 O33 2.086 . S
Zn29 O38 1.977 . S
O30 Zn29 2.032 1_556 S
O30 C34 1.278 1_545 S
C31 O32 1.203 1_545 S
C31 O38 1.267 . S
O32 C31 1.203 1_565 S
O33 C26 1.185 1_554 S
O33 Zn29 2.086 . S
C34 O30 1.278 1_565 S
C34 O35 1.211 . S
O35 C34 1.211 . S
C36 O28 1.284 . S
C36 O37 1.273 . S
O37 C36 1.273 . S
O38 Zn29 1.977 . S
O38 C31 1.267 . S
C39 O40 1.160 . S
C39 O46 1.185 1_556 S
O40 C39 1.160 . S
O41 Zn42 1.899 1_455 S
O41 C49 1.284 . S
Zn42 O41 1.899 1_655 S
Zn42 O43 2.032 1_554 S
Zn42 O46 2.086 . S
Zn42 O51 1.977 . S
O43 Zn42 2.032 1_556 S
O43 C47 1.278 1_655 S
C44 O45 1.203 1_655 S
C44 O51 1.267 . S
O45 C44 1.203 1_455 S
O46 C39 1.185 1_554 S
O46 Zn42 2.086 . S
C47 O43 1.278 1_455 S
C47 O48 1.211 . S
O48 C47 1.211 . S
C49 O41 1.284 . S
C49 O50 1.273 . S
O50 C49 1.273 . S
O51 Zn42 1.977 . S
O51 C44 1.267 . S
C52 O53 1.160 . S
C52 O59 1.185 . S
O53 C52 1.160 . S
O54 Zn55 1.898 1_556 S
O54 C62 1.284 . S
Zn55 O54 1.898 1_554 S
Zn55 O56 2.036 . S
Zn55 O59 2.087 . S
Zn55 O64 1.974 1_554 S
O56 Zn55 2.036 . S
O56 C60 1.278 . S
C57 O58 1.203 . S
C57 O64 1.267 . S
O58 C57 1.203 . S
O59 C52 1.185 . S
O59 Zn55 2.087 . S
C60 O56 1.278 . S
C60 O61 1.211 . S
O61 C60 1.211 . S
C62 O54 1.284 . S
C62 O63 1.273 1_556 S
O63 C62 1.273 1_554 S
O64 Zn55 1.974 1_556 S
O64 C57 1.267 . S
C65 O66 1.160 . S
C65 O72 1.185 . S
O66 C65 1.160 . S
O67 Zn68 1.896 1_546 S
O67 C75 1.284 . S
Zn68 O67 1.896 1_564 S
Zn68 O69 2.041 . S
Zn68 O72 2.088 . S
Zn68 O77 1.971 1_554 S
O69 Zn68 2.041 . S
O69 C73 1.278 1_565 S
C70 O71 1.203 1_565 S
C70 O77 1.267 . S
O71 C70 1.203 1_545 S
O72 C65 1.185 . S
O72 Zn68 2.088 . S
C73 O69 1.278 1_545 S
C73 O74 1.211 . S
O74 C73 1.211 . S
C75 O67 1.284 . S
C75 O76 1.273 1_556 S
O76 C75 1.273 1_554 S
O77 Zn68 1.971 1_556 S
O77 C70 1.267 . S
C78 O79 1.160 . S
C78 O85 1.185 . S
O79 C78 1.160 . S
O80 Zn81 1.899 . S
O80 C88 1.284 . S
Zn81 O80 1.899 . S
Zn81 O82 2.032 . S
Zn81 O85 2.086 . S
Zn81 O90 1.977 . S
O82 Zn81 2.032 . S
O82 C86 1.278 . S
C83 O84 1.203 . S
C83 O90 1.267 . S
O84 C83 1.203 . S
O85 C78 1.185 . S
O85 Zn81 2.086 . S
C86 O82 1.278 . S
C86 O87 1.211 . S
O87 C86 1.211 . S
C88 O80 1.284 . S
C88 O89 1.273 . S
O89 C88 1.273 . S
O90 Zn81 1.977 . S
O90 C83 1.267 . S
C91 O92 1.165 . S
C91 O98 1.183 1_545 S
O92 C91 1.165 . S
O93 Zn94 1.899 1_545 S
O93 C101 1.284 . S
Zn94 O93 1.899 1_565 S
Zn94 O95 2.032 . S
Zn94 O98 2.086 . S
Zn94 O103 1.977 . S
O95 Zn94 2.032 . S
O95 C99 1.278 . S
C96 O97 1.203 . S
C96 O103 1.267 . S
O97 C96 1.203 . S
O98 C91 1.183 1_565 S
O98 Zn94 2.086 . S
C99 O95 1.278 . S
C99 O100 1.211 . S
O100 C99 1.211 . S
C101 O93 1.284 . S
C101 O102 1.273 . S
O102 C101 1.273 . S
O103 Zn94 1.977 . S
O103 C96 1.267 . S
C104 O105 1.160 1_455 S
C104 O111 1.185 . S
O105 C104 1.160 1_655 S
O106 Zn107 1.899 1_655 S
O106 C114 1.284 . S
Zn107 O106 1.899 1_455 S
Zn107 O108 2.032 . S
Zn107 O111 2.086 . S
Zn107 O116 1.977 . S
O108 Zn107 2.032 . S
O108 C112 1.278 . S
C109 O110 1.203 . S
C109 O116 1.267 . S
O110 C109 1.203 . S
O111 C104 1.185 . S
O111 Zn107 2.086 . S
C112 O108 1.278 . S
C112 O113 1.211 . S
O113 C112 1.211 . S
C114 O106 1.284 . S
C114 O115 1.273 . S
O115 C114 1.273 . S
O116 Zn107 1.977 . S
O116 C109 1.267 . S
C117 O118 1.159 . S
C117 O124 1.186 1_545 S
O118 C117 1.159 . S
O119 Zn120 1.899 1_545 S
O119 C127 1.284 . S
Zn120 O119 1.899 1_565 S
Zn120 O121 2.032 . S
Zn120 O124 2.086 . S
Zn120 O129 1.977 . S
O121 Zn120 2.032 . S
O121 C125 1.278 . S
C122 O123 1.203 . S
C122 O129 1.267 . S
O123 C122 1.203 . S
O124 C117 1.186 1_565 S
O124 Zn120 2.086 . S
C125 O121 1.278 . S
C125 O126 1.211 . S
O126 C125 1.211 . S
C127 O119 1.284 . S
C127 O128 1.273 . S
O128 C127 1.273 . S
O129 Zn120 1.977 . S
O129 C122 1.267 . S
C130 O131 1.160 . S
C130 O137 1.185 . S
O131 C130 1.160 . S
O132 Zn133 1.899 1_655 S
O132 C140 1.284 1_655 S
Zn133 O132 1.899 1_455 S
Zn133 O134 2.032 . S
Zn133 O137 2.086 1_455 S
Zn133 O142 1.977 . S
O134 Zn133 2.032 . S
O134 C138 1.278 . S
C135 O136 1.203 . S
C135 O142 1.267 . S
O136 C135 1.203 . S
O137 C130 1.185 . S
O137 Zn133 2.086 1_655 S
C138 O134 1.278 . S
C138 O139 1.211 . S
O139 C138 1.211 . S
C140 O132 1.284 1_455 S
C140 O141 1.273 . S
O141 C140 1.273 . S
O142 Zn133 1.977 . S
O142 C135 1.267 . S
C143 O144 1.160 . S
C143 O150 1.185 . S
O144 C143 1.160 . S
O145 Zn146 1.899 . S
O145 C153 1.284 . S
Zn146 O145 1.899 . S
Zn146 O147 2.032 . S
Zn146 O150 2.086 . S
Zn146 O155 1.977 . S
O147 Zn146 2.032 . S
O147 C151 1.278 . S
C148 O149 1.203 . S
C148 O155 1.267 . S
O149 C148 1.203 . S
O150 C143 1.185 . S
O150 Zn146 2.086 . S
C151 O147 1.278 . S
C151 O152 1.211 . S
O152 C151 1.211 . S
C153 O145 1.284 . S
C153 O154 1.273 . S
O154 C153 1.273 . S
O155 Zn146 1.977 . S
O155 C148 1.267 . S
C156 O157 1.160 1_545 S
C156 O163 1.185 . S
O157 C156 1.160 1_565 S
O158 Zn159 1.899 1_565 S
O158 C166 1.284 . S
Zn159 O158 1.899 1_545 S
Zn159 O160 2.032 . S
Zn159 O163 2.086 . S
Zn159 O168 1.977 . S
O160 Zn159 2.032 . S
O160 C164 1.278 . S
C161 O162 1.203 . S
C161 O168 1.267 . S
O162 C161 1.203 . S
O163 C156 1.185 . S
O163 Zn159 2.086 . S
C164 O160 1.278 . S
C164 O165 1.211 . S
O165 C164 1.211 . S
C166 O158 1.284 . S
C166 O167 1.273 . S
O167 C166 1.273 . S
O168 Zn159 1.977 . S
O168 C161 1.267 . S
C169 O170 1.160 . S
C169 O176 1.185 . S
O170 C169 1.160 . S
O171 Zn172 1.899 1_455 S
O171 C179 1.284 1_455 S
Zn172 O171 1.899 1_655 S
Zn172 O173 2.032 . S
Zn172 O176 2.086 1_655 S
Zn172 O181 1.977 . S
O173 Zn172 2.032 . S
O173 C177 1.278 . S
C174 O175 1.203 . S
C174 O181 1.267 . S
O175 C174 1.203 . S
O176 C169 1.185 . S
O176 Zn172 2.086 1_455 S
C177 O173 1.278 . S
C177 O178 1.211 . S
O178 C177 1.211 . S
C179 O171 1.284 1_655 S
C179 O180 1.273 . S
O180 C179 1.273 . S
O181 Zn172 1.977 . S
O181 C174 1.267 . S
C182 O183 1.160 . S
C182 O189 1.185 . S
O183 C182 1.160 . S
O184 Zn185 1.899 . S
O184 C192 1.284 . S
Zn185 O184 1.899 . S
Zn185 O186 2.032 . S
Zn185 O189 2.086 . S
Zn185 O194 1.977 . S
O186 Zn185 2.032 . S
O186 C190 1.278 . S
C187 O188 1.203 . S
C187 O194 1.267 . S
O188 C187 1.203 . S
O189 C182 1.185 . S
O189 Zn185 2.086 . S
C190 O186 1.278 . S
C190 O191 1.211 . S
O191 C190 1.211 . S
C192 O184 1.284 . S
C192 O193 1.273 . S
O193 C192 1.273 . S
O194 Zn185 1.977 . S
O194 C187 1.267 . S
C195 O196 1.160 . S
C195 O202 1.185 . S
O196 C195 1.160 . S
O197 Zn198 1.899 . S
O197 C205 1.284 . S
Zn198 O197 1.899 . S
Zn198 O199 2.032 . S
Zn198 O202 2.086 . S
Zn198 O207 1.977 . S
O199 Zn198 2.032 . S
O199 C203 1.278 . S
C200 O201 1.203 . S
C200 O207 1.267 . S
O201 C200 1.203 . S
O202 C195 1.185 . S
O202 Zn198 2.086 . S
C203 O199 1.278 . S
C203 O204 1.211 . S
O204 C203 1.211 . S
C205 O197 1.284 . S
C205 O206 1.273 . S
O206 C205 1.273 . S
O207 Zn198 1.977 . S
O207 C200 1.267 . S
C208 O209 1.160 1_545 S
C208 O215 1.185 . S
O209 C208 1.160 1_565 S
O210 Zn211 1.899 1_565 S
O210 C218 1.284 . S
Zn211 O210 1.899 1_545 S
Zn211 O212 2.032 . S
Zn211 O215 2.086 . S
Zn211 O220 1.977 . S
O212 Zn211 2.032 . S
O212 C216 1.278 . S
C213 O214 1.203 . S
C213 O220 1.267 . S
O214 C213 1.203 . S
O215 C208 1.185 . S
O215 Zn211 2.086 . S
C216 O212 1.278 . S
C216 O217 1.211 . S
O217 C216 1.211 . S
C218 O210 1.284 . S
C218 O219 1.273 . S
O219 C218 1.273 . S
O220 Zn211 1.977 . S
O220 C213 1.267 . S
C221 O222 1.160 1_655 S
C221 O228 1.185 . S
O222 C221 1.160 1_455 S
O223 Zn224 1.899 1_455 S
O223 C231 1.284 . S
Zn224 O223 1.899 1_655 S
Zn224 O225 2.032 . S
Zn224 O228 2.086 . S
Zn224 O233 1.977 . S
O225 Zn224 2.032 . S
O225 C229 1.278 . S
C226 O227 1.203 . S
C226 O233 1.267 . S
O227 C226 1.203 . S
O228 C221 1.185 . S
O228 Zn224 2.086 . S
C229 O225 1.278 . S
C229 O230 1.211 . S
O230 C229 1.211 . S
C231 O223 1.284 . S
C231 O232 1.273 . S
O232 C231 1.273 . S
O233 Zn224 1.977 . S
O233 C226 1.267 . S
H234 C240 0.930 . S
H235 C243 0.931 . S
H236 C245 0.931 . S
H237 C247 0.930 . S
H238 C249 0.930 . S
H239 C251 0.931 . S
C240 H234 0.930 . S
C240 C241 1.380 . S
C240 C242 1.394 . S
C241 C240 1.380 . S
C241 C245 1.382 . S
C242 C240 1.394 . S
C242 C243 1.400 . S
C243 H235 0.931 . S
C243 C242 1.400 . S
C243 C244 1.375 . S
C244 C243 1.375 . S
C244 C245 1.415 . S
C244 C246 1.501 . S
C245 H236 0.931 . S
C245 C241 1.382 . S
C245 C244 1.415 . S
C246 C244 1.501 . S
C246 C247 1.384 . S
C246 C251 1.408 . S
C247 H237 0.930 . S
C247 C246 1.384 . S
C247 C248 1.389 . S
C248 C247 1.389 . S
C248 C249 1.405 . S
C249 H238 0.930 . S
C249 C248 1.405 . S
C249 C250 1.364 . S
C250 C249 1.364 . S
C250 C251 1.400 . S
C251 H239 0.931 . S
C251 C246 1.408 . S
C251 C250 1.400 . S
H252 C258 0.930 . S
H253 C261 0.931 . S
H254 C263 0.931 . S
H255 C265 0.930 . S
H256 C267 0.930 . S
H257 C269 0.931 . S
C258 H252 0.930 . S
C258 C259 1.380 . S
C258 C260 1.394 . S
C259 C258 1.380 . S
C259 C263 1.382 . S
C260 C258 1.394 . S
C260 C261 1.400 . S
C261 H253 0.931 . S
C261 C260 1.400 . S
C261 C262 1.375 . S
C262 C261 1.375 . S
C262 C263 1.415 . S
C262 C264 1.501 . S
C263 H254 0.931 . S
C263 C259 1.382 . S
C263 C262 1.415 . S
C264 C262 1.501 . S
C264 C265 1.384 . S
C264 C269 1.408 . S
C265 H255 0.930 . S
C265 C264 1.384 . S
C265 C266 1.389 . S
C266 C265 1.389 . S
C266 C267 1.405 . S
C267 H256 0.930 . S
C267 C266 1.405 . S
C267 C268 1.364 . S
C268 C267 1.364 . S
C268 C269 1.400 . S
C269 H257 0.931 . S
C269 C264 1.408 . S
C269 C268 1.400 . S
H270 C276 0.930 . S
H271 C279 0.931 . S
H272 C281 0.931 . S
H273 C283 0.930 . S
H274 C285 0.930 . S
H275 C287 0.931 . S
C276 H270 0.930 . S
C276 C277 1.380 . S
C276 C278 1.394 . S
C277 C276 1.380 . S
C277 C281 1.382 . S
C278 C276 1.394 . S
C278 C279 1.400 . S
C279 H271 0.931 . S
C279 C278 1.400 . S
C279 C280 1.375 . S
C280 C279 1.375 . S
C280 C281 1.415 . S
C280 C282 1.501 . S
C281 H272 0.931 . S
C281 C277 1.382 . S
C281 C280 1.415 . S
C282 C280 1.501 . S
C282 C283 1.384 . S
C282 C287 1.408 . S
C283 H273 0.930 . S
C283 C282 1.384 . S
C283 C284 1.389 . S
C284 C283 1.389 . S
C284 C285 1.405 . S
C285 H274 0.930 . S
C285 C284 1.405 . S
C285 C286 1.364 . S
C286 C285 1.364 . S
C286 C287 1.400 . S
C287 H275 0.931 . S
C287 C282 1.408 . S
C287 C286 1.400 . S
H288 C294 0.930 . S
H289 C297 0.931 . S
H290 C299 0.931 . S
H291 C301 0.930 . S
H292 C303 0.930 . S
H293 C305 0.931 . S
C294 H288 0.930 . S
C294 C295 1.380 . S
C294 C296 1.394 . S
C295 C294 1.380 . S
C295 C299 1.382 . S
C296 C294 1.394 . S
C296 C297 1.400 . S
C297 H289 0.931 . S
C297 C296 1.400 . S
C297 C298 1.375 . S
C298 C297 1.375 . S
C298 C299 1.415 . S
C298 C300 1.501 . S
C299 H290 0.931 . S
C299 C295 1.382 . S
C299 C298 1.415 . S
C300 C298 1.501 . S
C300 C301 1.384 . S
C300 C305 1.408 . S
C301 H291 0.930 . S
C301 C300 1.384 . S
C301 C302 1.389 . S
C302 C301 1.389 . S
C302 C303 1.405 . S
C303 H292 0.930 . S
C303 C302 1.405 . S
C303 C304 1.364 . S
C304 C303 1.364 . S
C304 C305 1.400 . S
C305 H293 0.931 . S
C305 C300 1.408 . S
C305 C304 1.400 . S
H306 C312 0.930 . S
H307 C315 0.931 . S
H308 C317 0.931 . S
H309 C319 0.930 . S
H310 C321 0.930 . S
H311 C323 0.931 . S
C312 H306 0.930 . S
C312 C313 1.380 . S
C312 C314 1.394 . S
C313 C312 1.380 . S
C313 C317 1.382 . S
C314 C312 1.394 . S
C314 C315 1.400 . S
C315 H307 0.931 . S
C315 C314 1.400 . S
C315 C316 1.375 . S
C316 C315 1.375 . S
C316 C317 1.415 . S
C316 C318 1.501 . S
C317 H308 0.931 . S
C317 C313 1.382 . S
C317 C316 1.415 . S
C318 C316 1.501 . S
C318 C319 1.384 . S
C318 C323 1.408 . S
C319 H309 0.930 . S
C319 C318 1.384 . S
C319 C320 1.389 . S
C320 C319 1.389 . S
C320 C321 1.405 . S
C321 H310 0.930 . S
C321 C320 1.405 . S
C321 C322 1.364 . S
C322 C321 1.364 . S
C322 C323 1.400 . S
C323 H311 0.931 . S
C323 C318 1.408 . S
C323 C322 1.400 . S
H324 C330 0.930 . S
H325 C333 0.931 . S
H326 C335 0.931 . S
H327 C337 0.930 . S
H328 C339 0.930 . S
H329 C341 0.931 . S
C330 H324 0.930 . S
C330 C331 1.380 . S
C330 C332 1.394 . S
C331 C330 1.380 . S
C331 C335 1.382 . S
C332 C330 1.394 . S
C332 C333 1.400 . S
C333 H325 0.931 . S
C333 C332 1.400 . S
C333 C334 1.375 . S
C334 C333 1.375 . S
C334 C335 1.415 . S
C334 C336 1.501 . S
C335 H326 0.931 . S
C335 C331 1.382 . S
C335 C334 1.415 . S
C336 C334 1.501 . S
C336 C337 1.384 . S
C336 C341 1.408 . S
C337 H327 0.930 . S
C337 C336 1.384 . S
C337 C338 1.389 . S
C338 C337 1.389 . S
C338 C339 1.405 . S
C339 H328 0.930 . S
C339 C338 1.405 . S
C339 C340 1.364 . S
C340 C339 1.364 . S
C340 C341 1.400 . S
C341 H329 0.931 . S
C341 C336 1.408 . S
C341 C340 1.400 . S
H342 C348 0.930 . S
H343 C351 0.931 . S
H344 C353 0.931 . S
H345 C355 0.930 . S
H346 C357 0.930 . S
H347 C359 0.931 . S
C348 H342 0.930 . S
C348 C349 1.380 . S
C348 C350 1.394 . S
C349 C348 1.380 . S
C349 C353 1.382 . S
C350 C348 1.394 . S
C350 C351 1.400 . S
C351 H343 0.931 . S
C351 C350 1.400 . S
C351 C352 1.375 . S
C352 C351 1.375 . S
C352 C353 1.415 . S
C352 C354 1.501 . S
C353 H344 0.931 . S
C353 C349 1.382 . S
C353 C352 1.415 . S
C354 C352 1.501 . S
C354 C355 1.384 . S
C354 C359 1.408 . S
C355 H345 0.930 . S
C355 C354 1.384 . S
C355 C356 1.389 . S
C356 C355 1.389 . S
C356 C357 1.405 . S
C357 H346 0.930 . S
C357 C356 1.405 . S
C357 C358 1.364 . S
C358 C357 1.364 . S
C358 C359 1.400 . S
C359 H347 0.931 . S
C359 C354 1.408 . S
C359 C358 1.400 . S
H360 C366 0.930 . S
H361 C369 0.931 . S
H362 C371 0.931 . S
H363 C373 0.930 . S
H364 C375 0.930 . S
H365 C377 0.931 . S
C366 H360 0.930 . S
C366 C367 1.380 . S
C366 C368 1.394 . S
C367 C366 1.380 . S
C367 C371 1.382 . S
C368 C366 1.394 . S
C368 C369 1.400 . S
C369 H361 0.931 . S
C369 C368 1.400 . S
C369 C370 1.375 . S
C370 C369 1.375 . S
C370 C371 1.415 . S
C370 C372 1.501 . S
C371 H362 0.931 . S
C371 C367 1.382 . S
C371 C370 1.415 . S
C372 C370 1.501 . S
C372 C373 1.384 . S
C372 C377 1.408 . S
C373 H363 0.930 . S
C373 C372 1.384 . S
C373 C374 1.389 . S
C374 C373 1.389 . S
C374 C375 1.405 . S
C375 H364 0.930 . S
C375 C374 1.405 . S
C375 C376 1.364 . S
C376 C375 1.364 . S
C376 C377 1.400 . S
C377 H365 0.931 . S
C377 C372 1.408 . S
C377 C376 1.400 . S
H378 C384 0.930 . S
H379 C387 0.931 . S
H380 C389 0.931 . S
H381 C391 0.930 . S
H382 C393 0.930 . S
H383 C395 0.931 . S
C384 H378 0.930 . S
C384 C385 1.380 . S
C384 C386 1.394 . S
C385 C384 1.380 . S
C385 C389 1.382 . S
C386 C384 1.394 . S
C386 C387 1.400 . S
C387 H379 0.931 . S
C387 C386 1.400 . S
C387 C388 1.375 . S
C388 C387 1.375 . S
C388 C389 1.415 . S
C388 C390 1.501 . S
C389 H380 0.931 . S
C389 C385 1.382 . S
C389 C388 1.415 . S
C390 C388 1.501 . S
C390 C391 1.384 . S
C390 C395 1.408 . S
C391 H381 0.930 . S
C391 C390 1.384 . S
C391 C392 1.389 . S
C392 C391 1.389 . S
C392 C393 1.405 . S
C393 H382 0.930 . S
C393 C392 1.405 . S
C393 C394 1.364 . S
C394 C393 1.364 . S
C394 C395 1.400 . S
C395 H383 0.931 . S
C395 C390 1.408 . S
C395 C394 1.400 . S
H396 C402 0.923 . S
H397 C405 0.931 . S
H398 C407 0.931 . S
H399 C409 0.930 . S
H400 C411 0.930 . S
H401 C413 0.931 . S
C402 H396 0.923 . S
C402 C403 1.386 . S
C402 C404 1.396 1_655 S
C403 C402 1.386 . S
C403 C407 1.382 . S
C404 C402 1.396 1_455 S
C404 C405 1.400 . S
C405 H397 0.931 . S
C405 C404 1.400 . S
C405 C406 1.375 . S
C406 C405 1.375 . S
C406 C407 1.415 1_455 S
C406 C408 1.501 . S
C407 H398 0.931 . S
C407 C403 1.382 . S
C407 C406 1.415 1_655 S
C408 C406 1.501 . S
C408 C409 1.384 . S
C408 C413 1.408 . S
C409 H399 0.930 . S
C409 C408 1.384 . S
C409 C410 1.389 . S
C410 C409 1.389 . S
C410 C411 1.405 . S
C411 H400 0.930 . S
C411 C410 1.405 . S
C411 C412 1.359 . S
C412 C411 1.359 . S
C412 C413 1.414 . S
C413 H401 0.931 . S
C413 C408 1.408 . S
C413 C412 1.414 . S
H414 C420 0.930 . S
H415 C423 0.931 . S
H416 C425 0.931 . S
H417 C427 0.930 . S
H418 C429 0.930 . S
H419 C431 0.931 . S
C420 H414 0.930 . S
C420 C421 1.380 . S
C420 C422 1.394 . S
C421 C420 1.380 . S
C421 C425 1.382 . S
C422 C420 1.394 . S
C422 C423 1.400 . S
C423 H415 0.931 . S
C423 C422 1.400 . S
C423 C424 1.375 . S
C424 C423 1.375 . S
C424 C425 1.415 . S
C424 C426 1.501 . S
C425 H416 0.931 . S
C425 C421 1.382 . S
C425 C424 1.415 . S
C426 C424 1.501 . S
C426 C427 1.384 . S
C426 C431 1.408 . S
C427 H417 0.930 . S
C427 C426 1.384 . S
C427 C428 1.389 . S
C428 C427 1.389 . S
C428 C429 1.405 . S
C429 H418 0.930 . S
C429 C428 1.405 . S
C429 C430 1.364 . S
C430 C429 1.364 . S
C430 C431 1.400 . S
C431 H419 0.931 . S
C431 C426 1.408 . S
C431 C430 1.400 . S
H432 C438 0.930 . S
H433 C441 0.931 . S
H434 C443 0.931 . S
H435 C445 0.930 . S
H436 C447 0.930 . S
H437 C449 0.934 . S
C438 H432 0.930 . S
C438 C439 1.380 . S
C438 C440 1.394 1_545 S
C439 C438 1.380 . S
C439 C443 1.382 . S
C440 C438 1.394 1_565 S
C440 C441 1.400 . S
C441 H433 0.931 . S
C441 C440 1.400 . S
C441 C442 1.375 . S
C442 C441 1.375 . S
C442 C443 1.415 1_565 S
C442 C444 1.501 . S
C443 H434 0.931 . S
C443 C439 1.382 . S
C443 C442 1.415 1_545 S
C444 C442 1.501 . S
C444 C445 1.384 . S
C444 C449 1.408 . S
C445 H435 0.930 . S
C445 C444 1.384 . S
C445 C446 1.389 . S
C446 C445 1.389 . S
C446 C447 1.405 . S
C447 H436 0.930 . S
C447 C446 1.405 . S
C447 C448 1.364 . S
C448 C447 1.364 . S
C448 C449 1.400 . S
C449 H437 0.934 . S
C449 C444 1.408 . S
C449 C448 1.400 . S
H450 C456 0.917 . S
H451 C459 0.931 . S
H452 C461 0.925 . S
H453 C463 0.930 . S
H454 C465 0.930 . S
H455 C467 0.931 . S
C456 H450 0.917 . S
C456 C457 1.383 . S
C456 C458 1.401 1_545 S
C457 C456 1.383 . S
C457 C461 1.405 1_545 S
C458 C456 1.401 1_565 S
C458 C459 1.400 . S
C459 H451 0.931 . S
C459 C458 1.400 . S
C459 C460 1.375 . S
C460 C459 1.375 . S
C460 C461 1.407 . S
C460 C462 1.501 . S
C461 H452 0.925 . S
C461 C457 1.405 1_565 S
C461 C460 1.407 . S
C462 C460 1.501 . S
C462 C463 1.384 . S
C462 C467 1.408 1_565 S
C463 H453 0.930 . S
C463 C462 1.384 . S
C463 C464 1.389 . S
C464 C463 1.389 . S
C464 C465 1.405 . S
C465 H454 0.930 . S
C465 C464 1.405 . S
C465 C466 1.364 1_565 S
C466 C465 1.364 1_545 S
C466 C467 1.400 . S
C467 H455 0.931 . S
C467 C462 1.408 1_545 S
C467 C466 1.400 . S
H468 C474 0.930 . S
H469 C477 0.931 . S
H470 C479 0.934 . S
H471 C481 0.930 . S
H472 C483 0.930 . S
H473 C485 0.931 . S
C474 H468 0.930 . S
C474 C475 1.387 . S
C474 C476 1.386 1_655 S
C475 C474 1.387 . S
C475 C479 1.350 1_655 S
C476 C474 1.386 1_455 S
C476 C477 1.417 . S
C477 H469 0.931 . S
C477 C476 1.417 . S
C477 C478 1.375 . S
C478 C477 1.375 . S
C478 C479 1.426 . S
C478 C480 1.501 . S
C479 H470 0.934 . S
C479 C475 1.350 1_455 S
C479 C478 1.426 . S
C480 C478 1.501 . S
C480 C481 1.384 . S
C480 C485 1.408 1_455 S
C481 H471 0.930 . S
C481 C480 1.384 . S
C481 C482 1.389 . S
C482 C481 1.389 . S
C482 C483 1.405 . S
C483 H472 0.930 . S
C483 C482 1.405 . S
C483 C484 1.364 1_455 S
C484 C483 1.364 1_655 S
C484 C485 1.400 . S
C485 H473 0.931 . S
C485 C480 1.408 1_655 S
C485 C484 1.400 . S
H486 C492 0.930 . S
H487 C495 0.931 . S
H488 C497 0.931 . S
H489 C499 0.930 . S
H490 C501 0.930 . S
H491 C503 0.931 . S
C492 H486 0.930 . S
C492 C493 1.380 . S
C492 C494 1.394 . S
C493 C492 1.380 . S
C493 C497 1.382 . S
C494 C492 1.394 . S
C494 C495 1.400 . S
C495 H487 0.931 . S
C495 C494 1.400 . S
C495 C496 1.375 . S
C496 C495 1.375 . S
C496 C497 1.415 . S
C496 C498 1.501 . S
C497 H488 0.931 . S
C497 C493 1.382 . S
C497 C496 1.415 . S
C498 C496 1.501 . S
C498 C499 1.384 . S
C498 C503 1.408 . S
C499 H489 0.930 . S
C499 C498 1.384 . S
C499 C500 1.389 . S
C500 C499 1.389 . S
C500 C501 1.405 . S
C501 H490 0.930 . S
C501 C500 1.405 . S
C501 C502 1.364 . S
C502 C501 1.364 . S
C502 C503 1.400 . S
C503 H491 0.931 . S
C503 C498 1.408 . S
C503 C502 1.400 . S
H504 C510 0.930 . S
H505 C513 0.931 . S
H506 C515 0.931 . S
H507 C517 0.930 . S
H508 C519 0.930 . S
H509 C521 0.931 . S
C510 H504 0.930 . S
C510 C511 1.380 . S
C510 C512 1.394 . S
C511 C510 1.380 . S
C511 C515 1.382 . S
C512 C510 1.394 . S
C512 C513 1.400 . S
C513 H505 0.931 . S
C513 C512 1.400 . S
C513 C514 1.375 . S
C514 C513 1.375 . S
C514 C515 1.415 . S
C514 C516 1.501 . S
C515 H506 0.931 . S
C515 C511 1.382 . S
C515 C514 1.415 . S
C516 C514 1.501 . S
C516 C517 1.384 . S
C516 C521 1.408 . S
C517 H507 0.930 . S
C517 C516 1.384 . S
C517 C518 1.389 . S
C518 C517 1.389 . S
C518 C519 1.405 . S
C519 H508 0.930 . S
C519 C518 1.405 . S
C519 C520 1.364 . S
C520 C519 1.364 . S
C520 C521 1.400 . S
C521 H509 0.931 . S
C521 C516 1.408 . S
C521 C520 1.400 . S
H522 C528 0.930 . S
H523 C531 0.931 . S
H524 C533 0.931 . S
H525 C535 0.930 . S
H526 C537 0.930 . S
H527 C539 0.931 . S
C528 H522 0.930 . S
C528 C529 1.380 . S
C528 C530 1.394 . S
C529 C528 1.380 . S
C529 C533 1.382 . S
C530 C528 1.394 . S
C530 C531 1.400 . S
C531 H523 0.931 . S
C531 C530 1.400 . S
C531 C532 1.375 . S
C532 C531 1.375 . S
C532 C533 1.415 . S
C532 C534 1.501 . S
C533 H524 0.931 . S
C533 C529 1.382 . S
C533 C532 1.415 . S
C534 C532 1.501 . S
C534 C535 1.384 . S
C534 C539 1.408 . S
C535 H525 0.930 . S
C535 C534 1.384 . S
C535 C536 1.389 . S
C536 C535 1.389 . S
C536 C537 1.405 . S
C537 H526 0.930 . S
C537 C536 1.405 . S
C537 C538 1.364 . S
C538 C537 1.364 . S
C538 C539 1.400 . S
C539 H527 0.931 . S
C539 C534 1.408 . S
C539 C538 1.400 . S
H540 C546 0.930 . S
H541 C549 0.931 . S
H542 C551 0.931 . S
H543 C553 0.930 . S
H544 C555 0.930 . S
H545 C557 0.931 . S
C546 H540 0.930 . S
C546 C547 1.380 . S
C546 C548 1.394 . S
C547 C546 1.380 . S
C547 C551 1.382 . S
C548 C546 1.394 . S
C548 C549 1.400 . S
C549 H541 0.931 . S
C549 C548 1.400 . S
C549 C550 1.375 . S
C550 C549 1.375 . S
C550 C551 1.415 . S
C550 C552 1.501 . S
C551 H542 0.931 . S
C551 C547 1.382 . S
C551 C550 1.415 . S
C552 C550 1.501 . S
C552 C553 1.384 . S
C552 C557 1.408 . S
C553 H543 0.930 . S
C553 C552 1.384 . S
C553 C554 1.389 . S
C554 C553 1.389 . S
C554 C555 1.405 . S
C555 H544 0.930 . S
C555 C554 1.405 . S
C555 C556 1.364 . S
C556 C555 1.364 . S
C556 C557 1.400 . S
C557 H545 0.931 . S
C557 C552 1.408 . S
C557 C556 1.400 . S
C8 C403 1.622 . S
C18 C428 1.568 . S
C439 C31 1.502 . S
C34 C464 1.626 . S
C5 C482 1.545 . S
C21 C493 1.670 . S
C47 C475 1.662 1_455 S
C500 C57 1.512 . S
C457 C70 1.498 1_545 S
C73 C446 1.693 1_545 S
C410 C44 1.523 1_455 S
C60 C421 1.672 . S
C86 C511 1.685 . S
C96 C536 1.632 . S
C547 C109 1.659 . S
C112 C248 1.742 . S
C83 C266 1.689 . S
C99 C277 1.727 . S
C125 C259 1.645 . S
C135 C284 1.541 . S
C241 C148 1.555 . S
C554 C151 1.683 . S
C518 C122 1.567 . S
C529 C138 1.719 . S
C164 C295 1.664 . S
C174 C320 1.613 . S
C187 C331 1.638 . S
C190 C356 1.764 . S
C374 C161 1.704 . S
C385 C177 1.732 . S
C367 C203 1.664 . S
C392 C213 1.545 . S
C226 C349 1.567 . S
C338 C229 1.666 . S
C200 C302 1.568 . S
C313 C216 1.724 . S
C250 C0 1.303 . S
C23 C268 1.374 . S
C278 C36 1.473 . S
C296 C26 1.336 . S
C322 C10 1.433 . S
C332 C13 1.220 . S
C39 C340 1.352 . S
C62 C304 1.442 . S
C75 C314 1.624 . S
C65 C260 1.432 . S
C286 C49 1.507 . S
C52 C242 1.336 . S
C358 C78 1.271 . S
C101 C376 1.397 . S
C114 C386 1.398 . S
C404 C104 1.246 . S
C88 C430 1.352 . S
C91 C440 1.221 1_545 S
C117 C448 1.214 1_545 S
C140 C412 1.290 . S
C422 C153 1.488 . S
C143 C368 1.359 . S
C127 C394 1.449 . S
C350 C130 1.357 . S
C466 C156 1.232 . S
C179 C484 1.242 . S
C192 C494 1.363 . S
C512 C182 1.259 . S
C538 C166 1.398 . S
C169 C548 1.257 . S
C195 C556 1.324 . S
C218 C520 1.460 . S
C530 C231 1.518 . S
C476 C221 1.227 1_455 S
C502 C205 1.414 . S
C208 C458 1.186 1_545 S
