# Generated by pormake.
# Topology zzz, (3,6)-cn, num edge types: 1
# Building blocks:
#     Node 0, Type 0, BuildingBlock: CUQRIR_clean_linker_1, # of connection points: 3
#     Node 1, Type 0, BuildingBlock: CUQRIR_clean_linker_1, # of connection points: 3
#     Node 2, Type 0, BuildingBlock: CUQRIR_clean_linker_1, # of connection points: 3
#     Node 3, Type 0, BuildingBlock: CUQRIR_clean_linker_1, # of connection points: 3
#     Node 4, Type 0, BuildingBlock: CUQRIR_clean_linker_1, # of connection points: 3
#     Node 5, Type 0, BuildingBlock: CUQRIR_clean_linker_1, # of connection points: 3
#     Node 6, Type 0, BuildingBlock: CUQRIR_clean_linker_1, # of connection points: 3
#     Node 7, Type 0, BuildingBlock: CUQRIR_clean_linker_1, # of connection points: 3
#     Node 8, Type 1, BuildingBlock: INOVEN_clean_sbu_0, # of connection points: 6
#     Node 9, Type 1, BuildingBlock: INOVEN_clean_sbu_0, # of connection points: 6
#     Node 10, Type 1, BuildingBlock: INOVEN_clean_sbu_0, # of connection points: 6
#     Node 11, Type 1, BuildingBlock: INOVEN_clean_sbu_0, # of connection points: 6
#     Edge 12, Type (0, 1), BuildingBlock: EZIPEK_clean_linker_0, # of connection points: 2
#     Edge 13, Type (0, 1), BuildingBlock: EZIPEK_clean_linker_0, # of connection points: 2
#     Edge 14, Type (0, 1), BuildingBlock: EZIPEK_clean_linker_0, # of connection points: 2
#     Edge 15, Type (0, 1), BuildingBlock: EZIPEK_clean_linker_0, # of connection points: 2
#     Edge 16, Type (0, 1), BuildingBlock: EZIPEK_clean_linker_0, # of connection points: 2
#     Edge 17, Type (0, 1), BuildingBlock: EZIPEK_clean_linker_0, # of connection points: 2
#     Edge 18, Type (0, 1), BuildingBlock: EZIPEK_clean_linker_0, # of connection points: 2
#     Edge 19, Type (0, 1), BuildingBlock: EZIPEK_clean_linker_0, # of connection points: 2
#     Edge 20, Type (0, 1), BuildingBlock: EZIPEK_clean_linker_0, # of connection points: 2
#     Edge 21, Type (0, 1), BuildingBlock: EZIPEK_clean_linker_0, # of connection points: 2
#     Edge 22, Type (0, 1), BuildingBlock: EZIPEK_clean_linker_0, # of connection points: 2
#     Edge 23, Type (0, 1), BuildingBlock: EZIPEK_clean_linker_0, # of connection points: 2
#     Edge 24, Type (0, 1), BuildingBlock: EZIPEK_clean_linker_0, # of connection points: 2
#     Edge 25, Type (0, 1), BuildingBlock: EZIPEK_clean_linker_0, # of connection points: 2
#     Edge 26, Type (0, 1), BuildingBlock: EZIPEK_clean_linker_0, # of connection points: 2
#     Edge 27, Type (0, 1), BuildingBlock: EZIPEK_clean_linker_0, # of connection points: 2
#     Edge 28, Type (0, 1), BuildingBlock: EZIPEK_clean_linker_0, # of connection points: 2
#     Edge 29, Type (0, 1), BuildingBlock: EZIPEK_clean_linker_0, # of connection points: 2
#     Edge 30, Type (0, 1), BuildingBlock: EZIPEK_clean_linker_0, # of connection points: 2
#     Edge 31, Type (0, 1), BuildingBlock: EZIPEK_clean_linker_0, # of connection points: 2
#     Edge 32, Type (0, 1), BuildingBlock: EZIPEK_clean_linker_0, # of connection points: 2
#     Edge 33, Type (0, 1), BuildingBlock: EZIPEK_clean_linker_0, # of connection points: 2
#     Edge 34, Type (0, 1), BuildingBlock: EZIPEK_clean_linker_0, # of connection points: 2
#     Edge 35, Type (0, 1), BuildingBlock: EZIPEK_clean_linker_0, # of connection points: 2
# Relax obj value: 0.432
# Max RMSD: 0.218
# Mean RMSD: 0.153
data_MOF--net-zzz--node1-INOVEN_clean_sbu_0--node2-CUQRIR_clean_linker_1--edge1-EZIPEK_clean_linker_0
_symmetry_space_group_name_H-M    P1
_symmetry_Int_Tables_number       1
_symmetry_cell_setting            triclinic
loop_
_symmetry_equiv_pos_as_xyz
'x, y, z'
_cell_length_a     34.876879
_cell_length_b     34.938566
_cell_length_c     9.1723466
_cell_angle_alpha  89.855122
_cell_angle_beta   89.615827
_cell_angle_gamma 90.058135
loop_
_atom_site_label
_atom_site_type_symbol
_atom_site_fract_x
_atom_site_fract_y
_atom_site_fract_z
_atom_type_partial_charge
C0 C 0.75091 0.52629 0.45735 0.0
N1 N 0.78674 0.50908 0.45914 0.0
N2 N 0.73025 0.51739 0.33228 0.0
C3 C 0.73555 0.54968 0.58085 0.0
C4 C 0.7554 0.49476 0.25974 0.0
N5 N 0.78718 0.4882 0.33846 0.0
C6 C 0.74991 0.47971 0.10689 0.0
H7 H 0.70407 0.55351 0.57174 0.0
H8 H 0.74969 0.57814 0.57955 0.0
H9 H 0.7426 0.53564 0.68601 0.0
H10 H 0.77719 0.48144 0.04433 0.0
H11 H 0.72781 0.49604 0.04672 0.0
H12 H 0.74165 0.44906 0.11206 0.0
C13 C 0.99702 0.75361 0.39454 0.0
N14 N 1.01948 0.7852 0.42705 0.0
N15 N 1.01576 0.72816 0.30192 0.0
C16 C 0.95774 0.74664 0.45821 0.0
C17 C 0.0505 0.74538 0.28367 0.0
N18 N 0.05255 0.77904 0.35658 0.0
C19 C 0.08157 0.73113 0.18093 0.0
H20 H 0.96081 0.73282 0.56645 0.0
H21 H 0.94074 0.72763 0.38656 0.0
H22 H 0.94185 0.77336 0.47956 0.0
H23 H 0.08025 0.74747 0.07724 0.0
H24 H 0.07879 0.7002 0.15794 0.0
H25 H 0.11057 0.73526 0.22485 0.0
C26 C 0.79357 1.00245 0.41706 0.0
N27 N 0.75592 1.01364 0.40164 0.0
N28 N 0.81254 1.0005 0.28452 0.0
C29 C 0.81182 0.99499 0.56153 0.0
C30 C 0.78426 1.00984 0.19025 0.0
N31 N 0.75176 0.02102 0.25983 0.0
C32 C 0.78595 1.00042 0.03005 0.0
H33 H 0.80666 1.01974 0.63468 0.0
H34 H 0.84307 0.98985 0.54974 0.0
H35 H 0.79805 0.96961 0.61274 0.0
H36 H 0.78794 0.96889 0.01785 0.0
H37 H 0.81202 1.0127 0.97813 0.0
H38 H 0.7599 1.01056 0.97275 0.0
C39 C 0.54894 0.78499 0.42415 0.0
N40 N 0.52169 0.75804 0.46462 0.0
N41 N 0.53306 0.81556 0.34962 0.0
C42 C 0.59111 0.78055 0.44888 0.0
C43 C 0.4955 0.80587 0.34659 0.0
N44 N 0.48858 0.77218 0.41583 0.0
C45 C 0.4664 0.82567 0.25175 0.0
H46 H 0.6043 0.80854 0.47523 0.0
H47 H 0.60483 0.7702 0.34689 0.0
H48 H 0.59674 0.75969 0.53759 0.0
H49 H 0.46689 0.81247 0.14189 0.0
H50 H 0.47327 0.85634 0.23804 0.0
H51 H 0.43705 0.82225 0.2971 0.0
C52 C 0.29115 0.52051 0.25444 0.0
N53 N 0.25484 0.53603 0.23862 0.0
N54 N 0.3076 0.5296 0.38824 0.0
C55 C 0.3112 0.49898 0.1356 0.0
C56 C 0.27903 0.55014 0.45174 0.0
N57 N 0.24953 0.5559 0.35989 0.0
C58 C 0.27874 0.56389 0.60785 0.0
H59 H 0.29931 0.46955 0.13044 0.0
H60 H 0.34251 0.49748 0.15551 0.0
H61 H 0.3057 0.51297 0.02898 0.0
H62 H 0.28319 0.59533 0.61028 0.0
H63 H 0.30082 0.54945 0.67468 0.0
H64 H 0.25038 0.55822 0.65872 0.0
C65 C 0.03397 0.28657 0.25206 0.0
N66 N 1.01963 0.2499 0.23527 0.0
N67 N 0.02453 0.30227 0.38728 0.0
C68 C 0.05316 0.30813 0.13054 0.0
C69 C 1.00469 0.27277 0.4493 0.0
N70 N 0.99947 0.24346 0.35568 0.0
C71 C 0.99229 0.27043 0.60694 0.0
H72 H 0.08348 0.2988 0.1216 0.0
H73 H 0.05218 0.33944 0.14995 0.0
H74 H 0.03902 0.30134 0.02564 0.0
H75 H 0.96097 0.27544 0.61624 0.0
H76 H 1.00796 0.29119 0.67581 0.0
H77 H 0.99758 0.24108 0.64891 0.0
C78 C 0.24746 0.03821 0.19375 0.0
N79 N 0.28525 0.02565 0.19736 0.0
N80 N 0.22882 0.03395 0.32847 0.0
C81 C 0.22835 0.052 0.05781 0.0
C82 C 0.25778 0.0206 0.41193 0.0
N83 N 0.28926 1.01269 0.33182 0.0
C84 C 0.25581 1.01464 0.57521 0.0
H85 H 0.23557 0.08262 0.04082 0.0
H86 H 0.19674 0.04899 0.06669 0.0
H87 H 0.23915 0.03602 0.96169 0.0
H88 H 0.25512 0.9836 0.60082 0.0
H89 H 0.23064 0.02902 0.62508 0.0
H90 H 0.28202 0.0263 0.62649 0.0
C91 C 0.50667 0.25099 0.26845 0.0
N92 N 0.52531 0.28594 0.28171 0.0
N93 N 0.50746 0.23012 0.39684 0.0
C94 C 0.48985 0.23635 0.12928 0.0
C95 C 0.5243 0.25513 0.48746 0.0
N96 N 0.54085 0.28469 0.41486 0.0
C97 C 0.50983 0.25868 0.64181 0.0
H98 H 0.46586 0.21633 0.15042 0.0
H99 H 0.51221 0.22012 0.06906 0.0
H100 H 0.47993 0.26036 0.05981 0.0
H101 H 0.51803 0.23323 0.70709 0.0
H102 H 0.47801 0.2595 0.64124 0.0
H103 H 0.52033 0.28518 0.69332 0.0
Gd104 Gd 0.04872 1.01419 0.89198 0.0
Gd105 Gd 0.99221 0.02733 0.73268 0.0
C106 C 1.01778 0.9421 0.68603 0.0
C107 C 0.10443 0.98822 0.05091 0.0
C108 C 0.13074 0.95551 0.0377 0.0
C109 C 0.16358 0.9534 0.12447 0.0
C110 C 0.11818 0.92225 0.96826 0.0
C111 C 0.15475 0.88498 0.13593 0.0
C112 C 0.13317 0.88685 0.00752 0.0
C113 C 0.17579 0.91736 0.17406 0.0
C114 C 0.07811 0.04156 0.62955 0.0
C115 C 0.02282 0.09981 0.93663 0.0
C116 C 0.93491 0.052 0.58106 0.0
C117 C 0.90707 0.08282 0.60503 0.0
C118 C 0.87343 0.08426 0.52288 0.0
C119 C 0.91844 0.11573 0.67989 0.0
C120 C 0.8808 0.15269 0.51646 0.0
C121 C 0.9022 0.15085 0.64503 0.0
C122 C 0.85961 0.12021 0.47915 0.0
C123 C 0.9631 0.99986 0.99366 0.0
O124 O 0.03444 0.95157 0.81135 0.0
O125 O 1.00255 0.97082 0.61395 0.0
O126 O 0.10879 1.0156 0.95661 0.0
O127 O 0.06836 0.97959 0.07243 0.0
O128 O 0.08327 0.05649 0.75639 0.0
O129 O 0.05198 1.01611 0.64568 0.0
O130 O 1.00563 0.09013 0.81266 0.0
O131 O 0.03914 0.07142 0.00724 0.0
O132 O 0.93239 0.023 0.66891 0.0
O133 O 0.97037 0.0629 0.55888 0.0
O134 O 0.95851 0.9844 0.86766 0.0
O135 O 0.98884 0.02568 0.97802 0.0
H136 H 0.17593 0.9791 0.16887 0.0
H137 H 0.09249 0.9228 0.90544 0.0
H138 H 0.11834 0.86155 0.96913 0.0
H139 H 0.19643 0.91492 0.26025 0.0
H140 H 0.86211 0.05851 0.47501 0.0
H141 H 0.9439 0.11551 0.74406 0.0
H142 H 0.91629 0.17633 0.68567 0.0
H143 H 0.8383 0.12241 0.39484 0.0
Gd144 Gd 0.52865 0.04015 0.91109 0.0
Gd145 Gd 0.51786 0.98886 0.74603 0.0
C146 C 0.60367 1.01535 0.70373 0.0
C147 C 0.55221 0.09378 0.08335 0.0
C148 C 0.58256 0.12251 0.06727 0.0
C149 C 0.58708 0.15037 0.17436 0.0
C150 C 0.61325 0.11543 0.97226 0.0
C151 C 0.65505 0.14195 0.14756 0.0
C152 C 0.64954 0.12861 1.00578 0.0
C153 C 0.62441 0.16045 0.2158 0.0
C154 C 0.49989 0.07555 0.66153 0.0
C155 C 0.44253 1.01633 0.93723 0.0
C156 C 0.50101 0.9321 0.57564 0.0
C157 C 0.4728 0.91249 0.48675 0.0
C158 C 0.45133 0.88237 0.54862 0.0
C159 C 0.46209 0.92781 0.3519 0.0
C160 C 0.3998 0.90096 0.39313 0.0
C161 C 0.42553 0.92047 0.30117 0.0
C162 C 0.41388 0.87673 0.50174 0.0
C163 C 0.5489 0.95434 0.991 0.0
O164 O 0.59263 0.03247 0.82648 0.0
O165 O 0.57634 0.99688 0.63651 0.0
O166 O 0.52298 0.09771 0.99844 0.0
O167 O 0.56393 0.05835 0.09112 0.0
O168 O 0.48567 0.07759 0.7911 0.0
O169 O 0.52583 0.04974 0.66687 0.0
O170 O 0.45359 1.00409 0.80574 0.0
O171 O 0.47094 0.02726 0.02087 0.0
O172 O 0.49439 0.93248 0.71508 0.0
O173 O 0.51453 0.96471 0.52935 0.0
O174 O 0.56507 0.95673 0.86511 0.0
O175 O 0.52131 0.97846 0.98911 0.0
H176 H 0.56269 0.15876 0.23851 0.0
H177 H 0.61101 0.09469 0.88829 0.0
H178 H 0.67345 0.11707 0.94383 0.0
H179 H 0.62956 0.17546 0.31599 0.0
H180 H 0.4606 0.86835 0.64782 0.0
H181 H 0.47945 0.94916 0.29655 0.0
H182 H 0.41506 0.93765 0.21141 0.0
H183 H 0.39444 0.86004 0.56911 0.0
Gd184 Gd 0.49387 0.53251 0.97728 0.0
Gd185 Gd 0.54054 0.51491 0.77396 0.0
C186 C 0.51978 0.60327 0.75502 0.0
C187 C 0.45811 0.55873 0.20463 0.0
C188 C 0.43469 0.59102 0.2524 0.0
C189 C 0.40257 0.60338 0.17365 0.0
C190 C 0.44626 0.61111 0.37603 0.0
C191 C 0.3988 0.66007 0.32554 0.0
C192 C 0.42861 0.64537 0.41228 0.0
C193 C 0.38447 0.63761 0.21107 0.0
C194 C 0.45007 0.51348 0.7348 0.0
C195 C 0.51566 0.44308 0.99758 0.0
C196 C 0.5767 0.48967 0.54808 0.0
C197 C 0.60178 0.45822 0.5086 0.0
C198 C 0.63201 0.44634 0.59779 0.0
C199 C 0.59164 0.43668 0.38761 0.0
C200 C 0.63452 0.38629 0.46597 0.0
C201 C 0.60662 0.40046 0.36918 0.0
C202 C 0.64929 0.41094 0.57302 0.0
C203 C 0.58446 0.5345 0.01334 0.0
O204 O 0.50781 0.59481 0.88995 0.0
O205 O 0.52944 0.57367 0.67534 0.0
O206 O 0.44287 0.53506 0.11228 0.0
O207 O 0.49394 0.56642 0.17453 0.0
O208 O 0.4451 0.50047 0.86549 0.0
O209 O 0.47985 0.53463 0.73766 0.0
O210 O 0.53332 0.4527 0.87282 0.0
O211 O 0.49807 0.47143 0.06342 0.0
O212 O 0.59066 0.51578 0.63402 0.0
O213 O 0.54169 0.47947 0.58249 0.0
O214 O 0.58839 0.54848 0.88334 0.0
O215 O 0.55475 0.51308 0.01297 0.0
H216 H 0.39267 0.58774 0.07925 0.0
H217 H 0.47055 0.60151 0.43953 0.0
H218 H 0.44074 0.66197 0.50012 0.0
H219 H 0.36109 0.64775 0.14446 0.0
H220 H 0.64119 0.46348 0.68945 0.0
H221 H 0.57032 0.44697 0.3124 0.0
H222 H 0.59469 0.38307 0.28308 0.0
H223 H 0.67288 0.40267 0.64146 0.0
Gd224 Gd 1.01951 0.49735 0.93678 0.0
Gd225 Gd 0.02965 0.5406 0.71673 0.0
C226 C 0.94286 0.51268 0.7307 0.0
C227 C 1.00788 0.45955 0.17632 0.0
C228 C 0.98547 0.42859 0.2394 0.0
C229 C 0.97456 0.39682 0.1554 0.0
C230 C 0.96561 0.43716 0.36763 0.0
C231 C 0.91403 0.39809 0.28175 0.0
C232 C 0.93002 0.42083 0.39137 0.0
C233 C 0.93823 0.3809 0.17832 0.0
C234 C 0.03987 0.45121 0.69898 0.0
C235 C 0.10498 0.52694 0.93163 0.0
C236 C 0.04513 0.5755 0.4722 0.0
C237 C 0.06496 0.60874 0.41005 0.0
C238 C 0.06881 0.643 0.48833 0.0
C239 C 0.08513 0.6046 0.27893 0.0
C240 C 0.12783 0.65396 0.35979 0.0
C241 C 0.11516 0.6297 0.24822 0.0
C242 C 0.10025 0.66674 0.45997 0.0
C243 C 1.00672 0.58722 0.95023 0.0
O244 O 0.95453 0.50401 0.86566 0.0
O245 O 0.97027 0.5225 0.63923 0.0
O246 O 0.03376 0.45031 0.08028 0.0
O247 O 0.98835 0.48996 0.13899 0.0
O248 O 0.05633 0.45167 0.82434 0.0
O249 O 1.01524 0.478 0.70204 0.0
O250 O 0.09425 0.53426 0.79457 0.0
O251 O 0.07714 0.51745 0.02071 0.0
O252 O 1.01582 0.5828 0.55518 0.0
O253 O 0.06638 0.54798 0.52485 0.0
O254 O 0.99344 0.58784 0.81951 0.0
O255 O 0.03167 0.56057 0.95289 0.0
H256 H 0.99052 0.38897 0.05835 0.0
H257 H 0.9745 0.46071 0.43632 0.0
H258 H 0.91202 0.43287 0.47598 0.0
H259 H 0.92652 0.36213 0.09599 0.0
H260 H 0.05101 0.64873 0.58175 0.0
H261 H 0.08085 0.57979 0.21039 0.0
H262 H 0.13446 0.62237 0.16079 0.0
H263 H 0.10771 0.68784 0.54104 0.0
C264 C 0.1723 1.00241 0.45846 0.0
C265 C 0.18779 0.03443 0.37852 0.0
C266 C 0.12602 0.06803 0.43593 0.0
C267 C 0.11337 0.03751 0.52893 0.0
N268 N 0.13154 0.97973 0.65385 0.0
N269 N 0.17986 0.10084 0.31723 0.0
C270 C 0.13835 1.00582 0.54573 0.0
C271 C 0.16444 0.068 0.37281 0.0
N272 N 0.19023 0.96787 0.45325 0.0
N273 N 0.10134 0.09742 0.40879 0.0
H274 H 0.20804 0.10221 0.27915 0.0
H275 H 0.16614 0.12727 0.32144 0.0
H276 H 0.07384 0.09837 0.45431 0.0
H277 H 0.10686 0.11886 0.33252 0.0
H278 H 0.17813 0.94269 0.49398 0.0
H279 H 0.21538 0.9635 0.39568 0.0
H280 H 0.15191 0.95992 0.68837 0.0
H281 H 0.10698 0.97974 0.71843 0.0
C282 C 0.47116 0.1669 0.43699 0.0
C283 C 0.50588 0.18858 0.43419 0.0
C284 C 0.53505 0.13707 0.58575 0.0
C285 C 0.50268 0.11279 0.57106 0.0
N286 N 0.44011 0.10445 0.46714 0.0
N287 N 0.57346 0.18828 0.48698 0.0
C288 C 0.4709 0.12765 0.49068 0.0
C289 C 0.5384 0.17152 0.5026 0.0
N290 N 0.43779 0.18462 0.40041 0.0
N291 N 0.56192 0.12888 0.68789 0.0
H292 H 0.57823 0.21101 0.41555 0.0
H293 H 0.59852 0.17686 0.53016 0.0
H294 H 0.56064 0.10442 0.75175 0.0
H295 H 0.58286 0.14833 0.72004 0.0
H296 H 0.41096 0.17181 0.41205 0.0
H297 H 0.43692 0.21356 0.37244 0.0
H298 H 0.41752 0.11199 0.39919 0.0
H299 H 0.43896 0.0764 0.50637 0.0
C300 C 0.364 0.48891 0.47783 0.0
C301 C 0.34691 0.52534 0.45118 0.0
C302 C 0.39661 0.55376 0.61568 0.0
C303 C 0.41595 0.51809 0.62965 0.0
N304 N 0.42027 0.45242 0.55309 0.0
N305 N 0.35227 0.5934 0.47872 0.0
C306 C 0.40031 0.48599 0.55357 0.0
C307 C 0.36543 0.55794 0.51426 0.0
N308 N 0.34426 0.45669 0.44109 0.0
N309 N 0.40696 0.58348 0.7039 0.0
H310 H 0.33332 0.59759 0.39318 0.0
H311 H 0.36122 0.61866 0.5269 0.0
H312 H 0.42865 0.5814 0.78096 0.0
H313 H 0.39196 0.6091 0.71194 0.0
H314 H 0.35297 0.42922 0.47009 0.0
H315 H 0.3172 0.45773 0.39387 0.0
H316 H 0.41291 0.42916 0.48815 0.0
H317 H 0.44615 0.44912 0.60826 0.0
C318 C 0.06428 0.36152 0.45755 0.0
C319 C 0.02853 0.3415 0.45192 0.0
C320 C 1.00294 0.39052 0.62585 0.0
C321 C 0.03614 0.41376 0.61148 0.0
N322 N 0.09783 0.42207 0.49654 0.0
N323 N 0.96087 0.34553 0.50838 0.0
C324 C 0.06653 0.39948 0.52139 0.0
C325 C 0.99712 0.35868 0.52978 0.0
N326 N 0.09683 0.34336 0.41279 0.0
N327 N 0.97696 0.39806 0.73395 0.0
H328 H 0.95466 0.32653 0.4255 0.0
H329 H 0.93666 0.35673 0.55982 0.0
H330 H 0.98036 0.42038 0.80796 0.0
H331 H 0.9544 0.37964 0.76003 0.0
H332 H 0.12414 0.35493 0.42547 0.0
H333 H 0.09674 0.31494 0.37865 0.0
H334 H 0.11914 0.41517 0.42092 0.0
H335 H 0.10069 0.44916 0.54301 0.0
C336 C 0.87787 0.96902 0.246 0.0
C337 C 0.85388 1.00192 0.24408 0.0
C338 C 0.90237 0.03406 0.08579 0.0
C339 C 0.92791 1.00247 0.09493 0.0
N340 N 0.94145 0.94144 0.20289 0.0
N341 N 0.84952 0.06888 0.19328 0.0
C342 C 0.91606 0.97051 0.18181 0.0
C343 C 0.86853 0.03535 0.17454 0.0
N344 N 0.86351 0.93584 0.30271 0.0
N345 N 0.90851 0.06181 0.98365 0.0
H346 H 0.82602 0.07055 0.26357 0.0
H347 H 0.8592 0.09513 0.1533 0.0
H348 H 0.93203 0.0617 0.91365 0.0
H349 H 0.88838 0.08281 0.95883 0.0
H350 H 0.87748 0.9096 0.29518 0.0
H351 H 0.83621 0.93446 0.34973 0.0
H352 H 0.93639 0.91909 0.27493 0.0
H353 H 0.96899 0.94159 0.15753 0.0
C354 C 0.54832 0.84577 0.10812 0.0
C355 C 0.54959 0.8475 0.2622 0.0
C356 C 0.5602 0.91816 0.23668 0.0
C357 C 0.55119 0.91707 0.08439 0.0
N358 N 0.54561 0.87511 0.87238 0.0
N359 N 0.56567 0.88419 0.47166 0.0
C360 C 0.54812 0.87962 0.01986 0.0
C361 C 0.55857 0.8835 0.32572 0.0
N362 N 0.54798 0.81118 0.04079 0.0
N363 N 0.57152 0.95225 0.29475 0.0
H364 H 0.56324 0.85968 0.53621 0.0
H365 H 0.57419 0.90829 0.52908 0.0
H366 H 0.57234 0.97755 0.23414 0.0
H367 H 0.58234 0.95536 0.39918 0.0
H368 H 0.55087 0.78533 0.09669 0.0
H369 H 0.55087 0.78533 0.09669 0.0
H370 H 0.54151 0.84849 0.82338 0.0
H371 H 0.54924 0.89687 0.79711 0.0
C372 C 0.67492 0.5597 0.24655 0.0
C373 C 0.68979 0.52307 0.28473 0.0
C374 C 0.63652 0.49382 0.14109 0.0
C375 C 0.61937 0.53022 0.11506 0.0
N376 N 0.6205 0.59787 0.16416 0.0
N377 N 0.6798 0.45549 0.28924 0.0
C378 C 0.63806 0.5631 0.17505 0.0
C379 C 0.66825 0.4904 0.24022 0.0
N380 N 0.69709 0.59125 0.26938 0.0
N381 N 0.62407 0.46266 0.06493 0.0
H382 H 0.69905 0.45305 0.37499 0.0
H383 H 0.6695 0.42952 0.25167 0.0
H384 H 0.6028 0.46416 0.98618 0.0
H385 H 0.63724 0.43599 0.06764 0.0
H386 H 0.69019 0.61838 0.23048 0.0
H387 H 0.72406 0.58954 0.31719 0.0
H388 H 0.63048 0.62235 0.21619 0.0
H389 H 0.59411 0.60145 0.11294 0.0
C390 C 1.00931 0.69425 0.06243 0.0
C391 C 1.00322 0.69417 0.21578 0.0
C392 C 0.98979 0.62392 0.19102 0.0
C393 C 1.00594 0.62345 0.04703 0.0
N394 N 0.03888 0.66009 0.86281 0.0
N395 N 0.9837 0.65739 0.42492 0.0
C396 C 1.01733 0.6593 0.98703 0.0
C397 C 0.99174 0.65851 0.27962 0.0
N398 N 1.00881 0.72822 0.98914 0.0
N399 N 0.97321 0.59124 0.24345 0.0
H400 H 0.99086 0.67983 0.49364 0.0
H401 H 0.97215 0.63393 0.47917 0.0
H402 H 0.97251 0.56601 0.18295 0.0
H403 H 0.9582 0.58957 0.34161 0.0
H404 H 1.0108 0.72997 0.87578 0.0
H405 H 1.00266 0.75396 0.04214 0.0
H406 H 0.05054 0.68527 0.82008 0.0
H407 H 0.04939 0.63503 0.81589 0.0
C408 C 0.92896 0.23511 0.34429 0.0
C409 C 0.96625 0.21913 0.35973 0.0
C410 C 0.93758 0.1565 0.35717 0.0
C411 C 0.90177 0.17281 0.39806 0.0
N412 N 0.86202 0.22856 0.41331 0.0
N413 N 1.00561 0.16342 0.39353 0.0
C414 C 0.89678 0.21254 0.38354 0.0
C415 C 0.97059 0.1793 0.36894 0.0
N416 N 0.9244 0.27082 0.28768 0.0
N417 N 0.94008 0.11945 0.31313 0.0
H418 H 0.02996 0.18016 0.41058 0.0
H419 H 1.0093 0.13412 0.41022 0.0
H420 H 0.91573 0.10317 0.29344 0.0
H421 H 0.96579 0.1072 0.27797 0.0
H422 H 0.89759 0.28255 0.26577 0.0
H423 H 0.94754 0.28639 0.24625 0.0
H424 H 0.85782 0.25807 0.41876 0.0
H425 H 0.83803 0.2117 0.43742 0.0
C426 C 0.30621 0.94429 0.31069 0.0
C427 C 0.31391 0.98159 0.36619 0.0
C428 C 0.36797 0.9572 0.49867 0.0
C429 C 0.36439 0.92198 0.42235 0.0
N430 N 0.32795 0.87982 0.27067 0.0
N431 N 0.3536 0.02493 0.49923 0.0
C432 C 0.33253 0.91472 0.33474 0.0
C433 C 0.34507 0.98838 0.45757 0.0
N434 N 0.27484 0.93637 0.22923 0.0
N435 N 0.39346 0.96089 0.60932 0.0
H436 H 0.33651 0.04828 0.47139 0.0
H437 H 0.37894 0.03258 0.55107 0.0
H438 H 0.40888 0.93802 0.65086 0.0
H439 H 0.39521 0.98544 0.67238 0.0
H440 H 0.25417 0.95652 0.2013 0.0
H441 H 0.25417 0.95652 0.2013 0.0
H442 H 0.30506 0.87368 0.2017 0.0
H443 H 0.34681 0.85717 0.28968 0.0
C444 C 0.60755 0.29832 0.3205 0.0
C445 C 0.58154 0.29329 0.43836 0.0
C446 C 0.6269 0.32531 0.59626 0.0
C447 C 0.64076 0.34439 0.47042 0.0
N448 N 0.66028 0.3351 0.22157 0.0
N449 N 0.59475 0.26863 0.67971 0.0
C450 C 0.63759 0.32494 0.33637 0.0
C451 C 0.59822 0.29705 0.57874 0.0
N452 N 0.607 0.27526 0.20208 0.0
N453 N 0.64127 0.33366 0.73007 0.0
H454 H 0.5816 0.2428 0.65682 0.0
H455 H 0.61059 0.26784 0.77562 0.0
H456 H 0.66693 0.34851 0.74224 0.0
H457 H 0.62848 0.32442 0.82698 0.0
H458 H 0.58914 0.25135 0.19563 0.0
H459 H 0.58914 0.25135 0.19563 0.0
H460 H 0.65719 0.32285 0.11855 0.0
H461 H 0.68178 0.35571 0.23329 0.0
C462 C 0.22758 0.62251 0.32059 0.0
C463 C 0.22139 0.5852 0.37889 0.0
C464 C 0.1648 0.60802 0.50297 0.0
C465 C 0.16557 0.64181 0.41676 0.0
N466 N 0.20091 0.68415 0.25989 0.0
N467 N 0.18277 0.54111 0.51601 0.0
C468 C 0.19835 0.65018 0.33257 0.0
C469 C 0.18938 0.5775 0.46704 0.0
N470 N 0.26057 0.6321 0.24988 0.0
N471 N 0.14019 0.60508 0.61751 0.0
H472 H 0.20166 0.51864 0.49492 0.0
H473 H 0.15743 0.53252 0.56716 0.0
H474 H 0.12778 0.62903 0.66588 0.0
H475 H 0.13623 0.57985 0.67455 0.0
H476 H 0.28351 0.61333 0.23587 0.0
H477 H 0.28351 0.61333 0.23587 0.0
H478 H 0.22424 0.69103 0.19281 0.0
H479 H 0.17967 0.70507 0.26987 0.0
C480 C 0.07018 0.84396 0.2781 0.0
C481 C 0.08147 0.80789 0.33077 0.0
C482 C 0.14848 0.8273 0.30121 0.0
C483 C 0.13557 0.8636 0.25561 0.0
N484 N 0.08568 0.91055 0.29567 0.0
N485 N 0.13194 0.7709 0.44309 0.0
C486 C 0.09691 0.87349 0.28144 0.0
C487 C 0.121 0.80127 0.36022 0.0
N488 N 0.03553 0.84936 0.21406 0.0
N489 N 0.18597 0.81743 0.28386 0.0
H490 H 0.11186 0.75203 0.48741 0.0
H491 H 0.16026 0.76639 0.47449 0.0
H492 H 0.20625 0.83695 0.2443 0.0
H493 H 0.19604 0.78982 0.30378 0.0
H494 H 0.02762 0.87564 0.16895 0.0
H495 H 1.01734 0.82647 0.19132 0.0
H496 H 0.05705 0.91795 0.3139 0.0
H497 H 0.10566 0.93243 0.30912 0.0
C498 C 0.68704 0.04634 0.23337 0.0
C499 C 0.72655 0.05114 0.20895 0.0
C500 C 0.71864 0.12093 0.21415 0.0
C501 C 0.67929 0.11601 0.23445 0.0
N502 N 0.62826 0.075 0.32076 0.0
N503 N 0.77397 0.09394 0.1016 0.0
C504 C 0.66409 0.07885 0.26208 0.0
C505 C 0.74133 0.08869 0.1811 0.0
N506 N 0.67187 1.01041 0.22747 0.0
N507 N 0.73366 0.15697 0.21801 0.0
H508 H 0.78736 0.072 0.04596 0.0
H509 H 0.78421 0.12077 0.0702 0.0
H510 H 0.71635 0.18077 0.23895 0.0
H511 H 0.76306 0.16239 0.2161 0.0
H512 H 0.6426 1.00468 0.23334 0.0
H513 H 0.68898 0.98671 0.20312 0.0
H514 H 0.6161 0.04878 0.34915 0.0
H515 H 0.61302 0.09839 0.36047 0.0
C516 C 0.42335 0.74827 0.48538 0.0
C517 C 0.45489 0.74983 0.38657 0.0
C518 C 0.41488 0.71831 0.21025 0.0
C519 C 0.39348 0.70198 0.32368 0.0
N520 N 0.36806 0.71169 0.56437 0.0
N521 N 0.48052 0.73109 0.15231 0.0
C522 C 0.39395 0.7212 0.45907 0.0
C523 C 0.45052 0.7338 0.24658 0.0
N524 N 0.42041 0.77207 0.60143 0.0
N525 N 0.40284 0.71642 0.07007 0.0
H526 H 0.50778 0.74056 0.17905 0.0
H527 H 0.47869 0.71459 0.05827 0.0
H528 H 0.37608 0.70509 0.04371 0.0
H529 H 0.41753 0.73069 0.98679 0.0
H530 H 0.43981 0.79426 0.62003 0.0
H531 H 0.43981 0.79426 0.62003 0.0
H532 H 0.36856 0.7241 0.66783 0.0
H533 H 0.34675 0.69133 0.54483 0.0
C534 C 0.84625 0.47384 0.20906 0.0
C535 C 0.81608 0.46136 0.2987 0.0
C536 C 0.8441 0.39769 0.31865 0.0
C537 C 0.8758 0.41102 0.23819 0.0
N538 N 0.90083 0.45652 0.06333 0.0
N539 N 0.78143 0.40875 0.4126 0.0
C540 C 0.87443 0.44723 0.1672 0.0
C541 C 0.81306 0.42251 0.34302 0.0
N542 N 0.84827 0.51143 0.16789 0.0
N543 N 0.84432 0.36177 0.37696 0.0
H544 H 0.75725 0.42529 0.4349 0.0
H545 H 0.75725 0.42529 0.4349 0.0
H546 H 0.86703 0.34288 0.35869 0.0
H547 H 0.82176 0.35126 0.44095 0.0
H548 H 0.87234 0.524 0.12008 0.0
H549 H 0.82638 0.53091 0.19009 0.0
H550 H 0.89949 0.48174 1.00384 0.0
H551 H 0.92082 0.43718 0.02338 0.0
C552 C 0.99429 0.20591 0.04105 0.0
C553 C 0.02582 0.21937 0.12358 0.0
C554 C 0.05913 0.15836 0.05245 0.0
C555 C 0.0245 0.14196 0.99587 0.0
N556 N 0.95614 0.15034 0.98445 0.0
N557 N 0.08872 0.20557 0.21339 0.0
C558 C 0.99142 0.16616 1.00045 0.0
C559 C 0.05857 0.19485 0.12896 0.0
N560 N 0.9661 0.23107 1.0055 0.0
N561 N 0.09301 0.13967 0.03066 0.0
H562 H 0.08945 0.23189 0.26672 0.0
H563 H 0.11164 0.18758 0.23726 0.0
H564 H 0.09494 0.11412 0.97272 0.0
H565 H 0.11952 0.15139 0.05726 0.0
H566 H 0.94325 0.22378 0.9382 0.0
H567 H 0.96861 0.26012 0.02989 0.0
H568 H 0.93074 0.16567 0.99816 0.0
H569 H 0.95274 0.12085 0.98092 0.0
C570 C 0.33151 0.99698 0.01002 0.0
C571 C 0.31942 0.02864 0.09698 0.0
C572 C 0.38568 0.05559 0.0546 0.0
C573 C 0.39943 0.02095 0.9878 0.0
N574 N 0.38399 0.95514 0.93704 0.0
N575 N 0.33786 0.08762 0.20836 0.0
C576 C 0.37173 0.99085 0.97421 0.0
C577 C 0.34751 0.05777 0.11995 0.0
N578 N 0.30426 0.97302 0.95672 0.0
N579 N 0.40857 0.0873 0.05209 0.0
H580 H 0.31014 0.09101 0.24996 0.0
H581 H 0.35756 0.10754 0.24668 0.0
H582 H 0.43562 0.08762 1.00347 0.0
H583 H 0.39938 0.11427 0.08526 0.0
H584 H 0.31043 0.95112 0.88327 0.0
H585 H 0.27515 0.97849 0.97248 0.0
H586 H 0.36611 0.93122 0.93985 0.0
H587 H 0.41282 0.94895 0.91747 0.0
C588 C 0.50259 0.35509 0.27568 0.0
C589 C 0.51911 0.32327 0.20154 0.0
C590 C 0.52549 0.36771 0.9847 0.0
C591 C 0.51594 0.40132 0.06786 0.0
N592 N 0.50057 0.4233 0.31516 0.0
N593 N 0.54865 0.30202 0.97895 0.0
C594 C 0.50576 0.39387 0.21914 0.0
C595 C 0.53131 0.33053 0.05466 0.0
N596 N 0.48196 0.34819 0.40004 0.0
N597 N 0.52632 0.37009 0.83601 0.0
H598 H 0.55002 0.27405 0.01653 0.0
H599 H 0.56365 0.30725 0.88301 0.0
H600 H 0.51721 0.39405 0.77857 0.0
H601 H 0.53077 0.34673 0.76805 0.0
H602 H 0.46535 0.36896 0.4518 0.0
H603 H 0.47726 0.32063 0.44006 0.0
H604 H 0.49779 0.41895 0.42717 0.0
H605 H 0.50451 0.45202 0.2915 0.0
C606 C 0.21138 0.55757 0.0324 0.0
C607 C 0.22298 0.52879 0.13312 0.0
C608 C 0.16167 0.49485 0.07158 0.0
C609 C 0.14727 0.52689 0.99005 0.0
N610 N 0.15808 0.59305 0.92978 0.0
N611 N 0.20595 0.47047 0.2555 0.0
C612 C 0.17235 0.55922 0.97886 0.0
C613 C 0.19716 0.49749 0.15356 0.0
N614 N 0.23804 0.58335 0.9857 0.0
N615 N 0.14194 0.4611 0.06808 0.0
H616 H 0.23186 0.4707 0.31167 0.0
H617 H 0.1867 0.44956 0.29085 0.0
H618 H 0.11712 0.45748 1.00703 0.0
H619 H 0.15223 0.43574 0.11297 0.0
H620 H 0.23265 0.60352 0.90447 0.0
H621 H 0.26672 0.58094 0.01618 0.0
H622 H 0.17389 0.61838 0.92872 0.0
H623 H 0.12891 0.59662 0.90914 0.0
C624 C 0.04147 0.83369 0.61244 0.0
C625 C 1.01233 0.82055 0.51642 0.0
C626 C 0.98153 0.88467 0.55944 0.0
C627 C 1.01522 0.89986 0.62823 0.0
N628 N 0.08246 0.88559 0.66616 0.0
N629 N 0.9567 0.83987 0.3792 0.0
C630 C 0.04623 0.87344 0.64186 0.0
C631 C 0.98255 0.84771 0.48581 0.0
N632 N 0.06751 0.80896 0.6687 0.0
N633 N 0.94811 0.90481 0.56624 0.0
H634 H 0.95904 0.81602 0.31197 0.0
H635 H 0.93495 0.85853 0.34899 0.0
H636 H 0.94561 0.93065 0.62195 0.0
H637 H 0.92208 0.89367 0.53072 0.0
H638 H 0.06534 0.77935 0.65607 0.0
H639 H 0.06534 0.77935 0.65607 0.0
H640 H 0.09007 0.9144 0.66258 0.0
H641 H 0.09007 0.9144 0.66258 0.0
C642 C 0.70083 0.97862 0.52616 0.0
C643 C 0.72313 1.01261 0.50774 0.0
C644 C 0.66853 0.04842 0.62208 0.0
C645 C 0.64612 1.01442 0.64428 0.0
N646 N 0.64722 0.94538 0.6426 0.0
N647 N 0.72795 0.07996 0.55949 0.0
C648 C 0.66425 0.97907 0.6033 0.0
C649 C 0.70731 0.04698 0.56579 0.0
N650 N 0.71375 0.94581 0.46221 0.0
N651 N 0.65195 0.08318 0.64286 0.0
H652 H 0.75602 0.0813 0.51934 0.0
H653 H 0.75602 0.0813 0.51934 0.0
H654 H 0.62251 0.08583 0.65694 0.0
H655 H 0.66683 0.10891 0.62954 0.0
H656 H 0.6972 0.92115 0.45212 0.0
H657 H 0.74035 0.94422 0.40988 0.0
H658 H 0.66026 0.91878 0.63061 0.0
H659 H 0.62154 0.94414 0.70064 0.0
C660 C 0.54669 0.68896 0.48954 0.0
C661 C 0.52524 0.7206 0.54404 0.0
C662 C 0.49776 0.67553 0.73029 0.0
C663 C 0.52259 0.64476 0.68827 0.0
N664 N 0.57985 0.62982 0.54793 0.0
N665 N 0.49035 0.74476 0.74823 0.0
C666 C 0.54959 0.6537 0.57318 0.0
C667 C 0.5038 0.71388 0.67398 0.0
N668 N 0.56372 0.69178 0.3559 0.0
N669 N 0.46665 0.66837 0.81651 0.0
H670 H 0.49826 0.77258 0.71888 0.0
H671 H 0.47466 0.7427 0.84448 0.0
H672 H 0.45982 0.64138 0.85702 0.0
H673 H 0.44506 0.68857 0.83088 0.0
H674 H 0.57624 0.66845 0.30342 0.0
H675 H 0.56211 0.7165 0.2926 0.0
H676 H 0.60175 0.63634 0.47411 0.0
H677 H 0.58607 0.60649 0.61457 0.0
C678 C 0.83491 0.48369 0.64388 0.0
C679 C 0.82139 0.51418 0.554 0.0
C680 C 0.88455 0.54655 0.60382 0.0
C681 C 0.89984 0.51362 0.6781 0.0
N682 N 0.88758 0.44808 0.74686 0.0
N683 N 0.83669 0.57405 0.43975 0.0
C684 C 0.87424 0.48172 0.69243 0.0
C685 C 0.84724 0.54549 0.53275 0.0
N686 N 0.81045 0.45545 0.68584 0.0
N687 N 0.90509 0.57983 0.60546 0.0
H688 H 0.80961 0.57502 0.39235 0.0
H689 H 0.85542 0.59517 0.40226 0.0
H690 H 0.93129 0.58237 0.65831 0.0
H691 H 0.89457 0.60584 0.56732 0.0
H692 H 0.78118 0.45604 0.6627 0.0
H693 H 0.78118 0.45604 0.6627 0.0
H694 H 0.87031 0.42379 0.75792 0.0
H695 H 0.91637 0.44422 0.77181 0.0
loop_
_geom_bond_atom_site_label_1
_geom_bond_atom_site_label_2
_geom_bond_distance
_geom_bond_site_symmetry_2
_ccdc_geom_bond_type
C0 N1 1.317 . S
C0 N2 1.348 . S
C0 C3 1.485 . S
N1 C0 1.317 . S
N1 N5 1.370 . S
N2 C0 1.348 . S
N2 C4 1.346 . S
C3 C0 1.485 . S
C3 H7 0.960 . S
C3 H8 0.961 . S
C3 H9 0.960 . S
C4 N2 1.346 . S
C4 N5 1.307 . S
C4 C6 1.486 . S
N5 N1 1.370 . S
N5 C4 1.307 . S
C6 C4 1.486 . S
C6 H10 0.960 . S
C6 H11 0.960 . S
C6 H12 0.959 . S
H7 C3 0.960 . S
H8 C3 0.961 . S
H9 C3 0.960 . S
H10 C6 0.960 . S
H11 C6 0.960 . S
H12 C6 0.959 . S
C13 N14 1.317 . S
C13 N15 1.348 . S
C13 C16 1.485 . S
N14 C13 1.317 . S
N14 N18 1.371 . S
N15 C13 1.348 . S
N15 C17 1.346 1_655 S
C16 C13 1.485 . S
C16 H20 0.960 1_655 S
C16 H21 0.961 . S
C16 H22 0.960 . S
C17 N15 1.346 1_455 S
C17 N18 1.307 1_455 S
C17 C19 1.486 . S
N18 N14 1.371 . S
N18 C17 1.307 1_655 S
C19 C17 1.486 . S
C19 H23 0.960 1_455 S
C19 H24 0.960 . S
C19 H25 0.959 . S
H20 C16 0.960 1_455 S
H21 C16 0.961 . S
H22 C16 0.960 . S
H23 C19 0.960 1_655 S
H24 C19 0.960 . S
H25 C19 0.959 . S
C26 N27 1.317 . S
C26 N28 1.348 . S
C26 C29 1.485 . S
N27 C26 1.317 . S
N27 N31 1.371 . S
N28 C26 1.348 . S
N28 C30 1.346 1_565 S
C29 C26 1.485 . S
C29 H33 0.960 1_565 S
C29 H34 0.961 . S
C29 H35 0.960 . S
C30 N28 1.346 1_545 S
C30 N31 1.307 1_545 S
C30 C32 1.486 . S
N31 N27 1.371 . S
N31 C30 1.307 1_565 S
C32 C30 1.486 . S
C32 H36 0.960 1_545 S
C32 H37 0.960 . S
C32 H38 0.959 . S
H33 C29 0.960 1_545 S
H34 C29 0.961 . S
H35 C29 0.960 . S
H36 C32 0.960 1_565 S
H37 C32 0.960 . S
H38 C32 0.959 . S
C39 N40 1.317 . S
C39 N41 1.348 . S
C39 C42 1.485 . S
N40 C39 1.317 . S
N40 N44 1.370 . S
N41 C39 1.348 . S
N41 C43 1.346 . S
C42 C39 1.485 . S
C42 H46 0.960 . S
C42 H47 0.961 . S
C42 H48 0.960 . S
C43 N41 1.346 . S
C43 N44 1.307 . S
C43 C45 1.486 . S
N44 N40 1.370 . S
N44 C43 1.307 . S
C45 C43 1.486 . S
C45 H49 0.960 . S
C45 H50 0.960 . S
C45 H51 0.959 . S
H46 C42 0.960 . S
H47 C42 0.961 . S
H48 C42 0.960 . S
H49 C45 0.960 . S
H50 C45 0.960 . S
H51 C45 0.959 . S
C52 N53 1.317 . S
C52 N54 1.348 1_556 S
C52 C55 1.485 . S
N53 C52 1.317 . S
N53 N57 1.370 1_556 S
N54 C52 1.348 1_554 S
N54 C56 1.346 . S
C55 C52 1.485 . S
C55 H59 0.960 . S
C55 H60 0.961 . S
C55 H61 0.960 . S
C56 N54 1.346 . S
C56 N57 1.307 . S
C56 C58 1.486 . S
N57 N53 1.370 1_554 S
N57 C56 1.307 . S
C58 C56 1.486 . S
C58 H62 0.960 . S
C58 H63 0.960 . S
C58 H64 0.959 . S
H59 C55 0.960 . S
H60 C55 0.961 . S
H61 C55 0.960 . S
H62 C58 0.960 . S
H63 C58 0.960 . S
H64 C58 0.959 . S
C65 N66 1.317 . S
C65 N67 1.350 1_556 S
C65 C68 1.485 . S
N66 C65 1.317 . S
N66 N70 1.371 1_556 S
N67 C65 1.350 1_554 S
N67 C69 1.345 1_655 S
C68 C65 1.485 . S
C68 H72 0.960 1_655 S
C68 H73 0.961 . S
C68 H74 0.960 . S
C69 N67 1.345 1_455 S
C69 N70 1.307 1_455 S
C69 C71 1.486 . S
N70 N66 1.371 1_554 S
N70 C69 1.307 1_655 S
C71 C69 1.486 . S
C71 H75 0.960 1_455 S
C71 H76 0.960 . S
C71 H77 0.959 . S
H72 C68 0.960 1_455 S
H73 C68 0.961 . S
H74 C68 0.960 . S
H75 C71 0.960 1_655 S
H76 C71 0.960 . S
H77 C71 0.959 . S
C78 N79 1.317 . S
C78 N80 1.350 1_556 S
C78 C81 1.485 . S
N79 C78 1.317 . S
N79 N83 1.371 1_556 S
N80 C78 1.350 1_554 S
N80 C82 1.345 1_565 S
C81 C78 1.485 . S
C81 H85 0.960 1_565 S
C81 H86 0.961 . S
C81 H87 0.960 . S
C82 N80 1.345 1_545 S
C82 N83 1.307 1_545 S
C82 C84 1.487 . S
N83 N79 1.371 1_554 S
N83 C82 1.307 1_565 S
C84 C82 1.487 . S
C84 H88 0.960 1_545 S
C84 H89 0.960 . S
C84 H90 0.959 . S
H85 C81 0.960 1_545 S
H86 C81 0.961 . S
H87 C81 0.960 . S
H88 C84 0.960 1_565 S
H89 C84 0.960 . S
H90 C84 0.959 . S
C91 N92 1.317 . S
C91 N93 1.348 1_556 S
C91 C94 1.485 . S
N92 C91 1.317 . S
N92 N96 1.370 1_556 S
N93 C91 1.348 1_554 S
N93 C95 1.346 . S
C94 C91 1.485 . S
C94 H98 0.960 . S
C94 H99 0.961 . S
C94 H100 0.960 . S
C95 N93 1.346 . S
C95 N96 1.307 . S
C95 C97 1.486 . S
N96 N92 1.370 1_554 S
N96 C95 1.307 . S
C97 C95 1.486 . S
C97 H101 0.960 . S
C97 H102 0.960 . S
C97 H103 0.959 . S
H98 C94 0.960 . S
H99 C94 0.961 . S
H100 C94 0.960 . S
H101 C97 0.960 . S
H102 C97 0.960 . S
H103 C97 0.959 . S
Gd104 C107 2.818 1_556 S
Gd104 O124 2.377 . S
Gd104 O126 2.448 1_556 S
Gd104 O127 2.506 1_556 S
Gd104 O128 2.435 . S
Gd104 O129 2.717 1_565 S
Gd104 O131 2.395 1_565 S
Gd104 O135 2.327 1_455 S
Gd105 C116 2.818 . S
Gd105 O125 2.395 1_545 S
Gd105 O129 2.327 1_655 S
Gd105 O130 2.377 . S
Gd105 O132 2.448 . S
Gd105 O133 2.506 . S
Gd105 O134 2.435 . S
Gd105 O135 2.717 1_545 S
C106 O124 1.240 1_655 S
C106 O125 1.240 . S
C107 Gd104 2.818 1_554 S
C107 C108 1.510 . S
C107 O126 1.249 . S
C107 O127 1.252 . S
C108 C107 1.510 . S
C108 C109 1.404 . S
C108 C110 1.352 . S
C109 C108 1.404 . S
C109 C113 1.389 . S
C109 H136 0.930 . S
C110 C108 1.352 . S
C110 C112 1.374 . S
C110 H137 0.931 1_455 S
C111 C112 1.359 . S
C111 C113 1.364 . S
C112 C110 1.374 . S
C112 C111 1.359 . S
C112 H138 0.931 . S
C113 C109 1.389 . S
C113 C111 1.364 . S
C113 H139 0.931 . S
C114 O128 1.256 . S
C114 O129 1.257 1_565 S
C115 O130 1.240 1_455 S
C115 O131 1.240 . S
C116 Gd105 2.818 . S
C116 C117 1.510 . S
C116 O132 1.249 . S
C116 O133 1.252 . S
C117 C116 1.510 . S
C117 C118 1.404 . S
C117 C119 1.352 . S
C118 C117 1.404 . S
C118 C122 1.389 . S
C118 H140 0.930 . S
C119 C117 1.352 . S
C119 C121 1.374 . S
C119 H141 0.931 1_655 S
C120 C121 1.359 . S
C120 C122 1.364 . S
C121 C119 1.374 . S
C121 C120 1.359 . S
C121 H142 0.931 . S
C122 C118 1.389 . S
C122 C120 1.364 . S
C122 H143 0.931 . S
C123 O134 1.256 . S
C123 O135 1.257 1_545 S
O124 Gd104 2.377 . S
O124 C106 1.240 1_455 S
O125 Gd105 2.395 1_565 S
O125 C106 1.240 . S
O126 Gd104 2.448 1_554 S
O126 C107 1.249 . S
O127 Gd104 2.506 1_554 S
O127 C107 1.252 . S
O128 Gd104 2.435 . S
O128 C114 1.256 . S
O129 Gd104 2.717 1_545 S
O129 Gd105 2.327 1_455 S
O129 C114 1.257 1_545 S
O130 Gd105 2.377 . S
O130 C115 1.240 1_655 S
O131 Gd104 2.395 1_545 S
O131 C115 1.240 . S
O132 Gd105 2.448 . S
O132 C116 1.249 . S
O133 Gd105 2.506 . S
O133 C116 1.252 . S
O134 Gd105 2.435 . S
O134 C123 1.256 . S
O135 Gd104 2.327 1_655 S
O135 Gd105 2.717 1_565 S
O135 C123 1.257 1_565 S
H136 C109 0.930 . S
H137 C110 0.931 1_655 S
H138 C112 0.931 . S
H139 C113 0.931 . S
H140 C118 0.930 . S
H141 C119 0.931 1_455 S
H142 C121 0.931 . S
H143 C122 0.931 . S
Gd144 C147 2.818 1_556 S
Gd144 O164 2.377 . S
Gd144 O166 2.448 1_556 S
Gd144 O167 2.506 1_556 S
Gd144 O168 2.435 . S
Gd144 O169 2.717 . S
Gd144 O171 2.395 . S
Gd144 O175 2.327 1_545 S
Gd145 C156 2.818 . S
Gd145 O165 2.395 . S
Gd145 O169 2.327 1_565 S
Gd145 O170 2.377 . S
Gd145 O172 2.448 . S
Gd145 O173 2.506 . S
Gd145 O174 2.435 . S
Gd145 O175 2.717 . S
C146 O164 1.240 1_565 S
C146 O165 1.240 . S
C147 Gd144 2.818 1_554 S
C147 C148 1.510 . S
C147 O166 1.249 . S
C147 O167 1.252 . S
C148 C147 1.510 . S
C148 C149 1.404 . S
C148 C150 1.352 . S
C149 C148 1.404 . S
C149 C153 1.389 . S
C149 H176 0.930 . S
C150 C148 1.352 . S
C150 C152 1.374 . S
C150 H177 0.931 1_545 S
C151 C152 1.359 . S
C151 C153 1.364 . S
C152 C150 1.374 . S
C152 C151 1.359 . S
C152 H178 0.929 . S
C153 C149 1.389 . S
C153 C151 1.364 . S
C153 H179 0.931 . S
C154 O168 1.256 . S
C154 O169 1.257 . S
C155 O170 1.240 1_545 S
C155 O171 1.240 . S
C156 Gd145 2.818 . S
C156 C157 1.510 . S
C156 O172 1.249 . S
C156 O173 1.252 . S
C157 C156 1.510 . S
C157 C158 1.404 . S
C157 C159 1.352 . S
C158 C157 1.404 . S
C158 C162 1.389 . S
C158 H180 0.930 . S
C159 C157 1.352 . S
C159 C161 1.374 . S
C159 H181 0.931 1_565 S
C160 C161 1.359 . S
C160 C162 1.364 . S
C161 C159 1.374 . S
C161 C160 1.359 . S
C161 H182 0.929 1_565 S
C162 C158 1.389 . S
C162 C160 1.364 . S
C162 H183 0.931 . S
C163 O174 1.256 . S
C163 O175 1.257 . S
O164 Gd144 2.377 . S
O164 C146 1.240 1_545 S
O165 Gd145 2.395 . S
O165 C146 1.240 . S
O166 Gd144 2.448 1_554 S
O166 C147 1.249 . S
O167 Gd144 2.506 1_554 S
O167 C147 1.252 . S
O168 Gd144 2.435 . S
O168 C154 1.256 . S
O169 Gd144 2.717 . S
O169 Gd145 2.327 1_545 S
O169 C154 1.257 . S
O170 Gd145 2.377 . S
O170 C155 1.240 1_565 S
O171 Gd144 2.395 . S
O171 C155 1.240 . S
O172 Gd145 2.448 . S
O172 C156 1.249 . S
O173 Gd145 2.506 . S
O173 C156 1.252 . S
O174 Gd145 2.435 . S
O174 C163 1.256 . S
O175 Gd144 2.327 1_565 S
O175 Gd145 2.717 . S
O175 C163 1.257 . S
H176 C149 0.930 . S
H177 C150 0.931 1_565 S
H178 C152 0.929 . S
H179 C153 0.931 . S
H180 C158 0.930 . S
H181 C159 0.931 1_545 S
H182 C161 0.929 1_545 S
H183 C162 0.931 . S
Gd184 C187 2.818 1_556 S
Gd184 O204 2.377 . S
Gd184 O206 2.448 1_556 S
Gd184 O207 2.506 1_556 S
Gd184 O208 2.435 . S
Gd184 O209 2.717 . S
Gd184 O211 2.395 . S
Gd184 O215 2.327 . S
Gd185 C196 2.818 . S
Gd185 O205 2.395 . S
Gd185 O209 2.327 . S
Gd185 O210 2.377 . S
Gd185 O212 2.448 . S
Gd185 O213 2.506 . S
Gd185 O214 2.435 . S
Gd185 O215 2.717 . S
C186 O204 1.240 . S
C186 O205 1.240 . S
C187 Gd184 2.818 1_554 S
C187 C188 1.510 . S
C187 O206 1.249 . S
C187 O207 1.252 . S
C188 C187 1.510 . S
C188 C189 1.404 . S
C188 C190 1.352 . S
C189 C188 1.404 . S
C189 C193 1.389 . S
C189 H216 0.930 . S
C190 C188 1.352 . S
C190 C192 1.374 . S
C190 H217 0.931 . S
C191 C192 1.359 . S
C191 C193 1.364 . S
C192 C190 1.374 . S
C192 C191 1.359 . S
C192 H218 0.931 . S
C193 C189 1.389 . S
C193 C191 1.364 . S
C193 H219 0.931 . S
C194 O208 1.256 . S
C194 O209 1.257 . S
C195 O210 1.240 . S
C195 O211 1.240 . S
C196 Gd185 2.818 . S
C196 C197 1.510 . S
C196 O212 1.249 . S
C196 O213 1.252 . S
C197 C196 1.510 . S
C197 C198 1.404 . S
C197 C199 1.352 . S
C198 C197 1.404 . S
C198 C202 1.389 . S
C198 H220 0.930 . S
C199 C197 1.352 . S
C199 C201 1.374 . S
C199 H221 0.931 . S
C200 C201 1.359 . S
C200 C202 1.364 . S
C201 C199 1.374 . S
C201 C200 1.359 . S
C201 H222 0.931 . S
C202 C198 1.389 . S
C202 C200 1.364 . S
C202 H223 0.931 . S
C203 O214 1.256 . S
C203 O215 1.257 . S
O204 Gd184 2.377 . S
O204 C186 1.240 . S
O205 Gd185 2.395 . S
O205 C186 1.240 . S
O206 Gd184 2.448 1_554 S
O206 C187 1.249 . S
O207 Gd184 2.506 1_554 S
O207 C187 1.252 . S
O208 Gd184 2.435 . S
O208 C194 1.256 . S
O209 Gd184 2.717 . S
O209 Gd185 2.327 . S
O209 C194 1.257 . S
O210 Gd185 2.377 . S
O210 C195 1.240 . S
O211 Gd184 2.395 . S
O211 C195 1.240 . S
O212 Gd185 2.448 . S
O212 C196 1.249 . S
O213 Gd185 2.506 . S
O213 C196 1.252 . S
O214 Gd185 2.435 . S
O214 C203 1.256 . S
O215 Gd184 2.327 . S
O215 Gd185 2.717 . S
O215 C203 1.257 . S
H216 C189 0.930 . S
H217 C190 0.931 . S
H218 C192 0.931 . S
H219 C193 0.931 . S
H220 C198 0.930 . S
H221 C199 0.931 . S
H222 C201 0.931 . S
H223 C202 0.931 . S
Gd224 C227 2.818 1_556 S
Gd224 O244 2.377 . S
Gd224 O246 2.448 1_556 S
Gd224 O247 2.506 1_556 S
Gd224 O248 2.435 . S
Gd224 O249 2.717 1_655 S
Gd224 O251 2.395 1_655 S
Gd224 O255 2.327 . S
Gd225 C236 2.818 . S
Gd225 O245 2.395 1_455 S
Gd225 O249 2.327 . S
Gd225 O250 2.377 . S
Gd225 O252 2.448 . S
Gd225 O253 2.506 . S
Gd225 O254 2.435 . S
Gd225 O255 2.717 1_455 S
C226 O244 1.240 . S
C226 O245 1.240 . S
C227 Gd224 2.818 1_554 S
C227 C228 1.510 . S
C227 O246 1.249 . S
C227 O247 1.252 . S
C228 C227 1.510 . S
C228 C229 1.404 . S
C228 C230 1.352 . S
C229 C228 1.404 . S
C229 C233 1.389 . S
C229 H256 0.930 . S
C230 C228 1.352 . S
C230 C232 1.374 . S
C230 H257 0.931 . S
C231 C232 1.359 . S
C231 C233 1.364 . S
C232 C230 1.374 . S
C232 C231 1.359 . S
C232 H258 0.931 . S
C233 C229 1.389 . S
C233 C231 1.364 . S
C233 H259 0.931 . S
C234 O248 1.269 . S
C234 O249 1.250 1_655 S
C235 O250 1.240 . S
C235 O251 1.240 . S
C236 Gd225 2.818 . S
C236 C237 1.510 . S
C236 O252 1.249 . S
C236 O253 1.252 . S
C237 C236 1.510 . S
C237 C238 1.404 . S
C237 C239 1.352 . S
C238 C237 1.404 . S
C238 C242 1.389 . S
C238 H260 0.930 . S
C239 C237 1.352 . S
C239 C241 1.374 . S
C239 H261 0.931 . S
C240 C241 1.359 . S
C240 C242 1.364 . S
C241 C239 1.374 . S
C241 C240 1.359 . S
C241 H262 0.931 . S
C242 C238 1.389 . S
C242 C240 1.364 . S
C242 H263 0.931 . S
C243 O254 1.256 . S
C243 O255 1.257 1_455 S
O244 Gd224 2.377 . S
O244 C226 1.240 . S
O245 Gd225 2.395 1_655 S
O245 C226 1.240 . S
O246 Gd224 2.448 1_554 S
O246 C227 1.249 . S
O247 Gd224 2.506 1_554 S
O247 C227 1.252 . S
O248 Gd224 2.435 . S
O248 C234 1.269 . S
O249 Gd224 2.717 1_455 S
O249 Gd225 2.327 . S
O249 C234 1.250 1_455 S
O250 Gd225 2.377 . S
O250 C235 1.240 . S
O251 Gd224 2.395 1_455 S
O251 C235 1.240 . S
O252 Gd225 2.448 . S
O252 C236 1.249 . S
O253 Gd225 2.506 . S
O253 C236 1.252 . S
O254 Gd225 2.435 . S
O254 C243 1.256 . S
O255 Gd224 2.327 . S
O255 Gd225 2.717 1_655 S
O255 C243 1.257 1_655 S
H256 C229 0.930 . S
H257 C230 0.931 . S
H258 C232 0.931 . S
H259 C233 0.931 . S
H260 C238 0.930 . S
H261 C239 0.931 . S
H262 C241 0.931 . S
H263 C242 0.931 . S
C264 C265 1.352 1_565 S
C264 C270 1.379 . S
C264 N272 1.356 . S
C265 C264 1.352 1_545 S
C265 C271 1.375 . S
C266 C267 1.363 . S
C266 C271 1.379 . S
C266 N273 1.356 . S
C267 C266 1.363 . S
C267 C270 1.363 1_545 S
N268 C270 1.356 . S
N268 H280 0.984 . S
N268 H281 0.985 . S
N269 C271 1.356 . S
N269 H274 0.984 . S
N269 H275 0.985 . S
C270 C264 1.379 . S
C270 C267 1.363 1_565 S
C270 N268 1.356 . S
C271 C265 1.375 . S
C271 C266 1.379 . S
C271 N269 1.356 . S
N272 C264 1.356 . S
N272 H278 0.984 . S
N272 H279 0.984 . S
N273 C266 1.356 . S
N273 H276 0.984 . S
N273 H277 0.985 . S
H274 N269 0.984 . S
H275 N269 0.985 . S
H276 N273 0.984 . S
H277 N273 0.985 . S
H278 N272 0.984 . S
H279 N272 0.984 . S
H280 N268 0.984 . S
H281 N268 0.985 . S
C282 C283 1.363 . S
C282 C288 1.379 . S
C282 N290 1.356 . S
C283 C282 1.363 . S
C283 C289 1.363 . S
C284 C285 1.363 . S
C284 C289 1.379 . S
C284 N291 1.356 . S
C285 C284 1.363 . S
C285 C288 1.363 . S
N286 C288 1.356 . S
N286 H298 0.984 . S
N286 H299 0.985 . S
N287 C289 1.356 . S
N287 H292 0.984 . S
N287 H293 0.985 . S
C288 C282 1.379 . S
C288 C285 1.363 . S
C288 N286 1.356 . S
C289 C283 1.363 . S
C289 C284 1.379 . S
C289 N287 1.356 . S
N290 C282 1.356 . S
N290 H296 0.984 . S
N290 H297 0.984 . S
N291 C284 1.356 . S
N291 H294 0.984 . S
N291 H295 0.985 . S
H292 N287 0.984 . S
H293 N287 0.985 . S
H294 N291 0.984 . S
H295 N291 0.985 . S
H296 N290 0.984 . S
H297 N290 0.984 . S
H298 N286 0.984 . S
H299 N286 0.985 . S
C300 C301 1.363 . S
C300 C306 1.379 . S
C300 N308 1.356 . S
C301 C300 1.363 . S
C301 C307 1.363 . S
C302 C303 1.363 . S
C302 C307 1.379 . S
C302 N309 1.356 . S
C303 C302 1.363 . S
C303 C306 1.363 . S
N304 C306 1.356 . S
N304 H316 0.984 . S
N304 H317 0.985 . S
N305 C307 1.356 . S
N305 H310 0.984 . S
N305 H311 0.985 . S
C306 C300 1.379 . S
C306 C303 1.363 . S
C306 N304 1.356 . S
C307 C301 1.363 . S
C307 C302 1.379 . S
C307 N305 1.356 . S
N308 C300 1.356 . S
N308 H314 0.984 . S
N308 H315 0.984 . S
N309 C302 1.356 . S
N309 H312 0.984 . S
N309 H313 0.985 . S
H310 N305 0.984 . S
H311 N305 0.985 . S
H312 N309 0.984 . S
H313 N309 0.985 . S
H314 N308 0.984 . S
H315 N308 0.984 . S
H316 N304 0.984 . S
H317 N304 0.985 . S
C318 C319 1.384 . S
C318 C324 1.379 . S
C318 N326 1.356 . S
C319 C318 1.384 . S
C319 C325 1.344 1_455 S
C320 C321 1.363 1_655 S
C320 C325 1.379 . S
C320 N327 1.356 . S
C321 C320 1.363 1_455 S
C321 C324 1.363 . S
N322 C324 1.356 . S
N322 H334 0.984 . S
N322 H335 0.985 . S
N323 C325 1.356 . S
N323 H328 0.984 . S
N323 H329 0.985 . S
C324 C318 1.379 . S
C324 C321 1.363 . S
C324 N322 1.356 . S
C325 C319 1.344 1_655 S
C325 C320 1.379 . S
C325 N323 1.356 . S
N326 C318 1.356 . S
N326 H332 0.984 . S
N326 H333 0.984 . S
N327 C320 1.356 . S
N327 H330 0.984 . S
N327 H331 0.985 . S
H328 N323 0.984 . S
H329 N323 0.985 . S
H330 N327 0.984 . S
H331 N327 0.985 . S
H332 N326 0.984 . S
H333 N326 0.984 . S
H334 N322 0.984 . S
H335 N322 0.985 . S
C336 C337 1.370 . S
C336 C342 1.379 . S
C336 N344 1.356 . S
C337 C336 1.370 . S
C337 C343 1.357 1_565 S
C338 C339 1.363 1_545 S
C338 C343 1.379 . S
C338 N345 1.356 . S
C339 C338 1.363 1_565 S
C339 C342 1.363 . S
N340 C342 1.356 . S
N340 H352 0.984 . S
N340 H353 0.985 . S
N341 C343 1.356 . S
N341 H346 0.984 . S
N341 H347 0.985 . S
C342 C336 1.379 . S
C342 C339 1.363 . S
C342 N340 1.356 . S
C343 C337 1.357 1_545 S
C343 C338 1.379 . S
C343 N341 1.356 . S
N344 C336 1.356 . S
N344 H350 0.984 . S
N344 H351 0.984 . S
N345 C338 1.356 . S
N345 H348 0.984 1_554 S
N345 H349 0.985 . S
H346 N341 0.984 . S
H347 N341 0.985 . S
H348 N345 0.984 1_556 S
H349 N345 0.985 . S
H350 N344 0.984 . S
H351 N344 0.984 . S
H352 N340 0.984 . S
H353 N340 0.985 . S
C354 C355 1.363 . S
C354 C360 1.379 . S
C354 N362 1.356 . S
C355 C354 1.363 . S
C355 C361 1.363 . S
C356 C357 1.363 . S
C356 C361 1.379 . S
C356 N363 1.356 . S
C357 C356 1.363 . S
C357 C360 1.363 . S
N358 C360 1.356 . S
N358 H370 0.984 . S
N358 H371 0.985 1_554 S
N359 C361 1.356 . S
N359 H364 0.984 . S
N359 H365 0.985 . S
C360 C354 1.379 . S
C360 C357 1.363 . S
C360 N358 1.356 . S
C361 C355 1.363 . S
C361 C356 1.379 . S
C361 N359 1.356 . S
N362 C354 1.356 . S
N362 H368 0.984 . S
N362 H369 0.984 . S
N363 C356 1.356 . S
N363 H366 0.984 . S
N363 H367 0.985 . S
H364 N359 0.984 . S
H365 N359 0.985 . S
H366 N363 0.984 . S
H367 N363 0.985 . S
H368 N362 0.984 . S
H369 N362 0.984 . S
H370 N358 0.984 . S
H371 N358 0.985 1_556 S
C372 C373 1.363 . S
C372 C378 1.379 . S
C372 N380 1.356 . S
C373 C372 1.363 . S
C373 C379 1.363 . S
C374 C375 1.363 . S
C374 C379 1.379 . S
C374 N381 1.356 . S
C375 C374 1.363 . S
C375 C378 1.363 . S
N376 C378 1.356 . S
N376 H388 0.984 . S
N376 H389 0.985 . S
N377 C379 1.356 . S
N377 H382 0.984 . S
N377 H383 0.985 . S
C378 C372 1.379 . S
C378 C375 1.363 . S
C378 N376 1.356 . S
C379 C373 1.363 . S
C379 C374 1.379 . S
C379 N377 1.356 . S
N380 C372 1.356 . S
N380 H386 0.984 . S
N380 H387 0.984 . S
N381 C374 1.356 . S
N381 H384 0.984 1_554 S
N381 H385 0.985 . S
H382 N377 0.984 . S
H383 N377 0.985 . S
H384 N381 0.984 1_556 S
H385 N381 0.985 . S
H386 N380 0.984 . S
H387 N380 0.984 . S
H388 N376 0.984 . S
H389 N376 0.985 . S
C390 C391 1.379 . S
C390 C396 1.379 . S
C390 N398 1.356 . S
C391 C390 1.379 . S
C391 C397 1.348 1_655 S
C392 C393 1.363 1_455 S
C392 C397 1.379 . S
C392 N399 1.356 . S
C393 C392 1.363 1_655 S
C393 C396 1.363 . S
N394 C396 1.356 . S
N394 H406 0.984 . S
N394 H407 0.985 1_554 S
N395 C397 1.356 . S
N395 H400 0.984 . S
N395 H401 0.985 . S
C396 C390 1.379 . S
C396 C393 1.363 . S
C396 N394 1.356 . S
C397 C391 1.348 1_455 S
C397 C392 1.379 . S
C397 N395 1.356 . S
N398 C390 1.356 . S
N398 H404 0.984 . S
N398 H405 0.984 . S
N399 C392 1.356 . S
N399 H402 0.984 . S
N399 H403 0.985 . S
H400 N395 0.984 . S
H401 N395 0.985 . S
H402 N399 0.984 . S
H403 N399 0.985 . S
H404 N398 0.984 . S
H405 N398 0.984 . S
H406 N394 0.984 . S
H407 N394 0.985 1_556 S
C408 C409 1.363 . S
C408 C414 1.379 . S
C408 N416 1.356 . S
C409 C408 1.363 . S
C409 C415 1.363 1_655 S
C410 C411 1.363 . S
C410 C415 1.379 1_655 S
C410 N417 1.356 . S
C411 C410 1.363 . S
C411 C414 1.363 . S
N412 C414 1.356 . S
N412 H424 0.984 . S
N412 H425 0.985 . S
N413 C415 1.356 . S
N413 H418 0.984 . S
N413 H419 0.985 . S
C414 C408 1.379 . S
C414 C411 1.363 . S
C414 N412 1.356 . S
C415 C409 1.363 1_455 S
C415 C410 1.379 1_455 S
C415 N413 1.356 . S
N416 C408 1.356 . S
N416 H422 0.984 . S
N416 H423 0.984 . S
N417 C410 1.356 . S
N417 H420 0.984 . S
N417 H421 0.985 . S
H418 N413 0.984 . S
H419 N413 0.985 . S
H420 N417 0.984 . S
H421 N417 0.985 . S
H422 N416 0.984 . S
H423 N416 0.984 . S
H424 N412 0.984 . S
H425 N412 0.985 . S
C426 C427 1.363 . S
C426 C432 1.379 . S
C426 N434 1.356 . S
C427 C426 1.363 . S
C427 C433 1.363 1_565 S
C428 C429 1.363 . S
C428 C433 1.379 1_565 S
C428 N435 1.356 . S
C429 C428 1.363 . S
C429 C432 1.363 . S
N430 C432 1.356 . S
N430 H442 0.984 . S
N430 H443 0.985 . S
N431 C433 1.356 . S
N431 H436 0.984 . S
N431 H437 0.985 . S
C432 C426 1.379 . S
C432 C429 1.363 . S
C432 N430 1.356 . S
C433 C427 1.363 1_545 S
C433 C428 1.379 1_545 S
C433 N431 1.356 . S
N434 C426 1.356 . S
N434 H440 0.984 . S
N434 H441 0.984 . S
N435 C428 1.356 . S
N435 H438 0.984 . S
N435 H439 0.980 1_565 S
H436 N431 0.984 . S
H437 N431 0.985 . S
H438 N435 0.984 . S
H439 N435 0.980 1_545 S
H440 N434 0.984 . S
H441 N434 0.984 . S
H442 N430 0.984 . S
H443 N430 0.985 . S
C444 C445 1.363 . S
C444 C450 1.379 . S
C444 N452 1.356 1_554 S
C445 C444 1.363 . S
C445 C451 1.363 . S
C446 C447 1.363 . S
C446 C451 1.379 . S
C446 N453 1.356 . S
C447 C446 1.363 . S
C447 C450 1.363 . S
N448 C450 1.356 . S
N448 H460 0.984 1_554 S
N448 H461 0.985 . S
N449 C451 1.356 . S
N449 H454 0.984 . S
N449 H455 0.985 . S
C450 C444 1.379 . S
C450 C447 1.363 . S
C450 N448 1.356 . S
C451 C445 1.363 . S
C451 C446 1.379 . S
C451 N449 1.356 . S
N452 C444 1.356 1_556 S
N452 H458 0.984 . S
N452 H459 0.984 . S
N453 C446 1.356 . S
N453 H456 0.984 . S
N453 H457 0.985 . S
H454 N449 0.984 . S
H455 N449 0.985 . S
H456 N453 0.984 . S
H457 N453 0.985 . S
H458 N452 0.984 . S
H459 N452 0.984 . S
H460 N448 0.984 1_556 S
H461 N448 0.985 . S
C462 C463 1.363 . S
C462 C468 1.379 . S
C462 N470 1.356 . S
C463 C462 1.363 . S
C463 C469 1.363 . S
C464 C465 1.363 . S
C464 C469 1.379 . S
C464 N471 1.356 . S
C465 C464 1.363 . S
C465 C468 1.363 . S
N466 C468 1.356 . S
N466 H478 0.984 . S
N466 H479 0.985 . S
N467 C469 1.356 . S
N467 H472 0.984 . S
N467 H473 0.985 . S
C468 C462 1.379 . S
C468 C465 1.363 . S
C468 N466 1.356 . S
C469 C463 1.363 . S
C469 C464 1.379 . S
C469 N467 1.356 . S
N470 C462 1.356 . S
N470 H476 0.984 1_554 S
N470 H477 0.984 1_554 S
N471 C464 1.356 . S
N471 H474 0.984 . S
N471 H475 0.985 . S
H472 N467 0.984 . S
H473 N467 0.985 . S
H474 N471 0.984 . S
H475 N471 0.985 . S
H476 N470 0.984 1_556 S
H477 N470 0.984 1_556 S
H478 N466 0.984 . S
H479 N466 0.985 . S
C480 C481 1.363 1_655 S
C480 C486 1.379 1_655 S
C480 N488 1.356 . S
C481 C480 1.363 1_455 S
C481 C487 1.363 . S
C482 C483 1.363 . S
C482 C487 1.379 . S
C482 N489 1.356 . S
C483 C482 1.363 . S
C483 C486 1.363 . S
N484 C486 1.356 . S
N484 H496 0.984 . S
N484 H497 0.985 . S
N485 C487 1.356 . S
N485 H490 0.984 . S
N485 H491 0.985 . S
C486 C480 1.379 1_455 S
C486 C483 1.363 . S
C486 N484 1.356 . S
C487 C481 1.363 . S
C487 C482 1.379 . S
C487 N485 1.356 . S
N488 C480 1.356 . S
N488 H494 0.984 . S
N488 H495 0.984 . S
N489 C482 1.356 . S
N489 H492 0.984 . S
N489 H493 0.985 . S
H490 N485 0.984 . S
H491 N485 0.985 . S
H492 N489 0.984 . S
H493 N489 0.985 . S
H494 N488 0.984 . S
H495 N488 0.984 . S
H496 N484 0.984 . S
H497 N484 0.985 . S
C498 C499 1.363 . S
C498 C504 1.379 . S
C498 N506 1.356 1_545 S
C499 C498 1.363 . S
C499 C505 1.363 . S
C500 C501 1.363 . S
C500 C505 1.379 . S
C500 N507 1.356 . S
C501 C500 1.363 . S
C501 C504 1.363 . S
N502 C504 1.356 . S
N502 H514 0.984 . S
N502 H515 0.985 . S
N503 C505 1.356 . S
N503 H508 0.984 1_545 S
N503 H509 0.985 . S
C504 C498 1.379 . S
C504 C501 1.363 . S
C504 N502 1.356 . S
C505 C499 1.363 . S
C505 C500 1.379 . S
C505 N503 1.356 . S
N506 C498 1.356 1_565 S
N506 H512 0.984 . S
N506 H513 0.984 . S
N507 C500 1.356 . S
N507 H510 0.984 . S
N507 H511 0.985 . S
H508 N503 0.984 1_565 S
H509 N503 0.985 . S
H510 N507 0.984 . S
H511 N507 0.985 . S
H512 N506 0.984 . S
H513 N506 0.984 . S
H514 N502 0.984 . S
H515 N502 0.985 . S
C516 C517 1.363 . S
C516 C522 1.379 . S
C516 N524 1.356 . S
C517 C516 1.363 . S
C517 C523 1.363 . S
C518 C519 1.363 . S
C518 C523 1.379 . S
C518 N525 1.356 . S
C519 C518 1.363 . S
C519 C522 1.363 . S
N520 C522 1.356 . S
N520 H532 0.984 . S
N520 H533 0.985 . S
N521 C523 1.356 . S
N521 H526 0.984 . S
N521 H527 0.985 . S
C522 C516 1.379 . S
C522 C519 1.363 . S
C522 N520 1.356 . S
C523 C517 1.363 . S
C523 C518 1.379 . S
C523 N521 1.356 . S
N524 C516 1.356 . S
N524 H530 0.984 . S
N524 H531 0.984 . S
N525 C518 1.356 . S
N525 H528 0.984 . S
N525 H529 0.985 . S
H526 N521 0.984 . S
H527 N521 0.985 . S
H528 N525 0.984 . S
H529 N525 0.985 . S
H530 N524 0.984 . S
H531 N524 0.984 . S
H532 N520 0.984 . S
H533 N520 0.985 . S
C534 C535 1.363 . S
C534 C540 1.379 . S
C534 N542 1.356 . S
C535 C534 1.363 . S
C535 C541 1.363 . S
C536 C537 1.363 . S
C536 C541 1.379 . S
C536 N543 1.356 . S
C537 C536 1.363 . S
C537 C540 1.363 . S
N538 C540 1.356 . S
N538 H550 0.984 . S
N538 H551 0.985 . S
N539 C541 1.356 . S
N539 H544 0.984 . S
N539 H545 0.985 . S
C540 C534 1.379 . S
C540 C537 1.363 . S
C540 N538 1.356 . S
C541 C535 1.363 . S
C541 C536 1.379 . S
C541 N539 1.356 . S
N542 C534 1.356 . S
N542 H548 0.984 . S
N542 H549 0.984 . S
N543 C536 1.356 . S
N543 H546 0.984 . S
N543 H547 0.985 . S
H544 N539 0.984 . S
H545 N539 0.985 . S
H546 N543 0.984 . S
H547 N543 0.985 . S
H548 N542 0.984 . S
H549 N542 0.984 . S
H550 N538 0.984 . S
H551 N538 0.985 . S
C552 C553 1.363 1_655 S
C552 C558 1.379 . S
C552 N560 1.356 . S
C553 C552 1.363 1_455 S
C553 C559 1.363 1_556 S
C554 C555 1.363 1_554 S
C554 C559 1.379 . S
C554 N561 1.356 . S
C555 C554 1.363 1_556 S
C555 C558 1.363 1_455 S
N556 C558 1.356 . S
N556 H568 0.984 . S
N556 H569 0.985 . S
N557 C559 1.356 . S
N557 H562 0.984 . S
N557 H563 0.985 . S
C558 C552 1.379 . S
C558 C555 1.363 1_655 S
C558 N556 1.356 . S
C559 C553 1.363 1_554 S
C559 C554 1.379 . S
C559 N557 1.356 . S
N560 C552 1.356 . S
N560 H566 0.984 . S
N560 H567 0.984 . S
N561 C554 1.356 . S
N561 H564 0.984 . S
N561 H565 0.985 . S
H562 N557 0.984 . S
H563 N557 0.985 . S
H564 N561 0.984 . S
H565 N561 0.985 . S
H566 N560 0.984 . S
H567 N560 0.984 . S
H568 N556 0.984 . S
H569 N556 0.985 . S
C570 C571 1.363 1_565 S
C570 C576 1.379 . S
C570 N578 1.356 . S
C571 C570 1.363 1_545 S
C571 C577 1.363 1_556 S
C572 C573 1.363 1_554 S
C572 C577 1.379 . S
C572 N579 1.356 . S
C573 C572 1.363 1_556 S
C573 C576 1.363 1_545 S
N574 C576 1.356 . S
N574 H586 0.984 . S
N574 H587 0.985 . S
N575 C577 1.356 . S
N575 H580 0.984 . S
N575 H581 0.985 . S
C576 C570 1.379 . S
C576 C573 1.363 1_565 S
C576 N574 1.356 . S
C577 C571 1.363 1_554 S
C577 C572 1.379 . S
C577 N575 1.356 . S
N578 C570 1.356 . S
N578 H584 0.984 . S
N578 H585 0.984 . S
N579 C572 1.356 . S
N579 H582 0.984 . S
N579 H583 0.985 . S
H580 N575 0.984 . S
H581 N575 0.985 . S
H582 N579 0.984 . S
H583 N579 0.985 . S
H584 N578 0.984 . S
H585 N578 0.984 . S
H586 N574 0.984 . S
H587 N574 0.985 . S
C588 C589 1.363 1_554 S
C588 C594 1.379 . S
C588 N596 1.356 . S
C589 C588 1.363 1_556 S
C589 C595 1.363 . S
C590 C591 1.363 . S
C590 C595 1.379 . S
C590 N597 1.356 . S
C591 C590 1.363 . S
C591 C594 1.363 1_556 S
N592 C594 1.356 . S
N592 H604 0.984 . S
N592 H605 0.985 . S
N593 C595 1.356 . S
N593 H598 0.984 . S
N593 H599 0.985 . S
C594 C588 1.379 . S
C594 C591 1.363 1_554 S
C594 N592 1.356 . S
C595 C589 1.363 . S
C595 C590 1.379 . S
C595 N593 1.356 . S
N596 C588 1.356 . S
N596 H602 0.984 . S
N596 H603 0.984 . S
N597 C590 1.356 . S
N597 H600 0.984 . S
N597 H601 0.985 . S
H598 N593 0.984 . S
H599 N593 0.985 . S
H600 N597 0.984 . S
H601 N597 0.985 . S
H602 N596 0.984 . S
H603 N596 0.984 . S
H604 N592 0.984 . S
H605 N592 0.985 . S
C606 C607 1.363 . S
C606 C612 1.379 . S
C606 N614 1.356 . S
C607 C606 1.363 . S
C607 C613 1.363 1_556 S
C608 C609 1.363 1_554 S
C608 C613 1.379 . S
C608 N615 1.356 . S
C609 C608 1.363 1_556 S
C609 C612 1.363 . S
N610 C612 1.356 . S
N610 H622 0.984 . S
N610 H623 0.985 . S
N611 C613 1.356 . S
N611 H616 0.984 . S
N611 H617 0.985 . S
C612 C606 1.379 . S
C612 C609 1.363 . S
C612 N610 1.356 . S
C613 C607 1.363 1_554 S
C613 C608 1.379 . S
C613 N611 1.356 . S
N614 C606 1.356 . S
N614 H620 0.984 . S
N614 H621 0.984 . S
N615 C608 1.356 . S
N615 H618 0.984 . S
N615 H619 0.985 . S
H616 N611 0.984 . S
H617 N611 0.985 . S
H618 N615 0.984 . S
H619 N615 0.985 . S
H620 N614 0.984 . S
H621 N614 0.984 . S
H622 N610 0.984 . S
H623 N610 0.985 . S
C624 C625 1.363 1_455 S
C624 C630 1.379 . S
C624 N632 1.356 . S
C625 C624 1.363 1_655 S
C625 C631 1.363 . S
C626 C627 1.363 . S
C626 C631 1.379 . S
C626 N633 1.356 . S
C627 C626 1.363 . S
C627 C630 1.363 1_655 S
N628 C630 1.356 . S
N628 H640 0.984 . S
N628 H641 0.985 . S
N629 C631 1.356 . S
N629 H634 0.984 . S
N629 H635 0.985 1_556 S
C630 C624 1.379 . S
C630 C627 1.363 1_455 S
C630 N628 1.356 . S
C631 C625 1.363 . S
C631 C626 1.379 . S
C631 N629 1.356 . S
N632 C624 1.356 . S
N632 H638 0.984 . S
N632 H639 0.984 . S
N633 C626 1.356 . S
N633 H636 0.984 . S
N633 H637 0.985 1_556 S
H634 N629 0.984 . S
H635 N629 0.985 1_554 S
H636 N633 0.984 . S
H637 N633 0.985 1_554 S
H638 N632 0.984 . S
H639 N632 0.984 . S
H640 N628 0.984 . S
H641 N628 0.985 . S
C642 C643 1.363 . S
C642 C648 1.379 . S
C642 N650 1.356 . S
C643 C642 1.363 . S
C643 C649 1.363 1_565 S
C644 C645 1.363 1_545 S
C644 C649 1.379 . S
C644 N651 1.356 . S
C645 C644 1.363 1_565 S
C645 C648 1.363 . S
N646 C648 1.356 . S
N646 H658 0.984 1_556 S
N646 H659 0.985 . S
N647 C649 1.356 . S
N647 H652 0.984 . S
N647 H653 0.985 . S
C648 C642 1.379 . S
C648 C645 1.363 . S
C648 N646 1.356 . S
C649 C643 1.363 1_545 S
C649 C644 1.379 . S
C649 N647 1.356 . S
N650 C642 1.356 . S
N650 H656 0.984 1_556 S
N650 H657 0.984 . S
N651 C644 1.356 . S
N651 H654 0.984 . S
N651 H655 0.985 . S
H652 N647 0.984 . S
H653 N647 0.985 . S
H654 N651 0.984 . S
H655 N651 0.985 . S
H656 N650 0.984 1_554 S
H657 N650 0.984 . S
H658 N646 0.984 1_554 S
H659 N646 0.985 . S
C660 C661 1.363 . S
C660 C666 1.379 . S
C660 N668 1.356 . S
C661 C660 1.363 . S
C661 C667 1.363 . S
C662 C663 1.363 . S
C662 C667 1.379 . S
C662 N669 1.356 . S
C663 C662 1.363 . S
C663 C666 1.363 . S
N664 C666 1.356 . S
N664 H676 0.984 1_556 S
N664 H677 0.985 . S
N665 C667 1.356 . S
N665 H670 0.984 . S
N665 H671 0.985 . S
C666 C660 1.379 . S
C666 C663 1.363 . S
C666 N664 1.356 . S
C667 C661 1.363 . S
C667 C662 1.379 . S
C667 N665 1.356 . S
N668 C660 1.356 . S
N668 H674 0.984 1_556 S
N668 H675 0.984 . S
N669 C662 1.356 . S
N669 H672 0.984 . S
N669 H673 0.985 . S
H670 N665 0.984 . S
H671 N665 0.985 . S
H672 N669 0.984 . S
H673 N669 0.985 . S
H674 N668 0.984 1_554 S
H675 N668 0.984 . S
H676 N664 0.984 1_554 S
H677 N664 0.985 . S
C678 C679 1.363 . S
C678 C684 1.379 . S
C678 N686 1.356 . S
C679 C678 1.363 . S
C679 C685 1.363 . S
C680 C681 1.363 . S
C680 C685 1.379 . S
C680 N687 1.356 . S
C681 C680 1.363 . S
C681 C684 1.363 . S
N682 C684 1.356 . S
N682 H694 0.984 . S
N682 H695 0.985 . S
N683 C685 1.356 . S
N683 H688 0.984 . S
N683 H689 0.985 1_556 S
C684 C678 1.379 . S
C684 C681 1.363 . S
C684 N682 1.356 . S
C685 C679 1.363 . S
C685 C680 1.379 . S
C685 N683 1.356 . S
N686 C678 1.356 . S
N686 H692 0.984 . S
N686 H693 0.984 . S
N687 C680 1.356 . S
N687 H690 0.984 . S
N687 H691 0.985 1_556 S
H688 N683 0.984 . S
H689 N683 0.985 1_554 S
H690 N687 0.984 . S
H691 N687 0.985 1_554 S
H692 N686 0.984 . S
H693 N686 0.984 . S
H694 N682 0.984 . S
H695 N682 0.985 . S
C265 N80 2.008 1_545 S
C267 C114 2.177 1_545 S
C285 C154 2.190 . S
C283 N93 2.022 . S
C303 C194 2.198 . S
C301 N54 2.035 . S
C321 C234 2.186 1_455 S
C319 N67 2.020 1_455 S
C339 C123 2.180 1_564 S
C337 N28 2.012 . S
C355 N41 2.020 . S
C357 C163 2.191 1_554 S
C373 N2 2.030 . S
C375 C203 2.197 1_554 S
C391 N15 2.020 . S
C393 C243 2.188 1_654 S
C411 C120 0.822 . S
C409 N70 0.840 . S
C429 C160 0.821 . S
C427 N83 0.840 . S
C447 C200 0.817 . S
C445 N96 0.837 . S
C463 N57 0.839 . S
C465 C240 0.814 . S
C481 N18 0.844 1_455 S
C483 C111 0.824 . S
C501 C151 0.821 . S
C499 N31 0.842 1_545 S
C519 C191 0.818 . S
C517 N44 0.840 . S
C535 N5 0.841 . S
C537 C231 0.821 . S
C553 N66 2.387 1_455 S
C555 C115 2.509 . S
C571 N79 2.359 1_545 S
C573 C155 2.483 . S
C591 C195 2.474 . S
C589 N92 2.352 . S
C609 C235 2.504 . S
C607 N53 2.377 . S
C625 N14 2.375 . S
C627 C106 2.517 . S
C645 C146 2.484 . S
C643 N27 2.346 . S
C663 C186 2.474 . S
C661 N40 2.334 . S
C679 N1 2.362 . S
C681 C226 2.507 . S
