# Generated by pormake.
# Topology anh, (6,3)-cn, num edge types: 1
# Building blocks:
#     Node 0, Type 0, BuildingBlock: PAMTOO_clean_sbu_0, # of connection points: 6
#     Node 1, Type 0, BuildingBlock: PAMTOO_clean_sbu_0, # of connection points: 6
#     Node 2, Type 0, BuildingBlock: PAMTOO_clean_sbu_0, # of connection points: 6
#     Node 3, Type 1, BuildingBlock: ESEHIV_clean_linker_0, # of connection points: 3
#     Node 4, Type 1, BuildingBlock: ESEHIV_clean_linker_0, # of connection points: 3
#     Node 5, Type 1, BuildingBlock: ESEHIV_clean_linker_0, # of connection points: 3
#     Node 6, Type 1, BuildingBlock: ESEHIV_clean_linker_0, # of connection points: 3
#     Node 7, Type 1, BuildingBlock: ESEHIV_clean_linker_0, # of connection points: 3
#     Node 8, Type 1, BuildingBlock: ESEHIV_clean_linker_0, # of connection points: 3
#     Edge 9, Type (0, 1), BuildingBlock: AJUNOK_clean_linker_0, # of connection points: 2
#     Edge 10, Type (0, 1), BuildingBlock: AJUNOK_clean_linker_0, # of connection points: 2
#     Edge 11, Type (0, 1), BuildingBlock: AJUNOK_clean_linker_0, # of connection points: 2
#     Edge 12, Type (0, 1), BuildingBlock: AJUNOK_clean_linker_0, # of connection points: 2
#     Edge 13, Type (0, 1), BuildingBlock: AJUNOK_clean_linker_0, # of connection points: 2
#     Edge 14, Type (0, 1), BuildingBlock: AJUNOK_clean_linker_0, # of connection points: 2
#     Edge 15, Type (0, 1), BuildingBlock: AJUNOK_clean_linker_0, # of connection points: 2
#     Edge 16, Type (0, 1), BuildingBlock: AJUNOK_clean_linker_0, # of connection points: 2
#     Edge 17, Type (0, 1), BuildingBlock: AJUNOK_clean_linker_0, # of connection points: 2
#     Edge 18, Type (0, 1), BuildingBlock: AJUNOK_clean_linker_0, # of connection points: 2
#     Edge 19, Type (0, 1), BuildingBlock: AJUNOK_clean_linker_0, # of connection points: 2
#     Edge 20, Type (0, 1), BuildingBlock: AJUNOK_clean_linker_0, # of connection points: 2
#     Edge 21, Type (0, 1), BuildingBlock: AJUNOK_clean_linker_0, # of connection points: 2
#     Edge 22, Type (0, 1), BuildingBlock: AJUNOK_clean_linker_0, # of connection points: 2
#     Edge 23, Type (0, 1), BuildingBlock: AJUNOK_clean_linker_0, # of connection points: 2
#     Edge 24, Type (0, 1), BuildingBlock: AJUNOK_clean_linker_0, # of connection points: 2
#     Edge 25, Type (0, 1), BuildingBlock: AJUNOK_clean_linker_0, # of connection points: 2
#     Edge 26, Type (0, 1), BuildingBlock: AJUNOK_clean_linker_0, # of connection points: 2
# Relax obj value: 0.287
# Max RMSD: 0.239
# Mean RMSD: 0.180
data_MOF--net-anh--node1-PAMTOO_clean_sbu_0--node2-ESEHIV_clean_linker_0--edge1-AJUNOK_clean_linker_0
_symmetry_space_group_name_H-M    P1
_symmetry_Int_Tables_number       1
_symmetry_cell_setting            triclinic
loop_
_symmetry_equiv_pos_as_xyz
'x, y, z'
_cell_length_a     19.878697
_cell_length_b     19.189889
_cell_length_c     38.17134
_cell_angle_alpha  90.144537
_cell_angle_beta   94.368291
_cell_angle_gamma 94.766015
loop_
_atom_site_label
_atom_site_type_symbol
_atom_site_fract_x
_atom_site_fract_y
_atom_site_fract_z
_atom_type_partial_charge
Dy0 Dy 1.11546 0.66252 0.13351 0.0
Dy1 Dy 1.09812 0.49181 0.12402 0.0
C2 C 1.10418 0.59283 0.05898 0.0
O3 O 1.0029 0.63774 0.13949 0.0
O4 O 0.99056 0.52468 0.11832 0.0
O5 O 0.14858 0.76158 0.11118 0.0
O6 O 1.10817 0.75839 0.16235 0.0
O7 O 1.08104 0.51444 0.17959 0.0
O8 O 0.14472 0.61902 0.18583 0.0
O9 O 0.21246 0.51383 0.13207 0.0
O10 O 0.22217 0.63344 0.12633 0.0
O11 O 1.11722 0.38864 0.14284 0.0
O12 O 1.05517 0.4006 0.09439 0.0
C13 C 0.96378 0.58105 0.12916 0.0
O14 O 1.07709 0.63782 0.07824 0.0
O15 O 1.12839 0.53724 0.07329 0.0
C16 C 0.20497 0.83718 0.15469 0.0
C17 C 0.3325 0.90143 0.18015 0.0
C18 C 0.31039 0.9056 0.14443 0.0
C19 C 0.24711 0.87409 0.13187 0.0
C20 C 0.22635 0.83481 0.19061 0.0
C21 C 0.28936 0.86662 0.20316 0.0
C22 C 0.14272 0.79581 0.14023 0.0
C23 C 1.11499 0.56308 0.19932 0.0
C24 C 0.25023 0.57344 0.1294 0.0
C25 C 1.02033 0.31102 0.13267 0.0
C26 C 0.91971 0.22531 0.16397 0.0
C27 C 0.91289 0.29705 0.1592 0.0
C28 C 0.96285 0.33944 0.14396 0.0
C29 C 1.0272 0.23932 0.13683 0.0
C30 C 0.97726 0.19669 0.15245 0.0
C31 C 1.07456 0.3576 0.11892 0.0
H32 H 0.34294 0.93102 0.12596 0.0
H33 H 0.23214 0.87646 0.10404 0.0
H34 H 0.19537 0.80677 0.20897 0.0
H35 H 0.30484 0.86311 0.23089 0.0
H36 H 0.86913 0.32065 0.16768 0.0
H37 H 0.95721 0.39484 0.14157 0.0
H38 H 1.07176 0.21668 0.12875 0.0
H39 H 0.98468 0.14193 0.15646 0.0
Dy40 Dy 0.59347 1.02518 0.51299 0.0
Dy41 Dy 0.75943 0.04129 0.52291 0.0
C42 C 0.67172 0.03309 0.58785 0.0
O43 O 0.62003 0.13898 0.5031 0.0
O44 O 0.72757 0.14893 0.5303 0.0
O45 O 0.49987 1.00398 0.53732 0.0
O46 O 0.49818 0.03171 0.48223 0.0
O47 O 0.7275 0.06726 0.46748 0.0
O48 O 0.6312 0.99399 0.46224 0.0
O49 O 0.73548 0.92615 0.51587 0.0
O50 O 0.62112 0.91562 0.52367 0.0
O51 O 0.85579 1.01719 0.50587 0.0
O52 O 0.85184 0.08789 0.54999 0.0
C53 C 0.67408 0.17726 0.51624 0.0
O54 O 0.62661 0.06224 0.56731 0.0
O55 O 0.72355 1.00751 0.57466 0.0
C56 C 0.4148 0.94699 0.49898 0.0
C57 C 0.32851 0.82953 0.47679 0.0
C58 C 0.38816 0.82135 0.49782 0.0
C59 C 0.43117 0.87958 0.50875 0.0
C60 C 0.35388 0.95551 0.47906 0.0
C61 C 0.31083 0.89699 0.468 0.0
C62 C 0.46293 1.00774 0.50775 0.0
C63 C 0.68053 0.03024 0.44793 0.0
C64 C 0.67875 0.88792 0.52019 0.0
C65 C 0.93045 0.11972 0.50871 0.0
C66 C 0.9979 0.23399 0.47634 0.0
C67 C 0.95351 0.18623 0.45626 0.0
C68 C 0.91989 0.12978 0.47227 0.0
C69 C 0.97567 0.16693 0.52874 0.0
C70 C 1.00893 0.22397 0.51268 0.0
C71 C 0.8889 0.06521 0.52628 0.0
H72 H 0.40201 0.7697 0.50513 0.0
H73 H 0.47794 0.87174 0.52415 0.0
H74 H 0.34065 1.00716 0.47123 0.0
H75 H 0.26525 0.90421 0.45144 0.0
H76 H 0.94325 0.19377 0.4283 0.0
H77 H 0.88422 0.09526 0.45616 0.0
H78 H 0.98379 0.16073 0.55691 0.0
H79 H 1.04285 0.26053 0.52863 0.0
Dy80 Dy 0.70973 0.50635 0.83892 0.0
Dy81 Dy 0.55128 0.51957 0.82069 0.0
C82 C 0.65128 0.51891 0.76187 0.0
O83 O 0.7035 0.62113 0.82785 0.0
O84 O 0.59232 0.62797 0.83829 0.0
O85 O 0.81425 0.53143 0.82998 0.0
O86 O 0.78721 0.45936 0.87152 0.0
O87 O 0.56197 0.49319 0.87772 0.0
O88 O 0.66891 0.54601 0.88719 0.0
O89 O 0.56365 0.40496 0.81162 0.0
O90 O 0.66131 0.3989 0.84652 0.0
O91 O 0.45011 0.53806 0.83287 0.0
O92 O 0.47165 0.52123 0.77888 0.0
C93 C 0.65256 0.65851 0.83337 0.0
O94 O 0.68759 0.4789 0.78199 0.0
O95 O 0.60959 0.55735 0.77619 0.0
C96 C 0.88131 0.43721 0.84039 0.0
C97 C 0.99674 0.39465 0.81233 0.0
C98 C 0.93533 0.39234 0.79119 0.0
C99 C 0.87806 0.41612 0.80498 0.0
C100 C 0.93596 0.42064 0.86303 0.0
C101 C 0.9928 0.39698 0.8492 0.0
C102 C 0.83498 0.48575 0.85277 0.0
C103 C 0.61113 0.52263 0.89906 0.0
C104 C 0.60871 0.36782 0.82835 0.0
C105 C 0.4017 0.61015 0.79046 0.0
C106 C 0.34413 0.73857 0.79272 0.0
C107 C 0.4148 0.73697 0.79569 0.0
C108 C 0.44343 0.67297 0.79441 0.0
C109 C 0.3323 0.6126 0.78235 0.0
C110 C 0.30387 0.67665 0.7827 0.0
C111 C 0.4291 0.54339 0.79982 0.0
H112 H 0.93463 0.38438 0.76307 0.0
H113 H 0.83434 0.42501 0.78733 0.0
H114 H 0.93792 0.43335 0.89079 0.0
H115 H 1.03708 0.39354 0.86725 0.0
H116 H 0.44727 0.78389 0.80264 0.0
H117 H 0.49757 0.67222 0.79941 0.0
H118 H 0.29946 0.5648 0.77849 0.0
H119 H 0.2494 0.67611 0.77914 0.0
H120 H 0.56561 0.98761 0.29169 0.0
H121 H 0.76957 0.08071 0.28898 0.0
H122 H 0.64255 0.04693 0.193 0.0
C123 C 0.60719 1.00867 0.27703 0.0
C124 C 0.59789 1.0119 0.24028 0.0
C125 C 0.66839 0.03463 0.29504 0.0
C126 C 0.72123 0.06273 0.27556 0.0
C127 C 0.71233 0.06817 0.23879 0.0
C128 C 0.65036 0.04246 0.22128 0.0
H129 H 0.68393 0.64073 0.60857 0.0
H130 H 0.66705 0.41637 0.60448 0.0
H131 H 0.68035 0.53417 0.50884 0.0
C132 C 0.68106 0.5925 0.59343 0.0
C133 C 0.68254 0.59548 0.55678 0.0
C134 C 0.67459 0.52831 0.61074 0.0
C135 C 0.67183 0.46624 0.59118 0.0
C136 C 0.67414 0.4677 0.55453 0.0
C137 C 0.679 0.53261 0.53715 0.0
H138 H 1.10546 0.5494 0.89576 0.0
H139 H 0.15908 0.76719 0.91925 0.0
H140 H 0.16369 0.68725 0.81389 0.0
C141 C 1.12147 0.60157 0.88712 0.0
C142 C 1.13333 0.61265 0.85184 0.0
C143 C 1.13053 0.65687 0.91155 0.0
C144 C 0.14946 0.72491 0.90019 0.0
C145 C 0.16229 0.73684 0.86483 0.0
C146 C 0.1521 0.68017 0.84087 0.0
H147 H 1.07045 0.44323 0.35438 0.0
H148 H 0.19563 0.63768 0.35784 0.0
H149 H 0.15327 0.53221 0.45356 0.0
C150 C 1.1019 0.48373 0.36907 0.0
C151 C 1.11061 0.47929 0.40586 0.0
C152 C 1.1331 0.54018 0.3513 0.0
C153 C 0.17059 0.59394 0.371 0.0
C154 C 0.17608 0.59204 0.40774 0.0
C155 C 0.14653 0.53462 0.42514 0.0
H156 H 0.62751 0.12525 0.7426 0.0
H157 H 0.66228 0.90864 0.74187 0.0
H158 H 0.63712 1.01324 0.84014 0.0
C159 C 0.63278 0.07686 0.75681 0.0
C160 C 0.62762 0.07594 0.79319 0.0
C161 C 0.64578 1.01706 0.73849 0.0
C162 C 0.65472 0.95512 0.75678 0.0
C163 C 0.65211 0.95182 0.79356 0.0
C164 C 0.63878 1.01347 0.81187 0.0
H165 H 0.48882 0.55958 0.05189 0.0
H166 H 0.70476 0.56004 0.05462 0.0
H167 H 0.60874 0.58059 0.15139 0.0
C168 C 0.53746 0.56211 0.06699 0.0
C169 C 0.53999 0.56954 0.10372 0.0
C170 C 0.5964 0.55909 0.04934 0.0
C171 C 0.65948 0.5635 0.06852 0.0
C172 C 0.66601 0.57147 0.10512 0.0
C173 C 0.60533 0.57504 0.12307 0.0
C174 C 0.35686 0.5099 0.12223 0.0
C175 C 0.32693 0.57282 0.12817 0.0
C176 C 0.42696 0.50867 0.11758 0.0
C177 C 0.47188 0.56997 0.11935 0.0
H178 H 0.32535 0.46108 0.11956 0.0
H179 H 0.44569 0.45936 0.11078 0.0
S180 S 0.42228 0.74838 0.13669 0.0
N181 N 0.3506 0.69839 0.13744 0.0
N182 N 0.48089 0.69539 0.12879 0.0
C183 C 0.44347 0.6328 0.12675 0.0
C184 C 0.37187 0.63436 0.13117 0.0
C185 C 1.02148 0.36326 0.47147 0.0
C186 C 1.03024 0.29567 0.4593 0.0
C187 C 1.04764 0.42253 0.45409 0.0
C188 C 1.08371 0.41607 0.42408 0.0
H189 H 0.99284 0.37032 0.49406 0.0
H190 H 1.03857 0.47372 0.46384 0.0
S191 S 1.12635 0.25033 0.38417 0.0
N192 N 1.08078 0.22535 0.41702 0.0
N193 N 1.13128 0.33664 0.38468 0.0
C194 C 1.09449 0.34862 0.41236 0.0
C195 C 1.06745 0.28844 0.4299 0.0
C196 C 0.7073 0.76703 0.80717 0.0
C197 C 0.66048 0.73637 0.82957 0.0
C198 C 0.70782 0.83808 0.79814 0.0
C199 C 0.66115 0.88208 0.81078 0.0
H200 H 0.74164 0.73517 0.79495 0.0
H201 H 0.74343 0.85792 0.77971 0.0
S202 S 0.54091 0.83168 0.87776 0.0
N203 N 0.57532 0.75852 0.86963 0.0
N204 N 0.57511 0.89154 0.85205 0.0
C205 C 0.61858 0.85358 0.8359 0.0
C206 C 0.61824 0.78096 0.84522 0.0
C207 C 0.8458 0.51615 0.1226 0.0
C208 C 0.88659 0.57966 0.12881 0.0
C209 C 0.7741 0.5131 0.11914 0.0
C210 C 0.73819 0.57324 0.12172 0.0
H211 H 0.86933 0.46803 0.11909 0.0
H212 H 0.74641 0.46338 0.11213 0.0
S213 S 0.81845 0.75291 0.13898 0.0
N214 N 0.88349 0.70456 0.13898 0.0
N215 N 0.74983 0.69855 0.13165 0.0
C216 C 0.77785 0.63674 0.12922 0.0
C217 C 0.85124 0.63998 0.13299 0.0
C218 C 0.32056 0.7214 0.44037 0.0
C219 C 0.28874 0.76737 0.46122 0.0
C220 C 0.28382 0.6639 0.42359 0.0
C221 C 0.21444 0.64997 0.42765 0.0
H222 H 0.3739 0.73103 0.43632 0.0
H223 H 0.30958 0.63041 0.40708 0.0
S224 S 1.10832 0.75266 0.48045 0.0
N225 N 0.18455 0.79451 0.48565 0.0
N226 N 1.11542 0.6851 0.45444 0.0
C227 C 0.18233 0.69439 0.44906 0.0
C228 C 0.21953 0.75363 0.46573 0.0
C229 C 0.6588 0.25224 0.83942 0.0
C230 C 0.60498 0.2895 0.82471 0.0
C231 C 0.66273 0.18069 0.8321 0.0
C232 C 0.61284 0.14304 0.80994 0.0
H233 H 0.70044 0.27924 0.85532 0.0
H234 H 0.70748 0.15606 0.84185 0.0
S235 S 0.45673 0.21157 0.76869 0.0
N236 N 0.49698 0.2798 0.78983 0.0
N237 N 0.5044 0.14596 0.77634 0.0
C238 C 0.55632 0.17798 0.79726 0.0
C239 C 0.55237 0.25084 0.80454 0.0
C240 C 0.73944 0.7855 0.54192 0.0
C241 C 0.68179 0.81116 0.52437 0.0
C242 C 0.74115 0.71436 0.55011 0.0
C243 C 0.68596 0.66572 0.54036 0.0
H244 H 0.78232 0.82118 0.55107 0.0
H245 H 0.78485 0.69769 0.56556 0.0
S246 S 0.52692 0.70393 0.48985 0.0
N247 N 0.57058 0.78094 0.49465 0.0
N248 N 0.5745 0.64693 0.50965 0.0
C249 C 0.62983 0.68974 0.52086 0.0
C250 C 0.62751 0.76252 0.51302 0.0
C251 C 1.12 0.42605 0.82039 0.0
C252 C 1.06006 0.42779 0.79826 0.0
C253 C 0.14936 0.48839 0.83643 0.0
C254 C 1.12486 0.55298 0.82672 0.0
H255 H 1.13282 0.37712 0.83218 0.0
H256 H 0.18587 0.48534 0.85883 0.0
S257 S 1.00991 0.58287 0.74814 0.0
N258 N 1.00791 0.49702 0.75172 0.0
N259 N 1.0626 0.61487 0.78086 0.0
C260 C 1.08227 0.55485 0.79575 0.0
C261 C 1.05243 0.49108 0.78018 0.0
C262 C 0.44229 0.88905 0.21523 0.0
C263 C 0.4015 0.93022 0.19343 0.0
C264 C 0.50636 0.91543 0.22949 0.0
C265 C 0.53239 0.98384 0.22233 0.0
H266 H 0.42444 0.83597 0.22145 0.0
H267 H 0.53565 0.88216 0.24649 0.0
S268 S 0.44591 0.1134 0.16727 0.0
N269 N 0.39172 0.04316 0.16557 0.0
N270 N 0.51273 0.09245 0.19218 0.0
C271 C 0.4929 1.02522 0.20007 0.0
C272 C 0.42735 0.99847 0.18565 0.0
C273 C 0.61213 0.28456 0.52367 0.0
C274 C 0.67299 0.25455 0.51861 0.0
C275 C 0.61201 0.35575 0.53251 0.0
C276 C 0.67244 0.39977 0.53575 0.0
H277 H 0.56486 0.25199 0.52312 0.0
H278 H 0.56489 0.37567 0.53878 0.0
S279 S 0.84388 0.34943 0.52075 0.0
N280 N 0.79444 0.2763 0.51426 0.0
N281 N 0.79363 0.40994 0.53048 0.0
C282 C 0.73277 0.37169 0.52833 0.0
C283 C 0.73318 0.29913 0.51982 0.0
C284 C 0.24844 0.81368 0.79662 0.0
C285 C 0.31143 0.79388 0.81086 0.0
C286 C 0.19547 0.81969 0.81857 0.0
C287 C 0.20434 0.79995 0.85412 0.0
H288 H 0.23651 0.81184 0.76845 0.0
H289 H 0.14472 0.821 0.80617 0.0
S290 S 0.36812 0.7919 0.90566 0.0
N291 N 0.38635 0.7909 0.86421 0.0
N292 N 0.28626 0.80113 0.90459 0.0
C293 C 0.27094 0.80578 0.8694 0.0
C294 C 0.32513 0.8005 0.84751 0.0
C295 C 0.84615 0.20814 0.21402 0.0
C296 C 0.8683 0.18227 0.18273 0.0
C297 C 0.79631 0.17052 0.23193 0.0
C298 C 0.76642 0.10532 0.21935 0.0
H299 H 0.8676 0.25807 0.22485 0.0
H300 H 0.78031 0.19331 0.2556 0.0
S301 S 0.80758 1.01316 0.13915 0.0
N302 N 0.85687 0.08693 0.14002 0.0
N303 N 0.76404 1.01525 0.17425 0.0
C304 C 0.78859 0.07821 0.18834 0.0
C305 C 0.83949 0.11672 0.17 0.0
C306 C 1.07614 0.66112 0.00468 0.0
C307 C 1.11101 0.6076 0.02125 0.0
C308 C 1.08339 0.67777 0.96933 0.0
C309 C 1.12563 0.64141 0.94929 0.0
H310 H 1.0427 0.69034 0.01905 0.0
H311 H 1.05498 0.71857 0.95745 0.0
S312 S 0.23262 0.50117 0.98054 0.0
N313 N 0.19225 0.52091 0.01498 0.0
N314 N 0.2061 0.55279 0.9488 0.0
C315 C 0.16182 0.58886 0.9656 0.0
C316 C 0.15438 0.57173 0.00148 0.0
C317 C 0.65225 0.97382 0.38908 0.0
C318 C 0.68135 0.03152 0.40924 0.0
C319 C 0.65007 0.97461 0.35231 0.0
C320 C 0.6758 0.03364 0.33419 0.0
H321 H 0.63114 0.92747 0.4018 0.0
H322 H 0.6277 0.92857 0.33796 0.0
S323 S 0.75451 0.1997 0.37508 0.0
N324 N 0.73621 0.14949 0.40867 0.0
N325 N 0.7294 0.15243 0.33956 0.0
C326 C 0.7051 0.09182 0.35416 0.0
C327 C 0.70846 0.09042 0.39166 0.0
C328 C 0.70463 0.48429 0.70752 0.0
C329 C 0.65709 0.52209 0.72335 0.0
C330 C 0.71 0.48623 0.67105 0.0
C331 C 0.66828 0.52628 0.64918 0.0
H332 H 0.73803 0.45299 0.72335 0.0
H333 H 0.74752 0.45676 0.65992 0.0
S334 S 0.53318 0.63172 0.67687 0.0
N335 N 0.56592 0.59923 0.7137 0.0
N336 N 0.57606 0.60196 0.64548 0.0
C337 C 0.62018 0.56367 0.66452 0.0
C338 C 0.61457 0.5618 0.70151 0.0
C339 C 0.71369 1.00112 0.64879 0.0
C340 C 0.66383 0.02935 0.62616 0.0
C341 C 0.70704 0.99633 0.68502 0.0
C342 C 0.65041 1.01973 0.69997 0.0
H343 H 0.75846 0.98276 0.63856 0.0
H344 H 0.74707 0.9752 0.70155 0.0
S345 S 0.50342 0.09383 0.65248 0.0
N346 N 0.55426 0.07869 0.6216 0.0
N347 N 0.54208 0.0689 0.68956 0.0
C348 C 0.59969 0.047 0.67774 0.0
C349 C 0.6063 0.05199 0.64089 0.0
C350 C 0.64229 0.58615 0.95559 0.0
C351 C 0.60158 0.53315 0.93672 0.0
C352 C 0.63815 0.5956 -0.00836 0.0
C353 C 0.5936 0.55206 0.01047 0.0
H354 H 0.67818 0.6206 0.94248 0.0
H355 H 0.67099 0.63684 0.00501 0.0
S356 S 0.47477 0.40643 0.97338 0.0
N357 N 0.51344 0.43789 0.93928 0.0
N358 N 0.50682 0.45465 0.00751 0.0
C359 C 0.55114 0.5 -0.00815 0.0
C360 C 0.5549 0.49075 0.95488 0.0
C361 C 1.11394 0.614 0.25916 0.0
C362 C 1.11869 0.55543 0.2377 0.0
C363 C 1.11712 0.60811 0.29576 0.0
C364 C 1.1269 0.54375 0.31229 0.0
H365 H 1.10668 0.66458 0.24756 0.0
H366 H 1.11167 0.65447 0.31119 0.0
S367 S 0.14735 0.37579 0.26725 0.0
N368 N 0.13483 0.43155 0.23501 0.0
N369 N 0.14487 0.42091 0.30395 0.0
C370 C 1.13267 0.48488 0.29092 0.0
C371 C 1.12769 0.49066 0.25359 0.0
loop_
_geom_bond_atom_site_label_1
_geom_bond_atom_site_label_2
_geom_bond_distance
_geom_bond_site_symmetry_2
_ccdc_geom_bond_type
Dy0 O3 2.307 1_455 S
Dy0 O5 2.395 . S
Dy0 O6 2.379 . S
Dy0 O8 2.339 . S
Dy0 O10 2.298 . S
Dy0 O14 2.275 . S
Dy0 C22 2.738 . S
Dy1 O4 2.298 . S
Dy1 O7 2.275 . S
Dy1 O9 2.307 1_655 S
Dy1 O11 2.395 . S
Dy1 O12 2.379 . S
Dy1 O15 2.339 . S
Dy1 C31 2.738 . S
C2 O14 1.254 . S
C2 O15 1.257 1_455 S
O3 Dy0 2.307 1_655 S
O3 C13 1.266 . S
O4 Dy1 2.298 . S
O4 C13 1.236 . S
O5 Dy0 2.395 . S
O5 C22 1.255 . S
O6 Dy0 2.379 . S
O6 C22 1.249 . S
O7 Dy1 2.275 . S
O7 C23 1.254 1_655 S
O8 Dy0 2.339 . S
O8 C23 1.257 . S
O9 Dy1 2.307 1_455 S
O9 C24 1.266 . S
O10 Dy0 2.298 . S
O10 C24 1.236 . S
O11 Dy1 2.395 . S
O11 C31 1.255 . S
O12 Dy1 2.379 . S
O12 C31 1.249 . S
C13 O3 1.266 . S
C13 O4 1.236 . S
O14 Dy0 2.275 . S
O14 C2 1.254 . S
O15 Dy1 2.339 . S
O15 C2 1.257 1_655 S
C16 C19 1.344 . S
C16 C20 1.328 . S
C16 C22 1.516 . S
C17 C18 1.304 . S
C17 C21 1.323 . S
C18 C17 1.304 . S
C18 C19 1.371 . S
C18 H32 0.930 . S
C19 C16 1.344 . S
C19 C18 1.371 . S
C19 H33 0.931 . S
C20 C16 1.328 . S
C20 C21 1.433 . S
C20 H34 0.931 . S
C21 C17 1.323 . S
C21 C20 1.433 . S
C21 H35 0.933 . S
C22 Dy0 2.738 . S
C22 O5 1.255 . S
C22 O6 1.249 . S
C22 C16 1.516 . S
C23 O7 1.254 1_455 S
C23 O8 1.257 . S
C24 O9 1.266 . S
C24 O10 1.236 . S
C25 C28 1.344 . S
C25 C29 1.328 . S
C25 C31 1.516 . S
C26 C27 1.304 . S
C26 C30 1.323 . S
C27 C26 1.304 . S
C27 C28 1.371 . S
C27 H36 0.930 . S
C28 C25 1.344 . S
C28 C27 1.371 . S
C28 H37 0.931 . S
C29 C25 1.328 . S
C29 C30 1.433 . S
C29 H38 0.931 . S
C30 C26 1.323 . S
C30 C29 1.433 . S
C30 H39 0.933 . S
C31 Dy1 2.738 . S
C31 O11 1.255 . S
C31 O12 1.249 . S
C31 C25 1.516 . S
H32 C18 0.930 . S
H33 C19 0.931 . S
H34 C20 0.931 . S
H35 C21 0.933 . S
H36 C27 0.930 . S
H37 C28 0.931 . S
H38 C29 0.931 . S
H39 C30 0.933 . S
Dy40 O43 2.307 1_565 S
Dy40 O45 2.395 . S
Dy40 O46 2.379 . S
Dy40 O48 2.339 . S
Dy40 O50 2.298 . S
Dy40 O54 2.275 1_565 S
Dy40 C62 2.738 . S
Dy41 O44 2.298 . S
Dy41 O47 2.275 . S
Dy41 O49 2.307 1_545 S
Dy41 O51 2.395 . S
Dy41 O52 2.379 . S
Dy41 O55 2.339 . S
Dy41 C71 2.738 . S
C42 O54 1.254 . S
C42 O55 1.257 . S
O43 Dy40 2.307 1_545 S
O43 C53 1.266 . S
O44 Dy41 2.298 . S
O44 C53 1.236 . S
O45 Dy40 2.395 . S
O45 C62 1.255 . S
O46 Dy40 2.379 . S
O46 C62 1.249 . S
O47 Dy41 2.275 . S
O47 C63 1.254 . S
O48 Dy40 2.339 . S
O48 C63 1.257 1_565 S
O49 Dy41 2.307 1_565 S
O49 C64 1.266 . S
O50 Dy40 2.298 . S
O50 C64 1.236 . S
O51 Dy41 2.395 . S
O51 C71 1.255 . S
O52 Dy41 2.379 . S
O52 C71 1.249 . S
C53 O43 1.266 . S
C53 O44 1.236 . S
O54 Dy40 2.275 1_545 S
O54 C42 1.254 . S
O55 Dy41 2.339 . S
O55 C42 1.257 . S
C56 C59 1.344 . S
C56 C60 1.328 . S
C56 C62 1.516 . S
C57 C58 1.304 . S
C57 C61 1.323 . S
C58 C57 1.304 . S
C58 C59 1.371 . S
C58 H72 0.930 . S
C59 C56 1.344 . S
C59 C58 1.371 . S
C59 H73 0.931 . S
C60 C56 1.328 . S
C60 C61 1.433 . S
C60 H74 0.931 . S
C61 C57 1.323 . S
C61 C60 1.433 . S
C61 H75 0.933 . S
C62 Dy40 2.738 . S
C62 O45 1.255 . S
C62 O46 1.249 . S
C62 C56 1.516 . S
C63 O47 1.254 . S
C63 O48 1.257 1_545 S
C64 O49 1.266 . S
C64 O50 1.236 . S
C65 C68 1.344 . S
C65 C69 1.328 . S
C65 C71 1.516 . S
C66 C67 1.304 . S
C66 C70 1.323 . S
C67 C66 1.304 . S
C67 C68 1.371 . S
C67 H76 0.930 . S
C68 C65 1.344 . S
C68 C67 1.371 . S
C68 H77 0.931 . S
C69 C65 1.328 . S
C69 C70 1.433 . S
C69 H78 0.931 . S
C70 C66 1.323 . S
C70 C69 1.433 . S
C70 H79 0.933 . S
C71 Dy41 2.738 . S
C71 O51 1.255 . S
C71 O52 1.249 . S
C71 C65 1.516 . S
H72 C58 0.930 . S
H73 C59 0.931 . S
H74 C60 0.931 . S
H75 C61 0.933 . S
H76 C67 0.930 . S
H77 C68 0.931 . S
H78 C69 0.931 . S
H79 C70 0.933 . S
Dy80 O83 2.307 . S
Dy80 O85 2.395 . S
Dy80 O86 2.379 . S
Dy80 O88 2.339 . S
Dy80 O90 2.298 . S
Dy80 O94 2.275 . S
Dy80 C102 2.738 . S
Dy81 O84 2.298 . S
Dy81 O87 2.275 . S
Dy81 O89 2.307 . S
Dy81 O91 2.395 . S
Dy81 O92 2.379 . S
Dy81 O95 2.339 . S
Dy81 C111 2.738 . S
C82 O94 1.254 . S
C82 O95 1.257 . S
O83 Dy80 2.307 . S
O83 C93 1.266 . S
O84 Dy81 2.298 . S
O84 C93 1.236 . S
O85 Dy80 2.395 . S
O85 C102 1.255 . S
O86 Dy80 2.379 . S
O86 C102 1.249 . S
O87 Dy81 2.275 . S
O87 C103 1.254 . S
O88 Dy80 2.339 . S
O88 C103 1.257 . S
O89 Dy81 2.307 . S
O89 C104 1.266 . S
O90 Dy80 2.298 . S
O90 C104 1.236 . S
O91 Dy81 2.395 . S
O91 C111 1.255 . S
O92 Dy81 2.379 . S
O92 C111 1.249 . S
C93 O83 1.266 . S
C93 O84 1.236 . S
O94 Dy80 2.275 . S
O94 C82 1.254 . S
O95 Dy81 2.339 . S
O95 C82 1.257 . S
C96 C99 1.344 . S
C96 C100 1.328 . S
C96 C102 1.516 . S
C97 C98 1.304 . S
C97 C101 1.323 . S
C98 C97 1.304 . S
C98 C99 1.371 . S
C98 H112 0.930 . S
C99 C96 1.344 . S
C99 C98 1.371 . S
C99 H113 0.931 . S
C100 C96 1.328 . S
C100 C101 1.433 . S
C100 H114 0.931 . S
C101 C97 1.323 . S
C101 C100 1.433 . S
C101 H115 0.933 . S
C102 Dy80 2.738 . S
C102 O85 1.255 . S
C102 O86 1.249 . S
C102 C96 1.516 . S
C103 O87 1.254 . S
C103 O88 1.257 . S
C104 O89 1.266 . S
C104 O90 1.236 . S
C105 C108 1.344 . S
C105 C109 1.328 . S
C105 C111 1.516 . S
C106 C107 1.304 . S
C106 C110 1.323 . S
C107 C106 1.304 . S
C107 C108 1.371 . S
C107 H116 0.930 . S
C108 C105 1.344 . S
C108 C107 1.371 . S
C108 H117 0.931 . S
C109 C105 1.328 . S
C109 C110 1.433 . S
C109 H118 0.931 . S
C110 C106 1.323 . S
C110 C109 1.433 . S
C110 H119 0.933 . S
C111 Dy81 2.738 . S
C111 O91 1.255 . S
C111 O92 1.249 . S
C111 C105 1.516 . S
H112 C98 0.930 . S
H113 C99 0.931 . S
H114 C100 0.931 . S
H115 C101 0.933 . S
H116 C107 0.930 . S
H117 C108 0.931 . S
H118 C109 0.931 . S
H119 C110 0.933 . S
H120 C123 0.931 1_565 S
H121 C126 0.928 . S
H122 C128 0.930 . S
C123 H120 0.931 1_545 S
C123 C124 1.413 . S
C123 C125 1.360 . S
C124 C123 1.413 . S
C124 C128 1.429 . S
C125 C123 1.360 . S
C125 C126 1.372 . S
C126 H121 0.928 . S
C126 C125 1.372 . S
C126 C127 1.404 . S
C127 C126 1.404 . S
C127 C128 1.391 . S
C128 H122 0.930 . S
C128 C124 1.429 . S
C128 C127 1.391 . S
H129 C132 0.931 . S
H130 C135 0.928 . S
H131 C137 0.930 . S
C132 H129 0.931 . S
C132 C133 1.413 . S
C132 C134 1.360 . S
C133 C132 1.413 . S
C133 C137 1.429 . S
C134 C132 1.360 . S
C134 C135 1.372 . S
C135 H130 0.928 . S
C135 C134 1.372 . S
C135 C136 1.404 . S
C136 C135 1.404 . S
C136 C137 1.391 . S
C137 H131 0.930 . S
C137 C133 1.429 . S
C137 C136 1.391 . S
H138 C141 0.931 . S
H139 C144 0.928 . S
H140 C146 0.930 . S
C141 H138 0.931 . S
C141 C142 1.413 . S
C141 C143 1.360 1_655 S
C142 C141 1.413 . S
C142 C146 1.429 1_655 S
C143 C141 1.360 1_455 S
C143 C144 1.372 . S
C144 H139 0.928 . S
C144 C143 1.372 . S
C144 C145 1.404 . S
C145 C144 1.404 . S
C145 C146 1.391 . S
C146 H140 0.930 . S
C146 C142 1.429 1_455 S
C146 C145 1.391 . S
H147 C150 0.931 . S
H148 C153 0.928 . S
H149 C155 0.930 . S
C150 H147 0.931 . S
C150 C151 1.413 . S
C150 C152 1.360 1_655 S
C151 C150 1.413 . S
C151 C155 1.429 1_655 S
C152 C150 1.360 1_455 S
C152 C153 1.372 . S
C153 H148 0.928 . S
C153 C152 1.372 . S
C153 C154 1.404 . S
C154 C153 1.404 . S
C154 C155 1.391 . S
C155 H149 0.930 . S
C155 C151 1.429 1_455 S
C155 C154 1.391 . S
H156 C159 0.931 . S
H157 C162 0.928 . S
H158 C164 0.930 . S
C159 H156 0.931 . S
C159 C160 1.413 . S
C159 C161 1.360 . S
C160 C159 1.413 . S
C160 C164 1.439 . S
C161 C159 1.360 . S
C161 C162 1.372 1_545 S
C162 H157 0.928 . S
C162 C161 1.372 1_565 S
C162 C163 1.404 . S
C163 C162 1.404 . S
C163 C164 1.381 1_565 S
C164 H158 0.930 . S
C164 C160 1.439 . S
C164 C163 1.381 1_545 S
H165 C168 0.931 . S
H166 C171 0.928 . S
H167 C173 0.930 . S
C168 H165 0.931 . S
C168 C169 1.413 . S
C168 C170 1.360 . S
C169 C168 1.413 . S
C169 C173 1.429 . S
C170 C168 1.360 . S
C170 C171 1.372 . S
C171 H166 0.928 . S
C171 C170 1.372 . S
C171 C172 1.404 . S
C172 C171 1.404 . S
C172 C173 1.391 . S
C173 H167 0.930 . S
C173 C169 1.429 . S
C173 C172 1.391 . S
C174 C175 1.369 . S
C174 C176 1.419 . S
C174 H178 0.930 . S
C175 C174 1.369 . S
C175 C184 1.429 . S
C176 C174 1.419 . S
C176 C177 1.363 . S
C176 H179 0.929 . S
C177 C176 1.363 . S
C177 C183 1.428 . S
H178 C174 0.930 . S
H179 C176 0.929 . S
S180 N181 1.613 . S
S180 N182 1.610 . S
N181 S180 1.613 . S
N181 C184 1.350 . S
N182 S180 1.610 . S
N182 C183 1.351 . S
C183 C177 1.428 . S
C183 N182 1.351 . S
C183 C184 1.434 . S
C184 C175 1.429 . S
C184 N181 1.350 . S
C184 C183 1.434 . S
C185 C186 1.369 . S
C185 C187 1.419 . S
C185 H189 0.930 . S
C186 C185 1.369 . S
C186 C195 1.429 . S
C187 C185 1.419 . S
C187 C188 1.363 . S
C187 H190 0.929 . S
C188 C187 1.363 . S
C188 C194 1.428 . S
H189 C185 0.930 . S
H190 C187 0.929 . S
S191 N192 1.613 . S
S191 N193 1.610 . S
N192 S191 1.613 . S
N192 C195 1.350 . S
N193 S191 1.610 . S
N193 C194 1.351 . S
C194 C188 1.428 . S
C194 N193 1.351 . S
C194 C195 1.434 . S
C195 C186 1.429 . S
C195 N192 1.350 . S
C195 C194 1.434 . S
C196 C197 1.369 . S
C196 C198 1.419 . S
C196 H200 0.930 . S
C197 C196 1.369 . S
C197 C206 1.429 . S
C198 C196 1.419 . S
C198 C199 1.363 . S
C198 H201 0.929 . S
C199 C198 1.363 . S
C199 C205 1.428 . S
H200 C196 0.930 . S
H201 C198 0.929 . S
S202 N203 1.613 . S
S202 N204 1.610 . S
N203 S202 1.613 . S
N203 C206 1.350 . S
N204 S202 1.610 . S
N204 C205 1.351 . S
C205 C199 1.428 . S
C205 N204 1.351 . S
C205 C206 1.434 . S
C206 C197 1.429 . S
C206 N203 1.350 . S
C206 C205 1.434 . S
C207 C208 1.369 . S
C207 C209 1.419 . S
C207 H211 0.930 . S
C208 C207 1.369 . S
C208 C217 1.429 . S
C209 C207 1.419 . S
C209 C210 1.363 . S
C209 H212 0.929 . S
C210 C209 1.363 . S
C210 C216 1.428 . S
H211 C207 0.930 . S
H212 C209 0.929 . S
S213 N214 1.613 . S
S213 N215 1.610 . S
N214 S213 1.613 . S
N214 C217 1.350 . S
N215 S213 1.610 . S
N215 C216 1.351 . S
C216 C210 1.428 . S
C216 N215 1.351 . S
C216 C217 1.434 . S
C217 C208 1.429 . S
C217 N214 1.350 . S
C217 C216 1.434 . S
C218 C219 1.369 . S
C218 C220 1.419 . S
C218 H222 0.930 . S
C219 C218 1.369 . S
C219 C228 1.429 . S
C220 C218 1.419 . S
C220 C221 1.363 . S
C220 H223 0.929 . S
C221 C220 1.363 . S
C221 C227 1.428 . S
H222 C218 0.930 . S
H223 C220 0.929 . S
S224 N225 1.613 . S
S224 N226 1.610 . S
N225 S224 1.613 . S
N225 C228 1.350 . S
N226 S224 1.610 . S
N226 C227 1.351 . S
C227 C221 1.428 . S
C227 N226 1.351 . S
C227 C228 1.434 . S
C228 C219 1.429 . S
C228 N225 1.350 . S
C228 C227 1.434 . S
C229 C230 1.369 . S
C229 C231 1.419 . S
C229 H233 0.930 . S
C230 C229 1.369 . S
C230 C239 1.429 . S
C231 C229 1.419 . S
C231 C232 1.363 . S
C231 H234 0.929 . S
C232 C231 1.363 . S
C232 C238 1.428 . S
H233 C229 0.930 . S
H234 C231 0.929 . S
S235 N236 1.613 . S
S235 N237 1.610 . S
N236 S235 1.613 . S
N236 C239 1.350 . S
N237 S235 1.610 . S
N237 C238 1.351 . S
C238 C232 1.428 . S
C238 N237 1.351 . S
C238 C239 1.434 . S
C239 C230 1.429 . S
C239 N236 1.350 . S
C239 C238 1.434 . S
C240 C241 1.369 . S
C240 C242 1.419 . S
C240 H244 0.930 . S
C241 C240 1.369 . S
C241 C250 1.429 . S
C242 C240 1.419 . S
C242 C243 1.363 . S
C242 H245 0.929 . S
C243 C242 1.363 . S
C243 C249 1.428 . S
H244 C240 0.930 . S
H245 C242 0.929 . S
S246 N247 1.613 . S
S246 N248 1.610 . S
N247 S246 1.613 . S
N247 C250 1.350 . S
N248 S246 1.610 . S
N248 C249 1.351 . S
C249 C243 1.428 . S
C249 N248 1.351 . S
C249 C250 1.434 . S
C250 C241 1.429 . S
C250 N247 1.350 . S
C250 C249 1.434 . S
C251 C252 1.369 . S
C251 C253 1.419 . S
C251 H255 0.930 . S
C252 C251 1.369 . S
C252 C261 1.429 . S
C253 C251 1.419 . S
C253 C254 1.363 . S
C253 H256 0.929 . S
C254 C253 1.363 . S
C254 C260 1.428 . S
H255 C251 0.930 . S
H256 C253 0.929 . S
S257 N258 1.613 . S
S257 N259 1.610 . S
N258 S257 1.613 . S
N258 C261 1.350 . S
N259 S257 1.610 . S
N259 C260 1.351 . S
C260 C254 1.428 . S
C260 N259 1.351 . S
C260 C261 1.434 . S
C261 C252 1.429 . S
C261 N258 1.350 . S
C261 C260 1.434 . S
C262 C263 1.369 . S
C262 C264 1.419 . S
C262 H266 0.930 . S
C263 C262 1.369 . S
C263 C272 1.429 . S
C264 C262 1.419 . S
C264 C265 1.363 . S
C264 H267 0.929 . S
C265 C264 1.363 . S
C265 C271 1.428 1_565 S
H266 C262 0.930 . S
H267 C264 0.929 . S
S268 N269 1.613 . S
S268 N270 1.610 . S
N269 S268 1.613 . S
N269 C272 1.350 1_545 S
N270 S268 1.610 . S
N270 C271 1.351 . S
C271 C265 1.428 1_545 S
C271 N270 1.351 . S
C271 C272 1.434 1_545 S
C272 C263 1.429 . S
C272 N269 1.350 1_565 S
C272 C271 1.434 1_565 S
C273 C274 1.369 . S
C273 C275 1.419 . S
C273 H277 0.930 . S
C274 C273 1.369 . S
C274 C283 1.429 . S
C275 C273 1.419 . S
C275 C276 1.363 . S
C275 H278 0.929 . S
C276 C275 1.363 . S
C276 C282 1.428 . S
H277 C273 0.930 . S
H278 C275 0.929 . S
S279 N280 1.613 . S
S279 N281 1.610 . S
N280 S279 1.613 . S
N280 C283 1.350 . S
N281 S279 1.610 . S
N281 C282 1.351 . S
C282 C276 1.428 . S
C282 N281 1.351 . S
C282 C283 1.434 . S
C283 C274 1.429 . S
C283 N280 1.350 . S
C283 C282 1.434 . S
C284 C285 1.369 . S
C284 C286 1.419 . S
C284 H288 0.930 . S
C285 C284 1.369 . S
C285 C294 1.429 . S
C286 C284 1.419 . S
C286 C287 1.363 . S
C286 H289 0.929 . S
C287 C286 1.363 . S
C287 C293 1.428 . S
H288 C284 0.930 . S
H289 C286 0.929 . S
S290 N291 1.613 . S
S290 N292 1.610 . S
N291 S290 1.613 . S
N291 C294 1.350 . S
N292 S290 1.610 . S
N292 C293 1.351 . S
C293 C287 1.428 . S
C293 N292 1.351 . S
C293 C294 1.434 . S
C294 C285 1.429 . S
C294 N291 1.350 . S
C294 C293 1.434 . S
C295 C296 1.369 . S
C295 C297 1.419 . S
C295 H299 0.930 . S
C296 C295 1.369 . S
C296 C305 1.429 . S
C297 C295 1.419 . S
C297 C298 1.363 . S
C297 H300 0.929 . S
C298 C297 1.363 . S
C298 C304 1.428 . S
H299 C295 0.930 . S
H300 C297 0.929 . S
S301 N302 1.613 . S
S301 N303 1.610 . S
N302 S301 1.613 . S
N302 C305 1.350 . S
N303 S301 1.610 . S
N303 C304 1.351 . S
C304 C298 1.428 . S
C304 N303 1.351 . S
C304 C305 1.434 . S
C305 C296 1.429 . S
C305 N302 1.350 . S
C305 C304 1.434 . S
C306 C307 1.369 . S
C306 C308 1.419 . S
C306 H310 0.930 . S
C307 C306 1.369 . S
C307 C316 1.429 1_455 S
C308 C306 1.419 . S
C308 C309 1.363 1_554 S
C308 H311 0.929 . S
C309 C308 1.363 1_556 S
C309 C315 1.428 1_455 S
H310 C306 0.930 . S
H311 C308 0.929 . S
S312 N313 1.623 . S
S312 N314 1.603 1_554 S
N313 S312 1.623 . S
N313 C316 1.350 . S
N314 S312 1.603 1_556 S
N314 C315 1.351 . S
C315 C309 1.428 1_655 S
C315 N314 1.351 . S
C315 C316 1.434 1_556 S
C316 C307 1.429 1_655 S
C316 N313 1.350 . S
C316 C315 1.434 1_554 S
C317 C318 1.369 1_565 S
C317 C319 1.419 . S
C317 H321 0.930 . S
C318 C317 1.369 1_545 S
C318 C327 1.429 . S
C319 C317 1.419 . S
C319 C320 1.363 1_565 S
C319 H322 0.929 . S
C320 C319 1.363 1_545 S
C320 C326 1.428 . S
H321 C317 0.930 . S
H322 C319 0.929 . S
S323 N324 1.613 . S
S323 N325 1.610 . S
N324 S323 1.613 . S
N324 C327 1.350 . S
N325 S323 1.610 . S
N325 C326 1.351 . S
C326 C320 1.428 . S
C326 N325 1.351 . S
C326 C327 1.434 . S
C327 C318 1.429 . S
C327 N324 1.350 . S
C327 C326 1.434 . S
C328 C329 1.369 . S
C328 C330 1.419 . S
C328 H332 0.930 . S
C329 C328 1.369 . S
C329 C338 1.429 . S
C330 C328 1.419 . S
C330 C331 1.363 . S
C330 H333 0.929 . S
C331 C330 1.363 . S
C331 C337 1.428 . S
H332 C328 0.930 . S
H333 C330 0.929 . S
S334 N335 1.613 . S
S334 N336 1.610 . S
N335 S334 1.613 . S
N335 C338 1.350 . S
N336 S334 1.610 . S
N336 C337 1.351 . S
C337 C331 1.428 . S
C337 N336 1.351 . S
C337 C338 1.434 . S
C338 C329 1.429 . S
C338 N335 1.350 . S
C338 C337 1.434 . S
C339 C340 1.371 . S
C339 C341 1.419 . S
C339 H343 0.930 . S
C340 C339 1.371 . S
C340 C349 1.428 1_545 S
C341 C339 1.419 . S
C341 C342 1.363 . S
C341 H344 0.929 . S
C342 C341 1.363 . S
C342 C348 1.428 1_545 S
H343 C339 0.930 . S
H344 C341 0.929 . S
S345 N346 1.613 . S
S345 N347 1.610 . S
N346 S345 1.613 . S
N346 C349 1.350 . S
N347 S345 1.610 . S
N347 C348 1.351 . S
C348 C342 1.428 1_565 S
C348 N347 1.351 . S
C348 C349 1.434 . S
C349 C340 1.428 1_565 S
C349 N346 1.350 . S
C349 C348 1.434 . S
C350 C351 1.369 . S
C350 C352 1.419 . S
C350 H354 0.930 . S
C351 C350 1.369 . S
C351 C360 1.429 . S
C352 C350 1.419 . S
C352 C353 1.363 1_556 S
C352 H355 0.929 . S
C353 C352 1.363 1_554 S
C353 C359 1.428 1_554 S
H354 C350 0.930 . S
H355 C352 0.929 . S
S356 N357 1.613 . S
S356 N358 1.610 1_556 S
N357 S356 1.613 . S
N357 C360 1.350 . S
N358 S356 1.610 1_554 S
N358 C359 1.351 1_554 S
C359 C353 1.428 1_556 S
C359 N358 1.351 1_556 S
C359 C360 1.434 . S
C360 C351 1.429 . S
C360 N357 1.350 . S
C360 C359 1.434 . S
C361 C362 1.361 1_655 S
C361 C363 1.419 . S
C361 H365 0.930 . S
C362 C361 1.361 1_455 S
C362 C371 1.436 . S
C363 C361 1.419 . S
C363 C364 1.358 1_655 S
C363 H366 0.929 . S
C364 C363 1.358 1_455 S
C364 C370 1.434 . S
H365 C361 0.930 . S
H366 C363 0.929 . S
S367 N368 1.613 . S
S367 N369 1.610 . S
N368 S367 1.613 . S
N368 C371 1.350 . S
N369 S367 1.610 . S
N369 C370 1.351 . S
C370 C364 1.434 . S
C370 N369 1.351 . S
C370 C371 1.434 . S
C371 C362 1.436 . S
C371 N368 1.350 . S
C371 C370 1.434 . S
C175 C24 2.987 . S
C177 C169 2.967 . S
C186 C66 1.463 . S
C188 C151 1.622 . S
C197 C93 1.825 . S
C199 C163 1.816 . S
C208 C13 3.021 . S
C210 C172 3.007 . S
C221 C154 1.579 . S
C219 C57 1.505 . S
C232 C160 1.857 . S
C230 C104 1.884 . S
C241 C64 1.860 . S
C243 C133 1.821 . S
C252 C97 1.170 . S
C254 C142 1.314 . S
C263 C17 1.632 . S
C265 C124 1.745 1_565 S
C276 C136 1.804 . S
C274 C53 1.826 . S
C287 C145 0.988 . S
C285 C106 0.860 . S
C296 C26 1.513 . S
C298 C127 1.676 . S
C309 C143 0.917 . S
C307 C2 0.916 . S
C318 C63 1.413 . S
C320 C125 1.466 . S
C329 C82 1.324 . S
C331 C134 1.338 . S
C342 C161 1.371 . S
C340 C42 1.356 . S
C353 C170 1.823 . S
C351 C103 1.764 . S
C362 C23 1.444 . S
C364 C152 1.479 . S
