# Generated by pormake.
# Topology apo, (3,6)-cn, num edge types: 1
# Building blocks:
#     Node 0, Type 0, BuildingBlock: CUQRIR_clean_linker_1, # of connection points: 3
#     Node 1, Type 0, BuildingBlock: CUQRIR_clean_linker_1, # of connection points: 3
#     Node 2, Type 0, BuildingBlock: CUQRIR_clean_linker_1, # of connection points: 3
#     Node 3, Type 0, BuildingBlock: CUQRIR_clean_linker_1, # of connection points: 3
#     Node 4, Type 0, BuildingBlock: CUQRIR_clean_linker_1, # of connection points: 3
#     Node 5, Type 0, BuildingBlock: CUQRIR_clean_linker_1, # of connection points: 3
#     Node 6, Type 0, BuildingBlock: CUQRIR_clean_linker_1, # of connection points: 3
#     Node 7, Type 0, BuildingBlock: CUQRIR_clean_linker_1, # of connection points: 3
#     Node 8, Type 1, BuildingBlock: KUMJIN_clean_sbu_1, # of connection points: 6
#     Node 9, Type 1, BuildingBlock: KUMJIN_clean_sbu_1, # of connection points: 6
#     Node 10, Type 1, BuildingBlock: KUMJIN_clean_sbu_1, # of connection points: 6
#     Node 11, Type 1, BuildingBlock: KUMJIN_clean_sbu_1, # of connection points: 6
#     Edge 12, Type (0, 1), None
#     Edge 13, Type (0, 1), None
#     Edge 14, Type (0, 1), None
#     Edge 15, Type (0, 1), None
#     Edge 16, Type (0, 1), None
#     Edge 17, Type (0, 1), None
#     Edge 18, Type (0, 1), None
#     Edge 19, Type (0, 1), None
#     Edge 20, Type (0, 1), None
#     Edge 21, Type (0, 1), None
#     Edge 22, Type (0, 1), None
#     Edge 23, Type (0, 1), None
#     Edge 24, Type (0, 1), None
#     Edge 25, Type (0, 1), None
#     Edge 26, Type (0, 1), None
#     Edge 27, Type (0, 1), None
#     Edge 28, Type (0, 1), None
#     Edge 29, Type (0, 1), None
#     Edge 30, Type (0, 1), None
#     Edge 31, Type (0, 1), None
#     Edge 32, Type (0, 1), None
#     Edge 33, Type (0, 1), None
#     Edge 34, Type (0, 1), None
#     Edge 35, Type (0, 1), None
# Relax obj value: 0.041
# Max RMSD: 0.317
# Mean RMSD: 0.234
data_MOF--net-apo--node1-KUMJIN_clean_sbu_1--node2-CUQRIR_clean_linker_1--edge1-none
_symmetry_space_group_name_H-M    P1
_symmetry_Int_Tables_number       1
_symmetry_cell_setting            triclinic
loop_
_symmetry_equiv_pos_as_xyz
'x, y, z'
_cell_length_a     12.540407
_cell_length_b     14.875975
_cell_length_c     23.765253
_cell_angle_alpha  89.996229
_cell_angle_beta   89.992426
_cell_angle_gamma 93.217349
loop_
_atom_site_label
_atom_site_type_symbol
_atom_site_fract_x
_atom_site_fract_y
_atom_site_fract_z
_atom_type_partial_charge
C0 C 0.20122 0.29493 0.38512 0.0
N1 N 0.26592 0.37234 0.38848 0.0
N2 N 0.13974 0.29187 0.33748 0.0
C3 C 0.18457 0.2304 0.43298 0.0
C4 C 0.16419 0.37321 0.31351 0.0
N5 N 0.25064 0.41412 0.33937 0.0
C6 C 0.07318 0.43009 0.29704 0.0
H7 H 0.17859 0.16068 0.41717 0.0
H8 H 0.108 0.24409 0.45343 0.0
H9 H 0.25033 0.23707 0.46404 0.0
H10 H 0.01446 0.39587 0.26846 0.0
H11 H 0.0988 0.4975 0.28152 0.0
H12 H 0.03011 0.44374 0.33611 0.0
C13 C 0.17705 0.22979 0.88503 0.0
N14 N 0.11238 0.15237 0.88841 0.0
N15 N 0.23868 0.23278 0.83743 0.0
C16 C 0.19345 0.29451 0.9328 0.0
C17 C 0.2143 0.15141 0.8135 0.0
N18 N 0.12776 0.11054 0.83933 0.0
C19 C 0.30539 0.09452 0.79716 0.0
H20 H 0.19886 0.36421 0.91688 0.0
H21 H 0.27024 0.2813 0.95316 0.0
H22 H 0.12785 0.28762 0.96396 0.0
H23 H 0.36393 0.12857 0.7684 0.0
H24 H 0.27984 0.02692 0.78192 0.0
H25 H 0.34869 0.08136 0.83624 0.0
C26 C 0.67288 0.22309 0.66648 0.0
N27 N 0.73643 0.15145 0.66292 0.0
N28 N 0.65147 0.24419 0.72091 0.0
C29 C 0.65329 0.28533 0.61853 0.0
C30 C 0.7224 0.19272 0.74865 0.0
N31 N 0.75473 0.12494 0.71519 0.0
C32 C 0.81641 0.24376 0.77395 0.0
H33 H 0.71191 0.27923 0.58427 0.0
H34 H 0.65972 0.35523 0.63426 0.0
H35 H 0.57229 0.27276 0.6019 0.0
H36 H 0.85573 0.20127 0.80494 0.0
H37 H 0.79518 0.31079 0.78763 0.0
H38 H 0.8779 0.25765 0.74084 0.0
C39 C 0.70553 0.30155 0.16652 0.0
N40 N 0.64175 0.37304 0.16302 0.0
N41 N 0.72688 0.28034 0.22093 0.0
C42 C 0.72571 0.23964 0.11849 0.0
C43 C 0.65566 0.33154 0.24869 0.0
N44 N 0.62334 0.39942 0.21531 0.0
C45 C 0.56149 0.28008 0.2736 0.0
H46 H 0.66768 0.24596 0.08399 0.0
H47 H 0.71897 0.16965 0.13405 0.0
H48 H 0.80701 0.25221 0.10226 0.0
H49 H 0.52132 0.32235 0.30439 0.0
H50 H 0.58286 0.21315 0.2874 0.0
H51 H 0.50065 0.26592 0.2402 0.0
C52 C 0.67695 0.72985 0.66624 0.0
N53 N 0.61232 0.6524 0.66277 0.0
N54 N 0.73875 0.73262 0.71375 0.0
C55 C 0.69264 0.7953 0.61881 0.0
C56 C 0.71447 0.65119 0.7376 0.0
N57 N 0.62792 0.61036 0.71176 0.0
C58 C 0.80556 0.59435 0.75401 0.0
H59 H 0.7703 0.78382 0.59885 0.0
H60 H 0.69605 0.86479 0.63514 0.0
H61 H 0.62782 0.7877 0.58727 0.0
H62 H 0.78004 0.52676 0.76929 0.0
H63 H 0.864 0.62843 0.7828 0.0
H64 H 0.84908 0.58125 0.71499 0.0
C65 C 0.70134 0.79494 0.16617 0.0
N66 N 0.76599 0.87237 0.16271 0.0
N67 N 0.63961 0.7921 0.21372 0.0
C68 C 0.6855 0.72963 0.11868 0.0
C69 C 0.66397 0.8735 0.2376 0.0
N70 N 0.75046 0.91436 0.21173 0.0
C71 C 0.57294 0.93033 0.25415 0.0
H72 H 0.60803 0.74146 0.09864 0.0
H73 H 0.68166 0.66011 0.13495 0.0
H74 H 0.7505 0.73707 0.08722 0.0
H75 H 0.59854 0.99771 0.26972 0.0
H76 H 0.51429 0.89605 0.28275 0.0
H77 H 0.52972 0.94399 0.21513 0.0
C78 C 0.20461 0.80105 0.38425 0.0
N79 N 0.14018 0.87209 0.38778 0.0
N80 N 0.22627 0.78007 0.32982 0.0
C81 C 0.22668 0.73989 0.43238 0.0
C82 C 0.15529 0.83143 0.30203 0.0
N83 N 0.12225 0.89881 0.33554 0.0
C84 C 0.06179 0.78039 0.2763 0.0
H85 H 0.30904 0.75212 0.44713 0.0
H86 H 0.21848 0.6697 0.41726 0.0
H87 H 0.17083 0.74713 0.46777 0.0
H88 H 0.08337 0.71339 0.26282 0.0
H89 H 0.02311 0.82293 0.24511 0.0
H90 H -0.00035 0.76649 0.30908 0.0
C91 C 0.17366 0.72352 0.88428 0.0
N92 N 0.23785 0.65232 0.88789 0.0
N93 N 0.15196 0.74436 0.82982 0.0
C94 C 0.15222 0.78507 0.9323 0.0
C95 C 0.22263 0.69268 0.80206 0.0
N96 N 0.25571 0.62545 0.83567 0.0
C97 C 0.31588 0.74323 0.77579 0.0
H98 H 0.07005 0.77302 0.94741 0.0
H99 H 0.16033 0.85515 0.91697 0.0
H100 H 0.20853 0.778 0.9675 0.0
H101 H 0.29445 0.81033 0.76246 0.0
H102 H 0.3535 0.70043 0.74436 0.0
H103 H 0.37881 0.75681 0.80818 0.0
Eu104 Eu 0.02909 0.11316 0.20263 0.0
C105 C 0.60765 0.0982 0.37026 0.0
N106 N 0.69458 0.15695 0.36799 0.0
C107 C 0.58848 0.27755 0.39981 0.0
C108 C 0.50495 0.13211 0.37893 0.0
C109 C 0.6862 0.24474 0.38438 0.0
C110 C 0.49655 0.22215 0.39401 0.0
C111 C 0.51127 0.95649 0.41523 0.0
C112 C 0.62083 1.00601 0.37775 0.0
C113 C 0.41756 0.98698 0.39604 0.0
C114 C 0.41327 0.07511 0.3777 0.0
Eu115 Eu 0.8617 0.09591 0.35682 0.0
N116 N 0.73865 0.96406 0.36828 0.0
C117 C 0.5065 0.85739 0.45524 0.0
C118 C 0.77714 0.8657 0.39192 0.0
C119 C 0.61514 0.78814 0.45759 0.0
H120 H 0.75593 0.28768 0.38931 0.0
H121 H 0.61424 0.73137 0.48573 0.0
H122 H 0.1884 0.93292 0.21627 0.0
H123 H 0.16759 0.48606 0.07861 0.0
H124 H 0.77803 0.93129 0.37208 0.0
H125 H 0.43622 0.83848 0.47925 0.0
H126 H 0.11957 0.36709 0.16303 0.0
H127 H 0.58349 0.34628 0.41367 0.0
H128 H 0.35042 0.93977 0.3928 0.0
H129 H 0.33662 0.10192 0.3687 0.0
H130 H 0.36369 0.88817 0.18834 0.0
H131 H 0.42008 0.24847 0.40368 0.0
H132 H 0.31175 0.39183 1.0233 0.0
N133 N 0.20903 0.06703 0.18428 0.0
C134 C 0.27173 0.11976 0.14908 0.0
C135 C 0.33494 0.95152 0.17468 0.0
C136 C 0.35561 0.08392 0.11785 0.0
C137 C 0.23936 0.98175 0.19529 0.0
C138 C 0.3894 0.99988 0.13303 0.0
N139 N 0.15988 0.2394 0.18266 0.0
C140 C 0.11072 0.33339 0.18148 0.0
C141 C 0.30293 0.26123 0.08504 0.0
C142 C 0.24795 0.2071 0.14231 0.0
C143 C 0.27334 0.36353 0.06046 0.0
C144 C 0.18288 0.42305 0.09484 0.0
H145 H 0.45672 0.97114 0.11253 0.0
H146 H 0.45615 0.09397 0.04457 0.0
H147 H 0.40919 0.24129 1.01611 0.0
O148 O -0.02265 0.15345 0.1169 0.0
O149 O 0.03168 0.23032 0.26541 0.0
O150 O 0.03417 0.1565 0.34856 0.0
O151 O 0.00817 0.01789 0.13343 0.0
O152 O 0.86695 0.18336 0.20545 0.0
O153 O 0.81424 0.21278 0.29738 0.0
O154 O 0.86446 0.05016 0.44434 0.0
O155 O 0.78422 0.02108 0.2818 0.0
O156 O 0.91819 0.989 0.21973 0.0
O157 O 0.87975 0.19147 0.42822 0.0
O158 O -0.01298 0.99335 0.35534 0.0
O159 O 0.07555 1.00712 0.26934 0.0
C160 C 0.06516 0.2266 0.31777 0.0
C161 C 0.05828 0.06753 0.04094 0.0
C162 C 0.10978 0.09998 0.94086 0.0
C163 C 0.18386 0.03322 0.94539 0.0
C164 C 0.13548 1.00263 0.04166 0.0
C165 C 0.19613 0.98576 0.99481 0.0
C166 C 0.04509 0.11705 0.98938 0.0
C167 C 0.8017 0.22146 0.24188 0.0
C168 C -0.00799 0.07601 0.09408 0.0
C169 C 0.40152 0.12828 0.07096 0.0
C170 C 0.37394 0.21309 0.05404 0.0
C171 C 0.81726 0.98111 0.23565 0.0
C172 C 0.79467 0.14277 0.51516 0.0
C173 C 0.75549 0.10101 0.61237 0.0
C174 C 0.66778 0.05277 0.591 0.0
C175 C 0.68348 0.13806 0.50711 0.0
C176 C 0.82854 0.13503 0.57174 0.0
C177 C 0.61874 0.08817 0.54463 0.0
C178 C 0.05981 0.96861 0.31965 0.0
C179 C 0.86898 0.12987 0.46691 0.0
H180 H 0.23435 0.01802 0.91018 0.0
H181 H 0.1497 0.96298 0.07869 0.0
H182 H 0.25216 0.93374 0.99671 0.0
H183 H -0.0135 0.16766 0.98727 0.0
H184 H 0.63177 0.99814 0.6142 0.0
H185 H 0.64818 0.15261 0.46868 0.0
H186 H 0.90819 0.15205 0.58481 0.0
H187 H 0.53843 0.06511 0.53278 0.0
Eu188 Eu 0.34937 0.41153 0.7027 0.0
C189 C 0.77088 0.42674 0.87006 0.0
N190 N 0.68399 0.36792 0.86808 0.0
C191 C 0.79032 0.24771 0.90022 0.0
C192 C 0.87366 0.39295 0.87866 0.0
C193 C 0.6925 0.2803 0.88478 0.0
C194 C 0.88221 0.30305 0.89402 0.0
C195 C 0.86721 0.56856 0.91489 0.0
C196 C 0.75762 0.51893 0.87747 0.0
C197 C -0.03907 0.53816 0.8956 0.0
C198 C -0.03472 0.45004 0.87727 0.0
Eu199 Eu 0.51678 0.42877 0.85684 0.0
N200 N 0.6397 0.56075 0.86808 0.0
C201 C 0.87188 0.66765 0.95491 0.0
C202 C 0.6011 0.65906 0.89174 0.0
C203 C 0.7631 0.73678 0.95734 0.0
H204 H 0.62285 0.23733 0.88994 0.0
H205 H 0.76393 0.79354 0.9855 0.0
H206 H 0.19095 0.59209 0.71585 0.0
H207 H 0.21127 0.03896 0.57885 0.0
H208 H 0.60028 0.59347 0.87191 0.0
H209 H -0.0578 0.6867 0.97884 0.0
H210 H 0.25873 0.15781 0.66327 0.0
H211 H 0.79543 0.17912 0.91434 0.0
H212 H 0.02814 0.5853 0.89242 0.0
H213 H 0.042 0.42331 0.86831 0.0
H214 H 0.01545 0.63702 0.68821 0.0
H215 H -0.04127 0.27685 0.90368 0.0
H216 H 0.06688 0.13301 0.52349 0.0
N217 N 0.16955 0.45782 0.6843 0.0
C218 C 0.10662 0.40505 0.64926 0.0
C219 C 0.04398 0.57356 0.67461 0.0
C220 C 0.02279 0.44093 0.61801 0.0
C221 C 0.13959 0.54326 0.69512 0.0
C222 C -0.01077 0.52509 0.63311 0.0
N223 N 0.2183 0.28543 0.68292 0.0
C224 C 0.26752 0.19149 0.68175 0.0
C225 C 0.07538 0.26355 0.58528 0.0
C226 C 0.13025 0.31769 0.64256 0.0
C227 C 0.10517 0.1613 0.56069 0.0
C228 C 0.19568 0.10185 0.5951 0.0
H229 H 0.92192 0.55386 0.61263 0.0
H230 H 0.92221 0.43082 0.54477 0.0
H231 H -0.03101 0.2834 0.5164 0.0
O232 O 0.40122 0.37133 0.61696 0.0
O233 O 0.34706 0.29434 0.76547 0.0
O234 O 0.34438 0.36803 0.84865 0.0
O235 O 0.37021 0.50685 0.63351 0.0
O236 O 0.51147 0.34124 0.70551 0.0
O237 O 0.56443 0.31189 0.79743 0.0
O238 O 0.51429 0.47465 0.94432 0.0
O239 O 0.5943 0.5035 0.78177 0.0
O240 O 0.46017 0.53574 0.71988 0.0
O241 O 0.49863 0.33332 0.9283 0.0
O242 O 0.39126 0.53118 0.85543 0.0
O243 O 0.3025 0.5172 0.76951 0.0
C244 C 0.31337 0.29802 0.8178 0.0
C245 C 0.32012 0.45721 0.541 0.0
C246 C 0.26858 0.42475 0.44092 0.0
C247 C 0.19455 0.49154 0.44545 0.0
C248 C 0.24292 0.52212 0.54172 0.0
C249 C 0.18227 0.53899 0.49487 0.0
C250 C 0.33327 0.40767 0.48944 0.0
C251 C 0.57676 0.30313 0.74191 0.0
C252 C 0.38642 0.44876 0.59414 0.0
C253 C -0.02323 0.39649 0.57119 0.0
C254 C 0.00427 0.31163 0.5543 0.0
C255 C 0.56115 0.54357 0.73569 0.0
C256 C 0.58392 0.38203 1.01519 0.0
C257 C 0.62249 0.4235 0.1125 0.0
C258 C 0.70988 0.47232 0.0913 0.0
C259 C 0.69513 0.38738 1.00723 0.0
C260 C 0.54983 0.38927 0.07177 0.0
C261 C 0.75936 0.43744 0.0449 0.0
C262 C 0.31823 0.5557 0.81981 0.0
C263 C 0.50963 0.39497 0.96694 0.0
H264 H 0.14408 0.50677 0.41024 0.0
H265 H 0.2287 0.56176 0.57875 0.0
H266 H 0.12623 0.59101 0.49678 0.0
H267 H 0.39182 0.35703 0.48734 0.0
H268 H 0.7456 0.52672 0.1148 0.0
H269 H 0.73071 0.37341 0.96875 0.0
H270 H 0.47027 0.37183 0.08477 0.0
H271 H 0.83961 0.46092 0.03318 0.0
Eu272 Eu 0.01655 0.92899 0.69419 0.0
C273 C 0.6075 0.9043 0.90243 0.0
N274 N 0.66961 0.95702 0.86695 0.0
C275 C 0.54325 0.07216 0.87666 0.0
C276 C 0.52361 0.94 0.93375 0.0
C277 C 0.63871 0.0421 0.85582 0.0
C278 C 0.48932 0.02384 0.91851 0.0
C279 C 0.57683 0.76283 0.96653 0.0
C280 C 0.63168 0.81705 0.90928 0.0
C281 C 0.50605 0.811 0.99769 0.0
C282 C 0.47812 0.89569 0.98075 0.0
Eu283 Eu 0.84961 0.91131 0.84839 0.0
N284 N 0.71957 0.78478 0.8688 0.0
C285 C 0.60619 0.66037 0.99093 0.0
C286 C 0.76857 0.69069 0.86982 0.0
C287 C 0.69641 0.6008 0.95641 0.0
H288 H 0.68909 0.09093 0.83445 0.0
H289 H 0.7113 0.53754 0.97247 0.0
H290 H 0.12328 0.73836 0.65931 0.0
H291 H 0.26238 0.29488 0.56627 0.0
H292 H 0.7597 0.6569 0.88821 0.0
H293 H 0.56767 0.63195 0.02803 0.0
H294 H 0.09956 0.09397 0.67965 0.0
H295 H 0.51417 0.1354 0.86303 0.0
H296 H 0.47096 0.78277 0.03564 0.0
H297 H 0.42332 0.92983 1.00715 0.0
H298 H 0.29613 0.6812 0.63457 0.0
H299 H 0.42204 0.05246 0.93911 0.0
H300 H 0.44116 0.1885 0.57275 0.0
N301 N 0.1839 0.8686 0.68252 0.0
C302 C 0.27066 0.92762 0.68107 0.0
C303 C 0.29075 0.7494 0.64936 0.0
C304 C 0.37361 0.8942 0.67244 0.0
C305 C 0.19272 0.78141 0.66501 0.0
C306 C 0.3825 0.80468 0.65633 0.0
N307 N 0.13908 0.0613 0.68336 0.0
C308 C 0.1001 0.15958 0.65987 0.0
C309 C 0.36666 0.06987 0.63656 0.0
C310 C 0.25716 0.01981 0.67389 0.0
C311 C 0.37095 0.16912 0.59663 0.0
C312 C 0.26185 0.23798 0.59429 0.0
H313 H 0.45917 0.77883 0.64658 0.0
H314 H 0.54182 0.92498 0.68316 0.0
H315 H 0.52774 0.08665 0.65895 0.0
O316 O 0.01472 0.97518 0.6068 0.0
O317 O 0.09405 1.00367 0.76932 0.0
O318 O -0.03992 0.03575 0.83137 0.0
O319 O -0.00224 0.83383 0.62262 0.0
O320 O 0.89047 0.03089 0.69543 0.0
O321 O 0.80224 0.01698 0.78152 0.0
O322 O 0.90114 0.87085 0.93408 0.0
O323 O 0.84715 0.7941 0.78569 0.0
O324 O 0.84427 0.86796 0.70254 0.0
O325 O 0.87109 1.00654 0.91761 0.0
O326 O 0.01192 0.84136 0.84522 0.0
O327 O 0.06485 0.81193 0.75327 0.0
C328 C 0.06098 0.04374 0.81542 0.0
C329 C 0.0838 0.8824 0.53584 0.0
C330 C 0.12058 0.92251 0.4382 0.0
C331 C 0.20703 0.97321 0.45865 0.0
C332 C 0.19508 0.88981 0.54345 0.0
C333 C 0.25773 0.94027 0.50525 0.0
C334 C 0.04906 0.88786 0.47931 0.0
C335 C 0.81754 0.05537 0.73111 0.0
C336 C 0.00955 0.89559 0.58408 0.0
C337 C 0.46499 0.95153 0.67423 0.0
C338 C 0.46046 0.03963 0.65591 0.0
C339 C 0.81345 0.79784 0.73337 0.0
C340 C 0.82058 0.95688 1.01008 0.0
C341 C 0.76876 0.9246 0.11018 0.0
C342 C 0.69491 0.99152 0.10557 0.0
C343 C 0.74363 0.02198 1.00932 0.0
C344 C 0.83355 0.9074 0.0617 0.0
C345 C 0.68297 0.03901 0.05613 0.0
C346 C 0.07715 0.80317 0.8088 0.0
C347 C 0.8869 0.9483 0.95695 0.0
H348 H 0.24183 0.02674 0.43408 0.0
H349 H 0.23147 0.87752 0.582 0.0
H350 H 0.33774 0.96509 0.51647 0.0
H351 H -0.03034 0.86936 0.46662 0.0
H352 H 0.64437 1.00687 0.14073 0.0
H353 H 0.72962 0.06166 0.97228 0.0
H354 H 0.89204 0.85672 0.06387 0.0
H355 H 0.62722 0.09122 0.05416 0.0
Eu356 Eu 0.36193 0.59571 0.1942 0.0
C357 C 0.77078 0.62051 0.40255 0.0
N358 N 0.70892 0.56786 0.36694 0.0
C359 C 0.83558 0.45292 0.37654 0.0
C360 C 0.8547 0.58482 0.43386 0.0
C361 C 0.74017 0.48294 0.35562 0.0
C362 C 0.88921 0.50111 0.41852 0.0
C363 C 0.80136 0.7619 0.46673 0.0
C364 C 0.74643 0.70773 0.4095 0.0
C365 C 0.87205 0.71366 0.4979 0.0
C366 C 0.90006 0.62904 0.48091 0.0
Eu367 Eu 0.52879 0.6134 0.34846 0.0
N368 N 0.65856 0.74007 0.36904 0.0
C369 C 0.77219 0.86439 0.49112 0.0
C370 C 0.60962 0.83421 0.37007 0.0
C371 C 0.68204 0.92406 0.45664 0.0
H372 H 0.69018 0.43413 0.33402 0.0
H373 H 0.66742 0.98742 0.4727 0.0
H374 H 0.25542 0.7867 0.1601 0.0
H375 H 0.11591 0.23006 0.06601 0.0
H376 H 0.61855 0.86801 0.38843 0.0
H377 H 0.81084 0.89281 0.52818 0.0
H378 H 0.27878 0.43078 0.17945 0.0
H379 H 0.86484 0.38978 0.36285 0.0
H380 H 0.9071 0.74184 0.53587 0.0
H381 H -0.04507 0.59489 0.50727 0.0
H382 H 0.0827 0.84425 0.13544 0.0
H383 H -0.04354 0.47249 0.43914 0.0
H384 H -0.06263 0.33669 0.07233 0.0
N385 N 0.19462 0.65625 0.18268 0.0
C386 C 0.10785 0.59726 0.18093 0.0
C387 C 0.08797 0.77587 0.14993 0.0
C388 C 0.00497 0.63079 0.17225 0.0
C389 C 0.1859 0.74364 0.16553 0.0
C390 C -0.00381 0.72048 0.15646 0.0
N391 N 0.2393 0.4635 0.18314 0.0
C392 C 0.27821 0.36518 0.15965 0.0
C393 C 0.01187 0.45516 0.13622 0.0
C394 C 0.12132 0.5051 0.17362 0.0
C395 C 0.00753 0.35594 0.09629 0.0
C396 C 0.11651 0.28698 0.09402 0.0
H397 H 0.91957 0.74644 0.14672 0.0
H398 H 0.83675 0.60011 0.18284 0.0
H399 H 0.85083 0.43835 0.15857 0.0
O400 O 0.36412 0.54969 0.10676 0.0
O401 O 0.28452 0.52084 0.26929 0.0
O402 O 0.41826 0.48899 0.33154 0.0
O403 O 0.38046 0.69102 0.12269 0.0
O404 O 0.4879 0.49374 0.19549 0.0
O405 O 0.5758 0.50741 0.28166 0.0
O406 O 0.47733 0.65392 0.43415 0.0
O407 O 0.53147 0.7306 0.28576 0.0
O408 O 0.53423 0.65667 0.20263 0.0
O409 O 0.5073 0.51821 0.41771 0.0
O410 O 0.36641 0.6832 0.34529 0.0
O411 O 0.31378 0.71269 0.25334 0.0
C412 C 0.31745 0.4809 0.31546 0.0
C413 C 0.29473 0.64242 0.03587 0.0
C414 C 0.25722 0.60194 0.93837 0.0
C415 C 0.17038 0.55192 0.95907 0.0
C416 C 0.18347 0.63578 0.04364 0.0
C417 C 0.12018 0.58552 1.00563 0.0
C418 C 0.32921 0.63637 0.97932 0.0
C419 C 0.56057 0.46903 0.23124 0.0
C420 C 0.36902 0.62933 0.0841 0.0
C421 C 0.91354 0.57353 0.17386 0.0
C422 C 0.91806 0.48544 0.1555 0.0
C423 C 0.56501 0.72686 0.2334 0.0
C424 C 0.55781 0.56789 0.51016 0.0
C425 C 0.60963 0.60021 0.61023 0.0
C426 C 0.68356 0.53334 0.6056 0.0
C427 C 0.63478 0.50282 0.50938 0.0
C428 C 0.5448 0.61735 0.56178 0.0
C429 C 0.69548 0.48584 0.55617 0.0
C430 C 0.30124 0.72134 0.30885 0.0
C431 C 0.4915 0.57646 0.45704 0.0
H432 H 0.13524 0.49806 0.9349 0.0
H433 H 0.14739 0.64871 0.08215 0.0
H434 H 0.04008 0.56118 1.01705 0.0
H435 H 0.4087 0.65442 0.96651 0.0
H436 H 0.73415 0.51804 0.64075 0.0
H437 H 0.6488 0.46313 0.47234 0.0
H438 H 0.48625 0.66799 0.56396 0.0
H439 H 0.75126 0.43366 0.55419 0.0
loop_
_geom_bond_atom_site_label_1
_geom_bond_atom_site_label_2
_geom_bond_distance
_geom_bond_site_symmetry_2
_ccdc_geom_bond_type
C0 N1 1.317 . S
C0 N2 1.348 . S
C0 C3 1.485 . S
N1 C0 1.317 . S
N1 N5 1.370 . S
N2 C0 1.348 . S
N2 C4 1.346 . S
C3 C0 1.485 . S
C3 H7 0.960 . S
C3 H8 0.961 . S
C3 H9 0.960 . S
C4 N2 1.346 . S
C4 N5 1.307 . S
C4 C6 1.486 . S
N5 N1 1.370 . S
N5 C4 1.307 . S
C6 C4 1.486 . S
C6 H10 0.960 . S
C6 H11 0.960 . S
C6 H12 0.959 . S
H7 C3 0.960 . S
H8 C3 0.961 . S
H9 C3 0.960 . S
H10 C6 0.960 . S
H11 C6 0.960 . S
H12 C6 0.959 . S
C13 N14 1.317 . S
C13 N15 1.348 . S
C13 C16 1.485 . S
N14 C13 1.317 . S
N14 N18 1.370 . S
N15 C13 1.348 . S
N15 C17 1.346 . S
C16 C13 1.485 . S
C16 H20 0.960 . S
C16 H21 0.961 . S
C16 H22 0.960 . S
C17 N15 1.346 . S
C17 N18 1.307 . S
C17 C19 1.486 . S
N18 N14 1.370 . S
N18 C17 1.307 . S
C19 C17 1.486 . S
C19 H23 0.960 . S
C19 H24 0.960 . S
C19 H25 0.959 . S
H20 C16 0.960 . S
H21 C16 0.961 . S
H22 C16 0.960 . S
H23 C19 0.960 . S
H24 C19 0.960 . S
H25 C19 0.959 . S
C26 N27 1.317 . S
C26 N28 1.348 . S
C26 C29 1.485 . S
N27 C26 1.317 . S
N27 N31 1.370 . S
N28 C26 1.348 . S
N28 C30 1.346 . S
C29 C26 1.485 . S
C29 H33 0.960 . S
C29 H34 0.961 . S
C29 H35 0.960 . S
C30 N28 1.346 . S
C30 N31 1.307 . S
C30 C32 1.486 . S
N31 N27 1.370 . S
N31 C30 1.307 . S
C32 C30 1.486 . S
C32 H36 0.960 . S
C32 H37 0.960 . S
C32 H38 0.959 . S
H33 C29 0.960 . S
H34 C29 0.961 . S
H35 C29 0.960 . S
H36 C32 0.960 . S
H37 C32 0.960 . S
H38 C32 0.959 . S
C39 N40 1.317 . S
C39 N41 1.348 . S
C39 C42 1.485 . S
N40 C39 1.317 . S
N40 N44 1.370 . S
N41 C39 1.348 . S
N41 C43 1.346 . S
C42 C39 1.485 . S
C42 H46 0.960 . S
C42 H47 0.961 . S
C42 H48 0.960 . S
C43 N41 1.346 . S
C43 N44 1.307 . S
C43 C45 1.486 . S
N44 N40 1.370 . S
N44 C43 1.307 . S
C45 C43 1.486 . S
C45 H49 0.960 . S
C45 H50 0.960 . S
C45 H51 0.959 . S
H46 C42 0.960 . S
H47 C42 0.961 . S
H48 C42 0.960 . S
H49 C45 0.960 . S
H50 C45 0.960 . S
H51 C45 0.959 . S
C52 N53 1.317 . S
C52 N54 1.348 . S
C52 C55 1.485 . S
N53 C52 1.317 . S
N53 N57 1.370 . S
N54 C52 1.348 . S
N54 C56 1.346 . S
C55 C52 1.485 . S
C55 H59 0.960 . S
C55 H60 0.961 . S
C55 H61 0.960 . S
C56 N54 1.346 . S
C56 N57 1.307 . S
C56 C58 1.486 . S
N57 N53 1.370 . S
N57 C56 1.307 . S
C58 C56 1.486 . S
C58 H62 0.960 . S
C58 H63 0.960 . S
C58 H64 0.959 . S
H59 C55 0.960 . S
H60 C55 0.961 . S
H61 C55 0.960 . S
H62 C58 0.960 . S
H63 C58 0.960 . S
H64 C58 0.959 . S
C65 N66 1.317 . S
C65 N67 1.348 . S
C65 C68 1.485 . S
N66 C65 1.317 . S
N66 N70 1.370 . S
N67 C65 1.348 . S
N67 C69 1.346 . S
C68 C65 1.485 . S
C68 H72 0.960 . S
C68 H73 0.961 . S
C68 H74 0.960 . S
C69 N67 1.346 . S
C69 N70 1.307 . S
C69 C71 1.486 . S
N70 N66 1.370 . S
N70 C69 1.307 . S
C71 C69 1.486 . S
C71 H75 0.960 . S
C71 H76 0.960 . S
C71 H77 0.959 . S
H72 C68 0.960 . S
H73 C68 0.961 . S
H74 C68 0.960 . S
H75 C71 0.960 . S
H76 C71 0.960 . S
H77 C71 0.959 . S
C78 N79 1.317 . S
C78 N80 1.348 . S
C78 C81 1.485 . S
N79 C78 1.317 . S
N79 N83 1.370 . S
N80 C78 1.348 . S
N80 C82 1.346 . S
C81 C78 1.485 . S
C81 H85 0.960 . S
C81 H86 0.961 . S
C81 H87 0.960 . S
C82 N80 1.346 . S
C82 N83 1.307 . S
C82 C84 1.486 . S
N83 N79 1.370 . S
N83 C82 1.307 . S
C84 C82 1.486 . S
C84 H88 0.960 . S
C84 H89 0.960 . S
C84 H90 0.959 . S
H85 C81 0.960 . S
H86 C81 0.961 . S
H87 C81 0.960 . S
H88 C84 0.960 . S
H89 C84 0.960 . S
H90 C84 0.959 . S
C91 N92 1.317 . S
C91 N93 1.348 . S
C91 C94 1.485 . S
N92 C91 1.317 . S
N92 N96 1.370 . S
N93 C91 1.348 . S
N93 C95 1.346 . S
C94 C91 1.485 . S
C94 H98 0.960 . S
C94 H99 0.961 . S
C94 H100 0.960 . S
C95 N93 1.346 . S
C95 N96 1.307 . S
C95 C97 1.486 . S
N96 N92 1.370 . S
N96 C95 1.307 . S
C97 C95 1.486 . S
C97 H101 0.960 . S
C97 H102 0.960 . S
C97 H103 0.959 . S
H98 C94 0.960 . S
H99 C94 0.961 . S
H100 C94 0.960 . S
H101 C97 0.960 . S
H102 C97 0.960 . S
H103 C97 0.959 . S
Eu104 N133 2.600 . S
Eu104 N139 2.562 . S
Eu104 O148 2.462 . S
Eu104 O149 2.373 . S
Eu104 O151 2.432 1_545 S
Eu104 O152 2.291 1_455 S
Eu104 O156 2.335 1_445 S
Eu104 O159 2.372 1_545 S
Eu104 C168 2.787 . S
C105 N106 1.365 . S
C105 C108 1.405 . S
C105 C112 1.448 1_545 S
N106 C105 1.365 . S
N106 C109 1.319 . S
N106 Eu115 2.600 . S
C107 C109 1.397 . S
C107 C110 1.367 . S
C107 H127 0.931 . S
C108 C105 1.405 . S
C108 C110 1.403 . S
C108 C114 1.439 1_545 S
C109 N106 1.319 . S
C109 C107 1.397 . S
C109 H120 0.930 . S
C110 C107 1.367 . S
C110 C108 1.403 . S
C110 H131 0.929 . S
C111 C112 1.430 . S
C111 C113 1.387 . S
C111 C117 1.404 . S
C112 C105 1.448 1_565 S
C112 C111 1.430 . S
C112 N116 1.351 . S
C113 C111 1.387 . S
C113 C114 1.374 . S
C113 H128 0.931 . S
C114 C108 1.439 1_565 S
C114 C113 1.374 . S
C114 H129 0.931 . S
Eu115 N106 2.600 . S
Eu115 N116 2.562 1_545 S
Eu115 O150 2.335 1_655 S
Eu115 O153 2.372 . S
Eu115 O154 2.462 . S
Eu115 O155 2.379 . S
Eu115 O157 2.432 . S
Eu115 O158 2.291 1_645 S
Eu115 C179 2.787 . S
N116 C112 1.351 . S
N116 Eu115 2.562 1_565 S
N116 C118 1.325 . S
C117 C111 1.404 . S
C117 C119 1.366 . S
C117 H125 0.930 . S
C118 N116 1.325 . S
C118 C119 1.416 . S
C118 H124 0.929 . S
C119 C117 1.366 . S
C119 C118 1.416 . S
C119 H121 0.930 . S
H120 C109 0.930 . S
H121 C119 0.930 . S
H122 C137 0.930 . S
H123 C144 0.930 . S
H124 C118 0.929 . S
H125 C117 0.930 . S
H126 C140 0.929 . S
H127 C107 0.931 . S
H128 C113 0.931 . S
H129 C114 0.931 . S
H130 C135 0.931 . S
H131 C110 0.929 . S
H132 C143 0.930 . S
N133 Eu104 2.600 . S
N133 C134 1.365 . S
N133 C137 1.319 1_545 S
C134 N133 1.365 . S
C134 C136 1.405 . S
C134 C142 1.448 . S
C135 H130 0.931 . S
C135 C137 1.397 . S
C135 C138 1.367 1_565 S
C136 C134 1.405 . S
C136 C138 1.403 . S
C136 C169 1.439 . S
C137 H122 0.930 . S
C137 N133 1.319 1_565 S
C137 C135 1.397 . S
C138 C135 1.367 1_545 S
C138 C136 1.403 . S
C138 H145 0.929 . S
N139 Eu104 2.562 . S
N139 C140 1.325 . S
N139 C142 1.351 . S
C140 H126 0.929 . S
C140 N139 1.325 . S
C140 C144 1.416 . S
C141 C142 1.430 . S
C141 C143 1.404 . S
C141 C170 1.387 . S
C142 C134 1.448 . S
C142 N139 1.351 . S
C142 C141 1.430 . S
C143 H132 0.930 . S
C143 C141 1.404 . S
C143 C144 1.366 . S
C144 H123 0.930 . S
C144 C140 1.416 . S
C144 C143 1.366 . S
H145 C138 0.929 . S
H146 C169 0.931 . S
H147 C170 0.931 . S
O148 Eu104 2.462 . S
O148 C168 1.252 . S
O149 Eu104 2.373 . S
O149 C160 1.249 . S
O150 Eu115 2.335 1_455 S
O150 C160 1.264 . S
O151 Eu104 2.432 1_565 S
O151 C168 1.268 1_565 S
O152 Eu104 2.291 1_655 S
O152 C167 1.255 . S
O153 Eu115 2.372 . S
O153 C167 1.257 . S
O154 Eu115 2.462 . S
O154 C179 1.252 . S
O155 Eu115 2.379 . S
O155 C171 1.243 1_545 S
O156 Eu104 2.335 1_665 S
O156 C171 1.264 . S
O157 Eu115 2.432 . S
O157 C179 1.268 . S
O158 Eu115 2.291 1_465 S
O158 C178 1.255 . S
O159 Eu104 2.372 1_565 S
O159 C178 1.257 . S
C160 O149 1.249 . S
C160 O150 1.264 . S
C161 C164 1.382 1_545 S
C161 C166 1.390 1_554 S
C161 C168 1.506 . S
C162 C163 1.398 1_545 S
C162 C166 1.392 . S
C163 C162 1.398 1_565 S
C163 C165 1.372 . S
C163 H180 0.931 . S
C164 C161 1.382 1_565 S
C164 C165 1.390 1_554 S
C164 H181 0.931 . S
C165 C163 1.372 . S
C165 C164 1.390 1_556 S
C165 H182 0.929 . S
C166 C161 1.390 1_556 S
C166 C162 1.392 . S
C166 H183 0.930 . S
C167 O152 1.255 . S
C167 O153 1.257 . S
C168 Eu104 2.787 . S
C168 O148 1.252 . S
C168 O151 1.268 1_545 S
C168 C161 1.506 . S
C169 C136 1.439 . S
C169 H146 0.931 . S
C169 C170 1.374 . S
C170 C141 1.387 . S
C170 H147 0.931 . S
C170 C169 1.374 . S
C171 O155 1.243 1_565 S
C171 O156 1.264 . S
C172 C175 1.382 . S
C172 C176 1.390 . S
C172 C179 1.506 . S
C173 C174 1.398 . S
C173 C176 1.392 . S
C174 C173 1.398 . S
C174 C177 1.372 . S
C174 H184 0.931 . S
C175 C172 1.382 . S
C175 C177 1.390 . S
C175 H185 0.931 . S
C176 C172 1.390 . S
C176 C173 1.392 . S
C176 H186 0.930 . S
C177 C174 1.372 . S
C177 C175 1.390 . S
C177 H187 0.929 . S
C178 O158 1.255 . S
C178 O159 1.257 . S
C179 Eu115 2.787 . S
C179 O154 1.252 . S
C179 O157 1.268 . S
C179 C172 1.506 . S
H180 C163 0.931 . S
H181 C164 0.931 . S
H182 C165 0.929 . S
H183 C166 0.930 . S
H184 C174 0.931 . S
H185 C175 0.931 . S
H186 C176 0.930 . S
H187 C177 0.929 . S
Eu188 N217 2.600 . S
Eu188 N223 2.562 . S
Eu188 O232 2.462 . S
Eu188 O233 2.373 . S
Eu188 O235 2.432 . S
Eu188 O236 2.291 . S
Eu188 O240 2.335 . S
Eu188 O243 2.372 . S
Eu188 C252 2.787 . S
C189 N190 1.365 . S
C189 C192 1.405 1_655 S
C189 C196 1.448 . S
N190 C189 1.365 . S
N190 C193 1.319 . S
N190 Eu199 2.600 . S
C191 C193 1.397 1_455 S
C191 C194 1.367 . S
C191 H211 0.931 . S
C192 C189 1.405 1_455 S
C192 C194 1.403 . S
C192 C198 1.439 . S
C193 N190 1.319 . S
C193 C191 1.397 1_655 S
C193 H204 0.930 . S
C194 C191 1.367 . S
C194 C192 1.403 . S
C194 H215 0.929 . S
C195 C196 1.430 . S
C195 C197 1.387 1_655 S
C195 C201 1.404 . S
C196 C189 1.448 . S
C196 C195 1.430 . S
C196 N200 1.351 . S
C197 C195 1.387 1_455 S
C197 C198 1.374 . S
C197 H212 0.931 . S
C198 C192 1.439 . S
C198 C197 1.374 . S
C198 H213 0.931 . S
Eu199 N190 2.600 . S
Eu199 N200 2.562 . S
Eu199 O234 2.335 . S
Eu199 O237 2.372 . S
Eu199 O238 2.462 . S
Eu199 O239 2.373 . S
Eu199 O241 2.432 . S
Eu199 O242 2.291 . S
Eu199 C263 2.787 . S
N200 C196 1.351 . S
N200 Eu199 2.562 . S
N200 C202 1.325 . S
C201 C195 1.404 . S
C201 C203 1.366 . S
C201 H209 0.930 . S
C202 N200 1.325 . S
C202 C203 1.416 . S
C202 H208 0.929 . S
C203 C201 1.366 . S
C203 C202 1.416 . S
C203 H205 0.930 . S
H204 C193 0.930 . S
H205 C203 0.930 . S
H206 C221 0.930 . S
H207 C228 0.930 . S
H208 C202 0.929 . S
H209 C201 0.930 . S
H210 C224 0.929 . S
H211 C191 0.931 . S
H212 C197 0.931 . S
H213 C198 0.931 . S
H214 C219 0.931 . S
H215 C194 0.929 . S
H216 C227 0.930 . S
N217 Eu188 2.600 . S
N217 C218 1.365 . S
N217 C221 1.319 . S
C218 N217 1.365 . S
C218 C220 1.405 1_455 S
C218 C226 1.448 . S
C219 H214 0.931 . S
C219 C221 1.397 1_655 S
C219 C222 1.367 . S
C220 C218 1.405 1_655 S
C220 C222 1.403 . S
C220 C253 1.439 . S
C221 H206 0.930 . S
C221 N217 1.319 . S
C221 C219 1.397 1_455 S
C222 C219 1.367 . S
C222 C220 1.403 . S
C222 H229 0.929 . S
N223 Eu188 2.562 . S
N223 C224 1.325 . S
N223 C226 1.351 . S
C224 H210 0.929 . S
C224 N223 1.325 . S
C224 C228 1.416 . S
C225 C226 1.430 . S
C225 C227 1.404 . S
C225 C254 1.387 1_455 S
C226 C218 1.448 . S
C226 N223 1.351 . S
C226 C225 1.430 . S
C227 H216 0.930 . S
C227 C225 1.404 . S
C227 C228 1.366 . S
C228 H207 0.930 . S
C228 C224 1.416 . S
C228 C227 1.366 . S
H229 C222 0.929 . S
H230 C253 0.931 . S
H231 C254 0.931 . S
O232 Eu188 2.462 . S
O232 C252 1.252 . S
O233 Eu188 2.373 . S
O233 C244 1.249 . S
O234 Eu199 2.335 . S
O234 C244 1.264 . S
O235 Eu188 2.432 . S
O235 C252 1.268 . S
O236 Eu188 2.291 . S
O236 C251 1.255 . S
O237 Eu199 2.372 . S
O237 C251 1.257 . S
O238 Eu199 2.462 . S
O238 C263 1.252 . S
O239 Eu199 2.373 . S
O239 C255 1.249 . S
O240 Eu188 2.335 . S
O240 C255 1.264 . S
O241 Eu199 2.432 . S
O241 C263 1.268 . S
O242 Eu199 2.291 . S
O242 C262 1.255 . S
O243 Eu188 2.372 . S
O243 C262 1.257 . S
C244 O233 1.249 . S
C244 O234 1.264 . S
C245 C248 1.382 . S
C245 C250 1.390 . S
C245 C252 1.506 . S
C246 C247 1.398 . S
C246 C250 1.392 . S
C247 C246 1.398 . S
C247 C249 1.372 . S
C247 H264 0.931 . S
C248 C245 1.382 . S
C248 C249 1.390 . S
C248 H265 0.931 . S
C249 C247 1.372 . S
C249 C248 1.390 . S
C249 H266 0.929 . S
C250 C245 1.390 . S
C250 C246 1.392 . S
C250 H267 0.930 . S
C251 O236 1.255 . S
C251 O237 1.257 . S
C252 Eu188 2.787 . S
C252 O232 1.252 . S
C252 O235 1.268 . S
C252 C245 1.506 . S
C253 C220 1.439 . S
C253 H230 0.931 . S
C253 C254 1.374 . S
C254 C225 1.387 1_655 S
C254 H231 0.931 . S
C254 C253 1.374 . S
C255 O239 1.249 . S
C255 O240 1.264 . S
C256 C259 1.382 . S
C256 C260 1.390 1_556 S
C256 C263 1.506 . S
C257 C258 1.398 . S
C257 C260 1.392 . S
C258 C257 1.398 . S
C258 C261 1.372 . S
C258 H268 0.931 . S
C259 C256 1.382 . S
C259 C261 1.390 1_556 S
C259 H269 0.931 . S
C260 C256 1.390 1_554 S
C260 C257 1.392 . S
C260 H270 0.930 . S
C261 C258 1.372 . S
C261 C259 1.390 1_554 S
C261 H271 0.929 . S
C262 O242 1.255 . S
C262 O243 1.257 . S
C263 Eu199 2.787 . S
C263 O238 1.252 . S
C263 O241 1.268 . S
C263 C256 1.506 . S
H264 C247 0.931 . S
H265 C248 0.931 . S
H266 C249 0.929 . S
H267 C250 0.930 . S
H268 C258 0.931 . S
H269 C259 0.931 . S
H270 C260 0.930 . S
H271 C261 0.929 . S
Eu272 N301 2.600 . S
Eu272 N307 2.562 1_565 S
Eu272 O316 2.462 . S
Eu272 O317 2.379 . S
Eu272 O319 2.432 . S
Eu272 O320 2.291 1_465 S
Eu272 O324 2.335 1_455 S
Eu272 O327 2.372 . S
Eu272 C336 2.787 . S
C273 N274 1.365 . S
C273 C276 1.405 . S
C273 C280 1.448 . S
N274 C273 1.365 . S
N274 C277 1.319 1_565 S
N274 Eu283 2.600 . S
C275 C277 1.397 . S
C275 C278 1.367 1_545 S
C275 H295 0.931 . S
C276 C273 1.405 . S
C276 C278 1.403 . S
C276 C282 1.439 . S
C277 N274 1.319 1_545 S
C277 C275 1.397 . S
C277 H288 0.930 . S
C278 C275 1.367 1_565 S
C278 C276 1.403 . S
C278 H299 0.929 . S
C279 C280 1.430 . S
C279 C281 1.387 . S
C279 C285 1.404 . S
C280 C273 1.448 . S
C280 C279 1.430 . S
C280 N284 1.351 . S
C281 C279 1.387 . S
C281 C282 1.374 . S
C281 H296 0.931 . S
C282 C276 1.439 . S
C282 C281 1.374 . S
C282 H297 0.931 . S
Eu283 N274 2.600 . S
Eu283 N284 2.562 . S
Eu283 O318 2.335 1_665 S
Eu283 O321 2.372 1_565 S
Eu283 O322 2.462 . S
Eu283 O323 2.373 . S
Eu283 O325 2.432 1_565 S
Eu283 O326 2.291 1_655 S
Eu283 C347 2.787 . S
N284 C280 1.351 . S
N284 Eu283 2.562 . S
N284 C286 1.325 . S
C285 C279 1.404 . S
C285 C287 1.366 . S
C285 H293 0.930 . S
C286 N284 1.325 . S
C286 C287 1.416 . S
C286 H292 0.929 . S
C287 C285 1.366 . S
C287 C286 1.416 . S
C287 H289 0.930 . S
H288 C277 0.930 . S
H289 C287 0.930 . S
H290 C305 0.930 . S
H291 C312 0.930 . S
H292 C286 0.929 . S
H293 C285 0.930 . S
H294 C308 0.929 . S
H295 C275 0.931 . S
H296 C281 0.931 . S
H297 C282 0.931 . S
H298 C303 0.931 . S
H299 C278 0.929 . S
H300 C311 0.930 . S
N301 Eu272 2.600 . S
N301 C302 1.365 . S
N301 C305 1.319 . S
C302 N301 1.365 . S
C302 C304 1.405 . S
C302 C310 1.448 1_565 S
C303 H298 0.931 . S
C303 C305 1.397 . S
C303 C306 1.367 . S
C304 C302 1.405 . S
C304 C306 1.403 . S
C304 C337 1.439 1_565 S
C305 H290 0.930 . S
C305 N301 1.319 . S
C305 C303 1.397 . S
C306 C303 1.367 . S
C306 C304 1.403 . S
C306 H313 0.929 . S
N307 Eu272 2.562 1_545 S
N307 C308 1.325 . S
N307 C310 1.351 . S
C308 H294 0.929 . S
C308 N307 1.325 . S
C308 C312 1.416 . S
C309 C310 1.430 . S
C309 C311 1.404 . S
C309 C338 1.387 . S
C310 C302 1.448 1_545 S
C310 N307 1.351 . S
C310 C309 1.430 . S
C311 H300 0.930 . S
C311 C309 1.404 . S
C311 C312 1.366 . S
C312 H291 0.930 . S
C312 C308 1.416 . S
C312 C311 1.366 . S
H313 C306 0.929 . S
H314 C337 0.931 . S
H315 C338 0.931 . S
O316 Eu272 2.462 . S
O316 C336 1.252 . S
O317 Eu272 2.379 . S
O317 C328 1.243 1_565 S
O318 Eu283 2.335 1_445 S
O318 C328 1.264 . S
O319 Eu272 2.432 . S
O319 C336 1.268 . S
O320 Eu272 2.291 1_645 S
O320 C335 1.255 . S
O321 Eu283 2.372 1_545 S
O321 C335 1.257 . S
O322 Eu283 2.462 . S
O322 C347 1.252 . S
O323 Eu283 2.373 . S
O323 C339 1.249 . S
O324 Eu272 2.335 1_655 S
O324 C339 1.264 . S
O325 Eu283 2.432 1_545 S
O325 C347 1.268 1_545 S
O326 Eu283 2.291 1_455 S
O326 C346 1.255 . S
O327 Eu272 2.372 . S
O327 C346 1.257 . S
C328 O317 1.243 1_545 S
C328 O318 1.264 . S
C329 C332 1.382 . S
C329 C334 1.390 . S
C329 C336 1.506 . S
C330 C331 1.398 . S
C330 C334 1.392 . S
C331 C330 1.398 . S
C331 C333 1.372 . S
C331 H348 0.931 . S
C332 C329 1.382 . S
C332 C333 1.390 . S
C332 H349 0.931 . S
C333 C331 1.372 . S
C333 C332 1.390 . S
C333 H350 0.929 . S
C334 C329 1.390 . S
C334 C330 1.392 . S
C334 H351 0.930 . S
C335 O320 1.255 . S
C335 O321 1.257 . S
C336 Eu272 2.787 . S
C336 O316 1.252 . S
C336 O319 1.268 . S
C336 C329 1.506 . S
C337 C304 1.439 1_545 S
C337 H314 0.931 . S
C337 C338 1.374 . S
C338 C309 1.387 . S
C338 H315 0.931 . S
C338 C337 1.374 . S
C339 O323 1.249 . S
C339 O324 1.264 . S
C340 C343 1.382 1_565 S
C340 C344 1.390 1_556 S
C340 C347 1.506 . S
C341 C342 1.398 1_565 S
C341 C344 1.392 . S
C342 C341 1.398 1_545 S
C342 C345 1.372 . S
C342 H352 0.931 . S
C343 C340 1.382 1_545 S
C343 C345 1.390 1_556 S
C343 H353 0.931 . S
C344 C340 1.390 1_554 S
C344 C341 1.392 . S
C344 H354 0.930 . S
C345 C342 1.372 . S
C345 C343 1.390 1_554 S
C345 H355 0.929 . S
C346 O326 1.255 . S
C346 O327 1.257 . S
C347 Eu283 2.787 . S
C347 O322 1.252 . S
C347 O325 1.268 1_565 S
C347 C340 1.506 . S
H348 C331 0.931 . S
H349 C332 0.931 . S
H350 C333 0.929 . S
H351 C334 0.930 . S
H352 C342 0.931 . S
H353 C343 0.931 . S
H354 C344 0.930 . S
H355 C345 0.929 . S
Eu356 N385 2.600 . S
Eu356 N391 2.562 . S
Eu356 O400 2.462 . S
Eu356 O401 2.373 . S
Eu356 O403 2.432 . S
Eu356 O404 2.291 . S
Eu356 O408 2.335 . S
Eu356 O411 2.372 . S
Eu356 C420 2.787 . S
C357 N358 1.365 . S
C357 C360 1.405 1_655 S
C357 C364 1.448 . S
N358 C357 1.365 . S
N358 C361 1.319 . S
N358 Eu367 2.600 . S
C359 C361 1.397 1_455 S
C359 C362 1.367 . S
C359 H379 0.931 . S
C360 C357 1.405 1_455 S
C360 C362 1.403 . S
C360 C366 1.439 . S
C361 N358 1.319 . S
C361 C359 1.397 1_655 S
C361 H372 0.930 . S
C362 C359 1.367 . S
C362 C360 1.403 . S
C362 H383 0.929 . S
C363 C364 1.430 . S
C363 C365 1.387 1_655 S
C363 C369 1.404 . S
C364 C357 1.448 . S
C364 C363 1.430 . S
C364 N368 1.351 . S
C365 C363 1.387 1_455 S
C365 C366 1.374 . S
C365 H380 0.931 . S
C366 C360 1.439 . S
C366 C365 1.374 . S
C366 H381 0.931 . S
Eu367 N358 2.600 . S
Eu367 N368 2.562 . S
Eu367 O402 2.335 . S
Eu367 O405 2.372 . S
Eu367 O406 2.462 . S
Eu367 O407 2.373 . S
Eu367 O409 2.432 . S
Eu367 O410 2.291 . S
Eu367 C431 2.787 . S
N368 C364 1.351 . S
N368 Eu367 2.562 . S
N368 C370 1.325 . S
C369 C363 1.404 . S
C369 C371 1.366 . S
C369 H377 0.930 . S
C370 N368 1.325 . S
C370 C371 1.416 . S
C370 H376 0.929 . S
C371 C369 1.366 . S
C371 C370 1.416 . S
C371 H373 0.930 . S
H372 C361 0.930 . S
H373 C371 0.930 . S
H374 C389 0.930 . S
H375 C396 0.930 . S
H376 C370 0.929 . S
H377 C369 0.930 . S
H378 C392 0.929 . S
H379 C359 0.931 . S
H380 C365 0.931 . S
H381 C366 0.931 . S
H382 C387 0.931 . S
H383 C362 0.929 . S
H384 C395 0.930 . S
N385 Eu356 2.600 . S
N385 C386 1.365 . S
N385 C389 1.319 . S
C386 N385 1.365 . S
C386 C388 1.405 1_455 S
C386 C394 1.448 . S
C387 H382 0.931 . S
C387 C389 1.397 1_655 S
C387 C390 1.367 . S
C388 C386 1.405 1_655 S
C388 C390 1.403 . S
C388 C421 1.439 . S
C389 H374 0.930 . S
C389 N385 1.319 . S
C389 C387 1.397 1_455 S
C390 C387 1.367 . S
C390 C388 1.403 . S
C390 H397 0.929 . S
N391 Eu356 2.562 . S
N391 C392 1.325 . S
N391 C394 1.351 . S
C392 H378 0.929 . S
C392 N391 1.325 . S
C392 C396 1.416 . S
C393 C394 1.430 . S
C393 C395 1.404 . S
C393 C422 1.387 1_455 S
C394 C386 1.448 . S
C394 N391 1.351 . S
C394 C393 1.430 . S
C395 H384 0.930 . S
C395 C393 1.404 . S
C395 C396 1.366 . S
C396 H375 0.930 . S
C396 C392 1.416 . S
C396 C395 1.366 . S
H397 C390 0.929 . S
H398 C421 0.931 . S
H399 C422 0.931 . S
O400 Eu356 2.462 . S
O400 C420 1.252 . S
O401 Eu356 2.373 . S
O401 C412 1.249 . S
O402 Eu367 2.335 . S
O402 C412 1.264 . S
O403 Eu356 2.432 . S
O403 C420 1.268 . S
O404 Eu356 2.291 . S
O404 C419 1.255 . S
O405 Eu367 2.372 . S
O405 C419 1.257 . S
O406 Eu367 2.462 . S
O406 C431 1.252 . S
O407 Eu367 2.373 . S
O407 C423 1.249 . S
O408 Eu356 2.335 . S
O408 C423 1.264 . S
O409 Eu367 2.432 . S
O409 C431 1.268 . S
O410 Eu367 2.291 . S
O410 C430 1.255 . S
O411 Eu356 2.372 . S
O411 C430 1.257 . S
C412 O401 1.249 . S
C412 O402 1.264 . S
C413 C416 1.382 . S
C413 C418 1.390 1_554 S
C413 C420 1.506 . S
C414 C415 1.398 . S
C414 C418 1.392 . S
C415 C414 1.398 . S
C415 C417 1.372 . S
C415 H432 0.931 . S
C416 C413 1.382 . S
C416 C417 1.390 1_554 S
C416 H433 0.931 . S
C417 C415 1.372 . S
C417 C416 1.390 1_556 S
C417 H434 0.929 . S
C418 C413 1.390 1_556 S
C418 C414 1.392 . S
C418 H435 0.930 . S
C419 O404 1.255 . S
C419 O405 1.257 . S
C420 Eu356 2.787 . S
C420 O400 1.252 . S
C420 O403 1.268 . S
C420 C413 1.506 . S
C421 C388 1.439 . S
C421 H398 0.931 . S
C421 C422 1.374 . S
C422 C393 1.387 1_655 S
C422 H399 0.931 . S
C422 C421 1.374 . S
C423 O407 1.249 . S
C423 O408 1.264 . S
C424 C427 1.382 . S
C424 C428 1.390 . S
C424 C431 1.506 . S
C425 C426 1.398 . S
C425 C428 1.392 . S
C426 C425 1.398 . S
C426 C429 1.372 . S
C426 H436 0.931 . S
C427 C424 1.382 . S
C427 C429 1.390 . S
C427 H437 0.931 . S
C428 C424 1.390 . S
C428 C425 1.392 . S
C428 H438 0.930 . S
C429 C426 1.372 . S
C429 C427 1.390 . S
C429 H439 0.929 . S
C430 O410 1.255 . S
C430 O411 1.257 . S
C431 Eu367 2.787 . S
C431 O406 1.252 . S
C431 O409 1.268 . S
C431 C424 1.506 . S
H432 C415 0.931 . S
H433 C416 0.931 . S
H434 C417 0.929 . S
H435 C418 0.930 . S
H436 C426 0.931 . S
H437 C427 0.931 . S
H438 C428 0.930 . S
H439 C429 0.929 . S
N83 C178 1.739 . S
C262 N96 1.739 . S
C255 N57 1.737 . S
N70 C171 1.737 . S
C335 N31 1.746 . S
C419 N44 1.746 . S
N5 C412 1.743 . S
N18 C328 1.742 . S
C162 N14 1.792 . S
C246 N1 1.792 . S
C257 N40 1.315 . S
C173 N27 1.315 . S
C341 N66 1.825 . S
N53 C425 1.825 . S
C414 N92 1.320 . S
N79 C330 1.320 . S
C160 N2 1.535 . S
C244 N15 1.535 . S
N28 C251 1.472 . S
C167 N41 1.472 . S
C339 N54 1.512 . S
N67 C423 1.512 . S
N80 C430 1.458 . S
N93 C346 1.458 . S
