# Generated by pormake.
# Topology hwx, (6,3)-cn, num edge types: 1
# Building blocks:
#     Node 0, Type 0, BuildingBlock: OJICUG_clean_sbu_0, # of connection points: 6
#     Node 1, Type 0, BuildingBlock: OJICUG_clean_sbu_0, # of connection points: 6
#     Node 2, Type 0, BuildingBlock: OJICUG_clean_sbu_0, # of connection points: 6
#     Node 3, Type 0, BuildingBlock: OJICUG_clean_sbu_0, # of connection points: 6
#     Node 4, Type 1, BuildingBlock: KAKCAD_clean_linker_0, # of connection points: 3
#     Node 5, Type 1, BuildingBlock: KAKCAD_clean_linker_0, # of connection points: 3
#     Node 6, Type 1, BuildingBlock: KAKCAD_clean_linker_0, # of connection points: 3
#     Node 7, Type 1, BuildingBlock: KAKCAD_clean_linker_0, # of connection points: 3
#     Node 8, Type 1, BuildingBlock: KAKCAD_clean_linker_0, # of connection points: 3
#     Node 9, Type 1, BuildingBlock: KAKCAD_clean_linker_0, # of connection points: 3
#     Node 10, Type 1, BuildingBlock: KAKCAD_clean_linker_0, # of connection points: 3
#     Node 11, Type 1, BuildingBlock: KAKCAD_clean_linker_0, # of connection points: 3
#     Edge 12, Type (0, 1), BuildingBlock: AJUNOK_clean_linker_0, # of connection points: 2
#     Edge 13, Type (0, 1), BuildingBlock: AJUNOK_clean_linker_0, # of connection points: 2
#     Edge 14, Type (0, 1), BuildingBlock: AJUNOK_clean_linker_0, # of connection points: 2
#     Edge 15, Type (0, 1), BuildingBlock: AJUNOK_clean_linker_0, # of connection points: 2
#     Edge 16, Type (0, 1), BuildingBlock: AJUNOK_clean_linker_0, # of connection points: 2
#     Edge 17, Type (0, 1), BuildingBlock: AJUNOK_clean_linker_0, # of connection points: 2
#     Edge 18, Type (0, 1), BuildingBlock: AJUNOK_clean_linker_0, # of connection points: 2
#     Edge 19, Type (0, 1), BuildingBlock: AJUNOK_clean_linker_0, # of connection points: 2
#     Edge 20, Type (0, 1), BuildingBlock: AJUNOK_clean_linker_0, # of connection points: 2
#     Edge 21, Type (0, 1), BuildingBlock: AJUNOK_clean_linker_0, # of connection points: 2
#     Edge 22, Type (0, 1), BuildingBlock: AJUNOK_clean_linker_0, # of connection points: 2
#     Edge 23, Type (0, 1), BuildingBlock: AJUNOK_clean_linker_0, # of connection points: 2
#     Edge 24, Type (0, 1), BuildingBlock: AJUNOK_clean_linker_0, # of connection points: 2
#     Edge 25, Type (0, 1), BuildingBlock: AJUNOK_clean_linker_0, # of connection points: 2
#     Edge 26, Type (0, 1), BuildingBlock: AJUNOK_clean_linker_0, # of connection points: 2
#     Edge 27, Type (0, 1), BuildingBlock: AJUNOK_clean_linker_0, # of connection points: 2
#     Edge 28, Type (0, 1), BuildingBlock: AJUNOK_clean_linker_0, # of connection points: 2
#     Edge 29, Type (0, 1), BuildingBlock: AJUNOK_clean_linker_0, # of connection points: 2
#     Edge 30, Type (0, 1), BuildingBlock: AJUNOK_clean_linker_0, # of connection points: 2
#     Edge 31, Type (0, 1), BuildingBlock: AJUNOK_clean_linker_0, # of connection points: 2
#     Edge 32, Type (0, 1), BuildingBlock: AJUNOK_clean_linker_0, # of connection points: 2
#     Edge 33, Type (0, 1), BuildingBlock: AJUNOK_clean_linker_0, # of connection points: 2
#     Edge 34, Type (0, 1), BuildingBlock: AJUNOK_clean_linker_0, # of connection points: 2
#     Edge 35, Type (0, 1), BuildingBlock: AJUNOK_clean_linker_0, # of connection points: 2
# Relax obj value: 0.076
# Max RMSD: 0.101
# Mean RMSD: 0.093
data_MOF--net-hwx--node1-OJICUG_clean_sbu_0--node2-KAKCAD_clean_linker_0--edge1-AJUNOK_clean_linker_0
_symmetry_space_group_name_H-M    P1
_symmetry_Int_Tables_number       1
_symmetry_cell_setting            triclinic
loop_
_symmetry_equiv_pos_as_xyz
'x, y, z'
_cell_length_a     48.517294
_cell_length_b     48.530845
_cell_length_c     21.935321
_cell_angle_alpha  89.822796
_cell_angle_beta   90.1059
_cell_angle_gamma 90.032283
loop_
_atom_site_label
_atom_site_type_symbol
_atom_site_fract_x
_atom_site_fract_y
_atom_site_fract_z
_atom_type_partial_charge
Sc0 Sc 0.22177 0.2177 0.06639 0.0
Sc1 Sc 0.17419 0.17588 0.98679 0.0
Sc2 Sc 0.21929 0.22044 0.90698 0.0
O3 O 0.20502 0.20464 0.98672 0.0
C4 C 0.21648 0.27383 0.99112 0.0
C5 C 0.15788 0.2124 0.10117 0.0
C6 C 0.15469 0.21655 0.88069 0.0
C7 C 0.2149 0.15356 0.09099 0.0
C8 C 0.275 0.21531 0.98214 0.0
C9 C 0.21246 0.15654 0.87686 0.0
O10 O 0.21775 0.26054 0.04118 0.0
O11 O 0.15104 0.19704 0.05672 0.0
O12 O 0.17852 0.22649 0.87165 0.0
O13 O 0.22731 0.17634 0.09857 0.0
O14 O 0.26195 0.21676 0.93215 0.0
O15 O 0.19424 0.15164 0.91716 0.0
O16 O 0.26344 0.21586 0.03385 0.0
O17 O 0.19476 0.15053 0.05433 0.0
O18 O 0.22282 0.18023 0.86768 0.0
O19 O 0.1824 0.22066 0.10988 0.0
O20 O 0.21735 0.26204 0.93954 0.0
O21 O 0.14985 0.19766 0.91948 0.0
Sc22 Sc 0.27044 0.72314 0.4227 0.0
Sc23 Sc 0.3166 0.6785 0.49924 0.0
Sc24 Sc 0.27048 0.72017 0.58251 0.0
O25 O 0.28587 0.70722 0.50146 0.0
C26 C 0.27148 0.77619 0.50748 0.0
C27 C 0.33493 0.72107 0.39547 0.0
C28 C 0.33487 0.71674 0.61023 0.0
C29 C 0.27957 0.66004 0.38651 0.0
C30 C 0.21593 0.71452 0.50162 0.0
C31 C 0.2784 0.65561 0.60626 0.0
O32 O 0.27048 0.76471 0.45573 0.0
O33 O 0.33996 0.70143 0.43242 0.0
O34 O 0.31083 0.72596 0.62021 0.0
O35 O 0.26891 0.68369 0.37911 0.0
O36 O 0.22852 0.71597 0.55236 0.0
O37 O 0.29664 0.65232 0.56539 0.0
O38 O 0.22827 0.71668 0.45066 0.0
O39 O 0.29665 0.65469 0.42894 0.0
O40 O 0.26752 0.67885 0.61751 0.0
O41 O 0.31102 0.73121 0.38767 0.0
O42 O 0.27176 0.76304 0.55748 0.0
O43 O 0.34023 0.69903 0.56933 0.0
Sc44 Sc 0.77062 0.7713 0.91596 0.0
Sc45 Sc 0.8158 0.81423 -0.00172 0.0
Sc46 Sc 0.76963 0.77051 0.07643 0.0
O47 O 0.78537 0.78533 -0.00311 0.0
C48 C 0.71551 0.77645 0.99549 0.0
C49 C 0.77746 0.8357 0.88956 0.0
C50 C 0.77793 0.83429 0.10797 0.0
C51 C 0.83503 0.77632 0.8879 0.0
C52 C 0.77204 0.71626 0.9946 0.0
C53 C 0.83407 0.77338 0.1054 0.0
O54 O 0.72831 0.77412 0.94523 0.0
O55 O 0.79578 0.83931 0.93027 0.0
O56 O 0.7672 0.81075 0.11721 0.0
O57 O 0.81111 0.76679 0.87721 0.0
O58 O 0.76968 0.72843 0.04549 0.0
O59 O 0.83901 0.79219 0.06643 0.0
O60 O 0.77351 0.72881 0.94384 0.0
O61 O 0.83985 0.7934 0.93034 0.0
O62 O 0.81012 0.76342 0.11387 0.0
O63 O 0.76637 0.81239 0.87955 0.0
O64 O 0.72773 0.77605 0.04679 0.0
O65 O 0.79552 0.83868 0.06629 0.0
Sc66 Sc 0.7223 0.27097 0.57626 0.0
Sc67 Sc 0.67743 0.31718 0.50102 0.0
Sc68 Sc 0.71761 0.26999 0.41673 0.0
O69 O 0.70575 0.2861 0.498 0.0
C70 C 0.77448 0.27142 0.48969 0.0
C71 C 0.71936 0.33526 0.60565 0.0
C72 C 0.71614 0.33462 0.38986 0.0
C73 C 0.65894 0.27837 0.61132 0.0
C74 C 0.71285 0.21599 0.49831 0.0
C75 C 0.65325 0.28015 0.39367 0.0
O76 O 0.76366 0.27316 0.54209 0.0
O77 O 0.70041 0.34057 0.56734 0.0
O78 O 0.72492 0.31037 0.37986 0.0
O79 O 0.68255 0.26749 0.61828 0.0
O80 O 0.71163 0.22824 0.44705 0.0
O81 O 0.65056 0.29789 0.43564 0.0
O82 O 0.71752 0.22872 0.54784 0.0
O83 O 0.65396 0.29695 0.57173 0.0
O84 O 0.67616 0.26875 0.38167 0.0
O85 O 0.72912 0.31126 0.61376 0.0
O86 O 0.76068 0.26899 0.44083 0.0
O87 O 0.6983 0.34032 0.43041 0.0
C88 C 0.23117 0.55252 0.78543 0.0
C89 C 0.25583 0.56733 0.77738 0.0
C90 C 0.22729 0.5363 0.83762 0.0
C91 C 0.24791 0.53495 0.88252 0.0
C92 C 0.27303 0.54864 0.87279 0.0
C93 C 0.27699 0.56458 0.82063 0.0
C94 C 0.24279 0.52133 0.94176 0.0
C95 C 0.23389 0.49389 0.94513 0.0
C96 C 0.23107 0.48079 0.0021 0.0
C97 C 0.23643 0.49567 0.05576 0.0
C98 C 0.24498 0.52325 0.05279 0.0
C99 C 0.24794 0.53589 0.99561 0.0
C100 C 0.2513 0.53909 0.10875 0.0
C101 C 0.23361 0.53823 0.15949 0.0
C102 C 0.27435 0.55665 0.11005 0.0
C103 C 0.27868 0.57421 0.15921 0.0
C104 C 0.26026 0.57432 0.20827 0.0
C105 C 0.22476 0.451 0.00526 0.0
C106 C 0.20356 0.43959 0.96972 0.0
C107 C 0.24102 0.43357 0.04172 0.0
C108 C 0.23683 0.40515 0.04098 0.0
C109 C 0.21623 0.39359 0.00398 0.0
C110 C 0.19917 0.41112 0.96947 0.0
C111 C 0.2381 0.55577 0.20907 0.0
H112 H 0.21468 0.55413 0.75227 0.0
H113 H 0.20777 0.52587 0.84422 0.0
H114 H 0.28934 0.54765 0.90654 0.0
H115 H 0.29614 0.57584 0.81555 0.0
H116 H 0.23053 0.4824 0.90347 0.0
H117 H 0.25412 0.55733 0.99281 0.0
H118 H 0.23447 0.48561 0.09973 0.0
H119 H 0.21565 0.52496 0.15962 0.0
H120 H 0.28868 0.55733 0.07226 0.0
H121 H 0.29597 0.58836 0.15815 0.0
H122 H 0.19052 0.45266 0.94183 0.0
H123 H 0.2577 0.4418 0.06905 0.0
H124 H 0.22364 0.55575 0.24664 0.0
H125 H 0.18268 0.40282 0.94171 0.0
H126 H 0.25039 0.39212 0.06773 0.0
C127 C 0.93377 0.71902 0.28441 0.0
C128 C 0.91957 0.74413 0.27845 0.0
C129 C 0.95026 0.71397 0.33573 0.0
C130 C 0.95239 0.73386 0.38183 0.0
C131 C 0.9391 0.75933 0.37448 0.0
C132 C 0.92295 0.76446 0.32318 0.0
C133 C 0.96641 0.72763 0.44002 0.0
C134 C 0.99428 0.72002 0.44184 0.0
C135 C 0.00786 0.71662 0.4982 0.0
C136 C 0.99279 0.71973 0.55261 0.0
C137 C 0.96502 0.72756 0.5509 0.0
C138 C 0.95198 0.73131 0.49459 0.0
C139 C 0.94996 0.73419 0.60737 0.0
C140 C 0.94727 0.71476 0.65454 0.0
C141 C 0.93714 0.75997 0.6129 0.0
C142 C 0.92142 0.7661 0.66412 0.0
C143 C 0.91804 0.74648 0.7106 0.0
C144 C 0.03822 0.7128 0.50045 0.0
C145 C 0.0518 0.69553 0.45876 0.0
C146 C 0.05402 0.72774 0.54277 0.0
C147 C 0.08265 0.72556 0.54342 0.0
C148 C 0.0962 0.70839 0.5018 0.0
C149 C 0.08057 0.69341 0.45932 0.0
C150 C 0.93112 0.72077 0.70564 0.0
H151 H 0.93165 0.70316 0.25008 0.0
H152 H 0.96035 0.69419 0.34066 0.0
H153 H 0.94064 0.77503 0.40935 0.0
H154 H 0.91215 0.78394 0.3197 0.0
H155 H 0.00567 0.71842 0.39954 0.0
H156 H 0.93049 0.73746 0.49324 0.0
H157 H 0.00291 0.71724 0.59638 0.0
H158 H 0.95693 0.69471 0.65095 0.0
H159 H 0.93907 0.77531 0.57714 0.0
H160 H 0.91118 0.7859 0.66658 0.0
H161 H 0.04019 0.68368 0.42573 0.0
H162 H 0.04435 0.74183 0.57439 0.0
H163 H 0.92862 0.70532 0.74096 0.0
H164 H 0.09062 0.68007 0.42671 0.0
H165 H 0.09427 0.73789 0.57558 0.0
C166 C 0.74712 0.44312 0.21441 0.0
C167 C 0.75686 0.4159 0.21848 0.0
C168 C 0.75278 0.45924 0.16297 0.0
C169 C 0.7684 0.44849 0.11459 0.0
C170 C 0.77931 0.42177 0.12023 0.0
C171 C 0.77339 0.40559 0.17121 0.0
C172 C 0.77116 0.46397 0.05628 0.0
C173 C 0.77483 0.49265 0.05567 0.0
C174 C 0.77475 0.50756 0.00043 0.0
C175 C 0.77228 0.493 0.94515 0.0
C176 C 0.76939 0.46418 0.94484 0.0
C177 C 0.76837 0.45004 0.0007 0.0
C178 C 0.76617 0.44858 0.88688 0.0
C179 C 0.75017 0.45901 0.83849 0.0
C180 C 0.77781 0.42218 0.88114 0.0
C181 C 0.77242 0.40605 0.83001 0.0
C182 C 0.75585 0.41614 0.78231 0.0
C183 C 0.77581 0.53832 0.00073 0.0
C184 C 0.76319 0.55327 0.04795 0.0
C185 C 0.78857 0.55307 0.95313 0.0
C186 C 0.78788 0.58188 0.95181 0.0
C187 C 0.77481 0.59669 -0.00147 0.0
C188 C 0.7631 0.58202 0.04735 0.0
C189 C 0.74516 0.44299 0.78668 0.0
H190 H 0.73441 0.45166 0.25022 0.0
H191 H 0.74384 0.47964 0.15996 0.0
H192 H 0.79175 0.41299 0.08424 0.0
H193 H 0.78075 0.38453 0.17213 0.0
H194 H 0.77767 0.50333 0.0985 0.0
H195 H 0.76425 0.4281 0.00099 0.0
H196 H 0.77212 0.50408 0.90226 0.0
H197 H 0.74063 0.47912 0.84147 0.0
H198 H 0.79062 0.41362 0.91698 0.0
H199 H 0.7804 0.38523 0.82916 0.0
H200 H 0.7528 0.54287 0.0851 0.0
H201 H 0.79907 0.54244 0.91662 0.0
H202 H 0.73236 0.45138 0.75064 0.0
H203 H 0.75373 0.59272 0.08524 0.0
H204 H 0.79724 0.59254 0.91365 0.0
C205 C 0.0465 0.24383 0.70079 0.0
C206 C 0.07354 0.25408 0.70506 0.0
C207 C 0.0305 0.24897 0.64887 0.0
C208 C 0.04115 0.26462 0.60017 0.0
C209 C 0.06774 0.27588 0.60582 0.0
C210 C 0.08383 0.27042 0.65722 0.0
C211 C 0.02558 0.26737 0.5419 0.0
C212 C 0.99674 0.27012 0.5414 0.0
C213 C 0.98205 0.27074 0.48606 0.0
C214 C 0.99645 0.26882 0.43071 0.0
C215 C 0.02521 0.26633 0.4305 0.0
C216 C 0.03957 0.26564 0.48602 0.0
C217 C 0.04055 0.26254 0.37298 0.0
C218 C 0.03352 0.24117 0.33278 0.0
C219 C 0.06415 0.27842 0.36138 0.0
C220 C 0.08136 0.27199 0.31265 0.0
C221 C 0.07558 0.24922 0.2753 0.0
C222 C 0.95156 0.2722 0.48612 0.0
C223 C 0.93624 0.25508 0.52515 0.0
C224 C 0.93757 0.29016 0.44631 0.0
C225 C 0.90878 0.29096 0.44562 0.0
C226 C 0.89353 0.27367 0.48438 0.0
C227 C 0.90749 0.25572 0.52405 0.0
C228 C 0.05097 0.2345 0.28428 0.0
H229 H 0.03797 0.23123 0.73696 0.0
H230 H 0.01024 0.23971 0.64595 0.0
H231 H 0.07647 0.28838 0.5697 0.0
H232 H 0.10478 0.27811 0.65817 0.0
H233 H 0.98567 0.27187 0.58407 0.0
H234 H 0.06167 0.26241 0.4855 0.0
H235 H 0.98528 0.26874 0.38786 0.0
H236 H 0.01545 0.22859 0.341 0.0
H237 H 0.06976 0.29524 0.39134 0.0
H238 H 0.09984 0.28412 0.30564 0.0
H239 H 0.94648 0.24082 0.55577 0.0
H240 H 0.94891 0.30364 0.41592 0.0
H241 H 0.04603 0.21692 0.256 0.0
H242 H 0.89612 0.24223 0.55439 0.0
H243 H 0.89841 0.30478 0.41421 0.0
C244 C 0.72278 0.93393 0.70959 0.0
C245 C 0.74892 0.92189 0.71707 0.0
C246 C 0.71701 0.95001 0.658 0.0
C247 C 0.73715 0.95371 0.61286 0.0
C248 C 0.76346 0.9423 0.6213 0.0
C249 C 0.76931 0.92662 0.673 0.0
C250 C 0.73044 0.96731 0.55445 0.0
C251 C 0.7215 0.99477 0.5523 0.0
C252 C 0.71772 0.00812 0.4958 0.0
C253 C 0.72173 0.99322 0.44153 0.0
C254 C 0.73066 0.96578 0.44356 0.0
C255 C 0.73492 0.953 0.50006 0.0
C256 C 0.73743 0.95069 0.38718 0.0
C257 C 0.71788 0.94756 0.34044 0.0
C258 C 0.76334 0.9381 0.38151 0.0
C259 C 0.76942 0.92208 0.3307 0.0
C260 C 0.74965 0.9182 0.28479 0.0
C261 C 0.71266 0.03825 0.49348 0.0
C262 C 0.69387 0.05085 0.53335 0.0
C263 C 0.72808 0.05486 0.45353 0.0
C264 C 0.72533 0.08345 0.45444 0.0
C265 C 0.7071 0.09613 0.49529 0.0
C266 C 0.69101 0.07955 0.53402 0.0
C267 C 0.72386 0.93115 0.28978 0.0
H268 H 0.70672 0.93041 0.74299 0.0
H269 H 0.69654 0.95853 0.65205 0.0
H270 H 0.77929 0.94494 0.58699 0.0
H271 H 0.78947 0.91719 0.67722 0.0
H272 H 0.71919 0.00612 0.59446 0.0
H273 H 0.74196 0.9318 0.50175 0.0
H274 H 0.71898 0.00325 0.39772 0.0
H275 H 0.69773 0.95702 0.34413 0.0
H276 H 0.77877 0.94036 0.41693 0.0
H277 H 0.78929 0.91197 0.32825 0.0
H278 H 0.68152 0.03853 0.56421 0.0
H279 H 0.74308 0.04585 0.42302 0.0
H280 H 0.70829 0.92828 0.2549 0.0
H281 H 0.67636 0.08876 0.56507 0.0
H282 H 0.73817 0.09571 0.42444 0.0
C283 C 0.5525 0.22864 0.21701 0.0
C284 C 0.56498 0.25458 0.22441 0.0
C285 C 0.53678 0.22301 0.16491 0.0
C286 C 0.53383 0.2431 0.11922 0.0
C287 C 0.54541 0.26931 0.12779 0.0
C288 C 0.56076 0.27503 0.18 0.0
C289 C 0.52156 0.23612 0.05965 0.0
C290 C 0.49396 0.22785 0.05446 0.0
C291 C 0.48221 0.22312 -0.00341 0.0
C292 C 0.49887 0.22574 0.94435 0.0
C293 C 0.52636 0.23435 0.94927 0.0
C294 C 0.53756 0.23929 0.00707 0.0
C295 C 0.54304 0.23999 0.89422 0.0
C296 C 0.54415 0.22104 0.84597 0.0
C297 C 0.55829 0.26453 0.89018 0.0
C298 C 0.57486 0.26978 0.83968 0.0
C299 C 0.57662 0.25055 0.79225 0.0
C300 C 0.4521 0.21814 0.9901 0.0
C301 C 0.43762 0.202 0.03272 0.0
C302 C 0.43731 0.23097 0.94264 0.0
C303 C 0.40878 0.22818 0.93854 0.0
C304 C 0.39423 0.21274 0.98207 0.0
C305 C 0.40894 0.19942 0.02889 0.0
C306 C 0.56092 0.22624 0.79539 0.0
H307 H 0.55562 0.21254 0.25062 0.0
H308 H 0.52815 0.20261 0.15883 0.0
H309 H 0.54341 0.28505 0.09293 0.0
H310 H 0.57055 0.29501 0.18408 0.0
H311 H 0.48141 0.2266 0.09518 0.0
H312 H 0.55888 0.24577 0.01127 0.0
H313 H 0.4902 0.22212 0.89953 0.0
H314 H 0.53256 0.20198 0.84801 0.0
H315 H 0.55746 0.2797 0.92627 0.0
H316 H 0.58683 0.28863 0.83834 0.0
H317 H 0.44838 0.19167 0.06956 0.0
H318 H 0.44759 0.24401 0.90963 0.0
H319 H 0.56174 0.21126 0.75895 0.0
H320 H 0.39823 0.18775 0.06372 0.0
H321 H 0.39799 0.23862 0.90188 0.0
C322 C 0.24179 0.04447 0.27234 0.0
C323 C 0.25076 0.07191 0.26681 0.0
C324 C 0.24788 0.02918 0.3248 0.0
C325 C 0.26336 0.04092 0.37242 0.0
C326 C 0.27376 0.06775 0.36498 0.0
C327 C 0.26742 0.0831 0.31298 0.0
C328 C 0.2669 0.02619 0.43143 0.0
C329 C 0.27134 -0.00237 0.43346 0.0
C330 C 0.27275 0.98358 0.48956 0.0
C331 C 0.27037 -0.00145 0.54407 0.0
C332 C 0.26605 0.02714 0.54289 0.0
C333 C 0.26421 0.04068 0.4864 0.0
C334 C 0.2619 0.0429 0.60008 0.0
C335 C 0.24534 0.03234 0.64727 0.0
C336 C 0.27304 0.06949 0.60608 0.0
C337 C 0.26685 0.08559 0.65677 0.0
C338 C 0.24975 0.07534 0.70322 0.0
C339 C 0.27496 0.9531 0.49122 0.0
C340 C 0.25909 0.93703 0.45116 0.0
C341 C 0.29184 0.93983 0.53442 0.0
C342 C 0.29248 0.91107 0.53806 0.0
C343 C 0.27628 0.8951 0.49849 0.0
C344 C 0.25974 0.90835 0.4548 0.0
C345 C 0.23932 0.04842 0.69834 0.0
H346 H 0.22951 0.03505 0.23679 0.0
H347 H 0.2395 0.00858 0.32902 0.0
H348 H 0.28624 0.07722 0.40017 0.0
H349 H 0.2747 0.10417 0.3101 0.0
H350 H 0.27367 0.98627 0.39133 0.0
H351 H 0.25942 0.06248 0.48521 0.0
H352 H 0.27123 0.98785 0.58746 0.0
H353 H 0.23617 0.01205 0.64376 0.0
H354 H 0.28609 0.07813 0.57086 0.0
H355 H 0.2747 0.10647 0.6584 0.0
H356 H 0.24556 0.94661 0.41797 0.0
H357 H 0.30444 0.95167 0.56564 0.0
H358 H 0.22607 0.04001 0.73347 0.0
H359 H 0.24713 0.89648 0.42363 0.0
H360 H 0.30515 0.90136 0.57268 0.0
C361 C 0.44239 0.74434 0.79108 0.0
C362 C 0.41531 0.75439 0.78623 0.0
C363 C 0.45834 0.75009 0.84265 0.0
C364 C 0.44756 0.7661 0.89037 0.0
C365 C 0.42083 0.77693 0.88435 0.0
C366 C 0.40481 0.77091 0.83328 0.0
C367 C 0.46334 0.77008 0.94786 0.0
C368 C 0.49198 0.77403 0.94705 0.0
C369 C 0.50705 0.77616 0.00167 0.0
C370 C 0.49295 0.77526 0.05769 0.0
C371 C 0.46422 0.77165 0.05932 0.0
C372 C 0.44976 0.76874 0.00419 0.0
C373 C 0.44906 0.76944 0.11802 0.0
C374 C 0.45979 0.75406 0.16704 0.0
C375 C 0.42258 0.78092 0.12353 0.0
C376 C 0.40656 0.77575 0.17501 0.0
C377 C 0.41681 0.75948 0.22303 0.0
C378 C 0.53759 0.77814 -0.00014 0.0
C379 C 0.55263 0.76205 0.95835 0.0
C380 C 0.55199 0.79562 0.03984 0.0
C381 C 0.58078 0.79696 0.03823 0.0
C382 C 0.59566 0.78099 -0.00364 0.0
C383 C 0.58132 0.76348 0.9566 0.0
C384 C 0.44383 0.74917 0.21906 0.0
H385 H 0.45103 0.73157 0.75552 0.0
H386 H 0.47873 0.74115 0.84603 0.0
H387 H 0.412 0.78965 0.9198 0.0
H388 H 0.38381 0.77842 0.83181 0.0
H389 H 0.50258 0.77552 0.90374 0.0
H390 H 0.42787 0.76434 0.00524 0.0
H391 H 0.50439 0.77688 0.09999 0.0
H392 H 0.48002 0.74473 0.16418 0.0
H393 H 0.41383 0.79322 0.08704 0.0
H394 H 0.38563 0.78349 0.17573 0.0
H395 H 0.54225 0.7479 0.92789 0.0
H396 H 0.54101 0.80845 0.07199 0.0
H397 H 0.45233 0.73662 0.25542 0.0
H398 H 0.59236 0.75046 0.92492 0.0
H399 H 0.59143 0.81061 0.06938 0.0
C400 C 0.10901 0.22424 0.12853 0.0
C401 C 0.13675 0.22087 0.14598 0.0
C402 C 0.08917 0.23341 0.17045 0.0
C403 C 0.09645 0.23941 0.23111 0.0
H404 H 0.1027 0.22031 0.08196 0.0
H405 H 0.06812 0.2362 0.15511 0.0
S406 S 0.16544 0.2304 0.30162 0.0
N407 N 0.16987 0.22205 0.22944 0.0
N408 N 0.13263 0.23882 0.30787 0.0
C409 C 0.12388 0.23517 0.24951 0.0
C410 C 0.14401 0.22602 0.20705 0.0
C411 C 0.28838 0.60897 0.65014 0.0
C412 C 0.27044 0.63164 0.64454 0.0
C413 C 0.28286 0.58748 0.69117 0.0
C414 C 0.259 0.58766 0.72742 0.0
H415 H 0.30745 0.60829 0.62456 0.0
H416 H 0.29776 0.57099 0.69588 0.0
S417 S 0.20414 0.64079 0.72653 0.0
N418 N 0.22675 0.65184 0.67588 0.0
N419 N 0.21658 0.61146 0.75307 0.0
C420 C 0.2402 0.60941 0.72016 0.0
C421 C 0.24588 0.63141 0.67877 0.0
C422 C 0.88044 0.78057 0.15264 0.0
C423 C 0.85706 0.76373 0.14466 0.0
C424 C 0.90126 0.77342 0.19399 0.0
C425 C 0.89972 0.74898 0.22829 0.0
H426 H 0.88224 0.80002 0.12859 0.0
H427 H 0.91836 0.78749 0.20043 0.0
S428 S 0.84432 0.69645 0.22075 0.0
N429 N 0.83468 0.72044 0.17164 0.0
N430 N 0.87391 0.70714 0.24952 0.0
C431 C 0.87724 0.73126 0.21874 0.0
C432 C 0.85587 0.73862 0.17697 0.0
C433 C 0.71123 0.37692 0.66948 0.0
C434 C 0.7297 0.35768 0.64483 0.0
C435 C 0.72008 0.39645 0.7122 0.0
C436 C 0.74783 0.39774 0.73107 0.0
H437 H 0.68953 0.37607 0.65785 0.0
H438 H 0.7048 0.40984 0.73248 0.0
S439 S 0.80509 0.35479 0.67176 0.0
N440 N 0.77733 0.34271 0.63735 0.0
N441 N 0.7943 0.3802 0.71556 0.0
C442 C 0.7668 0.37969 0.70359 0.0
C443 C 0.75766 0.35948 0.661 0.0
C444 C 0.62948 0.24857 0.32045 0.0
C445 C 0.62892 0.27273 0.35589 0.0
C446 C 0.60788 0.24205 0.28056 0.0
C447 C 0.585 0.25955 0.27417 0.0
H448 H 0.647 0.23477 0.32251 0.0
H449 H 0.60971 0.22381 0.25249 0.0
S450 S 0.57206 0.32398 0.35963 0.0
N451 N 0.60237 0.31329 0.38457 0.0
N452 N 0.56192 0.30093 0.30913 0.0
C453 C 0.58353 0.28313 0.31093 0.0
C454 C 0.60541 0.28972 0.35198 0.0
C455 C 0.20387 0.11541 0.81141 0.0
C456 C 0.2225 0.13378 0.8387 0.0
C457 C 0.21302 0.09574 0.76933 0.0
C458 C 0.24112 0.0936 0.75389 0.0
H459 H 0.18199 0.11709 0.82045 0.0
H460 H 0.19781 0.08294 0.74681 0.0
S461 S 0.29851 0.13384 0.82167 0.0
N462 N 0.27044 0.14676 0.853 0.0
N463 N 0.28778 0.10922 0.77551 0.0
C464 C 0.26009 0.11071 0.78416 0.0
C465 C 0.25073 0.13094 0.82619 0.0
C466 C 0.37721 0.71377 0.33303 0.0
C467 C 0.35763 0.7319 0.35763 0.0
C468 C 0.39706 0.72312 0.29148 0.0
C469 C 0.3983 0.75102 0.27373 0.0
H470 H 0.37639 0.69197 0.3437 0.0
H471 H 0.41071 0.70811 0.27108 0.0
S472 S 0.35457 0.8075 0.33374 0.0
N473 N 0.34239 0.77939 0.36666 0.0
N474 N 0.38035 0.79722 0.29032 0.0
C475 C 0.37992 0.76964 0.30127 0.0
C476 C 0.35943 0.76002 0.34277 0.0
C477 C 0.74504 0.85774 0.81495 0.0
C478 C 0.76915 0.85944 0.85075 0.0
C479 C 0.7378 0.87883 0.77421 0.0
C480 C 0.75447 0.9023 0.76739 0.0
H481 H 0.73189 0.83973 0.81738 0.0
H482 H 0.71967 0.87617 0.74591 0.0
S483 S 0.81822 0.91829 0.85355 0.0
N484 N 0.80865 0.88775 0.87925 0.0
N485 N 0.79487 0.92719 0.80233 0.0
C486 C 0.77791 0.90491 0.8045 0.0
C487 C 0.78526 0.88356 0.84633 0.0
C488 C 0.8557 0.7433 0.81348 0.0
C489 C 0.858 0.76771 0.84774 0.0
C490 C 0.87604 0.73576 0.77147 0.0
C491 C 0.89923 0.75251 0.76173 0.0
H492 H 0.83781 0.73011 0.8183 0.0
H493 H 0.87302 0.71731 0.74455 0.0
S494 S 0.91629 0.81735 0.84212 0.0
N495 N 0.8864 0.80776 0.87119 0.0
N496 N 0.9244 0.79352 0.79171 0.0
C497 C 0.90238 0.77636 0.79704 0.0
C498 C 0.88184 0.78396 0.84026 0.0
C499 C 0.7096 0.37681 0.32617 0.0
C500 C 0.72731 0.35708 0.35195 0.0
C501 C 0.71956 0.3965 0.2848 0.0
C502 C 0.74765 0.39738 0.26857 0.0
H503 H 0.68772 0.37624 0.33589 0.0
H504 H 0.70492 0.41035 0.26347 0.0
S505 S 0.80308 0.3531 0.3324 0.0
N506 N 0.77452 0.34128 0.36388 0.0
N507 N 0.79349 0.37891 0.28792 0.0
C508 C 0.76581 0.37881 0.2973 0.0
C509 C 0.75557 0.35851 0.33856 0.0
C510 C 0.11251 0.20879 0.81755 0.0
C511 C 0.13193 0.22706 0.84246 0.0
C512 C 0.09296 0.21794 0.7749 0.0
C513 C 0.09188 0.24576 0.75636 0.0
H514 H 0.1133 0.18705 0.82878 0.0
H515 H 0.07942 0.20283 0.75433 0.0
S516 S 0.13526 0.30255 0.81675 0.0
N517 N 0.14716 0.2746 0.85087 0.0
N518 N 0.10976 0.29204 0.77257 0.0
C519 C 0.11007 0.26452 0.78422 0.0
C520 C 0.13024 0.25511 0.82681 0.0
C521 C 0.27702 0.61018 0.35685 0.0
C522 C 0.27269 0.63815 0.34202 0.0
C523 C 0.27203 0.5893 0.31408 0.0
C524 C 0.2629 0.5958 0.25507 0.0
H525 H 0.28453 0.60437 0.40161 0.0
H526 H 0.27603 0.56806 0.32662 0.0
S527 S 0.24769 0.66518 0.19307 0.0
N528 N 0.25794 0.67082 0.26374 0.0
N529 N 0.24893 0.63147 0.18388 0.0
C530 C 0.25798 0.62342 0.23987 0.0
C531 C 0.26276 0.64463 0.28325 0.0
C532 C 0.37649 0.70878 0.67489 0.0
C533 C 0.35741 0.72712 0.64887 0.0
C534 C 0.39594 0.71798 0.7176 0.0
C535 C 0.39719 0.7459 0.73496 0.0
H536 H 0.37553 0.68699 0.6644 0.0
H537 H 0.40926 0.70289 0.7391 0.0
S538 S 0.35475 0.80275 0.67117 0.0
N539 N 0.34269 0.77471 0.63802 0.0
N540 N 0.37992 0.79226 0.7164 0.0
C541 C 0.37935 0.76467 0.70593 0.0
C542 C 0.35929 0.75522 0.66334 0.0
C543 C 0.74567 0.85538 0.18357 0.0
C544 C 0.76995 0.85732 0.14862 0.0
C545 C 0.73852 0.87591 0.22542 0.0
C546 C 0.75552 0.89897 0.23434 0.0
H547 H 0.73223 0.83766 0.17932 0.0
H548 H 0.72013 0.87317 0.25272 0.0
S549 S 0.82017 0.91517 0.15204 0.0
N550 N 0.81019 0.88528 0.12378 0.0
N551 N 0.79665 0.92364 0.20293 0.0
C552 C 0.77929 0.90174 0.1985 0.0
C553 C 0.78651 0.881 0.15545 0.0
C554 C 0.61499 0.28795 0.66662 0.0
C555 C 0.63656 0.26964 0.65287 0.0
C556 C 0.59508 0.28119 0.71031 0.0
C557 C 0.59578 0.25576 0.74113 0.0
H558 H 0.61403 0.30807 0.6452 0.0
H559 H 0.57931 0.29622 0.72099 0.0
S560 S 0.64646 0.1996 0.71812 0.0
N561 N 0.65631 0.22417 0.67069 0.0
N562 N 0.61885 0.21163 0.75297 0.0
C563 C 0.61645 0.23676 0.72595 0.0
C564 C 0.63688 0.24369 0.68183 0.0
C565 C 0.25183 0.12739 0.14479 0.0
C566 C 0.22386 0.13002 0.12891 0.0
C567 C 0.26056 0.10749 0.1869 0.0
C568 C 0.24161 0.08968 0.21536 0.0
H569 H 0.26705 0.14124 0.12549 0.0
H570 H 0.28225 0.10657 0.19858 0.0
S571 S 0.16601 0.08804 0.1887 0.0
N572 N 0.17733 0.11264 0.14302 0.0
N573 N 0.19355 0.07574 0.22374 0.0
C574 C 0.21367 0.09148 0.19824 0.0
C575 C 0.20484 0.11154 0.15465 0.0
C576 C 0.21455 0.31813 0.04947 0.0
C577 C 0.21443 0.30439 0.99297 0.0
C578 C 0.21425 0.34694 0.05263 0.0
C579 C 0.21374 0.3632 -0.00049 0.0
H580 H 0.21534 0.30663 0.09183 0.0
H581 H 0.21475 0.35657 0.09711 0.0
S582 S 0.21225 0.33782 0.84016 0.0
N583 N 0.21264 0.30963 0.88235 0.0
N584 N 0.21269 0.3637 0.88875 0.0
C585 C 0.21289 0.34988 0.94276 0.0
C586 C 0.21311 0.32052 0.93938 0.0
C587 C 0.1702 0.71425 0.4478 0.0
C588 C 0.18549 0.71079 0.50201 0.0
C589 C 0.14135 0.71247 0.44762 0.0
C590 C 0.1267 0.70719 0.5016 0.0
H591 H 0.18047 0.71906 0.40528 0.0
H592 H 0.13039 0.71618 0.4053 0.0
S593 S 0.15656 0.69335 0.65426 0.0
N594 N 0.18348 0.69954 0.61041 0.0
N595 N 0.12936 0.69621 0.60945 0.0
C596 C 0.14163 0.70257 0.55553 0.0
C597 C 0.17097 0.70435 0.5559 0.0
C598 C 0.7961 0.67168 0.9774 0.0
C599 C 0.77227 0.68604 0.99451 0.0
C600 C 0.79677 0.64278 0.97882 0.0
C601 C 0.77347 0.62733 -0.00358 0.0
H602 H 0.81446 0.68286 0.964 0.0
H603 H 0.81583 0.63252 0.96692 0.0
S604 S 0.70514 0.65596 0.03895 0.0
N605 N 0.72459 0.68334 0.02666 0.0
N606 N 0.72514 0.62905 0.02642 0.0
C607 C 0.74923 0.64173 0.01176 0.0
C608 C 0.74881 0.6711 0.01148 0.0
C609 C 0.81969 0.24849 0.47529 0.0
C610 C 0.80455 0.27264 0.48551 0.0
C611 C 0.84856 0.24906 0.47455 0.0
C612 C 0.86307 0.27388 0.4831 0.0
H613 H 0.80915 0.229 0.469 0.0
H614 H 0.85963 0.22997 0.46729 0.0
S615 S 0.83241 0.34279 0.50947 0.0
N616 N 0.80562 0.32194 0.50324 0.0
N617 N 0.86 0.32323 0.50097 0.0
C618 C 0.848 0.29826 0.49204 0.0
C619 C 0.81865 0.29757 0.49358 0.0
C620 C 0.70591 0.17093 0.44485 0.0
C621 C 0.70933 0.18552 0.49983 0.0
C622 C 0.7043 0.14214 0.44411 0.0
C623 C 0.70592 0.12666 0.49824 0.0
H624 H 0.70498 0.18173 0.40161 0.0
H625 H 0.70213 0.13187 0.40057 0.0
S626 S 0.71352 0.15443 0.65477 0.0
N627 N 0.71298 0.18198 0.6105 0.0
N628 N 0.7104 0.12783 0.60856 0.0
C629 C 0.70847 0.14084 0.55375 0.0
C630 C 0.7101 0.17024 0.55466 0.0
C631 C 0.32041 0.23806 0.97249 0.0
C632 C 0.30509 0.21385 0.98032 0.0
C633 C 0.34924 0.23739 0.97286 0.0
C634 C 0.36366 0.21243 0.98072 0.0
H635 H 0.31003 0.25768 0.96694 0.0
H636 H 0.36032 0.25666 0.96796 0.0
S637 S 0.33231 0.14314 -0.00063 0.0
N638 N 0.30571 0.16428 0.99438 0.0
N639 N 0.3601 0.1627 0.99373 0.0
C640 C 0.34836 0.18797 0.98765 0.0
C641 C 0.31897 0.18876 0.98767 0.0
C642 C 0.249 0.82201 0.50875 0.0
C643 C 0.27318 0.80625 0.50908 0.0
C644 C 0.25026 0.85082 0.50612 0.0
C645 C 0.27575 0.86468 0.50367 0.0
H646 H 0.22904 0.812 0.50977 0.0
H647 H 0.23114 0.86233 0.50584 0.0
S648 S 0.3449 0.83208 0.50249 0.0
N649 N 0.32315 0.80593 0.50657 0.0
N650 N 0.3257 0.8602 0.50119 0.0
C651 C 0.30009 0.84896 0.50457 0.0
C652 C 0.29875 0.81965 0.50723 0.0
C653 C 0.66993 0.77601 0.04911 0.0
C654 C 0.68499 0.77913 0.9946 0.0
C655 C 0.64109 0.77731 0.0495 0.0
C656 C 0.62617 0.78172 0.99544 0.0
H657 H 0.6804 0.77199 0.09187 0.0
H658 H 0.63036 0.77411 0.09222 0.0
S659 S 0.65532 0.79404 0.84163 0.0
N660 N 0.68249 0.78884 0.88559 0.0
N661 N 0.62828 0.79122 0.8868 0.0
C662 C 0.64082 0.78572 0.94096 0.0
C663 C 0.6702 0.78445 0.94043 0.0
loop_
_geom_bond_atom_site_label_1
_geom_bond_atom_site_label_2
_geom_bond_distance
_geom_bond_site_symmetry_2
_ccdc_geom_bond_type
Sc0 O3 2.029 . S
Sc0 O10 2.105 . S
Sc0 O13 2.105 . S
Sc0 O16 2.105 . S
Sc0 O19 2.105 . S
Sc1 O3 2.025 . S
Sc1 O11 2.108 . S
Sc1 O15 2.102 1_554 S
Sc1 O17 2.108 . S
Sc1 O21 2.102 1_554 S
Sc2 O3 2.022 1_556 S
Sc2 O12 2.105 . S
Sc2 O14 2.105 . S
Sc2 O18 2.105 . S
Sc2 O20 2.105 . S
O3 Sc0 2.029 . S
O3 Sc1 2.025 . S
O3 Sc2 2.022 1_554 S
C4 O10 1.269 . S
C4 O20 1.267 1_554 S
C5 O11 1.268 . S
C5 O19 1.268 . S
C6 O12 1.268 . S
C6 O21 1.268 . S
C7 O13 1.268 . S
C7 O17 1.268 . S
C8 O14 1.262 1_554 S
C8 O16 1.274 . S
C9 O15 1.268 . S
C9 O18 1.268 . S
O10 Sc0 2.105 . S
O10 C4 1.269 . S
O11 Sc1 2.108 . S
O11 C5 1.268 . S
O12 Sc2 2.105 . S
O12 C6 1.268 . S
O13 Sc0 2.105 . S
O13 C7 1.268 . S
O14 Sc2 2.105 . S
O14 C8 1.262 1_556 S
O15 Sc1 2.102 1_556 S
O15 C9 1.268 . S
O16 Sc0 2.105 . S
O16 C8 1.274 . S
O17 Sc1 2.108 . S
O17 C7 1.268 . S
O18 Sc2 2.105 . S
O18 C9 1.268 . S
O19 Sc0 2.105 . S
O19 C5 1.268 . S
O20 Sc2 2.105 . S
O20 C4 1.267 1_556 S
O21 Sc1 2.102 1_556 S
O21 C6 1.268 . S
Sc22 O25 2.025 . S
Sc22 O32 2.105 . S
Sc22 O35 2.105 . S
Sc22 O38 2.105 . S
Sc22 O41 2.105 . S
Sc23 O25 2.025 . S
Sc23 O33 2.105 . S
Sc23 O37 2.105 . S
Sc23 O39 2.105 . S
Sc23 O43 2.105 . S
Sc24 O25 2.025 . S
Sc24 O34 2.105 . S
Sc24 O36 2.105 . S
Sc24 O40 2.105 . S
Sc24 O42 2.105 . S
O25 Sc22 2.025 . S
O25 Sc23 2.025 . S
O25 Sc24 2.025 . S
C26 O32 1.268 . S
C26 O42 1.268 . S
C27 O33 1.268 . S
C27 O41 1.268 . S
C28 O34 1.268 . S
C28 O43 1.268 . S
C29 O35 1.268 . S
C29 O39 1.268 . S
C30 O36 1.268 . S
C30 O38 1.268 . S
C31 O37 1.268 . S
C31 O40 1.268 . S
O32 Sc22 2.105 . S
O32 C26 1.268 . S
O33 Sc23 2.105 . S
O33 C27 1.268 . S
O34 Sc24 2.105 . S
O34 C28 1.268 . S
O35 Sc22 2.105 . S
O35 C29 1.268 . S
O36 Sc24 2.105 . S
O36 C30 1.268 . S
O37 Sc23 2.105 . S
O37 C31 1.268 . S
O38 Sc22 2.105 . S
O38 C30 1.268 . S
O39 Sc23 2.105 . S
O39 C29 1.268 . S
O40 Sc24 2.105 . S
O40 C31 1.268 . S
O41 Sc22 2.105 . S
O41 C27 1.268 . S
O42 Sc24 2.105 . S
O42 C26 1.268 . S
O43 Sc23 2.105 . S
O43 C28 1.268 . S
Sc44 O47 2.022 1_556 S
Sc44 O54 2.105 . S
Sc44 O57 2.105 . S
Sc44 O60 2.105 . S
Sc44 O63 2.105 . S
Sc45 O47 2.025 . S
Sc45 O55 2.102 1_554 S
Sc45 O59 2.108 . S
Sc45 O61 2.102 1_554 S
Sc45 O65 2.108 . S
Sc46 O47 2.029 . S
Sc46 O56 2.105 . S
Sc46 O58 2.105 . S
Sc46 O62 2.105 . S
Sc46 O64 2.105 . S
O47 Sc44 2.022 1_554 S
O47 Sc45 2.025 . S
O47 Sc46 2.029 . S
C48 O54 1.267 1_554 S
C48 O64 1.269 . S
C49 O55 1.268 . S
C49 O63 1.268 . S
C50 O56 1.268 . S
C50 O65 1.268 . S
C51 O57 1.268 . S
C51 O61 1.268 . S
C52 O58 1.274 . S
C52 O60 1.262 1_554 S
C53 O59 1.268 . S
C53 O62 1.268 . S
O54 Sc44 2.105 . S
O54 C48 1.267 1_556 S
O55 Sc45 2.102 1_556 S
O55 C49 1.268 . S
O56 Sc46 2.105 . S
O56 C50 1.268 . S
O57 Sc44 2.105 . S
O57 C51 1.268 . S
O58 Sc46 2.105 . S
O58 C52 1.274 . S
O59 Sc45 2.108 . S
O59 C53 1.268 . S
O60 Sc44 2.105 . S
O60 C52 1.262 1_556 S
O61 Sc45 2.102 1_556 S
O61 C51 1.268 . S
O62 Sc46 2.105 . S
O62 C53 1.268 . S
O63 Sc44 2.105 . S
O63 C49 1.268 . S
O64 Sc46 2.105 . S
O64 C48 1.269 . S
O65 Sc45 2.108 . S
O65 C50 1.268 . S
Sc66 O69 2.025 . S
Sc66 O76 2.105 . S
Sc66 O79 2.105 . S
Sc66 O82 2.105 . S
Sc66 O85 2.105 . S
Sc67 O69 2.025 . S
Sc67 O77 2.105 . S
Sc67 O81 2.105 . S
Sc67 O83 2.105 . S
Sc67 O87 2.105 . S
Sc68 O69 2.025 . S
Sc68 O78 2.105 . S
Sc68 O80 2.105 . S
Sc68 O84 2.105 . S
Sc68 O86 2.105 . S
O69 Sc66 2.025 . S
O69 Sc67 2.025 . S
O69 Sc68 2.025 . S
C70 O76 1.268 . S
C70 O86 1.268 . S
C71 O77 1.268 . S
C71 O85 1.268 . S
C72 O78 1.268 . S
C72 O87 1.268 . S
C73 O79 1.268 . S
C73 O83 1.268 . S
C74 O80 1.268 . S
C74 O82 1.268 . S
C75 O81 1.268 . S
C75 O84 1.268 . S
O76 Sc66 2.105 . S
O76 C70 1.268 . S
O77 Sc67 2.105 . S
O77 C71 1.268 . S
O78 Sc68 2.105 . S
O78 C72 1.268 . S
O79 Sc66 2.105 . S
O79 C73 1.268 . S
O80 Sc68 2.105 . S
O80 C74 1.268 . S
O81 Sc67 2.105 . S
O81 C75 1.268 . S
O82 Sc66 2.105 . S
O82 C74 1.268 . S
O83 Sc67 2.105 . S
O83 C73 1.268 . S
O84 Sc68 2.105 . S
O84 C75 1.268 . S
O85 Sc66 2.105 . S
O85 C71 1.268 . S
O86 Sc68 2.105 . S
O86 C70 1.268 . S
O87 Sc67 2.105 . S
O87 C72 1.268 . S
C88 C89 1.386 . S
C88 C90 1.397 . S
C88 H112 0.931 . S
C89 C88 1.386 . S
C89 C93 1.397 . S
C90 C88 1.397 . S
C90 C91 1.384 . S
C90 H113 0.930 . S
C91 C90 1.384 . S
C91 C92 1.377 . S
C91 C94 1.481 . S
C92 C91 1.377 . S
C92 C93 1.389 . S
C92 H114 0.929 . S
C93 C89 1.397 . S
C93 C92 1.389 . S
C93 H115 0.931 . S
C94 C91 1.481 . S
C94 C95 1.387 . S
C94 C99 1.390 1_556 S
C95 C94 1.387 . S
C95 C96 1.401 1_556 S
C95 H116 0.930 . S
C96 C95 1.401 1_554 S
C96 C97 1.376 . S
C96 C105 1.511 . S
C97 C96 1.376 . S
C97 C98 1.392 . S
C97 H118 0.931 . S
C98 C97 1.392 . S
C98 C99 1.361 . S
C98 C100 1.500 . S
C99 C94 1.390 1_554 S
C99 C98 1.361 . S
C99 H117 0.931 . S
C100 C98 1.500 . S
C100 C101 1.371 . S
C100 C102 1.365 . S
C101 C100 1.371 . S
C101 C111 1.386 . S
C101 H119 0.931 . S
C102 C100 1.365 . S
C102 C103 1.409 . S
C102 H120 0.929 . S
C103 C102 1.409 . S
C103 C104 1.380 . S
C103 H121 0.930 . S
C104 C103 1.380 . S
C104 C111 1.357 . S
C105 C96 1.511 . S
C105 C106 1.341 1_554 S
C105 C107 1.371 . S
C106 C105 1.341 1_556 S
C106 C110 1.394 . S
C106 H122 0.930 . S
C107 C105 1.371 . S
C107 C108 1.392 . S
C107 H123 0.931 . S
C108 C107 1.392 . S
C108 C109 1.344 . S
C108 H126 0.932 . S
C109 C108 1.344 . S
C109 C110 1.323 1_554 S
C110 C106 1.394 . S
C110 C109 1.323 1_556 S
C110 H125 0.929 . S
C111 C101 1.386 . S
C111 C104 1.357 . S
C111 H124 0.928 . S
H112 C88 0.931 . S
H113 C90 0.930 . S
H114 C92 0.929 . S
H115 C93 0.931 . S
H116 C95 0.930 . S
H117 C99 0.931 . S
H118 C97 0.931 . S
H119 C101 0.931 . S
H120 C102 0.929 . S
H121 C103 0.930 . S
H122 C106 0.930 . S
H123 C107 0.931 . S
H124 C111 0.928 . S
H125 C110 0.929 . S
H126 C108 0.932 . S
C127 C128 1.386 . S
C127 C129 1.397 . S
C127 H151 0.931 . S
C128 C127 1.386 . S
C128 C132 1.397 . S
C129 C127 1.397 . S
C129 C130 1.384 . S
C129 H152 0.930 . S
C130 C129 1.384 . S
C130 C131 1.377 . S
C130 C133 1.481 . S
C131 C130 1.377 . S
C131 C132 1.389 . S
C131 H153 0.929 . S
C132 C128 1.397 . S
C132 C131 1.389 . S
C132 H154 0.931 . S
C133 C130 1.481 . S
C133 C134 1.387 . S
C133 C138 1.390 . S
C134 C133 1.387 . S
C134 C135 1.401 1_655 S
C134 H155 0.930 1_655 S
C135 C134 1.401 1_455 S
C135 C136 1.376 1_455 S
C135 C144 1.511 . S
C136 C135 1.376 1_655 S
C136 C137 1.392 . S
C136 H157 0.931 1_655 S
C137 C136 1.392 . S
C137 C138 1.361 . S
C137 C139 1.500 . S
C138 C133 1.390 . S
C138 C137 1.361 . S
C138 H156 0.931 . S
C139 C137 1.500 . S
C139 C140 1.371 . S
C139 C141 1.365 . S
C140 C139 1.371 . S
C140 C150 1.386 . S
C140 H158 0.931 . S
C141 C139 1.365 . S
C141 C142 1.409 . S
C141 H159 0.929 . S
C142 C141 1.409 . S
C142 C143 1.380 . S
C142 H160 0.930 . S
C143 C142 1.380 . S
C143 C150 1.357 . S
C144 C135 1.511 . S
C144 C145 1.341 . S
C144 C146 1.371 . S
C145 C144 1.341 . S
C145 C149 1.394 . S
C145 H161 0.930 . S
C146 C144 1.371 . S
C146 C147 1.392 . S
C146 H162 0.931 . S
C147 C146 1.392 . S
C147 C148 1.331 . S
C147 H165 0.932 . S
C148 C147 1.331 . S
C148 C149 1.336 . S
C149 C145 1.394 . S
C149 C148 1.336 . S
C149 H164 0.929 . S
C150 C140 1.386 . S
C150 C143 1.357 . S
C150 H163 0.928 . S
H151 C127 0.931 . S
H152 C129 0.930 . S
H153 C131 0.929 . S
H154 C132 0.931 . S
H155 C134 0.930 1_455 S
H156 C138 0.931 . S
H157 C136 0.931 1_455 S
H158 C140 0.931 . S
H159 C141 0.929 . S
H160 C142 0.930 . S
H161 C145 0.930 . S
H162 C146 0.931 . S
H163 C150 0.928 . S
H164 C149 0.929 . S
H165 C147 0.932 . S
C166 C167 1.386 . S
C166 C168 1.397 . S
C166 H190 0.931 . S
C167 C166 1.386 . S
C167 C171 1.397 . S
C168 C166 1.397 . S
C168 C169 1.384 . S
C168 H191 0.930 . S
C169 C168 1.384 . S
C169 C170 1.377 . S
C169 C172 1.481 . S
C170 C169 1.377 . S
C170 C171 1.389 . S
C170 H192 0.929 . S
C171 C167 1.397 . S
C171 C170 1.389 . S
C171 H193 0.931 . S
C172 C169 1.481 . S
C172 C173 1.387 . S
C172 C177 1.380 1_554 S
C173 C172 1.387 . S
C173 C174 1.401 1_554 S
C173 H194 0.930 . S
C174 C173 1.401 1_556 S
C174 C175 1.376 . S
C174 C183 1.511 . S
C175 C174 1.376 . S
C175 C176 1.392 . S
C175 H196 0.931 . S
C176 C175 1.392 . S
C176 C177 1.372 . S
C176 C178 1.500 . S
C177 C172 1.380 1_556 S
C177 C176 1.372 . S
C177 H195 0.931 . S
C178 C176 1.500 . S
C178 C179 1.371 . S
C178 C180 1.365 . S
C179 C178 1.371 . S
C179 C189 1.386 . S
C179 H197 0.931 . S
C180 C178 1.365 . S
C180 C181 1.409 . S
C180 H198 0.929 . S
C181 C180 1.409 . S
C181 C182 1.380 . S
C181 H199 0.930 . S
C182 C181 1.380 . S
C182 C189 1.357 . S
C183 C174 1.511 . S
C183 C184 1.341 1_556 S
C183 C185 1.371 . S
C184 C183 1.341 1_554 S
C184 C188 1.394 . S
C184 H200 0.930 . S
C185 C183 1.371 . S
C185 C186 1.392 . S
C185 H201 0.931 . S
C186 C185 1.392 . S
C186 C187 1.334 . S
C186 H204 0.932 . S
C187 C186 1.334 . S
C187 C188 1.333 1_556 S
C188 C184 1.394 . S
C188 C187 1.333 1_554 S
C188 H203 0.929 . S
C189 C179 1.386 . S
C189 C182 1.357 . S
C189 H202 0.928 . S
H190 C166 0.931 . S
H191 C168 0.930 . S
H192 C170 0.929 . S
H193 C171 0.931 . S
H194 C173 0.930 . S
H195 C177 0.931 . S
H196 C175 0.931 . S
H197 C179 0.931 . S
H198 C180 0.929 . S
H199 C181 0.930 . S
H200 C184 0.930 . S
H201 C185 0.931 . S
H202 C189 0.928 . S
H203 C188 0.929 . S
H204 C186 0.932 . S
C205 C206 1.386 . S
C205 C207 1.397 . S
C205 H229 0.931 . S
C206 C205 1.386 . S
C206 C210 1.397 . S
C207 C205 1.397 . S
C207 C208 1.384 . S
C207 H230 0.930 . S
C208 C207 1.384 . S
C208 C209 1.377 . S
C208 C211 1.481 . S
C209 C208 1.377 . S
C209 C210 1.389 . S
C209 H231 0.929 . S
C210 C206 1.397 . S
C210 C209 1.389 . S
C210 H232 0.931 . S
C211 C208 1.481 . S
C211 C212 1.387 . S
C211 C216 1.390 . S
C212 C211 1.387 . S
C212 C213 1.401 1_455 S
C212 H233 0.930 1_455 S
C213 C212 1.401 1_655 S
C213 C214 1.376 1_655 S
C213 C222 1.511 . S
C214 C213 1.376 1_455 S
C214 C215 1.392 . S
C214 H235 0.931 1_455 S
C215 C214 1.392 . S
C215 C216 1.361 . S
C215 C217 1.500 . S
C216 C211 1.390 . S
C216 C215 1.361 . S
C216 H234 0.931 . S
C217 C215 1.500 . S
C217 C218 1.371 . S
C217 C219 1.365 . S
C218 C217 1.371 . S
C218 C228 1.386 . S
C218 H236 0.931 . S
C219 C217 1.365 . S
C219 C220 1.409 . S
C219 H237 0.929 . S
C220 C219 1.409 . S
C220 C221 1.380 . S
C220 H238 0.930 . S
C221 C220 1.380 . S
C221 C228 1.357 . S
C222 C213 1.511 . S
C222 C223 1.341 . S
C222 C224 1.371 . S
C223 C222 1.341 . S
C223 C227 1.394 . S
C223 H239 0.930 . S
C224 C222 1.371 . S
C224 C225 1.392 . S
C224 H240 0.931 . S
C225 C224 1.392 . S
C225 C226 1.331 . S
C225 H243 0.932 . S
C226 C225 1.331 . S
C226 C227 1.336 . S
C227 C223 1.394 . S
C227 C226 1.336 . S
C227 H242 0.929 . S
C228 C218 1.386 . S
C228 C221 1.357 . S
C228 H241 0.928 . S
H229 C205 0.931 . S
H230 C207 0.930 . S
H231 C209 0.929 . S
H232 C210 0.931 . S
H233 C212 0.930 1_655 S
H234 C216 0.931 . S
H235 C214 0.931 1_655 S
H236 C218 0.931 . S
H237 C219 0.929 . S
H238 C220 0.930 . S
H239 C223 0.930 . S
H240 C224 0.931 . S
H241 C228 0.928 . S
H242 C227 0.929 . S
H243 C225 0.932 . S
C244 C245 1.386 . S
C244 C246 1.397 . S
C244 H268 0.931 . S
C245 C244 1.386 . S
C245 C249 1.397 . S
C246 C244 1.397 . S
C246 C247 1.384 . S
C246 H269 0.930 . S
C247 C246 1.384 . S
C247 C248 1.377 . S
C247 C250 1.481 . S
C248 C247 1.377 . S
C248 C249 1.389 . S
C248 H270 0.929 . S
C249 C245 1.397 . S
C249 C248 1.389 . S
C249 H271 0.931 . S
C250 C247 1.481 . S
C250 C251 1.387 . S
C250 C255 1.390 . S
C251 C250 1.387 . S
C251 C252 1.401 1_565 S
C251 H272 0.930 1_565 S
C252 C251 1.401 1_545 S
C252 C253 1.376 1_545 S
C252 C261 1.511 . S
C253 C252 1.376 1_565 S
C253 C254 1.392 . S
C253 H274 0.931 1_565 S
C254 C253 1.392 . S
C254 C255 1.361 . S
C254 C256 1.500 . S
C255 C250 1.390 . S
C255 C254 1.361 . S
C255 H273 0.931 . S
C256 C254 1.500 . S
C256 C257 1.371 . S
C256 C258 1.365 . S
C257 C256 1.371 . S
C257 C267 1.386 . S
C257 H275 0.931 . S
C258 C256 1.365 . S
C258 C259 1.409 . S
C258 H276 0.929 . S
C259 C258 1.409 . S
C259 C260 1.380 . S
C259 H277 0.930 . S
C260 C259 1.380 . S
C260 C267 1.357 . S
C261 C252 1.511 . S
C261 C262 1.341 . S
C261 C263 1.371 . S
C262 C261 1.341 . S
C262 C266 1.394 . S
C262 H278 0.930 . S
C263 C261 1.371 . S
C263 C264 1.392 . S
C263 H279 0.931 . S
C264 C263 1.392 . S
C264 C265 1.331 . S
C264 H282 0.932 . S
C265 C264 1.331 . S
C265 C266 1.336 . S
C266 C262 1.394 . S
C266 C265 1.336 . S
C266 H281 0.929 . S
C267 C257 1.386 . S
C267 C260 1.357 . S
C267 H280 0.928 . S
H268 C244 0.931 . S
H269 C246 0.930 . S
H270 C248 0.929 . S
H271 C249 0.931 . S
H272 C251 0.930 1_545 S
H273 C255 0.931 . S
H274 C253 0.931 1_545 S
H275 C257 0.931 . S
H276 C258 0.929 . S
H277 C259 0.930 . S
H278 C262 0.930 . S
H279 C263 0.931 . S
H280 C267 0.928 . S
H281 C266 0.929 . S
H282 C264 0.932 . S
C283 C284 1.386 . S
C283 C285 1.397 . S
C283 H307 0.931 . S
C284 C283 1.386 . S
C284 C288 1.397 . S
C285 C283 1.397 . S
C285 C286 1.384 . S
C285 H308 0.930 . S
C286 C285 1.384 . S
C286 C287 1.377 . S
C286 C289 1.481 . S
C287 C286 1.377 . S
C287 C288 1.389 . S
C287 H309 0.929 . S
C288 C284 1.397 . S
C288 C287 1.389 . S
C288 H310 0.931 . S
C289 C286 1.481 . S
C289 C290 1.387 . S
C289 C294 1.380 1_554 S
C290 C289 1.387 . S
C290 C291 1.401 1_554 S
C290 H311 0.930 . S
C291 C290 1.401 1_556 S
C291 C292 1.376 . S
C291 C300 1.511 . S
C292 C291 1.376 . S
C292 C293 1.392 . S
C292 H313 0.931 . S
C293 C292 1.392 . S
C293 C294 1.372 . S
C293 C295 1.500 . S
C294 C289 1.380 1_556 S
C294 C293 1.372 . S
C294 H312 0.931 . S
C295 C293 1.500 . S
C295 C296 1.371 . S
C295 C297 1.365 . S
C296 C295 1.371 . S
C296 C306 1.386 . S
C296 H314 0.931 . S
C297 C295 1.365 . S
C297 C298 1.409 . S
C297 H315 0.929 . S
C298 C297 1.409 . S
C298 C299 1.380 . S
C298 H316 0.930 . S
C299 C298 1.380 . S
C299 C306 1.357 . S
C300 C291 1.511 . S
C300 C301 1.341 1_556 S
C300 C302 1.371 . S
C301 C300 1.341 1_554 S
C301 C305 1.394 . S
C301 H317 0.930 . S
C302 C300 1.371 . S
C302 C303 1.392 . S
C302 H318 0.931 . S
C303 C302 1.392 . S
C303 C304 1.334 . S
C303 H321 0.932 . S
C304 C303 1.334 . S
C304 C305 1.333 1_556 S
C305 C301 1.394 . S
C305 C304 1.333 1_554 S
C305 H320 0.929 . S
C306 C296 1.386 . S
C306 C299 1.357 . S
C306 H319 0.928 . S
H307 C283 0.931 . S
H308 C285 0.930 . S
H309 C287 0.929 . S
H310 C288 0.931 . S
H311 C290 0.930 . S
H312 C294 0.931 . S
H313 C292 0.931 . S
H314 C296 0.931 . S
H315 C297 0.929 . S
H316 C298 0.930 . S
H317 C301 0.930 . S
H318 C302 0.931 . S
H319 C306 0.928 . S
H320 C305 0.929 . S
H321 C303 0.932 . S
C322 C323 1.386 . S
C322 C324 1.397 . S
C322 H346 0.931 . S
C323 C322 1.386 . S
C323 C327 1.397 . S
C324 C322 1.397 . S
C324 C325 1.384 . S
C324 H347 0.930 . S
C325 C324 1.384 . S
C325 C326 1.377 . S
C325 C328 1.481 . S
C326 C325 1.377 . S
C326 C327 1.389 . S
C326 H348 0.929 . S
C327 C323 1.397 . S
C327 C326 1.389 . S
C327 H349 0.931 . S
C328 C325 1.481 . S
C328 C329 1.387 . S
C328 C333 1.390 . S
C329 C328 1.387 . S
C329 C330 1.401 1_545 S
C329 H350 0.930 1_545 S
C330 C329 1.401 1_565 S
C330 C331 1.376 1_565 S
C330 C339 1.511 . S
C331 C330 1.376 1_545 S
C331 C332 1.392 . S
C331 H352 0.931 1_545 S
C332 C331 1.392 . S
C332 C333 1.361 . S
C332 C334 1.500 . S
C333 C328 1.390 . S
C333 C332 1.361 . S
C333 H351 0.931 . S
C334 C332 1.500 . S
C334 C335 1.371 . S
C334 C336 1.365 . S
C335 C334 1.371 . S
C335 C345 1.386 . S
C335 H353 0.931 . S
C336 C334 1.365 . S
C336 C337 1.409 . S
C336 H354 0.929 . S
C337 C336 1.409 . S
C337 C338 1.380 . S
C337 H355 0.930 . S
C338 C337 1.380 . S
C338 C345 1.357 . S
C339 C330 1.511 . S
C339 C340 1.341 . S
C339 C341 1.371 . S
C340 C339 1.341 . S
C340 C344 1.394 . S
C340 H356 0.930 . S
C341 C339 1.371 . S
C341 C342 1.392 . S
C341 H357 0.931 . S
C342 C341 1.392 . S
C342 C343 1.331 . S
C342 H360 0.932 . S
C343 C342 1.331 . S
C343 C344 1.336 . S
C344 C340 1.394 . S
C344 C343 1.336 . S
C344 H359 0.929 . S
C345 C335 1.386 . S
C345 C338 1.357 . S
C345 H358 0.928 . S
H346 C322 0.931 . S
H347 C324 0.930 . S
H348 C326 0.929 . S
H349 C327 0.931 . S
H350 C329 0.930 1_565 S
H351 C333 0.931 . S
H352 C331 0.931 1_565 S
H353 C335 0.931 . S
H354 C336 0.929 . S
H355 C337 0.930 . S
H356 C340 0.930 . S
H357 C341 0.931 . S
H358 C345 0.928 . S
H359 C344 0.929 . S
H360 C342 0.932 . S
C361 C362 1.386 . S
C361 C363 1.397 . S
C361 H385 0.931 . S
C362 C361 1.386 . S
C362 C366 1.397 . S
C363 C361 1.397 . S
C363 C364 1.384 . S
C363 H386 0.930 . S
C364 C363 1.384 . S
C364 C365 1.377 . S
C364 C367 1.481 . S
C365 C364 1.377 . S
C365 C366 1.389 . S
C365 H387 0.929 . S
C366 C362 1.397 . S
C366 C365 1.389 . S
C366 H388 0.931 . S
C367 C364 1.481 . S
C367 C368 1.387 . S
C367 C372 1.390 1_556 S
C368 C367 1.387 . S
C368 C369 1.401 1_556 S
C368 H389 0.930 . S
C369 C368 1.401 1_554 S
C369 C370 1.376 . S
C369 C378 1.511 . S
C370 C369 1.376 . S
C370 C371 1.392 . S
C370 H391 0.931 . S
C371 C370 1.392 . S
C371 C372 1.361 . S
C371 C373 1.500 . S
C372 C367 1.390 1_554 S
C372 C371 1.361 . S
C372 H390 0.931 . S
C373 C371 1.500 . S
C373 C374 1.371 . S
C373 C375 1.365 . S
C374 C373 1.371 . S
C374 C384 1.386 . S
C374 H392 0.931 . S
C375 C373 1.365 . S
C375 C376 1.409 . S
C375 H393 0.929 . S
C376 C375 1.409 . S
C376 C377 1.380 . S
C376 H394 0.930 . S
C377 C376 1.380 . S
C377 C384 1.357 . S
C378 C369 1.511 . S
C378 C379 1.341 1_554 S
C378 C380 1.371 . S
C379 C378 1.341 1_556 S
C379 C383 1.394 . S
C379 H395 0.930 . S
C380 C378 1.371 . S
C380 C381 1.392 . S
C380 H396 0.931 . S
C381 C380 1.392 . S
C381 C382 1.344 . S
C381 H399 0.932 . S
C382 C381 1.344 . S
C382 C383 1.323 1_554 S
C383 C379 1.394 . S
C383 C382 1.323 1_556 S
C383 H398 0.929 . S
C384 C374 1.386 . S
C384 C377 1.357 . S
C384 H397 0.928 . S
H385 C361 0.931 . S
H386 C363 0.930 . S
H387 C365 0.929 . S
H388 C366 0.931 . S
H389 C368 0.930 . S
H390 C372 0.931 . S
H391 C370 0.931 . S
H392 C374 0.931 . S
H393 C375 0.929 . S
H394 C376 0.930 . S
H395 C379 0.930 . S
H396 C380 0.931 . S
H397 C384 0.928 . S
H398 C383 0.929 . S
H399 C381 0.932 . S
C400 C401 1.369 . S
C400 C402 1.419 . S
C400 H404 0.930 . S
C401 C400 1.369 . S
C401 C410 1.429 . S
C402 C400 1.419 . S
C402 C403 1.363 . S
C402 H405 0.929 . S
C403 C402 1.363 . S
C403 C409 1.428 . S
H404 C400 0.930 . S
H405 C402 0.929 . S
S406 N407 1.613 . S
S406 N408 1.610 . S
N407 S406 1.613 . S
N407 C410 1.350 . S
N408 S406 1.610 . S
N408 C409 1.351 . S
C409 C403 1.428 . S
C409 N408 1.351 . S
C409 C410 1.434 . S
C410 C401 1.429 . S
C410 N407 1.350 . S
C410 C409 1.434 . S
C411 C412 1.369 . S
C411 C413 1.419 . S
C411 H415 0.930 . S
C412 C411 1.369 . S
C412 C421 1.429 . S
C413 C411 1.419 . S
C413 C414 1.363 . S
C413 H416 0.929 . S
C414 C413 1.363 . S
C414 C420 1.428 . S
H415 C411 0.930 . S
H416 C413 0.929 . S
S417 N418 1.613 . S
S417 N419 1.610 . S
N418 S417 1.613 . S
N418 C421 1.350 . S
N419 S417 1.610 . S
N419 C420 1.351 . S
C420 C414 1.428 . S
C420 N419 1.351 . S
C420 C421 1.434 . S
C421 C412 1.429 . S
C421 N418 1.350 . S
C421 C420 1.434 . S
C422 C423 1.369 . S
C422 C424 1.419 . S
C422 H426 0.930 . S
C423 C422 1.369 . S
C423 C432 1.429 . S
C424 C422 1.419 . S
C424 C425 1.363 . S
C424 H427 0.929 . S
C425 C424 1.363 . S
C425 C431 1.428 . S
H426 C422 0.930 . S
H427 C424 0.929 . S
S428 N429 1.613 . S
S428 N430 1.610 . S
N429 S428 1.613 . S
N429 C432 1.350 . S
N430 S428 1.610 . S
N430 C431 1.351 . S
C431 C425 1.428 . S
C431 N430 1.351 . S
C431 C432 1.434 . S
C432 C423 1.429 . S
C432 N429 1.350 . S
C432 C431 1.434 . S
C433 C434 1.369 . S
C433 C435 1.419 . S
C433 H437 0.930 . S
C434 C433 1.369 . S
C434 C443 1.429 . S
C435 C433 1.419 . S
C435 C436 1.363 . S
C435 H438 0.929 . S
C436 C435 1.363 . S
C436 C442 1.428 . S
H437 C433 0.930 . S
H438 C435 0.929 . S
S439 N440 1.613 . S
S439 N441 1.610 . S
N440 S439 1.613 . S
N440 C443 1.350 . S
N441 S439 1.610 . S
N441 C442 1.351 . S
C442 C436 1.428 . S
C442 N441 1.351 . S
C442 C443 1.434 . S
C443 C434 1.429 . S
C443 N440 1.350 . S
C443 C442 1.434 . S
C444 C445 1.369 . S
C444 C446 1.419 . S
C444 H448 0.930 . S
C445 C444 1.369 . S
C445 C454 1.429 . S
C446 C444 1.419 . S
C446 C447 1.363 . S
C446 H449 0.929 . S
C447 C446 1.363 . S
C447 C453 1.428 . S
H448 C444 0.930 . S
H449 C446 0.929 . S
S450 N451 1.613 . S
S450 N452 1.610 . S
N451 S450 1.613 . S
N451 C454 1.350 . S
N452 S450 1.610 . S
N452 C453 1.351 . S
C453 C447 1.428 . S
C453 N452 1.351 . S
C453 C454 1.434 . S
C454 C445 1.429 . S
C454 N451 1.350 . S
C454 C453 1.434 . S
C455 C456 1.369 . S
C455 C457 1.419 . S
C455 H459 0.930 . S
C456 C455 1.369 . S
C456 C465 1.429 . S
C457 C455 1.419 . S
C457 C458 1.363 . S
C457 H460 0.929 . S
C458 C457 1.363 . S
C458 C464 1.428 . S
H459 C455 0.930 . S
H460 C457 0.929 . S
S461 N462 1.613 . S
S461 N463 1.610 . S
N462 S461 1.613 . S
N462 C465 1.350 . S
N463 S461 1.610 . S
N463 C464 1.351 . S
C464 C458 1.428 . S
C464 N463 1.351 . S
C464 C465 1.434 . S
C465 C456 1.429 . S
C465 N462 1.350 . S
C465 C464 1.434 . S
C466 C467 1.369 . S
C466 C468 1.419 . S
C466 H470 0.930 . S
C467 C466 1.369 . S
C467 C476 1.429 . S
C468 C466 1.419 . S
C468 C469 1.363 . S
C468 H471 0.929 . S
C469 C468 1.363 . S
C469 C475 1.428 . S
H470 C466 0.930 . S
H471 C468 0.929 . S
S472 N473 1.613 . S
S472 N474 1.610 . S
N473 S472 1.613 . S
N473 C476 1.350 . S
N474 S472 1.610 . S
N474 C475 1.351 . S
C475 C469 1.428 . S
C475 N474 1.351 . S
C475 C476 1.434 . S
C476 C467 1.429 . S
C476 N473 1.350 . S
C476 C475 1.434 . S
C477 C478 1.369 . S
C477 C479 1.419 . S
C477 H481 0.930 . S
C478 C477 1.369 . S
C478 C487 1.429 . S
C479 C477 1.419 . S
C479 C480 1.363 . S
C479 H482 0.929 . S
C480 C479 1.363 . S
C480 C486 1.428 . S
H481 C477 0.930 . S
H482 C479 0.929 . S
S483 N484 1.613 . S
S483 N485 1.610 . S
N484 S483 1.613 . S
N484 C487 1.350 . S
N485 S483 1.610 . S
N485 C486 1.351 . S
C486 C480 1.428 . S
C486 N485 1.351 . S
C486 C487 1.434 . S
C487 C478 1.429 . S
C487 N484 1.350 . S
C487 C486 1.434 . S
C488 C489 1.369 . S
C488 C490 1.419 . S
C488 H492 0.930 . S
C489 C488 1.369 . S
C489 C498 1.429 . S
C490 C488 1.419 . S
C490 C491 1.363 . S
C490 H493 0.929 . S
C491 C490 1.363 . S
C491 C497 1.428 . S
H492 C488 0.930 . S
H493 C490 0.929 . S
S494 N495 1.613 . S
S494 N496 1.610 . S
N495 S494 1.613 . S
N495 C498 1.350 . S
N496 S494 1.610 . S
N496 C497 1.351 . S
C497 C491 1.428 . S
C497 N496 1.351 . S
C497 C498 1.434 . S
C498 C489 1.429 . S
C498 N495 1.350 . S
C498 C497 1.434 . S
C499 C500 1.369 . S
C499 C501 1.419 . S
C499 H503 0.930 . S
C500 C499 1.369 . S
C500 C509 1.429 . S
C501 C499 1.419 . S
C501 C502 1.363 . S
C501 H504 0.929 . S
C502 C501 1.363 . S
C502 C508 1.428 . S
H503 C499 0.930 . S
H504 C501 0.929 . S
S505 N506 1.613 . S
S505 N507 1.610 . S
N506 S505 1.613 . S
N506 C509 1.350 . S
N507 S505 1.610 . S
N507 C508 1.351 . S
C508 C502 1.428 . S
C508 N507 1.351 . S
C508 C509 1.434 . S
C509 C500 1.429 . S
C509 N506 1.350 . S
C509 C508 1.434 . S
C510 C511 1.369 . S
C510 C512 1.419 . S
C510 H514 0.930 . S
C511 C510 1.369 . S
C511 C520 1.429 . S
C512 C510 1.419 . S
C512 C513 1.363 . S
C512 H515 0.929 . S
C513 C512 1.363 . S
C513 C519 1.428 . S
H514 C510 0.930 . S
H515 C512 0.929 . S
S516 N517 1.613 . S
S516 N518 1.610 . S
N517 S516 1.613 . S
N517 C520 1.350 . S
N518 S516 1.610 . S
N518 C519 1.351 . S
C519 C513 1.428 . S
C519 N518 1.351 . S
C519 C520 1.434 . S
C520 C511 1.429 . S
C520 N517 1.350 . S
C520 C519 1.434 . S
C521 C522 1.369 . S
C521 C523 1.419 . S
C521 H525 0.930 . S
C522 C521 1.369 . S
C522 C531 1.429 . S
C523 C521 1.419 . S
C523 C524 1.363 . S
C523 H526 0.929 . S
C524 C523 1.363 . S
C524 C530 1.428 . S
H525 C521 0.930 . S
H526 C523 0.929 . S
S527 N528 1.613 . S
S527 N529 1.610 . S
N528 S527 1.613 . S
N528 C531 1.350 . S
N529 S527 1.610 . S
N529 C530 1.351 . S
C530 C524 1.428 . S
C530 N529 1.351 . S
C530 C531 1.434 . S
C531 C522 1.429 . S
C531 N528 1.350 . S
C531 C530 1.434 . S
C532 C533 1.369 . S
C532 C534 1.419 . S
C532 H536 0.930 . S
C533 C532 1.369 . S
C533 C542 1.429 . S
C534 C532 1.419 . S
C534 C535 1.363 . S
C534 H537 0.929 . S
C535 C534 1.363 . S
C535 C541 1.428 . S
H536 C532 0.930 . S
H537 C534 0.929 . S
S538 N539 1.613 . S
S538 N540 1.610 . S
N539 S538 1.613 . S
N539 C542 1.350 . S
N540 S538 1.610 . S
N540 C541 1.351 . S
C541 C535 1.428 . S
C541 N540 1.351 . S
C541 C542 1.434 . S
C542 C533 1.429 . S
C542 N539 1.350 . S
C542 C541 1.434 . S
C543 C544 1.369 . S
C543 C545 1.419 . S
C543 H547 0.930 . S
C544 C543 1.369 . S
C544 C553 1.429 . S
C545 C543 1.419 . S
C545 C546 1.363 . S
C545 H548 0.929 . S
C546 C545 1.363 . S
C546 C552 1.428 . S
H547 C543 0.930 . S
H548 C545 0.929 . S
S549 N550 1.613 . S
S549 N551 1.610 . S
N550 S549 1.613 . S
N550 C553 1.350 . S
N551 S549 1.610 . S
N551 C552 1.351 . S
C552 C546 1.428 . S
C552 N551 1.351 . S
C552 C553 1.434 . S
C553 C544 1.429 . S
C553 N550 1.350 . S
C553 C552 1.434 . S
C554 C555 1.369 . S
C554 C556 1.419 . S
C554 H558 0.930 . S
C555 C554 1.369 . S
C555 C564 1.429 . S
C556 C554 1.419 . S
C556 C557 1.363 . S
C556 H559 0.929 . S
C557 C556 1.363 . S
C557 C563 1.428 . S
H558 C554 0.930 . S
H559 C556 0.929 . S
S560 N561 1.613 . S
S560 N562 1.610 . S
N561 S560 1.613 . S
N561 C564 1.350 . S
N562 S560 1.610 . S
N562 C563 1.351 . S
C563 C557 1.428 . S
C563 N562 1.351 . S
C563 C564 1.434 . S
C564 C555 1.429 . S
C564 N561 1.350 . S
C564 C563 1.434 . S
C565 C566 1.369 . S
C565 C567 1.419 . S
C565 H569 0.930 . S
C566 C565 1.369 . S
C566 C575 1.429 . S
C567 C565 1.419 . S
C567 C568 1.363 . S
C567 H570 0.929 . S
C568 C567 1.363 . S
C568 C574 1.428 . S
H569 C565 0.930 . S
H570 C567 0.929 . S
S571 N572 1.613 . S
S571 N573 1.610 . S
N572 S571 1.613 . S
N572 C575 1.350 . S
N573 S571 1.610 . S
N573 C574 1.351 . S
C574 C568 1.428 . S
C574 N573 1.351 . S
C574 C575 1.434 . S
C575 C566 1.429 . S
C575 N572 1.350 . S
C575 C574 1.434 . S
C576 C577 1.362 1_554 S
C576 C578 1.419 . S
C576 H580 0.930 . S
C577 C576 1.362 1_556 S
C577 C586 1.436 . S
C578 C576 1.419 . S
C578 C579 1.355 1_554 S
C578 H581 0.929 . S
C579 C578 1.355 1_556 S
C579 C585 1.437 . S
H580 C576 0.930 . S
H581 C578 0.929 . S
S582 N583 1.613 . S
S582 N584 1.610 . S
N583 S582 1.613 . S
N583 C586 1.350 . S
N584 S582 1.610 . S
N584 C585 1.351 . S
C585 C579 1.437 . S
C585 N584 1.351 . S
C585 C586 1.434 . S
C586 C577 1.436 . S
C586 N583 1.350 . S
C586 C585 1.434 . S
C587 C588 1.369 . S
C587 C589 1.419 . S
C587 H591 0.930 . S
C588 C587 1.369 . S
C588 C597 1.429 . S
C589 C587 1.419 . S
C589 C590 1.363 . S
C589 H592 0.929 . S
C590 C589 1.363 . S
C590 C596 1.428 . S
H591 C587 0.930 . S
H592 C589 0.929 . S
S593 N594 1.613 . S
S593 N595 1.610 . S
N594 S593 1.613 . S
N594 C597 1.350 . S
N595 S593 1.610 . S
N595 C596 1.351 . S
C596 C590 1.428 . S
C596 N595 1.351 . S
C596 C597 1.434 . S
C597 C588 1.429 . S
C597 N594 1.350 . S
C597 C596 1.434 . S
C598 C599 1.369 1_556 S
C598 C600 1.419 . S
C598 H602 0.930 . S
C599 C598 1.369 1_554 S
C599 C608 1.429 . S
C600 C598 1.419 . S
C600 C601 1.363 1_556 S
C600 H603 0.929 . S
C601 C600 1.363 1_554 S
C601 C607 1.428 . S
H602 C598 0.930 . S
H603 C600 0.929 . S
S604 N605 1.613 . S
S604 N606 1.610 . S
N605 S604 1.613 . S
N605 C608 1.350 . S
N606 S604 1.610 . S
N606 C607 1.351 . S
C607 C601 1.428 . S
C607 N606 1.351 . S
C607 C608 1.434 . S
C608 C599 1.429 . S
C608 N605 1.350 . S
C608 C607 1.434 . S
C609 C610 1.369 . S
C609 C611 1.419 . S
C609 H613 0.930 . S
C610 C609 1.369 . S
C610 C619 1.429 . S
C611 C609 1.419 . S
C611 C612 1.363 . S
C611 H614 0.929 . S
C612 C611 1.363 . S
C612 C618 1.428 . S
H613 C609 0.930 . S
H614 C611 0.929 . S
S615 N616 1.613 . S
S615 N617 1.610 . S
N616 S615 1.613 . S
N616 C619 1.350 . S
N617 S615 1.610 . S
N617 C618 1.351 . S
C618 C612 1.428 . S
C618 N617 1.351 . S
C618 C619 1.434 . S
C619 C610 1.429 . S
C619 N616 1.350 . S
C619 C618 1.434 . S
C620 C621 1.369 . S
C620 C622 1.419 . S
C620 H624 0.930 . S
C621 C620 1.369 . S
C621 C630 1.429 . S
C622 C620 1.419 . S
C622 C623 1.363 . S
C622 H625 0.929 . S
C623 C622 1.363 . S
C623 C629 1.428 . S
H624 C620 0.930 . S
H625 C622 0.929 . S
S626 N627 1.613 . S
S626 N628 1.610 . S
N627 S626 1.613 . S
N627 C630 1.350 . S
N628 S626 1.610 . S
N628 C629 1.351 . S
C629 C623 1.428 . S
C629 N628 1.351 . S
C629 C630 1.434 . S
C630 C621 1.429 . S
C630 N627 1.350 . S
C630 C629 1.434 . S
C631 C632 1.372 . S
C631 C633 1.419 . S
C631 H635 0.930 . S
C632 C631 1.372 . S
C632 C641 1.426 1_554 S
C633 C631 1.419 . S
C633 C634 1.367 . S
C633 H636 0.929 . S
C634 C633 1.367 . S
C634 C640 1.424 1_554 S
H635 C631 0.930 . S
H636 C633 0.929 . S
S637 N638 1.613 . S
S637 N639 1.610 . S
N638 S637 1.613 . S
N638 C641 1.350 . S
N639 S637 1.610 . S
N639 C640 1.351 . S
C640 C634 1.424 1_556 S
C640 N639 1.351 . S
C640 C641 1.434 . S
C641 C632 1.426 1_556 S
C641 N638 1.350 . S
C641 C640 1.434 . S
C642 C643 1.369 . S
C642 C644 1.419 . S
C642 H646 0.930 . S
C643 C642 1.369 . S
C643 C652 1.429 . S
C644 C642 1.419 . S
C644 C645 1.363 . S
C644 H647 0.929 . S
C645 C644 1.363 . S
C645 C651 1.428 . S
H646 C642 0.930 . S
H647 C644 0.929 . S
S648 N649 1.613 . S
S648 N650 1.610 . S
N649 S648 1.613 . S
N649 C652 1.350 . S
N650 S648 1.610 . S
N650 C651 1.351 . S
C651 C645 1.428 . S
C651 N650 1.351 . S
C651 C652 1.434 . S
C652 C643 1.429 . S
C652 N649 1.350 . S
C652 C651 1.434 . S
C653 C654 1.370 1_554 S
C653 C655 1.419 . S
C653 H657 0.930 . S
C654 C653 1.370 1_556 S
C654 C663 1.428 . S
C655 C653 1.419 . S
C655 C656 1.362 1_554 S
C655 H658 0.929 . S
C656 C655 1.362 1_556 S
C656 C662 1.430 . S
H657 C653 0.930 . S
H658 C655 0.929 . S
S659 N660 1.613 . S
S659 N661 1.610 . S
N660 S659 1.613 . S
N660 C663 1.350 . S
N661 S659 1.610 . S
N661 C662 1.351 . S
C662 C656 1.430 . S
C662 N661 1.351 . S
C662 C663 1.434 . S
C663 C654 1.428 . S
C663 N660 1.350 . S
C663 C662 1.434 . S
C401 C5 1.547 . S
C403 C221 1.517 . S
C412 C31 1.550 . S
C414 C89 1.521 . S
C425 C128 1.520 . S
C423 C53 1.548 . S
C434 C71 1.546 . S
C436 C182 1.518 . S
C447 C284 1.525 . S
C445 C75 1.553 . S
C458 C338 1.517 . S
C456 C9 1.546 . S
C469 C377 1.517 . S
C467 C27 1.546 . S
C480 C245 1.522 . S
C478 C49 1.550 . S
C489 C51 1.547 . S
C491 C143 1.514 . S
C500 C72 1.551 . S
C502 C167 1.521 . S
C511 C6 1.550 . S
C513 C206 1.519 . S
C524 C104 1.513 . S
C522 C29 1.545 . S
C533 C28 1.551 . S
C535 C362 1.521 . S
C546 C260 1.515 . S
C544 C50 1.549 . S
C557 C299 1.518 . S
C555 C73 1.548 . S
C566 C7 1.550 . S
C568 C323 1.516 . S
C579 C109 1.522 1_556 S
C577 C4 1.535 1_556 S
C590 C148 1.525 . S
C588 C30 1.536 . S
C599 C52 1.535 . S
C601 C187 1.513 1_554 S
C610 C70 1.536 . S
C612 C226 1.516 . S
C623 C265 1.523 . S
C621 C74 1.535 . S
C632 C8 1.536 . S
C634 C304 1.525 1_554 S
C643 C26 1.536 . S
C645 C343 1.515 . S
C654 C48 1.536 1_556 S
C656 C382 1.516 1_556 S
