# Generated by pormake.
# Topology zzz, (3,6)-cn, num edge types: 1
# Building blocks:
#     Node 0, Type 0, BuildingBlock: BELTOD_clean_linker_0, # of connection points: 3
#     Node 1, Type 0, BuildingBlock: BELTOD_clean_linker_0, # of connection points: 3
#     Node 2, Type 0, BuildingBlock: BELTOD_clean_linker_0, # of connection points: 3
#     Node 3, Type 0, BuildingBlock: BELTOD_clean_linker_0, # of connection points: 3
#     Node 4, Type 0, BuildingBlock: BELTOD_clean_linker_0, # of connection points: 3
#     Node 5, Type 0, BuildingBlock: BELTOD_clean_linker_0, # of connection points: 3
#     Node 6, Type 0, BuildingBlock: BELTOD_clean_linker_0, # of connection points: 3
#     Node 7, Type 0, BuildingBlock: BELTOD_clean_linker_0, # of connection points: 3
#     Node 8, Type 1, BuildingBlock: JUFBIX_clean_sbu_0, # of connection points: 6
#     Node 9, Type 1, BuildingBlock: JUFBIX_clean_sbu_0, # of connection points: 6
#     Node 10, Type 1, BuildingBlock: JUFBIX_clean_sbu_0, # of connection points: 6
#     Node 11, Type 1, BuildingBlock: JUFBIX_clean_sbu_0, # of connection points: 6
#     Edge 12, Type (0, 1), BuildingBlock: XUDNAN_clean_linker_2, # of connection points: 2
#     Edge 13, Type (0, 1), BuildingBlock: XUDNAN_clean_linker_2, # of connection points: 2
#     Edge 14, Type (0, 1), BuildingBlock: XUDNAN_clean_linker_2, # of connection points: 2
#     Edge 15, Type (0, 1), BuildingBlock: XUDNAN_clean_linker_2, # of connection points: 2
#     Edge 16, Type (0, 1), BuildingBlock: XUDNAN_clean_linker_2, # of connection points: 2
#     Edge 17, Type (0, 1), BuildingBlock: XUDNAN_clean_linker_2, # of connection points: 2
#     Edge 18, Type (0, 1), BuildingBlock: XUDNAN_clean_linker_2, # of connection points: 2
#     Edge 19, Type (0, 1), BuildingBlock: XUDNAN_clean_linker_2, # of connection points: 2
#     Edge 20, Type (0, 1), BuildingBlock: XUDNAN_clean_linker_2, # of connection points: 2
#     Edge 21, Type (0, 1), BuildingBlock: XUDNAN_clean_linker_2, # of connection points: 2
#     Edge 22, Type (0, 1), BuildingBlock: XUDNAN_clean_linker_2, # of connection points: 2
#     Edge 23, Type (0, 1), BuildingBlock: XUDNAN_clean_linker_2, # of connection points: 2
#     Edge 24, Type (0, 1), BuildingBlock: XUDNAN_clean_linker_2, # of connection points: 2
#     Edge 25, Type (0, 1), BuildingBlock: XUDNAN_clean_linker_2, # of connection points: 2
#     Edge 26, Type (0, 1), BuildingBlock: XUDNAN_clean_linker_2, # of connection points: 2
#     Edge 27, Type (0, 1), BuildingBlock: XUDNAN_clean_linker_2, # of connection points: 2
#     Edge 28, Type (0, 1), BuildingBlock: XUDNAN_clean_linker_2, # of connection points: 2
#     Edge 29, Type (0, 1), BuildingBlock: XUDNAN_clean_linker_2, # of connection points: 2
#     Edge 30, Type (0, 1), BuildingBlock: XUDNAN_clean_linker_2, # of connection points: 2
#     Edge 31, Type (0, 1), BuildingBlock: XUDNAN_clean_linker_2, # of connection points: 2
#     Edge 32, Type (0, 1), BuildingBlock: XUDNAN_clean_linker_2, # of connection points: 2
#     Edge 33, Type (0, 1), BuildingBlock: XUDNAN_clean_linker_2, # of connection points: 2
#     Edge 34, Type (0, 1), BuildingBlock: XUDNAN_clean_linker_2, # of connection points: 2
#     Edge 35, Type (0, 1), BuildingBlock: XUDNAN_clean_linker_2, # of connection points: 2
# Relax obj value: 0.263
# Max RMSD: 0.211
# Mean RMSD: 0.177
data_MOF--net-zzz--node1-JUFBIX_clean_sbu_0--node2-BELTOD_clean_linker_0--edge1-XUDNAN_clean_linker_2
_symmetry_space_group_name_H-M    P1
_symmetry_Int_Tables_number       1
_symmetry_cell_setting            triclinic
loop_
_symmetry_equiv_pos_as_xyz
'x, y, z'
_cell_length_a     54.000027
_cell_length_b     55.666534
_cell_length_c     21.198081
_cell_angle_alpha  82.278286
_cell_angle_beta   90.153795
_cell_angle_gamma 86.467208
loop_
_atom_site_label
_atom_site_type_symbol
_atom_site_fract_x
_atom_site_fract_y
_atom_site_fract_z
_atom_type_partial_charge
P0 P 0.77603 0.50331 0.31935 0.0
H1 H 0.75682 0.5145 0.44189 0.0
H2 H 0.77739 0.52923 0.53098 0.0
H3 H 0.84054 0.54573 0.4112 0.0
H4 H 0.81957 0.5327 0.32324 0.0
H5 H 0.74249 0.47684 0.25417 0.0
H6 H 0.70622 0.48874 0.18725 0.0
H7 H 0.7092 0.56269 0.22741 0.0
H8 H 0.7466 0.55046 0.2934 0.0
H9 H 0.81755 0.46825 0.30445 0.0
H10 H 0.78626 0.536 0.20448 0.0
O11 O 0.77362 0.47546 0.3584 0.0
H12 H 0.8539 0.47088 0.23547 0.0
H13 H 0.82275 0.53888 0.1364 0.0
C14 C 0.78668 0.52201 0.37598 0.0
C15 C 0.77467 0.52223 0.43439 0.0
C16 C 0.78665 0.5304 0.48554 0.0
C17 C 0.81106 0.53808 0.47927 0.0
C18 C 0.82182 0.54011 0.41859 0.0
C19 C 0.80973 0.5323 0.3676 0.0
C20 C 0.74683 0.51262 0.27992 0.0
C21 C 0.73504 0.49552 0.24985 0.0
C22 C 0.71413 0.5024 0.21163 0.0
C23 C 0.70439 0.52666 0.2025 0.0
C24 C 0.71617 0.54385 0.23336 0.0
C25 C 0.73737 0.53688 0.2716 0.0
C26 C 0.7991 0.50177 0.25893 0.0
C27 C 0.81812 0.48327 0.26644 0.0
C28 C 0.83889 0.4848 0.22725 0.0
C29 C 0.84105 0.50514 0.18119 0.0
C30 C 0.82145 0.52307 0.17186 0.0
C31 C 0.80054 0.52132 0.21027 0.0
P32 P 0.05316 0.76299 0.28574 0.0
H33 H 0.05154 0.75838 0.42501 0.0
H34 H 0.03275 0.78502 0.4966 0.0
H35 H 0.99323 0.82715 0.33734 0.0
H36 H 0.01244 0.8006 0.26583 0.0
H37 H 0.07257 0.71615 0.25494 0.0
H38 H 0.0572 0.68844 0.18654 0.0
H39 H 0.98792 0.73195 0.16145 0.0
H40 H 0.00335 0.75943 0.23167 0.0
H41 H 0.07599 0.80861 0.2923 0.0
H42 H 0.05035 0.76934 0.14497 0.0
O43 O 0.07879 0.7509 0.32485 0.0
H44 H 0.08427 0.84291 0.21174 0.0
H45 H 0.05782 0.8035 0.06523 0.0
C46 C 0.0336 0.77765 0.33999 0.0
C47 C 0.03833 0.77294 0.40569 0.0
C48 C 0.02751 0.78821 0.44669 0.0
C49 C 0.01178 0.80847 0.42257 0.0
C50 C 0.00562 0.81197 0.35727 0.0
C51 C 0.01638 0.79664 0.3164 0.0
C52 C 0.03898 0.73966 0.24937 0.0
C53 C 0.05379 0.71938 0.2364 0.0
C54 C 0.04509 0.7037 0.1964 0.0
C55 C 0.02145 0.70815 0.16768 0.0
C56 C 0.00615 0.72789 0.18311 0.0
C57 C 0.0149 0.74358 0.22348 0.0
C58 C 0.06227 0.78652 0.22496 0.0
C59 C 0.07237 0.80726 0.24265 0.0
C60 C 0.07695 0.82689 0.19665 0.0
C61 C 0.07158 0.82601 0.13207 0.0
C62 C 0.06246 0.80472 0.11438 0.0
C63 C 0.05792 0.78514 0.16035 0.0
P64 P 0.75262 0.0165 0.23599 0.0
H65 H 0.75303 0.01369 0.37473 0.0
H66 H 0.72479 0.99558 0.45484 0.0
H67 H 0.69107 0.95865 0.31314 0.0
H68 H 0.71945 0.97674 0.23328 0.0
H69 H 0.79608 0.04065 0.18873 0.0
H70 H 0.83248 0.02743 0.13246 0.0
H71 H 0.80959 0.95377 0.16107 0.0
H72 H 0.77281 0.96732 0.21821 0.0
H73 H 0.70947 0.05061 0.21028 0.0
H74 H 0.74769 0.99485 0.11776 0.0
O75 O 0.75696 0.04274 0.26318 0.0
H76 H 0.67781 0.0564 0.12586 0.0
H77 H 0.71604 1.0 0.03483 0.0
C78 C 0.73798 0.99701 0.29776 0.0
C79 C 0.74008 1.00113 0.36129 0.0
C80 C 0.72393 0.99071 0.40714 0.0
C81 C 0.70539 0.97605 0.38997 0.0
C82 C 0.70487 0.97023 0.32746 0.0
C83 C 0.72117 0.9805 0.28182 0.0
C84 C 0.78197 0.00491 0.2087 0.0
C85 C 0.79922 0.0215 0.18483 0.0
C86 C 0.82008 0.0139 0.15248 0.0
C87 C 0.82401 0.98951 0.14242 0.0
C88 C 0.80704 0.97268 0.16798 0.0
C89 C 0.78619 0.98033 0.20118 0.0
C90 C 0.73125 0.0227 0.16969 0.0
C91 C 0.71128 0.0399 0.17132 0.0
C92 C 0.69307 0.04301 0.1234 0.0
C93 C 0.69444 0.02873 0.0734 0.0
C94 C 0.71467 0.01169 0.07177 0.0
C95 C 0.73285 0.00867 0.11951 0.0
P96 P 0.45511 0.74095 0.18526 0.0
H97 H 0.43724 0.73064 0.31552 0.0
H98 H 0.45358 0.70318 0.40743 0.0
H99 H 0.52128 0.69012 0.30586 0.0
H100 H 0.50487 0.7181 0.21397 0.0
H101 H 0.44896 0.76764 0.05818 0.0
H102 H 0.46193 0.80725 0.01075 0.0
H103 H 0.50615 0.81142 0.17879 0.0
H104 H 0.49243 0.77209 0.22653 0.0
H105 H 0.42115 0.70275 0.18553 0.0
H106 H 0.48634 0.72535 0.08277 0.0
O107 O 0.42624 0.75075 0.20099 0.0
H108 H 0.42085 0.66709 0.13047 0.0
H109 H 0.48571 0.69008 0.02525 0.0
C110 C 0.46992 0.72654 0.25801 0.0
C111 C 0.45589 0.72247 0.3135 0.0
C112 C 0.46516 0.70652 0.3659 0.0
C113 C 0.48858 0.69418 0.36364 0.0
C114 C 0.50324 0.69944 0.3093 0.0
C115 C 0.49391 0.71546 0.25678 0.0
C116 C 0.46996 0.7668 0.14552 0.0
C117 C 0.46199 0.77681 0.08406 0.0
C118 C 0.46948 0.79948 0.0569 0.0
C119 C 0.48496 0.81268 0.09106 0.0
C120 C 0.49392 0.80193 0.15148 0.0
C121 C 0.48631 0.77929 0.17867 0.0
C122 C 0.45328 0.71704 0.13673 0.0
C123 C 0.43501 0.70035 0.1497 0.0
C124 C 0.43488 0.67994 0.11811 0.0
C125 C 0.45313 0.67576 0.07293 0.0
C126 C 0.47147 0.69263 0.06003 0.0
C127 C 0.47166 0.713 0.09214 0.0
P128 P 0.21691 0.41862 0.31916 0.0
H129 H 0.17638 0.40272 0.25067 0.0
H130 H 0.15634 0.41897 0.15036 0.0
H131 H 0.21725 0.46505 0.10485 0.0
H132 H 0.23677 0.44915 0.20752 0.0
H133 H 0.26132 0.38879 0.36619 0.0
H134 H 0.30036 0.39885 0.4111 0.0
H135 H 0.27939 0.47528 0.36172 0.0
H136 H 0.24009 0.46504 0.31808 0.0
H137 H 0.195 0.46816 0.28771 0.0
H138 H 0.19038 0.40871 0.43951 0.0
O139 O 0.21365 0.38924 0.34399 0.0
H140 H 0.16325 0.49183 0.33822 0.0
H141 H 0.1587 0.43253 0.49101 0.0
C142 C 0.20812 0.42459 0.23643 0.0
C143 C 0.1859 0.41568 0.21813 0.0
C144 C 0.17442 0.42504 0.16033 0.0
C145 C 0.18501 0.44355 0.11928 0.0
C146 C 0.20833 0.45113 0.13572 0.0
C147 C 0.21971 0.44184 0.19415 0.0
C148 C 0.24767 0.42615 0.33921 0.0
C149 C 0.26526 0.40772 0.36402 0.0
C150 C 0.28768 0.41351 0.38955 0.0
C151 C 0.29291 0.43789 0.39069 0.0
C152 C 0.27574 0.45632 0.36271 0.0
C153 C 0.25331 0.45048 0.33724 0.0
C154 C 0.19477 0.43651 0.35939 0.0
C155 C 0.18726 0.46022 0.33216 0.0
C156 C 0.16917 0.47383 0.36126 0.0
C157 C 0.15832 0.46398 0.41831 0.0
C158 C 0.16641 0.44044 0.44643 0.0
C159 C 0.18459 0.42685 0.41727 0.0
P160 P 0.03694 0.25432 0.32857 0.0
H161 H 0.06883 0.24958 0.21877 0.0
H162 H 0.06327 0.22771 0.12804 0.0
H163 H 0.98567 0.2226 0.17277 0.0
H164 H 0.99131 0.24469 0.26356 0.0
H165 H 0.06087 0.29554 0.36894 0.0
H166 H 0.04481 0.32811 0.42631 0.0
H167 H 0.97 0.30903 0.39317 0.0
H168 H 0.9863 0.2762 0.33584 0.0
H169 H 0.03188 0.2029 0.3196 0.0
H170 H 0.01486 0.25216 0.45668 0.0
O171 O 0.06759 0.25185 0.34089 0.0
H172 H 0.01131 0.17106 0.38585 0.0
H173 H 0.99418 0.22022 0.52313 0.0
C174 C 0.03054 0.2486 0.24843 0.0
C175 C 0.05038 0.2447 0.20767 0.0
C176 C 0.04719 0.2321 0.15569 0.0
C177 C 0.02413 0.22302 0.14401 0.0
C178 C 0.00373 0.22911 0.18115 0.0
C179 C 0.00687 0.24203 0.2326 0.0
C180 C 0.0248 0.28329 0.34837 0.0
C181 C 0.04097 0.29884 0.37189 0.0
C182 C 0.03174 0.31756 0.40478 0.0
C183 C 0.00614 0.32094 0.4152 0.0
C184 C 0.98985 0.30667 0.38666 0.0
C185 C 0.99912 0.28806 0.3532 0.0
C186 C 0.02391 0.23033 0.38152 0.0
C187 C 0.02348 0.20702 0.36353 0.0
C188 C 0.01164 0.18881 0.40135 0.0
C189 C 0.00053 0.19339 0.45873 0.0
C190 C 0.00228 0.21631 0.47864 0.0
C191 C 0.01398 0.23462 0.44041 0.0
P192 P 0.24651 0.10404 0.35269 0.0
H193 H 0.27674 0.1338 0.26532 0.0
H194 H 0.30281 0.12415 0.17793 0.0
H195 H 0.27034 0.05481 0.18492 0.0
H196 H 0.24325 0.06522 0.27121 0.0
H197 H 0.22902 0.05624 0.40358 0.0
H198 H 0.19097 0.04573 0.46098 0.0
H199 H 0.15956 0.11872 0.40532 0.0
H200 H 0.19744 0.12911 0.34806 0.0
H201 H 0.25959 0.1126 0.48108 0.0
H202 H 0.28123 0.06085 0.35385 0.0
O203 O 0.24573 0.13362 0.35944 0.0
H204 H 0.29001 0.09245 0.55987 0.0
H205 H 0.31134 0.04082 0.4318 0.0
C206 C 0.258 0.10025 0.27476 0.0
C207 C 0.27442 0.11692 0.2465 0.0
C208 C 0.28967 0.1112 0.19705 0.0
C209 C 0.28921 0.08841 0.17566 0.0
C210 C 0.27119 0.07253 0.20027 0.0
C211 C 0.25558 0.07849 0.24941 0.0
C212 C 0.21624 0.09361 0.37274 0.0
C213 C 0.21363 0.06973 0.40185 0.0
C214 C 0.19187 0.06372 0.43459 0.0
C215 C 0.17258 0.08158 0.43858 0.0
C216 C 0.17433 0.10473 0.40374 0.0
C217 C 0.19595 0.11064 0.37079 0.0
C218 C 0.26857 0.08874 0.41075 0.0
C219 C 0.27089 0.097 0.46994 0.0
C220 C 0.28812 0.08536 0.51506 0.0
C221 C 0.3032 0.0652 0.50162 0.0
C222 C 0.30031 0.0566 0.44295 0.0
C223 C 0.28303 0.06814 0.39816 0.0
P224 P 0.45954 0.29158 0.34593 0.0
H225 H 0.42717 0.30758 0.23555 0.0
H226 H 0.43567 0.32944 0.13142 0.0
H227 H 0.51443 0.31724 0.17079 0.0
H228 H 0.50562 0.29396 0.27282 0.0
H229 H 0.4651 0.27408 0.47902 0.0
H230 H 0.47932 0.23548 0.53903 0.0
H231 H 0.49337 0.20571 0.36361 0.0
H232 H 0.47874 0.24509 0.30283 0.0
H233 H 0.43874 0.33596 0.39164 0.0
H234 H 0.51053 0.29819 0.38281 0.0
O235 O 0.42893 0.29323 0.35708 0.0
H236 H 0.45753 0.3674 0.44193 0.0
H237 H 0.5298 0.33032 0.42892 0.0
C238 C 0.46576 0.2992 0.26235 0.0
C239 C 0.44628 0.30878 0.22082 0.0
C240 C 0.4512 0.32173 0.16146 0.0
C241 C 0.47576 0.32582 0.14289 0.0
C242 C 0.49525 0.31452 0.18279 0.0
C243 C 0.49026 0.30118 0.24168 0.0
C244 C 0.47148 0.26265 0.38652 0.0
C245 C 0.47153 0.25941 0.45315 0.0
C246 C 0.47972 0.23728 0.48752 0.0
C247 C 0.48792 0.21762 0.45615 0.0
C248 C 0.48728 0.22059 0.38905 0.0
C249 C 0.47911 0.24306 0.35434 0.0
C250 C 0.47321 0.31467 0.38398 0.0
C251 C 0.45859 0.33451 0.4002 0.0
C252 C 0.46947 0.35268 0.42823 0.0
C253 C 0.4953 0.35157 0.43932 0.0
C254 C 0.50986 0.33168 0.42212 0.0
C255 C 0.49888 0.31337 0.39511 0.0
Co256 Co 0.00894 0.02265 0.83751 0.0
C257 C 0.9662 0.99729 0.85925 0.0
Co258 Co 0.99941 0.00168 0.75991 0.0
C259 C 0.01872 0.06457 0.8988 0.0
C260 C 0.01575 0.03258 0.96602 0.0
N261 N 0.0157 0.04047 0.90304 0.0
N262 N 0.02026 0.07212 0.9566 0.0
C263 C 0.01854 0.05195 0.999 0.0
H264 H 0.01862 0.07654 0.85412 0.0
H265 H 0.01306 0.01409 0.98666 0.0
C266 C 0.04198 0.02769 0.73866 0.0
N267 N 0.99245 0.98433 0.69317 0.0
C268 C 0.9922 0.96005 0.69279 0.0
C269 C 0.98847 0.99401 0.63191 0.0
N270 N 0.98841 0.95424 0.63364 0.0
C271 C 0.98589 0.97569 0.59547 0.0
C272 C 0.97901 0.04889 0.74281 0.0
O273 O 0.03736 0.03357 0.79354 0.0
O274 O 0.02788 0.01362 0.71507 0.0
O275 O 0.97978 0.02896 0.71978 0.0
O276 O 0.99017 0.04985 0.79503 0.0
O277 O 0.97094 0.99003 0.80578 0.0
H278 H 0.98814 0.01318 0.61429 0.0
H279 H 0.99572 0.94688 0.73471 0.0
O280 O 0.98042 0.01177 0.88046 0.0
O281 O 0.02786 0.99507 0.87938 0.0
O282 O 0.01931 0.97489 0.8006 0.0
C283 C 0.03006 0.97572 0.85356 0.0
H284 H 0.01888 0.05125 0.05026 0.0
H285 H 0.98269 0.97808 0.54455 0.0
Co286 Co 0.49005 0.02704 0.82687 0.0
C287 C 0.49583 0.97696 0.85691 0.0
Co288 Co 0.50528 0.00861 0.7475 0.0
C289 C 0.45213 0.03659 0.9152 0.0
C290 C 0.48 0.06232 0.9142 0.0
N291 N 0.4744 0.04204 0.89032 0.0
N292 N 0.44314 0.05296 0.95218 0.0
C293 C 0.46081 0.06907 0.95233 0.0
H294 H 0.44224 0.02133 0.9042 0.0
H295 H 0.49625 0.07229 0.90179 0.0
C296 C 0.49999 0.05891 0.71925 0.0
N297 N 0.5205 0.99363 0.68226 0.0
C298 C 0.54455 0.98559 0.67851 0.0
C299 C 0.51054 0.99096 0.62534 0.0
N300 N 0.55007 0.9784 0.62149 0.0
C301 C 0.52857 0.98162 0.58812 0.0
C302 C 0.45486 0.01378 0.74202 0.0
O303 O 0.49244 0.05752 0.77628 0.0
O304 O 0.50621 0.03958 0.6958 0.0
O305 O 0.47323 0.00491 0.71371 0.0
O306 O 0.45861 0.02404 0.79066 0.0
O307 O 0.50419 0.97763 0.8005 0.0
H308 H 0.49162 0.99637 0.61043 0.0
H309 H 0.55815 0.98614 0.71567 0.0
O310 O 0.48822 0.99664 0.8767 0.0
O311 O 0.5215 0.02999 0.86274 0.0
O312 O 0.53701 0.01305 0.78265 0.0
C313 C 0.54024 0.02256 0.8331 0.0
H314 H 0.45936 0.08537 0.97507 0.0
H315 H 0.52609 0.97813 0.53958 0.0
Co316 Co 0.52061 0.51089 0.77626 0.0
C317 C 0.49558 0.47097 0.83307 0.0
Co318 Co 0.48199 0.50951 0.74233 0.0
C319 C 0.56257 0.52613 0.84456 0.0
C320 C 0.56933 0.4913 0.8133 0.0
N321 N 0.55256 0.51047 0.80953 0.0
N322 N 0.58463 0.51718 0.87058 0.0
C323 C 0.58894 0.49532 0.85102 0.0
H324 H 0.5531 0.54284 0.85485 0.0
H325 H 0.5667 0.47467 0.79367 0.0
C326 C 0.50754 0.54907 0.68443 0.0
N327 N 0.45013 0.50952 0.70957 0.0
C328 C 0.44009 0.49175 0.68239 0.0
C329 C 0.433 0.52835 0.70108 0.0
N330 N 0.41748 0.4988 0.65625 0.0
C331 C 0.41296 0.52184 0.66842 0.0
C332 C 0.48508 0.53575 0.84278 0.0
O333 O 0.52559 0.53972 0.72006 0.0
O334 O 0.48711 0.53874 0.68716 0.0
O335 O 0.47012 0.52788 0.80533 0.0
O336 O 0.5082 0.53021 0.83902 0.0
O337 O 0.4773 0.48009 0.79799 0.0
H338 H 0.4354 0.54603 0.71519 0.0
H339 H 0.44961 0.47421 0.68041 0.0
O340 O 0.51555 0.48193 0.83153 0.0
O341 O 0.53234 0.4916 0.71305 0.0
O342 O 0.49403 0.4912 0.67909 0.0
C343 C 0.51684 0.48482 0.67489 0.0
H344 H 0.60454 0.48264 0.86585 0.0
H345 H 0.39693 0.53369 0.65215 0.0
Co346 Co 0.00476 0.53562 0.78576 0.0
C347 C 0.04477 0.506 0.84257 0.0
Co348 Co 0.00109 0.49602 0.78777 0.0
C349 C 0.99755 0.58218 0.83316 0.0
C350 C 0.02625 0.58233 0.76394 0.0
N351 N 0.00852 0.56853 0.79154 0.0
N352 N 0.0081 0.60354 0.83384 0.0
C353 C 0.02603 0.60376 0.78972 0.0
H354 H 0.98328 0.57591 0.86586 0.0
H355 H 0.03964 0.57662 0.73027 0.0
C356 C 0.96076 0.52535 0.73293 0.0
N357 N 0.99778 0.46331 0.78255 0.0
C358 C 0.99433 0.45297 0.72927 0.0
C359 C 0.99811 0.44474 0.83055 0.0
N360 N 0.9924 0.42876 0.74212 0.0
C361 C 0.99467 0.4235 0.80587 0.0
C362 C 0.98098 0.51242 0.89284 0.0
O363 O 0.97315 0.5431 0.74411 0.0
O364 O 0.97006 0.50373 0.74665 0.0
O365 O 0.9846 0.49328 0.86686 0.0
O366 O 0.98874 0.53221 0.86563 0.0
O367 O 0.0322 0.48862 0.82999 0.0
H368 H 0.00073 0.44651 0.88029 0.0
H369 H 0.99287 0.46305 0.68191 0.0
O370 O 0.03602 0.52776 0.82744 0.0
O371 O 0.02095 0.53819 0.70575 0.0
O372 O 0.01754 0.49904 0.70892 0.0
C373 C 0.02515 0.51879 0.68101 0.0
H374 H 0.03887 0.61788 0.77884 0.0
H375 H 0.99427 0.40554 0.8326 0.0
H376 H 0.14143 0.04365 0.45756 0.0
H377 H 0.15963 0.11002 0.52867 0.0
H378 H 0.12873 0.10298 0.61341 0.0
H379 H 0.07492 0.05074 0.48671 0.0
H380 H 0.07178 0.0187 0.50957 0.0
H381 H 0.0954 0.02884 0.45409 0.0
H382 H 0.12894 0.00362 0.52674 0.0
H383 H 0.10543 0.99354 0.5826 0.0
H384 H 0.13154 0.00844 0.60886 0.0
H385 H 0.09764 0.08819 0.69293 0.0
H386 H 0.06511 0.0682 0.75801 0.0
H387 H 0.06486 0.01219 0.63381 0.0
C388 C 0.13873 0.05669 0.49086 0.0
C389 C 0.15276 0.07747 0.48639 0.0
C390 C 0.14879 0.09419 0.53072 0.0
C391 C 0.13142 0.09027 0.57927 0.0
C392 C 0.11795 0.06964 0.58261 0.0
C393 C 0.12108 0.05326 0.53927 0.0
C394 C 0.10367 0.03285 0.55324 0.0
C395 C 0.08535 0.03279 0.49759 0.0
C396 C 0.11827 0.00815 0.56879 0.0
C397 C 0.09055 0.04024 0.61155 0.0
C398 C 0.09928 0.06142 0.62781 0.0
C399 C 0.09053 0.07166 0.68055 0.0
C400 C 0.07214 0.06008 0.71742 0.0
C401 C 0.06247 0.03863 0.70105 0.0
C402 C 0.07186 0.0286 0.64737 0.0
H403 H 0.47652 0.17076 0.4423 0.0
H404 H 0.51919 0.21213 0.55859 0.0
H405 H 0.52902 0.17519 0.63417 0.0
H406 H 0.44972 0.1341 0.566 0.0
H407 H 0.45172 0.10648 0.53008 0.0
H408 H 0.45001 0.13546 0.48054 0.0
H409 H 0.49072 0.12358 0.4249 0.0
H410 H 0.49242 0.09441 0.47389 0.0
H411 H 0.51815 0.11363 0.47229 0.0
H412 H 0.52906 0.13616 0.70474 0.0
H413 H 0.5235 0.0951 0.76122 0.0
H414 H 0.48383 0.07695 0.59769 0.0
C415 C 0.48853 0.17183 0.48268 0.0
C416 C 0.49691 0.1944 0.49484 0.0
C417 C 0.51227 0.19514 0.54878 0.0
C418 C 0.51805 0.17423 0.59188 0.0
C419 C 0.50873 0.15252 0.58001 0.0
C420 C 0.49471 0.15094 0.52622 0.0
C421 C 0.48623 0.12537 0.5268 0.0
C422 C 0.45773 0.12537 0.52581 0.0
C423 C 0.49756 0.11355 0.47116 0.0
C424 C 0.49699 0.11317 0.59024 0.0
C425 C 0.50984 0.12929 0.62 0.0
C426 C 0.51958 0.12317 0.68137 0.0
C427 C 0.51622 0.09992 0.71319 0.0
C428 C 0.50359 0.08294 0.6833 0.0
C429 C 0.49405 0.08953 0.62081 0.0
H430 H 0.29642 0.47319 0.46839 0.0
H431 H 0.34008 0.41613 0.39085 0.0
H432 H 0.37657 0.42483 0.45272 0.0
H433 H 0.34512 0.51509 0.466 0.0
H434 H 0.33543 0.52571 0.53928 0.0
H435 H 0.31296 0.51494 0.48858 0.0
H436 H 0.29972 0.48399 0.58302 0.0
H437 H 0.32229 0.49453 0.63388 0.0
H438 H 0.32279 0.4628 0.6245 0.0
H439 H 0.4081 0.43942 0.52482 0.0
H440 H 0.43267 0.45994 0.59698 0.0
H441 H 0.36826 0.50766 0.62621 0.0
C442 C 0.31374 0.46275 0.46349 0.0
C443 C 0.31537 0.44399 0.42457 0.0
C444 C 0.3383 0.43044 0.42077 0.0
C445 C 0.35914 0.43529 0.45558 0.0
C446 C 0.35677 0.45375 0.49394 0.0
C447 C 0.33468 0.46735 0.49778 0.0
C448 C 0.33696 0.48614 0.54257 0.0
C449 C 0.33235 0.512 0.50696 0.0
C450 C 0.3194 0.48158 0.59935 0.0
C451 C 0.36383 0.48105 0.56325 0.0
C452 C 0.37491 0.46225 0.53493 0.0
C453 C 0.39961 0.45423 0.54709 0.0
C454 C 0.41343 0.46599 0.58853 0.0
C455 C 0.40264 0.4857 0.61715 0.0
C456 C 0.37734 0.493 0.6046 0.0
H457 H 0.01985 0.36685 0.43061 0.0
H458 H 0.97281 0.31006 0.50954 0.0
H459 H 0.9619 0.33309 0.59805 0.0
H460 H 0.04474 0.37895 0.57341 0.0
H461 H 0.04457 0.41144 0.55329 0.0
H462 H 0.04676 0.39228 0.49136 0.0
H463 H 0.00849 0.41536 0.43487 0.0
H464 H 0.00505 0.4348 0.4962 0.0
H465 H 0.97962 0.41761 0.47685 0.0
H466 H 0.96022 0.35943 0.68476 0.0
H467 H 0.96514 0.38935 0.75947 0.0
H468 H 0.01209 0.42991 0.62389 0.0
C469 C 0.00691 0.35949 0.46593 0.0
C470 C 0.99702 0.33671 0.46274 0.0
C471 C 0.98023 0.32766 0.51011 0.0
C472 C 0.97405 0.34054 0.56091 0.0
C473 C 0.98456 0.36262 0.56345 0.0
C474 C 0.00033 0.37225 0.51677 0.0
C475 C 0.00963 0.39601 0.532 0.0
C476 C 0.03811 0.39457 0.53785 0.0
C477 C 1.00015 0.4172 0.48199 0.0
C478 C 0.99749 0.39765 0.59585 0.0
C479 C 0.98301 0.37824 0.6129 0.0
C480 C 0.97118 0.37492 0.6715 0.0
C481 C 0.97421 0.39187 0.7138 0.0
C482 C 0.98883 0.41197 0.69727 0.0
C483 C 0.00042 0.41496 0.6372 0.0
H484 H 0.8718 0.00322 0.1433 0.0
H485 H 0.82272 0.96094 0.04657 0.0
H486 H 0.85534 0.9549 0.96743 0.0
H487 H 0.89505 0.03521 0.00798 0.0
H488 H 0.92618 0.03579 0.03843 0.0
H489 H 0.90055 0.03356 0.09243 0.0
H490 H 0.92149 0.99417 0.15437 0.0
H491 H 0.94735 0.99641 0.10078 0.0
H492 H 0.93071 0.96909 0.11215 0.0
H493 H 0.89192 0.95794 0.89113 0.0
H494 H 0.92934 0.96847 0.82827 0.0
H495 H 0.95339 0.0091 0.97593 0.0
C496 C 0.86806 0.99229 0.10617 0.0
C497 C 0.84474 0.98249 0.10123 0.0
C498 C 0.84059 0.9683 0.05191 0.0
C499 C 0.85897 0.9649 0.00652 0.0
C500 C 0.88146 0.97559 0.01152 0.0
C501 C 0.88613 0.98875 0.06069 0.0
C502 C 0.91099 0.99984 0.05334 0.0
C503 C 0.90799 0.02775 0.04768 0.0
C504 C 0.92868 0.98923 0.10843 0.0
C505 C 0.9193 0.99155 0.99132 0.0
C506 C 0.90223 0.97738 0.96799 0.0
C507 C 0.90555 0.96875 0.90948 0.0
C508 C 0.92681 0.97486 0.87401 0.0
C509 C 0.94433 0.98959 0.89708 0.0
C510 C 0.94047 0.99773 0.95685 0.0
H511 H 0.49394 0.83323 0.96723 0.0
H512 H 0.48508 0.85077 0.15984 0.0
H513 H 0.48899 0.89395 0.1206 0.0
H514 H 0.5384 0.87913 0.91537 0.0
H515 H 0.52517 0.88605 0.83638 0.0
H516 H 0.52354 0.85604 0.87975 0.0
H517 H 0.47577 0.85929 0.86508 0.0
H518 H 0.47723 0.88932 0.82194 0.0
H519 H 0.45792 0.88452 0.89117 0.0
H520 H 0.49043 0.93514 0.06131 0.0
H521 H 0.49141 0.97247 0.98534 0.0
H522 H 0.49969 0.9295 0.82922 0.0
C523 C 0.49304 0.84613 0.00121 0.0
C524 C 0.48948 0.83843 0.06691 0.0
C525 C 0.48839 0.85598 0.10965 0.0
C526 C 0.49039 0.88064 0.08774 0.0
C527 C 0.49355 0.8876 0.02287 0.0
C528 C 0.49507 0.87094 0.98011 0.0
C529 C 0.49777 0.88357 0.91252 0.0
C530 C 0.52271 0.87573 0.88435 0.0
C531 C 0.47587 0.87889 0.8702 0.0
C532 C 0.49709 0.90994 0.92407 0.0
C533 C 0.49465 0.91171 0.98821 0.0
C534 C 0.49258 0.93401 0.01103 0.0
C535 C 0.49305 0.95514 0.9673 0.0
C536 C 0.49567 0.95397 0.90121 0.0
C537 C 0.49788 0.93098 0.87943 0.0
H538 H 0.66411 0.5005 0.18558 0.0
H539 H 0.69667 0.56829 0.11633 0.0
H540 H 0.66478 0.57633 0.031 0.0
H541 H 0.65676 0.48293 0.03881 0.0
H542 H 0.6282 0.46833 0.05592 0.0
H543 H 0.64968 0.47064 0.11935 0.0
H544 H 0.61517 0.49237 0.17969 0.0
H545 H 0.59345 0.48998 0.11643 0.0
H546 H 0.59839 0.51923 0.1402 0.0
H547 H 0.63229 0.57422 0.9444 0.0
H548 H 0.60412 0.56107 0.86417 0.0
H549 H 0.59624 0.49331 0.98627 0.0
C550 C 0.66438 0.51727 0.15319 0.0
C551 C 0.68299 0.53373 0.15787 0.0
C552 C 0.68241 0.55554 0.11461 0.0
C553 C 0.66439 0.56022 0.06571 0.0
C554 C 0.64704 0.54297 0.0608 0.0
C555 C 0.64691 0.52195 0.10371 0.0
C556 C 0.62856 0.50481 0.08417 0.0
C557 C 0.64159 0.48024 0.07394 0.0
C558 C 0.60765 0.50141 0.13303 0.0
C559 C 0.61905 0.51896 0.02215 0.0
C560 C 0.62934 0.54124 0.01005 0.0
C561 C 0.62395 0.55693 0.95386 0.0
C562 C 0.60801 0.54941 0.90866 0.0
C563 C 0.59828 0.52625 0.91952 0.0
C564 C 0.60356 0.51111 0.9773 0.0
H565 H 0.04972 0.69175 0.07326 0.0
H566 H 0.97552 0.69063 0.15126 0.0
H567 H 0.96318 0.66529 0.07034 0.0
H568 H 0.03194 0.69452 0.90826 0.0
H569 H 0.05808 0.67505 0.88983 0.0
H570 H 0.06063 0.69373 0.95236 0.0
H571 H 0.07394 0.65563 0.03221 0.0
H572 H 0.07158 0.63687 0.96988 0.0
H573 H 0.05441 0.6303 0.0423 0.0
H574 H 0.95972 0.63841 0.98272 0.0
H575 H 0.96539 0.61269 0.89668 0.0
H576 H 0.04205 0.63151 0.87836 0.0
C577 C 0.03089 0.68607 0.07377 0.0
C578 C 0.01363 0.69308 0.119 0.0
C579 C 0.98904 0.68563 0.11692 0.0
C580 C 0.98189 0.67118 0.07123 0.0
C581 C 0.99949 0.66448 0.02769 0.0
C582 C 0.02347 0.67175 0.02863 0.0
C583 C 0.03906 0.66182 0.97761 0.0
C584 C 0.04794 0.68252 0.92915 0.0
C585 C 0.06104 0.64516 0.00729 0.0
C586 C 0.0202 0.64756 0.94807 0.0
C587 C 0.99745 0.64933 0.97738 0.0
C588 C 0.97743 0.63703 0.9593 0.0
C589 C 0.98085 0.62238 0.91052 0.0
C590 C 0.00412 0.62012 0.88029 0.0
C591 C 0.02389 0.63316 0.89927 0.0
H592 H 0.00538 0.17933 0.58699 0.0
H593 H 0.96765 0.16317 0.41834 0.0
H594 H 0.95041 0.12757 0.4812 0.0
H595 H 0.02498 0.12133 0.64228 0.0
H596 H 0.02123 0.12362 0.72577 0.0
H597 H 0.02628 0.15031 0.67092 0.0
H598 H 0.98583 0.17134 0.70888 0.0
H599 H 0.98066 0.14447 0.76374 0.0
H600 H 0.957 0.15679 0.7062 0.0
H601 H 0.94388 0.09023 0.55589 0.0
H602 H 0.9495 0.05374 0.63594 0.0
H603 H 0.98984 0.09483 0.75775 0.0
C604 C 0.99274 0.1688 0.56395 0.0
C605 C 0.98773 0.17399 0.49802 0.0
C606 C 0.97177 0.15938 0.46886 0.0
C607 C 0.9617 0.13929 0.50429 0.0
C608 C 0.96756 0.13422 0.56895 0.0
C609 C 0.98258 0.14866 0.59867 0.0
C610 C 0.98869 0.13755 0.66646 0.0
C611 C 0.01695 0.13292 0.67689 0.0
C612 C 0.97736 0.15349 0.71413 0.0
C613 C 0.97586 0.11403 0.66908 0.0
C614 C 0.96336 0.11263 0.61281 0.0
C615 C 0.95296 0.09134 0.60089 0.0
C616 C 0.95624 0.07069 0.6466 0.0
C617 C 0.96983 0.07155 0.70334 0.0
C618 C 0.97876 0.09379 0.71566 0.0
H619 H 0.35126 0.05119 0.47716 0.0
H620 H 0.29839 0.05329 0.63043 0.0
H621 H 0.33092 0.03533 0.70792 0.0
H622 H 0.38573 0.99391 0.54246 0.0
H623 H 0.41517 0.00484 0.51576 0.0
H624 H 0.38719 0.01567 0.47166 0.0
H625 H 0.39667 0.06011 0.48178 0.0
H626 H 0.42468 0.04942 0.52548 0.0
H627 H 0.40179 0.06866 0.55962 0.0
H628 H 0.36967 0.021 0.76899 0.0
H629 H 0.41249 0.01235 0.81034 0.0
H630 H 0.4401 0.01829 0.61734 0.0
C631 C 0.34639 0.04734 0.52687 0.0
C632 C 0.3223 0.05347 0.5479 0.0
C633 C 0.31679 0.04883 0.61348 0.0
C634 C 0.33506 0.03845 0.65767 0.0
C635 C 0.35867 0.03275 0.63537 0.0
C636 C 0.3644 0.03704 0.57153 0.0
C637 C 0.39165 0.03101 0.56057 0.0
C638 C 0.39513 0.01011 0.52023 0.0
C639 C 0.40444 0.05364 0.53009 0.0
C640 C 0.40049 0.02314 0.62842 0.0
C641 C 0.38109 0.0241 0.67074 0.0
C642 C 0.38492 0.01973 0.73635 0.0
C643 C 0.40927 0.01486 0.75936 0.0
C644 C 0.42942 0.01433 0.71689 0.0
C645 C 0.42491 0.01789 0.65065 0.0
H646 H 0.48199 0.40054 0.42468 0.0
H647 H 0.53439 0.34614 0.52483 0.0
H648 H 0.55146 0.3775 0.58088 0.0
H649 H 0.52209 0.45325 0.41784 0.0
H650 H 0.49612 0.47363 0.43232 0.0
H651 H 0.49152 0.44826 0.38983 0.0
H652 H 0.45818 0.4329 0.47133 0.0
H653 H 0.46247 0.45871 0.51158 0.0
H654 H 0.46591 0.42849 0.55507 0.0
H655 H 0.5594 0.41341 0.63602 0.0
H656 H 0.55426 0.44928 0.69316 0.0
H657 H 0.49465 0.47913 0.56307 0.0
C658 C 0.49721 0.39517 0.45791 0.0
C659 C 0.50688 0.37079 0.4698 0.0
C660 C 0.52695 0.36474 0.51353 0.0
C661 C 0.53681 0.38246 0.54576 0.0
C662 C 0.52646 0.40619 0.53384 0.0
C663 C 0.50702 0.41253 0.49109 0.0
C664 C 0.49708 0.43845 0.49263 0.0
C665 C 0.50201 0.45433 0.42939 0.0
C666 C 0.46928 0.43966 0.50871 0.0
C667 C 0.51285 0.44517 0.54593 0.0
C668 C 0.53037 0.42669 0.5674 0.0
C669 C 0.54604 0.42816 0.61898 0.0
C670 C 0.54309 0.44863 0.65097 0.0
C671 C 0.52419 0.46694 0.6321 0.0
C672 C 0.50945 0.46549 0.57783 0.0
H673 H 0.11529 0.4473 0.47032 0.0
H674 H 0.15616 0.51233 0.43278 0.0
H675 H 0.12299 0.53539 0.48354 0.0
H676 H 0.05308 0.47748 0.44681 0.0
H677 H 0.03985 0.45798 0.51097 0.0
H678 H 0.06534 0.44649 0.46655 0.0
H679 H 0.09121 0.43401 0.56968 0.0
H680 H 0.06564 0.44444 0.61511 0.0
H681 H 0.09574 0.45615 0.62274 0.0
H682 H 0.08718 0.55029 0.54743 0.0
H683 H 0.0531 0.55503 0.62337 0.0
H684 H 0.03588 0.48022 0.61721 0.0
C685 C 0.11724 0.46641 0.47258 0.0
C686 C 0.13828 0.47804 0.44761 0.0
C687 C 0.14003 0.50313 0.45098 0.0
C688 C 0.12129 0.51637 0.47965 0.0
C689 C 0.10084 0.5043 0.50412 0.0
C690 C 0.09872 0.47987 0.50076 0.0
C691 C 0.07576 0.47074 0.53415 0.0
C692 C 0.05744 0.46269 0.48671 0.0
C693 C 0.0825 0.45014 0.58865 0.0
C694 C 0.0658 0.49359 0.55907 0.0
C695 C 0.08022 0.51289 0.54044 0.0
C696 C 0.07552 0.5354 0.56154 0.0
C697 C 0.05607 0.53796 0.60447 0.0
C698 C 0.04179 0.51803 0.62606 0.0
C699 C 0.0463 0.49589 0.60122 0.0
H700 H 0.05837 0.87343 0.14478 0.0
H701 H 0.08832 0.82758 0.00945 0.0
H702 H 0.08544 0.86276 0.92492 0.0
H703 H 0.01468 0.90596 0.04635 0.0
H704 H 0.01788 0.93481 0.07428 0.0
H705 H 0.02565 0.9071 0.12624 0.0
H706 H 0.06978 0.92103 0.14356 0.0
H707 H 0.06206 0.94897 0.09193 0.0
H708 H 0.08881 0.92986 0.07564 0.0
H709 H 0.07302 0.90069 0.85258 0.0
H710 H 0.05433 0.93972 0.79851 0.0
H711 H 0.035 0.96178 0.98159 0.0
C712 C 0.0652 0.87094 0.09798 0.0
C713 C 0.07357 0.84773 0.08376 0.0
C714 C 0.08161 0.84514 0.02132 0.0
C715 C 0.08022 0.86505 0.9731 0.0
C716 C 0.07114 0.8875 0.98831 0.0
C717 C 0.06412 0.89066 0.04944 0.0
C718 C 0.05315 0.91621 0.05216 0.0
C719 C 0.02625 0.91598 0.07614 0.0
C720 C 0.06943 0.92982 0.09326 0.0
C721 C 0.05418 0.92661 0.98255 0.0
C722 C 0.06476 0.90979 0.94658 0.0
C723 C 0.06532 0.91425 0.88034 0.0
C724 C 0.05459 0.93638 0.85006 0.0
C725 C 0.04366 0.9538 0.88609 0.0
C726 C 0.0439 0.94902 0.95315 0.0
H727 H 0.64424 0.03419 0.09223 0.0
H728 H 0.69896 0.02685 0.94519 0.0
H729 H 0.66531 0.02588 0.86677 0.0
H730 H 0.60224 0.99486 0.04298 0.0
H731 H 0.57471 0.01265 0.0605 0.0
H732 H 0.60299 0.01428 0.10443 0.0
H733 H 0.60119 0.06099 0.07285 0.0
H734 H 0.57276 0.05954 0.02922 0.0
H735 H 0.59884 0.07351 0.98994 0.0
H736 H 0.62598 0.02247 0.80664 0.0
H737 H 0.58342 0.01927 0.76716 0.0
H738 H 0.55432 0.03077 0.95224 0.0
C739 C 0.64919 0.03298 0.04325 0.0
C740 C 0.67427 0.03055 0.02493 0.0
C741 C 0.67989 0.02842 0.96055 0.0
C742 C 0.66092 0.028 0.91557 0.0
C743 C 0.63642 0.02997 0.93557 0.0
C744 C 0.63049 0.03269 0.99768 0.0
C745 C 0.60269 0.03371 0.00727 0.0
C746 C 0.59523 0.01262 0.05671 0.0
C747 C 0.59332 0.05841 0.02591 0.0
C748 C 0.59394 0.03073 0.94107 0.0
C749 C 0.61369 0.02858 0.90045 0.0
C750 C 0.61033 0.02445 0.83773 0.0
C751 C 0.58611 0.02256 0.81586 0.0
C752 C 0.56559 0.02492 0.85656 0.0
C753 C 0.56963 0.0292 0.91982 0.0
H754 H 0.49334 0.64677 0.04182 0.0
H755 H 0.41286 0.65484 0.02978 0.0
H756 H 0.41245 0.61765 0.97878 0.0
H757 H 0.5019 0.62735 0.88891 0.0
H758 H 0.5279 0.60632 0.91389 0.0
H759 H 0.52179 0.63272 0.95335 0.0
H760 H 0.52034 0.60504 0.06169 0.0
H761 H 0.52619 0.57854 0.02232 0.0
H762 H 0.49923 0.58098 0.07156 0.0
H763 H 0.42053 0.58071 0.92599 0.0
H764 H 0.43673 0.54772 0.86798 0.0
H765 H 0.5121 0.56391 0.91122 0.0
C766 C 0.47562 0.64082 0.0282 0.0
C767 C 0.4531 0.65369 0.04046 0.0
C768 C 0.43033 0.64509 0.0222 0.0
C769 C 0.4299 0.624 0.993 0.0
C770 C 0.45238 0.6117 0.98214 0.0
C771 C 0.47484 0.61984 0.99867 0.0
C772 C 0.49636 0.60383 0.9788 0.0
C773 C 0.51296 0.61843 0.93088 0.0
C774 C 0.51141 0.59136 0.03708 0.0
C775 C 0.48245 0.58564 0.94767 0.0
C776 C 0.45709 0.5904 0.9508 0.0
C777 C 0.44034 0.5767 0.92349 0.0
C778 C 0.44975 0.55797 0.8907 0.0
C779 C 0.47568 0.55317 0.88523 0.0
C780 C 0.49219 0.56693 0.91525 0.0
H781 H 0.86621 0.47448 0.10916 0.0
H782 H 0.86863 0.54436 0.17722 0.0
H783 H 0.90802 0.55138 0.12071 0.0
H784 H 0.93354 0.45883 0.11306 0.0
H785 H 0.93284 0.44555 0.04012 0.0
H786 H 0.90617 0.44475 0.09117 0.0
H787 H 0.87852 0.46587 0.9971 0.0
H788 H 0.90503 0.46652 0.94584 0.0
H789 H 0.88717 0.4943 0.95438 0.0
H790 H 0.94522 0.55206 0.05261 0.0
H791 H 0.97637 0.548 0.96947 0.0
H792 H 0.94971 0.47797 0.94292 0.0
C793 C 0.8753 0.49106 0.11265 0.0
C794 C 0.8646 0.5089 0.14737 0.0
C795 C 0.87661 0.5306 0.15037 0.0
C796 C 0.89904 0.53463 0.11901 0.0
C797 C 0.90911 0.51678 0.0848 0.0
C798 C 0.89758 0.49551 0.08091 0.0
C799 C 0.91126 0.48031 0.03635 0.0
C800 C 0.92157 0.45591 0.07235 0.0
C801 C 0.8945 0.47655 0.98009 0.0
C802 C 0.93196 0.4966 0.01493 0.0
C803 C 0.93055 0.51735 0.04431 0.0
C804 C 0.94669 0.5358 0.02968 0.0
C805 C 0.9643 0.53333 0.98233 0.0
C806 C 0.96548 0.51265 0.94989 0.0
C807 C 0.94952 0.49378 0.96768 0.0
H808 H 0.00322 0.1794 0.16754 0.0
H809 H 0.04247 0.22429 0.02264 0.0
H810 H 0.04393 0.19104 0.95556 0.0
H811 H 0.03772 0.12527 0.15464 0.0
H812 H 0.01208 0.10601 0.16795 0.0
H813 H 0.01161 0.13416 0.20099 0.0
H814 H 0.96956 0.14809 0.14437 0.0
H815 H 0.96974 0.11982 0.11169 0.0
H816 H 0.96676 0.14825 0.05955 0.0
H817 H 0.04306 0.15163 0.90726 0.0
H818 H 0.04058 0.10959 0.88296 0.0
H819 H 0.00261 0.09074 0.06118 0.0
C820 C 0.01147 0.18252 0.12087 0.0
C821 C 0.02239 0.20458 0.0998 0.0
C822 C 0.03384 0.2076 0.03944 0.0
C823 C 0.03472 0.18883 0.00106 0.0
C824 C 0.02418 0.16712 0.0239 0.0
C825 C 0.01272 0.16394 0.0824 0.0
C826 C 0.0043 0.1384 0.09813 0.0
C827 C 0.01721 0.12519 0.15902 0.0
C828 C 0.97591 0.13866 0.10374 0.0
C829 C 0.01313 0.12753 0.0398 0.0
C830 C 0.02431 0.1444 0.99714 0.0
C831 C 0.03421 0.13833 0.94023 0.0
C832 C 0.03266 0.11442 0.92674 0.0
C833 C 0.02152 0.09676 0.97024 0.0
C834 C 0.01156 0.10362 0.02729 0.0
H835 H 0.33859 0.09634 0.18165 0.0
H836 H 0.28525 0.06208 0.07501 0.0
H837 H 0.31919 0.04836 0.00729 0.0
H838 H 0.37575 0.11828 0.04827 0.0
H839 H 0.40449 0.11289 0.09281 0.0
H840 H 0.37601 0.11958 0.1328 0.0
H841 H 0.38363 0.07979 0.21096 0.0
H842 H 0.41208 0.07291 0.17106 0.0
H843 H 0.38841 0.05127 0.17989 0.0
H844 H 0.35918 0.03897 0.95064 0.0
H845 H 0.40148 0.03492 0.90878 0.0
H846 H 0.4284 0.07548 0.05338 0.0
C847 C 0.33388 0.08627 0.14347 0.0
C848 C 0.30915 0.08051 0.13323 0.0
C849 C 0.30403 0.06666 0.08387 0.0
C850 C 0.32317 0.05887 0.0451 0.0
C851 C 0.3473 0.065 0.05653 0.0
C852 C 0.35266 0.07842 0.1045 0.0
C853 C 0.38004 0.08269 0.10715 0.0
C854 C 0.38431 0.10998 0.09449 0.0
C855 C 0.39172 0.07096 0.17106 0.0
C856 C 0.38936 0.06965 0.05287 0.0
C857 C 0.37022 0.05951 0.02437 0.0
C858 C 0.37431 0.04673 0.97288 0.0
C859 C 0.39853 0.04436 0.94975 0.0
C860 C 0.41847 0.05471 0.97804 0.0
C861 C 0.41365 0.06746 0.03044 0.0
H862 H 0.44845 0.36804 0.09556 0.0
H863 H 0.51522 0.32429 0.06064 0.0
H864 H 0.52638 0.35609 0.97495 0.0
H865 H 0.43544 0.39137 0.92578 0.0
H866 H 0.42381 0.42065 0.9442 0.0
H867 H 0.42041 0.39384 0.00068 0.0
H868 H 0.44265 0.41383 0.08674 0.0
H869 H 0.44638 0.44056 0.03049 0.0
H870 H 0.47314 0.42462 0.07118 0.0
H871 H 0.53268 0.39437 0.90193 0.0
H872 H 0.53165 0.43501 0.83839 0.0
H873 H 0.45893 0.45245 0.91238 0.0
C874 C 0.46506 0.36465 0.06886 0.0
C875 C 0.48099 0.3435 0.08562 0.0
C876 C 0.50287 0.3404 0.04996 0.0
C877 C 0.5093 0.35832 0.00074 0.0
C878 C 0.49346 0.37909 0.98669 0.0
C879 C 0.47155 0.38215 0.01884 0.0
C880 C 0.45806 0.40645 0.99517 0.0
C881 C 0.43294 0.40285 0.96463 0.0
C882 C 0.45488 0.42229 0.04911 0.0
C883 C 0.47613 0.41683 0.9457 0.0
C884 C 0.49649 0.40075 0.94193 0.0
C885 C 0.51662 0.4069 0.90352 0.0
C886 C 0.51593 0.43003 0.86794 0.0
C887 C 0.49511 0.44663 0.87019 0.0
C888 C 0.47483 0.43986 0.90901 0.0
H889 H 0.15253 0.42501 0.04012 0.0
H890 H 0.18264 0.49245 0.07684 0.0
H891 H 0.15286 0.51535 0.99994 0.0
H892 H 0.1353 0.44418 0.86934 0.0
H893 H 0.10704 0.42846 0.87734 0.0
H894 H 0.13384 0.41698 0.9256 0.0
H895 H 0.10747 0.41803 0.02727 0.0
H896 H 0.08073 0.42974 0.97953 0.0
H897 H 0.09132 0.44613 0.04119 0.0
H898 H 0.11626 0.53142 0.93145 0.0
H899 H 0.07629 0.53933 0.8736 0.0
H900 H 0.06853 0.46167 0.8852 0.0
C901 C 0.15323 0.44456 0.03122 0.0
C902 C 0.17017 0.45681 0.06458 0.0
C903 C 0.17036 0.48246 0.0511 0.0
C904 C 0.15333 0.49571 0.00771 0.0
C905 C 0.13622 0.48312 0.97796 0.0
C906 C 0.13616 0.45809 0.98867 0.0
C907 C 0.1143 0.44912 0.95557 0.0
C908 C 0.12316 0.43378 0.90388 0.0
C909 C 0.09747 0.43493 0.00377 0.0
C910 C 0.10159 0.47307 0.9265 0.0
C911 C 0.11473 0.49244 0.93921 0.0
C912 C 0.10599 0.5164 0.92037 0.0
C913 C 0.08319 0.5207 0.88778 0.0
C914 C 0.06927 0.50112 0.87476 0.0
C915 C 0.0788 0.47702 0.89399 0.0
H916 H 0.01142 0.85785 0.39284 0.0
H917 H 0.99556 0.80139 0.54653 0.0
H918 H 0.98646 0.83271 0.6173 0.0
H919 H 0.0422 0.89457 0.48601 0.0
H920 H 0.03009 0.92293 0.44247 0.0
H921 H 0.03362 0.89622 0.40321 0.0
H922 H 0.9871 0.90115 0.3706 0.0
H923 H 0.98345 0.92799 0.40947 0.0
H924 H 0.96389 0.90315 0.43097 0.0
H925 H 0.981 0.87066 0.67259 0.0
H926 H 0.97913 0.91154 0.70652 0.0
H927 H 0.99925 0.94231 0.51586 0.0
C928 C 0.00544 0.85204 0.44089 0.0
C929 C 0.00398 0.82714 0.46392 0.0
C930 C 0.99684 0.82035 0.52784 0.0
C931 C 0.99156 0.83802 0.5683 0.0
C932 C 0.99352 0.8624 0.54417 0.0
C933 C 0.0002 0.86938 0.48181 0.0
C934 C 0.00204 0.89659 0.46798 0.0
C935 C 0.02856 0.90294 0.44881 0.0
C936 C 0.98298 0.90788 0.41673 0.0
C937 C 0.99553 0.90389 0.53242 0.0
C938 C 0.99058 0.88399 0.5758 0.0
C939 C 0.98473 0.88637 0.63883 0.0
C940 C 0.98387 0.90967 0.65781 0.0
C941 C 0.9889 0.93032 0.61398 0.0
C942 C 0.99479 0.92715 0.5505 0.0
H943 H 0.65579 0.98063 0.36334 0.0
H944 H 0.70864 0.95837 0.51761 0.0
H945 H 0.67394 0.95278 0.5933 0.0
H946 H 0.61612 0.01564 0.447 0.0
H947 H 0.58792 0.00802 0.41079 0.0
H948 H 0.61659 0.007 0.36801 0.0
H949 H 0.61105 0.96214 0.35358 0.0
H950 H 0.58222 0.96305 0.39611 0.0
H951 H 0.60647 0.94017 0.4225 0.0
H952 H 0.63336 0.95309 0.65311 0.0
H953 H 0.59082 0.95989 0.69215 0.0
H954 H 0.56515 0.98314 0.49804 0.0
C955 C 0.66007 0.9738 0.41269 0.0
C956 C 0.68491 0.96958 0.4345 0.0
C957 C 0.68974 0.96158 0.4999 0.0
C958 C 0.67015 0.95828 0.54311 0.0
C959 C 0.64586 0.96308 0.52013 0.0
C960 C 0.6408 0.97061 0.45634 0.0
C961 C 0.61332 0.97662 0.44437 0.0
C962 C 0.60821 0.00341 0.41589 0.0
C963 C 0.60264 0.95947 0.40161 0.0
C964 C 0.6037 0.97179 0.51156 0.0
C965 C 0.62267 0.96374 0.55455 0.0
C966 C 0.61836 0.95921 0.61974 0.0
C967 C 0.59412 0.96331 0.64153 0.0
C968 C 0.57446 0.97208 0.59837 0.0
C969 C 0.57947 0.97599 0.53244 0.0
H970 H 0.46049 0.65886 0.42306 0.0
H971 H 0.53488 0.6843 0.4196 0.0
H972 H 0.54804 0.65019 0.50271 0.0
H973 H 0.45808 0.63942 0.59274 0.0
H974 H 0.44087 0.61336 0.58353 0.0
H975 H 0.43747 0.64012 0.52538 0.0
H976 H 0.44939 0.61415 0.436 0.0
H977 H 0.45293 0.58735 0.4939 0.0
H978 H 0.47825 0.59586 0.44205 0.0
H979 H 0.55285 0.61267 0.58624 0.0
H980 H 0.54911 0.57493 0.66102 0.0
H981 H 0.47145 0.57466 0.60775 0.0
C982 C 0.47946 0.65755 0.44048 0.0
C983 C 0.49661 0.67441 0.41529 0.0
C984 C 0.52144 0.67158 0.43816 0.0
C985 C 0.52904 0.65233 0.48548 0.0
C986 C 0.51161 0.63602 0.50915 0.0
C987 C 0.48734 0.63847 0.48727 0.0
C988 C 0.4723 0.61826 0.51896 0.0
C989 C 0.45092 0.6284 0.55744 0.0
C990 C 0.46266 0.603 0.46979 0.0
C991 C 0.49189 0.60395 0.56216 0.0
C992 C 0.51443 0.61447 0.55612 0.0
C993 C 0.53527 0.60432 0.59132 0.0
C994 C 0.53296 0.58288 0.63367 0.0
C995 C 0.51001 0.57178 0.64023 0.0
C996 C 0.48928 0.58261 0.60388 0.0
H997 H 0.8496 0.56811 0.49035 0.0
H998 H 0.80949 0.5108 0.59675 0.0
H999 H 0.84085 0.50667 0.68166 0.0
H1000 H 0.90647 0.53911 0.51515 0.0
H1001 H 0.92367 0.56532 0.5229 0.0
H1002 H 0.89521 0.56877 0.47751 0.0
H1003 H 0.87724 0.60033 0.54717 0.0
H1004 H 0.90585 0.59726 0.59244 0.0
H1005 H 0.87679 0.59258 0.6325 0.0
H1006 H 0.87986 0.50194 0.74271 0.0
H1007 H 0.92321 0.49927 0.78074 0.0
H1008 H 0.93979 0.55891 0.63674 0.0
C1009 C 0.84702 0.55511 0.53219 0.0
C1010 C 0.82679 0.53989 0.53636 0.0
C1011 C 0.82427 0.52318 0.59236 0.0
C1012 C 0.84219 0.52052 0.641 0.0
C1013 C 0.86257 0.53475 0.6335 0.0
C1014 C 0.86497 0.552 0.58101 0.0
C1015 C 0.89016 0.56276 0.58103 0.0
C1016 C 0.90472 0.55874 0.52057 0.0
C1017 C 0.88733 0.58984 0.58876 0.0
C1018 C 0.902 0.54788 0.63982 0.0
C1019 C 0.88552 0.53208 0.66972 0.0
C1020 C 0.89273 0.51463 0.7208 0.0
C1021 C 0.91741 0.51311 0.74168 0.0
C1022 C 0.93464 0.529 0.71184 0.0
C1023 C 0.92675 0.54694 0.66109 0.0
loop_
_geom_bond_atom_site_label_1
_geom_bond_atom_site_label_2
_geom_bond_distance
_geom_bond_site_symmetry_2
_ccdc_geom_bond_type
P0 O11 1.490 . S
P0 C14 1.812 . S
P0 C20 1.803 . S
P0 C26 1.819 . S
H1 C15 0.941 . S
H2 C16 0.939 . S
H3 C18 0.940 . S
H4 C19 0.940 . S
H5 C21 0.939 . S
H6 C22 0.942 . S
H7 C24 0.940 . S
H8 C25 0.939 . S
H9 C27 0.941 . S
H10 C31 0.939 . S
O11 P0 1.490 . S
H12 C28 0.939 . S
H13 C30 0.940 1_556 S
C14 P0 1.812 . S
C14 C15 1.389 . S
C14 C19 1.391 . S
C15 H1 0.941 . S
C15 C14 1.389 . S
C15 C16 1.397 . S
C16 H2 0.939 . S
C16 C15 1.397 . S
C16 C17 1.378 . S
C17 C16 1.378 . S
C17 C18 1.378 . S
C18 H3 0.940 . S
C18 C17 1.378 . S
C18 C19 1.396 . S
C19 H4 0.940 . S
C19 C14 1.391 . S
C19 C18 1.396 . S
C20 P0 1.803 . S
C20 C21 1.378 . S
C20 C25 1.400 . S
C21 H5 0.939 . S
C21 C20 1.378 . S
C21 C22 1.361 . S
C22 H6 0.942 . S
C22 C21 1.361 . S
C22 C23 1.369 . S
C23 C22 1.369 . S
C23 C24 1.404 . S
C24 H7 0.940 . S
C24 C23 1.404 . S
C24 C25 1.389 . S
C25 H8 0.939 . S
C25 C20 1.400 . S
C25 C24 1.389 . S
C26 P0 1.819 . S
C26 C27 1.391 . S
C26 C31 1.391 . S
C27 H9 0.941 . S
C27 C26 1.391 . S
C27 C28 1.396 . S
C28 H12 0.939 . S
C28 C27 1.396 . S
C28 C29 1.397 . S
C29 C28 1.397 . S
C29 C30 1.385 . S
C30 H13 0.940 1_554 S
C30 C29 1.385 . S
C30 C31 1.388 . S
C31 H10 0.939 . S
C31 C26 1.391 . S
C31 C30 1.388 . S
P32 O43 1.490 . S
P32 C46 1.812 . S
P32 C52 1.803 . S
P32 C58 1.819 . S
H33 C47 0.941 . S
H34 C48 0.939 . S
H35 C50 0.940 . S
H36 C51 0.950 . S
H37 C53 0.939 . S
H38 C54 0.942 . S
H39 C56 0.940 . S
H40 C57 0.958 . S
H41 C59 0.941 . S
H42 C63 0.927 1_655 S
O43 P32 1.490 . S
H44 C60 0.939 . S
H45 C62 0.940 . S
C46 P32 1.812 . S
C46 C47 1.389 . S
C46 C51 1.376 1_455 S
C47 H33 0.941 . S
C47 C46 1.389 . S
C47 C48 1.397 . S
C48 H34 0.939 . S
C48 C47 1.397 . S
C48 C49 1.378 . S
C49 C48 1.378 . S
C49 C50 1.378 1_455 S
C50 H35 0.940 . S
C50 C49 1.378 1_655 S
C50 C51 1.402 . S
C51 H36 0.950 . S
C51 C46 1.376 1_655 S
C51 C50 1.402 . S
C52 P32 1.803 . S
C52 C53 1.378 . S
C52 C57 1.368 1_455 S
C53 H37 0.939 . S
C53 C52 1.378 . S
C53 C54 1.361 . S
C54 H38 0.942 . S
C54 C53 1.361 . S
C54 C55 1.369 . S
C55 C54 1.369 . S
C55 C56 1.404 1_455 S
C56 H39 0.940 . S
C56 C55 1.404 1_655 S
C56 C57 1.404 . S
C57 H40 0.958 . S
C57 C52 1.368 1_655 S
C57 C56 1.404 . S
C58 P32 1.819 . S
C58 C59 1.391 . S
C58 C63 1.391 . S
C59 H41 0.941 . S
C59 C58 1.391 . S
C59 C60 1.396 . S
C60 H44 0.939 . S
C60 C59 1.396 . S
C60 C61 1.397 1_554 S
C61 C60 1.397 1_556 S
C61 C62 1.385 1_455 S
C62 H45 0.940 . S
C62 C61 1.385 1_655 S
C62 C63 1.388 1_656 S
C63 H42 0.927 1_455 S
C63 C58 1.391 . S
C63 C62 1.388 1_454 S
P64 O75 1.490 1_565 S
P64 C78 1.812 . S
P64 C84 1.803 . S
P64 C90 1.819 . S
H65 C79 0.941 . S
H66 C80 0.939 . S
H67 C82 0.940 . S
H68 C83 0.940 . S
H69 C85 0.939 . S
H70 C86 0.942 . S
H71 C88 0.940 . S
H72 C89 0.939 . S
H73 C91 0.941 . S
H74 C95 0.939 . S
O75 P64 1.490 1_545 S
H76 C92 0.939 1_556 S
H77 C94 0.940 . S
C78 P64 1.812 . S
C78 C79 1.389 . S
C78 C83 1.391 . S
C79 H65 0.941 . S
C79 C78 1.389 . S
C79 C80 1.397 . S
C80 H66 0.939 . S
C80 C79 1.397 . S
C80 C81 1.378 . S
C81 C80 1.378 . S
C81 C82 1.378 . S
C82 H67 0.940 . S
C82 C81 1.378 . S
C82 C83 1.396 . S
C83 H68 0.940 . S
C83 C78 1.391 . S
C83 C82 1.396 . S
C84 P64 1.803 . S
C84 C85 1.378 . S
C84 C89 1.400 . S
C85 H69 0.939 . S
C85 C84 1.378 . S
C85 C86 1.361 . S
C86 H70 0.942 . S
C86 C85 1.361 . S
C86 C87 1.369 . S
C87 C86 1.369 . S
C87 C88 1.404 . S
C88 H71 0.940 . S
C88 C87 1.404 . S
C88 C89 1.389 . S
C89 H72 0.939 . S
C89 C84 1.400 . S
C89 C88 1.389 . S
C90 P64 1.819 . S
C90 C91 1.391 . S
C90 C95 1.391 . S
C91 H73 0.941 . S
C91 C90 1.391 . S
C91 C92 1.396 . S
C92 H76 0.939 1_554 S
C92 C91 1.396 . S
C92 C93 1.397 1_554 S
C93 C92 1.397 1_556 S
C93 C94 1.385 . S
C94 H77 0.940 . S
C94 C93 1.385 . S
C94 C95 1.388 1_556 S
C95 H74 0.939 . S
C95 C90 1.391 . S
C95 C94 1.388 1_554 S
P96 O107 1.490 . S
P96 C110 1.812 . S
P96 C116 1.803 . S
P96 C122 1.819 . S
H97 C111 0.941 . S
H98 C112 0.939 . S
H99 C114 0.940 . S
H100 C115 0.940 . S
H101 C117 0.939 . S
H102 C118 0.942 . S
H103 C120 0.940 . S
H104 C121 0.939 . S
H105 C123 0.941 . S
H106 C127 0.939 . S
O107 P96 1.490 . S
H108 C124 0.939 . S
H109 C126 0.940 . S
C110 P96 1.812 . S
C110 C111 1.389 . S
C110 C115 1.391 . S
C111 H97 0.941 . S
C111 C110 1.389 . S
C111 C112 1.397 . S
C112 H98 0.939 . S
C112 C111 1.397 . S
C112 C113 1.378 . S
C113 C112 1.378 . S
C113 C114 1.378 . S
C114 H99 0.940 . S
C114 C113 1.378 . S
C114 C115 1.396 . S
C115 H100 0.940 . S
C115 C110 1.391 . S
C115 C114 1.396 . S
C116 P96 1.803 . S
C116 C117 1.378 . S
C116 C121 1.400 . S
C117 H101 0.939 . S
C117 C116 1.378 . S
C117 C118 1.361 . S
C118 H102 0.942 . S
C118 C117 1.361 . S
C118 C119 1.369 . S
C119 C118 1.369 . S
C119 C120 1.404 . S
C120 H103 0.940 . S
C120 C119 1.404 . S
C120 C121 1.389 . S
C121 H104 0.939 . S
C121 C116 1.400 . S
C121 C120 1.389 . S
C122 P96 1.819 . S
C122 C123 1.391 . S
C122 C127 1.391 . S
C123 H105 0.941 . S
C123 C122 1.391 . S
C123 C124 1.396 . S
C124 H108 0.939 . S
C124 C123 1.396 . S
C124 C125 1.397 1_554 S
C125 C124 1.397 1_556 S
C125 C126 1.385 . S
C126 H109 0.940 . S
C126 C125 1.385 . S
C126 C127 1.388 1_556 S
C127 H106 0.939 . S
C127 C122 1.391 . S
C127 C126 1.388 1_554 S
P128 O139 1.490 . S
P128 C142 1.812 . S
P128 C148 1.803 . S
P128 C154 1.819 . S
H129 C143 0.941 . S
H130 C144 0.939 . S
H131 C146 0.940 . S
H132 C147 0.940 . S
H133 C149 0.939 . S
H134 C150 0.942 . S
H135 C152 0.940 . S
H136 C153 0.939 . S
H137 C155 0.941 . S
H138 C159 0.939 . S
O139 P128 1.490 . S
H140 C156 0.939 . S
H141 C158 0.940 . S
C142 P128 1.812 . S
C142 C143 1.389 . S
C142 C147 1.391 . S
C143 H129 0.941 . S
C143 C142 1.389 . S
C143 C144 1.397 . S
C144 H130 0.939 . S
C144 C143 1.397 . S
C144 C145 1.378 . S
C145 C144 1.378 . S
C145 C146 1.378 . S
C146 H131 0.940 . S
C146 C145 1.378 . S
C146 C147 1.396 . S
C147 H132 0.940 . S
C147 C142 1.391 . S
C147 C146 1.396 . S
C148 P128 1.803 . S
C148 C149 1.378 . S
C148 C153 1.400 . S
C149 H133 0.939 . S
C149 C148 1.378 . S
C149 C150 1.361 . S
C150 H134 0.942 . S
C150 C149 1.361 . S
C150 C151 1.369 . S
C151 C150 1.369 . S
C151 C152 1.404 . S
C152 H135 0.940 . S
C152 C151 1.404 . S
C152 C153 1.389 . S
C153 H136 0.939 . S
C153 C148 1.400 . S
C153 C152 1.389 . S
C154 P128 1.819 . S
C154 C155 1.391 . S
C154 C159 1.391 . S
C155 H137 0.941 . S
C155 C154 1.391 . S
C155 C156 1.396 . S
C156 H140 0.939 . S
C156 C155 1.396 . S
C156 C157 1.397 . S
C157 C156 1.397 . S
C157 C158 1.385 . S
C158 H141 0.940 . S
C158 C157 1.385 . S
C158 C159 1.388 . S
C159 H138 0.939 . S
C159 C154 1.391 . S
C159 C158 1.388 . S
P160 O171 1.490 . S
P160 C174 1.812 . S
P160 C180 1.803 . S
P160 C186 1.819 . S
H161 C175 0.941 . S
H162 C176 0.939 . S
H163 C178 0.940 . S
H164 C179 0.944 . S
H165 C181 0.939 . S
H166 C182 0.942 . S
H167 C184 0.940 . S
H168 C185 0.954 . S
H169 C187 0.941 . S
H170 C191 0.934 1_655 S
O171 P160 1.490 . S
H172 C188 0.939 . S
H173 C190 0.940 . S
C174 P160 1.812 . S
C174 C175 1.389 . S
C174 C179 1.385 1_455 S
C175 H161 0.941 . S
C175 C174 1.389 . S
C175 C176 1.397 . S
C176 H162 0.939 . S
C176 C175 1.397 . S
C176 C177 1.378 . S
C177 C176 1.378 . S
C177 C178 1.378 1_455 S
C178 H163 0.940 . S
C178 C177 1.378 1_655 S
C178 C179 1.399 . S
C179 H164 0.944 . S
C179 C174 1.385 1_655 S
C179 C178 1.399 . S
C180 P160 1.803 . S
C180 C181 1.378 . S
C180 C185 1.379 1_455 S
C181 H165 0.939 . S
C181 C180 1.378 . S
C181 C182 1.361 . S
C182 H166 0.942 . S
C182 C181 1.361 . S
C182 C183 1.369 . S
C183 C182 1.369 . S
C183 C184 1.404 1_455 S
C184 H167 0.940 . S
C184 C183 1.404 1_655 S
C184 C185 1.397 . S
C185 H168 0.954 . S
C185 C180 1.379 1_655 S
C185 C184 1.397 . S
C186 P160 1.819 . S
C186 C187 1.391 . S
C186 C191 1.391 . S
C187 H169 0.941 . S
C187 C186 1.391 . S
C187 C188 1.396 . S
C188 H172 0.939 . S
C188 C187 1.396 . S
C188 C189 1.397 . S
C189 C188 1.397 . S
C189 C190 1.385 1_455 S
C190 H173 0.940 . S
C190 C189 1.385 1_655 S
C190 C191 1.388 1_655 S
C191 H170 0.934 1_455 S
C191 C186 1.391 . S
C191 C190 1.388 1_455 S
P192 O203 1.490 . S
P192 C206 1.812 . S
P192 C212 1.803 . S
P192 C218 1.819 . S
H193 C207 0.941 . S
H194 C208 0.939 . S
H195 C210 0.940 . S
H196 C211 0.940 . S
H197 C213 0.939 . S
H198 C214 0.942 . S
H199 C216 0.940 . S
H200 C217 0.939 . S
H201 C219 0.941 . S
H202 C223 0.939 . S
O203 P192 1.490 . S
H204 C220 0.939 . S
H205 C222 0.940 . S
C206 P192 1.812 . S
C206 C207 1.389 . S
C206 C211 1.391 . S
C207 H193 0.941 . S
C207 C206 1.389 . S
C207 C208 1.397 . S
C208 H194 0.939 . S
C208 C207 1.397 . S
C208 C209 1.378 . S
C209 C208 1.378 . S
C209 C210 1.378 . S
C210 H195 0.940 . S
C210 C209 1.378 . S
C210 C211 1.396 . S
C211 H196 0.940 . S
C211 C206 1.391 . S
C211 C210 1.396 . S
C212 P192 1.803 . S
C212 C213 1.378 . S
C212 C217 1.400 . S
C213 H197 0.939 . S
C213 C212 1.378 . S
C213 C214 1.361 . S
C214 H198 0.942 . S
C214 C213 1.361 . S
C214 C215 1.369 . S
C215 C214 1.369 . S
C215 C216 1.404 . S
C216 H199 0.940 . S
C216 C215 1.404 . S
C216 C217 1.389 . S
C217 H200 0.939 . S
C217 C212 1.400 . S
C217 C216 1.389 . S
C218 P192 1.819 . S
C218 C219 1.391 . S
C218 C223 1.391 . S
C219 H201 0.941 . S
C219 C218 1.391 . S
C219 C220 1.396 . S
C220 H204 0.939 . S
C220 C219 1.396 . S
C220 C221 1.397 . S
C221 C220 1.397 . S
C221 C222 1.385 . S
C222 H205 0.940 . S
C222 C221 1.385 . S
C222 C223 1.388 . S
C223 H202 0.939 . S
C223 C218 1.391 . S
C223 C222 1.388 . S
P224 O235 1.490 . S
P224 C238 1.812 . S
P224 C244 1.803 . S
P224 C250 1.819 . S
H225 C239 0.941 . S
H226 C240 0.939 . S
H227 C242 0.940 . S
H228 C243 0.940 . S
H229 C245 0.939 . S
H230 C246 0.942 . S
H231 C248 0.940 . S
H232 C249 0.939 . S
H233 C251 0.941 . S
H234 C255 0.939 . S
O235 P224 1.490 . S
H236 C252 0.939 . S
H237 C254 0.940 . S
C238 P224 1.812 . S
C238 C239 1.389 . S
C238 C243 1.391 . S
C239 H225 0.941 . S
C239 C238 1.389 . S
C239 C240 1.397 . S
C240 H226 0.939 . S
C240 C239 1.397 . S
C240 C241 1.378 . S
C241 C240 1.378 . S
C241 C242 1.378 . S
C242 H227 0.940 . S
C242 C241 1.378 . S
C242 C243 1.396 . S
C243 H228 0.940 . S
C243 C238 1.391 . S
C243 C242 1.396 . S
C244 P224 1.803 . S
C244 C245 1.378 . S
C244 C249 1.400 . S
C245 H229 0.939 . S
C245 C244 1.378 . S
C245 C246 1.361 . S
C246 H230 0.942 . S
C246 C245 1.361 . S
C246 C247 1.369 . S
C247 C246 1.369 . S
C247 C248 1.404 . S
C248 H231 0.940 . S
C248 C247 1.404 . S
C248 C249 1.389 . S
C249 H232 0.939 . S
C249 C244 1.400 . S
C249 C248 1.389 . S
C250 P224 1.819 . S
C250 C251 1.391 . S
C250 C255 1.391 . S
C251 H233 0.941 . S
C251 C250 1.391 . S
C251 C252 1.396 . S
C252 H236 0.939 . S
C252 C251 1.396 . S
C252 C253 1.397 . S
C253 C252 1.397 . S
C253 C254 1.385 . S
C254 H237 0.940 . S
C254 C253 1.385 . S
C254 C255 1.388 . S
C255 H234 0.939 . S
C255 C250 1.391 . S
C255 C254 1.388 . S
Co256 N261 2.057 . S
Co256 O273 2.021 . S
Co256 O276 2.062 1_455 S
Co256 O280 2.117 1_455 S
Co256 O281 2.020 1_545 S
C257 O277 1.259 1_545 S
C257 O280 1.258 . S
Co258 N267 2.057 . S
Co258 O274 2.117 1_665 S
Co258 O275 2.020 1_565 S
Co258 O277 2.021 . S
Co258 O282 2.062 1_655 S
C259 N261 1.316 . S
C259 N262 1.347 . S
C259 H264 0.931 . S
C260 N261 1.375 1_655 S
C260 C263 1.350 . S
C260 H265 0.930 . S
N261 Co256 2.057 . S
N261 C259 1.316 . S
N261 C260 1.375 1_455 S
N262 C259 1.347 . S
N262 C263 1.373 1_455 S
C263 C260 1.350 . S
C263 N262 1.373 1_655 S
C263 H284 0.931 1_556 S
H264 C259 0.931 . S
H265 C260 0.930 . S
C266 O273 1.259 . S
C266 O274 1.258 . S
N267 Co258 2.057 . S
N267 C268 1.316 . S
N267 C269 1.375 1_655 S
C268 N267 1.316 . S
C268 N270 1.347 . S
C268 H279 0.931 . S
C269 N267 1.375 1_455 S
C269 C271 1.350 . S
C269 H278 0.930 . S
N270 C268 1.347 . S
N270 C271 1.373 1_655 S
C271 C269 1.350 . S
C271 N270 1.373 1_455 S
C271 H285 0.931 . S
C272 O275 1.256 . S
C272 O276 1.255 . S
O273 Co256 2.021 . S
O273 C266 1.259 . S
O274 Co258 2.117 1_445 S
O274 C266 1.258 . S
O275 Co258 2.020 1_545 S
O275 C272 1.256 . S
O276 Co256 2.062 1_655 S
O276 C272 1.255 . S
O277 C257 1.259 1_565 S
O277 Co258 2.021 . S
H278 C269 0.930 . S
H279 C268 0.931 . S
O280 Co256 2.117 1_655 S
O280 C257 1.258 . S
O281 Co256 2.020 1_565 S
O281 C283 1.256 . S
O282 Co258 2.062 1_455 S
O282 C283 1.255 . S
C283 O281 1.256 . S
C283 O282 1.255 . S
H284 C263 0.931 1_554 S
H285 C271 0.931 . S
Co286 N291 2.057 . S
Co286 O303 2.021 . S
Co286 O306 2.062 . S
Co286 O310 2.117 1_545 S
Co286 O311 2.020 . S
C287 O307 1.259 . S
C287 O310 1.258 . S
Co288 N297 2.057 . S
Co288 O304 2.117 . S
Co288 O305 2.020 . S
Co288 O307 2.021 1_545 S
Co288 O312 2.064 1_545 S
C289 N291 1.316 . S
C289 N292 1.347 . S
C289 H294 0.931 . S
C290 N291 1.375 . S
C290 C293 1.346 1_556 S
C290 H295 0.930 1_545 S
N291 Co286 2.057 . S
N291 C289 1.316 . S
N291 C290 1.375 . S
N292 C289 1.347 . S
N292 C293 1.373 1_556 S
C293 C290 1.346 1_554 S
C293 N292 1.373 1_554 S
C293 H314 0.935 . S
H294 C289 0.931 . S
H295 C290 0.930 1_565 S
C296 O303 1.259 . S
C296 O304 1.258 . S
N297 Co288 2.057 . S
N297 C298 1.316 1_545 S
N297 C299 1.375 . S
C298 N297 1.316 1_565 S
C298 N300 1.347 . S
C298 H309 0.931 . S
C299 N297 1.375 . S
C299 C301 1.350 . S
C299 H308 0.930 . S
N300 C298 1.347 . S
N300 C301 1.373 1_565 S
C301 C299 1.350 . S
C301 N300 1.373 1_545 S
C301 H315 0.931 . S
C302 O305 1.256 . S
C302 O306 1.255 . S
O303 Co286 2.021 . S
O303 C296 1.259 . S
O304 Co288 2.117 . S
O304 C296 1.258 . S
O305 Co288 2.020 . S
O305 C302 1.256 . S
O306 Co286 2.062 . S
O306 C302 1.255 . S
O307 C287 1.259 . S
O307 Co288 2.021 1_565 S
H308 C299 0.930 . S
H309 C298 0.931 . S
O310 Co286 2.117 1_565 S
O310 C287 1.258 . S
O311 Co286 2.020 . S
O311 C313 1.256 . S
O312 Co288 2.064 1_565 S
O312 C313 1.238 1_565 S
C313 O311 1.256 . S
C313 O312 1.238 1_545 S
H314 C293 0.935 . S
H315 C301 0.931 . S
Co316 N321 2.057 . S
Co316 O333 2.021 . S
Co316 O336 2.062 . S
Co316 O340 2.117 . S
Co316 O341 2.020 . S
C317 O337 1.259 . S
C317 O340 1.258 . S
Co318 N327 2.057 . S
Co318 O334 2.117 . S
Co318 O335 2.020 . S
Co318 O337 2.021 . S
Co318 O342 2.062 . S
C319 N321 1.316 . S
C319 N322 1.347 . S
C319 H324 0.931 . S
C320 N321 1.375 . S
C320 C323 1.350 . S
C320 H325 0.930 . S
N321 Co316 2.057 . S
N321 C319 1.316 . S
N321 C320 1.375 . S
N322 C319 1.347 . S
N322 C323 1.373 . S
C323 C320 1.350 . S
C323 N322 1.373 . S
C323 H344 0.931 . S
H324 C319 0.931 . S
H325 C320 0.930 . S
C326 O333 1.259 . S
C326 O334 1.258 . S
N327 Co318 2.057 . S
N327 C328 1.316 . S
N327 C329 1.375 . S
C328 N327 1.316 . S
C328 N330 1.347 . S
C328 H339 0.931 . S
C329 N327 1.375 . S
C329 C331 1.350 . S
C329 H338 0.930 . S
N330 C328 1.347 . S
N330 C331 1.373 . S
C331 C329 1.350 . S
C331 N330 1.373 . S
C331 H345 0.931 . S
C332 O335 1.256 . S
C332 O336 1.255 . S
O333 Co316 2.021 . S
O333 C326 1.259 . S
O334 Co318 2.117 . S
O334 C326 1.258 . S
O335 Co318 2.020 . S
O335 C332 1.256 . S
O336 Co316 2.062 . S
O336 C332 1.255 . S
O337 C317 1.259 . S
O337 Co318 2.021 . S
H338 C329 0.930 . S
H339 C328 0.931 . S
O340 Co316 2.117 . S
O340 C317 1.258 . S
O341 Co316 2.020 . S
O341 C343 1.256 . S
O342 Co318 2.062 . S
O342 C343 1.255 . S
C343 O341 1.256 . S
C343 O342 1.255 . S
H344 C323 0.931 . S
H345 C331 0.931 . S
Co346 N351 2.057 . S
Co346 O363 2.021 1_455 S
Co346 O366 2.062 1_455 S
Co346 O370 2.117 . S
Co346 O371 2.020 . S
C347 O367 1.259 . S
C347 O370 1.258 . S
Co348 N357 2.057 . S
Co348 O364 2.117 . S
Co348 O365 2.020 . S
Co348 O367 2.021 1_655 S
Co348 O372 2.062 1_655 S
C349 N351 1.316 . S
C349 N352 1.347 . S
C349 H354 0.931 1_455 S
C350 N351 1.375 . S
C350 C353 1.350 . S
C350 H355 0.930 . S
N351 Co346 2.057 . S
N351 C349 1.316 . S
N351 C350 1.375 . S
N352 C349 1.347 . S
N352 C353 1.373 . S
C353 C350 1.350 . S
C353 N352 1.373 . S
C353 H374 0.931 . S
H354 C349 0.931 1_655 S
H355 C350 0.930 . S
C356 O363 1.259 . S
C356 O364 1.258 . S
N357 Co348 2.057 . S
N357 C358 1.316 . S
N357 C359 1.375 . S
C358 N357 1.316 . S
C358 N360 1.347 . S
C358 H369 0.931 1_655 S
C359 N357 1.375 . S
C359 C361 1.350 . S
C359 H368 0.930 . S
N360 C358 1.347 . S
N360 C361 1.373 . S
C361 C359 1.350 . S
C361 N360 1.373 . S
C361 H375 0.931 . S
C362 O365 1.256 . S
C362 O366 1.255 . S
O363 Co346 2.021 1_655 S
O363 C356 1.259 . S
O364 Co348 2.117 . S
O364 C356 1.258 . S
O365 Co348 2.020 . S
O365 C362 1.256 . S
O366 Co346 2.062 1_655 S
O366 C362 1.255 . S
O367 C347 1.259 . S
O367 Co348 2.021 1_455 S
H368 C359 0.930 . S
H369 C358 0.931 1_455 S
O370 Co346 2.117 . S
O370 C347 1.258 . S
O371 Co346 2.020 . S
O371 C373 1.256 . S
O372 Co348 2.062 1_455 S
O372 C373 1.255 . S
C373 O371 1.256 . S
C373 O372 1.255 . S
H374 C353 0.931 . S
H375 C361 0.931 . S
H376 C388 0.930 . S
H377 C390 0.930 . S
H378 C391 0.930 . S
H379 C395 0.959 . S
H380 C395 0.959 1_565 S
H381 C395 0.961 . S
H382 C396 0.960 . S
H383 C396 0.961 . S
H384 C396 0.959 . S
H385 C399 0.929 . S
H386 C400 0.931 . S
H387 C402 0.930 . S
C388 H376 0.930 . S
C388 C389 1.399 . S
C388 C393 1.399 . S
C389 C388 1.399 . S
C389 C390 1.376 . S
C390 H377 0.930 . S
C390 C389 1.376 . S
C390 C391 1.388 . S
C391 H378 0.930 . S
C391 C390 1.388 . S
C391 C392 1.390 . S
C392 C391 1.390 . S
C392 C393 1.394 . S
C392 C398 1.465 . S
C393 C388 1.399 . S
C393 C392 1.394 . S
C393 C394 1.516 . S
C394 C393 1.516 . S
C394 C395 1.502 . S
C394 C396 1.561 . S
C394 C397 1.526 . S
C395 H379 0.959 . S
C395 H380 0.959 1_545 S
C395 H381 0.961 . S
C395 C394 1.502 . S
C396 H382 0.960 . S
C396 H383 0.961 . S
C396 H384 0.959 . S
C396 C394 1.561 . S
C397 C394 1.526 . S
C397 C398 1.396 . S
C397 C402 1.390 . S
C398 C392 1.465 . S
C398 C397 1.396 . S
C398 C399 1.399 . S
C399 H385 0.929 . S
C399 C398 1.399 . S
C399 C400 1.385 . S
C400 H386 0.931 . S
C400 C399 1.385 . S
C400 C401 1.389 . S
C401 C400 1.389 . S
C401 C402 1.387 . S
C402 H387 0.930 . S
C402 C397 1.390 . S
C402 C401 1.387 . S
H403 C415 0.930 . S
H404 C417 0.930 . S
H405 C418 0.930 . S
H406 C422 0.959 . S
H407 C422 0.959 . S
H408 C422 0.961 . S
H409 C423 0.960 . S
H410 C423 0.961 . S
H411 C423 0.959 . S
H412 C426 0.929 . S
H413 C427 0.931 . S
H414 C429 0.930 . S
C415 H403 0.930 . S
C415 C416 1.399 . S
C415 C420 1.399 . S
C416 C415 1.399 . S
C416 C417 1.376 . S
C417 H404 0.930 . S
C417 C416 1.376 . S
C417 C418 1.388 . S
C418 H405 0.930 . S
C418 C417 1.388 . S
C418 C419 1.390 . S
C419 C418 1.390 . S
C419 C420 1.394 . S
C419 C425 1.465 . S
C420 C415 1.399 . S
C420 C419 1.394 . S
C420 C421 1.516 . S
C421 C420 1.516 . S
C421 C422 1.502 . S
C421 C423 1.561 . S
C421 C424 1.526 . S
C422 H406 0.959 . S
C422 H407 0.959 . S
C422 H408 0.961 . S
C422 C421 1.502 . S
C423 H409 0.960 . S
C423 H410 0.961 . S
C423 H411 0.959 . S
C423 C421 1.561 . S
C424 C421 1.526 . S
C424 C425 1.396 . S
C424 C429 1.390 . S
C425 C419 1.465 . S
C425 C424 1.396 . S
C425 C426 1.399 . S
C426 H412 0.929 . S
C426 C425 1.399 . S
C426 C427 1.385 . S
C427 H413 0.931 . S
C427 C426 1.385 . S
C427 C428 1.389 . S
C428 C427 1.389 . S
C428 C429 1.387 . S
C429 H414 0.930 . S
C429 C424 1.390 . S
C429 C428 1.387 . S
H430 C442 0.930 . S
H431 C444 0.930 . S
H432 C445 0.930 . S
H433 C449 0.959 . S
H434 C449 0.959 . S
H435 C449 0.961 . S
H436 C450 0.960 . S
H437 C450 0.961 . S
H438 C450 0.959 . S
H439 C453 0.929 . S
H440 C454 0.931 . S
H441 C456 0.930 . S
C442 H430 0.930 . S
C442 C443 1.399 . S
C442 C447 1.399 . S
C443 C442 1.399 . S
C443 C444 1.376 . S
C444 H431 0.930 . S
C444 C443 1.376 . S
C444 C445 1.388 . S
C445 H432 0.930 . S
C445 C444 1.388 . S
C445 C446 1.390 . S
C446 C445 1.390 . S
C446 C447 1.394 . S
C446 C452 1.465 . S
C447 C442 1.399 . S
C447 C446 1.394 . S
C447 C448 1.516 . S
C448 C447 1.516 . S
C448 C449 1.502 . S
C448 C450 1.561 . S
C448 C451 1.526 . S
C449 H433 0.959 . S
C449 H434 0.959 . S
C449 H435 0.961 . S
C449 C448 1.502 . S
C450 H436 0.960 . S
C450 H437 0.961 . S
C450 H438 0.959 . S
C450 C448 1.561 . S
C451 C448 1.526 . S
C451 C452 1.396 . S
C451 C456 1.390 . S
C452 C446 1.465 . S
C452 C451 1.396 . S
C452 C453 1.399 . S
C453 H439 0.929 . S
C453 C452 1.399 . S
C453 C454 1.385 . S
C454 H440 0.931 . S
C454 C453 1.385 . S
C454 C455 1.389 . S
C455 C454 1.389 . S
C455 C456 1.387 . S
C456 H441 0.930 . S
C456 C451 1.390 . S
C456 C455 1.387 . S
H457 C469 0.924 1_455 S
H458 C471 0.930 . S
H459 C472 0.930 . S
H460 C476 0.959 . S
H461 C476 0.959 . S
H462 C476 0.961 . S
H463 C477 0.960 . S
H464 C477 0.961 . S
H465 C477 0.959 . S
H466 C480 0.929 . S
H467 C481 0.931 . S
H468 C483 0.930 . S
C469 H457 0.924 1_655 S
C469 C470 1.399 . S
C469 C474 1.399 . S
C470 C469 1.399 . S
C470 C471 1.376 . S
C471 H458 0.930 . S
C471 C470 1.376 . S
C471 C472 1.388 . S
C472 H459 0.930 . S
C472 C471 1.388 . S
C472 C473 1.390 . S
C473 C472 1.390 . S
C473 C474 1.394 . S
C473 C479 1.465 . S
C474 C469 1.399 . S
C474 C473 1.394 . S
C474 C475 1.516 . S
C475 C474 1.516 . S
C475 C476 1.502 1_655 S
C475 C477 1.561 . S
C475 C478 1.526 . S
C476 H460 0.959 . S
C476 H461 0.959 . S
C476 H462 0.961 . S
C476 C475 1.502 1_455 S
C477 H463 0.960 . S
C477 H464 0.961 . S
C477 H465 0.959 . S
C477 C475 1.561 . S
C478 C475 1.526 . S
C478 C479 1.396 . S
C478 C483 1.390 . S
C479 C473 1.465 . S
C479 C478 1.396 . S
C479 C480 1.399 . S
C480 H466 0.929 . S
C480 C479 1.399 . S
C480 C481 1.385 . S
C481 H467 0.931 . S
C481 C480 1.385 . S
C481 C482 1.389 . S
C482 C481 1.389 . S
C482 C483 1.387 . S
C483 H468 0.930 . S
C483 C478 1.390 . S
C483 C482 1.387 . S
H484 C496 0.930 . S
H485 C498 0.930 . S
H486 C499 0.930 . S
H487 C503 0.959 . S
H488 C503 0.959 . S
H489 C503 0.961 . S
H490 C504 0.960 . S
H491 C504 0.961 1_556 S
H492 C504 0.959 1_565 S
H493 C507 0.929 . S
H494 C508 0.931 . S
H495 C510 0.930 . S
C496 H484 0.930 . S
C496 C497 1.399 . S
C496 C501 1.399 1_554 S
C497 C496 1.399 . S
C497 C498 1.376 . S
C498 H485 0.930 . S
C498 C497 1.376 . S
C498 C499 1.388 1_554 S
C499 H486 0.930 . S
C499 C498 1.388 1_556 S
C499 C500 1.390 . S
C500 C499 1.390 . S
C500 C501 1.394 . S
C500 C506 1.465 . S
C501 C496 1.399 1_556 S
C501 C500 1.394 . S
C501 C502 1.553 . S
C502 C501 1.553 . S
C502 C503 1.477 1_565 S
C502 C504 1.541 1_566 S
C502 C505 1.539 . S
C503 H487 0.959 . S
C503 H488 0.959 . S
C503 H489 0.961 . S
C503 C502 1.477 1_545 S
C504 H490 0.960 . S
C504 H491 0.961 1_554 S
C504 H492 0.959 1_545 S
C504 C502 1.541 1_544 S
C505 C502 1.539 . S
C505 C506 1.396 . S
C505 C510 1.390 1_565 S
C506 C500 1.465 . S
C506 C505 1.396 . S
C506 C507 1.399 . S
C507 H493 0.929 . S
C507 C506 1.399 . S
C507 C508 1.385 . S
C508 H494 0.931 . S
C508 C507 1.385 . S
C508 C509 1.389 . S
C509 C508 1.389 . S
C509 C510 1.387 1_565 S
C510 H495 0.930 . S
C510 C505 1.390 1_545 S
C510 C509 1.387 1_545 S
H511 C523 0.930 . S
H512 C525 0.930 . S
H513 C526 0.930 . S
H514 C530 0.959 . S
H515 C530 0.959 . S
H516 C530 0.961 . S
H517 C531 0.960 . S
H518 C531 0.961 . S
H519 C531 0.959 . S
H520 C534 0.929 . S
H521 C535 0.931 . S
H522 C537 0.930 . S
C523 H511 0.930 . S
C523 C524 1.399 1_556 S
C523 C528 1.399 . S
C524 C523 1.399 1_554 S
C524 C525 1.376 . S
C525 H512 0.930 . S
C525 C524 1.376 . S
C525 C526 1.388 . S
C526 H513 0.930 . S
C526 C525 1.388 . S
C526 C527 1.390 1_554 S
C527 C526 1.390 1_556 S
C527 C528 1.394 . S
C527 C533 1.465 . S
C528 C523 1.399 . S
C528 C527 1.394 . S
C528 C529 1.516 . S
C529 C528 1.516 . S
C529 C530 1.502 . S
C529 C531 1.561 . S
C529 C532 1.526 . S
C530 H514 0.959 . S
C530 H515 0.959 . S
C530 H516 0.961 . S
C530 C529 1.502 . S
C531 H517 0.960 . S
C531 H518 0.961 . S
C531 H519 0.959 . S
C531 C529 1.561 . S
C532 C529 1.526 . S
C532 C533 1.396 . S
C532 C537 1.390 . S
C533 C527 1.465 . S
C533 C532 1.396 . S
C533 C534 1.399 . S
C534 H520 0.929 . S
C534 C533 1.399 . S
C534 C535 1.385 . S
C535 H521 0.931 . S
C535 C534 1.385 . S
C535 C536 1.389 . S
C536 C535 1.389 . S
C536 C537 1.387 . S
C537 H522 0.930 . S
C537 C532 1.390 . S
C537 C536 1.387 . S
H538 C550 0.930 . S
H539 C552 0.930 . S
H540 C553 0.930 . S
H541 C557 0.959 . S
H542 C557 0.959 . S
H543 C557 0.961 . S
H544 C558 0.960 . S
H545 C558 0.961 . S
H546 C558 0.959 . S
H547 C561 0.929 . S
H548 C562 0.931 . S
H549 C564 0.930 . S
C550 H538 0.930 . S
C550 C551 1.399 . S
C550 C555 1.399 . S
C551 C550 1.399 . S
C551 C552 1.376 1_554 S
C552 H539 0.930 . S
C552 C551 1.376 1_556 S
C552 C553 1.388 . S
C553 H540 0.930 . S
C553 C552 1.388 . S
C553 C554 1.390 . S
C554 C553 1.390 . S
C554 C555 1.394 1_556 S
C554 C560 1.465 . S
C555 C550 1.399 . S
C555 C554 1.394 1_554 S
C555 C556 1.516 . S
C556 C555 1.516 . S
C556 C557 1.502 . S
C556 C558 1.561 . S
C556 C559 1.526 1_554 S
C557 H541 0.959 . S
C557 H542 0.959 . S
C557 H543 0.961 . S
C557 C556 1.502 . S
C558 H544 0.960 . S
C558 H545 0.961 . S
C558 H546 0.959 . S
C558 C556 1.561 . S
C559 C556 1.526 1_556 S
C559 C560 1.396 . S
C559 C564 1.390 . S
C560 C554 1.465 . S
C560 C559 1.396 . S
C560 C561 1.399 . S
C561 H547 0.929 . S
C561 C560 1.399 . S
C561 C562 1.385 . S
C562 H548 0.931 . S
C562 C561 1.385 . S
C562 C563 1.389 . S
C563 C562 1.389 . S
C563 C564 1.387 . S
C564 H549 0.930 . S
C564 C559 1.390 . S
C564 C563 1.387 . S
H565 C577 0.930 1_556 S
H566 C579 0.930 . S
H567 C580 0.930 . S
H568 C584 0.959 . S
H569 C584 0.959 . S
H570 C584 0.961 . S
H571 C585 0.963 . S
H572 C585 0.964 . S
H573 C585 0.949 1_455 S
H574 C588 0.929 . S
H575 C589 0.931 . S
H576 C591 0.911 1_655 S
C577 H565 0.930 1_554 S
C577 C578 1.399 1_655 S
C577 C582 1.399 1_554 S
C578 C577 1.399 1_455 S
C578 C579 1.376 . S
C579 H566 0.930 . S
C579 C578 1.376 . S
C579 C580 1.388 . S
C580 H567 0.930 . S
C580 C579 1.388 . S
C580 C581 1.374 1_554 S
C581 C580 1.374 1_556 S
C581 C582 1.399 1_455 S
C581 C587 1.479 . S
C582 C577 1.399 1_556 S
C582 C581 1.399 1_655 S
C582 C583 1.516 . S
C583 C582 1.516 . S
C583 C584 1.502 . S
C583 C585 1.565 . S
C583 C586 1.526 1_655 S
C584 H568 0.959 . S
C584 H569 0.959 . S
C584 H570 0.961 . S
C584 C583 1.502 . S
C585 H571 0.963 . S
C585 H572 0.964 . S
C585 H573 0.949 1_655 S
C585 C583 1.565 . S
C586 C583 1.526 1_455 S
C586 C587 1.396 . S
C586 C591 1.393 . S
C587 C581 1.479 . S
C587 C586 1.396 . S
C587 C588 1.399 . S
C588 H574 0.929 . S
C588 C587 1.399 . S
C588 C589 1.385 . S
C589 H575 0.931 . S
C589 C588 1.385 . S
C589 C590 1.389 . S
C590 C589 1.389 . S
C590 C591 1.403 . S
C591 H576 0.911 1_455 S
C591 C586 1.393 . S
C591 C590 1.403 . S
H592 C604 0.930 . S
H593 C606 0.930 . S
H594 C607 0.930 . S
H595 C611 0.959 . S
H596 C611 0.959 . S
H597 C611 0.961 . S
H598 C612 0.960 . S
H599 C612 0.961 . S
H600 C612 0.959 . S
H601 C615 0.929 . S
H602 C616 0.931 . S
H603 C618 0.930 . S
C604 H592 0.930 . S
C604 C605 1.399 1_655 S
C604 C609 1.399 . S
C605 C604 1.399 1_455 S
C605 C606 1.376 . S
C606 H593 0.930 . S
C606 C605 1.376 . S
C606 C607 1.388 . S
C607 H594 0.930 . S
C607 C606 1.388 . S
C607 C608 1.390 . S
C608 C607 1.390 . S
C608 C609 1.394 1_455 S
C608 C614 1.465 . S
C609 C604 1.399 . S
C609 C608 1.394 1_655 S
C609 C610 1.516 . S
C610 C609 1.516 . S
C610 C611 1.502 . S
C610 C612 1.561 . S
C610 C613 1.526 . S
C611 H595 0.959 . S
C611 H596 0.959 . S
C611 H597 0.961 . S
C611 C610 1.502 . S
C612 H598 0.960 . S
C612 H599 0.961 . S
C612 H600 0.959 . S
C612 C610 1.561 . S
C613 C610 1.526 . S
C613 C614 1.396 1_655 S
C613 C618 1.390 . S
C614 C608 1.465 . S
C614 C613 1.396 1_455 S
C614 C615 1.399 . S
C615 H601 0.929 . S
C615 C614 1.399 . S
C615 C616 1.385 . S
C616 H602 0.931 . S
C616 C615 1.385 . S
C616 C617 1.389 1_455 S
C617 C616 1.389 1_655 S
C617 C618 1.387 . S
C618 H603 0.930 . S
C618 C613 1.390 . S
C618 C617 1.387 . S
H619 C631 0.930 . S
H620 C633 0.930 . S
H621 C634 0.930 . S
H622 C638 0.959 . S
H623 C638 0.959 1_565 S
H624 C638 0.961 . S
H625 C639 0.960 . S
H626 C639 0.961 . S
H627 C639 0.959 . S
H628 C642 0.929 . S
H629 C643 0.931 . S
H630 C645 0.933 . S
C631 H619 0.930 . S
C631 C632 1.399 . S
C631 C636 1.399 . S
C632 C631 1.399 . S
C632 C633 1.376 . S
C633 H620 0.930 . S
C633 C632 1.376 . S
C633 C634 1.388 . S
C634 H621 0.930 . S
C634 C633 1.388 . S
C634 C635 1.390 . S
C635 C634 1.390 . S
C635 C636 1.394 . S
C635 C641 1.465 . S
C636 C631 1.399 . S
C636 C635 1.394 . S
C636 C637 1.516 . S
C637 C636 1.516 . S
C637 C638 1.502 . S
C637 C639 1.561 . S
C637 C640 1.526 . S
C638 H622 0.959 . S
C638 H623 0.959 1_545 S
C638 H624 0.961 . S
C638 C637 1.502 . S
C639 H625 0.960 . S
C639 H626 0.961 . S
C639 H627 0.959 . S
C639 C637 1.561 . S
C640 C637 1.526 . S
C640 C641 1.396 . S
C640 C645 1.390 . S
C641 C635 1.465 . S
C641 C640 1.396 . S
C641 C642 1.399 . S
C642 H628 0.929 . S
C642 C641 1.399 . S
C642 C643 1.385 . S
C643 H629 0.931 . S
C643 C642 1.385 . S
C643 C644 1.389 . S
C644 C643 1.389 . S
C644 C645 1.387 . S
C645 H630 0.933 . S
C645 C640 1.390 . S
C645 C644 1.387 . S
H646 C658 0.930 . S
H647 C660 0.930 . S
H648 C661 0.930 . S
H649 C665 0.959 . S
H650 C665 0.959 . S
H651 C665 0.961 . S
H652 C666 0.960 . S
H653 C666 0.961 . S
H654 C666 0.959 . S
H655 C669 0.929 . S
H656 C670 0.931 . S
H657 C672 0.930 . S
C658 H646 0.930 . S
C658 C659 1.399 . S
C658 C663 1.399 . S
C659 C658 1.399 . S
C659 C660 1.376 . S
C660 H647 0.930 . S
C660 C659 1.376 . S
C660 C661 1.388 . S
C661 H648 0.930 . S
C661 C660 1.388 . S
C661 C662 1.390 . S
C662 C661 1.390 . S
C662 C663 1.394 . S
C662 C668 1.465 . S
C663 C658 1.399 . S
C663 C662 1.394 . S
C663 C664 1.516 . S
C664 C663 1.516 . S
C664 C665 1.502 . S
C664 C666 1.561 . S
C664 C667 1.526 . S
C665 H649 0.959 . S
C665 H650 0.959 . S
C665 H651 0.961 . S
C665 C664 1.502 . S
C666 H652 0.960 . S
C666 H653 0.961 . S
C666 H654 0.959 . S
C666 C664 1.561 . S
C667 C664 1.526 . S
C667 C668 1.396 . S
C667 C672 1.390 . S
C668 C662 1.465 . S
C668 C667 1.396 . S
C668 C669 1.399 . S
C669 H655 0.929 . S
C669 C668 1.399 . S
C669 C670 1.385 . S
C670 H656 0.931 . S
C670 C669 1.385 . S
C670 C671 1.389 . S
C671 C670 1.389 . S
C671 C672 1.387 . S
C672 H657 0.930 . S
C672 C667 1.390 . S
C672 C671 1.387 . S
H673 C685 0.930 . S
H674 C687 0.930 . S
H675 C688 0.930 . S
H676 C692 0.959 . S
H677 C692 0.959 . S
H678 C692 0.961 . S
H679 C693 0.960 . S
H680 C693 0.961 . S
H681 C693 0.959 . S
H682 C696 0.929 . S
H683 C697 0.931 . S
H684 C699 0.930 . S
C685 H673 0.930 . S
C685 C686 1.399 . S
C685 C690 1.399 . S
C686 C685 1.399 . S
C686 C687 1.376 . S
C687 H674 0.930 . S
C687 C686 1.376 . S
C687 C688 1.388 . S
C688 H675 0.930 . S
C688 C687 1.388 . S
C688 C689 1.390 . S
C689 C688 1.390 . S
C689 C690 1.394 . S
C689 C695 1.465 . S
C690 C685 1.399 . S
C690 C689 1.394 . S
C690 C691 1.516 . S
C691 C690 1.516 . S
C691 C692 1.502 . S
C691 C693 1.561 . S
C691 C694 1.526 . S
C692 H676 0.959 . S
C692 H677 0.959 . S
C692 H678 0.961 . S
C692 C691 1.502 . S
C693 H679 0.960 . S
C693 H680 0.961 . S
C693 H681 0.959 . S
C693 C691 1.561 . S
C694 C691 1.526 . S
C694 C695 1.396 . S
C694 C699 1.390 . S
C695 C689 1.465 . S
C695 C694 1.396 . S
C695 C696 1.399 . S
C696 H682 0.929 . S
C696 C695 1.399 . S
C696 C697 1.385 . S
C697 H683 0.931 . S
C697 C696 1.385 . S
C697 C698 1.389 . S
C698 C697 1.389 . S
C698 C699 1.387 . S
C699 H684 0.930 . S
C699 C694 1.390 . S
C699 C698 1.387 . S
H700 C712 0.930 1_554 S
H701 C714 0.930 . S
H702 C715 0.930 . S
H703 C719 0.959 1_556 S
H704 C719 0.959 . S
H705 C719 0.961 . S
H706 C720 0.960 . S
H707 C720 0.961 . S
H708 C720 0.959 . S
H709 C723 0.929 . S
H710 C724 0.931 . S
H711 C726 0.930 . S
C712 H700 0.930 1_556 S
C712 C713 1.402 . S
C712 C717 1.399 1_655 S
C713 C712 1.402 . S
C713 C714 1.368 1_655 S
C714 H701 0.930 . S
C714 C713 1.368 1_455 S
C714 C715 1.388 . S
C715 H702 0.930 . S
C715 C714 1.388 . S
C715 C716 1.390 . S
C716 C715 1.390 . S
C716 C717 1.394 . S
C716 C722 1.465 . S
C717 C712 1.399 1_455 S
C717 C716 1.394 . S
C717 C718 1.516 1_455 S
C718 C717 1.516 1_655 S
C718 C719 1.500 1_556 S
C718 C720 1.562 1_656 S
C718 C721 1.526 1_655 S
C719 H703 0.959 1_554 S
C719 H704 0.959 . S
C719 H705 0.961 . S
C719 C718 1.500 1_554 S
C720 H706 0.960 . S
C720 H707 0.961 . S
C720 H708 0.959 . S
C720 C718 1.562 1_454 S
C721 C718 1.526 1_455 S
C721 C722 1.396 . S
C721 C726 1.390 . S
C722 C716 1.465 . S
C722 C721 1.396 . S
C722 C723 1.399 . S
C723 H709 0.929 . S
C723 C722 1.399 . S
C723 C724 1.385 . S
C724 H710 0.931 . S
C724 C723 1.385 . S
C724 C725 1.389 . S
C725 C724 1.389 . S
C725 C726 1.387 . S
C726 H711 0.930 . S
C726 C721 1.390 . S
C726 C725 1.387 . S
H727 C739 0.930 1_554 S
H728 C741 0.930 . S
H729 C742 0.930 . S
H730 C746 0.959 . S
H731 C746 0.959 1_554 S
H732 C746 0.961 1_554 S
H733 C747 0.960 . S
H734 C747 0.961 . S
H735 C747 0.959 . S
H736 C750 0.929 . S
H737 C751 0.931 . S
H738 C753 0.930 . S
C739 H727 0.930 1_556 S
C739 C740 1.399 . S
C739 C744 1.399 . S
C740 C739 1.399 . S
C740 C741 1.376 . S
C741 H728 0.930 . S
C741 C740 1.376 . S
C741 C742 1.388 . S
C742 H729 0.930 . S
C742 C741 1.388 . S
C742 C743 1.390 . S
C743 C742 1.390 . S
C743 C744 1.394 . S
C743 C749 1.465 . S
C744 C739 1.399 . S
C744 C743 1.394 . S
C744 C745 1.516 . S
C745 C744 1.516 . S
C745 C746 1.502 . S
C745 C747 1.561 1_556 S
C745 C748 1.526 . S
C746 H730 0.959 . S
C746 H731 0.959 1_556 S
C746 H732 0.961 1_556 S
C746 C745 1.502 . S
C747 H733 0.960 . S
C747 H734 0.961 . S
C747 H735 0.959 . S
C747 C745 1.561 1_554 S
C748 C745 1.526 . S
C748 C749 1.396 . S
C748 C753 1.390 . S
C749 C743 1.465 . S
C749 C748 1.396 . S
C749 C750 1.399 1_565 S
C750 H736 0.929 . S
C750 C749 1.399 1_545 S
C750 C751 1.385 . S
C751 H737 0.931 . S
C751 C750 1.385 . S
C751 C752 1.389 . S
C752 C751 1.389 . S
C752 C753 1.387 1_545 S
C753 H738 0.930 . S
C753 C748 1.390 . S
C753 C752 1.387 1_565 S
H754 C766 0.930 1_554 S
H755 C768 0.930 . S
H756 C769 0.930 . S
H757 C773 0.959 . S
H758 C773 0.959 . S
H759 C773 0.961 . S
H760 C774 0.960 . S
H761 C774 0.961 . S
H762 C774 0.959 . S
H763 C777 0.929 . S
H764 C778 0.931 . S
H765 C780 0.930 . S
C766 H754 0.930 1_556 S
C766 C767 1.399 . S
C766 C771 1.399 . S
C767 C766 1.399 . S
C767 C768 1.376 . S
C768 H755 0.930 . S
C768 C767 1.376 . S
C768 C769 1.388 . S
C769 H756 0.930 . S
C769 C768 1.388 . S
C769 C770 1.390 . S
C770 C769 1.390 . S
C770 C771 1.394 . S
C770 C776 1.465 . S
C771 C766 1.399 . S
C771 C770 1.394 . S
C771 C772 1.516 . S
C772 C771 1.516 . S
C772 C773 1.502 . S
C772 C774 1.561 1_556 S
C772 C775 1.526 . S
C773 H757 0.959 . S
C773 H758 0.959 . S
C773 H759 0.961 . S
C773 C772 1.502 . S
C774 H760 0.960 . S
C774 H761 0.961 . S
C774 H762 0.959 . S
C774 C772 1.561 1_554 S
C775 C772 1.526 . S
C775 C776 1.396 . S
C775 C780 1.390 . S
C776 C770 1.465 . S
C776 C775 1.396 . S
C776 C777 1.399 . S
C777 H763 0.929 . S
C777 C776 1.399 . S
C777 C778 1.385 . S
C778 H764 0.931 . S
C778 C777 1.385 . S
C778 C779 1.389 . S
C779 C778 1.389 . S
C779 C780 1.387 . S
C780 H765 0.930 . S
C780 C775 1.390 . S
C780 C779 1.387 . S
H781 C793 0.930 . S
H782 C795 0.930 . S
H783 C796 0.930 . S
H784 C800 0.959 . S
H785 C800 0.959 . S
H786 C800 0.961 . S
H787 C801 0.960 . S
H788 C801 0.961 . S
H789 C801 0.959 . S
H790 C804 0.929 1_554 S
H791 C805 0.931 . S
H792 C807 0.930 . S
C793 H781 0.930 . S
C793 C794 1.399 . S
C793 C798 1.399 . S
C794 C793 1.399 . S
C794 C795 1.376 1_556 S
C795 H782 0.930 . S
C795 C794 1.376 1_554 S
C795 C796 1.388 . S
C796 H783 0.930 . S
C796 C795 1.388 . S
C796 C797 1.390 1_554 S
C797 C796 1.390 1_556 S
C797 C798 1.394 . S
C797 C803 1.465 . S
C798 C793 1.399 . S
C798 C797 1.394 . S
C798 C799 1.516 . S
C799 C798 1.516 . S
C799 C800 1.502 . S
C799 C801 1.561 . S
C799 C802 1.526 . S
C800 H784 0.959 . S
C800 H785 0.959 . S
C800 H786 0.961 . S
C800 C799 1.502 . S
C801 H787 0.960 . S
C801 H788 0.961 . S
C801 H789 0.959 . S
C801 C799 1.561 . S
C802 C799 1.526 . S
C802 C803 1.396 . S
C802 C807 1.390 . S
C803 C797 1.465 . S
C803 C802 1.396 . S
C803 C804 1.399 . S
C804 H790 0.929 1_556 S
C804 C803 1.399 . S
C804 C805 1.385 . S
C805 H791 0.931 . S
C805 C804 1.385 . S
C805 C806 1.389 . S
C806 C805 1.389 . S
C806 C807 1.387 . S
C807 H792 0.930 . S
C807 C802 1.390 . S
C807 C806 1.387 . S
H808 C820 0.930 . S
H809 C822 0.930 . S
H810 C823 0.930 . S
H811 C827 0.959 . S
H812 C827 0.959 . S
H813 C827 0.961 . S
H814 C828 0.960 . S
H815 C828 0.961 1_455 S
H816 C828 0.959 . S
H817 C831 0.929 . S
H818 C832 0.936 . S
H819 C834 0.930 . S
C820 H808 0.930 . S
C820 C821 1.390 1_455 S
C820 C825 1.399 . S
C821 C820 1.390 1_655 S
C821 C822 1.389 . S
C822 H809 0.930 . S
C822 C821 1.389 . S
C822 C823 1.388 . S
C823 H810 0.930 . S
C823 C822 1.388 . S
C823 C824 1.390 . S
C824 C823 1.390 . S
C824 C825 1.394 1_655 S
C824 C830 1.464 1_655 S
C825 C820 1.399 . S
C825 C824 1.394 1_455 S
C825 C826 1.516 . S
C826 C825 1.516 . S
C826 C827 1.502 . S
C826 C828 1.561 1_455 S
C826 C829 1.526 . S
C827 H811 0.959 . S
C827 H812 0.959 . S
C827 H813 0.961 . S
C827 C826 1.502 . S
C828 H814 0.960 . S
C828 H815 0.961 1_655 S
C828 H816 0.959 . S
C828 C826 1.561 1_655 S
C829 C826 1.526 . S
C829 C830 1.402 . S
C829 C834 1.390 . S
C830 C824 1.464 1_455 S
C830 C829 1.402 . S
C830 C831 1.395 1_454 S
C831 H817 0.929 . S
C831 C830 1.395 1_656 S
C831 C832 1.389 . S
C832 H818 0.936 . S
C832 C831 1.389 . S
C832 C833 1.381 1_656 S
C833 C832 1.381 1_454 S
C833 C834 1.387 . S
C834 H819 0.930 . S
C834 C829 1.390 . S
C834 C833 1.387 . S
H835 C847 0.930 . S
H836 C849 0.930 . S
H837 C850 0.930 . S
H838 C854 0.959 . S
H839 C854 0.959 . S
H840 C854 0.961 . S
H841 C855 0.960 . S
H842 C855 0.961 . S
H843 C855 0.959 . S
H844 C858 0.929 . S
H845 C859 0.931 . S
H846 C861 0.930 . S
C847 H835 0.930 . S
C847 C848 1.399 . S
C847 C852 1.399 . S
C848 C847 1.399 . S
C848 C849 1.376 . S
C849 H836 0.930 . S
C849 C848 1.376 . S
C849 C850 1.388 . S
C850 H837 0.930 . S
C850 C849 1.388 . S
C850 C851 1.390 . S
C851 C850 1.390 . S
C851 C852 1.394 . S
C851 C857 1.465 . S
C852 C847 1.399 . S
C852 C851 1.394 . S
C852 C853 1.516 . S
C853 C852 1.516 . S
C853 C854 1.502 . S
C853 C855 1.561 . S
C853 C856 1.526 . S
C854 H838 0.959 . S
C854 H839 0.959 . S
C854 H840 0.961 . S
C854 C853 1.502 . S
C855 H841 0.960 . S
C855 H842 0.961 . S
C855 H843 0.959 . S
C855 C853 1.561 . S
C856 C853 1.526 . S
C856 C857 1.396 . S
C856 C861 1.390 . S
C857 C851 1.465 . S
C857 C856 1.396 . S
C857 C858 1.399 . S
C858 H844 0.929 . S
C858 C857 1.399 . S
C858 C859 1.385 . S
C859 H845 0.931 . S
C859 C858 1.385 . S
C859 C860 1.389 . S
C860 C859 1.389 . S
C860 C861 1.387 . S
C861 H846 0.930 . S
C861 C856 1.390 . S
C861 C860 1.387 . S
H862 C874 0.930 . S
H863 C876 0.930 . S
H864 C877 0.930 . S
H865 C881 0.959 1_556 S
H866 C881 0.959 1_556 S
H867 C881 0.961 . S
H868 C882 0.960 . S
H869 C882 0.961 . S
H870 C882 0.959 . S
H871 C885 0.929 . S
H872 C886 0.931 . S
H873 C888 0.930 . S
C874 H862 0.930 . S
C874 C875 1.399 . S
C874 C879 1.399 . S
C875 C874 1.399 . S
C875 C876 1.376 . S
C876 H863 0.930 . S
C876 C875 1.376 . S
C876 C877 1.388 . S
C877 H864 0.930 . S
C877 C876 1.388 . S
C877 C878 1.390 . S
C878 C877 1.390 . S
C878 C879 1.394 . S
C878 C884 1.465 . S
C879 C874 1.399 . S
C879 C878 1.394 . S
C879 C880 1.516 . S
C880 C879 1.516 . S
C880 C881 1.502 . S
C880 C882 1.561 . S
C880 C883 1.526 . S
C881 H865 0.959 1_554 S
C881 H866 0.959 1_554 S
C881 H867 0.961 . S
C881 C880 1.502 . S
C882 H868 0.960 . S
C882 H869 0.961 . S
C882 H870 0.959 . S
C882 C880 1.561 . S
C883 C880 1.526 . S
C883 C884 1.396 . S
C883 C888 1.390 1_554 S
C884 C878 1.465 . S
C884 C883 1.396 . S
C884 C885 1.399 . S
C885 H871 0.929 . S
C885 C884 1.399 . S
C885 C886 1.385 1_554 S
C886 H872 0.931 . S
C886 C885 1.385 1_556 S
C886 C887 1.389 . S
C887 C886 1.389 . S
C887 C888 1.387 . S
C888 H873 0.930 . S
C888 C883 1.390 1_556 S
C888 C887 1.387 . S
H889 C901 0.930 . S
H890 C903 0.930 . S
H891 C904 0.930 . S
H892 C908 0.959 . S
H893 C908 0.959 . S
H894 C908 0.961 . S
H895 C909 0.960 . S
H896 C909 0.961 1_556 S
H897 C909 0.959 . S
H898 C912 0.929 . S
H899 C913 0.932 . S
H900 C915 0.930 . S
C901 H889 0.930 . S
C901 C902 1.399 . S
C901 C906 1.399 . S
C902 C901 1.399 . S
C902 C903 1.376 . S
C903 H890 0.930 . S
C903 C902 1.376 . S
C903 C904 1.388 . S
C904 H891 0.930 . S
C904 C903 1.388 . S
C904 C905 1.390 . S
C905 C904 1.390 . S
C905 C906 1.394 . S
C905 C911 1.465 . S
C906 C901 1.399 . S
C906 C905 1.394 . S
C906 C907 1.516 . S
C907 C906 1.516 . S
C907 C908 1.502 1_554 S
C907 C909 1.561 . S
C907 C910 1.526 . S
C908 H892 0.959 . S
C908 H893 0.959 . S
C908 H894 0.961 . S
C908 C907 1.502 1_556 S
C909 H895 0.960 . S
C909 H896 0.961 1_554 S
C909 H897 0.959 . S
C909 C907 1.561 . S
C910 C907 1.526 . S
C910 C911 1.396 . S
C910 C915 1.390 1_554 S
C911 C905 1.465 . S
C911 C910 1.396 . S
C911 C912 1.399 . S
C912 H898 0.929 . S
C912 C911 1.399 . S
C912 C913 1.395 . S
C913 H899 0.932 . S
C913 C912 1.395 . S
C913 C914 1.379 1_554 S
C914 C913 1.379 1_556 S
C914 C915 1.387 . S
C915 H900 0.930 . S
C915 C910 1.390 1_556 S
C915 C914 1.387 . S
H916 C928 0.930 . S
H917 C930 0.930 . S
H918 C931 0.930 . S
H919 C935 0.959 . S
H920 C935 0.959 . S
H921 C935 0.961 . S
H922 C936 0.960 1_455 S
H923 C936 0.961 1_455 S
H924 C936 0.959 . S
H925 C939 0.929 . S
H926 C940 0.931 . S
H927 C942 0.910 1_455 S
C928 H916 0.930 . S
C928 C929 1.399 1_455 S
C928 C933 1.409 . S
C929 C928 1.399 1_655 S
C929 C930 1.376 . S
C930 H917 0.930 . S
C930 C929 1.376 . S
C930 C931 1.388 . S
C931 H918 0.930 . S
C931 C930 1.388 . S
C931 C932 1.390 . S
C932 C931 1.390 . S
C932 C933 1.363 1_655 S
C932 C938 1.465 . S
C933 C928 1.409 . S
C933 C932 1.363 1_455 S
C933 C934 1.534 . S
C934 C933 1.534 . S
C934 C935 1.502 . S
C934 C936 1.561 1_455 S
C934 C937 1.526 1_455 S
C935 H919 0.959 . S
C935 H920 0.959 . S
C935 H921 0.961 . S
C935 C934 1.502 . S
C936 H922 0.960 1_655 S
C936 H923 0.961 1_655 S
C936 H924 0.959 . S
C936 C934 1.561 1_655 S
C937 C934 1.526 1_655 S
C937 C938 1.396 . S
C937 C942 1.394 . S
C938 C932 1.465 . S
C938 C937 1.396 . S
C938 C939 1.399 . S
C939 H925 0.929 . S
C939 C938 1.399 . S
C939 C940 1.385 . S
C940 H926 0.931 . S
C940 C939 1.385 . S
C940 C941 1.389 . S
C941 C940 1.389 . S
C941 C942 1.403 . S
C942 H927 0.910 1_655 S
C942 C937 1.394 . S
C942 C941 1.403 . S
H943 C955 0.930 . S
H944 C957 0.930 . S
H945 C958 0.930 . S
H946 C962 0.959 . S
H947 C962 0.959 1_545 S
H948 C962 0.961 . S
H949 C963 0.960 . S
H950 C963 0.961 . S
H951 C963 0.959 . S
H952 C966 0.929 . S
H953 C967 0.931 . S
H954 C969 0.956 . S
C955 H943 0.930 . S
C955 C956 1.399 . S
C955 C960 1.399 . S
C956 C955 1.399 . S
C956 C957 1.376 . S
C957 H944 0.930 . S
C957 C956 1.376 . S
C957 C958 1.388 . S
C958 H945 0.930 . S
C958 C957 1.388 . S
C958 C959 1.390 . S
C959 C958 1.390 . S
C959 C960 1.394 . S
C959 C965 1.465 . S
C960 C955 1.399 . S
C960 C959 1.394 . S
C960 C961 1.516 . S
C961 C960 1.516 . S
C961 C962 1.502 . S
C961 C963 1.561 1_565 S
C961 C964 1.526 . S
C962 H946 0.959 . S
C962 H947 0.959 1_565 S
C962 H948 0.961 . S
C962 C961 1.502 . S
C963 H949 0.960 . S
C963 H950 0.961 . S
C963 H951 0.959 . S
C963 C961 1.561 1_545 S
C964 C961 1.526 . S
C964 C965 1.396 . S
C964 C969 1.390 . S
C965 C959 1.465 . S
C965 C964 1.396 . S
C965 C966 1.399 . S
C966 H952 0.929 . S
C966 C965 1.399 . S
C966 C967 1.385 . S
C967 H953 0.931 . S
C967 C966 1.385 . S
C967 C968 1.389 . S
C968 C967 1.389 . S
C968 C969 1.387 . S
C969 H954 0.956 . S
C969 C964 1.390 . S
C969 C968 1.387 . S
H970 C982 0.930 . S
H971 C984 0.930 . S
H972 C985 0.930 . S
H973 C989 0.959 . S
H974 C989 0.959 . S
H975 C989 0.961 . S
H976 C990 0.960 . S
H977 C990 0.961 . S
H978 C990 0.959 . S
H979 C993 0.929 . S
H980 C994 0.931 . S
H981 C996 0.930 . S
C982 H970 0.930 . S
C982 C983 1.399 . S
C982 C987 1.399 . S
C983 C982 1.399 . S
C983 C984 1.376 . S
C984 H971 0.930 . S
C984 C983 1.376 . S
C984 C985 1.388 . S
C985 H972 0.930 . S
C985 C984 1.388 . S
C985 C986 1.390 . S
C986 C985 1.390 . S
C986 C987 1.394 . S
C986 C992 1.465 . S
C987 C982 1.399 . S
C987 C986 1.394 . S
C987 C988 1.516 . S
C988 C987 1.516 . S
C988 C989 1.502 . S
C988 C990 1.561 . S
C988 C991 1.526 . S
C989 H973 0.959 . S
C989 H974 0.959 . S
C989 H975 0.961 . S
C989 C988 1.502 . S
C990 H976 0.960 . S
C990 H977 0.961 . S
C990 H978 0.959 . S
C990 C988 1.561 . S
C991 C988 1.526 . S
C991 C992 1.396 . S
C991 C996 1.390 . S
C992 C986 1.465 . S
C992 C991 1.396 . S
C992 C993 1.399 . S
C993 H979 0.929 . S
C993 C992 1.399 . S
C993 C994 1.385 . S
C994 H980 0.931 . S
C994 C993 1.385 . S
C994 C995 1.389 . S
C995 C994 1.389 . S
C995 C996 1.387 . S
C996 H981 0.930 . S
C996 C991 1.390 . S
C996 C995 1.387 . S
H997 C1009 0.930 . S
H998 C1011 0.930 . S
H999 C1012 0.930 . S
H1000 C1016 0.959 . S
H1001 C1016 0.959 . S
H1002 C1016 0.961 . S
H1003 C1017 0.960 . S
H1004 C1017 0.961 . S
H1005 C1017 0.959 . S
H1006 C1020 0.929 . S
H1007 C1021 0.931 . S
H1008 C1023 0.930 . S
C1009 H997 0.930 . S
C1009 C1010 1.399 . S
C1009 C1014 1.399 . S
C1010 C1009 1.399 . S
C1010 C1011 1.376 . S
C1011 H998 0.930 . S
C1011 C1010 1.376 . S
C1011 C1012 1.388 . S
C1012 H999 0.930 . S
C1012 C1011 1.388 . S
C1012 C1013 1.390 . S
C1013 C1012 1.390 . S
C1013 C1014 1.394 . S
C1013 C1019 1.465 . S
C1014 C1009 1.399 . S
C1014 C1013 1.394 . S
C1014 C1015 1.516 . S
C1015 C1014 1.516 . S
C1015 C1016 1.502 . S
C1015 C1017 1.561 . S
C1015 C1018 1.526 . S
C1016 H1000 0.959 . S
C1016 H1001 0.959 . S
C1016 H1002 0.961 . S
C1016 C1015 1.502 . S
C1017 H1003 0.960 . S
C1017 H1004 0.961 . S
C1017 H1005 0.959 . S
C1017 C1015 1.561 . S
C1018 C1015 1.526 . S
C1018 C1019 1.396 . S
C1018 C1023 1.390 . S
C1019 C1013 1.465 . S
C1019 C1018 1.396 . S
C1019 C1020 1.399 . S
C1020 H1006 0.929 . S
C1020 C1019 1.399 . S
C1020 C1021 1.385 . S
C1021 H1007 0.931 . S
C1021 C1020 1.385 . S
C1021 C1022 1.389 . S
C1022 C1021 1.389 . S
C1022 C1023 1.387 . S
C1023 H1008 0.930 . S
C1023 C1018 1.390 . S
C1023 C1022 1.387 . S
C389 C215 1.794 . S
C401 C266 1.754 . S
C428 C296 1.725 . S
C416 C247 1.674 . S
C455 N330 1.614 . S
C443 C151 1.688 . S
C482 N360 1.343 . S
C470 C183 1.323 1_655 S
C509 C257 1.759 1_565 S
C497 C87 1.716 . S
C524 C119 1.680 . S
C536 C287 1.715 . S
C551 C23 1.579 . S
C563 N322 1.668 . S
C578 C55 1.296 . S
C590 N352 1.249 . S
C617 C272 0.360 . S
C605 C189 0.300 . S
C644 C302 0.556 . S
C632 C221 0.651 . S
C671 C343 0.609 . S
C659 C253 0.650 . S
C686 C157 0.512 . S
C698 C373 0.691 . S
C713 C61 0.544 1_655 S
C725 C283 0.390 . S
C752 C313 0.643 . S
C740 C93 0.645 . S
C779 C332 0.666 . S
C767 C125 0.603 . S
C794 C29 0.633 1_556 S
C806 C362 0.675 . S
C821 C177 1.522 1_655 S
C833 N262 1.515 1_554 S
C848 C209 1.665 . S
C860 N292 1.636 1_554 S
C887 C317 1.766 . S
C875 C241 1.683 . S
C914 C347 1.968 . S
C902 C145 1.900 . S
C929 C49 1.539 1_655 S
C941 N270 1.556 . S
C968 N300 1.687 . S
C956 C81 1.580 . S
C995 C326 1.755 . S
C983 C113 1.748 . S
C1010 C17 1.788 . S
C1022 C356 1.964 . S
