# Generated by pormake.
# Topology llj, (12,3)-cn, num edge types: 1
# Building blocks:
#     Node 0, Type 0, BuildingBlock: QEWDON_clean_sbu_0, # of connection points: 12
#     Node 1, Type 0, BuildingBlock: QEWDON_clean_sbu_0, # of connection points: 12
#     Node 2, Type 1, BuildingBlock: BETDIP_clean_linker_0, # of connection points: 3
#     Node 3, Type 1, BuildingBlock: BETDIP_clean_linker_0, # of connection points: 3
#     Node 4, Type 1, BuildingBlock: BETDIP_clean_linker_0, # of connection points: 3
#     Node 5, Type 1, BuildingBlock: BETDIP_clean_linker_0, # of connection points: 3
#     Node 6, Type 1, BuildingBlock: BETDIP_clean_linker_0, # of connection points: 3
#     Node 7, Type 1, BuildingBlock: BETDIP_clean_linker_0, # of connection points: 3
#     Node 8, Type 1, BuildingBlock: BETDIP_clean_linker_0, # of connection points: 3
#     Node 9, Type 1, BuildingBlock: BETDIP_clean_linker_0, # of connection points: 3
#     Edge 10, Type (0, 1), BuildingBlock: ZUJKAS_clean_linker_0, # of connection points: 2
#     Edge 11, Type (0, 1), BuildingBlock: ZUJKAS_clean_linker_0, # of connection points: 2
#     Edge 12, Type (0, 1), BuildingBlock: ZUJKAS_clean_linker_0, # of connection points: 2
#     Edge 13, Type (0, 1), BuildingBlock: ZUJKAS_clean_linker_0, # of connection points: 2
#     Edge 14, Type (0, 1), BuildingBlock: ZUJKAS_clean_linker_0, # of connection points: 2
#     Edge 15, Type (0, 1), BuildingBlock: ZUJKAS_clean_linker_0, # of connection points: 2
#     Edge 16, Type (0, 1), BuildingBlock: ZUJKAS_clean_linker_0, # of connection points: 2
#     Edge 17, Type (0, 1), BuildingBlock: ZUJKAS_clean_linker_0, # of connection points: 2
#     Edge 18, Type (0, 1), BuildingBlock: ZUJKAS_clean_linker_0, # of connection points: 2
#     Edge 19, Type (0, 1), BuildingBlock: ZUJKAS_clean_linker_0, # of connection points: 2
#     Edge 20, Type (0, 1), BuildingBlock: ZUJKAS_clean_linker_0, # of connection points: 2
#     Edge 21, Type (0, 1), BuildingBlock: ZUJKAS_clean_linker_0, # of connection points: 2
#     Edge 22, Type (0, 1), BuildingBlock: ZUJKAS_clean_linker_0, # of connection points: 2
#     Edge 23, Type (0, 1), BuildingBlock: ZUJKAS_clean_linker_0, # of connection points: 2
#     Edge 24, Type (0, 1), BuildingBlock: ZUJKAS_clean_linker_0, # of connection points: 2
#     Edge 25, Type (0, 1), BuildingBlock: ZUJKAS_clean_linker_0, # of connection points: 2
#     Edge 26, Type (0, 1), BuildingBlock: ZUJKAS_clean_linker_0, # of connection points: 2
#     Edge 27, Type (0, 1), BuildingBlock: ZUJKAS_clean_linker_0, # of connection points: 2
#     Edge 28, Type (0, 1), BuildingBlock: ZUJKAS_clean_linker_0, # of connection points: 2
#     Edge 29, Type (0, 1), BuildingBlock: ZUJKAS_clean_linker_0, # of connection points: 2
#     Edge 30, Type (0, 1), BuildingBlock: ZUJKAS_clean_linker_0, # of connection points: 2
#     Edge 31, Type (0, 1), BuildingBlock: ZUJKAS_clean_linker_0, # of connection points: 2
#     Edge 32, Type (0, 1), BuildingBlock: ZUJKAS_clean_linker_0, # of connection points: 2
#     Edge 33, Type (0, 1), BuildingBlock: ZUJKAS_clean_linker_0, # of connection points: 2
# Relax obj value: 0.010
# Max RMSD: 0.108
# Mean RMSD: 0.092
data_MOF--net-llj--node1-QEWDON_clean_sbu_0--node2-BETDIP_clean_linker_0--edge1-ZUJKAS_clean_linker_0
_symmetry_space_group_name_H-M    P1
_symmetry_Int_Tables_number       1
_symmetry_cell_setting            triclinic
loop_
_symmetry_equiv_pos_as_xyz
'x, y, z'
_cell_length_a     49.909344
_cell_length_b     49.908609
_cell_length_c     31.319433
_cell_angle_alpha  90.368732
_cell_angle_beta   91.012076
_cell_angle_gamma 90.087131
loop_
_atom_site_label
_atom_site_type_symbol
_atom_site_fract_x
_atom_site_fract_y
_atom_site_fract_z
_atom_type_partial_charge
Zn0 Zn 0.93903 0.05918 0.95771 0.0
Zn1 Zn 0.94667 0.05007 0.05872 0.0
O2 O 0.96564 0.04782 0.00344 0.0
H3 H 0.98376 0.04182 -0.00125 0.0
C4 C 0.9187 0.00769 0.92094 0.0
O5 O 0.90606 0.00845 0.95738 0.0
Zn6 Zn 0.04733 0.94214 0.06318 0.0
Zn7 Zn 0.05319 0.94496 0.96412 0.0
O8 O 0.02504 0.94171 0.00979 0.0
H9 H 0.00767 0.93345 0.00557 0.0
Zn10 Zn 0.94721 0.96482 0.96448 0.0
O11 O 0.96323 0.98061 0.01841 0.0
Zn12 Zn 0.9554 0.95488 0.06488 0.0
H13 H 0.97767 0.99347 0.01933 0.0
Zn14 Zn 0.05113 0.03406 0.96049 0.0
O15 O 0.03729 0.01472 0.01215 0.0
H16 H 0.02596 -0.00097 0.01107 0.0
Zn17 Zn 0.04242 0.03967 0.06145 0.0
C18 C 0.08238 0.99253 0.92138 0.0
O19 O 0.09161 0.99138 0.96088 0.0
O20 O 0.90425 0.07507 0.98118 0.0
O21 O 0.91012 0.06804 0.05076 0.0
O22 O 0.08881 0.92682 0.98138 0.0
O23 O 0.08302 0.92389 0.05139 0.0
O24 O 0.9246 0.93096 0.97316 0.0
O25 O 0.93201 0.92395 0.04253 0.0
C26 C 0.99466 0.06902 0.10189 0.0
O27 O 0.07294 0.06818 0.97495 0.0
O28 O 0.06681 0.07085 0.04501 0.0
O29 O 0.03862 0.93808 0.90304 0.0
C30 C 0.89609 0.07685 0.01941 0.0
O31 O 0.95508 0.07628 0.90418 0.0
C32 C 0.00232 0.92599 0.11072 0.0
O33 O 0.93721 0.99063 0.91582 0.0
C34 C 0.09694 0.91949 0.01828 0.0
O35 O 0.06448 0.00969 0.91198 0.0
C36 C 0.93399 -0.00025 0.11191 0.0
O37 O 0.96937 0.07174 0.10035 0.0
O38 O 0.00526 0.05279 0.07561 0.0
C39 C 0.92123 0.9172 0.00676 0.0
O40 O 0.02749 0.92252 0.10943 0.0
O41 O 0.99175 0.94133 0.08294 0.0
C42 C 0.06065 0.99421 0.11223 0.0
O43 O 0.93682 0.97444 0.11322 0.0
O44 O 0.94326 0.01203 0.07988 0.0
C45 C 0.07711 0.07975 0.01085 0.0
O46 O 0.05892 0.01961 0.1117 0.0
O47 O 0.05193 0.9812 0.07975 0.0
C48 C 0.01751 0.95028 0.89104 0.0
O49 O 0.0067 0.96784 0.91698 0.0
C50 C 0.97488 0.09191 0.91029 0.0
O51 O 0.9835 0.09647 0.94957 0.0
Zn52 Zn 0.46461 0.54606 0.45718 0.0
Zn53 Zn 0.45802 0.54497 0.55862 0.0
O54 O 0.48393 0.53742 0.51261 0.0
H55 H 0.49751 0.52371 0.51459 0.0
C56 C 0.45005 0.48069 0.37944 0.0
O57 O 0.47106 0.48859 0.40209 0.0
Zn58 Zn 0.54164 0.45482 0.55884 0.0
Zn59 Zn 0.54085 0.45453 0.45652 0.0
O60 O 0.51786 0.46163 0.50827 0.0
H61 H 0.50244 0.47328 0.50811 0.0
Zn62 Zn 0.44516 0.44587 0.45214 0.0
O63 O 0.44683 0.47328 0.49997 0.0
Zn64 Zn 0.44497 0.45161 0.55297 0.0
H65 H 0.45305 0.49149 0.49703 0.0
Zn66 Zn 0.5599 0.55247 0.46133 0.0
O67 O 0.55187 0.52686 0.50892 0.0
H68 H 0.54335 0.50965 0.50473 0.0
Zn69 Zn 0.55377 0.54831 0.56243 0.0
C70 C 0.57506 0.51065 0.4043 0.0
O71 O 0.5783 0.49925 0.44172 0.0
O72 O 0.43033 0.56827 0.46534 0.0
O73 O 0.42779 0.56878 0.53619 0.0
O74 O 0.57489 0.4326 0.47035 0.0
O75 O 0.5733 0.43193 0.54125 0.0
O76 O 0.42651 0.41087 0.46936 0.0
O77 O 0.42598 0.41624 0.53989 0.0
C78 C 0.50264 0.56451 0.61019 0.0
O79 O 0.57936 0.58679 0.48169 0.0
O80 O 0.57369 0.58348 0.55184 0.0
O81 O 0.51995 0.44438 0.40123 0.0
C82 C 0.41896 0.57585 0.49946 0.0
O83 O 0.48919 0.55727 0.40819 0.0
C84 C 0.49548 0.43464 0.60396 0.0
O85 O 0.43573 0.46168 0.39322 0.0
C86 C 0.58437 0.42515 0.50639 0.0
O87 O 0.56766 0.53497 0.4028 0.0
C88 C 0.42798 0.49777 0.59979 0.0
O89 O 0.4772 0.56304 0.60904 0.0
O90 O 0.51532 0.55425 0.57925 0.0
C91 C 0.42024 0.40263 0.5063 0.0
O92 O 0.52092 0.4359 0.60509 0.0
O93 O 0.48322 0.44576 0.57284 0.0
C94 C 0.56982 0.50126 0.60768 0.0
O95 O 0.42463 0.47257 0.59741 0.0
O96 O 0.44396 0.50845 0.57371 0.0
C97 C 0.58261 0.59597 0.51954 0.0
O98 O 0.5731 0.52651 0.60779 0.0
O99 O 0.5546 0.49119 0.57876 0.0
C100 C 0.50098 0.42772 0.40586 0.0
O101 O 0.49629 0.4185 0.44423 0.0
C102 C 0.50746 0.5742 0.41733 0.0
O103 O 0.50961 0.58338 0.45667 0.0
H104 H 0.32817 0.29696 0.93075 0.0
H105 H 0.32895 0.30224 0.06804 0.0
H106 H 0.39108 0.34002 -0.00278 0.0
H107 H 0.28597 0.29239 0.06169 0.0
C108 C 0.28342 0.28019 0.0331 0.0
C109 C 0.33738 0.30417 0.96025 0.0
C110 C 0.36142 0.31881 0.95929 0.0
C111 C 0.32513 0.29851 -0.00087 0.0
C112 C 0.3374 0.30734 0.0376 0.0
C113 C 0.36135 0.32214 0.03711 0.0
C114 C 0.37307 0.32787 -0.00216 0.0
N115 N 0.30106 0.28316 -0.00174 0.0
H116 H 0.68429 0.3178 0.94539 0.0
H117 H 0.66859 0.32191 0.08025 0.0
H118 H 0.64444 0.38628 -0.00133 0.0
H119 H 0.68979 0.28475 0.08585 0.0
C120 C 0.6966 0.27724 0.05541 0.0
C121 C 0.67614 0.32828 0.97266 0.0
C122 C 0.66422 0.3535 0.96723 0.0
C123 C 0.67823 0.31667 0.01327 0.0
C124 C 0.66771 0.33043 0.04869 0.0
C125 C 0.65534 0.35547 0.04347 0.0
C126 C 0.65381 0.36686 0.00276 0.0
N127 N 0.69135 0.29145 0.01691 0.0
H128 H 0.6751 0.69968 0.08281 0.0
H129 H 0.67193 0.69646 0.94581 0.0
H130 H 0.61191 0.65588 0.01828 0.0
H131 H 0.72039 0.69656 0.96111 0.0
C132 C 0.72006 0.71351 0.98305 0.0
C133 C 0.6654 0.69258 0.05362 0.0
C134 C 0.64214 0.67687 0.05542 0.0
C135 C 0.67654 0.6991 0.01439 0.0
C136 C 0.66386 0.69058 0.97624 0.0
C137 C 0.64006 0.67552 0.97742 0.0
C138 C 0.62958 0.66848 0.01716 0.0
N139 N 0.69994 0.7152 0.01437 0.0
H140 H 0.30611 0.67123 0.93899 0.0
H141 H 0.32498 0.67016 0.07375 0.0
H142 H 0.35035 0.60555 0.99303 0.0
H143 H 0.29433 0.70169 0.07883 0.0
C144 C 0.29112 0.71102 0.04799 0.0
C145 C 0.31516 0.66143 0.96645 0.0
C146 C 0.32829 0.63687 0.96134 0.0
C147 C 0.31317 0.67334 0.0069 0.0
C148 C 0.32529 0.66082 0.04254 0.0
C149 C 0.33898 0.63643 0.0376 0.0
C150 C 0.33999 0.62446 -0.00297 0.0
N151 N 0.2993 0.6981 0.00984 0.0
H152 H 0.82428 0.81005 0.4453 0.0
H153 H 0.82961 0.8213 0.58179 0.0
H154 H 0.89436 0.84613 0.50318 0.0
H155 H 0.78742 0.81004 0.58211 0.0
C156 C 0.78196 0.79973 0.55264 0.0
C157 C 0.83521 0.817 0.47347 0.0
C158 C 0.86092 0.82802 0.46949 0.0
C159 C 0.82354 0.81452 0.51366 0.0
C160 C 0.83785 0.8234 0.55033 0.0
C161 C 0.86352 0.83462 0.54666 0.0
C162 C 0.87487 0.83676 0.50623 0.0
N163 N 0.79787 0.80221 0.51565 0.0
H164 H 0.20498 0.82589 0.57826 0.0
H165 H 0.20049 0.83299 0.44161 0.0
H166 H 0.15765 0.88828 0.5205 0.0
H167 H 0.217 0.7925 0.44016 0.0
C168 C 0.22645 0.7879 0.47067 0.0
C169 C 0.19719 0.83594 0.55009 0.0
C170 C 0.18082 0.85858 0.55433 0.0
C171 C 0.20395 0.82613 0.50975 0.0
C172 C 0.1946 0.83954 0.473 0.0
C173 C 0.17803 0.86218 0.47663 0.0
C174 C 0.17113 0.87139 0.51743 0.0
N175 N 0.22061 0.8031 0.50788 0.0
H176 H 0.1483 0.20873 0.58206 0.0
H177 H 0.15531 0.20566 0.44536 0.0
H178 H 0.08855 0.16801 0.50502 0.0
H179 H 0.18411 0.23808 0.4542 0.0
C180 C 0.19298 0.2365 0.48594 0.0
C181 C 0.14036 0.20271 0.551 0.0
C182 C 0.11666 0.1876 0.54793 0.0
C183 C 0.15439 0.20962 0.51434 0.0
C184 C 0.14457 0.2011 0.47406 0.0
C185 C 0.12067 0.18634 0.47047 0.0
C186 C 0.10685 0.17969 0.50754 0.0
N187 N 0.17872 0.22421 0.51948 0.0
H188 H 0.8086 0.17488 0.43824 0.0
H189 H 0.81912 0.18592 0.5738 0.0
H190 H 0.8546 0.11819 0.51197 0.0
H191 H 0.78149 0.20789 0.5689 0.0
C192 C 0.78042 0.21706 0.53761 0.0
C193 C 0.81697 0.16829 0.46856 0.0
C194 C 0.83266 0.14496 0.47052 0.0
C195 C 0.81113 0.1827 0.50576 0.0
C196 C 0.82214 0.17427 0.54509 0.0
C197 C 0.83765 0.1509 0.5477 0.0
C198 C 0.84277 0.13635 0.51024 0.0
N199 N 0.79396 0.20536 0.50256 0.0
H200 H 0.09047 0.11026 0.08124 0.0
H201 H 0.1228 0.14711 0.08571 0.0
H202 H 0.13791 0.13869 0.95114 0.0
H203 H 0.10537 0.10225 0.94609 0.0
H204 H 0.17631 0.14432 0.06845 0.0
H205 H 0.12728 0.21888 0.96273 0.0
H206 H 0.10972 0.19013 0.98304 0.0
H207 H 0.13108 0.18673 0.93764 0.0
C208 C 0.10041 0.11645 0.05244 0.0
C209 C 0.0953 0.10326 0.01327 0.0
C210 C 0.1189 0.13751 0.0551 0.0
C211 C 0.1325 0.14589 0.01866 0.0
C212 C 0.12721 0.13299 0.97947 0.0
H213 H 0.26721 0.24842 0.96531 0.0
H214 H 0.23002 0.21632 0.96331 0.0
C215 C 0.10869 0.11201 0.97672 0.0
C216 C 0.15351 0.16688 0.02208 0.0
H217 H 0.17338 0.22677 0.98084 0.0
C218 C 0.17553 0.16249 0.04966 0.0
C219 C 0.15248 0.19054 -0.00257 0.0
C220 C 0.12874 0.19702 0.96886 0.0
C221 C 0.19691 0.18076 0.05238 0.0
C222 C 0.19607 0.20415 0.02718 0.0
C223 C 0.17396 0.20873 -4e-05 0.0
C224 C 0.21818 0.22395 0.02837 0.0
C225 C 0.22058 0.17458 0.08129 0.0
C226 C 0.22355 0.23906 0.06546 0.0
C227 C 0.24471 0.25745 0.06666 0.0
C228 C 0.26082 0.26101 0.03082 0.0
C229 C 0.25521 0.24606 0.99351 0.0
C230 C 0.23396 0.22776 0.99227 0.0
H231 H 0.22058 0.15338 0.09188 0.0
H232 H 0.23968 0.17873 0.06491 0.0
H233 H 0.21984 0.18761 0.11009 0.0
H234 H 0.21137 0.23663 0.09346 0.0
H235 H 0.24858 0.2688 0.09573 0.0
H236 H 0.86226 0.10007 0.96101 0.0
H237 H 0.82399 0.12888 0.97513 0.0
H238 H 0.83382 0.1151 0.11031 0.0
H239 H 0.87263 0.08656 0.09666 0.0
H240 H 0.77545 0.12151 0.01668 0.0
H241 H 0.84038 0.1966 0.10071 0.0
H242 H 0.85398 0.16932 0.06992 0.0
H243 H 0.84107 0.16332 0.12219 0.0
C244 C 0.85622 0.10293 0.99378 0.0
C245 C 0.87082 0.09135 0.02775 0.0
C246 C 0.83426 0.11936 0.00176 0.0
C247 C 0.82643 0.12454 0.04378 0.0
C248 C 0.83993 0.11181 0.07768 0.0
H249 H 0.71385 0.24897 0.1241 0.0
H250 H 0.74292 0.20936 0.12495 0.0
C251 C 0.86202 0.0954 0.06978 0.0
C252 C 0.80515 0.14452 0.05167 0.0
H253 H 0.79482 0.20726 0.09216 0.0
C254 C 0.77958 0.14016 0.03354 0.0
C255 C 0.81064 0.16883 0.07367 0.0
C256 C 0.83803 0.17502 0.09251 0.0
C257 C 0.75947 0.15971 0.03609 0.0
C258 C 0.76528 0.18435 0.0568 0.0
C259 C 0.7905 0.18832 0.0763 0.0
C260 C 0.74615 0.20699 0.05624 0.0
C261 C 0.73228 0.15394 0.01634 0.0
C262 C 0.7385 0.21879 0.01735 0.0
C263 C 0.72205 0.24141 0.01679 0.0
C264 C 0.71306 0.25264 0.05521 0.0
C265 C 0.72048 0.24063 0.09407 0.0
C266 C 0.73703 0.21806 0.09461 0.0
H267 H 0.72863 0.13205 0.01301 0.0
H268 H 0.71608 0.16285 0.03569 0.0
H269 H 0.73118 0.16283 0.98397 0.0
H270 H 0.7458 0.21089 0.98744 0.0
H271 H 0.71671 0.25024 0.98632 0.0
H272 H 0.92163 0.87381 0.05974 0.0
H273 H 0.89258 0.83426 0.05521 0.0
H274 H 0.85156 0.86806 0.94569 0.0
H275 H 0.8814 0.90671 0.94863 0.0
H276 H 0.84237 0.82884 0.06481 0.0
H277 H 0.86261 0.79505 0.90082 0.0
H278 H 0.88272 0.82044 0.92726 0.0
H279 H 0.85189 0.82925 0.89983 0.0
C280 C 0.90661 0.87258 0.03439 0.0
C281 C 0.90394 0.8932 0.00427 0.0
C282 C 0.89004 0.84998 0.03181 0.0
C283 C 0.87027 0.84779 -0.00058 0.0
C284 C 0.86731 0.86868 0.9699 0.0
H285 H 0.72115 0.76417 0.01589 0.0
H286 H 0.75935 0.79468 0.0205 0.0
C287 C 0.88422 0.89094 0.97188 0.0
C288 C 0.85151 0.82465 -0.00193 0.0
H289 H 0.82022 0.78069 0.92972 0.0
C290 C 0.83788 0.81803 0.03539 0.0
C291 C 0.84604 0.80994 0.96006 0.0
C292 C 0.86187 0.81386 0.91995 0.0
C293 C 0.81803 0.79811 0.03525 0.0
C294 C 0.81072 0.7853 0.99625 0.0
C295 C 0.82533 0.7909 0.95945 0.0
C296 C 0.78745 0.7668 0.99261 0.0
C297 C 0.80531 0.79099 0.07706 0.0
C298 C 0.79005 0.74149 0.97317 0.0
C299 C 0.76793 0.72434 0.96923 0.0
C300 C 0.74303 0.73209 0.98526 0.0
C301 C 0.7403 0.75753 0.00401 0.0
C302 C 0.7622 0.77487 0.00704 0.0
H303 H 0.8194 0.79458 0.10436 0.0
H304 H 0.78755 0.80393 0.08198 0.0
H305 H 0.79885 0.7697 0.07757 0.0
H306 H 0.80923 0.73491 0.96135 0.0
H307 H 0.77042 0.70482 0.95451 0.0
H308 H 0.13144 0.90519 0.95504 0.0
H309 H 0.16896 0.87394 0.96039 0.0
H310 H 0.15606 0.86585 0.09546 0.0
H311 H 0.11876 0.89742 0.09074 0.0
H312 H 0.21116 0.86813 0.07253 0.0
H313 H 0.15295 0.79359 0.97609 0.0
H314 H 0.15718 0.82561 0.9512 0.0
H315 H 0.13781 0.82309 -0.00116 0.0
C316 C 0.13678 0.89709 0.98604 0.0
C317 C 0.12182 0.90351 0.02236 0.0
C318 C 0.15817 0.87915 0.98897 0.0
C319 C 0.16486 0.8672 0.02814 0.0
C320 C 0.15105 0.87475 0.06489 0.0
H321 H 0.26732 0.73721 0.11337 0.0
H322 H 0.23843 0.77686 0.10921 0.0
C323 C 0.1297 0.89275 0.06206 0.0
C324 C 0.18502 0.84554 0.03034 0.0
H325 H 0.19718 0.78184 0.99571 0.0
C326 C 0.2082 0.84925 0.05573 0.0
C327 C 0.18092 0.82092 0.00855 0.0
C328 C 0.15578 0.81535 0.98241 0.0
C329 C 0.22765 0.82904 0.0594 0.0
C330 C 0.22349 0.80442 0.03763 0.0
C331 C 0.20034 0.8008 0.01219 0.0
C332 C 0.24261 0.78186 0.04103 0.0
C333 C 0.25262 0.83432 0.08598 0.0
C334 C 0.25425 0.7714 0.00407 0.0
C335 C 0.27049 0.7487 0.00632 0.0
C336 C 0.27526 0.73597 0.04564 0.0
C337 C 0.264 0.74673 0.08274 0.0
C338 C 0.24769 0.76945 0.08044 0.0
H339 H 0.25606 0.85611 0.09109 0.0
H340 H 0.25044 0.82489 0.11772 0.0
H341 H 0.27052 0.82556 0.07066 0.0
H342 H 0.25045 0.78062 0.97333 0.0
H343 H 0.27895 0.74096 0.97713 0.0
H344 H 0.60848 0.62549 0.45962 0.0
H345 H 0.63794 0.66394 0.47171 0.0
H346 H 0.62146 0.66192 0.60638 0.0
H347 H 0.59236 0.62296 0.59486 0.0
H348 H 0.62989 0.71435 0.50613 0.0
H349 H 0.7028 0.65624 0.60485 0.0
H350 H 0.67627 0.64036 0.57407 0.0
H351 H 0.66909 0.6566 0.62396 0.0
C352 C 0.61098 0.63324 0.49184 0.0
C353 C 0.59836 0.62086 0.52636 0.0
C354 C 0.6278 0.65528 0.49865 0.0
C355 C 0.6323 0.66544 0.54003 0.0
C356 C 0.61876 0.65398 0.57433 0.0
H357 H 0.75074 0.78687 0.61953 0.0
H358 H 0.71192 0.75655 0.61949 0.0
C359 C 0.60203 0.63179 0.56761 0.0
C360 C 0.65195 0.68739 0.547 0.0
H361 H 0.71285 0.70165 0.59323 0.0
C362 C 0.64794 0.71166 0.52542 0.0
C363 C 0.67548 0.68381 0.57224 0.0
C364 C 0.68139 0.6578 0.59486 0.0
C365 C 0.66705 0.73229 0.52779 0.0
C366 C 0.69088 0.72839 0.55199 0.0
C367 C 0.6945 0.70452 0.57476 0.0
C368 C 0.71314 0.74798 0.55175 0.0
C369 C 0.66171 0.75803 0.50414 0.0
C370 C 0.72669 0.75301 0.51375 0.0
C371 C 0.74886 0.77011 0.51375 0.0
C372 C 0.75787 0.78245 0.55183 0.0
C373 C 0.74411 0.77764 0.58976 0.0
C374 C 0.722 0.76038 0.58979 0.0
H375 H 0.63999 0.76079 0.49714 0.0
H376 H 0.66922 0.77559 0.52276 0.0
H377 H 0.6723 0.75748 0.47329 0.0
H378 H 0.72047 0.74322 0.48423 0.0
H379 H 0.75905 0.77337 0.48399 0.0
H380 H 0.39217 0.60006 0.56486 0.0
H381 H 0.35693 0.63383 0.55916 0.0
H382 H 0.35816 0.6274 0.42181 0.0
H383 H 0.39374 0.59402 0.42703 0.0
H384 H 0.36195 0.67917 0.45024 0.0
H385 H 0.2777 0.62758 0.52877 0.0
H386 H 0.30793 0.62863 0.56065 0.0
H387 H 0.30719 0.61004 0.51126 0.0
C388 C 0.38474 0.60557 0.53342 0.0
C389 C 0.39589 0.5944 0.49638 0.0
C390 C 0.36446 0.62476 0.53025 0.0
C391 C 0.35473 0.63289 0.49007 0.0
C392 C 0.36535 0.62132 0.45312 0.0
H393 H 0.24297 0.75646 0.40539 0.0
H394 H 0.27382 0.71826 0.40896 0.0
C395 C 0.38568 0.60223 0.45621 0.0
C396 C 0.33492 0.65484 0.48637 0.0
H397 H 0.27234 0.67434 0.51586 0.0
C398 C 0.34226 0.67802 0.46425 0.0
C399 C 0.30931 0.65329 0.50484 0.0
C400 C 0.29991 0.62845 0.52738 0.0
C401 C 0.32487 0.69996 0.46081 0.0
C402 C 0.29938 0.6985 0.47958 0.0
C403 C 0.29195 0.67531 0.50155 0.0
C404 C 0.28034 0.72111 0.47733 0.0
C405 C 0.33411 0.7248 0.43807 0.0
C406 C 0.27354 0.73495 0.51467 0.0
C407 C 0.25603 0.75672 0.51271 0.0
C408 C 0.24487 0.76481 0.47332 0.0
C409 C 0.25141 0.75066 0.43607 0.0
C410 C 0.26903 0.72895 0.43805 0.0
H411 H 0.3561 0.72476 0.43316 0.0
H412 H 0.32398 0.72585 0.4063 0.0
H413 H 0.32874 0.7431 0.45635 0.0
H414 H 0.28206 0.7291 0.54528 0.0
H415 H 0.2513 0.76715 0.54204 0.0
H416 H 0.40356 0.37822 0.57934 0.0
H417 H 0.37081 0.34196 0.5847 0.0
H418 H 0.36607 0.33623 0.44727 0.0
H419 H 0.39912 0.37185 0.44155 0.0
H420 H 0.32042 0.34656 0.55534 0.0
H421 H 0.3662 0.25831 0.4786 0.0
H422 H 0.38568 0.28712 0.49555 0.0
H423 H 0.368 0.28711 0.44488 0.0
C424 C 0.39601 0.36881 0.55026 0.0
C425 C 0.40378 0.37811 0.50998 0.0
C426 C 0.37732 0.34808 0.55341 0.0
C427 C 0.36618 0.33621 0.51642 0.0
C428 C 0.37485 0.34461 0.47627 0.0
H429 H 0.22448 0.26024 0.42801 0.0
H430 H 0.26807 0.28183 0.44035 0.0
C431 C 0.39362 0.36521 0.47307 0.0
C432 C 0.34303 0.31776 0.51928 0.0
H433 H 0.31757 0.259 0.47954 0.0
C434 C 0.31998 0.32713 0.53964 0.0
C435 C 0.34249 0.29244 0.49872 0.0
C436 C 0.36704 0.28056 0.47861 0.0
C437 C 0.29593 0.31259 0.53777 0.0
C438 C 0.29505 0.28798 0.51527 0.0
C439 C 0.31836 0.278 0.49654 0.0
C440 C 0.26958 0.27346 0.50804 0.0
C441 C 0.27127 0.3243 0.55789 0.0
C442 C 0.25627 0.26141 0.54201 0.0
C443 C 0.23139 0.2491 0.53504 0.0
C444 C 0.21954 0.24873 0.49397 0.0
C445 C 0.23317 0.26038 0.45995 0.0
C446 C 0.25805 0.27258 0.46691 0.0
H447 H 0.27446 0.3453 0.56884 0.0
H448 H 0.25409 0.32381 0.53488 0.0
H449 H 0.26578 0.31209 0.58591 0.0
H450 H 0.26503 0.26175 0.5739 0.0
H451 H 0.22139 0.24015 0.56186 0.0
H452 H 0.60838 0.4031 0.57697 0.0
H453 H 0.64442 0.37009 0.57895 0.0
H454 H 0.64938 0.37283 0.44175 0.0
H455 H 0.61334 0.40598 0.43924 0.0
H456 H 0.64022 0.31925 0.53448 0.0
H457 H 0.7287 0.37896 0.48563 0.0
H458 H 0.69887 0.39426 0.50666 0.0
H459 H 0.69893 0.38189 0.45275 0.0
C460 C 0.61731 0.39698 0.54718 0.0
C461 C 0.60784 0.40708 0.50789 0.0
C462 C 0.63791 0.37812 0.54844 0.0
C463 C 0.64961 0.36921 0.51055 0.0
C464 C 0.64082 0.37977 0.47137 0.0
H465 H 0.76759 0.24397 0.46349 0.0
H466 H 0.73577 0.28108 0.4554 0.0
C467 C 0.62013 0.3986 0.47002 0.0
C468 C 0.66947 0.34732 0.51195 0.0
H469 H 0.73508 0.33234 0.49443 0.0
C470 C 0.66098 0.32209 0.5258 0.0
C471 C 0.69638 0.35112 0.5001 0.0
C472 C 0.70646 0.37804 0.48569 0.0
C473 C 0.67876 0.30044 0.52823 0.0
C474 C 0.70587 0.30436 0.51742 0.0
C475 C 0.71428 0.32949 0.50282 0.0
C476 C 0.72587 0.28273 0.52236 0.0
C477 C 0.66826 0.27349 0.54185 0.0
C478 C 0.73119 0.27184 0.56279 0.0
C479 C 0.74917 0.25066 0.56745 0.0
C480 C 0.76234 0.24018 0.53184 0.0
C481 C 0.75762 0.25158 0.49149 0.0
C482 C 0.73952 0.27278 0.48682 0.0
H483 H 0.64618 0.272 0.53718 0.0
H484 H 0.67784 0.25699 0.52376 0.0
H485 H 0.67285 0.27063 0.57631 0.0
H486 H 0.72128 0.27962 0.59074 0.0
H487 H 0.75265 0.24232 0.59892 0.0
H488 H 0.97579 0.10426 0.1609 0.0
H489 H 0.0008 0.1274 0.21757 0.0
H490 H 0.07413 0.09174 0.17405 0.0
H491 H 0.04919 0.0682 0.11801 0.0
H492 H 0.06642 0.08574 0.26031 0.0
H493 H 0.05126 0.19165 0.21374 0.0
H494 H 0.02056 0.173 0.21622 0.0
H495 H 0.04514 0.16401 0.17733 0.0
C496 C 0.99729 0.10149 0.16295 0.0
C497 C 0.01048 0.08423 0.13447 0.0
C498 C 0.01158 0.11495 0.19525 0.0
C499 C 0.03937 0.11163 0.19954 0.0
C500 C 0.05268 0.09474 0.17103 0.0
H501 H 0.14884 0.16367 0.40542 0.0
H502 H 0.13114 0.14681 0.33689 0.0
C503 C 0.03836 0.08123 0.1388 0.0
C504 C 0.05412 0.12412 0.23586 0.0
H505 H 0.06674 0.184 0.28549 0.0
C506 C 0.06684 0.10725 0.26555 0.0
C507 C 0.05457 0.15217 0.2425 0.0
C508 C 0.04238 0.17129 0.21054 0.0
C509 C 0.07911 0.11761 0.30273 0.0
C510 C 0.07891 0.1456 0.30994 0.0
C511 C 0.06676 0.16254 0.27977 0.0
C512 C 0.09005 0.15746 0.34974 0.0
C513 C 0.09125 0.0985 0.3348 0.0
C514 C 0.07286 0.16968 0.3789 0.0
C515 C 0.08289 0.17945 0.41785 0.0
C516 C 0.11033 0.17728 0.42814 0.0
C517 C 0.12763 0.16574 0.39825 0.0
C518 C 0.11756 0.15592 0.3593 0.0
H519 H 0.08519 0.07741 0.32831 0.0
H520 H 0.11342 0.09969 0.33343 0.0
H521 H 0.08527 0.10398 0.3677 0.0
H522 H 0.05157 0.17113 0.37189 0.0
H523 H 0.06917 0.1886 0.44001 0.0
H524 H 0.91155 0.97773 0.18258 0.0
H525 H 0.88974 0.00095 0.2415 0.0
H526 H 0.90448 0.07682 0.18114 0.0
H527 H 0.92572 0.05385 0.12245 0.0
H528 H 0.91252 0.03853 0.29583 0.0
H529 H 0.8256 0.08269 0.2091 0.0
H530 H 0.84576 0.05633 0.18654 0.0
H531 H 0.85717 0.09052 0.18562 0.0
C532 C 0.90998 -0.00064 0.1816 0.0
C533 C 0.92045 0.01393 0.14731 0.0
C534 C 0.89746 0.01257 0.21531 0.0
C535 C 0.89504 0.04057 0.21528 0.0
C536 C 0.90548 0.05515 0.18131 0.0
H537 H 0.84899 0.16396 0.39354 0.0
H538 H 0.86237 0.13772 0.33101 0.0
C539 C 0.91791 0.04194 0.14768 0.0
C540 C 0.88317 0.05477 0.252 0.0
H541 H 0.83486 0.09979 0.27935 0.0
C542 C 0.89535 0.05169 0.29237 0.0
C543 C 0.8609 0.07208 0.2472 0.0
C544 C 0.84643 0.07545 0.20485 0.0
C545 C 0.88634 0.06602 0.32796 0.0
C546 C 0.86419 0.08348 0.32315 0.0
C547 C 0.85182 0.08638 0.28287 0.0
C548 C 0.85403 0.09929 0.35955 0.0
C549 C 0.9012 0.06302 0.37007 0.0
C550 C 0.84418 0.08637 0.39568 0.0
C551 C 0.83662 0.10126 0.43135 0.0
C552 C 0.83854 0.12937 0.43135 0.0
C553 C 0.84724 0.14234 0.39437 0.0
C554 C 0.85494 0.12739 0.35873 0.0
H555 H 0.92144 0.05427 0.36589 0.0
H556 H 0.90339 0.08266 0.38664 0.0
H557 H 0.88973 0.04946 0.39095 0.0
H558 H 0.84272 0.06472 0.39652 0.0
H559 H 0.82946 0.09077 0.4591 0.0
H560 H 0.02124 0.89653 0.17766 0.0
H561 H 0.99559 0.87515 0.23371 0.0
H562 H 0.92211 0.90372 0.17573 0.0
H563 H 0.94754 0.92454 0.11925 0.0
H564 H 0.96258 0.90152 0.29 0.0
H565 H 0.90514 0.82485 0.19713 0.0
H566 H 0.93411 0.84168 0.17621 0.0
H567 H 0.90221 0.85833 0.17687 0.0
C568 C -0.00041 0.89805 0.17647 0.0
C569 C 0.98644 0.91243 0.14379 0.0
C570 C 0.98498 0.8858 0.20856 0.0
C571 C 0.95694 0.88753 0.20852 0.0
C572 C 0.94371 0.90164 0.17587 0.0
H573 H 0.83791 0.84904 0.39726 0.0
H574 H 0.86064 0.86131 0.3313 0.0
C575 C 0.95834 0.91386 0.14373 0.0
C576 C 0.94177 0.87624 0.24435 0.0
H577 H 0.8927 0.83152 0.2695 0.0
C578 C 0.94743 0.88608 0.28556 0.0
C579 C 0.92186 0.85629 0.23829 0.0
C580 C 0.91557 0.84446 0.1948 0.0
C581 C 0.93356 0.87672 0.32096 0.0
C582 C 0.91381 0.85662 0.31503 0.0
C583 C 0.90795 0.84686 0.27381 0.0
C584 C 0.89918 0.8457 0.35166 0.0
C585 C 0.9398 0.88878 0.36435 0.0
C586 C 0.91313 0.83193 0.38394 0.0
C587 C 0.90027 0.82498 0.42146 0.0
C588 C 0.87319 0.83153 0.42718 0.0
C589 C 0.85877 0.8437 0.3936 0.0
C590 C 0.87172 0.85076 0.35604 0.0
H591 H 0.95064 0.90816 0.36192 0.0
H592 H 0.92117 0.89211 0.3825 0.0
H593 H 0.9527 0.87478 0.38283 0.0
H594 H 0.93423 0.82744 0.38073 0.0
H595 H 0.91172 0.8152 0.44659 0.0
H596 H 0.07454 0.94129 0.12225 0.0
H597 H 0.0939 0.91977 0.18473 0.0
H598 H 0.09446 0.99556 0.25159 0.0
H599 H 0.07405 0.01708 0.1892 0.0
H600 H 0.14201 0.93029 0.22403 0.0
H601 H 0.05896 0.94647 0.33695 0.0
H602 H 0.05491 0.95106 0.28009 0.0
H603 H 0.07081 0.97658 0.31248 0.0
C604 C 0.0782 0.95334 0.15016 0.0
C605 C 0.07224 0.9808 0.15047 0.0
C606 C 0.08953 0.94102 0.18599 0.0
C607 C 0.09525 0.95596 0.22307 0.0
C608 C 0.08964 0.9835 0.22363 0.0
H609 H 0.17319 0.91623 0.46412 0.0
H610 H 0.15378 0.93908 0.40206 0.0
C611 C 0.07815 0.99578 0.18775 0.0
C612 C 0.10795 0.94278 0.26046 0.0
H613 H 0.09955 0.92908 0.36604 0.0
C614 C 0.1327 0.92994 0.25505 0.0
C615 C 0.0957 0.94234 0.30084 0.0
C616 C 0.06852 0.95462 0.30799 0.0
C617 C 0.14567 0.9169 0.28912 0.0
C618 C 0.13346 0.91658 0.32944 0.0
C619 C 0.10882 0.9295 0.33499 0.0
C620 C 0.14584 0.90267 0.36627 0.0
C621 C 0.17247 0.90384 0.28197 0.0
C622 C 0.14768 0.87463 0.36654 0.0
C623 C 0.15848 0.86147 0.4021 0.0
C624 C 0.16762 0.87615 0.43801 0.0
C625 C 0.16599 0.9043 0.43727 0.0
C626 C 0.15505 0.91741 0.40181 0.0
H627 H 0.18157 0.91039 0.25163 0.0
H628 H 0.18659 0.9085 0.30881 0.0
H629 H 0.16981 0.88177 0.28054 0.0
H630 H 0.1403 0.86293 0.33955 0.0
H631 H 0.15906 0.83978 0.40188 0.0
H632 H 0.06472 0.98711 0.83877 0.0
H633 H 0.08301 0.95821 0.78337 0.0
H634 H 0.14149 0.92751 0.87349 0.0
H635 H 0.12365 0.95682 0.92905 0.0
H636 H 0.1638 0.94361 0.79866 0.0
H637 H 0.0765 0.87784 0.76413 0.0
H638 H 0.06798 0.91275 0.76382 0.0
H639 H 0.07981 0.8975 0.81255 0.0
C640 C 0.08139 0.97413 0.84691 0.0
C641 C 0.09278 0.97429 0.88828 0.0
C642 C 0.09163 0.9574 0.81531 0.0
C643 C 0.11332 0.94041 0.82452 0.0
C644 C 0.1246 0.94034 0.86586 0.0
H645 H 0.16604 0.82977 0.62432 0.0
H646 H 0.15263 0.84721 0.69404 0.0
C647 C 0.11437 0.95709 0.89754 0.0
C648 C 0.1254 0.92434 0.79003 0.0
H649 H 0.11002 0.87979 0.71025 0.0
C650 C 0.15218 0.92934 0.7797 0.0
C651 C 0.11036 0.90541 0.76584 0.0
C652 C 0.08215 0.89781 0.77737 0.0
C653 C 0.1639 0.91696 0.74435 0.0
C654 C 0.14821 0.89956 0.71827 0.0
C655 C 0.1219 0.89343 0.72997 0.0
C656 C 0.1581 0.88884 0.67734 0.0
C657 C 0.19287 0.92285 0.73502 0.0
C658 C 0.16553 0.90649 0.64492 0.0
C659 C 0.17336 0.89662 0.60531 0.0
C660 C 0.17363 0.86889 0.59716 0.0
C661 C 0.16635 0.85122 0.62981 0.0
C662 C 0.15855 0.86114 0.66953 0.0
H663 H 0.20412 0.92898 0.76443 0.0
H664 H 0.20291 0.90516 0.72079 0.0
H665 H 0.19389 0.93964 0.71206 0.0
H666 H 0.16477 0.92796 0.64997 0.0
H667 H 0.1791 0.91073 0.58097 0.0
H668 H 0.01847 0.12502 0.91277 0.0
H669 H 0.04184 0.14431 0.8523 0.0
H670 H 0.98596 0.10566 0.76507 0.0
H671 H 0.96243 0.08627 0.82537 0.0
H672 H 0.06605 0.11553 0.7863 0.0
H673 H 0.98702 0.18385 0.724 0.0
H674 H 0.98585 0.1693 0.7766 0.0
H675 H 0.97639 0.14974 0.73036 0.0
C676 C 0.011 0.12078 0.88075 0.0
C677 C 0.98851 0.10423 0.87382 0.0
C678 C 0.02438 0.13182 0.84628 0.0
C679 C 0.0154 0.12668 0.80435 0.0
C680 C 0.99289 0.11027 0.79726 0.0
H681 H 0.09764 0.13796 0.56668 0.0
H682 H 0.0735 0.12431 0.63033 0.0
C683 C 0.97954 0.09913 0.83173 0.0
C684 C 0.03049 0.13733 0.768 0.0
H685 H 0.02501 0.17713 0.68003 0.0
C686 C 0.05716 0.12914 0.76321 0.0
C687 C 0.01882 0.1552 0.73818 0.0
C688 C 0.99051 0.16527 0.74263 0.0
C689 C 0.0723 0.13786 0.72869 0.0
C690 C 0.06039 0.15508 0.69826 0.0
C691 C 0.03396 0.16381 0.7035 0.0
C692 C 0.0749 0.16354 0.66002 0.0
C693 C 0.10091 0.12856 0.72481 0.0
C694 C 0.0834 0.19016 0.65575 0.0
C695 C 0.09725 0.19802 0.61948 0.0
C696 C 0.10243 0.17939 0.5868 0.0
C697 C 0.09371 0.15277 0.5912 0.0
C698 C 0.08008 0.14492 0.62756 0.0
H699 H 0.10867 0.11957 0.75494 0.0
H700 H 0.10202 0.1132 0.69912 0.0
H701 H 0.11412 0.14551 0.71602 0.0
H702 H 0.07944 0.20478 0.68057 0.0
H703 H 0.10356 0.2187 0.61667 0.0
H704 H 0.87745 0.04368 0.91846 0.0
H705 H 0.86463 0.07319 0.85942 0.0
H706 H 0.93038 0.04308 0.78575 0.0
H707 H 0.94355 0.01369 0.84458 0.0
H708 H 0.92177 0.1023 0.78583 0.0
H709 H 0.83115 0.04127 0.7456 0.0
H710 H 0.83541 0.05171 0.80039 0.0
H711 H 0.8586 0.02841 0.77768 0.0
C712 C 0.88929 0.04346 0.88982 0.0
C713 C 0.91138 0.0262 0.88606 0.0
C714 C 0.88192 0.06029 0.85617 0.0
C715 C 0.89646 0.06005 0.81828 0.0
C716 C 0.91893 0.04344 0.81482 0.0
H717 H 0.88681 0.12932 0.5674 0.0
H718 H 0.9015 0.10984 0.6353 0.0
C719 C 0.9263 0.02658 0.84837 0.0
C720 C 0.88753 0.0761 0.78131 0.0
H721 H 0.83872 0.07947 0.70406 0.0
C722 C 0.90359 0.09743 0.76795 0.0
C723 C 0.86377 0.06964 0.75832 0.0
C724 C 0.84623 0.04641 0.77086 0.0
C725 C 0.89645 0.1126 0.73194 0.0
C726 C 0.87293 0.10579 0.70839 0.0
C727 C 0.85671 0.08467 0.72224 0.0
C728 C 0.86503 0.11958 0.66842 0.0
C729 C 0.914 0.13587 0.71979 0.0
C730 C 0.83953 0.13115 0.66435 0.0
C731 C 0.8309 0.14183 0.62542 0.0
C732 C 0.84761 0.14111 0.58974 0.0
C733 C 0.87338 0.12997 0.59417 0.0
C734 C 0.88195 0.11918 0.63311 0.0
H735 H 0.92577 0.14357 0.74771 0.0
H736 H 0.92838 0.12911 0.69535 0.0
H737 H 0.90194 0.15255 0.70621 0.0
H738 H 0.82608 0.13142 0.69113 0.0
H739 H 0.8108 0.1499 0.62295 0.0
H740 H 0.03443 0.91473 0.8307 0.0
H741 H 0.00876 0.8971 0.76954 0.0
H742 H 0.94268 0.94878 0.80126 0.0
H743 H 0.96863 0.96709 0.86143 0.0
H744 H 0.96215 0.86975 0.77581 0.0
H745 H 0.94607 0.95894 0.67393 0.0
H746 H 0.97062 0.95837 0.71692 0.0
H747 H 0.93582 0.96403 0.72799 0.0
C748 C 0.01466 0.92274 0.82409 0.0
C749 C 0.00347 0.94217 0.85107 0.0
C750 C -2e-05 0.91259 0.78922 0.0
C751 C 0.97385 0.92171 0.78069 0.0
C752 C 0.96298 0.94179 0.8067 0.0
H753 H 0.84512 0.86711 0.61026 0.0
H754 H 0.87133 0.88742 0.66917 0.0
C755 C 0.97776 0.9521 0.84135 0.0
C756 C 0.9572 0.90857 0.74698 0.0
H757 H 0.91949 0.92039 0.65708 0.0
C758 C 0.95299 0.8808 0.74967 0.0
C759 C 0.94511 0.92307 0.71312 0.0
C760 C 0.94981 0.9527 0.7075 0.0
C761 C 0.93679 0.86717 0.71963 0.0
C762 C 0.92467 0.88167 0.68591 0.0
C763 C 0.92873 0.90942 0.68324 0.0
C764 C 0.9085 0.8682 0.65214 0.0
C765 C 0.93247 0.83742 0.72442 0.0
C766 C 0.92078 0.8506 0.62347 0.0
C767 C 0.90593 0.83902 0.58998 0.0
C768 C 0.87853 0.84487 0.5846 0.0
C769 C 0.86613 0.86204 0.61398 0.0
C770 C 0.88107 0.87377 0.64736 0.0
H771 H 0.93811 0.83041 0.75696 0.0
H772 H 0.9112 0.83203 0.71771 0.0
H773 H 0.94501 0.82655 0.70111 0.0
H774 H 0.94199 0.84629 0.62645 0.0
H775 H 0.91595 0.82576 0.5679 0.0
H776 H 0.48004 0.5862 0.68139 0.0
H777 H 0.50277 0.60808 0.74205 0.0
H778 H 0.57915 0.59392 0.68387 0.0
H779 H 0.55666 0.57288 0.62326 0.0
H780 H 0.54002 0.58661 0.79753 0.0
H781 H 0.58415 0.67293 0.71293 0.0
H782 H 0.55821 0.65212 0.68921 0.0
H783 H 0.59254 0.64117 0.68965 0.0
C784 C 0.50168 0.58789 0.6813 0.0
C785 C 0.51654 0.57766 0.64704 0.0
C786 C 0.51462 0.60041 0.71603 0.0
C787 C 0.54261 0.60306 0.71709 0.0
C788 C 0.55747 0.59271 0.68327 0.0
H789 H 0.66181 0.65505 0.90437 0.0
H790 H 0.63778 0.63848 0.84049 0.0
C791 C 0.54454 0.58033 0.64858 0.0
C792 C 0.55646 0.6155 0.75442 0.0
H793 H 0.60039 0.66508 0.78392 0.0
C794 C 0.55302 0.60392 0.79465 0.0
C795 C 0.57354 0.63798 0.75043 0.0
C796 C 0.57717 0.65194 0.7083 0.0
C797 C 0.56665 0.61386 0.83095 0.0
C798 C 0.58384 0.63622 0.82693 0.0
C799 C 0.58723 0.6479 0.78677 0.0
C800 C 0.5984 0.64775 0.86426 0.0
C801 C 0.56307 0.59994 0.87311 0.0
C802 C 0.58419 0.65904 0.8981 0.0
C803 C 0.59781 0.66854 0.93443 0.0
C804 C 0.62592 0.66702 0.93751 0.0
C805 C 0.64017 0.65658 0.90285 0.0
C806 C 0.62649 0.64704 0.86646 0.0
H807 H 0.55446 0.57953 0.86885 0.0
H808 H 0.58247 0.59831 0.8908 0.0
H809 H 0.54916 0.61179 0.893 0.0
H810 H 0.56253 0.66028 0.89655 0.0
H811 H 0.58631 0.67701 0.96023 0.0
H812 H 0.39639 0.47847 0.66258 0.0
H813 H 0.37406 0.50366 0.71864 0.0
H814 H 0.40482 0.57748 0.66805 0.0
H815 H 0.42692 0.5525 0.61172 0.0
H816 H 0.40174 0.53675 0.77833 0.0
H817 H 0.3245 0.59366 0.68666 0.0
H818 H 0.34074 0.56425 0.66539 0.0
H819 H 0.35806 0.5958 0.66701 0.0
C820 C 0.39822 0.5001 0.66297 0.0
C821 C 0.41363 0.51347 0.63249 0.0
C822 C 0.38538 0.51444 0.69504 0.0
C823 C 0.38752 0.54241 0.69709 0.0
C824 C 0.40251 0.55591 0.66649 0.0
H825 H 0.34586 0.66034 0.88853 0.0
H826 H 0.35772 0.63767 0.82174 0.0
C827 C 0.41539 0.54155 0.63443 0.0
C828 C 0.37596 0.55714 0.73339 0.0
H829 H 0.33013 0.60483 0.76016 0.0
C830 C 0.38596 0.55151 0.77444 0.0
C831 C 0.35562 0.57655 0.72793 0.0
C832 C 0.34389 0.58287 0.68444 0.0
C833 C 0.37636 0.56499 0.81036 0.0
C834 C 0.35572 0.58415 0.8051 0.0
C835 C 0.34581 0.58996 0.76399 0.0
C836 C 0.34467 0.59851 0.84223 0.0
C837 C 0.38888 0.55902 0.85351 0.0
C838 C 0.33237 0.58415 0.87488 0.0
C839 C 0.32579 0.59696 0.91296 0.0
C840 C 0.33108 0.62441 0.91871 0.0
C841 C 0.34154 0.63917 0.88477 0.0
C842 C 0.34835 0.62626 0.84674 0.0
H843 H 0.40875 0.54922 0.85059 0.0
H844 H 0.39141 0.57762 0.87282 0.0
H845 H 0.37562 0.54521 0.87106 0.0
H846 H 0.32886 0.56281 0.87155 0.0
H847 H 0.31736 0.58526 0.93848 0.0
H848 H 0.44119 0.42678 0.61337 0.0
H849 H 0.41845 0.4046 0.67124 0.0
H850 H 0.4948 0.38734 0.73136 0.0
H851 H 0.5177 0.4101 0.67369 0.0
H852 H 0.42226 0.35225 0.70048 0.0
H853 H 0.45417 0.4251 0.82616 0.0
H854 H 0.45748 0.43179 0.76995 0.0
H855 H 0.4814 0.41076 0.79718 0.0
C856 C 0.45321 0.41851 0.63867 0.0
C857 C 0.48127 0.42065 0.63867 0.0
C858 C 0.44014 0.40565 0.67187 0.0
C859 C 0.45491 0.39468 0.70594 0.0
C860 C 0.48297 0.39617 0.70578 0.0
H861 H 0.41454 0.31586 0.9408 0.0
H862 H 0.43663 0.33204 0.87685 0.0
C863 C 0.49602 0.40911 0.6726 0.0
C864 C 0.4409 0.38183 0.74171 0.0
H865 H 0.43217 0.38584 0.84935 0.0
C866 C 0.42434 0.3596 0.73305 0.0
C867 C 0.44355 0.39161 0.78406 0.0
C868 C 0.4599 0.41627 0.79497 0.0
C869 C 0.41078 0.34652 0.76587 0.0
C870 C 0.4137 0.35614 0.80822 0.0
C871 C 0.43015 0.37843 0.81681 0.0
C872 C 0.39986 0.34361 0.84441 0.0
C873 C 0.39385 0.32224 0.75519 0.0
C874 C 0.37183 0.34443 0.84702 0.0
C875 C 0.35913 0.3353 0.88366 0.0
C876 C 0.37433 0.32542 0.91834 0.0
C877 C 0.40233 0.32373 0.91484 0.0
C878 C 0.41497 0.33284 0.87831 0.0
H879 H 0.39847 0.31387 0.7232 0.0
H880 H 0.39688 0.30636 0.77946 0.0
H881 H 0.37238 0.32801 0.75514 0.0
H882 H 0.35986 0.3531 0.82147 0.0
H883 H 0.33756 0.33711 0.88563 0.0
H884 H 0.56941 0.44637 0.61693 0.0
H885 H 0.58983 0.4201 0.67393 0.0
H886 H 0.62244 0.49231 0.73057 0.0
H887 H 0.6016 0.51882 0.67386 0.0
H888 H 0.64404 0.41541 0.70286 0.0
H889 H 0.57813 0.45902 0.82628 0.0
H890 H 0.5713 0.46249 0.76982 0.0
H891 H 0.5961 0.48334 0.79589 0.0
C892 C 0.58081 0.45674 0.64124 0.0
C893 C 0.58341 0.48476 0.64079 0.0
C894 C 0.59266 0.44164 0.67384 0.0
C895 C 0.6073 0.45432 0.70675 0.0
C896 C 0.61081 0.48219 0.70578 0.0
H897 H 0.67716 0.40468 0.9465 0.0
H898 H 0.66652 0.42791 0.87987 0.0
C899 C 0.59892 0.49728 0.67321 0.0
C900 C 0.61805 0.43856 0.74298 0.0
H901 H 0.61332 0.43109 0.8507 0.0
C902 C 0.63735 0.41875 0.73522 0.0
C903 C 0.60905 0.44288 0.785 0.0
C904 C 0.58733 0.4629 0.79486 0.0
C905 C 0.64841 0.40354 0.76877 0.0
C906 C 0.63963 0.40816 0.81083 0.0
C907 C 0.62017 0.4278 0.8184 0.0
C908 C 0.65002 0.39289 0.84788 0.0
C909 C 0.66969 0.38306 0.75917 0.0
C910 C 0.64487 0.36534 0.85151 0.0
C911 C 0.65095 0.352 0.88963 0.0
C912 C 0.66197 0.36615 0.92469 0.0
C913 C 0.66837 0.3934 0.9201 0.0
C914 C 0.6624 0.40665 0.88207 0.0
H915 H 0.67858 0.38627 0.72733 0.0
H916 H 0.68593 0.38366 0.78386 0.0
H917 H 0.66062 0.36275 0.75938 0.0
H918 H 0.6349 0.35448 0.82573 0.0
H919 H 0.64563 0.33105 0.89251 0.0
H920 H 0.57064 0.52776 0.32156 0.0
H921 H 0.58004 0.50193 0.25663 0.0
H922 H 0.59909 0.4328 0.33324 0.0
H923 H 0.59015 0.4584 0.39797 0.0
H924 H 0.63065 0.47582 0.23937 0.0
H925 H 0.54504 0.40461 0.24029 0.0
H926 H 0.54477 0.43631 0.26846 0.0
H927 H 0.56259 0.40828 0.29062 0.0
C928 C 0.57682 0.50707 0.3245 0.0
C929 C 0.57984 0.49517 0.36487 0.0
C930 C 0.58205 0.49234 0.28746 0.0
C931 C 0.58991 0.46543 0.29029 0.0
C932 C 0.5926 0.45343 0.33045 0.0
H933 H 0.67885 0.36369 0.12194 0.0
H934 H 0.6617 0.39068 0.1811 0.0
C935 C 0.58762 0.46816 0.36741 0.0
C936 C 0.597 0.45014 0.25165 0.0
H937 H 0.5812 0.39371 0.19444 0.0
C938 C 0.61972 0.45802 0.22921 0.0
C939 C 0.58249 0.4271 0.23845 0.0
C940 C 0.55721 0.41862 0.26041 0.0
C941 C 0.62895 0.44284 0.19466 0.0
C942 C 0.61522 0.41907 0.18276 0.0
C943 C 0.59188 0.41175 0.20416 0.0
C944 C 0.62488 0.40157 0.14809 0.0
C945 C 0.65332 0.45233 0.17121 0.0
C946 C 0.60942 0.39814 0.11068 0.0
C947 C 0.61907 0.38265 0.07704 0.0
C948 C 0.64428 0.3702 0.08042 0.0
C949 C 0.65932 0.37295 0.11855 0.0
C950 C 0.64968 0.38854 0.15213 0.0
H951 H 0.65755 0.47387 0.1775 0.0
H952 H 0.67103 0.44062 0.18203 0.0
H953 H 0.6507 0.44923 0.13624 0.0
H954 H 0.59013 0.4079 0.10718 0.0
H955 H 0.60691 0.38056 0.04822 0.0
H956 H 0.50982 0.55771 0.33409 0.0
H957 H 0.53808 0.57565 0.27827 0.0
H958 H 0.57439 0.63064 0.36908 0.0
H959 H 0.54574 0.61321 0.42503 0.0
H960 H 0.55675 0.65523 0.29566 0.0
H961 H 0.61769 0.56604 0.25599 0.0
H962 H 0.58238 0.55923 0.25596 0.0
H963 H 0.59928 0.56892 0.30492 0.0
C964 C 0.52394 0.57347 0.34232 0.0
C965 C 0.52552 0.58404 0.384 0.0
C966 C 0.54026 0.58354 0.31044 0.0
C967 C 0.5586 0.60419 0.31972 0.0
C968 C 0.56049 0.61456 0.36139 0.0
H969 H 0.66983 0.65907 0.12582 0.0
H970 H 0.65146 0.64371 0.1934 0.0
C971 C 0.54413 0.60454 0.39331 0.0
C972 C 0.5742 0.61633 0.28511 0.0
H973 H 0.61679 0.60131 0.20444 0.0
C974 C 0.57016 0.64354 0.27603 0.0
C975 C 0.59195 0.60113 0.25997 0.0
C976 C 0.59833 0.57228 0.26991 0.0
C977 C 0.58251 0.6557 0.24127 0.0
C978 C 0.59892 0.64006 0.21454 0.0
C979 C 0.60392 0.61316 0.22473 0.0
C980 C 0.61015 0.65088 0.1748 0.0
C981 C 0.57777 0.68512 0.23337 0.0
C982 C 0.59297 0.65994 0.14205 0.0
C983 C 0.60338 0.66889 0.10362 0.0
C984 C 0.63118 0.66871 0.0971 0.0
C985 C 0.64836 0.65979 0.13012 0.0
C986 C 0.63791 0.65086 0.1686 0.0
H987 H 0.57186 0.69573 0.26304 0.0
H988 H 0.59593 0.69492 0.22068 0.0
H989 H 0.56122 0.6874 0.20955 0.0
H990 H 0.57145 0.65964 0.14592 0.0
H991 H 0.58965 0.67584 0.07893 0.0
H992 H 0.40426 0.47362 0.33173 0.0
H993 H 0.38844 0.50061 0.27171 0.0
H994 H 0.46047 0.54838 0.27998 0.0
H995 H 0.47654 0.52131 0.34012 0.0
H996 H 0.41273 0.57847 0.27806 0.0
H997 H 0.41397 0.50249 0.148 0.0
H998 H 0.39623 0.49197 0.19439 0.0
H999 H 0.43172 0.49798 0.19819 0.0
C1000 C 0.41695 0.4896 0.32042 0.0
C1001 C 0.44164 0.4954 0.34072 0.0
C1002 C 0.40789 0.50496 0.28603 0.0
C1003 C 0.42337 0.52634 0.27127 0.0
C1004 C 0.44826 0.53191 0.29093 0.0
H1005 H 0.38913 0.61496 0.03978 0.0
H1006 H 0.41048 0.58978 0.09768 0.0
C1007 C 0.45739 0.51646 0.32524 0.0
C1008 C 0.41284 0.54374 0.23687 0.0
H1009 H 0.39035 0.54303 0.13342 0.0
C1010 C 0.40801 0.57082 0.24631 0.0
C1011 C 0.40688 0.53367 0.19551 0.0
C1012 C 0.41269 0.505 0.18318 0.0
C1013 C 0.39679 0.58803 0.21561 0.0
C1014 C 0.39 0.57774 0.17468 0.0
C1015 C 0.39538 0.55079 0.165 0.0
C1016 C 0.37758 0.59459 0.14109 0.0
C1017 C 0.39251 0.6171 0.22708 0.0
C1018 C 0.35207 0.60582 0.14651 0.0
C1019 C 0.33976 0.62021 0.11339 0.0
C1020 C 0.35271 0.62333 0.07425 0.0
C1021 C 0.37851 0.61255 0.06938 0.0
C1022 C 0.39077 0.59825 0.10243 0.0
H1023 H 0.40469 0.6232 0.25555 0.0
H1024 H 0.39763 0.63031 0.20001 0.0
H1025 H 0.37108 0.62028 0.23451 0.0
H1026 H 0.34138 0.60281 0.17589 0.0
H1027 H 0.31978 0.62806 0.11784 0.0
H1028 H 0.50523 0.44265 0.32223 0.0
H1029 H 0.47919 0.42565 0.26086 0.0
H1030 H 0.43358 0.37535 0.34442 0.0
H1031 H 0.45987 0.39169 0.40566 0.0
H1032 H 0.45314 0.34811 0.27519 0.0
H1033 H 0.40183 0.44145 0.22391 0.0
H1034 H 0.43758 0.44455 0.22959 0.0
H1035 H 0.4178 0.4379 0.27572 0.0
C1036 C 0.48958 0.42805 0.32754 0.0
C1037 C 0.48467 0.41844 0.36879 0.0
C1038 C 0.47456 0.41855 0.2925 0.0
C1039 C 0.45424 0.39949 0.2982 0.0
C1040 C 0.44911 0.39014 0.33938 0.0
H1041 H 0.33735 0.34546 0.10597 0.0
H1042 H 0.35919 0.36338 0.17087 0.0
C1043 C 0.46415 0.39952 0.37435 0.0
C1044 C 0.43936 0.38802 0.26107 0.0
H1045 H 0.39856 0.40404 0.17644 0.0
C1046 C 0.4411 0.36031 0.2537 0.0
C1047 C 0.42345 0.40396 0.23342 0.0
C1048 C 0.41978 0.43359 0.24113 0.0
C1049 C 0.42771 0.34814 0.21895 0.0
C1050 C 0.41257 0.3642 0.19043 0.0
C1051 C 0.41038 0.39183 0.19823 0.0
C1052 C 0.39927 0.35271 0.15187 0.0
C1053 C 0.42972 0.31816 0.21328 0.0
C1054 C 0.41461 0.34082 0.11983 0.0
C1055 C 0.40223 0.33043 0.08301 0.0
C1056 C 0.37425 0.33192 0.07737 0.0
C1057 C 0.3589 0.34373 0.10966 0.0
C1058 C 0.37134 0.35415 0.14653 0.0
H1059 H 0.43576 0.30813 0.24351 0.0
H1060 H 0.41034 0.30953 0.20185 0.0
H1061 H 0.4451 0.31359 0.18915 0.0
H1062 H 0.43623 0.33985 0.12308 0.0
H1063 H 0.41458 0.32127 0.05887 0.0
loop_
_geom_bond_atom_site_label_1
_geom_bond_atom_site_label_2
_geom_bond_distance
_geom_bond_site_symmetry_2
_ccdc_geom_bond_type
Zn0 O2 1.933 1_556 S
Zn0 O20 1.985 . S
Zn0 O31 1.955 . S
Zn1 O2 1.911 . S
Zn1 O21 1.970 . S
Zn1 O37 1.945 . S
Zn1 O44 1.981 . S
O2 Zn0 1.933 1_554 S
O2 Zn1 1.911 . S
O2 H3 0.841 1_655 S
H3 O2 0.841 1_455 S
C4 O5 1.246 . S
C4 O33 1.284 . S
O5 C4 1.246 . S
Zn6 O8 1.911 . S
Zn6 O23 1.970 . S
Zn6 O40 1.945 . S
Zn6 O47 1.981 . S
Zn7 O8 1.933 1_556 S
Zn7 O22 1.985 . S
Zn7 O29 1.955 . S
O8 Zn6 1.911 . S
O8 Zn7 1.933 1_554 S
O8 H9 0.841 1_455 S
H9 O8 0.841 1_655 S
Zn10 O11 1.933 1_556 S
Zn10 O24 1.985 . S
Zn10 O33 1.951 1_565 S
O11 Zn10 1.933 1_554 S
O11 Zn12 1.911 . S
O11 H13 0.841 1_565 S
Zn12 O11 1.911 . S
Zn12 O25 1.970 . S
Zn12 O41 1.981 . S
Zn12 O43 1.945 . S
H13 O11 0.841 1_545 S
Zn14 O15 1.933 1_556 S
Zn14 O27 1.985 . S
Zn14 O35 1.955 . S
O15 Zn14 1.933 1_554 S
O15 H16 0.841 1_545 S
O15 Zn17 1.911 . S
H16 O15 0.841 1_565 S
Zn17 O15 1.911 . S
Zn17 O28 1.970 . S
Zn17 O38 1.981 . S
Zn17 O46 1.945 . S
C18 O19 1.246 . S
C18 O35 1.276 1_565 S
O19 C18 1.246 . S
O20 Zn0 1.985 . S
O20 C30 1.245 1_556 S
O21 Zn1 1.970 . S
O21 C30 1.263 . S
O22 Zn7 1.985 . S
O22 C34 1.245 1_556 S
O23 Zn6 1.970 . S
O23 C34 1.263 . S
O24 Zn10 1.985 . S
O24 C39 1.245 1_556 S
O25 Zn12 1.970 . S
O25 C39 1.263 . S
C26 O37 1.262 1_455 S
C26 O38 1.245 . S
O27 Zn14 1.985 . S
O27 C45 1.245 1_556 S
O28 Zn17 1.970 . S
O28 C45 1.263 . S
O29 Zn7 1.955 . S
O29 C48 1.276 1_455 S
C30 O20 1.245 1_554 S
C30 O21 1.263 . S
O31 Zn0 1.955 . S
O31 C50 1.276 1_655 S
C32 O40 1.262 1_655 S
C32 O41 1.245 . S
O33 C4 1.284 . S
O33 Zn10 1.951 1_545 S
C34 O22 1.245 1_554 S
C34 O23 1.263 . S
O35 Zn14 1.955 . S
O35 C18 1.276 1_545 S
C36 O43 1.262 1_545 S
C36 O44 1.245 . S
O37 Zn1 1.945 . S
O37 C26 1.262 1_655 S
O38 Zn17 1.981 . S
O38 C26 1.245 . S
C39 O24 1.245 1_554 S
C39 O25 1.263 . S
O40 Zn6 1.945 . S
O40 C32 1.262 1_455 S
O41 Zn12 1.981 . S
O41 C32 1.245 . S
C42 O46 1.262 1_565 S
C42 O47 1.245 . S
O43 Zn12 1.945 . S
O43 C36 1.262 1_565 S
O44 Zn1 1.981 . S
O44 C36 1.245 . S
C45 O27 1.245 1_554 S
C45 O28 1.263 . S
O46 Zn17 1.945 . S
O46 C42 1.262 1_545 S
O47 Zn6 1.981 . S
O47 C42 1.245 . S
C48 O29 1.276 1_655 S
C48 O49 1.246 . S
O49 C48 1.246 . S
C50 O31 1.276 1_455 S
C50 O51 1.246 . S
O51 C50 1.246 . S
Zn52 O54 1.933 . S
Zn52 O72 1.985 . S
Zn52 O83 1.955 . S
Zn53 O54 1.911 . S
Zn53 O73 1.970 . S
Zn53 O89 1.945 . S
Zn53 O96 1.981 . S
O54 Zn52 1.933 . S
O54 Zn53 1.911 . S
O54 H55 0.841 . S
H55 O54 0.841 . S
C56 O57 1.246 . S
C56 O85 1.276 . S
O57 C56 1.246 . S
Zn58 O60 1.911 . S
Zn58 O75 1.970 . S
Zn58 O92 1.945 . S
Zn58 O99 1.981 . S
Zn59 O60 1.933 . S
Zn59 O74 1.985 . S
Zn59 O81 1.955 . S
O60 Zn58 1.911 . S
O60 Zn59 1.933 . S
O60 H61 0.841 . S
H61 O60 0.841 . S
Zn62 O63 1.933 . S
Zn62 O76 1.985 . S
Zn62 O85 1.955 . S
O63 Zn62 1.933 . S
O63 Zn64 1.911 . S
O63 H65 0.841 . S
Zn64 O63 1.911 . S
Zn64 O77 1.970 . S
Zn64 O93 1.981 . S
Zn64 O95 1.945 . S
H65 O63 0.841 . S
Zn66 O67 1.933 . S
Zn66 O79 1.985 . S
Zn66 O87 1.955 . S
O67 Zn66 1.933 . S
O67 H68 0.841 . S
O67 Zn69 1.911 . S
H68 O67 0.841 . S
Zn69 O67 1.911 . S
Zn69 O80 1.970 . S
Zn69 O90 1.981 . S
Zn69 O98 1.945 . S
C70 O71 1.246 . S
C70 O87 1.276 . S
O71 C70 1.246 . S
O72 Zn52 1.985 . S
O72 C82 1.245 . S
O73 Zn53 1.970 . S
O73 C82 1.263 . S
O74 Zn59 1.985 . S
O74 C86 1.245 . S
O75 Zn58 1.970 . S
O75 C86 1.263 . S
O76 Zn62 1.985 . S
O76 C91 1.245 . S
O77 Zn64 1.970 . S
O77 C91 1.263 . S
C78 O89 1.262 . S
C78 O90 1.245 . S
O79 Zn66 1.985 . S
O79 C97 1.245 . S
O80 Zn69 1.970 . S
O80 C97 1.263 . S
O81 Zn59 1.955 . S
O81 C100 1.276 . S
C82 O72 1.245 . S
C82 O73 1.263 . S
O83 Zn52 1.955 . S
O83 C102 1.276 . S
C84 O92 1.262 . S
C84 O93 1.245 . S
O85 C56 1.276 . S
O85 Zn62 1.955 . S
C86 O74 1.245 . S
C86 O75 1.263 . S
O87 Zn66 1.955 . S
O87 C70 1.276 . S
C88 O95 1.262 . S
C88 O96 1.245 . S
O89 Zn53 1.945 . S
O89 C78 1.262 . S
O90 Zn69 1.981 . S
O90 C78 1.245 . S
C91 O76 1.245 . S
C91 O77 1.263 . S
O92 Zn58 1.945 . S
O92 C84 1.262 . S
O93 Zn64 1.981 . S
O93 C84 1.245 . S
C94 O98 1.262 . S
C94 O99 1.245 . S
O95 Zn64 1.945 . S
O95 C88 1.262 . S
O96 Zn53 1.981 . S
O96 C88 1.245 . S
C97 O79 1.245 . S
C97 O80 1.263 . S
O98 Zn69 1.945 . S
O98 C94 1.262 . S
O99 Zn58 1.981 . S
O99 C94 1.245 . S
C100 O81 1.276 . S
C100 O101 1.246 . S
O101 C100 1.246 . S
C102 O83 1.276 . S
C102 O103 1.246 . S
O103 C102 1.246 . S
H104 C109 0.930 . S
H105 C112 0.930 . S
H106 C114 0.930 . S
H107 C108 1.016 . S
C108 H107 1.016 . S
C108 N115 1.286 1_554 S
C109 H104 0.930 . S
C109 C110 1.397 . S
C109 C111 1.361 1_556 S
C110 C109 1.397 . S
C110 C114 1.390 1_556 S
C111 C109 1.361 1_554 S
C111 C112 1.393 . S
C111 N115 1.413 1_554 S
C112 H105 0.930 . S
C112 C111 1.393 . S
C112 C113 1.399 . S
C113 C112 1.399 . S
C113 C114 1.381 . S
C114 H106 0.930 . S
C114 C110 1.390 1_554 S
C114 C113 1.381 . S
N115 C108 1.286 1_556 S
N115 C111 1.413 1_556 S
H116 C121 0.930 . S
H117 C124 0.930 . S
H118 C126 0.930 . S
H119 C120 1.016 . S
C120 H119 1.016 . S
C120 N127 1.272 1_554 S
C121 H116 0.930 . S
C121 C122 1.397 . S
C121 C123 1.361 1_556 S
C122 C121 1.397 . S
C122 C126 1.390 1_556 S
C123 C121 1.361 1_554 S
C123 C124 1.393 . S
C123 N127 1.409 1_554 S
C124 H117 0.930 . S
C124 C123 1.393 . S
C124 C125 1.399 . S
C125 C124 1.399 . S
C125 C126 1.381 . S
C126 H118 0.930 . S
C126 C122 1.390 1_554 S
C126 C125 1.381 . S
N127 C120 1.272 1_556 S
N127 C123 1.409 1_556 S
H128 C133 0.930 . S
H129 C136 0.930 . S
H130 C138 0.930 . S
H131 C132 1.016 1_556 S
C132 H131 1.016 1_554 S
C132 N139 1.286 . S
C133 H128 0.930 . S
C133 C134 1.397 . S
C133 C135 1.361 . S
C134 C133 1.397 . S
C134 C138 1.390 . S
C135 C133 1.361 . S
C135 C136 1.393 1_554 S
C135 N139 1.413 . S
C136 H129 0.930 . S
C136 C135 1.393 1_556 S
C136 C137 1.399 . S
C137 C136 1.399 . S
C137 C138 1.381 1_556 S
C138 H130 0.930 . S
C138 C134 1.390 . S
C138 C137 1.381 1_554 S
N139 C132 1.286 . S
N139 C135 1.413 . S
H140 C145 0.930 . S
H141 C148 0.930 . S
H142 C150 0.930 . S
H143 C144 1.016 . S
C144 H143 1.016 . S
C144 N151 1.286 1_554 S
C145 H140 0.930 . S
C145 C146 1.397 . S
C145 C147 1.372 . S
C146 C145 1.397 . S
C146 C150 1.390 1_556 S
C147 C145 1.372 . S
C147 C148 1.382 1_556 S
C147 N151 1.415 . S
C148 H141 0.930 . S
C148 C147 1.382 1_554 S
C148 C149 1.399 . S
C149 C148 1.399 . S
C149 C150 1.381 . S
C150 H142 0.930 . S
C150 C146 1.390 1_554 S
C150 C149 1.381 . S
N151 C144 1.286 1_556 S
N151 C147 1.415 . S
H152 C157 0.930 . S
H153 C160 0.930 . S
H154 C162 0.930 . S
H155 C156 1.016 . S
C156 H155 1.016 . S
C156 N163 1.286 . S
C157 H152 0.930 . S
C157 C158 1.397 . S
C157 C159 1.361 . S
C158 C157 1.397 . S
C158 C162 1.390 . S
C159 C157 1.361 . S
C159 C160 1.393 . S
C159 N163 1.413 . S
C160 H153 0.930 . S
C160 C159 1.393 . S
C160 C161 1.399 . S
C161 C160 1.399 . S
C161 C162 1.381 . S
C162 H154 0.930 . S
C162 C158 1.390 . S
C162 C161 1.381 . S
N163 C156 1.286 . S
N163 C159 1.413 . S
H164 C169 0.930 . S
H165 C172 0.930 . S
H166 C174 0.930 . S
H167 C168 1.016 . S
C168 H167 1.016 . S
C168 N175 1.286 . S
C169 H164 0.930 . S
C169 C170 1.397 . S
C169 C171 1.361 . S
C170 C169 1.397 . S
C170 C174 1.390 . S
C171 C169 1.361 . S
C171 C172 1.393 . S
C171 N175 1.413 . S
C172 H165 0.930 . S
C172 C171 1.393 . S
C172 C173 1.399 . S
C173 C172 1.399 . S
C173 C174 1.381 . S
C174 H166 0.930 . S
C174 C170 1.390 . S
C174 C173 1.381 . S
N175 C168 1.286 . S
N175 C171 1.413 . S
H176 C181 0.930 . S
H177 C184 0.930 . S
H178 C186 0.930 . S
H179 C180 1.016 . S
C180 H179 1.016 . S
C180 N187 1.286 . S
C181 H176 0.930 . S
C181 C182 1.397 . S
C181 C183 1.361 . S
C182 C181 1.397 . S
C182 C186 1.390 . S
C183 C181 1.361 . S
C183 C184 1.393 . S
C183 N187 1.413 . S
C184 H177 0.930 . S
C184 C183 1.393 . S
C184 C185 1.399 . S
C185 C184 1.399 . S
C185 C186 1.381 . S
C186 H178 0.930 . S
C186 C182 1.390 . S
C186 C185 1.381 . S
N187 C180 1.286 . S
N187 C183 1.413 . S
H188 C193 0.930 . S
H189 C196 0.930 . S
H190 C198 0.930 . S
H191 C192 1.016 . S
C192 H191 1.016 . S
C192 N199 1.286 . S
C193 H188 0.930 . S
C193 C194 1.397 . S
C193 C195 1.361 . S
C194 C193 1.397 . S
C194 C198 1.390 . S
C195 C193 1.361 . S
C195 C196 1.393 . S
C195 N199 1.413 . S
C196 H189 0.930 . S
C196 C195 1.393 . S
C196 C197 1.399 . S
C197 C196 1.399 . S
C197 C198 1.381 . S
C198 H190 0.930 . S
C198 C194 1.390 . S
C198 C197 1.381 . S
N199 C192 1.286 . S
N199 C195 1.413 . S
H200 C208 0.929 . S
H201 C210 0.930 . S
H202 C212 0.930 . S
H203 C215 0.929 . S
H204 C218 0.930 . S
H205 C220 0.960 . S
H206 C220 0.960 . S
H207 C220 0.960 . S
C208 H200 0.929 . S
C208 C209 1.377 . S
C208 C210 1.384 . S
C209 C208 1.377 . S
C209 C215 1.390 1_554 S
C210 H201 0.930 . S
C210 C208 1.384 . S
C210 C211 1.372 . S
C211 C210 1.372 . S
C211 C212 1.400 1_554 S
C211 C216 1.490 . S
C212 H202 0.930 . S
C212 C211 1.400 1_556 S
C212 C215 1.386 . S
H213 C229 0.930 . S
H214 C230 0.931 . S
C215 H203 0.929 . S
C215 C209 1.390 1_556 S
C215 C212 1.386 . S
C216 C211 1.490 . S
C216 C218 1.395 . S
C216 C219 1.403 1_554 S
H217 C223 0.930 . S
C218 H204 0.930 . S
C218 C216 1.395 . S
C218 C221 1.403 . S
C219 C216 1.403 1_556 S
C219 C220 1.524 . S
C219 C223 1.400 . S
C220 H205 0.960 . S
C220 H206 0.960 . S
C220 H207 0.960 . S
C220 C219 1.524 . S
C221 C218 1.403 . S
C221 C222 1.392 . S
C221 C225 1.495 . S
C222 C221 1.392 . S
C222 C223 1.385 1_554 S
C222 C224 1.478 . S
C223 H217 0.930 . S
C223 C219 1.400 . S
C223 C222 1.385 1_556 S
C224 C222 1.478 . S
C224 C226 1.381 . S
C224 C230 1.383 1_554 S
C225 C221 1.495 . S
C225 H231 0.959 . S
C225 H232 0.961 . S
C225 H233 0.960 . S
C226 C224 1.381 . S
C226 C227 1.394 . S
C226 H234 0.930 . S
C227 C226 1.394 . S
C227 C228 1.383 . S
C227 H235 0.929 . S
C228 C227 1.383 . S
C228 C229 1.377 1_554 S
C229 H213 0.930 . S
C229 C228 1.377 1_556 S
C229 C230 1.379 . S
C230 H214 0.931 . S
C230 C224 1.383 1_556 S
C230 C229 1.379 . S
H231 C225 0.959 . S
H232 C225 0.961 . S
H233 C225 0.960 . S
H234 C226 0.930 . S
H235 C227 0.929 . S
H236 C244 0.929 . S
H237 C246 0.930 . S
H238 C248 0.930 . S
H239 C251 0.929 . S
H240 C254 0.930 1_556 S
H241 C256 0.960 . S
H242 C256 0.960 . S
H243 C256 0.960 . S
C244 H236 0.929 . S
C244 C245 1.377 1_556 S
C244 C246 1.384 . S
C245 C244 1.377 1_554 S
C245 C251 1.390 . S
C246 H237 0.930 . S
C246 C244 1.384 . S
C246 C247 1.372 1_556 S
C247 C246 1.372 1_554 S
C247 C248 1.400 . S
C247 C252 1.490 . S
C248 H238 0.930 . S
C248 C247 1.400 . S
C248 C251 1.386 . S
H249 C265 0.930 . S
H250 C266 0.931 . S
C251 H239 0.929 . S
C251 C245 1.390 . S
C251 C248 1.386 . S
C252 C247 1.490 . S
C252 C254 1.395 . S
C252 C255 1.403 . S
H253 C259 0.930 . S
C254 H240 0.930 1_554 S
C254 C252 1.395 . S
C254 C257 1.403 . S
C255 C252 1.403 . S
C255 C256 1.524 . S
C255 C259 1.400 . S
C256 H241 0.960 . S
C256 H242 0.960 . S
C256 H243 0.960 . S
C256 C255 1.524 . S
C257 C254 1.403 . S
C257 C258 1.392 . S
C257 C261 1.495 1_554 S
C258 C257 1.392 . S
C258 C259 1.385 . S
C258 C260 1.478 . S
C259 H253 0.930 . S
C259 C255 1.400 . S
C259 C258 1.385 . S
C260 C258 1.478 . S
C260 C262 1.381 1_554 S
C260 C266 1.383 . S
C261 C257 1.495 1_556 S
C261 H267 0.959 . S
C261 H268 0.961 1_556 S
C261 H269 0.960 . S
C262 C260 1.381 1_556 S
C262 C263 1.394 . S
C262 H270 0.930 . S
C263 C262 1.394 . S
C263 C264 1.383 1_556 S
C263 H271 0.929 . S
C264 C263 1.383 1_554 S
C264 C265 1.377 . S
C265 H249 0.930 . S
C265 C264 1.377 . S
C265 C266 1.379 . S
C266 H250 0.931 . S
C266 C260 1.383 . S
C266 C265 1.379 . S
H267 C261 0.959 . S
H268 C261 0.961 1_554 S
H269 C261 0.960 . S
H270 C262 0.930 . S
H271 C263 0.929 . S
H272 C280 0.929 . S
H273 C282 0.930 . S
H274 C284 0.930 . S
H275 C287 0.929 . S
H276 C290 0.930 . S
H277 C292 0.960 . S
H278 C292 0.960 . S
H279 C292 0.960 . S
C280 H272 0.929 . S
C280 C281 1.377 . S
C280 C282 1.384 . S
C281 C280 1.377 . S
C281 C287 1.390 1_554 S
C282 H273 0.930 . S
C282 C280 1.384 . S
C282 C283 1.372 . S
C283 C282 1.372 . S
C283 C284 1.400 1_554 S
C283 C288 1.490 . S
C284 H274 0.930 . S
C284 C283 1.400 1_556 S
C284 C287 1.386 . S
H285 C301 0.930 1_556 S
H286 C302 0.926 1_556 S
C287 H275 0.929 . S
C287 C281 1.390 1_556 S
C287 C284 1.386 . S
C288 C283 1.490 . S
C288 C290 1.395 . S
C288 C291 1.403 1_554 S
H289 C295 0.930 . S
C290 H276 0.930 . S
C290 C288 1.395 . S
C290 C293 1.403 . S
C291 C288 1.403 1_556 S
C291 C292 1.524 . S
C291 C295 1.400 . S
C292 H277 0.960 . S
C292 H278 0.960 . S
C292 H279 0.960 . S
C292 C291 1.524 . S
C293 C290 1.403 . S
C293 C294 1.392 . S
C293 C297 1.495 . S
C294 C293 1.392 . S
C294 C295 1.385 1_554 S
C294 C296 1.478 . S
C295 H289 0.930 . S
C295 C291 1.400 . S
C295 C294 1.385 1_556 S
C296 C294 1.478 . S
C296 C298 1.381 . S
C296 C302 1.383 . S
C297 C293 1.495 . S
C297 H303 0.959 . S
C297 H304 0.961 . S
C297 H305 0.960 . S
C298 C296 1.381 . S
C298 C299 1.394 . S
C298 H306 0.930 . S
C299 C298 1.394 . S
C299 C300 1.383 . S
C299 H307 0.929 . S
C300 C299 1.383 . S
C300 C301 1.377 . S
C301 H285 0.930 1_554 S
C301 C300 1.377 . S
C301 C302 1.379 . S
C302 H286 0.926 1_554 S
C302 C296 1.383 . S
C302 C301 1.379 . S
H303 C297 0.959 . S
H304 C297 0.961 . S
H305 C297 0.960 . S
H306 C298 0.930 . S
H307 C299 0.929 . S
H308 C316 0.929 . S
H309 C318 0.930 . S
H310 C320 0.930 . S
H311 C323 0.929 . S
H312 C326 0.930 . S
H313 C328 0.960 . S
H314 C328 0.960 . S
H315 C328 0.960 . S
C316 H308 0.929 . S
C316 C317 1.377 . S
C316 C318 1.384 . S
C317 C316 1.377 . S
C317 C323 1.390 . S
C318 H309 0.930 . S
C318 C316 1.384 . S
C318 C319 1.372 . S
C319 C318 1.372 . S
C319 C320 1.400 . S
C319 C324 1.490 . S
C320 H310 0.930 . S
C320 C319 1.400 . S
C320 C323 1.386 . S
H321 C337 0.930 . S
H322 C338 0.931 . S
C323 H311 0.929 . S
C323 C317 1.390 . S
C323 C320 1.386 . S
C324 C319 1.490 . S
C324 C326 1.395 . S
C324 C327 1.403 1_554 S
H325 C331 0.930 . S
C326 H312 0.930 . S
C326 C324 1.395 . S
C326 C329 1.403 . S
C327 C324 1.403 1_556 S
C327 C328 1.524 . S
C327 C331 1.400 . S
C328 H313 0.960 . S
C328 H314 0.960 . S
C328 H315 0.960 . S
C328 C327 1.524 . S
C329 C326 1.403 . S
C329 C330 1.392 . S
C329 C333 1.495 . S
C330 C329 1.392 . S
C330 C331 1.385 1_554 S
C330 C332 1.478 . S
C331 H325 0.930 . S
C331 C327 1.400 . S
C331 C330 1.385 1_556 S
C332 C330 1.478 . S
C332 C334 1.381 . S
C332 C338 1.383 . S
C333 C329 1.495 . S
C333 H339 0.959 . S
C333 H340 0.961 . S
C333 H341 0.960 . S
C334 C332 1.381 . S
C334 C335 1.394 . S
C334 H342 0.930 . S
C335 C334 1.394 . S
C335 C336 1.383 . S
C335 H343 0.929 . S
C336 C335 1.383 . S
C336 C337 1.377 . S
C337 H321 0.930 . S
C337 C336 1.377 . S
C337 C338 1.379 . S
C338 H322 0.931 . S
C338 C332 1.383 . S
C338 C337 1.379 . S
H339 C333 0.959 . S
H340 C333 0.961 . S
H341 C333 0.960 . S
H342 C334 0.930 . S
H343 C335 0.929 . S
H344 C352 0.929 . S
H345 C354 0.930 . S
H346 C356 0.930 . S
H347 C359 0.929 . S
H348 C362 0.930 . S
H349 C364 0.960 . S
H350 C364 0.960 . S
H351 C364 0.960 . S
C352 H344 0.929 . S
C352 C353 1.377 . S
C352 C354 1.384 . S
C353 C352 1.377 . S
C353 C359 1.390 . S
C354 H345 0.930 . S
C354 C352 1.384 . S
C354 C355 1.372 . S
C355 C354 1.372 . S
C355 C356 1.400 . S
C355 C360 1.490 . S
C356 H346 0.930 . S
C356 C355 1.400 . S
C356 C359 1.386 . S
H357 C373 0.930 . S
H358 C374 0.931 . S
C359 H347 0.929 . S
C359 C353 1.390 . S
C359 C356 1.386 . S
C360 C355 1.490 . S
C360 C362 1.395 . S
C360 C363 1.403 . S
H361 C367 0.930 . S
C362 H348 0.930 . S
C362 C360 1.395 . S
C362 C365 1.403 . S
C363 C360 1.403 . S
C363 C364 1.524 . S
C363 C367 1.400 . S
C364 H349 0.960 . S
C364 H350 0.960 . S
C364 H351 0.960 . S
C364 C363 1.524 . S
C365 C362 1.403 . S
C365 C366 1.392 . S
C365 C369 1.495 . S
C366 C365 1.392 . S
C366 C367 1.385 . S
C366 C368 1.478 . S
C367 H361 0.930 . S
C367 C363 1.400 . S
C367 C366 1.385 . S
C368 C366 1.478 . S
C368 C370 1.381 . S
C368 C374 1.383 . S
C369 C365 1.495 . S
C369 H375 0.959 . S
C369 H376 0.961 . S
C369 H377 0.960 . S
C370 C368 1.381 . S
C370 C371 1.394 . S
C370 H378 0.930 . S
C371 C370 1.394 . S
C371 C372 1.383 . S
C371 H379 0.929 . S
C372 C371 1.383 . S
C372 C373 1.377 . S
C373 H357 0.930 . S
C373 C372 1.377 . S
C373 C374 1.379 . S
C374 H358 0.931 . S
C374 C368 1.383 . S
C374 C373 1.379 . S
H375 C369 0.959 . S
H376 C369 0.961 . S
H377 C369 0.960 . S
H378 C370 0.930 . S
H379 C371 0.929 . S
H380 C388 0.929 . S
H381 C390 0.930 . S
H382 C392 0.930 . S
H383 C395 0.929 . S
H384 C398 0.930 . S
H385 C400 0.960 . S
H386 C400 0.960 . S
H387 C400 0.960 . S
C388 H380 0.929 . S
C388 C389 1.377 . S
C388 C390 1.384 . S
C389 C388 1.377 . S
C389 C395 1.390 . S
C390 H381 0.930 . S
C390 C388 1.384 . S
C390 C391 1.372 . S
C391 C390 1.372 . S
C391 C392 1.400 . S
C391 C396 1.490 . S
C392 H382 0.930 . S
C392 C391 1.400 . S
C392 C395 1.386 . S
H393 C409 0.930 . S
H394 C410 0.931 . S
C395 H383 0.929 . S
C395 C389 1.390 . S
C395 C392 1.386 . S
C396 C391 1.490 . S
C396 C398 1.395 . S
C396 C399 1.403 . S
H397 C403 0.930 . S
C398 H384 0.930 . S
C398 C396 1.395 . S
C398 C401 1.403 . S
C399 C396 1.403 . S
C399 C400 1.524 . S
C399 C403 1.400 . S
C400 H385 0.960 . S
C400 H386 0.960 . S
C400 H387 0.960 . S
C400 C399 1.524 . S
C401 C398 1.403 . S
C401 C402 1.392 . S
C401 C405 1.495 . S
C402 C401 1.392 . S
C402 C403 1.385 . S
C402 C404 1.478 . S
C403 H397 0.930 . S
C403 C399 1.400 . S
C403 C402 1.385 . S
C404 C402 1.478 . S
C404 C406 1.381 . S
C404 C410 1.383 . S
C405 C401 1.495 . S
C405 H411 0.959 . S
C405 H412 0.961 . S
C405 H413 0.960 . S
C406 C404 1.381 . S
C406 C407 1.394 . S
C406 H414 0.930 . S
C407 C406 1.394 . S
C407 C408 1.383 . S
C407 H415 0.929 . S
C408 C407 1.383 . S
C408 C409 1.377 . S
C409 H393 0.930 . S
C409 C408 1.377 . S
C409 C410 1.379 . S
C410 H394 0.931 . S
C410 C404 1.383 . S
C410 C409 1.379 . S
H411 C405 0.959 . S
H412 C405 0.961 . S
H413 C405 0.960 . S
H414 C406 0.930 . S
H415 C407 0.929 . S
H416 C424 0.929 . S
H417 C426 0.930 . S
H418 C428 0.930 . S
H419 C431 0.929 . S
H420 C434 0.930 . S
H421 C436 0.960 . S
H422 C436 0.960 . S
H423 C436 0.960 . S
C424 H416 0.929 . S
C424 C425 1.377 . S
C424 C426 1.384 . S
C425 C424 1.377 . S
C425 C431 1.390 . S
C426 H417 0.930 . S
C426 C424 1.384 . S
C426 C427 1.372 . S
C427 C426 1.372 . S
C427 C428 1.400 . S
C427 C432 1.490 . S
C428 H418 0.930 . S
C428 C427 1.400 . S
C428 C431 1.386 . S
H429 C445 0.930 . S
H430 C446 0.931 . S
C431 H419 0.929 . S
C431 C425 1.390 . S
C431 C428 1.386 . S
C432 C427 1.490 . S
C432 C434 1.395 . S
C432 C435 1.403 . S
H433 C439 0.930 . S
C434 H420 0.930 . S
C434 C432 1.395 . S
C434 C437 1.403 . S
C435 C432 1.403 . S
C435 C436 1.524 . S
C435 C439 1.400 . S
C436 H421 0.960 . S
C436 H422 0.960 . S
C436 H423 0.960 . S
C436 C435 1.524 . S
C437 C434 1.403 . S
C437 C438 1.392 . S
C437 C441 1.495 . S
C438 C437 1.392 . S
C438 C439 1.385 . S
C438 C440 1.478 . S
C439 H433 0.930 . S
C439 C435 1.400 . S
C439 C438 1.385 . S
C440 C438 1.478 . S
C440 C442 1.381 . S
C440 C446 1.383 . S
C441 C437 1.495 . S
C441 H447 0.959 . S
C441 H448 0.961 . S
C441 H449 0.960 . S
C442 C440 1.381 . S
C442 C443 1.394 . S
C442 H450 0.930 . S
C443 C442 1.394 . S
C443 C444 1.383 . S
C443 H451 0.929 . S
C444 C443 1.383 . S
C444 C445 1.377 . S
C445 H429 0.930 . S
C445 C444 1.377 . S
C445 C446 1.379 . S
C446 H430 0.931 . S
C446 C440 1.383 . S
C446 C445 1.379 . S
H447 C441 0.959 . S
H448 C441 0.961 . S
H449 C441 0.960 . S
H450 C442 0.930 . S
H451 C443 0.929 . S
H452 C460 0.929 . S
H453 C462 0.930 . S
H454 C464 0.930 . S
H455 C467 0.929 . S
H456 C470 0.930 . S
H457 C472 0.960 . S
H458 C472 0.960 . S
H459 C472 0.960 . S
C460 H452 0.929 . S
C460 C461 1.377 . S
C460 C462 1.384 . S
C461 C460 1.377 . S
C461 C467 1.390 . S
C462 H453 0.930 . S
C462 C460 1.384 . S
C462 C463 1.372 . S
C463 C462 1.372 . S
C463 C464 1.400 . S
C463 C468 1.490 . S
C464 H454 0.930 . S
C464 C463 1.400 . S
C464 C467 1.386 . S
H465 C481 0.930 . S
H466 C482 0.931 . S
C467 H455 0.929 . S
C467 C461 1.390 . S
C467 C464 1.386 . S
C468 C463 1.490 . S
C468 C470 1.395 . S
C468 C471 1.403 . S
H469 C475 0.930 . S
C470 H456 0.930 . S
C470 C468 1.395 . S
C470 C473 1.403 . S
C471 C468 1.403 . S
C471 C472 1.524 . S
C471 C475 1.400 . S
C472 H457 0.960 . S
C472 H458 0.960 . S
C472 H459 0.960 . S
C472 C471 1.524 . S
C473 C470 1.403 . S
C473 C474 1.392 . S
C473 C477 1.495 . S
C474 C473 1.392 . S
C474 C475 1.385 . S
C474 C476 1.478 . S
C475 H469 0.930 . S
C475 C471 1.400 . S
C475 C474 1.385 . S
C476 C474 1.478 . S
C476 C478 1.381 . S
C476 C482 1.383 . S
C477 C473 1.495 . S
C477 H483 0.959 . S
C477 H484 0.961 . S
C477 H485 0.960 . S
C478 C476 1.381 . S
C478 C479 1.394 . S
C478 H486 0.930 . S
C479 C478 1.394 . S
C479 C480 1.383 . S
C479 H487 0.929 . S
C480 C479 1.383 . S
C480 C481 1.377 . S
C481 H465 0.930 . S
C481 C480 1.377 . S
C481 C482 1.379 . S
C482 H466 0.931 . S
C482 C476 1.383 . S
C482 C481 1.379 . S
H483 C477 0.959 . S
H484 C477 0.961 . S
H485 C477 0.960 . S
H486 C478 0.930 . S
H487 C479 0.929 . S
H488 C496 0.929 1_655 S
H489 C498 0.930 . S
H490 C500 0.930 . S
H491 C503 0.929 . S
H492 C506 0.930 . S
H493 C508 0.960 . S
H494 C508 0.960 . S
H495 C508 0.960 . S
C496 H488 0.929 1_455 S
C496 C497 1.377 . S
C496 C498 1.384 . S
C497 C496 1.377 . S
C497 C503 1.390 . S
C498 H489 0.930 . S
C498 C496 1.384 . S
C498 C499 1.372 . S
C499 C498 1.372 . S
C499 C500 1.400 . S
C499 C504 1.490 . S
C500 H490 0.930 . S
C500 C499 1.400 . S
C500 C503 1.386 . S
H501 C517 0.930 . S
H502 C518 0.931 . S
C503 H491 0.929 . S
C503 C497 1.390 . S
C503 C500 1.386 . S
C504 C499 1.490 . S
C504 C506 1.395 . S
C504 C507 1.403 . S
H505 C511 0.930 . S
C506 H492 0.930 . S
C506 C504 1.395 . S
C506 C509 1.403 . S
C507 C504 1.403 . S
C507 C508 1.524 . S
C507 C511 1.400 . S
C508 H493 0.960 . S
C508 H494 0.960 . S
C508 H495 0.960 . S
C508 C507 1.524 . S
C509 C506 1.403 . S
C509 C510 1.392 . S
C509 C513 1.495 . S
C510 C509 1.392 . S
C510 C511 1.385 . S
C510 C512 1.478 . S
C511 H505 0.930 . S
C511 C507 1.400 . S
C511 C510 1.385 . S
C512 C510 1.478 . S
C512 C514 1.381 . S
C512 C518 1.383 . S
C513 C509 1.495 . S
C513 H519 0.959 . S
C513 H520 0.961 . S
C513 H521 0.960 . S
C514 C512 1.381 . S
C514 C515 1.394 . S
C514 H522 0.930 . S
C515 C514 1.394 . S
C515 C516 1.383 . S
C515 H523 0.929 . S
C516 C515 1.383 . S
C516 C517 1.377 . S
C517 H501 0.930 . S
C517 C516 1.377 . S
C517 C518 1.379 . S
C518 H502 0.931 . S
C518 C512 1.383 . S
C518 C517 1.379 . S
H519 C513 0.959 . S
H520 C513 0.961 . S
H521 C513 0.960 . S
H522 C514 0.930 . S
H523 C515 0.929 . S
H524 C532 0.929 . S
H525 C534 0.930 . S
H526 C536 0.930 . S
H527 C539 0.929 . S
H528 C542 0.930 . S
H529 C544 0.960 . S
H530 C544 0.960 . S
H531 C544 0.960 . S
C532 H524 0.929 . S
C532 C533 1.377 . S
C532 C534 1.384 . S
C533 C532 1.377 . S
C533 C539 1.390 . S
C534 H525 0.930 . S
C534 C532 1.384 . S
C534 C535 1.372 . S
C535 C534 1.372 . S
C535 C536 1.400 . S
C535 C540 1.490 . S
C536 H526 0.930 . S
C536 C535 1.400 . S
C536 C539 1.386 . S
H537 C553 0.930 . S
H538 C554 0.931 . S
C539 H527 0.929 . S
C539 C533 1.390 . S
C539 C536 1.386 . S
C540 C535 1.490 . S
C540 C542 1.395 . S
C540 C543 1.403 . S
H541 C547 0.930 . S
C542 H528 0.930 . S
C542 C540 1.395 . S
C542 C545 1.403 . S
C543 C540 1.403 . S
C543 C544 1.524 . S
C543 C547 1.400 . S
C544 H529 0.960 . S
C544 H530 0.960 . S
C544 H531 0.960 . S
C544 C543 1.524 . S
C545 C542 1.403 . S
C545 C546 1.392 . S
C545 C549 1.495 . S
C546 C545 1.392 . S
C546 C547 1.385 . S
C546 C548 1.478 . S
C547 H541 0.930 . S
C547 C543 1.400 . S
C547 C546 1.385 . S
C548 C546 1.478 . S
C548 C550 1.381 . S
C548 C554 1.383 . S
C549 C545 1.495 . S
C549 H555 0.959 . S
C549 H556 0.961 . S
C549 H557 0.960 . S
C550 C548 1.381 . S
C550 C551 1.394 . S
C550 H558 0.930 . S
C551 C550 1.394 . S
C551 C552 1.383 . S
C551 H559 0.929 . S
C552 C551 1.383 . S
C552 C553 1.377 . S
C553 H537 0.930 . S
C553 C552 1.377 . S
C553 C554 1.379 . S
C554 H538 0.931 . S
C554 C548 1.383 . S
C554 C553 1.379 . S
H555 C549 0.959 . S
H556 C549 0.961 . S
H557 C549 0.960 . S
H558 C550 0.930 . S
H559 C551 0.929 . S
H560 C568 0.929 1_455 S
H561 C570 0.930 . S
H562 C572 0.930 . S
H563 C575 0.929 . S
H564 C578 0.930 . S
H565 C580 0.960 . S
H566 C580 0.960 . S
H567 C580 0.960 . S
C568 H560 0.929 1_655 S
C568 C569 1.377 . S
C568 C570 1.384 . S
C569 C568 1.377 . S
C569 C575 1.390 . S
C570 H561 0.930 . S
C570 C568 1.384 . S
C570 C571 1.372 . S
C571 C570 1.372 . S
C571 C572 1.400 . S
C571 C576 1.490 . S
C572 H562 0.930 . S
C572 C571 1.400 . S
C572 C575 1.386 . S
H573 C589 0.930 . S
H574 C590 0.931 . S
C575 H563 0.929 . S
C575 C569 1.390 . S
C575 C572 1.386 . S
C576 C571 1.490 . S
C576 C578 1.395 . S
C576 C579 1.403 . S
H577 C583 0.930 . S
C578 H564 0.930 . S
C578 C576 1.395 . S
C578 C581 1.403 . S
C579 C576 1.403 . S
C579 C580 1.524 . S
C579 C583 1.400 . S
C580 H565 0.960 . S
C580 H566 0.960 . S
C580 H567 0.960 . S
C580 C579 1.524 . S
C581 C578 1.403 . S
C581 C582 1.392 . S
C581 C585 1.495 . S
C582 C581 1.392 . S
C582 C583 1.385 . S
C582 C584 1.478 . S
C583 H577 0.930 . S
C583 C579 1.400 . S
C583 C582 1.385 . S
C584 C582 1.478 . S
C584 C586 1.381 . S
C584 C590 1.383 . S
C585 C581 1.495 . S
C585 H591 0.959 . S
C585 H592 0.961 . S
C585 H593 0.960 . S
C586 C584 1.381 . S
C586 C587 1.394 . S
C586 H594 0.930 . S
C587 C586 1.394 . S
C587 C588 1.383 . S
C587 H595 0.929 . S
C588 C587 1.383 . S
C588 C589 1.377 . S
C589 H573 0.930 . S
C589 C588 1.377 . S
C589 C590 1.379 . S
C590 H574 0.931 . S
C590 C584 1.383 . S
C590 C589 1.379 . S
H591 C585 0.959 . S
H592 C585 0.961 . S
H593 C585 0.960 . S
H594 C586 0.930 . S
H595 C587 0.929 . S
H596 C604 0.929 . S
H597 C606 0.930 . S
H598 C608 0.930 . S
H599 C611 0.929 1_545 S
H600 C614 0.930 . S
H601 C616 0.960 . S
H602 C616 0.960 . S
H603 C616 0.960 . S
C604 H596 0.929 . S
C604 C605 1.377 . S
C604 C606 1.384 . S
C605 C604 1.377 . S
C605 C611 1.390 . S
C606 H597 0.930 . S
C606 C604 1.384 . S
C606 C607 1.372 . S
C607 C606 1.372 . S
C607 C608 1.400 . S
C607 C612 1.490 . S
C608 H598 0.930 . S
C608 C607 1.400 . S
C608 C611 1.386 . S
H609 C625 0.930 . S
H610 C626 0.931 . S
C611 H599 0.929 1_565 S
C611 C605 1.390 . S
C611 C608 1.386 . S
C612 C607 1.490 . S
C612 C614 1.395 . S
C612 C615 1.403 . S
H613 C619 0.930 . S
C614 H600 0.930 . S
C614 C612 1.395 . S
C614 C617 1.403 . S
C615 C612 1.403 . S
C615 C616 1.524 . S
C615 C619 1.400 . S
C616 H601 0.960 . S
C616 H602 0.960 . S
C616 H603 0.960 . S
C616 C615 1.524 . S
C617 C614 1.403 . S
C617 C618 1.392 . S
C617 C621 1.495 . S
C618 C617 1.392 . S
C618 C619 1.385 . S
C618 C620 1.478 . S
C619 H613 0.930 . S
C619 C615 1.400 . S
C619 C618 1.385 . S
C620 C618 1.478 . S
C620 C622 1.381 . S
C620 C626 1.383 . S
C621 C617 1.495 . S
C621 H627 0.959 . S
C621 H628 0.961 . S
C621 H629 0.960 . S
C622 C620 1.381 . S
C622 C623 1.394 . S
C622 H630 0.930 . S
C623 C622 1.394 . S
C623 C624 1.383 . S
C623 H631 0.929 . S
C624 C623 1.383 . S
C624 C625 1.377 . S
C625 H609 0.930 . S
C625 C624 1.377 . S
C625 C626 1.379 . S
C626 H610 0.931 . S
C626 C620 1.383 . S
C626 C625 1.379 . S
H627 C621 0.959 . S
H628 C621 0.961 . S
H629 C621 0.960 . S
H630 C622 0.930 . S
H631 C623 0.929 . S
H632 C640 0.929 . S
H633 C642 0.930 . S
H634 C644 0.930 . S
H635 C647 0.929 . S
H636 C650 0.930 . S
H637 C652 0.960 . S
H638 C652 0.960 . S
H639 C652 0.960 . S
C640 H632 0.929 . S
C640 C641 1.377 . S
C640 C642 1.384 . S
C641 C640 1.377 . S
C641 C647 1.390 . S
C642 H633 0.930 . S
C642 C640 1.384 . S
C642 C643 1.372 . S
C643 C642 1.372 . S
C643 C644 1.400 . S
C643 C648 1.490 . S
C644 H634 0.930 . S
C644 C643 1.400 . S
C644 C647 1.386 . S
H645 C661 0.930 . S
H646 C662 0.931 . S
C647 H635 0.929 . S
C647 C641 1.390 . S
C647 C644 1.386 . S
C648 C643 1.490 . S
C648 C650 1.395 . S
C648 C651 1.403 . S
H649 C655 0.930 . S
C650 H636 0.930 . S
C650 C648 1.395 . S
C650 C653 1.403 . S
C651 C648 1.403 . S
C651 C652 1.524 . S
C651 C655 1.400 . S
C652 H637 0.960 . S
C652 H638 0.960 . S
C652 H639 0.960 . S
C652 C651 1.524 . S
C653 C650 1.403 . S
C653 C654 1.392 . S
C653 C657 1.495 . S
C654 C653 1.392 . S
C654 C655 1.385 . S
C654 C656 1.478 . S
C655 H649 0.930 . S
C655 C651 1.400 . S
C655 C654 1.385 . S
C656 C654 1.478 . S
C656 C658 1.381 . S
C656 C662 1.383 . S
C657 C653 1.495 . S
C657 H663 0.959 1_565 S
C657 H664 0.961 . S
C657 H665 0.960 . S
C658 C656 1.381 . S
C658 C659 1.394 . S
C658 H666 0.930 . S
C659 C658 1.394 . S
C659 C660 1.383 . S
C659 H667 0.929 . S
C660 C659 1.383 . S
C660 C661 1.377 . S
C661 H645 0.930 . S
C661 C660 1.377 . S
C661 C662 1.379 . S
C662 H646 0.931 . S
C662 C656 1.383 . S
C662 C661 1.379 . S
H663 C657 0.959 1_545 S
H664 C657 0.961 . S
H665 C657 0.960 . S
H666 C658 0.930 . S
H667 C659 0.929 . S
H668 C676 0.929 . S
H669 C678 0.930 . S
H670 C680 0.930 . S
H671 C683 0.929 . S
H672 C686 0.930 . S
H673 C688 0.969 . S
H674 C688 0.959 . S
H675 C688 0.960 . S
C676 H668 0.929 . S
C676 C677 1.377 . S
C676 C678 1.384 . S
C677 C676 1.377 . S
C677 C683 1.390 . S
C678 H669 0.930 . S
C678 C676 1.384 . S
C678 C679 1.372 . S
C679 C678 1.372 . S
C679 C680 1.400 . S
C679 C684 1.490 . S
C680 H670 0.930 . S
C680 C679 1.400 . S
C680 C683 1.386 . S
H681 C697 0.930 . S
H682 C698 0.931 . S
C683 H671 0.929 . S
C683 C677 1.390 . S
C683 C680 1.386 . S
C684 C679 1.490 . S
C684 C686 1.395 . S
C684 C687 1.403 . S
H685 C691 0.930 . S
C686 H672 0.930 . S
C686 C684 1.395 . S
C686 C689 1.403 . S
C687 C684 1.403 . S
C687 C688 1.524 . S
C687 C691 1.400 . S
C688 H673 0.969 . S
C688 H674 0.959 . S
C688 H675 0.960 . S
C688 C687 1.524 . S
C689 C686 1.403 . S
C689 C690 1.392 . S
C689 C693 1.495 . S
C690 C689 1.392 . S
C690 C691 1.385 . S
C690 C692 1.478 . S
C691 H685 0.930 . S
C691 C687 1.400 . S
C691 C690 1.385 . S
C692 C690 1.478 . S
C692 C694 1.381 . S
C692 C698 1.383 . S
C693 C689 1.495 . S
C693 H699 0.959 . S
C693 H700 0.961 . S
C693 H701 0.960 . S
C694 C692 1.381 . S
C694 C695 1.394 . S
C694 H702 0.930 . S
C695 C694 1.394 . S
C695 C696 1.383 . S
C695 H703 0.929 . S
C696 C695 1.383 . S
C696 C697 1.377 . S
C697 H681 0.930 . S
C697 C696 1.377 . S
C697 C698 1.379 . S
C698 H682 0.931 . S
C698 C692 1.383 . S
C698 C697 1.379 . S
H699 C693 0.959 . S
H700 C693 0.961 . S
H701 C693 0.960 . S
H702 C694 0.930 . S
H703 C695 0.929 . S
H704 C712 0.929 . S
H705 C714 0.930 . S
H706 C716 0.930 . S
H707 C719 0.929 . S
H708 C722 0.930 . S
H709 C724 0.960 . S
H710 C724 0.960 . S
H711 C724 0.960 . S
C712 H704 0.929 . S
C712 C713 1.377 . S
C712 C714 1.384 . S
C713 C712 1.377 . S
C713 C719 1.390 . S
C714 H705 0.930 . S
C714 C712 1.384 . S
C714 C715 1.372 . S
C715 C714 1.372 . S
C715 C716 1.400 . S
C715 C720 1.490 . S
C716 H706 0.930 . S
C716 C715 1.400 . S
C716 C719 1.386 . S
H717 C733 0.930 . S
H718 C734 0.931 . S
C719 H707 0.929 . S
C719 C713 1.390 . S
C719 C716 1.386 . S
C720 C715 1.490 . S
C720 C722 1.395 . S
C720 C723 1.403 . S
H721 C727 0.930 . S
C722 H708 0.930 . S
C722 C720 1.395 . S
C722 C725 1.403 . S
C723 C720 1.403 . S
C723 C724 1.524 . S
C723 C727 1.400 . S
C724 H709 0.960 . S
C724 H710 0.960 . S
C724 H711 0.960 . S
C724 C723 1.524 . S
C725 C722 1.403 . S
C725 C726 1.392 . S
C725 C729 1.495 . S
C726 C725 1.392 . S
C726 C727 1.385 . S
C726 C728 1.478 . S
C727 H721 0.930 . S
C727 C723 1.400 . S
C727 C726 1.385 . S
C728 C726 1.478 . S
C728 C730 1.381 . S
C728 C734 1.383 . S
C729 C725 1.495 . S
C729 H735 0.959 . S
C729 H736 0.961 . S
C729 H737 0.960 . S
C730 C728 1.381 . S
C730 C731 1.394 . S
C730 H738 0.930 . S
C731 C730 1.394 . S
C731 C732 1.383 . S
C731 H739 0.929 . S
C732 C731 1.383 . S
C732 C733 1.377 . S
C733 H717 0.930 . S
C733 C732 1.377 . S
C733 C734 1.379 . S
C734 H718 0.931 . S
C734 C728 1.383 . S
C734 C733 1.379 . S
H735 C729 0.959 . S
H736 C729 0.961 . S
H737 C729 0.960 . S
H738 C730 0.930 . S
H739 C731 0.929 . S
H740 C748 0.929 . S
H741 C750 0.930 . S
H742 C752 0.930 . S
H743 C755 0.929 . S
H744 C758 0.930 . S
H745 C760 0.960 . S
H746 C760 0.960 . S
H747 C760 0.960 . S
C748 H740 0.929 . S
C748 C749 1.377 . S
C748 C750 1.384 . S
C749 C748 1.377 . S
C749 C755 1.390 . S
C750 H741 0.930 . S
C750 C748 1.384 . S
C750 C751 1.372 . S
C751 C750 1.372 . S
C751 C752 1.400 . S
C751 C756 1.490 . S
C752 H742 0.930 . S
C752 C751 1.400 . S
C752 C755 1.386 . S
H753 C769 0.930 . S
H754 C770 0.931 . S
C755 H743 0.929 . S
C755 C749 1.390 . S
C755 C752 1.386 . S
C756 C751 1.490 . S
C756 C758 1.395 . S
C756 C759 1.403 . S
H757 C763 0.930 . S
C758 H744 0.930 . S
C758 C756 1.395 . S
C758 C761 1.403 . S
C759 C756 1.403 . S
C759 C760 1.524 . S
C759 C763 1.400 . S
C760 H745 0.960 . S
C760 H746 0.960 . S
C760 H747 0.960 . S
C760 C759 1.524 . S
C761 C758 1.403 . S
C761 C762 1.392 . S
C761 C765 1.495 . S
C762 C761 1.392 . S
C762 C763 1.385 . S
C762 C764 1.478 . S
C763 H757 0.930 . S
C763 C759 1.400 . S
C763 C762 1.385 . S
C764 C762 1.478 . S
C764 C766 1.381 . S
C764 C770 1.383 . S
C765 C761 1.495 . S
C765 H771 0.959 . S
C765 H772 0.961 . S
C765 H773 0.960 . S
C766 C764 1.381 . S
C766 C767 1.394 . S
C766 H774 0.930 . S
C767 C766 1.394 . S
C767 C768 1.383 . S
C767 H775 0.929 . S
C768 C767 1.383 . S
C768 C769 1.377 . S
C769 H753 0.930 . S
C769 C768 1.377 . S
C769 C770 1.379 . S
C770 H754 0.931 . S
C770 C764 1.383 . S
C770 C769 1.379 . S
H771 C765 0.959 . S
H772 C765 0.961 . S
H773 C765 0.960 . S
H774 C766 0.930 . S
H775 C767 0.929 . S
H776 C784 0.929 . S
H777 C786 0.930 . S
H778 C788 0.930 . S
H779 C791 0.929 . S
H780 C794 0.930 . S
H781 C796 0.960 . S
H782 C796 0.960 . S
H783 C796 0.960 . S
C784 H776 0.929 . S
C784 C785 1.377 . S
C784 C786 1.384 . S
C785 C784 1.377 . S
C785 C791 1.390 . S
C786 H777 0.930 . S
C786 C784 1.384 . S
C786 C787 1.372 . S
C787 C786 1.372 . S
C787 C788 1.400 . S
C787 C792 1.490 . S
C788 H778 0.930 . S
C788 C787 1.400 . S
C788 C791 1.386 . S
H789 C805 0.930 . S
H790 C806 0.931 . S
C791 H779 0.929 . S
C791 C785 1.390 . S
C791 C788 1.386 . S
C792 C787 1.490 . S
C792 C794 1.395 . S
C792 C795 1.403 . S
H793 C799 0.930 . S
C794 H780 0.930 . S
C794 C792 1.395 . S
C794 C797 1.403 . S
C795 C792 1.403 . S
C795 C796 1.524 . S
C795 C799 1.400 . S
C796 H781 0.960 . S
C796 H782 0.960 . S
C796 H783 0.960 . S
C796 C795 1.524 . S
C797 C794 1.403 . S
C797 C798 1.392 . S
C797 C801 1.495 . S
C798 C797 1.392 . S
C798 C799 1.385 . S
C798 C800 1.478 . S
C799 H793 0.930 . S
C799 C795 1.400 . S
C799 C798 1.385 . S
C800 C798 1.478 . S
C800 C802 1.381 . S
C800 C806 1.383 . S
C801 C797 1.495 . S
C801 H807 0.959 . S
C801 H808 0.961 . S
C801 H809 0.960 . S
C802 C800 1.381 . S
C802 C803 1.394 . S
C802 H810 0.930 . S
C803 C802 1.394 . S
C803 C804 1.383 . S
C803 H811 0.929 . S
C804 C803 1.383 . S
C804 C805 1.377 . S
C805 H789 0.930 . S
C805 C804 1.377 . S
C805 C806 1.379 . S
C806 H790 0.931 . S
C806 C800 1.383 . S
C806 C805 1.379 . S
H807 C801 0.959 . S
H808 C801 0.961 . S
H809 C801 0.960 . S
H810 C802 0.930 . S
H811 C803 0.929 . S
H812 C820 0.929 . S
H813 C822 0.930 . S
H814 C824 0.930 . S
H815 C827 0.929 . S
H816 C830 0.930 . S
H817 C832 0.960 . S
H818 C832 0.960 . S
H819 C832 0.960 . S
C820 H812 0.929 . S
C820 C821 1.377 . S
C820 C822 1.384 . S
C821 C820 1.377 . S
C821 C827 1.390 . S
C822 H813 0.930 . S
C822 C820 1.384 . S
C822 C823 1.372 . S
C823 C822 1.372 . S
C823 C824 1.400 . S
C823 C828 1.490 . S
C824 H814 0.930 . S
C824 C823 1.400 . S
C824 C827 1.386 . S
H825 C841 0.930 . S
H826 C842 0.931 . S
C827 H815 0.929 . S
C827 C821 1.390 . S
C827 C824 1.386 . S
C828 C823 1.490 . S
C828 C830 1.395 . S
C828 C831 1.403 . S
H829 C835 0.930 . S
C830 H816 0.930 . S
C830 C828 1.395 . S
C830 C833 1.403 . S
C831 C828 1.403 . S
C831 C832 1.524 . S
C831 C835 1.400 . S
C832 H817 0.960 . S
C832 H818 0.960 . S
C832 H819 0.960 . S
C832 C831 1.524 . S
C833 C830 1.403 . S
C833 C834 1.392 . S
C833 C837 1.495 . S
C834 C833 1.392 . S
C834 C835 1.385 . S
C834 C836 1.478 . S
C835 H829 0.930 . S
C835 C831 1.400 . S
C835 C834 1.385 . S
C836 C834 1.478 . S
C836 C838 1.381 . S
C836 C842 1.383 . S
C837 C833 1.495 . S
C837 H843 0.959 . S
C837 H844 0.961 . S
C837 H845 0.960 . S
C838 C836 1.381 . S
C838 C839 1.394 . S
C838 H846 0.930 . S
C839 C838 1.394 . S
C839 C840 1.383 . S
C839 H847 0.929 . S
C840 C839 1.383 . S
C840 C841 1.377 . S
C841 H825 0.930 . S
C841 C840 1.377 . S
C841 C842 1.379 . S
C842 H826 0.931 . S
C842 C836 1.383 . S
C842 C841 1.379 . S
H843 C837 0.959 . S
H844 C837 0.961 . S
H845 C837 0.960 . S
H846 C838 0.930 . S
H847 C839 0.929 . S
H848 C856 0.929 . S
H849 C858 0.930 . S
H850 C860 0.930 . S
H851 C863 0.929 . S
H852 C866 0.930 . S
H853 C868 0.960 . S
H854 C868 0.960 . S
H855 C868 0.960 . S
C856 H848 0.929 . S
C856 C857 1.377 . S
C856 C858 1.384 . S
C857 C856 1.377 . S
C857 C863 1.390 . S
C858 H849 0.930 . S
C858 C856 1.384 . S
C858 C859 1.372 . S
C859 C858 1.372 . S
C859 C860 1.400 . S
C859 C864 1.490 . S
C860 H850 0.930 . S
C860 C859 1.400 . S
C860 C863 1.386 . S
H861 C877 0.930 . S
H862 C878 0.931 . S
C863 H851 0.929 . S
C863 C857 1.390 . S
C863 C860 1.386 . S
C864 C859 1.490 . S
C864 C866 1.395 . S
C864 C867 1.403 . S
H865 C871 0.930 . S
C866 H852 0.930 . S
C866 C864 1.395 . S
C866 C869 1.403 . S
C867 C864 1.403 . S
C867 C868 1.524 . S
C867 C871 1.400 . S
C868 H853 0.960 . S
C868 H854 0.960 . S
C868 H855 0.960 . S
C868 C867 1.524 . S
C869 C866 1.403 . S
C869 C870 1.392 . S
C869 C873 1.495 . S
C870 C869 1.392 . S
C870 C871 1.385 . S
C870 C872 1.478 . S
C871 H865 0.930 . S
C871 C867 1.400 . S
C871 C870 1.385 . S
C872 C870 1.478 . S
C872 C874 1.381 . S
C872 C878 1.383 . S
C873 C869 1.495 . S
C873 H879 0.959 . S
C873 H880 0.961 . S
C873 H881 0.960 . S
C874 C872 1.381 . S
C874 C875 1.394 . S
C874 H882 0.930 . S
C875 C874 1.394 . S
C875 C876 1.383 . S
C875 H883 0.929 . S
C876 C875 1.383 . S
C876 C877 1.377 . S
C877 H861 0.930 . S
C877 C876 1.377 . S
C877 C878 1.379 . S
C878 H862 0.931 . S
C878 C872 1.383 . S
C878 C877 1.379 . S
H879 C873 0.959 . S
H880 C873 0.961 . S
H881 C873 0.960 . S
H882 C874 0.930 . S
H883 C875 0.929 . S
H884 C892 0.929 . S
H885 C894 0.930 . S
H886 C896 0.930 . S
H887 C899 0.929 . S
H888 C902 0.930 . S
H889 C904 0.960 . S
H890 C904 0.960 . S
H891 C904 0.960 . S
C892 H884 0.929 . S
C892 C893 1.377 . S
C892 C894 1.384 . S
C893 C892 1.377 . S
C893 C899 1.390 . S
C894 H885 0.930 . S
C894 C892 1.384 . S
C894 C895 1.372 . S
C895 C894 1.372 . S
C895 C896 1.400 . S
C895 C900 1.490 . S
C896 H886 0.930 . S
C896 C895 1.400 . S
C896 C899 1.386 . S
H897 C913 0.930 . S
H898 C914 0.931 . S
C899 H887 0.929 . S
C899 C893 1.390 . S
C899 C896 1.386 . S
C900 C895 1.490 . S
C900 C902 1.395 . S
C900 C903 1.403 . S
H901 C907 0.930 . S
C902 H888 0.930 . S
C902 C900 1.395 . S
C902 C905 1.403 . S
C903 C900 1.403 . S
C903 C904 1.524 . S
C903 C907 1.400 . S
C904 H889 0.960 . S
C904 H890 0.960 . S
C904 H891 0.960 . S
C904 C903 1.524 . S
C905 C902 1.403 . S
C905 C906 1.392 . S
C905 C909 1.495 . S
C906 C905 1.392 . S
C906 C907 1.385 . S
C906 C908 1.478 . S
C907 H901 0.930 . S
C907 C903 1.400 . S
C907 C906 1.385 . S
C908 C906 1.478 . S
C908 C910 1.381 . S
C908 C914 1.383 . S
C909 C905 1.495 . S
C909 H915 0.959 . S
C909 H916 0.961 . S
C909 H917 0.960 . S
C910 C908 1.381 . S
C910 C911 1.394 . S
C910 H918 0.930 . S
C911 C910 1.394 . S
C911 C912 1.383 . S
C911 H919 0.929 . S
C912 C911 1.383 . S
C912 C913 1.377 . S
C913 H897 0.930 . S
C913 C912 1.377 . S
C913 C914 1.379 . S
C914 H898 0.931 . S
C914 C908 1.383 . S
C914 C913 1.379 . S
H915 C909 0.959 . S
H916 C909 0.961 . S
H917 C909 0.960 . S
H918 C910 0.930 . S
H919 C911 0.929 . S
H920 C928 0.929 . S
H921 C930 0.930 . S
H922 C932 0.930 . S
H923 C935 0.929 . S
H924 C938 0.930 . S
H925 C940 0.960 . S
H926 C940 0.960 . S
H927 C940 0.960 . S
C928 H920 0.929 . S
C928 C929 1.377 . S
C928 C930 1.384 . S
C929 C928 1.377 . S
C929 C935 1.390 . S
C930 H921 0.930 . S
C930 C928 1.384 . S
C930 C931 1.372 . S
C931 C930 1.372 . S
C931 C932 1.400 . S
C931 C936 1.490 . S
C932 H922 0.930 . S
C932 C931 1.400 . S
C932 C935 1.386 . S
H933 C949 0.930 . S
H934 C950 0.931 . S
C935 H923 0.929 . S
C935 C929 1.390 . S
C935 C932 1.386 . S
C936 C931 1.490 . S
C936 C938 1.395 . S
C936 C939 1.403 . S
H937 C943 0.930 . S
C938 H924 0.930 . S
C938 C936 1.395 . S
C938 C941 1.403 . S
C939 C936 1.403 . S
C939 C940 1.524 . S
C939 C943 1.400 . S
C940 H925 0.960 . S
C940 H926 0.960 . S
C940 H927 0.960 . S
C940 C939 1.524 . S
C941 C938 1.403 . S
C941 C942 1.392 . S
C941 C945 1.495 . S
C942 C941 1.392 . S
C942 C943 1.385 . S
C942 C944 1.478 . S
C943 H937 0.930 . S
C943 C939 1.400 . S
C943 C942 1.385 . S
C944 C942 1.478 . S
C944 C946 1.381 . S
C944 C950 1.383 . S
C945 C941 1.495 . S
C945 H951 0.959 . S
C945 H952 0.961 . S
C945 H953 0.960 . S
C946 C944 1.381 . S
C946 C947 1.394 . S
C946 H954 0.930 . S
C947 C946 1.394 . S
C947 C948 1.383 . S
C947 H955 0.929 . S
C948 C947 1.383 . S
C948 C949 1.377 . S
C949 H933 0.930 . S
C949 C948 1.377 . S
C949 C950 1.379 . S
C950 H934 0.931 . S
C950 C944 1.383 . S
C950 C949 1.379 . S
H951 C945 0.959 . S
H952 C945 0.961 . S
H953 C945 0.960 . S
H954 C946 0.930 . S
H955 C947 0.929 . S
H956 C964 0.929 . S
H957 C966 0.930 . S
H958 C968 0.930 . S
H959 C971 0.929 . S
H960 C974 0.930 . S
H961 C976 0.960 . S
H962 C976 0.960 . S
H963 C976 0.960 . S
C964 H956 0.929 . S
C964 C965 1.377 . S
C964 C966 1.384 . S
C965 C964 1.377 . S
C965 C971 1.390 . S
C966 H957 0.930 . S
C966 C964 1.384 . S
C966 C967 1.372 . S
C967 C966 1.372 . S
C967 C968 1.400 . S
C967 C972 1.490 . S
C968 H958 0.930 . S
C968 C967 1.400 . S
C968 C971 1.386 . S
H969 C985 0.930 . S
H970 C986 0.931 . S
C971 H959 0.929 . S
C971 C965 1.390 . S
C971 C968 1.386 . S
C972 C967 1.490 . S
C972 C974 1.395 . S
C972 C975 1.403 . S
H973 C979 0.930 . S
C974 H960 0.930 . S
C974 C972 1.395 . S
C974 C977 1.403 . S
C975 C972 1.403 . S
C975 C976 1.524 . S
C975 C979 1.400 . S
C976 H961 0.960 . S
C976 H962 0.960 . S
C976 H963 0.960 . S
C976 C975 1.524 . S
C977 C974 1.403 . S
C977 C978 1.392 . S
C977 C981 1.495 . S
C978 C977 1.392 . S
C978 C979 1.385 . S
C978 C980 1.478 . S
C979 H973 0.930 . S
C979 C975 1.400 . S
C979 C978 1.385 . S
C980 C978 1.478 . S
C980 C982 1.381 . S
C980 C986 1.383 . S
C981 C977 1.495 . S
C981 H987 0.959 . S
C981 H988 0.961 . S
C981 H989 0.960 . S
C982 C980 1.381 . S
C982 C983 1.394 . S
C982 H990 0.930 . S
C983 C982 1.394 . S
C983 C984 1.383 . S
C983 H991 0.929 . S
C984 C983 1.383 . S
C984 C985 1.377 . S
C985 H969 0.930 . S
C985 C984 1.377 . S
C985 C986 1.379 . S
C986 H970 0.931 . S
C986 C980 1.383 . S
C986 C985 1.379 . S
H987 C981 0.959 . S
H988 C981 0.961 . S
H989 C981 0.960 . S
H990 C982 0.930 . S
H991 C983 0.929 . S
H992 C1000 0.929 . S
H993 C1002 0.930 . S
H994 C1004 0.930 . S
H995 C1007 0.929 . S
H996 C1010 0.930 . S
H997 C1012 0.960 . S
H998 C1012 0.960 . S
H999 C1012 0.960 . S
C1000 H992 0.929 . S
C1000 C1001 1.377 . S
C1000 C1002 1.384 . S
C1001 C1000 1.377 . S
C1001 C1007 1.390 . S
C1002 H993 0.930 . S
C1002 C1000 1.384 . S
C1002 C1003 1.372 . S
C1003 C1002 1.372 . S
C1003 C1004 1.400 . S
C1003 C1008 1.490 . S
C1004 H994 0.930 . S
C1004 C1003 1.400 . S
C1004 C1007 1.386 . S
H1005 C1021 0.930 . S
H1006 C1022 0.931 . S
C1007 H995 0.929 . S
C1007 C1001 1.390 . S
C1007 C1004 1.386 . S
C1008 C1003 1.490 . S
C1008 C1010 1.395 . S
C1008 C1011 1.403 . S
H1009 C1015 0.930 . S
C1010 H996 0.930 . S
C1010 C1008 1.395 . S
C1010 C1013 1.403 . S
C1011 C1008 1.403 . S
C1011 C1012 1.524 . S
C1011 C1015 1.400 . S
C1012 H997 0.960 . S
C1012 H998 0.960 . S
C1012 H999 0.960 . S
C1012 C1011 1.524 . S
C1013 C1010 1.403 . S
C1013 C1014 1.392 . S
C1013 C1017 1.495 . S
C1014 C1013 1.392 . S
C1014 C1015 1.385 . S
C1014 C1016 1.478 . S
C1015 H1009 0.930 . S
C1015 C1011 1.400 . S
C1015 C1014 1.385 . S
C1016 C1014 1.478 . S
C1016 C1018 1.381 . S
C1016 C1022 1.383 . S
C1017 C1013 1.495 . S
C1017 H1023 0.959 . S
C1017 H1024 0.961 . S
C1017 H1025 0.960 . S
C1018 C1016 1.381 . S
C1018 C1019 1.394 . S
C1018 H1026 0.930 . S
C1019 C1018 1.394 . S
C1019 C1020 1.383 . S
C1019 H1027 0.929 . S
C1020 C1019 1.383 . S
C1020 C1021 1.377 . S
C1021 H1005 0.930 . S
C1021 C1020 1.377 . S
C1021 C1022 1.379 . S
C1022 H1006 0.931 . S
C1022 C1016 1.383 . S
C1022 C1021 1.379 . S
H1023 C1017 0.959 . S
H1024 C1017 0.961 . S
H1025 C1017 0.960 . S
H1026 C1018 0.930 . S
H1027 C1019 0.929 . S
H1028 C1036 0.929 . S
H1029 C1038 0.930 . S
H1030 C1040 0.930 . S
H1031 C1043 0.929 . S
H1032 C1046 0.930 . S
H1033 C1048 0.960 . S
H1034 C1048 0.960 . S
H1035 C1048 0.960 . S
C1036 H1028 0.929 . S
C1036 C1037 1.377 . S
C1036 C1038 1.384 . S
C1037 C1036 1.377 . S
C1037 C1043 1.390 . S
C1038 H1029 0.930 . S
C1038 C1036 1.384 . S
C1038 C1039 1.372 . S
C1039 C1038 1.372 . S
C1039 C1040 1.400 . S
C1039 C1044 1.490 . S
C1040 H1030 0.930 . S
C1040 C1039 1.400 . S
C1040 C1043 1.386 . S
H1041 C1057 0.930 . S
H1042 C1058 0.931 . S
C1043 H1031 0.929 . S
C1043 C1037 1.390 . S
C1043 C1040 1.386 . S
C1044 C1039 1.490 . S
C1044 C1046 1.395 . S
C1044 C1047 1.403 . S
H1045 C1051 0.930 . S
C1046 H1032 0.930 . S
C1046 C1044 1.395 . S
C1046 C1049 1.403 . S
C1047 C1044 1.403 . S
C1047 C1048 1.524 . S
C1047 C1051 1.400 . S
C1048 H1033 0.960 . S
C1048 H1034 0.960 . S
C1048 H1035 0.960 . S
C1048 C1047 1.524 . S
C1049 C1046 1.403 . S
C1049 C1050 1.392 . S
C1049 C1053 1.495 . S
C1050 C1049 1.392 . S
C1050 C1051 1.385 . S
C1050 C1052 1.478 . S
C1051 H1045 0.930 . S
C1051 C1047 1.400 . S
C1051 C1050 1.385 . S
C1052 C1050 1.478 . S
C1052 C1054 1.381 . S
C1052 C1058 1.383 . S
C1053 C1049 1.495 . S
C1053 H1059 0.959 . S
C1053 H1060 0.961 . S
C1053 H1061 0.960 . S
C1054 C1052 1.381 . S
C1054 C1055 1.394 . S
C1054 H1062 0.930 . S
C1055 C1054 1.394 . S
C1055 C1056 1.383 . S
C1055 H1063 0.929 . S
C1056 C1055 1.383 . S
C1056 C1057 1.377 . S
C1057 H1041 0.930 . S
C1057 C1056 1.377 . S
C1057 C1058 1.379 . S
C1058 H1042 0.931 . S
C1058 C1052 1.383 . S
C1058 C1057 1.379 . S
H1059 C1053 0.959 . S
H1060 C1053 0.961 . S
H1061 C1053 0.960 . S
H1062 C1054 0.930 . S
H1063 C1055 0.929 . S
C209 C45 1.579 . S
C228 C108 1.575 . S
C245 C30 1.575 . S
C264 C120 1.573 . S
C281 C39 1.579 . S
C300 C132 1.577 . S
C336 C144 1.567 . S
C317 C34 1.578 . S
C353 C97 1.576 . S
C372 C156 1.568 . S
C408 C168 1.578 . S
C389 C82 1.576 . S
C444 C180 1.584 . S
C425 C91 1.579 . S
C480 C192 1.586 . S
C461 C86 1.579 . S
C516 C185 1.528 . S
C497 C26 1.497 . S
C552 C194 1.489 . S
C533 C36 1.468 . S
C588 C158 1.527 . S
C569 C32 1.491 . S
C624 C173 1.577 . S
C605 C42 1.533 . S
C641 C18 1.576 . S
C660 C170 1.642 . S
C696 C182 1.654 . S
C677 C50 1.589 . S
C713 C4 1.623 . S
C732 C197 1.657 . S
C749 C48 1.601 . S
C768 C161 1.659 . S
C804 C137 1.551 . S
C785 C78 1.526 . S
C821 C88 1.479 . S
C840 C146 1.514 . S
C876 C110 1.549 . S
C857 C84 1.522 . S
C912 C122 1.484 . S
C893 C94 1.447 . S
C948 C125 1.710 . S
C929 C70 1.664 . S
C984 C134 1.638 . S
C965 C102 1.568 . S
C1001 C56 1.612 . S
C1020 C149 1.668 . S
C1037 C100 1.582 . S
C1056 C113 1.640 . S
