# Generated by pormake.
# Topology eea, (3,6)-cn, num edge types: 1
# Building blocks:
#     Node 0, Type 0, BuildingBlock: MIDCAF_clean_linker_0, # of connection points: 3
#     Node 1, Type 0, BuildingBlock: MIDCAF_clean_linker_0, # of connection points: 3
#     Node 2, Type 0, BuildingBlock: MIDCAF_clean_linker_0, # of connection points: 3
#     Node 3, Type 0, BuildingBlock: MIDCAF_clean_linker_0, # of connection points: 3
#     Node 4, Type 0, BuildingBlock: MIDCAF_clean_linker_0, # of connection points: 3
#     Node 5, Type 0, BuildingBlock: MIDCAF_clean_linker_0, # of connection points: 3
#     Node 6, Type 0, BuildingBlock: MIDCAF_clean_linker_0, # of connection points: 3
#     Node 7, Type 0, BuildingBlock: MIDCAF_clean_linker_0, # of connection points: 3
#     Node 8, Type 0, BuildingBlock: MIDCAF_clean_linker_0, # of connection points: 3
#     Node 9, Type 0, BuildingBlock: MIDCAF_clean_linker_0, # of connection points: 3
#     Node 10, Type 0, BuildingBlock: MIDCAF_clean_linker_0, # of connection points: 3
#     Node 11, Type 0, BuildingBlock: MIDCAF_clean_linker_0, # of connection points: 3
#     Node 12, Type 0, BuildingBlock: MIDCAF_clean_linker_0, # of connection points: 3
#     Node 13, Type 0, BuildingBlock: MIDCAF_clean_linker_0, # of connection points: 3
#     Node 14, Type 0, BuildingBlock: MIDCAF_clean_linker_0, # of connection points: 3
#     Node 15, Type 0, BuildingBlock: MIDCAF_clean_linker_0, # of connection points: 3
#     Node 16, Type 0, BuildingBlock: MIDCAF_clean_linker_0, # of connection points: 3
#     Node 17, Type 0, BuildingBlock: MIDCAF_clean_linker_0, # of connection points: 3
#     Node 18, Type 1, BuildingBlock: KUMBOL_clean_sbu_0, # of connection points: 6
#     Node 19, Type 1, BuildingBlock: KUMBOL_clean_sbu_0, # of connection points: 6
#     Node 20, Type 1, BuildingBlock: KUMBOL_clean_sbu_0, # of connection points: 6
#     Node 21, Type 1, BuildingBlock: KUMBOL_clean_sbu_0, # of connection points: 6
#     Node 22, Type 1, BuildingBlock: KUMBOL_clean_sbu_0, # of connection points: 6
#     Node 23, Type 1, BuildingBlock: KUMBOL_clean_sbu_0, # of connection points: 6
#     Node 24, Type 1, BuildingBlock: KUMBOL_clean_sbu_0, # of connection points: 6
#     Node 25, Type 1, BuildingBlock: KUMBOL_clean_sbu_0, # of connection points: 6
#     Node 26, Type 1, BuildingBlock: KUMBOL_clean_sbu_0, # of connection points: 6
#     Edge 27, Type (0, 1), BuildingBlock: CIFDUS_clean_linker_0, # of connection points: 2
#     Edge 28, Type (0, 1), BuildingBlock: CIFDUS_clean_linker_0, # of connection points: 2
#     Edge 29, Type (0, 1), BuildingBlock: CIFDUS_clean_linker_0, # of connection points: 2
#     Edge 30, Type (0, 1), BuildingBlock: CIFDUS_clean_linker_0, # of connection points: 2
#     Edge 31, Type (0, 1), BuildingBlock: CIFDUS_clean_linker_0, # of connection points: 2
#     Edge 32, Type (0, 1), BuildingBlock: CIFDUS_clean_linker_0, # of connection points: 2
#     Edge 33, Type (0, 1), BuildingBlock: CIFDUS_clean_linker_0, # of connection points: 2
#     Edge 34, Type (0, 1), BuildingBlock: CIFDUS_clean_linker_0, # of connection points: 2
#     Edge 35, Type (0, 1), BuildingBlock: CIFDUS_clean_linker_0, # of connection points: 2
#     Edge 36, Type (0, 1), BuildingBlock: CIFDUS_clean_linker_0, # of connection points: 2
#     Edge 37, Type (0, 1), BuildingBlock: CIFDUS_clean_linker_0, # of connection points: 2
#     Edge 38, Type (0, 1), BuildingBlock: CIFDUS_clean_linker_0, # of connection points: 2
#     Edge 39, Type (0, 1), BuildingBlock: CIFDUS_clean_linker_0, # of connection points: 2
#     Edge 40, Type (0, 1), BuildingBlock: CIFDUS_clean_linker_0, # of connection points: 2
#     Edge 41, Type (0, 1), BuildingBlock: CIFDUS_clean_linker_0, # of connection points: 2
#     Edge 42, Type (0, 1), BuildingBlock: CIFDUS_clean_linker_0, # of connection points: 2
#     Edge 43, Type (0, 1), BuildingBlock: CIFDUS_clean_linker_0, # of connection points: 2
#     Edge 44, Type (0, 1), BuildingBlock: CIFDUS_clean_linker_0, # of connection points: 2
#     Edge 45, Type (0, 1), BuildingBlock: CIFDUS_clean_linker_0, # of connection points: 2
#     Edge 46, Type (0, 1), BuildingBlock: CIFDUS_clean_linker_0, # of connection points: 2
#     Edge 47, Type (0, 1), BuildingBlock: CIFDUS_clean_linker_0, # of connection points: 2
#     Edge 48, Type (0, 1), BuildingBlock: CIFDUS_clean_linker_0, # of connection points: 2
#     Edge 49, Type (0, 1), BuildingBlock: CIFDUS_clean_linker_0, # of connection points: 2
#     Edge 50, Type (0, 1), BuildingBlock: CIFDUS_clean_linker_0, # of connection points: 2
#     Edge 51, Type (0, 1), BuildingBlock: CIFDUS_clean_linker_0, # of connection points: 2
#     Edge 52, Type (0, 1), BuildingBlock: CIFDUS_clean_linker_0, # of connection points: 2
#     Edge 53, Type (0, 1), BuildingBlock: CIFDUS_clean_linker_0, # of connection points: 2
#     Edge 54, Type (0, 1), BuildingBlock: CIFDUS_clean_linker_0, # of connection points: 2
#     Edge 55, Type (0, 1), BuildingBlock: CIFDUS_clean_linker_0, # of connection points: 2
#     Edge 56, Type (0, 1), BuildingBlock: CIFDUS_clean_linker_0, # of connection points: 2
#     Edge 57, Type (0, 1), BuildingBlock: CIFDUS_clean_linker_0, # of connection points: 2
#     Edge 58, Type (0, 1), BuildingBlock: CIFDUS_clean_linker_0, # of connection points: 2
#     Edge 59, Type (0, 1), BuildingBlock: CIFDUS_clean_linker_0, # of connection points: 2
#     Edge 60, Type (0, 1), BuildingBlock: CIFDUS_clean_linker_0, # of connection points: 2
#     Edge 61, Type (0, 1), BuildingBlock: CIFDUS_clean_linker_0, # of connection points: 2
#     Edge 62, Type (0, 1), BuildingBlock: CIFDUS_clean_linker_0, # of connection points: 2
#     Edge 63, Type (0, 1), BuildingBlock: CIFDUS_clean_linker_0, # of connection points: 2
#     Edge 64, Type (0, 1), BuildingBlock: CIFDUS_clean_linker_0, # of connection points: 2
#     Edge 65, Type (0, 1), BuildingBlock: CIFDUS_clean_linker_0, # of connection points: 2
#     Edge 66, Type (0, 1), BuildingBlock: CIFDUS_clean_linker_0, # of connection points: 2
#     Edge 67, Type (0, 1), BuildingBlock: CIFDUS_clean_linker_0, # of connection points: 2
#     Edge 68, Type (0, 1), BuildingBlock: CIFDUS_clean_linker_0, # of connection points: 2
#     Edge 69, Type (0, 1), BuildingBlock: CIFDUS_clean_linker_0, # of connection points: 2
#     Edge 70, Type (0, 1), BuildingBlock: CIFDUS_clean_linker_0, # of connection points: 2
#     Edge 71, Type (0, 1), BuildingBlock: CIFDUS_clean_linker_0, # of connection points: 2
#     Edge 72, Type (0, 1), BuildingBlock: CIFDUS_clean_linker_0, # of connection points: 2
#     Edge 73, Type (0, 1), BuildingBlock: CIFDUS_clean_linker_0, # of connection points: 2
#     Edge 74, Type (0, 1), BuildingBlock: CIFDUS_clean_linker_0, # of connection points: 2
#     Edge 75, Type (0, 1), BuildingBlock: CIFDUS_clean_linker_0, # of connection points: 2
#     Edge 76, Type (0, 1), BuildingBlock: CIFDUS_clean_linker_0, # of connection points: 2
#     Edge 77, Type (0, 1), BuildingBlock: CIFDUS_clean_linker_0, # of connection points: 2
#     Edge 78, Type (0, 1), BuildingBlock: CIFDUS_clean_linker_0, # of connection points: 2
#     Edge 79, Type (0, 1), BuildingBlock: CIFDUS_clean_linker_0, # of connection points: 2
#     Edge 80, Type (0, 1), BuildingBlock: CIFDUS_clean_linker_0, # of connection points: 2
# Relax obj value: 0.009
# Max RMSD: 0.092
# Mean RMSD: 0.066
data_MOF--net-eea--node1-KUMBOL_clean_sbu_0--node2-MIDCAF_clean_linker_0--edge1-CIFDUS_clean_linker_0
_symmetry_space_group_name_H-M    P1
_symmetry_Int_Tables_number       1
_symmetry_cell_setting            triclinic
loop_
_symmetry_equiv_pos_as_xyz
'x, y, z'
_cell_length_a     55.639636
_cell_length_b     56.912847
_cell_length_c     80.305293
_cell_angle_alpha  90.071614
_cell_angle_beta   90.027146
_cell_angle_gamma 119.94413
loop_
_atom_site_label
_atom_site_type_symbol
_atom_site_fract_x
_atom_site_fract_y
_atom_site_fract_z
_atom_type_partial_charge
C0 C 0.27291 0.05344 0.40743 0.0
C1 C 0.25486 0.04294 0.3937 0.0
C2 C 0.24467 0.05877 0.38649 0.0
C3 C 0.25167 0.08409 0.39316 0.0
H4 H 0.26426 0.16108 0.38119 0.0
H5 H 0.25191 0.19068 0.36618 0.0
H6 H 0.2595 0.23449 0.41163 0.0
H7 H 0.27158 0.20474 0.4268 0.0
H8 H 0.3036 0.19238 0.45886 0.0
H9 H 0.31482 0.19727 0.48864 0.0
H10 H 0.29176 0.1128 0.49093 0.0
H11 H 0.2806 0.1078 0.46147 0.0
H12 H 0.29308 0.08575 0.42502 0.0
H13 H 0.2817 0.04213 0.41306 0.0
H14 H 0.23046 0.05122 0.37604 0.0
H15 H 0.24287 0.09543 0.38759 0.0
N16 N 0.27025 0.13796 0.40697 0.0
N17 N 0.28104 0.16487 0.43105 0.0
N18 N 0.28108 0.12371 0.43175 0.0
C19 C 0.27391 0.16084 0.41463 0.0
C20 C 0.28464 0.14629 0.43969 0.0
C21 C 0.27395 0.11941 0.41543 0.0
C22 C 0.26867 0.18031 0.40528 0.0
C23 C 0.2635 0.17711 0.38802 0.0
C24 C 0.25659 0.19419 0.37935 0.0
C25 C 0.25455 0.21477 0.38774 0.0
C26 C 0.26055 0.21854 0.40488 0.0
C27 C 0.26761 0.20156 0.41355 0.0
C28 C 0.29128 0.14973 0.45773 0.0
C29 C 0.30084 0.17486 0.46574 0.0
C30 C 0.30735 0.17769 0.48276 0.0
C31 C 0.304 0.15537 0.4921 0.0
C32 C 0.29419 0.13027 0.48411 0.0
C33 C 0.28802 0.12751 0.46715 0.0
C34 C 0.26871 0.09395 0.40733 0.0
C35 C 0.27958 0.07854 0.41424 0.0
C36 C 0.99593 0.19361 0.41439 0.0
C37 C 0.99565 0.19534 0.39694 0.0
C38 C 0.97065 0.17993 0.38832 0.0
C39 C 0.9464 0.16269 0.39694 0.0
H40 H 0.88754 0.07868 0.39494 0.0
H41 H 0.85487 0.03826 0.37985 0.0
H42 H 0.78986 0.02689 0.41399 0.0
H43 H 0.82299 0.0669 0.42956 0.0
H44 H 0.85186 0.09134 0.46762 0.0
H45 H 0.83963 0.09911 0.49531 0.0
H46 H 0.90444 0.18296 0.49289 0.0
H47 H 0.91681 0.17529 0.46496 0.0
H48 H 0.97217 0.1756 0.43653 0.0
H49 H 0.01501 0.20555 0.42129 0.0
H50 H 0.96996 0.18099 0.37487 0.0
H51 H 0.92747 0.15082 0.3899 0.0
N52 N 0.90192 0.1189 0.41508 0.0
N53 N 0.87294 0.10535 0.43839 0.0
N54 N 0.91569 0.14607 0.4391 0.0
C55 C 0.87801 0.10068 0.42257 0.0
C56 C 0.89162 0.12796 0.44677 0.0
C57 C 0.92082 0.14157 0.42317 0.0
C58 C 0.85787 0.07603 0.41346 0.0
C59 C 0.86628 0.06761 0.39925 0.0
C60 C 0.84746 0.04448 0.3905 0.0
C61 C 0.81965 0.02936 0.39562 0.0
C62 C 0.81121 0.03783 0.40983 0.0
C63 C 0.83016 0.06083 0.41872 0.0
C64 C 0.8853 0.13272 0.46399 0.0
C65 C 0.86365 0.11146 0.47294 0.0
C66 C 0.85672 0.11584 0.4889 0.0
C67 C 0.87109 0.14163 0.49629 0.0
C68 C 0.89289 0.1629 0.48745 0.0
C69 C 0.90006 0.15845 0.4715 0.0
C70 C 0.94652 0.16089 0.41441 0.0
C71 C 0.97146 0.17672 0.42309 0.0
C72 C 0.79859 0.76262 0.41 0.0
C73 C 0.80341 0.77792 0.39542 0.0
C74 C 0.83012 0.79068 0.3884 0.0
C75 C 0.85134 0.78748 0.39558 0.0
H76 H 0.93862 0.80712 0.39234 0.0
H77 H 0.98038 0.81626 0.37673 0.0
H78 H 0.98132 0.74974 0.40176 0.0
H79 H 0.94025 0.74103 0.4177 0.0
H80 H 0.91182 0.72911 0.45593 0.0
H81 H 0.90151 0.70627 0.48288 0.0
H82 H 0.83001 0.71647 0.48802 0.0
H83 H 0.84036 0.7395 0.4613 0.0
H84 H 0.81498 0.74749 0.42842 0.0
H85 H 0.77834 0.75284 0.41582 0.0
H86 H 0.83441 0.80257 0.37714 0.0
H87 H 0.87157 0.79717 0.38973 0.0
N88 N 0.89185 0.77347 0.40917 0.0
N89 N 0.90586 0.75539 0.43099 0.0
N90 N 0.8638 0.7553 0.4328 0.0
C91 C 0.91078 0.76754 0.41578 0.0
C92 C 0.88249 0.74943 0.43967 0.0
C93 C 0.86815 0.7672 0.41759 0.0
C94 C 0.93611 0.77336 0.40629 0.0
C95 C 0.94778 0.79449 0.39453 0.0
C96 C 0.97169 0.7998 0.38564 0.0
C97 C 0.98393 0.78362 0.38801 0.0
C98 C 0.97218 0.76242 0.39965 0.0
C99 C 0.94875 0.75754 0.40882 0.0
C100 C 0.87691 0.73614 0.45632 0.0
C101 C 0.89397 0.72663 0.46282 0.0
C102 C 0.88798 0.71339 0.47826 0.0
C103 C 0.8649 0.70949 0.48764 0.0
C104 C 0.84813 0.71939 0.48125 0.0
C105 C 0.854 0.73245 0.46581 0.0
C106 C 0.84635 0.77179 0.41008 0.0
C107 C 0.81975 0.7597 0.41727 0.0
C108 C 0.02477 0.22392 0.61427 0.0
C109 C 0.01567 0.20683 0.62828 0.0
C110 C 0.03183 0.19567 0.63382 0.0
C111 C 0.05667 0.20183 0.62571 0.0
H112 H 0.13225 0.19953 0.63175 0.0
H113 H 0.16924 0.19487 0.64533 0.0
H114 H 0.22649 0.2443 0.60701 0.0
H115 H 0.1901 0.24898 0.59353 0.0
H116 H 0.16996 0.26153 0.56185 0.0
H117 H 0.1822 0.28409 0.53507 0.0
H118 H 0.1027 0.27993 0.53243 0.0
H119 H 0.09006 0.25685 0.55946 0.0
H120 H 0.05557 0.24303 0.59531 0.0
H121 H 0.01268 0.2326 0.60953 0.0
H122 H 0.02548 0.18251 0.6446 0.0
H123 H 0.06867 0.19304 0.63043 0.0
N124 N 0.11158 0.22129 0.61071 0.0
N125 N 0.14118 0.23982 0.58776 0.0
N126 N 0.09794 0.23746 0.58764 0.0
C127 C 0.13617 0.22835 0.60312 0.0
C128 C 0.12232 0.24438 0.57984 0.0
C129 C 0.09233 0.22584 0.60308 0.0
C130 C 0.15806 0.22471 0.61153 0.0
C131 C 0.15273 0.20938 0.62623 0.0
C132 C 0.17387 0.20659 0.63397 0.0
C133 C 0.20089 0.21941 0.62733 0.0
C134 C 0.20606 0.23449 0.61261 0.0
C135 C 0.18501 0.23702 0.60481 0.0
C136 C 0.12901 0.25744 0.56303 0.0
C137 C 0.15489 0.26526 0.55566 0.0
C138 C 0.16204 0.27838 0.54024 0.0
C139 C 0.14359 0.28413 0.53161 0.0
C140 C 0.11738 0.27573 0.5387 0.0
C141 C 0.1102 0.26262 0.55425 0.0
C142 C 0.06578 0.21895 0.61168 0.0
C143 C 0.04934 0.22975 0.60603 0.0
C144 C 0.79299 0.8113 0.60523 0.0
C145 C 0.80375 0.81714 0.62153 0.0
C146 C 0.80837 0.8413 0.62911 0.0
C147 C 0.80246 0.8592 0.62063 0.0
H148 H 0.80982 0.93146 0.62599 0.0
H149 H 0.82142 0.97328 0.64035 0.0
H150 H 0.7927 0.99938 0.59809 0.0
H151 H 0.78039 0.95702 0.5837 0.0
H152 H 0.75177 0.9147 0.55319 0.0
H153 H 0.72917 0.90317 0.52602 0.0
H154 H 0.72822 0.82684 0.52692 0.0
H155 H 0.7512 0.83844 0.55388 0.0
H156 H 0.77881 0.82413 0.58419 0.0
H157 H 0.7895 0.79301 0.59895 0.0
H158 H 0.81621 0.84623 0.64173 0.0
H159 H 0.80623 0.87754 0.62698 0.0
N160 N 0.79206 0.89668 0.60276 0.0
N161 N 0.77412 0.90851 0.57993 0.0
N162 N 0.77304 0.86669 0.5803 0.0
C163 C 0.78658 0.91474 0.59515 0.0
C164 C 0.76726 0.88448 0.5724 0.0
C165 C 0.78544 0.87268 0.59551 0.0
C166 C 0.79406 0.94072 0.60363 0.0
C167 C 0.80595 0.94604 0.61966 0.0
C168 C 0.81283 0.97018 0.62791 0.0
C169 C 0.80807 0.98974 0.62039 0.0
C170 C 0.79634 0.98458 0.60433 0.0
C171 C 0.7894 0.96033 0.59604 0.0
C172 C 0.75343 0.87756 0.55581 0.0
C173 C 0.7468 0.89546 0.54762 0.0
C174 C 0.73367 0.88878 0.53205 0.0
C175 C 0.72687 0.86408 0.52425 0.0
C176 C 0.73348 0.84621 0.53244 0.0
C177 C 0.74656 0.85284 0.54799 0.0
C178 C 0.79166 0.85342 0.60434 0.0
C179 C 0.78698 0.82922 0.59673 0.0
C180 C 0.18004 0.96987 0.60713 0.0
C181 C 0.17381 0.97327 0.62363 0.0
C182 C 0.15017 0.952 0.63118 0.0
C183 C 0.13343 0.92781 0.62255 0.0
H184 H 0.06081 0.8549 0.62655 0.0
H185 H 0.02179 0.8175 0.64086 0.0
H186 H 0.0143 0.76328 0.60099 0.0
H187 H 0.05331 0.80048 0.58669 0.0
H188 H 0.08417 0.82727 0.55225 0.0
H189 H 0.0962 0.82081 0.52412 0.0
H190 H 0.17041 0.89939 0.52624 0.0
H191 H 0.15863 0.90584 0.55448 0.0
H192 H 0.1689 0.94386 0.58583 0.0
H193 H 0.19783 0.98598 0.60082 0.0
H194 H 0.14489 0.9538 0.64392 0.0
H195 H 0.11558 0.91181 0.62887 0.0
N196 N 0.10018 0.87749 0.60473 0.0
N197 N 0.09107 0.85031 0.58097 0.0
N198 N 0.12886 0.89472 0.58126 0.0
C199 C 0.08437 0.85345 0.59679 0.0
C200 C 0.11324 0.87083 0.57307 0.0
C201 C 0.12247 0.89825 0.59709 0.0
C202 C 0.06033 0.83078 0.60543 0.0
C203 C 0.05089 0.83501 0.62081 0.0
C204 C 0.02843 0.81361 0.629 0.0
C205 C 0.01502 0.7874 0.6221 0.0
C206 C 0.02442 0.78316 0.60675 0.0
C207 C 0.0467 0.80458 0.59848 0.0
C208 C 0.12042 0.86708 0.55575 0.0
C209 C 0.10307 0.84324 0.54677 0.0
C210 C 0.10987 0.83958 0.53055 0.0
C211 C 0.13428 0.85958 0.52288 0.0
C212 C 0.15161 0.88344 0.53182 0.0
C213 C 0.14474 0.88718 0.54802 0.0
C214 C 0.13987 0.92426 0.6061 0.0
C215 C 0.16331 0.9457 0.59848 0.0
C216 C 0.91798 0.3727 0.74539 0.0
C217 C 0.90672 0.3667 0.72927 0.0
C218 C 0.90127 0.38543 0.72113 0.0
C219 C 0.90704 0.40968 0.72898 0.0
H220 H 0.9027 0.48007 0.72357 0.0
H221 H 0.89053 0.51169 0.71111 0.0
H222 H 0.91425 0.55885 0.7565 0.0
H223 H 0.92711 0.52768 0.76886 0.0
H224 H 0.96264 0.51609 0.79636 0.0
H225 H 0.98738 0.52539 0.8229 0.0
H226 H 0.98104 0.44665 0.82093 0.0
H227 H 0.957 0.4375 0.79453 0.0
H228 H 0.93234 0.40058 0.76567 0.0
H229 H 0.92192 0.35849 0.75214 0.0
H230 H 0.89281 0.38148 0.70863 0.0
H231 H 0.90271 0.42372 0.72236 0.0
N232 N 0.91784 0.45886 0.74674 0.0
N233 N 0.9366 0.48778 0.76989 0.0
N234 N 0.93752 0.44716 0.76867 0.0
C235 C 0.92367 0.48218 0.75481 0.0
C236 C 0.9436 0.47029 0.77689 0.0
C237 C 0.9247 0.44122 0.75366 0.0
C238 C 0.91598 0.5013 0.74723 0.0
C239 C 0.90534 0.49716 0.73093 0.0
C240 C 0.89819 0.51523 0.72379 0.0
C241 C 0.90141 0.53782 0.73279 0.0
C242 C 0.91191 0.54189 0.74912 0.0
C243 C 0.91916 0.5239 0.75624 0.0
C244 C 0.95794 0.47612 0.79321 0.0
C245 C 0.96654 0.50078 0.8016 0.0
C246 C 0.98062 0.50609 0.81682 0.0
C247 C 0.9864 0.48686 0.82392 0.0
C248 C 0.97746 0.46213 0.81563 0.0
C249 C 0.96346 0.45684 0.80049 0.0
C250 C 0.91839 0.41566 0.74512 0.0
C251 C 0.92378 0.39684 0.7532 0.0
C252 C 0.64313 0.53085 0.73772 0.0
C253 C 0.65102 0.52127 0.72379 0.0
C254 C 0.63441 0.494 0.71907 0.0
C255 C 0.61015 0.47684 0.7279 0.0
H256 H 0.53339 0.40539 0.72211 0.0
H257 H 0.49683 0.36316 0.71002 0.0
H258 H 0.44569 0.35055 0.75326 0.0
H259 H 0.48171 0.39265 0.76523 0.0
H260 H 0.50189 0.42955 0.79402 0.0
H261 H 0.49013 0.44172 0.8204 0.0
H262 H 0.56669 0.51838 0.81974 0.0
H263 H 0.57891 0.50612 0.79302 0.0
H264 H 0.6137 0.52182 0.75728 0.0
H265 H 0.65571 0.55169 0.7418 0.0
H266 H 0.63993 0.48606 0.70838 0.0
H267 H 0.5977 0.45599 0.72382 0.0
N268 N 0.55662 0.44461 0.74407 0.0
N269 N 0.52824 0.43586 0.7674 0.0
N270 N 0.57134 0.47577 0.7663 0.0
C271 C 0.53252 0.42824 0.75221 0.0
C272 C 0.54737 0.45941 0.77461 0.0
C273 C 0.57616 0.46843 0.75101 0.0
C274 C 0.51063 0.40253 0.74467 0.0
C275 C 0.51435 0.39365 0.72904 0.0
C276 C 0.49343 0.36938 0.72212 0.0
C277 C 0.46831 0.35352 0.73067 0.0
C278 C 0.46459 0.36246 0.74624 0.0
C279 C 0.48545 0.38659 0.75315 0.0
C280 C 0.54131 0.46696 0.7912 0.0
C281 C 0.51641 0.44906 0.79938 0.0
C282 C 0.50953 0.45606 0.81454 0.0
C283 C 0.52727 0.48115 0.82206 0.0
C284 C 0.5526 0.49886 0.81424 0.0
C285 C 0.55953 0.49186 0.79891 0.0
C286 C 0.60218 0.48647 0.74181 0.0
C287 C 0.61912 0.51365 0.74667 0.0
C288 C 0.46566 0.10774 0.7366 0.0
C289 C 0.47434 0.12484 0.72263 0.0
C290 C 0.50193 0.13596 0.71721 0.0
C291 C 0.52029 0.12969 0.72545 0.0
H292 H 0.60508 0.08299 0.75973 0.0
H293 H 0.64639 0.08775 0.74624 0.0
H294 H 0.63822 0.13539 0.70722 0.0
H295 H 0.5967 0.13079 0.72076 0.0
H296 H 0.56651 0.06704 0.79195 0.0
H297 H 0.55053 0.04303 0.81843 0.0
H298 H 0.47732 0.05084 0.81585 0.0
H299 H 0.49286 0.07433 0.78943 0.0
H300 H 0.47637 0.08845 0.75563 0.0
H301 H 0.44466 0.09916 0.74124 0.0
H302 H 0.50919 0.14919 0.70646 0.0
H303 H 0.54135 0.1384 0.72091 0.0
N304 N 0.55474 0.11002 0.74134 0.0
N305 N 0.56375 0.09055 0.76461 0.0
N306 N 0.5233 0.09354 0.76359 0.0
C307 C 0.57146 0.10254 0.74937 0.0
C308 C 0.53974 0.08609 0.77186 0.0
C309 C 0.53054 0.1055 0.74838 0.0
C310 C 0.59734 0.1064 0.74134 0.0
C311 C 0.61201 0.09459 0.74831 0.0
C312 C 0.63567 0.09716 0.74051 0.0
C313 C 0.64548 0.11176 0.72557 0.0
C314 C 0.63124 0.12409 0.71875 0.0
C315 C 0.60736 0.12132 0.72649 0.0
C316 C 0.53093 0.07251 0.78839 0.0
C317 C 0.54703 0.06372 0.79704 0.0
C318 C 0.53796 0.05007 0.81229 0.0
C319 C 0.51252 0.04479 0.81923 0.0
C320 C 0.49676 0.0541 0.81075 0.0
C321 C 0.50581 0.06774 0.79557 0.0
C322 C 0.51151 0.11252 0.73945 0.0
C323 C 0.48399 0.10177 0.74493 0.0
C324 C 0.70825 0.57614 0.95061 0.0
C325 C 0.69822 0.55978 0.96486 0.0
C326 C 0.71163 0.54571 0.97022 0.0
C327 C 0.73495 0.54845 0.96167 0.0
H328 H 0.80767 0.53936 0.96592 0.0
H329 H 0.8442 0.53384 0.97934 0.0
H330 H 0.90012 0.57814 0.93924 0.0
H331 H 0.86405 0.58355 0.92582 0.0
H332 H 0.83752 0.58915 0.89125 0.0
H333 H 0.84673 0.61021 0.86374 0.0
H334 H 0.77716 0.62328 0.86956 0.0
H335 H 0.76796 0.60245 0.89699 0.0
H336 H 0.73815 0.59142 0.93104 0.0
H337 H 0.6982 0.587 0.94605 0.0
H338 H 0.70438 0.53298 0.98119 0.0
H339 H 0.745 0.53757 0.96617 0.0
N340 N 0.78825 0.56234 0.94522 0.0
N341 N 0.81549 0.57672 0.92095 0.0
N342 N 0.77431 0.57829 0.9223 0.0
C343 C 0.81136 0.56667 0.93673 0.0
C344 C 0.79703 0.58247 0.91359 0.0
C345 C 0.76962 0.56819 0.93805 0.0
C346 C 0.83282 0.56202 0.94478 0.0
C347 C 0.82772 0.54783 0.95993 0.0
C348 C 0.84858 0.54454 0.9676 0.0
C349 C 0.87511 0.55576 0.96042 0.0
C350 C 0.88003 0.56956 0.9452 0.0
C351 C 0.85919 0.57252 0.93745 0.0
C352 C 0.80208 0.59419 0.89648 0.0
C353 C 0.82409 0.5964 0.88667 0.0
C354 C 0.82929 0.60833 0.87083 0.0
C355 C 0.81278 0.61857 0.86447 0.0
C356 C 0.79051 0.61592 0.87415 0.0
C357 C 0.78517 0.60383 0.8899 0.0
C358 C 0.74495 0.56488 0.94738 0.0
C359 C 0.73112 0.57852 0.94194 0.0
C360 C 0.44698 0.13734 0.94022 0.0
C361 C 0.45707 0.1422 0.95669 0.0
C362 C 0.4582 0.1641 0.96544 0.0
C363 C 0.44944 0.18068 0.95798 0.0
H364 H 0.43317 0.24032 0.96943 0.0
H365 H 0.44184 0.28009 0.98556 0.0
H366 H 0.43188 0.31706 0.94115 0.0
H367 H 0.42334 0.27735 0.92489 0.0
H368 H 0.4076 0.24319 0.89069 0.0
H369 H 0.39013 0.23633 0.86222 0.0
H370 H 0.37849 0.15546 0.86238 0.0
H371 H 0.396 0.16221 0.89093 0.0
H372 H 0.43068 0.14972 0.92001 0.0
H373 H 0.4461 0.12078 0.93307 0.0
H374 H 0.46545 0.16818 0.97821 0.0
H375 H 0.4506 0.19728 0.96522 0.0
N376 N 0.43211 0.21505 0.94259 0.0
N377 N 0.41569 0.22856 0.91979 0.0
N378 N 0.42089 0.19011 0.91774 0.0
C379 C 0.42483 0.23241 0.93581 0.0
C380 C 0.41349 0.20736 0.91068 0.0
C381 C 0.43035 0.19395 0.93372 0.0
C382 C 0.42783 0.25571 0.94579 0.0
C383 C 0.43264 0.25682 0.96307 0.0
C384 C 0.43741 0.27953 0.97238 0.0
C385 C 0.43773 0.30174 0.96461 0.0
C386 C 0.43209 0.30033 0.94744 0.0
C387 C 0.42707 0.27752 0.93814 0.0
C388 C 0.40321 0.20324 0.89319 0.0
C389 C 0.40136 0.22391 0.88471 0.0
C390 C 0.39151 0.22007 0.86832 0.0
C391 C 0.38294 0.19537 0.86003 0.0
C392 C 0.38474 0.17466 0.86847 0.0
C393 C 0.39493 0.17861 0.88481 0.0
C394 C 0.43931 0.17588 0.94151 0.0
C395 C 0.43822 0.15399 0.93271 0.0
C396 C 0.85022 0.30562 0.94495 0.0
C397 C 0.84428 0.30993 0.96132 0.0
C398 C 0.81978 0.28975 0.96884 0.0
C399 C 0.80183 0.26585 0.96025 0.0
H400 H 0.71401 0.13958 0.92513 0.0
H401 H 0.67136 0.10611 0.93892 0.0
H402 H 0.67926 0.16692 0.97414 0.0
H403 H 0.72176 0.20036 0.96045 0.0
H404 H 0.7533 0.16317 0.89018 0.0
H405 H 0.7699 0.15605 0.86339 0.0
H406 H 0.84317 0.23498 0.86763 0.0
H407 H 0.82707 0.24202 0.89417 0.0
H408 H 0.83773 0.27926 0.9238 0.0
H409 H 0.8686 0.32087 0.93863 0.0
H410 H 0.81465 0.2922 0.98149 0.0
H411 H 0.7833 0.25073 0.96652 0.0
N412 N 0.76488 0.21687 0.94171 0.0
N413 N 0.75559 0.18865 0.91834 0.0
N414 N 0.79638 0.23102 0.9196 0.0
C415 C 0.74791 0.19323 0.93362 0.0
C416 C 0.77986 0.2076 0.9112 0.0
C417 C 0.78918 0.23587 0.93483 0.0
C418 C 0.72149 0.17274 0.94164 0.0
C419 C 0.70666 0.14587 0.93578 0.0
C420 C 0.68228 0.12662 0.94377 0.0
C421 C 0.67192 0.13381 0.95768 0.0
C422 C 0.68654 0.16073 0.9634 0.0
C423 C 0.71104 0.17988 0.95556 0.0
C424 C 0.78888 0.20308 0.89454 0.0
C425 C 0.77292 0.17903 0.88538 0.0
C426 C 0.78236 0.17499 0.86996 0.0
C427 C 0.80803 0.19483 0.8634 0.0
C428 C 0.82357 0.21903 0.87241 0.0
C429 C 0.81418 0.22309 0.88769 0.0
C430 C 0.80791 0.26147 0.94391 0.0
C431 C 0.83234 0.28173 0.93638 0.0
C432 C 0.57946 0.70094 0.08369 0.0
C433 C 0.57025 0.69462 0.06714 0.0
C434 C 0.56623 0.71337 0.05789 0.0
C435 C 0.57162 0.73801 0.065 0.0
H436 H 0.56669 0.8083 0.0568 0.0
H437 H 0.55529 0.83977 0.04314 0.0
H438 H 0.57859 0.88899 0.08769 0.0
H439 H 0.59063 0.85813 0.10117 0.0
H440 H 0.62718 0.85005 0.12828 0.0
H441 H 0.65146 0.86237 0.15496 0.0
H442 H 0.64505 0.78367 0.15771 0.0
H443 H 0.62054 0.77111 0.13125 0.0
H444 H 0.59205 0.72957 0.10355 0.0
H445 H 0.58223 0.68675 0.09128 0.0
H446 H 0.55939 0.70923 0.04505 0.0
H447 H 0.56859 0.75211 0.05749 0.0
N448 N 0.58105 0.78789 0.08129 0.0
N449 N 0.60032 0.81881 0.10343 0.0
N450 N 0.60082 0.77797 0.10408 0.0
C451 C 0.58719 0.81196 0.08844 0.0
C452 C 0.60724 0.80194 0.11132 0.0
C453 C 0.58777 0.77074 0.0891 0.0
C454 C 0.57972 0.83069 0.08008 0.0
C455 C 0.56939 0.82584 0.06369 0.0
C456 C 0.56272 0.84382 0.05587 0.0
C457 C 0.56614 0.86699 0.06428 0.0
C458 C 0.5762 0.87164 0.08072 0.0
C459 C 0.58297 0.85379 0.08849 0.0
C460 C 0.62184 0.80956 0.12758 0.0
C461 C 0.63087 0.83533 0.13457 0.0
C462 C 0.64494 0.84248 0.14981 0.0
C463 C 0.65014 0.82398 0.15842 0.0
C464 C 0.64106 0.79824 0.15146 0.0
C465 C 0.62712 0.79113 0.13623 0.0
C466 C 0.58123 0.74444 0.0815 0.0
C467 C 0.58495 0.72552 0.09076 0.0
C468 C 0.29951 0.878 0.07468 0.0
C469 C 0.30726 0.87091 0.05965 0.0
C470 C 0.29166 0.84402 0.05396 0.0
C471 C 0.26848 0.82484 0.06292 0.0
H472 H 0.19605 0.74878 0.05827 0.0
H473 H 0.16169 0.70549 0.04614 0.0
H474 H 0.11336 0.6858 0.0913 0.0
H475 H 0.1472 0.72897 0.10332 0.0
H476 H 0.16851 0.76631 0.13371 0.0
H477 H 0.15626 0.77747 0.16037 0.0
H478 H 0.22007 0.86115 0.15424 0.0
H479 H 0.23291 0.84985 0.12755 0.0
H480 H 0.2713 0.86525 0.09516 0.0
H481 H 0.31133 0.89843 0.07956 0.0
H482 H 0.29704 0.83795 0.0424 0.0
H483 H 0.25676 0.80438 0.05808 0.0
N484 N 0.21775 0.78735 0.08065 0.0
N485 N 0.19015 0.7759 0.10461 0.0
N486 N 0.23052 0.81833 0.10285 0.0
C487 C 0.19482 0.76919 0.0892 0.0
C488 C 0.20779 0.80031 0.11157 0.0
C489 C 0.23576 0.81198 0.0874 0.0
C490 C 0.1745 0.74255 0.08179 0.0
C491 C 0.17813 0.73523 0.06563 0.0
C492 C 0.15846 0.71033 0.05869 0.0
C493 C 0.13467 0.69218 0.06771 0.0
C494 C 0.13117 0.69944 0.08388 0.0
C495 C 0.15078 0.72423 0.09082 0.0
C496 C 0.20157 0.80721 0.12832 0.0
C497 C 0.18008 0.78712 0.13799 0.0
C498 C 0.17293 0.79354 0.15331 0.0
C499 C 0.1869 0.82029 0.1594 0.0
C500 C 0.20896 0.8403 0.14999 0.0
C501 C 0.21624 0.83384 0.13463 0.0
C502 C 0.26059 0.83205 0.0779 0.0
C503 C 0.27658 0.85885 0.0837 0.0
C504 C 0.12497 0.41857 0.07567 0.0
C505 C 0.1302 0.43479 0.06145 0.0
C506 C 0.15718 0.44809 0.05479 0.0
C507 C 0.17827 0.44479 0.06204 0.0
H508 H 0.26073 0.46445 0.05691 0.0
H509 H 0.30474 0.48038 0.04251 0.0
H510 H 0.32384 0.43113 0.07461 0.0
H511 H 0.27976 0.41511 0.08912 0.0
H512 H 0.24478 0.39734 0.12574 0.0
H513 H 0.23376 0.37279 0.15223 0.0
H514 H 0.15019 0.35892 0.14938 0.0
H515 H 0.16087 0.38296 0.12309 0.0
H516 H 0.141 0.40268 0.09387 0.0
H517 H 0.10454 0.40836 0.08126 0.0
H518 H 0.16184 0.46064 0.0438 0.0
H519 H 0.19873 0.45511 0.05649 0.0
N520 N 0.2198 0.43321 0.07621 0.0
N521 N 0.23452 0.41561 0.09793 0.0
N522 N 0.19027 0.41111 0.09868 0.0
C523 C 0.23968 0.4289 0.08307 0.0
C524 C 0.20981 0.40671 0.10586 0.0
C525 C 0.19499 0.4243 0.08391 0.0
C526 C 0.26659 0.4385 0.07426 0.0
C527 C 0.2742 0.45689 0.06092 0.0
C528 C 0.29951 0.46613 0.05266 0.0
C529 C 0.31779 0.45699 0.05737 0.0
C530 C 0.31008 0.43833 0.07055 0.0
C531 C 0.28489 0.42933 0.07896 0.0
C532 C 0.20373 0.39211 0.12212 0.0
C533 C 0.22404 0.38904 0.13075 0.0
C534 C 0.21779 0.3751 0.14601 0.0
C535 C 0.19102 0.3637 0.15291 0.0
C536 C 0.17089 0.36702 0.14433 0.0
C537 C 0.17713 0.38102 0.12922 0.0
C538 C 0.17293 0.42835 0.07621 0.0
C539 C 0.14602 0.41546 0.08297 0.0
C540 C 0.3628 0.88364 0.27622 0.0
C541 C 0.3529 0.86595 0.28994 0.0
C542 C 0.36881 0.85473 0.2958 0.0
C543 C 0.39395 0.86103 0.28816 0.0
H544 H 0.46252 0.8512 0.29407 0.0
H545 H 0.49501 0.84149 0.30889 0.0
H546 H 0.56056 0.89488 0.27567 0.0
H547 H 0.52826 0.90455 0.2608 0.0
H548 H 0.50981 0.91782 0.2261 0.0
H549 H 0.52326 0.93959 0.19908 0.0
H550 H 0.44638 0.94071 0.19597 0.0
H551 H 0.43252 0.91835 0.22309 0.0
H552 H 0.39471 0.90328 0.25785 0.0
H553 H 0.35092 0.89241 0.27129 0.0
H554 H 0.3619 0.84119 0.3064 0.0
H555 H 0.40555 0.85196 0.29308 0.0
N556 N 0.44838 0.87888 0.27417 0.0
N557 N 0.4798 0.89713 0.25203 0.0
N558 N 0.43765 0.89721 0.25102 0.0
C559 C 0.47308 0.88495 0.26721 0.0
C560 C 0.46223 0.90322 0.24376 0.0
C561 C 0.43056 0.88501 0.26625 0.0
C562 C 0.4927 0.87871 0.2762 0.0
C563 C 0.48386 0.8609 0.28991 0.0
C564 C 0.50244 0.85521 0.29837 0.0
C565 C 0.5304 0.86751 0.29352 0.0
C566 C 0.53924 0.88532 0.27986 0.0
C567 C 0.52062 0.89071 0.27125 0.0
C568 C 0.47007 0.91636 0.22698 0.0
C569 C 0.49562 0.9226 0.21974 0.0
C570 C 0.50346 0.93527 0.20419 0.0
C571 C 0.48605 0.94218 0.19531 0.0
C572 C 0.46026 0.93554 0.20236 0.0
C573 C 0.45239 0.92285 0.218 0.0
C574 C 0.40377 0.87848 0.27431 0.0
C575 C 0.38783 0.8897 0.26843 0.0
C576 C 0.11252 0.4769 0.27699 0.0
C577 C 0.12146 0.48073 0.29369 0.0
C578 C 0.12051 0.50106 0.30308 0.0
C579 C 0.11087 0.51719 0.29599 0.0
H580 H 0.10898 0.58537 0.3054 0.0
H581 H 0.11922 0.62678 0.32012 0.0
H582 H 0.08336 0.64902 0.27969 0.0
H583 H 0.07348 0.6079 0.26477 0.0
H584 H 0.0574 0.57459 0.23209 0.0
H585 H 0.03537 0.56594 0.20498 0.0
H586 H 0.03324 0.4891 0.20241 0.0
H587 H 0.05604 0.49802 0.22955 0.0
H588 H 0.09613 0.48959 0.257 0.0
H589 H 0.1133 0.46161 0.26935 0.0
H590 H 0.12676 0.50425 0.31603 0.0
H591 H 0.11036 0.53255 0.3037 0.0
N592 N 0.09488 0.55261 0.28065 0.0
N593 N 0.0747 0.56398 0.25887 0.0
N594 N 0.08011 0.52575 0.25652 0.0
C595 C 0.08637 0.56926 0.27426 0.0
C596 C 0.07141 0.54228 0.24991 0.0
C597 C 0.09189 0.53087 0.27194 0.0
C598 C 0.09068 0.59339 0.28377 0.0
C599 C 0.1031 0.59897 0.29965 0.0
C600 C 0.10882 0.62262 0.30817 0.0
C601 C 0.1023 0.64123 0.301 0.0
C602 C 0.08903 0.63523 0.28541 0.0
C603 C 0.08327 0.61159 0.27689 0.0
C604 C 0.05842 0.53694 0.23313 0.0
C605 C 0.05231 0.55581 0.22581 0.0
C606 C 0.03949 0.55079 0.21025 0.0
C607 C 0.03226 0.5267 0.20155 0.0
C608 C 0.03872 0.50796 0.20871 0.0
C609 C 0.05168 0.51303 0.22431 0.0
C610 C 0.10182 0.51335 0.27931 0.0
C611 C 0.10275 0.493 0.26989 0.0
C612 C 0.5303 0.64204 0.27501 0.0
C613 C 0.52349 0.64836 0.29063 0.0
C614 C 0.49928 0.62881 0.29863 0.0
C615 C 0.48219 0.60368 0.2912 0.0
H616 H 0.40455 0.54254 0.29359 0.0
H617 H 0.36122 0.51399 0.308 0.0
H618 H 0.34755 0.44576 0.27765 0.0
H619 H 0.39133 0.47444 0.26305 0.0
H620 H 0.42896 0.49259 0.22717 0.0
H621 H 0.44263 0.47999 0.20122 0.0
H622 H 0.52206 0.55365 0.20341 0.0
H623 H 0.50873 0.56613 0.22929 0.0
H624 H 0.51895 0.61263 0.25549 0.0
H625 H 0.54868 0.65675 0.26843 0.0
H626 H 0.49366 0.63277 0.31079 0.0
H627 H 0.46376 0.58922 0.29784 0.0
N628 N 0.44579 0.55332 0.27517 0.0
N629 N 0.43526 0.5212 0.25401 0.0
N630 N 0.4771 0.5629 0.25333 0.0
C631 C 0.42817 0.52872 0.26848 0.0
C632 C 0.45977 0.53828 0.24633 0.0
C633 C 0.47023 0.57054 0.26778 0.0
C634 C 0.40151 0.51083 0.27708 0.0
C635 C 0.39248 0.52144 0.28993 0.0
C636 C 0.36754 0.50512 0.29821 0.0
C637 C 0.35101 0.47767 0.29397 0.0
C638 C 0.36005 0.46684 0.28127 0.0
C639 C 0.38499 0.4833 0.27283 0.0
C640 C 0.46772 0.53037 0.23044 0.0
C641 C 0.44936 0.5061 0.22214 0.0
C642 C 0.45713 0.49893 0.2072 0.0
C643 C 0.4835 0.51574 0.20025 0.0
C644 C 0.50175 0.54001 0.20852 0.0
C645 C 0.49398 0.54724 0.22336 0.0
C646 C 0.48886 0.59731 0.27555 0.0
C647 C 0.51319 0.61678 0.26755 0.0
Gd648 Gd 0.50838 0.01009 0.02517 0.0
Gd649 Gd 0.48162 0.96838 0.98686 0.0
C650 C 0.39742 0.89055 0.98399 0.0
C651 C 0.41071 0.85628 0.97976 0.0
C652 C 0.44597 0.90388 0.98198 0.0
C653 C 0.42568 0.91076 0.98423 0.0
C654 C 0.43876 0.87662 0.97941 0.0
C655 C 0.39007 0.86323 0.98206 0.0
C656 C 0.3774 0.89847 0.98532 0.0
C657 C 0.38578 0.92599 0.98629 0.0
N658 N 0.43355 0.93735 0.98596 0.0
C659 C 0.41407 0.94527 0.98635 0.0
H660 H 0.4201 0.96639 0.98721 0.0
C661 C 0.49343 0.91857 0.97777 0.0
N662 N 0.47279 0.92406 0.98162 0.0
C663 C 0.48735 0.89184 0.97522 0.0
C664 C 0.45992 0.87072 0.97622 0.0
H665 H 0.51471 0.93474 0.97707 0.0
H666 H 0.36848 0.8474 0.98198 0.0
H667 H 0.56939 0.01127 0.02607 0.0
H668 H 0.35548 0.88358 0.98526 0.0
H669 H 0.37047 0.93239 0.98706 0.0
H670 H 0.40475 0.83519 0.97795 0.0
H671 H 0.47611 0.04458 0.03471 0.0
H672 H 0.6347 0.09396 0.02544 0.0
H673 H 0.61923 0.04496 0.02558 0.0
H674 H 0.58629 0.14361 0.03048 0.0
H675 H 0.50383 0.88755 0.97251 0.0
H676 H 0.45525 0.85004 0.9742 0.0
H677 H 0.62217 0.13071 0.02703 0.0
H678 H 0.48746 0.09225 0.03787 0.0
N679 N 0.55648 0.04074 0.02586 0.0
C680 C 0.61273 0.07923 0.02571 0.0
C681 C 0.60409 0.0516 0.02583 0.0
C682 C 0.59293 0.0875 0.02646 0.0
C683 C 0.56462 0.06748 0.0267 0.0
C684 C 0.57573 0.03253 0.02614 0.0
N685 N 0.51771 0.05475 0.02962 0.0
C686 C 0.54455 0.07474 0.02864 0.0
C687 C 0.50372 0.08762 0.03522 0.0
C688 C 0.53113 0.10853 0.03343 0.0
C689 C 0.49738 0.06066 0.03349 0.0
C690 C 0.55204 0.10221 0.03036 0.0
H691 H 0.53601 0.12939 0.0348 0.0
O692 O 0.48845 0.00473 0.04926 0.0
O693 O 0.47372 0.97373 0.01328 0.0
O694 O 0.46844 6e-05 0.98924 0.0
O695 O 0.50157 0.03497 1.00573 0.0
O696 O 0.46281 0.99579 0.02872 0.0
O697 O 0.52412 0.99935 0.04697 0.0
O698 O 0.50208 0.97513 0.96287 0.0
O699 O 0.51654 0.0047 0.99879 0.0
O700 O 0.52055 0.97734 0.02316 0.0
O701 O 0.48766 0.94309 1.00607 0.0
O702 O 0.52703 0.98206 0.98357 0.0
O703 O 0.46574 0.97945 0.96533 0.0
C704 C 0.45327 0.97431 0.01962 0.0
C705 C 0.58011 0.12236 0.02936 0.0
C706 C 0.60054 0.11501 0.0274 0.0
C707 C 0.50579 0.9995 0.05703 0.0
C708 C 0.51586 0.01268 0.07336 0.0
C709 C 0.53446 0.0406 0.07441 0.0
C710 C 0.50643 0.99721 0.0881 0.0
C711 C 0.51555 0.00955 0.10389 0.0
C712 C 0.54352 0.05299 0.08993 0.0
C713 C 0.53416 0.0377 0.10454 0.0
C714 C 0.48183 0.02569 0.99422 0.0
C715 C 0.53682 0.00356 0.99265 0.0
C716 C 0.48439 0.98003 0.95525 0.0
C717 C 0.47468 0.96719 0.93886 0.0
C718 C 0.45536 0.93947 0.9375 0.0
C719 C 0.48521 0.98291 0.92436 0.0
C720 C 0.47652 0.97109 0.90846 0.0
C721 C 0.44664 0.92758 0.92182 0.0
C722 C 0.4571 0.94319 0.9074 0.0
C723 C 0.50715 0.95188 0.01769 0.0
H724 H 0.54186 0.0528 0.06324 0.0
H725 H 0.49225 0.97557 0.0872 0.0
H726 H 0.55776 0.07461 0.09066 0.0
H727 H 0.54123 0.04808 0.11637 0.0
H728 H 0.4471 0.92708 0.94854 0.0
H729 H 0.49995 0.0044 0.92552 0.0
H730 H 0.43179 0.90613 0.92083 0.0
H731 H 0.45025 0.93328 0.89542 0.0
Gd732 Gd 0.98142 0.49016 0.03106 0.0
Gd733 Gd 0.02598 0.50518 0.9939 0.0
C734 C 0.10617 0.50167 0.99486 0.0
C735 C 0.14121 0.54913 0.99164 0.0
C736 C 0.09227 0.53554 0.99186 0.0
C737 C 0.0853 0.50882 0.99416 0.0
C738 C 0.12026 0.55594 0.9902 0.0
C739 C 0.13417 0.52204 0.99398 0.0
C740 C 0.09825 0.4742 0.99596 0.0
C741 C 0.07013 0.45465 0.99575 0.0
N742 N 0.05804 0.48964 0.99478 0.0
C743 C 0.0502 0.46274 0.99491 0.0
H744 H 0.02856 0.4474 0.99485 0.0
C745 C 0.07716 0.56684 0.98603 0.0
N746 N 0.07151 0.54135 0.99036 0.0
C747 C 0.10462 0.58782 0.98438 0.0
C748 C 0.12629 0.58242 0.98667 0.0
H749 H 0.06048 0.57112 0.98432 0.0
H750 H 0.15051 0.51697 0.99467 0.0
H751 H 0.98045 0.54877 0.02978 0.0
H752 H 0.11364 0.46787 0.9966 0.0
H753 H 0.06377 0.43333 0.99631 0.0
H754 H 0.16286 0.56456 0.99056 0.0
H755 H 0.94564 0.42443 0.04095 0.0
H756 H 0.89598 0.53027 0.02818 0.0
H757 H 0.94612 0.56394 0.0282 0.0
H758 H 0.84478 0.43364 0.03456 0.0
H759 H 0.10904 0.60811 0.98134 0.0
H760 H 0.14754 0.59868 0.98532 0.0
H761 H 0.85826 0.48151 0.03035 0.0
H762 H 0.89672 0.38817 0.04389 0.0
N763 N 0.95021 0.50675 0.03025 0.0
C764 C 0.91098 0.52345 0.0289 0.0
C765 C 0.93926 0.54252 0.02895 0.0
C766 C 0.90241 0.49586 0.03022 0.0
C767 C 0.9228 0.48808 0.03102 0.0
C768 C 0.95869 0.53379 0.02986 0.0
N769 N 0.93553 0.45482 0.03485 0.0
C770 C 0.91521 0.46122 0.03334 0.0
C771 C 0.90162 0.40861 0.04085 0.0
C772 C 0.88038 0.4146 0.03851 0.0
C773 C 0.92927 0.42917 0.03923 0.0
C774 C 0.88704 0.44127 0.03498 0.0
H775 H 0.85898 0.39867 0.03982 0.0
O776 O 0.98538 0.47623 0.05551 0.0
O777 O 0.01924 0.49265 0.02033 0.0
O778 O 0.99293 0.46044 0.99547 0.0
O779 O 0.957 0.45791 0.01182 0.0
O780 O 0.99655 0.46046 0.03599 0.0
O781 O 0.98986 0.5161 0.05269 0.0
O782 O 0.0215 0.51879 0.96948 0.0
O783 O 0.98782 0.50221 1.00454 0.0
O784 O 0.01523 0.535 0.02951 0.0
O785 O 0.05068 0.53627 0.01334 0.0
O786 O 0.0103 0.5345 0.989 0.0
O787 O 0.0195 0.47992 0.97219 0.0
C788 C 0.01877 0.47248 0.02714 0.0
C789 C 0.86656 0.4487 0.0335 0.0
C790 C 0.87423 0.47596 0.03112 0.0
C791 C 0.98882 0.49797 0.06305 0.0
C792 C 0.97264 0.49352 0.07834 0.0
C793 C 0.94425 0.48484 0.07766 0.0
C794 C 0.98576 0.49743 0.09385 0.0
C795 C 0.97065 0.49258 0.10875 0.0
C796 C 0.92908 0.47996 0.09234 0.0
C797 C 0.9421 0.48372 0.10779 0.0
C798 C 0.96667 0.44779 1.00049 0.0
C799 C 0.98798 0.52222 0.99774 0.0
C800 C 0.02017 0.49794 0.96187 0.0
C801 C 0.03803 0.50423 0.94718 0.0
C802 C 0.06586 0.51102 0.94871 0.0
C803 C 0.02722 0.50431 0.93143 0.0
C804 C 0.04408 0.51131 0.91716 0.0
C805 C 0.08279 0.51811 0.93466 0.0
C806 C 0.07206 0.51835 0.91897 0.0
C807 C 0.04154 0.54697 0.02455 0.0
H808 H 0.93382 0.48174 0.06583 0.0
H809 H 0.00781 0.50451 0.09425 0.0
H810 H 0.90712 0.47311 0.09175 0.0
H811 H 0.92971 0.47936 0.11897 0.0
H812 H 0.07452 0.5109 0.9607 0.0
H813 H 0.00555 0.4986 0.93032 0.0
H814 H 0.10431 0.52351 0.93593 0.0
H815 H 0.08572 0.52422 0.90829 0.0
Gd816 Gd 0.49757 0.50987 0.99142 0.0
Gd817 Gd 0.51561 0.49252 0.03167 0.0
C818 C 0.60363 0.50499 0.03152 0.0
C819 C 0.59491 0.45882 0.02986 0.0
C820 C 0.55631 0.46755 0.03151 0.0
C821 C 0.57474 0.49516 0.0318 0.0
C822 C 0.56632 0.44909 0.03121 0.0
C823 C 0.61354 0.48674 0.03 0.0
C824 C 0.62179 0.53283 0.03319 0.0
C825 C 0.61109 0.55002 0.03585 0.0
N826 N 0.56456 0.51238 0.03323 0.0
C827 C 0.58238 0.53939 0.0361 0.0
H828 H 0.57497 0.55319 0.03849 0.0
C829 C 0.51083 0.43194 0.03661 0.0
N830 N 0.52881 0.45871 0.03299 0.0
C831 C 0.51967 0.4129 0.0362 0.0
C832 C 0.54746 0.42142 0.03308 0.0
H833 H 0.48925 0.42495 0.03929 0.0
H834 H 0.63561 0.49398 0.02948 0.0
H835 H 0.44368 0.44671 0.98952 0.0
H836 H 0.64406 0.54115 0.03296 0.0
H837 H 0.62495 0.57152 0.0377 0.0
H838 H 0.60288 0.44493 0.02934 0.0
H839 H 0.51987 0.57483 0.98196 0.0
H840 H 0.369 0.45089 0.98858 0.0
H841 H 0.39255 0.42375 0.98865 0.0
H842 H 0.40218 0.54634 0.98528 0.0
H843 H 0.50506 0.39167 0.03839 0.0
H844 H 0.55434 0.40665 0.03291 0.0
H845 H 0.3728 0.49682 0.9878 0.0
H846 H 0.50028 0.60523 0.97843 0.0
N847 N 0.44898 0.48635 0.9901 0.0
C848 C 0.39144 0.46106 0.98889 0.0
C849 C 0.40466 0.44567 0.9889 0.0
C850 C 0.40738 0.48939 0.98884 0.0
C851 C 0.43652 0.5016 0.9893 0.0
C852 C 0.43365 0.45873 0.98942 0.0
N853 N 0.48094 0.54025 0.98764 0.0
C854 C 0.45302 0.52946 0.98813 0.0
C855 C 0.48678 0.58401 0.98131 0.0
C856 C 0.45825 0.57362 0.98308 0.0
C857 C 0.49778 0.56682 0.98328 0.0
C858 C 0.4409 0.5459 0.98614 0.0
H859 H 0.44974 0.58693 0.98145 0.0
O860 O 0.51996 0.52933 0.96875 0.0
O861 O 0.52965 0.50585 1.00564 0.0
O862 O 0.52967 0.53756 0.03085 0.0
O863 O 0.50368 0.5424 0.00967 0.0
O864 O 0.54316 0.54103 0.992 0.0
O865 O 0.48466 0.48879 0.96765 0.0
O866 O 0.49217 0.46706 0.05255 0.0
O867 O 0.48045 0.48744 0.01528 0.0
O868 O 0.49794 0.47075 0.9894 0.0
O869 O 0.49108 0.45394 0.01633 0.0
O870 O 0.48156 0.50038 0.03944 0.0
O871 O 0.52638 0.5079 0.05689 0.0
C872 C 0.55107 0.52724 1.00093 0.0
C873 C 0.41189 0.53401 0.98655 0.0
C874 C 0.39515 0.5058 0.98794 0.0
C875 C 0.50368 0.50906 0.95921 0.0
C876 C 0.49498 0.51584 0.9435 0.0
C877 C 0.47644 0.52575 0.94339 0.0
C878 C 0.50557 0.51242 0.92838 0.0
C879 C 0.49779 0.51891 0.91311 0.0
C880 C 0.46882 0.53249 0.92836 0.0
C881 C 0.47942 0.52918 0.91333 0.0
C882 C 0.5195 0.55129 0.02307 0.0
C883 C 0.46769 0.49377 0.02584 0.0
C884 C 0.50691 0.4856 0.06359 0.0
C885 C 0.51391 0.47682 0.07916 0.0
C886 C 0.53061 0.46484 0.07927 0.0
C887 C 0.50422 0.48144 0.09429 0.0
C888 C 0.5111 0.47418 0.10959 0.0
C889 C 0.53737 0.45736 0.09436 0.0
C890 C 0.52775 0.46199 0.10942 0.0
C891 C 0.49215 0.45103 1.00003 0.0
H892 H 0.46785 0.52827 0.95486 0.0
H893 H 0.51949 0.50425 0.92853 0.0
H894 H 0.45463 0.5403 0.92836 0.0
H895 H 0.47333 0.53482 0.90187 0.0
H896 H 0.53853 0.46144 0.06776 0.0
H897 H 0.4918 0.49125 0.09413 0.0
H898 H 0.5502 0.44802 0.0944 0.0
H899 H 0.53318 0.45583 0.12092 0.0
Gd900 Gd 0.17568 0.3509 0.36176 0.0
Gd901 Gd 0.16077 0.31392 0.32217 0.0
C902 C 0.07453 0.23847 0.32557 0.0
C903 C 0.08538 0.20332 0.33254 0.0
C904 C 0.12244 0.24942 0.3271 0.0
C905 C 0.10316 0.25758 0.32482 0.0
C906 C 0.11369 0.22188 0.3302 0.0
C907 C 0.06578 0.21162 0.33021 0.0
C908 C 0.0556 0.24659 0.32083 0.0
C909 C 0.06545 0.27271 0.31466 0.0
N910 N 0.11236 0.28365 0.32027 0.0
C911 C 0.09402 0.29092 0.31427 0.0
H912 H 0.10114 0.31061 0.30903 0.0
C913 C 0.16809 0.25889 0.32199 0.0
N914 N 0.14948 0.26776 0.3243 0.0
C915 C 0.16059 0.23196 0.32524 0.0
C916 C 0.13341 0.21351 0.32984 0.0
H917 H 0.18918 0.2728 0.31822 0.0
H918 H 0.04391 0.19682 0.33123 0.0
H919 H 0.23229 0.34492 0.36507 0.0
H920 H 0.03347 0.23253 0.32117 0.0
H921 H 0.05106 0.27889 0.31024 0.0
H922 H 0.07833 0.18223 0.33528 0.0
H923 H 0.14913 0.39098 0.36982 0.0
H924 H 0.30372 0.4244 0.3655 0.0
H925 H 0.28312 0.37452 0.36615 0.0
H926 H 0.2644 0.4826 0.36696 0.0
H927 H 0.17578 0.22546 0.32411 0.0
H928 H 0.12755 0.19257 0.33217 0.0
H929 H 0.29652 0.4647 0.36538 0.0
H930 H 0.16538 0.44006 0.37246 0.0
N931 N 0.22418 0.37758 0.36355 0.0
C932 C 0.28138 0.41147 0.36507 0.0
C933 C 0.26984 0.38333 0.36547 0.0
C934 C 0.26392 0.42258 0.36462 0.0
C935 C 0.23501 0.40483 0.36405 0.0
C936 C 0.241 0.36659 0.3648 0.0
N937 N 0.18943 0.39698 0.36522 0.0
C938 C 0.21702 0.41488 0.36482 0.0
C939 C 0.18012 0.43327 0.3702 0.0
C940 C 0.20837 0.45211 0.3687 0.0
C941 C 0.171 0.40557 0.36874 0.0
C942 C 0.2273 0.44298 0.36633 0.0
H943 H 0.21542 0.47354 0.3699 0.0
O944 O 0.15228 0.34756 0.38424 0.0
O945 O 0.14491 0.31454 0.34765 0.0
O946 O 0.14353 0.34265 0.3214 0.0
O947 O 0.16663 0.37465 0.34251 0.0
O948 O 0.13044 0.33726 0.35992 0.0
O949 O 0.18778 0.34198 0.38567 0.0
O950 O 0.1847 0.3093 0.30229 0.0
O951 O 0.19419 0.34567 0.3384 0.0
O952 O 0.17729 0.31234 0.36433 0.0
O953 O 0.18944 0.30547 0.33803 0.0
O954 O 0.19234 0.35569 0.31389 0.0
O955 O 0.15176 0.31779 0.29635 0.0
C956 C 0.12331 0.31559 0.3513 0.0
C957 C 0.25608 0.4609 0.36603 0.0
C958 C 0.27437 0.45071 0.36516 0.0
C959 C 0.16799 0.34261 0.39391 0.0
C960 C 0.17525 0.3562 0.41027 0.0
C961 C 0.19166 0.38445 0.41144 0.0
C962 C 0.1657 0.34059 0.42494 0.0
C963 C 0.17249 0.3531 0.44078 0.0
C964 C 0.19833 0.39701 0.42702 0.0
C965 C 0.18886 0.38156 0.44157 0.0
C966 C 0.15137 0.36632 0.32875 0.0
C967 C 0.20581 0.36413 0.32759 0.0
C968 C 0.17128 0.31377 0.29054 0.0
C969 C 0.16537 0.29824 0.27495 0.0
C970 C 0.15121 0.26986 0.27489 0.0
C971 C 0.17383 0.31243 0.25977 0.0
C972 C 0.16829 0.29848 0.24446 0.0
C973 C 0.14569 0.25581 0.2598 0.0
C974 C 0.15413 0.26993 0.24471 0.0
C975 C 0.18697 0.30078 0.35423 0.0
H976 H 0.19926 0.39674 0.40032 0.0
H977 H 0.15334 0.31871 0.42397 0.0
H978 H 0.21089 0.41887 0.42785 0.0
H979 H 0.19411 0.392 0.45344 0.0
H980 H 0.1444 0.25864 0.28645 0.0
H981 H 0.18434 0.3344 0.25992 0.0
H982 H 0.13483 0.23387 0.25979 0.0
H983 H 0.14981 0.25846 0.23325 0.0
Gd984 Gd 0.64959 0.82609 0.36303 0.0
Gd985 Gd 0.69864 0.84537 0.3275 0.0
C986 C 0.77873 0.84136 0.33022 0.0
C987 C 0.81408 0.88881 0.32758 0.0
C988 C 0.76518 0.87536 0.32677 0.0
C989 C 0.758 0.84867 0.32901 0.0
C990 C 0.79328 0.8957 0.32552 0.0
C991 C 0.80681 0.86166 0.32995 0.0
C992 C 0.77062 0.81385 0.33115 0.0
C993 C 0.74252 0.79444 0.33022 0.0
N994 N 0.73069 0.82966 0.32903 0.0
C995 C 0.72277 0.80272 0.32891 0.0
H996 H 0.70119 0.78739 0.32832 0.0
C997 C 0.7505 0.90642 0.3196 0.0
N998 N 0.74456 0.88113 0.32455 0.0
C999 C 0.77804 0.92739 0.31834 0.0
C1000 C 0.79956 0.92211 0.32158 0.0
H1001 H 0.73395 0.91063 0.3171 0.0
H1002 H 0.82303 0.85649 0.33106 0.0
H1003 H 0.64581 0.88319 0.36426 0.0
H1004 H 0.78588 0.80739 0.33216 0.0
H1005 H 0.73602 0.77308 0.33061 0.0
H1006 H 0.8358 0.90418 0.32685 0.0
H1007 H 0.61526 0.75912 0.36934 0.0
H1008 H 0.56067 0.86167 0.35942 0.0
H1009 H 0.61014 0.89665 0.36233 0.0
H1010 H 0.51256 0.76446 0.36046 0.0
H1011 H 0.78264 0.94758 0.31487 0.0
H1012 H 0.82088 0.93833 0.3205 0.0
H1013 H 0.52439 0.81223 0.35848 0.0
H1014 H 0.56678 0.72122 0.36944 0.0
N1015 N 0.617 0.84094 0.36209 0.0
C1016 C 0.57626 0.85561 0.36032 0.0
C1017 C 0.60414 0.87541 0.36199 0.0
C1018 C 0.56876 0.8282 0.36028 0.0
C1019 C 0.58988 0.82144 0.36139 0.0
C1020 C 0.62433 0.86766 0.3631 0.0
N1021 N 0.6041 0.78913 0.36438 0.0
C1022 C 0.58321 0.79465 0.36254 0.0
C1023 C 0.57112 0.74178 0.36744 0.0
C1024 C 0.5494 0.74699 0.36477 0.0
C1025 C 0.59851 0.76326 0.36744 0.0
C1026 C 0.55527 0.77374 0.36253 0.0
H1027 H 0.5282 0.73033 0.36479 0.0
O1028 O 0.64999 0.80987 0.38742 0.0
O1029 O 0.6892 0.83099 0.35356 0.0
O1030 O 0.6664 0.80043 0.32819 0.0
O1031 O 0.62796 0.7971 0.34186 0.0
O1032 O 0.66597 0.79739 0.36812 0.0
O1033 O 0.6565 0.85065 0.38512 0.0
O1034 O 0.69553 0.85969 0.30301 0.0
O1035 O 0.65951 0.84172 0.33718 0.0
O1036 O 0.6821 0.87089 0.36361 0.0
O1037 O 0.71997 0.87738 0.34727 0.0
O1038 O 0.68384 0.8752 0.32268 0.0
O1039 O 0.691 0.81982 0.30579 0.0
C1040 C 0.68909 0.81094 0.36025 0.0
C1041 C 0.53416 0.78025 0.36067 0.0
C1042 C 0.54089 0.80745 0.35955 0.0
C1043 C 0.65405 0.83167 0.39524 0.0
C1044 C 0.63772 0.82764 0.41039 0.0
C1045 C 0.60888 0.8164 0.40968 0.0
C1046 C 0.65139 0.83532 0.42583 0.0
C1047 C 0.63643 0.83179 0.44065 0.0
C1048 C 0.59385 0.81283 0.42429 0.0
C1049 C 0.60745 0.82043 0.43968 0.0
C1050 C 0.63941 0.78774 0.33127 0.0
C1051 C 0.66089 0.86263 0.33082 0.0
C1052 C 0.69249 0.83812 0.29546 0.0
C1053 C 0.70938 0.84278 0.28051 0.0
C1054 C 0.73829 0.85462 0.28148 0.0
C1055 C 0.69624 0.83573 0.26497 0.0
C1056 C 0.7118 0.84065 0.2503 0.0
C1057 C 0.75391 0.8596 0.26696 0.0
C1058 C 0.74081 0.85278 0.25142 0.0
C1059 C 0.70852 0.885 0.35903 0.0
H1060 H 0.59806 0.81042 0.39787 0.0
H1061 H 0.67376 0.84437 0.42623 0.0
H1062 H 0.57156 0.80406 0.42371 0.0
H1063 H 0.59521 0.81709 0.45083 0.0
H1064 H 0.74874 0.86009 0.29339 0.0
H1065 H 0.67389 0.82682 0.26428 0.0
H1066 H 0.77624 0.8688 0.26775 0.0
H1067 H 0.75327 0.85667 0.24032 0.0
Gd1068 Gd 0.1634 0.85315 0.32 0.0
Gd1069 Gd 0.1871 0.83851 0.35915 0.0
C1070 C 0.27039 0.84102 0.35694 0.0
C1071 C 0.25686 0.79377 0.3614 0.0
C1072 C 0.22213 0.8078 0.36148 0.0
C1073 C 0.24236 0.83415 0.35827 0.0
C1074 C 0.2292 0.78741 0.36361 0.0
C1075 C 0.27743 0.82056 0.35805 0.0
C1076 C 0.29053 0.86834 0.355 0.0
C1077 C 0.28253 0.88802 0.35495 0.0
N1078 N 0.23477 0.85334 0.35736 0.0
C1079 C 0.25441 0.88013 0.35625 0.0
H1080 H 0.24848 0.8955 0.35597 0.0
C1081 C 0.17596 0.77795 0.36978 0.0
N1082 N 0.19578 0.80253 0.36373 0.0
C1083 C 0.18181 0.75693 0.3719 0.0
C1084 C 0.20846 0.76154 0.36852 0.0
H1085 H 0.15534 0.77439 0.3724 0.0
H1086 H 0.29881 0.82537 0.35682 0.0
H1087 H 0.14509 0.81065 0.28775 0.0
H1088 H 0.31229 0.87447 0.35389 0.0
H1089 H 0.29797 0.90924 0.35373 0.0
H1090 H 0.26268 0.77833 0.36277 0.0
H1091 H 0.14662 0.89512 0.33979 0.0
H1092 H 0.05666 0.76972 0.28254 0.0
H1093 H 0.10222 0.77633 0.27359 0.0
H1094 H 0.03099 0.81959 0.31954 0.0
H1095 H 0.16581 0.73723 0.37615 0.0
H1096 H 0.21303 0.7453 0.37029 0.0
H1097 H 0.03009 0.78576 0.30003 0.0
H1098 H 0.10498 0.89813 0.34599 0.0
N1099 N 0.12365 0.82113 0.30545 0.0
C1100 C 0.07535 0.78436 0.28895 0.0
C1101 C 0.101 0.78804 0.28385 0.0
C1102 C 0.07434 0.8009 0.30153 0.0
C1103 C 0.0993 0.81966 0.30945 0.0
C1104 C 0.12516 0.80723 0.29196 0.0
N1105 N 0.12471 0.85786 0.32648 0.0
C1106 C 0.09987 0.83881 0.32023 0.0
C1107 C 0.10321 0.88124 0.33879 0.0
C1108 C 0.07727 0.86092 0.33328 0.0
C1109 C 0.12685 0.87942 0.33524 0.0
C1110 C 0.07539 0.83956 0.32365 0.0
H1111 H 0.05898 0.86227 0.33616 0.0
O1112 O 0.16608 0.88732 0.30625 0.0
O1113 O 0.20012 0.85702 0.33393 0.0
O1114 O 0.19937 0.88264 0.35915 0.0
O1115 O 0.18804 0.89315 0.33331 0.0
O1116 O 0.19289 0.84058 0.31001 0.0
O1117 O 0.18319 0.86403 0.29572 0.0
O1118 O 0.16664 0.82645 0.38331 0.0
O1119 O 0.15477 0.84529 0.34714 0.0
O1120 O 0.14588 0.80784 0.32187 0.0
O1121 O 0.17339 0.80236 0.34197 0.0
O1122 O 0.14128 0.81046 0.36141 0.0
O1123 O 0.20678 0.86225 0.38138 0.0
C1124 C 0.20929 0.84784 0.32267 0.0
C1125 C 0.05008 0.81962 0.31683 0.0
C1126 C 0.04956 0.80031 0.30577 0.0
C1127 C 0.17615 0.88225 0.29297 0.0
C1128 C 0.16215 0.87997 0.27686 0.0
C1129 C 0.1384 0.88264 0.27599 0.0
C1130 C 0.17222 0.87427 0.26219 0.0
C1131 C 0.15867 0.87104 0.2468 0.0
C1132 C 0.12507 0.87979 0.26079 0.0
C1133 C 0.13507 0.87406 0.2463 0.0
C1134 C 0.19881 0.8999 0.3484 0.0
C1135 C 0.13344 0.82454 0.35283 0.0
C1136 C 0.18702 0.8461 0.39135 0.0
C1137 C 0.19559 0.83892 0.407 0.0
C1138 C 0.21199 0.82658 0.40673 0.0
C1139 C 0.18781 0.845 0.4224 0.0
C1140 C 0.19668 0.83911 0.43749 0.0
C1141 C 0.22051 0.82035 0.4216 0.0
C1142 C 0.21301 0.82659 0.43686 0.0
C1143 C 0.15537 0.79344 0.32949 0.0
H1144 H 0.12999 0.88681 0.28705 0.0
H1145 H 0.19024 0.87172 0.26286 0.0
H1146 H 0.10684 0.88197 0.26022 0.0
H1147 H 0.1244 0.87222 0.23467 0.0
H1148 H 0.21836 0.82195 0.39505 0.0
H1149 H 0.17543 0.85486 0.42261 0.0
H1150 H 0.23311 0.81076 0.4213 0.0
H1151 H 0.21987 0.82147 0.44822 0.0
Gd1152 Gd 0.84359 0.68101 0.69425 0.0
Gd1153 Gd 0.8164 0.63902 0.65594 0.0
C1154 C 0.733 0.56043 0.65365 0.0
C1155 C 0.74709 0.52654 0.65043 0.0
C1156 C 0.78176 0.57441 0.6519 0.0
C1157 C 0.76114 0.58095 0.65379 0.0
C1158 C 0.775 0.54719 0.64985 0.0
C1159 C 0.72612 0.53315 0.65235 0.0
C1160 C 0.71266 0.568 0.65435 0.0
C1161 C 0.72061 0.59546 0.65453 0.0
N1162 N 0.76855 0.6075 0.6549 0.0
C1163 C 0.7488 0.61506 0.65454 0.0
H1164 H 0.75462 0.63618 0.65478 0.0
C1165 C 0.82936 0.58971 0.64766 0.0
N1166 N 0.80845 0.59487 0.65134 0.0
C1167 C 0.82373 0.56302 0.64559 0.0
C1168 C 0.79646 0.54163 0.64688 0.0
H1169 H 0.85051 0.60613 0.64678 0.0
H1170 H 0.70463 0.51708 0.6524 0.0
H1171 H 0.90427 0.6814 0.69364 0.0
H1172 H 0.69082 0.55286 0.65434 0.0
H1173 H 0.70505 0.60157 0.65473 0.0
H1174 H 0.74148 0.50547 0.64904 0.0
H1175 H 0.81213 0.71622 0.70381 0.0
H1176 H 0.97032 0.76369 0.69425 0.0
H1177 H 0.95418 0.71458 0.69315 0.0
H1178 H 0.92316 0.81428 0.70086 0.0
H1179 H 0.84042 0.55897 0.64304 0.0
H1180 H 0.79215 0.52098 0.64525 0.0
H1181 H 0.95853 0.80081 0.69699 0.0
H1182 H 0.82417 0.76397 0.70747 0.0
N1183 N 0.89186 0.71124 0.69465 0.0
C1184 C 0.9483 0.74917 0.6945 0.0
C1185 C 0.93927 0.72148 0.69392 0.0
C1186 C 0.9288 0.75777 0.69582 0.0
C1187 C 0.90039 0.73802 0.696 0.0
C1188 C 0.91085 0.70269 0.69422 0.0
N1189 N 0.85364 0.72586 0.6989 0.0
C1190 C 0.8806 0.74559 0.69814 0.0
C1191 C 0.84025 0.7591 0.7048 0.0
C1192 C 0.86784 0.77976 0.70332 0.0
C1193 C 0.83352 0.73208 0.70276 0.0
C1194 C 0.88849 0.77312 0.7002 0.0
H1195 H 0.87302 0.80068 0.70495 0.0
O1196 O 0.82428 0.67585 0.71851 0.0
O1197 O 0.80845 0.64505 0.68229 0.0
O1198 O 0.80334 0.67094 0.658 0.0
O1199 O 0.8362 0.70554 0.67494 0.0
O1200 O 0.79842 0.66761 0.69803 0.0
O1201 O 0.85923 0.66942 0.71568 0.0
O1202 O 0.83725 0.64603 0.63211 0.0
O1203 O 0.85086 0.67534 0.66787 0.0
O1204 O 0.85558 0.64824 0.69194 0.0
O1205 O 0.82183 0.61376 0.67547 0.0
O1206 O 0.86223 0.65402 0.65227 0.0
O1207 O 0.79968 0.64838 0.63404 0.0
C1208 C 0.78844 0.64644 0.68864 0.0
C1209 C 0.91668 0.793 0.69944 0.0
C1210 C 0.93682 0.78533 0.69725 0.0
C1211 C 0.84159 0.67026 0.726 0.0
C1212 C 0.85272 0.68388 0.74207 0.0
C1213 C 0.87077 0.71196 0.74279 0.0
C1214 C 0.84479 0.66867 0.75689 0.0
C1215 C 0.85462 0.68147 0.77246 0.0
C1216 C 0.8807 0.72476 0.75813 0.0
C1217 C 0.87268 0.70971 0.77286 0.0
C1218 C 0.81675 0.69648 0.66325 0.0
C1219 C 0.87153 0.67543 0.66142 0.0
C1220 C 0.81899 0.64975 0.6242 0.0
C1221 C 0.81026 0.6366 0.60781 0.0
C1222 C 0.79339 0.60841 0.60643 0.0
C1223 C 0.8199 0.65248 0.59331 0.0
C1224 C 0.81294 0.64034 0.57741 0.0
C1225 C 0.7863 0.59622 0.59073 0.0
C1226 C 0.79602 0.61199 0.57632 0.0
C1227 C 0.84158 0.6226 0.68691 0.0
H1228 H 0.87711 0.72396 0.73152 0.0
H1229 H 0.83062 0.64699 0.75631 0.0
H1230 H 0.89467 0.74645 0.75861 0.0
H1231 H 0.88091 0.72015 0.78456 0.0
H1232 H 0.78586 0.59589 0.61746 0.0
H1233 H 0.83326 0.67425 0.59445 0.0
H1234 H 0.77324 0.57444 0.58972 0.0
H1235 H 0.78998 0.60201 0.56431 0.0
Gd1236 Gd 0.30786 0.15278 0.69572 0.0
Gd1237 Gd 0.35265 0.16838 0.65843 0.0
C1238 C 0.43243 0.16412 0.65866 0.0
C1239 C 0.46782 0.21175 0.65723 0.0
C1240 C 0.41897 0.19848 0.65703 0.0
C1241 C 0.41173 0.17152 0.65836 0.0
C1242 C 0.44707 0.21888 0.65613 0.0
C1243 C 0.46051 0.18441 0.65849 0.0
C1244 C 0.42427 0.13655 0.65866 0.0
C1245 C 0.39612 0.1172 0.6578 0.0
N1246 N 0.38439 0.15245 0.65838 0.0
C1247 C 0.37637 0.12556 0.65744 0.0
H1248 H 0.35469 0.11038 0.6569 0.0
C1249 C 0.40441 0.2306 0.65276 0.0
N1250 N 0.3984 0.20463 0.65593 0.0
C1251 C 0.43198 0.25158 0.65188 0.0
C1252 C 0.45343 0.24575 0.65377 0.0
H1253 H 0.38789 0.23523 0.65144 0.0
H1254 H 0.47671 0.17913 0.65894 0.0
H1255 H 0.30957 0.21273 0.69535 0.0
H1256 H 0.43953 0.13002 0.65895 0.0
H1257 H 0.3896 0.09582 0.6575 0.0
H1258 H 0.48955 0.22715 0.65674 0.0
H1259 H 0.26979 0.08702 0.70501 0.0
H1260 H 0.22627 0.19768 0.69399 0.0
H1261 H 0.27681 0.22982 0.6942 0.0
H1262 H 0.17172 0.10103 0.69933 0.0
H1263 H 0.43668 0.27223 0.64979 0.0
H1264 H 0.47477 0.26203 0.65304 0.0
H1265 H 0.18713 0.14947 0.69569 0.0
H1266 H 0.22035 0.05204 0.70774 0.0
N1267 N 0.27808 0.17111 0.6954 0.0
C1268 C 0.24059 0.19002 0.69453 0.0
C1269 C 0.26909 0.20821 0.69469 0.0
C1270 C 0.23091 0.16217 0.69551 0.0
C1271 C 0.25045 0.15327 0.69608 0.0
C1272 C 0.28764 0.19838 0.69535 0.0
N1273 N 0.26134 0.1187 0.69939 0.0
C1274 C 0.24179 0.12614 0.69807 0.0
C1275 C 0.22608 0.07279 0.70495 0.0
C1276 C 0.2056 0.0799 0.70281 0.0
C1277 C 0.25403 0.09264 0.70345 0.0
C1278 C 0.21335 0.10695 0.69961 0.0
H1279 H 0.18396 0.06453 0.70404 0.0
O1280 O 0.31121 0.13777 0.71998 0.0
O1281 O 0.34481 0.15393 0.68455 0.0
O1282 O 0.31926 0.12392 0.65931 0.0
O1283 O 0.28345 0.12069 0.67622 0.0
O1284 O 0.32104 0.12158 0.7 0.0
O1285 O 0.31849 0.17867 0.71759 0.0
O1286 O 0.35015 0.18413 0.63429 0.0
O1287 O 0.31474 0.16565 0.66935 0.0
O1288 O 0.34273 0.19723 0.6944 0.0
O1289 O 0.37776 0.19664 0.67892 0.0
O1290 O 0.33734 0.19824 0.65412 0.0
O1291 O 0.34521 0.14391 0.63621 0.0
C1292 C 0.34309 0.13293 0.69097 0.0
C1293 C 0.19369 0.11549 0.69835 0.0
C1294 C 0.20246 0.14307 0.69629 0.0
C1295 C 0.31646 0.15992 0.72777 0.0
C1296 C 0.30092 0.15633 0.74327 0.0
C1297 C 0.27278 0.14874 0.74276 0.0
C1298 C 0.31414 0.15972 0.75876 0.0
C1299 C 0.29916 0.15505 0.77371 0.0
C1300 C 0.2579 0.14431 0.75752 0.0
C1301 C 0.2709 0.14731 0.77289 0.0
C1302 C 0.29313 0.11104 0.66454 0.0
C1303 C 0.31498 0.18585 0.66282 0.0
C1304 C 0.34757 0.16308 0.62625 0.0
C1305 C 0.36573 0.16903 0.6117 0.0
C1306 C 0.3927 0.17331 0.61343 0.0
C1307 C 0.3562 0.17124 0.59591 0.0
C1308 C 0.37352 0.17773 0.58186 0.0
C1309 C 0.41002 0.17987 0.59959 0.0
C1310 C 0.40057 0.18211 0.5839 0.0
C1311 C 0.36918 0.20793 0.69002 0.0
H1312 H 0.26231 0.1461 0.73098 0.0
H1313 H 0.33585 0.16537 0.75916 0.0
H1314 H 0.23616 0.13843 0.75705 0.0
H1315 H 0.2589 0.1438 0.78417 0.0
H1316 H 0.40039 0.17159 0.62542 0.0
H1317 H 0.33543 0.16818 0.59462 0.0
H1318 H 0.43081 0.18311 0.60103 0.0
H1319 H 0.41425 0.18676 0.57331 0.0
Gd1320 Gd 0.82094 0.17985 0.6558 0.0
Gd1321 Gd 0.84788 0.16443 0.69396 0.0
C1322 C 0.93251 0.16978 0.69579 0.0
C1323 C 0.91975 0.12239 0.69823 0.0
C1324 C 0.8841 0.13517 0.69741 0.0
C1325 C 0.90416 0.16209 0.69581 0.0
C1326 C 0.89163 0.11501 0.69898 0.0
C1327 C 0.94017 0.14974 0.69663 0.0
C1328 C 0.95227 0.19741 0.69532 0.0
C1329 C 0.94355 0.21655 0.69545 0.0
N1330 N 0.89599 0.18087 0.69502 0.0
C1331 C 0.91517 0.20787 0.69552 0.0
H1332 H 0.90879 0.2229 0.69546 0.0
C1333 C 0.8368 0.10292 0.70158 0.0
N1334 N 0.85719 0.12882 0.69812 0.0
C1335 C 0.84319 0.08217 0.70315 0.0
C1336 C 0.8707 0.08818 0.70163 0.0
H1337 H 0.81547 0.09813 0.70259 0.0
H1338 H 0.96182 0.15522 0.69644 0.0
H1339 H 0.75971 0.12151 0.65613 0.0
H1340 H 0.97425 0.20417 0.69522 0.0
H1341 H 0.95865 0.23798 0.69538 0.0
H1342 H 0.92596 0.10717 0.69925 0.0
H1343 H 0.85342 0.24582 0.64622 0.0
H1344 H 0.69459 0.14063 0.65518 0.0
H1345 H 0.70997 0.10671 0.65637 0.0
H1346 H 0.7431 0.23721 0.64849 0.0
H1347 H 0.8269 0.06156 0.70547 0.0
H1348 H 0.87561 0.07208 0.70288 0.0
H1349 H 0.70717 0.18944 0.65239 0.0
H1350 H 0.84208 0.28221 0.64221 0.0
N1351 N 0.7728 0.16362 0.65526 0.0
C1352 C 0.71655 0.14729 0.65507 0.0
C1353 C 0.72514 0.12809 0.6557 0.0
C1354 C 0.73639 0.17482 0.65386 0.0
C1355 C 0.76471 0.18241 0.65387 0.0
C1356 C 0.75348 0.13663 0.65554 0.0
N1357 N 0.8117 0.21541 0.65109 0.0
C1358 C 0.78482 0.20919 0.65171 0.0
C1359 C 0.82578 0.26177 0.64494 0.0
C1360 C 0.7983 0.25591 0.64627 0.0
C1361 C 0.83211 0.2411 0.64717 0.0
C1362 C 0.77736 0.22928 0.64945 0.0
H1363 H 0.79343 0.27195 0.64448 0.0
O1364 O 0.84101 0.19339 0.63176 0.0
O1365 O 0.85612 0.17784 0.66758 0.0
O1366 O 0.86007 0.20912 0.69204 0.0
O1367 O 0.8269 0.21084 0.67503 0.0
O1368 O 0.8663 0.21046 0.65222 0.0
O1369 O 0.80429 0.15377 0.63411 0.0
O1370 O 0.82712 0.1498 0.71774 0.0
O1371 O 0.81327 0.16694 0.68216 0.0
O1372 O 0.80834 0.13539 0.65796 0.0
O1373 O 0.84209 0.13366 0.67424 0.0
O1374 O 0.80216 0.13419 0.69744 0.0
O1375 O 0.86344 0.18974 0.71612 0.0
C1376 C 0.87628 0.19878 0.66135 0.0
C1377 C 0.74926 0.22204 0.65006 0.0
C1378 C 0.7288 0.19485 0.65227 0.0
C1379 C 0.82259 0.17171 0.62401 0.0
C1380 C 0.81216 0.17626 0.60826 0.0
C1381 C 0.79126 0.18317 0.60805 0.0
C1382 C 0.82385 0.17427 0.59322 0.0
C1383 C 0.81481 0.17918 0.57791 0.0
C1384 C 0.78217 0.18809 0.59294 0.0
C1385 C 0.79384 0.18616 0.57795 0.0
C1386 C 0.84655 0.22134 0.68651 0.0
C1387 C 0.79271 0.14655 0.68846 0.0
C1388 C 0.84455 0.17154 0.72585 0.0
C1389 C 0.85369 0.16721 0.7422 0.0
C1390 C 0.8734 0.15883 0.74335 0.0
C1391 C 0.84197 0.17087 0.75685 0.0
C1392 C 0.84988 0.16623 0.77268 0.0
C1393 C 0.88134 0.15414 0.75893 0.0
C1394 C 0.86971 0.15774 0.77346 0.0
C1395 C 0.82232 0.12337 0.66277 0.0
H1396 H 0.78203 0.1848 0.61953 0.0
H1397 H 0.84028 0.16928 0.59348 0.0
H1398 H 0.76599 0.19338 0.59283 0.0
H1399 H 0.78619 0.18975 0.56639 0.0
H1400 H 0.88251 0.15579 0.73222 0.0
H1401 H 0.8269 0.17758 0.75587 0.0
H1402 H 0.89647 0.14752 0.75974 0.0
H1403 H 0.87597 0.15346 0.78532 0.0
H1404 H 0.34942 0.86652 0.04505 0.0
H1405 H 0.31924 0.92238 0.05261 0.0
H1406 H 0.3606 0.95844 0.03928 0.0
H1407 H 0.40699 0.97521 0.02757 0.0
H1408 H 0.43865 0.9205 0.02103 0.0
H1409 H 0.39498 0.88282 0.03137 0.0
C1410 C 0.35173 0.88648 0.04354 0.0
C1411 C 0.33139 0.89182 0.05004 0.0
C1412 C 0.37585 0.90734 0.03598 0.0
C1413 C 0.33479 0.91785 0.04803 0.0
C1414 C 0.35839 0.93847 0.04034 0.0
C1415 C 0.4041 0.95492 0.02818 0.0
C1416 C 0.42581 0.95056 0.02332 0.0
C1417 C 0.37931 0.93362 0.0346 0.0
C1418 C 0.42205 0.92428 0.02436 0.0
C1419 C 0.39715 0.90278 0.03044 0.0
H1420 H 0.13149 0.48087 0.05029 0.0
H1421 H 0.07738 0.39448 0.05509 0.0
H1422 H 0.03864 0.39848 0.04416 0.0
H1423 H 0.01942 0.42668 0.03445 0.0
H1424 H 0.07282 0.51314 0.03047 0.0
H1425 H 0.11247 0.50902 0.0396 0.0
C1426 C 0.1113 0.4629 0.04874 0.0
C1427 C 0.10733 0.43744 0.05365 0.0
C1428 C 0.08894 0.46537 0.04258 0.0
C1429 C 0.08094 0.41438 0.05168 0.0
C1430 C 0.05877 0.41662 0.04537 0.0
C1431 C 0.03984 0.44455 0.03544 0.0
C1432 C 0.04333 0.47007 0.03138 0.0
C1433 C 0.06242 0.44204 0.041 0.0
C1434 C 0.06972 0.49317 0.03305 0.0
C1435 C 0.09238 0.49083 0.03842 0.0
H1436 H 0.52757 0.66082 0.04677 0.0
H1437 H 0.60117 0.66978 0.07073 0.0
H1438 H 0.59169 0.62612 0.05956 0.0
H1439 H 0.56249 0.58536 0.04312 0.0
H1440 H 0.48942 0.57666 0.01866 0.0
H1441 H 0.49899 0.62045 0.02965 0.0
C1442 C 0.54173 0.6534 0.04938 0.0
C1443 C 0.56494 0.66853 0.05967 0.0
C1444 C 0.53631 0.62834 0.04279 0.0
C1445 C 0.58287 0.65837 0.06309 0.0
C1446 C 0.57757 0.63345 0.05663 0.0
C1447 C 0.54866 0.59298 0.04017 0.0
C1448 C 0.52547 0.57782 0.02992 0.0
C1449 C 0.55428 0.6182 0.04655 0.0
C1450 C 0.50775 0.58812 0.02626 0.0
C1451 C 0.5131 0.61311 0.03263 0.0
H1452 H 0.9009 0.33701 0.96128 0.0
H1453 H 0.83107 0.34027 0.98202 0.0
H1454 H 0.8626 0.38237 0.99653 0.0
H1455 H 0.91002 0.41931 1.00243 0.0
H1456 H 0.97964 0.41629 0.98104 0.0
H1457 H 0.94813 0.37343 0.96747 0.0
C1458 C 0.8925 0.34701 0.96884 0.0
C1459 C 0.86356 0.3354 0.97045 0.0
C1460 C 0.91074 0.37141 0.977 0.0
C1461 C 0.8532 0.34848 0.98065 0.0
C1462 C 0.87124 0.3727 0.98888 0.0
C1463 C 0.91836 0.40917 0.99496 0.0
C1464 C 0.94727 0.42111 0.99285 0.0
C1465 C 0.90006 0.38446 0.98707 0.0
C1466 C 0.95755 0.40773 0.9829 0.0
C1467 C 0.93952 0.38314 0.97511 0.0
H1468 H 0.6511 0.51409 0.975 0.0
H1469 H 0.69079 0.60135 0.97493 0.0
H1470 H 0.64955 0.59898 0.98731 0.0
H1471 H 0.60094 0.57215 0.99634 0.0
H1472 H 0.56008 0.48492 0.99501 0.0
H1473 H 0.60281 0.48713 0.98522 0.0
C1474 C 0.65081 0.53255 0.97794 0.0
C1475 C 0.67395 0.55786 0.97396 0.0
C1476 C 0.62671 0.53102 0.98478 0.0
C1477 C 0.67317 0.58162 0.9777 0.0
C1478 C 0.64959 0.58029 0.9848 0.0
C1479 C 0.60159 0.55367 0.99411 0.0
C1480 C 0.57764 0.52846 0.9968 0.0
C1481 C 0.62605 0.55512 0.9881 0.0
C1482 C 0.57847 0.50461 0.99347 0.0
C1483 C 0.60286 0.50586 0.98774 0.0
H1484 H 0.43138 0.08726 0.95524 0.0
H1485 H 0.5023 0.15679 0.97676 0.0
H1486 H 0.51588 0.12705 0.99079 0.0
H1487 H 0.50795 0.08111 0.99652 0.0
H1488 H 0.43697 0.01204 0.97444 0.0
H1489 H 0.42345 0.0418 0.96094 0.0
C1490 C 0.45 0.09596 0.96283 0.0
C1491 C 0.46581 0.12421 0.96488 0.0
C1492 C 0.45773 0.0788 0.9708 0.0
C1493 C 0.48958 0.13508 0.97507 0.0
C1494 C 0.49744 0.1181 0.98305 0.0
C1495 C 0.48941 0.07256 0.98888 0.0
C1496 C 0.47352 0.04429 0.98661 0.0
C1497 C 0.48166 0.08988 0.981 0.0
C1498 C 0.4497 0.03366 0.97647 0.0
C1499 C 0.44188 0.05068 0.96869 0.0
H1500 H 0.65731 0.08217 0.9664 0.0
H1501 H 0.62828 0.1396 0.9683 0.0
H1502 H 0.58475 0.10532 0.98097 0.0
H1503 H 0.55321 0.05756 0.98931 0.0
H1504 H 0.58283 0.00062 0.98726 0.0
H1505 H 0.62764 0.03598 0.97685 0.0
C1506 C 0.64144 0.08717 0.96955 0.0
C1507 C 0.64596 0.11332 0.96617 0.0
C1508 C 0.61646 0.06737 0.97681 0.0
C1509 C 0.62539 0.11963 0.97072 0.0
C1510 C 0.60041 0.09999 0.97792 0.0
C1511 C 0.56974 0.05315 0.98696 0.0
C1512 C 0.56488 0.0266 0.98923 0.0
C1513 C 0.5955 0.07362 0.98077 0.0
C1514 C 0.58623 0.02098 0.98573 0.0
C1515 C 0.6118 0.04115 0.97971 0.0
H1516 H 0.87414 0.51089 0.97369 0.0
H1517 H 0.92781 0.59667 0.96586 0.0
H1518 H 0.96685 0.59405 0.97764 0.0
H1519 H 0.98655 0.56711 0.98882 0.0
H1520 H 0.9339 0.48099 0.99533 0.0
H1521 H 0.8938 0.48396 0.98569 0.0
C1522 C 0.89431 0.52903 0.97476 0.0
C1523 C 0.89806 0.55392 0.96879 0.0
C1524 C 0.91692 0.5273 0.98132 0.0
C1525 C 0.92442 0.57721 0.97015 0.0
C1526 C 0.94677 0.57574 0.97692 0.0
C1527 C 0.9662 0.54906 0.98827 0.0
C1528 C 0.96309 0.52401 0.9932 0.0
C1529 C 0.94339 0.55086 0.98232 0.0
C1530 C 0.93675 0.50066 0.99208 0.0
C1531 C 0.91383 0.50233 0.98641 0.0
H1532 H 0.47426 0.35294 0.95536 0.0
H1533 H 0.41936 0.30699 0.99541 0.0
H1534 H 0.43264 0.34904 0.01077 0.0
H1535 H 0.45862 0.39946 0.01208 0.0
H1536 H 0.51304 0.44416 0.97141 0.0
H1537 H 0.50122 0.40214 0.95711 0.0
C1538 C 0.46501 0.35213 0.96739 0.0
C1539 C 0.44559 0.32697 0.97412 0.0
C1540 C 0.47272 0.37623 0.97608 0.0
C1541 C 0.43434 0.32618 0.98994 0.0
C1542 C 0.4419 0.3502 0.99871 0.0
C1543 C 0.46809 0.39988 1.0002 0.0
C1544 C 0.48645 0.42489 0.99276 0.0
C1545 C 0.46096 0.37543 0.99184 0.0
C1546 C 0.49852 0.42518 0.97732 0.0
C1547 C 0.49181 0.40116 0.9691 0.0
H1548 H 0.14372 0.65695 0.04945 0.0
H1549 H 0.07804 0.66776 0.06965 0.0
H1550 H 0.04342 0.62377 0.05843 0.0
H1551 H 0.03169 0.58206 0.04275 0.0
H1552 H 0.09786 0.57179 0.02266 0.0
H1553 H 0.13211 0.61572 0.03369 0.0
C1554 C 0.12183 0.64985 0.05124 0.0
C1555 C 0.11358 0.6657 0.06041 0.0
C1556 C 0.102 0.62455 0.04472 0.0
C1557 C 0.08506 0.65587 0.06283 0.0
C1558 C 0.0652 0.63074 0.05635 0.0
C1559 C 0.05359 0.58941 0.04081 0.0
C1560 C 0.06204 0.57364 0.03171 0.0
C1561 C 0.07341 0.61483 0.0473 0.0
C1562 C 0.09059 0.58356 0.02936 0.0
C1563 C 0.11031 0.60871 0.03575 0.0
H1564 H 0.34232 0.42859 0.04623 0.0
H1565 H 0.35503 0.50964 0.04975 0.0
H1566 H 0.40157 0.52805 0.03811 0.0
H1567 H 0.44051 0.52152 0.02963 0.0
H1568 H 0.42815 0.44074 0.02638 0.0
H1569 H 0.37974 0.42175 0.03508 0.0
C1570 C 0.35526 0.45026 0.04438 0.0
C1571 C 0.34527 0.46771 0.04903 0.0
C1572 C 0.38208 0.46074 0.03768 0.0
C1573 C 0.36213 0.49573 0.04626 0.0
C1574 C 0.38882 0.5063 0.03967 0.0
C1575 C 0.42687 0.49974 0.03037 0.0
C1576 C 0.43746 0.48244 0.0269 0.0
C1577 C 0.39923 0.48907 0.03564 0.0
C1578 C 0.42005 0.45431 0.02846 0.0
C1579 C 0.39252 0.44351 0.03362 0.0
H1580 H 0.52207 0.85537 0.04406 0.0
H1581 H 0.59509 0.92233 0.06597 0.0
H1582 H 0.58318 0.95429 0.05361 0.0
H1583 H 0.55194 0.96331 0.0369 0.0
H1584 H 0.47937 0.89663 0.01439 0.0
H1585 H 0.49156 0.86459 0.02641 0.0
C1586 C 0.53558 0.87697 0.04596 0.0
C1587 C 0.55934 0.88636 0.05605 0.0
C1588 C 0.52874 0.89532 0.03869 0.0
C1589 C 0.5764 0.91445 0.05853 0.0
C1590 C 0.56971 0.93279 0.05138 0.0
C1591 C 0.53875 0.94178 0.03459 0.0
C1592 C 0.51479 0.93246 0.02473 0.0
C1593 C 0.54585 0.92345 0.04154 0.0
C1594 C 0.49805 0.90445 0.02184 0.0
C1595 C 0.50495 0.88606 0.02876 0.0
H1596 H 1.00297 0.23502 0.3757 0.0
H1597 H 0.04524 0.19657 0.39761 0.0
H1598 H 0.08798 0.22808 0.38289 0.0
H1599 H 0.11417 0.26905 0.36577 0.0
H1600 H 0.073 0.31052 0.34675 0.0
H1601 H 0.02874 0.27513 0.35803 0.0
C1602 C 0.02152 0.23345 0.37708 0.0
C1603 C 0.02118 0.21371 0.38769 0.0
C1604 C 0.04607 0.25207 0.36902 0.0
C1605 C 0.04527 0.21187 0.38959 0.0
C1606 C 0.06959 0.22977 0.38115 0.0
C1607 C 0.09529 0.26982 0.36375 0.0
C1608 C 0.09639 0.29174 0.35506 0.0
C1609 C 0.07035 0.25025 0.37106 0.0
C1610 C 0.07223 0.29336 0.35308 0.0
C1611 C 0.04709 0.27331 0.35964 0.0
H1612 H 0.80311 0.82335 0.38459 0.0
H1613 H 0.75149 0.73656 0.38871 0.0
H1614 H 0.71196 0.73909 0.37765 0.0
H1615 H 0.69139 0.76604 0.36784 0.0
H1616 H 0.7421 0.85292 0.36471 0.0
H1617 H 0.78254 0.85039 0.37423 0.0
C1618 C 0.78327 0.80501 0.38288 0.0
C1619 C 0.78021 0.77982 0.38755 0.0
C1620 C 0.76042 0.80665 0.37673 0.0
C1621 C 0.7543 0.75622 0.38539 0.0
C1622 C 0.73169 0.75764 0.37905 0.0
C1623 C 0.71138 0.78436 0.36915 0.0
C1624 C 0.71396 0.80953 0.36517 0.0
C1625 C 0.7344 0.78274 0.37487 0.0
C1626 C 0.73978 0.83323 0.36726 0.0
C1627 C 0.76287 0.83179 0.37281 0.0
H1628 H 0.24563 0.02477 0.36147 0.0
H1629 H 0.24277 0.9981 0.41216 0.0
H1630 H 0.22673 0.95214 0.40245 0.0
H1631 H 0.21193 0.91919 0.3799 0.0
H1632 H 0.21176 0.94455 0.32926 0.0
H1633 H 0.23009 0.9913 0.33872 0.0
C1634 C 0.24131 0.00889 0.37042 0.0
C1635 C 0.24564 0.01506 0.38753 0.0
C1636 C 0.2314 0.98223 0.36479 0.0
C1637 C 0.24025 0.99419 0.39889 0.0
C1638 C 0.23081 0.96778 0.39337 0.0
C1639 C 0.21605 0.93491 0.37086 0.0
C1640 C 0.21056 0.92836 0.35388 0.0
C1641 C 0.22619 0.96157 0.37638 0.0
C1642 C 0.21576 0.94901 0.34241 0.0
C1643 C 0.22626 0.97575 0.34781 0.0
H1644 H 0.57998 0.67691 0.29184 0.0
H1645 H 0.50744 0.67993 0.30766 0.0
H1646 H 0.53677 0.72289 0.3219 0.0
H1647 H 0.58297 0.75976 0.32969 0.0
H1648 H 0.65555 0.7571 0.3134 0.0
H1649 H 0.62622 0.71417 0.29925 0.0
C1650 C 0.57057 0.68711 0.29821 0.0
C1651 C 0.54152 0.6751 0.29869 0.0
C1652 C 0.58756 0.71193 0.30628 0.0
C1653 C 0.52972 0.68847 0.30727 0.0
C1654 C 0.54648 0.71313 0.31535 0.0
C1655 C 0.5924 0.74971 0.32316 0.0
C1656 C 0.62145 0.7616 0.32277 0.0
C1657 C 0.57542 0.725 0.31499 0.0
C1658 C 0.63327 0.74846 0.31398 0.0
C1659 C 0.6165 0.72386 0.30586 0.0
H1660 H 0.3331 0.89957 0.29875 0.0
H1661 H 0.31155 0.81551 0.2989 0.0
H1662 H 0.26602 0.80264 0.31051 0.0
H1663 H 0.23083 0.81488 0.31871 0.0
H1664 H 0.25234 0.89877 0.31876 0.0
H1665 H 0.29917 0.91215 0.30895 0.0
C1666 C 0.31842 0.87845 0.30133 0.0
C1667 C 0.3257 0.85854 0.29781 0.0
C1668 C 0.29222 0.87116 0.30806 0.0
C1669 C 0.30658 0.83128 0.30152 0.0
C1670 C 0.28046 0.82387 0.3081 0.0
C1671 C 0.24609 0.83611 0.31692 0.0
C1672 C 0.2386 0.85594 0.3199 0.0
C1673 C 0.27289 0.84357 0.3112 0.0
C1674 C 0.25806 0.88331 0.31702 0.0
C1675 C 0.2847 0.8909 0.31127 0.0
H1676 H 0.09931 0.42641 0.28986 0.0
H1677 H 0.1651 0.49558 0.31518 0.0
H1678 H 0.17975 0.46628 0.32866 0.0
H1679 H 0.17417 0.42095 0.33292 0.0
H1680 H 0.10867 0.35244 0.30694 0.0
H1681 H 0.09412 0.38161 0.29382 0.0
C1682 C 0.1171 0.43518 0.29814 0.0
C1683 C 0.13106 0.46315 0.30146 0.0
C1684 C 0.12554 0.41832 0.30574 0.0
C1685 C 0.15375 0.47405 0.31252 0.0
C1686 C 0.16224 0.45734 0.32019 0.0
C1687 C 0.15652 0.41236 0.32454 0.0
C1688 C 0.14245 0.38437 0.32107 0.0
C1689 C 0.14823 0.4294 0.31691 0.0
C1690 C 0.12 0.37376 0.30988 0.0
C1691 C 0.11157 0.39049 0.30234 0.0
H1692 H 0.33056 0.427 0.30693 0.0
H1693 H 0.31092 0.49071 0.30006 0.0
H1694 H 0.26525 0.46233 0.31245 0.0
H1695 H 0.22906 0.41765 0.32246 0.0
H1696 H 0.24801 0.35353 0.32863 0.0
H1697 H 0.29581 0.38375 0.31955 0.0
C1698 C 0.31627 0.43464 0.30821 0.0
C1699 C 0.32397 0.46077 0.30242 0.0
C1700 C 0.28999 0.41818 0.31532 0.0
C1701 C 0.30548 0.47065 0.30442 0.0
C1702 C 0.27934 0.45443 0.31147 0.0
C1703 C 0.24403 0.41071 0.32229 0.0
C1704 C 0.23554 0.38383 0.32663 0.0
C1705 C 0.27117 0.42799 0.31665 0.0
C1706 C 0.25456 0.3745 0.32585 0.0
C1707 C 0.28171 0.39165 0.32045 0.0
H1708 H 0.58228 0.90395 0.30417 0.0
H1709 H 0.52337 0.81825 0.30326 0.0
H1710 H 0.55769 0.80883 0.31606 0.0
H1711 H 0.60611 0.82498 0.32526 0.0
H1712 H 0.66425 0.91086 0.32636 0.0
H1713 H 0.62879 0.92018 0.31562 0.0
C1714 C 0.57694 0.8832 0.30678 0.0
C1715 C 0.55043 0.86184 0.30253 0.0
C1716 C 0.59674 0.87796 0.31411 0.0
C1717 C 0.54364 0.83509 0.30636 0.0
C1718 C 0.56332 0.82968 0.31361 0.0
C1719 C 0.61072 0.8457 0.32353 0.0
C1720 C 0.63763 0.86727 0.32685 0.0
C1721 C 0.59014 0.85094 0.31726 0.0
C1722 C 0.64359 0.894 0.32406 0.0
C1723 C 0.62336 0.89933 0.31787 0.0
H1724 H 0.12646 0.69057 0.28655 0.0
H1725 H 0.09774 0.65097 0.33402 0.0
H1726 H 0.11251 0.69486 0.34738 0.0
H1727 H 0.13271 0.74468 0.34525 0.0
H1728 H 0.16164 0.78333 0.29762 0.0
H1729 H 0.14715 0.7396 0.28451 0.0
C1730 C 0.12309 0.69148 0.29978 0.0
C1731 C 0.11077 0.66757 0.30924 0.0
C1732 C 0.13152 0.7166 0.3073 0.0
C1733 C 0.10725 0.66915 0.32647 0.0
C1734 C 0.1156 0.69419 0.3341 0.0
C1735 C 0.13592 0.74337 0.33204 0.0
C1736 C 0.14755 0.76691 0.32226 0.0
C1737 C 0.12771 0.71807 0.32462 0.0
C1738 C 0.15175 0.76523 0.30519 0.0
C1739 C 0.14376 0.74031 0.29774 0.0
H1740 H 0.77843 0.98168 0.40817 0.0
H1741 H 0.81606 0.02157 0.36184 0.0
H1742 H 0.78518 0.98038 0.34648 0.0
H1743 H 0.7475 0.93308 0.34622 0.0
H1744 H 0.70869 0.89368 0.39222 0.0
H1745 H 0.73932 0.93504 0.40771 0.0
C1746 C 0.77963 0.98157 0.3947 0.0
C1747 C 0.79975 0.0047 0.38623 0.0
C1748 C 0.7615 0.95797 0.38588 0.0
C1749 C 0.80119 0.00394 0.36875 0.0
C1750 C 0.7834 0.98045 0.35992 0.0
C1751 C 0.74606 0.93347 0.35961 0.0
C1752 C 0.72629 0.91035 0.36809 0.0
C1753 C 0.76364 0.9573 0.36837 0.0
C1754 C 0.7238 0.91135 0.38544 0.0
C1755 C 0.74137 0.93492 0.39429 0.0
H1756 H 0.03428 0.82975 0.38709 0.0
H1757 H 0.98945 0.7483 0.36777 0.0
H1758 H 0.03125 0.75488 0.35347 0.0
H1759 H 0.08156 0.7827 0.34821 0.0
H1760 H 0.12732 0.8624 0.36982 0.0
H1761 H 0.08449 0.85785 0.38144 0.0
C1762 C 0.03369 0.81363 0.37957 0.0
C1763 C 0.00889 0.7886 0.37843 0.0
C1764 C 0.05804 0.8173 0.37181 0.0
C1765 C 0.00837 0.76769 0.36884 0.0
C1766 C 0.03225 0.77146 0.36068 0.0
C1767 C 0.0819 0.79923 0.35515 0.0
C1768 C 0.10722 0.82334 0.35753 0.0
C1769 C 0.05732 0.79601 0.36229 0.0
C1770 C 0.1078 0.84416 0.36722 0.0
C1771 C 0.08338 0.84142 0.37402 0.0
H1772 H 0.21624 0.22728 0.39838 0.0
H1773 H 0.27041 0.23873 0.35704 0.0
H1774 H 0.25354 0.26555 0.3425 0.0
H1775 H 0.22419 0.2869 0.34204 0.0
H1776 H 0.17028 0.2748 0.38376 0.0
H1777 H 0.18648 0.24737 0.39769 0.0
C1778 C 0.22458 0.23588 0.38627 0.0
C1779 C 0.24473 0.23128 0.37888 0.0
C1780 C 0.21482 0.25118 0.37803 0.0
C1781 C 0.25483 0.24198 0.36298 0.0
C1782 C 0.24525 0.25735 0.35468 0.0
C1783 C 0.2158 0.27798 0.35408 0.0
C1784 C 0.19612 0.28295 0.36185 0.0
C1785 C 0.22529 0.26217 0.36213 0.0
C1786 C 0.18564 0.27151 0.37755 0.0
C1787 C 0.19484 0.25575 0.38554 0.0
H1788 H 0.66656 0.57193 0.71298 0.0
H1789 H 0.69261 0.51221 0.71325 0.0
H1790 H 0.73674 0.54476 0.70025 0.0
H1791 H 0.77 0.5921 0.69184 0.0
H1792 H 0.74333 0.65138 0.69214 0.0
H1793 H 0.69745 0.61722 0.70187 0.0
C1794 C 0.68187 0.56602 0.71014 0.0
C1795 C 0.67654 0.53989 0.71434 0.0
C1796 C 0.70716 0.58484 0.70282 0.0
C1797 C 0.69628 0.53227 0.71021 0.0
C1798 C 0.72156 0.55091 0.70285 0.0
C1799 C 0.75385 0.59724 0.69362 0.0
C1800 C 0.75983 0.6241 0.69116 0.0
C1801 C 0.72753 0.5775 0.69949 0.0
C1802 C 0.73902 0.63075 0.69387 0.0
C1803 C 0.71285 0.61128 0.69949 0.0
H1804 H 0.42173 0.08911 0.71314 0.0
H1805 H 0.48226 0.17438 0.71284 0.0
H1806 H 0.44746 0.18466 0.70175 0.0
H1807 H 0.39843 0.16947 0.6948 0.0
H1808 H 0.33848 0.08404 0.695 0.0
H1809 H 0.37428 0.07373 0.70376 0.0
C1810 C 0.42733 0.10994 0.71058 0.0
C1811 C 0.4544 0.13097 0.71404 0.0
C1812 C 0.40722 0.11567 0.70436 0.0
C1813 C 0.46154 0.15782 0.71032 0.0
C1814 C 0.4416 0.16372 0.7041 0.0
C1815 C 0.39344 0.14861 0.69636 0.0
C1816 C 0.366 0.12745 0.69397 0.0
C1817 C 0.41419 0.14284 0.70143 0.0
C1818 C 0.35956 0.10056 0.69658 0.0
C1819 C 0.37998 0.09468 0.70161 0.0
H1820 H 0.86093 0.33292 0.71111 0.0
H1821 H 0.93804 0.34197 0.72949 0.0
H1822 H 0.92608 0.2977 0.71808 0.0
H1823 H 0.89341 0.25609 0.70339 0.0
H1824 H 0.81675 0.24743 0.68444 0.0
H1825 H 0.8291 0.29206 0.69535 0.0
C1826 C 0.87531 0.3254 0.71241 0.0
C1827 C 0.90024 0.34067 0.72124 0.0
C1828 C 0.86839 0.29997 0.70575 0.0
C1829 C 0.91848 0.33044 0.72298 0.0
C1830 C 0.91173 0.30517 0.71641 0.0
C1831 C 0.87937 0.26392 0.70166 0.0
C1832 C 0.8542 0.24841 0.69313 0.0
C1833 C 0.88662 0.28965 0.70792 0.0
C1834 C 0.83636 0.259 0.69089 0.0
C1835 C 0.84336 0.28451 0.69715 0.0
H1836 H 0.23017 0.00173 0.62383 0.0
H1837 H 0.15882 0.0019 0.64466 0.0
H1838 H 0.18923 0.04382 0.65979 0.0
H1839 H 0.2363 0.08142 0.66631 0.0
H1840 H 0.30715 0.08082 0.64478 0.0
H1841 H 0.27671 0.03845 0.6306 0.0
C1842 C 0.22121 0.01104 0.63154 0.0
C1843 C 0.19222 0.9987 0.63299 0.0
C1844 C 0.23877 0.0352 0.64009 0.0
C1845 C 0.18106 0.01081 0.64338 0.0
C1846 C 0.19844 0.03487 0.65198 0.0
C1847 C 0.2451 0.07189 0.65866 0.0
C1848 C 0.27408 0.08445 0.65668 0.0
C1849 C 0.22737 0.04736 0.65037 0.0
C1850 C 0.285 0.07183 0.64655 0.0
C1851 C 0.26759 0.0475 0.63839 0.0
H1852 H 0.99882 0.24244 0.63726 0.0
H1853 H 0.97337 0.15748 0.63888 0.0
H1854 H 0.92864 0.14723 0.65087 0.0
H1855 H 0.89493 0.16221 0.65843 0.0
H1856 H 0.92143 0.24744 0.65679 0.0
H1857 H 0.9673 0.25774 0.64725 0.0
C1858 C 0.98351 0.22167 0.64025 0.0
C1859 C 0.98935 0.20075 0.63691 0.0
C1860 C 0.95786 0.21595 0.6471 0.0
C1861 C 0.96945 0.17401 0.64126 0.0
C1862 C 0.94378 0.16811 0.64805 0.0
C1863 C 0.91101 0.18305 0.65638 0.0
C1864 C 0.9049 0.20411 0.65849 0.0
C1865 C 0.9375 0.18886 0.65072 0.0
C1866 C 0.92573 0.23095 0.65537 0.0
C1867 C 0.95193 0.23684 0.64985 0.0
H1868 H 0.77303 0.76206 0.62227 0.0
H1869 H 0.84841 0.82947 0.64156 0.0
H1870 H 0.85825 0.79826 0.65698 0.0
H1871 H 0.84619 0.75172 0.66431 0.0
H1872 H 0.7715 0.6844 0.64412 0.0
H1873 H 0.76091 0.71569 0.62963 0.0
C1874 C 0.79177 0.76993 0.62969 0.0
C1875 C 0.80994 0.79807 0.63071 0.0
C1876 C 0.79747 0.75189 0.63839 0.0
C1877 C 0.83387 0.80792 0.64068 0.0
C1878 C 0.83961 0.79008 0.64945 0.0
C1879 C 0.82746 0.74389 0.65687 0.0
C1880 C 0.80969 0.71573 0.65535 0.0
C1881 C 0.82159 0.76201 0.64837 0.0
C1882 C 0.78564 0.70596 0.64551 0.0
C1883 C 0.77953 0.72385 0.63718 0.0
H1884 H 0.97076 0.78723 0.63687 0.0
H1885 H 0.0058 0.73604 0.62677 0.0
H1886 H 0.96545 0.69747 0.63936 0.0
H1887 H 0.91892 0.67757 0.65175 0.0
H1888 H 0.88285 0.72817 0.66036 0.0
H1889 H 0.92496 0.76768 0.65033 0.0
C1890 C 0.96973 0.76772 0.63764 0.0
C1891 C 0.9912 0.7645 0.63077 0.0
C1892 C 0.94628 0.74551 0.64473 0.0
C1893 C 0.98938 0.73899 0.63172 0.0
C1894 C 0.96637 0.71694 0.63898 0.0
C1895 C 0.9205 0.69736 0.65162 0.0
C1896 C 0.89804 0.70003 0.65719 0.0
C1897 C 0.9445 0.71986 0.64529 0.0
C1898 C 0.90006 0.72563 0.65663 0.0
C1899 C 0.9241 0.74824 0.6507 0.0
H1900 H 0.20061 0.17432 0.63969 0.0
H1901 H 0.25331 0.26062 0.63347 0.0
H1902 H 0.29272 0.258 0.6446 0.0
H1903 H 0.31308 0.23095 0.65472 0.0
H1904 H 0.26111 0.14452 0.66007 0.0
H1905 H 0.22076 0.14738 0.65092 0.0
C1906 C 0.22063 0.19257 0.64099 0.0
C1907 C 0.22399 0.2176 0.6356 0.0
C1908 C 0.24345 0.19088 0.64724 0.0
C1909 C 0.25019 0.24104 0.63727 0.0
C1910 C 0.27277 0.23958 0.64368 0.0
C1911 C 0.29284 0.21281 0.65402 0.0
C1912 C 0.29002 0.18767 0.65845 0.0
C1913 C 0.26978 0.21458 0.64845 0.0
C1914 C 0.26378 0.16422 0.65717 0.0
C1915 C 0.24068 0.16583 0.6518 0.0
H1916 H 0.77744 0.01484 0.62183 0.0
H1917 H 0.85386 0.02156 0.63954 0.0
H1918 H 0.86436 0.06261 0.655 0.0
H1919 H 0.85235 0.09732 0.66293 0.0
H1920 H 0.77641 0.09085 0.64432 0.0
H1921 H 0.76546 0.04923 0.6297 0.0
C1922 C 0.79656 0.02544 0.6289 0.0
C1923 C 0.81483 0.01512 0.62946 0.0
C1924 C 0.80259 0.04912 0.63765 0.0
C1925 C 0.83926 0.02887 0.639 0.0
C1926 C 0.84536 0.05243 0.6478 0.0
C1927 C 0.8333 0.08668 0.6558 0.0
C1928 C 0.81526 0.09726 0.65477 0.0
C1929 C 0.82718 0.06278 0.6472 0.0
C1930 C 0.79077 0.0833 0.64533 0.0
C1931 C 0.78444 0.05944 0.63692 0.0
H1932 H 0.47466 0.31442 0.71529 0.0
H1933 H 0.4122 0.33385 0.73038 0.0
H1934 H 0.37579 0.29019 0.71973 0.0
H1935 H 0.36168 0.24642 0.70587 0.0
H1936 H 0.42482 0.2278 0.69076 0.0
H1937 H 0.46079 0.2712 0.70146 0.0
C1938 C 0.45312 0.30927 0.71608 0.0
C1939 C 0.44622 0.32741 0.72361 0.0
C1940 C 0.43231 0.28419 0.70991 0.0
C1941 C 0.4181 0.32014 0.72479 0.0
C1942 C 0.39725 0.29521 0.71865 0.0
C1943 C 0.3833 0.25183 0.70502 0.0
C1944 C 0.39047 0.23393 0.69739 0.0
C1945 C 0.40409 0.277 0.71122 0.0
C1946 C 0.41863 0.24129 0.69636 0.0
C1947 C 0.4393 0.26612 0.70252 0.0
H1948 H 0.68982 0.1566 0.71206 0.0
H1949 H 0.65682 0.071 0.72021 0.0
H1950 H 0.69858 0.07399 0.70826 0.0
H1951 H 0.74565 0.10129 0.69699 0.0
H1952 H 0.77979 0.1872 0.69008 0.0
H1953 H 0.73644 0.1837 0.69962 0.0
C1954 C 0.69164 0.13856 0.71101 0.0
C1955 C 0.67029 0.11366 0.71718 0.0
C1956 C 0.71595 0.14047 0.70428 0.0
C1957 C 0.67311 0.0905 0.71583 0.0
C1958 C 0.69695 0.09216 0.70893 0.0
C1959 C 0.74341 0.11916 0.6974 0.0
C1960 C 0.76568 0.14433 0.69247 0.0
C1961 C 0.71867 0.11709 0.70336 0.0
C1962 C 0.76275 0.16745 0.69335 0.0
C1963 C 0.73801 0.16549 0.69898 0.0
H1964 H 0.85666 0.52618 0.71324 0.0
H1965 H 0.92962 0.59313 0.7352 0.0
H1966 H 0.91735 0.62504 0.72314 0.0
H1967 H 0.88619 0.63403 0.70632 0.0
H1968 H 0.81353 0.56729 0.68391 0.0
H1969 H 0.82578 0.5353 0.69591 0.0
C1970 C 0.87005 0.54777 0.71524 0.0
C1971 C 0.89399 0.55718 0.72518 0.0
C1972 C 0.86302 0.56608 0.70813 0.0
C1973 C 0.91085 0.58524 0.72784 0.0
C1974 C 0.90395 0.60355 0.72086 0.0
C1975 C 0.87298 0.6125 0.70403 0.0
C1976 C 0.84905 0.60316 0.69412 0.0
C1977 C 0.88007 0.59419 0.71101 0.0
C1978 C 0.83224 0.57514 0.69132 0.0
C1979 C 0.83916 0.55678 0.69825 0.0
H1980 H 0.4557 0.93458 0.16665 0.0
H1981 H 0.5377 0.98354 0.18736 0.0
H1982 H 0.55402 0.00761 0.16106 0.0
H1983 H 0.54537 0.01513 0.13219 0.0
H1984 H 0.4633 0.96758 0.11136 0.0
H1985 H 0.44691 0.94255 0.1375 0.0
C1986 C 0.47709 0.95064 0.16546 0.0
C1987 C 0.49541 0.95701 0.17907 0.0
C1988 C 0.48646 0.96463 0.15018 0.0
C1989 C 0.52316 0.97777 0.17712 0.0
C1990 C 0.53253 0.99171 0.16206 0.0
C1991 C 0.5238 0.99948 0.13335 0.0
C1992 C 0.50566 0.99346 0.1197 0.0
C1993 C 0.51441 0.98534 0.14851 0.0
C1994 C 0.47792 0.97258 0.12149 0.0
C1995 C 0.46844 0.95834 0.13653 0.0
H1996 H 0.0408 0.5043 0.1736 0.0
H1997 H 0.99074 0.53666 0.19277 0.0
H1998 H 0.96776 0.52936 0.16588 0.0
H1999 H 0.96218 0.51443 0.13683 0.0
H2000 H 0.0106 0.48019 0.11779 0.0
H2001 H 0.03391 0.4877 0.14466 0.0
C2002 C 0.02465 0.50948 0.17195 0.0
C2003 C 0.01771 0.5212 0.18521 0.0
C2004 C 0.01128 0.50503 0.15644 0.0
C2005 C 0.99692 0.52807 0.18274 0.0
C2006 C 0.98361 0.52376 0.16738 0.0
C2007 C 0.97757 0.50827 0.13858 0.0
C2008 C 0.98459 0.4968 0.12523 0.0
C2009 C 0.99069 0.51235 0.15412 0.0
C2010 C 0.00502 0.48944 0.12773 0.0
C2011 C 0.01825 0.49356 0.14314 0.0
H2012 H 0.45329 0.49442 0.17173 0.0
H2013 H 0.53357 0.5199 0.19346 0.0
H2014 H 0.549 0.50917 0.16758 0.0
H2015 H 0.54019 0.49347 0.13856 0.0
H2016 H 0.45984 0.46741 0.11677 0.0
H2017 H 0.44406 0.47749 0.1428 0.0
C2018 C 0.47406 0.49735 0.17086 0.0
C2019 C 0.49225 0.50809 0.18455 0.0
C2020 C 0.48288 0.49116 0.15587 0.0
C2021 C 0.51923 0.51205 0.18308 0.0
C2022 C 0.52806 0.5058 0.16829 0.0
C2023 C 0.51911 0.48967 0.13954 0.0
C2024 C 0.50129 0.4797 0.12566 0.0
C2025 C 0.51013 0.49548 0.15457 0.0
C2026 C 0.47417 0.47539 0.12714 0.0
C2027 C 0.46505 0.48101 0.14208 0.0
H2028 H 0.97939 0.5097 0.85203 0.0
H2029 H 0.02743 0.47585 0.83181 0.0
H2030 H 0.04982 0.48093 0.85872 0.0
H2031 H 0.05414 0.49288 0.88825 0.0
H2032 H 0.00741 0.52815 0.90848 0.0
H2033 H 0.98609 0.52454 0.8813 0.0
C2034 C 0.99507 0.50383 0.85345 0.0
C2035 C 1.00152 0.49217 0.83997 0.0
C2036 C 0.00792 0.50683 0.86899 0.0
C2037 C 0.0217 0.48442 0.84207 0.0
C2038 C 0.03461 0.48742 0.85743 0.0
C2039 C 0.03966 0.50022 0.88668 0.0
C2040 C 0.03231 0.51063 0.90043 0.0
C2041 C 0.02763 0.49827 0.87102 0.0
C2042 C 0.01311 0.51961 0.89818 0.0
C2043 C 1.00102 0.51772 0.88262 0.0
H2044 H 0.55808 0.50403 0.85023 0.0
H2045 H 0.47673 0.47514 0.82911 0.0
H2046 H 0.46064 0.4843 0.85523 0.0
H2047 H 0.46896 0.49896 0.88428 0.0
H2048 H 0.55025 0.52877 0.90569 0.0
H2049 H 0.56694 0.52057 0.87936 0.0
C2050 C 0.53695 0.50006 0.85131 0.0
C2051 C 0.51859 0.48871 0.83776 0.0
C2052 C 0.52771 0.5053 0.86647 0.0
C2053 C 0.49118 0.48347 0.83942 0.0
C2054 C 0.48196 0.48878 0.85434 0.0
C2055 C 0.49045 0.50405 0.88316 0.0
C2056 C 0.50827 0.51449 0.897 0.0
C2057 C 0.49994 0.49945 0.86798 0.0
C2058 C 0.53593 0.5204 0.89534 0.0
C2059 C 0.54555 0.51588 0.88023 0.0
H2060 H 0.54126 0.0486 0.84783 0.0
H2061 H 0.45956 0.00499 0.82596 0.0
H2062 H 0.4413 0.97907 0.85153 0.0
H2063 H 0.44827 0.96855 0.8801 0.0
H2064 H 0.52998 0.01106 0.90199 0.0
H2065 H 0.54833 0.03765 0.87655 0.0
C2066 C 0.51951 0.03329 0.84862 0.0
C2067 C 0.50184 0.02891 0.83495 0.0
C2068 C 0.50906 0.01828 0.86343 0.0
C2069 C 0.47361 0.00915 0.83632 0.0
C2070 C 0.46313 0.99417 0.85093 0.0
C2071 C 0.47016 0.98344 0.87928 0.0
C2072 C 0.48766 0.98766 0.893 0.0
C2073 C 0.48064 0.99854 0.86456 0.0
C2074 C 0.51589 0.00751 0.89175 0.0
C2075 C 0.52647 0.02264 0.87714 0.0
H2076 H 0.11383 0.27503 0.50255 0.0
H2077 H 0.19348 0.32874 0.52478 0.0
H2078 H 0.20942 0.35402 0.49884 0.0
H2079 H 0.20123 0.361 0.46979 0.0
H2080 H 0.12162 0.30827 0.44725 0.0
H2081 H 0.10545 0.28246 0.47316 0.0
C2082 C 0.1346 0.29239 0.50174 0.0
C2083 C 0.15244 0.29978 0.51566 0.0
C2084 C 0.14378 0.30698 0.48665 0.0
C2085 C 0.17939 0.32224 0.51427 0.0
C2086 C 0.18853 0.33684 0.49943 0.0
C2087 C 0.18023 0.34403 0.47054 0.0
C2088 C 0.16272 0.33677 0.45649 0.0
C2089 C 0.17097 0.32938 0.48552 0.0
C2090 C 0.13575 0.31426 0.45772 0.0
C2091 C 0.12638 0.29957 0.47262 0.0
H2092 H 0.68484 0.87174 0.51315 0.0
H2093 H 0.73771 0.84023 0.49792 0.0
H2094 H 0.71448 0.82744 0.47092 0.0
H2095 H 0.67883 0.82471 0.45167 0.0
H2096 H 0.6267 0.85722 0.46659 0.0
H2097 H 0.64993 0.87003 0.4936 0.0
C2098 C 0.6915 0.86234 0.50386 0.0
C2099 C 0.71299 0.85692 0.50764 0.0
C2100 C 0.67809 0.85508 0.48829 0.0
C2101 C 0.721 0.84432 0.49549 0.0
C2102 C 0.70781 0.83711 0.47999 0.0
C2103 C 0.67273 0.83486 0.46075 0.0
C2104 C 0.65097 0.83992 0.45705 0.0
C2105 C 0.68628 0.84232 0.47626 0.0
C2106 C 0.64309 0.8527 0.46913 0.0
C2107 C 0.65649 0.8602 0.48457 0.0
H2108 H 0.18512 0.87107 0.51136 0.0
H2109 H 0.10011 0.83839 0.49575 0.0
H2110 H 0.11191 0.83003 0.46788 0.0
H2111 H 0.14627 0.83088 0.44803 0.0
H2112 H 0.23112 0.86339 0.46391 0.0
H2113 H 0.21956 0.87312 0.49142 0.0
C2114 C 0.16922 0.86242 0.50181 0.0
C2115 C 0.14175 0.85535 0.50571 0.0
C2116 C 0.17612 0.85755 0.48581 0.0
C2117 C 0.12136 0.84374 0.4932 0.0
C2118 C 0.12812 0.83906 0.47721 0.0
C2119 C 0.16226 0.84036 0.45746 0.0
C2120 C 0.18951 0.84626 0.4539 0.0
C2121 C 0.15541 0.84572 0.47338 0.0
C2122 C 0.20992 0.8583 0.46635 0.0
C2123 C 0.20335 0.86396 0.48209 0.0
H2124 H 0.63679 0.79317 0.18634 0.0
H2125 H 0.69664 0.87149 0.16685 0.0
H2126 H 0.72132 0.88345 0.19348 0.0
H2127 H 0.72581 0.87156 0.22234 0.0
H2128 H 0.66581 0.7932 0.24168 0.0
H2129 H 0.64137 0.78122 0.21501 0.0
C2130 C 0.65537 0.81277 0.18788 0.0
C2131 C 0.66492 0.83138 0.17464 0.0
C2132 C 0.66943 0.81947 0.20318 0.0
C2133 C 0.68873 0.8569 0.17691 0.0
C2134 C 0.70293 0.86368 0.19209 0.0
C2135 C 0.70754 0.85178 0.22063 0.0
C2136 C 0.69763 0.83327 0.23392 0.0
C2137 C 0.69349 0.84511 0.2053 0.0
C2138 C 0.67369 0.80786 0.23165 0.0
C2139 C 0.65976 0.80098 0.21641 0.0
H2140 H 0.2189 0.85476 0.18438 0.0
H2141 H 0.13374 0.80151 0.16987 0.0
H2142 H 0.11779 0.81182 0.19561 0.0
H2143 H 0.12767 0.83586 0.22221 0.0
H2144 H 0.21249 0.89068 0.23656 0.0
H2145 H 0.22881 0.87969 0.21104 0.0
C2146 C 0.19686 0.84558 0.18679 0.0
C2147 C 0.17762 0.82721 0.17518 0.0
C2148 C 0.1877 0.85179 0.20165 0.0
C2149 C 0.1491 0.81531 0.17865 0.0
C2150 C 0.1399 0.82133 0.19336 0.0
C2151 C 0.14974 0.84568 0.21971 0.0
C2152 C 0.16876 0.86418 0.23133 0.0
C2153 C 0.15898 0.83952 0.20493 0.0
C2154 C 0.19732 0.87616 0.22797 0.0
C2155 C 0.20669 0.87002 0.2133 0.0
H2156 H 0.22126 0.3758 0.18185 0.0
H2157 H 0.14395 0.31593 0.15972 0.0
H2158 H 0.13023 0.29073 0.18581 0.0
H2159 H 0.13952 0.28597 0.21512 0.0
H2160 H 0.21697 0.34524 0.2374 0.0
H2161 H 0.2311 0.37031 0.21119 0.0
C2162 C 0.20154 0.3571 0.18269 0.0
C2163 C 0.18363 0.34793 0.16879 0.0
C2164 C 0.19366 0.34262 0.19784 0.0
C2165 C 0.15801 0.32375 0.17023 0.0
C2166 C 0.15016 0.30922 0.18515 0.0
C2167 C 0.15964 0.3042 0.21423 0.0
C2168 C 0.17707 0.31361 0.22832 0.0
C2169 C 0.16772 0.31851 0.19908 0.0
C2170 C 0.20289 0.33761 0.2269 0.0
C2171 C 0.2111 0.35192 0.21185 0.0
H2172 H 0.82635 0.60379 0.83497 0.0
H2173 H 0.81404 0.66597 0.85731 0.0
H2174 H 0.82515 0.69035 0.83092 0.0
H2175 H 0.839 0.69456 0.80158 0.0
H2176 H 0.85137 0.63266 0.77893 0.0
H2177 H 0.83943 0.60762 0.80522 0.0
C2178 C 0.82622 0.62273 0.83406 0.0
C2179 C 0.81933 0.63298 0.84814 0.0
C2180 C 0.83257 0.6367 0.81875 0.0
C2181 C 0.81894 0.65741 0.84666 0.0
C2182 C 0.82543 0.67147 0.83158 0.0
C2183 C 0.83922 0.67565 0.80241 0.0
C2184 C 0.84623 0.66562 0.78829 0.0
C2185 C 0.83236 0.66138 0.81756 0.0
C2186 C 0.84587 0.64079 0.78954 0.0
C2187 C 0.8392 0.62652 0.80461 0.0
H2188 H 0.33665 0.15154 0.84765 0.0
H2189 H 0.40415 0.22999 0.83357 0.0
H2190 H 0.38505 0.22403 0.80543 0.0
H2191 H 0.34819 0.19703 0.78499 0.0
H2192 H 0.28003 0.11926 0.79949 0.0
H2193 H 0.30038 0.12431 0.82716 0.0
C2194 C 0.34733 0.1672 0.83836 0.0
C2195 C 0.37179 0.19117 0.84272 0.0
C2196 C 0.33604 0.16377 0.82226 0.0
C2197 C 0.38515 0.21144 0.8306 0.0
C2198 C 0.37429 0.20801 0.81448 0.0
C2199 C 0.33799 0.18111 0.79417 0.0
C2200 C 0.31261 0.15783 0.7902 0.0
C2201 C 0.34962 0.18434 0.81019 0.0
C2202 C 0.29945 0.13748 0.80229 0.0
C2203 C 0.3111 0.14033 0.81811 0.0
H2204 H 0.78078 0.17301 0.83385 0.0
H2205 H 0.86104 0.20648 0.85735 0.0
H2206 H 0.88091 0.20125 0.83156 0.0
H2207 H 0.876 0.18776 0.80225 0.0
H2208 H 0.79585 0.15317 0.77851 0.0
H2209 H 0.77569 0.15857 0.80428 0.0
C2210 C 0.80255 0.17894 0.83336 0.0
C2211 C 0.81937 0.19032 0.84758 0.0
C2212 C 0.814 0.17588 0.81836 0.0
C2213 C 0.84764 0.19809 0.8466 0.0
C2214 C 0.85905 0.195 0.83184 0.0
C2215 C 0.85404 0.18111 0.80271 0.0
C2216 C 0.83756 0.17 0.78835 0.0
C2217 C 0.8425 0.18403 0.81762 0.0
C2218 C 0.80923 0.16209 0.78922 0.0
C2219 C 0.79759 0.16499 0.80403 0.0
H2220 H 0.35095 0.19462 0.50691 0.0
H2221 H 0.2737 0.12175 0.51741 0.0
H2222 H 0.28777 0.12308 0.54637 0.0
H2223 H 0.32332 0.14313 0.56817 0.0
H2224 H 0.40088 0.21571 0.5577 0.0
H2225 H 0.38543 0.21633 0.5293 0.0
C2226 C 0.33704 0.17933 0.51563 0.0
C2227 C 0.31141 0.15805 0.51003 0.0
C2228 C 0.34543 0.18001 0.53222 0.0
C2229 C 0.29369 0.13816 0.5214 0.0
C2230 C 0.30169 0.13893 0.53796 0.0
C2231 C 0.33666 0.15934 0.55976 0.0
C2232 C 0.36327 0.17925 0.56503 0.0
C2233 C 0.32772 0.15947 0.54343 0.0
C2234 C 0.38045 0.19991 0.55389 0.0
C2235 C 0.37159 0.20035 0.53766 0.0
H2236 H 0.86326 0.18316 0.50602 0.0
H2237 H 0.85964 0.11005 0.52396 0.0
H2238 H 0.84253 0.11553 0.55087 0.0
H2239 H 0.82684 0.14006 0.56892 0.0
H2240 H 0.83025 0.21312 0.55103 0.0
H2241 H 0.84908 0.20864 0.52449 0.0
C2242 C 0.85909 0.16865 0.51591 0.0
C2243 C 0.86267 0.14621 0.51299 0.0
C2244 C 0.84898 0.17178 0.53131 0.0
C2245 C 0.85679 0.12736 0.52585 0.0
C2246 C 0.84706 0.1305 0.54124 0.0
C2247 C 0.83202 0.15519 0.55929 0.0
C2248 C 0.82706 0.17685 0.56196 0.0
C2249 C 0.8428 0.15247 0.54406 0.0
C2250 C 0.8335 0.19604 0.54923 0.0
C2251 C 0.84442 0.19358 0.53408 0.0
H2252 H 0.84749 0.72172 0.51656 0.0
H2253 H 0.866 0.66311 0.49494 0.0
H2254 H 0.85234 0.63707 0.52078 0.0
H2255 H 0.83383 0.63012 0.5493 0.0
H2256 H 0.81484 0.68842 0.57085 0.0
H2257 H 0.82998 0.71532 0.54533 0.0
C2258 C 0.84844 0.70319 0.51747 0.0
C2259 C 0.85773 0.69441 0.50375 0.0
C2260 C 0.84042 0.6882 0.53238 0.0
C2261 C 0.85925 0.67056 0.50531 0.0
C2262 C 0.85125 0.65553 0.52007 0.0
C2263 C 0.83287 0.64865 0.54839 0.0
C2264 C 0.82306 0.65713 0.56199 0.0
C2265 C 0.84159 0.66403 0.53364 0.0
C2266 C 0.82248 0.68149 0.56066 0.0
C2267 C 0.83101 0.69682 0.54602 0.0
loop_
_geom_bond_atom_site_label_1
_geom_bond_atom_site_label_2
_geom_bond_distance
_geom_bond_site_symmetry_2
_ccdc_geom_bond_type
C0 C1 1.384 . S
C0 H13 0.947 . S
C0 C35 1.382 . S
C1 C0 1.384 . S
C1 C2 1.378 . S
C2 C1 1.378 . S
C2 C3 1.378 . S
C2 H14 0.952 . S
C3 C2 1.378 . S
C3 H15 0.950 . S
C3 C34 1.383 . S
H4 C23 0.947 . S
H5 C24 0.946 . S
H6 C26 0.953 . S
H7 C27 0.945 . S
H8 C29 0.952 . S
H9 C30 0.949 . S
H10 C32 0.950 . S
H11 C33 0.948 . S
H12 C35 0.951 . S
H13 C0 0.947 . S
H14 C2 0.952 . S
H15 C3 0.950 . S
N16 C19 1.382 . S
N16 C21 1.363 . S
N17 C19 1.371 . S
N17 C20 1.372 . S
N18 C20 1.361 . S
N18 C21 1.377 . S
C19 N16 1.382 . S
C19 N17 1.371 . S
C19 C22 1.480 . S
C20 N17 1.372 . S
C20 N18 1.361 . S
C20 C28 1.457 . S
C21 N16 1.363 . S
C21 N18 1.377 . S
C21 C34 1.479 . S
C22 C19 1.480 . S
C22 C23 1.383 . S
C22 C27 1.385 . S
C23 H4 0.947 . S
C23 C22 1.383 . S
C23 C24 1.388 . S
C24 H5 0.946 . S
C24 C23 1.388 . S
C24 C25 1.384 . S
C25 C24 1.384 . S
C25 C26 1.377 . S
C26 H6 0.953 . S
C26 C25 1.377 . S
C26 C27 1.369 . S
C27 H7 0.945 . S
C27 C22 1.385 . S
C27 C26 1.369 . S
C28 C20 1.457 . S
C28 C29 1.372 . S
C28 C33 1.364 . S
C29 H8 0.952 . S
C29 C28 1.372 . S
C29 C30 1.389 . S
C30 H9 0.949 . S
C30 C29 1.389 . S
C30 C31 1.387 . S
C31 C30 1.387 . S
C31 C32 1.372 . S
C32 H10 0.950 . S
C32 C31 1.372 . S
C32 C33 1.379 . S
C33 H11 0.948 . S
C33 C28 1.364 . S
C33 C32 1.379 . S
C34 C3 1.383 . S
C34 C21 1.479 . S
C34 C35 1.398 . S
C35 C0 1.382 . S
C35 H12 0.951 . S
C35 C34 1.398 . S
C36 C37 1.384 . S
C36 H49 0.947 . S
C36 C71 1.382 . S
C37 C36 1.384 . S
C37 C38 1.378 . S
C38 C37 1.378 . S
C38 C39 1.378 . S
C38 H50 0.952 . S
C39 C38 1.378 . S
C39 H51 0.950 . S
C39 C70 1.383 . S
H40 C59 0.947 . S
H41 C60 0.946 . S
H42 C62 0.953 . S
H43 C63 0.945 . S
H44 C65 0.952 . S
H45 C66 0.949 . S
H46 C68 0.950 . S
H47 C69 0.948 . S
H48 C71 0.951 . S
H49 C36 0.947 . S
H50 C38 0.952 . S
H51 C39 0.950 . S
N52 C55 1.382 . S
N52 C57 1.363 . S
N53 C55 1.371 . S
N53 C56 1.372 . S
N54 C56 1.361 . S
N54 C57 1.377 . S
C55 N52 1.382 . S
C55 N53 1.371 . S
C55 C58 1.480 . S
C56 N53 1.372 . S
C56 N54 1.361 . S
C56 C64 1.457 . S
C57 N52 1.363 . S
C57 N54 1.377 . S
C57 C70 1.479 . S
C58 C55 1.480 . S
C58 C59 1.383 . S
C58 C63 1.385 . S
C59 H40 0.947 . S
C59 C58 1.383 . S
C59 C60 1.388 . S
C60 H41 0.946 . S
C60 C59 1.388 . S
C60 C61 1.384 . S
C61 C60 1.384 . S
C61 C62 1.377 . S
C62 H42 0.953 . S
C62 C61 1.377 . S
C62 C63 1.369 . S
C63 H43 0.945 . S
C63 C58 1.385 . S
C63 C62 1.369 . S
C64 C56 1.457 . S
C64 C65 1.372 . S
C64 C69 1.364 . S
C65 H44 0.952 . S
C65 C64 1.372 . S
C65 C66 1.389 . S
C66 H45 0.949 . S
C66 C65 1.389 . S
C66 C67 1.387 . S
C67 C66 1.387 . S
C67 C68 1.372 . S
C68 H46 0.950 . S
C68 C67 1.372 . S
C68 C69 1.379 . S
C69 H47 0.948 . S
C69 C64 1.364 . S
C69 C68 1.379 . S
C70 C39 1.383 . S
C70 C57 1.479 . S
C70 C71 1.398 . S
C71 C36 1.382 . S
C71 H48 0.951 . S
C71 C70 1.398 . S
C72 C73 1.384 . S
C72 H85 0.947 . S
C72 C107 1.382 . S
C73 C72 1.384 . S
C73 C74 1.378 . S
C74 C73 1.378 . S
C74 C75 1.378 . S
C74 H86 0.952 . S
C75 C74 1.378 . S
C75 H87 0.950 . S
C75 C106 1.383 . S
H76 C95 0.947 . S
H77 C96 0.946 . S
H78 C98 0.953 . S
H79 C99 0.945 . S
H80 C101 0.952 . S
H81 C102 0.949 . S
H82 C104 0.950 . S
H83 C105 0.948 . S
H84 C107 0.951 . S
H85 C72 0.947 . S
H86 C74 0.952 . S
H87 C75 0.950 . S
N88 C91 1.382 . S
N88 C93 1.363 . S
N89 C91 1.371 . S
N89 C92 1.372 . S
N90 C92 1.361 . S
N90 C93 1.377 . S
C91 N88 1.382 . S
C91 N89 1.371 . S
C91 C94 1.480 . S
C92 N89 1.372 . S
C92 N90 1.361 . S
C92 C100 1.457 . S
C93 N88 1.363 . S
C93 N90 1.377 . S
C93 C106 1.479 . S
C94 C91 1.480 . S
C94 C95 1.383 . S
C94 C99 1.385 . S
C95 H76 0.947 . S
C95 C94 1.383 . S
C95 C96 1.388 . S
C96 H77 0.946 . S
C96 C95 1.388 . S
C96 C97 1.384 . S
C97 C96 1.384 . S
C97 C98 1.377 . S
C98 H78 0.953 . S
C98 C97 1.377 . S
C98 C99 1.369 . S
C99 H79 0.945 . S
C99 C94 1.385 . S
C99 C98 1.369 . S
C100 C92 1.457 . S
C100 C101 1.372 . S
C100 C105 1.364 . S
C101 H80 0.952 . S
C101 C100 1.372 . S
C101 C102 1.389 . S
C102 H81 0.949 . S
C102 C101 1.389 . S
C102 C103 1.387 . S
C103 C102 1.387 . S
C103 C104 1.372 . S
C104 H82 0.950 . S
C104 C103 1.372 . S
C104 C105 1.379 . S
C105 H83 0.948 . S
C105 C100 1.364 . S
C105 C104 1.379 . S
C106 C75 1.383 . S
C106 C93 1.479 . S
C106 C107 1.398 . S
C107 C72 1.382 . S
C107 H84 0.951 . S
C107 C106 1.398 . S
C108 C109 1.384 . S
C108 H121 0.947 . S
C108 C143 1.382 . S
C109 C108 1.384 . S
C109 C110 1.378 . S
C110 C109 1.378 . S
C110 C111 1.378 . S
C110 H122 0.952 . S
C111 C110 1.378 . S
C111 H123 0.950 . S
C111 C142 1.383 . S
H112 C131 0.947 . S
H113 C132 0.946 . S
H114 C134 0.953 . S
H115 C135 0.945 . S
H116 C137 0.952 . S
H117 C138 0.949 . S
H118 C140 0.950 . S
H119 C141 0.948 . S
H120 C143 0.951 . S
H121 C108 0.947 . S
H122 C110 0.952 . S
H123 C111 0.950 . S
N124 C127 1.382 . S
N124 C129 1.363 . S
N125 C127 1.371 . S
N125 C128 1.372 . S
N126 C128 1.361 . S
N126 C129 1.377 . S
C127 N124 1.382 . S
C127 N125 1.371 . S
C127 C130 1.480 . S
C128 N125 1.372 . S
C128 N126 1.361 . S
C128 C136 1.457 . S
C129 N124 1.363 . S
C129 N126 1.377 . S
C129 C142 1.479 . S
C130 C127 1.480 . S
C130 C131 1.383 . S
C130 C135 1.385 . S
C131 H112 0.947 . S
C131 C130 1.383 . S
C131 C132 1.388 . S
C132 H113 0.946 . S
C132 C131 1.388 . S
C132 C133 1.384 . S
C133 C132 1.384 . S
C133 C134 1.377 . S
C134 H114 0.953 . S
C134 C133 1.377 . S
C134 C135 1.369 . S
C135 H115 0.945 . S
C135 C130 1.385 . S
C135 C134 1.369 . S
C136 C128 1.457 . S
C136 C137 1.372 . S
C136 C141 1.364 . S
C137 H116 0.952 . S
C137 C136 1.372 . S
C137 C138 1.389 . S
C138 H117 0.949 . S
C138 C137 1.389 . S
C138 C139 1.387 . S
C139 C138 1.387 . S
C139 C140 1.372 . S
C140 H118 0.950 . S
C140 C139 1.372 . S
C140 C141 1.379 . S
C141 H119 0.948 . S
C141 C136 1.364 . S
C141 C140 1.379 . S
C142 C111 1.383 . S
C142 C129 1.479 . S
C142 C143 1.398 . S
C143 C108 1.382 . S
C143 H120 0.951 . S
C143 C142 1.398 . S
C144 C145 1.384 . S
C144 H157 0.947 . S
C144 C179 1.382 . S
C145 C144 1.384 . S
C145 C146 1.378 . S
C146 C145 1.378 . S
C146 C147 1.378 . S
C146 H158 0.952 . S
C147 C146 1.378 . S
C147 H159 0.950 . S
C147 C178 1.383 . S
H148 C167 0.947 . S
H149 C168 0.946 . S
H150 C170 0.953 . S
H151 C171 0.945 . S
H152 C173 0.952 . S
H153 C174 0.949 . S
H154 C176 0.950 . S
H155 C177 0.948 . S
H156 C179 0.951 . S
H157 C144 0.947 . S
H158 C146 0.952 . S
H159 C147 0.950 . S
N160 C163 1.382 . S
N160 C165 1.363 . S
N161 C163 1.371 . S
N161 C164 1.372 . S
N162 C164 1.361 . S
N162 C165 1.377 . S
C163 N160 1.382 . S
C163 N161 1.371 . S
C163 C166 1.480 . S
C164 N161 1.372 . S
C164 N162 1.361 . S
C164 C172 1.457 . S
C165 N160 1.363 . S
C165 N162 1.377 . S
C165 C178 1.479 . S
C166 C163 1.480 . S
C166 C167 1.383 . S
C166 C171 1.385 . S
C167 H148 0.947 . S
C167 C166 1.383 . S
C167 C168 1.388 . S
C168 H149 0.946 . S
C168 C167 1.388 . S
C168 C169 1.384 . S
C169 C168 1.384 . S
C169 C170 1.377 . S
C170 H150 0.953 . S
C170 C169 1.377 . S
C170 C171 1.369 . S
C171 H151 0.945 . S
C171 C166 1.385 . S
C171 C170 1.369 . S
C172 C164 1.457 . S
C172 C173 1.372 . S
C172 C177 1.364 . S
C173 H152 0.952 . S
C173 C172 1.372 . S
C173 C174 1.389 . S
C174 H153 0.949 . S
C174 C173 1.389 . S
C174 C175 1.387 . S
C175 C174 1.387 . S
C175 C176 1.372 . S
C176 H154 0.950 . S
C176 C175 1.372 . S
C176 C177 1.379 . S
C177 H155 0.948 . S
C177 C172 1.364 . S
C177 C176 1.379 . S
C178 C147 1.383 . S
C178 C165 1.479 . S
C178 C179 1.398 . S
C179 C144 1.382 . S
C179 H156 0.951 . S
C179 C178 1.398 . S
C180 C181 1.384 . S
C180 H193 0.947 . S
C180 C215 1.382 . S
C181 C180 1.384 . S
C181 C182 1.378 . S
C182 C181 1.378 . S
C182 C183 1.378 . S
C182 H194 0.952 . S
C183 C182 1.378 . S
C183 H195 0.950 . S
C183 C214 1.383 . S
H184 C203 0.947 . S
H185 C204 0.946 . S
H186 C206 0.953 . S
H187 C207 0.945 . S
H188 C209 0.952 . S
H189 C210 0.949 . S
H190 C212 0.950 . S
H191 C213 0.948 . S
H192 C215 0.951 . S
H193 C180 0.947 . S
H194 C182 0.952 . S
H195 C183 0.950 . S
N196 C199 1.382 . S
N196 C201 1.363 . S
N197 C199 1.371 . S
N197 C200 1.372 . S
N198 C200 1.361 . S
N198 C201 1.377 . S
C199 N196 1.382 . S
C199 N197 1.371 . S
C199 C202 1.480 . S
C200 N197 1.372 . S
C200 N198 1.361 . S
C200 C208 1.457 . S
C201 N196 1.363 . S
C201 N198 1.377 . S
C201 C214 1.479 . S
C202 C199 1.480 . S
C202 C203 1.383 . S
C202 C207 1.385 . S
C203 H184 0.947 . S
C203 C202 1.383 . S
C203 C204 1.388 . S
C204 H185 0.946 . S
C204 C203 1.388 . S
C204 C205 1.384 . S
C205 C204 1.384 . S
C205 C206 1.377 . S
C206 H186 0.953 . S
C206 C205 1.377 . S
C206 C207 1.369 . S
C207 H187 0.945 . S
C207 C202 1.385 . S
C207 C206 1.369 . S
C208 C200 1.457 . S
C208 C209 1.372 . S
C208 C213 1.364 . S
C209 H188 0.952 . S
C209 C208 1.372 . S
C209 C210 1.389 . S
C210 H189 0.949 . S
C210 C209 1.389 . S
C210 C211 1.387 . S
C211 C210 1.387 . S
C211 C212 1.372 . S
C212 H190 0.950 . S
C212 C211 1.372 . S
C212 C213 1.379 . S
C213 H191 0.948 . S
C213 C208 1.364 . S
C213 C212 1.379 . S
C214 C183 1.383 . S
C214 C201 1.479 . S
C214 C215 1.398 . S
C215 C180 1.382 . S
C215 H192 0.951 . S
C215 C214 1.398 . S
C216 C217 1.384 . S
C216 H229 0.947 . S
C216 C251 1.382 . S
C217 C216 1.384 . S
C217 C218 1.378 . S
C218 C217 1.378 . S
C218 C219 1.378 . S
C218 H230 0.952 . S
C219 C218 1.378 . S
C219 H231 0.950 . S
C219 C250 1.383 . S
H220 C239 0.947 . S
H221 C240 0.946 . S
H222 C242 0.953 . S
H223 C243 0.945 . S
H224 C245 0.952 . S
H225 C246 0.949 . S
H226 C248 0.950 . S
H227 C249 0.948 . S
H228 C251 0.951 . S
H229 C216 0.947 . S
H230 C218 0.952 . S
H231 C219 0.950 . S
N232 C235 1.382 . S
N232 C237 1.363 . S
N233 C235 1.371 . S
N233 C236 1.372 . S
N234 C236 1.361 . S
N234 C237 1.377 . S
C235 N232 1.382 . S
C235 N233 1.371 . S
C235 C238 1.480 . S
C236 N233 1.372 . S
C236 N234 1.361 . S
C236 C244 1.457 . S
C237 N232 1.363 . S
C237 N234 1.377 . S
C237 C250 1.479 . S
C238 C235 1.480 . S
C238 C239 1.383 . S
C238 C243 1.385 . S
C239 H220 0.947 . S
C239 C238 1.383 . S
C239 C240 1.388 . S
C240 H221 0.946 . S
C240 C239 1.388 . S
C240 C241 1.384 . S
C241 C240 1.384 . S
C241 C242 1.377 . S
C242 H222 0.953 . S
C242 C241 1.377 . S
C242 C243 1.369 . S
C243 H223 0.945 . S
C243 C238 1.385 . S
C243 C242 1.369 . S
C244 C236 1.457 . S
C244 C245 1.372 . S
C244 C249 1.364 . S
C245 H224 0.952 . S
C245 C244 1.372 . S
C245 C246 1.389 . S
C246 H225 0.949 . S
C246 C245 1.389 . S
C246 C247 1.387 . S
C247 C246 1.387 . S
C247 C248 1.372 . S
C248 H226 0.950 . S
C248 C247 1.372 . S
C248 C249 1.379 . S
C249 H227 0.948 . S
C249 C244 1.364 . S
C249 C248 1.379 . S
C250 C219 1.383 . S
C250 C237 1.479 . S
C250 C251 1.398 . S
C251 C216 1.382 . S
C251 H228 0.951 . S
C251 C250 1.398 . S
C252 C253 1.384 . S
C252 H265 0.947 . S
C252 C287 1.382 . S
C253 C252 1.384 . S
C253 C254 1.378 . S
C254 C253 1.378 . S
C254 C255 1.378 . S
C254 H266 0.952 . S
C255 C254 1.378 . S
C255 H267 0.950 . S
C255 C286 1.383 . S
H256 C275 0.947 . S
H257 C276 0.946 . S
H258 C278 0.953 . S
H259 C279 0.945 . S
H260 C281 0.952 . S
H261 C282 0.949 . S
H262 C284 0.950 . S
H263 C285 0.948 . S
H264 C287 0.951 . S
H265 C252 0.947 . S
H266 C254 0.952 . S
H267 C255 0.950 . S
N268 C271 1.382 . S
N268 C273 1.363 . S
N269 C271 1.371 . S
N269 C272 1.372 . S
N270 C272 1.361 . S
N270 C273 1.377 . S
C271 N268 1.382 . S
C271 N269 1.371 . S
C271 C274 1.480 . S
C272 N269 1.372 . S
C272 N270 1.361 . S
C272 C280 1.457 . S
C273 N268 1.363 . S
C273 N270 1.377 . S
C273 C286 1.479 . S
C274 C271 1.480 . S
C274 C275 1.383 . S
C274 C279 1.385 . S
C275 H256 0.947 . S
C275 C274 1.383 . S
C275 C276 1.388 . S
C276 H257 0.946 . S
C276 C275 1.388 . S
C276 C277 1.384 . S
C277 C276 1.384 . S
C277 C278 1.377 . S
C278 H258 0.953 . S
C278 C277 1.377 . S
C278 C279 1.369 . S
C279 H259 0.945 . S
C279 C274 1.385 . S
C279 C278 1.369 . S
C280 C272 1.457 . S
C280 C281 1.372 . S
C280 C285 1.364 . S
C281 H260 0.952 . S
C281 C280 1.372 . S
C281 C282 1.389 . S
C282 H261 0.949 . S
C282 C281 1.389 . S
C282 C283 1.387 . S
C283 C282 1.387 . S
C283 C284 1.372 . S
C284 H262 0.950 . S
C284 C283 1.372 . S
C284 C285 1.379 . S
C285 H263 0.948 . S
C285 C280 1.364 . S
C285 C284 1.379 . S
C286 C255 1.383 . S
C286 C273 1.479 . S
C286 C287 1.398 . S
C287 C252 1.382 . S
C287 H264 0.951 . S
C287 C286 1.398 . S
C288 C289 1.384 . S
C288 H301 0.947 . S
C288 C323 1.382 . S
C289 C288 1.384 . S
C289 C290 1.378 . S
C290 C289 1.378 . S
C290 C291 1.378 . S
C290 H302 0.952 . S
C291 C290 1.378 . S
C291 H303 0.950 . S
C291 C322 1.383 . S
H292 C311 0.947 . S
H293 C312 0.946 . S
H294 C314 0.953 . S
H295 C315 0.945 . S
H296 C317 0.952 . S
H297 C318 0.949 . S
H298 C320 0.950 . S
H299 C321 0.948 . S
H300 C323 0.951 . S
H301 C288 0.947 . S
H302 C290 0.952 . S
H303 C291 0.950 . S
N304 C307 1.382 . S
N304 C309 1.363 . S
N305 C307 1.371 . S
N305 C308 1.372 . S
N306 C308 1.361 . S
N306 C309 1.377 . S
C307 N304 1.382 . S
C307 N305 1.371 . S
C307 C310 1.480 . S
C308 N305 1.372 . S
C308 N306 1.361 . S
C308 C316 1.457 . S
C309 N304 1.363 . S
C309 N306 1.377 . S
C309 C322 1.479 . S
C310 C307 1.480 . S
C310 C311 1.383 . S
C310 C315 1.385 . S
C311 H292 0.947 . S
C311 C310 1.383 . S
C311 C312 1.388 . S
C312 H293 0.946 . S
C312 C311 1.388 . S
C312 C313 1.384 . S
C313 C312 1.384 . S
C313 C314 1.377 . S
C314 H294 0.953 . S
C314 C313 1.377 . S
C314 C315 1.369 . S
C315 H295 0.945 . S
C315 C310 1.385 . S
C315 C314 1.369 . S
C316 C308 1.457 . S
C316 C317 1.372 . S
C316 C321 1.364 . S
C317 H296 0.952 . S
C317 C316 1.372 . S
C317 C318 1.389 . S
C318 H297 0.949 . S
C318 C317 1.389 . S
C318 C319 1.387 . S
C319 C318 1.387 . S
C319 C320 1.372 . S
C320 H298 0.950 . S
C320 C319 1.372 . S
C320 C321 1.379 . S
C321 H299 0.948 . S
C321 C316 1.364 . S
C321 C320 1.379 . S
C322 C291 1.383 . S
C322 C309 1.479 . S
C322 C323 1.398 . S
C323 C288 1.382 . S
C323 H300 0.951 . S
C323 C322 1.398 . S
C324 C325 1.384 . S
C324 H337 0.947 . S
C324 C359 1.382 . S
C325 C324 1.384 . S
C325 C326 1.378 . S
C326 C325 1.378 . S
C326 C327 1.378 . S
C326 H338 0.952 . S
C327 C326 1.378 . S
C327 H339 0.950 . S
C327 C358 1.383 . S
H328 C347 0.947 . S
H329 C348 0.946 . S
H330 C350 0.953 . S
H331 C351 0.945 . S
H332 C353 0.952 . S
H333 C354 0.949 . S
H334 C356 0.950 . S
H335 C357 0.948 . S
H336 C359 0.951 . S
H337 C324 0.947 . S
H338 C326 0.952 . S
H339 C327 0.950 . S
N340 C343 1.382 . S
N340 C345 1.363 . S
N341 C343 1.371 . S
N341 C344 1.372 . S
N342 C344 1.361 . S
N342 C345 1.377 . S
C343 N340 1.382 . S
C343 N341 1.371 . S
C343 C346 1.480 . S
C344 N341 1.372 . S
C344 N342 1.361 . S
C344 C352 1.457 . S
C345 N340 1.363 . S
C345 N342 1.377 . S
C345 C358 1.479 . S
C346 C343 1.480 . S
C346 C347 1.383 . S
C346 C351 1.385 . S
C347 H328 0.947 . S
C347 C346 1.383 . S
C347 C348 1.388 . S
C348 H329 0.946 . S
C348 C347 1.388 . S
C348 C349 1.384 . S
C349 C348 1.384 . S
C349 C350 1.377 . S
C350 H330 0.953 . S
C350 C349 1.377 . S
C350 C351 1.369 . S
C351 H331 0.945 . S
C351 C346 1.385 . S
C351 C350 1.369 . S
C352 C344 1.457 . S
C352 C353 1.372 . S
C352 C357 1.364 . S
C353 H332 0.952 . S
C353 C352 1.372 . S
C353 C354 1.389 . S
C354 H333 0.949 . S
C354 C353 1.389 . S
C354 C355 1.387 . S
C355 C354 1.387 . S
C355 C356 1.372 . S
C356 H334 0.950 . S
C356 C355 1.372 . S
C356 C357 1.379 . S
C357 H335 0.948 . S
C357 C352 1.364 . S
C357 C356 1.379 . S
C358 C327 1.383 . S
C358 C345 1.479 . S
C358 C359 1.398 . S
C359 C324 1.382 . S
C359 H336 0.951 . S
C359 C358 1.398 . S
C360 C361 1.384 . S
C360 H373 0.947 . S
C360 C395 1.382 . S
C361 C360 1.384 . S
C361 C362 1.378 . S
C362 C361 1.378 . S
C362 C363 1.378 . S
C362 H374 0.952 . S
C363 C362 1.378 . S
C363 H375 0.950 . S
C363 C394 1.383 . S
H364 C383 0.947 . S
H365 C384 0.946 . S
H366 C386 0.953 . S
H367 C387 0.945 . S
H368 C389 0.952 . S
H369 C390 0.949 . S
H370 C392 0.950 . S
H371 C393 0.948 . S
H372 C395 0.951 . S
H373 C360 0.947 . S
H374 C362 0.952 . S
H375 C363 0.950 . S
N376 C379 1.382 . S
N376 C381 1.363 . S
N377 C379 1.371 . S
N377 C380 1.372 . S
N378 C380 1.361 . S
N378 C381 1.377 . S
C379 N376 1.382 . S
C379 N377 1.371 . S
C379 C382 1.480 . S
C380 N377 1.372 . S
C380 N378 1.361 . S
C380 C388 1.457 . S
C381 N376 1.363 . S
C381 N378 1.377 . S
C381 C394 1.479 . S
C382 C379 1.480 . S
C382 C383 1.383 . S
C382 C387 1.385 . S
C383 H364 0.947 . S
C383 C382 1.383 . S
C383 C384 1.388 . S
C384 H365 0.946 . S
C384 C383 1.388 . S
C384 C385 1.384 . S
C385 C384 1.384 . S
C385 C386 1.377 . S
C386 H366 0.953 . S
C386 C385 1.377 . S
C386 C387 1.369 . S
C387 H367 0.945 . S
C387 C382 1.385 . S
C387 C386 1.369 . S
C388 C380 1.457 . S
C388 C389 1.372 . S
C388 C393 1.364 . S
C389 H368 0.952 . S
C389 C388 1.372 . S
C389 C390 1.389 . S
C390 H369 0.949 . S
C390 C389 1.389 . S
C390 C391 1.387 . S
C391 C390 1.387 . S
C391 C392 1.372 . S
C392 H370 0.950 . S
C392 C391 1.372 . S
C392 C393 1.379 . S
C393 H371 0.948 . S
C393 C388 1.364 . S
C393 C392 1.379 . S
C394 C363 1.383 . S
C394 C381 1.479 . S
C394 C395 1.398 . S
C395 C360 1.382 . S
C395 H372 0.951 . S
C395 C394 1.398 . S
C396 C397 1.384 . S
C396 H409 0.947 . S
C396 C431 1.382 . S
C397 C396 1.384 . S
C397 C398 1.378 . S
C398 C397 1.378 . S
C398 C399 1.378 . S
C398 H410 0.952 . S
C399 C398 1.378 . S
C399 H411 0.950 . S
C399 C430 1.383 . S
H400 C419 0.947 . S
H401 C420 0.946 . S
H402 C422 0.953 . S
H403 C423 0.945 . S
H404 C425 0.952 . S
H405 C426 0.949 . S
H406 C428 0.950 . S
H407 C429 0.948 . S
H408 C431 0.951 . S
H409 C396 0.947 . S
H410 C398 0.952 . S
H411 C399 0.950 . S
N412 C415 1.382 . S
N412 C417 1.363 . S
N413 C415 1.371 . S
N413 C416 1.372 . S
N414 C416 1.361 . S
N414 C417 1.377 . S
C415 N412 1.382 . S
C415 N413 1.371 . S
C415 C418 1.480 . S
C416 N413 1.372 . S
C416 N414 1.361 . S
C416 C424 1.457 . S
C417 N412 1.363 . S
C417 N414 1.377 . S
C417 C430 1.479 . S
C418 C415 1.480 . S
C418 C419 1.383 . S
C418 C423 1.385 . S
C419 H400 0.947 . S
C419 C418 1.383 . S
C419 C420 1.388 . S
C420 H401 0.946 . S
C420 C419 1.388 . S
C420 C421 1.384 . S
C421 C420 1.384 . S
C421 C422 1.377 . S
C422 H402 0.953 . S
C422 C421 1.377 . S
C422 C423 1.369 . S
C423 H403 0.945 . S
C423 C418 1.385 . S
C423 C422 1.369 . S
C424 C416 1.457 . S
C424 C425 1.372 . S
C424 C429 1.364 . S
C425 H404 0.952 . S
C425 C424 1.372 . S
C425 C426 1.389 . S
C426 H405 0.949 . S
C426 C425 1.389 . S
C426 C427 1.387 . S
C427 C426 1.387 . S
C427 C428 1.372 . S
C428 H406 0.950 . S
C428 C427 1.372 . S
C428 C429 1.379 . S
C429 H407 0.948 . S
C429 C424 1.364 . S
C429 C428 1.379 . S
C430 C399 1.383 . S
C430 C417 1.479 . S
C430 C431 1.398 . S
C431 C396 1.382 . S
C431 H408 0.951 . S
C431 C430 1.398 . S
C432 C433 1.384 . S
C432 H445 0.947 . S
C432 C467 1.382 . S
C433 C432 1.384 . S
C433 C434 1.378 . S
C434 C433 1.378 . S
C434 C435 1.378 . S
C434 H446 0.952 . S
C435 C434 1.378 . S
C435 H447 0.950 . S
C435 C466 1.383 . S
H436 C455 0.947 . S
H437 C456 0.946 . S
H438 C458 0.953 . S
H439 C459 0.945 . S
H440 C461 0.952 . S
H441 C462 0.949 . S
H442 C464 0.950 . S
H443 C465 0.948 . S
H444 C467 0.951 . S
H445 C432 0.947 . S
H446 C434 0.952 . S
H447 C435 0.950 . S
N448 C451 1.382 . S
N448 C453 1.363 . S
N449 C451 1.371 . S
N449 C452 1.372 . S
N450 C452 1.361 . S
N450 C453 1.377 . S
C451 N448 1.382 . S
C451 N449 1.371 . S
C451 C454 1.480 . S
C452 N449 1.372 . S
C452 N450 1.361 . S
C452 C460 1.457 . S
C453 N448 1.363 . S
C453 N450 1.377 . S
C453 C466 1.479 . S
C454 C451 1.480 . S
C454 C455 1.383 . S
C454 C459 1.385 . S
C455 H436 0.947 . S
C455 C454 1.383 . S
C455 C456 1.388 . S
C456 H437 0.946 . S
C456 C455 1.388 . S
C456 C457 1.384 . S
C457 C456 1.384 . S
C457 C458 1.377 . S
C458 H438 0.953 . S
C458 C457 1.377 . S
C458 C459 1.369 . S
C459 H439 0.945 . S
C459 C454 1.385 . S
C459 C458 1.369 . S
C460 C452 1.457 . S
C460 C461 1.372 . S
C460 C465 1.364 . S
C461 H440 0.952 . S
C461 C460 1.372 . S
C461 C462 1.389 . S
C462 H441 0.949 . S
C462 C461 1.389 . S
C462 C463 1.387 . S
C463 C462 1.387 . S
C463 C464 1.372 . S
C464 H442 0.950 . S
C464 C463 1.372 . S
C464 C465 1.379 . S
C465 H443 0.948 . S
C465 C460 1.364 . S
C465 C464 1.379 . S
C466 C435 1.383 . S
C466 C453 1.479 . S
C466 C467 1.398 . S
C467 C432 1.382 . S
C467 H444 0.951 . S
C467 C466 1.398 . S
C468 C469 1.384 . S
C468 H481 0.947 . S
C468 C503 1.382 . S
C469 C468 1.384 . S
C469 C470 1.378 . S
C470 C469 1.378 . S
C470 C471 1.378 . S
C470 H482 0.952 . S
C471 C470 1.378 . S
C471 H483 0.950 . S
C471 C502 1.383 . S
H472 C491 0.947 . S
H473 C492 0.946 . S
H474 C494 0.953 . S
H475 C495 0.945 . S
H476 C497 0.952 . S
H477 C498 0.949 . S
H478 C500 0.950 . S
H479 C501 0.948 . S
H480 C503 0.951 . S
H481 C468 0.947 . S
H482 C470 0.952 . S
H483 C471 0.950 . S
N484 C487 1.382 . S
N484 C489 1.363 . S
N485 C487 1.371 . S
N485 C488 1.372 . S
N486 C488 1.361 . S
N486 C489 1.377 . S
C487 N484 1.382 . S
C487 N485 1.371 . S
C487 C490 1.480 . S
C488 N485 1.372 . S
C488 N486 1.361 . S
C488 C496 1.457 . S
C489 N484 1.363 . S
C489 N486 1.377 . S
C489 C502 1.479 . S
C490 C487 1.480 . S
C490 C491 1.383 . S
C490 C495 1.385 . S
C491 H472 0.947 . S
C491 C490 1.383 . S
C491 C492 1.388 . S
C492 H473 0.946 . S
C492 C491 1.388 . S
C492 C493 1.384 . S
C493 C492 1.384 . S
C493 C494 1.377 . S
C494 H474 0.953 . S
C494 C493 1.377 . S
C494 C495 1.369 . S
C495 H475 0.945 . S
C495 C490 1.385 . S
C495 C494 1.369 . S
C496 C488 1.457 . S
C496 C497 1.372 . S
C496 C501 1.364 . S
C497 H476 0.952 . S
C497 C496 1.372 . S
C497 C498 1.389 . S
C498 H477 0.949 . S
C498 C497 1.389 . S
C498 C499 1.387 . S
C499 C498 1.387 . S
C499 C500 1.372 . S
C500 H478 0.950 . S
C500 C499 1.372 . S
C500 C501 1.379 . S
C501 H479 0.948 . S
C501 C496 1.364 . S
C501 C500 1.379 . S
C502 C471 1.383 . S
C502 C489 1.479 . S
C502 C503 1.398 . S
C503 C468 1.382 . S
C503 H480 0.951 . S
C503 C502 1.398 . S
C504 C505 1.384 . S
C504 H517 0.947 . S
C504 C539 1.382 . S
C505 C504 1.384 . S
C505 C506 1.378 . S
C506 C505 1.378 . S
C506 C507 1.378 . S
C506 H518 0.952 . S
C507 C506 1.378 . S
C507 H519 0.950 . S
C507 C538 1.383 . S
H508 C527 0.947 . S
H509 C528 0.946 . S
H510 C530 0.953 . S
H511 C531 0.945 . S
H512 C533 0.952 . S
H513 C534 0.949 . S
H514 C536 0.950 . S
H515 C537 0.948 . S
H516 C539 0.951 . S
H517 C504 0.947 . S
H518 C506 0.952 . S
H519 C507 0.950 . S
N520 C523 1.382 . S
N520 C525 1.363 . S
N521 C523 1.371 . S
N521 C524 1.372 . S
N522 C524 1.361 . S
N522 C525 1.377 . S
C523 N520 1.382 . S
C523 N521 1.371 . S
C523 C526 1.480 . S
C524 N521 1.372 . S
C524 N522 1.361 . S
C524 C532 1.457 . S
C525 N520 1.363 . S
C525 N522 1.377 . S
C525 C538 1.479 . S
C526 C523 1.480 . S
C526 C527 1.383 . S
C526 C531 1.385 . S
C527 H508 0.947 . S
C527 C526 1.383 . S
C527 C528 1.388 . S
C528 H509 0.946 . S
C528 C527 1.388 . S
C528 C529 1.384 . S
C529 C528 1.384 . S
C529 C530 1.377 . S
C530 H510 0.953 . S
C530 C529 1.377 . S
C530 C531 1.369 . S
C531 H511 0.945 . S
C531 C526 1.385 . S
C531 C530 1.369 . S
C532 C524 1.457 . S
C532 C533 1.372 . S
C532 C537 1.364 . S
C533 H512 0.952 . S
C533 C532 1.372 . S
C533 C534 1.389 . S
C534 H513 0.949 . S
C534 C533 1.389 . S
C534 C535 1.387 . S
C535 C534 1.387 . S
C535 C536 1.372 . S
C536 H514 0.950 . S
C536 C535 1.372 . S
C536 C537 1.379 . S
C537 H515 0.948 . S
C537 C532 1.364 . S
C537 C536 1.379 . S
C538 C507 1.383 . S
C538 C525 1.479 . S
C538 C539 1.398 . S
C539 C504 1.382 . S
C539 H516 0.951 . S
C539 C538 1.398 . S
C540 C541 1.384 . S
C540 H553 0.947 . S
C540 C575 1.382 . S
C541 C540 1.384 . S
C541 C542 1.378 . S
C542 C541 1.378 . S
C542 C543 1.378 . S
C542 H554 0.952 . S
C543 C542 1.378 . S
C543 H555 0.950 . S
C543 C574 1.383 . S
H544 C563 0.947 . S
H545 C564 0.946 . S
H546 C566 0.953 . S
H547 C567 0.945 . S
H548 C569 0.952 . S
H549 C570 0.949 . S
H550 C572 0.950 . S
H551 C573 0.948 . S
H552 C575 0.951 . S
H553 C540 0.947 . S
H554 C542 0.952 . S
H555 C543 0.950 . S
N556 C559 1.382 . S
N556 C561 1.363 . S
N557 C559 1.371 . S
N557 C560 1.372 . S
N558 C560 1.361 . S
N558 C561 1.377 . S
C559 N556 1.382 . S
C559 N557 1.371 . S
C559 C562 1.480 . S
C560 N557 1.372 . S
C560 N558 1.361 . S
C560 C568 1.457 . S
C561 N556 1.363 . S
C561 N558 1.377 . S
C561 C574 1.479 . S
C562 C559 1.480 . S
C562 C563 1.383 . S
C562 C567 1.385 . S
C563 H544 0.947 . S
C563 C562 1.383 . S
C563 C564 1.388 . S
C564 H545 0.946 . S
C564 C563 1.388 . S
C564 C565 1.384 . S
C565 C564 1.384 . S
C565 C566 1.377 . S
C566 H546 0.953 . S
C566 C565 1.377 . S
C566 C567 1.369 . S
C567 H547 0.945 . S
C567 C562 1.385 . S
C567 C566 1.369 . S
C568 C560 1.457 . S
C568 C569 1.372 . S
C568 C573 1.364 . S
C569 H548 0.952 . S
C569 C568 1.372 . S
C569 C570 1.389 . S
C570 H549 0.949 . S
C570 C569 1.389 . S
C570 C571 1.387 . S
C571 C570 1.387 . S
C571 C572 1.372 . S
C572 H550 0.950 . S
C572 C571 1.372 . S
C572 C573 1.379 . S
C573 H551 0.948 . S
C573 C568 1.364 . S
C573 C572 1.379 . S
C574 C543 1.383 . S
C574 C561 1.479 . S
C574 C575 1.398 . S
C575 C540 1.382 . S
C575 H552 0.951 . S
C575 C574 1.398 . S
C576 C577 1.384 . S
C576 H589 0.947 . S
C576 C611 1.382 . S
C577 C576 1.384 . S
C577 C578 1.378 . S
C578 C577 1.378 . S
C578 C579 1.378 . S
C578 H590 0.952 . S
C579 C578 1.378 . S
C579 H591 0.950 . S
C579 C610 1.383 . S
H580 C599 0.947 . S
H581 C600 0.946 . S
H582 C602 0.953 . S
H583 C603 0.945 . S
H584 C605 0.952 . S
H585 C606 0.949 . S
H586 C608 0.950 . S
H587 C609 0.948 . S
H588 C611 0.951 . S
H589 C576 0.947 . S
H590 C578 0.952 . S
H591 C579 0.950 . S
N592 C595 1.382 . S
N592 C597 1.363 . S
N593 C595 1.371 . S
N593 C596 1.372 . S
N594 C596 1.361 . S
N594 C597 1.377 . S
C595 N592 1.382 . S
C595 N593 1.371 . S
C595 C598 1.480 . S
C596 N593 1.372 . S
C596 N594 1.361 . S
C596 C604 1.457 . S
C597 N592 1.363 . S
C597 N594 1.377 . S
C597 C610 1.479 . S
C598 C595 1.480 . S
C598 C599 1.383 . S
C598 C603 1.385 . S
C599 H580 0.947 . S
C599 C598 1.383 . S
C599 C600 1.388 . S
C600 H581 0.946 . S
C600 C599 1.388 . S
C600 C601 1.384 . S
C601 C600 1.384 . S
C601 C602 1.377 . S
C602 H582 0.953 . S
C602 C601 1.377 . S
C602 C603 1.369 . S
C603 H583 0.945 . S
C603 C598 1.385 . S
C603 C602 1.369 . S
C604 C596 1.457 . S
C604 C605 1.372 . S
C604 C609 1.364 . S
C605 H584 0.952 . S
C605 C604 1.372 . S
C605 C606 1.389 . S
C606 H585 0.949 . S
C606 C605 1.389 . S
C606 C607 1.387 . S
C607 C606 1.387 . S
C607 C608 1.372 . S
C608 H586 0.950 . S
C608 C607 1.372 . S
C608 C609 1.379 . S
C609 H587 0.948 . S
C609 C604 1.364 . S
C609 C608 1.379 . S
C610 C579 1.383 . S
C610 C597 1.479 . S
C610 C611 1.398 . S
C611 C576 1.382 . S
C611 H588 0.951 . S
C611 C610 1.398 . S
C612 C613 1.384 . S
C612 H625 0.947 . S
C612 C647 1.382 . S
C613 C612 1.384 . S
C613 C614 1.378 . S
C614 C613 1.378 . S
C614 C615 1.378 . S
C614 H626 0.952 . S
C615 C614 1.378 . S
C615 H627 0.950 . S
C615 C646 1.383 . S
H616 C635 0.947 . S
H617 C636 0.946 . S
H618 C638 0.953 . S
H619 C639 0.945 . S
H620 C641 0.952 . S
H621 C642 0.949 . S
H622 C644 0.950 . S
H623 C645 0.948 . S
H624 C647 0.951 . S
H625 C612 0.947 . S
H626 C614 0.952 . S
H627 C615 0.950 . S
N628 C631 1.382 . S
N628 C633 1.363 . S
N629 C631 1.371 . S
N629 C632 1.372 . S
N630 C632 1.361 . S
N630 C633 1.377 . S
C631 N628 1.382 . S
C631 N629 1.371 . S
C631 C634 1.480 . S
C632 N629 1.372 . S
C632 N630 1.361 . S
C632 C640 1.457 . S
C633 N628 1.363 . S
C633 N630 1.377 . S
C633 C646 1.479 . S
C634 C631 1.480 . S
C634 C635 1.383 . S
C634 C639 1.385 . S
C635 H616 0.947 . S
C635 C634 1.383 . S
C635 C636 1.388 . S
C636 H617 0.946 . S
C636 C635 1.388 . S
C636 C637 1.384 . S
C637 C636 1.384 . S
C637 C638 1.377 . S
C638 H618 0.953 . S
C638 C637 1.377 . S
C638 C639 1.369 . S
C639 H619 0.945 . S
C639 C634 1.385 . S
C639 C638 1.369 . S
C640 C632 1.457 . S
C640 C641 1.372 . S
C640 C645 1.364 . S
C641 H620 0.952 . S
C641 C640 1.372 . S
C641 C642 1.389 . S
C642 H621 0.949 . S
C642 C641 1.389 . S
C642 C643 1.387 . S
C643 C642 1.387 . S
C643 C644 1.372 . S
C644 H622 0.950 . S
C644 C643 1.372 . S
C644 C645 1.379 . S
C645 H623 0.948 . S
C645 C640 1.364 . S
C645 C644 1.379 . S
C646 C615 1.383 . S
C646 C633 1.479 . S
C646 C647 1.398 . S
C647 C612 1.382 . S
C647 H624 0.951 . S
C647 C646 1.398 . S
Gd648 N679 2.661 . S
Gd648 N685 2.601 . S
Gd648 O692 2.545 . S
Gd648 O693 2.606 1_545 S
Gd648 O695 2.429 . S
Gd648 O696 2.545 1_545 S
Gd648 O697 2.412 . S
Gd648 O699 2.362 1_554 S
Gd648 O700 2.324 1_545 S
Gd648 C707 2.828 . S
Gd649 N658 2.661 . S
Gd649 N662 2.601 . S
Gd649 O693 2.362 1_556 S
Gd649 O694 2.324 1_565 S
Gd649 O698 2.545 . S
Gd649 O699 2.606 1_565 S
Gd649 O701 2.429 . S
Gd649 O702 2.545 1_565 S
Gd649 O703 2.412 . S
Gd649 C716 2.828 . S
C650 C653 1.417 . S
C650 C655 1.431 . S
C650 C656 1.412 . S
C651 C654 1.437 . S
C651 C655 1.317 . S
C651 H670 0.929 . S
C652 C653 1.426 . S
C652 C654 1.413 . S
C652 N662 1.359 . S
C653 C650 1.417 . S
C653 C652 1.426 . S
C653 N658 1.350 . S
C654 C651 1.437 . S
C654 C652 1.413 . S
C654 C664 1.391 . S
C655 C650 1.431 . S
C655 C651 1.317 . S
C655 H666 0.930 . S
C656 C650 1.412 . S
C656 C657 1.355 . S
C656 H668 0.930 . S
C657 C656 1.355 . S
C657 C659 1.402 . S
C657 H669 0.930 . S
N658 Gd649 2.661 . S
N658 C653 1.350 . S
N658 C659 1.307 . S
C659 C657 1.402 . S
C659 N658 1.307 . S
C659 H660 0.930 . S
H660 C659 0.930 . S
C661 N662 1.334 . S
C661 C663 1.394 . S
C661 H665 0.930 . S
N662 Gd649 2.601 . S
N662 C652 1.359 . S
N662 C661 1.334 . S
C663 C661 1.394 . S
C663 C664 1.359 . S
C663 H675 0.930 . S
C664 C654 1.391 . S
C664 C663 1.359 . S
C664 H676 0.929 . S
H665 C661 0.930 . S
H666 C655 0.930 . S
H667 C684 0.930 . S
H668 C656 0.930 . S
H669 C657 0.930 . S
H670 C651 0.929 . S
H671 C689 0.930 . S
H672 C680 0.930 . S
H673 C681 0.930 . S
H674 C705 0.929 . S
H675 C663 0.930 . S
H676 C664 0.929 . S
H677 C706 0.930 . S
H678 C687 0.930 . S
N679 Gd648 2.661 . S
N679 C683 1.350 . S
N679 C684 1.307 . S
C680 H672 0.930 . S
C680 C681 1.355 . S
C680 C682 1.412 . S
C681 H673 0.930 . S
C681 C680 1.355 . S
C681 C684 1.402 . S
C682 C680 1.412 . S
C682 C683 1.417 . S
C682 C706 1.431 . S
C683 N679 1.350 . S
C683 C682 1.417 . S
C683 C686 1.426 . S
C684 H667 0.930 . S
C684 N679 1.307 . S
C684 C681 1.402 . S
N685 Gd648 2.601 . S
N685 C686 1.359 . S
N685 C689 1.334 . S
C686 C683 1.426 . S
C686 N685 1.359 . S
C686 C690 1.413 . S
C687 H678 0.930 . S
C687 C688 1.359 . S
C687 C689 1.394 . S
C688 C687 1.359 . S
C688 C690 1.391 . S
C688 H691 0.929 . S
C689 H671 0.930 . S
C689 N685 1.334 . S
C689 C687 1.394 . S
C690 C686 1.413 . S
C690 C688 1.391 . S
C690 C705 1.437 . S
H691 C688 0.929 . S
O692 Gd648 2.545 . S
O692 C707 1.258 . S
O693 Gd648 2.606 1_565 S
O693 Gd649 2.362 1_554 S
O693 C704 1.284 . S
O694 Gd649 2.324 1_545 S
O694 C714 1.254 . S
O695 Gd648 2.429 . S
O695 C714 1.268 1_554 S
O696 Gd648 2.545 1_565 S
O696 C704 1.250 . S
O697 Gd648 2.412 . S
O697 C707 1.252 . S
O698 Gd649 2.545 . S
O698 C716 1.258 . S
O699 Gd648 2.362 1_556 S
O699 Gd649 2.606 1_545 S
O699 C715 1.284 . S
O700 Gd648 2.324 1_565 S
O700 C723 1.254 . S
O701 Gd649 2.429 . S
O701 C723 1.268 1_556 S
O702 Gd649 2.545 1_545 S
O702 C715 1.250 . S
O703 Gd649 2.412 . S
O703 C716 1.252 . S
C704 O693 1.284 . S
C704 O696 1.250 . S
C705 H674 0.929 . S
C705 C690 1.437 . S
C705 C706 1.317 . S
C706 H677 0.930 . S
C706 C682 1.431 . S
C706 C705 1.317 . S
C707 Gd648 2.828 . S
C707 O692 1.258 . S
C707 O697 1.252 . S
C707 C708 1.497 . S
C708 C707 1.497 . S
C708 C709 1.395 . S
C708 C710 1.380 1_545 S
C709 C708 1.395 . S
C709 C712 1.398 . S
C709 H724 0.930 . S
C710 C708 1.380 1_565 S
C710 C711 1.391 . S
C710 H725 0.930 . S
C711 C710 1.391 . S
C711 C713 1.387 1_565 S
C712 C709 1.398 . S
C712 C713 1.380 . S
C712 H726 0.930 . S
C713 C711 1.387 1_545 S
C713 C712 1.380 . S
C713 H727 0.930 . S
C714 O694 1.254 . S
C714 O695 1.268 1_556 S
C715 O699 1.284 . S
C715 O702 1.250 . S
C716 Gd649 2.828 . S
C716 O698 1.258 . S
C716 O703 1.252 . S
C716 C717 1.497 . S
C717 C716 1.497 . S
C717 C718 1.395 . S
C717 C719 1.380 1_565 S
C718 C717 1.395 . S
C718 C721 1.398 . S
C718 H728 0.930 . S
C719 C717 1.380 1_545 S
C719 C720 1.391 . S
C719 H729 0.930 . S
C720 C719 1.391 . S
C720 C722 1.387 1_545 S
C721 C718 1.398 . S
C721 C722 1.380 . S
C721 H730 0.930 . S
C722 C720 1.387 1_565 S
C722 C721 1.380 . S
C722 H731 0.930 . S
C723 O700 1.254 . S
C723 O701 1.268 1_554 S
H724 C709 0.930 . S
H725 C710 0.930 . S
H726 C712 0.930 . S
H727 C713 0.930 . S
H728 C718 0.930 . S
H729 C719 0.930 . S
H730 C721 0.930 . S
H731 C722 0.930 . S
Gd732 N763 2.661 . S
Gd732 N769 2.601 . S
Gd732 O776 2.545 . S
Gd732 O777 2.606 1_655 S
Gd732 O779 2.429 . S
Gd732 O780 2.545 1_655 S
Gd732 O781 2.412 . S
Gd732 O783 2.362 1_554 S
Gd732 O784 2.324 1_655 S
Gd732 C791 2.828 . S
Gd733 N742 2.661 . S
Gd733 N746 2.601 . S
Gd733 O777 2.362 1_556 S
Gd733 O778 2.324 1_455 S
Gd733 O782 2.545 . S
Gd733 O783 2.606 1_455 S
Gd733 O785 2.429 . S
Gd733 O786 2.545 1_455 S
Gd733 O787 2.412 . S
Gd733 C800 2.828 . S
C734 C737 1.417 . S
C734 C739 1.431 . S
C734 C740 1.412 . S
C735 C738 1.437 . S
C735 C739 1.317 . S
C735 H754 0.929 . S
C736 C737 1.426 . S
C736 C738 1.413 . S
C736 N746 1.359 . S
C737 C734 1.417 . S
C737 C736 1.426 . S
C737 N742 1.350 . S
C738 C735 1.437 . S
C738 C736 1.413 . S
C738 C748 1.391 . S
C739 C734 1.431 . S
C739 C735 1.317 . S
C739 H750 0.930 . S
C740 C734 1.412 . S
C740 C741 1.355 . S
C740 H752 0.930 . S
C741 C740 1.355 . S
C741 C743 1.402 . S
C741 H753 0.930 . S
N742 Gd733 2.661 . S
N742 C737 1.350 . S
N742 C743 1.307 . S
C743 C741 1.402 . S
C743 N742 1.307 . S
C743 H744 0.930 . S
H744 C743 0.930 . S
C745 N746 1.334 . S
C745 C747 1.394 . S
C745 H749 0.930 . S
N746 Gd733 2.601 . S
N746 C736 1.359 . S
N746 C745 1.334 . S
C747 C745 1.394 . S
C747 C748 1.359 . S
C747 H759 0.930 . S
C748 C738 1.391 . S
C748 C747 1.359 . S
C748 H760 0.929 . S
H749 C745 0.930 . S
H750 C739 0.930 . S
H751 C768 0.930 . S
H752 C740 0.930 . S
H753 C741 0.930 . S
H754 C735 0.929 . S
H755 C773 0.930 . S
H756 C764 0.930 . S
H757 C765 0.930 . S
H758 C789 0.929 . S
H759 C747 0.930 . S
H760 C748 0.929 . S
H761 C790 0.930 . S
H762 C771 0.930 . S
N763 Gd732 2.661 . S
N763 C767 1.350 . S
N763 C768 1.307 . S
C764 H756 0.930 . S
C764 C765 1.355 . S
C764 C766 1.412 . S
C765 H757 0.930 . S
C765 C764 1.355 . S
C765 C768 1.402 . S
C766 C764 1.412 . S
C766 C767 1.417 . S
C766 C790 1.431 . S
C767 N763 1.350 . S
C767 C766 1.417 . S
C767 C770 1.426 . S
C768 H751 0.930 . S
C768 N763 1.307 . S
C768 C765 1.402 . S
N769 Gd732 2.601 . S
N769 C770 1.359 . S
N769 C773 1.334 . S
C770 C767 1.426 . S
C770 N769 1.359 . S
C770 C774 1.413 . S
C771 H762 0.930 . S
C771 C772 1.359 . S
C771 C773 1.394 . S
C772 C771 1.359 . S
C772 C774 1.391 . S
C772 H775 0.929 . S
C773 H755 0.930 . S
C773 N769 1.334 . S
C773 C771 1.394 . S
C774 C770 1.413 . S
C774 C772 1.391 . S
C774 C789 1.437 . S
H775 C772 0.929 . S
O776 Gd732 2.545 . S
O776 C791 1.258 . S
O777 Gd732 2.606 1_455 S
O777 Gd733 2.362 1_554 S
O777 C788 1.284 . S
O778 Gd733 2.324 1_655 S
O778 C798 1.254 . S
O779 Gd732 2.429 . S
O779 C798 1.268 1_554 S
O780 Gd732 2.545 1_455 S
O780 C788 1.250 . S
O781 Gd732 2.412 . S
O781 C791 1.252 . S
O782 Gd733 2.545 . S
O782 C800 1.258 . S
O783 Gd732 2.362 1_556 S
O783 Gd733 2.606 1_655 S
O783 C799 1.284 . S
O784 Gd732 2.324 1_455 S
O784 C807 1.254 . S
O785 Gd733 2.429 . S
O785 C807 1.268 1_556 S
O786 Gd733 2.545 1_655 S
O786 C799 1.250 . S
O787 Gd733 2.412 . S
O787 C800 1.252 . S
C788 O777 1.284 . S
C788 O780 1.250 . S
C789 H758 0.929 . S
C789 C774 1.437 . S
C789 C790 1.317 . S
C790 H761 0.930 . S
C790 C766 1.431 . S
C790 C789 1.317 . S
C791 Gd732 2.828 . S
C791 O776 1.258 . S
C791 O781 1.252 . S
C791 C792 1.497 . S
C792 C791 1.497 . S
C792 C793 1.395 . S
C792 C794 1.380 1_655 S
C793 C792 1.395 . S
C793 C796 1.398 . S
C793 H808 0.930 . S
C794 C792 1.380 1_455 S
C794 C795 1.391 . S
C794 H809 0.930 . S
C795 C794 1.391 . S
C795 C797 1.387 1_455 S
C796 C793 1.398 . S
C796 C797 1.380 . S
C796 H810 0.930 . S
C797 C795 1.387 1_655 S
C797 C796 1.380 . S
C797 H811 0.930 . S
C798 O778 1.254 . S
C798 O779 1.268 1_556 S
C799 O783 1.284 . S
C799 O786 1.250 . S
C800 Gd733 2.828 . S
C800 O782 1.258 . S
C800 O787 1.252 . S
C800 C801 1.497 . S
C801 C800 1.497 . S
C801 C802 1.395 . S
C801 C803 1.380 1_455 S
C802 C801 1.395 . S
C802 C805 1.398 . S
C802 H812 0.930 . S
C803 C801 1.380 1_655 S
C803 C804 1.391 . S
C803 H813 0.930 . S
C804 C803 1.391 . S
C804 C806 1.387 1_655 S
C805 C802 1.398 . S
C805 C806 1.380 . S
C805 H814 0.930 . S
C806 C804 1.387 1_455 S
C806 C805 1.380 . S
C806 H815 0.930 . S
C807 O784 1.254 . S
C807 O785 1.268 1_554 S
H808 C793 0.930 . S
H809 C794 0.930 . S
H810 C796 0.930 . S
H811 C797 0.930 . S
H812 C802 0.930 . S
H813 C803 0.930 . S
H814 C805 0.930 . S
H815 C806 0.930 . S
Gd816 N847 2.661 . S
Gd816 N853 2.601 . S
Gd816 O860 2.545 . S
Gd816 O861 2.606 . S
Gd816 O863 2.429 . S
Gd816 O864 2.545 . S
Gd816 O865 2.412 . S
Gd816 O867 2.362 1_556 S
Gd816 O868 2.324 . S
Gd816 C875 2.828 . S
Gd817 N826 2.661 . S
Gd817 N830 2.601 . S
Gd817 O861 2.362 1_554 S
Gd817 O862 2.324 . S
Gd817 O866 2.545 . S
Gd817 O867 2.606 . S
Gd817 O869 2.429 . S
Gd817 O870 2.545 . S
Gd817 O871 2.412 . S
Gd817 C884 2.828 . S
C818 C821 1.417 . S
C818 C823 1.431 . S
C818 C824 1.412 . S
C819 C822 1.437 . S
C819 C823 1.317 . S
C819 H838 0.929 . S
C820 C821 1.426 . S
C820 C822 1.413 . S
C820 N830 1.359 . S
C821 C818 1.417 . S
C821 C820 1.426 . S
C821 N826 1.350 . S
C822 C819 1.437 . S
C822 C820 1.413 . S
C822 C832 1.391 . S
C823 C818 1.431 . S
C823 C819 1.317 . S
C823 H834 0.930 . S
C824 C818 1.412 . S
C824 C825 1.355 . S
C824 H836 0.930 . S
C825 C824 1.355 . S
C825 C827 1.402 . S
C825 H837 0.930 . S
N826 Gd817 2.661 . S
N826 C821 1.350 . S
N826 C827 1.307 . S
C827 C825 1.402 . S
C827 N826 1.307 . S
C827 H828 0.930 . S
H828 C827 0.930 . S
C829 N830 1.334 . S
C829 C831 1.394 . S
C829 H833 0.930 . S
N830 Gd817 2.601 . S
N830 C820 1.359 . S
N830 C829 1.334 . S
C831 C829 1.394 . S
C831 C832 1.359 . S
C831 H843 0.930 . S
C832 C822 1.391 . S
C832 C831 1.359 . S
C832 H844 0.929 . S
H833 C829 0.930 . S
H834 C823 0.930 . S
H835 C852 0.930 . S
H836 C824 0.930 . S
H837 C825 0.930 . S
H838 C819 0.929 . S
H839 C857 0.930 . S
H840 C848 0.930 . S
H841 C849 0.930 . S
H842 C873 0.929 . S
H843 C831 0.930 . S
H844 C832 0.929 . S
H845 C874 0.930 . S
H846 C855 0.930 . S
N847 Gd816 2.661 . S
N847 C851 1.350 . S
N847 C852 1.307 . S
C848 H840 0.930 . S
C848 C849 1.355 . S
C848 C850 1.412 . S
C849 H841 0.930 . S
C849 C848 1.355 . S
C849 C852 1.402 . S
C850 C848 1.412 . S
C850 C851 1.417 . S
C850 C874 1.431 . S
C851 N847 1.350 . S
C851 C850 1.417 . S
C851 C854 1.426 . S
C852 H835 0.930 . S
C852 N847 1.307 . S
C852 C849 1.402 . S
N853 Gd816 2.601 . S
N853 C854 1.359 . S
N853 C857 1.334 . S
C854 C851 1.426 . S
C854 N853 1.359 . S
C854 C858 1.413 . S
C855 H846 0.930 . S
C855 C856 1.359 . S
C855 C857 1.394 . S
C856 C855 1.359 . S
C856 C858 1.391 . S
C856 H859 0.929 . S
C857 H839 0.930 . S
C857 N853 1.334 . S
C857 C855 1.394 . S
C858 C854 1.413 . S
C858 C856 1.391 . S
C858 C873 1.437 . S
H859 C856 0.929 . S
O860 Gd816 2.545 . S
O860 C875 1.258 . S
O861 Gd816 2.606 . S
O861 Gd817 2.362 1_556 S
O861 C872 1.284 . S
O862 Gd817 2.324 . S
O862 C882 1.254 . S
O863 Gd816 2.429 . S
O863 C882 1.268 1_556 S
O864 Gd816 2.545 . S
O864 C872 1.250 . S
O865 Gd816 2.412 . S
O865 C875 1.252 . S
O866 Gd817 2.545 . S
O866 C884 1.258 . S
O867 Gd816 2.362 1_554 S
O867 Gd817 2.606 . S
O867 C883 1.284 . S
O868 Gd816 2.324 . S
O868 C891 1.254 . S
O869 Gd817 2.429 . S
O869 C891 1.268 1_554 S
O870 Gd817 2.545 . S
O870 C883 1.250 . S
O871 Gd817 2.412 . S
O871 C884 1.252 . S
C872 O861 1.284 . S
C872 O864 1.250 . S
C873 H842 0.929 . S
C873 C858 1.437 . S
C873 C874 1.317 . S
C874 H845 0.930 . S
C874 C850 1.431 . S
C874 C873 1.317 . S
C875 Gd816 2.828 . S
C875 O860 1.258 . S
C875 O865 1.252 . S
C875 C876 1.497 . S
C876 C875 1.497 . S
C876 C877 1.395 . S
C876 C878 1.380 . S
C877 C876 1.395 . S
C877 C880 1.398 . S
C877 H892 0.930 . S
C878 C876 1.380 . S
C878 C879 1.391 . S
C878 H893 0.930 . S
C879 C878 1.391 . S
C879 C881 1.387 . S
C880 C877 1.398 . S
C880 C881 1.380 . S
C880 H894 0.930 . S
C881 C879 1.387 . S
C881 C880 1.380 . S
C881 H895 0.930 . S
C882 O862 1.254 . S
C882 O863 1.268 1_554 S
C883 O867 1.284 . S
C883 O870 1.250 . S
C884 Gd817 2.828 . S
C884 O866 1.258 . S
C884 O871 1.252 . S
C884 C885 1.497 . S
C885 C884 1.497 . S
C885 C886 1.395 . S
C885 C887 1.380 . S
C886 C885 1.395 . S
C886 C889 1.398 . S
C886 H896 0.930 . S
C887 C885 1.380 . S
C887 C888 1.391 . S
C887 H897 0.930 . S
C888 C887 1.391 . S
C888 C890 1.387 . S
C889 C886 1.398 . S
C889 C890 1.380 . S
C889 H898 0.930 . S
C890 C888 1.387 . S
C890 C889 1.380 . S
C890 H899 0.930 . S
C891 O868 1.254 . S
C891 O869 1.268 1_556 S
H892 C877 0.930 . S
H893 C878 0.930 . S
H894 C880 0.930 . S
H895 C881 0.930 . S
H896 C886 0.930 . S
H897 C887 0.930 . S
H898 C889 0.930 . S
H899 C890 0.930 . S
Gd900 N931 2.661 . S
Gd900 N937 2.601 . S
Gd900 O944 2.545 . S
Gd900 O945 2.606 . S
Gd900 O947 2.429 . S
Gd900 O948 2.545 . S
Gd900 O949 2.412 . S
Gd900 O951 2.362 . S
Gd900 O952 2.324 . S
Gd900 C959 2.828 . S
Gd901 N910 2.661 . S
Gd901 N914 2.601 . S
Gd901 O945 2.362 . S
Gd901 O946 2.324 . S
Gd901 O950 2.545 . S
Gd901 O951 2.606 . S
Gd901 O953 2.429 . S
Gd901 O954 2.545 . S
Gd901 O955 2.412 . S
Gd901 C968 2.828 . S
C902 C905 1.417 . S
C902 C907 1.431 . S
C902 C908 1.412 . S
C903 C906 1.437 . S
C903 C907 1.317 . S
C903 H922 0.929 . S
C904 C905 1.426 . S
C904 C906 1.413 . S
C904 N914 1.359 . S
C905 C902 1.417 . S
C905 C904 1.426 . S
C905 N910 1.350 . S
C906 C903 1.437 . S
C906 C904 1.413 . S
C906 C916 1.391 . S
C907 C902 1.431 . S
C907 C903 1.317 . S
C907 H918 0.930 . S
C908 C902 1.412 . S
C908 C909 1.355 . S
C908 H920 0.930 . S
C909 C908 1.355 . S
C909 C911 1.402 . S
C909 H921 0.930 . S
N910 Gd901 2.661 . S
N910 C905 1.350 . S
N910 C911 1.307 . S
C911 C909 1.402 . S
C911 N910 1.307 . S
C911 H912 0.930 . S
H912 C911 0.930 . S
C913 N914 1.334 . S
C913 C915 1.394 . S
C913 H917 0.930 . S
N914 Gd901 2.601 . S
N914 C904 1.359 . S
N914 C913 1.334 . S
C915 C913 1.394 . S
C915 C916 1.359 . S
C915 H927 0.930 . S
C916 C906 1.391 . S
C916 C915 1.359 . S
C916 H928 0.929 . S
H917 C913 0.930 . S
H918 C907 0.930 . S
H919 C936 0.930 . S
H920 C908 0.930 . S
H921 C909 0.930 . S
H922 C903 0.929 . S
H923 C941 0.930 . S
H924 C932 0.930 . S
H925 C933 0.930 . S
H926 C957 0.929 . S
H927 C915 0.930 . S
H928 C916 0.929 . S
H929 C958 0.930 . S
H930 C939 0.930 . S
N931 Gd900 2.661 . S
N931 C935 1.350 . S
N931 C936 1.307 . S
C932 H924 0.930 . S
C932 C933 1.355 . S
C932 C934 1.412 . S
C933 H925 0.930 . S
C933 C932 1.355 . S
C933 C936 1.402 . S
C934 C932 1.412 . S
C934 C935 1.417 . S
C934 C958 1.431 . S
C935 N931 1.350 . S
C935 C934 1.417 . S
C935 C938 1.426 . S
C936 H919 0.930 . S
C936 N931 1.307 . S
C936 C933 1.402 . S
N937 Gd900 2.601 . S
N937 C938 1.359 . S
N937 C941 1.334 . S
C938 C935 1.426 . S
C938 N937 1.359 . S
C938 C942 1.413 . S
C939 H930 0.930 . S
C939 C940 1.359 . S
C939 C941 1.394 . S
C940 C939 1.359 . S
C940 C942 1.391 . S
C940 H943 0.929 . S
C941 H923 0.930 . S
C941 N937 1.334 . S
C941 C939 1.394 . S
C942 C938 1.413 . S
C942 C940 1.391 . S
C942 C957 1.437 . S
H943 C940 0.929 . S
O944 Gd900 2.545 . S
O944 C959 1.258 . S
O945 Gd900 2.606 . S
O945 Gd901 2.362 . S
O945 C956 1.284 . S
O946 Gd901 2.324 . S
O946 C966 1.254 . S
O947 Gd900 2.429 . S
O947 C966 1.268 . S
O948 Gd900 2.545 . S
O948 C956 1.250 . S
O949 Gd900 2.412 . S
O949 C959 1.252 . S
O950 Gd901 2.545 . S
O950 C968 1.258 . S
O951 Gd900 2.362 . S
O951 Gd901 2.606 . S
O951 C967 1.284 . S
O952 Gd900 2.324 . S
O952 C975 1.254 . S
O953 Gd901 2.429 . S
O953 C975 1.268 . S
O954 Gd901 2.545 . S
O954 C967 1.250 . S
O955 Gd901 2.412 . S
O955 C968 1.252 . S
C956 O945 1.284 . S
C956 O948 1.250 . S
C957 H926 0.929 . S
C957 C942 1.437 . S
C957 C958 1.317 . S
C958 H929 0.930 . S
C958 C934 1.431 . S
C958 C957 1.317 . S
C959 Gd900 2.828 . S
C959 O944 1.258 . S
C959 O949 1.252 . S
C959 C960 1.497 . S
C960 C959 1.497 . S
C960 C961 1.395 . S
C960 C962 1.380 . S
C961 C960 1.395 . S
C961 C964 1.398 . S
C961 H976 0.930 . S
C962 C960 1.380 . S
C962 C963 1.391 . S
C962 H977 0.930 . S
C963 C962 1.391 . S
C963 C965 1.387 . S
C964 C961 1.398 . S
C964 C965 1.380 . S
C964 H978 0.930 . S
C965 C963 1.387 . S
C965 C964 1.380 . S
C965 H979 0.930 . S
C966 O946 1.254 . S
C966 O947 1.268 . S
C967 O951 1.284 . S
C967 O954 1.250 . S
C968 Gd901 2.828 . S
C968 O950 1.258 . S
C968 O955 1.252 . S
C968 C969 1.497 . S
C969 C968 1.497 . S
C969 C970 1.395 . S
C969 C971 1.380 . S
C970 C969 1.395 . S
C970 C973 1.398 . S
C970 H980 0.930 . S
C971 C969 1.380 . S
C971 C972 1.391 . S
C971 H981 0.930 . S
C972 C971 1.391 . S
C972 C974 1.387 . S
C973 C970 1.398 . S
C973 C974 1.380 . S
C973 H982 0.930 . S
C974 C972 1.387 . S
C974 C973 1.380 . S
C974 H983 0.930 . S
C975 O952 1.254 . S
C975 O953 1.268 . S
H976 C961 0.930 . S
H977 C962 0.930 . S
H978 C964 0.930 . S
H979 C965 0.930 . S
H980 C970 0.930 . S
H981 C971 0.930 . S
H982 C973 0.930 . S
H983 C974 0.930 . S
Gd984 N1015 2.661 . S
Gd984 N1021 2.601 . S
Gd984 O1028 2.545 . S
Gd984 O1029 2.606 . S
Gd984 O1031 2.429 . S
Gd984 O1032 2.545 . S
Gd984 O1033 2.412 . S
Gd984 O1035 2.362 . S
Gd984 O1036 2.324 . S
Gd984 C1043 2.828 . S
Gd985 N994 2.661 . S
Gd985 N998 2.601 . S
Gd985 O1029 2.362 . S
Gd985 O1030 2.324 . S
Gd985 O1034 2.545 . S
Gd985 O1035 2.606 . S
Gd985 O1037 2.429 . S
Gd985 O1038 2.545 . S
Gd985 O1039 2.412 . S
Gd985 C1052 2.828 . S
C986 C989 1.417 . S
C986 C991 1.431 . S
C986 C992 1.412 . S
C987 C990 1.437 . S
C987 C991 1.317 . S
C987 H1006 0.929 . S
C988 C989 1.426 . S
C988 C990 1.413 . S
C988 N998 1.359 . S
C989 C986 1.417 . S
C989 C988 1.426 . S
C989 N994 1.350 . S
C990 C987 1.437 . S
C990 C988 1.413 . S
C990 C1000 1.391 . S
C991 C986 1.431 . S
C991 C987 1.317 . S
C991 H1002 0.930 . S
C992 C986 1.412 . S
C992 C993 1.355 . S
C992 H1004 0.930 . S
C993 C992 1.355 . S
C993 C995 1.402 . S
C993 H1005 0.930 . S
N994 Gd985 2.661 . S
N994 C989 1.350 . S
N994 C995 1.307 . S
C995 C993 1.402 . S
C995 N994 1.307 . S
C995 H996 0.930 . S
H996 C995 0.930 . S
C997 N998 1.334 . S
C997 C999 1.394 . S
C997 H1001 0.930 . S
N998 Gd985 2.601 . S
N998 C988 1.359 . S
N998 C997 1.334 . S
C999 C997 1.394 . S
C999 C1000 1.359 . S
C999 H1011 0.930 . S
C1000 C990 1.391 . S
C1000 C999 1.359 . S
C1000 H1012 0.929 . S
H1001 C997 0.930 . S
H1002 C991 0.930 . S
H1003 C1020 0.930 . S
H1004 C992 0.930 . S
H1005 C993 0.930 . S
H1006 C987 0.929 . S
H1007 C1025 0.930 . S
H1008 C1016 0.930 . S
H1009 C1017 0.930 . S
H1010 C1041 0.929 . S
H1011 C999 0.930 . S
H1012 C1000 0.929 . S
H1013 C1042 0.930 . S
H1014 C1023 0.930 . S
N1015 Gd984 2.661 . S
N1015 C1019 1.350 . S
N1015 C1020 1.307 . S
C1016 H1008 0.930 . S
C1016 C1017 1.355 . S
C1016 C1018 1.412 . S
C1017 H1009 0.930 . S
C1017 C1016 1.355 . S
C1017 C1020 1.402 . S
C1018 C1016 1.412 . S
C1018 C1019 1.417 . S
C1018 C1042 1.431 . S
C1019 N1015 1.350 . S
C1019 C1018 1.417 . S
C1019 C1022 1.426 . S
C1020 H1003 0.930 . S
C1020 N1015 1.307 . S
C1020 C1017 1.402 . S
N1021 Gd984 2.601 . S
N1021 C1022 1.359 . S
N1021 C1025 1.334 . S
C1022 C1019 1.426 . S
C1022 N1021 1.359 . S
C1022 C1026 1.413 . S
C1023 H1014 0.930 . S
C1023 C1024 1.359 . S
C1023 C1025 1.394 . S
C1024 C1023 1.359 . S
C1024 C1026 1.391 . S
C1024 H1027 0.929 . S
C1025 H1007 0.930 . S
C1025 N1021 1.334 . S
C1025 C1023 1.394 . S
C1026 C1022 1.413 . S
C1026 C1024 1.391 . S
C1026 C1041 1.437 . S
H1027 C1024 0.929 . S
O1028 Gd984 2.545 . S
O1028 C1043 1.258 . S
O1029 Gd984 2.606 . S
O1029 Gd985 2.362 . S
O1029 C1040 1.284 . S
O1030 Gd985 2.324 . S
O1030 C1050 1.254 . S
O1031 Gd984 2.429 . S
O1031 C1050 1.268 . S
O1032 Gd984 2.545 . S
O1032 C1040 1.250 . S
O1033 Gd984 2.412 . S
O1033 C1043 1.252 . S
O1034 Gd985 2.545 . S
O1034 C1052 1.258 . S
O1035 Gd984 2.362 . S
O1035 Gd985 2.606 . S
O1035 C1051 1.284 . S
O1036 Gd984 2.324 . S
O1036 C1059 1.254 . S
O1037 Gd985 2.429 . S
O1037 C1059 1.268 . S
O1038 Gd985 2.545 . S
O1038 C1051 1.250 . S
O1039 Gd985 2.412 . S
O1039 C1052 1.252 . S
C1040 O1029 1.284 . S
C1040 O1032 1.250 . S
C1041 H1010 0.929 . S
C1041 C1026 1.437 . S
C1041 C1042 1.317 . S
C1042 H1013 0.930 . S
C1042 C1018 1.431 . S
C1042 C1041 1.317 . S
C1043 Gd984 2.828 . S
C1043 O1028 1.258 . S
C1043 O1033 1.252 . S
C1043 C1044 1.497 . S
C1044 C1043 1.497 . S
C1044 C1045 1.395 . S
C1044 C1046 1.380 . S
C1045 C1044 1.395 . S
C1045 C1048 1.398 . S
C1045 H1060 0.930 . S
C1046 C1044 1.380 . S
C1046 C1047 1.391 . S
C1046 H1061 0.930 . S
C1047 C1046 1.391 . S
C1047 C1049 1.387 . S
C1048 C1045 1.398 . S
C1048 C1049 1.380 . S
C1048 H1062 0.930 . S
C1049 C1047 1.387 . S
C1049 C1048 1.380 . S
C1049 H1063 0.930 . S
C1050 O1030 1.254 . S
C1050 O1031 1.268 . S
C1051 O1035 1.284 . S
C1051 O1038 1.250 . S
C1052 Gd985 2.828 . S
C1052 O1034 1.258 . S
C1052 O1039 1.252 . S
C1052 C1053 1.497 . S
C1053 C1052 1.497 . S
C1053 C1054 1.395 . S
C1053 C1055 1.380 . S
C1054 C1053 1.395 . S
C1054 C1057 1.398 . S
C1054 H1064 0.930 . S
C1055 C1053 1.380 . S
C1055 C1056 1.391 . S
C1055 H1065 0.930 . S
C1056 C1055 1.391 . S
C1056 C1058 1.387 . S
C1057 C1054 1.398 . S
C1057 C1058 1.380 . S
C1057 H1066 0.930 . S
C1058 C1056 1.387 . S
C1058 C1057 1.380 . S
C1058 H1067 0.930 . S
C1059 O1036 1.254 . S
C1059 O1037 1.268 . S
H1060 C1045 0.930 . S
H1061 C1046 0.930 . S
H1062 C1048 0.930 . S
H1063 C1049 0.930 . S
H1064 C1054 0.930 . S
H1065 C1055 0.930 . S
H1066 C1057 0.930 . S
H1067 C1058 0.930 . S
Gd1068 N1099 2.661 . S
Gd1068 N1105 2.601 . S
Gd1068 O1112 2.545 . S
Gd1068 O1113 2.606 . S
Gd1068 O1115 2.429 . S
Gd1068 O1116 2.545 . S
Gd1068 O1117 2.412 . S
Gd1068 O1119 2.362 . S
Gd1068 O1120 2.324 . S
Gd1068 C1127 2.828 . S
Gd1069 N1078 2.661 . S
Gd1069 N1082 2.601 . S
Gd1069 O1113 2.362 . S
Gd1069 O1114 2.324 . S
Gd1069 O1118 2.545 . S
Gd1069 O1119 2.606 . S
Gd1069 O1121 2.429 . S
Gd1069 O1122 2.545 . S
Gd1069 O1123 2.412 . S
Gd1069 C1136 2.828 . S
C1070 C1073 1.417 . S
C1070 C1075 1.431 . S
C1070 C1076 1.412 . S
C1071 C1074 1.437 . S
C1071 C1075 1.317 . S
C1071 H1090 0.929 . S
C1072 C1073 1.426 . S
C1072 C1074 1.413 . S
C1072 N1082 1.359 . S
C1073 C1070 1.417 . S
C1073 C1072 1.426 . S
C1073 N1078 1.350 . S
C1074 C1071 1.437 . S
C1074 C1072 1.413 . S
C1074 C1084 1.391 . S
C1075 C1070 1.431 . S
C1075 C1071 1.317 . S
C1075 H1086 0.930 . S
C1076 C1070 1.412 . S
C1076 C1077 1.355 . S
C1076 H1088 0.930 . S
C1077 C1076 1.355 . S
C1077 C1079 1.402 . S
C1077 H1089 0.930 . S
N1078 Gd1069 2.661 . S
N1078 C1073 1.350 . S
N1078 C1079 1.307 . S
C1079 C1077 1.402 . S
C1079 N1078 1.307 . S
C1079 H1080 0.930 . S
H1080 C1079 0.930 . S
C1081 N1082 1.334 . S
C1081 C1083 1.394 . S
C1081 H1085 0.930 . S
N1082 Gd1069 2.601 . S
N1082 C1072 1.359 . S
N1082 C1081 1.334 . S
C1083 C1081 1.394 . S
C1083 C1084 1.359 . S
C1083 H1095 0.930 . S
C1084 C1074 1.391 . S
C1084 C1083 1.359 . S
C1084 H1096 0.929 . S
H1085 C1081 0.930 . S
H1086 C1075 0.930 . S
H1087 C1104 0.930 . S
H1088 C1076 0.930 . S
H1089 C1077 0.930 . S
H1090 C1071 0.929 . S
H1091 C1109 0.930 . S
H1092 C1100 0.930 . S
H1093 C1101 0.930 . S
H1094 C1125 0.929 . S
H1095 C1083 0.930 . S
H1096 C1084 0.929 . S
H1097 C1126 0.930 . S
H1098 C1107 0.930 . S
N1099 Gd1068 2.661 . S
N1099 C1103 1.350 . S
N1099 C1104 1.307 . S
C1100 H1092 0.930 . S
C1100 C1101 1.355 . S
C1100 C1102 1.412 . S
C1101 H1093 0.930 . S
C1101 C1100 1.355 . S
C1101 C1104 1.402 . S
C1102 C1100 1.412 . S
C1102 C1103 1.417 . S
C1102 C1126 1.431 . S
C1103 N1099 1.350 . S
C1103 C1102 1.417 . S
C1103 C1106 1.426 . S
C1104 H1087 0.930 . S
C1104 N1099 1.307 . S
C1104 C1101 1.402 . S
N1105 Gd1068 2.601 . S
N1105 C1106 1.359 . S
N1105 C1109 1.334 . S
C1106 C1103 1.426 . S
C1106 N1105 1.359 . S
C1106 C1110 1.413 . S
C1107 H1098 0.930 . S
C1107 C1108 1.359 . S
C1107 C1109 1.394 . S
C1108 C1107 1.359 . S
C1108 C1110 1.391 . S
C1108 H1111 0.929 . S
C1109 H1091 0.930 . S
C1109 N1105 1.334 . S
C1109 C1107 1.394 . S
C1110 C1106 1.413 . S
C1110 C1108 1.391 . S
C1110 C1125 1.437 . S
H1111 C1108 0.929 . S
O1112 Gd1068 2.545 . S
O1112 C1127 1.258 . S
O1113 Gd1068 2.606 . S
O1113 Gd1069 2.362 . S
O1113 C1124 1.284 . S
O1114 Gd1069 2.324 . S
O1114 C1134 1.254 . S
O1115 Gd1068 2.429 . S
O1115 C1134 1.268 . S
O1116 Gd1068 2.545 . S
O1116 C1124 1.250 . S
O1117 Gd1068 2.412 . S
O1117 C1127 1.252 . S
O1118 Gd1069 2.545 . S
O1118 C1136 1.258 . S
O1119 Gd1068 2.362 . S
O1119 Gd1069 2.606 . S
O1119 C1135 1.284 . S
O1120 Gd1068 2.324 . S
O1120 C1143 1.254 . S
O1121 Gd1069 2.429 . S
O1121 C1143 1.268 . S
O1122 Gd1069 2.545 . S
O1122 C1135 1.250 . S
O1123 Gd1069 2.412 . S
O1123 C1136 1.252 . S
C1124 O1113 1.284 . S
C1124 O1116 1.250 . S
C1125 H1094 0.929 . S
C1125 C1110 1.437 . S
C1125 C1126 1.317 . S
C1126 H1097 0.930 . S
C1126 C1102 1.431 . S
C1126 C1125 1.317 . S
C1127 Gd1068 2.828 . S
C1127 O1112 1.258 . S
C1127 O1117 1.252 . S
C1127 C1128 1.497 . S
C1128 C1127 1.497 . S
C1128 C1129 1.395 . S
C1128 C1130 1.380 . S
C1129 C1128 1.395 . S
C1129 C1132 1.398 . S
C1129 H1144 0.930 . S
C1130 C1128 1.380 . S
C1130 C1131 1.391 . S
C1130 H1145 0.930 . S
C1131 C1130 1.391 . S
C1131 C1133 1.387 . S
C1132 C1129 1.398 . S
C1132 C1133 1.380 . S
C1132 H1146 0.930 . S
C1133 C1131 1.387 . S
C1133 C1132 1.380 . S
C1133 H1147 0.930 . S
C1134 O1114 1.254 . S
C1134 O1115 1.268 . S
C1135 O1119 1.284 . S
C1135 O1122 1.250 . S
C1136 Gd1069 2.828 . S
C1136 O1118 1.258 . S
C1136 O1123 1.252 . S
C1136 C1137 1.497 . S
C1137 C1136 1.497 . S
C1137 C1138 1.395 . S
C1137 C1139 1.380 . S
C1138 C1137 1.395 . S
C1138 C1141 1.398 . S
C1138 H1148 0.930 . S
C1139 C1137 1.380 . S
C1139 C1140 1.391 . S
C1139 H1149 0.930 . S
C1140 C1139 1.391 . S
C1140 C1142 1.387 . S
C1141 C1138 1.398 . S
C1141 C1142 1.380 . S
C1141 H1150 0.930 . S
C1142 C1140 1.387 . S
C1142 C1141 1.380 . S
C1142 H1151 0.930 . S
C1143 O1120 1.254 . S
C1143 O1121 1.268 . S
H1144 C1129 0.930 . S
H1145 C1130 0.930 . S
H1146 C1132 0.930 . S
H1147 C1133 0.930 . S
H1148 C1138 0.930 . S
H1149 C1139 0.930 . S
H1150 C1141 0.930 . S
H1151 C1142 0.930 . S
Gd1152 N1183 2.661 . S
Gd1152 N1189 2.601 . S
Gd1152 O1196 2.545 . S
Gd1152 O1197 2.606 . S
Gd1152 O1199 2.429 . S
Gd1152 O1200 2.545 . S
Gd1152 O1201 2.412 . S
Gd1152 O1203 2.362 . S
Gd1152 O1204 2.324 . S
Gd1152 C1211 2.828 . S
Gd1153 N1162 2.661 . S
Gd1153 N1166 2.601 . S
Gd1153 O1197 2.362 . S
Gd1153 O1198 2.324 . S
Gd1153 O1202 2.545 . S
Gd1153 O1203 2.606 . S
Gd1153 O1205 2.429 . S
Gd1153 O1206 2.545 . S
Gd1153 O1207 2.412 . S
Gd1153 C1220 2.828 . S
C1154 C1157 1.417 . S
C1154 C1159 1.431 . S
C1154 C1160 1.412 . S
C1155 C1158 1.437 . S
C1155 C1159 1.317 . S
C1155 H1174 0.929 . S
C1156 C1157 1.426 . S
C1156 C1158 1.413 . S
C1156 N1166 1.359 . S
C1157 C1154 1.417 . S
C1157 C1156 1.426 . S
C1157 N1162 1.350 . S
C1158 C1155 1.437 . S
C1158 C1156 1.413 . S
C1158 C1168 1.391 . S
C1159 C1154 1.431 . S
C1159 C1155 1.317 . S
C1159 H1170 0.930 . S
C1160 C1154 1.412 . S
C1160 C1161 1.355 . S
C1160 H1172 0.930 . S
C1161 C1160 1.355 . S
C1161 C1163 1.402 . S
C1161 H1173 0.930 . S
N1162 Gd1153 2.661 . S
N1162 C1157 1.350 . S
N1162 C1163 1.307 . S
C1163 C1161 1.402 . S
C1163 N1162 1.307 . S
C1163 H1164 0.930 . S
H1164 C1163 0.930 . S
C1165 N1166 1.334 . S
C1165 C1167 1.394 . S
C1165 H1169 0.930 . S
N1166 Gd1153 2.601 . S
N1166 C1156 1.359 . S
N1166 C1165 1.334 . S
C1167 C1165 1.394 . S
C1167 C1168 1.359 . S
C1167 H1179 0.930 . S
C1168 C1158 1.391 . S
C1168 C1167 1.359 . S
C1168 H1180 0.929 . S
H1169 C1165 0.930 . S
H1170 C1159 0.930 . S
H1171 C1188 0.930 . S
H1172 C1160 0.930 . S
H1173 C1161 0.930 . S
H1174 C1155 0.929 . S
H1175 C1193 0.930 . S
H1176 C1184 0.930 . S
H1177 C1185 0.930 . S
H1178 C1209 0.929 . S
H1179 C1167 0.930 . S
H1180 C1168 0.929 . S
H1181 C1210 0.930 . S
H1182 C1191 0.930 . S
N1183 Gd1152 2.661 . S
N1183 C1187 1.350 . S
N1183 C1188 1.307 . S
C1184 H1176 0.930 . S
C1184 C1185 1.355 . S
C1184 C1186 1.412 . S
C1185 H1177 0.930 . S
C1185 C1184 1.355 . S
C1185 C1188 1.402 . S
C1186 C1184 1.412 . S
C1186 C1187 1.417 . S
C1186 C1210 1.431 . S
C1187 N1183 1.350 . S
C1187 C1186 1.417 . S
C1187 C1190 1.426 . S
C1188 H1171 0.930 . S
C1188 N1183 1.307 . S
C1188 C1185 1.402 . S
N1189 Gd1152 2.601 . S
N1189 C1190 1.359 . S
N1189 C1193 1.334 . S
C1190 C1187 1.426 . S
C1190 N1189 1.359 . S
C1190 C1194 1.413 . S
C1191 H1182 0.930 . S
C1191 C1192 1.359 . S
C1191 C1193 1.394 . S
C1192 C1191 1.359 . S
C1192 C1194 1.391 . S
C1192 H1195 0.929 . S
C1193 H1175 0.930 . S
C1193 N1189 1.334 . S
C1193 C1191 1.394 . S
C1194 C1190 1.413 . S
C1194 C1192 1.391 . S
C1194 C1209 1.437 . S
H1195 C1192 0.929 . S
O1196 Gd1152 2.545 . S
O1196 C1211 1.258 . S
O1197 Gd1152 2.606 . S
O1197 Gd1153 2.362 . S
O1197 C1208 1.284 . S
O1198 Gd1153 2.324 . S
O1198 C1218 1.254 . S
O1199 Gd1152 2.429 . S
O1199 C1218 1.268 . S
O1200 Gd1152 2.545 . S
O1200 C1208 1.250 . S
O1201 Gd1152 2.412 . S
O1201 C1211 1.252 . S
O1202 Gd1153 2.545 . S
O1202 C1220 1.258 . S
O1203 Gd1152 2.362 . S
O1203 Gd1153 2.606 . S
O1203 C1219 1.284 . S
O1204 Gd1152 2.324 . S
O1204 C1227 1.254 . S
O1205 Gd1153 2.429 . S
O1205 C1227 1.268 . S
O1206 Gd1153 2.545 . S
O1206 C1219 1.250 . S
O1207 Gd1153 2.412 . S
O1207 C1220 1.252 . S
C1208 O1197 1.284 . S
C1208 O1200 1.250 . S
C1209 H1178 0.929 . S
C1209 C1194 1.437 . S
C1209 C1210 1.317 . S
C1210 H1181 0.930 . S
C1210 C1186 1.431 . S
C1210 C1209 1.317 . S
C1211 Gd1152 2.828 . S
C1211 O1196 1.258 . S
C1211 O1201 1.252 . S
C1211 C1212 1.497 . S
C1212 C1211 1.497 . S
C1212 C1213 1.395 . S
C1212 C1214 1.380 . S
C1213 C1212 1.395 . S
C1213 C1216 1.398 . S
C1213 H1228 0.930 . S
C1214 C1212 1.380 . S
C1214 C1215 1.391 . S
C1214 H1229 0.930 . S
C1215 C1214 1.391 . S
C1215 C1217 1.387 . S
C1216 C1213 1.398 . S
C1216 C1217 1.380 . S
C1216 H1230 0.930 . S
C1217 C1215 1.387 . S
C1217 C1216 1.380 . S
C1217 H1231 0.930 . S
C1218 O1198 1.254 . S
C1218 O1199 1.268 . S
C1219 O1203 1.284 . S
C1219 O1206 1.250 . S
C1220 Gd1153 2.828 . S
C1220 O1202 1.258 . S
C1220 O1207 1.252 . S
C1220 C1221 1.497 . S
C1221 C1220 1.497 . S
C1221 C1222 1.395 . S
C1221 C1223 1.380 . S
C1222 C1221 1.395 . S
C1222 C1225 1.398 . S
C1222 H1232 0.930 . S
C1223 C1221 1.380 . S
C1223 C1224 1.391 . S
C1223 H1233 0.930 . S
C1224 C1223 1.391 . S
C1224 C1226 1.387 . S
C1225 C1222 1.398 . S
C1225 C1226 1.380 . S
C1225 H1234 0.930 . S
C1226 C1224 1.387 . S
C1226 C1225 1.380 . S
C1226 H1235 0.930 . S
C1227 O1204 1.254 . S
C1227 O1205 1.268 . S
H1228 C1213 0.930 . S
H1229 C1214 0.930 . S
H1230 C1216 0.930 . S
H1231 C1217 0.930 . S
H1232 C1222 0.930 . S
H1233 C1223 0.930 . S
H1234 C1225 0.930 . S
H1235 C1226 0.930 . S
Gd1236 N1267 2.661 . S
Gd1236 N1273 2.601 . S
Gd1236 O1280 2.545 . S
Gd1236 O1281 2.606 . S
Gd1236 O1283 2.429 . S
Gd1236 O1284 2.545 . S
Gd1236 O1285 2.412 . S
Gd1236 O1287 2.362 . S
Gd1236 O1288 2.324 . S
Gd1236 C1295 2.828 . S
Gd1237 N1246 2.661 . S
Gd1237 N1250 2.601 . S
Gd1237 O1281 2.362 . S
Gd1237 O1282 2.324 . S
Gd1237 O1286 2.545 . S
Gd1237 O1287 2.606 . S
Gd1237 O1289 2.429 . S
Gd1237 O1290 2.545 . S
Gd1237 O1291 2.412 . S
Gd1237 C1304 2.828 . S
C1238 C1241 1.417 . S
C1238 C1243 1.431 . S
C1238 C1244 1.412 . S
C1239 C1242 1.437 . S
C1239 C1243 1.317 . S
C1239 H1258 0.929 . S
C1240 C1241 1.426 . S
C1240 C1242 1.413 . S
C1240 N1250 1.359 . S
C1241 C1238 1.417 . S
C1241 C1240 1.426 . S
C1241 N1246 1.350 . S
C1242 C1239 1.437 . S
C1242 C1240 1.413 . S
C1242 C1252 1.391 . S
C1243 C1238 1.431 . S
C1243 C1239 1.317 . S
C1243 H1254 0.930 . S
C1244 C1238 1.412 . S
C1244 C1245 1.355 . S
C1244 H1256 0.930 . S
C1245 C1244 1.355 . S
C1245 C1247 1.402 . S
C1245 H1257 0.930 . S
N1246 Gd1237 2.661 . S
N1246 C1241 1.350 . S
N1246 C1247 1.307 . S
C1247 C1245 1.402 . S
C1247 N1246 1.307 . S
C1247 H1248 0.930 . S
H1248 C1247 0.930 . S
C1249 N1250 1.334 . S
C1249 C1251 1.394 . S
C1249 H1253 0.930 . S
N1250 Gd1237 2.601 . S
N1250 C1240 1.359 . S
N1250 C1249 1.334 . S
C1251 C1249 1.394 . S
C1251 C1252 1.359 . S
C1251 H1263 0.930 . S
C1252 C1242 1.391 . S
C1252 C1251 1.359 . S
C1252 H1264 0.929 . S
H1253 C1249 0.930 . S
H1254 C1243 0.930 . S
H1255 C1272 0.930 . S
H1256 C1244 0.930 . S
H1257 C1245 0.930 . S
H1258 C1239 0.929 . S
H1259 C1277 0.930 . S
H1260 C1268 0.930 . S
H1261 C1269 0.930 . S
H1262 C1293 0.929 . S
H1263 C1251 0.930 . S
H1264 C1252 0.929 . S
H1265 C1294 0.930 . S
H1266 C1275 0.930 . S
N1267 Gd1236 2.661 . S
N1267 C1271 1.350 . S
N1267 C1272 1.307 . S
C1268 H1260 0.930 . S
C1268 C1269 1.355 . S
C1268 C1270 1.412 . S
C1269 H1261 0.930 . S
C1269 C1268 1.355 . S
C1269 C1272 1.402 . S
C1270 C1268 1.412 . S
C1270 C1271 1.417 . S
C1270 C1294 1.431 . S
C1271 N1267 1.350 . S
C1271 C1270 1.417 . S
C1271 C1274 1.426 . S
C1272 H1255 0.930 . S
C1272 N1267 1.307 . S
C1272 C1269 1.402 . S
N1273 Gd1236 2.601 . S
N1273 C1274 1.359 . S
N1273 C1277 1.334 . S
C1274 C1271 1.426 . S
C1274 N1273 1.359 . S
C1274 C1278 1.413 . S
C1275 H1266 0.930 . S
C1275 C1276 1.359 . S
C1275 C1277 1.394 . S
C1276 C1275 1.359 . S
C1276 C1278 1.391 . S
C1276 H1279 0.929 . S
C1277 H1259 0.930 . S
C1277 N1273 1.334 . S
C1277 C1275 1.394 . S
C1278 C1274 1.413 . S
C1278 C1276 1.391 . S
C1278 C1293 1.437 . S
H1279 C1276 0.929 . S
O1280 Gd1236 2.545 . S
O1280 C1295 1.258 . S
O1281 Gd1236 2.606 . S
O1281 Gd1237 2.362 . S
O1281 C1292 1.284 . S
O1282 Gd1237 2.324 . S
O1282 C1302 1.254 . S
O1283 Gd1236 2.429 . S
O1283 C1302 1.268 . S
O1284 Gd1236 2.545 . S
O1284 C1292 1.250 . S
O1285 Gd1236 2.412 . S
O1285 C1295 1.252 . S
O1286 Gd1237 2.545 . S
O1286 C1304 1.258 . S
O1287 Gd1236 2.362 . S
O1287 Gd1237 2.606 . S
O1287 C1303 1.284 . S
O1288 Gd1236 2.324 . S
O1288 C1311 1.254 . S
O1289 Gd1237 2.429 . S
O1289 C1311 1.268 . S
O1290 Gd1237 2.545 . S
O1290 C1303 1.250 . S
O1291 Gd1237 2.412 . S
O1291 C1304 1.252 . S
C1292 O1281 1.284 . S
C1292 O1284 1.250 . S
C1293 H1262 0.929 . S
C1293 C1278 1.437 . S
C1293 C1294 1.317 . S
C1294 H1265 0.930 . S
C1294 C1270 1.431 . S
C1294 C1293 1.317 . S
C1295 Gd1236 2.828 . S
C1295 O1280 1.258 . S
C1295 O1285 1.252 . S
C1295 C1296 1.497 . S
C1296 C1295 1.497 . S
C1296 C1297 1.395 . S
C1296 C1298 1.380 . S
C1297 C1296 1.395 . S
C1297 C1300 1.398 . S
C1297 H1312 0.930 . S
C1298 C1296 1.380 . S
C1298 C1299 1.391 . S
C1298 H1313 0.930 . S
C1299 C1298 1.391 . S
C1299 C1301 1.387 . S
C1300 C1297 1.398 . S
C1300 C1301 1.380 . S
C1300 H1314 0.930 . S
C1301 C1299 1.387 . S
C1301 C1300 1.380 . S
C1301 H1315 0.930 . S
C1302 O1282 1.254 . S
C1302 O1283 1.268 . S
C1303 O1287 1.284 . S
C1303 O1290 1.250 . S
C1304 Gd1237 2.828 . S
C1304 O1286 1.258 . S
C1304 O1291 1.252 . S
C1304 C1305 1.497 . S
C1305 C1304 1.497 . S
C1305 C1306 1.395 . S
C1305 C1307 1.380 . S
C1306 C1305 1.395 . S
C1306 C1309 1.398 . S
C1306 H1316 0.930 . S
C1307 C1305 1.380 . S
C1307 C1308 1.391 . S
C1307 H1317 0.930 . S
C1308 C1307 1.391 . S
C1308 C1310 1.387 . S
C1309 C1306 1.398 . S
C1309 C1310 1.380 . S
C1309 H1318 0.930 . S
C1310 C1308 1.387 . S
C1310 C1309 1.380 . S
C1310 H1319 0.930 . S
C1311 O1288 1.254 . S
C1311 O1289 1.268 . S
H1312 C1297 0.930 . S
H1313 C1298 0.930 . S
H1314 C1300 0.930 . S
H1315 C1301 0.930 . S
H1316 C1306 0.930 . S
H1317 C1307 0.930 . S
H1318 C1309 0.930 . S
H1319 C1310 0.930 . S
Gd1320 N1351 2.661 . S
Gd1320 N1357 2.601 . S
Gd1320 O1364 2.545 . S
Gd1320 O1365 2.606 . S
Gd1320 O1367 2.429 . S
Gd1320 O1368 2.545 . S
Gd1320 O1369 2.412 . S
Gd1320 O1371 2.362 . S
Gd1320 O1372 2.324 . S
Gd1320 C1379 2.828 . S
Gd1321 N1330 2.661 . S
Gd1321 N1334 2.601 . S
Gd1321 O1365 2.362 . S
Gd1321 O1366 2.324 . S
Gd1321 O1370 2.545 . S
Gd1321 O1371 2.606 . S
Gd1321 O1373 2.429 . S
Gd1321 O1374 2.545 . S
Gd1321 O1375 2.412 . S
Gd1321 C1388 2.828 . S
C1322 C1325 1.417 . S
C1322 C1327 1.431 . S
C1322 C1328 1.412 . S
C1323 C1326 1.437 . S
C1323 C1327 1.317 . S
C1323 H1342 0.929 . S
C1324 C1325 1.426 . S
C1324 C1326 1.413 . S
C1324 N1334 1.359 . S
C1325 C1322 1.417 . S
C1325 C1324 1.426 . S
C1325 N1330 1.350 . S
C1326 C1323 1.437 . S
C1326 C1324 1.413 . S
C1326 C1336 1.391 . S
C1327 C1322 1.431 . S
C1327 C1323 1.317 . S
C1327 H1338 0.930 . S
C1328 C1322 1.412 . S
C1328 C1329 1.355 . S
C1328 H1340 0.930 . S
C1329 C1328 1.355 . S
C1329 C1331 1.402 . S
C1329 H1341 0.930 . S
N1330 Gd1321 2.661 . S
N1330 C1325 1.350 . S
N1330 C1331 1.307 . S
C1331 C1329 1.402 . S
C1331 N1330 1.307 . S
C1331 H1332 0.930 . S
H1332 C1331 0.930 . S
C1333 N1334 1.334 . S
C1333 C1335 1.394 . S
C1333 H1337 0.930 . S
N1334 Gd1321 2.601 . S
N1334 C1324 1.359 . S
N1334 C1333 1.334 . S
C1335 C1333 1.394 . S
C1335 C1336 1.359 . S
C1335 H1347 0.930 . S
C1336 C1326 1.391 . S
C1336 C1335 1.359 . S
C1336 H1348 0.929 . S
H1337 C1333 0.930 . S
H1338 C1327 0.930 . S
H1339 C1356 0.930 . S
H1340 C1328 0.930 . S
H1341 C1329 0.930 . S
H1342 C1323 0.929 . S
H1343 C1361 0.930 . S
H1344 C1352 0.930 . S
H1345 C1353 0.930 . S
H1346 C1377 0.929 . S
H1347 C1335 0.930 . S
H1348 C1336 0.929 . S
H1349 C1378 0.930 . S
H1350 C1359 0.930 . S
N1351 Gd1320 2.661 . S
N1351 C1355 1.350 . S
N1351 C1356 1.307 . S
C1352 H1344 0.930 . S
C1352 C1353 1.355 . S
C1352 C1354 1.412 . S
C1353 H1345 0.930 . S
C1353 C1352 1.355 . S
C1353 C1356 1.402 . S
C1354 C1352 1.412 . S
C1354 C1355 1.417 . S
C1354 C1378 1.431 . S
C1355 N1351 1.350 . S
C1355 C1354 1.417 . S
C1355 C1358 1.426 . S
C1356 H1339 0.930 . S
C1356 N1351 1.307 . S
C1356 C1353 1.402 . S
N1357 Gd1320 2.601 . S
N1357 C1358 1.359 . S
N1357 C1361 1.334 . S
C1358 C1355 1.426 . S
C1358 N1357 1.359 . S
C1358 C1362 1.413 . S
C1359 H1350 0.930 . S
C1359 C1360 1.359 . S
C1359 C1361 1.394 . S
C1360 C1359 1.359 . S
C1360 C1362 1.391 . S
C1360 H1363 0.929 . S
C1361 H1343 0.930 . S
C1361 N1357 1.334 . S
C1361 C1359 1.394 . S
C1362 C1358 1.413 . S
C1362 C1360 1.391 . S
C1362 C1377 1.437 . S
H1363 C1360 0.929 . S
O1364 Gd1320 2.545 . S
O1364 C1379 1.258 . S
O1365 Gd1320 2.606 . S
O1365 Gd1321 2.362 . S
O1365 C1376 1.284 . S
O1366 Gd1321 2.324 . S
O1366 C1386 1.254 . S
O1367 Gd1320 2.429 . S
O1367 C1386 1.268 . S
O1368 Gd1320 2.545 . S
O1368 C1376 1.250 . S
O1369 Gd1320 2.412 . S
O1369 C1379 1.252 . S
O1370 Gd1321 2.545 . S
O1370 C1388 1.258 . S
O1371 Gd1320 2.362 . S
O1371 Gd1321 2.606 . S
O1371 C1387 1.284 . S
O1372 Gd1320 2.324 . S
O1372 C1395 1.254 . S
O1373 Gd1321 2.429 . S
O1373 C1395 1.268 . S
O1374 Gd1321 2.545 . S
O1374 C1387 1.250 . S
O1375 Gd1321 2.412 . S
O1375 C1388 1.252 . S
C1376 O1365 1.284 . S
C1376 O1368 1.250 . S
C1377 H1346 0.929 . S
C1377 C1362 1.437 . S
C1377 C1378 1.317 . S
C1378 H1349 0.930 . S
C1378 C1354 1.431 . S
C1378 C1377 1.317 . S
C1379 Gd1320 2.828 . S
C1379 O1364 1.258 . S
C1379 O1369 1.252 . S
C1379 C1380 1.497 . S
C1380 C1379 1.497 . S
C1380 C1381 1.395 . S
C1380 C1382 1.380 . S
C1381 C1380 1.395 . S
C1381 C1384 1.398 . S
C1381 H1396 0.930 . S
C1382 C1380 1.380 . S
C1382 C1383 1.391 . S
C1382 H1397 0.930 . S
C1383 C1382 1.391 . S
C1383 C1385 1.387 . S
C1384 C1381 1.398 . S
C1384 C1385 1.380 . S
C1384 H1398 0.930 . S
C1385 C1383 1.387 . S
C1385 C1384 1.380 . S
C1385 H1399 0.930 . S
C1386 O1366 1.254 . S
C1386 O1367 1.268 . S
C1387 O1371 1.284 . S
C1387 O1374 1.250 . S
C1388 Gd1321 2.828 . S
C1388 O1370 1.258 . S
C1388 O1375 1.252 . S
C1388 C1389 1.497 . S
C1389 C1388 1.497 . S
C1389 C1390 1.395 . S
C1389 C1391 1.380 . S
C1390 C1389 1.395 . S
C1390 C1393 1.398 . S
C1390 H1400 0.930 . S
C1391 C1389 1.380 . S
C1391 C1392 1.391 . S
C1391 H1401 0.930 . S
C1392 C1391 1.391 . S
C1392 C1394 1.387 . S
C1393 C1390 1.398 . S
C1393 C1394 1.380 . S
C1393 H1402 0.930 . S
C1394 C1392 1.387 . S
C1394 C1393 1.380 . S
C1394 H1403 0.930 . S
C1395 O1372 1.254 . S
C1395 O1373 1.268 . S
H1396 C1381 0.930 . S
H1397 C1382 0.930 . S
H1398 C1384 0.930 . S
H1399 C1385 0.930 . S
H1400 C1390 0.930 . S
H1401 C1391 0.930 . S
H1402 C1393 0.930 . S
H1403 C1394 0.930 . S
H1404 C1410 0.930 . S
H1405 C1413 0.930 . S
H1406 C1414 0.930 . S
H1407 C1415 0.930 . S
H1408 C1418 0.930 . S
H1409 C1419 0.930 . S
C1410 H1404 0.930 . S
C1410 C1411 1.355 . S
C1410 C1412 1.415 . S
C1411 C1410 1.355 . S
C1411 C1413 1.419 . S
C1412 C1410 1.415 . S
C1412 C1417 1.425 . S
C1412 C1419 1.409 . S
C1413 H1405 0.930 . S
C1413 C1411 1.419 . S
C1413 C1414 1.362 . S
C1414 H1406 0.930 . S
C1414 C1413 1.362 . S
C1414 C1417 1.409 . S
C1415 H1407 0.930 . S
C1415 C1416 1.355 . S
C1415 C1417 1.415 . S
C1416 C1415 1.355 . S
C1416 C1418 1.419 . S
C1417 C1412 1.425 . S
C1417 C1414 1.409 . S
C1417 C1415 1.415 . S
C1418 H1408 0.930 . S
C1418 C1416 1.419 . S
C1418 C1419 1.362 . S
C1419 H1409 0.930 . S
C1419 C1412 1.409 . S
C1419 C1418 1.362 . S
H1420 C1426 0.930 . S
H1421 C1429 0.930 . S
H1422 C1430 0.930 . S
H1423 C1431 0.930 . S
H1424 C1434 0.930 . S
H1425 C1435 0.930 . S
C1426 H1420 0.930 . S
C1426 C1427 1.355 . S
C1426 C1428 1.415 . S
C1427 C1426 1.355 . S
C1427 C1429 1.419 . S
C1428 C1426 1.415 . S
C1428 C1433 1.425 . S
C1428 C1435 1.409 . S
C1429 H1421 0.930 . S
C1429 C1427 1.419 . S
C1429 C1430 1.362 . S
C1430 H1422 0.930 . S
C1430 C1429 1.362 . S
C1430 C1433 1.409 . S
C1431 H1423 0.930 . S
C1431 C1432 1.355 . S
C1431 C1433 1.415 . S
C1432 C1431 1.355 . S
C1432 C1434 1.419 . S
C1433 C1428 1.425 . S
C1433 C1430 1.409 . S
C1433 C1431 1.415 . S
C1434 H1424 0.930 . S
C1434 C1432 1.419 . S
C1434 C1435 1.362 . S
C1435 H1425 0.930 . S
C1435 C1428 1.409 . S
C1435 C1434 1.362 . S
H1436 C1442 0.930 . S
H1437 C1445 0.930 . S
H1438 C1446 0.930 . S
H1439 C1447 0.930 . S
H1440 C1450 0.930 1_556 S
H1441 C1451 0.930 . S
C1442 H1436 0.930 . S
C1442 C1443 1.355 . S
C1442 C1444 1.415 . S
C1443 C1442 1.355 . S
C1443 C1445 1.419 . S
C1444 C1442 1.415 . S
C1444 C1449 1.425 . S
C1444 C1451 1.409 . S
C1445 H1437 0.930 . S
C1445 C1443 1.419 . S
C1445 C1446 1.362 . S
C1446 H1438 0.930 . S
C1446 C1445 1.362 . S
C1446 C1449 1.409 . S
C1447 H1439 0.930 . S
C1447 C1448 1.355 . S
C1447 C1449 1.415 . S
C1448 C1447 1.355 . S
C1448 C1450 1.419 . S
C1449 C1444 1.425 . S
C1449 C1446 1.409 . S
C1449 C1447 1.415 . S
C1450 H1440 0.930 1_554 S
C1450 C1448 1.419 . S
C1450 C1451 1.362 . S
C1451 H1441 0.930 . S
C1451 C1444 1.409 . S
C1451 C1450 1.362 . S
H1452 C1458 0.930 . S
H1453 C1461 0.930 . S
H1454 C1462 0.930 . S
H1455 C1463 0.930 . S
H1456 C1466 0.930 . S
H1457 C1467 0.930 . S
C1458 H1452 0.930 . S
C1458 C1459 1.355 . S
C1458 C1460 1.415 . S
C1459 C1458 1.355 . S
C1459 C1461 1.419 . S
C1460 C1458 1.415 . S
C1460 C1465 1.425 . S
C1460 C1467 1.409 . S
C1461 H1453 0.930 . S
C1461 C1459 1.419 . S
C1461 C1462 1.362 . S
C1462 H1454 0.930 . S
C1462 C1461 1.362 . S
C1462 C1465 1.409 . S
C1463 H1455 0.930 . S
C1463 C1464 1.355 . S
C1463 C1465 1.415 . S
C1464 C1463 1.355 . S
C1464 C1466 1.419 . S
C1465 C1460 1.425 . S
C1465 C1462 1.409 . S
C1465 C1463 1.415 . S
C1466 H1456 0.930 . S
C1466 C1464 1.419 . S
C1466 C1467 1.362 . S
C1467 H1457 0.930 . S
C1467 C1460 1.409 . S
C1467 C1466 1.362 . S
H1468 C1474 0.930 . S
H1469 C1477 0.930 . S
H1470 C1478 0.930 . S
H1471 C1479 0.930 . S
H1472 C1482 0.930 . S
H1473 C1483 0.930 . S
C1474 H1468 0.930 . S
C1474 C1475 1.355 . S
C1474 C1476 1.415 . S
C1475 C1474 1.355 . S
C1475 C1477 1.419 . S
C1476 C1474 1.415 . S
C1476 C1481 1.425 . S
C1476 C1483 1.409 . S
C1477 H1469 0.930 . S
C1477 C1475 1.419 . S
C1477 C1478 1.362 . S
C1478 H1470 0.930 . S
C1478 C1477 1.362 . S
C1478 C1481 1.409 . S
C1479 H1471 0.930 . S
C1479 C1480 1.355 . S
C1479 C1481 1.415 . S
C1480 C1479 1.355 . S
C1480 C1482 1.419 . S
C1481 C1476 1.425 . S
C1481 C1478 1.409 . S
C1481 C1479 1.415 . S
C1482 H1472 0.930 . S
C1482 C1480 1.419 . S
C1482 C1483 1.362 . S
C1483 H1473 0.930 . S
C1483 C1476 1.409 . S
C1483 C1482 1.362 . S
H1484 C1490 0.930 . S
H1485 C1493 0.930 . S
H1486 C1494 0.930 . S
H1487 C1495 0.930 . S
H1488 C1498 0.930 . S
H1489 C1499 0.930 . S
C1490 H1484 0.930 . S
C1490 C1491 1.355 . S
C1490 C1492 1.415 . S
C1491 C1490 1.355 . S
C1491 C1493 1.419 . S
C1492 C1490 1.415 . S
C1492 C1497 1.425 . S
C1492 C1499 1.409 . S
C1493 H1485 0.930 . S
C1493 C1491 1.419 . S
C1493 C1494 1.362 . S
C1494 H1486 0.930 . S
C1494 C1493 1.362 . S
C1494 C1497 1.409 . S
C1495 H1487 0.930 . S
C1495 C1496 1.355 . S
C1495 C1497 1.415 . S
C1496 C1495 1.355 . S
C1496 C1498 1.419 . S
C1497 C1492 1.425 . S
C1497 C1494 1.409 . S
C1497 C1495 1.415 . S
C1498 H1488 0.930 . S
C1498 C1496 1.419 . S
C1498 C1499 1.362 . S
C1499 H1489 0.930 . S
C1499 C1492 1.409 . S
C1499 C1498 1.362 . S
H1500 C1506 0.930 . S
H1501 C1509 0.930 . S
H1502 C1510 0.930 . S
H1503 C1511 0.926 1_554 S
H1504 C1514 0.930 . S
H1505 C1515 0.930 . S
C1506 H1500 0.930 . S
C1506 C1507 1.355 . S
C1506 C1508 1.415 . S
C1507 C1506 1.355 . S
C1507 C1509 1.419 . S
C1508 C1506 1.415 . S
C1508 C1513 1.425 . S
C1508 C1515 1.409 . S
C1509 H1501 0.930 . S
C1509 C1507 1.419 . S
C1509 C1510 1.362 . S
C1510 H1502 0.930 . S
C1510 C1509 1.362 . S
C1510 C1513 1.409 . S
C1511 H1503 0.926 1_556 S
C1511 C1512 1.355 . S
C1511 C1513 1.415 . S
C1512 C1511 1.355 . S
C1512 C1514 1.419 . S
C1513 C1508 1.425 . S
C1513 C1510 1.409 . S
C1513 C1511 1.415 . S
C1514 H1504 0.930 . S
C1514 C1512 1.419 . S
C1514 C1515 1.362 . S
C1515 H1505 0.930 . S
C1515 C1508 1.409 . S
C1515 C1514 1.362 . S
H1516 C1522 0.930 . S
H1517 C1525 0.930 . S
H1518 C1526 0.930 . S
H1519 C1527 0.930 . S
H1520 C1530 0.930 . S
H1521 C1531 0.930 . S
C1522 H1516 0.930 . S
C1522 C1523 1.355 . S
C1522 C1524 1.415 . S
C1523 C1522 1.355 . S
C1523 C1525 1.419 . S
C1524 C1522 1.415 . S
C1524 C1529 1.425 . S
C1524 C1531 1.409 . S
C1525 H1517 0.930 . S
C1525 C1523 1.419 . S
C1525 C1526 1.362 . S
C1526 H1518 0.930 . S
C1526 C1525 1.362 . S
C1526 C1529 1.409 . S
C1527 H1519 0.930 . S
C1527 C1528 1.355 . S
C1527 C1529 1.415 . S
C1528 C1527 1.355 . S
C1528 C1530 1.419 . S
C1529 C1524 1.425 . S
C1529 C1526 1.409 . S
C1529 C1527 1.415 . S
C1530 H1520 0.930 . S
C1530 C1528 1.419 . S
C1530 C1531 1.362 . S
C1531 H1521 0.930 . S
C1531 C1524 1.409 . S
C1531 C1530 1.362 . S
H1532 C1538 0.930 . S
H1533 C1541 0.930 . S
H1534 C1542 0.930 . S
H1535 C1543 0.930 . S
H1536 C1546 0.930 . S
H1537 C1547 0.930 . S
C1538 H1532 0.930 . S
C1538 C1539 1.355 . S
C1538 C1540 1.415 . S
C1539 C1538 1.355 . S
C1539 C1541 1.419 . S
C1540 C1538 1.415 . S
C1540 C1545 1.425 . S
C1540 C1547 1.409 . S
C1541 H1533 0.930 . S
C1541 C1539 1.419 . S
C1541 C1542 1.362 . S
C1542 H1534 0.930 . S
C1542 C1541 1.362 . S
C1542 C1545 1.409 . S
C1543 H1535 0.930 . S
C1543 C1544 1.355 . S
C1543 C1545 1.415 . S
C1544 C1543 1.355 . S
C1544 C1546 1.419 . S
C1545 C1540 1.425 . S
C1545 C1542 1.409 . S
C1545 C1543 1.415 . S
C1546 H1536 0.930 . S
C1546 C1544 1.419 . S
C1546 C1547 1.362 . S
C1547 H1537 0.930 . S
C1547 C1540 1.409 . S
C1547 C1546 1.362 . S
H1548 C1554 0.930 . S
H1549 C1557 0.930 . S
H1550 C1558 0.930 . S
H1551 C1559 0.930 . S
H1552 C1562 0.930 . S
H1553 C1563 0.930 . S
C1554 H1548 0.930 . S
C1554 C1555 1.355 . S
C1554 C1556 1.415 . S
C1555 C1554 1.355 . S
C1555 C1557 1.419 . S
C1556 C1554 1.415 . S
C1556 C1561 1.425 . S
C1556 C1563 1.409 . S
C1557 H1549 0.930 . S
C1557 C1555 1.419 . S
C1557 C1558 1.362 . S
C1558 H1550 0.930 . S
C1558 C1557 1.362 . S
C1558 C1561 1.409 . S
C1559 H1551 0.930 . S
C1559 C1560 1.355 . S
C1559 C1561 1.415 . S
C1560 C1559 1.355 . S
C1560 C1562 1.419 . S
C1561 C1556 1.425 . S
C1561 C1558 1.409 . S
C1561 C1559 1.415 . S
C1562 H1552 0.930 . S
C1562 C1560 1.419 . S
C1562 C1563 1.362 . S
C1563 H1553 0.930 . S
C1563 C1556 1.409 . S
C1563 C1562 1.362 . S
H1564 C1570 0.930 . S
H1565 C1573 0.930 . S
H1566 C1574 0.930 . S
H1567 C1575 0.930 . S
H1568 C1578 0.930 . S
H1569 C1579 0.930 . S
C1570 H1564 0.930 . S
C1570 C1571 1.355 . S
C1570 C1572 1.415 . S
C1571 C1570 1.355 . S
C1571 C1573 1.419 . S
C1572 C1570 1.415 . S
C1572 C1577 1.425 . S
C1572 C1579 1.409 . S
C1573 H1565 0.930 . S
C1573 C1571 1.419 . S
C1573 C1574 1.362 . S
C1574 H1566 0.930 . S
C1574 C1573 1.362 . S
C1574 C1577 1.409 . S
C1575 H1567 0.930 . S
C1575 C1576 1.355 . S
C1575 C1577 1.415 . S
C1576 C1575 1.355 . S
C1576 C1578 1.419 . S
C1577 C1572 1.425 . S
C1577 C1574 1.409 . S
C1577 C1575 1.415 . S
C1578 H1568 0.930 . S
C1578 C1576 1.419 . S
C1578 C1579 1.362 . S
C1579 H1569 0.930 . S
C1579 C1572 1.409 . S
C1579 C1578 1.362 . S
H1580 C1586 0.930 . S
H1581 C1589 0.930 . S
H1582 C1590 0.930 . S
H1583 C1591 0.930 . S
H1584 C1594 0.930 . S
H1585 C1595 0.930 . S
C1586 H1580 0.930 . S
C1586 C1587 1.355 . S
C1586 C1588 1.415 . S
C1587 C1586 1.355 . S
C1587 C1589 1.419 . S
C1588 C1586 1.415 . S
C1588 C1593 1.425 . S
C1588 C1595 1.409 . S
C1589 H1581 0.930 . S
C1589 C1587 1.419 . S
C1589 C1590 1.362 . S
C1590 H1582 0.930 . S
C1590 C1589 1.362 . S
C1590 C1593 1.409 . S
C1591 H1583 0.930 . S
C1591 C1592 1.355 . S
C1591 C1593 1.415 . S
C1592 C1591 1.355 . S
C1592 C1594 1.419 . S
C1593 C1588 1.425 . S
C1593 C1590 1.409 . S
C1593 C1591 1.415 . S
C1594 H1584 0.930 . S
C1594 C1592 1.419 . S
C1594 C1595 1.362 . S
C1595 H1585 0.930 . S
C1595 C1588 1.409 . S
C1595 C1594 1.362 . S
H1596 C1602 0.930 1_655 S
H1597 C1605 0.930 . S
H1598 C1606 0.930 . S
H1599 C1607 0.930 . S
H1600 C1610 0.930 . S
H1601 C1611 0.930 . S
C1602 H1596 0.930 1_455 S
C1602 C1603 1.355 . S
C1602 C1604 1.415 . S
C1603 C1602 1.355 . S
C1603 C1605 1.419 . S
C1604 C1602 1.415 . S
C1604 C1609 1.425 . S
C1604 C1611 1.409 . S
C1605 H1597 0.930 . S
C1605 C1603 1.419 . S
C1605 C1606 1.362 . S
C1606 H1598 0.930 . S
C1606 C1605 1.362 . S
C1606 C1609 1.409 . S
C1607 H1599 0.930 . S
C1607 C1608 1.355 . S
C1607 C1609 1.415 . S
C1608 C1607 1.355 . S
C1608 C1610 1.419 . S
C1609 C1604 1.425 . S
C1609 C1606 1.409 . S
C1609 C1607 1.415 . S
C1610 H1600 0.930 . S
C1610 C1608 1.419 . S
C1610 C1611 1.362 . S
C1611 H1601 0.930 . S
C1611 C1604 1.409 . S
C1611 C1610 1.362 . S
H1612 C1618 0.930 . S
H1613 C1621 0.930 . S
H1614 C1622 0.930 . S
H1615 C1623 0.930 . S
H1616 C1626 0.930 . S
H1617 C1627 0.930 . S
C1618 H1612 0.930 . S
C1618 C1619 1.355 . S
C1618 C1620 1.415 . S
C1619 C1618 1.355 . S
C1619 C1621 1.419 . S
C1620 C1618 1.415 . S
C1620 C1625 1.425 . S
C1620 C1627 1.409 . S
C1621 H1613 0.930 . S
C1621 C1619 1.419 . S
C1621 C1622 1.362 . S
C1622 H1614 0.930 . S
C1622 C1621 1.362 . S
C1622 C1625 1.409 . S
C1623 H1615 0.930 . S
C1623 C1624 1.355 . S
C1623 C1625 1.415 . S
C1624 C1623 1.355 . S
C1624 C1626 1.419 . S
C1625 C1620 1.425 . S
C1625 C1622 1.409 . S
C1625 C1623 1.415 . S
C1626 H1616 0.930 . S
C1626 C1624 1.419 . S
C1626 C1627 1.362 . S
C1627 H1617 0.930 . S
C1627 C1620 1.409 . S
C1627 C1626 1.362 . S
H1628 C1634 0.930 1_545 S
H1629 C1637 0.930 . S
H1630 C1638 0.930 . S
H1631 C1639 0.930 . S
H1632 C1642 0.930 . S
H1633 C1643 0.930 . S
C1634 H1628 0.930 1_565 S
C1634 C1635 1.355 1_565 S
C1634 C1636 1.415 . S
C1635 C1634 1.355 1_545 S
C1635 C1637 1.419 1_545 S
C1636 C1634 1.415 . S
C1636 C1641 1.425 . S
C1636 C1643 1.409 . S
C1637 H1629 0.930 . S
C1637 C1635 1.419 1_565 S
C1637 C1638 1.362 . S
C1638 H1630 0.930 . S
C1638 C1637 1.362 . S
C1638 C1641 1.409 . S
C1639 H1631 0.930 . S
C1639 C1640 1.355 . S
C1639 C1641 1.415 . S
C1640 C1639 1.355 . S
C1640 C1642 1.419 . S
C1641 C1636 1.425 . S
C1641 C1638 1.409 . S
C1641 C1639 1.415 . S
C1642 H1632 0.930 . S
C1642 C1640 1.419 . S
C1642 C1643 1.362 . S
C1643 H1633 0.930 . S
C1643 C1636 1.409 . S
C1643 C1642 1.362 . S
H1644 C1650 0.930 . S
H1645 C1653 0.930 . S
H1646 C1654 0.930 . S
H1647 C1655 0.930 . S
H1648 C1658 0.930 . S
H1649 C1659 0.930 . S
C1650 H1644 0.930 . S
C1650 C1651 1.355 . S
C1650 C1652 1.415 . S
C1651 C1650 1.355 . S
C1651 C1653 1.419 . S
C1652 C1650 1.415 . S
C1652 C1657 1.425 . S
C1652 C1659 1.409 . S
C1653 H1645 0.930 . S
C1653 C1651 1.419 . S
C1653 C1654 1.362 . S
C1654 H1646 0.930 . S
C1654 C1653 1.362 . S
C1654 C1657 1.409 . S
C1655 H1647 0.930 . S
C1655 C1656 1.355 . S
C1655 C1657 1.415 . S
C1656 C1655 1.355 . S
C1656 C1658 1.419 . S
C1657 C1652 1.425 . S
C1657 C1654 1.409 . S
C1657 C1655 1.415 . S
C1658 H1648 0.930 . S
C1658 C1656 1.419 . S
C1658 C1659 1.362 . S
C1659 H1649 0.930 . S
C1659 C1652 1.409 . S
C1659 C1658 1.362 . S
H1660 C1666 0.930 . S
H1661 C1669 0.930 . S
H1662 C1670 0.930 . S
H1663 C1671 0.930 . S
H1664 C1674 0.930 . S
H1665 C1675 0.930 . S
C1666 H1660 0.930 . S
C1666 C1667 1.355 . S
C1666 C1668 1.415 . S
C1667 C1666 1.355 . S
C1667 C1669 1.419 . S
C1668 C1666 1.415 . S
C1668 C1673 1.425 . S
C1668 C1675 1.409 . S
C1669 H1661 0.930 . S
C1669 C1667 1.419 . S
C1669 C1670 1.362 . S
C1670 H1662 0.930 . S
C1670 C1669 1.362 . S
C1670 C1673 1.409 . S
C1671 H1663 0.930 . S
C1671 C1672 1.355 . S
C1671 C1673 1.415 . S
C1672 C1671 1.355 . S
C1672 C1674 1.419 . S
C1673 C1668 1.425 . S
C1673 C1670 1.409 . S
C1673 C1671 1.415 . S
C1674 H1664 0.930 . S
C1674 C1672 1.419 . S
C1674 C1675 1.362 . S
C1675 H1665 0.930 . S
C1675 C1668 1.409 . S
C1675 C1674 1.362 . S
H1676 C1682 0.930 . S
H1677 C1685 0.930 . S
H1678 C1686 0.930 . S
H1679 C1687 0.930 . S
H1680 C1690 0.930 . S
H1681 C1691 0.930 . S
C1682 H1676 0.930 . S
C1682 C1683 1.355 . S
C1682 C1684 1.415 . S
C1683 C1682 1.355 . S
C1683 C1685 1.419 . S
C1684 C1682 1.415 . S
C1684 C1689 1.425 . S
C1684 C1691 1.409 . S
C1685 H1677 0.930 . S
C1685 C1683 1.419 . S
C1685 C1686 1.362 . S
C1686 H1678 0.930 . S
C1686 C1685 1.362 . S
C1686 C1689 1.409 . S
C1687 H1679 0.930 . S
C1687 C1688 1.355 . S
C1687 C1689 1.415 . S
C1688 C1687 1.355 . S
C1688 C1690 1.419 . S
C1689 C1684 1.425 . S
C1689 C1686 1.409 . S
C1689 C1687 1.415 . S
C1690 H1680 0.930 . S
C1690 C1688 1.419 . S
C1690 C1691 1.362 . S
C1691 H1681 0.930 . S
C1691 C1684 1.409 . S
C1691 C1690 1.362 . S
H1692 C1698 0.930 . S
H1693 C1701 0.930 . S
H1694 C1702 0.930 . S
H1695 C1703 0.930 . S
H1696 C1706 0.930 . S
H1697 C1707 0.930 . S
C1698 H1692 0.930 . S
C1698 C1699 1.355 . S
C1698 C1700 1.415 . S
C1699 C1698 1.355 . S
C1699 C1701 1.419 . S
C1700 C1698 1.415 . S
C1700 C1705 1.425 . S
C1700 C1707 1.409 . S
C1701 H1693 0.930 . S
C1701 C1699 1.419 . S
C1701 C1702 1.362 . S
C1702 H1694 0.930 . S
C1702 C1701 1.362 . S
C1702 C1705 1.409 . S
C1703 H1695 0.930 . S
C1703 C1704 1.355 . S
C1703 C1705 1.415 . S
C1704 C1703 1.355 . S
C1704 C1706 1.419 . S
C1705 C1700 1.425 . S
C1705 C1702 1.409 . S
C1705 C1703 1.415 . S
C1706 H1696 0.930 . S
C1706 C1704 1.419 . S
C1706 C1707 1.362 . S
C1707 H1697 0.930 . S
C1707 C1700 1.409 . S
C1707 C1706 1.362 . S
H1708 C1714 0.930 . S
H1709 C1717 0.930 . S
H1710 C1718 0.930 . S
H1711 C1719 0.930 . S
H1712 C1722 0.930 . S
H1713 C1723 0.930 . S
C1714 H1708 0.930 . S
C1714 C1715 1.355 . S
C1714 C1716 1.415 . S
C1715 C1714 1.355 . S
C1715 C1717 1.419 . S
C1716 C1714 1.415 . S
C1716 C1721 1.425 . S
C1716 C1723 1.409 . S
C1717 H1709 0.930 . S
C1717 C1715 1.419 . S
C1717 C1718 1.362 . S
C1718 H1710 0.930 . S
C1718 C1717 1.362 . S
C1718 C1721 1.409 . S
C1719 H1711 0.930 . S
C1719 C1720 1.355 . S
C1719 C1721 1.415 . S
C1720 C1719 1.355 . S
C1720 C1722 1.419 . S
C1721 C1716 1.425 . S
C1721 C1718 1.409 . S
C1721 C1719 1.415 . S
C1722 H1712 0.930 . S
C1722 C1720 1.419 . S
C1722 C1723 1.362 . S
C1723 H1713 0.930 . S
C1723 C1716 1.409 . S
C1723 C1722 1.362 . S
H1724 C1730 0.930 . S
H1725 C1733 0.930 . S
H1726 C1734 0.930 . S
H1727 C1735 0.930 . S
H1728 C1738 0.930 . S
H1729 C1739 0.930 . S
C1730 H1724 0.930 . S
C1730 C1731 1.355 . S
C1730 C1732 1.415 . S
C1731 C1730 1.355 . S
C1731 C1733 1.419 . S
C1732 C1730 1.415 . S
C1732 C1737 1.425 . S
C1732 C1739 1.409 . S
C1733 H1725 0.930 . S
C1733 C1731 1.419 . S
C1733 C1734 1.362 . S
C1734 H1726 0.930 . S
C1734 C1733 1.362 . S
C1734 C1737 1.409 . S
C1735 H1727 0.930 . S
C1735 C1736 1.355 . S
C1735 C1737 1.415 . S
C1736 C1735 1.355 . S
C1736 C1738 1.419 . S
C1737 C1732 1.425 . S
C1737 C1734 1.409 . S
C1737 C1735 1.415 . S
C1738 H1728 0.930 . S
C1738 C1736 1.419 . S
C1738 C1739 1.362 . S
C1739 H1729 0.930 . S
C1739 C1732 1.409 . S
C1739 C1738 1.362 . S
H1740 C1746 0.930 . S
H1741 C1749 0.930 . S
H1742 C1750 0.930 . S
H1743 C1751 0.930 . S
H1744 C1754 0.930 . S
H1745 C1755 0.930 . S
C1746 H1740 0.930 . S
C1746 C1747 1.355 1_565 S
C1746 C1748 1.415 . S
C1747 C1746 1.355 1_545 S
C1747 C1749 1.419 . S
C1748 C1746 1.415 . S
C1748 C1753 1.425 . S
C1748 C1755 1.409 . S
C1749 H1741 0.930 . S
C1749 C1747 1.419 . S
C1749 C1750 1.362 1_545 S
C1750 H1742 0.930 . S
C1750 C1749 1.362 1_565 S
C1750 C1753 1.409 . S
C1751 H1743 0.930 . S
C1751 C1752 1.355 . S
C1751 C1753 1.415 . S
C1752 C1751 1.355 . S
C1752 C1754 1.419 . S
C1753 C1748 1.425 . S
C1753 C1750 1.409 . S
C1753 C1751 1.415 . S
C1754 H1744 0.930 . S
C1754 C1752 1.419 . S
C1754 C1755 1.362 . S
C1755 H1745 0.930 . S
C1755 C1748 1.409 . S
C1755 C1754 1.362 . S
H1756 C1762 0.930 . S
H1757 C1765 0.930 . S
H1758 C1766 0.930 . S
H1759 C1767 0.930 . S
H1760 C1770 0.930 . S
H1761 C1771 0.930 . S
C1762 H1756 0.930 . S
C1762 C1763 1.355 . S
C1762 C1764 1.415 . S
C1763 C1762 1.355 . S
C1763 C1765 1.419 . S
C1764 C1762 1.415 . S
C1764 C1769 1.425 . S
C1764 C1771 1.409 . S
C1765 H1757 0.930 . S
C1765 C1763 1.419 . S
C1765 C1766 1.362 . S
C1766 H1758 0.930 . S
C1766 C1765 1.362 . S
C1766 C1769 1.409 . S
C1767 H1759 0.930 . S
C1767 C1768 1.355 . S
C1767 C1769 1.415 . S
C1768 C1767 1.355 . S
C1768 C1770 1.419 . S
C1769 C1764 1.425 . S
C1769 C1766 1.409 . S
C1769 C1767 1.415 . S
C1770 H1760 0.930 . S
C1770 C1768 1.419 . S
C1770 C1771 1.362 . S
C1771 H1761 0.930 . S
C1771 C1764 1.409 . S
C1771 C1770 1.362 . S
H1772 C1778 0.930 . S
H1773 C1781 0.930 . S
H1774 C1782 0.930 . S
H1775 C1783 0.930 . S
H1776 C1786 0.930 . S
H1777 C1787 0.930 . S
C1778 H1772 0.930 . S
C1778 C1779 1.355 . S
C1778 C1780 1.415 . S
C1779 C1778 1.355 . S
C1779 C1781 1.419 . S
C1780 C1778 1.415 . S
C1780 C1785 1.425 . S
C1780 C1787 1.409 . S
C1781 H1773 0.930 . S
C1781 C1779 1.419 . S
C1781 C1782 1.362 . S
C1782 H1774 0.930 . S
C1782 C1781 1.362 . S
C1782 C1785 1.409 . S
C1783 H1775 0.930 . S
C1783 C1784 1.355 . S
C1783 C1785 1.415 . S
C1784 C1783 1.355 . S
C1784 C1786 1.419 . S
C1785 C1780 1.425 . S
C1785 C1782 1.409 . S
C1785 C1783 1.415 . S
C1786 H1776 0.930 . S
C1786 C1784 1.419 . S
C1786 C1787 1.362 . S
C1787 H1777 0.930 . S
C1787 C1780 1.409 . S
C1787 C1786 1.362 . S
H1788 C1794 0.930 . S
H1789 C1797 0.930 . S
H1790 C1798 0.930 . S
H1791 C1799 0.930 . S
H1792 C1802 0.930 . S
H1793 C1803 0.930 . S
C1794 H1788 0.930 . S
C1794 C1795 1.355 . S
C1794 C1796 1.415 . S
C1795 C1794 1.355 . S
C1795 C1797 1.419 . S
C1796 C1794 1.415 . S
C1796 C1801 1.425 . S
C1796 C1803 1.409 . S
C1797 H1789 0.930 . S
C1797 C1795 1.419 . S
C1797 C1798 1.362 . S
C1798 H1790 0.930 . S
C1798 C1797 1.362 . S
C1798 C1801 1.409 . S
C1799 H1791 0.930 . S
C1799 C1800 1.355 . S
C1799 C1801 1.415 . S
C1800 C1799 1.355 . S
C1800 C1802 1.419 . S
C1801 C1796 1.425 . S
C1801 C1798 1.409 . S
C1801 C1799 1.415 . S
C1802 H1792 0.930 . S
C1802 C1800 1.419 . S
C1802 C1803 1.362 . S
C1803 H1793 0.930 . S
C1803 C1796 1.409 . S
C1803 C1802 1.362 . S
H1804 C1810 0.930 . S
H1805 C1813 0.930 . S
H1806 C1814 0.930 . S
H1807 C1815 0.930 . S
H1808 C1818 0.930 . S
H1809 C1819 0.930 . S
C1810 H1804 0.930 . S
C1810 C1811 1.355 . S
C1810 C1812 1.415 . S
C1811 C1810 1.355 . S
C1811 C1813 1.419 . S
C1812 C1810 1.415 . S
C1812 C1817 1.425 . S
C1812 C1819 1.409 . S
C1813 H1805 0.930 . S
C1813 C1811 1.419 . S
C1813 C1814 1.362 . S
C1814 H1806 0.930 . S
C1814 C1813 1.362 . S
C1814 C1817 1.409 . S
C1815 H1807 0.930 . S
C1815 C1816 1.355 . S
C1815 C1817 1.415 . S
C1816 C1815 1.355 . S
C1816 C1818 1.419 . S
C1817 C1812 1.425 . S
C1817 C1814 1.409 . S
C1817 C1815 1.415 . S
C1818 H1808 0.930 . S
C1818 C1816 1.419 . S
C1818 C1819 1.362 . S
C1819 H1809 0.930 . S
C1819 C1812 1.409 . S
C1819 C1818 1.362 . S
H1820 C1826 0.930 . S
H1821 C1829 0.930 . S
H1822 C1830 0.930 . S
H1823 C1831 0.930 . S
H1824 C1834 0.930 . S
H1825 C1835 0.930 . S
C1826 H1820 0.930 . S
C1826 C1827 1.355 . S
C1826 C1828 1.415 . S
C1827 C1826 1.355 . S
C1827 C1829 1.419 . S
C1828 C1826 1.415 . S
C1828 C1833 1.425 . S
C1828 C1835 1.409 . S
C1829 H1821 0.930 . S
C1829 C1827 1.419 . S
C1829 C1830 1.362 . S
C1830 H1822 0.930 . S
C1830 C1829 1.362 . S
C1830 C1833 1.409 . S
C1831 H1823 0.930 . S
C1831 C1832 1.355 . S
C1831 C1833 1.415 . S
C1832 C1831 1.355 . S
C1832 C1834 1.419 . S
C1833 C1828 1.425 . S
C1833 C1830 1.409 . S
C1833 C1831 1.415 . S
C1834 H1824 0.930 . S
C1834 C1832 1.419 . S
C1834 C1835 1.362 . S
C1835 H1825 0.930 . S
C1835 C1828 1.409 . S
C1835 C1834 1.362 . S
H1836 C1842 0.930 . S
H1837 C1845 0.929 1_565 S
H1838 C1846 0.930 . S
H1839 C1847 0.930 . S
H1840 C1850 0.930 . S
H1841 C1851 0.930 . S
C1842 H1836 0.930 . S
C1842 C1843 1.355 1_545 S
C1842 C1844 1.415 . S
C1843 C1842 1.355 1_565 S
C1843 C1845 1.419 1_565 S
C1844 C1842 1.415 . S
C1844 C1849 1.425 . S
C1844 C1851 1.409 . S
C1845 H1837 0.929 1_545 S
C1845 C1843 1.419 1_545 S
C1845 C1846 1.362 . S
C1846 H1838 0.930 . S
C1846 C1845 1.362 . S
C1846 C1849 1.409 . S
C1847 H1839 0.930 . S
C1847 C1848 1.355 . S
C1847 C1849 1.415 . S
C1848 C1847 1.355 . S
C1848 C1850 1.419 . S
C1849 C1844 1.425 . S
C1849 C1846 1.409 . S
C1849 C1847 1.415 . S
C1850 H1840 0.930 . S
C1850 C1848 1.419 . S
C1850 C1851 1.362 . S
C1851 H1841 0.930 . S
C1851 C1844 1.409 . S
C1851 C1850 1.362 . S
H1852 C1858 0.930 . S
H1853 C1861 0.930 . S
H1854 C1862 0.930 . S
H1855 C1863 0.930 . S
H1856 C1866 0.930 . S
H1857 C1867 0.930 . S
C1858 H1852 0.930 . S
C1858 C1859 1.355 . S
C1858 C1860 1.415 . S
C1859 C1858 1.355 . S
C1859 C1861 1.419 . S
C1860 C1858 1.415 . S
C1860 C1865 1.425 . S
C1860 C1867 1.409 . S
C1861 H1853 0.930 . S
C1861 C1859 1.419 . S
C1861 C1862 1.362 . S
C1862 H1854 0.930 . S
C1862 C1861 1.362 . S
C1862 C1865 1.409 . S
C1863 H1855 0.930 . S
C1863 C1864 1.355 . S
C1863 C1865 1.415 . S
C1864 C1863 1.355 . S
C1864 C1866 1.419 . S
C1865 C1860 1.425 . S
C1865 C1862 1.409 . S
C1865 C1863 1.415 . S
C1866 H1856 0.930 . S
C1866 C1864 1.419 . S
C1866 C1867 1.362 . S
C1867 H1857 0.930 . S
C1867 C1860 1.409 . S
C1867 C1866 1.362 . S
H1868 C1874 0.930 . S
H1869 C1877 0.930 . S
H1870 C1878 0.930 . S
H1871 C1879 0.930 . S
H1872 C1882 0.930 . S
H1873 C1883 0.930 . S
C1874 H1868 0.930 . S
C1874 C1875 1.355 . S
C1874 C1876 1.415 . S
C1875 C1874 1.355 . S
C1875 C1877 1.419 . S
C1876 C1874 1.415 . S
C1876 C1881 1.425 . S
C1876 C1883 1.409 . S
C1877 H1869 0.930 . S
C1877 C1875 1.419 . S
C1877 C1878 1.362 . S
C1878 H1870 0.930 . S
C1878 C1877 1.362 . S
C1878 C1881 1.409 . S
C1879 H1871 0.930 . S
C1879 C1880 1.355 . S
C1879 C1881 1.415 . S
C1880 C1879 1.355 . S
C1880 C1882 1.419 . S
C1881 C1876 1.425 . S
C1881 C1878 1.409 . S
C1881 C1879 1.415 . S
C1882 H1872 0.930 . S
C1882 C1880 1.419 . S
C1882 C1883 1.362 . S
C1883 H1873 0.930 . S
C1883 C1876 1.409 . S
C1883 C1882 1.362 . S
H1884 C1890 0.930 . S
H1885 C1893 0.930 . S
H1886 C1894 0.930 . S
H1887 C1895 0.930 . S
H1888 C1898 0.930 . S
H1889 C1899 0.930 . S
C1890 H1884 0.930 . S
C1890 C1891 1.355 . S
C1890 C1892 1.415 . S
C1891 C1890 1.355 . S
C1891 C1893 1.419 . S
C1892 C1890 1.415 . S
C1892 C1897 1.425 . S
C1892 C1899 1.409 . S
C1893 H1885 0.930 . S
C1893 C1891 1.419 . S
C1893 C1894 1.362 . S
C1894 H1886 0.930 . S
C1894 C1893 1.362 . S
C1894 C1897 1.409 . S
C1895 H1887 0.930 . S
C1895 C1896 1.355 . S
C1895 C1897 1.415 . S
C1896 C1895 1.355 . S
C1896 C1898 1.419 . S
C1897 C1892 1.425 . S
C1897 C1894 1.409 . S
C1897 C1895 1.415 . S
C1898 H1888 0.930 . S
C1898 C1896 1.419 . S
C1898 C1899 1.362 . S
C1899 H1889 0.930 . S
C1899 C1892 1.409 . S
C1899 C1898 1.362 . S
H1900 C1906 0.930 . S
H1901 C1909 0.930 . S
H1902 C1910 0.930 . S
H1903 C1911 0.930 . S
H1904 C1914 0.930 . S
H1905 C1915 0.930 . S
C1906 H1900 0.930 . S
C1906 C1907 1.355 . S
C1906 C1908 1.415 . S
C1907 C1906 1.355 . S
C1907 C1909 1.419 . S
C1908 C1906 1.415 . S
C1908 C1913 1.425 . S
C1908 C1915 1.409 . S
C1909 H1901 0.930 . S
C1909 C1907 1.419 . S
C1909 C1910 1.362 . S
C1910 H1902 0.930 . S
C1910 C1909 1.362 . S
C1910 C1913 1.409 . S
C1911 H1903 0.930 . S
C1911 C1912 1.355 . S
C1911 C1913 1.415 . S
C1912 C1911 1.355 . S
C1912 C1914 1.419 . S
C1913 C1908 1.425 . S
C1913 C1910 1.409 . S
C1913 C1911 1.415 . S
C1914 H1904 0.930 . S
C1914 C1912 1.419 . S
C1914 C1915 1.362 . S
C1915 H1905 0.930 . S
C1915 C1908 1.409 . S
C1915 C1914 1.362 . S
H1916 C1922 0.930 . S
H1917 C1925 0.937 . S
H1918 C1926 0.930 . S
H1919 C1927 0.930 . S
H1920 C1930 0.930 . S
H1921 C1931 0.930 . S
C1922 H1916 0.930 . S
C1922 C1923 1.355 1_545 S
C1922 C1924 1.415 . S
C1923 C1922 1.355 1_565 S
C1923 C1925 1.419 1_565 S
C1924 C1922 1.415 . S
C1924 C1929 1.425 . S
C1924 C1931 1.409 . S
C1925 H1917 0.937 . S
C1925 C1923 1.419 1_545 S
C1925 C1926 1.362 . S
C1926 H1918 0.930 . S
C1926 C1925 1.362 . S
C1926 C1929 1.409 . S
C1927 H1919 0.930 . S
C1927 C1928 1.355 . S
C1927 C1929 1.415 . S
C1928 C1927 1.355 . S
C1928 C1930 1.419 . S
C1929 C1924 1.425 . S
C1929 C1926 1.409 . S
C1929 C1927 1.415 . S
C1930 H1920 0.930 . S
C1930 C1928 1.419 . S
C1930 C1931 1.362 . S
C1931 H1921 0.930 . S
C1931 C1924 1.409 . S
C1931 C1930 1.362 . S
H1932 C1938 0.930 . S
H1933 C1941 0.930 . S
H1934 C1942 0.930 . S
H1935 C1943 0.930 . S
H1936 C1946 0.930 . S
H1937 C1947 0.930 . S
C1938 H1932 0.930 . S
C1938 C1939 1.355 . S
C1938 C1940 1.415 . S
C1939 C1938 1.355 . S
C1939 C1941 1.419 . S
C1940 C1938 1.415 . S
C1940 C1945 1.425 . S
C1940 C1947 1.409 . S
C1941 H1933 0.930 . S
C1941 C1939 1.419 . S
C1941 C1942 1.362 . S
C1942 H1934 0.930 . S
C1942 C1941 1.362 . S
C1942 C1945 1.409 . S
C1943 H1935 0.930 . S
C1943 C1944 1.355 . S
C1943 C1945 1.415 . S
C1944 C1943 1.355 . S
C1944 C1946 1.419 . S
C1945 C1940 1.425 . S
C1945 C1942 1.409 . S
C1945 C1943 1.415 . S
C1946 H1936 0.930 . S
C1946 C1944 1.419 . S
C1946 C1947 1.362 . S
C1947 H1937 0.930 . S
C1947 C1940 1.409 . S
C1947 C1946 1.362 . S
H1948 C1954 0.930 . S
H1949 C1957 0.930 . S
H1950 C1958 0.930 . S
H1951 C1959 0.930 . S
H1952 C1962 0.930 . S
H1953 C1963 0.930 . S
C1954 H1948 0.930 . S
C1954 C1955 1.355 . S
C1954 C1956 1.415 . S
C1955 C1954 1.355 . S
C1955 C1957 1.419 . S
C1956 C1954 1.415 . S
C1956 C1961 1.425 . S
C1956 C1963 1.409 . S
C1957 H1949 0.930 . S
C1957 C1955 1.419 . S
C1957 C1958 1.362 . S
C1958 H1950 0.930 . S
C1958 C1957 1.362 . S
C1958 C1961 1.409 . S
C1959 H1951 0.930 . S
C1959 C1960 1.355 . S
C1959 C1961 1.415 . S
C1960 C1959 1.355 . S
C1960 C1962 1.419 . S
C1961 C1956 1.425 . S
C1961 C1958 1.409 . S
C1961 C1959 1.415 . S
C1962 H1952 0.930 . S
C1962 C1960 1.419 . S
C1962 C1963 1.362 . S
C1963 H1953 0.930 . S
C1963 C1956 1.409 . S
C1963 C1962 1.362 . S
H1964 C1970 0.930 . S
H1965 C1973 0.930 . S
H1966 C1974 0.930 . S
H1967 C1975 0.930 . S
H1968 C1978 0.930 . S
H1969 C1979 0.930 . S
C1970 H1964 0.930 . S
C1970 C1971 1.355 . S
C1970 C1972 1.415 . S
C1971 C1970 1.355 . S
C1971 C1973 1.419 . S
C1972 C1970 1.415 . S
C1972 C1977 1.425 . S
C1972 C1979 1.409 . S
C1973 H1965 0.930 . S
C1973 C1971 1.419 . S
C1973 C1974 1.362 . S
C1974 H1966 0.930 . S
C1974 C1973 1.362 . S
C1974 C1977 1.409 . S
C1975 H1967 0.930 . S
C1975 C1976 1.355 . S
C1975 C1977 1.415 . S
C1976 C1975 1.355 . S
C1976 C1978 1.419 . S
C1977 C1972 1.425 . S
C1977 C1974 1.409 . S
C1977 C1975 1.415 . S
C1978 H1968 0.930 . S
C1978 C1976 1.419 . S
C1978 C1979 1.362 . S
C1979 H1969 0.930 . S
C1979 C1972 1.409 . S
C1979 C1978 1.362 . S
H1980 C1986 0.930 . S
H1981 C1989 0.930 . S
H1982 C1990 0.930 . S
H1983 C1991 0.930 . S
H1984 C1994 0.930 . S
H1985 C1995 0.930 . S
C1986 H1980 0.930 . S
C1986 C1987 1.355 . S
C1986 C1988 1.415 . S
C1987 C1986 1.355 . S
C1987 C1989 1.419 . S
C1988 C1986 1.415 . S
C1988 C1993 1.425 . S
C1988 C1995 1.409 . S
C1989 H1981 0.930 . S
C1989 C1987 1.419 . S
C1989 C1990 1.362 . S
C1990 H1982 0.930 . S
C1990 C1989 1.362 . S
C1990 C1993 1.409 . S
C1991 H1983 0.930 . S
C1991 C1992 1.355 . S
C1991 C1993 1.415 . S
C1992 C1991 1.355 . S
C1992 C1994 1.419 . S
C1993 C1988 1.425 . S
C1993 C1990 1.409 . S
C1993 C1991 1.415 . S
C1994 H1984 0.930 . S
C1994 C1992 1.419 . S
C1994 C1995 1.362 . S
C1995 H1985 0.930 . S
C1995 C1988 1.409 . S
C1995 C1994 1.362 . S
H1996 C2002 0.930 . S
H1997 C2005 0.930 . S
H1998 C2006 0.930 . S
H1999 C2007 0.930 . S
H2000 C2010 0.930 . S
H2001 C2011 0.930 . S
C2002 H1996 0.930 . S
C2002 C2003 1.355 . S
C2002 C2004 1.415 . S
C2003 C2002 1.355 . S
C2003 C2005 1.419 . S
C2004 C2002 1.415 . S
C2004 C2009 1.425 . S
C2004 C2011 1.409 . S
C2005 H1997 0.930 . S
C2005 C2003 1.419 . S
C2005 C2006 1.362 . S
C2006 H1998 0.930 . S
C2006 C2005 1.362 . S
C2006 C2009 1.409 . S
C2007 H1999 0.930 . S
C2007 C2008 1.355 . S
C2007 C2009 1.415 . S
C2008 C2007 1.355 . S
C2008 C2010 1.419 . S
C2009 C2004 1.425 . S
C2009 C2006 1.409 . S
C2009 C2007 1.415 . S
C2010 H2000 0.930 . S
C2010 C2008 1.419 . S
C2010 C2011 1.362 . S
C2011 H2001 0.930 . S
C2011 C2004 1.409 . S
C2011 C2010 1.362 . S
H2012 C2018 0.930 . S
H2013 C2021 0.930 . S
H2014 C2022 0.930 . S
H2015 C2023 0.930 . S
H2016 C2026 0.930 . S
H2017 C2027 0.930 . S
C2018 H2012 0.930 . S
C2018 C2019 1.355 . S
C2018 C2020 1.415 . S
C2019 C2018 1.355 . S
C2019 C2021 1.419 . S
C2020 C2018 1.415 . S
C2020 C2025 1.425 . S
C2020 C2027 1.409 . S
C2021 H2013 0.930 . S
C2021 C2019 1.419 . S
C2021 C2022 1.362 . S
C2022 H2014 0.930 . S
C2022 C2021 1.362 . S
C2022 C2025 1.409 . S
C2023 H2015 0.930 . S
C2023 C2024 1.355 . S
C2023 C2025 1.415 . S
C2024 C2023 1.355 . S
C2024 C2026 1.419 . S
C2025 C2020 1.425 . S
C2025 C2022 1.409 . S
C2025 C2023 1.415 . S
C2026 H2016 0.930 . S
C2026 C2024 1.419 . S
C2026 C2027 1.362 . S
C2027 H2017 0.930 . S
C2027 C2020 1.409 . S
C2027 C2026 1.362 . S
H2028 C2034 0.930 . S
H2029 C2037 0.930 . S
H2030 C2038 0.930 1_455 S
H2031 C2039 0.930 1_455 S
H2032 C2042 0.930 . S
H2033 C2043 0.930 . S
C2034 H2028 0.930 . S
C2034 C2035 1.355 . S
C2034 C2036 1.415 . S
C2035 C2034 1.355 . S
C2035 C2037 1.419 . S
C2036 C2034 1.415 . S
C2036 C2041 1.425 . S
C2036 C2043 1.409 . S
C2037 H2029 0.930 . S
C2037 C2035 1.419 . S
C2037 C2038 1.362 . S
C2038 H2030 0.930 1_655 S
C2038 C2037 1.362 . S
C2038 C2041 1.409 . S
C2039 H2031 0.930 1_655 S
C2039 C2040 1.355 . S
C2039 C2041 1.415 . S
C2040 C2039 1.355 . S
C2040 C2042 1.419 . S
C2041 C2036 1.425 . S
C2041 C2038 1.409 . S
C2041 C2039 1.415 . S
C2042 H2032 0.930 . S
C2042 C2040 1.419 . S
C2042 C2043 1.362 . S
C2043 H2033 0.930 . S
C2043 C2036 1.409 . S
C2043 C2042 1.362 . S
H2044 C2050 0.930 . S
H2045 C2053 0.930 . S
H2046 C2054 0.930 . S
H2047 C2055 0.930 . S
H2048 C2058 0.930 . S
H2049 C2059 0.930 . S
C2050 H2044 0.930 . S
C2050 C2051 1.355 . S
C2050 C2052 1.415 . S
C2051 C2050 1.355 . S
C2051 C2053 1.419 . S
C2052 C2050 1.415 . S
C2052 C2057 1.425 . S
C2052 C2059 1.409 . S
C2053 H2045 0.930 . S
C2053 C2051 1.419 . S
C2053 C2054 1.362 . S
C2054 H2046 0.930 . S
C2054 C2053 1.362 . S
C2054 C2057 1.409 . S
C2055 H2047 0.930 . S
C2055 C2056 1.355 . S
C2055 C2057 1.415 . S
C2056 C2055 1.355 . S
C2056 C2058 1.419 . S
C2057 C2052 1.425 . S
C2057 C2054 1.409 . S
C2057 C2055 1.415 . S
C2058 H2048 0.930 . S
C2058 C2056 1.419 . S
C2058 C2059 1.362 . S
C2059 H2049 0.930 . S
C2059 C2052 1.409 . S
C2059 C2058 1.362 . S
H2060 C2066 0.930 . S
H2061 C2069 0.930 . S
H2062 C2070 0.930 1_565 S
H2063 C2071 0.903 1_565 S
H2064 C2074 0.930 . S
H2065 C2075 0.930 . S
C2066 H2060 0.930 . S
C2066 C2067 1.355 . S
C2066 C2068 1.415 . S
C2067 C2066 1.355 . S
C2067 C2069 1.419 . S
C2068 C2066 1.415 . S
C2068 C2073 1.425 . S
C2068 C2075 1.409 . S
C2069 H2061 0.930 . S
C2069 C2067 1.419 . S
C2069 C2070 1.362 . S
C2070 H2062 0.930 1_545 S
C2070 C2069 1.362 . S
C2070 C2073 1.409 . S
C2071 H2063 0.903 1_545 S
C2071 C2072 1.355 . S
C2071 C2073 1.415 . S
C2072 C2071 1.355 . S
C2072 C2074 1.419 . S
C2073 C2068 1.425 . S
C2073 C2070 1.409 . S
C2073 C2071 1.415 . S
C2074 H2064 0.930 . S
C2074 C2072 1.419 . S
C2074 C2075 1.362 . S
C2075 H2065 0.930 . S
C2075 C2068 1.409 . S
C2075 C2074 1.362 . S
H2076 C2082 0.930 . S
H2077 C2085 0.930 . S
H2078 C2086 0.930 . S
H2079 C2087 0.930 . S
H2080 C2090 0.930 . S
H2081 C2091 0.930 . S
C2082 H2076 0.930 . S
C2082 C2083 1.355 . S
C2082 C2084 1.415 . S
C2083 C2082 1.355 . S
C2083 C2085 1.419 . S
C2084 C2082 1.415 . S
C2084 C2089 1.425 . S
C2084 C2091 1.409 . S
C2085 H2077 0.930 . S
C2085 C2083 1.419 . S
C2085 C2086 1.362 . S
C2086 H2078 0.930 . S
C2086 C2085 1.362 . S
C2086 C2089 1.409 . S
C2087 H2079 0.930 . S
C2087 C2088 1.355 . S
C2087 C2089 1.415 . S
C2088 C2087 1.355 . S
C2088 C2090 1.419 . S
C2089 C2084 1.425 . S
C2089 C2086 1.409 . S
C2089 C2087 1.415 . S
C2090 H2080 0.930 . S
C2090 C2088 1.419 . S
C2090 C2091 1.362 . S
C2091 H2081 0.930 . S
C2091 C2084 1.409 . S
C2091 C2090 1.362 . S
H2092 C2098 0.930 . S
H2093 C2101 0.930 . S
H2094 C2102 0.930 . S
H2095 C2103 0.930 . S
H2096 C2106 0.930 . S
H2097 C2107 0.930 . S
C2098 H2092 0.930 . S
C2098 C2099 1.355 . S
C2098 C2100 1.415 . S
C2099 C2098 1.355 . S
C2099 C2101 1.419 . S
C2100 C2098 1.415 . S
C2100 C2105 1.425 . S
C2100 C2107 1.409 . S
C2101 H2093 0.930 . S
C2101 C2099 1.419 . S
C2101 C2102 1.362 . S
C2102 H2094 0.930 . S
C2102 C2101 1.362 . S
C2102 C2105 1.409 . S
C2103 H2095 0.930 . S
C2103 C2104 1.355 . S
C2103 C2105 1.415 . S
C2104 C2103 1.355 . S
C2104 C2106 1.419 . S
C2105 C2100 1.425 . S
C2105 C2102 1.409 . S
C2105 C2103 1.415 . S
C2106 H2096 0.930 . S
C2106 C2104 1.419 . S
C2106 C2107 1.362 . S
C2107 H2097 0.930 . S
C2107 C2100 1.409 . S
C2107 C2106 1.362 . S
H2108 C2114 0.930 . S
H2109 C2117 0.930 . S
H2110 C2118 0.930 . S
H2111 C2119 0.930 . S
H2112 C2122 0.930 . S
H2113 C2123 0.930 . S
C2114 H2108 0.930 . S
C2114 C2115 1.355 . S
C2114 C2116 1.415 . S
C2115 C2114 1.355 . S
C2115 C2117 1.419 . S
C2116 C2114 1.415 . S
C2116 C2121 1.425 . S
C2116 C2123 1.409 . S
C2117 H2109 0.930 . S
C2117 C2115 1.419 . S
C2117 C2118 1.362 . S
C2118 H2110 0.930 . S
C2118 C2117 1.362 . S
C2118 C2121 1.409 . S
C2119 H2111 0.930 . S
C2119 C2120 1.355 . S
C2119 C2121 1.415 . S
C2120 C2119 1.355 . S
C2120 C2122 1.419 . S
C2121 C2116 1.425 . S
C2121 C2118 1.409 . S
C2121 C2119 1.415 . S
C2122 H2112 0.930 . S
C2122 C2120 1.419 . S
C2122 C2123 1.362 . S
C2123 H2113 0.930 . S
C2123 C2116 1.409 . S
C2123 C2122 1.362 . S
H2124 C2130 0.930 . S
H2125 C2133 0.930 . S
H2126 C2134 0.930 . S
H2127 C2135 0.930 . S
H2128 C2138 0.930 . S
H2129 C2139 0.930 . S
C2130 H2124 0.930 . S
C2130 C2131 1.355 . S
C2130 C2132 1.415 . S
C2131 C2130 1.355 . S
C2131 C2133 1.419 . S
C2132 C2130 1.415 . S
C2132 C2137 1.425 . S
C2132 C2139 1.409 . S
C2133 H2125 0.930 . S
C2133 C2131 1.419 . S
C2133 C2134 1.362 . S
C2134 H2126 0.930 . S
C2134 C2133 1.362 . S
C2134 C2137 1.409 . S
C2135 H2127 0.930 . S
C2135 C2136 1.355 . S
C2135 C2137 1.415 . S
C2136 C2135 1.355 . S
C2136 C2138 1.419 . S
C2137 C2132 1.425 . S
C2137 C2134 1.409 . S
C2137 C2135 1.415 . S
C2138 H2128 0.930 . S
C2138 C2136 1.419 . S
C2138 C2139 1.362 . S
C2139 H2129 0.930 . S
C2139 C2132 1.409 . S
C2139 C2138 1.362 . S
H2140 C2146 0.930 . S
H2141 C2149 0.930 . S
H2142 C2150 0.930 . S
H2143 C2151 0.930 . S
H2144 C2154 0.930 . S
H2145 C2155 0.930 . S
C2146 H2140 0.930 . S
C2146 C2147 1.355 . S
C2146 C2148 1.415 . S
C2147 C2146 1.355 . S
C2147 C2149 1.419 . S
C2148 C2146 1.415 . S
C2148 C2153 1.425 . S
C2148 C2155 1.409 . S
C2149 H2141 0.930 . S
C2149 C2147 1.419 . S
C2149 C2150 1.362 . S
C2150 H2142 0.930 . S
C2150 C2149 1.362 . S
C2150 C2153 1.409 . S
C2151 H2143 0.930 . S
C2151 C2152 1.355 . S
C2151 C2153 1.415 . S
C2152 C2151 1.355 . S
C2152 C2154 1.419 . S
C2153 C2148 1.425 . S
C2153 C2150 1.409 . S
C2153 C2151 1.415 . S
C2154 H2144 0.930 . S
C2154 C2152 1.419 . S
C2154 C2155 1.362 . S
C2155 H2145 0.930 . S
C2155 C2148 1.409 . S
C2155 C2154 1.362 . S
H2156 C2162 0.930 . S
H2157 C2165 0.930 . S
H2158 C2166 0.930 . S
H2159 C2167 0.930 . S
H2160 C2170 0.930 . S
H2161 C2171 0.930 . S
C2162 H2156 0.930 . S
C2162 C2163 1.355 . S
C2162 C2164 1.415 . S
C2163 C2162 1.355 . S
C2163 C2165 1.419 . S
C2164 C2162 1.415 . S
C2164 C2169 1.425 . S
C2164 C2171 1.409 . S
C2165 H2157 0.930 . S
C2165 C2163 1.419 . S
C2165 C2166 1.362 . S
C2166 H2158 0.930 . S
C2166 C2165 1.362 . S
C2166 C2169 1.409 . S
C2167 H2159 0.930 . S
C2167 C2168 1.355 . S
C2167 C2169 1.415 . S
C2168 C2167 1.355 . S
C2168 C2170 1.419 . S
C2169 C2164 1.425 . S
C2169 C2166 1.409 . S
C2169 C2167 1.415 . S
C2170 H2160 0.930 . S
C2170 C2168 1.419 . S
C2170 C2171 1.362 . S
C2171 H2161 0.930 . S
C2171 C2164 1.409 . S
C2171 C2170 1.362 . S
H2172 C2178 0.930 . S
H2173 C2181 0.930 . S
H2174 C2182 0.930 . S
H2175 C2183 0.930 . S
H2176 C2186 0.930 . S
H2177 C2187 0.930 . S
C2178 H2172 0.930 . S
C2178 C2179 1.355 . S
C2178 C2180 1.415 . S
C2179 C2178 1.355 . S
C2179 C2181 1.419 . S
C2180 C2178 1.415 . S
C2180 C2185 1.425 . S
C2180 C2187 1.409 . S
C2181 H2173 0.930 . S
C2181 C2179 1.419 . S
C2181 C2182 1.362 . S
C2182 H2174 0.930 . S
C2182 C2181 1.362 . S
C2182 C2185 1.409 . S
C2183 H2175 0.930 . S
C2183 C2184 1.355 . S
C2183 C2185 1.415 . S
C2184 C2183 1.355 . S
C2184 C2186 1.419 . S
C2185 C2180 1.425 . S
C2185 C2182 1.409 . S
C2185 C2183 1.415 . S
C2186 H2176 0.930 . S
C2186 C2184 1.419 . S
C2186 C2187 1.362 . S
C2187 H2177 0.930 . S
C2187 C2180 1.409 . S
C2187 C2186 1.362 . S
H2188 C2194 0.930 . S
H2189 C2197 0.930 . S
H2190 C2198 0.930 . S
H2191 C2199 0.930 . S
H2192 C2202 0.930 . S
H2193 C2203 0.930 . S
C2194 H2188 0.930 . S
C2194 C2195 1.355 . S
C2194 C2196 1.415 . S
C2195 C2194 1.355 . S
C2195 C2197 1.419 . S
C2196 C2194 1.415 . S
C2196 C2201 1.425 . S
C2196 C2203 1.409 . S
C2197 H2189 0.930 . S
C2197 C2195 1.419 . S
C2197 C2198 1.362 . S
C2198 H2190 0.930 . S
C2198 C2197 1.362 . S
C2198 C2201 1.409 . S
C2199 H2191 0.930 . S
C2199 C2200 1.355 . S
C2199 C2201 1.415 . S
C2200 C2199 1.355 . S
C2200 C2202 1.419 . S
C2201 C2196 1.425 . S
C2201 C2198 1.409 . S
C2201 C2199 1.415 . S
C2202 H2192 0.930 . S
C2202 C2200 1.419 . S
C2202 C2203 1.362 . S
C2203 H2193 0.930 . S
C2203 C2196 1.409 . S
C2203 C2202 1.362 . S
H2204 C2210 0.930 . S
H2205 C2213 0.930 . S
H2206 C2214 0.930 . S
H2207 C2215 0.930 . S
H2208 C2218 0.930 . S
H2209 C2219 0.930 . S
C2210 H2204 0.930 . S
C2210 C2211 1.355 . S
C2210 C2212 1.415 . S
C2211 C2210 1.355 . S
C2211 C2213 1.419 . S
C2212 C2210 1.415 . S
C2212 C2217 1.425 . S
C2212 C2219 1.409 . S
C2213 H2205 0.930 . S
C2213 C2211 1.419 . S
C2213 C2214 1.362 . S
C2214 H2206 0.930 . S
C2214 C2213 1.362 . S
C2214 C2217 1.409 . S
C2215 H2207 0.930 . S
C2215 C2216 1.355 . S
C2215 C2217 1.415 . S
C2216 C2215 1.355 . S
C2216 C2218 1.419 . S
C2217 C2212 1.425 . S
C2217 C2214 1.409 . S
C2217 C2215 1.415 . S
C2218 H2208 0.930 . S
C2218 C2216 1.419 . S
C2218 C2219 1.362 . S
C2219 H2209 0.930 . S
C2219 C2212 1.409 . S
C2219 C2218 1.362 . S
H2220 C2226 0.930 . S
H2221 C2229 0.930 . S
H2222 C2230 0.930 . S
H2223 C2231 0.930 . S
H2224 C2234 0.930 . S
H2225 C2235 0.930 . S
C2226 H2220 0.930 . S
C2226 C2227 1.355 . S
C2226 C2228 1.415 . S
C2227 C2226 1.355 . S
C2227 C2229 1.419 . S
C2228 C2226 1.415 . S
C2228 C2233 1.425 . S
C2228 C2235 1.409 . S
C2229 H2221 0.930 . S
C2229 C2227 1.419 . S
C2229 C2230 1.362 . S
C2230 H2222 0.930 . S
C2230 C2229 1.362 . S
C2230 C2233 1.409 . S
C2231 H2223 0.930 . S
C2231 C2232 1.355 . S
C2231 C2233 1.415 . S
C2232 C2231 1.355 . S
C2232 C2234 1.419 . S
C2233 C2228 1.425 . S
C2233 C2230 1.409 . S
C2233 C2231 1.415 . S
C2234 H2224 0.930 . S
C2234 C2232 1.419 . S
C2234 C2235 1.362 . S
C2235 H2225 0.930 . S
C2235 C2228 1.409 . S
C2235 C2234 1.362 . S
H2236 C2242 0.930 . S
H2237 C2245 0.930 . S
H2238 C2246 0.930 . S
H2239 C2247 0.930 . S
H2240 C2250 0.930 . S
H2241 C2251 0.930 . S
C2242 H2236 0.930 . S
C2242 C2243 1.355 . S
C2242 C2244 1.415 . S
C2243 C2242 1.355 . S
C2243 C2245 1.419 . S
C2244 C2242 1.415 . S
C2244 C2249 1.425 . S
C2244 C2251 1.409 . S
C2245 H2237 0.930 . S
C2245 C2243 1.419 . S
C2245 C2246 1.362 . S
C2246 H2238 0.930 . S
C2246 C2245 1.362 . S
C2246 C2249 1.409 . S
C2247 H2239 0.930 . S
C2247 C2248 1.355 . S
C2247 C2249 1.415 . S
C2248 C2247 1.355 . S
C2248 C2250 1.419 . S
C2249 C2244 1.425 . S
C2249 C2246 1.409 . S
C2249 C2247 1.415 . S
C2250 H2240 0.930 . S
C2250 C2248 1.419 . S
C2250 C2251 1.362 . S
C2251 H2241 0.930 . S
C2251 C2244 1.409 . S
C2251 C2250 1.362 . S
H2252 C2258 0.930 . S
H2253 C2261 0.930 . S
H2254 C2262 0.930 . S
H2255 C2263 0.930 . S
H2256 C2266 0.930 . S
H2257 C2267 0.930 . S
C2258 H2252 0.930 . S
C2258 C2259 1.355 . S
C2258 C2260 1.415 . S
C2259 C2258 1.355 . S
C2259 C2261 1.419 . S
C2260 C2258 1.415 . S
C2260 C2265 1.425 . S
C2260 C2267 1.409 . S
C2261 H2253 0.930 . S
C2261 C2259 1.419 . S
C2261 C2262 1.362 . S
C2262 H2254 0.930 . S
C2262 C2261 1.362 . S
C2262 C2265 1.409 . S
C2263 H2255 0.930 . S
C2263 C2264 1.355 . S
C2263 C2265 1.415 . S
C2264 C2263 1.355 . S
C2264 C2266 1.419 . S
C2265 C2260 1.425 . S
C2265 C2262 1.409 . S
C2265 C2263 1.415 . S
C2266 H2256 0.930 . S
C2266 C2264 1.419 . S
C2266 C2267 1.362 . S
C2267 H2257 0.930 . S
C2267 C2260 1.409 . S
C2267 C2266 1.362 . S
C1411 C469 1.464 . S
C1416 C704 1.413 . S
C1427 C505 1.475 . S
C1432 C788 1.376 . S
C1443 C433 1.490 . S
C1448 C882 1.429 . S
C1459 C397 1.447 . S
C1464 C798 1.401 . S
C1480 C872 1.373 . S
C1475 C325 1.422 . S
C1491 C361 1.431 . S
C1496 C714 1.364 . S
C1512 C715 1.329 . S
C1507 C421 1.463 . S
C1528 C799 1.434 . S
C1523 C349 1.469 . S
C1539 C385 1.504 . S
C1544 C891 1.468 . S
C1555 C493 1.444 . S
C1560 C807 1.426 . S
C1571 C529 1.419 . S
C1576 C883 1.307 . S
C1592 C723 1.415 . S
C1587 C457 1.438 . S
C1608 C956 1.370 . S
C1603 C37 1.449 1_455 S
C1619 C73 1.478 . S
C1624 C1040 1.430 . S
C1635 C1 1.482 . S
C1640 C1134 1.402 . S
C1651 C613 1.444 . S
C1656 C1050 1.381 . S
C1667 C541 1.413 . S
C1672 C1124 1.291 . S
C1683 C577 1.441 . S
C1688 C966 1.399 . S
C1699 C637 1.450 . S
C1704 C967 1.369 . S
C1715 C565 1.480 . S
C1720 C1051 1.356 . S
C1736 C1143 1.469 . S
C1731 C601 1.504 . S
C1747 C61 1.457 . S
C1752 C1059 1.410 . S
C1768 C1135 1.381 . S
C1763 C97 1.413 1_455 S
C1779 C25 1.447 . S
C1784 C975 1.387 . S
C1800 C1208 1.381 . S
C1795 C253 1.450 . S
C1811 C289 1.472 . S
C1816 C1292 1.355 . S
C1832 C1386 1.465 . S
C1827 C217 1.500 . S
C1848 C1302 1.379 . S
C1843 C181 1.443 . S
C1864 C1376 1.293 . S
C1859 C109 1.413 1_655 S
C1875 C145 1.428 . S
C1880 C1218 1.354 . S
C1891 C205 1.455 1_655 S
C1896 C1219 1.419 . S
C1907 C133 1.481 . S
C1912 C1303 1.362 . S
C1928 C1395 1.399 . S
C1923 C169 1.482 . S
C1939 C277 1.444 . S
C1944 C1311 1.426 . S
C1955 C313 1.410 . S
C1960 C1387 1.386 . S
C1971 C241 1.444 . S
C1976 C1227 1.423 . S
C1987 C571 1.452 . S
C1992 C711 1.361 . S
C2008 C795 1.340 . S
C2003 C607 1.510 . S
C2019 C643 1.468 . S
C2024 C888 1.379 . S
C2035 C247 1.506 . S
C2040 C804 1.412 . S
C2051 C283 1.478 . S
C2056 C879 1.339 . S
C2072 C720 1.400 . S
C2067 C319 1.444 . S
C2083 C139 1.455 . S
C2088 C963 1.348 . S
C2099 C175 1.504 . S
C2104 C1047 1.361 . S
C2115 C211 1.485 . S
C2120 C1140 1.328 . S
C2131 C463 1.507 . S
C2136 C1056 1.403 . S
C2152 C1131 1.318 . S
C2147 C499 1.481 . S
C2163 C535 1.446 . S
C2168 C972 1.401 . S
C2179 C355 1.444 . S
C2184 C1215 1.397 . S
C2195 C391 1.511 . S
C2200 C1299 1.307 . S
C2216 C1392 1.404 . S
C2211 C427 1.471 . S
C2227 C31 1.504 . S
C2232 C1308 1.351 . S
C2243 C67 1.485 . S
C2248 C1383 1.290 . S
C2259 C103 1.463 . S
C2264 C1224 1.347 . S
