# Generated by pormake.
# Topology ptr, (4,4)-cn, num edge types: 1
# Building blocks:
#     Node 0, Type 0, BuildingBlock: NAHDIM_clean_sbu_0, # of connection points: 4
#     Node 1, Type 0, BuildingBlock: NAHDIM_clean_sbu_0, # of connection points: 4
#     Node 2, Type 0, BuildingBlock: NAHDIM_clean_sbu_0, # of connection points: 4
#     Node 3, Type 0, BuildingBlock: NAHDIM_clean_sbu_0, # of connection points: 4
#     Node 4, Type 0, BuildingBlock: NAHDIM_clean_sbu_0, # of connection points: 4
#     Node 5, Type 0, BuildingBlock: NAHDIM_clean_sbu_0, # of connection points: 4
#     Node 6, Type 0, BuildingBlock: NAHDIM_clean_sbu_0, # of connection points: 4
#     Node 7, Type 0, BuildingBlock: NAHDIM_clean_sbu_0, # of connection points: 4
#     Node 8, Type 0, BuildingBlock: NAHDIM_clean_sbu_0, # of connection points: 4
#     Node 9, Type 0, BuildingBlock: NAHDIM_clean_sbu_0, # of connection points: 4
#     Node 10, Type 0, BuildingBlock: NAHDIM_clean_sbu_0, # of connection points: 4
#     Node 11, Type 0, BuildingBlock: NAHDIM_clean_sbu_0, # of connection points: 4
#     Node 12, Type 0, BuildingBlock: NAHDIM_clean_sbu_0, # of connection points: 4
#     Node 13, Type 0, BuildingBlock: NAHDIM_clean_sbu_0, # of connection points: 4
#     Node 14, Type 0, BuildingBlock: NAHDIM_clean_sbu_0, # of connection points: 4
#     Node 15, Type 0, BuildingBlock: NAHDIM_clean_sbu_0, # of connection points: 4
#     Node 16, Type 0, BuildingBlock: NAHDIM_clean_sbu_0, # of connection points: 4
#     Node 17, Type 0, BuildingBlock: NAHDIM_clean_sbu_0, # of connection points: 4
#     Node 18, Type 1, BuildingBlock: KUFVIS_clean_linker_0, # of connection points: 4
#     Node 19, Type 1, BuildingBlock: KUFVIS_clean_linker_0, # of connection points: 4
#     Node 20, Type 1, BuildingBlock: KUFVIS_clean_linker_0, # of connection points: 4
#     Node 21, Type 1, BuildingBlock: KUFVIS_clean_linker_0, # of connection points: 4
#     Node 22, Type 1, BuildingBlock: KUFVIS_clean_linker_0, # of connection points: 4
#     Node 23, Type 1, BuildingBlock: KUFVIS_clean_linker_0, # of connection points: 4
#     Node 24, Type 1, BuildingBlock: KUFVIS_clean_linker_0, # of connection points: 4
#     Node 25, Type 1, BuildingBlock: KUFVIS_clean_linker_0, # of connection points: 4
#     Node 26, Type 1, BuildingBlock: KUFVIS_clean_linker_0, # of connection points: 4
#     Node 27, Type 1, BuildingBlock: KUFVIS_clean_linker_0, # of connection points: 4
#     Node 28, Type 1, BuildingBlock: KUFVIS_clean_linker_0, # of connection points: 4
#     Node 29, Type 1, BuildingBlock: KUFVIS_clean_linker_0, # of connection points: 4
#     Node 30, Type 1, BuildingBlock: KUFVIS_clean_linker_0, # of connection points: 4
#     Node 31, Type 1, BuildingBlock: KUFVIS_clean_linker_0, # of connection points: 4
#     Node 32, Type 1, BuildingBlock: KUFVIS_clean_linker_0, # of connection points: 4
#     Node 33, Type 1, BuildingBlock: KUFVIS_clean_linker_0, # of connection points: 4
#     Node 34, Type 1, BuildingBlock: KUFVIS_clean_linker_0, # of connection points: 4
#     Node 35, Type 1, BuildingBlock: KUFVIS_clean_linker_0, # of connection points: 4
#     Edge 36, Type (0, 1), BuildingBlock: OJICUG_clean_linker_0, # of connection points: 2
#     Edge 37, Type (0, 1), BuildingBlock: OJICUG_clean_linker_0, # of connection points: 2
#     Edge 38, Type (0, 1), BuildingBlock: OJICUG_clean_linker_0, # of connection points: 2
#     Edge 39, Type (0, 1), BuildingBlock: OJICUG_clean_linker_0, # of connection points: 2
#     Edge 40, Type (0, 1), BuildingBlock: OJICUG_clean_linker_0, # of connection points: 2
#     Edge 41, Type (0, 1), BuildingBlock: OJICUG_clean_linker_0, # of connection points: 2
#     Edge 42, Type (0, 1), BuildingBlock: OJICUG_clean_linker_0, # of connection points: 2
#     Edge 43, Type (0, 1), BuildingBlock: OJICUG_clean_linker_0, # of connection points: 2
#     Edge 44, Type (0, 1), BuildingBlock: OJICUG_clean_linker_0, # of connection points: 2
#     Edge 45, Type (0, 1), BuildingBlock: OJICUG_clean_linker_0, # of connection points: 2
#     Edge 46, Type (0, 1), BuildingBlock: OJICUG_clean_linker_0, # of connection points: 2
#     Edge 47, Type (0, 1), BuildingBlock: OJICUG_clean_linker_0, # of connection points: 2
#     Edge 48, Type (0, 1), BuildingBlock: OJICUG_clean_linker_0, # of connection points: 2
#     Edge 49, Type (0, 1), BuildingBlock: OJICUG_clean_linker_0, # of connection points: 2
#     Edge 50, Type (0, 1), BuildingBlock: OJICUG_clean_linker_0, # of connection points: 2
#     Edge 51, Type (0, 1), BuildingBlock: OJICUG_clean_linker_0, # of connection points: 2
#     Edge 52, Type (0, 1), BuildingBlock: OJICUG_clean_linker_0, # of connection points: 2
#     Edge 53, Type (0, 1), BuildingBlock: OJICUG_clean_linker_0, # of connection points: 2
#     Edge 54, Type (0, 1), BuildingBlock: OJICUG_clean_linker_0, # of connection points: 2
#     Edge 55, Type (0, 1), BuildingBlock: OJICUG_clean_linker_0, # of connection points: 2
#     Edge 56, Type (0, 1), BuildingBlock: OJICUG_clean_linker_0, # of connection points: 2
#     Edge 57, Type (0, 1), BuildingBlock: OJICUG_clean_linker_0, # of connection points: 2
#     Edge 58, Type (0, 1), BuildingBlock: OJICUG_clean_linker_0, # of connection points: 2
#     Edge 59, Type (0, 1), BuildingBlock: OJICUG_clean_linker_0, # of connection points: 2
#     Edge 60, Type (0, 1), BuildingBlock: OJICUG_clean_linker_0, # of connection points: 2
#     Edge 61, Type (0, 1), BuildingBlock: OJICUG_clean_linker_0, # of connection points: 2
#     Edge 62, Type (0, 1), BuildingBlock: OJICUG_clean_linker_0, # of connection points: 2
#     Edge 63, Type (0, 1), BuildingBlock: OJICUG_clean_linker_0, # of connection points: 2
#     Edge 64, Type (0, 1), BuildingBlock: OJICUG_clean_linker_0, # of connection points: 2
#     Edge 65, Type (0, 1), BuildingBlock: OJICUG_clean_linker_0, # of connection points: 2
#     Edge 66, Type (0, 1), BuildingBlock: OJICUG_clean_linker_0, # of connection points: 2
#     Edge 67, Type (0, 1), BuildingBlock: OJICUG_clean_linker_0, # of connection points: 2
#     Edge 68, Type (0, 1), BuildingBlock: OJICUG_clean_linker_0, # of connection points: 2
#     Edge 69, Type (0, 1), BuildingBlock: OJICUG_clean_linker_0, # of connection points: 2
#     Edge 70, Type (0, 1), BuildingBlock: OJICUG_clean_linker_0, # of connection points: 2
#     Edge 71, Type (0, 1), BuildingBlock: OJICUG_clean_linker_0, # of connection points: 2
#     Edge 72, Type (0, 1), BuildingBlock: OJICUG_clean_linker_0, # of connection points: 2
#     Edge 73, Type (0, 1), BuildingBlock: OJICUG_clean_linker_0, # of connection points: 2
#     Edge 74, Type (0, 1), BuildingBlock: OJICUG_clean_linker_0, # of connection points: 2
#     Edge 75, Type (0, 1), BuildingBlock: OJICUG_clean_linker_0, # of connection points: 2
#     Edge 76, Type (0, 1), BuildingBlock: OJICUG_clean_linker_0, # of connection points: 2
#     Edge 77, Type (0, 1), BuildingBlock: OJICUG_clean_linker_0, # of connection points: 2
#     Edge 78, Type (0, 1), BuildingBlock: OJICUG_clean_linker_0, # of connection points: 2
#     Edge 79, Type (0, 1), BuildingBlock: OJICUG_clean_linker_0, # of connection points: 2
#     Edge 80, Type (0, 1), BuildingBlock: OJICUG_clean_linker_0, # of connection points: 2
#     Edge 81, Type (0, 1), BuildingBlock: OJICUG_clean_linker_0, # of connection points: 2
#     Edge 82, Type (0, 1), BuildingBlock: OJICUG_clean_linker_0, # of connection points: 2
#     Edge 83, Type (0, 1), BuildingBlock: OJICUG_clean_linker_0, # of connection points: 2
#     Edge 84, Type (0, 1), BuildingBlock: OJICUG_clean_linker_0, # of connection points: 2
#     Edge 85, Type (0, 1), BuildingBlock: OJICUG_clean_linker_0, # of connection points: 2
#     Edge 86, Type (0, 1), BuildingBlock: OJICUG_clean_linker_0, # of connection points: 2
#     Edge 87, Type (0, 1), BuildingBlock: OJICUG_clean_linker_0, # of connection points: 2
#     Edge 88, Type (0, 1), BuildingBlock: OJICUG_clean_linker_0, # of connection points: 2
#     Edge 89, Type (0, 1), BuildingBlock: OJICUG_clean_linker_0, # of connection points: 2
#     Edge 90, Type (0, 1), BuildingBlock: OJICUG_clean_linker_0, # of connection points: 2
#     Edge 91, Type (0, 1), BuildingBlock: OJICUG_clean_linker_0, # of connection points: 2
#     Edge 92, Type (0, 1), BuildingBlock: OJICUG_clean_linker_0, # of connection points: 2
#     Edge 93, Type (0, 1), BuildingBlock: OJICUG_clean_linker_0, # of connection points: 2
#     Edge 94, Type (0, 1), BuildingBlock: OJICUG_clean_linker_0, # of connection points: 2
#     Edge 95, Type (0, 1), BuildingBlock: OJICUG_clean_linker_0, # of connection points: 2
#     Edge 96, Type (0, 1), BuildingBlock: OJICUG_clean_linker_0, # of connection points: 2
#     Edge 97, Type (0, 1), BuildingBlock: OJICUG_clean_linker_0, # of connection points: 2
#     Edge 98, Type (0, 1), BuildingBlock: OJICUG_clean_linker_0, # of connection points: 2
#     Edge 99, Type (0, 1), BuildingBlock: OJICUG_clean_linker_0, # of connection points: 2
#     Edge 100, Type (0, 1), BuildingBlock: OJICUG_clean_linker_0, # of connection points: 2
#     Edge 101, Type (0, 1), BuildingBlock: OJICUG_clean_linker_0, # of connection points: 2
#     Edge 102, Type (0, 1), BuildingBlock: OJICUG_clean_linker_0, # of connection points: 2
#     Edge 103, Type (0, 1), BuildingBlock: OJICUG_clean_linker_0, # of connection points: 2
#     Edge 104, Type (0, 1), BuildingBlock: OJICUG_clean_linker_0, # of connection points: 2
#     Edge 105, Type (0, 1), BuildingBlock: OJICUG_clean_linker_0, # of connection points: 2
#     Edge 106, Type (0, 1), BuildingBlock: OJICUG_clean_linker_0, # of connection points: 2
#     Edge 107, Type (0, 1), BuildingBlock: OJICUG_clean_linker_0, # of connection points: 2
# Relax obj value: 0.075
# Max RMSD: 0.215
# Mean RMSD: 0.122
data_MOF--net-ptr--node1-NAHDIM_clean_sbu_0--node2-KUFVIS_clean_linker_0--edge1-OJICUG_clean_linker_0
_symmetry_space_group_name_H-M    P1
_symmetry_Int_Tables_number       1
_symmetry_cell_setting            triclinic
loop_
_symmetry_equiv_pos_as_xyz
'x, y, z'
_cell_length_a     58.218898
_cell_length_b     57.18726
_cell_length_c     36.040193
_cell_angle_alpha  91.295254
_cell_angle_beta   89.466648
_cell_angle_gamma 122.0436
loop_
_atom_site_label
_atom_site_type_symbol
_atom_site_fract_x
_atom_site_fract_y
_atom_site_fract_z
_atom_type_partial_charge
C0 C 0.05519 0.35887 -0.00317 0.0
O1 O 0.03969 0.3392 0.97276 0.0
O2 O 0.9814 0.32751 -0.00287 0.0
Zn3 Zn 1.00989 0.36793 0.0033 0.0
O4 O 1.00187 0.38514 0.04677 0.0
C5 C 0.99479 0.39545 0.95123 0.0
O6 O 0.97626 0.3906 0.97619 0.0
O7 O 0.04657 0.37307 0.01211 0.0
C8 C 1.01521 0.41135 0.04864 0.0
O9 O 0.03288 0.42528 0.02249 0.0
C10 C 0.95612 0.31746 0.001 0.0
O11 O 0.94764 0.33381 0.01136 0.0
O12 O 1.01108 0.38743 0.95685 0.0
C13 C 0.73357 0.67179 0.01078 0.0
O14 O 0.73266 0.69022 0.03209 0.0
O15 O 0.67438 0.67902 0.01434 0.0
Zn16 Zn 0.674 0.64384 0.00588 0.0
O17 O 0.6508 0.62349 0.96098 0.0
C18 C 0.63055 0.60611 0.05138 0.0
O19 O 0.6171 0.6085 0.0242 0.0
O20 O 0.71168 0.65122 -0.00212 0.0
C21 C 0.63692 0.6313 0.94431 0.0
O22 O 0.63833 0.65406 0.95535 0.0
C23 C 0.68881 0.70215 -0.00132 0.0
O24 O 0.70726 0.70572 0.97432 0.0
O25 O 0.65631 0.61966 0.05014 0.0
C26 C 0.38527 0.07625 0.01018 0.0
O27 O 0.36963 0.06218 0.03802 0.0
O28 O 0.36221 1.00095 0.01564 0.0
Zn29 Zn 0.39976 0.03379 0.00563 0.0
O30 O 0.41548 0.02449 0.96168 0.0
C31 C 0.44213 0.03581 0.04971 0.0
O32 O 0.44598 0.02562 0.01894 0.0
O33 O 0.39907 0.06785 -0.00639 0.0
C34 C 0.40459 1.00057 0.94666 0.0
O35 O 0.3812 0.98042 0.95893 0.0
C36 C 0.34039 0.99462 -0.00099 0.0
O37 O 0.34081 1.01099 0.97366 0.0
O38 O 0.4236 0.04128 0.05067 0.0
C39 C 0.98941 0.67424 -0.00881 0.0
O40 O 1.00269 0.69111 0.01918 0.0
O41 O 0.06663 0.70419 -0.01114 0.0
Zn42 Zn 0.03502 0.6648 -0.01677 0.0
O43 O 0.04116 0.64563 0.94025 0.0
C44 C 0.04695 0.63567 0.03698 0.0
O45 O 0.06614 0.64022 0.01333 0.0
O46 O 0.99963 0.66234 0.97364 0.0
C47 C 0.02702 0.6194 0.93901 0.0
O48 O 1.00963 0.60626 0.96576 0.0
C49 C 0.06769 0.72569 0.97767 0.0
O50 O 0.0469 0.72322 0.95989 0.0
O51 O 0.03157 0.64459 0.03005 0.0
C52 C 0.31035 0.35714 0.97751 0.0
O53 O 0.31102 0.3363 0.96273 0.0
O54 O 0.36081 0.34263 -0.01605 0.0
Zn55 Zn 0.36834 0.38131 -0.01326 0.0
O56 O 0.3882 0.4009 0.03408 0.0
C57 C 0.41289 0.40415 0.93542 0.0
O58 O 0.42132 0.39214 0.95735 0.0
O59 O 0.33243 0.37879 -0.01226 0.0
C60 C 0.41041 0.42419 0.03508 0.0
O61 O 0.42193 0.4367 0.0041 0.0
C62 C 0.37377 0.33316 -0.00088 0.0
O63 O 0.39506 0.34954 0.01987 0.0
O64 O 0.39041 0.40209 0.94225 0.0
C65 C 0.65813 0.94654 0.97093 0.0
O66 O 0.67725 0.96398 0.94854 0.0
O67 O 0.68471 0.01806 0.96791 0.0
Zn68 Zn 0.64541 0.98951 0.9788 0.0
O69 O 0.63407 0.99783 0.02773 0.0
C70 C 0.62817 1.01063 0.9208 0.0
O71 O 0.65166 0.03305 0.92872 0.0
O72 O 0.64163 0.95256 -0.0154 0.0
C73 C 0.62371 1.01247 0.03165 0.0
O74 O 0.62096 0.02423 0.00259 0.0
C75 C 0.69954 0.04108 -0.0151 0.0
O76 O 0.68936 0.04804 0.01256 0.0
O77 O 0.62098 0.98867 0.93823 0.0
C78 C 0.72987 0.69923 0.32582 0.0
O79 O 0.71244 0.67896 0.30384 0.0
O80 O 0.65808 0.67085 0.32795 0.0
Zn81 Zn 0.68672 0.71115 0.33635 0.0
O82 O 0.68067 0.72533 0.38447 0.0
C83 C 0.66561 0.72762 0.27673 0.0
O84 O 0.64281 0.70495 0.28535 0.0
O85 O 0.72332 0.71523 0.34086 0.0
C86 C 0.66586 0.73534 0.38922 0.0
O87 O 0.65187 0.73583 0.36121 0.0
C88 C 0.63343 0.65852 0.33814 0.0
O89 O 0.62451 0.67234 0.35622 0.0
O90 O 0.6871 0.73431 0.29449 0.0
C91 C 0.39951 1.00051 0.34034 0.0
O92 O 0.40233 0.01921 0.36489 0.0
O93 O 0.35428 0.02566 0.34383 0.0
Zn94 Zn 0.34298 0.98581 0.33523 0.0
O95 O 0.31991 0.96994 0.28914 0.0
C96 C 0.30416 0.96568 0.39442 0.0
O97 O 0.30078 0.98535 0.38312 0.0
O98 O 0.37634 0.98419 0.32587 0.0
C99 C 0.29489 0.96132 0.28564 0.0
O100 O 0.28144 0.96286 0.314 0.0
C101 C 0.34559 0.03851 0.32615 0.0
O102 O 0.32739 0.02559 0.29984 0.0
O103 O 0.32207 0.96248 0.37904 0.0
C104 C 0.04175 0.40916 0.34092 0.0
O105 O 0.02155 0.39148 0.36178 0.0
O106 O 1.01896 0.33739 0.34735 0.0
Zn107 Zn 0.05779 0.36815 0.33908 0.0
O108 O 0.07358 0.36153 0.29306 0.0
C109 C 0.0785 0.35111 0.39784 0.0
O110 O 0.05968 0.32648 0.38548 0.0
O111 O 0.05928 0.40367 0.33015 0.0
C112 C 0.08291 0.34598 0.28849 0.0
O113 O 0.08165 0.33043 0.31562 0.0
C114 C 1.00622 0.31413 0.33032 0.0
O115 O 1.01853 0.30844 0.30425 0.0
O116 O 0.081 0.37233 0.38305 0.0
C117 C 0.66577 0.01475 0.32465 0.0
O118 O 0.68712 0.0351 0.34174 0.0
O119 O 0.73244 0.02013 0.32653 0.0
Zn120 Zn 0.69581 0.98556 0.31909 0.0
O121 O 0.69526 0.9649 0.27296 0.0
C122 C 0.70454 0.95381 0.37166 0.0
O123 O 0.72575 0.96107 0.35064 0.0
O124 O 0.66583 0.99339 0.31405 0.0
C125 C 0.71508 0.96406 0.25953 0.0
O126 O 0.73886 0.97803 0.27594 0.0
C127 C 0.74278 0.04253 0.30898 0.0
O128 O 0.72898 0.0448 0.28219 0.0
O129 O 0.68852 0.96168 0.36338 0.0
C130 C 0.97777 0.68893 0.30282 0.0
O131 O 0.97996 0.67058 0.28318 0.0
O132 O 0.03787 0.68386 0.30564 0.0
Zn133 Zn 0.03713 0.71859 0.31095 0.0
O134 O 0.05797 0.73859 0.35698 0.0
C135 C 0.08133 0.75205 0.26365 0.0
O136 O 0.0937 0.74605 0.2885 0.0
O137 O 0.99897 0.71028 0.31577 0.0
C138 C 0.06952 0.76447 0.36264 0.0
O139 O 0.06755 0.77964 0.33756 0.0
C140 C 0.02332 0.66129 0.32253 0.0
O141 O 1.00465 0.65853 0.34594 0.0
O142 O 0.0561 0.74238 0.26716 0.0
C143 C 0.33033 0.29099 0.31423 0.0
O144 O 0.35036 0.30828 0.29283 0.0
O145 O 0.35603 0.3631 0.31072 0.0
Zn146 Zn 0.31654 0.33371 0.31836 0.0
O147 O 0.30107 0.34041 0.36485 0.0
C148 C 0.29676 0.35271 0.2603 0.0
O149 O 0.31559 0.37704 0.27348 0.0
O150 O 0.3136 0.29728 0.32614 0.0
C151 C 0.29325 0.35716 0.37058 0.0
O152 O 0.2963 0.37431 0.34463 0.0
C153 C 0.37001 0.38637 0.32743 0.0
O154 O 0.35858 0.39372 0.35283 0.0
O155 O 0.29396 0.33111 0.27427 0.0
C156 C 0.38516 0.0199 0.66367 0.0
O157 O 0.36763 1.00204 0.6393 0.0
O158 O 0.3147 1.00846 0.66314 0.0
Zn159 Zn 0.35057 0.04393 0.67014 0.0
O160 O 0.34994 0.06513 0.71454 0.0
C161 C 0.33986 0.07178 0.61496 0.0
O162 O 0.31756 0.06209 0.63445 0.0
O163 O 0.38135 0.03799 0.67836 0.0
C164 C 0.33022 0.06634 0.72745 0.0
O165 O 0.30636 0.0521 0.7113 0.0
C166 C 0.30709 0.98526 0.67716 0.0
O167 O 0.32341 0.98297 0.6996 0.0
O168 O 0.35761 0.06666 0.62497 0.0
C169 C 0.06589 0.34465 0.68245 0.0
O170 O 0.06334 0.36343 0.70028 0.0
O171 O 1.00356 0.3464 0.68273 0.0
Zn172 Zn 1.00619 0.31279 0.67541 0.0
O173 O 0.98666 0.29413 0.628 0.0
C174 C 0.96094 0.27477 0.71768 0.0
O175 O 0.9489 0.27961 0.69095 0.0
O176 O 0.04484 0.32242 0.67111 0.0
C177 C 0.97663 0.26871 0.62021 0.0
O178 O 0.97965 0.25327 0.64365 0.0
C179 C 1.01625 0.36908 0.66558 0.0
O180 O 0.03455 0.37315 0.64065 0.0
O181 O 0.98664 0.28698 0.71748 0.0
C182 C 0.70928 0.73548 0.6775 0.0
O183 O 0.69051 0.71743 0.69973 0.0
O184 O 0.6865 0.66317 0.67529 0.0
Zn185 Zn 0.72537 0.69464 0.66863 0.0
O186 O 0.7416 0.68973 0.62168 0.0
C187 C 0.74673 0.67701 0.72663 0.0
O188 O 0.72858 0.6523 0.71372 0.0
O189 O 0.72606 0.73021 0.66282 0.0
C190 C 0.75175 0.67494 0.61664 0.0
O191 O 0.75139 0.65972 0.64361 0.0
C192 C 0.67582 0.63819 0.66425 0.0
O193 O 0.6906 0.63061 0.64619 0.0
O194 O 0.74848 0.69807 0.71245 0.0
C195 C 0.31007 0.33192 0.66477 0.0
O196 O 0.32552 0.35103 0.68951 0.0
O197 O 0.38291 0.36246 0.6655 0.0
Zn198 Zn 0.3546 0.32199 0.65903 0.0
O199 O 0.36314 0.30613 0.61456 0.0
C200 C 0.3693 0.29382 0.71117 0.0
O201 O 0.38849 0.2995 0.68693 0.0
O202 O 0.31829 0.31735 0.64961 0.0
C203 C 0.351 0.28007 0.61085 0.0
O204 O 0.33384 0.26449 0.63656 0.0
C205 C 0.40701 0.37409 0.6532 0.0
O206 O 0.41462 0.3593 0.63463 0.0
O207 O 0.35286 0.30159 0.7051 0.0
C208 C 0.63844 0.02306 0.63445 0.0
O209 O 0.63789 1.00157 0.61964 0.0
O210 O 0.68889 1.00757 0.63655 0.0
Zn211 Zn 0.69663 0.04645 0.63992 0.0
O212 O 0.71667 0.06536 0.68737 0.0
C213 C 0.74289 0.07371 0.59271 0.0
O214 O 0.75253 0.06491 0.61797 0.0
O215 O 0.66117 0.04459 0.64274 0.0
C216 C 0.73606 0.09045 0.68975 0.0
O217 O 0.74455 0.10564 0.66004 0.0
C218 C 0.70163 0.9983 0.65297 0.0
O219 O 0.72234 0.01489 0.67448 0.0
O220 O 0.71865 0.06796 0.59569 0.0
C221 C 0.97289 0.60952 0.65833 0.0
O222 O 0.94783 0.60372 0.65972 0.0
O223 O 0.02514 0.69947 0.63649 0.0
Zn224 Zn 0.98752 0.66647 0.64508 0.0
O225 O 0.9708 0.67054 0.69219 0.0
C226 C 0.96479 0.68173 0.58712 0.0
O227 O 0.98313 0.70654 0.59954 0.0
O228 O 0.9919 0.63399 0.6512 0.0
C229 C 0.96148 0.68607 0.69723 0.0
O230 O 0.96331 0.70226 0.67061 0.0
C231 C 0.03756 0.72284 0.65323 0.0
O232 O 0.02538 0.72819 0.67991 0.0
O233 O 0.9632 0.66082 0.60157 0.0
H234 H 0.25756 0.3418 0.1013 0.0
H235 H 0.195 0.34568 0.04643 0.0
H236 H 0.20344 0.35405 0.16661 0.0
H237 H 0.16223 0.34077 0.16885 0.0
H238 H 0.10508 0.35555 0.11945 0.0
H239 H 0.16758 0.35971 0.05168 0.0
C240 C 0.23977 0.34332 0.10295 0.0
C241 C 0.23072 0.34645 0.13747 0.0
C242 C 0.22746 0.34416 0.07041 0.0
C243 C 0.20445 0.34613 0.07228 0.0
C244 C 0.19425 0.34869 0.10706 0.0
C245 C 0.20872 0.35006 0.13945 0.0
C246 C 0.16911 0.35025 0.10988 0.0
C247 C 0.15562 0.34609 0.14438 0.0
C248 C 0.13339 0.3492 0.14824 0.0
C249 C 0.12303 0.35435 0.11694 0.0
C250 C 0.1351 0.3577 0.08229 0.0
C251 C 0.15823 0.356 0.07867 0.0
H252 H 0.68766 0.92043 0.09489 0.0
H253 H 0.66998 0.84391 0.04487 0.0
H254 H 0.704 0.86745 0.1558 0.0
H255 H 0.67624 0.82269 0.16476 0.0
H256 H 0.67217 0.75145 0.11767 0.0
H257 H 0.68996 0.81836 0.04689 0.0
C258 C 0.68784 0.90159 0.09638 0.0
C259 C 0.69631 0.89564 0.12899 0.0
C260 C 0.67899 0.88334 0.06588 0.0
C261 C 0.67825 0.85846 0.06803 0.0
C262 C 0.68694 0.85206 0.10072 0.0
C263 C 0.69686 0.87148 0.13056 0.0
C264 C 0.68375 0.82448 0.10513 0.0
C265 C 0.67823 0.81237 0.14055 0.0
C266 C 0.67426 0.78622 0.14499 0.0
C267 C 0.67511 0.77168 0.11408 0.0
C268 C 0.68044 0.783 0.07877 0.0
C269 C 0.68527 0.80959 0.07427 0.0
H270 H 0.27874 0.94592 0.11412 0.0
H271 H 0.21701 0.88123 0.04637 0.0
H272 H 0.2051 0.88622 0.16508 0.0
H273 H 0.17426 0.84544 0.16281 0.0
H274 H 0.10732 0.78428 0.09919 0.0
H275 H 0.17516 0.84932 0.04237 0.0
C276 C 0.25862 0.92747 0.11174 0.0
C277 C 0.24316 0.91625 0.14349 0.0
C278 C 0.24899 0.91507 0.07695 0.0
C279 C 0.22318 0.89084 0.07356 0.0
C280 C 0.20639 0.87924 0.10528 0.0
C281 C 0.21678 0.89319 0.13998 0.0
C282 C 0.17879 0.85259 0.103 0.0
C283 C 0.16514 0.8385 0.13578 0.0
C284 C 0.13913 0.81461 0.13463 0.0
C285 C 0.12689 0.80351 0.10038 0.0
C286 C 0.14027 0.81567 0.06743 0.0
C287 C 0.16584 0.84033 0.06853 0.0
H288 H 0.35795 0.10824 0.89037 0.0
H289 H 0.37626 0.18366 0.94481 0.0
H290 H 0.34118 0.16245 0.83414 0.0
H291 H 0.36581 0.20697 0.82676 0.0
H292 H 0.36169 0.27249 0.87877 0.0
H293 H 0.35728 0.20952 0.94628 0.0
C294 C 0.35791 0.12721 0.89026 0.0
C295 C 0.34938 0.13402 0.85857 0.0
C296 C 0.36705 0.14469 0.92149 0.0
C297 C 0.36792 0.16975 0.92102 0.0
C298 C 0.35894 0.17695 0.88923 0.0
C299 C 0.34881 0.15816 0.85864 0.0
C300 C 0.3608 0.20412 0.88687 0.0
C301 C 0.36351 0.21623 0.85188 0.0
C302 C 0.36286 0.24028 0.84871 0.0
C303 C 0.36125 0.25335 0.88088 0.0
C304 C 0.35983 0.24264 0.91589 0.0
C305 C 0.35937 0.21797 0.91901 0.0
H306 H 0.75579 0.09317 0.85897 0.0
H307 H 0.82295 0.14687 0.92994 0.0
H308 H 0.8216 0.16884 0.81643 0.0
H309 H 0.86482 0.18019 0.81891 0.0
H310 H 0.92858 0.2489 0.87942 0.0
H311 H 0.85305 0.19499 0.93381 0.0
C312 C 0.77515 0.1123 0.86285 0.0
C313 C 0.78736 0.13005 0.83307 0.0
C314 C 0.78737 0.1187 0.89794 0.0
C315 C 0.81315 0.14268 0.90311 0.0
C316 C 0.82647 0.16039 0.8731 0.0
C317 C 0.81263 0.15444 0.83886 0.0
C318 C 0.85512 0.18435 0.87611 0.0
C319 C 0.87205 0.19214 0.84457 0.0
C320 C 0.89832 0.21561 0.84533 0.0
C321 C 0.90854 0.23028 0.87877 0.0
C322 C 0.89258 0.22263 0.91085 0.0
C323 C 0.86566 0.19998 0.90939 0.0
H324 H 0.78784 0.69186 0.88516 0.0
H325 H 0.85025 0.68775 0.94014 0.0
H326 H 0.8419 0.67951 0.81999 0.0
H327 H 0.88278 0.6921 0.8173 0.0
H328 H 0.93968 0.6769 0.86647 0.0
H329 H 0.87839 0.67471 0.93494 0.0
C330 C 0.80575 0.69053 0.88355 0.0
C331 C 0.81472 0.68722 0.84908 0.0
C332 C 0.81797 0.68961 0.91612 0.0
C333 C 0.84098 0.68758 0.91427 0.0
C334 C 0.85125 0.6851 0.87947 0.0
C335 C 0.83674 0.68367 0.84712 0.0
C336 C 0.87631 0.68334 0.87652 0.0
C337 C 0.88945 0.6869 0.84182 0.0
C338 C 0.91143 0.68338 0.8378 0.0
C339 C 0.92192 0.67841 0.86912 0.0
C340 C 0.91027 0.67575 0.90397 0.0
C341 C 0.88739 0.67789 0.90776 0.0
H342 H 0.92239 0.66546 0.42874 0.0
H343 H 0.8619 0.673 0.3739 0.0
H344 H 0.87075 0.68165 0.49383 0.0
H345 H 0.82927 0.66846 0.49563 0.0
H346 H 0.77596 0.68912 0.44716 0.0
H347 H 0.83751 0.6909 0.3797 0.0
C348 C 0.90504 0.66774 0.43038 0.0
C349 C 0.89668 0.67191 0.46489 0.0
C350 C 0.89316 0.66926 0.39779 0.0
C351 C 0.87104 0.67276 0.3997 0.0
C352 C 0.8614 0.67612 0.43445 0.0
C353 C 0.87555 0.67687 0.4668 0.0
C354 C 0.83732 0.67942 0.43732 0.0
C355 C 0.82355 0.67513 0.47158 0.0
C356 C 0.80229 0.67977 0.47568 0.0
C357 C 0.79321 0.68675 0.44466 0.0
C358 C 0.80562 0.69031 0.41019 0.0
C359 C 0.82779 0.687 0.40646 0.0
H360 H 0.34523 0.25349 0.44322 0.0
H361 H 0.34033 0.18585 0.38163 0.0
H362 H 0.36662 0.20179 0.4965 0.0
H363 H 0.34371 0.15737 0.49957 0.0
H364 H 0.35806 0.09845 0.44861 0.0
H365 H 0.36035 0.16081 0.38161 0.0
C366 C 0.348 0.23616 0.44199 0.0
C367 C 0.35558 0.22854 0.47393 0.0
C368 C 0.34325 0.2213 0.40855 0.0
C369 C 0.34531 0.19784 0.40723 0.0
C370 C 0.35277 0.18962 0.43942 0.0
C371 C 0.35911 0.2062 0.47197 0.0
C372 C 0.35311 0.16353 0.44057 0.0
C373 C 0.34899 0.1502 0.47484 0.0
C374 C 0.35195 0.12762 0.47804 0.0
C375 C 0.35706 0.11678 0.44635 0.0
C376 C 0.35941 0.12818 0.41153 0.0
C377 C 0.35769 0.15173 0.40855 0.0
H378 H 0.95196 0.26 0.45304 0.0
H379 H 0.88436 0.20411 0.38416 0.0
H380 H 0.88596 0.18728 0.5006 0.0
H381 H 0.84213 0.16891 0.4962 0.0
H382 H 0.78128 0.09983 0.43292 0.0
H383 H 0.85629 0.15754 0.38067 0.0
C384 C 0.93218 0.24117 0.45003 0.0
C385 C 0.9198 0.22493 0.48093 0.0
C386 C 0.91971 0.23354 0.41521 0.0
C387 C 0.89415 0.20917 0.41105 0.0
C388 C 0.88114 0.19218 0.44194 0.0
C389 C 0.89481 0.20006 0.47658 0.0
C390 C 0.85318 0.16687 0.43879 0.0
C391 C 0.83591 0.15747 0.47011 0.0
C392 C 0.81019 0.13321 0.46827 0.0
C393 C 0.80102 0.11883 0.43449 0.0
C394 C 0.81743 0.12781 0.40298 0.0
C395 C 0.84353 0.1516 0.40503 0.0
H396 H 0.02176 0.44314 0.21249 0.0
H397 H 0.03722 0.51642 0.2701 0.0
H398 H 1.00915 0.50032 0.15597 0.0
H399 H 0.03477 0.54471 0.15142 0.0
H400 H 0.03385 0.6117 0.2043 0.0
H401 H 1.02077 0.54423 0.27003 0.0
C402 C 0.02152 0.46198 0.2127 0.0
C403 C 1.01529 0.47038 0.18024 0.0
C404 C 0.02869 0.47818 0.24519 0.0
C405 C 0.03024 0.50356 0.24521 0.0
C406 C 0.02382 0.51247 0.21272 0.0
C407 C 1.01541 0.49495 0.18086 0.0
C408 C 0.0269 0.54024 0.21096 0.0
C409 C 0.03206 0.55368 0.17651 0.0
C410 C 0.03346 0.57881 0.17379 0.0
C411 C 0.03187 0.59178 0.20603 0.0
C412 C 0.02811 0.57976 0.24063 0.0
C413 C 0.02482 0.55368 0.24315 0.0
H414 H 0.42887 0.43413 0.20589 0.0
H415 H 0.49719 0.48899 0.27446 0.0
H416 H 0.49623 0.50612 0.15846 0.0
H417 H 0.53859 0.51621 0.1613 0.0
H418 H 0.60398 0.58707 0.21612 0.0
H419 H 0.52968 0.53629 0.27491 0.0
C420 C 0.44864 0.45292 0.20869 0.0
C421 C 0.46135 0.46892 0.1776 0.0
C422 C 0.461 0.46059 0.2437 0.0
C423 C 0.48735 0.48397 0.24759 0.0
C424 C 0.50105 0.49996 0.21629 0.0
C425 C 0.48705 0.49293 0.18205 0.0
C426 C 0.53013 0.52323 0.21793 0.0
C427 C 0.54643 0.52929 0.18594 0.0
C428 C 0.57275 0.55259 0.18472 0.0
C429 C 0.58389 0.56857 0.21701 0.0
C430 C 0.56882 0.56234 0.24986 0.0
C431 C 0.54167 0.54006 0.25009 0.0
H432 H 0.45858 0.02446 0.21532 0.0
H433 H 0.51569 1.01291 0.273 0.0
H434 H 0.53335 0.04659 0.1626 0.0
H435 H 0.54977 0.0204 0.15508 0.0
H436 H 0.61738 0.02328 0.20525 0.0
H437 H 0.56092 0.03034 0.27434 0.0
C438 C 0.47826 0.02668 0.21605 0.0
C439 C 0.49483 0.03568 0.18471 0.0
C440 C 0.48618 0.01941 0.24814 0.0
C441 C 0.51071 0.02015 0.24871 0.0
C442 C 0.52782 0.029 0.21726 0.0
C443 C 0.52007 0.03808 0.18627 0.0
C444 C 0.55265 0.02718 0.21493 0.0
C445 C 0.56151 0.0235 0.17982 0.0
C446 C 0.58503 0.02267 0.17596 0.0
C447 C 0.59924 0.02411 0.20777 0.0
C448 C 0.59018 0.02607 0.24307 0.0
C449 C 0.56722 0.02813 0.24682 0.0
H450 H 0.59357 0.01595 0.76491 0.0
H451 H 0.52195 1.00196 0.71203 0.0
H452 H 0.52895 1.00665 0.83251 0.0
H453 H 0.48676 0.98862 0.83418 0.0
H454 H 0.42347 0.99431 0.78571 0.0
H455 H 0.49147 1.01189 0.719 0.0
C456 C 0.57345 1.01265 0.76723 0.0
C457 C 0.56214 1.01051 0.80216 0.0
C458 C 0.55908 1.0101 0.7351 0.0
C459 C 0.53273 1.00489 0.73763 0.0
C460 C 0.52092 1.00367 0.77272 0.0
C461 C 0.53626 1.00659 0.80492 0.0
C462 C 0.49323 0.99999 0.77575 0.0
C463 C 0.47898 0.99282 0.80986 0.0
C464 C 0.45425 0.99134 0.81366 0.0
C465 C 0.4424 0.99502 0.78274 0.0
C466 C 0.45566 1.00183 0.74864 0.0
C467 C 0.48115 1.00487 0.74521 0.0
H468 H 1.01316 0.58457 0.77602 0.0
H469 H 0.99202 0.50891 0.71957 0.0
H470 H 0.0265 0.52709 0.83027 0.0
H471 H 0.99924 0.48255 0.83639 0.0
H472 H 1.00065 0.41584 0.78341 0.0
H473 H 1.01078 0.48209 0.7173 0.0
C474 C 1.01283 0.56542 0.77547 0.0
C475 C 1.02024 0.5573 0.80714 0.0
C476 C 1.00329 0.54836 0.74371 0.0
C477 C 1.00069 0.52246 0.74367 0.0
C478 C 1.0088 0.5141 0.77506 0.0
C479 C 1.01927 0.53229 0.80618 0.0
C480 C 1.00561 0.48631 0.77657 0.0
C481 C 1.00142 0.47331 0.81116 0.0
C482 C 1.00072 0.44855 0.81385 0.0
C483 C 1.00188 0.43539 0.78153 0.0
C484 C 1.00473 0.44697 0.74678 0.0
C485 C 1.00733 0.47277 0.74422 0.0
H486 H 0.61065 0.60152 0.78426 0.0
H487 H 0.55388 0.53052 0.71985 0.0
H488 H 0.5408 0.53758 0.8377 0.0
H489 H 0.51252 0.49517 0.8366 0.0
H490 H 0.44388 0.43498 0.77456 0.0
H491 H 0.51152 0.49912 0.71618 0.0
C492 C 0.59162 0.58175 0.78243 0.0
C493 C 0.57674 0.57024 0.81448 0.0
C494 C 0.58308 0.56768 0.74835 0.0
C495 C 0.55926 0.54129 0.74637 0.0
C496 C 0.54291 0.5295 0.77838 0.0
C497 C 0.55228 0.54473 0.81238 0.0
C498 C 0.51607 0.50213 0.7767 0.0
C499 C 0.50292 0.48817 0.80978 0.0
C500 C 0.47656 0.46485 0.80904 0.0
C501 C 0.46383 0.45378 0.7751 0.0
C502 C 0.47678 0.46565 0.74182 0.0
C503 C 0.50263 0.48995 0.74245 0.0
H504 H 0.68091 0.7671 0.56168 0.0
H505 H 0.70246 0.84468 0.61242 0.0
H506 H 0.67089 0.82404 0.50009 0.0
H507 H 0.69702 0.86798 0.49242 0.0
H508 H 0.69166 0.93422 0.53864 0.0
H509 H 0.68475 0.87216 0.61076 0.0
C510 C 0.68234 0.78676 0.55999 0.0
C511 C 0.67599 0.79415 0.52676 0.0
C512 C 0.69156 0.80469 0.59084 0.0
C513 C 0.69417 0.83054 0.58884 0.0
C514 C 0.6868 0.83813 0.55592 0.0
C515 C 0.67701 0.81916 0.5255 0.0
C516 C 0.68984 0.86578 0.55212 0.0
C517 C 0.69393 0.87753 0.51659 0.0
C518 C 0.69346 0.90147 0.51148 0.0
C519 C 0.69104 0.91511 0.54234 0.0
C520 C 0.6886 0.90503 0.57805 0.0
C521 C 0.68773 0.88025 0.58309 0.0
H522 H 0.0919 0.77712 0.53044 0.0
H523 H 0.16061 0.83049 0.59871 0.0
H524 H 0.16027 0.84687 0.4816 0.0
H525 H 0.20326 0.86676 0.48495 0.0
H526 H 0.26825 0.92934 0.55077 0.0
H527 H 0.19235 0.87464 0.60302 0.0
C528 C 0.11214 0.79533 0.53323 0.0
C529 C 0.12536 0.81065 0.50198 0.0
C530 C 0.1246 0.8028 0.56801 0.0
C531 C 0.15094 0.82604 0.57181 0.0
C532 C 0.16474 0.84245 0.54068 0.0
C533 C 0.15104 0.83476 0.50601 0.0
C534 C 0.19355 0.86661 0.54375 0.0
C535 C 0.21038 0.87647 0.51196 0.0
C536 C 0.23702 0.89925 0.51438 0.0
C537 C 0.24772 0.91147 0.5489 0.0
C538 C 0.23171 0.90228 0.58074 0.0
C539 C 0.20461 0.88034 0.57822 0.0
H540 H 0.12081 0.36721 0.55599 0.0
H541 H 0.18139 0.35991 0.61099 0.0
H542 H 0.17206 0.35023 0.49117 0.0
H543 H 0.21389 0.36376 0.48949 0.0
H544 H 0.266 0.34164 0.53842 0.0
H545 H 0.2045 0.34053 0.60519 0.0
C546 C 0.13808 0.36479 0.55442 0.0
C547 C 0.14626 0.36027 0.51999 0.0
C548 C 0.15009 0.36356 0.58706 0.0
C549 C 0.1721 0.3599 0.58519 0.0
C550 C 0.18151 0.35612 0.55048 0.0
C551 C 0.16732 0.3552 0.51813 0.0
C552 C 0.20536 0.35249 0.54769 0.0
C553 C 0.21931 0.35679 0.51356 0.0
C554 C 0.24032 0.35175 0.50969 0.0
C555 C 0.24892 0.34431 0.54076 0.0
C556 C 0.23632 0.34074 0.57508 0.0
C557 C 0.21443 0.34448 0.57857 0.0
C558 C 0.02617 0.45506 0.08139 0.0
C559 C 1.01233 0.42611 0.08077 0.0
H560 H 0.03779 0.49169 0.11328 0.0
C561 C 0.997 0.41165 0.11185 0.0
H562 H 0.03801 0.46681 0.05779 0.0
C563 C 0.99676 0.42597 0.14367 0.0
C564 C 1.01171 0.45498 0.1449 0.0
H565 H 0.98594 0.38932 0.11212 0.0
H566 H 0.98548 0.41437 0.16768 0.0
C567 C 0.02583 0.46934 0.11309 0.0
C568 C 0.58736 0.57552 0.08515 0.0
C569 C 0.61578 0.58949 0.08398 0.0
H570 H 0.55157 0.55298 0.11777 0.0
C571 C 0.62976 0.58851 0.1149 0.0
H572 H 0.57592 0.57569 0.06173 0.0
C573 C 0.61568 0.57511 0.14704 0.0
C574 C 0.58736 0.56245 0.1489 0.0
H575 H 0.65164 0.59883 0.11473 0.0
H576 H 0.62704 0.57536 0.17083 0.0
C577 C 0.57332 0.5622 0.11722 0.0
C578 C 0.45463 0.05018 0.11654 0.0
C579 C 0.45789 0.03879 0.08344 0.0
H580 H 0.46448 0.05906 0.17431 0.0
C581 C 0.4755 0.02898 0.0832 0.0
H582 H 0.44144 0.05819 0.11755 0.0
C583 C 0.48847 0.02923 0.11571 0.0
C584 C 0.48433 0.03947 0.14927 0.0
H585 H 0.47855 0.02014 0.05816 0.0
H586 H 0.50072 0.02013 0.11482 0.0
C587 C 0.46779 0.0506 0.14908 0.0
C588 C 0.44582 0.01371 0.90907 0.0
C589 C 0.41789 0.99581 0.91491 0.0
H590 H 0.47937 0.02561 0.87262 0.0
C591 C 0.40265 0.97411 0.8893 0.0
H592 H 0.4581 0.03043 0.92858 0.0
C593 C 0.41481 0.97149 0.85717 0.0
C594 C 0.4425 0.99015 0.8506 0.0
H595 H 0.3811 0.95996 0.89319 0.0
H596 H 0.40242 0.95556 0.83675 0.0
C597 C 0.45806 1.01075 0.87734 0.0
C598 C 0.97945 0.4198 0.91061 0.0
C599 C 0.99682 0.41014 0.91692 0.0
H600 H 0.96709 0.43971 0.87292 0.0
C601 C 1.01617 0.41446 0.88993 0.0
H602 H 0.96442 0.41691 0.93098 0.0
C603 C 1.0177 0.42751 0.857 0.0
C604 C 0.99993 0.43656 0.85021 0.0
H605 H 0.03001 0.40751 0.894 0.0
H606 H 0.03274 0.43038 0.83663 0.0
C607 C 0.98106 0.43299 0.87754 0.0
C608 C 0.6108 0.58695 0.90797 0.0
C609 C 0.61924 0.61485 0.91286 0.0
H610 H 0.58981 0.55063 0.87311 0.0
C611 C 0.61104 0.62707 0.88704 0.0
H612 H 0.61659 0.57694 0.92768 0.0
C613 C 0.59592 0.61208 0.85582 0.0
C614 C 0.58827 0.58448 0.85037 0.0
H615 H 0.61717 0.64851 0.89018 0.0
H616 H 0.59089 0.62225 0.83531 0.0
C617 C 0.59524 0.57181 0.87709 0.0
C618 C 0.04271 0.6175 0.87458 0.0
C619 C 0.02844 0.60382 0.9067 0.0
H620 H 0.0517 0.61346 0.81784 0.0
C621 C 1.01407 0.57486 0.90693 0.0
H622 H 0.05412 0.63982 0.87361 0.0
C623 C 1.0128 0.55983 0.87513 0.0
C624 C 0.02577 0.57343 0.84234 0.0
H625 H 1.00304 0.56369 0.93133 0.0
H626 H 1.00044 0.53751 0.87569 0.0
C627 C 0.0413 0.60244 0.84264 0.0
C628 C 0.45658 0.42697 0.8999 0.0
C629 C 0.42991 0.42092 0.90421 0.0
H630 H 0.49257 0.44613 0.86647 0.0
C631 C 0.41958 0.43105 0.87836 0.0
H632 H 0.46519 0.41962 0.91955 0.0
C633 C 0.43522 0.44613 0.84822 0.0
C634 C 0.46159 0.4516 0.8434 0.0
H635 H 0.3992 0.42692 0.88097 0.0
H636 H 0.42653 0.4532 0.82823 0.0
C637 C 0.47236 0.44233 0.86981 0.0
C638 C 0.62082 0.03366 0.86811 0.0
C639 C 0.61043 1.01126 0.89215 0.0
H640 H 0.6135 0.05103 0.821 0.0
C641 C 0.58318 0.98964 0.88828 0.0
H642 H 0.64167 0.05071 0.87042 0.0
C643 C 0.5669 0.99011 0.86026 0.0
C644 C 0.57772 1.012 0.83537 0.0
H645 H 0.57452 0.97222 0.90659 0.0
H646 H 0.54622 0.97284 0.85706 0.0
C647 C 0.6047 0.03393 0.83989 0.0
C648 C 0.61431 1.00031 0.09859 0.0
C649 C 0.61393 0.0153 0.06848 0.0
H650 H 0.6049 0.99034 0.15573 0.0
C651 C 0.60366 0.03249 0.0738 0.0
H652 H 0.62188 0.98669 0.09538 0.0
C653 C 0.59411 0.03476 0.1086 0.0
C654 C 0.59457 0.01983 0.13874 0.0
H655 H 0.60309 0.04431 0.05116 0.0
H656 H 0.58673 0.04853 0.11203 0.0
C657 C 0.60467 1.00249 0.13327 0.0
C658 C 0.05916 0.60919 0.07865 0.0
C659 C 0.04301 0.6201 0.07116 0.0
H660 H 0.06878 0.5874 0.11707 0.0
C661 C 0.02297 0.61608 0.09678 0.0
H662 H 0.07469 0.61181 0.05936 0.0
C663 C 1.01957 0.60209 0.12953 0.0
C664 C 0.0361 0.59174 0.1375 0.0
H665 H 1.01002 0.62398 0.09178 0.0
H666 H 1.00404 0.59949 0.14884 0.0
C667 C 0.05568 0.59505 0.11152 0.0
C668 C 0.40756 0.43307 0.10242 0.0
C669 C 0.42339 0.43698 0.0709 0.0
H670 H 0.40698 0.44155 0.16023 0.0
C671 C 0.45172 0.45293 0.07393 0.0
H672 H 0.38564 0.42122 0.10057 0.0
C673 C 0.46406 0.4638 0.10837 0.0
C674 C 0.44829 0.45954 0.14033 0.0
H675 H 0.46434 0.45616 0.04993 0.0
H676 H 0.48594 0.47472 0.11002 0.0
C677 C 0.41986 0.44462 0.13664 0.0
C678 C 0.6849 0.7516 0.45283 0.0
C679 C 0.66651 0.74849 0.42531 0.0
H680 H 0.70269 0.76888 0.50557 0.0
C681 C 0.65 0.75924 0.43207 0.0
H682 H 0.69804 0.74372 0.44852 0.0
C683 C 0.65235 0.77341 0.46543 0.0
C684 C 0.67133 0.77716 0.49252 0.0
H685 H 0.63556 0.75707 0.41142 0.0
H686 H 0.63947 0.78158 0.46986 0.0
C687 C 0.6874 0.76589 0.48582 0.0
C688 C 0.29536 0.9339 0.44683 0.0
C689 C 0.28634 0.94675 0.4234 0.0
H690 H 0.28662 0.90868 0.49459 0.0
C691 C 0.26011 0.94168 0.42811 0.0
H692 H 0.31549 0.93746 0.44373 0.0
C693 C 0.2434 0.92461 0.45629 0.0
C694 C 0.25285 0.9128 0.48077 0.0
H695 H 0.25255 0.9511 0.41017 0.0
H696 H 0.22355 0.92168 0.46008 0.0
C697 C 0.27887 0.91738 0.4757 0.0
C698 C 0.11142 0.3787 0.44885 0.0
C699 C 0.097 0.35402 0.42788 0.0
H700 H 0.13837 0.3999 0.4947 0.0
C701 C 0.10034 0.33205 0.43595 0.0
H702 H 0.10928 0.39598 0.44323 0.0
C703 C 0.11743 0.33455 0.46482 0.0
C704 C 0.13109 0.35888 0.4865 0.0
H705 H 0.08965 0.31286 0.42005 0.0
H706 H 0.11922 0.31714 0.47107 0.0
C707 C 0.12808 0.38099 0.47816 0.0
C708 C 0.10192 0.367 0.22731 0.0
C709 C 0.09617 0.34656 0.25308 0.0
H710 H 0.11888 0.38428 0.17485 0.0
C711 C 0.10355 0.32725 0.24479 0.0
H712 H 0.09687 0.38244 0.233 0.0
C713 C 0.116 0.32813 0.21095 0.0
C714 C 0.12133 0.3484 0.18501 0.0
H715 H 0.09943 0.31129 0.2642 0.0
H716 H 0.12092 0.31266 0.20479 0.0
C717 C 0.11448 0.36801 0.19387 0.0
C718 C 0.64495 0.73322 0.21982 0.0
C719 C 0.66648 0.74432 0.24541 0.0
H720 H 0.6306 0.73812 0.16778 0.0
C721 C 0.68919 0.77095 0.23981 0.0
H722 H 0.62715 0.71282 0.22338 0.0
C723 C 0.69085 0.78563 0.2083 0.0
C724 C 0.66999 0.77375 0.18178 0.0
H725 H 0.70599 0.78013 0.25923 0.0
H726 H 0.70904 0.80557 0.20364 0.0
C727 C 0.64681 0.74771 0.18812 0.0
C728 C 0.25445 0.9427 0.24354 0.0
C729 C 0.2812 0.94959 0.24965 0.0
H730 H 0.22139 0.92704 0.20489 0.0
C731 C 0.29495 0.94509 0.22095 0.0
H732 H 0.24333 0.94594 0.26518 0.0
C733 C 0.28237 0.9341 0.18686 0.0
C734 C 0.2558 0.92756 0.18038 0.0
H735 H 0.31545 0.94989 0.22481 0.0
H736 H 0.29346 0.93049 0.16555 0.0
C737 C 0.24184 0.93178 0.20914 0.0
C738 C 0.72999 0.94011 0.21518 0.0
C739 C 0.71095 0.94698 0.2259 0.0
H740 H 0.74018 0.9181 0.17603 0.0
C741 C 0.68736 0.93689 0.20453 0.0
H742 H 0.74831 0.94749 0.23125 0.0
C743 C 0.68289 0.92039 0.1731 0.0
C744 C 0.70178 0.91339 0.1624 0.0
H745 H 0.67228 0.94177 0.21201 0.0
H746 H 0.66439 0.91278 0.15734 0.0
C747 C 0.72533 0.92323 0.18379 0.0
C748 C 0.12432 0.77971 0.22766 0.0
C749 C 0.09647 0.7693 0.23168 0.0
H750 H 0.15964 0.80213 0.19377 0.0
C751 C 0.08315 0.77508 0.20448 0.0
H752 H 0.1352 0.77566 0.24817 0.0
C753 C 0.0972 0.79037 0.1735 0.0
C754 C 0.12489 0.80025 0.16904 0.0
H755 H 0.06176 0.76751 0.20683 0.0
H756 H 0.08634 0.79431 0.15281 0.0
C757 C 0.13839 0.79506 0.19666 0.0
C758 C 0.27552 0.37277 0.2228 0.0
C759 C 0.27868 0.35055 0.23007 0.0
H760 H 0.25716 0.38854 0.18814 0.0
C761 C 0.26451 0.32636 0.20808 0.0
H762 H 0.28601 0.39159 0.23948 0.0
C763 C 0.24829 0.3248 0.17859 0.0
C764 C 0.24546 0.34714 0.17108 0.0
H765 H 0.26652 0.30892 0.21303 0.0
H766 H 0.23822 0.30627 0.16127 0.0
C767 C 0.25885 0.37097 0.19374 0.0
C768 C 0.27337 0.37621 0.41519 0.0
C769 C 0.2795 0.3561 0.40578 0.0
H770 H 0.25638 0.39087 0.4557 0.0
C771 C 0.27186 0.33434 0.43011 0.0
H772 H 0.27894 0.39319 0.39691 0.0
C773 C 0.25866 0.3328 0.4632 0.0
C774 C 0.25304 0.35316 0.47319 0.0
H775 H 0.2759 0.31827 0.42353 0.0
H776 H 0.25281 0.31552 0.48105 0.0
C777 C 0.26029 0.37479 0.44868 0.0
C778 C 0.71803 0.92942 0.41515 0.0
C779 C 0.70041 0.93825 0.40591 0.0
H780 H 0.7296 0.91068 0.45587 0.0
C781 C 0.67944 0.93308 0.43049 0.0
H782 H 0.73432 0.93298 0.3967 0.0
C783 C 0.67679 0.92036 0.46419 0.0
C784 C 0.69497 0.91242 0.47404 0.0
H785 H 0.66541 0.93943 0.42416 0.0
H786 H 0.6607 0.91708 0.48289 0.0
C787 C 0.71527 0.91652 0.44889 0.0
C788 C 0.09683 0.8054 0.40561 0.0
C789 C 0.08498 0.77709 0.39733 0.0
H790 H 0.11904 0.83841 0.44548 0.0
C791 C 0.0878 0.76056 0.42281 0.0
H792 H 0.09511 0.81869 0.3864 0.0
C793 C 0.10151 0.77182 0.45616 0.0
C794 C 0.11265 0.79987 0.46506 0.0
H795 H 0.07924 0.73877 0.41719 0.0
H796 H 0.10323 0.75845 0.47524 0.0
C797 C 0.11063 0.81673 0.43924 0.0
C798 C 0.31514 0.08984 0.77245 0.0
C799 C 0.33458 0.08379 0.7607 0.0
H800 H 0.3047 0.11096 0.81284 0.0
C801 C 0.3588 0.09483 0.7809 0.0
H802 H 0.29635 0.08173 0.75725 0.0
C803 C 0.36342 0.11125 0.81238 0.0
C804 C 0.34401 0.11716 0.82437 0.0
H805 H 0.37425 0.09067 0.77262 0.0
H806 H 0.38231 0.11944 0.82739 0.0
C807 C 0.31993 0.10662 0.804 0.0
C808 C 0.95752 0.25373 0.77942 0.0
C809 C 0.9448 0.25675 0.74857 0.0
H810 H 0.95269 0.23771 0.83404 0.0
C811 C 0.91642 0.24346 0.74825 0.0
H812 H 0.97933 0.2635 0.78038 0.0
C813 C 0.90119 0.22871 0.77891 0.0
C814 C 0.91402 0.22694 0.81061 0.0
H815 H 0.90595 0.24519 0.7248 0.0
H816 H 0.87951 0.21994 0.77849 0.0
C817 C 0.94227 0.23898 0.81016 0.0
C818 C 0.77886 0.70469 0.77832 0.0
C819 C 0.76533 0.68025 0.75672 0.0
H820 H 0.80515 0.72592 0.82476 0.0
C821 C 0.76961 0.65882 0.76425 0.0
H822 H 0.77598 0.72155 0.77315 0.0
C823 C 0.78675 0.6616 0.79323 0.0
C824 C 0.79951 0.68565 0.81553 0.0
H825 H 0.75962 0.63983 0.74786 0.0
H826 H 0.78929 0.64459 0.79905 0.0
C827 C 0.79557 0.70723 0.80773 0.0
C828 C 0.77169 0.65633 0.57162 0.0
C829 C 0.76484 0.6759 0.58093 0.0
H830 H 0.78848 0.6418 0.53071 0.0
C831 C 0.77094 0.69688 0.55592 0.0
H832 H 0.76722 0.63992 0.59041 0.0
C833 C 0.78349 0.69824 0.52227 0.0
C834 C 0.78989 0.67841 0.51243 0.0
H835 H 0.76629 0.71251 0.56244 0.0
H836 H 0.78831 0.71502 0.50398 0.0
C837 C 0.78401 0.65751 0.53758 0.0
C838 C 0.36601 0.0951 0.55782 0.0
C839 C 0.34371 0.08748 0.58105 0.0
H840 H 0.38613 0.11401 0.50719 0.0
C841 C 0.32476 0.09439 0.57106 0.0
H842 H 0.38103 0.0902 0.56479 0.0
C843 C 0.32774 0.1081 0.53806 0.0
C844 C 0.34962 0.11497 0.51437 0.0
H845 H 0.30741 0.08889 0.58846 0.0
H846 H 0.31253 0.1126 0.53055 0.0
C847 C 0.36889 0.10864 0.52479 0.0
C848 C 0.95013 0.22884 0.57545 0.0
C849 C 0.96119 0.25678 0.58534 0.0
H850 H 0.9282 0.19668 0.53442 0.0
C851 C 0.95733 0.27351 0.56152 0.0
H852 H 0.95263 0.21539 0.59335 0.0
C853 C 0.94331 0.2628 0.52823 0.0
C854 C 0.93285 0.23512 0.51778 0.0
H855 H 0.9653 0.29502 0.56841 0.0
H856 H 0.94076 0.27631 0.51046 0.0
C857 C 0.936 0.21807 0.54191 0.0
C858 C 0.36869 0.28355 0.54622 0.0
C859 C 0.35463 0.26737 0.57694 0.0
H860 H 0.38026 0.28395 0.48947 0.0
C861 C 0.34285 0.23868 0.57434 0.0
H862 H 0.37808 0.30574 0.54741 0.0
C863 C 0.34421 0.22628 0.5413 0.0
C864 C 0.35727 0.24229 0.51008 0.0
H865 H 0.33199 0.22566 0.59756 0.0
H866 H 0.33405 0.204 0.53975 0.0
C867 C 0.36988 0.2711 0.51303 0.0
C868 C 0.74919 0.09596 0.53122 0.0
C869 C 0.76038 0.09084 0.56204 0.0
H870 H 0.75635 0.11376 0.4774 0.0
C871 C 0.78847 0.10195 0.56312 0.0
H872 H 0.72765 0.08782 0.52967 0.0
C873 C 0.80491 0.11711 0.53346 0.0
C874 C 0.79354 0.12118 0.50197 0.0
H875 H 0.79775 0.0986 0.58665 0.0
H876 H 0.82634 0.12459 0.53445 0.0
C877 C 0.7656 0.11084 0.50137 0.0
C878 C 0.94186 0.69994 0.54972 0.0
C879 C 0.94598 0.6784 0.55724 0.0
H880 H 0.92243 0.71444 0.51498 0.0
C881 C 0.93227 0.65396 0.53568 0.0
H882 H 0.95199 0.71895 0.56606 0.0
C883 C 0.91559 0.65154 0.50627 0.0
C884 C 0.91186 0.67327 0.49844 0.0
H885 H 0.93502 0.63701 0.54086 0.0
H886 H 0.90587 0.63285 0.48926 0.0
C887 C 0.92477 0.69731 0.52077 0.0
C888 C 0.94237 0.66495 0.75848 0.0
C889 C 0.94816 0.68537 0.73266 0.0
H890 H 0.92557 0.6479 0.81116 0.0
C891 C 0.94092 0.70479 0.741 0.0
H892 H 0.94735 0.64946 0.75276 0.0
C893 C 0.9286 0.70407 0.77488 0.0
C894 C 0.92325 0.68385 0.80091 0.0
H895 H 0.94508 0.72076 0.72159 0.0
H896 H 0.92384 0.71966 0.78102 0.0
C897 C 0.92995 0.66411 0.79204 0.0
C898 C 0.34712 0.27386 0.77193 0.0
C899 C 0.36691 0.27875 0.74535 0.0
H900 H 0.33012 0.25748 0.82495 0.0
C901 C 0.3845 0.26941 0.75205 0.0
H902 H 0.33311 0.28055 0.76758 0.0
C903 C 0.38273 0.25608 0.78509 0.0
C904 C 0.36346 0.25201 0.81209 0.0
H905 H 0.39989 0.27272 0.73204 0.0
H906 H 0.39697 0.24975 0.79 0.0
C907 C 0.34544 0.26068 0.80486 0.0
C908 C 0.77736 0.11948 0.72845 0.0
C909 C 0.74911 0.10229 0.72578 0.0
H910 H 0.81174 0.14088 0.76438 0.0
C911 C 0.73336 0.09594 0.75791 0.0
H912 H 0.78987 0.12457 0.70388 0.0
C913 C 0.7457 0.10624 0.79243 0.0
C914 C 0.77416 0.12222 0.79575 0.0
H915 H 0.71145 0.08308 0.75631 0.0
H916 H 0.73281 0.10131 0.81653 0.0
C917 C 0.78982 0.12903 0.76316 0.0
C918 C 0.09849 0.38495 0.0328 0.0
C919 C 0.08061 0.36195 0.0105 0.0
H920 H 0.13099 0.40203 0.07224 0.0
C921 C 0.08563 0.34058 0.00534 0.0
H922 H 0.09545 0.40195 0.03691 0.0
C923 C 0.10621 0.34077 0.02551 0.0
C924 C 0.12213 0.36245 0.05075 0.0
H925 H 0.07232 0.32265 -0.01187 0.0
H926 H 0.10793 0.32281 0.02405 0.0
C927 C 0.11909 0.38521 0.05266 0.0
C928 C 0.66033 0.71926 0.02337 0.0
C929 C 0.68558 0.72513 0.01023 0.0
H930 H 0.63879 0.73396 0.05421 0.0
C931 C 0.70797 0.75241 0.0125 0.0
H932 H 0.64267 0.69849 0.02142 0.0
C933 C 0.70572 0.77279 0.03147 0.0
C934 C 0.68099 0.76605 0.04775 0.0
H935 H 0.72764 0.75742 0.00245 0.0
H936 H 0.72374 0.79299 0.03626 0.0
C937 C 0.65802 0.73959 0.04172 0.0
C938 C 0.31488 0.94839 0.02803 0.0
C939 C 0.31457 0.96986 0.01034 0.0
H940 H 0.29307 0.91272 0.06168 0.0
C941 C 0.28986 0.96855 0.00701 0.0
H942 H 0.33353 0.94862 0.0305 0.0
C943 C 0.26661 0.94784 0.02487 0.0
C944 C 0.26774 0.92797 0.04558 0.0
H945 H 0.28902 0.98476 -0.00665 0.0
H946 H 0.24859 0.94892 0.02548 0.0
C947 C 0.29162 0.92755 0.04529 0.0
C948 C 0.36223 0.10259 0.00223 0.0
C949 C 0.38425 0.09949 -0.0053 0.0
H950 H 0.33977 0.1205 -0.01516 0.0
C951 C 0.40379 0.1169 0.96882 0.0
H952 H 0.34688 0.08955 0.02211 0.0
C953 C 0.39999 0.135 0.94824 0.0
C954 C 0.37654 0.13594 0.95302 0.0
H955 H 0.42116 0.11529 0.96271 0.0
H956 H 0.41404 0.14628 0.92608 0.0
C957 C 0.3583 0.12057 0.9813 0.0
C958 C 0.94586 0.27133 0.97823 0.0
C959 C 0.93668 0.28906 -0.01283 0.0
H960 H 0.93825 0.23538 0.94764 0.0
C961 C 0.90992 0.28076 0.97794 0.0
H962 H 0.96621 0.2769 -0.01456 0.0
C963 C 0.89383 0.25679 0.95637 0.0
C964 C 0.90429 0.24083 0.94402 0.0
H965 H 0.90218 0.29388 -0.01532 0.0
H966 H 0.87432 0.25224 0.94648 0.0
C967 C 0.92979 0.24742 0.95689 0.0
C968 C 0.78067 0.70429 -0.01162 0.0
C969 C 0.75965 0.67719 -0.00396 0.0
H970 H 0.81659 0.72968 0.95649 0.0
C971 C 0.76213 0.65507 -0.01579 0.0
H972 H 0.77917 0.7217 -0.00297 0.0
C973 C 0.78397 0.65976 0.96213 0.0
C974 C 0.80332 0.68656 0.95099 0.0
H975 H 0.74625 0.63401 -0.01007 0.0
H976 H 0.78416 0.6422 0.95058 0.0
C977 C 0.8022 0.70892 0.9655 0.0
C978 C 0.9591 0.69262 0.98202 0.0
C979 C 0.96431 0.67139 0.97677 0.0
H980 H 0.93688 0.71038 0.96289 0.0
C981 C 0.94694 0.64866 0.95377 0.0
H982 H 0.97211 0.71034 -0.00029 0.0
C983 C 0.92654 0.64844 0.9335 0.0
C984 C 0.9233 0.67108 0.93553 0.0
H985 H 0.95017 0.63179 0.94963 0.0
H986 H 0.91494 0.63176 0.9136 0.0
C987 C 0.93877 0.69253 0.9613 0.0
C988 C 0.34225 0.28665 0.97101 0.0
C989 C 0.36737 0.30531 -0.0122 0.0
H990 H 0.31983 0.25093 0.93571 0.0
C991 C 0.3874 0.29864 -0.01158 0.0
H992 H 0.32628 0.29101 0.97057 0.0
C993 C 0.38355 0.27547 0.96857 0.0
C994 C 0.35957 0.25868 0.94829 0.0
H995 H 0.40691 0.31259 0.00129 0.0
H996 H 0.40027 0.2723 0.96601 0.0
C997 C 0.33839 0.26351 0.95145 0.0
C998 C 0.73903 0.08965 0.97765 0.0
C999 C 0.72662 0.06122 0.96984 0.0
H1000 H 0.76901 0.13068 0.96087 0.0
C1001 C 0.73881 0.05239 0.94399 0.0
H1002 H 0.7302 0.09708 -0.00238 0.0
C1003 C 0.76121 0.07159 0.9236 0.0
C1004 C 0.77173 0.09995 0.92844 0.0
H1005 H 0.73003 0.03063 0.93781 0.0
H1006 H 0.76884 0.06422 0.9017 0.0
C1007 C 0.76142 0.10892 0.95694 0.0
C1008 C 0.63995 0.90611 0.01271 0.0
C1009 C 0.65964 0.92378 -0.01287 0.0
H1010 H 0.63059 0.87847 0.05756 0.0
C1011 C 0.68287 0.92234 0.98196 0.0
H1012 H 0.62171 0.90648 0.01714 0.0
C1013 C 0.68777 0.90606 0.00502 0.0
C1014 C 0.66939 0.89078 0.03317 0.0
H1015 H 0.69838 0.93556 0.96238 0.0
H1016 H 0.70704 0.90743 0.00315 0.0
C1017 C 0.64484 0.88983 0.03562 0.0
C1018 C 0.08562 0.77457 -0.00205 0.0
C1019 C 0.09013 0.75307 -0.00933 0.0
H1020 H 0.09893 0.81241 0.02829 0.0
C1021 C 0.11499 0.75659 0.00116 0.0
H1022 H 0.06664 0.7724 -0.00977 0.0
C1023 C 0.13376 0.77987 0.0219 0.0
C1024 C 0.12778 0.79974 0.0329 0.0
H1025 H 0.11908 0.74044 -0.00438 0.0
H1026 H 0.15155 0.78082 0.03272 0.0
C1027 C 0.1042 0.79762 0.01935 0.0
C1028 C 0.28297 0.37612 0.00157 0.0
C1029 C 0.28442 0.35319 -0.00934 0.0
H1030 H 0.26226 0.39077 0.03478 0.0
C1031 C 0.26254 0.32656 -0.00141 0.0
H1032 H 0.29945 0.39686 -0.00441 0.0
C1033 C 0.24137 0.32315 0.02123 0.0
C1034 C 0.24152 0.34627 0.03535 0.0
H1035 H 0.26306 0.30848 -0.00946 0.0
H1036 H 0.22636 0.30268 0.03059 0.0
C1037 C 0.26156 0.37265 0.02361 0.0
C1038 C 0.75767 0.67778 0.33305 0.0
C1039 C 0.75459 0.70042 0.33877 0.0
H1040 H 0.77733 0.65713 0.35119 0.0
C1041 C 0.77344 0.72261 0.36146 0.0
H1042 H 0.7436 0.66042 0.31555 0.0
C1043 C 0.79291 0.72082 0.38132 0.0
C1044 C 0.79392 0.69685 0.37885 0.0
H1045 H 0.77191 0.74052 0.36606 0.0
H1046 H 0.80549 0.73706 0.4013 0.0
C1047 C 0.77717 0.67598 0.35311 0.0
C1048 C 0.3769 0.08266 0.36009 0.0
C1049 C 0.35321 0.06646 0.33902 0.0
H1050 H 0.39828 0.11659 0.39845 0.0
C1051 C 0.33536 0.07573 0.3345 0.0
H1052 H 0.39127 0.07629 0.36349 0.0
C1053 C 0.33941 0.09888 0.35464 0.0
C1054 C 0.36147 0.11309 0.37912 0.0
H1055 H 0.31703 0.06374 0.31816 0.0
H1056 H 0.32384 0.10383 0.35405 0.0
C1057 C 0.38112 0.10594 0.37969 0.0
C1058 C 0.96457 0.29982 0.36742 0.0
C1059 C 0.97926 0.29249 0.34397 0.0
H1060 H 0.93293 0.28613 0.40763 0.0
C1061 C 0.96955 0.26435 0.33768 0.0
H1062 H 0.97129 0.32129 0.37238 0.0
C1063 C 0.9474 0.24416 0.35785 0.0
C1064 C 0.93463 0.25192 0.38417 0.0
H1065 H 0.98037 0.25806 0.31958 0.0
H1066 H 0.94196 0.22289 0.35545 0.0
C1067 C 0.94241 0.2797 0.38725 0.0
C1068 C 1.01827 0.43423 0.3267 0.0
C1069 C 0.04139 0.43236 0.32398 0.0
H1070 H 0.99636 0.45114 0.30371 0.0
C1071 C 0.06268 0.4506 0.30066 0.0
H1072 H 1.00155 0.42057 0.34449 0.0
C1073 C 0.05974 0.46822 0.27773 0.0
C1074 C 0.03559 0.46809 0.27793 0.0
H1075 H 0.08087 0.44992 0.29813 0.0
H1076 H 0.07541 0.48027 0.25764 0.0
C1077 C 1.01535 0.45189 0.30366 0.0
C1078 C 0.587 0.62069 0.31755 0.0
C1079 C 0.61439 0.63011 0.32422 0.0
H1080 H 0.55055 0.59104 0.28851 0.0
C1081 C 0.62435 0.61348 0.31301 0.0
H1082 H 0.57877 0.63308 0.32602 0.0
C1083 C 0.60811 0.5893 0.29232 0.0
C1084 C 0.58171 0.58149 0.28198 0.0
H1085 H 0.64524 0.62 0.3183 0.0
H1086 H 0.61693 0.5779 0.28173 0.0
C1087 C 0.57076 0.59654 0.29635 0.0
C1088 C 0.44979 0.02485 0.33063 0.0
C1089 C 0.42361 1.0017 0.3242 0.0
H1090 H 0.4909 0.04838 0.31138 0.0
C1091 C 0.42026 0.98146 0.2981 0.0
H1092 H 0.45309 0.04075 0.35067 0.0
C1093 C 0.44196 0.98574 0.27606 0.0
C1094 C 0.4674 1.01023 0.27986 0.0
H1095 H 0.40045 0.96322 0.29276 0.0
H1096 H 0.4383 0.97107 0.25383 0.0
C1097 C 0.47153 0.02914 0.30845 0.0
C1098 C 0.64767 0.04431 0.30736 0.0
C1099 C 0.64332 0.01796 0.31275 0.0
H1100 H 0.63341 0.06764 0.28096 0.0
C1101 C 0.61828 0.9946 0.30222 0.0
H1102 H 0.66677 0.0627 0.31515 0.0
C1103 C 0.59902 0.9975 0.28362 0.0
C1104 C 0.60451 0.02378 0.27495 0.0
H1105 H 0.61423 0.97403 0.3063 0.0
H1106 H 0.5809 0.97918 0.27294 0.0
C1107 C 0.62849 0.0472 0.28819 0.0
C1108 C 0.05051 0.64217 0.29964 0.0
C1109 C 0.02548 0.63752 0.31172 0.0
H1110 H 0.071 0.62624 0.26879 0.0
C1111 C 1.0022 0.6109 0.30809 0.0
H1112 H 0.06878 0.66244 0.3025 0.0
C1113 C 1.00349 0.59015 0.28854 0.0
C1114 C 0.02813 0.59581 0.27318 0.0
H1115 H 0.98266 0.60686 0.31718 0.0
H1116 H 0.9849 0.5707 0.28236 0.0
C1117 C 0.05185 0.62139 0.28079 0.0
C1118 C 0.41161 0.39663 0.29296 0.0
C1119 C 0.39786 0.40617 0.31447 0.0
H1120 H 0.44379 0.4071 0.25458 0.0
C1121 C 0.40961 0.43479 0.31952 0.0
H1122 H 0.40331 0.37472 0.28904 0.0
C1123 C 0.43297 0.45337 0.29982 0.0
C1124 C 0.44493 0.44351 0.27522 0.0
H1125 H 0.39956 0.44275 0.33614 0.0
H1126 H 0.44005 0.47513 0.30101 0.0
C1127 C 0.435 0.41515 0.27364 0.0
C1128 C 0.30924 0.24959 0.35456 0.0
C1129 C 0.33024 0.26735 0.33055 0.0
H1130 H 0.29675 0.22015 0.3978 0.0
C1131 C 0.35281 0.26462 0.32662 0.0
H1132 H 0.29143 0.25088 0.35796 0.0
C1133 C 0.35565 0.24671 0.34929 0.0
C1134 C 0.33591 0.2312 0.37595 0.0
H1135 H 0.36928 0.27786 0.30822 0.0
H1136 H 0.37435 0.24689 0.34835 0.0
C1137 C 0.3121 0.23175 0.37713 0.0
C1138 C 0.78534 0.06331 0.34592 0.0
C1139 C 0.76776 0.06696 0.32385 0.0
H1140 H 0.81619 0.08087 0.38781 0.0
C1141 C 0.7719 0.09344 0.32143 0.0
H1142 H 0.78275 0.04317 0.34801 0.0
C1143 C 0.79114 0.11504 0.34428 0.0
C1144 C 0.80666 0.11044 0.36917 0.0
H1145 H 0.75861 0.09682 0.30467 0.0
H1146 H 0.79202 0.13445 0.3451 0.0
C1147 C 0.80469 0.08492 0.36835 0.0
C1148 C 0.94712 0.70374 0.32702 0.0
C1149 C 0.95118 0.68232 0.31699 0.0
H1150 H 0.92396 0.71573 0.35964 0.0
C1151 C 0.93159 0.65515 0.32668 0.0
H1152 H 0.96192 0.72484 0.31975 0.0
C1153 C 0.91009 0.65002 0.34993 0.0
C1154 C 0.90757 0.6719 0.36282 0.0
H1155 H 0.93434 0.63829 0.31946 0.0
H1156 H 0.89692 0.62947 0.36052 0.0
C1157 C 0.92527 0.6985 0.34947 0.0
C1158 C 0.42841 0.0387 0.69895 0.0
C1159 C 0.40718 0.01695 0.67819 0.0
H1160 H 0.46121 0.05093 0.73689 0.0
C1161 C 0.40563 0.99158 0.67529 0.0
H1162 H 0.43029 0.05856 0.70147 0.0
C1163 C 0.42344 0.98731 0.69563 0.0
C1164 C 0.4433 1.0085 0.71847 0.0
H1165 H 0.38948 0.97444 0.65956 0.0
H1166 H 0.42048 0.96694 0.69561 0.0
C1167 C 0.44632 0.03449 0.71889 0.0
C1168 C 0.03358 0.41901 0.6789 0.0
C1169 C 1.01185 0.39139 0.6767 0.0
H1170 H 0.04814 0.45923 0.70307 0.0
C1171 C 0.98631 0.38458 0.68982 0.0
H1172 H 0.05347 0.42473 0.6689 0.0
C1173 C 0.98313 0.40438 0.7082 0.0
C1174 C 1.00554 0.43119 0.71441 0.0
H1175 H 0.96916 0.3635 0.68801 0.0
H1176 H 0.96379 0.39801 0.72095 0.0
C1177 C 0.03049 0.43881 0.69801 0.0
C1178 C 0.63051 0.62586 0.68814 0.0
C1179 C 0.64814 0.6174 0.67663 0.0
H1180 H 0.59487 0.61573 0.71881 0.0
C1181 C 0.6403 0.58976 0.68147 0.0
H1182 H 0.6358 0.64689 0.68429 0.0
C1183 C 0.61673 0.57186 0.70133 0.0
C1184 C 0.60067 0.58136 0.71607 0.0
H1185 H 0.65347 0.58264 0.67273 0.0
H1186 H 0.6125 0.55158 0.70809 0.0
C1187 C 0.60692 0.60795 0.70749 0.0
C1188 C 0.72881 0.77909 0.64176 0.0
C1189 C 0.70795 0.75907 0.66404 0.0
H1190 H 0.74016 0.81059 0.60179 0.0
C1191 C 0.68427 0.75972 0.66891 0.0
H1192 H 0.74741 0.77937 0.63771 0.0
C1193 C 0.68026 0.7778 0.64843 0.0
C1194 C 0.70003 0.79578 0.62331 0.0
H1195 H 0.66785 0.74468 0.68598 0.0
H1196 H 0.66071 0.77585 0.64951 0.0
C1197 C 0.72487 0.7973 0.6216 0.0
C1198 C 0.26253 0.96327 0.64475 0.0
C1199 C 0.28253 0.96053 0.66197 0.0
H1200 H 0.22957 0.94576 0.60594 0.0
C1201 C 0.28103 0.93522 0.65891 0.0
H1202 H 0.26311 0.98251 0.64689 0.0
C1203 C 0.26184 0.91425 0.63535 0.0
C1204 C 0.24363 0.91818 0.61535 0.0
H1205 H 0.29622 0.93257 0.6718 0.0
H1206 H 0.2628 0.89605 0.63019 0.0
C1207 C 0.24316 0.94219 0.62167 0.0
C1208 C 0.09699 0.33008 0.65923 0.0
C1209 C 0.09253 0.35139 0.66819 0.0
H1210 H 0.1203 0.31791 0.62729 0.0
C1211 C 0.11171 0.37841 0.65737 0.0
H1212 H 0.08255 0.3091 0.6674 0.0
C1213 C 0.1331 0.38335 0.63402 0.0
C1214 C 0.13595 0.36147 0.62212 0.0
H1215 H 0.10869 0.39519 0.66378 0.0
H1216 H 0.1459 0.40368 0.62258 0.0
C1217 C 0.11874 0.33516 0.63664 0.0
C1218 C 0.26857 0.30887 0.62492 0.0
C1219 C 0.28575 0.33045 0.64965 0.0
H1220 H 0.23836 0.29491 0.58242 0.0
C1221 C 0.28149 0.35227 0.6557 0.0
H1222 H 0.27103 0.29155 0.62005 0.0
C1223 C 0.26254 0.35403 0.63421 0.0
C1224 C 0.24757 0.33392 0.60667 0.0
H1225 H 0.29426 0.36912 0.67477 0.0
H1226 H 0.26147 0.37235 0.63668 0.0
C1227 C 0.24965 0.3106 0.60365 0.0
C1228 C 0.71499 0.96322 0.64702 0.0
C1229 C 0.69527 0.97016 0.64341 0.0
H1230 H 0.72785 0.93583 0.62926 0.0
C1231 C 0.67048 0.95111 0.62617 0.0
H1232 H 0.73423 0.97743 0.66037 0.0
C1233 C 0.66667 0.92713 0.6092 0.0
C1234 C 0.68765 0.92187 0.60893 0.0
H1235 H 0.65473 0.95566 0.62349 0.0
H1236 H 0.64844 0.91415 0.593 0.0
C1237 C 0.71124 0.93925 0.62966 0.0
C1238 C 0.07958 0.73725 0.61713 0.0
C1239 C 0.06434 0.74462 0.63931 0.0
H1240 H 0.11184 0.75069 0.57796 0.0
C1241 C 0.07346 0.77272 0.64426 0.0
H1242 H 0.0733 0.71581 0.61322 0.0
C1243 C 0.09572 0.79275 0.62406 0.0
C1244 C 0.10922 0.78487 0.59918 0.0
H1245 H 0.06216 0.77901 0.6613 0.0
H1246 H 0.1008 0.81393 0.62537 0.0
C1247 C 0.10186 0.75721 0.59733 0.0
C1248 C 1.00689 0.59689 0.67297 0.0
C1249 C 0.97969 0.58955 0.67178 0.0
H1250 H 0.0356 0.5888 0.69647 0.0
C1251 C 0.95976 0.5647 0.68798 0.0
H1252 H 0.02274 0.61573 0.66051 0.0
C1253 C 0.96723 0.54907 0.70818 0.0
C1254 C 0.99466 0.55801 0.71225 0.0
H1255 H 0.93863 0.55835 0.68741 0.0
H1256 H 0.95183 0.53141 0.72324 0.0
C1257 C 1.01429 0.58134 0.6932 0.0
C1258 C 0.41838 0.41946 0.68065 0.0
C1259 C 0.42717 0.40267 0.66549 0.0
H1260 H 0.42829 0.45421 0.71587 0.0
C1261 C 0.45488 0.41198 0.66725 0.0
H1262 H 0.39726 0.4131 0.67913 0.0
C1263 C 0.4727 0.43569 0.68821 0.0
C1264 C 0.46299 0.45038 0.70732 0.0
H1265 H 0.46229 0.39961 0.65551 0.0
H1266 H 0.49319 0.44067 0.69286 0.0
C1267 C 0.43621 0.44321 0.70123 0.0
C1268 C 0.61424 0.04333 0.66553 0.0
C1269 C 0.61351 0.02011 0.65024 0.0
H1270 H 0.59646 0.05808 0.70434 0.0
C1271 C 0.59051 0.99373 0.65626 0.0
H1272 H 0.63153 0.06393 0.66108 0.0
C1273 C 0.57038 0.99048 0.68098 0.0
C1274 C 0.57287 0.01356 0.6994 0.0
H1275 H 0.58929 0.97544 0.64477 0.0
H1276 H 0.55435 0.96986 0.68836 0.0
C1277 C 0.59408 0.04005 0.69001 0.0
loop_
_geom_bond_atom_site_label_1
_geom_bond_atom_site_label_2
_geom_bond_distance
_geom_bond_site_symmetry_2
_ccdc_geom_bond_type
C0 O1 1.160 . S
C0 O7 1.185 . S
O1 C0 1.160 . S
O2 Zn3 1.899 1_656 S
O2 C10 1.284 . S
Zn3 O2 1.899 1_454 S
Zn3 O4 2.032 . S
Zn3 O7 2.086 . S
Zn3 O12 1.977 1_554 S
O4 Zn3 2.032 . S
O4 C8 1.278 1_455 S
C5 O6 1.203 1_455 S
C5 O12 1.267 . S
O6 C5 1.203 1_655 S
O7 C0 1.185 . S
O7 Zn3 2.086 . S
C8 O4 1.278 1_655 S
C8 O9 1.211 . S
O9 C8 1.211 . S
C10 O2 1.284 . S
C10 O11 1.273 1_556 S
O11 C10 1.273 1_554 S
O12 Zn3 1.977 1_556 S
O12 C5 1.267 . S
C13 O14 1.160 . S
C13 O20 1.185 1_556 S
O14 C13 1.160 . S
O15 Zn16 1.899 . S
O15 C23 1.284 . S
Zn16 O15 1.899 . S
Zn16 O17 2.032 1_554 S
Zn16 O20 2.086 . S
Zn16 O25 1.977 . S
O17 Zn16 2.032 1_556 S
O17 C21 1.278 . S
C18 O19 1.203 . S
C18 O25 1.267 . S
O19 C18 1.203 . S
O20 C13 1.185 1_554 S
O20 Zn16 2.086 . S
C21 O17 1.278 . S
C21 O22 1.211 . S
O22 C21 1.211 . S
C23 O15 1.284 . S
C23 O24 1.273 . S
O24 C23 1.273 . S
O25 Zn16 1.977 . S
O25 C18 1.267 . S
C26 O27 1.160 . S
C26 O33 1.185 1_556 S
O27 C26 1.160 . S
O28 Zn29 1.899 1_565 S
O28 C36 1.284 . S
Zn29 O28 1.899 1_545 S
Zn29 O30 2.032 1_554 S
Zn29 O33 2.086 . S
Zn29 O38 1.977 . S
O30 Zn29 2.032 1_556 S
O30 C34 1.278 1_545 S
C31 O32 1.203 1_545 S
C31 O38 1.267 . S
O32 C31 1.203 1_565 S
O33 C26 1.185 1_554 S
O33 Zn29 2.086 . S
C34 O30 1.278 1_565 S
C34 O35 1.211 . S
O35 C34 1.211 . S
C36 O28 1.284 . S
C36 O37 1.273 . S
O37 C36 1.273 . S
O38 Zn29 1.977 . S
O38 C31 1.267 . S
C39 O40 1.160 . S
C39 O46 1.185 1_556 S
O40 C39 1.160 . S
O41 Zn42 1.899 1_455 S
O41 C49 1.284 . S
Zn42 O41 1.899 1_655 S
Zn42 O43 2.032 1_554 S
Zn42 O46 2.086 . S
Zn42 O51 1.977 . S
O43 Zn42 2.032 1_556 S
O43 C47 1.278 1_655 S
C44 O45 1.203 1_655 S
C44 O51 1.267 . S
O45 C44 1.203 1_455 S
O46 C39 1.185 1_554 S
O46 Zn42 2.086 . S
C47 O43 1.278 1_455 S
C47 O48 1.211 . S
O48 C47 1.211 . S
C49 O41 1.284 . S
C49 O50 1.273 . S
O50 C49 1.273 . S
O51 Zn42 1.977 . S
O51 C44 1.267 . S
C52 O53 1.160 . S
C52 O59 1.185 . S
O53 C52 1.160 . S
O54 Zn55 1.899 1_556 S
O54 C62 1.284 . S
Zn55 O54 1.899 1_554 S
Zn55 O56 2.032 . S
Zn55 O59 2.086 . S
Zn55 O64 1.977 1_554 S
O56 Zn55 2.032 . S
O56 C60 1.278 . S
C57 O58 1.203 . S
C57 O64 1.267 . S
O58 C57 1.203 . S
O59 C52 1.185 . S
O59 Zn55 2.086 . S
C60 O56 1.278 . S
C60 O61 1.211 . S
O61 C60 1.211 . S
C62 O54 1.284 . S
C62 O63 1.273 1_556 S
O63 C62 1.273 1_554 S
O64 Zn55 1.977 1_556 S
O64 C57 1.267 . S
C65 O66 1.160 . S
C65 O72 1.185 . S
O66 C65 1.160 . S
O67 Zn68 1.899 1_546 S
O67 C75 1.284 . S
Zn68 O67 1.899 1_564 S
Zn68 O69 2.032 . S
Zn68 O72 2.086 . S
Zn68 O77 1.977 1_554 S
O69 Zn68 2.032 . S
O69 C73 1.278 1_565 S
C70 O71 1.203 1_565 S
C70 O77 1.267 . S
O71 C70 1.203 1_545 S
O72 C65 1.185 . S
O72 Zn68 2.086 . S
C73 O69 1.278 1_545 S
C73 O74 1.211 . S
O74 C73 1.211 . S
C75 O67 1.284 . S
C75 O76 1.273 1_556 S
O76 C75 1.273 1_554 S
O77 Zn68 1.977 1_556 S
O77 C70 1.267 . S
C78 O79 1.160 . S
C78 O85 1.185 . S
O79 C78 1.160 . S
O80 Zn81 1.899 . S
O80 C88 1.284 . S
Zn81 O80 1.899 . S
Zn81 O82 2.032 . S
Zn81 O85 2.086 . S
Zn81 O90 1.977 . S
O82 Zn81 2.032 . S
O82 C86 1.278 . S
C83 O84 1.203 . S
C83 O90 1.267 . S
O84 C83 1.203 . S
O85 C78 1.185 . S
O85 Zn81 2.086 . S
C86 O82 1.278 . S
C86 O87 1.211 . S
O87 C86 1.211 . S
C88 O80 1.284 . S
C88 O89 1.273 . S
O89 C88 1.273 . S
O90 Zn81 1.977 . S
O90 C83 1.267 . S
C91 O92 1.160 1_565 S
C91 O98 1.185 . S
O92 C91 1.160 1_545 S
O93 Zn94 1.899 1_545 S
O93 C101 1.284 . S
Zn94 O93 1.899 1_565 S
Zn94 O95 2.032 . S
Zn94 O98 2.086 . S
Zn94 O103 1.977 . S
O95 Zn94 2.032 . S
O95 C99 1.278 . S
C96 O97 1.203 . S
C96 O103 1.267 . S
O97 C96 1.203 . S
O98 C91 1.185 . S
O98 Zn94 2.086 . S
C99 O95 1.278 . S
C99 O100 1.211 . S
O100 C99 1.211 . S
C101 O93 1.284 . S
C101 O102 1.273 . S
O102 C101 1.273 . S
O103 Zn94 1.977 . S
O103 C96 1.267 . S
C104 O105 1.160 1_455 S
C104 O111 1.185 . S
O105 C104 1.160 1_655 S
O106 Zn107 1.899 1_655 S
O106 C114 1.284 . S
Zn107 O106 1.899 1_455 S
Zn107 O108 2.032 . S
Zn107 O111 2.086 . S
Zn107 O116 1.977 . S
O108 Zn107 2.032 . S
O108 C112 1.278 . S
C109 O110 1.203 . S
C109 O116 1.267 . S
O110 C109 1.203 . S
O111 C104 1.185 . S
O111 Zn107 2.086 . S
C112 O108 1.278 . S
C112 O113 1.211 . S
O113 C112 1.211 . S
C114 O106 1.284 . S
C114 O115 1.273 . S
O115 C114 1.273 . S
O116 Zn107 1.977 . S
O116 C109 1.267 . S
C117 O118 1.160 1_565 S
C117 O124 1.185 . S
O118 C117 1.160 1_545 S
O119 Zn120 1.899 1_545 S
O119 C127 1.284 . S
Zn120 O119 1.899 1_565 S
Zn120 O121 2.032 . S
Zn120 O124 2.086 . S
Zn120 O129 1.977 . S
O121 Zn120 2.032 . S
O121 C125 1.278 . S
C122 O123 1.203 . S
C122 O129 1.267 . S
O123 C122 1.203 . S
O124 C117 1.185 . S
O124 Zn120 2.086 . S
C125 O121 1.278 . S
C125 O126 1.211 . S
O126 C125 1.211 . S
C127 O119 1.284 . S
C127 O128 1.273 . S
O128 C127 1.273 . S
O129 Zn120 1.977 . S
O129 C122 1.267 . S
C130 O131 1.160 . S
C130 O137 1.185 . S
O131 C130 1.160 . S
O132 Zn133 1.901 1_655 S
O132 C140 1.279 1_655 S
Zn133 O132 1.901 1_455 S
Zn133 O134 2.032 . S
Zn133 O137 2.086 1_455 S
Zn133 O142 1.977 . S
O134 Zn133 2.032 . S
O134 C138 1.278 . S
C135 O136 1.203 . S
C135 O142 1.267 . S
O136 C135 1.203 . S
O137 C130 1.185 . S
O137 Zn133 2.086 1_655 S
C138 O134 1.278 . S
C138 O139 1.211 . S
O139 C138 1.211 . S
C140 O132 1.279 1_455 S
C140 O141 1.273 . S
O141 C140 1.273 . S
O142 Zn133 1.977 . S
O142 C135 1.267 . S
C143 O144 1.160 . S
C143 O150 1.185 . S
O144 C143 1.160 . S
O145 Zn146 1.899 . S
O145 C153 1.284 . S
Zn146 O145 1.899 . S
Zn146 O147 2.032 . S
Zn146 O150 2.086 . S
Zn146 O155 1.977 . S
O147 Zn146 2.032 . S
O147 C151 1.278 . S
C148 O149 1.203 . S
C148 O155 1.267 . S
O149 C148 1.203 . S
O150 C143 1.185 . S
O150 Zn146 2.086 . S
C151 O147 1.278 . S
C151 O152 1.211 . S
O152 C151 1.211 . S
C153 O145 1.284 . S
C153 O154 1.273 . S
O154 C153 1.273 . S
O155 Zn146 1.977 . S
O155 C148 1.267 . S
C156 O157 1.160 1_545 S
C156 O163 1.185 . S
O157 C156 1.160 1_565 S
O158 Zn159 1.899 1_565 S
O158 C166 1.284 . S
Zn159 O158 1.899 1_545 S
Zn159 O160 2.032 . S
Zn159 O163 2.086 . S
Zn159 O168 1.977 . S
O160 Zn159 2.032 . S
O160 C164 1.278 . S
C161 O162 1.203 . S
C161 O168 1.267 . S
O162 C161 1.203 . S
O163 C156 1.185 . S
O163 Zn159 2.086 . S
C164 O160 1.278 . S
C164 O165 1.211 . S
O165 C164 1.211 . S
C166 O158 1.284 . S
C166 O167 1.273 . S
O167 C166 1.273 . S
O168 Zn159 1.977 . S
O168 C161 1.267 . S
C169 O170 1.160 . S
C169 O176 1.185 . S
O170 C169 1.160 . S
O171 Zn172 1.895 . S
O171 C179 1.301 . S
Zn172 O171 1.895 . S
Zn172 O173 2.032 . S
Zn172 O176 2.086 1_655 S
Zn172 O181 1.977 . S
O173 Zn172 2.032 . S
O173 C177 1.278 . S
C174 O175 1.203 . S
C174 O181 1.267 . S
O175 C174 1.203 . S
O176 C169 1.185 . S
O176 Zn172 2.086 1_455 S
C177 O173 1.278 . S
C177 O178 1.211 . S
O178 C177 1.211 . S
C179 O171 1.301 . S
C179 O180 1.273 . S
O180 C179 1.273 . S
O181 Zn172 1.977 . S
O181 C174 1.267 . S
C182 O183 1.160 . S
C182 O189 1.185 . S
O183 C182 1.160 . S
O184 Zn185 1.899 . S
O184 C192 1.284 . S
Zn185 O184 1.899 . S
Zn185 O186 2.032 . S
Zn185 O189 2.086 . S
Zn185 O194 1.977 . S
O186 Zn185 2.032 . S
O186 C190 1.278 . S
C187 O188 1.203 . S
C187 O194 1.267 . S
O188 C187 1.203 . S
O189 C182 1.185 . S
O189 Zn185 2.086 . S
C190 O186 1.278 . S
C190 O191 1.211 . S
O191 C190 1.211 . S
C192 O184 1.284 . S
C192 O193 1.273 . S
O193 C192 1.273 . S
O194 Zn185 1.977 . S
O194 C187 1.267 . S
C195 O196 1.160 . S
C195 O202 1.185 . S
O196 C195 1.160 . S
O197 Zn198 1.899 . S
O197 C205 1.284 . S
Zn198 O197 1.899 . S
Zn198 O199 2.032 . S
Zn198 O202 2.086 . S
Zn198 O207 1.977 . S
O199 Zn198 2.032 . S
O199 C203 1.278 . S
C200 O201 1.203 . S
C200 O207 1.267 . S
O201 C200 1.203 . S
O202 C195 1.185 . S
O202 Zn198 2.086 . S
C203 O199 1.278 . S
C203 O204 1.211 . S
O204 C203 1.211 . S
C205 O197 1.284 . S
C205 O206 1.273 . S
O206 C205 1.273 . S
O207 Zn198 1.977 . S
O207 C200 1.267 . S
C208 O209 1.160 1_545 S
C208 O215 1.185 . S
O209 C208 1.160 1_565 S
O210 Zn211 1.899 1_565 S
O210 C218 1.284 . S
Zn211 O210 1.899 1_545 S
Zn211 O212 2.032 . S
Zn211 O215 2.086 . S
Zn211 O220 1.977 . S
O212 Zn211 2.032 . S
O212 C216 1.278 . S
C213 O214 1.203 . S
C213 O220 1.267 . S
O214 C213 1.203 . S
O215 C208 1.185 . S
O215 Zn211 2.086 . S
C216 O212 1.278 . S
C216 O217 1.211 . S
O217 C216 1.211 . S
C218 O210 1.284 . S
C218 O219 1.273 . S
O219 C218 1.273 . S
O220 Zn211 1.977 . S
O220 C213 1.267 . S
C221 O222 1.160 1_655 S
C221 O228 1.185 . S
O222 C221 1.160 1_455 S
O223 Zn224 1.899 1_455 S
O223 C231 1.284 . S
Zn224 O223 1.899 1_655 S
Zn224 O225 2.032 . S
Zn224 O228 2.086 . S
Zn224 O233 1.977 . S
O225 Zn224 2.032 . S
O225 C229 1.278 . S
C226 O227 1.203 . S
C226 O233 1.267 . S
O227 C226 1.203 . S
O228 C221 1.185 . S
O228 Zn224 2.086 . S
C229 O225 1.278 . S
C229 O230 1.211 . S
O230 C229 1.211 . S
C231 O223 1.284 . S
C231 O232 1.273 . S
O232 C231 1.273 . S
O233 Zn224 1.977 . S
O233 C226 1.267 . S
H234 C240 0.930 . S
H235 C243 0.931 . S
H236 C245 0.931 . S
H237 C247 0.930 . S
H238 C249 0.930 . S
H239 C251 0.931 . S
C240 H234 0.930 . S
C240 C241 1.380 . S
C240 C242 1.394 . S
C241 C240 1.380 . S
C241 C245 1.382 . S
C242 C240 1.394 . S
C242 C243 1.400 . S
C243 H235 0.931 . S
C243 C242 1.400 . S
C243 C244 1.375 . S
C244 C243 1.375 . S
C244 C245 1.415 . S
C244 C246 1.501 . S
C245 H236 0.931 . S
C245 C241 1.382 . S
C245 C244 1.415 . S
C246 C244 1.501 . S
C246 C247 1.384 . S
C246 C251 1.408 . S
C247 H237 0.930 . S
C247 C246 1.384 . S
C247 C248 1.389 . S
C248 C247 1.389 . S
C248 C249 1.405 . S
C249 H238 0.930 . S
C249 C248 1.405 . S
C249 C250 1.364 . S
C250 C249 1.364 . S
C250 C251 1.400 . S
C251 H239 0.931 . S
C251 C246 1.408 . S
C251 C250 1.400 . S
H252 C258 0.930 . S
H253 C261 0.931 . S
H254 C263 0.931 . S
H255 C265 0.930 . S
H256 C267 0.930 . S
H257 C269 0.931 . S
C258 H252 0.930 . S
C258 C259 1.380 . S
C258 C260 1.394 . S
C259 C258 1.380 . S
C259 C263 1.382 . S
C260 C258 1.394 . S
C260 C261 1.400 . S
C261 H253 0.931 . S
C261 C260 1.400 . S
C261 C262 1.375 . S
C262 C261 1.375 . S
C262 C263 1.415 . S
C262 C264 1.501 . S
C263 H254 0.931 . S
C263 C259 1.382 . S
C263 C262 1.415 . S
C264 C262 1.501 . S
C264 C265 1.384 . S
C264 C269 1.408 . S
C265 H255 0.930 . S
C265 C264 1.384 . S
C265 C266 1.389 . S
C266 C265 1.389 . S
C266 C267 1.405 . S
C267 H256 0.930 . S
C267 C266 1.405 . S
C267 C268 1.364 . S
C268 C267 1.364 . S
C268 C269 1.400 . S
C269 H257 0.931 . S
C269 C264 1.408 . S
C269 C268 1.400 . S
H270 C276 0.930 . S
H271 C279 0.931 . S
H272 C281 0.931 . S
H273 C283 0.930 . S
H274 C285 0.930 . S
H275 C287 0.931 . S
C276 H270 0.930 . S
C276 C277 1.380 . S
C276 C278 1.394 . S
C277 C276 1.380 . S
C277 C281 1.382 . S
C278 C276 1.394 . S
C278 C279 1.400 . S
C279 H271 0.931 . S
C279 C278 1.400 . S
C279 C280 1.375 . S
C280 C279 1.375 . S
C280 C281 1.415 . S
C280 C282 1.501 . S
C281 H272 0.931 . S
C281 C277 1.382 . S
C281 C280 1.415 . S
C282 C280 1.501 . S
C282 C283 1.384 . S
C282 C287 1.408 . S
C283 H273 0.930 . S
C283 C282 1.384 . S
C283 C284 1.389 . S
C284 C283 1.389 . S
C284 C285 1.405 . S
C285 H274 0.930 . S
C285 C284 1.405 . S
C285 C286 1.364 . S
C286 C285 1.364 . S
C286 C287 1.400 . S
C287 H275 0.931 . S
C287 C282 1.408 . S
C287 C286 1.400 . S
H288 C294 0.930 . S
H289 C297 0.931 . S
H290 C299 0.931 . S
H291 C301 0.930 . S
H292 C303 0.930 . S
H293 C305 0.931 . S
C294 H288 0.930 . S
C294 C295 1.380 . S
C294 C296 1.394 . S
C295 C294 1.380 . S
C295 C299 1.382 . S
C296 C294 1.394 . S
C296 C297 1.400 . S
C297 H289 0.931 . S
C297 C296 1.400 . S
C297 C298 1.375 . S
C298 C297 1.375 . S
C298 C299 1.415 . S
C298 C300 1.501 . S
C299 H290 0.931 . S
C299 C295 1.382 . S
C299 C298 1.415 . S
C300 C298 1.501 . S
C300 C301 1.384 . S
C300 C305 1.408 . S
C301 H291 0.930 . S
C301 C300 1.384 . S
C301 C302 1.389 . S
C302 C301 1.389 . S
C302 C303 1.405 . S
C303 H292 0.930 . S
C303 C302 1.405 . S
C303 C304 1.364 . S
C304 C303 1.364 . S
C304 C305 1.400 . S
C305 H293 0.931 . S
C305 C300 1.408 . S
C305 C304 1.400 . S
H306 C312 0.930 . S
H307 C315 0.931 . S
H308 C317 0.931 . S
H309 C319 0.930 . S
H310 C321 0.930 . S
H311 C323 0.931 . S
C312 H306 0.930 . S
C312 C313 1.380 . S
C312 C314 1.394 . S
C313 C312 1.380 . S
C313 C317 1.382 . S
C314 C312 1.394 . S
C314 C315 1.400 . S
C315 H307 0.931 . S
C315 C314 1.400 . S
C315 C316 1.375 . S
C316 C315 1.375 . S
C316 C317 1.415 . S
C316 C318 1.501 . S
C317 H308 0.931 . S
C317 C313 1.382 . S
C317 C316 1.415 . S
C318 C316 1.501 . S
C318 C319 1.384 . S
C318 C323 1.408 . S
C319 H309 0.930 . S
C319 C318 1.384 . S
C319 C320 1.389 . S
C320 C319 1.389 . S
C320 C321 1.405 . S
C321 H310 0.930 . S
C321 C320 1.405 . S
C321 C322 1.364 . S
C322 C321 1.364 . S
C322 C323 1.400 . S
C323 H311 0.931 . S
C323 C318 1.408 . S
C323 C322 1.400 . S
H324 C330 0.930 . S
H325 C333 0.931 . S
H326 C335 0.931 . S
H327 C337 0.930 . S
H328 C339 0.930 . S
H329 C341 0.931 . S
C330 H324 0.930 . S
C330 C331 1.380 . S
C330 C332 1.394 . S
C331 C330 1.380 . S
C331 C335 1.382 . S
C332 C330 1.394 . S
C332 C333 1.400 . S
C333 H325 0.931 . S
C333 C332 1.400 . S
C333 C334 1.375 . S
C334 C333 1.375 . S
C334 C335 1.415 . S
C334 C336 1.501 . S
C335 H326 0.931 . S
C335 C331 1.382 . S
C335 C334 1.415 . S
C336 C334 1.501 . S
C336 C337 1.384 . S
C336 C341 1.408 . S
C337 H327 0.930 . S
C337 C336 1.384 . S
C337 C338 1.389 . S
C338 C337 1.389 . S
C338 C339 1.405 . S
C339 H328 0.930 . S
C339 C338 1.405 . S
C339 C340 1.364 . S
C340 C339 1.364 . S
C340 C341 1.400 . S
C341 H329 0.931 . S
C341 C336 1.408 . S
C341 C340 1.400 . S
H342 C348 0.930 . S
H343 C351 0.931 . S
H344 C353 0.931 . S
H345 C355 0.930 . S
H346 C357 0.930 . S
H347 C359 0.931 . S
C348 H342 0.930 . S
C348 C349 1.380 . S
C348 C350 1.394 . S
C349 C348 1.380 . S
C349 C353 1.382 . S
C350 C348 1.394 . S
C350 C351 1.400 . S
C351 H343 0.931 . S
C351 C350 1.400 . S
C351 C352 1.375 . S
C352 C351 1.375 . S
C352 C353 1.415 . S
C352 C354 1.501 . S
C353 H344 0.931 . S
C353 C349 1.382 . S
C353 C352 1.415 . S
C354 C352 1.501 . S
C354 C355 1.384 . S
C354 C359 1.408 . S
C355 H345 0.930 . S
C355 C354 1.384 . S
C355 C356 1.389 . S
C356 C355 1.389 . S
C356 C357 1.405 . S
C357 H346 0.930 . S
C357 C356 1.405 . S
C357 C358 1.364 . S
C358 C357 1.364 . S
C358 C359 1.400 . S
C359 H347 0.931 . S
C359 C354 1.408 . S
C359 C358 1.400 . S
H360 C366 0.930 . S
H361 C369 0.931 . S
H362 C371 0.931 . S
H363 C373 0.930 . S
H364 C375 0.930 . S
H365 C377 0.931 . S
C366 H360 0.930 . S
C366 C367 1.380 . S
C366 C368 1.394 . S
C367 C366 1.380 . S
C367 C371 1.382 . S
C368 C366 1.394 . S
C368 C369 1.400 . S
C369 H361 0.931 . S
C369 C368 1.400 . S
C369 C370 1.375 . S
C370 C369 1.375 . S
C370 C371 1.415 . S
C370 C372 1.501 . S
C371 H362 0.931 . S
C371 C367 1.382 . S
C371 C370 1.415 . S
C372 C370 1.501 . S
C372 C373 1.384 . S
C372 C377 1.408 . S
C373 H363 0.930 . S
C373 C372 1.384 . S
C373 C374 1.389 . S
C374 C373 1.389 . S
C374 C375 1.405 . S
C375 H364 0.930 . S
C375 C374 1.405 . S
C375 C376 1.364 . S
C376 C375 1.364 . S
C376 C377 1.400 . S
C377 H365 0.931 . S
C377 C372 1.408 . S
C377 C376 1.400 . S
H378 C384 0.930 . S
H379 C387 0.931 . S
H380 C389 0.931 . S
H381 C391 0.930 . S
H382 C393 0.930 . S
H383 C395 0.931 . S
C384 H378 0.930 . S
C384 C385 1.380 . S
C384 C386 1.394 . S
C385 C384 1.380 . S
C385 C389 1.382 . S
C386 C384 1.394 . S
C386 C387 1.400 . S
C387 H379 0.931 . S
C387 C386 1.400 . S
C387 C388 1.375 . S
C388 C387 1.375 . S
C388 C389 1.415 . S
C388 C390 1.501 . S
C389 H380 0.931 . S
C389 C385 1.382 . S
C389 C388 1.415 . S
C390 C388 1.501 . S
C390 C391 1.384 . S
C390 C395 1.408 . S
C391 H381 0.930 . S
C391 C390 1.384 . S
C391 C392 1.389 . S
C392 C391 1.389 . S
C392 C393 1.405 . S
C393 H382 0.930 . S
C393 C392 1.405 . S
C393 C394 1.364 . S
C394 C393 1.364 . S
C394 C395 1.400 . S
C395 H383 0.931 . S
C395 C390 1.408 . S
C395 C394 1.400 . S
H396 C402 0.930 1_655 S
H397 C405 0.931 . S
H398 C407 0.931 . S
H399 C409 0.930 . S
H400 C411 0.930 . S
H401 C413 0.939 1_655 S
C402 H396 0.930 1_455 S
C402 C403 1.380 1_455 S
C402 C404 1.394 . S
C403 C402 1.380 1_655 S
C403 C407 1.382 . S
C404 C402 1.394 . S
C404 C405 1.400 . S
C405 H397 0.931 . S
C405 C404 1.400 . S
C405 C406 1.375 . S
C406 C405 1.375 . S
C406 C407 1.415 1_455 S
C406 C408 1.501 . S
C407 H398 0.931 . S
C407 C403 1.382 . S
C407 C406 1.415 1_655 S
C408 C406 1.501 . S
C408 C409 1.384 . S
C408 C413 1.418 . S
C409 H399 0.930 . S
C409 C408 1.384 . S
C409 C410 1.389 . S
C410 C409 1.389 . S
C410 C411 1.405 . S
C411 H400 0.930 . S
C411 C410 1.405 . S
C411 C412 1.364 . S
C412 C411 1.364 . S
C412 C413 1.385 . S
C413 H401 0.939 1_455 S
C413 C408 1.418 . S
C413 C412 1.385 . S
H414 C420 0.930 . S
H415 C423 0.931 . S
H416 C425 0.931 . S
H417 C427 0.930 . S
H418 C429 0.930 . S
H419 C431 0.931 . S
C420 H414 0.930 . S
C420 C421 1.380 . S
C420 C422 1.394 . S
C421 C420 1.380 . S
C421 C425 1.382 . S
C422 C420 1.394 . S
C422 C423 1.400 . S
C423 H415 0.931 . S
C423 C422 1.400 . S
C423 C424 1.375 . S
C424 C423 1.375 . S
C424 C425 1.415 . S
C424 C426 1.501 . S
C425 H416 0.931 . S
C425 C421 1.382 . S
C425 C424 1.415 . S
C426 C424 1.501 . S
C426 C427 1.384 . S
C426 C431 1.408 . S
C427 H417 0.930 . S
C427 C426 1.384 . S
C427 C428 1.389 . S
C428 C427 1.389 . S
C428 C429 1.405 . S
C429 H418 0.930 . S
C429 C428 1.405 . S
C429 C430 1.364 . S
C430 C429 1.364 . S
C430 C431 1.400 . S
C431 H419 0.931 . S
C431 C426 1.408 . S
C431 C430 1.400 . S
H432 C438 0.930 . S
H433 C441 0.931 . S
H434 C443 0.931 . S
H435 C445 0.930 . S
H436 C447 0.930 . S
H437 C449 0.936 . S
C438 H432 0.930 . S
C438 C439 1.380 . S
C438 C440 1.394 1_545 S
C439 C438 1.380 . S
C439 C443 1.382 . S
C440 C438 1.394 1_565 S
C440 C441 1.400 . S
C441 H433 0.931 . S
C441 C440 1.400 . S
C441 C442 1.375 . S
C442 C441 1.375 . S
C442 C443 1.415 1_565 S
C442 C444 1.501 . S
C443 H434 0.931 . S
C443 C439 1.382 . S
C443 C442 1.415 1_545 S
C444 C442 1.501 . S
C444 C445 1.384 . S
C444 C449 1.408 . S
C445 H435 0.930 . S
C445 C444 1.384 . S
C445 C446 1.389 . S
C446 C445 1.389 . S
C446 C447 1.405 . S
C447 H436 0.930 . S
C447 C446 1.405 . S
C447 C448 1.364 . S
C448 C447 1.364 . S
C448 C449 1.400 . S
C449 H437 0.936 . S
C449 C444 1.408 . S
C449 C448 1.400 . S
H450 C456 0.924 . S
H451 C459 0.931 . S
H452 C461 0.924 . S
H453 C463 0.930 . S
H454 C465 0.930 . S
H455 C467 0.931 . S
C456 H450 0.924 . S
C456 C457 1.383 . S
C456 C458 1.397 1_545 S
C457 C456 1.383 . S
C457 C461 1.400 1_545 S
C458 C456 1.397 1_565 S
C458 C459 1.400 . S
C459 H451 0.931 . S
C459 C458 1.400 . S
C459 C460 1.375 . S
C460 C459 1.375 . S
C460 C461 1.407 . S
C460 C462 1.501 . S
C461 H452 0.924 . S
C461 C457 1.400 1_565 S
C461 C460 1.407 . S
C462 C460 1.501 . S
C462 C463 1.384 . S
C462 C467 1.408 1_565 S
C463 H453 0.930 . S
C463 C462 1.384 . S
C463 C464 1.389 . S
C464 C463 1.389 . S
C464 C465 1.405 . S
C465 H454 0.930 . S
C465 C464 1.405 . S
C465 C466 1.364 1_565 S
C466 C465 1.364 1_545 S
C466 C467 1.400 . S
C467 H455 0.931 . S
C467 C462 1.408 1_545 S
C467 C466 1.400 . S
H468 C474 0.930 . S
H469 C477 0.931 . S
H470 C479 0.934 . S
H471 C481 0.930 . S
H472 C483 0.930 . S
H473 C485 0.931 . S
C474 H468 0.930 . S
C474 C475 1.395 . S
C474 C476 1.391 1_655 S
C475 C474 1.395 . S
C475 C479 1.348 1_655 S
C476 C474 1.391 1_455 S
C476 C477 1.406 . S
C477 H469 0.931 . S
C477 C476 1.406 . S
C477 C478 1.375 . S
C478 C477 1.375 . S
C478 C479 1.419 . S
C478 C480 1.501 . S
C479 H470 0.934 . S
C479 C475 1.348 1_455 S
C479 C478 1.419 . S
C480 C478 1.501 . S
C480 C481 1.384 . S
C480 C485 1.408 1_455 S
C481 H471 0.930 . S
C481 C480 1.384 . S
C481 C482 1.389 . S
C482 C481 1.389 . S
C482 C483 1.405 . S
C483 H472 0.930 . S
C483 C482 1.405 . S
C483 C484 1.364 1_455 S
C484 C483 1.364 1_655 S
C484 C485 1.400 . S
C485 H473 0.931 . S
C485 C480 1.408 1_655 S
C485 C484 1.400 . S
H486 C492 0.930 . S
H487 C495 0.931 . S
H488 C497 0.931 . S
H489 C499 0.930 . S
H490 C501 0.930 . S
H491 C503 0.931 . S
C492 H486 0.930 . S
C492 C493 1.380 . S
C492 C494 1.394 . S
C493 C492 1.380 . S
C493 C497 1.382 . S
C494 C492 1.394 . S
C494 C495 1.400 . S
C495 H487 0.931 . S
C495 C494 1.400 . S
C495 C496 1.375 . S
C496 C495 1.375 . S
C496 C497 1.415 . S
C496 C498 1.501 . S
C497 H488 0.931 . S
C497 C493 1.382 . S
C497 C496 1.415 . S
C498 C496 1.501 . S
C498 C499 1.384 . S
C498 C503 1.408 . S
C499 H489 0.930 . S
C499 C498 1.384 . S
C499 C500 1.389 . S
C500 C499 1.389 . S
C500 C501 1.405 . S
C501 H490 0.930 . S
C501 C500 1.405 . S
C501 C502 1.364 . S
C502 C501 1.364 . S
C502 C503 1.400 . S
C503 H491 0.931 . S
C503 C498 1.408 . S
C503 C502 1.400 . S
H504 C510 0.930 . S
H505 C513 0.931 . S
H506 C515 0.931 . S
H507 C517 0.930 . S
H508 C519 0.930 . S
H509 C521 0.931 . S
C510 H504 0.930 . S
C510 C511 1.380 . S
C510 C512 1.394 . S
C511 C510 1.380 . S
C511 C515 1.382 . S
C512 C510 1.394 . S
C512 C513 1.400 . S
C513 H505 0.931 . S
C513 C512 1.400 . S
C513 C514 1.375 . S
C514 C513 1.375 . S
C514 C515 1.415 . S
C514 C516 1.501 . S
C515 H506 0.931 . S
C515 C511 1.382 . S
C515 C514 1.415 . S
C516 C514 1.501 . S
C516 C517 1.384 . S
C516 C521 1.408 . S
C517 H507 0.930 . S
C517 C516 1.384 . S
C517 C518 1.389 . S
C518 C517 1.389 . S
C518 C519 1.405 . S
C519 H508 0.930 . S
C519 C518 1.405 . S
C519 C520 1.364 . S
C520 C519 1.364 . S
C520 C521 1.400 . S
C521 H509 0.931 . S
C521 C516 1.408 . S
C521 C520 1.400 . S
H522 C528 0.930 . S
H523 C531 0.931 . S
H524 C533 0.931 . S
H525 C535 0.930 . S
H526 C537 0.930 . S
H527 C539 0.931 . S
C528 H522 0.930 . S
C528 C529 1.380 . S
C528 C530 1.394 . S
C529 C528 1.380 . S
C529 C533 1.382 . S
C530 C528 1.394 . S
C530 C531 1.400 . S
C531 H523 0.931 . S
C531 C530 1.400 . S
C531 C532 1.375 . S
C532 C531 1.375 . S
C532 C533 1.415 . S
C532 C534 1.501 . S
C533 H524 0.931 . S
C533 C529 1.382 . S
C533 C532 1.415 . S
C534 C532 1.501 . S
C534 C535 1.384 . S
C534 C539 1.408 . S
C535 H525 0.930 . S
C535 C534 1.384 . S
C535 C536 1.389 . S
C536 C535 1.389 . S
C536 C537 1.405 . S
C537 H526 0.930 . S
C537 C536 1.405 . S
C537 C538 1.364 . S
C538 C537 1.364 . S
C538 C539 1.400 . S
C539 H527 0.931 . S
C539 C534 1.408 . S
C539 C538 1.400 . S
H540 C546 0.930 . S
H541 C549 0.931 . S
H542 C551 0.931 . S
H543 C553 0.930 . S
H544 C555 0.930 . S
H545 C557 0.931 . S
C546 H540 0.930 . S
C546 C547 1.380 . S
C546 C548 1.394 . S
C547 C546 1.380 . S
C547 C551 1.382 . S
C548 C546 1.394 . S
C548 C549 1.400 . S
C549 H541 0.931 . S
C549 C548 1.400 . S
C549 C550 1.375 . S
C550 C549 1.375 . S
C550 C551 1.415 . S
C550 C552 1.501 . S
C551 H542 0.931 . S
C551 C547 1.382 . S
C551 C550 1.415 . S
C552 C550 1.501 . S
C552 C553 1.384 . S
C552 C557 1.408 . S
C553 H543 0.930 . S
C553 C552 1.384 . S
C553 C554 1.389 . S
C554 C553 1.389 . S
C554 C555 1.405 . S
C555 H544 0.930 . S
C555 C554 1.405 . S
C555 C556 1.364 . S
C556 C555 1.364 . S
C556 C557 1.400 . S
C557 H545 0.931 . S
C557 C552 1.408 . S
C557 C556 1.400 . S
C558 C559 1.387 . S
C558 H562 0.950 1_655 S
C558 C567 1.390 . S
C559 C558 1.387 . S
C559 C561 1.387 . S
H560 C567 0.950 1_455 S
C561 C559 1.387 . S
C561 C563 1.390 . S
C561 H565 0.950 . S
H562 C558 0.950 1_455 S
C563 C561 1.390 . S
C563 C564 1.387 . S
C563 H566 0.950 . S
C564 C563 1.387 . S
C564 C567 1.387 . S
H565 C561 0.950 . S
H566 C563 0.950 . S
C567 C558 1.390 . S
C567 H560 0.950 1_655 S
C567 C564 1.387 . S
C568 C569 1.387 . S
C568 H572 0.950 . S
C568 C577 1.390 . S
C569 C568 1.387 . S
C569 C571 1.387 . S
H570 C577 0.950 . S
C571 C569 1.387 . S
C571 C573 1.390 . S
C571 H575 0.950 . S
H572 C568 0.950 . S
C573 C571 1.390 . S
C573 C574 1.387 . S
C573 H576 0.950 . S
C574 C573 1.387 . S
C574 C577 1.387 . S
H575 C571 0.950 . S
H576 C573 0.950 . S
C577 C568 1.390 . S
C577 H570 0.950 . S
C577 C574 1.387 . S
C578 C579 1.387 . S
C578 H582 0.950 . S
C578 C587 1.390 . S
C579 C578 1.387 . S
C579 C581 1.387 1_545 S
H580 C587 0.950 . S
C581 C579 1.387 1_565 S
C581 C583 1.390 . S
C581 H585 0.950 . S
H582 C578 0.950 . S
C583 C581 1.390 . S
C583 C584 1.387 1_565 S
C583 H586 0.950 . S
C584 C583 1.387 1_545 S
C584 C587 1.387 . S
H585 C581 0.950 . S
H586 C583 0.950 . S
C587 C578 1.390 . S
C587 H580 0.950 . S
C587 C584 1.387 . S
C588 C589 1.387 1_545 S
C588 H592 0.950 . S
C588 C597 1.390 . S
C589 C588 1.387 1_565 S
C589 C591 1.387 . S
H590 C597 0.950 . S
C591 C589 1.387 . S
C591 C593 1.390 . S
C591 H595 0.950 . S
H592 C588 0.950 . S
C593 C591 1.390 . S
C593 C594 1.387 . S
C593 H596 0.950 . S
C594 C593 1.387 . S
C594 C597 1.387 1_565 S
H595 C591 0.950 . S
H596 C593 0.950 . S
C597 C588 1.390 . S
C597 H590 0.950 . S
C597 C594 1.387 1_545 S
C598 C599 1.387 1_655 S
C598 H602 0.950 . S
C598 C607 1.390 . S
C599 C598 1.387 1_455 S
C599 C601 1.387 . S
H600 C607 0.950 . S
C601 C599 1.387 . S
C601 C603 1.390 . S
C601 H605 0.950 . S
H602 C598 0.950 . S
C603 C601 1.390 . S
C603 C604 1.387 . S
C603 H606 0.950 . S
C604 C603 1.387 . S
C604 C607 1.387 1_455 S
H605 C601 0.950 . S
H606 C603 0.950 . S
C607 C598 1.390 . S
C607 H600 0.950 . S
C607 C604 1.387 1_655 S
C608 C609 1.387 . S
C608 H612 0.950 . S
C608 C617 1.390 . S
C609 C608 1.387 . S
C609 C611 1.387 . S
H610 C617 0.950 . S
C611 C609 1.387 . S
C611 C613 1.390 . S
C611 H615 0.950 . S
H612 C608 0.950 . S
C613 C611 1.390 . S
C613 C614 1.387 . S
C613 H616 0.950 . S
C614 C613 1.387 . S
C614 C617 1.387 . S
H615 C611 0.950 . S
H616 C613 0.950 . S
C617 C608 1.390 . S
C617 H610 0.950 . S
C617 C614 1.387 . S
C618 C619 1.387 . S
C618 H622 0.950 . S
C618 C627 1.390 . S
C619 C618 1.387 . S
C619 C621 1.387 1_455 S
H620 C627 0.950 . S
C621 C619 1.387 1_655 S
C621 C623 1.390 . S
C621 H625 0.950 . S
H622 C618 0.950 . S
C623 C621 1.390 . S
C623 C624 1.387 1_655 S
C623 H626 0.950 . S
C624 C623 1.387 1_455 S
C624 C627 1.387 . S
H625 C621 0.950 . S
H626 C623 0.950 . S
C627 C618 1.390 . S
C627 H620 0.950 . S
C627 C624 1.387 . S
C628 C629 1.387 . S
C628 H632 0.950 . S
C628 C637 1.390 . S
C629 C628 1.387 . S
C629 C631 1.387 . S
H630 C637 0.950 . S
C631 C629 1.387 . S
C631 C633 1.390 . S
C631 H635 0.950 . S
H632 C628 0.950 . S
C633 C631 1.390 . S
C633 C634 1.387 . S
C633 H636 0.950 . S
C634 C633 1.387 . S
C634 C637 1.387 . S
H635 C631 0.950 . S
H636 C633 0.950 . S
C637 C628 1.390 . S
C637 H630 0.950 . S
C637 C634 1.387 . S
C638 C639 1.387 1_545 S
C638 H642 0.950 . S
C638 C647 1.390 . S
C639 C638 1.387 1_565 S
C639 C641 1.387 . S
H640 C647 0.950 . S
C641 C639 1.387 . S
C641 C643 1.390 . S
C641 H645 0.950 . S
H642 C638 0.950 . S
C643 C641 1.390 . S
C643 C644 1.387 . S
C643 H646 0.950 . S
C644 C643 1.387 . S
C644 C647 1.387 1_565 S
H645 C641 0.950 . S
H646 C643 0.950 . S
C647 C638 1.390 . S
C647 H640 0.950 . S
C647 C644 1.387 1_545 S
C648 C649 1.387 1_565 S
C648 H652 0.950 . S
C648 C657 1.390 . S
C649 C648 1.387 1_545 S
C649 C651 1.387 . S
H650 C657 0.950 . S
C651 C649 1.387 . S
C651 C653 1.390 . S
C651 H655 0.950 . S
H652 C648 0.950 . S
C653 C651 1.390 . S
C653 C654 1.387 . S
C653 H656 0.950 . S
C654 C653 1.387 . S
C654 C657 1.387 1_545 S
H655 C651 0.950 . S
H656 C653 0.950 . S
C657 C648 1.390 . S
C657 H650 0.950 . S
C657 C654 1.387 1_565 S
C658 C659 1.387 . S
C658 H662 0.950 . S
C658 C667 1.387 1_655 S
C659 C658 1.387 . S
C659 C661 1.387 . S
H660 C667 0.950 . S
C661 C659 1.387 . S
C661 C663 1.390 . S
C661 H665 0.950 . S
H662 C658 0.950 . S
C663 C661 1.390 . S
C663 C664 1.387 . S
C663 H666 0.950 . S
C664 C663 1.387 . S
C664 C667 1.390 1_655 S
H665 C661 0.950 . S
H666 C663 0.950 . S
C667 C658 1.387 1_455 S
C667 H660 0.950 . S
C667 C664 1.390 1_455 S
C668 C669 1.387 . S
C668 H672 0.950 . S
C668 C677 1.390 . S
C669 C668 1.387 . S
C669 C671 1.387 . S
H670 C677 0.950 . S
C671 C669 1.387 . S
C671 C673 1.390 . S
C671 H675 0.950 . S
H672 C668 0.950 . S
C673 C671 1.390 . S
C673 C674 1.387 . S
C673 H676 0.950 . S
C674 C673 1.387 . S
C674 C677 1.387 . S
H675 C671 0.950 . S
H676 C673 0.950 . S
C677 C668 1.390 . S
C677 H670 0.950 . S
C677 C674 1.387 . S
C678 C679 1.387 . S
C678 H682 0.950 . S
C678 C687 1.390 . S
C679 C678 1.387 . S
C679 C681 1.387 . S
H680 C687 0.950 . S
C681 C679 1.387 . S
C681 C683 1.390 . S
C681 H685 0.950 . S
H682 C678 0.950 . S
C683 C681 1.390 . S
C683 C684 1.387 . S
C683 H686 0.950 . S
C684 C683 1.387 . S
C684 C687 1.387 . S
H685 C681 0.950 . S
H686 C683 0.950 . S
C687 C678 1.390 . S
C687 H680 0.950 . S
C687 C684 1.387 . S
C688 C689 1.387 . S
C688 H692 0.950 . S
C688 C697 1.390 . S
C689 C688 1.387 . S
C689 C691 1.387 . S
H690 C697 0.950 . S
C691 C689 1.387 . S
C691 C693 1.390 . S
C691 H695 0.950 . S
H692 C688 0.950 . S
C693 C691 1.390 . S
C693 C694 1.387 . S
C693 H696 0.950 . S
C694 C693 1.387 . S
C694 C697 1.387 . S
H695 C691 0.950 . S
H696 C693 0.950 . S
C697 C688 1.390 . S
C697 H690 0.950 . S
C697 C694 1.387 . S
C698 C699 1.387 . S
C698 H702 0.950 . S
C698 C707 1.390 . S
C699 C698 1.387 . S
C699 C701 1.387 . S
H700 C707 0.950 . S
C701 C699 1.387 . S
C701 C703 1.390 . S
C701 H705 0.950 . S
H702 C698 0.950 . S
C703 C701 1.390 . S
C703 C704 1.387 . S
C703 H706 0.950 . S
C704 C703 1.387 . S
C704 C707 1.387 . S
H705 C701 0.950 . S
H706 C703 0.950 . S
C707 C698 1.390 . S
C707 H700 0.950 . S
C707 C704 1.387 . S
C708 C709 1.387 . S
C708 H712 0.950 . S
C708 C717 1.390 . S
C709 C708 1.387 . S
C709 C711 1.387 . S
H710 C717 0.950 . S
C711 C709 1.387 . S
C711 C713 1.390 . S
C711 H715 0.950 . S
H712 C708 0.950 . S
C713 C711 1.390 . S
C713 C714 1.387 . S
C713 H716 0.950 . S
C714 C713 1.387 . S
C714 C717 1.387 . S
H715 C711 0.950 . S
H716 C713 0.950 . S
C717 C708 1.390 . S
C717 H710 0.950 . S
C717 C714 1.387 . S
C718 C719 1.387 . S
C718 H722 0.950 . S
C718 C727 1.390 . S
C719 C718 1.387 . S
C719 C721 1.387 . S
H720 C727 0.950 . S
C721 C719 1.387 . S
C721 C723 1.390 . S
C721 H725 0.950 . S
H722 C718 0.950 . S
C723 C721 1.390 . S
C723 C724 1.387 . S
C723 H726 0.950 . S
C724 C723 1.387 . S
C724 C727 1.387 . S
H725 C721 0.950 . S
H726 C723 0.950 . S
C727 C718 1.390 . S
C727 H720 0.950 . S
C727 C724 1.387 . S
C728 C729 1.387 . S
C728 H732 0.950 . S
C728 C737 1.390 . S
C729 C728 1.387 . S
C729 C731 1.387 . S
H730 C737 0.950 . S
C731 C729 1.387 . S
C731 C733 1.390 . S
C731 H735 0.950 . S
H732 C728 0.950 . S
C733 C731 1.390 . S
C733 C734 1.387 . S
C733 H736 0.950 . S
C734 C733 1.387 . S
C734 C737 1.387 . S
H735 C731 0.950 . S
H736 C733 0.950 . S
C737 C728 1.390 . S
C737 H730 0.950 . S
C737 C734 1.387 . S
C738 C739 1.387 . S
C738 H742 0.950 . S
C738 C747 1.390 . S
C739 C738 1.387 . S
C739 C741 1.387 . S
H740 C747 0.950 . S
C741 C739 1.387 . S
C741 C743 1.390 . S
C741 H745 0.950 . S
H742 C738 0.950 . S
C743 C741 1.390 . S
C743 C744 1.387 . S
C743 H746 0.950 . S
C744 C743 1.387 . S
C744 C747 1.387 . S
H745 C741 0.950 . S
H746 C743 0.950 . S
C747 C738 1.390 . S
C747 H740 0.950 . S
C747 C744 1.387 . S
C748 C749 1.387 . S
C748 H752 0.950 . S
C748 C757 1.390 . S
C749 C748 1.387 . S
C749 C751 1.387 . S
H750 C757 0.950 . S
C751 C749 1.387 . S
C751 C753 1.390 . S
C751 H755 0.950 . S
H752 C748 0.950 . S
C753 C751 1.390 . S
C753 C754 1.387 . S
C753 H756 0.950 . S
C754 C753 1.387 . S
C754 C757 1.387 . S
H755 C751 0.950 . S
H756 C753 0.950 . S
C757 C748 1.390 . S
C757 H750 0.950 . S
C757 C754 1.387 . S
C758 C759 1.387 . S
C758 H762 0.950 . S
C758 C767 1.390 . S
C759 C758 1.387 . S
C759 C761 1.387 . S
H760 C767 0.950 . S
C761 C759 1.387 . S
C761 C763 1.390 . S
C761 H765 0.950 . S
H762 C758 0.950 . S
C763 C761 1.390 . S
C763 C764 1.387 . S
C763 H766 0.950 . S
C764 C763 1.387 . S
C764 C767 1.387 . S
H765 C761 0.950 . S
H766 C763 0.950 . S
C767 C758 1.390 . S
C767 H760 0.950 . S
C767 C764 1.387 . S
C768 C769 1.387 . S
C768 H772 0.950 . S
C768 C777 1.390 . S
C769 C768 1.387 . S
C769 C771 1.387 . S
H770 C777 0.950 . S
C771 C769 1.387 . S
C771 C773 1.390 . S
C771 H775 0.950 . S
H772 C768 0.950 . S
C773 C771 1.390 . S
C773 C774 1.387 . S
C773 H776 0.950 . S
C774 C773 1.387 . S
C774 C777 1.387 . S
H775 C771 0.950 . S
H776 C773 0.950 . S
C777 C768 1.390 . S
C777 H770 0.950 . S
C777 C774 1.387 . S
C778 C779 1.387 . S
C778 H782 0.950 . S
C778 C787 1.390 . S
C779 C778 1.387 . S
C779 C781 1.387 . S
H780 C787 0.950 . S
C781 C779 1.387 . S
C781 C783 1.390 . S
C781 H785 0.950 . S
H782 C778 0.950 . S
C783 C781 1.390 . S
C783 C784 1.387 . S
C783 H786 0.950 . S
C784 C783 1.387 . S
C784 C787 1.387 . S
H785 C781 0.950 . S
H786 C783 0.950 . S
C787 C778 1.390 . S
C787 H780 0.950 . S
C787 C784 1.387 . S
C788 C789 1.387 . S
C788 H792 0.950 . S
C788 C797 1.390 . S
C789 C788 1.387 . S
C789 C791 1.387 . S
H790 C797 0.950 . S
C791 C789 1.387 . S
C791 C793 1.390 . S
C791 H795 0.950 . S
H792 C788 0.950 . S
C793 C791 1.390 . S
C793 C794 1.387 . S
C793 H796 0.950 . S
C794 C793 1.387 . S
C794 C797 1.387 . S
H795 C791 0.950 . S
H796 C793 0.950 . S
C797 C788 1.390 . S
C797 H790 0.950 . S
C797 C794 1.387 . S
C798 C799 1.387 . S
C798 H802 0.950 . S
C798 C807 1.390 . S
C799 C798 1.387 . S
C799 C801 1.387 . S
H800 C807 0.950 . S
C801 C799 1.387 . S
C801 C803 1.390 . S
C801 H805 0.950 . S
H802 C798 0.950 . S
C803 C801 1.390 . S
C803 C804 1.387 . S
C803 H806 0.950 . S
C804 C803 1.387 . S
C804 C807 1.387 . S
H805 C801 0.950 . S
H806 C803 0.950 . S
C807 C798 1.390 . S
C807 H800 0.950 . S
C807 C804 1.387 . S
C808 C809 1.387 . S
C808 H812 0.950 . S
C808 C817 1.390 . S
C809 C808 1.387 . S
C809 C811 1.387 . S
H810 C817 0.950 . S
C811 C809 1.387 . S
C811 C813 1.390 . S
C811 H815 0.950 . S
H812 C808 0.950 . S
C813 C811 1.390 . S
C813 C814 1.387 . S
C813 H816 0.950 . S
C814 C813 1.387 . S
C814 C817 1.387 . S
H815 C811 0.950 . S
H816 C813 0.950 . S
C817 C808 1.390 . S
C817 H810 0.950 . S
C817 C814 1.387 . S
C818 C819 1.387 . S
C818 H822 0.950 . S
C818 C827 1.390 . S
C819 C818 1.387 . S
C819 C821 1.387 . S
H820 C827 0.950 . S
C821 C819 1.387 . S
C821 C823 1.390 . S
C821 H825 0.950 . S
H822 C818 0.950 . S
C823 C821 1.390 . S
C823 C824 1.387 . S
C823 H826 0.950 . S
C824 C823 1.387 . S
C824 C827 1.387 . S
H825 C821 0.950 . S
H826 C823 0.950 . S
C827 C818 1.390 . S
C827 H820 0.950 . S
C827 C824 1.387 . S
C828 C829 1.387 . S
C828 H832 0.950 . S
C828 C837 1.390 . S
C829 C828 1.387 . S
C829 C831 1.387 . S
H830 C837 0.950 . S
C831 C829 1.387 . S
C831 C833 1.390 . S
C831 H835 0.950 . S
H832 C828 0.950 . S
C833 C831 1.390 . S
C833 C834 1.387 . S
C833 H836 0.950 . S
C834 C833 1.387 . S
C834 C837 1.387 . S
H835 C831 0.950 . S
H836 C833 0.950 . S
C837 C828 1.390 . S
C837 H830 0.950 . S
C837 C834 1.387 . S
C838 C839 1.387 . S
C838 H842 0.950 . S
C838 C847 1.390 . S
C839 C838 1.387 . S
C839 C841 1.387 . S
H840 C847 0.950 . S
C841 C839 1.387 . S
C841 C843 1.390 . S
C841 H845 0.950 . S
H842 C838 0.950 . S
C843 C841 1.390 . S
C843 C844 1.387 . S
C843 H846 0.950 . S
C844 C843 1.387 . S
C844 C847 1.387 . S
H845 C841 0.950 . S
H846 C843 0.950 . S
C847 C838 1.390 . S
C847 H840 0.950 . S
C847 C844 1.387 . S
C848 C849 1.387 . S
C848 H852 0.950 . S
C848 C857 1.390 . S
C849 C848 1.387 . S
C849 C851 1.387 . S
H850 C857 0.950 . S
C851 C849 1.387 . S
C851 C853 1.390 . S
C851 H855 0.950 . S
H852 C848 0.950 . S
C853 C851 1.390 . S
C853 C854 1.387 . S
C853 H856 0.950 . S
C854 C853 1.387 . S
C854 C857 1.387 . S
H855 C851 0.950 . S
H856 C853 0.950 . S
C857 C848 1.390 . S
C857 H850 0.950 . S
C857 C854 1.387 . S
C858 C859 1.387 . S
C858 H862 0.950 . S
C858 C867 1.390 . S
C859 C858 1.387 . S
C859 C861 1.387 . S
H860 C867 0.950 . S
C861 C859 1.387 . S
C861 C863 1.390 . S
C861 H865 0.950 . S
H862 C858 0.950 . S
C863 C861 1.390 . S
C863 C864 1.387 . S
C863 H866 0.950 . S
C864 C863 1.387 . S
C864 C867 1.387 . S
H865 C861 0.950 . S
H866 C863 0.950 . S
C867 C858 1.390 . S
C867 H860 0.950 . S
C867 C864 1.387 . S
C868 C869 1.387 . S
C868 H872 0.950 . S
C868 C877 1.390 . S
C869 C868 1.387 . S
C869 C871 1.387 . S
H870 C877 0.950 . S
C871 C869 1.387 . S
C871 C873 1.390 . S
C871 H875 0.950 . S
H872 C868 0.950 . S
C873 C871 1.390 . S
C873 C874 1.387 . S
C873 H876 0.950 . S
C874 C873 1.387 . S
C874 C877 1.387 . S
H875 C871 0.950 . S
H876 C873 0.950 . S
C877 C868 1.390 . S
C877 H870 0.950 . S
C877 C874 1.387 . S
C878 C879 1.387 . S
C878 H882 0.950 . S
C878 C887 1.390 . S
C879 C878 1.387 . S
C879 C881 1.387 . S
H880 C887 0.950 . S
C881 C879 1.387 . S
C881 C883 1.390 . S
C881 H885 0.950 . S
H882 C878 0.950 . S
C883 C881 1.390 . S
C883 C884 1.387 . S
C883 H886 0.950 . S
C884 C883 1.387 . S
C884 C887 1.387 . S
H885 C881 0.950 . S
H886 C883 0.950 . S
C887 C878 1.390 . S
C887 H880 0.950 . S
C887 C884 1.387 . S
C888 C889 1.387 . S
C888 H892 0.950 . S
C888 C897 1.390 . S
C889 C888 1.387 . S
C889 C891 1.387 . S
H890 C897 0.950 . S
C891 C889 1.387 . S
C891 C893 1.390 . S
C891 H895 0.950 . S
H892 C888 0.950 . S
C893 C891 1.390 . S
C893 C894 1.387 . S
C893 H896 0.950 . S
C894 C893 1.387 . S
C894 C897 1.387 . S
H895 C891 0.950 . S
H896 C893 0.950 . S
C897 C888 1.390 . S
C897 H890 0.950 . S
C897 C894 1.387 . S
C898 C899 1.387 . S
C898 H902 0.950 . S
C898 C907 1.390 . S
C899 C898 1.387 . S
C899 C901 1.387 . S
H900 C907 0.950 . S
C901 C899 1.387 . S
C901 C903 1.390 . S
C901 H905 0.950 . S
H902 C898 0.950 . S
C903 C901 1.390 . S
C903 C904 1.387 . S
C903 H906 0.950 . S
C904 C903 1.387 . S
C904 C907 1.387 . S
H905 C901 0.950 . S
H906 C903 0.950 . S
C907 C898 1.390 . S
C907 H900 0.950 . S
C907 C904 1.387 . S
C908 C909 1.387 . S
C908 H912 0.950 . S
C908 C917 1.390 . S
C909 C908 1.387 . S
C909 C911 1.387 . S
H910 C917 0.950 . S
C911 C909 1.387 . S
C911 C913 1.390 . S
C911 H915 0.950 . S
H912 C908 0.950 . S
C913 C911 1.390 . S
C913 C914 1.387 . S
C913 H916 0.950 . S
C914 C913 1.387 . S
C914 C917 1.387 . S
H915 C911 0.950 . S
H916 C913 0.950 . S
C917 C908 1.390 . S
C917 H910 0.950 . S
C917 C914 1.387 . S
C918 C919 1.387 . S
C918 H922 0.950 . S
C918 C927 1.390 . S
C919 C918 1.387 . S
C919 C921 1.387 . S
H920 C927 0.950 . S
C921 C919 1.387 . S
C921 C923 1.390 . S
C921 H925 0.937 1_554 S
H922 C918 0.950 . S
C923 C921 1.390 . S
C923 C924 1.387 . S
C923 H926 0.950 . S
C924 C923 1.387 . S
C924 C927 1.387 . S
H925 C921 0.937 1_556 S
H926 C923 0.950 . S
C927 C918 1.390 . S
C927 H920 0.950 . S
C927 C924 1.387 . S
C928 C929 1.387 . S
C928 H932 0.950 . S
C928 C937 1.390 . S
C929 C928 1.387 . S
C929 C931 1.387 . S
H930 C937 0.950 . S
C931 C929 1.387 . S
C931 C933 1.390 . S
C931 H935 0.950 . S
H932 C928 0.950 . S
C933 C931 1.390 . S
C933 C934 1.387 . S
C933 H936 0.950 . S
C934 C933 1.387 . S
C934 C937 1.387 . S
H935 C931 0.950 . S
H936 C933 0.950 . S
C937 C928 1.390 . S
C937 H930 0.950 . S
C937 C934 1.387 . S
C938 C939 1.387 . S
C938 H942 0.950 . S
C938 C947 1.390 . S
C939 C938 1.387 . S
C939 C941 1.387 . S
H940 C947 0.950 . S
C941 C939 1.387 . S
C941 C943 1.390 . S
C941 H945 0.950 1_554 S
H942 C938 0.950 . S
C943 C941 1.390 . S
C943 C944 1.387 . S
C943 H946 0.950 . S
C944 C943 1.387 . S
C944 C947 1.387 . S
H945 C941 0.950 1_556 S
H946 C943 0.950 . S
C947 C938 1.390 . S
C947 H940 0.950 . S
C947 C944 1.387 . S
C948 C949 1.387 . S
C948 H952 0.950 . S
C948 C957 1.390 . S
C949 C948 1.387 . S
C949 C951 1.387 . S
H950 C957 0.950 . S
C951 C949 1.387 . S
C951 C953 1.390 . S
C951 H955 0.950 1_556 S
H952 C948 0.950 . S
C953 C951 1.390 . S
C953 C954 1.387 . S
C953 H956 0.950 . S
C954 C953 1.387 . S
C954 C957 1.387 . S
H955 C951 0.950 1_554 S
H956 C953 0.950 . S
C957 C948 1.390 . S
C957 H950 0.950 . S
C957 C954 1.387 . S
C958 C959 1.399 . S
C958 H962 0.931 1_556 S
C958 C967 1.398 . S
C959 C958 1.399 . S
C959 C961 1.387 . S
H960 C967 0.950 . S
C961 C959 1.387 . S
C961 C963 1.390 . S
C961 H965 0.950 . S
H962 C958 0.931 1_554 S
C963 C961 1.390 . S
C963 C964 1.387 . S
C963 H966 0.950 . S
C964 C963 1.387 . S
C964 C967 1.387 . S
H965 C961 0.950 . S
H966 C963 0.950 . S
C967 C958 1.398 . S
C967 H960 0.950 . S
C967 C964 1.387 . S
C968 C969 1.387 . S
C968 H972 0.950 . S
C968 C977 1.390 . S
C969 C968 1.387 . S
C969 C971 1.387 . S
H970 C977 0.950 . S
C971 C969 1.387 . S
C971 C973 1.390 . S
C971 H975 0.950 . S
H972 C968 0.950 . S
C973 C971 1.390 . S
C973 C974 1.387 . S
C973 H976 0.950 . S
C974 C973 1.387 . S
C974 C977 1.387 . S
H975 C971 0.950 . S
H976 C973 0.950 . S
C977 C968 1.390 . S
C977 H970 0.950 . S
C977 C974 1.387 . S
C978 C979 1.387 . S
C978 H982 0.950 1_556 S
C978 C987 1.390 . S
C979 C978 1.387 . S
C979 C981 1.387 . S
H980 C987 0.950 . S
C981 C979 1.387 . S
C981 C983 1.390 . S
C981 H985 0.950 . S
H982 C978 0.950 1_554 S
C983 C981 1.390 . S
C983 C984 1.387 . S
C983 H986 0.950 . S
C984 C983 1.387 . S
C984 C987 1.387 . S
H985 C981 0.950 . S
H986 C983 0.950 . S
C987 C978 1.390 . S
C987 H980 0.950 . S
C987 C984 1.387 . S
C988 C989 1.387 . S
C988 H992 0.950 . S
C988 C997 1.390 . S
C989 C988 1.387 . S
C989 C991 1.407 . S
H990 C997 0.950 . S
C991 C989 1.407 . S
C991 C993 1.398 . S
C991 H995 0.923 1_556 S
H992 C988 0.950 . S
C993 C991 1.398 . S
C993 C994 1.387 . S
C993 H996 0.950 1_556 S
C994 C993 1.387 . S
C994 C997 1.387 . S
H995 C991 0.923 1_554 S
H996 C993 0.950 1_554 S
C997 C988 1.390 . S
C997 H990 0.950 . S
C997 C994 1.387 . S
C998 C999 1.387 . S
C998 H1002 0.950 1_556 S
C998 C1007 1.390 . S
C999 C998 1.387 . S
C999 C1001 1.387 . S
H1000 C1007 0.950 . S
C1001 C999 1.387 . S
C1001 C1003 1.390 . S
C1001 H1005 0.950 . S
H1002 C998 0.950 1_554 S
C1003 C1001 1.390 . S
C1003 C1004 1.387 . S
C1003 H1006 0.950 . S
C1004 C1003 1.387 . S
C1004 C1007 1.387 . S
H1005 C1001 0.950 . S
H1006 C1003 0.950 . S
C1007 C998 1.390 . S
C1007 H1000 0.950 . S
C1007 C1004 1.387 . S
C1008 C1009 1.387 . S
C1008 H1012 0.950 . S
C1008 C1017 1.390 . S
C1009 C1008 1.387 . S
C1009 C1011 1.387 . S
H1010 C1017 0.950 . S
C1011 C1009 1.387 . S
C1011 C1013 1.390 . S
C1011 H1015 0.950 1_554 S
H1012 C1008 0.950 . S
C1013 C1011 1.390 . S
C1013 C1014 1.387 . S
C1013 H1016 0.950 . S
C1014 C1013 1.387 . S
C1014 C1017 1.387 . S
H1015 C1011 0.950 1_556 S
H1016 C1013 0.950 . S
C1017 C1008 1.390 . S
C1017 H1010 0.950 . S
C1017 C1014 1.387 . S
C1018 C1019 1.387 . S
C1018 H1022 0.950 1_554 S
C1018 C1027 1.390 . S
C1019 C1018 1.387 . S
C1019 C1021 1.387 . S
H1020 C1027 0.950 . S
C1021 C1019 1.387 . S
C1021 C1023 1.390 . S
C1021 H1025 0.950 . S
H1022 C1018 0.950 1_556 S
C1023 C1021 1.390 . S
C1023 C1024 1.387 . S
C1023 H1026 0.950 . S
C1024 C1023 1.387 . S
C1024 C1027 1.387 . S
H1025 C1021 0.950 . S
H1026 C1023 0.950 . S
C1027 C1018 1.390 . S
C1027 H1020 0.950 . S
C1027 C1024 1.387 . S
C1028 C1029 1.387 . S
C1028 H1032 0.950 . S
C1028 C1037 1.390 . S
C1029 C1028 1.387 . S
C1029 C1031 1.387 . S
H1030 C1037 0.950 . S
C1031 C1029 1.387 . S
C1031 C1033 1.390 . S
C1031 H1035 0.950 1_554 S
H1032 C1028 0.950 . S
C1033 C1031 1.390 . S
C1033 C1034 1.387 . S
C1033 H1036 0.950 . S
C1034 C1033 1.387 . S
C1034 C1037 1.387 . S
H1035 C1031 0.950 1_556 S
H1036 C1033 0.950 . S
C1037 C1028 1.390 . S
C1037 H1030 0.950 . S
C1037 C1034 1.387 . S
C1038 C1039 1.387 . S
C1038 H1042 0.950 . S
C1038 C1047 1.390 . S
C1039 C1038 1.387 . S
C1039 C1041 1.387 . S
H1040 C1047 0.950 . S
C1041 C1039 1.387 . S
C1041 C1043 1.390 . S
C1041 H1045 0.950 . S
H1042 C1038 0.950 . S
C1043 C1041 1.390 . S
C1043 C1044 1.387 . S
C1043 H1046 0.950 . S
C1044 C1043 1.387 . S
C1044 C1047 1.387 . S
H1045 C1041 0.950 . S
H1046 C1043 0.950 . S
C1047 C1038 1.390 . S
C1047 H1040 0.950 . S
C1047 C1044 1.387 . S
C1048 C1049 1.387 . S
C1048 H1052 0.950 . S
C1048 C1057 1.390 . S
C1049 C1048 1.387 . S
C1049 C1051 1.387 . S
H1050 C1057 0.950 . S
C1051 C1049 1.387 . S
C1051 C1053 1.390 . S
C1051 H1055 0.950 . S
H1052 C1048 0.950 . S
C1053 C1051 1.390 . S
C1053 C1054 1.387 . S
C1053 H1056 0.950 . S
C1054 C1053 1.387 . S
C1054 C1057 1.387 . S
H1055 C1051 0.950 . S
H1056 C1053 0.950 . S
C1057 C1048 1.390 . S
C1057 H1050 0.950 . S
C1057 C1054 1.387 . S
C1058 C1059 1.387 . S
C1058 H1062 0.950 . S
C1058 C1067 1.390 . S
C1059 C1058 1.387 . S
C1059 C1061 1.387 . S
H1060 C1067 0.950 . S
C1061 C1059 1.387 . S
C1061 C1063 1.390 . S
C1061 H1065 0.950 . S
H1062 C1058 0.950 . S
C1063 C1061 1.390 . S
C1063 C1064 1.387 . S
C1063 H1066 0.950 . S
C1064 C1063 1.387 . S
C1064 C1067 1.387 . S
H1065 C1061 0.950 . S
H1066 C1063 0.950 . S
C1067 C1058 1.390 . S
C1067 H1060 0.950 . S
C1067 C1064 1.387 . S
C1068 C1069 1.387 1_655 S
C1068 H1072 0.950 . S
C1068 C1077 1.390 . S
C1069 C1068 1.387 1_455 S
C1069 C1071 1.387 . S
H1070 C1077 0.950 . S
C1071 C1069 1.387 . S
C1071 C1073 1.390 . S
C1071 H1075 0.950 . S
H1072 C1068 0.950 . S
C1073 C1071 1.390 . S
C1073 C1074 1.387 . S
C1073 H1076 0.950 . S
C1074 C1073 1.387 . S
C1074 C1077 1.387 1_455 S
H1075 C1071 0.950 . S
H1076 C1073 0.950 . S
C1077 C1068 1.390 . S
C1077 H1070 0.950 . S
C1077 C1074 1.387 1_655 S
C1078 C1079 1.387 . S
C1078 H1082 0.950 . S
C1078 C1087 1.390 . S
C1079 C1078 1.387 . S
C1079 C1081 1.387 . S
H1080 C1087 0.950 . S
C1081 C1079 1.387 . S
C1081 C1083 1.390 . S
C1081 H1085 0.950 . S
H1082 C1078 0.950 . S
C1083 C1081 1.390 . S
C1083 C1084 1.387 . S
C1083 H1086 0.950 . S
C1084 C1083 1.387 . S
C1084 C1087 1.387 . S
H1085 C1081 0.950 . S
H1086 C1083 0.950 . S
C1087 C1078 1.390 . S
C1087 H1080 0.950 . S
C1087 C1084 1.387 . S
C1088 C1089 1.387 1_545 S
C1088 H1092 0.950 . S
C1088 C1097 1.390 . S
C1089 C1088 1.387 1_565 S
C1089 C1091 1.387 . S
H1090 C1097 0.950 . S
C1091 C1089 1.387 . S
C1091 C1093 1.390 . S
C1091 H1095 0.950 . S
H1092 C1088 0.950 . S
C1093 C1091 1.390 . S
C1093 C1094 1.387 . S
C1093 H1096 0.950 . S
C1094 C1093 1.387 . S
C1094 C1097 1.387 1_565 S
H1095 C1091 0.950 . S
H1096 C1093 0.950 . S
C1097 C1088 1.390 . S
C1097 H1090 0.950 . S
C1097 C1094 1.387 1_545 S
C1098 C1099 1.387 1_545 S
C1098 H1102 0.950 . S
C1098 C1107 1.390 . S
C1099 C1098 1.387 1_565 S
C1099 C1101 1.387 . S
H1100 C1107 0.950 . S
C1101 C1099 1.387 . S
C1101 C1103 1.390 . S
C1101 H1105 0.950 . S
H1102 C1098 0.950 . S
C1103 C1101 1.390 . S
C1103 C1104 1.387 . S
C1103 H1106 0.950 . S
C1104 C1103 1.387 . S
C1104 C1107 1.387 1_565 S
H1105 C1101 0.950 . S
H1106 C1103 0.950 . S
C1107 C1098 1.390 . S
C1107 H1100 0.950 . S
C1107 C1104 1.387 1_545 S
C1108 C1109 1.387 . S
C1108 H1112 0.950 . S
C1108 C1117 1.390 . S
C1109 C1108 1.387 . S
C1109 C1111 1.387 . S
H1110 C1117 0.950 . S
C1111 C1109 1.387 . S
C1111 C1113 1.390 1_455 S
C1111 H1115 0.941 1_455 S
H1112 C1108 0.950 . S
C1113 C1111 1.390 1_655 S
C1113 C1114 1.379 1_655 S
C1113 H1116 0.950 . S
C1114 C1113 1.379 1_455 S
C1114 C1117 1.382 . S
H1115 C1111 0.941 1_655 S
H1116 C1113 0.950 . S
C1117 C1108 1.390 . S
C1117 H1110 0.950 . S
C1117 C1114 1.382 . S
C1118 C1119 1.387 . S
C1118 H1122 0.950 . S
C1118 C1127 1.390 . S
C1119 C1118 1.387 . S
C1119 C1121 1.387 . S
H1120 C1127 0.950 . S
C1121 C1119 1.387 . S
C1121 C1123 1.390 . S
C1121 H1125 0.950 . S
H1122 C1118 0.950 . S
C1123 C1121 1.390 . S
C1123 C1124 1.387 . S
C1123 H1126 0.950 . S
C1124 C1123 1.387 . S
C1124 C1127 1.387 . S
H1125 C1121 0.950 . S
H1126 C1123 0.950 . S
C1127 C1118 1.390 . S
C1127 H1120 0.950 . S
C1127 C1124 1.387 . S
C1128 C1129 1.387 . S
C1128 H1132 0.950 . S
C1128 C1137 1.390 . S
C1129 C1128 1.387 . S
C1129 C1131 1.387 . S
H1130 C1137 0.950 . S
C1131 C1129 1.387 . S
C1131 C1133 1.390 . S
C1131 H1135 0.950 . S
H1132 C1128 0.950 . S
C1133 C1131 1.390 . S
C1133 C1134 1.387 . S
C1133 H1136 0.950 . S
C1134 C1133 1.387 . S
C1134 C1137 1.387 . S
H1135 C1131 0.950 . S
H1136 C1133 0.950 . S
C1137 C1128 1.390 . S
C1137 H1130 0.950 . S
C1137 C1134 1.387 . S
C1138 C1139 1.387 . S
C1138 H1142 0.950 . S
C1138 C1147 1.390 . S
C1139 C1138 1.387 . S
C1139 C1141 1.387 . S
H1140 C1147 0.950 . S
C1141 C1139 1.387 . S
C1141 C1143 1.390 . S
C1141 H1145 0.950 . S
H1142 C1138 0.950 . S
C1143 C1141 1.390 . S
C1143 C1144 1.387 . S
C1143 H1146 0.950 . S
C1144 C1143 1.387 . S
C1144 C1147 1.387 . S
H1145 C1141 0.950 . S
H1146 C1143 0.950 . S
C1147 C1138 1.390 . S
C1147 H1140 0.950 . S
C1147 C1144 1.387 . S
C1148 C1149 1.387 . S
C1148 H1152 0.950 . S
C1148 C1157 1.390 . S
C1149 C1148 1.387 . S
C1149 C1151 1.387 . S
H1150 C1157 0.950 . S
C1151 C1149 1.387 . S
C1151 C1153 1.390 . S
C1151 H1155 0.950 . S
H1152 C1148 0.950 . S
C1153 C1151 1.390 . S
C1153 C1154 1.387 . S
C1153 H1156 0.950 . S
C1154 C1153 1.387 . S
C1154 C1157 1.387 . S
H1155 C1151 0.950 . S
H1156 C1153 0.950 . S
C1157 C1148 1.390 . S
C1157 H1150 0.950 . S
C1157 C1154 1.387 . S
C1158 C1159 1.387 . S
C1158 H1162 0.950 . S
C1158 C1167 1.390 . S
C1159 C1158 1.387 . S
C1159 C1161 1.387 1_545 S
H1160 C1167 0.950 . S
C1161 C1159 1.387 1_565 S
C1161 C1163 1.390 . S
C1161 H1165 0.950 . S
H1162 C1158 0.950 . S
C1163 C1161 1.390 . S
C1163 C1164 1.387 1_565 S
C1163 H1166 0.950 . S
C1164 C1163 1.387 1_545 S
C1164 C1167 1.387 . S
H1165 C1161 0.950 . S
H1166 C1163 0.950 . S
C1167 C1158 1.390 . S
C1167 H1160 0.950 . S
C1167 C1164 1.387 . S
C1168 C1169 1.387 1_455 S
C1168 H1172 0.950 . S
C1168 C1177 1.390 . S
C1169 C1168 1.387 1_655 S
C1169 C1171 1.387 . S
H1170 C1177 0.950 . S
C1171 C1169 1.387 . S
C1171 C1173 1.390 . S
C1171 H1175 0.950 . S
H1172 C1168 0.950 . S
C1173 C1171 1.390 . S
C1173 C1174 1.387 . S
C1173 H1176 0.950 . S
C1174 C1173 1.387 . S
C1174 C1177 1.387 1_655 S
H1175 C1171 0.950 . S
H1176 C1173 0.950 . S
C1177 C1168 1.390 . S
C1177 H1170 0.950 . S
C1177 C1174 1.387 1_455 S
C1178 C1179 1.387 . S
C1178 H1182 0.950 . S
C1178 C1187 1.390 . S
C1179 C1178 1.387 . S
C1179 C1181 1.387 . S
H1180 C1187 0.950 . S
C1181 C1179 1.387 . S
C1181 C1183 1.390 . S
C1181 H1185 0.950 . S
H1182 C1178 0.950 . S
C1183 C1181 1.390 . S
C1183 C1184 1.387 . S
C1183 H1186 0.950 . S
C1184 C1183 1.387 . S
C1184 C1187 1.387 . S
H1185 C1181 0.950 . S
H1186 C1183 0.950 . S
C1187 C1178 1.390 . S
C1187 H1180 0.950 . S
C1187 C1184 1.387 . S
C1188 C1189 1.387 . S
C1188 H1192 0.950 . S
C1188 C1197 1.390 . S
C1189 C1188 1.387 . S
C1189 C1191 1.387 . S
H1190 C1197 0.950 . S
C1191 C1189 1.387 . S
C1191 C1193 1.390 . S
C1191 H1195 0.950 . S
H1192 C1188 0.950 . S
C1193 C1191 1.390 . S
C1193 C1194 1.387 . S
C1193 H1196 0.950 . S
C1194 C1193 1.387 . S
C1194 C1197 1.387 . S
H1195 C1191 0.950 . S
H1196 C1193 0.950 . S
C1197 C1188 1.390 . S
C1197 H1190 0.950 . S
C1197 C1194 1.387 . S
C1198 C1199 1.387 . S
C1198 H1202 0.950 . S
C1198 C1207 1.390 . S
C1199 C1198 1.387 . S
C1199 C1201 1.387 . S
H1200 C1207 0.950 . S
C1201 C1199 1.387 . S
C1201 C1203 1.390 . S
C1201 H1205 0.950 . S
H1202 C1198 0.950 . S
C1203 C1201 1.390 . S
C1203 C1204 1.387 . S
C1203 H1206 0.950 . S
C1204 C1203 1.387 . S
C1204 C1207 1.387 . S
H1205 C1201 0.950 . S
H1206 C1203 0.950 . S
C1207 C1198 1.390 . S
C1207 H1200 0.950 . S
C1207 C1204 1.387 . S
C1208 C1209 1.387 . S
C1208 H1212 0.950 . S
C1208 C1217 1.390 . S
C1209 C1208 1.387 . S
C1209 C1211 1.387 . S
H1210 C1217 0.950 . S
C1211 C1209 1.387 . S
C1211 C1213 1.390 . S
C1211 H1215 0.950 . S
H1212 C1208 0.950 . S
C1213 C1211 1.390 . S
C1213 C1214 1.387 . S
C1213 H1216 0.950 . S
C1214 C1213 1.387 . S
C1214 C1217 1.387 . S
H1215 C1211 0.950 . S
H1216 C1213 0.950 . S
C1217 C1208 1.390 . S
C1217 H1210 0.950 . S
C1217 C1214 1.387 . S
C1218 C1219 1.387 . S
C1218 H1222 0.950 . S
C1218 C1227 1.390 . S
C1219 C1218 1.387 . S
C1219 C1221 1.387 . S
H1220 C1227 0.950 . S
C1221 C1219 1.387 . S
C1221 C1223 1.390 . S
C1221 H1225 0.950 . S
H1222 C1218 0.950 . S
C1223 C1221 1.390 . S
C1223 C1224 1.387 . S
C1223 H1226 0.950 . S
C1224 C1223 1.387 . S
C1224 C1227 1.387 . S
H1225 C1221 0.950 . S
H1226 C1223 0.950 . S
C1227 C1218 1.390 . S
C1227 H1220 0.950 . S
C1227 C1224 1.387 . S
C1228 C1229 1.387 . S
C1228 H1232 0.950 . S
C1228 C1237 1.390 . S
C1229 C1228 1.387 . S
C1229 C1231 1.387 . S
H1230 C1237 0.950 . S
C1231 C1229 1.387 . S
C1231 C1233 1.390 . S
C1231 H1235 0.950 . S
H1232 C1228 0.950 . S
C1233 C1231 1.390 . S
C1233 C1234 1.387 . S
C1233 H1236 0.950 . S
C1234 C1233 1.387 . S
C1234 C1237 1.387 . S
H1235 C1231 0.950 . S
H1236 C1233 0.950 . S
C1237 C1228 1.390 . S
C1237 H1230 0.950 . S
C1237 C1234 1.387 . S
C1238 C1239 1.387 . S
C1238 H1242 0.950 . S
C1238 C1247 1.390 . S
C1239 C1238 1.387 . S
C1239 C1241 1.387 . S
H1240 C1247 0.950 . S
C1241 C1239 1.387 . S
C1241 C1243 1.390 . S
C1241 H1245 0.950 . S
H1242 C1238 0.950 . S
C1243 C1241 1.390 . S
C1243 C1244 1.387 . S
C1243 H1246 0.950 . S
C1244 C1243 1.387 . S
C1244 C1247 1.387 . S
H1245 C1241 0.950 . S
H1246 C1243 0.950 . S
C1247 C1238 1.390 . S
C1247 H1240 0.950 . S
C1247 C1244 1.387 . S
C1248 C1249 1.387 . S
C1248 H1252 0.950 . S
C1248 C1257 1.390 . S
C1249 C1248 1.387 . S
C1249 C1251 1.387 . S
H1250 C1257 0.950 . S
C1251 C1249 1.387 . S
C1251 C1253 1.390 . S
C1251 H1255 0.950 . S
H1252 C1248 0.950 . S
C1253 C1251 1.390 . S
C1253 C1254 1.387 . S
C1253 H1256 0.950 . S
C1254 C1253 1.387 . S
C1254 C1257 1.387 . S
H1255 C1251 0.950 . S
H1256 C1253 0.950 . S
C1257 C1248 1.390 . S
C1257 H1250 0.950 . S
C1257 C1254 1.387 . S
C1258 C1259 1.387 . S
C1258 H1262 0.950 . S
C1258 C1267 1.390 . S
C1259 C1258 1.387 . S
C1259 C1261 1.387 . S
H1260 C1267 0.950 . S
C1261 C1259 1.387 . S
C1261 C1263 1.390 . S
C1261 H1265 0.950 . S
H1262 C1258 0.950 . S
C1263 C1261 1.390 . S
C1263 C1264 1.387 . S
C1263 H1266 0.950 . S
C1264 C1263 1.387 . S
C1264 C1267 1.387 . S
H1265 C1261 0.950 . S
H1266 C1263 0.950 . S
C1267 C1258 1.390 . S
C1267 H1260 0.950 . S
C1267 C1264 1.387 . S
C1268 C1269 1.387 . S
C1268 H1272 0.950 . S
C1268 C1277 1.390 . S
C1269 C1268 1.387 . S
C1269 C1271 1.387 1_545 S
H1270 C1277 0.950 . S
C1271 C1269 1.387 1_565 S
C1271 C1273 1.390 . S
C1271 H1275 0.950 . S
H1272 C1268 0.950 . S
C1273 C1271 1.390 . S
C1273 C1274 1.387 1_565 S
C1273 H1276 0.950 . S
C1274 C1273 1.387 1_545 S
C1274 C1277 1.387 . S
H1275 C1271 0.950 . S
H1276 C1273 0.950 . S
C1277 C1268 1.390 . S
C1277 H1270 0.950 . S
C1277 C1274 1.387 . S
C559 C8 1.498 . S
C564 C403 1.555 . S
C569 C18 1.525 . S
C574 C428 1.551 . S
C584 C439 1.552 . S
C579 C31 1.514 . S
C589 C34 1.512 . S
C594 C464 1.568 . S
C599 C5 1.524 . S
C604 C482 1.561 . S
C609 C21 1.522 . S
C614 C493 1.561 . S
C619 C47 1.497 . S
C624 C475 1.568 1_455 S
C634 C500 1.544 . S
C629 C57 1.503 . S
C644 C457 1.557 1_565 S
C639 C70 1.512 . S
C649 C73 1.498 . S
C654 C446 1.566 1_545 S
C664 C410 1.558 1_655 S
C659 C44 1.504 . S
C669 C60 1.502 . S
C674 C421 1.554 . S
C679 C86 1.548 . S
C684 C511 1.584 . S
C689 C96 1.549 . S
C694 C536 1.561 . S
C704 C547 1.577 . S
C699 C109 1.593 . S
C709 C112 1.575 . S
C714 C248 1.611 . S
C719 C83 1.588 . S
C724 C266 1.594 . S
C729 C99 1.546 . S
C734 C277 1.580 . S
C739 C125 1.504 . S
C744 C259 1.556 . S
C749 C135 1.517 . S
C754 C284 1.557 . S
C764 C241 1.568 . S
C759 C148 1.546 . S
C774 C554 1.598 . S
C769 C151 1.551 . S
C784 C518 1.559 . S
C779 C122 1.541 . S
C794 C529 1.578 . S
C789 C138 1.530 . S
C799 C164 1.529 . S
C804 C295 1.567 . S
C809 C174 1.544 . S
C814 C320 1.565 . S
C819 C187 1.584 . S
C824 C331 1.575 . S
C829 C190 1.588 . S
C834 C356 1.625 . S
C844 C374 1.587 . S
C839 C161 1.588 . S
C854 C385 1.589 . S
C849 C177 1.556 . S
C864 C367 1.580 . S
C859 C203 1.525 . S
C874 C392 1.556 . S
C869 C213 1.527 . S
C879 C226 1.548 . S
C884 C349 1.563 . S
C894 C338 1.578 . S
C889 C229 1.531 . S
C899 C200 1.543 . S
C904 C302 1.573 . S
C914 C313 1.577 . S
C909 C216 1.529 . S
C924 C250 1.370 . S
C919 C0 1.377 . S
C929 C23 1.392 . S
C934 C268 1.312 . S
C944 C278 1.365 . S
C939 C36 1.444 . S
C954 C296 1.384 . S
C949 C26 1.401 . S
C964 C322 1.338 . S
C959 C10 1.418 . S
C974 C332 1.328 . S
C969 C13 1.356 . S
C979 C39 1.414 . S
C984 C340 1.379 . S
C989 C62 1.434 . S
C994 C304 1.317 . S
C999 C75 1.470 . S
C1004 C314 1.382 . S
C1009 C65 1.443 . S
C1014 C260 1.427 . S
C1024 C286 1.345 . S
C1019 C49 1.462 . S
C1029 C52 1.395 . S
C1034 C242 1.366 . S
C1044 C358 1.360 . S
C1039 C78 1.382 . S
C1049 C101 1.433 . S
C1054 C376 1.355 . S
C1059 C114 1.454 . S
C1064 C386 1.372 . S
C1074 C404 1.322 . S
C1069 C104 1.367 . S
C1079 C88 1.403 . S
C1084 C430 1.322 . S
C1089 C91 1.328 . S
C1094 C440 1.279 . S
C1099 C117 1.353 . S
C1104 C448 1.295 . S
C1109 C140 1.377 . S
C1114 C412 1.303 . S
C1124 C422 1.364 . S
C1119 C153 1.454 . S
C1129 C143 1.426 . S
C1134 C368 1.393 . S
C1139 C127 1.485 . S
C1144 C394 1.365 . S
C1154 C350 1.393 . S
C1149 C130 1.431 . S
C1164 C466 1.302 . S
C1159 C156 1.353 . S
C1169 C179 1.356 . S
C1174 C484 1.284 . S
C1179 C192 1.420 . S
C1184 C494 1.343 . S
C1194 C512 1.351 . S
C1189 C182 1.387 . S
C1204 C538 1.360 . S
C1199 C166 1.445 . S
C1209 C169 1.395 . S
C1214 C548 1.355 . S
C1219 C195 1.417 . S
C1224 C556 1.369 . S
C1229 C218 1.475 . S
C1234 C520 1.361 . S
C1244 C530 1.384 . S
C1239 C231 1.480 . S
C1254 C476 1.325 1_655 S
C1249 C221 1.367 . S
C1264 C502 1.329 . S
C1259 C205 1.442 . S
C1269 C208 1.336 . S
C1274 C458 1.297 1_545 S
