# Generated by pormake.
# Topology zzz, (3,6)-cn, num edge types: 1
# Building blocks:
#     Node 0, Type 0, BuildingBlock: CUQRIR_clean_linker_1, # of connection points: 3
#     Node 1, Type 0, BuildingBlock: CUQRIR_clean_linker_1, # of connection points: 3
#     Node 2, Type 0, BuildingBlock: CUQRIR_clean_linker_1, # of connection points: 3
#     Node 3, Type 0, BuildingBlock: CUQRIR_clean_linker_1, # of connection points: 3
#     Node 4, Type 0, BuildingBlock: CUQRIR_clean_linker_1, # of connection points: 3
#     Node 5, Type 0, BuildingBlock: CUQRIR_clean_linker_1, # of connection points: 3
#     Node 6, Type 0, BuildingBlock: CUQRIR_clean_linker_1, # of connection points: 3
#     Node 7, Type 0, BuildingBlock: CUQRIR_clean_linker_1, # of connection points: 3
#     Node 8, Type 1, BuildingBlock: HISSIN_clean_sbu_0, # of connection points: 6
#     Node 9, Type 1, BuildingBlock: HISSIN_clean_sbu_0, # of connection points: 6
#     Node 10, Type 1, BuildingBlock: HISSIN_clean_sbu_0, # of connection points: 6
#     Node 11, Type 1, BuildingBlock: HISSIN_clean_sbu_0, # of connection points: 6
#     Edge 12, Type (0, 1), BuildingBlock: XIVTED_clean_linker_0, # of connection points: 2
#     Edge 13, Type (0, 1), BuildingBlock: XIVTED_clean_linker_0, # of connection points: 2
#     Edge 14, Type (0, 1), BuildingBlock: XIVTED_clean_linker_0, # of connection points: 2
#     Edge 15, Type (0, 1), BuildingBlock: XIVTED_clean_linker_0, # of connection points: 2
#     Edge 16, Type (0, 1), BuildingBlock: XIVTED_clean_linker_0, # of connection points: 2
#     Edge 17, Type (0, 1), BuildingBlock: XIVTED_clean_linker_0, # of connection points: 2
#     Edge 18, Type (0, 1), BuildingBlock: XIVTED_clean_linker_0, # of connection points: 2
#     Edge 19, Type (0, 1), BuildingBlock: XIVTED_clean_linker_0, # of connection points: 2
#     Edge 20, Type (0, 1), BuildingBlock: XIVTED_clean_linker_0, # of connection points: 2
#     Edge 21, Type (0, 1), BuildingBlock: XIVTED_clean_linker_0, # of connection points: 2
#     Edge 22, Type (0, 1), BuildingBlock: XIVTED_clean_linker_0, # of connection points: 2
#     Edge 23, Type (0, 1), BuildingBlock: XIVTED_clean_linker_0, # of connection points: 2
#     Edge 24, Type (0, 1), BuildingBlock: XIVTED_clean_linker_0, # of connection points: 2
#     Edge 25, Type (0, 1), BuildingBlock: XIVTED_clean_linker_0, # of connection points: 2
#     Edge 26, Type (0, 1), BuildingBlock: XIVTED_clean_linker_0, # of connection points: 2
#     Edge 27, Type (0, 1), BuildingBlock: XIVTED_clean_linker_0, # of connection points: 2
#     Edge 28, Type (0, 1), BuildingBlock: XIVTED_clean_linker_0, # of connection points: 2
#     Edge 29, Type (0, 1), BuildingBlock: XIVTED_clean_linker_0, # of connection points: 2
#     Edge 30, Type (0, 1), BuildingBlock: XIVTED_clean_linker_0, # of connection points: 2
#     Edge 31, Type (0, 1), BuildingBlock: XIVTED_clean_linker_0, # of connection points: 2
#     Edge 32, Type (0, 1), BuildingBlock: XIVTED_clean_linker_0, # of connection points: 2
#     Edge 33, Type (0, 1), BuildingBlock: XIVTED_clean_linker_0, # of connection points: 2
#     Edge 34, Type (0, 1), BuildingBlock: XIVTED_clean_linker_0, # of connection points: 2
#     Edge 35, Type (0, 1), BuildingBlock: XIVTED_clean_linker_0, # of connection points: 2
# Relax obj value: 0.318
# Max RMSD: 0.202
# Mean RMSD: 0.108
data_MOF--net-zzz--node1-HISSIN_clean_sbu_0--node2-CUQRIR_clean_linker_1--edge1-XIVTED_clean_linker_0
_symmetry_space_group_name_H-M    P1
_symmetry_Int_Tables_number       1
_symmetry_cell_setting            triclinic
loop_
_symmetry_equiv_pos_as_xyz
'x, y, z'
_cell_length_a     46.308177
_cell_length_b     46.315543
_cell_length_c     14.512147
_cell_angle_alpha  90.003855
_cell_angle_beta   91.16543
_cell_angle_gamma 90.284883
loop_
_atom_site_label
_atom_site_type_symbol
_atom_site_fract_x
_atom_site_fract_y
_atom_site_fract_z
_atom_type_partial_charge
C0 C 0.7535 0.53907 0.38458 0.0
N1 N 0.78098 0.52991 0.40189 0.0
N2 N 0.74324 0.52846 0.30223 0.0
C3 C 0.7363 0.55689 0.44971 0.0
C4 C 0.76573 0.5129 0.27044 0.0
N5 N 0.78819 0.51357 0.33095 0.0
C6 C 0.7669 0.4992 0.17643 0.0
H7 H 0.71322 0.55032 0.44663 0.0
H8 H 0.73779 0.5799 0.42894 0.0
H9 H 0.74488 0.55481 0.52135 0.0
H10 H 0.75258 0.51057 0.12628 0.0
H11 H 0.75985 0.47633 0.18123 0.0
H12 H 0.78927 0.49952 0.1505 0.0
C13 C 1.02468 0.75039 0.39345 0.0
N14 N 0.03615 0.77709 0.4121 0.0
N15 N 0.03745 0.73808 0.31862 0.0
C16 C 1.0021 0.73594 0.45 0.0
C17 C 0.05663 0.75861 0.29237 0.0
N18 N 0.05607 0.78168 0.34913 0.0
C19 C 0.0739 0.75751 0.20549 0.0
H20 H 1.00561 0.71226 0.45191 0.0
H21 H 0.98059 0.73999 0.41768 0.0
H22 H 1.00224 0.74476 0.52111 0.0
H23 H 0.06301 0.74389 0.15223 0.0
H24 H 0.0955 0.74834 0.22166 0.0
H25 H 0.07708 0.77948 0.17682 0.0
C26 C 0.80841 0.03547 0.37769 0.0
N27 N 0.78336 0.04981 0.3946 0.0
N28 N 0.82269 0.04779 0.30594 0.0
C29 C 0.81937 1.01035 0.43301 0.0
C30 C 0.805 0.06963 0.27918 0.0
N31 N 0.78177 0.07121 0.33373 0.0
C32 C 0.80832 0.08693 0.19184 0.0
H33 H 0.81079 1.01085 0.50384 0.0
H34 H 0.84334 1.0104 0.43606 0.0
H35 H 0.81198 0.99006 0.39919 0.0
H36 H 0.82086 0.07491 0.14015 0.0
H37 H 0.81972 0.10748 0.20825 0.0
H38 H 0.78695 0.09227 0.16056 0.0
C39 C 0.5353 0.81418 0.4057 0.0
N40 N 0.52272 0.78806 0.42201 0.0
N41 N 0.52262 0.8273 0.33103 0.0
C42 C 0.55926 0.82707 0.46339 0.0
C43 C 0.50233 0.80793 0.30213 0.0
N44 N 0.50222 0.78453 0.35754 0.0
C45 C 0.48484 0.81039 0.21369 0.0
H46 H 0.55854 0.81887 0.53517 0.0
H47 H 0.55792 0.85099 0.46311 0.0
H48 H 0.58022 0.82077 0.43383 0.0
H49 H 0.49627 0.82365 0.1621 0.0
H50 H 0.4639 0.82079 0.2285 0.0
H51 H 0.4803 0.78883 0.1833 0.0
C52 C 0.31113 0.52471 0.07297 0.0
N53 N 0.28642 0.53883 0.04883 0.0
N54 N 0.32289 0.5359 0.1521 0.0
C55 C 0.32257 0.49889 1.02354 0.0
C56 C 0.30443 0.55727 0.1747 0.0
N57 N 0.28239 0.55898 0.11247 0.0
C58 C 0.30664 0.57481 0.26194 0.0
H59 H 0.31446 0.47906 0.05741 0.0
H60 H 0.34651 0.4986 0.02753 0.0
H61 H 0.31516 0.49876 0.95034 0.0
H62 H 0.32932 0.57628 0.28767 0.0
H63 H 0.29341 0.5643 0.31544 0.0
H64 H 0.29829 0.59693 0.2508 0.0
C65 C 0.04862 0.31335 0.06961 0.0
N66 N 0.04853 0.28387 0.06679 0.0
N67 N 0.0552 0.32319 0.15658 0.0
C68 C 0.04078 0.33235 0.98958 0.0
C69 C 0.0587 0.29855 0.20586 0.0
N70 N 0.05464 0.27498 0.15199 0.0
C71 C 0.06382 0.29758 0.30878 0.0
H72 H 0.04708 0.3221 0.9239 0.0
H73 H 0.05129 0.35383 0.99708 0.0
H74 H 1.01703 0.33542 0.98769 0.0
H75 H 0.04787 0.31147 0.34347 0.0
H76 H 0.08566 0.30621 0.32558 0.0
H77 H 0.06256 0.27535 0.3367 0.0
C78 C 0.26157 0.03066 0.15134 0.0
N79 N 0.28574 1.01522 0.13207 0.0
N80 N 0.24563 1.01709 0.21668 0.0
C81 C 0.25311 0.05836 0.10503 0.0
C82 C 0.26112 0.9931 0.23675 0.0
N83 N 0.28511 0.99183 0.18527 0.0
C84 C 0.25426 0.97242 0.31365 0.0
H85 H 0.22928 0.06092 0.10392 0.0
H86 H 0.26128 0.05912 0.03371 0.0
H87 H 0.2628 0.07665 0.14439 0.0
H88 H 0.24284 0.95332 0.28418 0.0
H89 H 0.24024 0.98254 0.36551 0.0
H90 H 0.27429 0.96489 0.34906 0.0
C91 C 0.53682 0.25674 0.10775 0.0
N92 N 0.5502 0.28239 0.09014 0.0
N93 N 0.54951 0.24326 0.1816 0.0
C94 C 0.51206 0.24457 0.05184 0.0
C95 C 0.57061 0.26195 0.20898 0.0
N96 N 0.5713 0.2853 0.15309 0.0
C97 C 0.58804 0.25913 0.29753 0.0
H98 H 0.49153 0.25172 0.08244 0.0
H99 H 0.51251 0.22061 0.05267 0.0
H100 H 0.51266 0.2525 0.97974 0.0
H101 H 0.60884 0.24846 0.2828 0.0
H102 H 0.57642 0.24598 0.34896 0.0
H103 H 0.59277 0.28059 0.32837 0.0
Eu104 Eu 1.00637 0.03318 0.67228 0.0
Eu105 Eu 0.05592 0.02634 0.82617 0.0
C106 C 0.0302 0.08973 0.77995 0.0
C107 C 0.96993 0.04582 0.44413 0.0
C108 C 0.99699 0.04672 0.40255 0.0
C109 C 0.95078 0.07749 0.32629 0.0
C110 C 1.00137 0.06449 0.32679 0.0
C111 C 0.9464 0.05966 0.40212 0.0
C112 C 0.97878 0.08189 0.29257 0.0
C113 C 0.96778 0.03561 0.53892 0.0
O114 O 1.01509 1.01211 0.90012 0.0
O115 O 0.98351 0.03734 0.80756 0.0
C116 C 0.98957 0.02404 0.88555 0.0
O117 O 1.00528 0.98573 0.71101 0.0
O118 O 0.07555 0.03883 0.9578 0.0
O119 O 0.09837 1.01002 0.86773 0.0
O120 O 0.05215 0.98173 0.758 0.0
C121 C 0.02831 0.96973 0.72432 0.0
O122 O 0.04776 0.02774 0.59336 0.0
O123 O 0.07835 0.04596 0.70303 0.0
O124 O 0.03878 0.07174 0.84461 0.0
O125 O 0.98262 1.01259 0.55888 0.0
O126 O 0.97095 0.05559 0.6017 0.0
O127 O 1.02218 0.07979 0.69794 0.0
C128 C 0.10636 1.00431 0.02683 0.0
C129 C 0.08608 0.99631 0.09257 0.0
C130 C 0.14189 0.97345 0.10139 0.0
C131 C 0.09351 0.97662 0.16127 0.0
C132 C 0.13451 0.99344 0.03314 0.0
C133 C 0.12127 0.96435 0.16507 0.0
C134 C 0.09808 1.02245 0.9482 0.0
C135 C 0.07323 0.0381 0.61733 0.0
H136 H 1.01544 0.03593 0.43379 0.0
H137 H 0.93285 0.09032 0.30129 0.0
H138 H 1.02326 0.06711 0.30328 0.0
H139 H 0.9253 0.05893 0.43301 0.0
H140 H 0.06415 1.00434 0.08885 0.0
H141 H 0.16338 0.96439 0.10224 0.0
H142 H 0.0768 0.96972 0.20764 0.0
H143 H 0.15046 0.99956 0.98303 0.0
Eu144 Eu 0.54056 0.05875 0.83494 0.0
Eu145 Eu 0.52619 1.01142 0.6739 0.0
C146 C 0.53654 0.99075 0.88502 0.0
C147 C 0.56516 0.11742 1.01203 0.0
C148 C 0.56845 0.11606 0.10789 0.0
C149 C 0.60446 0.15219 1.00684 0.0
C150 C 0.59067 0.13115 0.15241 0.0
C151 C 0.58247 0.13647 0.96182 0.0
C152 C 0.60985 0.14844 0.10206 0.0
C153 C 0.54512 0.09692 0.96737 0.0
O154 O 0.48201 1.01409 0.73788 0.0
O155 O 0.49171 0.05242 0.8345 0.0
C156 C 0.47365 0.0331 0.79928 0.0
O157 O 0.54634 0.08284 0.70095 0.0
O158 O 0.53417 0.96856 0.6169 0.0
O159 O 0.51134 1.00064 0.53491 0.0
O160 O 0.51654 0.05523 0.60949 0.0
C161 C 0.53134 0.07912 0.62418 0.0
O162 O 0.58568 0.05363 0.77957 0.0
O163 O 0.57495 1.01856 0.67161 0.0
O164 O 0.52234 0.98632 0.80696 0.0
O165 O 0.5351 0.10289 0.88498 0.0
O166 O 0.55161 0.06972 0.97703 0.0
O167 O 0.54998 1.01531 0.90167 0.0
C168 C 0.50174 0.95211 0.49848 0.0
C169 C 0.4975 0.95225 0.40285 0.0
C170 C 0.46426 0.91562 0.51143 0.0
C171 C 0.47566 0.93562 0.3622 0.0
C172 C 0.48587 0.93285 0.55251 0.0
C173 C 0.45778 0.91806 0.41637 0.0
C174 C 0.52087 0.97422 0.53893 0.0
C175 C 0.59362 0.0359 0.71383 0.0
H176 H 0.55501 0.10172 0.14786 0.0
H177 H 0.61838 0.16576 0.96609 0.0
H178 H 0.59408 0.12712 0.22526 0.0
H179 H 0.57997 0.13815 0.88764 0.0
H180 H 0.5098 0.96681 0.36002 0.0
H181 H 0.45136 0.90193 0.5551 0.0
H182 H 0.47136 0.93868 0.28929 0.0
H183 H 0.48911 0.93219 0.62661 0.0
Eu184 Eu 0.5045 0.53764 0.80853 0.0
Eu185 Eu 0.55549 0.52799 0.66291 0.0
C186 C 0.57032 0.53503 0.87759 0.0
C187 C 0.44947 0.56734 0.97854 0.0
C188 C 0.44936 0.59626 0.95014 0.0
C189 C 0.42977 0.58147 0.12502 0.0
C190 C 0.44001 0.61773 1.0097 0.0
C191 C 0.43901 0.55998 0.06529 0.0
C192 C 0.43086 0.61062 0.09882 0.0
C193 C 0.46172 0.54477 0.92084 0.0
O194 O 0.54397 0.48161 0.702 0.0
O195 O 0.51604 0.49068 0.82819 0.0
C196 C 0.52995 0.47263 0.7752 0.0
O197 O 0.48429 0.51612 0.683 0.0
O198 O 0.60079 0.53388 0.6275 0.0
O199 O 0.57022 0.51609 0.52719 0.0
O200 O 0.51437 0.53577 0.5789 0.0
C201 C 0.48929 0.52428 0.59838 0.0
O202 O 0.50922 0.58162 0.73988 0.0
O203 O 0.55497 0.57634 0.68609 0.0
O204 O 0.57473 0.51943 0.80389 0.0
O205 O 0.45961 0.54851 0.83192 0.0
O206 O 0.48699 0.53507 0.94686 0.0
O207 O 0.5464 0.55006 0.88473 0.0
C208 C 0.6179 0.50047 0.51918 0.0
C209 C 0.61604 0.47242 0.5548 0.0
C210 C 0.65037 0.48371 0.40273 0.0
C211 C 0.63007 0.4498 0.51099 0.0
C212 C 0.63637 0.50631 0.44638 0.0
C213 C 0.64588 0.45506 0.43081 0.0
C214 C 0.59719 0.52242 0.54603 0.0
C215 C 0.53267 0.59271 0.70379 0.0
H216 H 0.45755 0.60241 0.88349 0.0
H217 H 0.42299 0.57553 0.19332 0.0
H218 H 0.44182 0.64002 0.98795 0.0
H219 H 0.43897 0.5377 0.08806 0.0
H220 H 0.60184 0.46767 0.61132 0.0
H221 H 0.66246 0.48829 0.34182 0.0
H222 H 0.62593 0.42796 0.53414 0.0
H223 H 0.6381 0.52795 0.41846 0.0
Eu224 Eu 0.03671 0.55773 0.6625 0.0
Eu225 Eu 0.02842 0.50446 0.80429 0.0
C226 C 0.09245 0.52855 0.75922 0.0
C227 C 0.05859 0.60805 0.46774 0.0
C228 C 0.06502 0.58636 0.40421 0.0
C229 C 0.09052 0.64099 0.38853 0.0
C230 C 0.08449 0.59178 0.33436 0.0
C231 C 0.07074 0.63562 0.45793 0.0
C232 C 0.09815 0.61891 0.32728 0.0
C233 C 0.04177 0.60141 0.54952 0.0
O234 O 1.01569 0.54409 0.88876 0.0
O235 O 0.04139 0.57702 0.80577 0.0
C236 C 0.02779 0.56983 0.88107 0.0
O237 O 0.98924 0.5577 0.69759 0.0
O238 O 0.04411 0.48024 0.92348 0.0
O239 O 1.00714 0.46438 0.84548 0.0
O240 O 0.98478 0.50995 0.7322 0.0
C241 C 0.9731 0.53451 0.70611 0.0
O242 O 0.03266 0.518 0.56945 0.0
O243 O 0.04594 0.48367 0.67519 0.0
O244 O 0.07483 0.51847 0.82117 0.0
O245 O 1.02197 0.58143 0.54065 0.0
O246 O 0.05675 0.59876 0.62593 0.0
O247 O 0.08249 0.54067 0.68288 0.0
C248 C 1.00835 0.45565 1.00453 0.0
C249 C 1.00096 0.47878 0.06129 0.0
C250 C 0.9815 0.42298 0.10171 0.0
C251 C 0.98336 0.47419 0.13637 0.0
C252 C 0.99938 0.42759 0.02663 0.0
C253 C 0.97259 0.4464 0.15561 0.0
C254 C 1.02348 0.46108 0.9188 0.0
C255 C 0.04079 0.49144 0.58926 0.0
H256 H 0.05609 0.56482 0.4111 0.0
H257 H 0.10056 0.6621 0.38488 0.0
H258 H 0.09023 0.574 0.29001 0.0
H259 H 0.06595 0.65262 0.50653 0.0
H260 H 1.00764 0.50062 0.04504 0.0
H261 H 0.97359 0.40137 0.11502 0.0
H262 H 0.97653 0.49287 0.17501 0.0
H263 H 1.00514 0.40948 0.98353 0.0
H264 H 0.19722 0.98527 0.21092 0.0
H265 H 0.07171 1.01839 0.43862 0.0
H266 H 0.23256 0.06427 0.32078 0.0
H267 H 0.12894 0.05983 0.63675 0.0
H268 H 0.11119 1.01647 0.32996 0.0
H269 H 0.15393 0.99221 0.30213 0.0
C270 C 0.19519 1.00472 0.25149 0.0
C271 C 0.2181 0.02458 0.25614 0.0
C272 C 0.11526 0.02584 0.39734 0.0
C273 C 0.16828 0.0329 0.36144 0.0
C274 C 0.09255 0.02719 0.45952 0.0
C275 C 0.09687 0.03901 0.54804 0.0
C276 C 0.14284 0.03639 0.42303 0.0
C277 C 0.12452 0.05027 0.56986 0.0
C278 C 0.17045 1.00874 0.30351 0.0
C279 C 0.21505 0.04883 0.31343 0.0
N280 N 0.14639 0.04864 0.50807 0.0
N281 N 0.19074 0.05217 0.36465 0.0
H282 H 0.49793 0.22316 0.24567 0.0
H283 H 0.57629 0.11509 0.58613 0.0
H284 H 0.5874 0.20088 0.21865 0.0
H285 H 0.48922 0.095 0.49592 0.0
H286 H 0.57884 0.15215 0.46627 0.0
H287 H 0.49153 0.18065 0.34692 0.0
C288 C 0.51601 0.20895 0.25923 0.0
C289 C 0.54334 0.21561 0.22424 0.0
C290 C 0.55915 0.13965 0.4726 0.0
C291 C 0.53652 0.16794 0.34246 0.0
C292 C 0.5576 0.11858 0.54143 0.0
C293 C 0.53249 0.10187 0.55136 0.0
C294 C 0.53513 0.14484 0.4143 0.0
C295 C 0.50904 0.10731 0.49056 0.0
C296 C 0.51244 0.1849 0.31754 0.0
C297 C 0.56613 0.19669 0.24515 0.0
N298 N 0.51076 0.12858 0.42537 0.0
N299 N 0.5624 0.17424 0.30422 0.0
H300 H 0.32152 0.5135 0.32368 0.0
H301 H 0.4911 0.53854 0.41365 0.0
H302 H 0.37948 0.53722 0.10864 0.0
H303 H 0.43388 0.50395 0.61748 0.0
H304 H 0.45148 0.53604 0.29895 0.0
H305 H 0.36297 0.50676 0.42939 0.0
C306 C 0.34315 0.51664 0.2984 0.0
C307 C 0.34719 0.52596 0.20755 0.0
C308 C 0.44766 0.52877 0.36859 0.0
C309 C 0.39491 0.51882 0.32836 0.0
C310 C 0.47031 0.53024 0.43435 0.0
C311 C 0.46595 0.52154 0.52594 0.0
C312 C 0.42027 0.51866 0.39434 0.0
C313 C 0.43841 0.51098 0.54811 0.0
C314 C 0.36682 0.51296 0.35875 0.0
C315 C 0.37556 0.52987 0.17805 0.0
N316 N 0.41671 0.51002 0.48326 0.0
N317 N 0.39832 0.52652 0.23841 0.0
H318 H 0.09958 0.34971 0.24627 0.0
H319 H 1.01336 0.48874 0.41769 0.0
H320 H 1.01105 0.36222 0.16127 0.0
H321 H 0.07538 0.44342 0.58858 0.0
H322 H 1.0175 0.4505 0.30003 0.0
H323 H 0.09672 0.39242 0.3458 0.0
C324 C 0.07969 0.36187 0.24707 0.0
C325 C 0.05551 0.35221 0.19549 0.0
C326 C 0.03019 0.44906 0.36322 0.0
C327 C 0.05204 0.40158 0.3096 0.0
C328 C 0.02802 0.47096 0.43032 0.0
C329 C 0.044 0.46941 0.51388 0.0
C330 C 0.04906 0.42574 0.37824 0.0
C331 C 0.06251 0.44562 0.52591 0.0
C332 C 0.078 0.38616 0.30439 0.0
C333 C 0.03029 0.36901 0.199 0.0
N334 N 0.06466 0.42502 0.45906 0.0
N335 N 0.02915 0.39278 0.2553 0.0
H336 H 0.86493 0.08606 0.2698 0.0
H337 H 0.97552 0.98274 1.01747 0.0
H338 H 0.84445 0.99547 0.24987 0.0
H339 H 0.95303 0.06793 0.9214 0.0
H340 H 0.93635 0.98581 0.13121 0.0
H341 H 0.90581 0.07874 0.16922 0.0
C342 C 0.86946 0.06443 0.24605 0.0
C343 C 0.8507 0.04153 0.26677 0.0
C344 C 0.94014 1.00373 0.08502 0.0
C345 C 0.89938 0.03254 0.15687 0.0
C346 C 0.96257 1.0021 1.02067 0.0
C347 C 0.96749 0.02505 0.95926 0.0
C348 C 0.92321 0.02884 0.08961 0.0
C349 C 0.94994 0.04958 0.96644 0.0
C350 C 0.89298 0.06024 0.18917 0.0
C351 C 0.85825 1.01378 0.23576 0.0
N352 N 0.92892 0.05088 0.0304 0.0
N353 N 0.88207 1.01001 0.18233 0.0
H354 H 0.5737 0.84886 0.26817 0.0
H355 H 0.49311 0.95256 0.92017 0.0
H356 H 0.48357 0.86853 0.29337 0.0
H357 H 0.57851 0.977 1.01594 0.0
H358 H 0.49146 0.91576 0.04124 0.0
H359 H 0.57895 0.89121 0.16554 0.0
C360 C 0.55523 0.8625 0.25398 0.0
C361 C 0.52806 0.85514 0.28878 0.0
C362 C 0.51059 0.92916 0.03577 0.0
C363 C 0.53358 0.90255 0.1689 0.0
C364 C 0.51163 0.95005 0.96625 0.0
C365 C 0.536 0.96793 0.95764 0.0
C366 C 0.5344 0.92534 0.09604 0.0
C367 C 0.55926 0.96376 1.02023 0.0
C368 C 0.55814 0.88645 0.19486 0.0
C369 C 0.50474 0.87331 0.26701 0.0
N370 N 0.55807 0.94266 0.08607 0.0
N371 N 0.50783 0.89564 0.20708 0.0
H372 H 0.71071 0.57687 0.26973 0.0
H373 H 0.6066 0.49099 0.91947 0.0
H374 H 0.71077 0.48459 0.23439 0.0
H375 H 0.58542 0.57715 1.00696 0.0
H376 H 0.64577 0.48983 0.03347 0.0
H377 H 0.66551 0.57927 0.1763 0.0
C378 C 0.70101 0.55712 0.2436 0.0
C379 C 0.71476 0.5305 0.25899 0.0
C380 C 0.63257 0.50903 0.02862 0.0
C381 C 0.66362 0.53309 0.15048 0.0
C382 C 0.61014 0.50973 0.96305 0.0
C383 C 0.59266 0.53425 0.95313 0.0
C384 C 0.63827 0.53324 0.08457 0.0
C385 C 0.59829 0.55776 1.01242 0.0
C386 C 0.67534 0.5585 0.18983 0.0
C387 C 0.70143 0.50564 0.22228 0.0
N388 N 0.62085 0.55685 0.07489 0.0
N389 N 0.67699 0.50758 0.16932 0.0
H390 H 0.07993 0.70069 0.27891 0.0
H391 H 0.98492 0.58143 1.00827 0.0
H392 H 0.98764 0.71026 0.25921 0.0
H393 H 0.07033 0.60796 0.93037 0.0
H394 H 0.98524 0.62023 0.12607 0.0
H395 H 0.0765 0.65835 0.17885 0.0
C396 C 0.0588 0.69355 0.25485 0.0
C397 C 0.03414 0.70951 0.27677 0.0
C398 C 1.0039 0.61737 0.0833 0.0
C399 C 0.02989 0.65982 0.16338 0.0
C400 C 1.00383 0.59512 1.01648 0.0
C401 C 0.02761 0.59138 0.95865 0.0
C402 C 0.02826 0.6355 0.0943 0.0
C403 C 0.05141 0.61 0.97246 0.0
C404 C 0.05687 0.66928 0.1976 0.0
C405 C 1.00726 0.69871 0.2445 0.0
N406 N 0.05118 0.6309 0.03865 0.0
N407 N 1.00583 0.67461 0.18923 0.0
H408 H 1.0106 0.26164 0.25903 0.0
H409 H 1.02128 0.09231 0.16422 0.0
H410 H 0.08057 0.22455 0.10932 0.0
H411 H 0.9536 0.13452 0.31428 0.0
H412 H 0.04197 0.13989 0.13057 0.0
H413 H 0.98974 0.21384 0.27817 0.0
C414 C 1.02201 0.24307 0.23305 0.0
C415 C 0.04736 0.24666 0.1839 0.0
C416 C 1.02234 0.13851 0.16968 0.0
C417 C 1.02311 0.19204 0.20078 0.0
C418 C 1.01041 0.11143 0.18849 0.0
C419 C 0.98598 0.10914 0.24426 0.0
C420 C 1.00954 0.16326 0.20641 0.0
C421 C 0.97236 0.13472 0.27118 0.0
C422 C 1.00986 0.21587 0.24196 0.0
C423 C 0.06106 0.22226 0.14852 0.0
N424 N 0.98458 0.16057 0.25315 0.0
N425 N 0.04859 0.19578 0.1569 0.0
H426 H 0.33956 1.00682 0.22994 0.0
H427 H 0.44381 0.89977 0.23882 0.0
H428 H 0.28415 0.9332 0.18045 0.0
H429 H 0.4058 0.91563 0.50357 0.0
H430 H 0.39674 0.90832 0.16517 0.0
H431 H 0.37894 0.97416 0.27307 0.0
C432 C 0.336 0.98374 0.226 0.0
C433 C 0.3089 0.97252 0.20091 0.0
C434 C 0.39861 0.90834 0.23972 0.0
C435 C 0.35318 0.93543 0.25249 0.0
C436 C 0.42551 0.90375 0.28212 0.0
C437 C 0.42929 0.90855 0.37745 0.0
C438 C 0.37554 0.91712 0.29349 0.0
C439 C 0.40439 0.91248 0.42978 0.0
C440 C 0.35825 0.96524 0.25101 0.0
C441 C 0.30493 0.9424 0.19969 0.0
N442 N 0.37872 0.91779 0.3867 0.0
N443 N 0.32686 0.92464 0.22685 0.0
H444 H 0.55276 0.34019 0.16794 0.0
H445 H 0.66673 0.40048 0.46672 0.0
H446 H 0.62946 0.2879 0.17616 0.0
H447 H 0.63387 0.45466 0.24674 0.0
H448 H 0.6564 0.35793 0.37041 0.0
H449 H 0.58214 0.38258 0.20534 0.0
C450 C 0.57591 0.33782 0.17503 0.0
C451 C 0.58884 0.31072 0.16753 0.0
C452 C 0.65263 0.37928 0.34227 0.0
C453 C 0.62226 0.35865 0.21547 0.0
C454 C 0.65842 0.40349 0.39709 0.0
C455 C 0.65054 0.43105 0.36552 0.0
C456 C 0.63831 0.38289 0.25703 0.0
C457 C 0.64007 0.43383 0.2744 0.0
C458 C 0.59264 0.36192 0.19681 0.0
C459 C 0.61885 0.30856 0.18181 0.0
N460 N 0.63327 0.40995 0.22448 0.0
N461 N 0.6346 0.33218 0.20765 0.0
H462 H 0.23174 0.53285 0.14117 0.0
H463 H 0.14896 0.64821 0.36135 0.0
H464 H 0.27163 0.61662 0.11749 0.0
H465 H 0.10476 0.59695 0.15297 0.0
H466 H 0.19429 0.64043 0.28255 0.0
H467 H 0.18491 0.55595 0.1599 0.0
C468 C 0.23042 0.55616 0.13898 0.0
C469 C 0.25522 0.57296 0.12698 0.0
C470 C 0.17445 0.63175 0.25266 0.0
C471 C 0.20228 0.59946 0.15167 0.0
C472 C 0.14847 0.6362 0.29733 0.0
C473 C 0.12311 0.62229 0.26558 0.0
C474 C 0.17498 0.61284 0.17753 0.0
C475 C 0.12402 0.60699 0.18217 0.0
C476 C 0.20385 0.56929 0.14929 0.0
C477 C 0.25281 0.60312 0.12743 0.0
N478 N 0.14977 0.60176 0.14272 0.0
N479 N 0.2267 0.6156 0.14161 0.0
H480 H 0.11427 0.78642 0.34717 0.0
H481 H 0.15181 0.91537 0.12688 0.0
H482 H 0.03569 0.83566 0.33176 0.0
H483 H 0.10285 0.95558 0.34179 0.0
H484 H 0.14518 0.86887 0.20142 0.0
H485 H 0.14228 0.83176 0.3332 0.0
C486 C 0.10308 0.80682 0.34153 0.0
C487 C 0.07281 0.80767 0.3408 0.0
C488 C 0.13694 0.88806 0.23423 0.0
C489 C 0.10413 0.85875 0.32917 0.0
C490 C 0.14071 0.91474 0.19177 0.0
C491 C 0.12677 0.93926 0.22606 0.0
C492 C 0.11869 0.88607 0.30975 0.0
C493 C 0.11275 0.93694 0.31061 0.0
C494 C 0.11892 0.83244 0.33472 0.0
C495 C 0.05899 0.83436 0.3343 0.0
N496 N 0.10797 0.91053 0.34761 0.0
N497 N 0.07479 0.85892 0.32925 0.0
H498 H 0.72571 0.05686 0.30926 0.0
H499 H 0.62248 0.16421 0.28279 0.0
H500 H 0.78411 0.1295 0.32499 0.0
H501 H 0.66284 0.14998 1.0207 0.0
H502 H 0.6686 0.15397 0.36022 0.0
H503 H 0.6861 0.08991 0.27139 0.0
C504 C 0.72996 0.07985 0.30728 0.0
C505 C 0.75793 0.09067 0.3212 0.0
C506 C 0.66744 0.15459 0.2856 0.0
C507 C 0.71336 0.12808 0.27509 0.0
C508 C 0.64112 0.16017 0.24102 0.0
C509 C 0.63823 0.15646 0.14496 0.0
C510 C 0.69094 0.14611 0.23332 0.0
C511 C 0.66356 0.1524 0.09482 0.0
C512 C 0.70754 0.09857 0.2854 0.0
C513 C 0.76266 0.12059 0.31438 0.0
N514 N 0.68873 0.14633 0.13989 0.0
N515 N 0.74059 0.13842 0.2895 0.0
H516 H 0.52412 0.73161 0.33444 0.0
H517 H 0.45016 0.61016 0.27786 0.0
H518 H 0.44412 0.77848 0.34073 0.0
H519 H 0.40534 0.6639 0.07859 0.0
H520 H 0.45996 0.65266 0.3719 0.0
H521 H 0.49718 0.68702 0.30791 0.0
C522 C 0.50077 0.73225 0.33256 0.0
C523 C 0.48616 0.75835 0.34196 0.0
C524 C 0.4472 0.6549 0.30888 0.0
C525 C 0.45522 0.70786 0.30852 0.0
C526 C 0.44136 0.63065 0.25526 0.0
C527 C 0.42781 0.63369 0.16838 0.0
C528 C 0.43977 0.68221 0.27466 0.0
C529 C 0.41688 0.66088 0.14347 0.0
C530 C 0.4854 0.70691 0.31767 0.0
C531 C 0.45592 0.75851 0.33414 0.0
N532 N 0.42381 0.68441 0.19533 0.0
N533 N 0.44129 0.73356 0.31568 0.0
H534 H 0.84082 0.53837 0.33136 0.0
H535 H 0.92336 0.41416 0.13165 0.0
H536 H 0.79701 0.4564 0.30987 0.0
H537 H 0.96555 0.47284 0.32311 0.0
H538 H 0.87731 0.42485 0.20165 0.0
H539 H 0.8872 0.51358 0.32746 0.0
C540 C 0.84114 0.51507 0.32679 0.0
C541 C 0.8154 0.49924 0.32194 0.0
C542 C 0.8968 0.43461 0.23038 0.0
C543 C 0.86797 0.4708 0.31467 0.0
C544 C 0.92323 0.42836 0.19092 0.0
C545 C 0.94821 0.4435 0.21939 0.0
C546 C 0.89553 0.45644 0.29698 0.0
C547 C 0.94659 0.46157 0.29672 0.0
C548 C 0.86747 0.50091 0.32506 0.0
C549 C 0.81664 0.46915 0.31306 0.0
N550 N 0.92047 0.46838 0.33087 0.0
N551 N 0.84263 0.45579 0.30824 0.0
H552 H 0.08256 0.26459 0.92964 0.0
H553 H 1.00536 0.1136 0.9306 0.0
H554 H 0.99798 0.25477 0.04206 0.0
H555 H 0.05223 0.13781 0.68907 0.0
H556 H 1.00609 0.16422 0.98098 0.0
H557 H 0.07548 0.21879 0.84458 0.0
C558 C 0.06199 0.25349 0.93317 0.0
C559 C 0.04065 0.26398 0.99204 0.0
C560 C 1.01598 0.1586 0.91647 0.0
C561 C 0.03305 0.21036 0.89938 0.0
C562 C 1.01558 0.12963 0.8875 0.0
C563 C 0.0284 0.12128 0.80459 0.0
C564 C 0.03029 0.17968 0.86435 0.0
C565 C 0.04166 0.14319 0.75262 0.0
C566 C 0.05812 0.22705 0.88578 0.0
C567 C 1.01482 0.24788 0.99646 0.0
N568 N 0.04271 0.17118 0.784 0.0
N569 N 1.01207 0.22172 0.95321 0.0
H570 H 0.3192 0.06375 0.12327 0.0
H571 H 0.4306 0.99205 0.76929 0.0
H572 H 0.30596 0.98041 0.99835 0.0
H573 H 0.44722 0.07209 0.91329 0.0
H574 H 0.38284 0.9897 0.83969 0.0
H575 H 0.36345 0.06984 0.03356 0.0
C576 C 0.3252 0.04709 0.0751 0.0
C577 C 0.30869 1.02165 0.06775 0.0
C578 C 0.39686 1.00789 0.8554 0.0
C579 C 0.35984 0.02804 0.96599 0.0
C580 C 0.4242 1.00931 0.81479 0.0
C581 C 0.44331 0.03229 0.83495 0.0
C582 C 0.38822 0.02965 0.91681 0.0
C583 C 0.43352 0.05386 0.89534 0.0
C584 C 0.35069 0.05036 0.02464 0.0
C585 C 0.31798 1.0004 1.00581 0.0
N586 N 0.40691 0.05196 0.93395 0.0
N587 N 0.34285 1.00396 0.95801 0.0
H588 H 0.4997 0.31124 0.06718 0.0
H589 H 0.5686 0.42981 0.72755 0.0
H590 H 0.58534 0.30437 0.96054 0.0
H591 H 0.4929 0.44422 0.88927 0.0
H592 H 0.57118 0.38029 0.78885 0.0
H593 H 0.49253 0.35577 0.97711 0.0
C594 C 0.5166 0.31861 1.02229 0.0
C595 C 0.54307 0.30402 1.02086 0.0
C596 C 0.55386 0.39424 0.81019 0.0
C597 C 0.53543 0.3554 0.91896 0.0
C598 C 0.5523 0.42252 0.77482 0.0
C599 C 0.53058 0.44147 0.80339 0.0
C600 C 0.53335 0.38456 0.8738 0.0
C601 C 0.51019 0.43064 0.86551 0.0
C602 C 0.51274 0.34427 0.97191 0.0
C603 C 0.56458 0.31494 0.96311 0.0
N604 N 0.5121 0.40313 0.89845 0.0
N605 N 0.56042 0.34 0.91521 0.0
H606 H 0.26724 0.57522 0.91677 0.0
H607 H 0.11966 0.48877 0.86782 0.0
H608 H 0.25593 0.4892 1.0215 0.0
H609 H 0.13746 0.56342 0.70042 0.0
H610 H 0.17026 0.48761 0.91746 0.0
H611 H 0.22186 0.57027 0.82754 0.0
C612 C 0.25568 0.55485 0.91793 0.0
C613 C 0.2655 0.53248 0.97577 0.0
C614 C 0.16332 0.50408 0.86902 0.0
C615 C 0.21284 0.52695 0.87675 0.0
C616 C 0.13429 0.50484 0.84074 0.0
C617 C 0.1241 0.52635 0.78005 0.0
C618 C 0.18258 0.52529 0.83805 0.0
C619 C 0.14428 0.54642 0.74705 0.0
C620 C 0.2296 0.55213 0.86788 0.0
C621 C 0.2494 0.50674 0.97661 0.0
N622 N 0.17243 0.54566 0.77752 0.0
N623 N 0.22364 0.50489 0.92947 0.0
H624 H 0.98674 0.80788 0.43465 0.0
H625 H 0.07163 0.92864 0.73744 0.0
H626 H 0.07242 0.79635 0.54732 0.0
H627 H 0.98361 0.93885 0.64096 0.0
H628 H 0.07094 0.879 0.67792 0.0
H629 H 0.98304 0.85349 0.52152 0.0
C630 C 1.0043 0.81432 0.4807 0.0
C631 C 0.02978 0.79794 0.48446 0.0
C632 C 0.05165 0.89197 0.67036 0.0
C633 C 0.02632 0.85103 0.58175 0.0
C634 C 0.05203 0.92047 0.70463 0.0
C635 C 0.02765 0.93836 0.69486 0.0
C636 C 0.02674 0.88087 0.62503 0.0
C637 C 1.00299 0.92616 0.65078 0.0
C638 C 1.00245 0.8407 0.52911 0.0
C639 C 0.05225 0.80802 0.54323 0.0
N640 N 1.00325 0.89849 0.61737 0.0
N641 N 0.05017 0.83387 0.58811 0.0
H642 H 0.75098 1.00097 0.40955 0.0
H643 H 0.63768 0.07524 0.75172 0.0
H644 H 0.76343 0.08549 0.52666 0.0
H645 H 0.61993 0.99689 0.59978 0.0
H646 H 0.68632 0.07643 0.687 0.0
H647 H 0.70621 0.99571 0.49712 0.0
C648 C 0.74475 1.01802 0.45603 0.0
C649 C 0.76113 0.04357 0.46148 0.0
C650 C 0.67185 0.05885 0.66835 0.0
C651 C 0.70938 0.03817 0.56056 0.0
C652 C 0.644 0.0581 0.70568 0.0
C653 C 0.62433 0.03597 0.68145 0.0
C654 C 0.68045 0.03719 0.60654 0.0
C655 C 0.63405 1.0145 0.62063 0.0
C656 C 0.71895 1.01525 0.50507 0.0
C657 C 0.75157 0.06536 0.52106 0.0
N658 N 0.66118 1.01569 0.5855 0.0
N659 N 0.72637 0.06227 0.56753 0.0
H660 H 0.48644 0.76844 0.55061 0.0
H661 H 0.57732 0.62293 0.62526 0.0
H662 H 0.57198 0.75698 0.44779 0.0
H663 H 0.49083 0.63471 0.72321 0.0
H664 H 0.57801 0.67336 0.57513 0.0
H665 H 0.49043 0.72228 0.63248 0.0
C666 C 0.50654 0.75664 0.54839 0.0
C667 C 0.52899 0.76672 0.493 0.0
C668 C 0.55895 0.66504 0.6082 0.0
C669 C 0.53349 0.71301 0.58404 0.0
C670 C 0.55849 0.63609 0.63703 0.0
C671 C 0.5339 0.62418 0.67858 0.0
C672 C 0.53464 0.68258 0.62057 0.0
C673 C 0.51028 0.64267 0.6915 0.0
C674 C 0.50867 0.73002 0.59392 0.0
C675 C 0.55437 0.75026 0.49085 0.0
N676 N 0.5112 0.67072 0.66231 0.0
N677 N 0.55576 0.72405 0.53428 0.0
H678 H 0.80848 0.57995 0.44593 0.0
H679 H 0.93228 0.49113 0.71504 0.0
H680 H 0.79977 0.49127 0.52791 0.0
H681 H 0.94153 0.58068 0.63899 0.0
H682 H 0.88169 0.49263 0.6633 0.0
H683 H 0.85397 0.5832 0.53636 0.0
C684 C 0.81547 0.5616 0.48667 0.0
C685 C 0.80023 0.53538 0.48011 0.0
C686 C 0.89466 0.51207 0.65864 0.0
C687 C 0.8529 0.53838 0.5807 0.0
C688 C 0.92369 0.51122 0.68824 0.0
C689 C 0.9415 0.53577 0.6813 0.0
C690 C 0.88305 0.53765 0.62117 0.0
C691 C 0.92883 0.56115 0.64575 0.0
C692 C 0.84176 0.56321 0.53682 0.0
C693 C 0.81073 0.51194 0.53206 0.0
N694 N 0.90059 0.56135 0.61655 0.0
N695 N 0.83654 0.51381 0.57861 0.0
loop_
_geom_bond_atom_site_label_1
_geom_bond_atom_site_label_2
_geom_bond_distance
_geom_bond_site_symmetry_2
_ccdc_geom_bond_type
C0 N1 1.317 . S
C0 N2 1.348 . S
C0 C3 1.485 . S
N1 C0 1.317 . S
N1 N5 1.370 . S
N2 C0 1.348 . S
N2 C4 1.346 . S
C3 C0 1.485 . S
C3 H7 0.960 . S
C3 H8 0.961 . S
C3 H9 0.960 . S
C4 N2 1.346 . S
C4 N5 1.307 . S
C4 C6 1.486 . S
N5 N1 1.370 . S
N5 C4 1.307 . S
C6 C4 1.486 . S
C6 H10 0.960 . S
C6 H11 0.960 . S
C6 H12 0.959 . S
H7 C3 0.960 . S
H8 C3 0.961 . S
H9 C3 0.960 . S
H10 C6 0.960 . S
H11 C6 0.960 . S
H12 C6 0.959 . S
C13 N14 1.317 . S
C13 N15 1.348 . S
C13 C16 1.485 . S
N14 C13 1.317 . S
N14 N18 1.370 . S
N15 C13 1.348 . S
N15 C17 1.346 . S
C16 C13 1.485 . S
C16 H20 0.960 . S
C16 H21 0.961 . S
C16 H22 0.960 . S
C17 N15 1.346 . S
C17 N18 1.307 . S
C17 C19 1.486 . S
N18 N14 1.370 . S
N18 C17 1.307 . S
C19 C17 1.486 . S
C19 H23 0.960 . S
C19 H24 0.960 . S
C19 H25 0.959 . S
H20 C16 0.960 . S
H21 C16 0.961 . S
H22 C16 0.960 . S
H23 C19 0.960 . S
H24 C19 0.960 . S
H25 C19 0.959 . S
C26 N27 1.317 . S
C26 N28 1.348 . S
C26 C29 1.485 . S
N27 C26 1.317 . S
N27 N31 1.370 . S
N28 C26 1.348 . S
N28 C30 1.346 . S
C29 C26 1.485 . S
C29 H33 0.960 . S
C29 H34 0.961 . S
C29 H35 0.960 . S
C30 N28 1.346 . S
C30 N31 1.307 . S
C30 C32 1.486 . S
N31 N27 1.370 . S
N31 C30 1.307 . S
C32 C30 1.486 . S
C32 H36 0.960 . S
C32 H37 0.960 . S
C32 H38 0.959 . S
H33 C29 0.960 . S
H34 C29 0.961 . S
H35 C29 0.960 . S
H36 C32 0.960 . S
H37 C32 0.960 . S
H38 C32 0.959 . S
C39 N40 1.317 . S
C39 N41 1.348 . S
C39 C42 1.485 . S
N40 C39 1.317 . S
N40 N44 1.370 . S
N41 C39 1.348 . S
N41 C43 1.346 . S
C42 C39 1.485 . S
C42 H46 0.960 . S
C42 H47 0.961 . S
C42 H48 0.960 . S
C43 N41 1.346 . S
C43 N44 1.307 . S
C43 C45 1.486 . S
N44 N40 1.370 . S
N44 C43 1.307 . S
C45 C43 1.486 . S
C45 H49 0.960 . S
C45 H50 0.960 . S
C45 H51 0.959 . S
H46 C42 0.960 . S
H47 C42 0.961 . S
H48 C42 0.960 . S
H49 C45 0.960 . S
H50 C45 0.960 . S
H51 C45 0.959 . S
C52 N53 1.317 . S
C52 N54 1.348 . S
C52 C55 1.485 1_554 S
N53 C52 1.317 . S
N53 N57 1.370 . S
N54 C52 1.348 . S
N54 C56 1.346 . S
C55 C52 1.485 1_556 S
C55 H59 0.960 . S
C55 H60 0.961 . S
C55 H61 0.960 . S
C56 N54 1.346 . S
C56 N57 1.307 . S
C56 C58 1.486 . S
N57 N53 1.370 . S
N57 C56 1.307 . S
C58 C56 1.486 . S
C58 H62 0.960 . S
C58 H63 0.960 . S
C58 H64 0.959 . S
H59 C55 0.960 . S
H60 C55 0.961 . S
H61 C55 0.960 . S
H62 C58 0.960 . S
H63 C58 0.960 . S
H64 C58 0.959 . S
C65 N66 1.317 1_556 S
C65 N67 1.348 1_556 S
C65 C68 1.485 . S
N66 C65 1.317 1_554 S
N66 N70 1.370 . S
N67 C65 1.348 1_554 S
N67 C69 1.346 . S
C68 C65 1.485 . S
C68 H72 0.960 . S
C68 H73 0.961 . S
C68 H74 0.960 . S
C69 N67 1.346 . S
C69 N70 1.307 . S
C69 C71 1.486 . S
N70 N66 1.370 . S
N70 C69 1.307 . S
C71 C69 1.486 . S
C71 H75 0.960 . S
C71 H76 0.960 . S
C71 H77 0.959 . S
H72 C68 0.960 . S
H73 C68 0.961 . S
H74 C68 0.960 . S
H75 C71 0.960 . S
H76 C71 0.960 . S
H77 C71 0.959 . S
C78 N79 1.317 . S
C78 N80 1.348 1_556 S
C78 C81 1.485 . S
N79 C78 1.317 . S
N79 N83 1.370 1_556 S
N80 C78 1.348 1_554 S
N80 C82 1.346 . S
C81 C78 1.485 . S
C81 H85 0.960 . S
C81 H86 0.961 . S
C81 H87 0.960 . S
C82 N80 1.346 . S
C82 N83 1.307 . S
C82 C84 1.486 . S
N83 N79 1.370 1_554 S
N83 C82 1.307 . S
C84 C82 1.486 . S
C84 H88 0.960 . S
C84 H89 0.960 . S
C84 H90 0.959 . S
H85 C81 0.960 . S
H86 C81 0.961 . S
H87 C81 0.960 . S
H88 C84 0.960 . S
H89 C84 0.960 . S
H90 C84 0.959 . S
C91 N92 1.317 . S
C91 N93 1.348 . S
C91 C94 1.485 1_554 S
N92 C91 1.317 . S
N92 N96 1.370 . S
N93 C91 1.348 . S
N93 C95 1.346 . S
C94 C91 1.485 1_556 S
C94 H98 0.960 . S
C94 H99 0.961 . S
C94 H100 0.960 . S
C95 N93 1.346 . S
C95 N96 1.307 . S
C95 C97 1.486 . S
N96 N92 1.370 . S
N96 C95 1.307 . S
C97 C95 1.486 . S
C97 H101 0.960 . S
C97 H102 0.960 . S
C97 H103 0.959 . S
H98 C94 0.960 . S
H99 C94 0.961 . S
H100 C94 0.960 . S
H101 C97 0.960 . S
H102 C97 0.960 . S
H103 C97 0.959 . S
Eu104 C113 2.828 . S
Eu104 O115 2.392 . S
Eu104 O117 2.418 1_545 S
Eu104 O122 2.373 1_655 S
Eu104 O125 2.488 . S
Eu104 O126 2.471 . S
Eu104 O127 2.349 1_655 S
Eu105 O114 2.373 1_455 S
Eu105 O118 2.488 . S
Eu105 O119 2.471 . S
Eu105 O120 2.349 . S
Eu105 O123 2.392 1_565 S
Eu105 O124 2.418 1_565 S
Eu105 C134 2.828 . S
C106 O124 1.244 . S
C106 O127 1.265 . S
C107 C108 1.379 1_655 S
C107 C111 1.373 . S
C107 C113 1.505 . S
C108 C107 1.379 1_455 S
C108 C110 1.369 . S
C108 H136 0.930 . S
C109 C111 1.383 . S
C109 C112 1.382 1_655 S
C109 H137 0.930 . S
C110 C108 1.369 . S
C110 C112 1.392 . S
C110 H138 0.930 . S
C111 C107 1.373 . S
C111 C109 1.383 . S
C111 H139 0.931 . S
C112 C109 1.382 1_455 S
C112 C110 1.392 . S
C113 Eu104 2.828 . S
C113 C107 1.505 . S
C113 O125 1.249 . S
C113 O126 1.244 . S
O114 Eu105 2.373 1_655 S
O114 C116 1.258 1_565 S
O115 Eu104 2.392 . S
O115 C116 1.242 . S
C116 O114 1.258 1_545 S
C116 O115 1.242 . S
O117 Eu104 2.418 1_565 S
O117 C121 1.244 . S
O118 Eu105 2.488 . S
O118 C134 1.249 . S
O119 Eu105 2.471 . S
O119 C134 1.244 . S
O120 Eu105 2.349 . S
O120 C121 1.265 1_455 S
C121 O117 1.244 . S
C121 O120 1.265 1_655 S
O122 Eu104 2.373 1_455 S
O122 C135 1.258 . S
O123 Eu105 2.392 1_545 S
O123 C135 1.242 . S
O124 Eu105 2.418 1_545 S
O124 C106 1.244 . S
O125 Eu104 2.488 . S
O125 C113 1.249 . S
O126 Eu104 2.471 . S
O126 C113 1.244 . S
O127 Eu104 2.349 1_455 S
O127 C106 1.265 . S
C128 C129 1.379 . S
C128 C132 1.373 . S
C128 C134 1.505 1_554 S
C129 C128 1.379 . S
C129 C131 1.369 . S
C129 H140 0.916 1_454 S
C130 C132 1.383 . S
C130 C133 1.382 . S
C130 H141 0.930 . S
C131 C129 1.369 . S
C131 C133 1.392 . S
C131 H142 0.930 1_455 S
C132 C128 1.373 . S
C132 C130 1.383 . S
C132 H143 0.931 . S
C133 C130 1.382 . S
C133 C131 1.392 . S
C134 Eu105 2.828 . S
C134 O118 1.249 . S
C134 O119 1.244 . S
C134 C128 1.505 1_556 S
C135 O122 1.258 . S
C135 O123 1.242 . S
H136 C108 0.930 . S
H137 C109 0.930 . S
H138 C110 0.930 . S
H139 C111 0.931 . S
H140 C129 0.916 1_656 S
H141 C130 0.930 . S
H142 C131 0.930 1_655 S
H143 C132 0.931 . S
Eu144 C153 2.828 . S
Eu144 O155 2.392 . S
Eu144 O157 2.418 . S
Eu144 O162 2.373 . S
Eu144 O165 2.488 . S
Eu144 O166 2.471 . S
Eu144 O167 2.349 1_545 S
Eu145 O154 2.373 1_565 S
Eu145 O158 2.488 . S
Eu145 O159 2.471 1_565 S
Eu145 O160 2.349 1_565 S
Eu145 O163 2.392 . S
Eu145 O164 2.418 . S
Eu145 C174 2.828 . S
C146 O164 1.244 . S
C146 O167 1.265 . S
C147 C148 1.379 . S
C147 C151 1.373 . S
C147 C153 1.505 . S
C148 C147 1.379 . S
C148 C150 1.369 1_556 S
C148 H176 0.930 1_545 S
C149 C151 1.383 1_554 S
C149 C152 1.382 . S
C149 H177 0.930 . S
C150 C148 1.369 1_554 S
C150 C152 1.392 . S
C150 H178 0.930 1_545 S
C151 C147 1.373 . S
C151 C149 1.383 1_556 S
C151 H179 0.931 . S
C152 C149 1.382 . S
C152 C150 1.392 . S
C153 Eu144 2.828 . S
C153 C147 1.505 . S
C153 O165 1.249 . S
C153 O166 1.244 . S
O154 Eu145 2.373 1_545 S
O154 C156 1.258 . S
O155 Eu144 2.392 . S
O155 C156 1.242 . S
C156 O154 1.258 . S
C156 O155 1.242 . S
O157 Eu144 2.418 . S
O157 C161 1.244 . S
O158 Eu145 2.488 . S
O158 C174 1.249 . S
O159 Eu145 2.471 1_545 S
O159 C174 1.244 1_545 S
O160 Eu145 2.349 1_545 S
O160 C161 1.265 . S
C161 O157 1.244 . S
C161 O160 1.265 . S
O162 Eu144 2.373 . S
O162 C175 1.258 1_545 S
O163 Eu145 2.392 . S
O163 C175 1.242 . S
O164 Eu145 2.418 . S
O164 C146 1.244 . S
O165 Eu144 2.488 . S
O165 C153 1.249 . S
O166 Eu144 2.471 . S
O166 C153 1.244 . S
O167 Eu144 2.349 1_565 S
O167 C146 1.265 . S
C168 C169 1.379 1_565 S
C168 C172 1.373 . S
C168 C174 1.505 . S
C169 C168 1.379 1_545 S
C169 C171 1.369 . S
C169 H180 0.930 . S
C170 C172 1.383 . S
C170 C173 1.382 . S
C170 H181 0.930 . S
C171 C169 1.369 . S
C171 C173 1.392 1_545 S
C171 H182 0.930 . S
C172 C168 1.373 . S
C172 C170 1.383 . S
C172 H183 0.931 . S
C173 C170 1.382 . S
C173 C171 1.392 1_565 S
C174 Eu145 2.828 . S
C174 O158 1.249 . S
C174 O159 1.244 1_565 S
C174 C168 1.505 . S
C175 O162 1.258 1_565 S
C175 O163 1.242 . S
H176 C148 0.930 1_565 S
H177 C149 0.930 . S
H178 C150 0.930 1_565 S
H179 C151 0.931 . S
H180 C169 0.930 . S
H181 C170 0.930 . S
H182 C171 0.930 . S
H183 C172 0.931 . S
Eu184 C193 2.828 . S
Eu184 O195 2.392 . S
Eu184 O197 2.418 . S
Eu184 O202 2.373 . S
Eu184 O205 2.488 . S
Eu184 O206 2.471 . S
Eu184 O207 2.349 . S
Eu185 O194 2.373 . S
Eu185 O198 2.488 . S
Eu185 O199 2.471 . S
Eu185 O200 2.349 . S
Eu185 O203 2.392 . S
Eu185 O204 2.418 . S
Eu185 C214 2.828 . S
C186 O204 1.244 . S
C186 O207 1.265 . S
C187 C188 1.379 . S
C187 C191 1.373 . S
C187 C193 1.505 . S
C188 C187 1.379 . S
C188 C190 1.369 1_556 S
C188 H216 0.930 . S
C189 C191 1.386 . S
C189 C192 1.381 1_556 S
C189 H217 0.929 1_556 S
C190 C188 1.369 1_554 S
C190 C192 1.392 . S
C190 H218 0.930 . S
C191 C187 1.373 . S
C191 C189 1.386 . S
C191 H219 0.931 . S
C192 C189 1.381 1_554 S
C192 C190 1.392 . S
C193 Eu184 2.828 . S
C193 C187 1.505 . S
C193 O205 1.249 . S
C193 O206 1.244 . S
O194 Eu185 2.373 . S
O194 C196 1.258 . S
O195 Eu184 2.392 . S
O195 C196 1.242 . S
C196 O194 1.258 . S
C196 O195 1.242 . S
O197 Eu184 2.418 . S
O197 C201 1.244 . S
O198 Eu185 2.488 . S
O198 C214 1.249 . S
O199 Eu185 2.471 . S
O199 C214 1.244 . S
O200 Eu185 2.349 . S
O200 C201 1.265 . S
C201 O197 1.244 . S
C201 O200 1.265 . S
O202 Eu184 2.373 . S
O202 C215 1.258 . S
O203 Eu185 2.392 . S
O203 C215 1.242 . S
O204 Eu185 2.418 . S
O204 C186 1.244 . S
O205 Eu184 2.488 . S
O205 C193 1.249 . S
O206 Eu184 2.471 . S
O206 C193 1.244 . S
O207 Eu184 2.349 . S
O207 C186 1.265 . S
C208 C209 1.379 . S
C208 C212 1.373 . S
C208 C214 1.505 . S
C209 C208 1.379 . S
C209 C211 1.369 . S
C209 H220 0.930 . S
C210 C212 1.383 . S
C210 C213 1.382 . S
C210 H221 0.930 . S
C211 C209 1.369 . S
C211 C213 1.392 . S
C211 H222 0.930 . S
C212 C208 1.373 . S
C212 C210 1.383 . S
C212 H223 0.931 . S
C213 C210 1.382 . S
C213 C211 1.392 . S
C214 Eu185 2.828 . S
C214 O198 1.249 . S
C214 O199 1.244 . S
C214 C208 1.505 . S
C215 O202 1.258 . S
C215 O203 1.242 . S
H216 C188 0.930 . S
H217 C189 0.929 1_554 S
H218 C190 0.930 . S
H219 C191 0.931 . S
H220 C209 0.930 . S
H221 C210 0.930 . S
H222 C211 0.930 . S
H223 C212 0.931 . S
Eu224 C233 2.828 . S
Eu224 O235 2.392 . S
Eu224 O237 2.418 1_455 S
Eu224 O242 2.373 . S
Eu224 O245 2.488 . S
Eu224 O246 2.471 . S
Eu224 O247 2.349 . S
Eu225 O234 2.373 . S
Eu225 O238 2.488 . S
Eu225 O239 2.471 . S
Eu225 O240 2.349 . S
Eu225 O243 2.392 1_655 S
Eu225 O244 2.418 1_655 S
Eu225 C254 2.828 . S
C226 O244 1.244 . S
C226 O247 1.265 . S
C227 C228 1.379 . S
C227 C231 1.373 . S
C227 C233 1.505 . S
C228 C227 1.379 . S
C228 C230 1.369 . S
C228 H256 0.930 . S
C229 C231 1.383 . S
C229 C232 1.382 . S
C229 H257 0.930 . S
C230 C228 1.369 . S
C230 C232 1.392 . S
C230 H258 0.930 . S
C231 C227 1.373 . S
C231 C229 1.383 . S
C231 H259 0.931 . S
C232 C229 1.382 . S
C232 C230 1.392 . S
C233 Eu224 2.828 . S
C233 C227 1.505 . S
C233 O245 1.249 . S
C233 O246 1.244 . S
O234 Eu225 2.373 . S
O234 C236 1.258 1_655 S
O235 Eu224 2.392 . S
O235 C236 1.242 . S
C236 O234 1.258 1_455 S
C236 O235 1.242 . S
O237 Eu224 2.418 1_655 S
O237 C241 1.244 . S
O238 Eu225 2.488 . S
O238 C254 1.249 . S
O239 Eu225 2.471 . S
O239 C254 1.244 . S
O240 Eu225 2.349 . S
O240 C241 1.265 . S
C241 O237 1.244 . S
C241 O240 1.265 . S
O242 Eu224 2.373 . S
O242 C255 1.258 . S
O243 Eu225 2.392 1_455 S
O243 C255 1.242 . S
O244 Eu225 2.418 1_455 S
O244 C226 1.244 . S
O245 Eu224 2.488 . S
O245 C233 1.249 . S
O246 Eu224 2.471 . S
O246 C233 1.244 . S
O247 Eu224 2.349 . S
O247 C226 1.265 . S
C248 C249 1.379 1_554 S
C248 C252 1.373 . S
C248 C254 1.505 1_554 S
C249 C248 1.379 1_556 S
C249 C251 1.369 1_556 S
C249 H260 0.930 . S
C250 C252 1.383 . S
C250 C253 1.382 . S
C250 H261 0.930 . S
C251 C249 1.369 1_554 S
C251 C253 1.392 . S
C251 H262 0.930 . S
C252 C248 1.373 . S
C252 C250 1.383 . S
C252 H263 0.931 . S
C253 C250 1.382 . S
C253 C251 1.392 . S
C254 Eu225 2.828 . S
C254 O238 1.249 . S
C254 O239 1.244 . S
C254 C248 1.505 1_556 S
C255 O242 1.258 . S
C255 O243 1.242 . S
H256 C228 0.930 . S
H257 C229 0.930 . S
H258 C230 0.930 . S
H259 C231 0.931 . S
H260 C249 0.930 . S
H261 C250 0.930 . S
H262 C251 0.930 . S
H263 C252 0.931 . S
H264 C270 0.930 . S
H265 C274 0.930 . S
H266 C279 0.929 . S
H267 C277 0.929 . S
H268 C272 0.929 . S
H269 C278 0.929 . S
C270 H264 0.930 . S
C270 C271 1.367 . S
C270 C278 1.378 . S
C271 C270 1.367 . S
C271 C279 1.433 . S
C272 H268 0.929 . S
C272 C274 1.378 . S
C272 C276 1.350 . S
C273 C276 1.463 . S
C273 C278 1.350 . S
C273 N281 1.427 . S
C274 H265 0.930 . S
C274 C272 1.378 . S
C274 C275 1.367 . S
C275 C274 1.367 . S
C275 C277 1.433 . S
C276 C272 1.350 . S
C276 C273 1.463 . S
C276 N280 1.427 . S
C277 H267 0.929 . S
C277 C275 1.433 . S
C277 N280 1.384 . S
C278 H269 0.929 . S
C278 C270 1.378 . S
C278 C273 1.350 . S
C279 H266 0.929 . S
C279 C271 1.433 . S
C279 N281 1.384 . S
N280 C276 1.427 . S
N280 C277 1.384 . S
N281 C273 1.427 . S
N281 C279 1.384 . S
H282 C288 0.930 . S
H283 C292 0.930 . S
H284 C297 0.929 . S
H285 C295 0.929 . S
H286 C290 0.929 . S
H287 C296 0.929 . S
C288 H282 0.930 . S
C288 C289 1.367 . S
C288 C296 1.378 . S
C289 C288 1.367 . S
C289 C297 1.433 . S
C290 H286 0.929 . S
C290 C292 1.378 . S
C290 C294 1.350 . S
C291 C294 1.463 . S
C291 C296 1.350 . S
C291 N299 1.427 . S
C292 H283 0.930 . S
C292 C290 1.378 . S
C292 C293 1.367 . S
C293 C292 1.367 . S
C293 C295 1.433 . S
C294 C290 1.350 . S
C294 C291 1.463 . S
C294 N298 1.427 . S
C295 H285 0.929 . S
C295 C293 1.433 . S
C295 N298 1.384 . S
C296 H287 0.929 . S
C296 C288 1.378 . S
C296 C291 1.350 . S
C297 H284 0.929 . S
C297 C289 1.433 . S
C297 N299 1.384 . S
N298 C294 1.427 . S
N298 C295 1.384 . S
N299 C291 1.427 . S
N299 C297 1.384 . S
H300 C306 0.930 . S
H301 C310 0.930 . S
H302 C315 0.929 . S
H303 C313 0.929 . S
H304 C308 0.929 . S
H305 C314 0.929 . S
C306 H300 0.930 . S
C306 C307 1.367 . S
C306 C314 1.378 . S
C307 C306 1.367 . S
C307 C315 1.433 . S
C308 H304 0.929 . S
C308 C310 1.378 . S
C308 C312 1.350 . S
C309 C312 1.463 . S
C309 C314 1.350 . S
C309 N317 1.427 . S
C310 H301 0.930 . S
C310 C308 1.378 . S
C310 C311 1.367 . S
C311 C310 1.367 . S
C311 C313 1.433 . S
C312 C308 1.350 . S
C312 C309 1.463 . S
C312 N316 1.427 . S
C313 H303 0.929 . S
C313 C311 1.433 . S
C313 N316 1.384 . S
C314 H305 0.929 . S
C314 C306 1.378 . S
C314 C309 1.350 . S
C315 H302 0.929 . S
C315 C307 1.433 . S
C315 N317 1.384 . S
N316 C312 1.427 . S
N316 C313 1.384 . S
N317 C309 1.427 . S
N317 C315 1.384 . S
H318 C324 0.930 . S
H319 C328 0.930 1_655 S
H320 C333 0.929 . S
H321 C331 0.929 . S
H322 C326 0.929 . S
H323 C332 0.929 . S
C324 H318 0.930 . S
C324 C325 1.367 . S
C324 C332 1.378 . S
C325 C324 1.367 . S
C325 C333 1.433 . S
C326 H322 0.929 . S
C326 C328 1.378 . S
C326 C330 1.350 . S
C327 C330 1.463 . S
C327 C332 1.350 . S
C327 N335 1.427 . S
C328 H319 0.930 1_455 S
C328 C326 1.378 . S
C328 C329 1.367 . S
C329 C328 1.367 . S
C329 C331 1.433 . S
C330 C326 1.350 . S
C330 C327 1.463 . S
C330 N334 1.427 . S
C331 H321 0.929 . S
C331 C329 1.433 . S
C331 N334 1.384 . S
C332 H323 0.929 . S
C332 C324 1.378 . S
C332 C327 1.350 . S
C333 H320 0.929 . S
C333 C325 1.433 . S
C333 N335 1.384 . S
N334 C330 1.427 . S
N334 C331 1.384 . S
N335 C327 1.427 . S
N335 C333 1.384 . S
H336 C342 0.930 . S
H337 C346 0.930 . S
H338 C351 0.929 . S
H339 C349 0.932 . S
H340 C344 0.929 . S
H341 C350 0.929 . S
C342 H336 0.930 . S
C342 C343 1.367 . S
C342 C350 1.378 . S
C343 C342 1.367 . S
C343 C351 1.433 . S
C344 H340 0.929 . S
C344 C346 1.378 . S
C344 C348 1.350 . S
C345 C348 1.463 . S
C345 C350 1.350 . S
C345 N353 1.427 . S
C346 H337 0.930 . S
C346 C344 1.378 . S
C346 C347 1.367 1_554 S
C347 C346 1.367 1_556 S
C347 C349 1.432 1_565 S
C348 C344 1.350 . S
C348 C345 1.463 . S
C348 N352 1.427 . S
C349 H339 0.932 . S
C349 C347 1.432 1_545 S
C349 N352 1.383 1_546 S
C350 H341 0.929 . S
C350 C342 1.378 . S
C350 C345 1.350 . S
C351 H338 0.929 . S
C351 C343 1.433 . S
C351 N353 1.384 . S
N352 C348 1.427 . S
N352 C349 1.383 1_564 S
N353 C345 1.427 . S
N353 C351 1.384 . S
H354 C360 0.930 . S
H355 C364 0.930 . S
H356 C369 0.929 . S
H357 C367 0.929 . S
H358 C362 0.929 . S
H359 C368 0.929 . S
C360 H354 0.930 . S
C360 C361 1.367 . S
C360 C368 1.378 . S
C361 C360 1.367 . S
C361 C369 1.433 . S
C362 H358 0.929 . S
C362 C364 1.378 . S
C362 C366 1.350 1_556 S
C363 C366 1.463 . S
C363 C368 1.350 . S
C363 N371 1.427 . S
C364 H355 0.930 . S
C364 C362 1.378 . S
C364 C365 1.367 . S
C365 C364 1.367 . S
C365 C367 1.433 . S
C366 C362 1.350 1_554 S
C366 C363 1.463 . S
C366 N370 1.427 . S
C367 H357 0.929 . S
C367 C365 1.433 . S
C367 N370 1.384 1_556 S
C368 H359 0.929 . S
C368 C360 1.378 . S
C368 C363 1.350 . S
C369 H356 0.929 . S
C369 C361 1.433 . S
C369 N371 1.384 . S
N370 C366 1.427 . S
N370 C367 1.384 1_554 S
N371 C363 1.427 . S
N371 C369 1.384 . S
H372 C378 0.930 . S
H373 C382 0.930 . S
H374 C387 0.929 . S
H375 C385 0.929 . S
H376 C380 0.929 . S
H377 C386 0.929 . S
C378 H372 0.930 . S
C378 C379 1.367 . S
C378 C386 1.378 . S
C379 C378 1.367 . S
C379 C387 1.433 . S
C380 H376 0.929 . S
C380 C382 1.378 1_554 S
C380 C384 1.350 . S
C381 C384 1.463 . S
C381 C386 1.350 . S
C381 N389 1.427 . S
C382 H373 0.930 . S
C382 C380 1.378 1_556 S
C382 C383 1.367 . S
C383 C382 1.367 . S
C383 C385 1.433 . S
C384 C380 1.350 . S
C384 C381 1.463 . S
C384 N388 1.427 . S
C385 H375 0.929 . S
C385 C383 1.433 . S
C385 N388 1.384 1_556 S
C386 H377 0.929 . S
C386 C378 1.378 . S
C386 C381 1.350 . S
C387 H374 0.929 . S
C387 C379 1.433 . S
C387 N389 1.384 . S
N388 C384 1.427 . S
N388 C385 1.384 1_554 S
N389 C381 1.427 . S
N389 C387 1.384 . S
H390 C396 0.930 1_455 S
H391 C400 0.930 . S
H392 C405 0.929 . S
H393 C403 0.929 . S
H394 C398 0.929 . S
H395 C404 0.929 . S
C396 H390 0.930 1_655 S
C396 C397 1.367 . S
C396 C404 1.378 1_655 S
C397 C396 1.367 . S
C397 C405 1.433 . S
C398 H394 0.929 . S
C398 C400 1.378 1_554 S
C398 C402 1.350 . S
C399 C402 1.463 . S
C399 C404 1.350 1_655 S
C399 N407 1.427 . S
C400 H391 0.930 . S
C400 C398 1.378 1_556 S
C400 C401 1.367 . S
C401 C400 1.367 . S
C401 C403 1.433 1_655 S
C402 C398 1.350 . S
C402 C399 1.463 . S
C402 N406 1.427 1_655 S
C403 H393 0.929 . S
C403 C401 1.433 1_455 S
C403 N406 1.384 1_556 S
C404 H395 0.929 . S
C404 C396 1.378 1_455 S
C404 C399 1.350 1_455 S
C405 H392 0.929 . S
C405 C397 1.433 . S
C405 N407 1.384 . S
N406 C402 1.427 1_455 S
N406 C403 1.384 1_554 S
N407 C399 1.427 . S
N407 C405 1.384 . S
H408 C414 0.930 . S
H409 C418 0.930 . S
H410 C423 0.929 . S
H411 C421 0.929 . S
H412 C416 0.929 . S
H413 C422 0.929 1_655 S
C414 H408 0.930 . S
C414 C415 1.367 . S
C414 C422 1.378 . S
C415 C414 1.367 . S
C415 C423 1.433 . S
C416 H412 0.929 . S
C416 C418 1.378 . S
C416 C420 1.350 . S
C417 C420 1.463 . S
C417 C422 1.350 . S
C417 N425 1.427 . S
C418 H409 0.930 . S
C418 C416 1.378 . S
C418 C419 1.367 . S
C419 C418 1.367 . S
C419 C421 1.433 1_455 S
C420 C416 1.350 . S
C420 C417 1.463 . S
C420 N424 1.427 1_455 S
C421 H411 0.929 . S
C421 C419 1.433 1_655 S
C421 N424 1.384 . S
C422 H413 0.929 1_455 S
C422 C414 1.378 . S
C422 C417 1.350 . S
C423 H410 0.929 . S
C423 C415 1.433 . S
C423 N425 1.384 . S
N424 C420 1.427 1_655 S
N424 C421 1.384 . S
N425 C417 1.427 . S
N425 C423 1.384 . S
H426 C432 0.930 . S
H427 C436 0.930 . S
H428 C441 0.936 . S
H429 C439 0.929 . S
H430 C434 0.929 . S
H431 C440 0.929 . S
C432 H426 0.930 . S
C432 C433 1.367 . S
C432 C440 1.378 . S
C433 C432 1.367 . S
C433 C441 1.433 . S
C434 H430 0.929 . S
C434 C436 1.378 . S
C434 C438 1.350 1_565 S
C435 C438 1.463 . S
C435 C440 1.350 . S
C435 N443 1.427 . S
C436 H427 0.930 . S
C436 C434 1.378 . S
C436 C437 1.367 . S
C437 C436 1.367 . S
C437 C439 1.433 1_565 S
C438 C434 1.350 1_545 S
C438 C435 1.463 . S
C438 N442 1.427 . S
C439 H429 0.929 . S
C439 C437 1.433 1_545 S
C439 N442 1.384 . S
C440 H431 0.929 . S
C440 C432 1.378 . S
C440 C435 1.350 . S
C441 H428 0.936 . S
C441 C433 1.433 . S
C441 N443 1.384 . S
N442 C438 1.427 . S
N442 C439 1.384 . S
N443 C435 1.427 . S
N443 C441 1.384 . S
H444 C450 0.930 . S
H445 C454 0.930 . S
H446 C459 0.929 . S
H447 C457 0.929 . S
H448 C452 0.929 . S
H449 C458 0.929 . S
C450 H444 0.930 . S
C450 C451 1.367 . S
C450 C458 1.378 . S
C451 C450 1.367 . S
C451 C459 1.433 . S
C452 H448 0.929 . S
C452 C454 1.378 . S
C452 C456 1.350 . S
C453 C456 1.463 . S
C453 C458 1.350 . S
C453 N461 1.427 . S
C454 H445 0.930 . S
C454 C452 1.378 . S
C454 C455 1.367 . S
C455 C454 1.367 . S
C455 C457 1.433 . S
C456 C452 1.350 . S
C456 C453 1.463 . S
C456 N460 1.427 . S
C457 H447 0.929 . S
C457 C455 1.433 . S
C457 N460 1.384 . S
C458 H449 0.929 . S
C458 C450 1.378 . S
C458 C453 1.350 . S
C459 H446 0.929 . S
C459 C451 1.433 . S
C459 N461 1.384 . S
N460 C456 1.427 . S
N460 C457 1.384 . S
N461 C453 1.427 . S
N461 C459 1.384 . S
H462 C468 0.930 . S
H463 C472 0.930 . S
H464 C477 0.929 . S
H465 C475 0.929 . S
H466 C470 0.929 . S
H467 C476 0.929 . S
C468 H462 0.930 . S
C468 C469 1.367 . S
C468 C476 1.378 . S
C469 C468 1.367 . S
C469 C477 1.433 . S
C470 H466 0.929 . S
C470 C472 1.378 . S
C470 C474 1.350 . S
C471 C474 1.463 . S
C471 C476 1.350 . S
C471 N479 1.427 . S
C472 H463 0.930 . S
C472 C470 1.378 . S
C472 C473 1.367 . S
C473 C472 1.367 . S
C473 C475 1.433 . S
C474 C470 1.350 . S
C474 C471 1.463 . S
C474 N478 1.427 . S
C475 H465 0.929 . S
C475 C473 1.433 . S
C475 N478 1.384 . S
C476 H467 0.929 . S
C476 C468 1.378 . S
C476 C471 1.350 . S
C477 H464 0.929 . S
C477 C469 1.433 . S
C477 N479 1.384 . S
N478 C474 1.427 . S
N478 C475 1.384 . S
N479 C471 1.427 . S
N479 C477 1.384 . S
H480 C486 0.930 . S
H481 C490 0.931 . S
H482 C495 0.929 . S
H483 C493 0.929 . S
H484 C488 0.929 . S
H485 C494 0.929 1_455 S
C486 H480 0.930 . S
C486 C487 1.367 . S
C486 C494 1.378 . S
C487 C486 1.367 . S
C487 C495 1.433 . S
C488 H484 0.929 . S
C488 C490 1.378 1_655 S
C488 C492 1.350 . S
C489 C492 1.463 . S
C489 C494 1.350 . S
C489 N497 1.427 . S
C490 H481 0.931 . S
C490 C488 1.378 1_455 S
C490 C491 1.367 . S
C491 C490 1.367 . S
C491 C493 1.433 . S
C492 C488 1.350 . S
C492 C489 1.463 . S
C492 N496 1.427 1_655 S
C493 H483 0.929 . S
C493 C491 1.433 . S
C493 N496 1.384 . S
C494 H485 0.929 1_655 S
C494 C486 1.378 . S
C494 C489 1.350 . S
C495 H482 0.929 . S
C495 C487 1.433 . S
C495 N497 1.384 . S
N496 C492 1.427 1_455 S
N496 C493 1.384 . S
N497 C489 1.427 . S
N497 C495 1.384 . S
H498 C504 0.930 . S
H499 C508 0.930 . S
H500 C513 0.929 . S
H501 C511 0.929 1_565 S
H502 C506 0.929 . S
H503 C512 0.929 . S
C504 H498 0.930 . S
C504 C505 1.367 . S
C504 C512 1.378 . S
C505 C504 1.367 . S
C505 C513 1.433 1_565 S
C506 H502 0.929 . S
C506 C508 1.378 . S
C506 C510 1.350 . S
C507 C510 1.455 1_565 S
C507 C512 1.368 . S
C507 N515 1.415 1_565 S
C508 H499 0.930 . S
C508 C506 1.378 . S
C508 C509 1.367 . S
C509 C508 1.367 . S
C509 C511 1.433 . S
C510 C506 1.350 . S
C510 C507 1.455 1_545 S
C510 N514 1.427 1_545 S
C511 H501 0.929 1_545 S
C511 C509 1.433 . S
C511 N514 1.384 1_545 S
C512 H503 0.929 . S
C512 C504 1.378 . S
C512 C507 1.368 . S
C513 H500 0.929 . S
C513 C505 1.433 1_545 S
C513 N515 1.384 . S
N514 C510 1.427 1_565 S
N514 C511 1.384 1_565 S
N515 C507 1.415 1_545 S
N515 C513 1.384 . S
H516 C522 0.930 . S
H517 C526 0.930 . S
H518 C531 0.929 . S
H519 C529 0.929 . S
H520 C524 0.929 . S
H521 C530 0.929 . S
C522 H516 0.930 . S
C522 C523 1.367 . S
C522 C530 1.378 . S
C523 C522 1.367 . S
C523 C531 1.433 . S
C524 H520 0.929 . S
C524 C526 1.378 . S
C524 C528 1.350 . S
C525 C528 1.463 . S
C525 C530 1.350 . S
C525 N533 1.427 . S
C526 H517 0.930 . S
C526 C524 1.378 . S
C526 C527 1.367 . S
C527 C526 1.367 . S
C527 C529 1.433 1_554 S
C528 C524 1.350 . S
C528 C525 1.463 . S
C528 N532 1.427 . S
C529 H519 0.929 . S
C529 C527 1.433 1_556 S
C529 N532 1.384 1_556 S
C530 H521 0.929 . S
C530 C522 1.378 . S
C530 C525 1.350 . S
C531 H518 0.929 . S
C531 C523 1.433 . S
C531 N533 1.384 . S
N532 C528 1.427 . S
N532 C529 1.384 1_554 S
N533 C525 1.427 . S
N533 C531 1.384 . S
H534 C540 0.930 . S
H535 C544 0.930 . S
H536 C549 0.929 . S
H537 C547 0.929 . S
H538 C542 0.929 . S
H539 C548 0.929 . S
C540 H534 0.930 . S
C540 C541 1.367 . S
C540 C548 1.378 . S
C541 C540 1.367 . S
C541 C549 1.433 . S
C542 H538 0.929 . S
C542 C544 1.378 . S
C542 C546 1.350 . S
C543 C546 1.463 . S
C543 C548 1.350 . S
C543 N551 1.427 . S
C544 H535 0.930 . S
C544 C542 1.378 . S
C544 C545 1.367 . S
C545 C544 1.367 . S
C545 C547 1.433 . S
C546 C542 1.350 . S
C546 C543 1.463 . S
C546 N550 1.427 . S
C547 H537 0.929 . S
C547 C545 1.433 . S
C547 N550 1.384 . S
C548 H539 0.929 . S
C548 C540 1.378 . S
C548 C543 1.350 . S
C549 H536 0.929 . S
C549 C541 1.433 . S
C549 N551 1.384 . S
N550 C546 1.427 . S
N550 C547 1.384 . S
N551 C543 1.427 . S
N551 C549 1.384 . S
H552 C558 0.930 . S
H553 C562 0.930 . S
H554 C567 0.929 . S
H555 C565 0.929 . S
H556 C560 0.929 1_554 S
H557 C566 0.929 . S
C558 H552 0.930 . S
C558 C559 1.367 . S
C558 C566 1.378 . S
C559 C558 1.367 . S
C559 C567 1.433 1_556 S
C560 H556 0.929 1_556 S
C560 C562 1.378 . S
C560 C564 1.350 . S
C561 C564 1.463 . S
C561 C566 1.350 . S
C561 N569 1.427 . S
C562 H553 0.930 . S
C562 C560 1.378 . S
C562 C563 1.367 . S
C563 C562 1.367 . S
C563 C565 1.433 . S
C564 C560 1.350 . S
C564 C561 1.463 . S
C564 N568 1.427 . S
C565 H555 0.929 . S
C565 C563 1.433 . S
C565 N568 1.384 . S
C566 H557 0.929 . S
C566 C558 1.378 . S
C566 C561 1.350 . S
C567 H554 0.929 . S
C567 C559 1.433 1_554 S
C567 N569 1.384 1_554 S
N568 C564 1.427 . S
N568 C565 1.384 . S
N569 C561 1.427 . S
N569 C567 1.384 1_556 S
H570 C576 0.930 . S
H571 C580 0.930 1_565 S
H572 C585 0.929 1_565 S
H573 C583 0.929 . S
H574 C578 0.929 1_565 S
H575 C584 0.929 . S
C576 H570 0.930 . S
C576 C577 1.367 . S
C576 C584 1.378 . S
C577 C576 1.367 . S
C577 C585 1.433 . S
C578 H574 0.929 1_545 S
C578 C580 1.378 . S
C578 C582 1.350 . S
C579 C582 1.463 . S
C579 C584 1.350 . S
C579 N587 1.427 . S
C580 H571 0.930 1_545 S
C580 C578 1.378 . S
C580 C581 1.367 . S
C581 C580 1.367 . S
C581 C583 1.433 . S
C582 C578 1.350 . S
C582 C579 1.463 . S
C582 N586 1.427 . S
C583 H573 0.929 . S
C583 C581 1.433 . S
C583 N586 1.384 . S
C584 H575 0.929 . S
C584 C576 1.378 . S
C584 C579 1.350 . S
C585 H572 0.929 1_545 S
C585 C577 1.433 . S
C585 N587 1.384 . S
N586 C582 1.427 . S
N586 C583 1.384 . S
N587 C579 1.427 . S
N587 C585 1.384 . S
H588 C594 0.930 . S
H589 C598 0.930 . S
H590 C603 0.929 . S
H591 C601 0.929 . S
H592 C596 0.929 . S
H593 C602 0.929 . S
C594 H588 0.930 . S
C594 C595 1.367 . S
C594 C602 1.378 . S
C595 C594 1.367 . S
C595 C603 1.433 1_556 S
C596 H592 0.929 . S
C596 C598 1.378 . S
C596 C600 1.350 . S
C597 C600 1.463 . S
C597 C602 1.350 . S
C597 N605 1.427 . S
C598 H589 0.930 . S
C598 C596 1.378 . S
C598 C599 1.367 . S
C599 C598 1.367 . S
C599 C601 1.433 . S
C600 C596 1.350 . S
C600 C597 1.463 . S
C600 N604 1.427 . S
C601 H591 0.929 . S
C601 C599 1.433 . S
C601 N604 1.384 . S
C602 H593 0.929 . S
C602 C594 1.378 . S
C602 C597 1.350 . S
C603 H590 0.929 . S
C603 C595 1.433 1_554 S
C603 N605 1.384 1_554 S
N604 C600 1.427 . S
N604 C601 1.384 . S
N605 C597 1.427 . S
N605 C603 1.384 1_556 S
H606 C612 0.930 1_554 S
H607 C616 0.930 . S
H608 C621 0.929 . S
H609 C619 0.929 . S
H610 C614 0.929 . S
H611 C620 0.929 . S
C612 H606 0.930 1_556 S
C612 C613 1.367 . S
C612 C620 1.378 . S
C613 C612 1.367 . S
C613 C621 1.433 . S
C614 H610 0.929 . S
C614 C616 1.378 . S
C614 C618 1.350 . S
C615 C618 1.463 . S
C615 C620 1.350 . S
C615 N623 1.427 . S
C616 H607 0.930 . S
C616 C614 1.378 . S
C616 C617 1.367 . S
C617 C616 1.367 . S
C617 C619 1.433 . S
C618 C614 1.350 . S
C618 C615 1.463 . S
C618 N622 1.427 . S
C619 H609 0.929 . S
C619 C617 1.433 . S
C619 N622 1.384 . S
C620 H611 0.929 . S
C620 C612 1.378 . S
C620 C615 1.350 . S
C621 H608 0.929 . S
C621 C613 1.433 . S
C621 N623 1.384 . S
N622 C618 1.427 . S
N622 C619 1.384 . S
N623 C615 1.427 . S
N623 C621 1.384 . S
H624 C630 0.930 . S
H625 C634 0.930 . S
H626 C639 0.929 . S
H627 C637 0.929 . S
H628 C632 0.929 . S
H629 C638 0.929 . S
C630 H624 0.930 . S
C630 C631 1.367 . S
C630 C638 1.378 . S
C631 C630 1.367 . S
C631 C639 1.433 . S
C632 H628 0.929 . S
C632 C634 1.378 . S
C632 C636 1.350 . S
C633 C636 1.463 . S
C633 C638 1.350 . S
C633 N641 1.427 . S
C634 H625 0.930 . S
C634 C632 1.378 . S
C634 C635 1.367 . S
C635 C634 1.367 . S
C635 C637 1.433 . S
C636 C632 1.350 . S
C636 C633 1.463 . S
C636 N640 1.427 . S
C637 H627 0.929 . S
C637 C635 1.433 . S
C637 N640 1.384 . S
C638 H629 0.929 . S
C638 C630 1.378 . S
C638 C633 1.350 . S
C639 H626 0.929 . S
C639 C631 1.433 . S
C639 N641 1.384 . S
N640 C636 1.427 . S
N640 C637 1.384 . S
N641 C633 1.427 . S
N641 C639 1.384 . S
H642 C648 0.930 . S
H643 C652 0.930 . S
H644 C657 0.929 . S
H645 C655 0.929 . S
H646 C650 0.929 . S
H647 C656 0.929 . S
C648 H642 0.930 . S
C648 C649 1.367 . S
C648 C656 1.378 . S
C649 C648 1.367 . S
C649 C657 1.433 1_565 S
C650 H646 0.929 . S
C650 C652 1.378 . S
C650 C654 1.350 1_545 S
C651 C654 1.463 . S
C651 C656 1.350 . S
C651 N659 1.427 1_565 S
C652 H643 0.930 . S
C652 C650 1.378 . S
C652 C653 1.367 1_545 S
C653 C652 1.367 1_565 S
C653 C655 1.433 . S
C654 C650 1.350 1_565 S
C654 C651 1.463 . S
C654 N658 1.427 . S
C655 H645 0.929 . S
C655 C653 1.433 . S
C655 N658 1.384 . S
C656 H647 0.929 . S
C656 C648 1.378 . S
C656 C651 1.350 . S
C657 H644 0.929 . S
C657 C649 1.433 1_545 S
C657 N659 1.384 . S
N658 C654 1.427 . S
N658 C655 1.384 . S
N659 C651 1.427 1_545 S
N659 C657 1.384 . S
H660 C666 0.930 . S
H661 C670 0.930 . S
H662 C675 0.929 . S
H663 C673 0.929 . S
H664 C668 0.929 . S
H665 C674 0.929 . S
C666 H660 0.930 . S
C666 C667 1.367 . S
C666 C674 1.378 . S
C667 C666 1.367 . S
C667 C675 1.433 . S
C668 H664 0.929 . S
C668 C670 1.378 . S
C668 C672 1.350 . S
C669 C672 1.463 . S
C669 C674 1.350 . S
C669 N677 1.427 . S
C670 H661 0.930 . S
C670 C668 1.378 . S
C670 C671 1.367 . S
C671 C670 1.367 . S
C671 C673 1.433 . S
C672 C668 1.350 . S
C672 C669 1.463 . S
C672 N676 1.427 . S
C673 H663 0.929 . S
C673 C671 1.433 . S
C673 N676 1.384 . S
C674 H665 0.929 . S
C674 C666 1.378 . S
C674 C669 1.350 . S
C675 H662 0.929 . S
C675 C667 1.433 . S
C675 N677 1.384 . S
N676 C672 1.427 . S
N676 C673 1.384 . S
N677 C669 1.427 . S
N677 C675 1.384 . S
H678 C684 0.930 . S
H679 C688 0.930 . S
H680 C693 0.929 . S
H681 C691 0.929 . S
H682 C686 0.929 . S
H683 C692 0.929 . S
C684 H678 0.930 . S
C684 C685 1.367 . S
C684 C692 1.378 . S
C685 C684 1.367 . S
C685 C693 1.433 . S
C686 H682 0.929 . S
C686 C688 1.378 . S
C686 C690 1.350 . S
C687 C690 1.463 . S
C687 C692 1.350 . S
C687 N695 1.427 . S
C688 H679 0.930 . S
C688 C686 1.378 . S
C688 C689 1.367 . S
C689 C688 1.367 . S
C689 C691 1.433 . S
C690 C686 1.350 . S
C690 C687 1.463 . S
C690 N694 1.427 . S
C691 H681 0.929 . S
C691 C689 1.433 . S
C691 N694 1.384 . S
C692 H683 0.929 . S
C692 C684 1.378 . S
C692 C687 1.350 . S
C693 H680 0.929 . S
C693 C685 1.433 . S
C693 N695 1.384 . S
N694 C690 1.427 . S
N694 C691 1.384 . S
N695 C687 1.427 . S
N695 C693 1.384 . S
C271 N80 2.178 . S
C275 C135 2.294 . S
C293 C161 1.887 . S
C289 N93 1.793 . S
C311 C201 1.963 . S
C307 N54 1.877 . S
C329 C255 2.347 . S
C325 N67 2.247 . S
C347 C116 2.294 1_565 S
C343 N28 2.182 . S
C361 N41 1.791 . S
C365 C146 1.889 . S
C379 N2 1.885 . S
C383 C186 1.962 . S
C397 N15 2.253 . S
C401 C236 2.348 1_655 S
C419 C112 0.524 . S
C415 N70 0.480 . S
C437 C173 0.606 . S
C433 N83 0.613 . S
C455 C213 0.520 . S
C451 N96 0.513 . S
C469 N57 0.402 . S
C473 C232 0.453 . S
C487 N18 0.481 . S
C491 C133 0.503 . S
C509 C152 0.611 . S
C505 N31 0.615 . S
C527 C192 0.499 . S
C523 N44 0.490 . S
C541 N5 0.394 . S
C545 C253 0.449 . S
C559 N66 2.009 1_556 S
C563 C106 2.106 . S
C577 N79 2.480 . S
C581 C156 2.560 . S
C599 C196 2.370 . S
C595 N92 2.307 1_556 S
C617 C226 1.895 . S
C613 N53 1.813 1_556 S
C631 N14 2.008 . S
C635 C121 2.106 . S
C653 C175 2.560 . S
C649 N27 2.481 . S
C671 C215 2.372 . S
C667 N40 2.295 . S
C685 N1 1.819 . S
C689 C241 1.898 . S
