# Generated by pormake.
# Topology tsx, (6,3)-cn, num edge types: 1
# Building blocks:
#     Node 0, Type 0, BuildingBlock: MIDCAF_clean_sbu_0, # of connection points: 6
#     Node 1, Type 0, BuildingBlock: MIDCAF_clean_sbu_0, # of connection points: 6
#     Node 2, Type 1, BuildingBlock: INOVEN_clean_linker_0, # of connection points: 3
#     Node 3, Type 1, BuildingBlock: INOVEN_clean_linker_0, # of connection points: 3
#     Node 4, Type 1, BuildingBlock: INOVEN_clean_linker_0, # of connection points: 3
#     Node 5, Type 1, BuildingBlock: INOVEN_clean_linker_0, # of connection points: 3
#     Edge 6, Type (0, 1), BuildingBlock: XUDNAN_clean_linker_2, # of connection points: 2
#     Edge 7, Type (0, 1), BuildingBlock: XUDNAN_clean_linker_2, # of connection points: 2
#     Edge 8, Type (0, 1), BuildingBlock: XUDNAN_clean_linker_2, # of connection points: 2
#     Edge 9, Type (0, 1), BuildingBlock: XUDNAN_clean_linker_2, # of connection points: 2
#     Edge 10, Type (0, 1), BuildingBlock: XUDNAN_clean_linker_2, # of connection points: 2
#     Edge 11, Type (0, 1), BuildingBlock: XUDNAN_clean_linker_2, # of connection points: 2
#     Edge 12, Type (0, 1), BuildingBlock: XUDNAN_clean_linker_2, # of connection points: 2
#     Edge 13, Type (0, 1), BuildingBlock: XUDNAN_clean_linker_2, # of connection points: 2
#     Edge 14, Type (0, 1), BuildingBlock: XUDNAN_clean_linker_2, # of connection points: 2
#     Edge 15, Type (0, 1), BuildingBlock: XUDNAN_clean_linker_2, # of connection points: 2
#     Edge 16, Type (0, 1), BuildingBlock: XUDNAN_clean_linker_2, # of connection points: 2
#     Edge 17, Type (0, 1), BuildingBlock: XUDNAN_clean_linker_2, # of connection points: 2
# Relax obj value: 0.076
# Max RMSD: 0.148
# Mean RMSD: 0.105
data_MOF--net-tsx--node1-MIDCAF_clean_sbu_0--node2-INOVEN_clean_linker_0--edge1-XUDNAN_clean_linker_2
_symmetry_space_group_name_H-M    P1
_symmetry_Int_Tables_number       1
_symmetry_cell_setting            triclinic
loop_
_symmetry_equiv_pos_as_xyz
'x, y, z'
_cell_length_a     20.185034
_cell_length_b     20.732835
_cell_length_c     35.411978
_cell_angle_alpha  90.333185
_cell_angle_beta   103.54934
_cell_angle_gamma 89.748061
loop_
_atom_site_label
_atom_site_type_symbol
_atom_site_fract_x
_atom_site_fract_y
_atom_site_fract_z
_atom_type_partial_charge
Zn0 Zn 0.97417 0.00084 0.9517 0.0
Zn1 Zn 0.17251 0.02201 0.06791 0.0
Zn2 Zn 0.08168 0.00948 0.00821 0.0
C3 C 0.16012 0.14296 0.03779 0.0
C4 C 0.22261 0.93387 0.02237 0.0
O5 O 0.00448 0.9443 0.02386 0.0
O6 O 0.92612 0.92842 0.96935 0.0
C7 C 0.98378 0.12861 0.97418 0.0
O8 O 0.10779 0.11514 0.01587 0.0
O9 O 0.20142 0.11044 0.06275 0.0
O10 O 0.23241 0.95306 0.0571 0.0
O11 O 0.17005 0.95418 0.99697 0.0
O12 O 0.93977 0.08916 0.95651 0.0
O13 O 0.04334 0.10883 0.99232 0.0
O14 O 0.12053 0.96392 0.9617 0.0
O15 O 0.03045 0.9828 0.91357 0.0
C16 C 0.09133 0.96381 0.92528 0.0
O17 O 0.04555 0.96838 0.05812 0.0
O18 O 0.12235 0.00679 0.10814 0.0
C19 C 0.95079 0.91472 0.00449 0.0
C20 C 0.06716 0.97757 0.095 0.0
Zn21 Zn 0.6338 0.52148 0.56366 0.0
Zn22 Zn 0.41266 0.55506 0.45063 0.0
Zn23 Zn 0.51996 0.54189 0.50819 0.0
C24 C 0.51368 0.50888 0.41775 0.0
C25 C 0.44434 0.67803 0.48312 0.0
O26 O 0.48959 0.49001 0.55544 0.0
O27 O 0.58645 0.47999 0.59998 0.0
C28 C 0.65317 0.45507 0.49917 0.0
O29 O 0.54567 0.50955 0.45382 0.0
O30 O 0.4519 0.52539 0.40775 0.0
O31 O 0.40156 0.64912 0.45684 0.0
O32 O 0.4942 0.64674 0.50485 0.0
O33 O 0.68327 0.46477 0.53419 0.0
O34 O 0.59491 0.48226 0.48499 0.0
O35 O 0.56114 0.63798 0.52722 0.0
O36 O 0.65694 0.61489 0.57024 0.0
C37 C 0.6166 0.65605 0.55095 0.0
O38 O 0.4337 0.48767 0.52299 0.0
O39 O 0.35074 0.49769 0.47011 0.0
C40 C 0.52287 0.47163 0.5893 0.0
C41 C 0.37247 0.47498 0.50375 0.0
H42 H 0.08699 0.05893 0.45911 0.0
H43 H 0.12094 0.93306 0.36792 0.0
H44 H 0.94259 0.05171 0.34819 0.0
N45 N 0.96825 0.10747 0.41889 0.0
N46 N 0.91108 0.12183 0.39819 0.0
C47 C 0.07102 0.03916 0.43003 0.0
C48 C 0.11229 0.99336 0.41657 0.0
C49 C 0.00936 0.06031 0.40559 0.0
C50 C 0.98947 0.03542 0.36748 0.0
C51 C 0.02969 0.99003 0.35369 0.0
C52 C 0.09019 0.96859 0.37858 0.0
H53 H 0.96317 0.04375 0.56677 0.0
H54 H 0.99406 0.90348 0.6587 0.0
H55 H 0.14589 0.04701 0.65783 0.0
N56 N 0.07925 0.10453 0.59143 0.0
N57 N 0.13768 0.12749 0.60263 0.0
C58 C 0.99425 0.02237 0.59283 0.0
C59 C 0.97013 0.96927 0.61027 0.0
C60 C 0.05796 0.04973 0.60935 0.0
C61 C 0.09761 0.02481 0.6443 0.0
C62 C 0.0741 0.97278 0.66266 0.0
C63 C 0.01151 0.94422 0.64478 0.0
H64 H 0.64646 0.50267 0.96164 0.0
H65 H 0.64642 0.4229 0.8497 0.0
H66 H 0.46665 0.51743 0.86959 0.0
N67 N 0.52606 0.55963 0.94108 0.0
N68 N 0.47182 0.58918 0.9275 0.0
C69 C 0.61994 0.49248 0.93188 0.0
C70 C 0.65265 0.45766 0.90743 0.0
C71 C 0.55407 0.5165 0.91766 0.0
C72 C 0.51896 0.50175 0.8794 0.0
C73 C 0.55119 0.46837 0.8539 0.0
C74 C 0.61899 0.4474 0.86841 0.0
H75 H 0.49948 0.52147 0.04023 0.0
H76 H 0.43647 0.51138 0.14835 0.0
H77 H 0.63943 0.56736 0.14816 0.0
N78 N 0.61952 0.57742 0.07134 0.0
N79 N 0.68123 0.58062 0.08792 0.0
C80 C 0.50928 0.52686 0.07145 0.0
C81 C 0.46094 0.50663 0.09208 0.0
C82 C 0.57265 0.55169 0.09165 0.0
C83 C 0.58904 0.55265 0.13254 0.0
C84 C 0.541 0.53533 0.1533 0.0
C85 C 0.47553 0.5183 0.13245 0.0
H86 H 0.20802 0.22107 0.09795 0.0
H87 H 0.15226 0.21803 0.97239 0.0
H88 H 0.2107 0.3233 0.97134 0.0
H89 H 0.20935 0.4 0.11432 0.0
H90 H 0.28353 0.39248 0.15392 0.0
H91 H 0.22174 0.3284 0.14383 0.0
H92 H 0.31776 0.24745 0.13859 0.0
H93 H 0.37926 0.3111 0.14827 0.0
H94 H 0.36984 0.26322 0.10469 0.0
H95 H 0.29403 0.42249 0.98621 0.0
H96 H 0.38748 0.49848 0.01396 0.0
H97 H 0.39571 0.41864 0.12827 0.0
C98 C 0.20555 0.24394 0.07021 0.0
C99 C 0.17488 0.21228 0.03531 0.0
C100 C 0.17395 0.24262 -0.00051 0.0
C101 C 0.20762 0.3021 -0.00128 0.0
C102 C 0.24149 0.33013 0.03403 0.0
C103 C 0.23972 0.30173 0.06908 0.0
C104 C 0.28768 0.3339 0.10287 0.0
C105 C 0.24819 0.36559 0.13034 0.0
C106 C 0.3418 0.2861 0.12483 0.0
C107 C 0.31871 0.38382 0.08161 0.0
C108 C 0.29093 0.38279 0.04212 0.0
C109 C 0.31534 0.42383 0.01723 0.0
C110 C 0.36921 0.46655 0.03331 0.0
C111 C 0.39941 0.46676 0.07385 0.0
C112 C 0.37302 0.42391 0.09765 0.0
H113 H 0.21351 0.86387 0.95445 0.0
H114 H 0.34195 0.89449 0.06988 0.0
H115 H 0.41883 0.80842 0.05854 0.0
H116 H 0.22784 0.69417 0.95201 0.0
H117 H 0.23277 0.68903 0.90191 0.0
H118 H 0.18829 0.75523 0.91804 0.0
H119 H 0.26592 0.83833 0.89318 0.0
H120 H 0.30641 0.77086 0.87535 0.0
H121 H 0.35687 0.82878 0.90786 0.0
H122 H 0.47995 0.71625 0.03643 0.0
H123 H 0.52514 0.62827 0.00216 0.0
H124 H 0.3593 0.6571 0.90104 0.0
C125 C 0.25826 0.85321 0.977 0.0
C126 C 0.27123 0.88609 0.01298 0.0
C127 C 0.33037 0.87001 0.04202 0.0
C128 C 0.37459 0.82106 0.03595 0.0
C129 C 0.35958 0.78872 0.00056 0.0
C130 C 0.30348 0.80454 0.97132 0.0
C131 C 0.29955 0.76201 0.93595 0.0
C132 C 0.23317 0.7228 0.92644 0.0
C133 C 0.30764 0.80234 0.901 0.0
C134 C 0.36104 0.71901 0.9504 0.0
C135 C 0.39515 0.73543 0.9877 0.0
C136 C 0.45381 0.70296 0.00715 0.0
C137 C 0.47892 0.65292 0.9876 0.0
C138 C 0.44499 0.63604 0.94912 0.0
C139 C 0.38533 0.66914 0.93057 0.0
H140 H 0.81764 0.87531 0.9871 0.0
H141 H 0.01749 0.83013 0.05871 0.0
H142 H 0.97018 0.73411 0.08398 0.0
H143 H 0.72123 0.82674 0.05577 0.0
H144 H 0.65193 0.79381 0.01918 0.0
H145 H 0.70205 0.85882 0.00719 0.0
H146 H 0.7279 0.7897 0.95107 0.0
H147 H 0.67886 0.72402 0.96345 0.0
H148 H 0.76635 0.71117 0.96146 0.0
H149 H 0.90175 0.64364 0.10109 0.0
H150 H 0.8138 0.57014 0.11443 0.0
H151 H 0.65834 0.67197 0.03073 0.0
C152 C 0.85122 0.84536 0.00833 0.0
C153 C 0.92097 0.8608 0.02185 0.0
C154 C 0.96352 0.82034 0.04927 0.0
C155 C 0.9373 0.76515 0.06316 0.0
C156 C 0.86848 0.75091 0.049 0.0
C157 C 0.82578 0.7901 0.02249 0.0
C158 C 0.75332 0.76475 0.01284 0.0
C159 C 0.70425 0.81394 0.02445 0.0
C160 C 0.73028 0.74632 0.96963 0.0
C161 C 0.76183 0.70546 0.03837 0.0
C162 C 0.82893 0.69808 0.05858 0.0
C163 C 0.84923 0.64857 0.0852 0.0
C164 C 0.79928 0.60687 0.09238 0.0
C165 C 0.7302 0.61475 0.07314 0.0
C166 C 0.71124 0.66383 0.04509 0.0
H167 H 0.88879 0.17807 0.00795 0.0
H168 H 0.02822 0.22853 0.93705 0.0
H169 H 0.96841 0.33302 0.92114 0.0
H170 H 0.74778 0.22617 0.94771 0.0
H171 H 0.70386 0.25839 0.98253 0.0
H172 H 0.76778 0.19728 0.99704 0.0
H173 H 0.8345 0.27109 0.05207 0.0
H174 H 0.76986 0.33243 0.03821 0.0
H175 H 0.85791 0.35129 0.04081 0.0
H176 H 0.87662 0.4159 0.89991 0.0
H177 H 0.76743 0.4755 0.88022 0.0
H178 H 0.68989 0.37372 0.96713 0.0
C179 C 0.90876 0.21293 0.99085 0.0
C180 C 0.96381 0.19666 0.97444 0.0
C181 C 0.98741 0.24151 0.95081 0.0
C182 C 0.95342 0.30066 0.9415 0.0
C183 C 0.89679 0.31416 0.95662 0.0
C184 C 0.87573 0.27213 0.98167 0.0
C185 C 0.80868 0.29339 0.99 0.0
C186 C 0.75386 0.24069 0.97861 0.0
C187 C 0.81834 0.31325 0.03282 0.0
C188 C 0.79266 0.35127 0.96361 0.0
C189 C 0.84447 0.36317 0.94499 0.0
C190 C 0.83688 0.40852 0.9153 0.0
C191 C 0.7747 0.44184 0.90413 0.0
C192 C 0.72117 0.42975 0.92273 0.0
C193 C 0.73102 0.38513 0.9534 0.0
H194 H 0.67434 0.72614 0.61492 0.0
H195 H 0.6172 0.73374 0.48937 0.0
H196 H 0.69117 0.82905 0.49065 0.0
H197 H 0.69333 0.91056 0.63034 0.0
H198 H 0.76343 0.89808 0.67176 0.0
H199 H 0.69434 0.84101 0.66079 0.0
H200 H 0.78152 0.74927 0.66013 0.0
H201 H 0.85057 0.8058 0.66992 0.0
H202 H 0.83797 0.75444 0.62761 0.0
H203 H 0.79421 0.90217 0.50556 0.0
H204 H 0.90245 0.9582 0.53282 0.0
H205 H 0.88168 0.9133 0.64921 0.0
C206 C 0.67474 0.75015 0.58789 0.0
C207 C 0.63997 0.72334 0.5521 0.0
C208 C 0.64261 0.75455 0.51709 0.0
C209 C 0.68486 0.80842 0.51758 0.0
C210 C 0.72205 0.83148 0.55339 0.0
C211 C 0.71519 0.80479 0.58801 0.0
C212 C 0.76479 0.83447 0.62241 0.0
C213 C 0.72669 0.87336 0.64782 0.0
C214 C 0.81143 0.78292 0.64638 0.0
C215 C 0.80414 0.87837 0.60167 0.0
C216 C 0.77873 0.87645 0.56192 0.0
C217 C 0.81292 0.90608 0.53673 0.0
C218 C 0.8746 0.938 0.55258 0.0
C219 C 0.90156 0.94052 0.59336 0.0
C220 C 0.864 0.91182 0.61793 0.0
H221 H 0.78411 0.40754 0.5158 0.0
H222 H 0.58977 0.39215 0.43211 0.0
H223 H 0.63827 0.31005 0.3959 0.0
H224 H 0.89531 0.37812 0.44931 0.0
H225 H 0.9545 0.32962 0.4838 0.0
H226 H 0.90695 0.39287 0.50067 0.0
H227 H 0.86122 0.31012 0.54282 0.0
H228 H 0.90824 0.24668 0.52578 0.0
H229 H 0.8175 0.23919 0.52017 0.0
H230 H 0.7052 0.22601 0.37062 0.0
H231 H 0.7867 0.14396 0.35786 0.0
H232 H 0.93599 0.20689 0.46014 0.0
C233 C 0.75203 0.38776 0.48946 0.0
C234 C 0.68361 0.40863 0.47587 0.0
C235 C 0.64306 0.37998 0.44193 0.0
C236 C 0.66998 0.33232 0.42151 0.0
C237 C 0.73729 0.31275 0.43582 0.0
C238 C 0.77784 0.33927 0.46909 0.0
C239 C 0.84723 0.30652 0.47956 0.0
C240 C 0.90437 0.35466 0.47824 0.0
C241 C 0.85921 0.27368 0.51944 0.0
C242 C 0.83911 0.25712 0.44705 0.0
C243 C 0.77533 0.26204 0.42208 0.0
C244 C 0.75522 0.22175 0.38993 0.0
C245 C 0.80153 0.17535 0.38296 0.0
C246 C 0.86678 0.16907 0.40799 0.0
C247 C 0.88609 0.21047 0.44061 0.0
H248 H 0.40517 0.37805 0.55864 0.0
H249 H 0.23445 0.47542 0.48271 0.0
H250 H 0.15527 0.399 0.50155 0.0
H251 H 0.34485 0.22094 0.54003 0.0
H252 H 0.37346 0.19193 0.58907 0.0
H253 H 0.41743 0.25743 0.57252 0.0
H254 H 0.39949 0.32787 0.62927 0.0
H255 H 0.35469 0.2637 0.64644 0.0
H256 H 0.31487 0.3417 0.63603 0.0
H257 H 0.09517 0.30727 0.52344 0.0
H258 H 0.0571 0.20921 0.55136 0.0
H259 H 0.26447 0.17254 0.61554 0.0
C260 C 0.35106 0.38464 0.54707 0.0
C261 C 0.3261 0.43324 0.51952 0.0
C262 C 0.25489 0.4386 0.50387 0.0
C263 C 0.20935 0.39551 0.51443 0.0
C264 C 0.23555 0.34741 0.54098 0.0
C265 C 0.30455 0.3421 0.55759 0.0
C266 C 0.31906 0.28427 0.58437 0.0
C267 C 0.36649 0.23578 0.57065 0.0
C268 C 0.3487 0.30569 0.62655 0.0
C269 C 0.24774 0.25732 0.57934 0.0
C270 C 0.20038 0.29461 0.5542 0.0
C271 C 0.1316 0.27808 0.54359 0.0
C272 C 0.11049 0.22214 0.55942 0.0
C273 C 0.15818 0.18361 0.58564 0.0
C274 C 0.22737 0.20164 0.59571 0.0
H275 H 0.43142 0.77751 0.43316 0.0
H276 H 0.41363 0.72609 0.54839 0.0
H277 H 0.34076 0.82184 0.55 0.0
H278 H 0.4174 0.96451 0.44715 0.0
H279 H 0.37014 0.97109 0.39737 0.0
H280 H 0.43697 0.91165 0.41062 0.0
H281 H 0.35135 0.82276 0.37972 0.0
H282 H 0.28407 0.88099 0.3673 0.0
H283 H 0.27443 0.81246 0.39662 0.0
H284 H 0.24312 0.90069 0.5303 0.0
H285 H 0.14221 0.9612 0.49438 0.0
H286 H 0.23085 0.96907 0.39422 0.0
C287 C 0.41596 0.78921 0.45969 0.0
C288 C 0.42911 0.74562 0.49095 0.0
C289 C 0.40575 0.76019 0.52467 0.0
C290 C 0.36379 0.81425 0.52563 0.0
C291 C 0.34744 0.85409 0.49305 0.0
C292 C 0.37505 0.84349 0.46121 0.0
C293 C 0.34288 0.8874 0.42785 0.0
C294 C 0.39496 0.9366 0.42032 0.0
C295 C 0.31132 0.84855 0.39075 0.0
C296 C 0.28868 0.92001 0.44445 0.0
C297 C 0.29255 0.90128 0.4823 0.0
C298 C 0.24118 0.91757 0.5012 0.0
C299 C 0.18389 0.9521 0.48057 0.0
C300 C 0.17822 0.96967 0.44134 0.0
C301 C 0.23321 0.956 0.42406 0.0
H302 H 0.99845 0.05533 0.13292 0.0
H303 H 0.06102 0.85737 0.12433 0.0
H304 H 0.03136 0.83278 0.18642 0.0
H305 H 0.07949 0.07498 0.22329 0.0
H306 H 0.01961 0.12696 0.23936 0.0
H307 H 0.021 0.1244 0.18896 0.0
H308 H 0.89311 0.09417 0.17021 0.0
H309 H 0.89072 0.0979 0.22077 0.0
H310 H 0.86332 0.0259 0.19278 0.0
H311 H 0.02406 0.83666 0.2556 0.0
H312 H 0.03663 0.86757 0.32439 0.0
H313 H 0.98532 0.06519 0.28967 0.0
C314 C 1.00134 0.00595 0.14304 0.0
C315 C 0.02835 0.95733 0.12305 0.0
C316 C 0.03639 0.89413 0.13808 0.0
C317 C 0.02043 0.88007 0.17364 0.0
C318 C 0.99717 0.93003 0.19386 0.0
C319 C 0.98672 0.99171 0.17877 0.0
C320 C 0.97412 0.03947 0.20888 0.0
C321 C 0.02671 0.09461 0.2155 0.0
C322 C 0.90095 0.0659 0.19748 0.0
C323 C 0.98386 0.99613 0.24397 0.0
C324 C 0.99528 0.93287 0.23457 0.0
C325 C 0.0134 0.88568 0.26308 0.0
C326 C 0.0211 0.90379 0.30212 0.0
C327 C 0.01156 0.96874 0.31238 0.0
C328 C 0.99103 0.01486 0.2827 0.0
H329 H 0.14736 0.04508 0.88341 0.0
H330 H 0.10435 0.84393 0.89691 0.0
H331 H 0.12728 0.81968 0.83272 0.0
H332 H 0.05367 0.05681 0.79593 0.0
H333 H 0.10463 0.11267 0.77611 0.0
H334 H 0.11168 0.11081 0.82743 0.0
H335 H 0.24161 0.09028 0.83963 0.0
H336 H 0.23518 0.0928 0.78798 0.0
H337 H 0.27285 0.02372 0.81569 0.0
H338 H 0.12588 0.8219 0.76256 0.0
H339 H 0.09453 0.85022 0.69307 0.0
H340 H 0.12965 0.05209 0.72342 0.0
C341 C 0.14765 0.99542 0.87376 0.0
C342 C 0.12771 0.94569 0.89556 0.0
C343 C 0.12303 0.88183 0.88124 0.0
C344 C 0.13553 0.86791 0.8447 0.0
C345 C 0.15202 0.91865 0.82282 0.0
C346 C 0.15858 0.9813 0.83702 0.0
C347 C 0.16147 0.02907 0.80523 0.0
C348 C 0.10446 0.08023 0.80094 0.0
C349 C 0.23199 0.06083 0.81257 0.0
C350 C 0.15012 0.98431 0.77042 0.0
C351 C 0.14747 0.92059 0.78131 0.0
C352 C 0.12939 0.87145 0.7538 0.0
C353 C 0.11107 0.88806 0.71436 0.0
C354 C 0.10952 0.95345 0.70276 0.0
C355 C 0.13207 0.00158 0.73121 0.0
H356 H 0.56189 0.37784 0.64281 0.0
H357 H 0.40838 0.5246 0.60417 0.0
H358 H 0.37849 0.52176 0.66781 0.0
H359 H 0.46177 0.2938 0.71351 0.0
H360 H 0.54228 0.27554 0.74634 0.0
H361 H 0.53472 0.27373 0.69455 0.0
H362 H 0.63549 0.35356 0.70363 0.0
H363 H 0.64205 0.35773 0.75489 0.0
H364 H 0.62955 0.43063 0.72657 0.0
H365 H 0.39919 0.53389 0.73888 0.0
H366 H 0.44852 0.54302 0.80834 0.0
H367 H 0.57455 0.3741 0.80234 0.0
C368 C 0.51918 0.40632 0.64716 0.0
C369 C 0.48733 0.45138 0.61898 0.0
C370 C 0.43257 0.48914 0.62537 0.0
C371 C 0.41551 0.48795 0.66151 0.0
C372 C 0.452 0.44691 0.69014 0.0
C373 C 0.50047 0.40432 0.68274 0.0
C374 C 0.53788 0.37076 0.71952 0.0
C375 C 0.51796 0.29921 0.71842 0.0
C376 C 0.61578 0.37876 0.72653 0.0
C377 C 0.50955 0.4074 0.74935 0.0
C378 C 0.45924 0.45026 0.73179 0.0
C379 C 0.43553 0.49803 0.75311 0.0
C380 C 0.46421 0.5026 0.79308 0.0
C381 C 0.51558 0.45876 0.812 0.0
C382 C 0.53612 0.40908 0.78954 0.0
H383 H 0.47649 0.43075 0.35497 0.0
H384 H 0.6283 0.56973 0.41011 0.0
H385 H 0.66472 0.58216 0.34852 0.0
H386 H 0.58299 0.36039 0.28612 0.0
H387 H 0.50617 0.34893 0.24874 0.0
H388 H 0.50453 0.34009 0.29915 0.0
H389 H 0.40677 0.4241 0.28957 0.0
H390 H 0.40943 0.435 0.23972 0.0
H391 H 0.41984 0.50351 0.27212 0.0
H392 H 0.66008 0.60155 0.27787 0.0
H393 H 0.63136 0.61085 0.20652 0.0
H394 H 0.49262 0.44895 0.19871 0.0
C395 C 0.51984 0.46104 0.35443 0.0
C396 C 0.55012 0.49899 0.38691 0.0
C397 C 0.60556 0.53949 0.38547 0.0
C398 C 0.6262 0.54707 0.35058 0.0
C399 C 0.59225 0.51202 0.31809 0.0
C400 C 0.54214 0.46768 0.32019 0.0
C401 C 0.50953 0.44011 0.2806 0.0
C402 C 0.52687 0.36811 0.27853 0.0
C403 C 0.43185 0.45142 0.26991 0.0
C404 C 0.54484 0.4798 0.25556 0.0
C405 C 0.59272 0.52069 0.27756 0.0
C406 C 0.62483 0.56787 0.26036 0.0
C407 C 0.60802 0.57283 0.21967 0.0
C408 C 0.55973 0.53057 0.19655 0.0
C409 C 0.5291 0.48277 0.21513 0.0
loop_
_geom_bond_atom_site_label_1
_geom_bond_atom_site_label_2
_geom_bond_distance
_geom_bond_site_symmetry_2
_ccdc_geom_bond_type
Zn0 O6 1.920 1_545 S
Zn0 O12 1.898 . S
Zn0 O15 1.905 1_545 S
Zn1 O9 1.905 . S
Zn1 O10 1.898 1_545 S
Zn1 O18 1.920 1_545 S
Zn2 O5 2.080 1_445 S
Zn2 O8 2.114 . S
Zn2 O11 2.120 1_545 S
Zn2 O13 2.120 1_455 S
Zn2 O14 2.114 1_554 S
Zn2 O17 2.080 . S
C3 O8 1.166 . S
C3 O9 1.182 . S
C4 O10 1.167 . S
C4 O11 1.299 . S
O5 Zn2 2.080 1_665 S
O5 C19 1.305 . S
O6 Zn0 1.920 1_565 S
O6 C19 1.234 1_556 S
C7 O12 1.167 . S
C7 O13 1.299 1_556 S
O8 Zn2 2.114 . S
O8 C3 1.166 . S
O9 Zn1 1.905 . S
O9 C3 1.182 . S
O10 Zn1 1.898 1_565 S
O10 C4 1.167 . S
O11 Zn2 2.120 1_565 S
O11 C4 1.299 . S
O12 Zn0 1.898 . S
O12 C7 1.167 . S
O13 Zn2 2.120 1_655 S
O13 C7 1.299 1_554 S
O14 Zn2 2.114 1_556 S
O14 C16 1.166 1_445 S
O15 Zn0 1.905 1_565 S
O15 C16 1.182 . S
C16 O14 1.166 1_665 S
C16 O15 1.182 . S
O17 Zn2 2.080 . S
O17 C20 1.305 1_545 S
O18 Zn1 1.920 1_565 S
O18 C20 1.234 . S
C19 O5 1.305 . S
C19 O6 1.234 1_554 S
C20 O17 1.305 1_565 S
C20 O18 1.234 . S
Zn21 O27 1.920 . S
Zn21 O33 1.898 . S
Zn21 O36 1.905 . S
Zn22 O30 1.905 . S
Zn22 O31 1.898 . S
Zn22 O39 1.920 . S
Zn23 O26 2.080 . S
Zn23 O29 2.114 . S
Zn23 O32 2.120 . S
Zn23 O34 2.120 . S
Zn23 O35 2.114 . S
Zn23 O38 2.080 . S
C24 O29 1.166 . S
C24 O30 1.182 . S
C25 O31 1.167 . S
C25 O32 1.299 . S
O26 Zn23 2.080 . S
O26 C40 1.305 . S
O27 Zn21 1.920 . S
O27 C40 1.234 . S
C28 O33 1.167 . S
C28 O34 1.299 . S
O29 Zn23 2.114 . S
O29 C24 1.166 . S
O30 Zn22 1.905 . S
O30 C24 1.182 . S
O31 Zn22 1.898 . S
O31 C25 1.167 . S
O32 Zn23 2.120 . S
O32 C25 1.299 . S
O33 Zn21 1.898 . S
O33 C28 1.167 . S
O34 Zn23 2.120 . S
O34 C28 1.299 . S
O35 Zn23 2.114 . S
O35 C37 1.166 . S
O36 Zn21 1.905 . S
O36 C37 1.182 . S
C37 O35 1.166 . S
C37 O36 1.182 . S
O38 Zn23 2.080 . S
O38 C41 1.305 . S
O39 Zn22 1.920 . S
O39 C41 1.234 . S
C40 O26 1.305 . S
C40 O27 1.234 . S
C41 O38 1.305 . S
C41 O39 1.234 . S
H42 C47 0.929 1_565 S
H43 C52 0.931 . S
H44 C50 0.930 . S
N45 N46 1.234 . S
N45 C49 1.453 . S
N46 N45 1.234 . S
C47 H42 0.929 1_545 S
C47 C48 1.373 1_545 S
C47 C49 1.368 . S
C48 C47 1.373 1_565 S
C48 C52 1.397 . S
C49 N45 1.453 . S
C49 C47 1.368 . S
C49 C50 1.373 . S
C50 H44 0.930 . S
C50 C49 1.373 . S
C50 C51 1.371 . S
C51 C50 1.371 . S
C51 C52 1.383 1_545 S
C52 H43 0.931 . S
C52 C48 1.397 . S
C52 C51 1.383 1_565 S
H53 C58 0.927 1_565 S
H54 C63 0.931 . S
H55 C61 0.930 . S
N56 N57 1.234 . S
N56 C60 1.453 . S
N57 N56 1.234 . S
C58 H53 0.927 1_545 S
C58 C59 1.368 1_545 S
C58 C60 1.375 1_655 S
C59 C58 1.368 1_565 S
C59 C63 1.397 . S
C60 N56 1.453 . S
C60 C58 1.375 1_455 S
C60 C61 1.373 . S
C61 H55 0.930 . S
C61 C60 1.373 . S
C61 C62 1.371 1_455 S
C62 C61 1.371 1_655 S
C62 C63 1.383 1_545 S
C63 H54 0.931 . S
C63 C59 1.397 . S
C63 C62 1.383 1_565 S
H64 C69 0.929 . S
H65 C74 0.931 . S
H66 C72 0.930 . S
N67 N68 1.234 . S
N67 C71 1.453 . S
N68 N67 1.234 . S
C69 H64 0.929 . S
C69 C70 1.373 . S
C69 C71 1.368 . S
C70 C69 1.373 . S
C70 C74 1.397 . S
C71 N67 1.453 . S
C71 C69 1.368 . S
C71 C72 1.373 . S
C72 H66 0.930 . S
C72 C71 1.373 . S
C72 C73 1.371 . S
C73 C72 1.371 . S
C73 C74 1.383 . S
C74 H65 0.931 . S
C74 C70 1.397 . S
C74 C73 1.383 . S
H75 C80 0.929 . S
H76 C85 0.931 . S
H77 C83 0.930 . S
N78 N79 1.234 . S
N78 C82 1.453 . S
N79 N78 1.234 . S
C80 H75 0.929 . S
C80 C81 1.373 . S
C80 C82 1.368 . S
C81 C80 1.373 . S
C81 C85 1.397 . S
C82 N78 1.453 . S
C82 C80 1.368 . S
C82 C83 1.373 . S
C83 H77 0.930 . S
C83 C82 1.373 . S
C83 C84 1.371 . S
C84 C83 1.371 . S
C84 C85 1.383 . S
C85 H76 0.931 . S
C85 C81 1.397 . S
C85 C84 1.383 . S
H86 C98 0.930 . S
H87 C100 0.930 . S
H88 C101 0.930 . S
H89 C105 0.959 . S
H90 C105 0.959 . S
H91 C105 0.961 . S
H92 C106 0.960 . S
H93 C106 0.961 . S
H94 C106 0.959 . S
H95 C109 0.929 1_556 S
H96 C110 0.931 . S
H97 C112 0.930 . S
C98 H86 0.930 . S
C98 C99 1.399 . S
C98 C103 1.399 . S
C99 C98 1.399 . S
C99 C100 1.376 1_554 S
C100 H87 0.930 . S
C100 C99 1.376 1_556 S
C100 C101 1.388 . S
C101 H88 0.930 . S
C101 C100 1.388 . S
C101 C102 1.390 1_556 S
C102 C101 1.390 1_554 S
C102 C103 1.394 . S
C102 C108 1.465 . S
C103 C98 1.399 . S
C103 C102 1.394 . S
C103 C104 1.516 . S
C104 C103 1.516 . S
C104 C105 1.502 . S
C104 C106 1.561 . S
C104 C107 1.526 . S
C105 H89 0.959 . S
C105 H90 0.959 . S
C105 H91 0.961 . S
C105 C104 1.502 . S
C106 H92 0.960 . S
C106 H93 0.961 . S
C106 H94 0.959 . S
C106 C104 1.561 . S
C107 C104 1.526 . S
C107 C108 1.396 . S
C107 C112 1.390 . S
C108 C102 1.465 . S
C108 C107 1.396 . S
C108 C109 1.399 . S
C109 H95 0.929 1_554 S
C109 C108 1.399 . S
C109 C110 1.385 . S
C110 H96 0.931 . S
C110 C109 1.385 . S
C110 C111 1.389 . S
C111 C110 1.389 . S
C111 C112 1.387 . S
C112 H97 0.930 . S
C112 C107 1.390 . S
C112 C111 1.387 . S
H113 C125 0.930 . S
H114 C127 0.930 . S
H115 C128 0.930 . S
H116 C132 0.959 . S
H117 C132 0.959 . S
H118 C132 0.961 . S
H119 C133 0.960 . S
H120 C133 0.961 . S
H121 C133 0.959 . S
H122 C136 0.929 . S
H123 C137 0.931 1_554 S
H124 C139 0.930 . S
C125 H113 0.930 . S
C125 C126 1.399 . S
C125 C130 1.399 . S
C126 C125 1.399 . S
C126 C127 1.376 1_556 S
C127 H114 0.930 . S
C127 C126 1.376 1_554 S
C127 C128 1.388 . S
C128 H115 0.930 . S
C128 C127 1.388 . S
C128 C129 1.390 1_554 S
C129 C128 1.390 1_556 S
C129 C130 1.394 . S
C129 C135 1.465 . S
C130 C125 1.399 . S
C130 C129 1.394 . S
C130 C131 1.516 . S
C131 C130 1.516 . S
C131 C132 1.502 . S
C131 C133 1.561 . S
C131 C134 1.526 . S
C132 H116 0.959 . S
C132 H117 0.959 . S
C132 H118 0.961 . S
C132 C131 1.502 . S
C133 H119 0.960 . S
C133 H120 0.961 . S
C133 H121 0.959 . S
C133 C131 1.561 . S
C134 C131 1.526 . S
C134 C135 1.396 . S
C134 C139 1.390 . S
C135 C129 1.465 . S
C135 C134 1.396 . S
C135 C136 1.399 1_556 S
C136 H122 0.929 . S
C136 C135 1.399 1_554 S
C136 C137 1.385 1_554 S
C137 H123 0.931 1_556 S
C137 C136 1.385 1_556 S
C137 C138 1.389 . S
C138 C137 1.389 . S
C138 C139 1.387 . S
C139 H124 0.930 . S
C139 C134 1.390 . S
C139 C138 1.387 . S
H140 C152 0.930 1_556 S
H141 C154 0.930 . S
H142 C155 0.930 . S
H143 C159 0.959 . S
H144 C159 0.959 . S
H145 C159 0.961 . S
H146 C160 0.960 . S
H147 C160 0.961 . S
H148 C160 0.959 . S
H149 C163 0.929 . S
H150 C164 0.931 . S
H151 C166 0.930 . S
C152 H140 0.930 1_554 S
C152 C153 1.399 . S
C152 C157 1.399 . S
C153 C152 1.399 . S
C153 C154 1.376 . S
C154 H141 0.930 . S
C154 C153 1.376 . S
C154 C155 1.388 . S
C155 H142 0.930 . S
C155 C154 1.388 . S
C155 C156 1.390 . S
C156 C155 1.390 . S
C156 C157 1.394 . S
C156 C162 1.465 . S
C157 C152 1.399 . S
C157 C156 1.394 . S
C157 C158 1.516 1_554 S
C158 C157 1.516 1_556 S
C158 C159 1.502 . S
C158 C160 1.561 . S
C158 C161 1.526 1_556 S
C159 H143 0.959 . S
C159 H144 0.959 . S
C159 H145 0.961 . S
C159 C158 1.502 . S
C160 H146 0.960 . S
C160 H147 0.961 . S
C160 H148 0.959 . S
C160 C158 1.561 . S
C161 C158 1.526 1_554 S
C161 C162 1.396 . S
C161 C166 1.390 . S
C162 C156 1.465 . S
C162 C161 1.396 . S
C162 C163 1.399 . S
C163 H149 0.929 . S
C163 C162 1.399 . S
C163 C164 1.385 . S
C164 H150 0.931 . S
C164 C163 1.385 . S
C164 C165 1.389 . S
C165 C164 1.389 . S
C165 C166 1.387 . S
C166 H151 0.930 . S
C166 C161 1.390 . S
C166 C165 1.387 . S
H167 C179 0.930 . S
H168 C181 0.930 . S
H169 C182 0.930 . S
H170 C186 0.959 . S
H171 C186 0.959 . S
H172 C186 0.961 . S
H173 C187 0.960 . S
H174 C187 0.961 . S
H175 C187 0.959 . S
H176 C190 0.929 . S
H177 C191 0.931 . S
H178 C193 0.927 1_554 S
C179 H167 0.930 . S
C179 C180 1.399 1_554 S
C179 C184 1.399 1_554 S
C180 C179 1.399 1_556 S
C180 C181 1.376 . S
C181 H168 0.930 . S
C181 C180 1.376 . S
C181 C182 1.388 . S
C182 H169 0.930 . S
C182 C181 1.388 . S
C182 C183 1.390 . S
C183 C182 1.390 . S
C183 C184 1.394 . S
C183 C189 1.465 . S
C184 C179 1.399 1_556 S
C184 C183 1.394 . S
C184 C185 1.516 1_556 S
C185 C184 1.516 1_554 S
C185 C186 1.502 . S
C185 C187 1.561 . S
C185 C188 1.526 1_554 S
C186 H170 0.959 . S
C186 H171 0.959 . S
C186 H172 0.961 . S
C186 C185 1.502 . S
C187 H173 0.960 . S
C187 H174 0.961 . S
C187 H175 0.959 . S
C187 C185 1.561 . S
C188 C185 1.526 1_556 S
C188 C189 1.396 . S
C188 C193 1.390 . S
C189 C183 1.465 . S
C189 C188 1.396 . S
C189 C190 1.399 . S
C190 H176 0.929 . S
C190 C189 1.399 . S
C190 C191 1.385 . S
C191 H177 0.931 . S
C191 C190 1.385 . S
C191 C192 1.389 . S
C192 C191 1.389 . S
C192 C193 1.387 . S
C193 H178 0.927 1_556 S
C193 C188 1.390 . S
C193 C192 1.387 . S
H194 C206 0.930 . S
H195 C208 0.930 . S
H196 C209 0.930 . S
H197 C213 0.959 . S
H198 C213 0.959 . S
H199 C213 0.961 . S
H200 C214 0.960 . S
H201 C214 0.961 . S
H202 C214 0.959 . S
H203 C217 0.929 . S
H204 C218 0.931 . S
H205 C220 0.930 . S
C206 H194 0.930 . S
C206 C207 1.399 . S
C206 C211 1.399 . S
C207 C206 1.399 . S
C207 C208 1.376 . S
C208 H195 0.930 . S
C208 C207 1.376 . S
C208 C209 1.388 . S
C209 H196 0.930 . S
C209 C208 1.388 . S
C209 C210 1.390 . S
C210 C209 1.390 . S
C210 C211 1.394 . S
C210 C216 1.465 . S
C211 C206 1.399 . S
C211 C210 1.394 . S
C211 C212 1.516 . S
C212 C211 1.516 . S
C212 C213 1.502 . S
C212 C214 1.561 . S
C212 C215 1.526 . S
C213 H197 0.959 . S
C213 H198 0.959 . S
C213 H199 0.961 . S
C213 C212 1.502 . S
C214 H200 0.960 . S
C214 H201 0.961 . S
C214 H202 0.959 . S
C214 C212 1.561 . S
C215 C212 1.526 . S
C215 C216 1.396 . S
C215 C220 1.390 . S
C216 C210 1.465 . S
C216 C215 1.396 . S
C216 C217 1.399 . S
C217 H203 0.929 . S
C217 C216 1.399 . S
C217 C218 1.385 . S
C218 H204 0.931 . S
C218 C217 1.385 . S
C218 C219 1.389 . S
C219 C218 1.389 . S
C219 C220 1.387 . S
C220 H205 0.930 . S
C220 C215 1.390 . S
C220 C219 1.387 . S
H221 C233 0.930 . S
H222 C235 0.930 . S
H223 C236 0.930 . S
H224 C240 0.959 . S
H225 C240 0.959 . S
H226 C240 0.961 . S
H227 C241 0.960 . S
H228 C241 0.961 . S
H229 C241 0.959 . S
H230 C244 0.929 . S
H231 C245 0.931 . S
H232 C247 0.930 . S
C233 H221 0.930 . S
C233 C234 1.399 . S
C233 C238 1.399 . S
C234 C233 1.399 . S
C234 C235 1.376 . S
C235 H222 0.930 . S
C235 C234 1.376 . S
C235 C236 1.388 . S
C236 H223 0.930 . S
C236 C235 1.388 . S
C236 C237 1.390 . S
C237 C236 1.390 . S
C237 C238 1.394 . S
C237 C243 1.465 . S
C238 C233 1.399 . S
C238 C237 1.394 . S
C238 C239 1.516 . S
C239 C238 1.516 . S
C239 C240 1.502 . S
C239 C241 1.561 . S
C239 C242 1.526 . S
C240 H224 0.959 . S
C240 H225 0.959 . S
C240 H226 0.961 . S
C240 C239 1.502 . S
C241 H227 0.960 . S
C241 H228 0.961 . S
C241 H229 0.959 . S
C241 C239 1.561 . S
C242 C239 1.526 . S
C242 C243 1.396 . S
C242 C247 1.390 . S
C243 C237 1.465 . S
C243 C242 1.396 . S
C243 C244 1.399 . S
C244 H230 0.929 . S
C244 C243 1.399 . S
C244 C245 1.385 . S
C245 H231 0.931 . S
C245 C244 1.385 . S
C245 C246 1.389 . S
C246 C245 1.389 . S
C246 C247 1.387 . S
C247 H232 0.930 . S
C247 C242 1.390 . S
C247 C246 1.387 . S
H248 C260 0.930 . S
H249 C262 0.930 . S
H250 C263 0.930 . S
H251 C267 0.959 . S
H252 C267 0.959 . S
H253 C267 0.961 . S
H254 C268 0.960 . S
H255 C268 0.961 . S
H256 C268 0.959 . S
H257 C271 0.929 . S
H258 C272 0.931 . S
H259 C274 0.930 . S
C260 H248 0.930 . S
C260 C261 1.399 . S
C260 C265 1.399 . S
C261 C260 1.399 . S
C261 C262 1.376 . S
C262 H249 0.930 . S
C262 C261 1.376 . S
C262 C263 1.388 . S
C263 H250 0.930 . S
C263 C262 1.388 . S
C263 C264 1.390 . S
C264 C263 1.390 . S
C264 C265 1.394 . S
C264 C270 1.465 . S
C265 C260 1.399 . S
C265 C264 1.394 . S
C265 C266 1.516 . S
C266 C265 1.516 . S
C266 C267 1.502 . S
C266 C268 1.561 . S
C266 C269 1.526 . S
C267 H251 0.959 . S
C267 H252 0.959 . S
C267 H253 0.961 . S
C267 C266 1.502 . S
C268 H254 0.960 . S
C268 H255 0.961 . S
C268 H256 0.959 . S
C268 C266 1.561 . S
C269 C266 1.526 . S
C269 C270 1.396 . S
C269 C274 1.390 . S
C270 C264 1.465 . S
C270 C269 1.396 . S
C270 C271 1.399 . S
C271 H257 0.929 . S
C271 C270 1.399 . S
C271 C272 1.385 . S
C272 H258 0.931 . S
C272 C271 1.385 . S
C272 C273 1.389 . S
C273 C272 1.389 . S
C273 C274 1.387 . S
C274 H259 0.930 . S
C274 C269 1.390 . S
C274 C273 1.387 . S
H275 C287 0.930 . S
H276 C289 0.930 . S
H277 C290 0.930 . S
H278 C294 0.959 . S
H279 C294 0.959 . S
H280 C294 0.961 . S
H281 C295 0.960 . S
H282 C295 0.961 . S
H283 C295 0.959 . S
H284 C298 0.929 . S
H285 C299 0.931 . S
H286 C301 0.930 . S
C287 H275 0.930 . S
C287 C288 1.399 . S
C287 C292 1.399 . S
C288 C287 1.399 . S
C288 C289 1.376 . S
C289 H276 0.930 . S
C289 C288 1.376 . S
C289 C290 1.388 . S
C290 H277 0.930 . S
C290 C289 1.388 . S
C290 C291 1.390 . S
C291 C290 1.390 . S
C291 C292 1.394 . S
C291 C297 1.465 . S
C292 C287 1.399 . S
C292 C291 1.394 . S
C292 C293 1.516 . S
C293 C292 1.516 . S
C293 C294 1.502 . S
C293 C295 1.561 . S
C293 C296 1.526 . S
C294 H278 0.959 . S
C294 H279 0.959 . S
C294 H280 0.961 . S
C294 C293 1.502 . S
C295 H281 0.960 . S
C295 H282 0.961 . S
C295 H283 0.959 . S
C295 C293 1.561 . S
C296 C293 1.526 . S
C296 C297 1.396 . S
C296 C301 1.390 . S
C297 C291 1.465 . S
C297 C296 1.396 . S
C297 C298 1.399 . S
C298 H284 0.929 . S
C298 C297 1.399 . S
C298 C299 1.385 . S
C299 H285 0.931 . S
C299 C298 1.385 . S
C299 C300 1.389 . S
C300 C299 1.389 . S
C300 C301 1.387 . S
C301 H286 0.930 . S
C301 C296 1.390 . S
C301 C300 1.387 . S
H302 C314 0.930 . S
H303 C316 0.930 1_655 S
H304 C317 0.930 1_655 S
H305 C321 0.959 . S
H306 C321 0.959 . S
H307 C321 0.961 . S
H308 C322 0.960 . S
H309 C322 0.961 . S
H310 C322 0.959 . S
H311 C325 0.929 . S
H312 C326 0.931 . S
H313 C328 0.930 . S
C314 H302 0.930 . S
C314 C315 1.399 1_545 S
C314 C319 1.399 . S
C315 C314 1.399 1_565 S
C315 C316 1.376 . S
C316 H303 0.930 1_455 S
C316 C315 1.376 . S
C316 C317 1.388 . S
C317 H304 0.930 1_455 S
C317 C316 1.388 . S
C317 C318 1.390 . S
C318 C317 1.390 . S
C318 C319 1.394 1_565 S
C318 C324 1.465 . S
C319 C314 1.399 . S
C319 C318 1.394 1_545 S
C319 C320 1.516 . S
C320 C319 1.516 . S
C320 C321 1.502 . S
C320 C322 1.561 . S
C320 C323 1.526 . S
C321 H305 0.959 . S
C321 H306 0.959 . S
C321 H307 0.961 . S
C321 C320 1.502 . S
C322 H308 0.960 . S
C322 H309 0.961 . S
C322 H310 0.959 . S
C322 C320 1.561 . S
C323 C320 1.526 . S
C323 C324 1.396 1_545 S
C323 C328 1.390 . S
C324 C318 1.465 . S
C324 C323 1.396 1_565 S
C324 C325 1.399 . S
C325 H311 0.929 . S
C325 C324 1.399 . S
C325 C326 1.385 . S
C326 H312 0.931 . S
C326 C325 1.385 . S
C326 C327 1.389 1_565 S
C327 C326 1.389 1_545 S
C327 C328 1.387 . S
C328 H313 0.930 . S
C328 C323 1.390 . S
C328 C327 1.387 . S
H329 C341 0.930 1_655 S
H330 C343 0.930 . S
H331 C344 0.930 . S
H332 C348 0.959 . S
H333 C348 0.959 . S
H334 C348 0.961 . S
H335 C349 0.960 . S
H336 C349 0.961 . S
H337 C349 0.959 . S
H338 C352 0.929 . S
H339 C353 0.931 . S
H340 C355 0.930 . S
C341 H329 0.930 1_455 S
C341 C342 1.399 1_545 S
C341 C346 1.399 . S
C342 C341 1.399 1_565 S
C342 C343 1.376 . S
C343 H330 0.930 . S
C343 C342 1.376 . S
C343 C344 1.388 . S
C344 H331 0.930 . S
C344 C343 1.388 . S
C344 C345 1.390 . S
C345 C344 1.390 . S
C345 C346 1.394 1_565 S
C345 C351 1.465 . S
C346 C341 1.399 . S
C346 C345 1.394 1_545 S
C346 C347 1.516 1_455 S
C347 C346 1.516 1_655 S
C347 C348 1.502 . S
C347 C349 1.561 1_655 S
C347 C350 1.526 1_655 S
C348 H332 0.959 . S
C348 H333 0.959 . S
C348 H334 0.961 . S
C348 C347 1.502 . S
C349 H335 0.960 . S
C349 H336 0.961 . S
C349 H337 0.959 . S
C349 C347 1.561 1_455 S
C350 C347 1.526 1_455 S
C350 C351 1.396 1_545 S
C350 C355 1.390 1_455 S
C351 C345 1.465 . S
C351 C350 1.396 1_565 S
C351 C352 1.399 . S
C352 H338 0.929 . S
C352 C351 1.399 . S
C352 C353 1.385 . S
C353 H339 0.931 . S
C353 C352 1.385 . S
C353 C354 1.389 1_565 S
C354 C353 1.389 1_545 S
C354 C355 1.387 1_455 S
C355 H340 0.930 . S
C355 C350 1.390 1_655 S
C355 C354 1.387 1_655 S
H356 C368 0.930 . S
H357 C370 0.930 . S
H358 C371 0.930 . S
H359 C375 0.959 . S
H360 C375 0.959 . S
H361 C375 0.961 . S
H362 C376 0.960 . S
H363 C376 0.961 . S
H364 C376 0.959 . S
H365 C379 0.929 . S
H366 C380 0.931 . S
H367 C382 0.930 . S
C368 H356 0.930 . S
C368 C369 1.399 . S
C368 C373 1.399 . S
C369 C368 1.399 . S
C369 C370 1.376 . S
C370 H357 0.930 . S
C370 C369 1.376 . S
C370 C371 1.388 . S
C371 H358 0.930 . S
C371 C370 1.388 . S
C371 C372 1.390 . S
C372 C371 1.390 . S
C372 C373 1.394 . S
C372 C378 1.465 . S
C373 C368 1.399 . S
C373 C372 1.394 . S
C373 C374 1.516 . S
C374 C373 1.516 . S
C374 C375 1.502 . S
C374 C376 1.561 . S
C374 C377 1.526 . S
C375 H359 0.959 . S
C375 H360 0.959 . S
C375 H361 0.961 . S
C375 C374 1.502 . S
C376 H362 0.960 . S
C376 H363 0.961 . S
C376 H364 0.959 . S
C376 C374 1.561 . S
C377 C374 1.526 . S
C377 C378 1.396 . S
C377 C382 1.390 . S
C378 C372 1.465 . S
C378 C377 1.396 . S
C378 C379 1.399 . S
C379 H365 0.929 . S
C379 C378 1.399 . S
C379 C380 1.385 . S
C380 H366 0.931 . S
C380 C379 1.385 . S
C380 C381 1.389 . S
C381 C380 1.389 . S
C381 C382 1.387 . S
C382 H367 0.930 . S
C382 C377 1.390 . S
C382 C381 1.387 . S
H383 C395 0.930 . S
H384 C397 0.930 . S
H385 C398 0.930 . S
H386 C402 0.959 . S
H387 C402 0.959 . S
H388 C402 0.961 . S
H389 C403 0.960 . S
H390 C403 0.961 . S
H391 C403 0.959 . S
H392 C406 0.929 . S
H393 C407 0.931 . S
H394 C409 0.930 . S
C395 H383 0.930 . S
C395 C396 1.399 . S
C395 C400 1.399 . S
C396 C395 1.399 . S
C396 C397 1.376 . S
C397 H384 0.930 . S
C397 C396 1.376 . S
C397 C398 1.388 . S
C398 H385 0.930 . S
C398 C397 1.388 . S
C398 C399 1.390 . S
C399 C398 1.390 . S
C399 C400 1.394 . S
C399 C405 1.465 . S
C400 C395 1.399 . S
C400 C399 1.394 . S
C400 C401 1.516 . S
C401 C400 1.516 . S
C401 C402 1.502 . S
C401 C403 1.561 . S
C401 C404 1.526 . S
C402 H386 0.959 . S
C402 H387 0.959 . S
C402 H388 0.961 . S
C402 C401 1.502 . S
C403 H389 0.960 . S
C403 H390 0.961 . S
C403 H391 0.959 . S
C403 C401 1.561 . S
C404 C401 1.526 . S
C404 C405 1.396 . S
C404 C409 1.390 . S
C405 C399 1.465 . S
C405 C404 1.396 . S
C405 C406 1.399 . S
C406 H392 0.929 . S
C406 C405 1.399 . S
C406 C407 1.385 . S
C407 H393 0.931 . S
C407 C406 1.385 . S
C407 C408 1.389 . S
C408 C407 1.389 . S
C408 C409 1.387 . S
C409 H394 0.930 . S
C409 C404 1.390 . S
C409 C408 1.387 . S
C111 C81 1.340 . S
C99 C3 1.204 . S
C126 C4 1.397 1_556 S
C138 N68 1.527 . S
C153 C19 1.509 . S
C165 N79 1.505 . S
C180 C7 1.217 . S
C192 C70 1.312 . S
C207 C37 1.198 . S
C219 C59 1.338 . S
C234 C28 1.489 . S
C246 N46 1.484 1_655 S
C273 N57 1.538 . S
C261 C41 1.463 . S
C300 C48 1.308 . S
C288 C25 1.151 . S
C315 C20 1.413 . S
C327 C51 1.465 . S
C342 C16 1.451 1_455 S
C354 C62 1.504 1_455 S
C381 C73 1.497 . S
C369 C40 1.287 . S
C396 C24 1.333 . S
C408 C84 1.538 . S
