# Generated by pormake.
# Topology rtl, (3,6)-cn, num edge types: 1
# Building blocks:
#     Node 0, Type 0, BuildingBlock: MIDCAF_clean_linker_0, # of connection points: 3
#     Node 1, Type 0, BuildingBlock: MIDCAF_clean_linker_0, # of connection points: 3
#     Node 2, Type 0, BuildingBlock: MIDCAF_clean_linker_0, # of connection points: 3
#     Node 3, Type 0, BuildingBlock: MIDCAF_clean_linker_0, # of connection points: 3
#     Node 4, Type 1, BuildingBlock: VOLQOD_clean_sbu_1, # of connection points: 6
#     Node 5, Type 1, BuildingBlock: VOLQOD_clean_sbu_1, # of connection points: 6
#     Edge 6, Type (0, 1), BuildingBlock: ZUJKAS_clean_linker_0, # of connection points: 2
#     Edge 7, Type (0, 1), BuildingBlock: ZUJKAS_clean_linker_0, # of connection points: 2
#     Edge 8, Type (0, 1), BuildingBlock: ZUJKAS_clean_linker_0, # of connection points: 2
#     Edge 9, Type (0, 1), BuildingBlock: ZUJKAS_clean_linker_0, # of connection points: 2
#     Edge 10, Type (0, 1), BuildingBlock: ZUJKAS_clean_linker_0, # of connection points: 2
#     Edge 11, Type (0, 1), BuildingBlock: ZUJKAS_clean_linker_0, # of connection points: 2
#     Edge 12, Type (0, 1), BuildingBlock: ZUJKAS_clean_linker_0, # of connection points: 2
#     Edge 13, Type (0, 1), BuildingBlock: ZUJKAS_clean_linker_0, # of connection points: 2
#     Edge 14, Type (0, 1), BuildingBlock: ZUJKAS_clean_linker_0, # of connection points: 2
#     Edge 15, Type (0, 1), BuildingBlock: ZUJKAS_clean_linker_0, # of connection points: 2
#     Edge 16, Type (0, 1), BuildingBlock: ZUJKAS_clean_linker_0, # of connection points: 2
#     Edge 17, Type (0, 1), BuildingBlock: ZUJKAS_clean_linker_0, # of connection points: 2
# Relax obj value: 0.080
# Max RMSD: 0.156
# Mean RMSD: 0.089
data_MOF--net-rtl--node1-VOLQOD_clean_sbu_1--node2-MIDCAF_clean_linker_0--edge1-ZUJKAS_clean_linker_0
_symmetry_space_group_name_H-M    P1
_symmetry_Int_Tables_number       1
_symmetry_cell_setting            triclinic
loop_
_symmetry_equiv_pos_as_xyz
'x, y, z'
_cell_length_a     55.080338
_cell_length_b     47.638983
_cell_length_c     35.917589
_cell_angle_alpha  89.799965
_cell_angle_beta   90.330887
_cell_angle_gamma 89.993536
loop_
_atom_site_label
_atom_site_type_symbol
_atom_site_fract_x
_atom_site_fract_y
_atom_site_fract_z
_atom_type_partial_charge
C0 C 0.06423 0.76329 0.10553 0.0
C1 C 0.07837 0.76342 0.13822 0.0
C2 C 0.10015 0.748 0.13903 0.0
C3 C 0.10814 0.73388 0.10728 0.0
H4 H 0.15466 0.6699 0.06652 0.0
H5 H 0.19186 0.6423 0.06762 0.0
H6 H 0.20126 0.65774 0.94993 0.0
H7 H 0.16374 0.68449 0.94852 0.0
H8 H 0.1237 0.71692 0.90322 0.0
H9 H 0.10977 0.73908 0.84561 0.0
H10 H 0.05037 0.77736 0.9048 0.0
H11 H 0.06389 0.75498 0.96209 0.0
H12 H 0.06116 0.75038 0.04884 0.0
H13 H 0.04708 0.7744 0.10423 0.0
H14 H 0.11156 0.7478 0.16368 0.0
H15 H 0.12542 0.72306 0.10843 0.0
N16 N 0.12408 0.70621 0.03935 0.0
N17 N 0.12437 0.70606 0.974 0.0
N18 N 0.09483 0.73171 0.00583 0.0
C19 C 0.13409 0.6973 0.00694 0.0
C20 C 0.10466 0.72318 0.97322 0.0
C21 C 0.10437 0.72338 0.03898 0.0
C22 C 0.15619 0.67952 0.00745 0.0
C23 C 0.16458 0.66728 0.04081 0.0
C24 C 0.186 0.65155 0.0415 0.0
C25 C 0.19966 0.64785 0.0089 0.0
C26 C 0.19105 0.65975 0.97546 0.0
C27 C 0.16955 0.67528 0.97471 0.0
C28 C 0.09506 0.73432 0.93745 0.0
C29 C 0.10749 0.72977 0.9039 0.0
C30 C 0.0996 0.74259 0.8709 0.0
C31 C 0.07905 0.76009 0.87068 0.0
C32 C 0.06612 0.76378 0.90391 0.0
C33 C 0.07402 0.75106 0.93687 0.0
C34 C 0.09458 0.73505 0.07401 0.0
C35 C 0.07226 0.74937 0.0738 0.0
C36 C 0.5689 0.74371 0.40107 0.0
C37 C 0.58308 0.74634 0.36887 0.0
C38 C 0.60385 0.76346 0.36992 0.0
C39 C 0.61068 0.77703 0.40281 0.0
H40 H 0.65994 0.83228 0.44635 0.0
H41 H 0.69699 0.8599 0.44802 0.0
H42 H 0.69238 0.86489 0.56784 0.0
H43 H 0.65551 0.83668 0.56641 0.0
H44 H 0.61709 0.79877 0.60893 0.0
H45 H 0.60225 0.77701 0.666 0.0
H46 H 0.55268 0.72622 0.60133 0.0
H47 H 0.56689 0.74831 0.54466 0.0
H48 H 0.56473 0.75403 0.4585 0.0
H49 H 0.55292 0.73046 0.40123 0.0
H50 H 0.61498 0.76611 0.3454 0.0
H51 H 0.62707 0.78958 0.40284 0.0
N52 N 0.62448 0.80363 0.47236 0.0
N53 N 0.6227 0.80457 0.53761 0.0
N54 N 0.59518 0.77709 0.50367 0.0
C55 C 0.63316 0.81338 0.50539 0.0
C56 C 0.60365 0.78645 0.53696 0.0
C57 C 0.60541 0.78558 0.47126 0.0
C58 C 0.65475 0.83201 0.50628 0.0
C59 C 0.66666 0.83937 0.47311 0.0
C60 C 0.68788 0.85541 0.47401 0.0
C61 C 0.6977 0.86455 0.50807 0.0
C62 C 0.68547 0.85783 0.54117 0.0
C63 C 0.66425 0.84175 0.5403 0.0
C64 C 0.59334 0.7752 0.57206 0.0
C65 C 0.60282 0.7832 0.6069 0.0
C66 C 0.59441 0.77062 0.63964 0.0
C67 C 0.57635 0.74977 0.63827 0.0
C68 C 0.56636 0.74246 0.60354 0.0
C69 C 0.57469 0.75505 0.5709 0.0
C70 C 0.59698 0.77355 0.43544 0.0
C71 C 0.57579 0.7571 0.43399 0.0
C72 C 0.94068 0.24543 0.90523 0.0
C73 C 0.92764 0.24854 0.87175 0.0
C74 C 0.90784 0.26715 0.87055 0.0
C75 C 0.90053 0.28131 0.90265 0.0
H76 H 0.85117 0.33886 0.94324 0.0
H77 H 0.81352 0.36556 0.94218 0.0
H78 H 0.80992 0.3605 0.06213 0.0
H79 H 0.84784 0.33435 0.06342 0.0
H80 H 0.88761 0.30019 0.10842 0.0
H81 H 0.90176 0.27833 0.16613 0.0
H82 H 0.95619 0.23277 0.10472 0.0
H83 H 0.94263 0.25497 0.04752 0.0
H84 H 0.9436 0.25605 0.96273 0.0
H85 H 0.95631 0.23168 0.90685 0.0
H86 H 0.89736 0.26988 0.84518 0.0
H87 H 0.88469 0.29474 0.90106 0.0
N88 N 0.88419 0.30689 0.97148 0.0
N89 N 0.88454 0.3078 0.03683 0.0
N90 N 0.91334 0.28117 0.00479 0.0
C91 C 0.8746 0.31635 0.00392 0.0
C92 C 0.90401 0.29027 0.03747 0.0
C93 C 0.90363 0.28935 0.9717 0.0
C94 C 0.85254 0.33423 0.00341 0.0
C95 C 0.84249 0.34357 0.96947 0.0
C96 C 0.8208 0.35879 0.9688 0.0
C97 C 0.8086 0.365 0.00203 0.0
C98 C 0.81897 0.35634 0.03604 0.0
C99 C 0.84069 0.34117 0.03673 0.0
C100 C 0.91382 0.27922 0.07317 0.0
C101 C 0.90281 0.28579 0.10729 0.0
C102 C 0.91082 0.27314 0.14037 0.0
C103 C 0.93004 0.25369 0.14005 0.0
C104 C 0.94156 0.24792 0.10613 0.0
C105 C 0.9336 0.26054 0.07317 0.0
C106 C 0.9129 0.27714 0.93661 0.0
C107 C 0.93341 0.25955 0.93725 0.0
C108 C 0.43787 0.26751 0.60077 0.0
C109 C 0.42634 0.26244 0.63489 0.0
C110 C 0.40808 0.24189 0.63667 0.0
C111 C 0.40073 0.22762 0.60453 0.0
H112 H 0.34941 0.17209 0.56401 0.0
H113 H 0.31136 0.14607 0.5649 0.0
H114 H 0.30862 0.14823 0.44475 0.0
H115 H 0.34647 0.17455 0.44363 0.0
H116 H 0.38302 0.21229 0.39922 0.0
H117 H 0.39639 0.23452 0.34157 0.0
H118 H 0.45568 0.2738 0.40089 0.0
H119 H 0.44273 0.25137 0.45818 0.0
H120 H 0.43964 0.25821 0.54283 0.0
H121 H 0.45229 0.28289 0.59871 0.0
H122 H 0.39882 0.23762 0.66261 0.0
H123 H 0.38608 0.21255 0.60662 0.0
N124 N 0.38283 0.20328 0.53553 0.0
N125 N 0.38277 0.20184 0.4702 0.0
N126 N 0.4117 0.22883 0.5019 0.0
C127 C 0.37307 0.19351 0.50318 0.0
C128 C 0.40219 0.21939 0.46935 0.0
C129 C 0.40221 0.22091 0.53509 0.0
C130 C 0.35098 0.17568 0.50376 0.0
C131 C 0.34083 0.16689 0.53772 0.0
C132 C 0.31907 0.15181 0.53827 0.0
C133 C 0.30692 0.14526 0.50491 0.0
C134 C 0.31739 0.15333 0.47094 0.0
C135 C 0.33918 0.1683 0.47035 0.0
C136 C 0.41164 0.23022 0.4335 0.0
C137 C 0.39912 0.22533 0.3999 0.0
C138 C 0.40668 0.23819 0.36687 0.0
C139 C 0.427 0.25606 0.3667 0.0
C140 C 0.4401 0.25995 0.39995 0.0
C141 C 0.43252 0.24721 0.43293 0.0
C142 C 0.4116 0.23356 0.57002 0.0
C143 C 0.43064 0.25321 0.56876 0.0
O144 O 0.94236 0.00759 0.5037 0.0
Zn145 Zn 0.97339 0.0301 0.50394 0.0
O146 O 0.00211 0.00587 0.50526 0.0
Zn147 Zn 0.02097 0.01326 0.55061 0.0
Zn148 Zn 0.9917 0.96666 0.50491 0.0
Zn149 Zn 0.02225 0.01333 0.46154 0.0
O150 O 0.05499 0.02564 0.53834 0.0
O151 O 0.056 0.02523 0.47658 0.0
O152 O 0.97266 0.05551 0.54851 0.0
O153 O 0.00561 0.04397 0.58098 0.0
O154 O 0.02362 0.97851 0.5827 0.0
O155 O 0.0039 0.94609 0.55022 0.0
O156 O 0.00422 0.94644 0.45989 0.0
O157 O 0.97346 0.05494 0.45854 0.0
O158 O 0.02538 0.97879 0.42955 0.0
O159 O 0.00791 0.04438 0.43001 0.0
C160 C 0.93807 0.98132 0.50404 0.0
C161 C 0.06634 0.02931 0.50791 0.0
C162 C 0.01613 0.95339 0.57876 0.0
C163 C 0.98654 0.05879 0.57663 0.0
C164 C 0.01731 0.95382 0.43246 0.0
C165 C 0.98841 0.05866 0.43207 0.0
O166 O 0.95529 0.96349 0.50449 0.0
O167 O 0.5626 0.50492 0.0019 0.0
Zn168 Zn 0.53173 0.52771 0.00262 0.0
O169 O 0.50297 0.50353 0.00359 0.0
Zn170 Zn 0.48281 0.51106 0.9596 0.0
Zn171 Zn 0.51318 0.46421 0.00345 0.0
Zn172 Zn 0.48423 0.51101 0.04868 0.0
O173 O 0.44925 0.52352 0.97421 0.0
O174 O 0.45059 0.52484 0.03596 0.0
O175 O 0.53153 0.5528 0.9574 0.0
O176 O 0.49727 0.54182 0.92805 0.0
O177 O 0.47927 0.47651 0.92774 0.0
O178 O 0.49994 0.44388 0.95875 0.0
O179 O 0.50113 0.44375 0.04874 0.0
O180 O 0.53299 0.55267 0.04773 0.0
O181 O 0.48065 0.47603 0.08 0.0
O182 O 0.50042 0.54059 0.08019 0.0
C183 C 0.56684 0.47863 0.00208 0.0
C184 C 0.43918 0.52838 0.00535 0.0
C185 C 0.4869 0.45137 0.93108 0.0
C186 C 0.51666 0.55629 0.93051 0.0
C187 C 0.48837 0.45097 0.07655 0.0
C188 C 0.51949 0.55539 0.07616 0.0
O189 O 0.5496 0.46083 0.00269 0.0
H190 H 0.26667 0.15836 0.46371 0.0
H191 H 0.22661 0.13634 0.4662 0.0
H192 H 0.25242 0.07885 0.55053 0.0
H193 H 0.2928 0.1005 0.54779 0.0
H194 H 0.22416 0.054 0.48993 0.0
H195 H 0.17902 0.14555 0.55544 0.0
H196 H 0.19639 0.15352 0.51451 0.0
H197 H 0.21158 0.14096 0.55571 0.0
C198 C 0.26392 0.14083 0.48249 0.0
C199 C 0.28288 0.13117 0.5056 0.0
C200 C 0.24097 0.12846 0.48412 0.0
C201 C 0.23655 0.10625 0.50887 0.0
C202 C 0.25551 0.09612 0.53142 0.0
H203 H 0.09346 0.04389 0.56902 0.0
H204 H 0.13539 0.06073 0.57038 0.0
C205 C 0.27848 0.10858 0.52996 0.0
C206 C 0.21203 0.09375 0.51123 0.0
H207 H 0.15337 0.10905 0.53354 0.0
C208 C 0.20868 0.06593 0.49964 0.0
C209 C 0.192 0.10933 0.52433 0.0
C210 C 0.19484 0.13893 0.53854 0.0
C211 C 0.18557 0.05348 0.49985 0.0
C212 C 0.16538 0.06942 0.51168 0.0
C213 C 0.16888 0.09698 0.52423 0.0
C214 C 0.14038 0.05806 0.51082 0.0
C215 C 0.18293 0.02337 0.48759 0.0
C216 C 0.12929 0.05116 0.47681 0.0
C217 C 0.10531 0.04161 0.47587 0.0
C218 C 0.09195 0.03885 0.50896 0.0
C219 C 0.10321 0.04569 0.54302 0.0
C220 C 0.12717 0.05534 0.54388 0.0
H221 H 0.20059 0.0121 0.48826 0.0
H222 H 0.16985 0.01196 0.50554 0.0
H223 H 0.1759 0.02291 0.45859 0.0
H224 H 0.13907 0.05361 0.45092 0.0
H225 H 0.09722 0.0366 0.44916 0.0
H226 H 0.21817 0.61208 0.95641 0.0
H227 H 0.25808 0.58952 0.95639 0.0
H228 H 0.27415 0.62559 0.0636 0.0
H229 H 0.23467 0.64903 0.06346 0.0
H230 H 0.30495 0.62175 0.96607 0.0
H231 H 0.28935 0.53807 0.07179 0.0
H232 H 0.26483 0.55416 0.04574 0.0
H233 H 0.2792 0.57293 0.08304 0.0
C234 C 0.23019 0.61534 0.97996 0.0
C235 C 0.22318 0.63247 0.00991 0.0
C236 C 0.2529 0.60227 0.97998 0.0
C237 C 0.26887 0.60576 0.01012 0.0
C238 C 0.26186 0.62236 0.04034 0.0
H239 H 0.41418 0.54963 0.06459 0.0
H240 H 0.3728 0.56819 0.06483 0.0
C241 C 0.23924 0.63563 0.04024 0.0
C242 C 0.29342 0.5933 0.0091 0.0
H243 H 0.32943 0.5435 0.04974 0.0
C244 C 0.31034 0.60453 0.98417 0.0
C245 C 0.30028 0.57107 0.03302 0.0
C246 C 0.2825 0.55812 0.05984 0.0
C247 C 0.33425 0.59444 0.98298 0.0
C248 C 0.34114 0.57195 0.00667 0.0
C249 C 0.32411 0.56067 0.03155 0.0
C250 C 0.36604 0.5601 0.00644 0.0
C251 C 0.35206 0.60856 0.95719 0.0
C252 C 0.37582 0.54894 0.97367 0.0
C253 C 0.39955 0.53858 0.97333 0.0
C254 C 0.41383 0.53875 0.00593 0.0
C255 C 0.40371 0.54922 0.03897 0.0
C256 C 0.38006 0.55982 0.03918 0.0
H257 H 0.34599 0.63001 0.94926 0.0
H258 H 0.37034 0.61006 0.97021 0.0
H259 H 0.35362 0.59607 0.93129 0.0
H260 H 0.36511 0.54825 0.94832 0.0
H261 H 0.40666 0.53036 0.94751 0.0
H262 H 0.71326 0.90617 0.46095 0.0
H263 H 0.75312 0.9289 0.46011 0.0
H264 H 0.77499 0.88068 0.55642 0.0
H265 H 0.73536 0.8576 0.55725 0.0
H266 H 0.78772 0.93885 0.5593 0.0
H267 H 0.81574 0.88782 0.42731 0.0
H268 H 0.7874 0.9065 0.42541 0.0
H269 H 0.79018 0.87575 0.4542 0.0
C270 C 0.72658 0.90033 0.48189 0.0
C271 C 0.72118 0.87993 0.50903 0.0
C272 C 0.74931 0.91337 0.48139 0.0
C273 C 0.76705 0.90617 0.50791 0.0
C274 C 0.7615 0.88649 0.5357 0.0
H275 H 0.92211 0.92695 0.50434 0.0
H276 H 0.88022 0.91025 0.50549 0.0
C277 C 0.7388 0.87343 0.53622 0.0
C278 C 0.79166 0.91856 0.50623 0.0
H279 H 0.84295 0.92071 0.45342 0.0
C280 C 0.7998 0.93502 0.53612 0.0
C281 C 0.8074 0.91317 0.47612 0.0
C282 C 0.79991 0.89467 0.44402 0.0
C283 C 0.82335 0.94631 0.53668 0.0
C284 C 0.83898 0.9412 0.50635 0.0
C285 C 0.83082 0.92474 0.47648 0.0
C286 C 0.86426 0.95173 0.50573 0.0
C287 C 0.83153 0.96296 0.57014 0.0
C288 C 0.86914 0.98063 0.50509 0.0
C289 C 0.8931 0.99031 0.50445 0.0
C290 C 0.91261 0.97122 0.50428 0.0
C291 C 0.90757 0.94227 0.50454 0.0
C292 C 0.88363 0.93265 0.50516 0.0
H293 H 0.81936 0.95976 0.59435 0.0
H294 H 0.85031 0.95709 0.57844 0.0
H295 H 0.83144 0.98564 0.56299 0.0
H296 H 0.8544 0.99569 0.50486 0.0
H297 H 0.89631 0.01274 0.5041 0.0
H298 H 0.79189 0.40597 0.04893 0.0
H299 H 0.75157 0.42763 0.04916 0.0
H300 H 0.73095 0.37849 0.9535 0.0
H301 H 0.77101 0.35647 0.95328 0.0
H302 H 0.71766 0.43626 0.94899 0.0
H303 H 0.68905 0.38622 0.08179 0.0
H304 H 0.71719 0.40529 0.08375 0.0
H305 H 0.71498 0.37423 0.05574 0.0
C306 C 0.77874 0.39966 0.02805 0.0
C307 C 0.78465 0.37939 0.00118 0.0
C308 C 0.75574 0.41209 0.02821 0.0
C309 C 0.73824 0.40439 0.00162 0.0
C310 C 0.74424 0.3847 0.97425 0.0
H311 H 0.58283 0.42424 0.00272 0.0
H312 H 0.62475 0.40755 0.00217 0.0
C313 C 0.76719 0.37225 0.97408 0.0
C314 C 0.71349 0.41646 0.00253 0.0
H315 H 0.66177 0.41858 0.05434 0.0
C316 C 0.70543 0.43251 0.97204 0.0
C317 C 0.69755 0.41119 0.03248 0.0
C318 C 0.70496 0.39311 0.06521 0.0
C319 C 0.6818 0.44352 0.97073 0.0
C320 C 0.66598 0.43857 0.00093 0.0
C321 C 0.67403 0.42249 0.03138 0.0
C322 C 0.64067 0.44904 0.00093 0.0
C323 C 0.67375 0.45975 0.93668 0.0
C324 C 0.63576 0.47794 0.00073 0.0
C325 C 0.61179 0.4876 0.001 0.0
C326 C 0.59229 0.46851 0.00167 0.0
C327 C 0.59736 0.43955 0.00213 0.0
C328 C 0.62131 0.42995 0.00186 0.0
H329 H 0.68605 0.45627 0.91272 0.0
H330 H 0.65502 0.45375 0.92833 0.0
H331 H 0.67377 0.48251 0.94313 0.0
H332 H 0.65048 0.49302 0.00066 0.0
H333 H 0.60857 0.51003 0.00082 0.0
H334 H 0.05913 0.81623 0.13649 0.0
H335 H 0.04825 0.8459 0.18903 0.0
H336 H 0.07082 0.78081 0.26541 0.0
H337 H 0.08147 0.75061 0.21281 0.0
H338 H 0.01496 0.83471 0.24798 0.0
H339 H 0.1096 0.85155 0.29818 0.0
H340 H 0.10276 0.83818 0.25232 0.0
H341 H 0.10037 0.81562 0.29226 0.0
C342 C 0.06148 0.80798 0.16441 0.0
C343 C 0.07112 0.78098 0.17043 0.0
C344 C 0.05538 0.82506 0.1944 0.0
C345 C 0.05896 0.81563 0.23101 0.0
C346 C 0.06829 0.7886 0.23729 0.0
H347 H 0.00204 0.89922 0.42796 0.0
H348 H 0.01197 0.86479 0.38011 0.0
C349 C 0.07437 0.77141 0.20724 0.0
C350 C 0.05294 0.83434 0.26241 0.0
H351 H 0.07822 0.87226 0.33317 0.0
C352 C 0.02873 0.84282 0.26678 0.0
C353 C 0.07106 0.84508 0.28649 0.0
C354 C 0.09746 0.83739 0.28209 0.0
C355 C 0.02213 0.86188 0.29463 0.0
C356 C 0.04022 0.87247 0.3189 0.0
C357 C 0.06442 0.86394 0.31459 0.0
C358 C 0.03447 0.89312 0.3482 0.0
C359 C 0.996 0.87114 0.29727 0.0
C360 C 0.04423 0.92028 0.34642 0.0
C361 C 0.03864 0.94004 0.37372 0.0
C362 C 0.02331 0.9329 0.40349 0.0
C363 C 0.01381 0.90549 0.40537 0.0
C364 C 0.01938 0.88579 0.37799 0.0
H365 H 0.98546 0.86573 0.27182 0.0
H366 H 0.98737 0.86053 0.32135 0.0
H367 H 0.99483 0.89416 0.30177 0.0
H368 H 0.05598 0.92627 0.32365 0.0
H369 H 0.04634 0.96088 0.37146 0.0
H370 H 0.53059 0.73267 0.65781 0.0
H371 H 0.51927 0.70258 0.71025 0.0
H372 H 0.59359 0.70201 0.74851 0.0
H373 H 0.60524 0.73151 0.69575 0.0
H374 H 0.54123 0.6477 0.72268 0.0
H375 H 0.55253 0.7194 0.84336 0.0
H376 H 0.54834 0.73206 0.79627 0.0
H377 H 0.57728 0.71853 0.81093 0.0
C378 C 0.54453 0.72626 0.67745 0.0
C379 C 0.56886 0.73441 0.67244 0.0
C380 C 0.53799 0.70921 0.70749 0.0
C381 C 0.55557 0.7003 0.73331 0.0
C382 C 0.5797 0.70909 0.72918 0.0
H383 H 0.55867 0.5861 0.92098 0.0
H384 H 0.56749 0.62099 0.87287 0.0
C385 C 0.5863 0.72602 0.69904 0.0
C386 C 0.54906 0.67995 0.76279 0.0
H387 H 0.54575 0.67131 0.85696 0.0
C388 C 0.54204 0.65286 0.75206 0.0
C389 C 0.55039 0.68679 0.80097 0.0
C390 C 0.55736 0.71582 0.81376 0.0
C391 C 0.53673 0.63212 0.77861 0.0
C392 C 0.53788 0.63896 0.8169 0.0
C393 C 0.54484 0.66615 0.8276 0.0
C394 C 0.53224 0.61806 0.84627 0.0
C395 C 0.53069 0.60289 0.76537 0.0
C396 C 0.50938 0.60511 0.84756 0.0
C397 C 0.50434 0.58497 0.87481 0.0
C398 C 0.52197 0.57768 0.90164 0.0
C399 C 0.54469 0.59115 0.90071 0.0
C400 C 0.54976 0.61114 0.87328 0.0
H401 H 0.53719 0.59922 0.73657 0.0
H402 H 0.53882 0.58674 0.784 0.0
H403 H 0.51069 0.60008 0.76535 0.0
H404 H 0.49538 0.61064 0.82754 0.0
H405 H 0.48656 0.57525 0.87495 0.0
H406 H 0.97592 0.23975 0.16368 0.0
H407 H 0.98712 0.20903 0.21577 0.0
H408 H 0.91181 0.20175 0.24624 0.0
H409 H 0.9003 0.23187 0.19371 0.0
H410 H 0.94908 0.21143 0.30788 0.0
H411 H 0.96841 0.12231 0.21256 0.0
H412 H 0.98199 0.15564 0.20142 0.0
H413 H 0.94964 0.15172 0.19884 0.0
C414 C 0.96172 0.23166 0.18147 0.0
C415 C 0.93718 0.23806 0.17429 0.0
C416 C 0.96817 0.21422 0.21126 0.0
C417 C 0.95024 0.20297 0.23445 0.0
C418 C 0.92587 0.21029 0.22853 0.0
H419 H 0.94639 0.08848 0.4221 0.0
H420 H 0.93778 0.12423 0.375 0.0
C421 C 0.91937 0.22763 0.19864 0.0
C422 C 0.95676 0.18242 0.26373 0.0
H423 H 0.97558 0.11483 0.27648 0.0
C424 C 0.95491 0.1903 0.30116 0.0
C425 C 0.96439 0.15499 0.25464 0.0
C426 C 0.96613 0.14542 0.21473 0.0
C427 C 0.96076 0.17142 0.32995 0.0
C428 C 0.96803 0.14376 0.32089 0.0
C429 C 0.97001 0.13602 0.28336 0.0
C430 C 0.97335 0.12233 0.34982 0.0
C431 C 0.95956 0.18145 0.3697 0.0
C432 C 0.99594 0.1087 0.35057 0.0
C433 C 0.00082 0.08791 0.37713 0.0
C434 C 0.98316 0.08036 0.40348 0.0
C435 C 0.96048 0.09393 0.40245 0.0
C436 C 0.95558 0.11456 0.37571 0.0
H437 H 0.96091 0.20468 0.3714 0.0
H438 H 0.94188 0.17515 0.38182 0.0
H439 H 0.9743 0.17206 0.3869 0.0
H440 H 0.00986 0.11423 0.33065 0.0
H441 H 0.01848 0.07791 0.37713 0.0
H442 H 0.43223 0.31912 0.63741 0.0
H443 H 0.44221 0.34804 0.6915 0.0
H444 H 0.44391 0.27416 0.76108 0.0
H445 H 0.43401 0.24486 0.70684 0.0
H446 H 0.41287 0.34548 0.76689 0.0
H447 H 0.51191 0.32135 0.77269 0.0
H448 H 0.4949 0.31936 0.72961 0.0
H449 H 0.49043 0.29334 0.76503 0.0
C450 C 0.43496 0.30896 0.66414 0.0
C451 C 0.43252 0.27971 0.66788 0.0
C452 C 0.44049 0.32553 0.69498 0.0
C453 C 0.44387 0.31314 0.73003 0.0
C454 C 0.44144 0.28398 0.73408 0.0
H455 H 0.49409 0.39453 0.93362 0.0
H456 H 0.4825 0.35983 0.8868 0.0
C457 C 0.4357 0.26736 0.7032 0.0
C458 C 0.44973 0.33102 0.7623 0.0
H459 H 0.49705 0.35439 0.81537 0.0
C460 C 0.43122 0.34735 0.77777 0.0
C461 C 0.47363 0.33313 0.77634 0.0
C462 C 0.49401 0.31599 0.76018 0.0
C463 C 0.43606 0.3661 0.80691 0.0
C464 C 0.4602 0.3691 0.82007 0.0
C465 C 0.4786 0.35218 0.80512 0.0
C466 C 0.46688 0.39016 0.84862 0.0
C467 C 0.41524 0.38232 0.82348 0.0
C468 C 0.46226 0.41879 0.84244 0.0
C469 C 0.4687 0.43867 0.86923 0.0
C470 C 0.48023 0.43035 0.90251 0.0
C471 C 0.48523 0.40168 0.90831 0.0
C472 C 0.47861 0.3818 0.88161 0.0
H473 H 0.39763 0.37146 0.8188 0.0
H474 H 0.41784 0.38543 0.85386 0.0
H475 H 0.41409 0.40324 0.80991 0.0
H476 H 0.45384 0.42581 0.81673 0.0
H477 H 0.4648 0.46058 0.86369 0.0
H478 H 0.6139 0.7162 0.32524 0.0
H479 H 0.60342 0.6861 0.27245 0.0
H480 H 0.52798 0.70833 0.28423 0.0
H481 H 0.53834 0.73884 0.33677 0.0
H482 H 0.5698 0.63971 0.27738 0.0
H483 H 0.54262 0.71892 0.17095 0.0
H484 H 0.56122 0.72756 0.2109 0.0
H485 H 0.52909 0.72284 0.2161 0.0
C486 C 0.59515 0.71514 0.31611 0.0
C487 C 0.57694 0.72993 0.33508 0.0
C488 C 0.58919 0.69781 0.28614 0.0
C489 C 0.56498 0.69521 0.27435 0.0
C490 C 0.54681 0.71037 0.29267 0.0
H491 H 0.49804 0.56345 0.14389 0.0
H492 H 0.50929 0.59756 0.19171 0.0
C493 C 0.55273 0.72758 0.32281 0.0
C494 C 0.55859 0.67529 0.24439 0.0
H495 H 0.53512 0.67113 0.15641 0.0
C496 C 0.56228 0.64654 0.25088 0.0
C497 C 0.54894 0.68438 0.20986 0.0
C498 C 0.54536 0.71512 0.20122 0.0
C499 C 0.55621 0.62653 0.22384 0.0
C500 C 0.54608 0.63557 0.18961 0.0
C501 C 0.54275 0.66434 0.18285 0.0
C502 C 0.539 0.61535 0.16039 0.0
C503 C 0.56087 0.59588 0.23188 0.0
C504 C 0.5518 0.61443 0.12681 0.0
C505 C 0.54549 0.59493 0.09944 0.0
C506 C 0.5261 0.57617 0.10508 0.0
C507 C 0.5131 0.5775 0.13865 0.0
C508 C 0.51953 0.59691 0.16606 0.0
H509 H 0.57312 0.59289 0.25626 0.0
H510 H 0.54338 0.58531 0.23795 0.0
H511 H 0.56902 0.58545 0.20734 0.0
H512 H 0.56685 0.6286 0.12197 0.0
H513 H 0.55582 0.59459 0.07387 0.0
H514 H 0.93004 0.26466 0.79838 0.0
H515 H 0.93902 0.23489 0.7445 0.0
H516 H 0.94843 0.16361 0.81746 0.0
H517 H 0.93904 0.19289 0.87113 0.0
H518 H 0.98195 0.20122 0.7313 0.0
H519 H 0.8977 0.1376 0.73891 0.0
H520 H 0.90096 0.171 0.76207 0.0
H521 H 0.91419 0.1399 0.7821 0.0
C522 C 0.9339 0.24261 0.80285 0.0
C523 C 0.93384 0.23112 0.83898 0.0
C524 C 0.93913 0.2257 0.77213 0.0
C525 C 0.94408 0.19704 0.77707 0.0
C526 C 0.94433 0.18562 0.81308 0.0
H527 H 0.01224 0.073 0.63934 0.0
H528 H 0.0018 0.10837 0.68569 0.0
C529 C 0.93922 0.20246 0.84373 0.0
C530 C 0.94917 0.17887 0.74477 0.0
H531 H 0.92903 0.12033 0.69969 0.0
C532 C 0.97031 0.18368 0.7241 0.0
C533 C 0.93376 0.15624 0.73527 0.0
C534 C 0.91025 0.15094 0.75549 0.0
C535 C 0.97689 0.16576 0.6949 0.0
C536 C 0.96206 0.14234 0.68657 0.0
C537 C 0.94049 0.13815 0.7064 0.0
C538 C 0.96876 0.12158 0.65785 0.0
C539 C -0.00037 0.17204 0.67319 0.0
C540 C 0.95337 0.11691 0.62727 0.0
C541 C 0.95919 0.0966 0.60082 0.0
C542 C 0.98045 0.08041 0.60463 0.0
C543 C 0.99578 0.08512 0.63545 0.0
C544 C 0.98995 0.10547 0.66185 0.0
H545 H 0.00524 0.19432 0.67619 0.0
H546 H 0.01465 0.15866 0.68385 0.0
H547 H 0.99702 0.16739 0.64316 0.0
H548 H 0.93685 0.12901 0.62387 0.0
H549 H 0.94694 0.09353 0.57748 0.0
H550 H 0.47246 0.26596 0.339 0.0
H551 H 0.48337 0.29701 0.28726 0.0
H552 H 0.40758 0.31381 0.26632 0.0
H553 H 0.3965 0.28298 0.31807 0.0
H554 H 0.43521 0.30499 0.20112 0.0
H555 H 0.47771 0.38309 0.29581 0.0
H556 H 0.48945 0.34803 0.30017 0.0
H557 H 0.45847 0.35512 0.31246 0.0
C558 C 0.45812 0.27621 0.3233 0.0
C559 C 0.43362 0.27219 0.33281 0.0
C560 C 0.46438 0.29392 0.2938 0.0
C561 C 0.44628 0.30804 0.27347 0.0
C562 C 0.42181 0.30314 0.28179 0.0
H563 H 0.4605 0.45789 0.13878 0.0
H564 H 0.45005 0.42252 0.18548 0.0
C565 C 0.41551 0.2854 0.31125 0.0
C566 C 0.45283 0.32874 0.2444 0.0
H567 H 0.48117 0.39167 0.23116 0.0
C568 C 0.44529 0.32393 0.20759 0.0
C569 C 0.46564 0.35361 0.25316 0.0
C570 C 0.47313 0.36051 0.29257 0.0
C571 C 0.45046 0.34327 0.17914 0.0
C572 C 0.46379 0.36781 0.18777 0.0
C573 C 0.47112 0.37271 0.22464 0.0
C574 C 0.46998 0.38897 0.15908 0.0
C575 C 0.44119 0.33757 0.14028 0.0
C576 C 0.48489 0.38187 0.12903 0.0
C577 C 0.49088 0.40201 0.10225 0.0
C578 C 0.4822 0.4297 0.10517 0.0
C579 C 0.46747 0.43679 0.1356 0.0
C580 C 0.46148 0.41661 0.16233 0.0
H581 H 0.42635 0.32177 0.14022 0.0
H582 H 0.43441 0.35713 0.12691 0.0
H583 H 0.45625 0.32927 0.12314 0.0
H584 H 0.49205 0.3608 0.12644 0.0
H585 H 0.50237 0.39584 0.07931 0.0
H586 H 0.03318 0.76889 0.84314 0.0
H587 H 0.0213 0.79876 0.7905 0.0
H588 H 0.09662 0.8172 0.76921 0.0
H589 H 0.10864 0.78753 0.8218 0.0
H590 H 0.03079 0.85554 0.78427 0.0
H591 H 0.0706 0.79754 0.66574 0.0
H592 H 0.06633 0.78177 0.71103 0.0
H593 H 0.09186 0.80441 0.70268 0.0
C594 C 0.04722 0.77915 0.82707 0.0
C595 C 0.07185 0.77584 0.83662 0.0
C596 C 0.04041 0.79611 0.79696 0.0
C597 C 0.05809 0.80992 0.77573 0.0
C598 C 0.08271 0.80622 0.78471 0.0
H599 H 0.0423 0.9606 0.64315 0.0
H600 H 0.05171 0.92537 0.69071 0.0
C601 C 0.08954 0.78924 0.81477 0.0
C602 C 0.05075 0.82978 0.74593 0.0
H603 H 0.05766 0.84453 0.65353 0.0
C604 C 0.03651 0.85304 0.75562 0.0
C605 C 0.05805 0.8263 0.70855 0.0
C606 C 0.07236 0.80102 0.69621 0.0
C607 C 0.02983 0.87331 0.72906 0.0
C608 C 0.03796 0.87044 0.69201 0.0
C609 C 0.05169 0.84681 0.68209 0.0
C610 C 0.03239 0.89173 0.66311 0.0
C611 C 0.01397 0.8975 0.74085 0.0
C612 C 0.01888 0.88431 0.63144 0.0
C613 C 0.01356 0.90434 0.60409 0.0
C614 C 0.02179 0.93218 0.60782 0.0
C615 C 0.03555 0.93944 0.63947 0.0
C616 C 0.04085 0.91937 0.66679 0.0
H617 H 0.00418 0.89278 0.7671 0.0
H618 H 0.02549 0.91626 0.74568 0.0
H619 H 0.00044 0.90277 0.71887 0.0
H620 H 0.01229 0.86304 0.62803 0.0
H621 H 0.00299 0.89797 0.58005 0.0
loop_
_geom_bond_atom_site_label_1
_geom_bond_atom_site_label_2
_geom_bond_distance
_geom_bond_site_symmetry_2
_ccdc_geom_bond_type
C0 C1 1.384 . S
C0 H13 0.947 . S
C0 C35 1.382 . S
C1 C0 1.384 . S
C1 C2 1.378 . S
C2 C1 1.378 . S
C2 C3 1.378 . S
C2 H14 0.952 . S
C3 C2 1.378 . S
C3 H15 0.950 . S
C3 C34 1.383 . S
H4 C23 0.947 . S
H5 C24 0.946 . S
H6 C26 0.953 . S
H7 C27 0.945 . S
H8 C29 0.952 . S
H9 C30 0.949 . S
H10 C32 0.950 . S
H11 C33 0.948 . S
H12 C35 0.951 . S
H13 C0 0.947 . S
H14 C2 0.952 . S
H15 C3 0.950 . S
N16 C19 1.382 . S
N16 C21 1.363 . S
N17 C19 1.371 1_556 S
N17 C20 1.372 . S
N18 C20 1.361 1_554 S
N18 C21 1.377 . S
C19 N16 1.382 . S
C19 N17 1.371 1_554 S
C19 C22 1.480 . S
C20 N17 1.372 . S
C20 N18 1.361 1_556 S
C20 C28 1.457 . S
C21 N16 1.363 . S
C21 N18 1.377 . S
C21 C34 1.479 . S
C22 C19 1.480 . S
C22 C23 1.383 . S
C22 C27 1.385 1_554 S
C23 H4 0.947 . S
C23 C22 1.383 . S
C23 C24 1.388 . S
C24 H5 0.946 . S
C24 C23 1.388 . S
C24 C25 1.384 . S
C25 C24 1.384 . S
C25 C26 1.377 1_554 S
C26 H6 0.953 . S
C26 C25 1.377 1_556 S
C26 C27 1.369 . S
C27 H7 0.945 . S
C27 C22 1.385 1_556 S
C27 C26 1.369 . S
C28 C20 1.457 . S
C28 C29 1.372 . S
C28 C33 1.364 . S
C29 H8 0.952 . S
C29 C28 1.372 . S
C29 C30 1.389 . S
C30 H9 0.949 . S
C30 C29 1.389 . S
C30 C31 1.387 . S
C31 C30 1.387 . S
C31 C32 1.372 . S
C32 H10 0.950 . S
C32 C31 1.372 . S
C32 C33 1.379 . S
C33 H11 0.948 . S
C33 C28 1.364 . S
C33 C32 1.379 . S
C34 C3 1.383 . S
C34 C21 1.479 . S
C34 C35 1.398 . S
C35 C0 1.382 . S
C35 H12 0.951 . S
C35 C34 1.398 . S
C36 C37 1.384 . S
C36 H49 0.947 . S
C36 C71 1.382 . S
C37 C36 1.384 . S
C37 C38 1.378 . S
C38 C37 1.378 . S
C38 C39 1.378 . S
C38 H50 0.952 . S
C39 C38 1.378 . S
C39 H51 0.950 . S
C39 C70 1.383 . S
H40 C59 0.947 . S
H41 C60 0.946 . S
H42 C62 0.953 . S
H43 C63 0.945 . S
H44 C65 0.952 . S
H45 C66 0.949 . S
H46 C68 0.950 . S
H47 C69 0.948 . S
H48 C71 0.951 . S
H49 C36 0.947 . S
H50 C38 0.952 . S
H51 C39 0.950 . S
N52 C55 1.382 . S
N52 C57 1.363 . S
N53 C55 1.371 . S
N53 C56 1.372 . S
N54 C56 1.361 . S
N54 C57 1.377 . S
C55 N52 1.382 . S
C55 N53 1.371 . S
C55 C58 1.480 . S
C56 N53 1.372 . S
C56 N54 1.361 . S
C56 C64 1.457 . S
C57 N52 1.363 . S
C57 N54 1.377 . S
C57 C70 1.479 . S
C58 C55 1.480 . S
C58 C59 1.383 . S
C58 C63 1.385 . S
C59 H40 0.947 . S
C59 C58 1.383 . S
C59 C60 1.388 . S
C60 H41 0.946 . S
C60 C59 1.388 . S
C60 C61 1.384 . S
C61 C60 1.384 . S
C61 C62 1.377 . S
C62 H42 0.953 . S
C62 C61 1.377 . S
C62 C63 1.369 . S
C63 H43 0.945 . S
C63 C58 1.385 . S
C63 C62 1.369 . S
C64 C56 1.457 . S
C64 C65 1.372 . S
C64 C69 1.364 . S
C65 H44 0.952 . S
C65 C64 1.372 . S
C65 C66 1.389 . S
C66 H45 0.949 . S
C66 C65 1.389 . S
C66 C67 1.387 . S
C67 C66 1.387 . S
C67 C68 1.372 . S
C68 H46 0.950 . S
C68 C67 1.372 . S
C68 C69 1.379 . S
C69 H47 0.948 . S
C69 C64 1.364 . S
C69 C68 1.379 . S
C70 C39 1.383 . S
C70 C57 1.479 . S
C70 C71 1.398 . S
C71 C36 1.382 . S
C71 H48 0.951 . S
C71 C70 1.398 . S
C72 C73 1.384 . S
C72 H85 0.947 . S
C72 C107 1.382 . S
C73 C72 1.384 . S
C73 C74 1.378 . S
C74 C73 1.378 . S
C74 C75 1.378 . S
C74 H86 0.952 . S
C75 C74 1.378 . S
C75 H87 0.950 . S
C75 C106 1.383 . S
H76 C95 0.947 . S
H77 C96 0.946 . S
H78 C98 0.953 . S
H79 C99 0.945 . S
H80 C101 0.952 . S
H81 C102 0.949 . S
H82 C104 0.950 . S
H83 C105 0.948 . S
H84 C107 0.951 . S
H85 C72 0.947 . S
H86 C74 0.952 . S
H87 C75 0.950 . S
N88 C91 1.382 1_556 S
N88 C93 1.363 . S
N89 C91 1.371 . S
N89 C92 1.372 . S
N90 C92 1.361 . S
N90 C93 1.377 1_554 S
C91 N88 1.382 1_554 S
C91 N89 1.371 . S
C91 C94 1.480 . S
C92 N89 1.372 . S
C92 N90 1.361 . S
C92 C100 1.457 . S
C93 N88 1.363 . S
C93 N90 1.377 1_556 S
C93 C106 1.479 . S
C94 C91 1.480 . S
C94 C95 1.383 1_554 S
C94 C99 1.385 . S
C95 H76 0.947 . S
C95 C94 1.383 1_556 S
C95 C96 1.388 . S
C96 H77 0.946 . S
C96 C95 1.388 . S
C96 C97 1.384 1_556 S
C97 C96 1.384 1_554 S
C97 C98 1.377 . S
C98 H78 0.953 . S
C98 C97 1.377 . S
C98 C99 1.369 . S
C99 H79 0.945 . S
C99 C94 1.385 . S
C99 C98 1.369 . S
C100 C92 1.457 . S
C100 C101 1.372 . S
C100 C105 1.364 . S
C101 H80 0.952 . S
C101 C100 1.372 . S
C101 C102 1.389 . S
C102 H81 0.949 . S
C102 C101 1.389 . S
C102 C103 1.387 . S
C103 C102 1.387 . S
C103 C104 1.372 . S
C104 H82 0.950 . S
C104 C103 1.372 . S
C104 C105 1.379 . S
C105 H83 0.948 . S
C105 C100 1.364 . S
C105 C104 1.379 . S
C106 C75 1.383 . S
C106 C93 1.479 . S
C106 C107 1.398 . S
C107 C72 1.382 . S
C107 H84 0.951 . S
C107 C106 1.398 . S
C108 C109 1.384 . S
C108 H121 0.947 . S
C108 C143 1.382 . S
C109 C108 1.384 . S
C109 C110 1.378 . S
C110 C109 1.378 . S
C110 C111 1.378 . S
C110 H122 0.952 . S
C111 C110 1.378 . S
C111 H123 0.950 . S
C111 C142 1.383 . S
H112 C131 0.947 . S
H113 C132 0.946 . S
H114 C134 0.953 . S
H115 C135 0.945 . S
H116 C137 0.952 . S
H117 C138 0.949 . S
H118 C140 0.950 . S
H119 C141 0.948 . S
H120 C143 0.951 . S
H121 C108 0.947 . S
H122 C110 0.952 . S
H123 C111 0.950 . S
N124 C127 1.382 . S
N124 C129 1.363 . S
N125 C127 1.371 . S
N125 C128 1.372 . S
N126 C128 1.361 . S
N126 C129 1.377 . S
C127 N124 1.382 . S
C127 N125 1.371 . S
C127 C130 1.480 . S
C128 N125 1.372 . S
C128 N126 1.361 . S
C128 C136 1.457 . S
C129 N124 1.363 . S
C129 N126 1.377 . S
C129 C142 1.479 . S
C130 C127 1.480 . S
C130 C131 1.383 . S
C130 C135 1.385 . S
C131 H112 0.947 . S
C131 C130 1.383 . S
C131 C132 1.388 . S
C132 H113 0.946 . S
C132 C131 1.388 . S
C132 C133 1.384 . S
C133 C132 1.384 . S
C133 C134 1.377 . S
C134 H114 0.953 . S
C134 C133 1.377 . S
C134 C135 1.369 . S
C135 H115 0.945 . S
C135 C130 1.385 . S
C135 C134 1.369 . S
C136 C128 1.457 . S
C136 C137 1.372 . S
C136 C141 1.364 . S
C137 H116 0.952 . S
C137 C136 1.372 . S
C137 C138 1.389 . S
C138 H117 0.949 . S
C138 C137 1.389 . S
C138 C139 1.387 . S
C139 C138 1.387 . S
C139 C140 1.372 . S
C140 H118 0.950 . S
C140 C139 1.372 . S
C140 C141 1.379 . S
C141 H119 0.948 . S
C141 C136 1.364 . S
C141 C140 1.379 . S
C142 C111 1.383 . S
C142 C129 1.479 . S
C142 C143 1.398 . S
C143 C108 1.382 . S
C143 H120 0.951 . S
C143 C142 1.398 . S
O144 Zn145 1.953 1_565 S
O144 C160 1.225 . S
Zn145 O144 1.953 1_545 S
Zn145 O146 1.949 1_655 S
Zn145 O152 1.919 . S
Zn145 O157 1.924 . S
O146 Zn145 1.949 1_455 S
O146 Zn147 1.923 . S
O146 Zn148 1.950 1_445 S
O146 Zn149 1.945 . S
Zn147 O146 1.923 . S
Zn147 O150 1.933 . S
Zn147 O153 1.941 . S
Zn147 O154 1.965 1_545 S
Zn148 O146 1.950 1_665 S
Zn148 O155 1.938 1_655 S
Zn148 O156 1.906 1_655 S
Zn148 O166 1.953 . S
Zn149 O146 1.945 . S
Zn149 O151 1.932 . S
Zn149 O158 1.977 1_545 S
Zn149 O159 1.910 1_455 S
O150 Zn147 1.933 . S
O150 C161 1.226 . S
O151 Zn149 1.932 . S
O151 C161 1.307 . S
O152 Zn145 1.919 . S
O152 C163 1.253 . S
O153 Zn147 1.941 . S
O153 C163 1.283 1_455 S
O154 Zn147 1.965 1_565 S
O154 C162 1.303 . S
O155 Zn148 1.938 1_455 S
O155 C162 1.247 . S
O156 Zn148 1.906 1_455 S
O156 C164 1.304 . S
O157 Zn145 1.924 . S
O157 C165 1.311 . S
O158 Zn149 1.977 1_565 S
O158 C164 1.272 . S
O159 Zn149 1.910 1_655 S
O159 C165 1.231 . S
C160 O144 1.225 . S
C160 O166 1.298 . S
C161 O150 1.226 . S
C161 O151 1.307 . S
C162 O154 1.303 . S
C162 O155 1.247 . S
C163 O152 1.253 . S
C163 O153 1.283 1_655 S
C164 O156 1.304 . S
C164 O158 1.272 . S
C165 O157 1.311 . S
C165 O159 1.231 . S
O166 Zn148 1.953 . S
O166 C160 1.298 . S
O167 Zn168 1.955 . S
O167 C183 1.225 1_556 S
Zn168 O167 1.955 . S
Zn168 O169 1.945 1_556 S
Zn168 O175 1.934 . S
Zn168 O180 1.909 1_556 S
O169 Zn168 1.945 1_554 S
O169 Zn170 1.923 1_554 S
O169 Zn171 1.950 . S
O169 Zn172 1.945 . S
Zn170 O169 1.923 1_556 S
Zn170 O173 1.933 . S
Zn170 O176 1.941 . S
Zn170 O177 1.965 . S
Zn171 O169 1.950 . S
Zn171 O178 1.938 1_554 S
Zn171 O179 1.906 . S
Zn171 O189 1.953 . S
Zn172 O169 1.945 . S
Zn172 O174 1.932 . S
Zn172 O181 1.977 . S
Zn172 O182 1.910 . S
O173 Zn170 1.933 . S
O173 C184 1.226 1_556 S
O174 Zn172 1.932 . S
O174 C184 1.307 . S
O175 Zn168 1.934 . S
O175 C186 1.253 . S
O176 Zn170 1.941 . S
O176 C186 1.283 . S
O177 Zn170 1.965 . S
O177 C185 1.303 . S
O178 Zn171 1.938 1_556 S
O178 C185 1.247 . S
O179 Zn171 1.906 . S
O179 C187 1.304 . S
O180 Zn168 1.909 1_554 S
O180 C188 1.311 . S
O181 Zn172 1.977 . S
O181 C187 1.272 . S
O182 Zn172 1.910 . S
O182 C188 1.231 . S
C183 O167 1.225 1_554 S
C183 O189 1.298 . S
C184 O173 1.226 1_554 S
C184 O174 1.307 . S
C185 O177 1.303 . S
C185 O178 1.247 . S
C186 O175 1.253 . S
C186 O176 1.283 . S
C187 O179 1.304 . S
C187 O181 1.272 . S
C188 O180 1.311 . S
C188 O182 1.231 . S
O189 Zn171 1.953 . S
O189 C183 1.298 . S
H190 C198 0.929 . S
H191 C200 0.930 . S
H192 C202 0.930 . S
H193 C205 0.929 . S
H194 C208 0.930 . S
H195 C210 0.960 . S
H196 C210 0.960 . S
H197 C210 0.960 . S
C198 H190 0.929 . S
C198 C199 1.377 . S
C198 C200 1.384 . S
C199 C198 1.377 . S
C199 C205 1.390 . S
C200 H191 0.930 . S
C200 C198 1.384 . S
C200 C201 1.372 . S
C201 C200 1.372 . S
C201 C202 1.400 . S
C201 C206 1.490 . S
C202 H192 0.930 . S
C202 C201 1.400 . S
C202 C205 1.386 . S
H203 C219 0.930 . S
H204 C220 0.931 . S
C205 H193 0.929 . S
C205 C199 1.390 . S
C205 C202 1.386 . S
C206 C201 1.490 . S
C206 C208 1.395 . S
C206 C209 1.403 . S
H207 C213 0.930 . S
C208 H194 0.930 . S
C208 C206 1.395 . S
C208 C211 1.403 . S
C209 C206 1.403 . S
C209 C210 1.524 . S
C209 C213 1.400 . S
C210 H195 0.960 . S
C210 H196 0.960 . S
C210 H197 0.960 . S
C210 C209 1.524 . S
C211 C208 1.403 . S
C211 C212 1.392 . S
C211 C215 1.495 . S
C212 C211 1.392 . S
C212 C213 1.385 . S
C212 C214 1.478 . S
C213 H207 0.930 . S
C213 C209 1.400 . S
C213 C212 1.385 . S
C214 C212 1.478 . S
C214 C216 1.381 . S
C214 C220 1.383 . S
C215 C211 1.495 . S
C215 H221 0.959 . S
C215 H222 0.961 . S
C215 H223 0.960 . S
C216 C214 1.381 . S
C216 C217 1.394 . S
C216 H224 0.930 . S
C217 C216 1.394 . S
C217 C218 1.383 . S
C217 H225 0.929 . S
C218 C217 1.383 . S
C218 C219 1.377 . S
C219 H203 0.930 . S
C219 C218 1.377 . S
C219 C220 1.379 . S
C220 H204 0.931 . S
C220 C214 1.383 . S
C220 C219 1.379 . S
H221 C215 0.959 . S
H222 C215 0.961 . S
H223 C215 0.960 . S
H224 C216 0.930 . S
H225 C217 0.929 . S
H226 C234 0.929 . S
H227 C236 0.930 . S
H228 C238 0.930 . S
H229 C241 0.929 . S
H230 C244 0.930 . S
H231 C246 0.960 . S
H232 C246 0.960 . S
H233 C246 0.960 . S
C234 H226 0.929 . S
C234 C235 1.377 1_556 S
C234 C236 1.384 . S
C235 C234 1.377 1_554 S
C235 C241 1.390 . S
C236 H227 0.930 . S
C236 C234 1.384 . S
C236 C237 1.372 1_556 S
C237 C236 1.372 1_554 S
C237 C238 1.400 . S
C237 C242 1.490 . S
C238 H228 0.930 . S
C238 C237 1.400 . S
C238 C241 1.386 . S
H239 C255 0.930 . S
H240 C256 0.931 . S
C241 H229 0.929 . S
C241 C235 1.390 . S
C241 C238 1.386 . S
C242 C237 1.490 . S
C242 C244 1.395 1_554 S
C242 C245 1.403 . S
H243 C249 0.930 . S
C244 H230 0.930 . S
C244 C242 1.395 1_556 S
C244 C247 1.403 . S
C245 C242 1.403 . S
C245 C246 1.524 . S
C245 C249 1.400 . S
C246 H231 0.960 . S
C246 H232 0.960 . S
C246 H233 0.960 . S
C246 C245 1.524 . S
C247 C244 1.403 . S
C247 C248 1.392 1_556 S
C247 C251 1.495 . S
C248 C247 1.392 1_554 S
C248 C249 1.385 . S
C248 C250 1.478 . S
C249 H243 0.930 . S
C249 C245 1.400 . S
C249 C248 1.385 . S
C250 C248 1.478 . S
C250 C252 1.381 1_554 S
C250 C256 1.383 . S
C251 C247 1.495 . S
C251 H257 0.959 . S
C251 H258 0.961 . S
C251 H259 0.960 . S
C252 C250 1.381 1_556 S
C252 C253 1.394 . S
C252 H260 0.930 . S
C253 C252 1.394 . S
C253 C254 1.383 1_556 S
C253 H261 0.929 . S
C254 C253 1.383 1_554 S
C254 C255 1.377 . S
C255 H239 0.930 . S
C255 C254 1.377 . S
C255 C256 1.379 . S
C256 H240 0.931 . S
C256 C250 1.383 . S
C256 C255 1.379 . S
H257 C251 0.959 . S
H258 C251 0.961 . S
H259 C251 0.960 . S
H260 C252 0.930 . S
H261 C253 0.929 . S
H262 C270 0.929 . S
H263 C272 0.930 . S
H264 C274 0.930 . S
H265 C277 0.929 . S
H266 C280 0.930 . S
H267 C282 0.960 . S
H268 C282 0.960 . S
H269 C282 0.960 . S
C270 H262 0.929 . S
C270 C271 1.377 . S
C270 C272 1.384 . S
C271 C270 1.377 . S
C271 C277 1.390 . S
C272 H263 0.930 . S
C272 C270 1.384 . S
C272 C273 1.372 . S
C273 C272 1.372 . S
C273 C274 1.400 . S
C273 C278 1.490 . S
C274 H264 0.930 . S
C274 C273 1.400 . S
C274 C277 1.386 . S
H275 C291 0.930 . S
H276 C292 0.931 . S
C277 H265 0.929 . S
C277 C271 1.390 . S
C277 C274 1.386 . S
C278 C273 1.490 . S
C278 C280 1.395 . S
C278 C281 1.403 . S
H279 C285 0.930 . S
C280 H266 0.930 . S
C280 C278 1.395 . S
C280 C283 1.403 . S
C281 C278 1.403 . S
C281 C282 1.524 . S
C281 C285 1.400 . S
C282 H267 0.960 . S
C282 H268 0.960 . S
C282 H269 0.960 . S
C282 C281 1.524 . S
C283 C280 1.403 . S
C283 C284 1.392 . S
C283 C287 1.495 . S
C284 C283 1.392 . S
C284 C285 1.385 . S
C284 C286 1.478 . S
C285 H279 0.930 . S
C285 C281 1.400 . S
C285 C284 1.385 . S
C286 C284 1.478 . S
C286 C288 1.381 . S
C286 C292 1.383 . S
C287 C283 1.495 . S
C287 H293 0.959 . S
C287 H294 0.961 . S
C287 H295 0.960 . S
C288 C286 1.381 . S
C288 C289 1.394 . S
C288 H296 0.930 . S
C289 C288 1.394 . S
C289 C290 1.383 . S
C289 H297 0.929 . S
C290 C289 1.383 . S
C290 C291 1.377 . S
C291 H275 0.930 . S
C291 C290 1.377 . S
C291 C292 1.379 . S
C292 H276 0.931 . S
C292 C286 1.383 . S
C292 C291 1.379 . S
H293 C287 0.959 . S
H294 C287 0.961 . S
H295 C287 0.960 . S
H296 C288 0.930 . S
H297 C289 0.929 . S
H298 C306 0.929 . S
H299 C308 0.930 . S
H300 C310 0.930 . S
H301 C313 0.929 . S
H302 C316 0.930 . S
H303 C318 0.960 . S
H304 C318 0.960 . S
H305 C318 0.960 . S
C306 H298 0.929 . S
C306 C307 1.377 . S
C306 C308 1.384 . S
C307 C306 1.377 . S
C307 C313 1.390 1_554 S
C308 H299 0.930 . S
C308 C306 1.384 . S
C308 C309 1.372 . S
C309 C308 1.372 . S
C309 C310 1.400 1_554 S
C309 C314 1.490 . S
C310 H300 0.930 . S
C310 C309 1.400 1_556 S
C310 C313 1.386 . S
H311 C327 0.930 . S
H312 C328 0.931 . S
C313 H301 0.929 . S
C313 C307 1.390 1_556 S
C313 C310 1.386 . S
C314 C309 1.490 . S
C314 C316 1.395 1_554 S
C314 C317 1.403 . S
H315 C321 0.930 . S
C316 H302 0.930 . S
C316 C314 1.395 1_556 S
C316 C319 1.403 . S
C317 C314 1.403 . S
C317 C318 1.524 . S
C317 C321 1.400 . S
C318 H303 0.960 . S
C318 H304 0.960 . S
C318 H305 0.960 . S
C318 C317 1.524 . S
C319 C316 1.403 . S
C319 C320 1.392 1_556 S
C319 C323 1.495 . S
C320 C319 1.392 1_554 S
C320 C321 1.385 . S
C320 C322 1.478 . S
C321 H315 0.930 . S
C321 C317 1.400 . S
C321 C320 1.385 . S
C322 C320 1.478 . S
C322 C324 1.381 . S
C322 C328 1.383 1_554 S
C323 C319 1.495 . S
C323 H329 0.959 . S
C323 H330 0.961 . S
C323 H331 0.960 1_556 S
C324 C322 1.381 . S
C324 C325 1.394 . S
C324 H332 0.930 . S
C325 C324 1.394 . S
C325 C326 1.383 . S
C325 H333 0.929 . S
C326 C325 1.383 . S
C326 C327 1.377 1_554 S
C327 H311 0.930 . S
C327 C326 1.377 1_556 S
C327 C328 1.379 . S
C328 H312 0.931 . S
C328 C322 1.383 1_556 S
C328 C327 1.379 . S
H329 C323 0.959 . S
H330 C323 0.961 . S
H331 C323 0.960 1_554 S
H332 C324 0.930 . S
H333 C325 0.929 . S
H334 C342 0.929 . S
H335 C344 0.930 . S
H336 C346 0.930 . S
H337 C349 0.929 . S
H338 C352 0.930 . S
H339 C354 0.960 . S
H340 C354 0.960 . S
H341 C354 0.960 . S
C342 H334 0.929 . S
C342 C343 1.377 . S
C342 C344 1.384 . S
C343 C342 1.377 . S
C343 C349 1.390 . S
C344 H335 0.930 . S
C344 C342 1.384 . S
C344 C345 1.372 . S
C345 C344 1.372 . S
C345 C346 1.400 . S
C345 C350 1.490 . S
C346 H336 0.930 . S
C346 C345 1.400 . S
C346 C349 1.386 . S
H347 C363 0.930 . S
H348 C364 0.931 . S
C349 H337 0.929 . S
C349 C343 1.390 . S
C349 C346 1.386 . S
C350 C345 1.490 . S
C350 C352 1.395 . S
C350 C353 1.403 . S
H351 C357 0.930 . S
C352 H338 0.930 . S
C352 C350 1.395 . S
C352 C355 1.403 . S
C353 C350 1.403 . S
C353 C354 1.524 . S
C353 C357 1.400 . S
C354 H339 0.960 . S
C354 H340 0.960 . S
C354 H341 0.960 . S
C354 C353 1.524 . S
C355 C352 1.403 . S
C355 C356 1.392 . S
C355 C359 1.495 . S
C356 C355 1.392 . S
C356 C357 1.385 . S
C356 C358 1.478 . S
C357 H351 0.930 . S
C357 C353 1.400 . S
C357 C356 1.385 . S
C358 C356 1.478 . S
C358 C360 1.381 . S
C358 C364 1.383 . S
C359 C355 1.495 . S
C359 H365 0.959 1_455 S
C359 H366 0.955 1_455 S
C359 H367 0.960 . S
C360 C358 1.381 . S
C360 C361 1.394 . S
C360 H368 0.930 . S
C361 C360 1.394 . S
C361 C362 1.383 . S
C361 H369 0.929 . S
C362 C361 1.383 . S
C362 C363 1.377 . S
C363 H347 0.930 . S
C363 C362 1.377 . S
C363 C364 1.379 . S
C364 H348 0.931 . S
C364 C358 1.383 . S
C364 C363 1.379 . S
H365 C359 0.959 1_655 S
H366 C359 0.955 1_655 S
H367 C359 0.960 . S
H368 C360 0.930 . S
H369 C361 0.929 . S
H370 C378 0.929 . S
H371 C380 0.930 . S
H372 C382 0.930 . S
H373 C385 0.929 . S
H374 C388 0.930 . S
H375 C390 0.960 . S
H376 C390 0.960 . S
H377 C390 0.960 . S
C378 H370 0.929 . S
C378 C379 1.377 . S
C378 C380 1.384 . S
C379 C378 1.377 . S
C379 C385 1.390 . S
C380 H371 0.930 . S
C380 C378 1.384 . S
C380 C381 1.372 . S
C381 C380 1.372 . S
C381 C382 1.400 . S
C381 C386 1.490 . S
C382 H372 0.930 . S
C382 C381 1.400 . S
C382 C385 1.386 . S
H383 C399 0.930 . S
H384 C400 0.931 . S
C385 H373 0.929 . S
C385 C379 1.390 . S
C385 C382 1.386 . S
C386 C381 1.490 . S
C386 C388 1.395 . S
C386 C389 1.403 . S
H387 C393 0.930 . S
C388 H374 0.930 . S
C388 C386 1.395 . S
C388 C391 1.403 . S
C389 C386 1.403 . S
C389 C390 1.524 . S
C389 C393 1.400 . S
C390 H375 0.960 . S
C390 H376 0.960 . S
C390 H377 0.960 . S
C390 C389 1.524 . S
C391 C388 1.403 . S
C391 C392 1.392 . S
C391 C395 1.495 . S
C392 C391 1.392 . S
C392 C393 1.385 . S
C392 C394 1.478 . S
C393 H387 0.930 . S
C393 C389 1.400 . S
C393 C392 1.385 . S
C394 C392 1.478 . S
C394 C396 1.381 . S
C394 C400 1.383 . S
C395 C391 1.495 . S
C395 H401 0.959 . S
C395 H402 0.961 . S
C395 H403 0.960 . S
C396 C394 1.381 . S
C396 C397 1.394 . S
C396 H404 0.930 . S
C397 C396 1.394 . S
C397 C398 1.383 . S
C397 H405 0.929 . S
C398 C397 1.383 . S
C398 C399 1.377 . S
C399 H383 0.930 . S
C399 C398 1.377 . S
C399 C400 1.379 . S
C400 H384 0.931 . S
C400 C394 1.383 . S
C400 C399 1.379 . S
H401 C395 0.959 . S
H402 C395 0.961 . S
H403 C395 0.960 . S
H404 C396 0.930 . S
H405 C397 0.929 . S
H406 C414 0.929 . S
H407 C416 0.930 . S
H408 C418 0.930 . S
H409 C421 0.929 . S
H410 C424 0.930 . S
H411 C426 0.960 . S
H412 C426 0.960 . S
H413 C426 0.960 . S
C414 H406 0.929 . S
C414 C415 1.377 . S
C414 C416 1.384 . S
C415 C414 1.377 . S
C415 C421 1.390 . S
C416 H407 0.930 . S
C416 C414 1.384 . S
C416 C417 1.372 . S
C417 C416 1.372 . S
C417 C418 1.400 . S
C417 C422 1.490 . S
C418 H408 0.930 . S
C418 C417 1.400 . S
C418 C421 1.386 . S
H419 C435 0.930 . S
H420 C436 0.931 . S
C421 H409 0.929 . S
C421 C415 1.390 . S
C421 C418 1.386 . S
C422 C417 1.490 . S
C422 C424 1.395 . S
C422 C425 1.403 . S
H423 C429 0.930 . S
C424 H410 0.930 . S
C424 C422 1.395 . S
C424 C427 1.403 . S
C425 C422 1.403 . S
C425 C426 1.524 . S
C425 C429 1.400 . S
C426 H411 0.960 . S
C426 H412 0.960 . S
C426 H413 0.960 . S
C426 C425 1.524 . S
C427 C424 1.403 . S
C427 C428 1.392 . S
C427 C431 1.495 . S
C428 C427 1.392 . S
C428 C429 1.385 . S
C428 C430 1.478 . S
C429 H423 0.930 . S
C429 C425 1.400 . S
C429 C428 1.385 . S
C430 C428 1.478 . S
C430 C432 1.381 . S
C430 C436 1.383 . S
C431 C427 1.495 . S
C431 H437 0.959 . S
C431 H438 0.961 . S
C431 H439 0.960 . S
C432 C430 1.381 . S
C432 C433 1.394 . S
C432 H440 0.930 . S
C433 C432 1.394 . S
C433 C434 1.383 . S
C433 H441 0.929 . S
C434 C433 1.383 . S
C434 C435 1.377 . S
C435 H419 0.930 . S
C435 C434 1.377 . S
C435 C436 1.379 . S
C436 H420 0.931 . S
C436 C430 1.383 . S
C436 C435 1.379 . S
H437 C431 0.959 . S
H438 C431 0.961 . S
H439 C431 0.960 . S
H440 C432 0.930 . S
H441 C433 0.929 . S
H442 C450 0.929 . S
H443 C452 0.930 . S
H444 C454 0.930 . S
H445 C457 0.929 . S
H446 C460 0.930 . S
H447 C462 0.960 . S
H448 C462 0.960 . S
H449 C462 0.960 . S
C450 H442 0.929 . S
C450 C451 1.377 . S
C450 C452 1.384 . S
C451 C450 1.377 . S
C451 C457 1.390 . S
C452 H443 0.930 . S
C452 C450 1.384 . S
C452 C453 1.372 . S
C453 C452 1.372 . S
C453 C454 1.400 . S
C453 C458 1.490 . S
C454 H444 0.930 . S
C454 C453 1.400 . S
C454 C457 1.386 . S
H455 C471 0.930 . S
H456 C472 0.931 . S
C457 H445 0.929 . S
C457 C451 1.390 . S
C457 C454 1.386 . S
C458 C453 1.490 . S
C458 C460 1.395 . S
C458 C461 1.403 . S
H459 C465 0.930 . S
C460 H446 0.930 . S
C460 C458 1.395 . S
C460 C463 1.403 . S
C461 C458 1.403 . S
C461 C462 1.524 . S
C461 C465 1.400 . S
C462 H447 0.960 . S
C462 H448 0.960 . S
C462 H449 0.960 . S
C462 C461 1.524 . S
C463 C460 1.403 . S
C463 C464 1.392 . S
C463 C467 1.495 . S
C464 C463 1.392 . S
C464 C465 1.385 . S
C464 C466 1.478 . S
C465 H459 0.930 . S
C465 C461 1.400 . S
C465 C464 1.385 . S
C466 C464 1.478 . S
C466 C468 1.381 . S
C466 C472 1.383 . S
C467 C463 1.495 . S
C467 H473 0.959 . S
C467 H474 0.961 . S
C467 H475 0.960 . S
C468 C466 1.381 . S
C468 C469 1.394 . S
C468 H476 0.930 . S
C469 C468 1.394 . S
C469 C470 1.383 . S
C469 H477 0.929 . S
C470 C469 1.383 . S
C470 C471 1.377 . S
C471 H455 0.930 . S
C471 C470 1.377 . S
C471 C472 1.379 . S
C472 H456 0.931 . S
C472 C466 1.383 . S
C472 C471 1.379 . S
H473 C467 0.959 . S
H474 C467 0.961 . S
H475 C467 0.960 . S
H476 C468 0.930 . S
H477 C469 0.929 . S
H478 C486 0.929 . S
H479 C488 0.930 . S
H480 C490 0.930 . S
H481 C493 0.929 . S
H482 C496 0.930 . S
H483 C498 0.960 . S
H484 C498 0.960 . S
H485 C498 0.960 . S
C486 H478 0.929 . S
C486 C487 1.377 . S
C486 C488 1.384 . S
C487 C486 1.377 . S
C487 C493 1.390 . S
C488 H479 0.930 . S
C488 C486 1.384 . S
C488 C489 1.372 . S
C489 C488 1.372 . S
C489 C490 1.400 . S
C489 C494 1.490 . S
C490 H480 0.930 . S
C490 C489 1.400 . S
C490 C493 1.386 . S
H491 C507 0.930 . S
H492 C508 0.931 . S
C493 H481 0.929 . S
C493 C487 1.390 . S
C493 C490 1.386 . S
C494 C489 1.490 . S
C494 C496 1.395 . S
C494 C497 1.403 . S
H495 C501 0.930 . S
C496 H482 0.930 . S
C496 C494 1.395 . S
C496 C499 1.403 . S
C497 C494 1.403 . S
C497 C498 1.524 . S
C497 C501 1.400 . S
C498 H483 0.960 . S
C498 H484 0.960 . S
C498 H485 0.960 . S
C498 C497 1.524 . S
C499 C496 1.403 . S
C499 C500 1.392 . S
C499 C503 1.495 . S
C500 C499 1.392 . S
C500 C501 1.385 . S
C500 C502 1.478 . S
C501 H495 0.930 . S
C501 C497 1.400 . S
C501 C500 1.385 . S
C502 C500 1.478 . S
C502 C504 1.381 . S
C502 C508 1.383 . S
C503 C499 1.495 . S
C503 H509 0.959 . S
C503 H510 0.961 . S
C503 H511 0.960 . S
C504 C502 1.381 . S
C504 C505 1.394 . S
C504 H512 0.930 . S
C505 C504 1.394 . S
C505 C506 1.383 . S
C505 H513 0.929 . S
C506 C505 1.383 . S
C506 C507 1.377 . S
C507 H491 0.930 . S
C507 C506 1.377 . S
C507 C508 1.379 . S
C508 H492 0.931 . S
C508 C502 1.383 . S
C508 C507 1.379 . S
H509 C503 0.959 . S
H510 C503 0.961 . S
H511 C503 0.960 . S
H512 C504 0.930 . S
H513 C505 0.929 . S
H514 C522 0.929 . S
H515 C524 0.930 . S
H516 C526 0.930 . S
H517 C529 0.929 . S
H518 C532 0.930 . S
H519 C534 0.960 . S
H520 C534 0.960 . S
H521 C534 0.960 . S
C522 H514 0.929 . S
C522 C523 1.377 . S
C522 C524 1.384 . S
C523 C522 1.377 . S
C523 C529 1.390 . S
C524 H515 0.930 . S
C524 C522 1.384 . S
C524 C525 1.372 . S
C525 C524 1.372 . S
C525 C526 1.400 . S
C525 C530 1.490 . S
C526 H516 0.930 . S
C526 C525 1.400 . S
C526 C529 1.386 . S
H527 C543 0.930 . S
H528 C544 0.931 . S
C529 H517 0.929 . S
C529 C523 1.390 . S
C529 C526 1.386 . S
C530 C525 1.490 . S
C530 C532 1.395 . S
C530 C533 1.403 . S
H531 C537 0.930 . S
C532 H518 0.930 . S
C532 C530 1.395 . S
C532 C535 1.403 . S
C533 C530 1.403 . S
C533 C534 1.524 . S
C533 C537 1.400 . S
C534 H519 0.960 . S
C534 H520 0.960 . S
C534 H521 0.960 . S
C534 C533 1.524 . S
C535 C532 1.403 . S
C535 C536 1.392 . S
C535 C539 1.495 1_655 S
C536 C535 1.392 . S
C536 C537 1.385 . S
C536 C538 1.478 . S
C537 H531 0.930 . S
C537 C533 1.400 . S
C537 C536 1.385 . S
C538 C536 1.478 . S
C538 C540 1.381 . S
C538 C544 1.383 . S
C539 C535 1.495 1_455 S
C539 H545 0.959 . S
C539 H546 0.961 . S
C539 H547 0.960 . S
C540 C538 1.381 . S
C540 C541 1.394 . S
C540 H548 0.930 . S
C541 C540 1.394 . S
C541 C542 1.383 . S
C541 H549 0.929 . S
C542 C541 1.383 . S
C542 C543 1.377 . S
C543 H527 0.930 . S
C543 C542 1.377 . S
C543 C544 1.379 . S
C544 H528 0.931 . S
C544 C538 1.383 . S
C544 C543 1.379 . S
H545 C539 0.959 . S
H546 C539 0.961 . S
H547 C539 0.960 . S
H548 C540 0.930 . S
H549 C541 0.929 . S
H550 C558 0.929 . S
H551 C560 0.930 . S
H552 C562 0.930 . S
H553 C565 0.929 . S
H554 C568 0.930 . S
H555 C570 0.960 . S
H556 C570 0.960 . S
H557 C570 0.960 . S
C558 H550 0.929 . S
C558 C559 1.377 . S
C558 C560 1.384 . S
C559 C558 1.377 . S
C559 C565 1.390 . S
C560 H551 0.930 . S
C560 C558 1.384 . S
C560 C561 1.372 . S
C561 C560 1.372 . S
C561 C562 1.400 . S
C561 C566 1.490 . S
C562 H552 0.930 . S
C562 C561 1.400 . S
C562 C565 1.386 . S
H563 C579 0.930 . S
H564 C580 0.931 . S
C565 H553 0.929 . S
C565 C559 1.390 . S
C565 C562 1.386 . S
C566 C561 1.490 . S
C566 C568 1.395 . S
C566 C569 1.403 . S
H567 C573 0.930 . S
C568 H554 0.930 . S
C568 C566 1.395 . S
C568 C571 1.403 . S
C569 C566 1.403 . S
C569 C570 1.524 . S
C569 C573 1.400 . S
C570 H555 0.960 . S
C570 H556 0.960 . S
C570 H557 0.960 . S
C570 C569 1.524 . S
C571 C568 1.403 . S
C571 C572 1.392 . S
C571 C575 1.495 . S
C572 C571 1.392 . S
C572 C573 1.385 . S
C572 C574 1.478 . S
C573 H567 0.930 . S
C573 C569 1.400 . S
C573 C572 1.385 . S
C574 C572 1.478 . S
C574 C576 1.381 . S
C574 C580 1.383 . S
C575 C571 1.495 . S
C575 H581 0.959 . S
C575 H582 0.961 . S
C575 H583 0.960 . S
C576 C574 1.381 . S
C576 C577 1.394 . S
C576 H584 0.930 . S
C577 C576 1.394 . S
C577 C578 1.383 . S
C577 H585 0.929 . S
C578 C577 1.383 . S
C578 C579 1.377 . S
C579 H563 0.930 . S
C579 C578 1.377 . S
C579 C580 1.379 . S
C580 H564 0.931 . S
C580 C574 1.383 . S
C580 C579 1.379 . S
H581 C575 0.959 . S
H582 C575 0.961 . S
H583 C575 0.960 . S
H584 C576 0.930 . S
H585 C577 0.929 . S
H586 C594 0.929 . S
H587 C596 0.930 . S
H588 C598 0.930 . S
H589 C601 0.929 . S
H590 C604 0.930 . S
H591 C606 0.960 . S
H592 C606 0.960 . S
H593 C606 0.960 . S
C594 H586 0.929 . S
C594 C595 1.377 . S
C594 C596 1.384 . S
C595 C594 1.377 . S
C595 C601 1.390 . S
C596 H587 0.930 . S
C596 C594 1.384 . S
C596 C597 1.372 . S
C597 C596 1.372 . S
C597 C598 1.400 . S
C597 C602 1.490 . S
C598 H588 0.930 . S
C598 C597 1.400 . S
C598 C601 1.386 . S
H599 C615 0.930 . S
H600 C616 0.931 . S
C601 H589 0.929 . S
C601 C595 1.390 . S
C601 C598 1.386 . S
C602 C597 1.490 . S
C602 C604 1.395 . S
C602 C605 1.403 . S
H603 C609 0.930 . S
C604 H590 0.930 . S
C604 C602 1.395 . S
C604 C607 1.403 . S
C605 C602 1.403 . S
C605 C606 1.524 . S
C605 C609 1.400 . S
C606 H591 0.960 . S
C606 H592 0.960 . S
C606 H593 0.960 . S
C606 C605 1.524 . S
C607 C604 1.403 . S
C607 C608 1.392 . S
C607 C611 1.495 . S
C608 C607 1.392 . S
C608 C609 1.385 . S
C608 C610 1.478 . S
C609 H603 0.930 . S
C609 C605 1.400 . S
C609 C608 1.385 . S
C610 C608 1.478 . S
C610 C612 1.381 . S
C610 C616 1.383 . S
C611 C607 1.495 . S
C611 H617 0.959 . S
C611 H618 0.961 . S
C611 H619 0.960 . S
C612 C610 1.381 . S
C612 C613 1.392 1_455 S
C612 H620 0.930 1_455 S
C613 C612 1.392 1_655 S
C613 C614 1.378 1_655 S
C613 H621 0.937 . S
C614 C613 1.378 1_455 S
C614 C615 1.377 . S
C615 H599 0.930 . S
C615 C614 1.377 . S
C615 C616 1.379 . S
C616 H600 0.931 . S
C616 C610 1.383 . S
C616 C615 1.379 . S
H617 C611 0.959 . S
H618 C611 0.961 . S
H619 C611 0.960 . S
H620 C612 0.930 1_655 S
H621 C613 0.937 . S
C218 C161 1.615 . S
C199 C133 1.621 . S
C235 C25 1.583 . S
C254 C184 1.630 . S
C271 C61 1.600 . S
C290 C160 1.639 . S
C307 C97 1.643 . S
C326 C183 1.640 . S
C362 C164 1.553 . S
C343 C1 1.585 . S
C398 C186 1.611 . S
C379 C67 1.604 . S
C415 C103 1.638 . S
C434 C165 1.583 . S
C451 C109 1.616 . S
C470 C185 1.572 . S
C506 C188 1.594 . S
C487 C37 1.601 . S
C542 C163 1.625 . S
C523 C73 1.640 . S
C578 C187 1.567 . S
C559 C139 1.621 . S
C595 C31 1.582 . S
C614 C162 1.595 . S
