# Generated by pormake.
# Topology ctn, (3,4)-cn, num edge types: 1
# Building blocks:
#     Node 0, Type 0, BuildingBlock: VETTIZ_charged_linker_0, # of connection points: 3
#     Node 1, Type 0, BuildingBlock: VETTIZ_charged_linker_0, # of connection points: 3
#     Node 2, Type 0, BuildingBlock: VETTIZ_charged_linker_0, # of connection points: 3
#     Node 3, Type 0, BuildingBlock: VETTIZ_charged_linker_0, # of connection points: 3
#     Node 4, Type 0, BuildingBlock: VETTIZ_charged_linker_0, # of connection points: 3
#     Node 5, Type 0, BuildingBlock: VETTIZ_charged_linker_0, # of connection points: 3
#     Node 6, Type 0, BuildingBlock: VETTIZ_charged_linker_0, # of connection points: 3
#     Node 7, Type 0, BuildingBlock: VETTIZ_charged_linker_0, # of connection points: 3
#     Node 8, Type 0, BuildingBlock: VETTIZ_charged_linker_0, # of connection points: 3
#     Node 9, Type 0, BuildingBlock: VETTIZ_charged_linker_0, # of connection points: 3
#     Node 10, Type 0, BuildingBlock: VETTIZ_charged_linker_0, # of connection points: 3
#     Node 11, Type 0, BuildingBlock: VETTIZ_charged_linker_0, # of connection points: 3
#     Node 12, Type 0, BuildingBlock: VETTIZ_charged_linker_0, # of connection points: 3
#     Node 13, Type 0, BuildingBlock: VETTIZ_charged_linker_0, # of connection points: 3
#     Node 14, Type 0, BuildingBlock: VETTIZ_charged_linker_0, # of connection points: 3
#     Node 15, Type 0, BuildingBlock: VETTIZ_charged_linker_0, # of connection points: 3
#     Node 16, Type 1, BuildingBlock: AZAVOO_clean_sbu_0, # of connection points: 4
#     Node 17, Type 1, BuildingBlock: AZAVOO_clean_sbu_0, # of connection points: 4
#     Node 18, Type 1, BuildingBlock: AZAVOO_clean_sbu_0, # of connection points: 4
#     Node 19, Type 1, BuildingBlock: AZAVOO_clean_sbu_0, # of connection points: 4
#     Node 20, Type 1, BuildingBlock: AZAVOO_clean_sbu_0, # of connection points: 4
#     Node 21, Type 1, BuildingBlock: AZAVOO_clean_sbu_0, # of connection points: 4
#     Node 22, Type 1, BuildingBlock: AZAVOO_clean_sbu_0, # of connection points: 4
#     Node 23, Type 1, BuildingBlock: AZAVOO_clean_sbu_0, # of connection points: 4
#     Node 24, Type 1, BuildingBlock: AZAVOO_clean_sbu_0, # of connection points: 4
#     Node 25, Type 1, BuildingBlock: AZAVOO_clean_sbu_0, # of connection points: 4
#     Node 26, Type 1, BuildingBlock: AZAVOO_clean_sbu_0, # of connection points: 4
#     Node 27, Type 1, BuildingBlock: AZAVOO_clean_sbu_0, # of connection points: 4
#     Edge 28, Type (0, 1), BuildingBlock: MIFKUJ_clean_linker_0, # of connection points: 2
#     Edge 29, Type (0, 1), BuildingBlock: MIFKUJ_clean_linker_0, # of connection points: 2
#     Edge 30, Type (0, 1), BuildingBlock: MIFKUJ_clean_linker_0, # of connection points: 2
#     Edge 31, Type (0, 1), BuildingBlock: MIFKUJ_clean_linker_0, # of connection points: 2
#     Edge 32, Type (0, 1), BuildingBlock: MIFKUJ_clean_linker_0, # of connection points: 2
#     Edge 33, Type (0, 1), BuildingBlock: MIFKUJ_clean_linker_0, # of connection points: 2
#     Edge 34, Type (0, 1), BuildingBlock: MIFKUJ_clean_linker_0, # of connection points: 2
#     Edge 35, Type (0, 1), BuildingBlock: MIFKUJ_clean_linker_0, # of connection points: 2
#     Edge 36, Type (0, 1), BuildingBlock: MIFKUJ_clean_linker_0, # of connection points: 2
#     Edge 37, Type (0, 1), BuildingBlock: MIFKUJ_clean_linker_0, # of connection points: 2
#     Edge 38, Type (0, 1), BuildingBlock: MIFKUJ_clean_linker_0, # of connection points: 2
#     Edge 39, Type (0, 1), BuildingBlock: MIFKUJ_clean_linker_0, # of connection points: 2
#     Edge 40, Type (0, 1), BuildingBlock: MIFKUJ_clean_linker_0, # of connection points: 2
#     Edge 41, Type (0, 1), BuildingBlock: MIFKUJ_clean_linker_0, # of connection points: 2
#     Edge 42, Type (0, 1), BuildingBlock: MIFKUJ_clean_linker_0, # of connection points: 2
#     Edge 43, Type (0, 1), BuildingBlock: MIFKUJ_clean_linker_0, # of connection points: 2
#     Edge 44, Type (0, 1), BuildingBlock: MIFKUJ_clean_linker_0, # of connection points: 2
#     Edge 45, Type (0, 1), BuildingBlock: MIFKUJ_clean_linker_0, # of connection points: 2
#     Edge 46, Type (0, 1), BuildingBlock: MIFKUJ_clean_linker_0, # of connection points: 2
#     Edge 47, Type (0, 1), BuildingBlock: MIFKUJ_clean_linker_0, # of connection points: 2
#     Edge 48, Type (0, 1), BuildingBlock: MIFKUJ_clean_linker_0, # of connection points: 2
#     Edge 49, Type (0, 1), BuildingBlock: MIFKUJ_clean_linker_0, # of connection points: 2
#     Edge 50, Type (0, 1), BuildingBlock: MIFKUJ_clean_linker_0, # of connection points: 2
#     Edge 51, Type (0, 1), BuildingBlock: MIFKUJ_clean_linker_0, # of connection points: 2
#     Edge 52, Type (0, 1), BuildingBlock: MIFKUJ_clean_linker_0, # of connection points: 2
#     Edge 53, Type (0, 1), BuildingBlock: MIFKUJ_clean_linker_0, # of connection points: 2
#     Edge 54, Type (0, 1), BuildingBlock: MIFKUJ_clean_linker_0, # of connection points: 2
#     Edge 55, Type (0, 1), BuildingBlock: MIFKUJ_clean_linker_0, # of connection points: 2
#     Edge 56, Type (0, 1), BuildingBlock: MIFKUJ_clean_linker_0, # of connection points: 2
#     Edge 57, Type (0, 1), BuildingBlock: MIFKUJ_clean_linker_0, # of connection points: 2
#     Edge 58, Type (0, 1), BuildingBlock: MIFKUJ_clean_linker_0, # of connection points: 2
#     Edge 59, Type (0, 1), BuildingBlock: MIFKUJ_clean_linker_0, # of connection points: 2
#     Edge 60, Type (0, 1), BuildingBlock: MIFKUJ_clean_linker_0, # of connection points: 2
#     Edge 61, Type (0, 1), BuildingBlock: MIFKUJ_clean_linker_0, # of connection points: 2
#     Edge 62, Type (0, 1), BuildingBlock: MIFKUJ_clean_linker_0, # of connection points: 2
#     Edge 63, Type (0, 1), BuildingBlock: MIFKUJ_clean_linker_0, # of connection points: 2
#     Edge 64, Type (0, 1), BuildingBlock: MIFKUJ_clean_linker_0, # of connection points: 2
#     Edge 65, Type (0, 1), BuildingBlock: MIFKUJ_clean_linker_0, # of connection points: 2
#     Edge 66, Type (0, 1), BuildingBlock: MIFKUJ_clean_linker_0, # of connection points: 2
#     Edge 67, Type (0, 1), BuildingBlock: MIFKUJ_clean_linker_0, # of connection points: 2
#     Edge 68, Type (0, 1), BuildingBlock: MIFKUJ_clean_linker_0, # of connection points: 2
#     Edge 69, Type (0, 1), BuildingBlock: MIFKUJ_clean_linker_0, # of connection points: 2
#     Edge 70, Type (0, 1), BuildingBlock: MIFKUJ_clean_linker_0, # of connection points: 2
#     Edge 71, Type (0, 1), BuildingBlock: MIFKUJ_clean_linker_0, # of connection points: 2
#     Edge 72, Type (0, 1), BuildingBlock: MIFKUJ_clean_linker_0, # of connection points: 2
#     Edge 73, Type (0, 1), BuildingBlock: MIFKUJ_clean_linker_0, # of connection points: 2
#     Edge 74, Type (0, 1), BuildingBlock: MIFKUJ_clean_linker_0, # of connection points: 2
#     Edge 75, Type (0, 1), BuildingBlock: MIFKUJ_clean_linker_0, # of connection points: 2
# Relax obj value: 0.002
# Max RMSD: 0.045
# Mean RMSD: 0.024
data_MOF--net-ctn--node1-AZAVOO_clean_sbu_0--node2-VETTIZ_charged_linker_0--edge1-MIFKUJ_clean_linker_0
_symmetry_space_group_name_H-M    P1
_symmetry_Int_Tables_number       1
_symmetry_cell_setting            triclinic
loop_
_symmetry_equiv_pos_as_xyz
'x, y, z'
_cell_length_a     82.839891
_cell_length_b     83.927607
_cell_length_c     83.939263
_cell_angle_alpha  90.093199
_cell_angle_beta   92.460307
_cell_angle_gamma 92.698381
loop_
_atom_site_label
_atom_site_type_symbol
_atom_site_fract_x
_atom_site_fract_y
_atom_site_fract_z
_atom_type_partial_charge
C0 C 0.03115 0.06799 0.97797 0.0
C1 C 0.01805 0.07804 0.97847 0.0
C2 C 0.00625 0.07504 0.98985 0.0
C3 C 0.02121 0.0531 0.00061 0.0
C4 C 0.03246 0.05563 0.98909 0.0
C5 C 0.04579 0.04406 0.99043 0.0
H6 H 0.07981 0.9824 0.02904 0.0
C7 C 0.02657 0.03992 0.01089 0.0
C8 C 0.04091 0.0345 0.00495 0.0
H9 H 0.09549 0.00634 0.98642 0.0
H10 H 0.07349 0.02408 0.98762 0.0
H11 H 0.0726 0.01377 0.04773 0.0
H12 H 0.04089 0.98154 0.01966 0.0
H13 H 0.03169 0.98567 0.03767 0.0
H14 H 0.0507 0.97612 0.03823 0.0
H15 H 0.06524 0.99504 0.05552 0.0
H16 H 0.05396 0.01285 0.05692 0.0
C17 C 0.06204 0.05371 0.99355 0.0
C18 C 0.04498 0.03372 0.97508 0.0
C19 C 0.99535 0.02521 0.05988 0.0
C20 C 0.99821 0.01486 0.07276 0.0
C21 C 0.01165 0.00511 0.07244 0.0
C22 C 0.02209 0.00586 0.0597 0.0
C23 C 0.01923 0.01658 0.04715 0.0
C24 C 0.00604 0.02603 0.04742 0.0
C25 C 0.00532 0.03734 0.03358 0.0
C26 C 0.02025 0.03313 0.02493 0.0
C27 C 0.02829 0.02086 0.03283 0.0
C28 C 0.00673 0.05461 0.04031 0.0
C29 C 0.98957 0.03326 0.02347 0.0
C30 C 0.07841 0.99139 0.01991 0.0
C31 C 0.08936 0.99293 0.00758 0.0
C32 C 0.0873 0.005 0.99611 0.0
C33 C 0.07444 0.01521 0.99676 0.0
C34 C 0.0635 0.01342 0.00905 0.0
C35 C 0.06564 0.00173 0.02042 0.0
C36 C 0.05299 0.00179 0.03277 0.0
C37 C 0.04262 0.0151 0.02664 0.0
C38 C 0.04888 0.02189 0.01277 0.0
C39 C 0.06153 0.00596 0.04915 0.0
C40 C 0.04356 0.98542 0.03222 0.0
H41 H 0.99845 0.06112 0.00932 0.0
H42 H 0.04049 0.06998 0.96945 0.0
H43 H 0.03229 0.03182 0.97031 0.0
H44 H 0.0492 0.02157 0.97715 0.0
H45 H 0.05207 0.03951 0.96557 0.0
H46 H 0.06047 0.06393 0.00171 0.0
H47 H 0.06674 0.0586 0.98228 0.0
H48 H 0.07144 0.04667 0.99954 0.0
H49 H 0.98507 0.03273 0.0595 0.0
H50 H 0.0144 0.99718 0.08224 0.0
H51 H 0.03214 0.99824 0.06023 0.0
H52 H 0.01492 0.05537 0.05118 0.0
H53 H 0.99476 0.05865 0.04365 0.0
H54 H 0.01213 0.06331 0.03201 0.0
H55 H 0.98659 0.02019 0.02346 0.0
H56 H 0.9906 0.03637 0.01075 0.0
H57 H 0.97914 0.03927 0.02826 0.0
H58 H 0.99585 0.08236 0.99029 0.0
C59 C 0.00775 0.06264 0.00088 0.0
C60 C 0.27112 0.67578 0.23654 0.0
C61 C 0.25817 0.67199 0.22561 0.0
C62 C 0.2564 0.6811 0.21163 0.0
C63 C 0.28004 0.69776 0.21978 0.0
C64 C 0.28196 0.68856 0.23332 0.0
C65 C 0.29679 0.69379 0.24332 0.0
H66 H 0.36221 0.74468 0.2549 0.0
C67 C 0.29323 0.71026 0.2201 0.0
C68 C 0.30317 0.70792 0.23379 0.0
H69 H 0.34815 0.70383 0.28336 0.0
H70 H 0.32457 0.69861 0.26595 0.0
H71 H 0.32762 0.75785 0.25035 0.0
H72 H 0.35386 0.72758 0.22031 0.0
H73 H 0.34503 0.74224 0.20824 0.0
H74 H 0.35949 0.74823 0.22399 0.0
H75 H 0.34306 0.76579 0.23787 0.0
H76 H 0.32226 0.76299 0.23065 0.0
C77 C 0.29134 0.69892 0.2599 0.0
C78 C 0.30857 0.67995 0.24373 0.0
C79 C 0.29457 0.75253 0.17684 0.0
C80 C 0.30466 0.76619 0.17451 0.0
C81 C 0.31762 0.76977 0.18555 0.0
C82 C 0.32058 0.75982 0.19864 0.0
C83 C 0.31039 0.74618 0.20081 0.0
C84 C 0.29757 0.74281 0.19007 0.0
C85 C 0.28765 0.72817 0.1946 0.0
C86 C 0.29668 0.72326 0.20979 0.0
C87 C 0.31005 0.73378 0.21328 0.0
C88 C 0.27034 0.73326 0.19779 0.0
C89 C 0.2885 0.71559 0.18115 0.0
C90 C 0.35415 0.73451 0.25729 0.0
C91 C 0.3571 0.72464 0.27052 0.0
C92 C 0.34609 0.71172 0.27335 0.0
C93 C 0.33245 0.70864 0.26316 0.0
C94 C 0.32972 0.71856 0.24995 0.0
C95 C 0.34047 0.73126 0.24722 0.0
C96 C 0.33558 0.74061 0.23267 0.0
C97 C 0.32032 0.73123 0.22693 0.0
C98 C 0.31691 0.71836 0.23711 0.0
C99 C 0.33203 0.75775 0.23802 0.0
C100 C 0.34917 0.73978 0.22062 0.0
H101 H 0.26516 0.70054 0.19788 0.0
H102 H 0.27292 0.66875 0.24724 0.0
H103 H 0.30735 0.67281 0.23252 0.0
H104 H 0.32141 0.68418 0.24453 0.0
H105 H 0.30614 0.67171 0.25378 0.0
H106 H 0.28017 0.70577 0.25869 0.0
H107 H 0.28864 0.68837 0.26747 0.0
H108 H 0.30032 0.70695 0.26634 0.0
H109 H 0.28436 0.74962 0.16868 0.0
H110 H 0.32559 0.7802 0.18393 0.0
H111 H 0.33068 0.76313 0.20657 0.0
H112 H 0.27073 0.74502 0.20397 0.0
H113 H 0.26306 0.7344 0.18645 0.0
H114 H 0.26378 0.72503 0.20574 0.0
H115 H 0.30044 0.71649 0.17553 0.0
H116 H 0.28743 0.70321 0.18557 0.0
H117 H 0.27903 0.71728 0.17162 0.0
H118 H 0.2465 0.67835 0.20307 0.0
C119 C 0.26722 0.694 0.20869 0.0
C120 C 0.99572 0.42881 0.01119 0.0
C121 C 0.9871 0.42639 0.99652 0.0
C122 C 0.97486 0.43682 0.99207 0.0
C123 C 0.97966 0.45143 0.01693 0.0
C124 C 0.99187 0.44137 0.02111 0.0
C125 C 1.00005 0.44568 0.03697 0.0
H126 H 0.00661 0.49373 0.10201 0.0
C127 C 0.97862 0.46312 0.03002 0.0
C128 C 0.99062 0.45987 0.04174 0.0
H129 H 0.03559 0.45398 0.09085 0.0
H130 H 0.01987 0.44936 0.06636 0.0
H131 H 0.97192 0.4761 0.09045 0.0
H132 H 0.00527 0.50844 0.0673 0.0
H133 H 0.98566 0.51409 0.06184 0.0
H134 H 0.99249 0.51491 0.08254 0.0
H135 H 0.9746 0.4968 0.09583 0.0
H136 H 0.96052 0.49011 0.07995 0.0
C137 C 0.99748 0.43138 0.04839 0.0
C138 C 0.01803 0.45046 0.03419 0.0
C139 C 0.93542 0.50423 0.02695 0.0
C140 C 0.93164 0.51672 0.03713 0.0
C141 C 0.94092 0.51927 0.05146 0.0
C142 C 0.95373 0.50954 0.05562 0.0
C143 C 0.95739 0.49713 0.04532 0.0
C144 C 0.94833 0.49467 0.03124 0.0
C145 C 0.9542 0.48114 0.0216 0.0
C146 C 0.96814 0.47576 0.03232 0.0
C147 C 0.96992 0.48514 0.04622 0.0
C148 C 0.94033 0.46814 0.01987 0.0
C149 C 0.96007 0.48793 0.00557 0.0
C150 C 0.00944 0.48393 0.09436 0.0
C151 C 0.02244 0.47427 0.09836 0.0
C152 C 0.02583 0.46176 0.08795 0.0
C153 C 0.01662 0.45905 0.07374 0.0
C154 C 0.00384 0.46893 0.06979 0.0
C155 C 1.00037 0.48108 0.08005 0.0
C156 C 0.98641 0.49044 0.07377 0.0
C157 C 0.98217 0.48196 0.05802 0.0
C158 C 0.99242 0.46937 0.05579 0.0
C159 C 0.9726 0.48843 0.08558 0.0
C160 C 0.99262 0.50793 0.0713 0.0
H161 H 0.96152 0.45672 0.99822 0.0
H162 H 0.00537 0.42115 0.01482 0.0
H163 H 0.01936 0.4563 0.0224 0.0
H164 H 0.02324 0.45935 0.04291 0.0
H165 H 0.02556 0.43985 0.03444 0.0
H166 H 0.98521 0.42557 0.04631 0.0
H167 H 0.00646 0.4222 0.04653 0.0
H168 H 0.99805 0.4349 0.06108 0.0
H169 H 0.92865 0.5021 0.01576 0.0
H170 H 0.93815 0.52872 0.05957 0.0
H171 H 0.96029 0.51209 0.06669 0.0
H172 H 0.934 0.4667 0.03124 0.0
H173 H 0.93123 0.47137 0.01046 0.0
H174 H 0.94461 0.45622 0.01717 0.0
H175 H 0.96507 0.50041 0.00702 0.0
H176 H 0.97009 0.48134 0.00087 0.0
H177 H 0.94998 0.488 0.99641 0.0
H178 H 0.96801 0.43513 0.98086 0.0
C179 C 0.97107 0.44929 0.00221 0.0
C180 C 0.67541 0.81005 0.24583 0.0
C181 C 0.6637 0.7974 0.244 0.0
C182 C 0.66551 0.78583 0.23208 0.0
C183 C 0.69075 0.79901 0.22475 0.0
C184 C 0.68878 0.8106 0.23612 0.0
C185 C 0.70257 0.82297 0.23676 0.0
H186 H 0.77484 0.84981 0.2099 0.0
C187 C 0.70628 0.80261 0.2172 0.0
C188 C 0.71328 0.81665 0.22417 0.0
H189 H 0.74621 0.87147 0.24522 0.0
H190 H 0.72587 0.85006 0.24197 0.0
H191 H 0.74481 0.83962 0.18527 0.0
H192 H 0.77005 0.81443 0.2226 0.0
H193 H 0.76529 0.8006 0.20722 0.0
H194 H 0.77851 0.8178 0.20351 0.0
H195 H 0.76539 0.83404 0.18405 0.0
H196 H 0.74869 0.82054 0.17805 0.0
C197 C 0.69574 0.83925 0.23199 0.0
C198 C 0.71088 0.82266 0.25364 0.0
C199 C 0.72523 0.76512 0.17498 0.0
C200 C 0.73955 0.76467 0.16665 0.0
C201 C 0.75183 0.77664 0.16952 0.0
C202 C 0.7498 0.78901 0.18041 0.0
C203 C 0.73539 0.78935 0.18863 0.0
C204 C 0.72347 0.77743 0.18596 0.0
C205 C 0.7093 0.77929 0.1963 0.0
C206 C 0.71454 0.79442 0.20542 0.0
C207 C 0.72976 0.80033 0.2008 0.0
C208 C 0.6941 0.78161 0.18529 0.0
C209 C 0.70804 0.76456 0.2074 0.0
C210 C 0.76426 0.84988 0.21704 0.0
C211 C 0.76215 0.8624 0.22782 0.0
C212 C 0.74806 0.8621 0.23668 0.0
C213 C 0.73628 0.84961 0.23484 0.0
C214 C 0.73856 0.83721 0.22399 0.0
C215 C 0.75238 0.8375 0.21532 0.0
C216 C 0.75274 0.82336 0.20432 0.0
C217 C 0.73678 0.81464 0.20769 0.0
C218 C 0.72855 0.82279 0.21926 0.0
C219 C 0.75303 0.82959 0.18697 0.0
C220 C 0.76744 0.81351 0.20951 0.0
H221 H 0.67963 0.77732 0.21372 0.0
H222 H 0.67446 0.81908 0.25493 0.0
H223 H 0.71145 0.8102 0.25808 0.0
H224 H 0.72356 0.82735 0.25394 0.0
H225 H 0.7041 0.82948 0.26229 0.0
H226 H 0.6855 0.83766 0.22302 0.0
H227 H 0.69118 0.84543 0.24249 0.0
H228 H 0.70466 0.84724 0.22618 0.0
H229 H 0.7157 0.75593 0.17318 0.0
H230 H 0.76294 0.77654 0.16317 0.0
H231 H 0.75954 0.79783 0.18199 0.0
H232 H 0.69722 0.78895 0.17473 0.0
H233 H 0.68875 0.76997 0.18084 0.0
H234 H 0.68471 0.78815 0.19113 0.0
H235 H 0.72021 0.76013 0.21057 0.0
H236 H 0.70292 0.76725 0.21898 0.0
H237 H 0.70073 0.75459 0.20155 0.0
H238 H 0.65654 0.77612 0.23021 0.0
C239 C 0.67893 0.78657 0.22247 0.0
C240 C 0.044 0.93722 0.51056 0.0
C241 C 0.02962 0.92761 0.5097 0.0
C242 C 0.01713 0.9315 0.49866 0.0
C243 C 0.03369 0.95376 0.48905 0.0
C244 C 0.04572 0.95025 0.50024 0.0
C245 C 0.06013 0.96181 0.49973 0.0
H246 H 0.0973 0.02593 0.46561 0.0
C247 C 0.03952 0.96769 0.47977 0.0
C248 C 0.05496 0.97255 0.48608 0.0
H249 H 0.1142 0.99906 0.50644 0.0
H250 H 0.09023 0.98157 0.50411 0.0
H251 H 0.06027 0.02698 0.47579 0.0
H252 H 0.08472 0.99612 0.44482 0.0
H253 H 0.06546 0.99844 0.43588 0.0
H254 H 0.07917 0.01567 0.43877 0.0
H255 H 0.06765 0.03328 0.4569 0.0
H256 H 0.04781 0.02381 0.45848 0.0
C257 C 0.06183 0.9709 0.51585 0.0
C258 C 0.07506 0.95236 0.49573 0.0
C259 C 0.00588 0.9867 0.43189 0.0
C260 C 0.00886 0.99843 0.42029 0.0
C261 C 0.02318 0.00817 0.42174 0.0
C262 C 0.0345 0.00611 0.43436 0.0
C263 C 0.03157 0.99411 0.44566 0.0
C264 C 0.01743 0.98468 0.44436 0.0
C265 C 0.01665 0.97221 0.45722 0.0
C266 C 0.03269 0.97567 0.46635 0.0
C267 C 0.04132 0.98855 0.45955 0.0
C268 C 0.00204 0.97537 0.4675 0.0
C269 C 0.01589 0.95558 0.44909 0.0
C270 C 0.09579 0.01637 0.47414 0.0
C271 C 0.10768 0.01395 0.48627 0.0
C272 C 0.10533 0.00112 0.4969 0.0
C273 C 0.09133 0.99104 0.4956 0.0
C274 C 0.07948 0.99376 0.48354 0.0
C275 C 0.08187 0.00622 0.47303 0.0
C276 C 0.06805 0.00731 0.46092 0.0
C277 C 0.0568 0.99367 0.4661 0.0
C278 C 0.06357 0.98573 0.47931 0.0
C279 C 0.06053 0.02371 0.46295 0.0
C280 C 0.07458 0.00436 0.44417 0.0
H281 H 0.00923 0.9467 0.48005 0.0
H282 H 0.0537 0.93467 0.51911 0.0
H283 H 0.07174 0.94309 0.48653 0.0
H284 H 0.08482 0.95987 0.49063 0.0
H285 H 0.08001 0.94624 0.50647 0.0
H286 H 0.0498 0.97238 0.52095 0.0
H287 H 0.0693 0.96439 0.52476 0.0
H288 H 0.06701 0.9832 0.51468 0.0
H289 H 0.99506 0.97894 0.43099 0.0
H290 H 0.02565 0.01739 0.41305 0.0
H291 H 0.04517 0.01387 0.43472 0.0
H292 H 1.00005 0.98836 0.4683 0.0
H293 H 0.99074 0.96943 0.46232 0.0
H294 H 0.00389 0.97153 0.48001 0.0
H295 H 0.02399 0.95554 0.43885 0.0
H296 H 0.02008 0.94603 0.45702 0.0
H297 H 0.00342 0.95228 0.44444 0.0
H298 H 0.00597 0.92422 0.49774 0.0
C299 C 0.01909 0.94449 0.48833 0.0
C300 C 0.25036 0.6742 0.77618 0.0
C301 C 0.24861 0.66274 0.76391 0.0
C302 C 0.23568 0.66376 0.7525 0.0
C303 C 0.22658 0.68725 0.76571 0.0
C304 C 0.2393 0.68629 0.77683 0.0
C305 C 0.23954 0.69943 0.78905 0.0
H306 H 0.20397 0.7627 0.82012 0.0
C307 C 0.21723 0.70115 0.76987 0.0
C308 C 0.2248 0.70835 0.78353 0.0
H309 H 0.24826 0.74147 0.83655 0.0
H310 H 0.24578 0.72279 0.8147 0.0
H311 H 0.18404 0.73045 0.81127 0.0
H312 H 0.21262 0.7628 0.783 0.0
H313 H 0.19573 0.75639 0.77093 0.0
H314 H 0.19283 0.76733 0.78905 0.0
H315 H 0.17762 0.74985 0.80563 0.0
H316 H 0.1734 0.7327 0.79291 0.0
C317 C 0.23741 0.69168 0.80562 0.0
C318 C 0.25543 0.70977 0.78764 0.0
C319 C 0.16698 0.71448 0.73635 0.0
C320 C 0.15575 0.72648 0.73751 0.0
C321 C 0.15775 0.73757 0.75016 0.0
C322 C 0.17068 0.73678 0.76141 0.0
C323 C 0.1818 0.72477 0.76008 0.0
C324 C 0.17984 0.71386 0.74772 0.0
C325 C 0.19283 0.70187 0.74827 0.0
C326 C 0.20298 0.70751 0.76289 0.0
C327 C 0.19643 0.72092 0.76975 0.0
C328 C 0.18465 0.68512 0.75072 0.0
C329 C 0.20234 0.70358 0.73283 0.0
C330 C 0.21326 0.75418 0.81892 0.0
C331 C 0.22623 0.7535 0.83026 0.0
C332 C 0.23795 0.74207 0.82822 0.0
C333 C 0.23654 0.73125 0.81546 0.0
C334 C 0.22328 0.7318 0.80451 0.0
C335 C 0.21206 0.74329 0.80619 0.0
C336 C 0.19896 0.74229 0.7932 0.0
C337 C 0.20405 0.72816 0.7836 0.0
C338 C 0.21823 0.722 0.79035 0.0
C339 C 0.18257 0.73875 0.80104 0.0
C340 C 0.1999 0.75801 0.78353 0.0
H341 H 0.2151 0.67599 0.74434 0.0
H342 H 0.26029 0.67393 0.785 0.0
H343 H 0.25943 0.70998 0.77515 0.0
H344 H 0.25404 0.72244 0.79067 0.0
H345 H 0.26539 0.70505 0.79527 0.0
H346 H 0.22842 0.6814 0.80476 0.0
H347 H 0.24901 0.68716 0.81047 0.0
H348 H 0.23267 0.69982 0.81443 0.0
H349 H 0.16572 0.70567 0.72689 0.0
H350 H 0.14944 0.74706 0.75123 0.0
H351 H 0.17152 0.74562 0.7707 0.0
H352 H 0.17431 0.68578 0.75869 0.0
H353 H 0.17991 0.67988 0.7392 0.0
H354 H 0.1928 0.67672 0.75666 0.0
H355 H 0.20371 0.71632 0.72923 0.0
H356 H 0.21482 0.69958 0.73427 0.0
H357 H 0.19598 0.69692 0.72279 0.0
H358 H 0.23395 0.65501 0.74301 0.0
C359 C 0.22468 0.67591 0.75334 0.0
C360 C 0.91616 0.49446 0.47283 0.0
C361 C 0.91226 0.48101 0.46315 0.0
C362 C 0.92279 0.47719 0.45108 0.0
C363 C 0.94082 0.49979 0.4587 0.0
C364 C 0.93043 0.5036 0.47043 0.0
C365 C 0.93647 0.51806 0.4799 0.0
H366 H 0.99446 0.57635 0.49491 0.0
C367 C 0.95475 0.5115 0.45959 0.0
C368 C 0.95227 0.52222 0.47202 0.0
H369 H 0.94909 0.56841 0.5179 0.0
H370 H 0.94239 0.5456 0.50096 0.0
H371 H 0.97973 0.57076 0.45979 0.0
H372 H 0.00323 0.53897 0.49257 0.0
H373 H 0.01066 0.53566 0.4736 0.0
H374 H 0.01393 0.55502 0.48284 0.0
H375 H 0.00119 0.57201 0.46392 0.0
H376 H 0.99206 0.55902 0.44856 0.0
C377 C 0.92409 0.53122 0.47736 0.0
C378 C 0.93928 0.51295 0.4975 0.0
C379 C 1.00018 0.50753 0.42105 0.0
C380 C 0.01479 0.51647 0.41926 0.0
C381 C 0.01874 0.52939 0.42971 0.0
C382 C 0.00835 0.53336 0.44169 0.0
C383 C 0.9938 0.52433 0.44332 0.0
C384 C 0.98994 0.51164 0.43313 0.0
C385 C 0.97406 0.50328 0.4368 0.0
C386 C 0.96895 0.51319 0.45071 0.0
C387 C 0.98057 0.5255 0.45448 0.0
C388 C 0.96238 0.50465 0.42201 0.0
C389 C 0.9774 0.48593 0.4418 0.0
C390 C 0.98317 0.56956 0.49638 0.0
C391 C 0.9723 0.57412 0.50777 0.0
C392 C 0.9576 0.56518 0.50913 0.0
C393 C 0.95376 0.55191 0.4993 0.0
C394 C 0.96468 0.54755 0.48789 0.0
C395 C 0.97907 0.55636 0.48652 0.0
C396 C 0.98891 0.55028 0.47333 0.0
C397 C 0.9781 0.53631 0.4671 0.0
C398 C 0.96399 0.53472 0.47575 0.0
C399 C 0.99074 0.56366 0.46073 0.0
C400 C 0.00511 0.54476 0.48083 0.0
H401 H 0.9445 0.48295 0.43944 0.0
H402 H 0.90846 0.49763 0.48233 0.0
H403 H 0.94443 0.50095 0.49818 0.0
H404 H 0.94812 0.52089 0.50423 0.0
H405 H 0.92775 0.51232 0.50381 0.0
H406 H 0.91807 0.53034 0.46526 0.0
H407 H 0.91449 0.53019 0.48618 0.0
H408 H 0.92979 0.54339 0.47791 0.0
H409 H 0.99687 0.49742 0.41336 0.0
H410 H 0.0298 0.5366 0.42847 0.0
H411 H 0.01206 0.54334 0.44919 0.0
H412 H 0.96399 0.51656 0.41633 0.0
H413 H 0.96465 0.49548 0.41291 0.0
H414 H 0.94952 0.50364 0.42495 0.0
H415 H 0.98929 0.48538 0.44842 0.0
H416 H 0.96853 0.48088 0.45009 0.0
H417 H 0.97764 0.47799 0.43122 0.0
H418 H 0.91999 0.46702 0.44333 0.0
C419 C 0.937 0.4865 0.4488 0.0
C420 C 0.79343 0.74173 0.82264 0.0
C421 C 0.78098 0.74168 0.83355 0.0
C422 C 0.76827 0.75212 0.83098 0.0
C423 C 0.78107 0.76315 0.80779 0.0
C424 C 0.79321 0.75251 0.80988 0.0
C425 C 0.80564 0.75442 0.79736 0.0
H426 H 0.83398 0.79501 0.73384 0.0
C427 C 0.78476 0.77327 0.79391 0.0
C428 C 0.79909 0.76815 0.78764 0.0
H429 H 0.85366 0.75362 0.7568 0.0
H430 H 0.83216 0.75291 0.77528 0.0
H431 H 0.82477 0.81282 0.76613 0.0
H432 H 0.79744 0.78177 0.733 0.0
H433 H 0.78447 0.79652 0.73869 0.0
H434 H 0.80254 0.80222 0.72841 0.0
H435 H 0.81882 0.81888 0.74633 0.0
H436 H 0.80572 0.82081 0.76274 0.0
C437 C 0.82218 0.75902 0.80583 0.0
C438 C 0.80535 0.73876 0.78752 0.0
C439 C 0.74975 0.81994 0.78028 0.0
C440 C 0.7507 0.83203 0.76872 0.0
C441 C 0.76276 0.83151 0.75737 0.0
C442 C 0.77397 0.8195 0.75785 0.0
C443 C 0.7732 0.80784 0.76981 0.0
C444 C 0.76107 0.80804 0.78061 0.0
C445 C 0.76212 0.79468 0.79247 0.0
C446 C 0.77701 0.78657 0.78715 0.0
C447 C 0.78349 0.79438 0.77393 0.0
C448 C 0.76484 0.80217 0.80932 0.0
C449 C 0.7466 0.7837 0.79029 0.0
C450 C 0.83363 0.7857 0.74275 0.0
C451 C 0.84566 0.7744 0.74383 0.0
C452 C 0.84476 0.76265 0.75582 0.0
C453 C 0.83216 0.76216 0.76648 0.0
C454 C 0.82024 0.77352 0.76519 0.0
C455 C 0.82108 0.78499 0.75343 0.0
C456 C 0.80726 0.79598 0.75369 0.0
C457 C 0.79793 0.78915 0.76748 0.0
C458 C 0.80564 0.77607 0.77426 0.0
C459 C 0.81438 0.81307 0.7573 0.0
C460 C 0.7974 0.79421 0.73762 0.0
H461 H 0.75833 0.77055 0.81707 0.0
H462 H 0.80339 0.7339 0.82424 0.0
H463 H 0.79295 0.73303 0.78658 0.0
H464 H 0.80866 0.74073 0.77505 0.0
H465 H 0.81347 0.73002 0.79315 0.0
H466 H 0.82069 0.76764 0.81568 0.0
H467 H 0.82783 0.74837 0.81106 0.0
H468 H 0.83079 0.76507 0.79791 0.0
H469 H 0.74074 0.82003 0.78925 0.0
H470 H 0.7636 0.84048 0.74815 0.0
H471 H 0.78293 0.8199 0.74899 0.0
H472 H 0.77332 0.81283 0.80902 0.0
H473 H 0.75328 0.80604 0.81396 0.0
H474 H 0.77045 0.79411 0.81808 0.0
H475 H 0.74175 0.78375 0.77772 0.0
H476 H 0.74881 0.77103 0.79278 0.0
H477 H 0.73691 0.78764 0.79794 0.0
H478 H 0.75832 0.7521 0.83894 0.0
C479 C 0.76825 0.76281 0.81821 0.0
C480 C 0.29879 0.24393 0.32413 0.0
C481 C 0.28641 0.24373 0.33513 0.0
C482 C 0.27361 0.25411 0.33268 0.0
C483 C 0.28608 0.26518 0.30932 0.0
C484 C 0.29834 0.25466 0.31134 0.0
C485 C 0.31054 0.25651 0.29861 0.0
H486 H 0.3366 0.29519 0.23302 0.0
C487 C 0.28942 0.27511 0.29521 0.0
C488 C 0.30366 0.26998 0.28876 0.0
H489 H 0.35809 0.25563 0.25758 0.0
H490 H 0.33698 0.25518 0.27651 0.0
H491 H 0.32816 0.3142 0.26487 0.0
H492 H 0.3002 0.28153 0.23385 0.0
H493 H 0.28727 0.29642 0.23927 0.0
H494 H 0.30495 0.30178 0.22824 0.0
H495 H 0.32138 0.31941 0.24504 0.0
H496 H 0.30889 0.32181 0.26185 0.0
C497 C 0.32716 0.26145 0.30677 0.0
C498 C 0.31029 0.24069 0.28904 0.0
C499 C 0.25379 0.32127 0.28126 0.0
C500 C 0.25422 0.33291 0.26921 0.0
C501 C 0.26582 0.33195 0.25745 0.0
C502 C 0.27712 0.32004 0.258 0.0
C503 C 0.27688 0.30885 0.27042 0.0
C504 C 0.26516 0.3094 0.28161 0.0
C505 C 0.2666 0.29633 0.29378 0.0
C506 C 0.28136 0.28813 0.28826 0.0
C507 C 0.28738 0.29559 0.27464 0.0
C508 C 0.26974 0.30421 0.3104 0.0
C509 C 0.25107 0.28527 0.29227 0.0
C510 C 0.3367 0.28635 0.2424 0.0
C511 C 0.34908 0.27544 0.24377 0.0
C512 C 0.34884 0.2643 0.25634 0.0
C513 C 0.33649 0.26398 0.26727 0.0
C514 C 0.3242 0.27493 0.2657 0.0
C515 C 0.32446 0.28587 0.25342 0.0
C516 C 0.31049 0.29668 0.25365 0.0
C517 C 0.30169 0.2903 0.26798 0.0
C518 C 0.30979 0.27759 0.27501 0.0
C519 C 0.31746 0.31398 0.25638 0.0
C520 C 0.30017 0.29415 0.23793 0.0
H521 H 0.26341 0.27246 0.31883 0.0
H522 H 0.30884 0.23619 0.32562 0.0
H523 H 0.29787 0.23503 0.28805 0.0
H524 H 0.31379 0.24241 0.27659 0.0
H525 H 0.3183 0.232 0.29493 0.0
H526 H 0.32568 0.26986 0.31681 0.0
H527 H 0.33325 0.25091 0.31169 0.0
H528 H 0.33537 0.26792 0.29874 0.0
H529 H 0.24511 0.32163 0.29053 0.0
H530 H 0.26622 0.34049 0.2478 0.0
H531 H 0.2857 0.3201 0.24879 0.0
H532 H 0.27852 0.31461 0.3097 0.0
H533 H 0.25838 0.30858 0.31504 0.0
H534 H 0.27515 0.2962 0.31932 0.0
H535 H 0.24562 0.28529 0.27991 0.0
H536 H 0.25349 0.27262 0.29461 0.0
H537 H 0.24175 0.28913 0.30039 0.0
H538 H 0.26369 0.25398 0.34068 0.0
C539 C 0.2734 0.2648 0.31989 0.0
C540 C 0.49833 0.93172 0.51143 0.0
C541 C 0.48805 0.92842 0.49795 0.0
C542 C 0.47439 0.93758 0.49522 0.0
C543 C 0.48119 0.9528 0.51935 0.0
C544 C 0.49462 0.94383 0.52199 0.0
C545 C 0.50379 0.94834 0.53732 0.0
H546 H 0.51123 0.99398 0.60411 0.0
C547 C 0.48054 0.96414 0.53278 0.0
C548 C 0.4937 0.96153 0.5434 0.0
H549 H 0.54194 0.95675 0.58965 0.0
H550 H 0.52533 0.95237 0.56564 0.0
H551 H 0.47703 0.97515 0.59355 0.0
H552 H 0.50741 0.00996 0.56994 0.0
H553 H 0.48729 0.01459 0.56546 0.0
H554 H 0.49496 0.01527 0.58591 0.0
H555 H 0.47929 0.99563 0.59981 0.0
H556 H 0.46449 0.98918 0.58449 0.0
C557 C 0.50343 0.9336 0.54844 0.0
C558 C 0.52098 0.95465 0.53319 0.0
C559 C 0.4358 0.00353 0.53308 0.0
C560 C 0.43221 0.01576 0.54364 0.0
C561 C 0.44208 0.01826 0.55763 0.0
C562 C 0.45533 0.00884 0.56097 0.0
C563 C 0.45886 0.99677 0.55021 0.0
C564 C 0.44913 0.99427 0.53655 0.0
C565 C 0.45479 0.98104 0.52639 0.0
C566 C 0.46957 0.97608 0.53613 0.0
C567 C 0.47187 0.98529 0.55011 0.0
C568 C 0.44129 0.96759 0.52539 0.0
C569 C 0.45934 0.98817 0.51008 0.0
C570 C 0.51427 0.98477 0.59584 0.0
C571 C 0.52795 0.97571 0.59881 0.0
C572 C 0.53161 0.96403 0.58758 0.0
C573 C 0.52188 0.96144 0.57367 0.0
C574 C 0.50829 0.97061 0.57085 0.0
C575 C 0.50468 0.98205 0.58184 0.0
C576 C 0.48987 0.99079 0.57672 0.0
C577 C 0.48512 0.98258 0.56094 0.0
C578 C 0.49596 0.97077 0.55759 0.0
C579 C 0.47694 0.9877 0.58928 0.0
C580 C 0.49499 0.00862 0.57446 0.0
H581 H 0.46034 0.95628 0.50306 0.0
H582 H 0.50877 0.9247 0.51398 0.0
H583 H 0.52057 0.96173 0.52199 0.0
H584 H 0.52663 0.96289 0.54229 0.0
H585 H 0.52906 0.94467 0.53141 0.0
H586 H 0.49186 0.92641 0.54667 0.0
H587 H 0.51343 0.92569 0.54603 0.0
H588 H 0.50402 0.93682 0.56122 0.0
H589 H 0.42859 0.0014 0.52214 0.0
H590 H 0.43947 0.02747 0.56607 0.0
H591 H 0.46235 0.01135 0.5718 0.0
H592 H 0.43459 0.96688 0.5366 0.0
H593 H 0.43236 0.9697 0.51545 0.0
H594 H 0.44605 0.95561 0.52402 0.0
H595 H 0.46524 0.00029 0.51163 0.0
H596 H 0.46821 0.98122 0.50394 0.0
H597 H 0.44843 0.98927 0.50205 0.0
H598 H 0.46635 0.93529 0.48486 0.0
C599 C 0.47094 0.94977 0.50579 0.0
C600 C 0.17985 0.31127 0.74901 0.0
C601 C 0.16864 0.29816 0.74917 0.0
C602 C 0.17003 0.28564 0.73814 0.0
C603 C 0.19367 0.29921 0.72744 0.0
C604 C 0.19219 0.31154 0.73813 0.0
C605 C 0.20521 0.32449 0.73663 0.0
H606 H 0.27289 0.35262 0.70173 0.0
C607 C 0.20795 0.3031 0.71794 0.0
C608 C 0.21473 0.31792 0.72325 0.0
H609 H 0.24746 0.37422 0.73953 0.0
H610 H 0.22743 0.35246 0.7384 0.0
H611 H 0.24177 0.34249 0.68038 0.0
H612 H 0.26929 0.31604 0.71508 0.0
H613 H 0.26526 0.30389 0.69812 0.0
H614 H 0.27696 0.32237 0.69631 0.0
H615 H 0.26069 0.33435 0.67585 0.0
H616 H 0.24178 0.32282 0.67326 0.0
C617 C 0.19702 0.34008 0.73173 0.0
C618 C 0.21531 0.32555 0.75261 0.0
C619 C 0.224 0.26443 0.67537 0.0
C620 C 0.23617 0.26513 0.6642 0.0
C621 C 0.24704 0.27855 0.66408 0.0
C622 C 0.24586 0.29109 0.67496 0.0
C623 C 0.23359 0.29028 0.68603 0.0
C624 C 0.22286 0.27715 0.68604 0.0
C625 C 0.21019 0.27865 0.69819 0.0
C626 C 0.21515 0.29478 0.70554 0.0
C627 C 0.22896 0.30147 0.69847 0.0
C628 C 0.19341 0.27876 0.68926 0.0
C629 C 0.21199 0.26493 0.71036 0.0
C630 C 0.26306 0.35259 0.70984 0.0
C631 C 0.26179 0.36517 0.72076 0.0
C632 C 0.24864 0.36479 0.73089 0.0
C633 C 0.23706 0.35206 0.73029 0.0
C634 C 0.2386 0.3395 0.71945 0.0
C635 C 0.25137 0.33994 0.70938 0.0
C636 C 0.25089 0.32564 0.69849 0.0
C637 C 0.23587 0.31643 0.70389 0.0
C638 C 0.22876 0.32461 0.71619 0.0
C639 C 0.24879 0.33151 0.68105 0.0
C640 C 0.26642 0.31646 0.70202 0.0
H641 H 0.18294 0.27615 0.71933 0.0
H642 H 0.17903 0.32118 0.75717 0.0
H643 H 0.21646 0.31353 0.75799 0.0
H644 H 0.22789 0.3301 0.75121 0.0
H645 H 0.20953 0.33313 0.76138 0.0
H646 H 0.18618 0.3375 0.7237 0.0
H647 H 0.19301 0.34651 0.74234 0.0
H648 H 0.2049 0.34823 0.72485 0.0
H649 H 0.21533 0.25437 0.67557 0.0
H650 H 0.25655 0.27928 0.65561 0.0
H651 H 0.25452 0.30095 0.67429 0.0
H652 H 0.19433 0.2846 0.67742 0.0
H653 H 0.18824 0.26644 0.68721 0.0
H654 H 0.18464 0.28573 0.69554 0.0
H655 H 0.22498 0.26274 0.71299 0.0
H656 H 0.20708 0.2676 0.72203 0.0
H657 H 0.20606 0.25364 0.70564 0.0
H658 H 0.1617 0.2753 0.73812 0.0
C659 C 0.18246 0.2861 0.7273 0.0
C660 C 0.76845 0.17838 0.73752 0.0
C661 C 0.75376 0.17654 0.72852 0.0
C662 C 0.74995 0.18803 0.71691 0.0
C663 C 0.77547 0.20256 0.72302 0.0
C664 C 0.77904 0.19146 0.73464 0.0
C665 C 0.79501 0.19534 0.74332 0.0
H666 H 0.86213 0.24421 0.75322 0.0
C667 C 0.78919 0.21447 0.72278 0.0
C668 C 0.80066 0.21033 0.73468 0.0
H669 H 0.84841 0.20274 0.78095 0.0
H670 H 0.82422 0.19834 0.7642 0.0
H671 H 0.82656 0.25829 0.74992 0.0
H672 H 0.85277 0.22854 0.7193 0.0
H673 H 0.84138 0.24084 0.70674 0.0
H674 H 0.85675 0.24972 0.72036 0.0
H675 H 0.84425 0.2652 0.73986 0.0
H676 H 0.82441 0.26552 0.73031 0.0
C677 C 0.79176 0.19867 0.76105 0.0
C678 C 0.80621 0.1814 0.74068 0.0
C679 C 0.78855 0.25917 0.68206 0.0
C680 C 0.80004 0.27118 0.67809 0.0
C681 C 0.81502 0.27241 0.68669 0.0
C682 C 0.81845 0.2619 0.69923 0.0
C683 C 0.80682 0.24993 0.70309 0.0
C684 C 0.79224 0.24861 0.69443 0.0
C685 C 0.78172 0.23464 0.6996 0.0
C686 C 0.79229 0.22792 0.71294 0.0
C687 C 0.80689 0.23701 0.71503 0.0
C688 C 0.76594 0.24108 0.70585 0.0
C689 C 0.77914 0.22292 0.68532 0.0
C690 C 0.85401 0.23408 0.75557 0.0
C691 C 0.85716 0.22386 0.76849 0.0
C692 C 0.84615 0.21093 0.77123 0.0
C693 C 0.83212 0.20836 0.76145 0.0
C694 C 0.82899 0.21885 0.74878 0.0
C695 C 0.83989 0.2314 0.74596 0.0
C696 C 0.83449 0.24141 0.73206 0.0
C697 C 0.81839 0.23301 0.72723 0.0
C698 C 0.81526 0.21977 0.73702 0.0
C699 C 0.83237 0.25857 0.73821 0.0
C700 C 0.84697 0.24024 0.71891 0.0
H701 H 0.75718 0.20926 0.705 0.0
H702 H 0.77158 0.16989 0.74672 0.0
H703 H 0.8048 0.17697 0.72817 0.0
H704 H 0.81917 0.1849 0.74246 0.0
H705 H 0.80325 0.17123 0.74866 0.0
H706 H 0.77973 0.20382 0.76228 0.0
H707 H 0.7919 0.18755 0.76819 0.0
H708 H 0.80046 0.20764 0.76659 0.0
H709 H 0.77706 0.25777 0.67541 0.0
H710 H 0.82403 0.2816 0.68378 0.0
H711 H 0.83002 0.26349 0.70539 0.0
H712 H 0.76844 0.25258 0.71231 0.0
H713 H 0.75707 0.24324 0.69588 0.0
H714 H 0.76019 0.23308 0.71461 0.0
H715 H 0.79013 0.22284 0.67814 0.0
H716 H 0.77706 0.2104 0.68902 0.0
H717 H 0.76891 0.22635 0.67727 0.0
H718 H 0.73874 0.18682 0.70978 0.0
C719 C 0.76072 0.201 0.71409 0.0
C720 C 0.53325 0.57027 0.48469 0.0
C721 C 0.52065 0.58076 0.48635 0.0
C722 C 0.50925 0.57754 0.49807 0.0
C723 C 0.52329 0.55408 0.50644 0.0
C724 C 0.53429 0.55705 0.49478 0.0
C725 C 0.54695 0.54478 0.49461 0.0
H726 H 0.57754 0.47738 0.52517 0.0
C727 C 0.52795 0.53955 0.51507 0.0
C728 C 0.54174 0.53398 0.50814 0.0
H729 H 0.59534 0.50628 0.48651 0.0
H730 H 0.57395 0.52443 0.48964 0.0
H731 H 0.571 0.50687 0.54783 0.0
H732 H 0.53928 0.47907 0.51535 0.0
H733 H 0.52899 0.48197 0.53295 0.0
H734 H 0.54732 0.47119 0.53376 0.0
H735 H 0.56403 0.48687 0.55229 0.0
H736 H 0.55245 0.50381 0.55696 0.0
C737 C 0.56369 0.55333 0.49836 0.0
C738 C 0.54538 0.53609 0.47828 0.0
C739 C 0.49634 0.52078 0.56256 0.0
C740 C 0.49793 0.50803 0.57329 0.0
C741 C 0.51005 0.49711 0.57096 0.0
C742 C 0.52055 0.499 0.55834 0.0
C743 C 0.51897 0.51198 0.54792 0.0
C744 C 0.50691 0.52251 0.55006 0.0
C745 C 0.507 0.53563 0.53789 0.0
C746 C 0.52126 0.5314 0.52824 0.0
C747 C 0.52826 0.51756 0.53415 0.0
C748 C 0.51014 0.55174 0.54681 0.0
C749 C 0.49082 0.53421 0.52788 0.0
C750 C 0.57671 0.48754 0.5173 0.0
C751 C 0.58807 0.49037 0.50552 0.0
C752 C 0.58678 0.50391 0.49573 0.0
C753 C 0.5743 0.51439 0.49752 0.0
C754 C 0.563 0.51138 0.5093 0.0
C755 C 0.56437 0.4982 0.51902 0.0
C756 C 0.55157 0.4972 0.53122 0.0
C757 C 0.5421 0.51178 0.52701 0.0
C758 C 0.54884 0.52001 0.51414 0.0
C759 C 0.56008 0.49864 0.548 0.0
C760 C 0.54124 0.48151 0.52834 0.0
H761 H 0.50149 0.56257 0.51682 0.0
H762 H 0.54233 0.57245 0.47594 0.0
H763 H 0.53247 0.5345 0.47411 0.0
H764 H 0.54984 0.52391 0.47874 0.0
H765 H 0.55185 0.54301 0.46904 0.0
H766 H 0.56267 0.56333 0.50692 0.0
H767 H 0.56891 0.55837 0.48739 0.0
H768 H 0.57245 0.54548 0.50424 0.0
H769 H 0.48733 0.52953 0.56408 0.0
H770 H 0.51142 0.48706 0.5789 0.0
H771 H 0.52955 0.49032 0.55725 0.0
H772 H 0.51915 0.55054 0.5569 0.0
H773 H 0.49885 0.55588 0.5518 0.0
H774 H 0.51534 0.56126 0.53928 0.0
H775 H 0.48618 0.52157 0.52687 0.0
H776 H 0.49209 0.53813 0.51541 0.0
H777 H 0.48136 0.54107 0.53339 0.0
H778 H 0.49927 0.58524 0.49946 0.0
C779 C 0.51051 0.56429 0.5081 0.0
C780 C 0.54502 0.43552 0.00952 0.0
C781 C 0.53114 0.4252 0.00846 0.0
C782 C 0.51855 0.42855 0.9973 0.0
C783 C 0.53386 0.45193 0.98832 0.0
C784 C 0.54608 0.4488 0.99944 0.0
C785 C 0.55989 0.46108 0.99918 0.0
H786 H 0.59323 0.52851 0.9676 0.0
C787 C 0.53879 0.46656 0.97961 0.0
C788 C 0.55398 0.47206 0.98603 0.0
H789 H 0.61289 0.49961 0.00567 0.0
H790 H 0.58937 0.48157 0.00339 0.0
H791 H 0.55693 0.52757 0.97921 0.0
H792 H 0.58021 0.49883 0.94528 0.0
H793 H 0.56108 0.50307 0.93698 0.0
H794 H 0.57568 0.51922 0.9415 0.0
H795 H 0.56214 0.53496 0.95996 0.0
H796 H 0.54315 0.52417 0.96293 0.0
C797 C 0.56133 0.46958 0.01563 0.0
C798 C 0.57526 0.45258 0.99463 0.0
C799 C 0.50342 0.48571 0.93315 0.0
C800 C 0.5049 0.49874 0.9227 0.0
C801 C 0.51805 0.50989 0.92511 0.0
C802 C 0.52977 0.50787 0.9374 0.0
C803 C 0.52836 0.49455 0.94747 0.0
C804 C 0.5152 0.48389 0.94542 0.0
C805 C 0.51549 0.47064 0.95748 0.0
C806 C 0.53124 0.47486 0.9668 0.0
C807 C 0.53877 0.48882 0.96083 0.0
C808 C 0.5006 0.47185 0.96792 0.0
C809 C 0.51615 0.45464 0.94837 0.0
C810 C 0.5924 0.51836 0.97553 0.0
C811 C 0.60496 0.51551 0.98685 0.0
C812 C 0.6035 0.502 0.99674 0.0
C813 C 0.58976 0.49158 0.99546 0.0
C814 C 0.5773 0.49462 0.98413 0.0
C815 C 0.57878 0.5078 0.97436 0.0
C816 C 0.56447 0.509 0.96283 0.0
C817 C 0.55408 0.49448 0.96742 0.0
C818 C 0.56166 0.48611 0.9799 0.0
C819 C 0.55622 0.52477 0.96623 0.0
C820 C 0.57055 0.50758 0.9457 0.0
H821 H 0.50991 0.44361 0.9789 0.0
H822 H 0.55482 0.43339 0.0181 0.0
H823 H 0.57218 0.44293 0.98574 0.0
H824 H 0.58417 0.46058 0.98883 0.0
H825 H 0.58119 0.44705 0.00523 0.0
H826 H 0.54918 0.4709 0.02051 0.0
H827 H 0.56857 0.46269 0.02441 0.0
H828 H 0.56663 0.48187 0.01502 0.0
H829 H 0.49333 0.47706 0.93177 0.0
H830 H 0.51953 0.51997 0.91716 0.0
H831 H 0.53959 0.51665 0.93845 0.0
H832 H 0.497 0.48441 0.96893 0.0
H833 H 0.49 0.46472 0.96276 0.0
H834 H 0.50305 0.46808 0.98037 0.0
H835 H 0.52457 0.45586 0.93842 0.0
H836 H 0.52077 0.44492 0.95586 0.0
H837 H 0.50404 0.45079 0.94318 0.0
H838 H 0.5078 0.4207 0.99614 0.0
C839 C 0.51984 0.44182 0.98723 0.0
C840 C 0.75442 0.17547 0.27711 0.0
C841 C 0.7527 0.16366 0.26517 0.0
C842 C 0.73907 0.16358 0.25449 0.0
C843 C 0.72937 0.18687 0.26763 0.0
C844 C 0.74268 0.18684 0.27813 0.0
C845 C 0.74268 0.19998 0.29031 0.0
H846 H 0.70505 0.26102 0.32299 0.0
C847 C 0.71942 0.20026 0.27211 0.0
C848 C 0.72716 0.20792 0.28543 0.0
H849 H 0.75107 0.24205 0.33752 0.0
H850 H 0.74864 0.22338 0.31572 0.0
H851 H 0.68635 0.22796 0.31475 0.0
H852 H 0.71225 0.26142 0.28528 0.0
H853 H 0.69506 0.25434 0.274 0.0
H854 H 0.69261 0.26514 0.29229 0.0
H855 H 0.67876 0.24697 0.30931 0.0
H856 H 0.67494 0.22964 0.29675 0.0
C857 C 0.74182 0.19222 0.30702 0.0
C858 C 0.75782 0.21122 0.2881 0.0
C859 C 0.66791 0.2117 0.23969 0.0
C860 C 0.65621 0.2232 0.24116 0.0
C861 C 0.65782 0.23405 0.25404 0.0
C862 C 0.67092 0.2336 0.26514 0.0
C863 C 0.68259 0.22218 0.26341 0.0
C864 C 0.68092 0.21139 0.25093 0.0
C865 C 0.69439 0.19994 0.25116 0.0
C866 C 0.70462 0.2059 0.26561 0.0
C867 C 0.69763 0.21894 0.27272 0.0
C868 C 0.68696 0.18289 0.25369 0.0
C869 C 0.70352 0.20207 0.23554 0.0
C870 C 0.7147 0.25298 0.32137 0.0
C871 C 0.72817 0.25292 0.33219 0.0
C872 C 0.74038 0.24215 0.32962 0.0
C873 C 0.739 0.23133 0.31688 0.0
C874 C 0.72527 0.23122 0.30646 0.0
C875 C 0.71353 0.24209 0.30863 0.0
C876 C 0.69998 0.24043 0.29612 0.0
C877 C 0.70539 0.22657 0.2863 0.0
C878 C 0.72015 0.22118 0.2925 0.0
C879 C 0.68409 0.23613 0.30456 0.0
C880 C 0.69978 0.25613 0.28641 0.0
H881 H 0.71739 0.17448 0.24711 0.0
H882 H 0.7646 0.17575 0.28566 0.0
H883 H 0.76108 0.21171 0.27538 0.0
H884 H 0.75586 0.22374 0.29131 0.0
H885 H 0.76847 0.20707 0.29515 0.0
H886 H 0.73383 0.18117 0.30653 0.0
H887 H 0.75398 0.18888 0.31158 0.0
H888 H 0.73652 0.19988 0.31591 0.0
H889 H 0.66691 0.20307 0.23006 0.0
H890 H 0.6491 0.24313 0.25536 0.0
H891 H 0.67148 0.24225 0.27459 0.0
H892 H 0.67639 0.18311 0.26142 0.0
H893 H 0.68273 0.17729 0.24216 0.0
H894 H 0.69542 0.17499 0.25996 0.0
H895 H 0.70496 0.21492 0.2324 0.0
H896 H 0.71592 0.19782 0.23646 0.0
H897 H 0.6968 0.19584 0.22543 0.0
H898 H 0.73753 0.15471 0.2451 0.0
C899 C 0.72743 0.17513 0.25563 0.0
C900 C 0.41671 0.99126 0.97693 0.0
C901 C 0.41235 0.97784 0.96734 0.0
C902 C 0.42209 0.97424 0.95456 0.0
C903 C 0.44007 0.99717 0.96104 0.0
C904 C 0.43056 0.00069 0.97359 0.0
C905 C 0.43696 0.01528 0.98268 0.0
H906 H 0.49368 0.07571 0.99233 0.0
C907 C 0.45354 0.00936 0.96077 0.0
C908 C 0.45179 0.02001 0.97343 0.0
H909 H 0.4519 0.0654 0.02046 0.0
H910 H 0.44442 0.04252 0.00398 0.0
H911 H 0.47524 0.07029 0.95914 0.0
H912 H 0.50371 0.03881 0.98798 0.0
H913 H 0.50938 0.03709 0.9681 0.0
H914 H 0.51216 0.05605 0.97815 0.0
H915 H 0.49693 0.07179 0.95983 0.0
H916 H 0.4856 0.05869 0.9459 0.0
C917 C 0.42401 0.02801 0.98137 0.0
C918 C 0.44152 0.01019 0.99997 0.0
C919 C 0.49491 0.00715 0.91786 0.0
C920 C 0.50816 0.01729 0.91402 0.0
C921 C 0.51211 0.03086 0.92357 0.0
C922 C 0.50304 0.03427 0.93677 0.0
C923 C 0.48975 0.0241 0.94041 0.0
C924 C 0.48583 0.01085 0.93097 0.0
C925 C 0.47093 0.00175 0.93625 0.0
C926 C 0.46662 0.01167 0.95048 0.0
C927 C 0.47776 0.02466 0.95293 0.0
C928 C 0.45782 0.0021 0.92252 0.0
C929 C 0.47577 0.98481 0.94125 0.0
C930 C 0.48287 0.0686 0.99491 0.0
C931 C 0.47346 0.07239 0.00785 0.0
C932 C 0.45957 0.06264 0.0108 0.0
C933 C 0.45515 0.04939 0.00111 0.0
C934 C 0.46465 0.0458 0.98823 0.0
C935 C 0.47824 0.05535 0.9853 0.0
C936 C 0.48672 0.04988 0.97091 0.0
C937 C 0.47608 0.03538 0.96581 0.0
C938 C 0.46318 0.03304 0.97601 0.0
C939 C 0.48627 0.06332 0.95826 0.0
C940 C 0.50396 0.04528 0.97643 0.0
H941 H 0.44274 0.98043 0.94145 0.0
H942 H 0.40962 0.99426 0.98697 0.0
H943 H 0.44649 0.9981 0.00017 0.0
H944 H 0.45115 0.01801 0.00575 0.0
H945 H 0.43079 0.00981 0.00748 0.0
H946 H 0.41763 0.02756 0.96943 0.0
H947 H 0.41477 0.02604 0.99046 0.0
H948 H 0.42922 0.04034 0.9825 0.0
H949 H 0.49146 0.99677 0.91058 0.0
H950 H 0.52233 0.03878 0.92088 0.0
H951 H 0.5067 0.04475 0.94359 0.0
H952 H 0.45876 0.01352 0.91583 0.0
H953 H 0.45913 0.99225 0.91388 0.0
H954 H 0.44538 0.00148 0.92678 0.0
H955 H 0.48794 0.98523 0.94742 0.0
H956 H 0.4676 0.97918 0.94988 0.0
H957 H 0.47622 0.97687 0.93069 0.0
H958 H 0.41892 0.96409 0.94688 0.0
C959 C 0.43588 0.98381 0.95137 0.0
Mg960 Mg 0.24101 0.8593 0.00894 0.0
O961 O 0.26516 0.87273 0.00402 0.0
O962 O 0.28406 0.85453 0.00503 0.0
Mg963 Mg 0.27257 0.83017 0.01128 0.0
C964 C 0.27982 0.86884 0.00292 0.0
C965 C 0.21118 0.87719 0.00049 0.0
O966 O 0.206 0.86248 0.00341 0.0
O967 O 0.24025 0.84843 0.98384 0.0
O968 O 0.25848 0.82974 0.98713 0.0
O969 O 0.24524 0.8632 0.03525 0.0
O970 O 0.25304 0.8423 0.02217 0.0
C971 C 0.24778 0.83668 0.97859 0.0
C972 C 0.25272 0.85 0.03539 0.0
O973 O 0.22635 0.88037 0.00089 0.0
Mg974 Mg 0.14781 0.50605 0.26907 0.0
O975 O 0.13257 0.5032 0.24545 0.0
O976 O 0.15023 0.50484 0.22603 0.0
Mg977 Mg 0.17584 0.51004 0.23656 0.0
C978 C 0.13579 0.50285 0.23068 0.0
C979 C 0.1301 0.49707 0.29878 0.0
O980 O 0.14522 0.50001 0.30372 0.0
O981 O 0.1569 0.48081 0.26626 0.0
O982 O 0.17534 0.48515 0.24789 0.0
O983 O 0.14597 0.53259 0.2689 0.0
O984 O 0.16527 0.52001 0.2576 0.0
C985 C 0.16819 0.476 0.25779 0.0
C986 C 0.15875 0.53325 0.26055 0.0
O987 O 0.12662 0.49752 0.28389 0.0
Mg988 Mg 0.77567 0.64408 0.01486 0.0
O989 O 0.75166 0.62908 0.01141 0.0
O990 O 0.73215 0.64663 0.0105 0.0
Mg991 Mg 0.74296 0.67195 0.01457 0.0
C992 C 0.73674 0.63233 0.00984 0.0
C993 C 0.80597 0.62684 0.01033 0.0
O994 O 0.81046 0.64172 0.01378 0.0
O995 O 0.7736 0.65233 0.98889 0.0
O996 O 0.75518 0.67083 0.99055 0.0
O997 O 0.77483 0.64298 0.04147 0.0
O998 O 0.76388 0.66168 0.02675 0.0
C999 C 0.76537 0.66342 0.98267 0.0
C1000 C 0.76655 0.65567 0.04065 0.0
O1001 O 0.79093 0.62313 0.00881 0.0
Mg1002 Mg 0.89894 0.02611 0.24297 0.0
O1003 O 0.88392 0.00238 0.24062 0.0
O1004 O 0.90128 0.98338 0.23633 0.0
Mg1005 Mg 0.92679 0.99477 0.23463 0.0
C1006 C 0.88695 0.98777 0.23837 0.0
C1007 C 0.87993 0.05362 0.25516 0.0
O1008 O 0.89439 0.06017 0.25301 0.0
O1009 O 0.90872 0.01887 0.26779 0.0
O1010 O 0.9271 0.00162 0.26114 0.0
O1011 O 0.89625 0.03051 0.21672 0.0
O1012 O 0.91605 0.01731 0.22806 0.0
C1013 C 0.92021 0.00975 0.27156 0.0
C1014 C 0.909 0.0224 0.21521 0.0
O1015 O 0.87762 0.03869 0.25284 0.0
Mg1016 Mg 0.27691 0.14408 0.51522 0.0
O1017 O 0.25317 0.12895 0.51071 0.0
O1018 O 0.23342 0.14619 0.50863 0.0
Mg1019 Mg 0.24392 0.17164 0.51265 0.0
C1020 C 0.23826 0.13196 0.50842 0.0
C1021 C 0.30734 0.12636 0.51384 0.0
O1022 O 0.31165 0.14111 0.51798 0.0
O1023 O 0.27647 0.15204 0.48902 0.0
O1024 O 0.25748 0.1701 0.48948 0.0
O1025 O 0.27393 0.14346 0.54171 0.0
O1026 O 0.26458 0.16204 0.52578 0.0
C1027 C 0.26829 0.16288 0.48224 0.0
C1028 C 0.266 0.15631 0.53993 0.0
O1029 O 0.29243 0.12291 0.51066 0.0
Mg1030 Mg 0.39917 0.52797 0.7427 0.0
O1031 O 0.38424 0.50412 0.74007 0.0
O1032 O 0.40157 0.48502 0.73607 0.0
Mg1033 Mg 0.42726 0.49611 0.73676 0.0
C1034 C 0.3872 0.48952 0.73756 0.0
C1035 C 0.37136 0.5509 0.74143 0.0
O1036 O 0.37842 0.55329 0.72787 0.0
O1037 O 0.40758 0.52146 0.7682 0.0
O1038 O 0.42475 0.50245 0.76315 0.0
O1039 O 0.39798 0.53081 0.71615 0.0
O1040 O 0.41753 0.5189 0.72936 0.0
C1041 C 0.41769 0.51121 0.77291 0.0
C1042 C 0.41103 0.52298 0.71588 0.0
O1043 O 0.377 0.54066 0.75107 0.0
Mg1044 Mg 0.74277 0.36169 0.50889 0.0
O1045 O 0.76657 0.37583 0.50405 0.0
O1046 O 0.786 0.35819 0.50582 0.0
Mg1047 Mg 0.77533 0.33381 0.51311 0.0
C1048 C 0.78136 0.37229 0.50316 0.0
C1049 C 0.71246 0.37764 0.49724 0.0
O1050 O 0.70782 0.3626 0.49915 0.0
O1051 O 0.74322 0.34998 0.48434 0.0
O1052 O 0.76175 0.33177 0.48867 0.0
O1053 O 0.74546 0.36672 0.53503 0.0
O1054 O 0.75539 0.34598 0.52334 0.0
C1055 C 0.75109 0.33823 0.47967 0.0
C1056 C 0.75381 0.3541 0.53617 0.0
O1057 O 0.72737 0.38167 0.49946 0.0
Mg1058 Mg 0.64812 0.00761 0.77244 0.0
O1059 O 0.63496 0.00458 0.74783 0.0
O1060 O 0.65387 0.00668 0.72965 0.0
Mg1061 Mg 0.67865 0.01189 0.74216 0.0
C1062 C 0.63915 0.00444 0.73335 0.0
C1063 C 0.61349 0.00775 0.78463 0.0
O1064 O 0.61407 0.02051 0.77559 0.0
O1065 O 0.65759 0.98242 0.77044 0.0
O1066 O 0.67729 0.98698 0.75334 0.0
O1067 O 0.64621 0.03422 0.77134 0.0
O1068 O 0.66668 0.02143 0.76256 0.0
C1069 C 0.6695 0.97774 0.76271 0.0
C1070 C 0.65982 0.03469 0.76433 0.0
O1071 O 0.62551 0.99885 0.78516 0.0
Mg1072 Mg 0.03055 0.25672 0.8906 0.0
O1073 O 0.00573 0.25286 0.87751 0.0
O1074 O 0.98823 0.24477 0.89571 0.0
Mg1075 Mg 0.00165 0.24299 0.91998 0.0
C1076 C 0.99145 0.24845 0.88139 0.0
C1077 C 0.05446 0.27711 0.8718 0.0
O1078 O 0.0605 0.27815 0.88651 0.0
O1079 O 0.02247 0.27987 0.90159 0.0
O1080 O 0.00646 0.27018 0.92042 0.0
O1081 O 0.03581 0.23123 0.88637 0.0
O1082 O 0.02404 0.23988 0.90761 0.0
C1083 C 0.01357 0.28188 0.91343 0.0
C1084 C 0.02879 0.22805 0.89955 0.0
O1085 O 0.04094 0.26956 0.86921 0.0
Mg1086 Mg 0.53073 0.75778 0.39287 0.0
O1087 O 0.50598 0.75345 0.37951 0.0
O1088 O 0.48815 0.74584 0.39758 0.0
Mg1089 Mg 0.50087 0.7459 0.4222 0.0
C1090 C 0.49166 0.74898 0.38323 0.0
C1091 C 0.55255 0.76162 0.36463 0.0
O1092 O 0.5567 0.74821 0.37135 0.0
O1093 O 0.52279 0.78163 0.40245 0.0
O1094 O 0.50504 0.77306 0.42028 0.0
O1095 O 0.5355 0.7319 0.39038 0.0
O1096 O 0.52371 0.74205 0.41088 0.0
C1097 C 0.51271 0.78432 0.41313 0.0
C1098 C 0.52839 0.72966 0.40366 0.0
O1099 O 0.54148 0.76936 0.37072 0.0
Mg1100 Mg 0.98974 0.74823 0.60643 0.0
O1101 O 0.01398 0.74501 0.62034 0.0
O1102 O 0.03196 0.73873 0.60251 0.0
Mg1103 Mg 0.01963 0.73824 0.57762 0.0
C1104 C 0.02825 0.74144 0.61685 0.0
C1105 C 0.96502 0.76505 0.62537 0.0
O1106 O 0.95952 0.76592 0.61049 0.0
O1107 O 0.9989 0.77258 0.59739 0.0
O1108 O 0.01635 0.76528 0.57944 0.0
O1109 O 0.98353 0.72218 0.60853 0.0
O1110 O 0.99634 0.73302 0.58841 0.0
C1111 C 0.00903 0.77603 0.58671 0.0
C1112 C 0.99076 0.72037 0.59532 0.0
O1113 O 0.97861 0.75894 0.62819 0.0
Mg1114 Mg 0.49319 0.24682 0.10659 0.0
O1115 O 0.51684 0.24312 0.12138 0.0
O1116 O 0.53542 0.23682 0.1042 0.0
Mg1117 Mg 0.52399 0.23634 0.07893 0.0
C1118 C 0.53122 0.23948 0.11838 0.0
C1119 C 0.46749 0.2629 0.12483 0.0
O1120 O 0.46181 0.26262 0.10996 0.0
O1121 O 0.50313 0.27098 0.09783 0.0
O1122 O 0.52103 0.26347 0.08041 0.0
O1123 O 0.48622 0.22093 0.10841 0.0
O1124 O 0.5002 0.23143 0.0889 0.0
C1125 C 0.5136 0.27431 0.08744 0.0
C1126 C 0.49394 0.21891 0.09553 0.0
O1127 O 0.48149 0.25779 0.12788 0.0
H1128 H 0.23543 0.74594 0.86085 0.0
H1129 H 0.23666 0.76304 0.88434 0.0
H1130 H 0.2198 0.80213 0.85584 0.0
H1131 H 0.21923 0.7852 0.83197 0.0
H1132 H 0.24362 0.8123 0.87693 0.0
H1133 H 0.19397 0.78205 0.87964 0.0
H1134 H 0.1757 0.75798 0.87867 0.0
H1135 H 0.20202 0.73849 0.91868 0.0
H1136 H 0.22062 0.76233 0.91975 0.0
H1137 H 0.23199 0.85128 0.95341 0.0
H1138 H 0.22571 0.84012 0.92659 0.0
H1139 H 0.24814 0.79666 0.94055 0.0
H1140 H 0.2546 0.80763 0.96702 0.0
H1141 H 0.21677 0.7923 0.92521 0.0
H1142 H 0.26845 0.82156 0.91932 0.0
H1143 H 0.28621 0.84601 0.92023 0.0
H1144 H 0.25444 0.86816 0.88605 0.0
H1145 H 0.23637 0.8439 0.88513 0.0
C1146 C 0.23221 0.75823 0.85946 0.0
C1147 C 0.22723 0.76417 0.84448 0.0
C1148 C 0.23273 0.76796 0.87297 0.0
C1149 C 0.22803 0.78379 0.87191 0.0
C1150 C 0.22336 0.78991 0.85695 0.0
C1151 C 0.22291 0.78018 0.84336 0.0
C1152 C 0.22802 0.79375 0.88655 0.0
C1153 C 0.23746 0.8081 0.88738 0.0
C1154 C 0.21998 0.7883 0.90021 0.0
C1155 C 0.20875 0.77396 0.89971 0.0
C1156 C 0.19593 0.77259 0.88817 0.0
C1157 C 0.18551 0.75899 0.88761 0.0
C1158 C 0.18771 0.74671 0.89859 0.0
C1159 C 0.20033 0.74801 0.91018 0.0
C1160 C 0.2108 0.76158 0.91078 0.0
C1161 C 0.23557 0.83935 0.95072 0.0
C1162 C 0.24383 0.83036 0.96234 0.0
C1163 C 0.23201 0.83303 0.93543 0.0
C1164 C 0.23647 0.81758 0.93165 0.0
C1165 C 0.24457 0.80859 0.94326 0.0
C1166 C 0.24831 0.81494 0.95837 0.0
C1167 C 0.2328 0.81046 0.9157 0.0
C1168 C 0.22262 0.79664 0.91463 0.0
C1169 C 0.24002 0.8165 0.90185 0.0
C1170 C 0.25095 0.83101 0.90232 0.0
C1171 C 0.26518 0.8317 0.91212 0.0
C1172 C 0.27531 0.84551 0.91261 0.0
C1173 C 0.27142 0.85865 0.90325 0.0
C1174 C 0.25742 0.85798 0.89332 0.0
C1175 C 0.24723 0.84421 0.89281 0.0
H1176 H 0.27928 0.86933 0.90365 0.0
H1177 H 0.17963 0.73619 0.89813 0.0
H1178 H 0.00699 0.50837 0.38812 0.0
H1179 H 0.0255 0.50292 0.36702 0.0
H1180 H 0.06615 0.51008 0.40055 0.0
H1181 H 0.04775 0.51556 0.42164 0.0
H1182 H 0.07132 0.52602 0.37396 0.0
H1183 H 0.05301 0.47259 0.38694 0.0
H1184 H 0.03276 0.45069 0.39112 0.0
H1185 H 0.01529 0.45426 0.34241 0.0
H1186 H 0.03531 0.47635 0.33799 0.0
H1187 H 0.13404 0.49668 0.33117 0.0
H1188 H 0.11318 0.49786 0.3507 0.0
H1189 H 0.07623 0.49547 0.31289 0.0
H1190 H 0.09712 0.49426 0.29311 0.0
H1191 H 0.06805 0.47727 0.3402 0.0
H1192 H 0.08677 0.53043 0.32728 0.0
H1193 H 0.10721 0.55219 0.32321 0.0
H1194 H 0.12392 0.54895 0.37218 0.0
H1195 H 0.10373 0.52699 0.37648 0.0
C1196 C 0.01987 0.50858 0.39103 0.0
C1197 C 0.02591 0.51246 0.40655 0.0
C1198 C 0.03043 0.50546 0.37896 0.0
C1199 C 0.04723 0.50599 0.38221 0.0
C1200 C 0.05325 0.50966 0.39773 0.0
C1201 C 0.04272 0.51285 0.40977 0.0
C1202 C 0.05863 0.50337 0.36936 0.0
C1203 C 0.0707 0.51525 0.36673 0.0
C1204 C 0.05755 0.48955 0.35957 0.0
C1205 C 0.04555 0.47624 0.36218 0.0
C1206 C 0.04477 0.4688 0.37715 0.0
C1207 C 0.03334 0.45633 0.37956 0.0
C1208 C 0.02271 0.45112 0.36705 0.0
C1209 C 0.02352 0.45833 0.35209 0.0
C1210 C 0.0349 0.47082 0.34963 0.0
C1211 C 0.12148 0.49619 0.32695 0.0
C1212 C 0.11726 0.49556 0.31054 0.0
C1213 C 0.10957 0.4969 0.33816 0.0
C1214 C 0.09319 0.49701 0.33322 0.0
C1215 C 0.08882 0.49546 0.31693 0.0
C1216 C 0.10078 0.4948 0.30565 0.0
C1217 C 0.08083 0.49979 0.34508 0.0
C1218 C 0.06859 0.48801 0.34744 0.0
C1219 C 0.08172 0.5137 0.35468 0.0
C1220 C 0.09383 0.52697 0.35216 0.0
C1221 C 0.09489 0.53427 0.33715 0.0
C1222 C 0.10641 0.54666 0.3348 0.0
C1223 C 0.11688 0.55193 0.34742 0.0
C1224 C 0.11582 0.54484 0.36241 0.0
C1225 C 0.10432 0.53244 0.36482 0.0
H1226 H 0.1258 0.56152 0.34558 0.0
H1227 H 0.01388 0.44146 0.36893 0.0
H1228 H 0.77335 0.74961 0.86373 0.0
H1229 H 0.77381 0.73299 0.88743 0.0
H1230 H 0.79086 0.69402 0.86018 0.0
H1231 H 0.78982 0.71052 0.83606 0.0
H1232 H 0.7677 0.68363 0.87994 0.0
H1233 H 0.81686 0.71443 0.88564 0.0
H1234 H 0.83504 0.73854 0.88554 0.0
H1235 H 0.80937 0.75869 0.9235 0.0
H1236 H 0.79087 0.73481 0.92367 0.0
H1237 H 0.78105 0.64794 0.95925 0.0
H1238 H 0.78663 0.65785 0.93236 0.0
H1239 H 0.76224 0.70081 0.94221 0.0
H1240 H 0.7564 0.69104 0.96872 0.0
H1241 H 0.79454 0.70518 0.92994 0.0
H1242 H 0.74297 0.67525 0.92024 0.0
H1243 H 0.72543 0.65067 0.92007 0.0
H1244 H 0.7577 0.62793 0.88947 0.0
H1245 H 0.77556 0.65233 0.88965 0.0
C1246 C 0.77702 0.73745 0.86267 0.0
C1247 C 0.78148 0.73138 0.84795 0.0
C1248 C 0.77748 0.72801 0.8763 0.0
C1249 C 0.78262 0.71233 0.87565 0.0
C1250 C 0.78696 0.70612 0.86098 0.0
C1251 C 0.78647 0.7156 0.84724 0.0
C1252 C 0.78316 0.70259 0.8904 0.0
C1253 C 0.77389 0.68815 0.89079 0.0
C1254 C 0.79126 0.70845 0.90457 0.0
C1255 C 0.80242 0.72284 0.90461 0.0
C1256 C 0.81502 0.72405 0.8939 0.0
C1257 C 0.8254 0.73767 0.89384 0.0
C1258 C 0.82335 0.75015 0.90449 0.0
C1259 C 0.81094 0.74901 0.91525 0.0
C1260 C 0.80052 0.73542 0.91535 0.0
C1261 C 0.7768 0.65944 0.95562 0.0
C1262 C 0.76827 0.66869 0.96614 0.0
C1263 C 0.77998 0.66506 0.94028 0.0
C1264 C 0.77488 0.68007 0.93539 0.0
C1265 C 0.76632 0.68922 0.94581 0.0
C1266 C 0.76293 0.68355 0.96095 0.0
C1267 C 0.77858 0.68667 0.91955 0.0
C1268 C 0.7887 0.7005 0.91898 0.0
C1269 C 0.77144 0.68014 0.90525 0.0
C1270 C 0.76071 0.66552 0.90515 0.0
C1271 C 0.74641 0.66495 0.91362 0.0
C1272 C 0.73639 0.65107 0.91349 0.0
C1273 C 0.74048 0.63772 0.90482 0.0
C1274 C 0.75457 0.63826 0.89622 0.0
C1275 C 0.76464 0.65211 0.89632 0.0
H1276 H 0.7327 0.62699 0.90472 0.0
H1277 H 0.8314 0.76069 0.90443 0.0
H1278 H 0.01629 0.00055 0.38912 0.0
H1279 H 0.99799 0.00399 0.36599 0.0
H1280 H 0.95743 0.00383 0.39659 0.0
H1281 H 0.97581 0.99995 0.41988 0.0
H1282 H 0.94922 0.98737 0.37057 0.0
H1283 H 0.97293 0.03902 0.38044 0.0
H1284 H 0.99464 0.05959 0.38618 0.0
H1285 H 0.01572 0.04939 0.34167 0.0
H1286 H 0.99428 0.02859 0.33575 0.0
H1287 H 0.90531 0.01766 0.29907 0.0
H1288 H 0.91696 0.01707 0.32656 0.0
H1289 H 0.96135 0.00043 0.30905 0.0
H1290 H 0.94985 0.0006 0.28188 0.0
H1291 H 0.9633 0.02904 0.33097 0.0
H1292 H 0.94049 0.97434 0.32422 0.0
H1293 H 0.91773 0.95476 0.31896 0.0
H1294 H 0.89322 0.97308 0.35864 0.0
H1295 H 0.91575 0.99294 0.36398 0.0
C1296 C 0.00349 0.00134 0.39094 0.0
C1297 C 0.9975 0.00019 0.40631 0.0
C1298 C 0.99302 0.00335 0.37771 0.0
C1299 C 0.97635 0.00458 0.37955 0.0
C1300 C 0.97025 0.00304 0.39487 0.0
C1301 C 0.98074 0.00082 0.40815 0.0
C1302 C 0.96547 0.00735 0.36536 0.0
C1303 C 0.95212 0.9967 0.36209 0.0
C1304 C 0.96912 0.01958 0.35427 0.0
C1305 C 0.98202 0.03217 0.3577 0.0
C1306 C 0.98225 0.04109 0.37191 0.0
C1307 C 0.9945 0.0528 0.3752 0.0
C1308 C 0.00656 0.05578 0.3643 0.0
C1309 C 0.00637 0.04707 0.35009 0.0
C1310 C 0.99415 0.03533 0.34676 0.0
C1311 C 0.91751 0.01381 0.30113 0.0
C1312 C 0.92663 0.00913 0.28829 0.0
C1313 C 0.92412 0.01346 0.3168 0.0
C1314 C 0.94 0.00873 0.31975 0.0
C1315 C 0.94908 0.00413 0.30698 0.0
C1316 C 0.94243 0.00417 0.29146 0.0
C1317 C 0.94757 0.00875 0.33604 0.0
C1318 C 0.96027 0.01995 0.33967 0.0
C1319 C 0.94314 0.99725 0.34752 0.0
C1320 C 0.92968 0.98526 0.34435 0.0
C1321 C 0.93016 0.97431 0.33171 0.0
C1322 C 0.91733 0.96313 0.32874 0.0
C1323 C 0.90401 0.96272 0.33842 0.0
C1324 C 0.90352 0.97344 0.35113 0.0
C1325 C 0.91632 0.98465 0.35413 0.0
H1326 H 0.89408 0.95405 0.33611 0.0
H1327 H 0.01604 0.06486 0.36687 0.0
H1328 H 0.23613 0.23306 0.66986 0.0
H1329 H 0.23847 0.21156 0.6503 0.0
H1330 H 0.2409 0.24633 0.6126 0.0
H1331 H 0.23872 0.26782 0.63207 0.0
H1332 H 0.21909 0.21899 0.60604 0.0
H1333 H 0.27428 0.2323 0.62555 0.0
H1334 H 0.29588 0.23579 0.64658 0.0
H1335 H 0.28847 0.18681 0.6603 0.0
H1336 H 0.26664 0.1831 0.63948 0.0
H1337 H 0.25325 0.18557 0.53997 0.0
H1338 H 0.24513 0.20069 0.56274 0.0
H1339 H 0.25564 0.16122 0.59378 0.0
H1340 H 0.26433 0.14608 0.5709 0.0
H1341 H 0.26822 0.18736 0.60646 0.0
H1342 H 0.21593 0.17239 0.58514 0.0
H1343 H 0.19393 0.16808 0.56465 0.0
H1344 H 0.19445 0.21838 0.55531 0.0
H1345 H 0.21662 0.22299 0.57558 0.0
C1346 C 0.23709 0.23606 0.65738 0.0
C1347 C 0.23733 0.25208 0.65245 0.0
C1348 C 0.23846 0.22381 0.64626 0.0
C1349 C 0.23987 0.2274 0.63004 0.0
C1350 C 0.23979 0.24335 0.62507 0.0
C1351 C 0.23867 0.25559 0.63619 0.0
C1352 C 0.24184 0.21463 0.61819 0.0
C1353 C 0.22984 0.21209 0.60604 0.0
C1354 C 0.25557 0.20524 0.61862 0.0
C1355 C 0.2687 0.20748 0.6311 0.0
C1356 C 0.27715 0.22232 0.63315 0.0
C1357 C 0.28945 0.22433 0.64501 0.0
C1358 C 0.29351 0.21154 0.65481 0.0
C1359 C 0.28529 0.19671 0.65273 0.0
C1360 C 0.27296 0.19464 0.6409 0.0
C1361 C 0.25358 0.17995 0.55157 0.0
C1362 C 0.25938 0.16458 0.55361 0.0
C1363 C 0.24885 0.18862 0.56462 0.0
C1364 C 0.24951 0.18204 0.57999 0.0
C1365 C 0.25496 0.16653 0.58203 0.0
C1366 C 0.25987 0.15787 0.56895 0.0
C1367 C 0.24564 0.19192 0.59392 0.0
C1368 C 0.25728 0.19397 0.60652 0.0
C1369 C 0.23144 0.20069 0.59401 0.0
C1370 C 0.21802 0.19802 0.58184 0.0
C1371 C 0.21143 0.18253 0.57865 0.0
C1372 C 0.19892 0.18003 0.56708 0.0
C1373 C 0.19281 0.19295 0.55867 0.0
C1374 C 0.19919 0.20839 0.56184 0.0
C1375 C 0.21172 0.21095 0.57339 0.0
H1376 H 0.18313 0.19099 0.54971 0.0
H1377 H 0.30304 0.21312 0.66398 0.0
H1378 H 0.50648 0.49998 0.60401 0.0
H1379 H 0.48959 0.49965 0.62717 0.0
H1380 H 0.44875 0.51291 0.59731 0.0
H1381 H 0.4655 0.51304 0.57402 0.0
H1382 H 0.45299 0.53174 0.62347 0.0
H1383 H 0.44995 0.47571 0.61249 0.0
H1384 H 0.46062 0.44939 0.60711 0.0
H1385 H 0.48634 0.45063 0.65265 0.0
H1386 H 0.47601 0.47707 0.65821 0.0
H1387 H 0.39803 0.52638 0.68564 0.0
H1388 H 0.41076 0.52114 0.66052 0.0
H1389 H 0.45305 0.50532 0.6866 0.0
H1390 H 0.44027 0.5102 0.71172 0.0
H1391 H 0.44632 0.48676 0.66126 0.0
H1392 H 0.45163 0.54332 0.67131 0.0
H1393 H 0.44184 0.56998 0.67687 0.0
H1394 H 0.41282 0.56804 0.63321 0.0
H1395 H 0.42228 0.54126 0.6275 0.0
C1396 C 0.49382 0.50249 0.60229 0.0
C1397 C 0.48736 0.50657 0.58715 0.0
C1398 C 0.48419 0.50233 0.61556 0.0
C1399 C 0.46789 0.50618 0.61395 0.0
C1400 C 0.46131 0.50995 0.59882 0.0
C1401 C 0.47092 0.51007 0.58554 0.0
C1402 C 0.45799 0.50721 0.62821 0.0
C1403 C 0.45127 0.52181 0.63157 0.0
C1404 C 0.45611 0.49437 0.63898 0.0
C1405 C 0.46231 0.47844 0.6357 0.0
C1406 C 0.45798 0.47043 0.6213 0.0
C1407 C 0.46395 0.45548 0.61823 0.0
C1408 C 0.47418 0.44836 0.62951 0.0
C1409 C 0.47843 0.45616 0.64391 0.0
C1410 C 0.4725 0.47113 0.64704 0.0
C1411 C 0.40998 0.52165 0.68602 0.0
C1412 C 0.41818 0.51877 0.70067 0.0
C1413 C 0.41727 0.51871 0.67166 0.0
C1414 C 0.43297 0.51307 0.67168 0.0
C1415 C 0.44094 0.50968 0.68629 0.0
C1416 C 0.43362 0.5125 0.70065 0.0
C1417 C 0.4414 0.51132 0.65655 0.0
C1418 C 0.4479 0.49663 0.65305 0.0
C1419 C 0.44318 0.5241 0.64568 0.0
C1420 C 0.43752 0.54022 0.64907 0.0
C1421 C 0.44306 0.54853 0.66296 0.0
C1422 C 0.43759 0.56367 0.66613 0.0
C1423 C 0.42668 0.57068 0.65543 0.0
C1424 C 0.42125 0.56258 0.64151 0.0
C1425 C 0.42667 0.54743 0.63829 0.0
H1426 H 0.42246 0.5824 0.6579 0.0
H1427 H 0.47879 0.43678 0.62712 0.0
H1428 H 0.77359 0.28893 0.6735 0.0
H1429 H 0.76697 0.30588 0.65067 0.0
H1430 H 0.81159 0.29441 0.62949 0.0
H1431 H 0.81853 0.27799 0.65268 0.0
H1432 H 0.80651 0.32403 0.62392 0.0
H1433 H 0.7741 0.27557 0.61815 0.0
H1434 H 0.75485 0.25405 0.62615 0.0
H1435 H 0.71802 0.28792 0.63067 0.0
H1436 H 0.73715 0.30969 0.62291 0.0
H1437 H 0.77954 0.33527 0.54191 0.0
H1438 H 0.78873 0.32428 0.56753 0.0
H1439 H 0.75234 0.34948 0.59113 0.0
H1440 H 0.74328 0.3608 0.56556 0.0
H1441 H 0.75304 0.31426 0.59579 0.0
H1442 H 0.78696 0.36253 0.59913 0.0
H1443 H 0.80698 0.38239 0.58927 0.0
H1444 H 0.84192 0.34635 0.58681 0.0
H1445 H 0.82201 0.32621 0.59644 0.0
C1446 C 0.782 0.29014 0.66399 0.0
C1447 C 0.7965 0.28211 0.66474 0.0
C1448 C 0.77821 0.29976 0.65093 0.0
C1449 C 0.78862 0.30116 0.63817 0.0
C1450 C 0.80335 0.29351 0.63916 0.0
C1451 C 0.8073 0.28412 0.65237 0.0
C1452 C 0.78391 0.31015 0.62359 0.0
C1453 C 0.79487 0.32177 0.61771 0.0
C1454 C 0.76866 0.30735 0.61551 0.0
C1455 C 0.75711 0.29428 0.62012 0.0
C1456 C 0.76193 0.27844 0.62096 0.0
C1457 C 0.75104 0.2662 0.62544 0.0
C1458 C 0.73524 0.26962 0.62896 0.0
C1459 C 0.73028 0.28529 0.62797 0.0
C1460 C 0.74114 0.29759 0.62352 0.0
C1461 C 0.77361 0.33862 0.55255 0.0
C1462 C 0.76063 0.34882 0.55172 0.0
C1463 C 0.77892 0.3324 0.56718 0.0
C1464 C 0.77117 0.33608 0.58115 0.0
C1465 C 0.75846 0.34654 0.58044 0.0
C1466 C 0.75336 0.35303 0.56585 0.0
C1467 C 0.7756 0.32808 0.59627 0.0
C1468 C 0.7646 0.31657 0.60215 0.0
C1469 C 0.79092 0.33073 0.6041 0.0
C1470 C 0.80293 0.34283 0.59836 0.0
C1471 C 0.79886 0.3588 0.59634 0.0
C1472 C 0.8102 0.37012 0.59083 0.0
C1473 C 0.8257 0.36563 0.58737 0.0
C1474 C 0.8299 0.34981 0.58947 0.0
C1475 C 0.8186 0.33845 0.59498 0.0
H1476 H 0.83447 0.3744 0.58311 0.0
H1477 H 0.72682 0.26013 0.63242 0.0
H1478 H 0.51877 0.98053 0.62938 0.0
H1479 H 0.53627 0.9848 0.65341 0.0
H1480 H 0.57839 0.98136 0.62532 0.0
H1481 H 0.56099 0.97705 0.60132 0.0
H1482 H 0.58166 0.96458 0.65206 0.0
H1483 H 0.56563 0.01755 0.63835 0.0
H1484 H 0.54612 0.03823 0.63227 0.0
H1485 H 0.52612 0.0316 0.67828 0.0
H1486 H 0.54538 0.01071 0.68455 0.0
H1487 H 0.64382 0.00019 0.70161 0.0
H1488 H 0.62345 0.99459 0.68028 0.0
H1489 H 0.58575 0.99593 0.71406 0.0
H1490 H 0.60612 0.00162 0.73562 0.0
H1491 H 0.5785 0.01248 0.68632 0.0
H1492 H 0.59593 0.96088 0.70078 0.0
H1493 H 0.61574 0.94051 0.70695 0.0
H1494 H 0.63321 0.94461 0.65964 0.0
H1495 H 0.61366 0.96519 0.65325 0.0
C1496 C 0.53176 0.98082 0.62832 0.0
C1497 C 0.53849 0.97846 0.61344 0.0
C1498 C 0.54175 0.98323 0.64206 0.0
C1499 C 0.55866 0.98353 0.64116 0.0
C1500 C 0.56538 0.98112 0.62633 0.0
C1501 C 0.55542 0.97863 0.61262 0.0
C1502 C 0.56944 0.98632 0.65562 0.0
C1503 C 0.58106 0.97513 0.65946 0.0
C1504 C 0.56835 0.99984 0.66557 0.0
C1505 C 0.55683 0.01245 0.66185 0.0
C1506 C 0.55699 0.02042 0.64712 0.0
C1507 C 0.54599 0.03219 0.64365 0.0
C1508 C 0.53486 0.0362 0.65487 0.0
C1509 C 0.53473 0.02847 0.6696 0.0
C1510 C 0.54569 0.01667 0.67312 0.0
C1511 C 0.63121 0.99932 0.70457 0.0
C1512 C 0.62664 0.00131 0.72038 0.0
C1513 C 0.61958 0.99605 0.69234 0.0
C1514 C 0.6031 0.99466 0.69561 0.0
C1515 C 0.59842 0.9969 0.7113 0.0
C1516 C 0.61008 0.00011 0.7236 0.0
C1517 C 0.59088 0.99089 0.68254 0.0
C1518 C 0.57899 0.00187 0.67899 0.0
C1519 C 0.59171 0.97717 0.67284 0.0
C1520 C 0.60341 0.96468 0.67658 0.0
C1521 C 0.60407 0.95753 0.69173 0.0
C1522 C 0.61525 0.94592 0.69526 0.0
C1523 C 0.62575 0.94129 0.68371 0.0
C1524 C 0.62507 0.94822 0.66858 0.0
C1525 C 0.61394 0.95984 0.66499 0.0
H1526 H 0.6344 0.93231 0.68648 0.0
H1527 H 0.52635 0.04531 0.65216 0.0
H1528 H 0.88808 0.23258 0.7605 0.0
H1529 H 0.91168 0.23817 0.77857 0.0
H1530 H 0.88258 0.22747 0.81894 0.0
H1531 H 0.85888 0.22226 0.80101 0.0
H1532 H 0.90138 0.25454 0.82367 0.0
H1533 H 0.90835 0.20076 0.80575 0.0
H1534 H 0.91087 0.17962 0.7857 0.0
H1535 H 0.95272 0.20462 0.76785 0.0
H1536 H 0.95031 0.22604 0.78767 0.0
H1537 H 0.95934 0.24126 0.88541 0.0
H1538 H 0.9376 0.23871 0.86496 0.0
H1539 H 0.97148 0.25037 0.82867 0.0
H1540 H 0.99348 0.25284 0.8491 0.0
H1541 H 0.95145 0.22472 0.82027 0.0
H1542 H 0.94573 0.27757 0.83938 0.0
H1543 H 0.94339 0.29867 0.85952 0.0
H1544 H 0.89939 0.27571 0.875 0.0
H1545 H 0.90159 0.25434 0.85511 0.0
C1546 C 0.8867 0.23151 0.77324 0.0
C1547 C 0.87163 0.22692 0.77933 0.0
C1548 C 0.90022 0.23459 0.78353 0.0
C1549 C 0.89891 0.23311 0.80009 0.0
C1550 C 0.88386 0.22865 0.80619 0.0
C1551 C 0.87037 0.22553 0.79593 0.0
C1552 C 0.91317 0.23627 0.81113 0.0
C1553 C 0.91228 0.24792 0.82303 0.0
C1554 C 0.92756 0.22797 0.80997 0.0
C1555 C 0.92904 0.21509 0.79807 0.0
C1556 C 0.918 0.20182 0.79746 0.0
C1557 C 0.91943 0.18977 0.78615 0.0
C1558 C 0.93192 0.1908 0.77547 0.0
C1559 C 0.94303 0.20386 0.77611 0.0
C1560 C 0.94165 0.21595 0.78738 0.0
C1561 C 0.96223 0.24335 0.8731 0.0
C1562 C 0.9782 0.2473 0.86893 0.0
C1563 C 0.94974 0.24195 0.86142 0.0
C1564 C 0.95289 0.24452 0.84531 0.0
C1565 C 0.96879 0.24838 0.84105 0.0
C1566 C 0.98133 0.24984 0.85275 0.0
C1567 C 0.93955 0.24281 0.83298 0.0
C1568 C 0.94062 0.23145 0.82083 0.0
C1569 C 0.92532 0.2514 0.83389 0.0
C1570 C 0.9239 0.26428 0.84583 0.0
C1571 C 0.93562 0.27695 0.84716 0.0
C1572 C 0.9343 0.28897 0.85852 0.0
C1573 C 0.92127 0.28851 0.86855 0.0
C1574 C 0.90949 0.27605 0.86723 0.0
C1575 C 0.91076 0.26398 0.8559 0.0
H1576 H 0.92027 0.29783 0.87734 0.0
H1577 H 0.933 0.18146 0.76673 0.0
H1578 H 0.51657 0.92133 0.48484 0.0
H1579 H 0.52166 0.89826 0.46802 0.0
H1580 H 0.47163 0.88208 0.47032 0.0
H1581 H 0.46646 0.90508 0.487 0.0
H1582 H 0.49459 0.85878 0.47839 0.0
H1583 H 0.48309 0.8975 0.4373 0.0
H1584 H 0.4872 0.92313 0.4234 0.0
H1585 H 0.53618 0.91212 0.41481 0.0
H1586 H 0.53242 0.8865 0.42888 0.0
H1587 H 0.48569 0.79556 0.42543 0.0
H1588 H 0.48249 0.82164 0.43738 0.0
H1589 H 0.53093 0.83645 0.42501 0.0
H1590 H 0.53401 0.81036 0.41245 0.0
H1591 H 0.51132 0.86102 0.42233 0.0
H1592 H 0.52376 0.82283 0.46232 0.0
H1593 H 0.52116 0.79737 0.47682 0.0
H1594 H 0.47284 0.80766 0.48872 0.0
H1595 H 0.47505 0.83309 0.47409 0.0
C1596 C 0.50667 0.91287 0.48167 0.0
C1597 C 0.49111 0.91498 0.48719 0.0
C1598 C 0.50956 0.89979 0.47202 0.0
C1599 C 0.49699 0.88854 0.4679 0.0
C1600 C 0.48146 0.89068 0.47333 0.0
C1601 C 0.47851 0.90384 0.48278 0.0
C1602 C 0.50011 0.87408 0.45862 0.0
C1603 C 0.49807 0.85924 0.46608 0.0
C1604 C 0.50528 0.87479 0.44278 0.0
C1605 C 0.50753 0.89017 0.43431 0.0
C1606 C 0.49478 0.90061 0.43259 0.0
C1607 C 0.49704 0.91512 0.42465 0.0
C1608 C 0.51196 0.91927 0.41827 0.0
C1609 C 0.52464 0.9089 0.41978 0.0
C1610 C 0.52245 0.89438 0.42773 0.0
C1611 C 0.49559 0.80444 0.42505 0.0
C1612 C 0.51018 0.80086 0.41821 0.0
C1613 C 0.49377 0.81932 0.43193 0.0
C1614 C 0.50663 0.83084 0.4325 0.0
C1615 C 0.52089 0.82768 0.42482 0.0
C1616 C 0.52264 0.8128 0.41766 0.0
C1617 C 0.50538 0.84565 0.44198 0.0
C1618 C 0.50789 0.86054 0.43465 0.0
C1619 C 0.50089 0.84505 0.45808 0.0
C1620 C 0.49953 0.82981 0.467 0.0
C1621 C 0.51254 0.81961 0.46794 0.0
C1622 C 0.51114 0.8052 0.47619 0.0
C1623 C 0.49683 0.80089 0.48366 0.0
C1624 C 0.48391 0.81101 0.48292 0.0
C1625 C 0.48523 0.82544 0.47466 0.0
H1626 H 0.49578 0.78972 0.49004 0.0
H1627 H 0.51368 0.93051 0.41212 0.0
H1628 H 0.17158 0.30641 0.78069 0.0
H1629 H 0.15082 0.30451 0.80046 0.0
H1630 H 0.11617 0.28566 0.76463 0.0
H1631 H 0.13681 0.288 0.74459 0.0
H1632 H 0.10289 0.30742 0.78386 0.0
H1633 H 0.13351 0.26083 0.79049 0.0
H1634 H 0.15816 0.24566 0.79419 0.0
H1635 H 0.16957 0.26967 0.83875 0.0
H1636 H 0.1451 0.28517 0.8352 0.0
H1637 H 0.04736 0.27361 0.83971 0.0
H1638 H 0.06554 0.2792 0.81796 0.0
H1639 H 0.10219 0.29816 0.85179 0.0
H1640 H 0.08421 0.29252 0.87356 0.0
H1641 H 0.11375 0.27589 0.83277 0.0
H1642 H 0.08258 0.32247 0.82588 0.0
H1643 H 0.05766 0.33719 0.82189 0.0
H1644 H 0.04678 0.31245 0.77763 0.0
H1645 H 0.07153 0.29742 0.78146 0.0
C1646 C 0.15949 0.30207 0.77694 0.0
C1647 C 0.15586 0.29732 0.76107 0.0
C1648 C 0.14767 0.30086 0.78829 0.0
C1649 C 0.13201 0.29477 0.78405 0.0
C1650 C 0.1282 0.29035 0.76815 0.0
C1651 C 0.14004 0.29155 0.75677 0.0
C1652 C 0.11978 0.29264 0.79637 0.0
C1653 C 0.10515 0.30036 0.79446 0.0
C1654 C 0.12284 0.28361 0.81029 0.0
C1655 C 0.13755 0.27427 0.8125 0.0
C1656 C 0.14135 0.26297 0.80102 0.0
C1657 C 0.15528 0.2543 0.8031 0.0
C1658 C 0.16545 0.25673 0.81668 0.0
C1659 C 0.16169 0.26782 0.82823 0.0
C1660 C 0.14778 0.27654 0.8262 0.0
C1661 C 0.05919 0.27922 0.84249 0.0
C1662 C 0.06438 0.28251 0.85839 0.0
C1663 C 0.06955 0.28244 0.83004 0.0
C1664 C 0.08523 0.28908 0.83326 0.0
C1665 C 0.09017 0.29297 0.84904 0.0
C1666 C 0.07985 0.28977 0.86147 0.0
C1667 C 0.09694 0.29089 0.82043 0.0
C1668 C 0.11147 0.28299 0.82219 0.0
C1669 C 0.09371 0.29967 0.80637 0.0
C1670 C 0.07882 0.3087 0.80404 0.0
C1671 C 0.0748 0.32006 0.81536 0.0
C1672 C 0.06072 0.32848 0.81312 0.0
C1673 C 0.05062 0.32572 0.79954 0.0
C1674 C 0.0546 0.31456 0.78815 0.0
C1675 C 0.06866 0.3061 0.79035 0.0
H1676 H 0.03973 0.33226 0.79781 0.0
H1677 H 0.17623 0.25 0.81827 0.0
H1678 H 0.52623 0.58352 0.45446 0.0
H1679 H 0.52572 0.60765 0.43817 0.0
H1680 H 0.51201 0.63465 0.47879 0.0
H1681 H 0.51278 0.6107 0.49523 0.0
H1682 H 0.49445 0.64195 0.4513 0.0
H1683 H 0.55038 0.63626 0.46834 0.0
H1684 H 0.57571 0.62203 0.47124 0.0
H1685 H 0.57737 0.61813 0.42033 0.0
H1686 H 0.5519 0.63215 0.41714 0.0
H1687 H 0.51644 0.72164 0.43251 0.0
H1688 H 0.51301 0.69507 0.44391 0.0
H1689 H 0.53041 0.67444 0.40115 0.0
H1690 H 0.53406 0.70111 0.38969 0.0
H1691 H 0.54489 0.66235 0.42699 0.0
H1692 H 0.49041 0.67037 0.40968 0.0
H1693 H 0.46515 0.68467 0.40665 0.0
H1694 H 0.46045 0.68408 0.45739 0.0
H1695 H 0.48583 0.66999 0.46076 0.0
C1696 C 0.52319 0.5946 0.45995 0.0
C1697 C 0.51962 0.59518 0.47618 0.0
C1698 C 0.52282 0.60836 0.4506 0.0
C1699 C 0.51893 0.62294 0.45731 0.0
C1700 C 0.51497 0.62348 0.47337 0.0
C1701 C 0.51538 0.60977 0.48274 0.0
C1702 C 0.5195 0.63779 0.4478 0.0
C1703 C 0.50549 0.64649 0.44606 0.0
C1704 C 0.5338 0.64343 0.4406 0.0
C1705 C 0.54915 0.63509 0.44251 0.0
C1706 C 0.55608 0.63225 0.45777 0.0
C1707 C 0.57047 0.62425 0.45946 0.0
C1708 C 0.57812 0.61914 0.44598 0.0
C1709 C 0.57141 0.62207 0.43076 0.0
C1710 C 0.55701 0.63005 0.429 0.0
C1711 C 0.51933 0.71146 0.42542 0.0
C1712 C 0.52544 0.71348 0.41015 0.0
C1713 C 0.51732 0.69625 0.43195 0.0
C1714 C 0.52125 0.68274 0.4233 0.0
C1715 C 0.52725 0.6847 0.408 0.0
C1716 C 0.5293 0.69994 0.40147 0.0
C1717 C 0.51988 0.6667 0.43065 0.0
C1718 C 0.53376 0.65774 0.43201 0.0
C1719 C 0.50544 0.66081 0.43745 0.0
C1720 C 0.4901 0.66921 0.43548 0.0
C1721 C 0.48406 0.67339 0.42021 0.0
C1722 C 0.46971 0.68144 0.41842 0.0
C1723 C 0.46122 0.68531 0.43182 0.0
C1724 C 0.46705 0.68109 0.44702 0.0
C1725 C 0.48141 0.67305 0.44888 0.0
H1726 H 0.45011 0.69155 0.43041 0.0
H1727 H 0.58926 0.61294 0.44731 0.0
H1728 H 0.84358 0.78097 0.71185 0.0
H1729 H 0.86508 0.78111 0.69293 0.0
H1730 H 0.89904 0.76786 0.73043 0.0
H1731 H 0.87772 0.76847 0.74967 0.0
H1732 H 0.91278 0.78968 0.71153 0.0
H1733 H 0.88257 0.74013 0.7037 0.0
H1734 H 0.85815 0.72254 0.69897 0.0
H1735 H 0.84862 0.74529 0.65398 0.0
H1736 H 0.87288 0.76318 0.65855 0.0
H1737 H 0.97087 0.76149 0.65762 0.0
H1738 H 0.9518 0.76489 0.67875 0.0
H1739 H 0.91628 0.78076 0.64397 0.0
H1740 H 0.93514 0.77733 0.62284 0.0
H1741 H 0.90413 0.75701 0.66233 0.0
H1742 H 0.93491 0.80665 0.67062 0.0
H1743 H 0.95969 0.82367 0.67569 0.0
H1744 H 0.96876 0.79974 0.72013 0.0
H1745 H 0.94414 0.78242 0.71522 0.0
C1746 C 0.85566 0.77832 0.71618 0.0
C1747 C 0.85887 0.77465 0.73232 0.0
C1748 C 0.86792 0.77823 0.70528 0.0
C1749 C 0.88364 0.77423 0.71019 0.0
C1750 C 0.887 0.77089 0.72634 0.0
C1751 C 0.87474 0.77108 0.73729 0.0
C1752 C 0.89643 0.77326 0.69838 0.0
C1753 C 0.91099 0.78237 0.70087 0.0
C1754 C 0.89403 0.76388 0.68437 0.0
C1755 C 0.87947 0.75309 0.68154 0.0
C1756 C 0.87521 0.74146 0.69285 0.0
C1757 C 0.8614 0.73142 0.69019 0.0
C1758 C 0.85182 0.73282 0.6762 0.0
C1759 C 0.85604 0.74423 0.66482 0.0
C1760 C 0.86983 0.75431 0.66743 0.0
C1761 C 0.9591 0.76594 0.65451 0.0
C1762 C 0.9545 0.76903 0.63852 0.0
C1763 C 0.94822 0.76791 0.66661 0.0
C1764 C 0.9326 0.77306 0.66293 0.0
C1765 C 0.92824 0.7767 0.64707 0.0
C1766 C 0.93907 0.77477 0.63501 0.0
C1767 C 0.92038 0.77362 0.67533 0.0
C1768 C 0.90594 0.76433 0.67298 0.0
C1769 C 0.92298 0.78272 0.68949 0.0
C1770 C 0.93778 0.79313 0.69246 0.0
C1771 C 0.94227 0.80492 0.6814 0.0
C1772 C 0.95627 0.81465 0.68426 0.0
C1773 C 0.96582 0.81276 0.6982 0.0
C1774 C 0.96136 0.80117 0.70933 0.0
C1775 C 0.94738 0.79141 0.70652 0.0
H1776 H 0.97665 0.8203 0.7004 0.0
H1777 H 0.84113 0.72504 0.67416 0.0
H1778 H 0.00391 0.9181 0.52742 0.0
H1779 H 0.00058 0.89342 0.54284 0.0
H1780 H 0.04784 0.87984 0.52987 0.0
H1781 H 0.05128 0.90449 0.51455 0.0
H1782 H 0.02262 0.85611 0.52413 0.0
H1783 H 0.04381 0.89151 0.5661 0.0
H1784 H 0.04433 0.91569 0.58286 0.0
H1785 H 0.9971 0.90231 0.59893 0.0
H1786 H 0.99619 0.87815 0.58207 0.0
H1787 H 0.03433 0.78863 0.57041 0.0
H1788 H 0.03772 0.81545 0.55966 0.0
H1789 H 0.99348 0.82839 0.58055 0.0
H1790 H 0.99019 0.80152 0.59177 0.0
H1791 H 0.01557 0.85289 0.58248 0.0
H1792 H 0.99361 0.81807 0.54134 0.0
H1793 H 0.99163 0.7941 0.52421 0.0
H1794 H 0.0381 0.80668 0.50586 0.0
H1795 H 0.04046 0.83063 0.52306 0.0
C1796 C 0.01361 0.90987 0.52795 0.0
C1797 C 0.02786 0.91319 0.5198 0.0
C1798 C 0.01173 0.89585 0.53681 0.0
C1799 C 0.02399 0.88485 0.53752 0.0
C1800 C 0.03826 0.88821 0.5295 0.0
C1801 C 0.04024 0.90231 0.52083 0.0
C1802 C 0.02166 0.86947 0.54594 0.0
C1803 C 0.02129 0.85538 0.53692 0.0
C1804 C 0.01931 0.86861 0.56252 0.0
C1805 C 0.01985 0.88311 0.57268 0.0
C1806 C 0.03346 0.8938 0.57308 0.0
C1807 C 0.03385 0.90749 0.58263 0.0
C1808 C 0.02074 0.91056 0.59191 0.0
C1809 C 0.00723 0.89993 0.59171 0.0
C1810 C 0.00678 0.88623 0.58217 0.0
C1811 C 0.02537 0.79719 0.57287 0.0
C1812 C 0.01187 0.79286 0.58179 0.0
C1813 C 0.02731 0.81253 0.56666 0.0
C1814 C 0.01565 0.82383 0.56896 0.0
C1815 C 0.00257 0.81983 0.57853 0.0
C1816 C 0.00071 0.80447 0.58493 0.0
C1817 C 0.01684 0.83947 0.5607 0.0
C1818 C 0.01689 0.8536 0.56969 0.0
C1819 C 0.01866 0.84043 0.54401 0.0
C1820 C 0.01727 0.82607 0.5336 0.0
C1821 C 0.00346 0.81566 0.53374 0.0
C1822 C 0.00226 0.80209 0.52401 0.0
C1823 C 0.01475 0.79885 0.51399 0.0
C1824 C 0.02845 0.8092 0.51365 0.0
C1825 C 0.02971 0.82278 0.52337 0.0
H1826 H 0.0138 0.78834 0.50646 0.0
H1827 H 0.02106 0.92117 0.5993 0.0
H1828 H 0.1564 0.72271 0.70513 0.0
H1829 H 0.13416 0.72535 0.68535 0.0
H1830 H 0.10218 0.73592 0.72279 0.0
H1831 H 0.12426 0.73283 0.74269 0.0
H1832 H 0.08753 0.71559 0.7011 0.0
H1833 H 0.11777 0.76559 0.7001 0.0
H1834 H 0.14217 0.78335 0.69813 0.0
H1835 H 0.14904 0.7657 0.65098 0.0
H1836 H 0.1248 0.74766 0.65275 0.0
H1837 H 0.02541 0.74538 0.64912 0.0
H1838 H 0.04652 0.74312 0.6702 0.0
H1839 H 0.08087 0.73241 0.63497 0.0
H1840 H 0.06 0.73482 0.61386 0.0
H1841 H 0.09375 0.75367 0.65638 0.0
H1842 H 0.06391 0.70309 0.6578 0.0
H1843 H 0.03951 0.68534 0.65985 0.0
H1844 H 0.0318 0.70429 0.70632 0.0
H1845 H 0.05606 0.72231 0.70444 0.0
C1846 C 0.1446 0.72541 0.70918 0.0
C1847 C 0.14213 0.72763 0.72549 0.0
C1848 C 0.13193 0.72707 0.69785 0.0
C1849 C 0.11656 0.73106 0.70257 0.0
C1850 C 0.11396 0.73292 0.71886 0.0
C1851 C 0.12663 0.73128 0.73021 0.0
C1852 C 0.10325 0.73339 0.6905 0.0
C1853 C 0.0888 0.72408 0.69145 0.0
C1854 C 0.105 0.74428 0.67776 0.0
C1855 C 0.11955 0.75516 0.67662 0.0
C1856 C 0.12456 0.7654 0.68936 0.0
C1857 C 0.13835 0.77553 0.68827 0.0
C1858 C 0.14717 0.77562 0.67445 0.0
C1859 C 0.1422 0.76561 0.66168 0.0
C1860 C 0.12843 0.75543 0.66272 0.0
C1861 C 0.03746 0.74256 0.64585 0.0
C1862 C 0.04096 0.74025 0.62977 0.0
C1863 C 0.0495 0.74121 0.65793 0.0
C1864 C 0.06524 0.73745 0.65418 0.0
C1865 C 0.06881 0.73532 0.63815 0.0
C1866 C 0.05681 0.73666 0.62609 0.0
C1867 C 0.07809 0.73576 0.66688 0.0
C1868 C 0.09246 0.74522 0.66606 0.0
C1869 C 0.07625 0.72502 0.67974 0.0
C1870 C 0.0617 0.71417 0.6809 0.0
C1871 C 0.05694 0.70356 0.6684 0.0
C1872 C 0.04315 0.69344 0.66954 0.0
C1873 C 0.03409 0.69372 0.68319 0.0
C1874 C 0.03882 0.7041 0.69574 0.0
C1875 C 0.05259 0.71427 0.69465 0.0
H1876 H 0.02342 0.68587 0.68405 0.0
H1877 H 0.15785 0.78348 0.67363 0.0
H1878 H 0.00046 0.58202 0.52478 0.0
H1879 H 0.00625 0.60524 0.54223 0.0
H1880 H 0.95857 0.62171 0.5307 0.0
H1881 H 0.95263 0.59835 0.51371 0.0
H1882 H 0.00867 0.63551 0.53794 0.0
H1883 H 0.94354 0.64088 0.56082 0.0
H1884 H 0.92022 0.62313 0.56745 0.0
H1885 H 0.95171 0.58449 0.57554 0.0
H1886 H 0.97524 0.60206 0.56919 0.0
H1887 H 0.99717 0.71336 0.56464 0.0
H1888 H 0.99693 0.68711 0.55216 0.0
H1889 H 0.98803 0.66499 0.59756 0.0
H1890 H 0.98743 0.69137 0.60993 0.0
H1891 H 0.96921 0.65133 0.57717 0.0
H1892 H 0.02557 0.66336 0.57828 0.0
H1893 H 0.0509 0.67926 0.57454 0.0
H1894 H 0.04084 0.67964 0.52394 0.0
H1895 H 0.01532 0.66393 0.52739 0.0
C1896 C 0.99125 0.59063 0.52601 0.0
C1897 C 0.97605 0.58833 0.51803 0.0
C1898 C 0.99455 0.60388 0.53597 0.0
C1899 C 0.98275 0.61511 0.53804 0.0
C1900 C 0.96773 0.61301 0.52969 0.0
C1901 C 0.96435 0.59968 0.51994 0.0
C1902 C 0.98612 0.62916 0.5487 0.0
C1903 C 1.00009 0.63894 0.54658 0.0
C1904 C 0.97523 0.63338 0.56039 0.0
C1905 C 0.96114 0.62277 0.5644 0.0
C1906 C 0.9455 0.62862 0.56409 0.0
C1907 C 0.93224 0.61859 0.56778 0.0
C1908 C 0.93448 0.60269 0.57187 0.0
C1909 C 0.94999 0.5968 0.57232 0.0
C1910 C 0.96329 0.60679 0.56866 0.0
C1911 C 0.99537 0.7029 0.57201 0.0
C1912 C 0.99231 0.70441 0.58826 0.0
C1913 C 0.99533 0.68785 0.56487 0.0
C1914 C 0.99268 0.67397 0.57392 0.0
C1915 C 0.99007 0.67548 0.59029 0.0
C1916 C 0.98979 0.69056 0.59737 0.0
C1917 C 0.99151 0.65801 0.56606 0.0
C1918 C 0.97793 0.64785 0.56869 0.0
C1919 C 0.00307 0.65316 0.55529 0.0
C1920 C 0.01846 0.66255 0.55312 0.0
C1921 C 0.0287 0.66692 0.56636 0.0
C1922 C 0.04311 0.67589 0.56429 0.0
C1923 C 0.04747 0.68048 0.54902 0.0
C1924 C 0.03745 0.67608 0.53577 0.0
C1925 C 0.02302 0.66712 0.53777 0.0
H1926 H 0.05862 0.68743 0.54744 0.0
H1927 H 0.9242 0.59493 0.57471 0.0
H1928 H 0.75728 0.89432 0.23089 0.0
H1929 H 0.77773 0.91622 0.23385 0.0
H1930 H 0.81548 0.8827 0.23161 0.0
H1931 H 0.79511 0.86069 0.22918 0.0
H1932 H 0.82234 0.90441 0.25477 0.0
H1933 H 0.80489 0.90525 0.19939 0.0
H1934 H 0.78503 0.90632 0.17673 0.0
H1935 H 0.77054 0.95187 0.19285 0.0
H1936 H 0.79017 0.95096 0.21575 0.0
H1937 H 0.88897 0.95542 0.23604 0.0
H1938 H 0.86695 0.9351 0.23542 0.0
H1939 H 0.83237 0.97157 0.23944 0.0
H1940 H 0.85438 0.99212 0.23996 0.0
H1941 H 0.82291 0.94942 0.21651 0.0
H1942 H 0.84158 0.94914 0.27119 0.0
H1943 H 0.86177 0.94806 0.29356 0.0
H1944 H 0.87423 0.90142 0.27859 0.0
H1945 H 0.85427 0.90233 0.25598 0.0
C1946 C 0.76993 0.89158 0.2312 0.0
C1947 C 0.77456 0.87575 0.22975 0.0
C1948 C 0.78161 0.90413 0.23275 0.0
C1949 C 0.79814 0.90112 0.23277 0.0
C1950 C 0.8028 0.88531 0.23157 0.0
C1951 C 0.79114 0.87276 0.23004 0.0
C1952 C 0.81061 0.91442 0.23396 0.0
C1953 C 0.82257 0.91417 0.24631 0.0
C1954 C 0.81066 0.92737 0.22316 0.0
C1955 C 0.79888 0.92795 0.20938 0.0
C1956 C 0.79738 0.91543 0.19818 0.0
C1957 C 0.78617 0.91602 0.18528 0.0
C1958 C 0.77649 0.92913 0.18338 0.0
C1959 C 0.77802 0.94171 0.19436 0.0
C1960 C 0.7892 0.94117 0.20729 0.0
C1961 C 0.87671 0.95918 0.23682 0.0
C1962 C 0.87348 0.97544 0.23809 0.0
C1963 C 0.86412 0.94751 0.23653 0.0
C1964 C 0.84803 0.9518 0.23756 0.0
C1965 C 0.84471 0.96801 0.23868 0.0
C1966 C 0.85732 0.97972 0.23902 0.0
C1967 C 0.83473 0.93932 0.23722 0.0
C1968 C 0.82262 0.93972 0.22504 0.0
C1969 C 0.83456 0.92649 0.24815 0.0
C1970 C 0.84651 0.92586 0.2618 0.0
C1971 C 0.84871 0.9387 0.27259 0.0
C1972 C 0.8601 0.93811 0.28533 0.0
C1973 C 0.86931 0.9247 0.28747 0.0
C1974 C 0.86711 0.91182 0.27691 0.0
C1975 C 0.85574 0.91236 0.26414 0.0
H1976 H 0.87812 0.92426 0.29734 0.0
H1977 H 0.76783 0.92957 0.17338 0.0
H1978 H 0.78556 0.16849 0.26771 0.0
H1979 H 0.80606 0.14861 0.26639 0.0
H1980 H 0.76868 0.11162 0.25825 0.0
H1981 H 0.748 0.13147 0.25992 0.0
H1982 H 0.79207 0.10271 0.28028 0.0
H1983 H 0.79013 0.1247 0.22776 0.0
H1984 H 0.7904 0.14608 0.20764 0.0
H1985 H 0.8383 0.16178 0.2242 0.0
H1986 H 0.83822 0.14063 0.24458 0.0
H1987 H 0.84756 0.04493 0.25574 0.0
H1988 H 0.82506 0.06257 0.25808 0.0
H1989 H 0.85892 0.10301 0.264 0.0
H1990 H 0.88139 0.08555 0.26145 0.0
H1991 H 0.83597 0.10901 0.24209 0.0
H1992 H 0.83755 0.08769 0.29526 0.0
H1993 H 0.83724 0.06649 0.31557 0.0
H1994 H 0.79013 0.04953 0.29787 0.0
H1995 H 0.79025 0.07051 0.27731 0.0
C1996 C 0.78168 0.15612 0.26573 0.0
C1997 C 0.76514 0.15156 0.26391 0.0
C1998 C 0.79342 0.14478 0.26486 0.0
C1999 C 0.78891 0.12865 0.26208 0.0
C2000 C 0.77242 0.12402 0.26036 0.0
C2001 C 0.76064 0.13538 0.26118 0.0
C2002 C 0.80149 0.1167 0.261 0.0
C2003 C 0.80153 0.10392 0.27177 0.0
C2004 C 0.814 0.11846 0.25008 0.0
C2005 C 0.81411 0.13116 0.23779 0.0
C2006 C 0.80068 0.13279 0.22719 0.0
C2007 C 0.8008 0.14485 0.21573 0.0
C2008 C 0.81434 0.15531 0.21467 0.0
C2009 C 0.82781 0.15369 0.22505 0.0
C2010 C 0.82774 0.14165 0.23655 0.0
C2011 C 0.85022 0.05754 0.25775 0.0
C2012 C 0.86629 0.06383 0.25835 0.0
C2013 C 0.83734 0.06762 0.25911 0.0
C2014 C 0.84029 0.08413 0.26123 0.0
C2015 C 0.85634 0.09033 0.26229 0.0
C2016 C 0.86918 0.0803 0.26088 0.0
C2017 C 0.82675 0.09513 0.26157 0.0
C2018 C 0.82649 0.10773 0.25058 0.0
C2019 C 0.81408 0.09319 0.27229 0.0
C2020 C 0.81399 0.08056 0.28464 0.0
C2021 C 0.82718 0.07936 0.29561 0.0
C2022 C 0.82703 0.0674 0.30719 0.0
C2023 C 0.8137 0.05664 0.30798 0.0
C2024 C 0.80046 0.05785 0.29723 0.0
C2025 C 0.80056 0.06978 0.28562 0.0
H2026 H 0.8136 0.04739 0.31695 0.0
H2027 H 0.81442 0.16464 0.20579 0.0
H2028 H 0.38245 0.98713 0.97531 0.0
H2029 H 0.35855 0.97006 0.98075 0.0
H2030 H 0.38546 0.92829 0.97236 0.0
H2031 H 0.40934 0.94526 0.96689 0.0
H2032 H 0.35612 0.92544 0.9579 0.0
H2033 H 0.37783 0.94071 0.01024 0.0
H2034 H 0.38736 0.95967 0.03146 0.0
H2035 H 0.3407 0.97994 0.03066 0.0
H2036 H 0.33095 0.96123 0.00926 0.0
H2037 H 0.31101 0.86433 0.99535 0.0
H2038 H 0.33173 0.88445 0.98856 0.0
H2039 H 0.29813 0.92148 0.99457 0.0
H2040 H 0.27717 0.90135 0.00143 0.0
H2041 H 0.32867 0.92857 0.00914 0.0
H2042 H 0.30638 0.91165 0.9582 0.0
H2043 H 0.2969 0.89217 0.93743 0.0
H2044 H 0.34469 0.87471 0.93584 0.0
H2045 H 0.35442 0.89392 0.95679 0.0
C2046 C 0.3833 0.9743 0.97475 0.0
C2047 C 0.3978 0.96755 0.97069 0.0
C2048 C 0.36963 0.96457 0.97783 0.0
C2049 C 0.37025 0.94789 0.97709 0.0
C2050 C 0.38467 0.94113 0.97294 0.0
C2051 C 0.39831 0.95085 0.96979 0.0
C2052 C 0.35591 0.93739 0.98063 0.0
C2053 C 0.35021 0.92604 0.96917 0.0
C2054 C 0.34789 0.93847 0.99514 0.0
C2055 C 0.35372 0.94969 0.00803 0.0
C2056 C 0.36964 0.9493 0.0145 0.0
C2057 C 0.37508 0.95998 0.02657 0.0
C2058 C 0.36466 0.97104 0.03237 0.0
C2059 C 0.34877 0.97139 0.02614 0.0
C2060 C 0.34328 0.96075 0.01404 0.0
C2061 C 0.30796 0.87674 0.99525 0.0
C2062 C 0.29237 0.8812 0.9989 0.0
C2063 C 0.31983 0.88822 0.9913 0.0
C2064 C 0.31641 0.90443 0.9909 0.0
C2065 C 0.30098 0.90901 0.99476 0.0
C2066 C 0.28901 0.89749 0.99862 0.0
C2067 C 0.32912 0.91647 0.98654 0.0
C2068 C 0.33449 0.9281 0.99783 0.0
C2069 C 0.33686 0.91564 0.97189 0.0
C2070 C 0.3311 0.90415 0.95916 0.0
C2071 C 0.31485 0.90358 0.95351 0.0
C2072 C 0.30943 0.8926 0.94169 0.0
C2073 C 0.32018 0.88219 0.93535 0.0
C2074 C 0.33638 0.88277 0.94078 0.0
C2075 C 0.34186 0.89372 0.95261 0.0
H2076 H 0.31595 0.87369 0.92621 0.0
H2077 H 0.36889 0.9793 0.04172 0.0
H2078 H 0.22211 0.33234 0.27663 0.0
H2079 H 0.20443 0.35489 0.27734 0.0
H2080 H 0.24343 0.38635 0.26209 0.0
H2081 H 0.2613 0.36415 0.26209 0.0
H2082 H 0.22891 0.39963 0.28543 0.0
H2083 H 0.21153 0.37221 0.23642 0.0
H2084 H 0.20087 0.34922 0.2202 0.0
H2085 H 0.15759 0.34699 0.24664 0.0
H2086 H 0.1681 0.36985 0.26317 0.0
H2087 H 0.19563 0.46431 0.24658 0.0
H2088 H 0.20653 0.43828 0.25135 0.0
H2089 H 0.16525 0.42427 0.27851 0.0
H2090 H 0.15417 0.45068 0.27401 0.0
H2091 H 0.17711 0.40069 0.25355 0.0
H2092 H 0.19407 0.43114 0.30023 0.0
H2093 H 0.20518 0.45503 0.31476 0.0
H2094 H 0.24992 0.45211 0.29115 0.0
H2095 H 0.23897 0.42834 0.27627 0.0
C2096 C 0.22695 0.34408 0.27355 0.0
C2097 C 0.24313 0.34638 0.26921 0.0
C2098 C 0.21677 0.35694 0.27382 0.0
C2099 C 0.22255 0.37231 0.26964 0.0
C2100 C 0.23868 0.37461 0.26536 0.0
C2101 C 0.24885 0.36183 0.26517 0.0
C2102 C 0.21202 0.38617 0.26979 0.0
C2103 C 0.21759 0.39982 0.27844 0.0
C2104 C 0.19699 0.38633 0.26106 0.0
C2105 C 0.19069 0.37259 0.25116 0.0
C2106 C 0.19981 0.36672 0.23887 0.0
C2107 C 0.19378 0.35374 0.2296 0.0
C2108 C 0.17859 0.34661 0.23243 0.0
C2109 C 0.16937 0.35249 0.2445 0.0
C2110 C 0.17535 0.36546 0.25381 0.0
C2111 C 0.18871 0.45573 0.25348 0.0
C2112 C 0.17401 0.45965 0.25996 0.0
C2113 C 0.19501 0.44084 0.2562 0.0
C2114 C 0.18673 0.42943 0.26533 0.0
C2115 C 0.1718 0.43298 0.27143 0.0
C2116 C 0.16553 0.44806 0.26889 0.0
C2117 C 0.19431 0.41413 0.26881 0.0
C2118 C 0.18822 0.40028 0.26084 0.0
C2119 C 0.20895 0.41379 0.27804 0.0
C2120 C 0.21565 0.42801 0.28705 0.0
C2121 C 0.20623 0.43566 0.29803 0.0
C2122 C 0.2125 0.44917 0.30635 0.0
C2123 C 0.22824 0.4551 0.30386 0.0
C2124 C 0.23773 0.44751 0.29306 0.0
C2125 C 0.2315 0.434 0.2847 0.0
H2126 H 0.23308 0.46556 0.31031 0.0
H2127 H 0.17394 0.33656 0.22524 0.0
H2128 H 0.10924 0.04642 0.4834 0.0
H2129 H 0.13309 0.06456 0.48608 0.0
H2130 H 0.16301 0.02476 0.49599 0.0
H2131 H 0.13912 0.00645 0.49324 0.0
H2132 H 0.17073 0.04914 0.51624 0.0
H2133 H 0.16364 0.04287 0.45995 0.0
H2134 H 0.14883 0.04215 0.43383 0.0
H2135 H 0.13875 0.09159 0.43879 0.0
H2136 H 0.1533 0.09255 0.46507 0.0
H2137 H 0.24264 0.09967 0.50973 0.0
H2138 H 0.22214 0.07795 0.50509 0.0
H2139 H 0.18585 0.11234 0.49581 0.0
H2140 H 0.20613 0.13403 0.50028 0.0
H2141 H 0.18362 0.08837 0.47394 0.0
H2142 H 0.18875 0.09356 0.53139 0.0
H2143 H 0.20358 0.09404 0.55751 0.0
H2144 H 0.21775 0.04614 0.54994 0.0
H2145 H 0.20317 0.04546 0.52366 0.0
C2146 C 0.12091 0.04147 0.48596 0.0
C2147 C 0.12227 0.02495 0.48799 0.0
C2148 C 0.13455 0.05188 0.48752 0.0
C2149 C 0.14989 0.04601 0.49101 0.0
C2150 C 0.1513 0.02955 0.49326 0.0
C2151 C 0.13763 0.01911 0.49173 0.0
C2152 C 0.16435 0.05717 0.49253 0.0
C2153 C 0.17374 0.05751 0.50687 0.0
C2154 C 0.16817 0.06824 0.48039 0.0
C2155 C 0.15946 0.06775 0.46455 0.0
C2156 C 0.15817 0.05356 0.45553 0.0
C2157 C 0.14983 0.05312 0.44069 0.0
C2158 C 0.14282 0.06681 0.43467 0.0
C2159 C 0.14417 0.08099 0.44347 0.0
C2160 C 0.15248 0.0815 0.45834 0.0
C2161 C 0.2303 0.10261 0.50667 0.0
C2162 C 0.22605 0.11863 0.50544 0.0
C2163 C 0.21859 0.09018 0.50407 0.0
C2164 C 0.20244 0.09353 0.5002 0.0
C2165 C 0.19823 0.10947 0.49876 0.0
C2166 C 0.20987 0.12187 0.5014 0.0
C2167 C 0.18975 0.08055 0.49776 0.0
C2168 C 0.18072 0.07986 0.48322 0.0
C2169 C 0.18631 0.06913 0.50969 0.0
C2170 C 0.19504 0.06953 0.52549 0.0
C2171 C 0.19515 0.08318 0.53524 0.0
C2172 C 0.20348 0.08348 0.55008 0.0
C2173 C 0.21164 0.07015 0.55536 0.0
C2174 C 0.21145 0.05647 0.54582 0.0
C2175 C 0.20315 0.05612 0.53096 0.0
H2176 H 0.21809 0.0704 0.56686 0.0
H2177 H 0.13638 0.06644 0.42317 0.0
H2178 H 0.72098 0.17615 0.73146 0.0
H2179 H 0.70261 0.1529 0.73574 0.0
H2180 H 0.74294 0.12222 0.73552 0.0
H2181 H 0.76132 0.14537 0.7312 0.0
H2182 H 0.71582 0.11068 0.71685 0.0
H2183 H 0.72867 0.13199 0.76981 0.0
H2184 H 0.73033 0.15307 0.79039 0.0
H2185 H 0.67898 0.15781 0.78535 0.0
H2186 H 0.67705 0.1369 0.76455 0.0
H2187 H 0.69008 0.03952 0.75333 0.0
H2188 H 0.70328 0.06453 0.74525 0.0
H2189 H 0.66001 0.08923 0.7541 0.0
H2190 H 0.64675 0.0641 0.7626 0.0
H2191 H 0.68553 0.10539 0.76645 0.0
H2192 H 0.67179 0.08242 0.71566 0.0
H2193 H 0.66958 0.06153 0.69489 0.0
H2194 H 0.72134 0.06034 0.69494 0.0
H2195 H 0.72387 0.08106 0.71589 0.0
C2196 C 0.72589 0.16442 0.73225 0.0
C2197 C 0.74257 0.16255 0.73106 0.0
C2198 C 0.71541 0.15119 0.73475 0.0
C2199 C 0.72145 0.13588 0.736 0.0
C2200 C 0.73806 0.13395 0.73459 0.0
C2201 C 0.74855 0.14718 0.73225 0.0
C2202 C 0.71056 0.12181 0.73903 0.0
C2203 C 0.70926 0.10944 0.72773 0.0
C2204 C 0.70159 0.1205 0.75297 0.0
C2205 C 0.70274 0.13302 0.7655 0.0
C2206 C 0.71775 0.13763 0.77299 0.0
C2207 C 0.71874 0.14953 0.78471 0.0
C2208 C 0.70478 0.15681 0.78914 0.0
C2209 C 0.68979 0.15218 0.78188 0.0
C2210 C 0.68874 0.1403 0.77013 0.0
C2211 C 0.68325 0.0502 0.75336 0.0
C2212 C 0.66731 0.0498 0.7585 0.0
C2213 C 0.69082 0.06453 0.74868 0.0
C2214 C 0.68256 0.07875 0.7488 0.0
C2215 C 0.66659 0.07839 0.75384 0.0
C2216 C 0.65902 0.06403 0.75865 0.0
C2217 C 0.691 0.09402 0.7444 0.0
C2218 C 0.69185 0.10666 0.75544 0.0
C2219 C 0.69945 0.09563 0.73013 0.0
C2220 C 0.69801 0.08323 0.71743 0.0
C2221 C 0.6827 0.07763 0.71132 0.0
C2222 C 0.68139 0.06583 0.6995 0.0
C2223 C 0.69531 0.05959 0.69362 0.0
C2224 C 0.71057 0.06518 0.69951 0.0
C2225 C 0.71195 0.07697 0.71135 0.0
H2226 H 0.69427 0.05045 0.68447 0.0
H2227 H 0.70557 0.16601 0.79823 0.0
H2228 H 0.43166 0.04811 0.54685 0.0
H2229 H 0.40909 0.06514 0.54095 0.0
H2230 H 0.37907 0.02393 0.5261 0.0
H2231 H 0.40171 0.00677 0.53192 0.0
H2232 H 0.37469 0.04814 0.50588 0.0
H2233 H 0.3744 0.04136 0.56218 0.0
H2234 H 0.38583 0.041 0.58978 0.0
H2235 H 0.39858 0.09108 0.58711 0.0
H2236 H 0.38743 0.0917 0.5594 0.0
H2237 H 0.30269 0.09408 0.50828 0.0
H2238 H 0.32272 0.07362 0.51215 0.0
H2239 H 0.35929 0.11014 0.52517 0.0
H2240 H 0.33953 0.13052 0.52137 0.0
H2241 H 0.358 0.08593 0.54689 0.0
H2242 H 0.35936 0.09176 0.48961 0.0
H2243 H 0.34748 0.09158 0.46216 0.0
H2244 H 0.33165 0.04246 0.46722 0.0
H2245 H 0.34326 0.04242 0.4948 0.0
C2246 C 0.42021 0.04264 0.54247 0.0
C2247 C 0.41844 0.02608 0.53999 0.0
C2248 C 0.40732 0.05239 0.53907 0.0
C2249 C 0.39229 0.04579 0.5333 0.0
C2250 C 0.39054 0.02928 0.53056 0.0
C2251 C 0.40348 0.01951 0.53388 0.0
C2252 C 0.37849 0.0562 0.5302 0.0
C2253 C 0.37085 0.05622 0.51492 0.0
C2254 C 0.37354 0.06683 0.54196 0.0
C2255 C 0.38019 0.06654 0.55866 0.0
C2256 C 0.37974 0.05227 0.56743 0.0
C2257 C 0.38615 0.05203 0.58311 0.0
C2258 C 0.39295 0.066 0.59018 0.0
C2259 C 0.39332 0.08026 0.58161 0.0
C2260 C 0.38694 0.08057 0.56592 0.0
C2261 C 0.31505 0.09774 0.51178 0.0
C2262 C 0.31948 0.11393 0.51459 0.0
C2263 C 0.32647 0.08605 0.51397 0.0
C2264 C 0.34248 0.09037 0.51898 0.0
C2265 C 0.34698 0.10654 0.52138 0.0
C2266 C 0.33565 0.11818 0.51915 0.0
C2267 C 0.35452 0.07816 0.52248 0.0
C2268 C 0.36176 0.07776 0.53788 0.0
C2269 C 0.35898 0.06712 0.51089 0.0
C2270 C 0.352 0.06714 0.49432 0.0
C2271 C 0.35321 0.08097 0.48492 0.0
C2272 C 0.34656 0.08089 0.46933 0.0
C2273 C 0.33877 0.06703 0.46297 0.0
C2274 C 0.33766 0.0532 0.47217 0.0
C2275 C 0.34428 0.05321 0.48778 0.0
H2276 H 0.33363 0.067 0.45089 0.0
H2277 H 0.39791 0.06578 0.60232 0.0
H2278 H 0.58556 0.45788 0.50426 0.0
H2279 H 0.60725 0.43949 0.50119 0.0
H2280 H 0.64197 0.47934 0.49925 0.0
H2281 H 0.62021 0.49781 0.50198 0.0
H2282 H 0.64848 0.45777 0.47791 0.0
H2283 H 0.63792 0.45677 0.5334 0.0
H2284 H 0.62129 0.45418 0.557 0.0
H2285 H 0.607 0.40599 0.54361 0.0
H2286 H 0.62338 0.40837 0.51979 0.0
H2287 H 0.71733 0.4102 0.49577 0.0
H2288 H 0.69661 0.43012 0.49521 0.0
H2289 H 0.65925 0.39251 0.49293 0.0
H2290 H 0.67977 0.3726 0.49353 0.0
H2291 H 0.65505 0.41382 0.51674 0.0
H2292 H 0.66632 0.41555 0.46084 0.0
H2293 H 0.68375 0.41879 0.43787 0.0
H2294 H 0.69801 0.46642 0.45318 0.0
H2295 H 0.68083 0.46339 0.47638 0.0
C2296 C 0.59783 0.4627 0.50324 0.0
C2297 C 0.60122 0.47926 0.50347 0.0
C2298 C 0.61022 0.45219 0.50149 0.0
C2299 C 0.6263 0.45802 0.50026 0.0
C2300 C 0.62967 0.47457 0.5002 0.0
C2301 C 0.61724 0.4851 0.50176 0.0
C2302 C 0.63958 0.4468 0.49922 0.0
C2303 C 0.65006 0.44829 0.48652 0.0
C2304 C 0.64155 0.43432 0.51035 0.0
C2305 C 0.63177 0.4328 0.52473 0.0
C2306 C 0.63115 0.44566 0.53543 0.0
C2307 C 0.62177 0.44422 0.54885 0.0
C2308 C 0.61306 0.42994 0.55178 0.0
C2309 C 0.61374 0.41705 0.54131 0.0
C2310 C 0.62308 0.41843 0.52785 0.0
C2311 C 0.7047 0.40618 0.49489 0.0
C2312 C 0.7002 0.3898 0.4948 0.0
C2313 C 0.69288 0.41758 0.49455 0.0
C2314 C 0.67639 0.41278 0.49405 0.0
C2315 C 0.67191 0.39647 0.49338 0.0
C2316 C 0.68368 0.3851 0.49368 0.0
C2317 C 0.66377 0.42463 0.4953 0.0
C2318 C 0.65347 0.4233 0.50812 0.0
C2319 C 0.66211 0.43734 0.4844 0.0
C2320 C 0.67242 0.43918 0.47044 0.0
C2321 C 0.67328 0.42667 0.45939 0.0
C2322 C 0.68309 0.42848 0.44631 0.0
C2323 C 0.69202 0.44279 0.44409 0.0
C2324 C 0.69111 0.45534 0.45493 0.0
C2325 C 0.68133 0.45358 0.46803 0.0
H2326 H 0.69961 0.44416 0.43396 0.0
H2327 H 0.60581 0.42885 0.56218 0.0
H2328 H 0.73895 0.24563 0.36238 0.0
H2329 H 0.74074 0.26271 0.38588 0.0
H2330 H 0.72102 0.30112 0.35831 0.0
H2331 H 0.71984 0.2842 0.33439 0.0
H2332 H 0.7457 0.31202 0.3782 0.0
H2333 H 0.69728 0.28022 0.3834 0.0
H2334 H 0.67984 0.2556 0.38336 0.0
H2335 H 0.70886 0.23716 0.42209 0.0
H2336 H 0.72663 0.26157 0.4222 0.0
H2337 H 0.73464 0.35153 0.4542 0.0
H2338 H 0.72862 0.33956 0.42774 0.0
H2339 H 0.75322 0.29755 0.44247 0.0
H2340 H 0.75944 0.30936 0.46867 0.0
H2341 H 0.72186 0.29145 0.42781 0.0
H2342 H 0.77189 0.32253 0.41989 0.0
H2343 H 0.78876 0.34755 0.41995 0.0
H2344 H 0.75522 0.36802 0.38631 0.0
H2345 H 0.73801 0.34319 0.38624 0.0
C2346 C 0.7352 0.25777 0.36119 0.0
C2347 C 0.72927 0.26353 0.34645 0.0
C2348 C 0.73604 0.26748 0.37471 0.0
C2349 C 0.73076 0.28312 0.37392 0.0
C2350 C 0.72506 0.28905 0.35921 0.0
C2351 C 0.72427 0.27933 0.34559 0.0
C2352 C 0.73121 0.29306 0.3886 0.0
C2353 C 0.7402 0.30768 0.38896 0.0
C2354 C 0.72408 0.2874 0.40267 0.0
C2355 C 0.71335 0.27271 0.40274 0.0
C2356 C 0.70001 0.27087 0.39184 0.0
C2357 C 0.69005 0.25696 0.39181 0.0
C2358 C 0.69325 0.24481 0.4027 0.0
C2359 C 0.7064 0.24657 0.41366 0.0
C2360 C 0.7164 0.26046 0.41372 0.0
C2361 C 0.73879 0.33976 0.45177 0.0
C2362 C 0.74754 0.33141 0.46354 0.0
C2363 C 0.73537 0.33297 0.43666 0.0
C2364 C 0.74048 0.31768 0.43321 0.0
C2365 C 0.74915 0.30935 0.44494 0.0
C2366 C 0.75275 0.31617 0.45989 0.0
C2367 C 0.73676 0.31006 0.41749 0.0
C2368 C 0.7271 0.29589 0.41695 0.0
C2369 C 0.74315 0.31623 0.40329 0.0
C2370 C 0.75356 0.33109 0.40322 0.0
C2371 C 0.76804 0.33242 0.41262 0.0
C2372 C 0.77768 0.34655 0.41263 0.0
C2373 C 0.77304 0.35939 0.40318 0.0
C2374 C 0.75878 0.35809 0.39365 0.0
C2375 C 0.74908 0.34398 0.39362 0.0
H2376 H 0.78052 0.37032 0.40322 0.0
H2377 H 0.68553 0.23404 0.40266 0.0
H2378 H 0.51682 0.03792 0.89051 0.0
H2379 H 0.53278 0.03255 0.86736 0.0
H2380 H 0.53708 0.98385 0.88267 0.0
H2381 H 0.52094 0.98913 0.90583 0.0
H2382 H 0.56694 0.00027 0.87444 0.0
H2383 H 0.51321 0.98905 0.85264 0.0
H2384 H 0.48459 0.99455 0.8468 0.0
H2385 H 0.49892 0.03615 0.82023 0.0
H2386 H 0.52764 0.03104 0.82612 0.0
H2387 H 0.60783 0.98239 0.80462 0.0
H2388 H 0.58788 0.98022 0.8253 0.0
H2389 H 0.56987 0.02572 0.81113 0.0
H2390 H 0.58928 0.02769 0.79017 0.0
H2391 H 0.54567 0.00708 0.81882 0.0
H2392 H 0.59823 0.02127 0.84312 0.0
H2393 H 0.62716 0.01788 0.84973 0.0
H2394 H 0.61553 0.97314 0.87225 0.0
H2395 H 0.58652 0.97619 0.86559 0.0
C2396 C 0.52118 0.02608 0.88893 0.0
C2397 C 0.51768 0.01394 0.89994 0.0
C2398 C 0.5302 0.023 0.87568 0.0
C2399 C 0.53601 0.00778 0.87328 0.0
C2400 C 0.53264 0.99565 0.8843 0.0
C2401 C 0.5234 0.99866 0.89745 0.0
C2402 C 0.54595 0.00477 0.85943 0.0
C2403 C 0.56224 0.00142 0.86225 0.0
C2404 C 0.53986 0.00667 0.84359 0.0
C2405 C 0.52259 0.00972 0.83993 0.0
C2406 C 0.51027 0.99944 0.84566 0.0
C2407 C 0.49402 0.00248 0.84232 0.0
C2408 C 0.48994 0.01571 0.83318 0.0
C2409 C 0.5021 0.02591 0.82732 0.0
C2410 C 0.51837 0.02294 0.83064 0.0
C2411 C 0.59945 0.99181 0.80576 0.0
C2412 C 0.60026 0.00529 0.79584 0.0
C2413 C 0.58811 0.9906 0.81765 0.0
C2414 C 0.57758 0.00297 0.82002 0.0
C2415 C 0.57787 0.01604 0.8096 0.0
C2416 C 0.58904 0.01716 0.79762 0.0
C2417 C 0.56683 0.00286 0.83378 0.0
C2418 C 0.55037 0.00566 0.83097 0.0
C2419 C 0.57283 0.00071 0.84968 0.0
C2420 C 0.59024 0.99886 0.85368 0.0
C2421 C 0.60186 0.01066 0.84937 0.0
C2422 C 0.61826 0.0088 0.85314 0.0
C2423 C 0.62318 0.99528 0.86136 0.0
C2424 C 0.6117 0.98359 0.86585 0.0
C2425 C 0.59528 0.98538 0.86209 0.0
H2426 H 0.63589 0.99387 0.86427 0.0
H2427 H 0.47736 0.01804 0.83061 0.0
H2428 H 0.27802 0.25083 0.36535 0.0
H2429 H 0.27852 0.23379 0.38872 0.0
H2430 H 0.29747 0.19602 0.36118 0.0
H2431 H 0.2962 0.21284 0.33734 0.0
H2432 H 0.27496 0.18412 0.38008 0.0
H2433 H 0.32219 0.21746 0.38804 0.0
H2434 H 0.33904 0.24248 0.38903 0.0
H2435 H 0.31083 0.26017 0.42637 0.0
H2436 H 0.29364 0.23536 0.42546 0.0
H2437 H 0.28636 0.14829 0.45996 0.0
H2438 H 0.29306 0.15853 0.43343 0.0
H2439 H 0.26556 0.19992 0.44148 0.0
H2440 H 0.25863 0.18984 0.46753 0.0
H2441 H 0.29866 0.20598 0.4313 0.0
H2442 H 0.24894 0.17346 0.41883 0.0
H2443 H 0.23294 0.14792 0.41759 0.0
H2444 H 0.26832 0.12774 0.38862 0.0
H2445 H 0.28465 0.15313 0.38988 0.0
C2446 C 0.2821 0.23884 0.36414 0.0
C2447 C 0.28701 0.23322 0.3494 0.0
C2448 C 0.28261 0.22916 0.37761 0.0
C2449 C 0.28834 0.21371 0.37681 0.0
C2450 C 0.29313 0.20794 0.36211 0.0
C2451 C 0.29252 0.21763 0.34853 0.0
C2452 C 0.28892 0.20368 0.39138 0.0
C2453 C 0.28048 0.18875 0.3912 0.0
C2454 C 0.2962 0.20961 0.40592 0.0
C2455 C 0.30657 0.22455 0.40663 0.0
C2456 C 0.31951 0.22672 0.39641 0.0
C2457 C 0.32913 0.24086 0.39696 0.0
C2458 C 0.326 0.25291 0.40775 0.0
C2459 C 0.31325 0.25083 0.41803 0.0
C2460 C 0.30358 0.23671 0.41751 0.0
C2461 C 0.28167 0.15951 0.456 0.0
C2462 C 0.27195 0.16822 0.46589 0.0
C2463 C 0.2855 0.16532 0.44088 0.0
C2464 C 0.27984 0.18 0.4356 0.0
C2465 C 0.27009 0.1886 0.44539 0.0
C2466 C 0.26608 0.18274 0.46028 0.0
C2467 C 0.28413 0.18689 0.42004 0.0
C2468 C 0.29353 0.20122 0.42007 0.0
C2469 C 0.27796 0.1803 0.40539 0.0
C2470 C 0.26812 0.1651 0.40464 0.0
C2471 C 0.25339 0.16352 0.41234 0.0
C2472 C 0.24424 0.14909 0.4116 0.0
C2473 C 0.24964 0.1362 0.40308 0.0
C2474 C 0.26418 0.13773 0.39524 0.0
C2475 C 0.27338 0.15213 0.39597 0.0
H2476 H 0.24254 0.12504 0.40252 0.0
H2477 H 0.33346 0.26386 0.40815 0.0
H2478 H 0.49033 0.5256 0.91193 0.0
H2479 H 0.47271 0.52823 0.88792 0.0
H2480 H 0.47586 0.47804 0.87816 0.0
H2481 H 0.4935 0.47534 0.90203 0.0
H2482 H 0.48289 0.49747 0.85233 0.0
H2483 H 0.44177 0.49119 0.8911 0.0
H2484 H 0.42807 0.49795 0.91555 0.0
H2485 H 0.42008 0.54486 0.89739 0.0
H2486 H 0.43395 0.53845 0.87291 0.0
H2487 H 0.42836 0.48505 0.7883 0.0
H2488 H 0.44022 0.4836 0.8153 0.0
H2489 H 0.4303 0.53292 0.82321 0.0
H2490 H 0.41786 0.5343 0.79617 0.0
H2491 H 0.42675 0.51581 0.85025 0.0
H2492 H 0.46743 0.52301 0.81202 0.0
H2493 H 0.48166 0.51745 0.78756 0.0
H2494 H 0.49159 0.47062 0.8048 0.0
H2495 H 0.4772 0.47582 0.82927 0.0
C2496 C 0.48718 0.51512 0.90469 0.0
C2497 C 0.4933 0.50026 0.90885 0.0
C2498 C 0.47704 0.51662 0.89106 0.0
C2499 C 0.47293 0.50331 0.8813 0.0
C2500 C 0.47885 0.48844 0.88556 0.0
C2501 C 0.48884 0.4869 0.89924 0.0
C2502 C 0.4633 0.50498 0.86614 0.0
C2503 C 0.47054 0.50127 0.85189 0.0
C2504 C 0.44742 0.51055 0.86555 0.0
C2505 C 0.43906 0.5144 0.88025 0.0
C2506 C 0.43723 0.503 0.89238 0.0
C2507 C 0.4294 0.50675 0.90623 0.0
C2508 C 0.42325 0.52184 0.90805 0.0
C2509 C 0.42487 0.53319 0.89599 0.0
C2510 C 0.4327 0.52949 0.88211 0.0
C2511 C 0.42846 0.49553 0.79586 0.0
C2512 C 0.42238 0.50986 0.79005 0.0
C2513 C 0.4353 0.4947 0.81129 0.0
C2514 C 0.43657 0.50827 0.82113 0.0
C2515 C 0.42956 0.52233 0.81577 0.0
C2516 C 0.42245 0.52311 0.80033 0.0
C2517 C 0.44624 0.50794 0.83646 0.0
C2518 C 0.43909 0.512 0.85069 0.0
C2519 C 0.46234 0.5029 0.83708 0.0
C2520 C 0.47112 0.49976 0.82242 0.0
C2521 C 0.47255 0.51149 0.81054 0.0
C2522 C 0.48066 0.50841 0.79668 0.0
C2523 C 0.4875 0.49368 0.79461 0.0
C2524 C 0.48627 0.48202 0.80641 0.0
C2525 C 0.47816 0.48503 0.82029 0.0
H2526 H 0.49377 0.49132 0.78387 0.0
H2527 H 0.41719 0.52472 0.91878 0.0
H2528 H 0.71852 0.75447 0.14251 0.0
H2529 H 0.72224 0.73365 0.12278 0.0
H2530 H 0.76886 0.7246 0.14506 0.0
H2531 H 0.76539 0.74589 0.16442 0.0
H2532 H 0.77174 0.72482 0.11506 0.0
H2533 H 0.73406 0.6986 0.14852 0.0
H2534 H 0.7093 0.6949 0.16364 0.0
H2535 H 0.68016 0.69723 0.12023 0.0
H2536 H 0.70475 0.70117 0.10486 0.0
H2537 H 0.77949 0.6532 0.07086 0.0
H2538 H 0.77378 0.66938 0.0941 0.0
H2539 H 0.73632 0.6922 0.06661 0.0
H2540 H 0.74216 0.67633 0.04326 0.0
H2541 H 0.72926 0.68304 0.10048 0.0
H2542 H 0.76863 0.71148 0.06807 0.0
H2543 H 0.79414 0.71376 0.05397 0.0
H2544 H 0.82103 0.70508 0.09772 0.0
H2545 H 0.79562 0.7025 0.11203 0.0
C2546 C 0.7295 0.74795 0.14323 0.0
C2547 C 0.74166 0.75176 0.15497 0.0
C2548 C 0.7316 0.73598 0.13201 0.0
C2549 C 0.74572 0.7273 0.13256 0.0
C2550 C 0.75785 0.73109 0.14436 0.0
C2551 C 0.75588 0.74325 0.15541 0.0
C2552 C 0.74813 0.71479 0.12041 0.0
C2553 C 0.76253 0.71554 0.11214 0.0
C2554 C 0.73609 0.70271 0.11637 0.0
C2555 C 0.72125 0.70032 0.12555 0.0
C2556 C 0.72237 0.69844 0.14221 0.0
C2557 C 0.70837 0.69628 0.15082 0.0
C2558 C 0.69317 0.69587 0.14291 0.0
C2559 C 0.69194 0.69757 0.12635 0.0
C2560 C 0.70591 0.69975 0.11767 0.0
C2561 C 0.76983 0.66145 0.06984 0.0
C2562 C 0.76136 0.6636 0.05519 0.0
C2563 C 0.76662 0.67069 0.08311 0.0
C2564 C 0.7547 0.68201 0.08199 0.0
C2565 C 0.74556 0.6835 0.06767 0.0
C2566 C 0.74897 0.67448 0.05432 0.0
C2567 C 0.75272 0.69326 0.09527 0.0
C2568 C 0.73845 0.69227 0.10365 0.0
C2569 C 0.76496 0.70494 0.09964 0.0
C2570 C 0.78023 0.70661 0.09107 0.0
C2571 C 0.77997 0.70991 0.07464 0.0
C2572 C 0.79441 0.71128 0.06662 0.0
C2573 C 0.8092 0.70951 0.07493 0.0
C2574 C 0.80957 0.70641 0.09129 0.0
C2575 C 0.79515 0.705 0.09937 0.0
H2576 H 0.82036 0.71059 0.0687 0.0
H2577 H 0.68234 0.69419 0.1496 0.0
H2578 H 0.98901 0.98938 0.09155 0.0
H2579 H 0.97263 0.98964 0.11499 0.0
H2580 H 0.96611 0.03996 0.10848 0.0
H2581 H 0.98352 0.04009 0.0859 0.0
H2582 H 0.9718 0.03531 0.1378 0.0
H2583 H 0.93551 0.00956 0.09908 0.0
H2584 H 0.92633 0.98974 0.07853 0.0
H2585 H 0.93173 0.95198 0.11253 0.0
H2586 H 0.94116 0.97157 0.13324 0.0
H2587 H 0.90548 0.04066 0.18868 0.0
H2588 H 0.91905 0.03807 0.16348 0.0
H2589 H 0.94073 0.99535 0.18073 0.0
H2590 H 0.92752 0.99804 0.20606 0.0
H2591 H 0.92648 0.99582 0.14612 0.0
H2592 H 0.96391 0.02349 0.18439 0.0
H2593 H 0.97131 0.04457 0.20423 0.0
H2594 H 0.96125 0.08047 0.16926 0.0
H2595 H 0.95354 0.05956 0.14927 0.0
C2596 C 0.98426 0.00056 0.09518 0.0
C2597 C 0.98761 0.0147 0.0867 0.0
C2598 C 0.97465 0.00063 0.10848 0.0
C2599 C 0.96786 0.01476 0.1134 0.0
C2600 C 0.97112 0.02887 0.10492 0.0
C2601 C 0.98095 0.02887 0.09182 0.0
C2602 C 0.95787 0.01507 0.12771 0.0
C2603 C 0.96177 0.02678 0.13943 0.0
C2604 C 0.94486 0.00384 0.13008 0.0
C2605 C 0.9392 0.99202 0.11767 0.0
C2606 C 0.93486 0.99702 0.10214 0.0
C2607 C 0.92959 0.98583 0.09047 0.0
C2608 C 0.92849 0.96961 0.09421 0.0
C2609 C 0.93262 0.96455 0.10964 0.0
C2610 C 0.93791 0.97569 0.12136 0.0
C2611 C 0.91295 0.03059 0.18701 0.0
C2612 C 0.91557 0.01964 0.1994 0.0
C2613 C 0.92068 0.02914 0.17264 0.0
C2614 C 0.9309 0.01655 0.17033 0.0
C2615 C 0.93287 0.00513 0.18234 0.0
C2616 C 0.9254 0.00676 0.19683 0.0
C2617 C 0.94048 0.01603 0.15591 0.0
C2618 C 0.93652 0.00431 0.1443 0.0
C2619 C 0.95322 0.02741 0.15344 0.0
C2620 C 0.95798 0.03997 0.1654 0.0
C2621 C 0.96313 0.03587 0.18098 0.0
C2622 C 0.96741 0.04779 0.19224 0.0
C2623 C 0.9667 0.06385 0.18802 0.0
C2624 C 0.96176 0.06802 0.17252 0.0
C2625 C 0.95745 0.05614 0.16122 0.0
H2626 H 0.97003 0.07306 0.19675 0.0
H2627 H 0.9244 0.96096 0.08516 0.0
H2628 H 0.30347 0.79867 0.17436 0.0
H2629 H 0.29731 0.81586 0.15148 0.0
H2630 H 0.29278 0.77456 0.12069 0.0
H2631 H 0.2989 0.75734 0.14348 0.0
H2632 H 0.31093 0.80084 0.10804 0.0
H2633 H 0.25993 0.78916 0.13301 0.0
H2634 H 0.24179 0.78863 0.15556 0.0
H2635 H 0.24789 0.83955 0.16014 0.0
H2636 H 0.26627 0.84034 0.13774 0.0
H2637 H 0.265 0.82078 0.03986 0.0
H2638 H 0.27664 0.80983 0.06432 0.0
H2639 H 0.27016 0.85418 0.0888 0.0
H2640 H 0.25805 0.86517 0.06425 0.0
H2641 H 0.2602 0.83009 0.1063 0.0
H2642 H 0.3083 0.84263 0.07937 0.0
H2643 H 0.32661 0.84369 0.05697 0.0
H2644 H 0.32701 0.79256 0.05639 0.0
H2645 H 0.3085 0.79116 0.07864 0.0
C2646 C 0.30131 0.79331 0.16267 0.0
C2647 C 0.30159 0.77669 0.16066 0.0
C2648 C 0.29774 0.80311 0.14966 0.0
C2649 C 0.29454 0.79644 0.13444 0.0
C2650 C 0.29523 0.77991 0.13235 0.0
C2651 C 0.2986 0.7701 0.14536 0.0
C2652 C 0.28992 0.80656 0.12072 0.0
C2653 C 0.29982 0.8072 0.10758 0.0
C2654 C 0.27571 0.81526 0.12043 0.0
C2655 C 0.26463 0.81479 0.13384 0.0
C2656 C 0.25752 0.80022 0.13892 0.0
C2657 C 0.24717 0.79988 0.15165 0.0
C2658 C 0.24373 0.81404 0.15931 0.0
C2659 C 0.25059 0.82858 0.15422 0.0
C2660 C 0.26097 0.82899 0.1415 0.0
C2661 C 0.26624 0.82833 0.05036 0.0
C2662 C 0.26071 0.8439 0.05008 0.0
C2663 C 0.27297 0.82205 0.06436 0.0
C2664 C 0.27456 0.83127 0.07835 0.0
C2665 C 0.26914 0.84688 0.07811 0.0
C2666 C 0.26226 0.85315 0.06409 0.0
C2667 C 0.28103 0.82413 0.09335 0.0
C2668 C 0.27149 0.82402 0.10678 0.0
C2669 C 0.29567 0.81604 0.09395 0.0
C2670 C 0.30692 0.8168 0.08063 0.0
C2671 C 0.3122 0.8316 0.0744 0.0
C2672 C 0.32264 0.83227 0.06174 0.0
C2673 C 0.32796 0.8182 0.05525 0.0
C2674 C 0.32288 0.80344 0.06143 0.0
C2675 C 0.31244 0.80271 0.07409 0.0
H2676 H 0.33603 0.81874 0.04544 0.0
H2677 H 0.23571 0.81375 0.16916 0.0
H2678 H 0.0128 0.48139 0.12834 0.0
H2679 H 0.02993 0.48584 0.15263 0.0
H2680 H 0.07234 0.47856 0.12593 0.0
H2681 H 0.05535 0.47406 0.10173 0.0
H2682 H 0.07379 0.46253 0.15308 0.0
H2683 H 0.06142 0.51609 0.13731 0.0
H2684 H 0.04338 0.53781 0.13036 0.0
H2685 H 0.02275 0.53413 0.17635 0.0
H2686 H 0.04054 0.51223 0.1835 0.0
H2687 H 0.13864 0.49733 0.1989 0.0
H2688 H 0.11716 0.49191 0.17866 0.0
H2689 H 0.08134 0.49598 0.21404 0.0
H2690 H 0.1029 0.50147 0.23459 0.0
H2691 H 0.07386 0.51213 0.18534 0.0
H2692 H 0.08852 0.46023 0.2019 0.0
H2693 H 0.10714 0.43896 0.20869 0.0
H2694 H 0.12382 0.43977 0.16095 0.0
H2695 H 0.10547 0.46123 0.15393 0.0
C2696 C 0.02579 0.48087 0.12765 0.0
C2697 C 0.03271 0.47732 0.11312 0.0
C2698 C 0.03556 0.4834 0.14153 0.0
C2699 C 0.05245 0.48261 0.1411 0.0
C2700 C 0.05935 0.47913 0.12659 0.0
C2701 C 0.04961 0.47653 0.11276 0.0
C2702 C 0.06306 0.48522 0.1557 0.0
C2703 C 0.07387 0.47343 0.16005 0.0
C2704 C 0.06282 0.49922 0.16513 0.0
C2705 C 0.05217 0.5124 0.16086 0.0
C2706 C 0.05294 0.51983 0.14589 0.0
C2707 C 0.04278 0.53219 0.14192 0.0
C2708 C 0.03189 0.53731 0.15289 0.0
C2709 C 0.03117 0.53012 0.16786 0.0
C2710 C 0.0413 0.51774 0.17188 0.0
C2711 C 0.12622 0.49712 0.20247 0.0
C2712 C 0.12253 0.49979 0.21843 0.0
C2713 C 0.11394 0.49395 0.19085 0.0
C2714 C 0.09767 0.49337 0.19488 0.0
C2715 C 0.09385 0.49632 0.21071 0.0
C2716 C 0.10618 0.4994 0.22243 0.0
C2717 C 0.08483 0.48963 0.18239 0.0
C2718 C 0.0736 0.50116 0.17847 0.0
C2719 C 0.0847 0.47541 0.17329 0.0
C2720 C 0.09569 0.46242 0.17743 0.0
C2721 C 0.09625 0.45596 0.19288 0.0
C2722 C 0.10674 0.44385 0.19677 0.0
C2723 C 0.11668 0.43804 0.18527 0.0
C2724 C 0.11612 0.44429 0.16985 0.0
C2725 C 0.10565 0.45641 0.1659 0.0
H2726 H 0.1248 0.42867 0.1883 0.0
H2727 H 0.02403 0.54688 0.14979 0.0
H2728 H 0.388 0.73317 0.26241 0.0
H2729 H 0.41172 0.7386 0.28031 0.0
H2730 H 0.38276 0.72838 0.32089 0.0
H2731 H 0.35891 0.72339 0.3031 0.0
H2732 H 0.4019 0.75505 0.3256 0.0
H2733 H 0.40826 0.70129 0.30732 0.0
H2734 H 0.41045 0.68021 0.28713 0.0
H2735 H 0.45237 0.70495 0.26912 0.0
H2736 H 0.45029 0.72631 0.28907 0.0
H2737 H 0.45965 0.74121 0.38696 0.0
H2738 H 0.43804 0.73853 0.36643 0.0
H2739 H 0.47203 0.7504 0.33031 0.0
H2740 H 0.49395 0.753 0.35086 0.0
H2741 H 0.45166 0.72485 0.32165 0.0
H2742 H 0.44648 0.77767 0.34115 0.0
H2743 H 0.44441 0.79867 0.36143 0.0
H2744 H 0.40038 0.7759 0.37705 0.0
H2745 H 0.40231 0.75462 0.35701 0.0
C2746 C 0.38666 0.73221 0.27516 0.0
C2747 C 0.37157 0.72781 0.28134 0.0
C2748 C 0.40025 0.73518 0.28536 0.0
C2749 C 0.39904 0.73375 0.30193 0.0
C2750 C 0.38397 0.72951 0.30814 0.0
C2751 C 0.37039 0.72653 0.29795 0.0
C2752 C 0.41342 0.73673 0.31287 0.0
C2753 C 0.41272 0.74834 0.32483 0.0
C2754 C 0.42773 0.72833 0.31154 0.0
C2755 C 0.42901 0.71548 0.29957 0.0
C2756 C 0.41786 0.70231 0.29896 0.0
C2757 C 0.4191 0.6903 0.28758 0.0
C2758 C 0.43151 0.69127 0.27682 0.0
C2759 C 0.44274 0.70423 0.27744 0.0
C2760 C 0.44155 0.71628 0.28879 0.0
C2761 C 0.46261 0.74328 0.37467 0.0
C2762 C 0.47858 0.74739 0.3706 0.0
C2763 C 0.45019 0.74181 0.36294 0.0
C2764 C 0.45338 0.74447 0.34687 0.0
C2765 C 0.46931 0.74836 0.34267 0.0
C2766 C 0.4818 0.74988 0.35443 0.0
C2767 C 0.44001 0.74297 0.33455 0.0
C2768 C 0.4409 0.73166 0.32232 0.0
C2769 C 0.42587 0.75167 0.33561 0.0
C2770 C 0.42462 0.76448 0.34765 0.0
C2771 C 0.43642 0.77707 0.34899 0.0
C2772 C 0.43526 0.78904 0.36043 0.0
C2773 C 0.42229 0.7886 0.37055 0.0
C2774 C 0.41043 0.77621 0.36922 0.0
C2775 C 0.41154 0.76421 0.3578 0.0
H2776 H 0.42141 0.79788 0.3794 0.0
H2777 H 0.43245 0.68195 0.26802 0.0
H2778 H 0.99098 0.39557 0.00532 0.0
H2779 H 0.99726 0.37316 0.9885 0.0
H2780 H 0.99777 0.40401 0.94743 0.0
H2781 H 0.99109 0.42652 0.96426 0.0
H2782 H 0.98299 0.37657 0.93955 0.0
H2783 H 0.03336 0.39158 0.96539 0.0
H2784 H 0.05254 0.39909 0.98771 0.0
H2785 H 0.04375 0.35329 0.00922 0.0
H2786 H 0.02432 0.34558 0.98715 0.0
H2787 H 0.01902 0.31076 0.89857 0.0
H2788 H 0.01615 0.33749 0.90991 0.0
H2789 H 0.00178 0.31626 0.95415 0.0
H2790 H 0.00429 0.28974 0.94297 0.0
H2791 H 0.02705 0.34156 0.9568 0.0
H2792 H 0.97376 0.32893 0.9315 0.0
H2793 H 0.95545 0.322 0.90833 0.0
H2794 H 0.97185 0.36455 0.88439 0.0
H2795 H 0.99045 0.37161 0.90735 0.0
C2796 C 0.99253 0.39761 0.99272 0.0
C2797 C 0.99069 0.41281 0.98612 0.0
C2798 C 0.99616 0.3848 0.98311 0.0
C2799 C 0.99835 0.38695 0.96674 0.0
C2800 C 0.99622 0.40208 0.96004 0.0
C2801 C 0.9924 0.4149 0.96965 0.0
C2802 C 0.00265 0.37327 0.95674 0.0
C2803 C 0.99284 0.36912 0.94315 0.0
C2804 C 0.01554 0.36351 0.96136 0.0
C2805 C 0.0273 0.36804 0.97464 0.0
C2806 C 0.03543 0.38314 0.97493 0.0
C2807 C 0.04636 0.38743 0.98753 0.0
C2808 C 0.04935 0.37668 0.99988 0.0
C2809 C 0.04143 0.3616 0.99964 0.0
C2810 C 0.03047 0.35726 0.98707 0.0
C2811 C 0.01522 0.31183 0.9107 0.0
C2812 C 0.01183 0.29813 0.91985 0.0
C2813 C 0.01357 0.32707 0.91713 0.0
C2814 C 0.00877 0.32878 0.93286 0.0
C2815 C 0.00553 0.31515 0.94201 0.0
C2816 C 0.0069 0.3 0.93554 0.0
C2817 C 0.00707 0.34468 0.94006 0.0
C2818 C 0.01741 0.34924 0.95309 0.0
C2819 C 0.99488 0.3549 0.93477 0.0
C2820 C 0.98364 0.35068 0.92104 0.0
C2821 C 0.97358 0.33672 0.92123 0.0
C2822 C 0.96312 0.33279 0.90815 0.0
C2823 C 0.96253 0.34279 0.89487 0.0
C2824 C 0.97235 0.35679 0.89467 0.0
C2825 C 0.98285 0.36076 0.90771 0.0
H2826 H 0.95442 0.33973 0.88476 0.0
H2827 H 0.05781 0.38002 0.00963 0.0
H2828 H 0.64492 0.82093 0.25484 0.0
H2829 H 0.62283 0.81806 0.27331 0.0
H2830 H 0.62964 0.76748 0.27619 0.0
H2831 H 0.65164 0.77025 0.25788 0.0
H2832 H 0.59817 0.77324 0.27321 0.0
H2833 H 0.64471 0.79354 0.30536 0.0
H2834 H 0.66708 0.813 0.31258 0.0
H2835 H 0.63315 0.84962 0.31767 0.0
H2836 H 0.61059 0.8304 0.31025 0.0
H2837 H 0.57192 0.74492 0.34616 0.0
H2838 H 0.58704 0.75439 0.32355 0.0
H2839 H 0.56781 0.80095 0.32822 0.0
H2840 H 0.55243 0.79148 0.35107 0.0
H2841 H 0.60157 0.80164 0.32523 0.0
H2842 H 0.55461 0.77927 0.29749 0.0
H2843 H 0.53275 0.75906 0.29102 0.0
H2844 H 0.56773 0.7257 0.27811 0.0
H2845 H 0.58984 0.74563 0.28473 0.0
C2846 C 0.64172 0.80922 0.25946 0.0
C2847 C 0.65002 0.79581 0.25486 0.0
C2848 C 0.62908 0.80759 0.26998 0.0
C2849 C 0.62463 0.79257 0.27619 0.0
C2850 C 0.63278 0.77918 0.27146 0.0
C2851 C 0.64534 0.78078 0.26095 0.0
C2852 C 0.61176 0.79062 0.28791 0.0
C2853 C 0.59892 0.77943 0.2846 0.0
C2854 C 0.61245 0.79907 0.30255 0.0
C2855 C 0.626 0.8106 0.30706 0.0
C2856 C 0.64204 0.80577 0.30789 0.0
C2857 C 0.65475 0.81675 0.31204 0.0
C2858 C 0.65154 0.83255 0.31553 0.0
C2859 C 0.63561 0.83739 0.31492 0.0
C2860 C 0.62286 0.82646 0.31075 0.0
C2861 C 0.57078 0.75717 0.34237 0.0
C2862 C 0.56098 0.76746 0.35043 0.0
C2863 C 0.57939 0.76253 0.32937 0.0
C2864 C 0.57843 0.77832 0.32411 0.0
C2865 C 0.56864 0.78869 0.33207 0.0
C2866 C 0.55984 0.78326 0.34506 0.0
C2867 C 0.58831 0.78388 0.31071 0.0
C2868 C 0.60059 0.79574 0.31369 0.0
C2869 C 0.58716 0.77597 0.29578 0.0
C2870 C 0.5739 0.76394 0.29169 0.0
C2871 C 0.55766 0.76759 0.29338 0.0
C2872 C 0.54522 0.75618 0.28966 0.0
C2873 C 0.54885 0.7411 0.28418 0.0
C2874 C 0.56494 0.73739 0.28236 0.0
C2875 C 0.57743 0.74875 0.28607 0.0
H2876 H 0.5392 0.73228 0.28131 0.0
H2877 H 0.6614 0.84103 0.31875 0.0
H2878 H 0.02494 0.07997 0.94677 0.0
H2879 H 0.02481 0.10369 0.9298 0.0
H2880 H 0.00888 0.13144 0.96896 0.0
H2881 H 0.00917 0.10795 0.986 0.0
H2882 H 0.99269 0.13831 0.94106 0.0
H2883 H 0.04824 0.13237 0.95998 0.0
H2884 H 0.0734 0.11796 0.96353 0.0
H2885 H 0.07643 0.11417 0.91273 0.0
H2886 H 0.05114 0.12839 0.90889 0.0
H2887 H 0.01659 0.21813 0.9277 0.0
H2888 H 0.01261 0.1909 0.93718 0.0
H2889 H 0.03064 0.17302 0.89346 0.0
H2890 H 0.03476 0.20042 0.88385 0.0
H2891 H 0.04428 0.15895 0.91919 0.0
H2892 H 0.99071 0.16853 0.90034 0.0
H2893 H 0.96582 0.18338 0.897 0.0
H2894 H 0.9589 0.18046 0.94733 0.0
H2895 H 0.9839 0.16581 0.95103 0.0
C2896 C 0.02143 0.09113 0.95176 0.0
C2897 C 0.01709 0.09207 0.96775 0.0
C2898 C 0.02131 0.10465 0.94204 0.0
C2899 C 0.01693 0.11934 0.94816 0.0
C2900 C 0.0122 0.1202 0.96397 0.0
C2901 C 0.01233 0.10673 0.97368 0.0
C2902 C 0.01786 0.13405 0.93844 0.0
C2903 C 0.00397 0.14287 0.93631 0.0
C2904 C 0.03248 0.13972 0.93185 0.0
C2905 C 0.04771 0.13126 0.93415 0.0
C2906 C 0.0542 0.12835 0.94957 0.0
C2907 C 0.0685 0.12024 0.95163 0.0
C2908 C 0.07648 0.11511 0.93836 0.0
C2909 C 0.07021 0.11812 0.923 0.0
C2910 C 0.05591 0.12621 0.92087 0.0
C2911 C 0.01951 0.20844 0.91997 0.0
C2912 C 0.02586 0.21145 0.90496 0.0
C2913 C 0.0172 0.19285 0.92541 0.0
C2914 C 0.0211 0.17991 0.91593 0.0
C2915 C 0.02747 0.18284 0.90093 0.0
C2916 C 0.02979 0.19849 0.89546 0.0
C2917 C 0.01919 0.16344 0.92215 0.0
C2918 C 0.0329 0.15427 0.92364 0.0
C2919 C 0.00439 0.15744 0.92815 0.0
C2920 C 0.98925 0.16614 0.92597 0.0
C2921 C 0.98395 0.17114 0.91072 0.0
C2922 C 0.96981 0.17952 0.90875 0.0
C2923 C 0.9608 0.18288 0.92194 0.0
C2924 C 0.96589 0.17785 0.93712 0.0
C2925 C 0.98004 0.16948 0.93916 0.0
H2926 H 0.94986 0.18937 0.9204 0.0
H2927 H 0.08755 0.10883 0.93998 0.0
H2928 H 0.38155 0.27182 0.24952 0.0
H2929 H 0.40263 0.27121 0.23001 0.0
H2930 H 0.36711 0.27898 0.19208 0.0
H2931 H 0.34591 0.27912 0.21143 0.0
H2932 H 0.38611 0.25549 0.18466 0.0
H2933 H 0.39399 0.30884 0.2051 0.0
H2934 H 0.39862 0.32953 0.2259 0.0
H2935 H 0.44372 0.30956 0.24028 0.0
H2936 H 0.43926 0.2886 0.21971 0.0
H2937 H 0.4368 0.27323 0.12182 0.0
H2938 H 0.41796 0.27696 0.14291 0.0
H2939 H 0.45488 0.26561 0.17831 0.0
H2940 H 0.47395 0.26189 0.1572 0.0
H2941 H 0.43604 0.29063 0.18768 0.0
H2942 H 0.42805 0.23734 0.16716 0.0
H2943 H 0.4234 0.21678 0.14624 0.0
H2944 H 0.37827 0.23681 0.13205 0.0
H2945 H 0.38277 0.25765 0.15274 0.0
C2946 C 0.37821 0.27332 0.23701 0.0
C2947 C 0.36203 0.27552 0.23203 0.0
C2948 C 0.39031 0.27313 0.22589 0.0
C2949 C 0.38648 0.2752 0.20959 0.0
C2950 C 0.37035 0.27741 0.2046 0.0
C2951 C 0.35826 0.27761 0.2157 0.0
C2952 C 0.39915 0.27453 0.19764 0.0
C2953 C 0.39691 0.26333 0.18522 0.0
C2954 C 0.41348 0.28445 0.1986 0.0
C2955 C 0.41621 0.29705 0.21097 0.0
C2956 C 0.40483 0.30878 0.21279 0.0
C2957 C 0.40744 0.32057 0.22452 0.0
C2958 C 0.42143 0.32084 0.23443 0.0
C2959 C 0.43288 0.30933 0.23261 0.0
C2960 C 0.43032 0.2975 0.22091 0.0
C2961 C 0.44102 0.2717 0.13409 0.0
C2962 C 0.45685 0.26709 0.13781 0.0
C2963 C 0.43021 0.27381 0.14613 0.0
C2964 C 0.43494 0.2713 0.16214 0.0
C2965 C 0.45097 0.26753 0.16601 0.0
C2966 C 0.46184 0.26539 0.15393 0.0
C2967 C 0.42285 0.27174 0.17465 0.0
C2968 C 0.42522 0.28282 0.18717 0.0
C2969 C 0.4086 0.26172 0.17381 0.0
C2970 C 0.40582 0.24915 0.1614 0.0
C2971 C 0.4172 0.23744 0.15949 0.0
C2972 C 0.41458 0.22572 0.14769 0.0
C2973 C 0.40057 0.22551 0.1378 0.0
C2974 C 0.38913 0.237 0.13971 0.0
C2975 C 0.3917 0.24876 0.15148 0.0
H2976 H 0.39856 0.21642 0.12867 0.0
H2977 H 0.42343 0.32998 0.24351 0.0
H2978 H 0.55428 0.4037 0.01482 0.0
H2979 H 0.55181 0.37918 0.03047 0.0
H2980 H 0.50277 0.38946 0.0406 0.0
H2981 H 0.50519 0.4141 0.02504 0.0
H2982 H 0.52099 0.37813 0.06741 0.0
H2983 H 0.50791 0.36391 0.01259 0.0
H2984 H 0.51269 0.36297 0.98382 0.0
H2985 H 0.55609 0.33797 0.99338 0.0
H2986 H 0.55169 0.33898 0.02225 0.0
H2987 H 0.49428 0.29962 0.09109 0.0
H2988 H 0.49795 0.32637 0.07986 0.0
H2989 H 0.54358 0.31373 0.06161 0.0
H2990 H 0.53972 0.2869 0.07232 0.0
H2991 H 0.52682 0.32687 0.03921 0.0
H2992 H 0.54028 0.34045 0.09379 0.0
H2993 H 0.5363 0.34168 0.12271 0.0
H2994 H 0.4935 0.36787 0.11417 0.0
H2995 H 0.4971 0.36662 0.08517 0.0
C2996 C 0.54304 0.40085 0.02055 0.0
C2997 C 0.5299 0.41078 0.01864 0.0
C2998 C 0.54163 0.38681 0.02942 0.0
C2999 C 0.52707 0.38247 0.03659 0.0
C3000 C 0.5141 0.3926 0.03515 0.0
C3001 C 0.51546 0.40658 0.02616 0.0
C3002 C 0.52518 0.36698 0.04495 0.0
C3003 C 0.52208 0.36688 0.06126 0.0
C3004 C 0.52694 0.35237 0.03695 0.0
C3005 C 0.52956 0.35167 0.01959 0.0
C3006 C 0.51855 0.35833 0.00857 0.0
C3007 C 0.52117 0.35777 0.99224 0.0
C3008 C 0.53471 0.35045 0.98678 0.0
C3009 C 0.54563 0.34366 0.99764 0.0
C3010 C 0.54306 0.34421 0.01398 0.0
C3011 C 0.50521 0.30263 0.08489 0.0
C3012 C 0.51666 0.2911 0.08252 0.0
C3013 C 0.50732 0.31796 0.07851 0.0
C3014 C 0.52109 0.32214 0.06991 0.0
C3015 C 0.53281 0.3108 0.0681 0.0
C3016 C 0.5306 0.29545 0.07427 0.0
C3017 C 0.52283 0.33788 0.06185 0.0
C3018 C 0.5258 0.33806 0.0455 0.0
C3019 C 0.52107 0.35253 0.06987 0.0
C3020 C 0.51887 0.3533 0.0873 0.0
C3021 C 0.52994 0.34636 0.09807 0.0
C3022 C 0.52777 0.34708 0.11448 0.0
C3023 C 0.51463 0.35481 0.12027 0.0
C3024 C 0.50366 0.36187 0.10966 0.0
C3025 C 0.50577 0.36117 0.09324 0.0
H3026 H 0.51297 0.35535 0.13297 0.0
H3027 H 0.53672 0.35002 0.97414 0.0
H3028 H 0.65739 0.22112 0.20872 0.0
H3029 H 0.63527 0.22402 0.18885 0.0
H3030 H 0.60228 0.23088 0.22636 0.0
H3031 H 0.62431 0.2277 0.24635 0.0
H3032 H 0.58895 0.21104 0.20272 0.0
H3033 H 0.6163 0.26242 0.20659 0.0
H3034 H 0.63973 0.28166 0.20685 0.0
H3035 H 0.64916 0.26868 0.15875 0.0
H3036 H 0.62591 0.24917 0.15828 0.0
H3037 H 0.52685 0.24127 0.15063 0.0
H3038 H 0.54726 0.23873 0.17234 0.0
H3039 H 0.58367 0.2321 0.13803 0.0
H3040 H 0.56349 0.23472 0.11632 0.0
H3041 H 0.59437 0.25285 0.1613 0.0
H3042 H 0.56761 0.20066 0.15793 0.0
H3043 H 0.5442 0.1814 0.15779 0.0
H3044 H 0.53354 0.1961 0.20507 0.0
H3045 H 0.55678 0.21563 0.2054 0.0
C3046 C 0.64539 0.22305 0.21275 0.0
C3047 C 0.64262 0.22424 0.22911 0.0
C3048 C 0.63279 0.22484 0.20138 0.0
C3049 C 0.61717 0.22787 0.20612 0.0
C3050 C 0.61425 0.22863 0.22244 0.0
C3051 C 0.62687 0.22692 0.23384 0.0
C3052 C 0.60398 0.23049 0.19401 0.0
C3053 C 0.59002 0.22033 0.1938 0.0
C3054 C 0.60548 0.24247 0.18225 0.0
C3055 C 0.61945 0.25422 0.18246 0.0
C3056 C 0.62345 0.26357 0.19611 0.0
C3057 C 0.63668 0.27454 0.19629 0.0
C3058 C 0.64596 0.27636 0.18284 0.0
C3059 C 0.64198 0.26724 0.16917 0.0
C3060 C 0.62876 0.25623 0.16893 0.0
C3061 C 0.5392 0.2393 0.14769 0.0
C3062 C 0.54348 0.23816 0.1317 0.0
C3063 C 0.55084 0.23778 0.16013 0.0
C3064 C 0.56697 0.2351 0.15681 0.0
C3065 C 0.5713 0.23417 0.14088 0.0
C3066 C 0.5597 0.23562 0.12847 0.0
C3067 C 0.57943 0.23326 0.16985 0.0
C3068 C 0.59326 0.2436 0.17025 0.0
C3069 C 0.57778 0.22147 0.18179 0.0
C3070 C 0.56382 0.20973 0.18162 0.0
C3071 C 0.56019 0.19989 0.16824 0.0
C3072 C 0.54697 0.1889 0.16814 0.0
C3073 C 0.53736 0.18756 0.18139 0.0
C3074 C 0.54098 0.19717 0.1948 0.0
C3075 C 0.55418 0.2082 0.19496 0.0
H3076 H 0.52713 0.17904 0.18129 0.0
H3077 H 0.6562 0.28486 0.183 0.0
H3078 H 0.4714 0.07527 0.04026 0.0
H3079 H 0.47714 0.0991 0.05669 0.0
H3080 H 0.49162 0.12542 0.01519 0.0
H3081 H 0.48552 0.10179 0.99857 0.0
H3082 H 0.51243 0.13133 0.04205 0.0
H3083 H 0.45519 0.12976 0.02806 0.0
H3084 H 0.42758 0.11738 0.02622 0.0
H3085 H 0.42809 0.1125 0.07715 0.0
H3086 H 0.45582 0.12466 0.07927 0.0
H3087 H 0.50541 0.21148 0.06655 0.0
H3088 H 0.50451 0.18538 0.0536 0.0
H3089 H 0.48416 0.16393 0.09538 0.0
H3090 H 0.48466 0.19012 0.10826 0.0
H3091 H 0.46728 0.15427 0.06998 0.0
H3092 H 0.52352 0.1575 0.08463 0.0
H3093 H 0.55122 0.16962 0.08692 0.0
H3094 H 0.55312 0.17094 0.0359 0.0
H3095 H 0.52533 0.15904 0.03329 0.0
C3096 C 0.47571 0.08614 0.03458 0.0
C3097 C 0.47786 0.08661 0.01804 0.0
C3098 C 0.47908 0.09972 0.04402 0.0
C3099 C 0.4847 0.11404 0.03713 0.0
C3100 C 0.48735 0.11446 0.02075 0.0
C3101 C 0.4839 0.10091 0.01127 0.0
C3102 C 0.48714 0.12878 0.04687 0.0
C3103 C 0.50256 0.13646 0.04807 0.0
C3104 C 0.47433 0.13518 0.05506 0.0
C3105 C 0.45764 0.12795 0.05381 0.0
C3106 C 0.44947 0.12592 0.03885 0.0
C3107 C 0.43379 0.11897 0.03776 0.0
C3108 C 0.4261 0.11411 0.05156 0.0
C3109 C 0.43407 0.11624 0.06648 0.0
C3110 C 0.44976 0.12317 0.06763 0.0
C3111 C 0.50098 0.20118 0.07309 0.0
C3112 C 0.4951 0.20287 0.08843 0.0
C3113 C 0.50052 0.18623 0.06569 0.0
C3114 C 0.49439 0.17263 0.07356 0.0
C3115 C 0.48893 0.17424 0.08906 0.0
C3116 C 0.48927 0.18921 0.09643 0.0
C3117 C 0.49261 0.15698 0.06517 0.0
C3118 C 0.47726 0.14912 0.06416 0.0
C3119 C 0.50553 0.15038 0.05726 0.0
C3120 C 0.52228 0.15749 0.05877 0.0
C3121 C 0.52979 0.16049 0.07389 0.0
C3122 C 0.54552 0.1673 0.07525 0.0
C3123 C 0.55391 0.17108 0.06157 0.0
C3124 C 0.5466 0.16802 0.04649 0.0
C3125 C 0.53086 0.16122 0.04507 0.0
H3126 H 0.56609 0.17635 0.06264 0.0
H3127 H 0.41396 0.10873 0.05069 0.0
H3128 H 0.25714 0.39709 0.72396 0.0
H3129 H 0.27778 0.41884 0.72696 0.0
H3130 H 0.3152 0.38521 0.72287 0.0
H3131 H 0.29464 0.36335 0.72025 0.0
H3132 H 0.32172 0.40568 0.74756 0.0
H3133 H 0.30545 0.40939 0.69209 0.0
H3134 H 0.28608 0.41171 0.66917 0.0
H3135 H 0.27169 0.45658 0.68716 0.0
H3136 H 0.29083 0.45441 0.71032 0.0
H3137 H 0.38905 0.45733 0.73367 0.0
H3138 H 0.36692 0.43722 0.7312 0.0
H3139 H 0.33239 0.47365 0.73588 0.0
H3140 H 0.35455 0.49403 0.73823 0.0
H3141 H 0.32343 0.45269 0.71178 0.0
H3142 H 0.34041 0.44948 0.76675 0.0
H3143 H 0.35983 0.44719 0.78964 0.0
H3144 H 0.37279 0.40142 0.77269 0.0
H3145 H 0.35361 0.40353 0.74957 0.0
C3146 C 0.26977 0.39432 0.72375 0.0
C3147 C 0.27426 0.37849 0.72186 0.0
C3148 C 0.28154 0.40678 0.72533 0.0
C3149 C 0.29803 0.40366 0.72502 0.0
C3150 C 0.30254 0.38788 0.72311 0.0
C3151 C 0.29078 0.37543 0.72148 0.0
C3152 C 0.3106 0.41679 0.72703 0.0
C3153 C 0.32221 0.41587 0.73962 0.0
C3154 C 0.31094 0.43031 0.71696 0.0
C3155 C 0.29945 0.43165 0.70303 0.0
C3156 C 0.29805 0.41968 0.69123 0.0
C3157 C 0.28714 0.42098 0.67819 0.0
C3158 C 0.27763 0.43426 0.67674 0.0
C3159 C 0.27905 0.44629 0.68831 0.0
C3160 C 0.28994 0.44503 0.7014 0.0
C3161 C 0.37677 0.46114 0.73421 0.0
C3162 C 0.37362 0.47734 0.73622 0.0
C3163 C 0.36412 0.44958 0.73285 0.0
C3164 C 0.34801 0.4539 0.73354 0.0
C3165 C 0.34475 0.47005 0.73537 0.0
C3166 C 0.35743 0.48167 0.73676 0.0
C3167 C 0.33466 0.44148 0.7322 0.0
C3168 C 0.32288 0.44254 0.71976 0.0
C3169 C 0.33415 0.42808 0.74242 0.0
C3170 C 0.34567 0.42674 0.75635 0.0
C3171 C 0.34749 0.43898 0.76784 0.0
C3172 C 0.35844 0.43771 0.78086 0.0
C3173 C 0.36756 0.42418 0.7826 0.0
C3174 C 0.36573 0.41189 0.77132 0.0
C3175 C 0.35481 0.41312 0.75826 0.0
H3176 H 0.37603 0.42322 0.79269 0.0
H3177 H 0.26918 0.43525 0.66662 0.0
H3178 H 0.26244 0.65164 0.73732 0.0
H3179 H 0.2817 0.63061 0.73566 0.0
H3180 H 0.28052 0.62369 0.78652 0.0
H3181 H 0.26128 0.64483 0.78827 0.0
H3182 H 0.31072 0.62378 0.77737 0.0
H3183 H 0.26115 0.59675 0.76037 0.0
H3184 H 0.23536 0.59251 0.74483 0.0
H3185 H 0.26094 0.59174 0.70144 0.0
H3186 H 0.28689 0.59621 0.71669 0.0
H3187 H 0.35681 0.55362 0.77015 0.0
H3188 H 0.33443 0.57056 0.77617 0.0
H3189 H 0.33207 0.58644 0.72732 0.0
H3190 H 0.35422 0.56969 0.72124 0.0
H3191 H 0.30199 0.57935 0.73843 0.0
H3192 H 0.35114 0.60936 0.75577 0.0
H3193 H 0.3768 0.61362 0.77154 0.0
H3194 H 0.35142 0.60817 0.81489 0.0
H3195 H 0.32562 0.60367 0.79934 0.0
C3196 C 0.26614 0.64553 0.74813 0.0
C3197 C 0.26025 0.64986 0.76291 0.0
C3198 C 0.27716 0.63349 0.74717 0.0
C3199 C 0.28239 0.62537 0.76093 0.0
C3200 C 0.27665 0.62976 0.77574 0.0
C3201 C 0.26568 0.64187 0.77672 0.0
C3202 C 0.29412 0.61256 0.75982 0.0
C3203 C 0.30866 0.61389 0.76907 0.0
C3204 C 0.29154 0.59972 0.74891 0.0
C3205 C 0.27596 0.59693 0.73968 0.0
C3206 C 0.26128 0.59579 0.7475 0.0
C3207 C 0.24663 0.59333 0.73875 0.0
C3208 C 0.24651 0.59189 0.72216 0.0
C3209 C 0.26105 0.59286 0.71429 0.0
C3210 C 0.27573 0.59534 0.72299 0.0
C3211 C 0.35144 0.56065 0.76069 0.0
C3212 C 0.35736 0.56037 0.74524 0.0
C3213 C 0.3387 0.57036 0.76416 0.0
C3214 C 0.33165 0.57984 0.7522 0.0
C3215 C 0.3373 0.57922 0.73672 0.0
C3216 C 0.35004 0.56967 0.73329 0.0
C3217 C 0.31868 0.5908 0.75569 0.0
C3218 C 0.30391 0.58911 0.74689 0.0
C3219 C 0.32101 0.60325 0.76707 0.0
C3220 C 0.3365 0.60598 0.7764 0.0
C3221 C 0.35106 0.60893 0.76866 0.0
C3222 C 0.36561 0.61142 0.77756 0.0
C3223 C 0.36574 0.61111 0.79421 0.0
C3224 C 0.3513 0.60837 0.80199 0.0
C3225 C 0.33671 0.60585 0.79315 0.0
H3226 H 0.37703 0.61305 0.80107 0.0
H3227 H 0.23516 0.58998 0.7154 0.0
H3228 H 0.88197 0.49047 0.46955 0.0
H3229 H 0.85802 0.47353 0.47511 0.0
H3230 H 0.88522 0.43159 0.46856 0.0
H3231 H 0.90917 0.44843 0.463 0.0
H3232 H 0.85567 0.4279 0.45439 0.0
H3233 H 0.87795 0.44563 0.5058 0.0
H3234 H 0.88761 0.46561 0.52603 0.0
H3235 H 0.84082 0.48562 0.52476 0.0
H3236 H 0.83093 0.46588 0.50435 0.0
H3237 H 0.8126 0.36812 0.49559 0.0
H3238 H 0.8327 0.38826 0.48748 0.0
H3239 H 0.79827 0.42479 0.49204 0.0
H3240 H 0.77789 0.40461 0.5002 0.0
H3241 H 0.82901 0.43315 0.50585 0.0
H3242 H 0.80611 0.41347 0.45612 0.0
H3243 H 0.79659 0.39288 0.43647 0.0
H3244 H 0.84466 0.37609 0.4349 0.0
H3245 H 0.85444 0.39643 0.45474 0.0
C3246 C 0.88286 0.47763 0.46935 0.0
C3247 C 0.8975 0.47079 0.46589 0.0
C3248 C 0.86916 0.46797 0.4725 0.0
C3249 C 0.86987 0.45129 0.47242 0.0
C3250 C 0.88437 0.44443 0.46865 0.0
C3251 C 0.89805 0.45408 0.46544 0.0
C3252 C 0.85565 0.4409 0.47655 0.0
C3253 C 0.84993 0.42898 0.46569 0.0
C3254 C 0.84785 0.44258 0.49111 0.0
C3255 C 0.85376 0.4544 0.50342 0.0
C3256 C 0.86976 0.45437 0.50974 0.0
C3257 C 0.87527 0.46564 0.52126 0.0
C3258 C 0.86485 0.47691 0.52664 0.0
C3259 C 0.84888 0.4769 0.52055 0.0
C3260 C 0.84332 0.46568 0.50902 0.0
C3261 C 0.80923 0.38042 0.49491 0.0
C3262 C 0.79358 0.38472 0.49852 0.0
C3263 C 0.82075 0.39192 0.4902 0.0
C3264 C 0.81692 0.40798 0.48899 0.0
C3265 C 0.80143 0.41242 0.49284 0.0
C3266 C 0.7898 0.40088 0.49746 0.0
C3267 C 0.82926 0.42001 0.48382 0.0
C3268 C 0.83464 0.43222 0.49447 0.0
C3269 C 0.83677 0.41857 0.46909 0.0
C3270 C 0.83098 0.40641 0.45702 0.0
C3271 C 0.81464 0.40531 0.45168 0.0
C3272 C 0.80919 0.3937 0.44049 0.0
C3273 C 0.82 0.38316 0.43447 0.0
C3274 C 0.8363 0.38426 0.43959 0.0
C3275 C 0.8418 0.39584 0.45079 0.0
H3276 H 0.81576 0.37417 0.42582 0.0
H3277 H 0.86914 0.48562 0.53555 0.0
H3278 H 0.75866 0.86354 0.76407 0.0
H3279 H 0.74126 0.88605 0.76539 0.0
H3280 H 0.70082 0.85415 0.77597 0.0
H3281 H 0.71815 0.83133 0.77417 0.0
H3282 H 0.69209 0.87733 0.75454 0.0
H3283 H 0.71874 0.87553 0.80557 0.0
H3284 H 0.74164 0.87338 0.82506 0.0
H3285 H 0.76379 0.91669 0.80727 0.0
H3286 H 0.74114 0.91897 0.78748 0.0
H3287 H 0.65281 0.95113 0.77396 0.0
H3288 H 0.66299 0.92417 0.77742 0.0
H3289 H 0.70916 0.94083 0.76043 0.0
H3290 H 0.69917 0.96742 0.75671 0.0
H3291 H 0.71053 0.92285 0.78964 0.0
H3292 H 0.68541 0.92141 0.73588 0.0
H3293 H 0.66217 0.92344 0.71673 0.0
H3294 H 0.63631 0.88591 0.74104 0.0
H3295 H 0.65932 0.88383 0.7605 0.0
C3296 C 0.74602 0.86123 0.76644 0.0
C3297 C 0.7398 0.84561 0.769 0.0
C3298 C 0.73611 0.87415 0.76737 0.0
C3299 C 0.7198 0.87181 0.77103 0.0
C3300 C 0.7134 0.85623 0.77323 0.0
C3301 C 0.72334 0.84323 0.77231 0.0
C3302 C 0.70968 0.88581 0.77265 0.0
C3303 C 0.6959 0.88714 0.76248 0.0
C3304 C 0.71462 0.89861 0.78302 0.0
C3305 C 0.72826 0.89737 0.79497 0.0
C3306 C 0.72854 0.88454 0.80573 0.0
C3307 C 0.74147 0.88331 0.81685 0.0
C3308 C 0.75417 0.89488 0.81739 0.0
C3309 C 0.75395 0.90773 0.80683 0.0
C3310 C 0.74105 0.90901 0.79568 0.0
C3311 C 0.66512 0.949 0.77097 0.0
C3312 C 0.67516 0.96139 0.765 0.0
C3313 C 0.67088 0.93363 0.77293 0.0
C3314 C 0.68682 0.93058 0.76919 0.0
C3315 C 0.69684 0.94297 0.76341 0.0
C3316 C 0.69106 0.95815 0.76122 0.0
C3317 C 0.69338 0.91457 0.77112 0.0
C3318 C 0.7065 0.91287 0.782 0.0
C3319 C 0.68774 0.90144 0.76152 0.0
C3320 C 0.67398 0.90262 0.74976 0.0
C3321 C 0.6747 0.9137 0.73724 0.0
C3322 C 0.66159 0.91484 0.72631 0.0
C3323 C 0.64775 0.90485 0.7277 0.0
C3324 C 0.64702 0.89367 0.74 0.0
C3325 C 0.66009 0.8925 0.75098 0.0
H3326 H 0.63761 0.90575 0.71923 0.0
H3327 H 0.76418 0.89391 0.826 0.0
H3328 H 0.60589 0.54811 0.98675 0.0
H3329 H 0.62962 0.56645 0.98958 0.0
H3330 H 0.66052 0.52654 0.99347 0.0
H3331 H 0.63676 0.5081 0.99074 0.0
H3332 H 0.66966 0.54853 0.01519 0.0
H3333 H 0.65789 0.54866 0.95908 0.0
H3334 H 0.64096 0.55079 0.93436 0.0
H3335 H 0.6314 0.59914 0.94616 0.0
H3336 H 0.64809 0.59723 0.97108 0.0
H3337 H 0.74085 0.6 0.00805 0.0
H3338 H 0.71988 0.57875 0.00319 0.0
H3339 H 0.68342 0.61379 0.00047 0.0
H3340 H 0.70414 0.635 0.00512 0.0
H3341 H 0.67903 0.59236 0.97661 0.0
H3342 H 0.68927 0.5911 0.03381 0.0
H3343 H 0.7063 0.5887 0.05844 0.0
H3344 H 0.71919 0.54202 0.04401 0.0
H3345 H 0.70239 0.54424 0.01918 0.0
C3346 C 0.61774 0.54323 0.98805 0.0
C3347 C 0.61944 0.52664 0.98845 0.0
C3348 C 0.63131 0.55373 0.98967 0.0
C3349 C 0.6469 0.54789 0.99151 0.0
C3350 C 0.64863 0.53133 0.99205 0.0
C3351 C 0.63504 0.52081 0.99052 0.0
C3352 C 0.66132 0.55911 0.99314 0.0
C3353 C 0.67186 0.55794 0.0066 0.0
C3354 C 0.66412 0.57152 0.98205 0.0
C3355 C 0.65414 0.57275 0.96702 0.0
C3356 C 0.65208 0.55971 0.95646 0.0
C3357 C 0.64255 0.56088 0.9424 0.0
C3358 C 0.63508 0.57508 0.93871 0.0
C3359 C 0.63718 0.58815 0.94905 0.0
C3360 C 0.64669 0.58703 0.96313 0.0
C3361 C 0.72837 0.60319 0.00643 0.0
C3362 C 0.72422 0.61925 0.00702 0.0
C3363 C 0.71639 0.59102 0.0037 0.0
C3364 C 0.70006 0.59468 0.00156 0.0
C3365 C 0.69594 0.61068 0.00204 0.0
C3366 C 0.70784 0.62281 0.00478 0.0
C3367 C 0.68714 0.58197 0.99881 0.0
C3368 C 0.67689 0.58285 0.98511 0.0
C3369 C 0.68467 0.56926 0.00963 0.0
C3370 C 0.69473 0.56791 0.02456 0.0
C3371 C 0.69584 0.58038 0.03583 0.0
C3372 C 0.70543 0.57904 0.04984 0.0
C3373 C 0.71386 0.56524 0.05277 0.0
C3374 C 0.71268 0.55272 0.04171 0.0
C3375 C 0.70312 0.55401 0.02768 0.0
H3376 H 0.72127 0.56422 0.06362 0.0
H3377 H 0.6277 0.57596 0.92782 0.0
H3378 H 0.24144 0.66656 0.25244 0.0
H3379 H 0.22237 0.64423 0.25772 0.0
H3380 H 0.23023 0.62448 0.21131 0.0
H3381 H 0.24873 0.64723 0.20577 0.0
H3382 H 0.2001 0.62061 0.21654 0.0
H3383 H 0.24839 0.61015 0.24722 0.0
H3384 H 0.27115 0.61577 0.26664 0.0
H3385 H 0.23782 0.62108 0.30386 0.0
H3386 H 0.21484 0.6157 0.28462 0.0
H3387 H 0.17814 0.53888 0.23535 0.0
H3388 H 0.19257 0.56392 0.2287 0.0
H3389 H 0.17086 0.58741 0.26757 0.0
H3390 H 0.15609 0.56243 0.27412 0.0
H3391 H 0.20673 0.58975 0.26657 0.0
H3392 H 0.15837 0.59795 0.23422 0.0
H3393 H 0.13698 0.5904 0.21391 0.0
H3394 H 0.17267 0.5868 0.17862 0.0
H3395 H 0.19431 0.59409 0.19879 0.0
C3396 C 0.23906 0.65742 0.2434 0.0
C3397 C 0.24658 0.65852 0.22875 0.0
C3398 C 0.22821 0.64464 0.24643 0.0
C3399 C 0.22506 0.63246 0.23504 0.0
C3400 C 0.23244 0.63369 0.22029 0.0
C3401 C 0.24303 0.64665 0.21714 0.0
C3402 C 0.21423 0.61836 0.23854 0.0
C3403 C 0.20169 0.61379 0.22741 0.0
C3404 C 0.21611 0.6095 0.25282 0.0
C3405 C 0.22989 0.61269 0.26444 0.0
C3406 C 0.24591 0.61263 0.25953 0.0
C3407 C 0.25885 0.61576 0.2705 0.0
C3408 C 0.25593 0.61882 0.28646 0.0
C3409 C 0.24006 0.61873 0.29149 0.0
C3410 C 0.22707 0.61563 0.28056 0.0
C3411 C 0.17628 0.54939 0.24238 0.0
C3412 C 0.16605 0.54866 0.25531 0.0
C3413 C 0.18449 0.5637 0.23852 0.0
C3414 C 0.18277 0.57746 0.24768 0.0
C3415 C 0.1723 0.57689 0.26038 0.0
C3416 C 0.16384 0.56265 0.26404 0.0
C3417 C 0.19274 0.59212 0.24459 0.0
C3418 C 0.20514 0.59671 0.25577 0.0
C3419 C 0.19097 0.60074 0.23023 0.0
C3420 C 0.17797 0.59642 0.21806 0.0
C3421 C 0.16167 0.5954 0.22217 0.0
C3422 C 0.1495 0.5912 0.21067 0.0
C3423 C 0.15347 0.58808 0.19499 0.0
C3424 C 0.16961 0.5892 0.19077 0.0
C3425 C 0.18184 0.59338 0.20223 0.0
H3426 H 0.14403 0.58483 0.18611 0.0
H3427 H 0.26596 0.62124 0.29494 0.0
H3428 H 0.93174 0.54917 0.03899 0.0
H3429 H 0.90934 0.56637 0.03285 0.0
H3430 H 0.87861 0.52514 0.01953 0.0
H3431 H 0.90114 0.50785 0.02543 0.0
H3432 H 0.87334 0.5489 0.99929 0.0
H3433 H 0.87566 0.54334 0.0558 0.0
H3434 H 0.88835 0.54351 0.08291 0.0
H3435 H 0.90118 0.59345 0.07868 0.0
H3436 H 0.88876 0.59353 0.05144 0.0
H3437 H 0.80127 0.59445 0.00557 0.0
H3438 H 0.82171 0.57425 0.00826 0.0
H3439 H 0.85872 0.61132 0.01773 0.0
H3440 H 0.83856 0.63146 0.01503 0.0
H3441 H 0.85873 0.58758 0.04042 0.0
H3442 H 0.85682 0.59215 0.98292 0.0
H3443 H 0.84343 0.59129 0.95611 0.0
H3444 H 0.8284 0.5422 0.96297 0.0
H3445 H 0.84153 0.54284 0.98993 0.0
C3446 C 0.92019 0.54376 0.0348 0.0
C3447 C 0.91814 0.52715 0.03285 0.0
C3448 C 0.9074 0.5536 0.0313 0.0
C3449 C 0.89219 0.54703 0.02602 0.0
C3450 C 0.89021 0.53048 0.02363 0.0
C3451 C 0.90309 0.52062 0.027 0.0
C3452 C 0.87835 0.55749 0.02329 0.0
C3453 C 0.86997 0.55719 0.00837 0.0
C3454 C 0.87399 0.56838 0.03509 0.0
C3455 C 0.88139 0.56841 0.05152 0.0
C3456 C 0.88128 0.55434 0.06061 0.0
C3457 C 0.88842 0.55439 0.076 0.0
C3458 C 0.8956 0.56847 0.0825 0.0
C3459 C 0.89563 0.58254 0.07362 0.0
C3460 C 0.88852 0.58255 0.05821 0.0
C3461 C 0.8138 0.59829 0.008 0.0
C3462 C 0.81826 0.61456 0.01017 0.0
C3463 C 0.82545 0.58674 0.00952 0.0
C3464 C 0.84172 0.5913 0.01324 0.0
C3465 C 0.84622 0.60755 0.01493 0.0
C3466 C 0.83466 0.61905 0.01334 0.0
C3467 C 0.85402 0.57927 0.01631 0.0
C3468 C 0.86204 0.57922 0.03137 0.0
C3469 C 0.85788 0.56798 0.00471 0.0
C3470 C 0.84999 0.5676 0.98851 0.0
C3471 C 0.85053 0.58122 0.97877 0.0
C3472 C 0.84302 0.58076 0.96353 0.0
C3473 C 0.83502 0.56671 0.95786 0.0
C3474 C 0.83457 0.55308 0.96739 0.0
C3475 C 0.84206 0.55348 0.98265 0.0
H3476 H 0.82922 0.56638 0.94605 0.0
H3477 H 0.90112 0.56849 0.09442 0.0
H3478 H 0.12104 0.00015 0.0013 0.0
H3479 H 0.14287 0.98168 0.99923 0.0
H3480 H 0.10956 0.94219 0.00908 0.0
H3481 H 0.08779 0.96061 0.01135 0.0
H3482 H 0.13683 0.93933 0.02569 0.0
H3483 H 0.12239 0.95068 0.97084 0.0
H3484 H 0.11759 0.96793 0.94752 0.0
H3485 H 0.16693 0.98613 0.95138 0.0
H3486 H 0.17197 0.96912 0.97487 0.0
H3487 H 0.17833 0.87384 0.00056 0.0
H3488 H 0.15902 0.89486 0.00078 0.0
H3489 H 0.19789 0.93047 0.9969 0.0
H3490 H 0.21746 0.9094 0.99666 0.0
H3491 H 0.16976 0.93679 0.97781 0.0
H3492 H 0.18423 0.92417 0.03209 0.0
H3493 H 0.18873 0.9064 0.05506 0.0
H3494 H 0.13876 0.89017 0.05188 0.0
H3495 H 0.13401 0.90767 0.02873 0.0
C3496 C 0.11837 0.98751 0.00293 0.0
C3497 C 0.1027 0.98182 0.00648 0.0
C3498 C 0.13085 0.97697 0.00172 0.0
C3499 C 0.12783 0.96051 0.00381 0.0
C3500 C 0.1122 0.95484 0.00745 0.0
C3501 C 0.09977 0.96538 0.00879 0.0
C3502 C 0.14093 0.94915 0.00243 0.0
C3503 C 0.14389 0.93868 0.01514 0.0
C3504 C 0.15049 0.94858 0.98886 0.0
C3505 C 0.1475 0.95876 0.97471 0.0
C3506 C 0.13218 0.95845 0.96679 0.0
C3507 C 0.12942 0.96817 0.95353 0.0
C3508 C 0.14193 0.97815 0.948 0.0
C3509 C 0.15724 0.97841 0.9557 0.0
C3510 C 0.16006 0.96872 0.96897 0.0
C3511 C 0.18282 0.88612 0.99958 0.0
C3512 C 0.19947 0.88995 0.99875 0.0
C3513 C 0.17174 0.89812 0.99975 0.0
C3514 C 0.17706 0.91421 0.99911 0.0
C3515 C 0.19357 0.9181 0.99748 0.0
C3516 C 0.20472 0.90606 0.99736 0.0
C3517 C 0.16535 0.92684 0.00093 0.0
C3518 C 0.16272 0.93754 0.98837 0.0
C3519 C 0.156 0.92761 0.0146 0.0
C3520 C 0.1588 0.91714 0.02859 0.0
C3521 C 0.17423 0.91672 0.03621 0.0
C3522 C 0.17682 0.90671 0.04927 0.0
C3523 C 0.16405 0.89713 0.0549 0.0
C3524 C 0.14865 0.89758 0.0475 0.0
C3525 C 0.14599 0.90756 0.03442 0.0
H3526 H 0.16609 0.88939 0.06502 0.0
H3527 H 0.13978 0.98567 0.93774 0.0
loop_
_geom_bond_atom_site_label_1
_geom_bond_atom_site_label_2
_geom_bond_distance
_geom_bond_site_symmetry_2
_ccdc_geom_bond_type
C0 C1 1.391 . S
C0 C4 1.391 . S
C0 H42 0.948 . S
C1 C0 1.391 . S
C1 C2 1.392 . S
C2 C1 1.392 . S
C2 H58 0.941 1_556 S
C2 C59 1.391 1_556 S
C3 C4 1.391 1_554 S
C3 C7 1.397 . S
C3 C59 1.419 . S
C4 C0 1.391 . S
C4 C3 1.391 1_556 S
C4 C5 1.399 . S
C5 C4 1.399 . S
C5 C8 1.396 1_556 S
C5 C17 1.454 . S
C5 C18 1.684 . S
H6 C30 0.948 . S
C7 C3 1.397 . S
C7 C8 1.394 . S
C7 C26 1.723 . S
C8 C5 1.396 1_554 S
C8 C7 1.394 . S
C8 C38 1.723 . S
H9 C32 0.947 1_556 S
H10 C33 0.948 1_556 S
H11 C39 0.982 . S
H12 C40 0.979 . S
H13 C40 0.980 . S
H14 C40 0.983 . S
H15 C39 0.979 1_565 S
H16 C39 0.977 . S
C17 C5 1.454 . S
C17 H46 0.964 1_556 S
C17 H47 0.999 . S
C17 H48 0.974 1_556 S
C18 C5 1.684 . S
C18 H43 0.979 . S
C18 H44 0.980 . S
C18 H45 0.983 . S
C19 C20 1.391 . S
C19 C24 1.391 1_655 S
C19 H49 0.948 . S
C20 C19 1.391 . S
C20 C21 1.391 1_655 S
C21 C20 1.391 1_455 S
C21 C22 1.392 . S
C21 H50 0.947 . S
C22 C21 1.392 . S
C22 C23 1.419 . S
C22 H51 0.948 . S
C23 C22 1.419 . S
C23 C24 1.391 . S
C23 C27 1.397 . S
C24 C19 1.391 1_455 S
C24 C23 1.391 . S
C24 C25 1.399 . S
C25 C24 1.399 . S
C25 C26 1.396 . S
C25 C28 1.453 . S
C25 C29 1.684 1_455 S
C26 C7 1.723 . S
C26 C25 1.396 . S
C26 C27 1.394 . S
C27 C23 1.397 . S
C27 C26 1.394 . S
C27 C37 1.723 . S
C28 C25 1.453 . S
C28 H52 0.982 . S
C28 H53 0.971 1_455 S
C28 H54 0.977 . S
C29 C25 1.684 1_655 S
C29 H55 0.979 . S
C29 H56 0.980 . S
C29 H57 0.983 . S
C30 H6 0.948 . S
C30 C31 1.391 . S
C30 C35 1.391 1_565 S
C31 C30 1.391 . S
C31 C32 1.391 1_565 S
C32 H9 0.947 1_554 S
C32 C31 1.391 1_545 S
C32 C33 1.392 . S
C33 H10 0.948 1_554 S
C33 C32 1.392 . S
C33 C34 1.419 . S
C34 C33 1.419 . S
C34 C35 1.391 . S
C34 C38 1.397 . S
C35 C30 1.391 1_545 S
C35 C34 1.391 . S
C35 C36 1.399 . S
C36 C35 1.399 . S
C36 C37 1.396 . S
C36 C39 1.453 . S
C36 C40 1.684 1_545 S
C37 C27 1.723 . S
C37 C36 1.396 . S
C37 C38 1.394 . S
C38 C8 1.723 . S
C38 C34 1.397 . S
C38 C37 1.394 . S
C39 H11 0.982 . S
C39 H15 0.979 1_545 S
C39 H16 0.977 . S
C39 C36 1.453 . S
C40 H12 0.979 . S
C40 H13 0.980 . S
C40 H14 0.983 . S
C40 C36 1.684 1_565 S
H41 C59 0.948 . S
H42 C0 0.948 . S
H43 C18 0.979 . S
H44 C18 0.980 . S
H45 C18 0.983 . S
H46 C17 0.964 1_554 S
H47 C17 0.999 . S
H48 C17 0.974 1_554 S
H49 C19 0.948 . S
H50 C21 0.947 . S
H51 C22 0.948 . S
H52 C28 0.982 . S
H53 C28 0.971 1_655 S
H54 C28 0.977 . S
H55 C29 0.979 . S
H56 C29 0.980 . S
H57 C29 0.983 . S
H58 C2 0.941 1_554 S
C59 C2 1.391 1_554 S
C59 C3 1.419 . S
C59 H41 0.948 . S
C60 C61 1.391 . S
C60 C64 1.391 . S
C60 H102 0.948 . S
C61 C60 1.391 . S
C61 C62 1.391 . S
C62 C61 1.391 . S
C62 H118 0.947 . S
C62 C119 1.392 . S
C63 C64 1.391 . S
C63 C67 1.397 . S
C63 C119 1.419 . S
C64 C60 1.391 . S
C64 C63 1.391 . S
C64 C65 1.399 . S
C65 C64 1.399 . S
C65 C68 1.396 . S
C65 C77 1.453 . S
C65 C78 1.684 . S
H66 C90 0.948 . S
C67 C63 1.397 . S
C67 C68 1.394 . S
C67 C86 1.723 . S
C68 C65 1.396 . S
C68 C67 1.394 . S
C68 C98 1.723 . S
H69 C92 0.947 . S
H70 C93 0.948 . S
H71 C99 0.982 . S
H72 C100 0.979 . S
H73 C100 0.980 . S
H74 C100 0.983 . S
H75 C99 0.979 . S
H76 C99 0.977 . S
C77 C65 1.453 . S
C77 H106 0.982 . S
C77 H107 0.979 . S
C77 H108 0.977 . S
C78 C65 1.684 . S
C78 H103 0.979 . S
C78 H104 0.980 . S
C78 H105 0.983 . S
C79 C80 1.391 . S
C79 C84 1.391 . S
C79 H109 0.948 . S
C80 C79 1.391 . S
C80 C81 1.391 . S
C81 C80 1.391 . S
C81 C82 1.392 . S
C81 H110 0.947 . S
C82 C81 1.392 . S
C82 C83 1.419 . S
C82 H111 0.948 . S
C83 C82 1.419 . S
C83 C84 1.391 . S
C83 C87 1.397 . S
C84 C79 1.391 . S
C84 C83 1.391 . S
C84 C85 1.399 . S
C85 C84 1.399 . S
C85 C86 1.396 . S
C85 C88 1.453 . S
C85 C89 1.684 . S
C86 C67 1.723 . S
C86 C85 1.396 . S
C86 C87 1.394 . S
C87 C83 1.397 . S
C87 C86 1.394 . S
C87 C97 1.723 . S
C88 C85 1.453 . S
C88 H112 0.982 . S
C88 H113 0.979 . S
C88 H114 0.977 . S
C89 C85 1.684 . S
C89 H115 0.979 . S
C89 H116 0.980 . S
C89 H117 0.983 . S
C90 H66 0.948 . S
C90 C91 1.391 . S
C90 C95 1.391 . S
C91 C90 1.391 . S
C91 C92 1.391 . S
C92 H69 0.947 . S
C92 C91 1.391 . S
C92 C93 1.392 . S
C93 H70 0.948 . S
C93 C92 1.392 . S
C93 C94 1.419 . S
C94 C93 1.419 . S
C94 C95 1.391 . S
C94 C98 1.397 . S
C95 C90 1.391 . S
C95 C94 1.391 . S
C95 C96 1.399 . S
C96 C95 1.399 . S
C96 C97 1.396 . S
C96 C99 1.453 . S
C96 C100 1.684 . S
C97 C87 1.723 . S
C97 C96 1.396 . S
C97 C98 1.394 . S
C98 C68 1.723 . S
C98 C94 1.397 . S
C98 C97 1.394 . S
C99 H71 0.982 . S
C99 H75 0.979 . S
C99 H76 0.977 . S
C99 C96 1.453 . S
C100 H72 0.979 . S
C100 H73 0.980 . S
C100 H74 0.983 . S
C100 C96 1.684 . S
H101 C119 0.948 . S
H102 C60 0.948 . S
H103 C78 0.979 . S
H104 C78 0.980 . S
H105 C78 0.983 . S
H106 C77 0.982 . S
H107 C77 0.979 . S
H108 C77 0.977 . S
H109 C79 0.948 . S
H110 C81 0.947 . S
H111 C82 0.948 . S
H112 C88 0.982 . S
H113 C88 0.979 . S
H114 C88 0.977 . S
H115 C89 0.979 . S
H116 C89 0.980 . S
H117 C89 0.983 . S
H118 C62 0.947 . S
C119 C62 1.392 . S
C119 C63 1.419 . S
C119 H101 0.948 . S
C120 C121 1.429 . S
C120 C124 1.391 . S
C120 H162 0.948 1_655 S
C121 C120 1.429 . S
C121 C122 1.382 1_554 S
C122 C121 1.382 1_556 S
C122 H178 0.947 . S
C122 C179 1.392 1_556 S
C123 C124 1.391 . S
C123 C127 1.397 . S
C123 C179 1.419 . S
C124 C120 1.391 . S
C124 C123 1.391 . S
C124 C125 1.399 1_655 S
C125 C124 1.399 1_455 S
C125 C128 1.396 1_455 S
C125 C137 1.453 . S
C125 C138 1.684 . S
H126 C150 0.948 . S
C127 C123 1.397 . S
C127 C128 1.394 . S
C127 C146 1.723 . S
C128 C125 1.396 1_655 S
C128 C127 1.394 . S
C128 C158 1.723 . S
H129 C152 0.947 . S
H130 C153 0.948 . S
H131 C159 0.982 . S
H132 C160 0.979 . S
H133 C160 0.980 . S
H134 C160 0.983 . S
H135 C159 0.979 . S
H136 C159 0.977 . S
C137 C125 1.453 . S
C137 H166 0.982 1_455 S
C137 H167 0.979 . S
C137 H168 0.977 . S
C138 C125 1.684 . S
C138 H163 0.979 . S
C138 H164 0.980 . S
C138 H165 0.983 . S
C139 C140 1.391 . S
C139 C144 1.391 . S
C139 H169 0.948 . S
C140 C139 1.391 . S
C140 C141 1.391 . S
C141 C140 1.391 . S
C141 C142 1.392 . S
C141 H170 0.947 . S
C142 C141 1.392 . S
C142 C143 1.419 . S
C142 H171 0.948 . S
C143 C142 1.419 . S
C143 C144 1.391 . S
C143 C147 1.397 . S
C144 C139 1.391 . S
C144 C143 1.391 . S
C144 C145 1.399 . S
C145 C144 1.399 . S
C145 C146 1.396 . S
C145 C148 1.453 . S
C145 C149 1.684 . S
C146 C127 1.723 . S
C146 C145 1.396 . S
C146 C147 1.394 . S
C147 C143 1.397 . S
C147 C146 1.394 . S
C147 C157 1.723 . S
C148 C145 1.453 . S
C148 H172 0.982 . S
C148 H173 0.979 . S
C148 H174 0.977 . S
C149 C145 1.684 . S
C149 H175 0.966 1_554 S
C149 H176 0.980 1_554 S
C149 H177 0.983 1_554 S
C150 H126 0.948 . S
C150 C151 1.391 . S
C150 C155 1.427 . S
C151 C150 1.391 . S
C151 C152 1.391 . S
C152 H129 0.947 . S
C152 C151 1.391 . S
C152 C153 1.392 . S
C153 H130 0.948 . S
C153 C152 1.392 . S
C153 C154 1.419 . S
C154 C153 1.419 . S
C154 C155 1.407 . S
C154 C158 1.397 1_455 S
C155 C150 1.427 . S
C155 C154 1.407 . S
C155 C156 1.343 1_455 S
C156 C155 1.343 1_655 S
C156 C157 1.396 . S
C156 C159 1.453 . S
C156 C160 1.684 . S
C157 C147 1.723 . S
C157 C156 1.396 . S
C157 C158 1.394 . S
C158 C128 1.723 . S
C158 C154 1.397 1_655 S
C158 C157 1.394 . S
C159 H131 0.982 . S
C159 H135 0.979 . S
C159 H136 0.977 . S
C159 C156 1.453 . S
C160 H132 0.979 . S
C160 H133 0.980 . S
C160 H134 0.983 . S
C160 C156 1.684 . S
H161 C179 0.948 . S
H162 C120 0.948 1_455 S
H163 C138 0.979 . S
H164 C138 0.980 . S
H165 C138 0.983 . S
H166 C137 0.982 1_655 S
H167 C137 0.979 . S
H168 C137 0.977 . S
H169 C139 0.948 . S
H170 C141 0.947 . S
H171 C142 0.948 . S
H172 C148 0.982 . S
H173 C148 0.979 . S
H174 C148 0.977 . S
H175 C149 0.966 1_556 S
H176 C149 0.980 1_556 S
H177 C149 0.983 1_556 S
H178 C122 0.947 . S
C179 C122 1.392 1_554 S
C179 C123 1.419 . S
C179 H161 0.948 . S
C180 C181 1.391 . S
C180 C184 1.391 . S
C180 H222 0.948 . S
C181 C180 1.391 . S
C181 C182 1.391 . S
C182 C181 1.391 . S
C182 H238 0.947 . S
C182 C239 1.392 . S
C183 C184 1.391 . S
C183 C187 1.397 . S
C183 C239 1.419 . S
C184 C180 1.391 . S
C184 C183 1.391 . S
C184 C185 1.399 . S
C185 C184 1.399 . S
C185 C188 1.396 . S
C185 C197 1.453 . S
C185 C198 1.684 . S
H186 C210 0.948 . S
C187 C183 1.397 . S
C187 C188 1.394 . S
C187 C206 1.723 . S
C188 C185 1.396 . S
C188 C187 1.394 . S
C188 C218 1.723 . S
H189 C212 0.947 . S
H190 C213 0.948 . S
H191 C219 0.982 . S
H192 C220 0.979 . S
H193 C220 0.980 . S
H194 C220 0.983 . S
H195 C219 0.979 . S
H196 C219 0.977 . S
C197 C185 1.453 . S
C197 H226 0.982 . S
C197 H227 0.979 . S
C197 H228 0.977 . S
C198 C185 1.684 . S
C198 H223 0.979 . S
C198 H224 0.980 . S
C198 H225 0.983 . S
C199 C200 1.391 . S
C199 C204 1.391 . S
C199 H229 0.948 . S
C200 C199 1.391 . S
C200 C201 1.391 . S
C201 C200 1.391 . S
C201 C202 1.392 . S
C201 H230 0.947 . S
C202 C201 1.392 . S
C202 C203 1.419 . S
C202 H231 0.948 . S
C203 C202 1.419 . S
C203 C204 1.391 . S
C203 C207 1.397 . S
C204 C199 1.391 . S
C204 C203 1.391 . S
C204 C205 1.399 . S
C205 C204 1.399 . S
C205 C206 1.396 . S
C205 C208 1.453 . S
C205 C209 1.684 . S
C206 C187 1.723 . S
C206 C205 1.396 . S
C206 C207 1.394 . S
C207 C203 1.397 . S
C207 C206 1.394 . S
C207 C217 1.723 . S
C208 C205 1.453 . S
C208 H232 0.982 . S
C208 H233 0.979 . S
C208 H234 0.977 . S
C209 C205 1.684 . S
C209 H235 0.979 . S
C209 H236 0.980 . S
C209 H237 0.983 . S
C210 H186 0.948 . S
C210 C211 1.391 . S
C210 C215 1.391 . S
C211 C210 1.391 . S
C211 C212 1.391 . S
C212 H189 0.947 . S
C212 C211 1.391 . S
C212 C213 1.392 . S
C213 H190 0.948 . S
C213 C212 1.392 . S
C213 C214 1.419 . S
C214 C213 1.419 . S
C214 C215 1.391 . S
C214 C218 1.397 . S
C215 C210 1.391 . S
C215 C214 1.391 . S
C215 C216 1.399 . S
C216 C215 1.399 . S
C216 C217 1.396 . S
C216 C219 1.453 . S
C216 C220 1.684 . S
C217 C207 1.723 . S
C217 C216 1.396 . S
C217 C218 1.394 . S
C218 C188 1.723 . S
C218 C214 1.397 . S
C218 C217 1.394 . S
C219 H191 0.982 . S
C219 H195 0.979 . S
C219 H196 0.977 . S
C219 C216 1.453 . S
C220 H192 0.979 . S
C220 H193 0.980 . S
C220 H194 0.983 . S
C220 C216 1.684 . S
H221 C239 0.948 . S
H222 C180 0.948 . S
H223 C198 0.979 . S
H224 C198 0.980 . S
H225 C198 0.983 . S
H226 C197 0.982 . S
H227 C197 0.979 . S
H228 C197 0.977 . S
H229 C199 0.948 . S
H230 C201 0.947 . S
H231 C202 0.948 . S
H232 C208 0.982 . S
H233 C208 0.979 . S
H234 C208 0.977 . S
H235 C209 0.979 . S
H236 C209 0.980 . S
H237 C209 0.983 . S
H238 C182 0.947 . S
C239 C182 1.392 . S
C239 C183 1.419 . S
C239 H221 0.948 . S
C240 C241 1.391 . S
C240 C244 1.391 . S
C240 H282 0.948 . S
C241 C240 1.391 . S
C241 C242 1.391 . S
C242 C241 1.391 . S
C242 H298 0.947 . S
C242 C299 1.392 . S
C243 C244 1.391 . S
C243 C247 1.397 . S
C243 C299 1.419 . S
C244 C240 1.391 . S
C244 C243 1.391 . S
C244 C245 1.399 . S
C245 C244 1.399 . S
C245 C248 1.396 . S
C245 C257 1.453 . S
C245 C258 1.684 . S
H246 C270 0.948 . S
C247 C243 1.397 . S
C247 C248 1.394 . S
C247 C266 1.723 . S
C248 C245 1.396 . S
C248 C247 1.394 . S
C248 C278 1.723 . S
H249 C272 0.947 . S
H250 C273 0.948 . S
H251 C279 0.982 . S
H252 C280 0.979 1_565 S
H253 C280 0.980 . S
H254 C280 0.983 . S
H255 C279 0.979 . S
H256 C279 0.977 . S
C257 C245 1.453 . S
C257 H286 0.982 . S
C257 H287 0.979 . S
C257 H288 0.977 . S
C258 C245 1.684 . S
C258 H283 0.979 . S
C258 H284 0.980 . S
C258 H285 0.983 . S
C259 C260 1.391 . S
C259 C264 1.391 . S
C259 H289 0.948 . S
C260 C259 1.391 . S
C260 C261 1.391 . S
C261 C260 1.391 . S
C261 C262 1.392 . S
C261 H290 0.947 1_565 S
C262 C261 1.392 . S
C262 C263 1.419 . S
C262 H291 0.949 . S
C263 C262 1.419 . S
C263 C264 1.391 . S
C263 C267 1.397 . S
C264 C259 1.391 . S
C264 C263 1.391 . S
C264 C265 1.399 . S
C265 C264 1.399 . S
C265 C266 1.396 . S
C265 C268 1.453 . S
C265 C269 1.684 . S
C266 C247 1.723 . S
C266 C265 1.396 . S
C266 C267 1.394 . S
C267 C263 1.397 . S
C267 C266 1.394 . S
C267 C277 1.723 . S
C268 C265 1.453 . S
C268 H292 0.982 . S
C268 H293 0.926 1_455 S
C268 H294 0.977 . S
C269 C265 1.684 . S
C269 H295 0.979 . S
C269 H296 0.980 . S
C269 H297 0.983 . S
C270 H246 0.948 . S
C270 C271 1.391 . S
C270 C275 1.415 . S
C271 C270 1.391 . S
C271 C272 1.391 1_545 S
C272 H249 0.947 . S
C272 C271 1.391 1_565 S
C272 C273 1.392 . S
C273 H250 0.948 . S
C273 C272 1.392 . S
C273 C274 1.419 . S
C274 C273 1.419 . S
C274 C275 1.366 1_565 S
C274 C278 1.397 . S
C275 C270 1.415 . S
C275 C274 1.366 1_545 S
C275 C276 1.400 1_545 S
C276 C275 1.400 1_565 S
C276 C277 1.403 . S
C276 C279 1.444 1_565 S
C276 C280 1.682 1_565 S
C277 C267 1.723 . S
C277 C276 1.403 . S
C277 C278 1.394 . S
C278 C248 1.723 . S
C278 C274 1.397 . S
C278 C277 1.394 . S
C279 H251 0.982 . S
C279 H255 0.979 . S
C279 H256 0.977 . S
C279 C276 1.444 1_545 S
C280 H252 0.979 1_545 S
C280 H253 0.980 . S
C280 H254 0.983 . S
C280 C276 1.682 1_545 S
H281 C299 0.948 . S
H282 C240 0.948 . S
H283 C258 0.979 . S
H284 C258 0.980 . S
H285 C258 0.983 . S
H286 C257 0.982 . S
H287 C257 0.979 . S
H288 C257 0.977 . S
H289 C259 0.948 . S
H290 C261 0.947 1_545 S
H291 C262 0.949 . S
H292 C268 0.982 . S
H293 C268 0.926 1_655 S
H294 C268 0.977 . S
H295 C269 0.979 . S
H296 C269 0.980 . S
H297 C269 0.983 . S
H298 C242 0.947 . S
C299 C242 1.392 . S
C299 C243 1.419 . S
C299 H281 0.948 . S
C300 C301 1.391 . S
C300 C304 1.391 . S
C300 H342 0.948 . S
C301 C300 1.391 . S
C301 C302 1.391 . S
C302 C301 1.391 . S
C302 H358 0.947 . S
C302 C359 1.392 . S
C303 C304 1.391 . S
C303 C307 1.397 . S
C303 C359 1.419 . S
C304 C300 1.391 . S
C304 C303 1.391 . S
C304 C305 1.399 . S
C305 C304 1.399 . S
C305 C308 1.396 . S
C305 C317 1.453 . S
C305 C318 1.684 . S
H306 C330 0.948 . S
C307 C303 1.397 . S
C307 C308 1.394 . S
C307 C326 1.723 . S
C308 C305 1.396 . S
C308 C307 1.394 . S
C308 C338 1.723 . S
H309 C332 0.947 . S
H310 C333 0.948 . S
H311 C339 0.982 . S
H312 C340 0.979 . S
H313 C340 0.980 . S
H314 C340 0.983 . S
H315 C339 0.979 . S
H316 C339 0.977 . S
C317 C305 1.453 . S
C317 H346 0.982 . S
C317 H347 0.979 . S
C317 H348 0.977 . S
C318 C305 1.684 . S
C318 H343 0.979 . S
C318 H344 0.980 . S
C318 H345 0.983 . S
C319 C320 1.391 . S
C319 C324 1.391 . S
C319 H349 0.948 . S
C320 C319 1.391 . S
C320 C321 1.391 . S
C321 C320 1.391 . S
C321 C322 1.392 . S
C321 H350 0.947 . S
C322 C321 1.392 . S
C322 C323 1.419 . S
C322 H351 0.948 . S
C323 C322 1.419 . S
C323 C324 1.391 . S
C323 C327 1.397 . S
C324 C319 1.391 . S
C324 C323 1.391 . S
C324 C325 1.399 . S
C325 C324 1.399 . S
C325 C326 1.396 . S
C325 C328 1.453 . S
C325 C329 1.684 . S
C326 C307 1.723 . S
C326 C325 1.396 . S
C326 C327 1.394 . S
C327 C323 1.397 . S
C327 C326 1.394 . S
C327 C337 1.723 . S
C328 C325 1.453 . S
C328 H352 0.982 . S
C328 H353 0.979 . S
C328 H354 0.977 . S
C329 C325 1.684 . S
C329 H355 0.979 . S
C329 H356 0.980 . S
C329 H357 0.983 . S
C330 H306 0.948 . S
C330 C331 1.391 . S
C330 C335 1.391 . S
C331 C330 1.391 . S
C331 C332 1.391 . S
C332 H309 0.947 . S
C332 C331 1.391 . S
C332 C333 1.392 . S
C333 H310 0.948 . S
C333 C332 1.392 . S
C333 C334 1.419 . S
C334 C333 1.419 . S
C334 C335 1.391 . S
C334 C338 1.397 . S
C335 C330 1.391 . S
C335 C334 1.391 . S
C335 C336 1.399 . S
C336 C335 1.399 . S
C336 C337 1.396 . S
C336 C339 1.453 . S
C336 C340 1.684 . S
C337 C327 1.723 . S
C337 C336 1.396 . S
C337 C338 1.394 . S
C338 C308 1.723 . S
C338 C334 1.397 . S
C338 C337 1.394 . S
C339 H311 0.982 . S
C339 H315 0.979 . S
C339 H316 0.977 . S
C339 C336 1.453 . S
C340 H312 0.979 . S
C340 H313 0.980 . S
C340 H314 0.983 . S
C340 C336 1.684 . S
H341 C359 0.948 . S
H342 C300 0.948 . S
H343 C318 0.979 . S
H344 C318 0.980 . S
H345 C318 0.983 . S
H346 C317 0.982 . S
H347 C317 0.979 . S
H348 C317 0.977 . S
H349 C319 0.948 . S
H350 C321 0.947 . S
H351 C322 0.948 . S
H352 C328 0.982 . S
H353 C328 0.979 . S
H354 C328 0.977 . S
H355 C329 0.979 . S
H356 C329 0.980 . S
H357 C329 0.983 . S
H358 C302 0.947 . S
C359 C302 1.392 . S
C359 C303 1.419 . S
C359 H341 0.948 . S
C360 C361 1.391 . S
C360 C364 1.391 . S
C360 H402 0.948 . S
C361 C360 1.391 . S
C361 C362 1.391 . S
C362 C361 1.391 . S
C362 H418 0.947 . S
C362 C419 1.392 . S
C363 C364 1.391 . S
C363 C367 1.397 . S
C363 C419 1.419 . S
C364 C360 1.391 . S
C364 C363 1.391 . S
C364 C365 1.399 . S
C365 C364 1.399 . S
C365 C368 1.396 . S
C365 C377 1.453 . S
C365 C378 1.684 . S
H366 C390 0.948 . S
C367 C363 1.397 . S
C367 C368 1.394 . S
C367 C386 1.723 . S
C368 C365 1.396 . S
C368 C367 1.394 . S
C368 C398 1.723 . S
H369 C392 0.947 . S
H370 C393 0.948 . S
H371 C399 0.982 . S
H372 C400 0.979 . S
H373 C400 0.980 . S
H374 C400 0.983 . S
H375 C399 0.999 . S
H376 C399 0.977 . S
C377 C365 1.453 . S
C377 H406 0.982 . S
C377 H407 0.979 . S
C377 H408 0.977 . S
C378 C365 1.684 . S
C378 H403 0.979 . S
C378 H404 0.980 . S
C378 H405 0.983 . S
C379 C380 1.347 1_655 S
C379 C384 1.428 . S
C379 H409 0.959 . S
C380 C379 1.347 1_455 S
C380 C381 1.391 . S
C381 C380 1.391 . S
C381 C382 1.392 . S
C381 H410 0.947 . S
C382 C381 1.392 . S
C382 C383 1.419 1_455 S
C382 H411 0.948 . S
C383 C382 1.419 1_655 S
C383 C384 1.391 . S
C383 C387 1.397 . S
C384 C379 1.428 . S
C384 C383 1.391 . S
C384 C385 1.399 . S
C385 C384 1.399 . S
C385 C386 1.396 . S
C385 C388 1.453 . S
C385 C389 1.684 . S
C386 C367 1.723 . S
C386 C385 1.396 . S
C386 C387 1.394 . S
C387 C383 1.397 . S
C387 C386 1.394 . S
C387 C397 1.723 . S
C388 C385 1.453 . S
C388 H412 0.982 . S
C388 H413 0.979 . S
C388 H414 0.977 . S
C389 C385 1.684 . S
C389 H415 0.979 . S
C389 H416 0.980 . S
C389 H417 0.983 . S
C390 H366 0.948 . S
C390 C391 1.391 . S
C390 C395 1.391 . S
C391 C390 1.391 . S
C391 C392 1.391 . S
C392 H369 0.947 . S
C392 C391 1.391 . S
C392 C393 1.392 . S
C393 H370 0.948 . S
C393 C392 1.392 . S
C393 C394 1.419 . S
C394 C393 1.419 . S
C394 C395 1.391 . S
C394 C398 1.397 . S
C395 C390 1.391 . S
C395 C394 1.391 . S
C395 C396 1.399 . S
C396 C395 1.399 . S
C396 C397 1.396 . S
C396 C399 1.453 . S
C396 C400 1.684 1_655 S
C397 C387 1.723 . S
C397 C396 1.396 . S
C397 C398 1.394 . S
C398 C368 1.723 . S
C398 C394 1.397 . S
C398 C397 1.394 . S
C399 H371 0.982 . S
C399 H375 0.999 . S
C399 H376 0.977 . S
C399 C396 1.453 . S
C400 H372 0.979 . S
C400 H373 0.980 . S
C400 H374 0.983 . S
C400 C396 1.684 1_455 S
H401 C419 0.948 . S
H402 C360 0.948 . S
H403 C378 0.979 . S
H404 C378 0.980 . S
H405 C378 0.983 . S
H406 C377 0.982 . S
H407 C377 0.979 . S
H408 C377 0.977 . S
H409 C379 0.959 . S
H410 C381 0.947 . S
H411 C382 0.948 . S
H412 C388 0.982 . S
H413 C388 0.979 . S
H414 C388 0.977 . S
H415 C389 0.979 . S
H416 C389 0.980 . S
H417 C389 0.983 . S
H418 C362 0.947 . S
C419 C362 1.392 . S
C419 C363 1.419 . S
C419 H401 0.948 . S
C420 C421 1.391 . S
C420 C424 1.391 . S
C420 H462 0.948 . S
C421 C420 1.391 . S
C421 C422 1.391 . S
C422 C421 1.391 . S
C422 H478 0.947 . S
C422 C479 1.392 . S
C423 C424 1.391 . S
C423 C427 1.397 . S
C423 C479 1.419 . S
C424 C420 1.391 . S
C424 C423 1.391 . S
C424 C425 1.399 . S
C425 C424 1.399 . S
C425 C428 1.396 . S
C425 C437 1.453 . S
C425 C438 1.684 . S
H426 C450 0.948 . S
C427 C423 1.397 . S
C427 C428 1.394 . S
C427 C446 1.723 . S
C428 C425 1.396 . S
C428 C427 1.394 . S
C428 C458 1.723 . S
H429 C452 0.947 . S
H430 C453 0.948 . S
H431 C459 0.982 . S
H432 C460 0.979 . S
H433 C460 0.980 . S
H434 C460 0.983 . S
H435 C459 0.979 . S
H436 C459 0.977 . S
C437 C425 1.453 . S
C437 H466 0.982 . S
C437 H467 0.979 . S
C437 H468 0.977 . S
C438 C425 1.684 . S
C438 H463 0.979 . S
C438 H464 0.980 . S
C438 H465 0.983 . S
C439 C440 1.391 . S
C439 C444 1.391 . S
C439 H469 0.948 . S
C440 C439 1.391 . S
C440 C441 1.391 . S
C441 C440 1.391 . S
C441 C442 1.392 . S
C441 H470 0.947 . S
C442 C441 1.392 . S
C442 C443 1.419 . S
C442 H471 0.948 . S
C443 C442 1.419 . S
C443 C444 1.391 . S
C443 C447 1.397 . S
C444 C439 1.391 . S
C444 C443 1.391 . S
C444 C445 1.399 . S
C445 C444 1.399 . S
C445 C446 1.396 . S
C445 C448 1.453 . S
C445 C449 1.684 . S
C446 C427 1.723 . S
C446 C445 1.396 . S
C446 C447 1.394 . S
C447 C443 1.397 . S
C447 C446 1.394 . S
C447 C457 1.723 . S
C448 C445 1.453 . S
C448 H472 0.982 . S
C448 H473 0.979 . S
C448 H474 0.977 . S
C449 C445 1.684 . S
C449 H475 0.979 . S
C449 H476 0.980 . S
C449 H477 0.983 . S
C450 H426 0.948 . S
C450 C451 1.391 . S
C450 C455 1.391 . S
C451 C450 1.391 . S
C451 C452 1.391 . S
C452 H429 0.947 . S
C452 C451 1.391 . S
C452 C453 1.392 . S
C453 H430 0.948 . S
C453 C452 1.392 . S
C453 C454 1.419 . S
C454 C453 1.419 . S
C454 C455 1.391 . S
C454 C458 1.397 . S
C455 C450 1.391 . S
C455 C454 1.391 . S
C455 C456 1.399 . S
C456 C455 1.399 . S
C456 C457 1.396 . S
C456 C459 1.453 . S
C456 C460 1.684 . S
C457 C447 1.723 . S
C457 C456 1.396 . S
C457 C458 1.394 . S
C458 C428 1.723 . S
C458 C454 1.397 . S
C458 C457 1.394 . S
C459 H431 0.982 . S
C459 H435 0.979 . S
C459 H436 0.977 . S
C459 C456 1.453 . S
C460 H432 0.979 . S
C460 H433 0.980 . S
C460 H434 0.983 . S
C460 C456 1.684 . S
H461 C479 0.948 . S
H462 C420 0.948 . S
H463 C438 0.979 . S
H464 C438 0.980 . S
H465 C438 0.983 . S
H466 C437 0.982 . S
H467 C437 0.979 . S
H468 C437 0.977 . S
H469 C439 0.948 . S
H470 C441 0.947 . S
H471 C442 0.948 . S
H472 C448 0.982 . S
H473 C448 0.979 . S
H474 C448 0.977 . S
H475 C449 0.979 . S
H476 C449 0.980 . S
H477 C449 0.983 . S
H478 C422 0.947 . S
C479 C422 1.392 . S
C479 C423 1.419 . S
C479 H461 0.948 . S
C480 C481 1.391 . S
C480 C484 1.391 . S
C480 H522 0.948 . S
C481 C480 1.391 . S
C481 C482 1.391 . S
C482 C481 1.391 . S
C482 H538 0.947 . S
C482 C539 1.392 . S
C483 C484 1.391 . S
C483 C487 1.397 . S
C483 C539 1.419 . S
C484 C480 1.391 . S
C484 C483 1.391 . S
C484 C485 1.399 . S
C485 C484 1.399 . S
C485 C488 1.396 . S
C485 C497 1.453 . S
C485 C498 1.684 . S
H486 C510 0.948 . S
C487 C483 1.397 . S
C487 C488 1.394 . S
C487 C506 1.723 . S
C488 C485 1.396 . S
C488 C487 1.394 . S
C488 C518 1.723 . S
H489 C512 0.947 . S
H490 C513 0.948 . S
H491 C519 0.982 . S
H492 C520 0.979 . S
H493 C520 0.980 . S
H494 C520 0.983 . S
H495 C519 0.979 . S
H496 C519 0.977 . S
C497 C485 1.453 . S
C497 H526 0.982 . S
C497 H527 0.979 . S
C497 H528 0.977 . S
C498 C485 1.684 . S
C498 H523 0.979 . S
C498 H524 0.980 . S
C498 H525 0.983 . S
C499 C500 1.391 . S
C499 C504 1.391 . S
C499 H529 0.948 . S
C500 C499 1.391 . S
C500 C501 1.391 . S
C501 C500 1.391 . S
C501 C502 1.392 . S
C501 H530 0.947 . S
C502 C501 1.392 . S
C502 C503 1.419 . S
C502 H531 0.948 . S
C503 C502 1.419 . S
C503 C504 1.391 . S
C503 C507 1.397 . S
C504 C499 1.391 . S
C504 C503 1.391 . S
C504 C505 1.399 . S
C505 C504 1.399 . S
C505 C506 1.396 . S
C505 C508 1.453 . S
C505 C509 1.684 . S
C506 C487 1.723 . S
C506 C505 1.396 . S
C506 C507 1.394 . S
C507 C503 1.397 . S
C507 C506 1.394 . S
C507 C517 1.723 . S
C508 C505 1.453 . S
C508 H532 0.982 . S
C508 H533 0.979 . S
C508 H534 0.977 . S
C509 C505 1.684 . S
C509 H535 0.979 . S
C509 H536 0.980 . S
C509 H537 0.983 . S
C510 H486 0.948 . S
C510 C511 1.391 . S
C510 C515 1.391 . S
C511 C510 1.391 . S
C511 C512 1.391 . S
C512 H489 0.947 . S
C512 C511 1.391 . S
C512 C513 1.392 . S
C513 H490 0.948 . S
C513 C512 1.392 . S
C513 C514 1.419 . S
C514 C513 1.419 . S
C514 C515 1.391 . S
C514 C518 1.397 . S
C515 C510 1.391 . S
C515 C514 1.391 . S
C515 C516 1.399 . S
C516 C515 1.399 . S
C516 C517 1.396 . S
C516 C519 1.453 . S
C516 C520 1.684 . S
C517 C507 1.723 . S
C517 C516 1.396 . S
C517 C518 1.394 . S
C518 C488 1.723 . S
C518 C514 1.397 . S
C518 C517 1.394 . S
C519 H491 0.982 . S
C519 H495 0.979 . S
C519 H496 0.977 . S
C519 C516 1.453 . S
C520 H492 0.979 . S
C520 H493 0.980 . S
C520 H494 0.983 . S
C520 C516 1.684 . S
H521 C539 0.948 . S
H522 C480 0.948 . S
H523 C498 0.979 . S
H524 C498 0.980 . S
H525 C498 0.983 . S
H526 C497 0.982 . S
H527 C497 0.979 . S
H528 C497 0.977 . S
H529 C499 0.948 . S
H530 C501 0.947 . S
H531 C502 0.948 . S
H532 C508 0.982 . S
H533 C508 0.979 . S
H534 C508 0.977 . S
H535 C509 0.979 . S
H536 C509 0.980 . S
H537 C509 0.983 . S
H538 C482 0.947 . S
C539 C482 1.392 . S
C539 C483 1.419 . S
C539 H521 0.948 . S
C540 C541 1.391 . S
C540 C544 1.391 . S
C540 H582 0.948 . S
C541 C540 1.391 . S
C541 C542 1.391 . S
C542 C541 1.391 . S
C542 H598 0.947 . S
C542 C599 1.392 . S
C543 C544 1.391 . S
C543 C547 1.397 . S
C543 C599 1.419 . S
C544 C540 1.391 . S
C544 C543 1.391 . S
C544 C545 1.399 . S
C545 C544 1.399 . S
C545 C548 1.396 . S
C545 C557 1.453 . S
C545 C558 1.684 . S
H546 C570 0.948 . S
C547 C543 1.397 . S
C547 C548 1.394 . S
C547 C566 1.723 . S
C548 C545 1.396 . S
C548 C547 1.394 . S
C548 C578 1.723 . S
H549 C572 0.947 . S
H550 C573 0.948 . S
H551 C579 0.982 . S
H552 C580 0.979 . S
H553 C580 0.980 . S
H554 C580 0.983 . S
H555 C579 0.979 . S
H556 C579 0.977 . S
C557 C545 1.453 . S
C557 H586 0.982 . S
C557 H587 0.979 . S
C557 H588 0.977 . S
C558 C545 1.684 . S
C558 H583 0.979 . S
C558 H584 0.980 . S
C558 H585 0.983 . S
C559 C560 1.391 1_565 S
C559 C564 1.391 . S
C559 H589 0.948 . S
C560 C559 1.391 1_545 S
C560 C561 1.391 . S
C561 C560 1.391 . S
C561 C562 1.392 . S
C561 H590 0.947 . S
C562 C561 1.392 . S
C562 C563 1.419 1_545 S
C562 H591 0.948 . S
C563 C562 1.419 1_565 S
C563 C564 1.391 . S
C563 C567 1.397 . S
C564 C559 1.391 . S
C564 C563 1.391 . S
C564 C565 1.399 . S
C565 C564 1.399 . S
C565 C566 1.396 . S
C565 C568 1.453 . S
C565 C569 1.684 . S
C566 C547 1.723 . S
C566 C565 1.396 . S
C566 C567 1.394 . S
C567 C563 1.397 . S
C567 C566 1.394 . S
C567 C577 1.723 . S
C568 C565 1.453 . S
C568 H592 0.982 . S
C568 H593 0.979 . S
C568 H594 0.977 . S
C569 C565 1.684 . S
C569 H595 0.979 . S
C569 H596 0.980 . S
C569 H597 0.983 . S
C570 H546 0.948 . S
C570 C571 1.391 . S
C570 C575 1.391 . S
C571 C570 1.391 . S
C571 C572 1.391 . S
C572 H549 0.947 . S
C572 C571 1.391 . S
C572 C573 1.392 . S
C573 H550 0.948 . S
C573 C572 1.392 . S
C573 C574 1.419 . S
C574 C573 1.419 . S
C574 C575 1.391 . S
C574 C578 1.397 . S
C575 C570 1.391 . S
C575 C574 1.391 . S
C575 C576 1.399 . S
C576 C575 1.399 . S
C576 C577 1.396 . S
C576 C579 1.453 . S
C576 C580 1.684 1_565 S
C577 C567 1.723 . S
C577 C576 1.396 . S
C577 C578 1.394 . S
C578 C548 1.723 . S
C578 C574 1.397 . S
C578 C577 1.394 . S
C579 H551 0.982 . S
C579 H555 0.979 . S
C579 H556 0.977 . S
C579 C576 1.453 . S
C580 H552 0.979 . S
C580 H553 0.980 . S
C580 H554 0.983 . S
C580 C576 1.684 1_545 S
H581 C599 0.948 . S
H582 C540 0.948 . S
H583 C558 0.979 . S
H584 C558 0.980 . S
H585 C558 0.983 . S
H586 C557 0.982 . S
H587 C557 0.979 . S
H588 C557 0.977 . S
H589 C559 0.948 . S
H590 C561 0.947 . S
H591 C562 0.948 . S
H592 C568 0.982 . S
H593 C568 0.979 . S
H594 C568 0.977 . S
H595 C569 0.979 . S
H596 C569 0.980 . S
H597 C569 0.983 . S
H598 C542 0.947 . S
C599 C542 1.392 . S
C599 C543 1.419 . S
C599 H581 0.948 . S
C600 C601 1.391 . S
C600 C604 1.391 . S
C600 H642 0.948 . S
C601 C600 1.391 . S
C601 C602 1.391 . S
C602 C601 1.391 . S
C602 H658 0.947 . S
C602 C659 1.392 . S
C603 C604 1.391 . S
C603 C607 1.397 . S
C603 C659 1.419 . S
C604 C600 1.391 . S
C604 C603 1.391 . S
C604 C605 1.399 . S
C605 C604 1.399 . S
C605 C608 1.396 . S
C605 C617 1.453 . S
C605 C618 1.684 . S
H606 C630 0.948 . S
C607 C603 1.397 . S
C607 C608 1.394 . S
C607 C626 1.723 . S
C608 C605 1.396 . S
C608 C607 1.394 . S
C608 C638 1.723 . S
H609 C632 0.947 . S
H610 C633 0.948 . S
H611 C639 0.982 . S
H612 C640 0.979 . S
H613 C640 0.980 . S
H614 C640 0.983 . S
H615 C639 0.979 . S
H616 C639 0.977 . S
C617 C605 1.453 . S
C617 H646 0.982 . S
C617 H647 0.979 . S
C617 H648 0.977 . S
C618 C605 1.684 . S
C618 H643 0.979 . S
C618 H644 0.980 . S
C618 H645 0.983 . S
C619 C620 1.391 . S
C619 C624 1.391 . S
C619 H649 0.948 . S
C620 C619 1.391 . S
C620 C621 1.391 . S
C621 C620 1.391 . S
C621 C622 1.392 . S
C621 H650 0.947 . S
C622 C621 1.392 . S
C622 C623 1.419 . S
C622 H651 0.948 . S
C623 C622 1.419 . S
C623 C624 1.391 . S
C623 C627 1.397 . S
C624 C619 1.391 . S
C624 C623 1.391 . S
C624 C625 1.399 . S
C625 C624 1.399 . S
C625 C626 1.396 . S
C625 C628 1.453 . S
C625 C629 1.684 . S
C626 C607 1.723 . S
C626 C625 1.396 . S
C626 C627 1.394 . S
C627 C623 1.397 . S
C627 C626 1.394 . S
C627 C637 1.723 . S
C628 C625 1.453 . S
C628 H652 0.982 . S
C628 H653 0.979 . S
C628 H654 0.977 . S
C629 C625 1.684 . S
C629 H655 0.979 . S
C629 H656 0.980 . S
C629 H657 0.983 . S
C630 H606 0.948 . S
C630 C631 1.391 . S
C630 C635 1.391 . S
C631 C630 1.391 . S
C631 C632 1.391 . S
C632 H609 0.947 . S
C632 C631 1.391 . S
C632 C633 1.392 . S
C633 H610 0.948 . S
C633 C632 1.392 . S
C633 C634 1.419 . S
C634 C633 1.419 . S
C634 C635 1.391 . S
C634 C638 1.397 . S
C635 C630 1.391 . S
C635 C634 1.391 . S
C635 C636 1.399 . S
C636 C635 1.399 . S
C636 C637 1.396 . S
C636 C639 1.453 . S
C636 C640 1.684 . S
C637 C627 1.723 . S
C637 C636 1.396 . S
C637 C638 1.394 . S
C638 C608 1.723 . S
C638 C634 1.397 . S
C638 C637 1.394 . S
C639 H611 0.982 . S
C639 H615 0.979 . S
C639 H616 0.977 . S
C639 C636 1.453 . S
C640 H612 0.979 . S
C640 H613 0.980 . S
C640 H614 0.983 . S
C640 C636 1.684 . S
H641 C659 0.948 . S
H642 C600 0.948 . S
H643 C618 0.979 . S
H644 C618 0.980 . S
H645 C618 0.983 . S
H646 C617 0.982 . S
H647 C617 0.979 . S
H648 C617 0.977 . S
H649 C619 0.948 . S
H650 C621 0.947 . S
H651 C622 0.948 . S
H652 C628 0.982 . S
H653 C628 0.979 . S
H654 C628 0.977 . S
H655 C629 0.979 . S
H656 C629 0.980 . S
H657 C629 0.983 . S
H658 C602 0.947 . S
C659 C602 1.392 . S
C659 C603 1.419 . S
C659 H641 0.948 . S
C660 C661 1.391 . S
C660 C664 1.391 . S
C660 H702 0.948 . S
C661 C660 1.391 . S
C661 C662 1.391 . S
C662 C661 1.391 . S
C662 H718 0.947 . S
C662 C719 1.392 . S
C663 C664 1.391 . S
C663 C667 1.397 . S
C663 C719 1.419 . S
C664 C660 1.391 . S
C664 C663 1.391 . S
C664 C665 1.399 . S
C665 C664 1.399 . S
C665 C668 1.396 . S
C665 C677 1.453 . S
C665 C678 1.684 . S
H666 C690 0.948 . S
C667 C663 1.397 . S
C667 C668 1.394 . S
C667 C686 1.723 . S
C668 C665 1.396 . S
C668 C667 1.394 . S
C668 C698 1.723 . S
H669 C692 0.947 . S
H670 C693 0.948 . S
H671 C699 0.982 . S
H672 C700 0.979 . S
H673 C700 0.980 . S
H674 C700 0.983 . S
H675 C699 0.979 . S
H676 C699 0.977 . S
C677 C665 1.453 . S
C677 H706 0.982 . S
C677 H707 0.979 . S
C677 H708 0.977 . S
C678 C665 1.684 . S
C678 H703 0.979 . S
C678 H704 0.980 . S
C678 H705 0.983 . S
C679 C680 1.391 . S
C679 C684 1.391 . S
C679 H709 0.948 . S
C680 C679 1.391 . S
C680 C681 1.391 . S
C681 C680 1.391 . S
C681 C682 1.392 . S
C681 H710 0.947 . S
C682 C681 1.392 . S
C682 C683 1.419 . S
C682 H711 0.948 . S
C683 C682 1.419 . S
C683 C684 1.391 . S
C683 C687 1.397 . S
C684 C679 1.391 . S
C684 C683 1.391 . S
C684 C685 1.399 . S
C685 C684 1.399 . S
C685 C686 1.396 . S
C685 C688 1.453 . S
C685 C689 1.684 . S
C686 C667 1.723 . S
C686 C685 1.396 . S
C686 C687 1.394 . S
C687 C683 1.397 . S
C687 C686 1.394 . S
C687 C697 1.723 . S
C688 C685 1.453 . S
C688 H712 0.982 . S
C688 H713 0.979 . S
C688 H714 0.977 . S
C689 C685 1.684 . S
C689 H715 0.979 . S
C689 H716 0.980 . S
C689 H717 0.983 . S
C690 H666 0.948 . S
C690 C691 1.391 . S
C690 C695 1.391 . S
C691 C690 1.391 . S
C691 C692 1.391 . S
C692 H669 0.947 . S
C692 C691 1.391 . S
C692 C693 1.392 . S
C693 H670 0.948 . S
C693 C692 1.392 . S
C693 C694 1.419 . S
C694 C693 1.419 . S
C694 C695 1.391 . S
C694 C698 1.397 . S
C695 C690 1.391 . S
C695 C694 1.391 . S
C695 C696 1.399 . S
C696 C695 1.399 . S
C696 C697 1.396 . S
C696 C699 1.453 . S
C696 C700 1.684 . S
C697 C687 1.723 . S
C697 C696 1.396 . S
C697 C698 1.394 . S
C698 C668 1.723 . S
C698 C694 1.397 . S
C698 C697 1.394 . S
C699 H671 0.982 . S
C699 H675 0.979 . S
C699 H676 0.977 . S
C699 C696 1.453 . S
C700 H672 0.979 . S
C700 H673 0.980 . S
C700 H674 0.983 . S
C700 C696 1.684 . S
H701 C719 0.948 . S
H702 C660 0.948 . S
H703 C678 0.979 . S
H704 C678 0.980 . S
H705 C678 0.983 . S
H706 C677 0.982 . S
H707 C677 0.979 . S
H708 C677 0.977 . S
H709 C679 0.948 . S
H710 C681 0.947 . S
H711 C682 0.948 . S
H712 C688 0.982 . S
H713 C688 0.979 . S
H714 C688 0.977 . S
H715 C689 0.979 . S
H716 C689 0.980 . S
H717 C689 0.983 . S
H718 C662 0.947 . S
C719 C662 1.392 . S
C719 C663 1.419 . S
C719 H701 0.948 . S
C720 C721 1.391 . S
C720 C724 1.391 . S
C720 H762 0.948 . S
C721 C720 1.391 . S
C721 C722 1.391 . S
C722 C721 1.391 . S
C722 H778 0.947 . S
C722 C779 1.392 . S
C723 C724 1.391 . S
C723 C727 1.397 . S
C723 C779 1.419 . S
C724 C720 1.391 . S
C724 C723 1.391 . S
C724 C725 1.399 . S
C725 C724 1.399 . S
C725 C728 1.396 . S
C725 C737 1.453 . S
C725 C738 1.684 . S
H726 C750 0.948 . S
C727 C723 1.397 . S
C727 C728 1.394 . S
C727 C746 1.723 . S
C728 C725 1.396 . S
C728 C727 1.394 . S
C728 C758 1.723 . S
H729 C752 0.947 . S
H730 C753 0.948 . S
H731 C759 0.982 . S
H732 C760 0.979 . S
H733 C760 0.980 . S
H734 C760 0.983 . S
H735 C759 0.979 . S
H736 C759 0.977 . S
C737 C725 1.453 . S
C737 H766 0.982 . S
C737 H767 0.979 . S
C737 H768 0.977 . S
C738 C725 1.684 . S
C738 H763 0.979 . S
C738 H764 0.980 . S
C738 H765 0.983 . S
C739 C740 1.391 . S
C739 C744 1.391 . S
C739 H769 0.948 . S
C740 C739 1.391 . S
C740 C741 1.391 . S
C741 C740 1.391 . S
C741 C742 1.392 . S
C741 H770 0.947 . S
C742 C741 1.392 . S
C742 C743 1.419 . S
C742 H771 0.948 . S
C743 C742 1.419 . S
C743 C744 1.391 . S
C743 C747 1.397 . S
C744 C739 1.391 . S
C744 C743 1.391 . S
C744 C745 1.399 . S
C745 C744 1.399 . S
C745 C746 1.396 . S
C745 C748 1.453 . S
C745 C749 1.684 . S
C746 C727 1.723 . S
C746 C745 1.396 . S
C746 C747 1.394 . S
C747 C743 1.397 . S
C747 C746 1.394 . S
C747 C757 1.723 . S
C748 C745 1.453 . S
C748 H772 0.982 . S
C748 H773 0.979 . S
C748 H774 0.977 . S
C749 C745 1.684 . S
C749 H775 0.979 . S
C749 H776 0.980 . S
C749 H777 0.983 . S
C750 H726 0.948 . S
C750 C751 1.391 . S
C750 C755 1.391 . S
C751 C750 1.391 . S
C751 C752 1.391 . S
C752 H729 0.947 . S
C752 C751 1.391 . S
C752 C753 1.392 . S
C753 H730 0.948 . S
C753 C752 1.392 . S
C753 C754 1.419 . S
C754 C753 1.419 . S
C754 C755 1.391 . S
C754 C758 1.397 . S
C755 C750 1.391 . S
C755 C754 1.391 . S
C755 C756 1.399 . S
C756 C755 1.399 . S
C756 C757 1.396 . S
C756 C759 1.453 . S
C756 C760 1.684 . S
C757 C747 1.723 . S
C757 C756 1.396 . S
C757 C758 1.394 . S
C758 C728 1.723 . S
C758 C754 1.397 . S
C758 C757 1.394 . S
C759 H731 0.982 . S
C759 H735 0.979 . S
C759 H736 0.977 . S
C759 C756 1.453 . S
C760 H732 0.979 . S
C760 H733 0.980 . S
C760 H734 0.983 . S
C760 C756 1.684 . S
H761 C779 0.948 . S
H762 C720 0.948 . S
H763 C738 0.979 . S
H764 C738 0.980 . S
H765 C738 0.983 . S
H766 C737 0.982 . S
H767 C737 0.979 . S
H768 C737 0.977 . S
H769 C739 0.948 . S
H770 C741 0.947 . S
H771 C742 0.948 . S
H772 C748 0.982 . S
H773 C748 0.979 . S
H774 C748 0.977 . S
H775 C749 0.979 . S
H776 C749 0.980 . S
H777 C749 0.983 . S
H778 C722 0.947 . S
C779 C722 1.392 . S
C779 C723 1.419 . S
C779 H761 0.948 . S
C780 C781 1.391 . S
C780 C784 1.391 1_554 S
C780 H822 0.948 . S
C781 C780 1.391 . S
C781 C782 1.391 1_554 S
C782 C781 1.391 1_556 S
C782 H838 0.947 . S
C782 C839 1.392 . S
C783 C784 1.391 . S
C783 C787 1.397 . S
C783 C839 1.419 . S
C784 C780 1.391 1_556 S
C784 C783 1.391 . S
C784 C785 1.399 . S
C785 C784 1.399 . S
C785 C788 1.396 . S
C785 C797 1.453 1_556 S
C785 C798 1.684 . S
H786 C810 0.948 . S
C787 C783 1.397 . S
C787 C788 1.394 . S
C787 C806 1.723 . S
C788 C785 1.396 . S
C788 C787 1.394 . S
C788 C818 1.723 . S
H789 C812 0.947 . S
H790 C813 0.948 . S
H791 C819 0.982 . S
H792 C820 0.979 . S
H793 C820 0.980 . S
H794 C820 0.983 . S
H795 C819 0.979 . S
H796 C819 0.977 . S
C797 C785 1.453 1_554 S
C797 H826 0.982 . S
C797 H827 0.979 . S
C797 H828 0.977 . S
C798 C785 1.684 . S
C798 H823 0.979 . S
C798 H824 0.980 . S
C798 H825 0.983 1_556 S
C799 C800 1.391 . S
C799 C804 1.391 . S
C799 H829 0.948 . S
C800 C799 1.391 . S
C800 C801 1.391 . S
C801 C800 1.391 . S
C801 C802 1.392 . S
C801 H830 0.947 . S
C802 C801 1.392 . S
C802 C803 1.419 . S
C802 H831 0.948 . S
C803 C802 1.419 . S
C803 C804 1.391 . S
C803 C807 1.397 . S
C804 C799 1.391 . S
C804 C803 1.391 . S
C804 C805 1.399 . S
C805 C804 1.399 . S
C805 C806 1.396 . S
C805 C808 1.453 . S
C805 C809 1.684 . S
C806 C787 1.723 . S
C806 C805 1.396 . S
C806 C807 1.394 . S
C807 C803 1.397 . S
C807 C806 1.394 . S
C807 C817 1.723 . S
C808 C805 1.453 . S
C808 H832 0.982 . S
C808 H833 0.979 . S
C808 H834 0.977 . S
C809 C805 1.684 . S
C809 H835 0.979 . S
C809 H836 0.980 . S
C809 H837 0.983 . S
C810 H786 0.948 . S
C810 C811 1.391 . S
C810 C815 1.391 . S
C811 C810 1.391 . S
C811 C812 1.391 . S
C812 H789 0.947 . S
C812 C811 1.391 . S
C812 C813 1.392 . S
C813 H790 0.948 . S
C813 C812 1.392 . S
C813 C814 1.419 . S
C814 C813 1.419 . S
C814 C815 1.391 . S
C814 C818 1.397 . S
C815 C810 1.391 . S
C815 C814 1.391 . S
C815 C816 1.399 . S
C816 C815 1.399 . S
C816 C817 1.396 . S
C816 C819 1.453 . S
C816 C820 1.684 . S
C817 C807 1.723 . S
C817 C816 1.396 . S
C817 C818 1.394 . S
C818 C788 1.723 . S
C818 C814 1.397 . S
C818 C817 1.394 . S
C819 H791 0.982 . S
C819 H795 0.979 . S
C819 H796 0.977 . S
C819 C816 1.453 . S
C820 H792 0.979 . S
C820 H793 0.980 . S
C820 H794 0.983 . S
C820 C816 1.684 . S
H821 C839 0.948 . S
H822 C780 0.948 . S
H823 C798 0.979 . S
H824 C798 0.980 . S
H825 C798 0.983 1_554 S
H826 C797 0.982 . S
H827 C797 0.979 . S
H828 C797 0.977 . S
H829 C799 0.948 . S
H830 C801 0.947 . S
H831 C802 0.948 . S
H832 C808 0.982 . S
H833 C808 0.979 . S
H834 C808 0.977 . S
H835 C809 0.979 . S
H836 C809 0.980 . S
H837 C809 0.983 . S
H838 C782 0.947 . S
C839 C782 1.392 . S
C839 C783 1.419 . S
C839 H821 0.948 . S
C840 C841 1.391 . S
C840 C844 1.391 . S
C840 H882 0.948 . S
C841 C840 1.391 . S
C841 C842 1.391 . S
C842 C841 1.391 . S
C842 H898 0.947 . S
C842 C899 1.392 . S
C843 C844 1.391 . S
C843 C847 1.397 . S
C843 C899 1.419 . S
C844 C840 1.391 . S
C844 C843 1.391 . S
C844 C845 1.399 . S
C845 C844 1.399 . S
C845 C848 1.396 . S
C845 C857 1.453 . S
C845 C858 1.684 . S
H846 C870 0.948 . S
C847 C843 1.397 . S
C847 C848 1.394 . S
C847 C866 1.723 . S
C848 C845 1.396 . S
C848 C847 1.394 . S
C848 C878 1.723 . S
H849 C872 0.947 . S
H850 C873 0.948 . S
H851 C879 0.982 . S
H852 C880 0.979 . S
H853 C880 0.980 . S
H854 C880 0.983 . S
H855 C879 0.979 . S
H856 C879 0.977 . S
C857 C845 1.453 . S
C857 H886 0.982 . S
C857 H887 0.979 . S
C857 H888 0.977 . S
C858 C845 1.684 . S
C858 H883 0.979 . S
C858 H884 0.980 . S
C858 H885 0.983 . S
C859 C860 1.391 . S
C859 C864 1.391 . S
C859 H889 0.948 . S
C860 C859 1.391 . S
C860 C861 1.391 . S
C861 C860 1.391 . S
C861 C862 1.392 . S
C861 H890 0.947 . S
C862 C861 1.392 . S
C862 C863 1.419 . S
C862 H891 0.948 . S
C863 C862 1.419 . S
C863 C864 1.391 . S
C863 C867 1.397 . S
C864 C859 1.391 . S
C864 C863 1.391 . S
C864 C865 1.399 . S
C865 C864 1.399 . S
C865 C866 1.396 . S
C865 C868 1.453 . S
C865 C869 1.684 . S
C866 C847 1.723 . S
C866 C865 1.396 . S
C866 C867 1.394 . S
C867 C863 1.397 . S
C867 C866 1.394 . S
C867 C877 1.723 . S
C868 C865 1.453 . S
C868 H892 0.982 . S
C868 H893 0.979 . S
C868 H894 0.977 . S
C869 C865 1.684 . S
C869 H895 0.979 . S
C869 H896 0.980 . S
C869 H897 0.983 . S
C870 H846 0.948 . S
C870 C871 1.391 . S
C870 C875 1.391 . S
C871 C870 1.391 . S
C871 C872 1.391 . S
C872 H849 0.947 . S
C872 C871 1.391 . S
C872 C873 1.392 . S
C873 H850 0.948 . S
C873 C872 1.392 . S
C873 C874 1.419 . S
C874 C873 1.419 . S
C874 C875 1.391 . S
C874 C878 1.397 . S
C875 C870 1.391 . S
C875 C874 1.391 . S
C875 C876 1.399 . S
C876 C875 1.399 . S
C876 C877 1.396 . S
C876 C879 1.453 . S
C876 C880 1.684 . S
C877 C867 1.723 . S
C877 C876 1.396 . S
C877 C878 1.394 . S
C878 C848 1.723 . S
C878 C874 1.397 . S
C878 C877 1.394 . S
C879 H851 0.982 . S
C879 H855 0.979 . S
C879 H856 0.977 . S
C879 C876 1.453 . S
C880 H852 0.979 . S
C880 H853 0.980 . S
C880 H854 0.983 . S
C880 C876 1.684 . S
H881 C899 0.948 . S
H882 C840 0.948 . S
H883 C858 0.979 . S
H884 C858 0.980 . S
H885 C858 0.983 . S
H886 C857 0.982 . S
H887 C857 0.979 . S
H888 C857 0.977 . S
H889 C859 0.948 . S
H890 C861 0.947 . S
H891 C862 0.948 . S
H892 C868 0.982 . S
H893 C868 0.979 . S
H894 C868 0.977 . S
H895 C869 0.979 . S
H896 C869 0.980 . S
H897 C869 0.983 . S
H898 C842 0.947 . S
C899 C842 1.392 . S
C899 C843 1.419 . S
C899 H881 0.948 . S
C900 C901 1.347 1_545 S
C900 C904 1.422 . S
C900 H942 0.964 . S
C901 C900 1.347 1_565 S
C901 C902 1.391 . S
C902 C901 1.391 . S
C902 H958 0.947 . S
C902 C959 1.392 . S
C903 C904 1.391 . S
C903 C907 1.397 . S
C903 C959 1.419 1_545 S
C904 C900 1.422 . S
C904 C903 1.391 . S
C904 C905 1.399 . S
C905 C904 1.399 . S
C905 C908 1.396 . S
C905 C917 1.453 . S
C905 C918 1.684 1_556 S
H906 C930 0.948 1_556 S
C907 C903 1.397 . S
C907 C908 1.394 . S
C907 C926 1.723 . S
C908 C905 1.396 . S
C908 C907 1.394 . S
C908 C938 1.723 . S
H909 C932 0.947 . S
H910 C933 0.948 . S
H911 C939 0.982 . S
H912 C940 0.979 . S
H913 C940 0.980 . S
H914 C940 0.983 . S
H915 C939 0.979 . S
H916 C939 0.977 . S
C917 C905 1.453 . S
C917 H946 0.982 . S
C917 H947 1.001 . S
C917 H948 0.977 . S
C918 C905 1.684 1_554 S
C918 H943 0.979 . S
C918 H944 0.980 . S
C918 H945 0.983 . S
C919 C920 1.391 . S
C919 C924 1.391 . S
C919 H949 0.948 . S
C920 C919 1.391 . S
C920 C921 1.391 . S
C921 C920 1.391 . S
C921 C922 1.392 . S
C921 H950 0.947 . S
C922 C921 1.392 . S
C922 C923 1.419 . S
C922 H951 0.948 . S
C923 C922 1.419 . S
C923 C924 1.391 . S
C923 C927 1.397 . S
C924 C919 1.391 . S
C924 C923 1.391 . S
C924 C925 1.399 . S
C925 C924 1.399 . S
C925 C926 1.396 . S
C925 C928 1.453 . S
C925 C929 1.684 1_545 S
C926 C907 1.723 . S
C926 C925 1.396 . S
C926 C927 1.394 . S
C927 C923 1.397 . S
C927 C926 1.394 . S
C927 C937 1.723 . S
C928 C925 1.453 . S
C928 H952 0.982 . S
C928 H953 0.955 1_545 S
C928 H954 0.977 . S
C929 C925 1.684 1_565 S
C929 H955 0.979 . S
C929 H956 0.980 . S
C929 H957 0.983 . S
C930 H906 0.948 1_554 S
C930 C931 1.391 . S
C930 C935 1.391 1_554 S
C931 C930 1.391 . S
C931 C932 1.391 . S
C932 H909 0.947 . S
C932 C931 1.391 . S
C932 C933 1.392 . S
C933 H910 0.948 . S
C933 C932 1.392 . S
C933 C934 1.419 1_554 S
C934 C933 1.419 1_556 S
C934 C935 1.391 . S
C934 C938 1.397 . S
C935 C930 1.391 1_556 S
C935 C934 1.391 . S
C935 C936 1.399 . S
C936 C935 1.399 . S
C936 C937 1.396 . S
C936 C939 1.453 . S
C936 C940 1.684 . S
C937 C927 1.723 . S
C937 C936 1.396 . S
C937 C938 1.394 . S
C938 C908 1.723 . S
C938 C934 1.397 . S
C938 C937 1.394 . S
C939 H911 0.982 . S
C939 H915 0.979 . S
C939 H916 0.977 . S
C939 C936 1.453 . S
C940 H912 0.979 . S
C940 H913 0.980 . S
C940 H914 0.983 . S
C940 C936 1.684 . S
H941 C959 0.948 . S
H942 C900 0.964 . S
H943 C918 0.979 . S
H944 C918 0.980 . S
H945 C918 0.983 . S
H946 C917 0.982 . S
H947 C917 1.001 . S
H948 C917 0.977 . S
H949 C919 0.948 . S
H950 C921 0.947 . S
H951 C922 0.948 . S
H952 C928 0.982 . S
H953 C928 0.955 1_565 S
H954 C928 0.977 . S
H955 C929 0.979 . S
H956 C929 0.980 . S
H957 C929 0.983 . S
H958 C902 0.947 . S
C959 C902 1.392 . S
C959 C903 1.419 1_565 S
C959 H941 0.948 . S
Mg960 O961 2.035 . S
Mg960 O967 1.986 1_554 S
Mg960 O969 2.114 . S
Mg960 O970 2.251 . S
Mg960 O973 2.010 . S
O961 Mg960 2.035 . S
O961 C964 1.244 1_554 S
O962 Mg963 2.028 . S
O962 C964 1.248 . S
Mg963 O962 2.028 . S
Mg963 O968 2.032 . S
Mg963 O970 2.079 1_556 S
C964 O961 1.244 1_556 S
C964 O962 1.248 . S
C965 O966 1.264 . S
C965 O973 1.249 . S
O966 C965 1.264 . S
O967 Mg960 1.986 1_556 S
O967 C971 1.246 . S
O968 Mg963 2.032 . S
O968 C971 1.259 . S
O969 Mg960 2.114 . S
O969 C972 1.252 . S
O970 Mg960 2.251 . S
O970 Mg963 2.079 1_554 S
O970 C972 1.273 . S
C971 O967 1.246 . S
C971 O968 1.259 . S
C972 O969 1.252 . S
C972 O970 1.273 . S
O973 Mg960 2.010 . S
O973 C965 1.249 . S
Mg974 O975 2.028 . S
Mg974 O981 1.986 . S
Mg974 O983 2.114 . S
Mg974 O984 2.251 . S
Mg974 O987 2.010 . S
O975 Mg974 2.028 . S
O975 C978 1.250 . S
O976 Mg977 2.028 . S
O976 C978 1.248 . S
Mg977 O976 2.028 . S
Mg977 O982 2.032 . S
Mg977 O984 2.079 . S
C978 O975 1.250 . S
C978 O976 1.248 . S
C979 O980 1.264 . S
C979 O987 1.249 . S
O980 C979 1.264 . S
O981 Mg974 1.986 . S
O981 C985 1.246 . S
O982 Mg977 2.032 . S
O982 C985 1.259 . S
O983 Mg974 2.114 . S
O983 C986 1.252 . S
O984 Mg974 2.251 . S
O984 Mg977 2.079 . S
O984 C986 1.273 . S
C985 O981 1.246 . S
C985 O982 1.259 . S
C986 O983 1.252 . S
C986 O984 1.273 . S
O987 Mg974 2.010 . S
O987 C979 1.249 . S
Mg988 O989 2.028 . S
Mg988 O995 1.986 1_554 S
Mg988 O997 2.114 . S
Mg988 O998 2.251 . S
Mg988 O1001 2.010 . S
O989 Mg988 2.028 . S
O989 C992 1.250 . S
O990 Mg991 2.030 . S
O990 C992 1.246 1_556 S
Mg991 O990 2.030 . S
Mg991 O996 2.032 . S
Mg991 O998 2.079 1_556 S
C992 O989 1.250 . S
C992 O990 1.246 1_554 S
C993 O994 1.264 . S
C993 O1001 1.249 . S
O994 C993 1.264 . S
O995 Mg988 1.986 1_556 S
O995 C999 1.246 . S
O996 Mg991 2.032 . S
O996 C999 1.259 . S
O997 Mg988 2.114 . S
O997 C1000 1.252 . S
O998 Mg988 2.251 . S
O998 Mg991 2.079 1_554 S
O998 C1000 1.273 . S
C999 O995 1.246 . S
C999 O996 1.259 . S
C1000 O997 1.252 . S
C1000 O998 1.273 . S
O1001 Mg988 2.010 . S
O1001 C993 1.249 . S
Mg1002 O1003 2.028 . S
Mg1002 O1009 1.986 . S
Mg1002 O1011 2.114 . S
Mg1002 O1012 2.251 . S
Mg1002 O1015 2.010 . S
O1003 Mg1002 2.028 . S
O1003 C1006 1.250 1_545 S
O1004 Mg1005 2.028 . S
O1004 C1006 1.248 . S
Mg1005 O1004 2.028 . S
Mg1005 O1010 2.032 . S
Mg1005 O1012 2.079 1_565 S
C1006 O1003 1.250 1_565 S
C1006 O1004 1.248 . S
C1007 O1008 1.264 . S
C1007 O1015 1.249 . S
O1008 C1007 1.264 . S
O1009 Mg1002 1.986 . S
O1009 C1013 1.246 . S
O1010 Mg1005 2.032 . S
O1010 C1013 1.259 1_565 S
O1011 Mg1002 2.114 . S
O1011 C1014 1.252 . S
O1012 Mg1002 2.251 . S
O1012 Mg1005 2.079 1_545 S
O1012 C1014 1.273 . S
C1013 O1009 1.246 . S
C1013 O1010 1.259 1_545 S
C1014 O1011 1.252 . S
C1014 O1012 1.273 . S
O1015 Mg1002 2.010 . S
O1015 C1007 1.249 . S
Mg1016 O1017 2.028 . S
Mg1016 O1023 1.986 . S
Mg1016 O1025 2.114 . S
Mg1016 O1026 2.251 . S
Mg1016 O1029 2.010 . S
O1017 Mg1016 2.028 . S
O1017 C1020 1.250 . S
O1018 Mg1019 2.028 . S
O1018 C1020 1.248 . S
Mg1019 O1018 2.028 . S
Mg1019 O1024 2.032 . S
Mg1019 O1026 2.079 . S
C1020 O1017 1.250 . S
C1020 O1018 1.248 . S
C1021 O1022 1.264 . S
C1021 O1029 1.249 . S
O1022 C1021 1.264 . S
O1023 Mg1016 1.986 . S
O1023 C1027 1.246 . S
O1024 Mg1019 2.032 . S
O1024 C1027 1.259 . S
O1025 Mg1016 2.114 . S
O1025 C1028 1.252 . S
O1026 Mg1016 2.251 . S
O1026 Mg1019 2.079 . S
O1026 C1028 1.273 . S
C1027 O1023 1.246 . S
C1027 O1024 1.259 . S
C1028 O1025 1.252 . S
C1028 O1026 1.273 . S
O1029 Mg1016 2.010 . S
O1029 C1021 1.249 . S
Mg1030 O1031 2.028 . S
Mg1030 O1037 1.986 . S
Mg1030 O1039 2.114 . S
Mg1030 O1040 2.251 . S
Mg1030 O1043 2.010 . S
O1031 Mg1030 2.028 . S
O1031 C1034 1.250 . S
O1032 Mg1033 2.028 . S
O1032 C1034 1.248 . S
Mg1033 O1032 2.028 . S
Mg1033 O1038 2.032 . S
Mg1033 O1040 2.079 . S
C1034 O1031 1.250 . S
C1034 O1032 1.248 . S
C1035 O1036 1.264 . S
C1035 O1043 1.249 . S
O1036 C1035 1.264 . S
O1037 Mg1030 1.986 . S
O1037 C1041 1.246 . S
O1038 Mg1033 2.032 . S
O1038 C1041 1.259 . S
O1039 Mg1030 2.114 . S
O1039 C1042 1.252 . S
O1040 Mg1030 2.251 . S
O1040 Mg1033 2.079 . S
O1040 C1042 1.273 . S
C1041 O1037 1.246 . S
C1041 O1038 1.259 . S
C1042 O1039 1.252 . S
C1042 O1040 1.273 . S
O1043 Mg1030 2.010 . S
O1043 C1035 1.249 . S
Mg1044 O1045 2.028 . S
Mg1044 O1051 1.986 . S
Mg1044 O1053 2.114 . S
Mg1044 O1054 2.251 . S
Mg1044 O1057 2.010 . S
O1045 Mg1044 2.028 . S
O1045 C1048 1.250 . S
O1046 Mg1047 2.028 . S
O1046 C1048 1.248 . S
Mg1047 O1046 2.028 . S
Mg1047 O1052 2.032 . S
Mg1047 O1054 2.079 . S
C1048 O1045 1.250 . S
C1048 O1046 1.248 . S
C1049 O1050 1.264 . S
C1049 O1057 1.249 . S
O1050 C1049 1.264 . S
O1051 Mg1044 1.986 . S
O1051 C1055 1.246 . S
O1052 Mg1047 2.032 . S
O1052 C1055 1.259 . S
O1053 Mg1044 2.114 . S
O1053 C1056 1.252 . S
O1054 Mg1044 2.251 . S
O1054 Mg1047 2.079 . S
O1054 C1056 1.273 . S
C1055 O1051 1.246 . S
C1055 O1052 1.259 . S
C1056 O1053 1.252 . S
C1056 O1054 1.273 . S
O1057 Mg1044 2.010 . S
O1057 C1049 1.249 . S
Mg1058 O1059 2.028 1_545 S
Mg1058 O1065 1.986 1_545 S
Mg1058 O1067 2.114 . S
Mg1058 O1068 2.251 . S
Mg1058 O1071 2.010 . S
O1059 Mg1058 2.028 1_565 S
O1059 C1062 1.250 . S
O1060 Mg1061 2.028 . S
O1060 C1062 1.248 . S
Mg1061 O1060 2.028 . S
Mg1061 O1066 2.032 . S
Mg1061 O1068 2.079 1_565 S
C1062 O1059 1.250 . S
C1062 O1060 1.248 . S
C1063 O1064 1.264 . S
C1063 O1071 1.249 . S
O1064 C1063 1.264 . S
O1065 Mg1058 1.986 1_565 S
O1065 C1069 1.246 . S
O1066 Mg1061 2.032 . S
O1066 C1069 1.259 . S
O1067 Mg1058 2.114 . S
O1067 C1070 1.252 . S
O1068 Mg1058 2.251 . S
O1068 Mg1061 2.079 1_545 S
O1068 C1070 1.273 . S
C1069 O1065 1.246 . S
C1069 O1066 1.259 . S
C1070 O1067 1.252 . S
C1070 O1068 1.273 . S
O1071 Mg1058 2.010 . S
O1071 C1063 1.249 . S
Mg1072 O1073 2.028 . S
Mg1072 O1079 1.986 . S
Mg1072 O1081 2.114 . S
Mg1072 O1082 2.251 . S
Mg1072 O1085 2.010 . S
O1073 Mg1072 2.028 . S
O1073 C1076 1.250 1_455 S
O1074 Mg1075 2.028 . S
O1074 C1076 1.248 . S
Mg1075 O1074 2.028 . S
Mg1075 O1080 2.032 . S
Mg1075 O1082 2.079 1_655 S
C1076 O1073 1.250 1_655 S
C1076 O1074 1.248 . S
C1077 O1078 1.264 . S
C1077 O1085 1.249 . S
O1078 C1077 1.264 . S
O1079 Mg1072 1.986 . S
O1079 C1083 1.246 . S
O1080 Mg1075 2.032 . S
O1080 C1083 1.259 1_655 S
O1081 Mg1072 2.114 . S
O1081 C1084 1.252 . S
O1082 Mg1072 2.251 . S
O1082 Mg1075 2.079 1_455 S
O1082 C1084 1.273 . S
C1083 O1079 1.246 . S
C1083 O1080 1.259 1_455 S
C1084 O1081 1.252 . S
C1084 O1082 1.273 . S
O1085 Mg1072 2.010 . S
O1085 C1077 1.249 . S
Mg1086 O1087 2.028 . S
Mg1086 O1093 1.986 . S
Mg1086 O1095 2.114 . S
Mg1086 O1096 2.251 . S
Mg1086 O1099 2.010 . S
O1087 Mg1086 2.028 . S
O1087 C1090 1.250 . S
O1088 Mg1089 2.028 . S
O1088 C1090 1.248 . S
Mg1089 O1088 2.028 . S
Mg1089 O1094 2.032 . S
Mg1089 O1096 2.079 . S
C1090 O1087 1.250 . S
C1090 O1088 1.248 . S
C1091 O1092 1.264 . S
C1091 O1099 1.249 . S
O1092 C1091 1.264 . S
O1093 Mg1086 1.986 . S
O1093 C1097 1.246 . S
O1094 Mg1089 2.032 . S
O1094 C1097 1.259 . S
O1095 Mg1086 2.114 . S
O1095 C1098 1.252 . S
O1096 Mg1086 2.251 . S
O1096 Mg1089 2.079 . S
O1096 C1098 1.273 . S
C1097 O1093 1.246 . S
C1097 O1094 1.259 . S
C1098 O1095 1.252 . S
C1098 O1096 1.273 . S
O1099 Mg1086 2.010 . S
O1099 C1091 1.249 . S
Mg1100 O1101 2.028 1_655 S
Mg1100 O1107 2.001 . S
Mg1100 O1109 2.114 . S
Mg1100 O1110 2.251 1_655 S
Mg1100 O1113 2.010 . S
O1101 Mg1100 2.028 1_455 S
O1101 C1104 1.250 . S
O1102 Mg1103 2.028 . S
O1102 C1104 1.248 . S
Mg1103 O1102 2.028 . S
Mg1103 O1108 2.032 . S
Mg1103 O1110 2.079 . S
C1104 O1101 1.250 . S
C1104 O1102 1.248 . S
C1105 O1106 1.264 . S
C1105 O1113 1.249 . S
O1106 C1105 1.264 . S
O1107 Mg1100 2.001 . S
O1107 C1111 1.207 1_655 S
O1108 Mg1103 2.032 . S
O1108 C1111 1.259 . S
O1109 Mg1100 2.114 . S
O1109 C1112 1.252 . S
O1110 Mg1100 2.251 1_455 S
O1110 Mg1103 2.079 . S
O1110 C1112 1.273 1_455 S
C1111 O1107 1.207 1_455 S
C1111 O1108 1.259 . S
C1112 O1109 1.252 . S
C1112 O1110 1.273 1_655 S
O1113 Mg1100 2.010 . S
O1113 C1105 1.249 . S
Mg1114 O1115 2.028 . S
Mg1114 O1121 1.986 . S
Mg1114 O1123 2.114 . S
Mg1114 O1124 2.251 . S
Mg1114 O1127 2.010 . S
O1115 Mg1114 2.028 . S
O1115 C1118 1.250 . S
O1116 Mg1117 2.028 . S
O1116 C1118 1.248 . S
Mg1117 O1116 2.028 . S
Mg1117 O1122 2.032 . S
Mg1117 O1124 2.079 . S
C1118 O1115 1.250 . S
C1118 O1116 1.248 . S
C1119 O1120 1.264 . S
C1119 O1127 1.249 . S
O1120 C1119 1.264 . S
O1121 Mg1114 1.986 . S
O1121 C1125 1.246 . S
O1122 Mg1117 2.032 . S
O1122 C1125 1.259 . S
O1123 Mg1114 2.114 . S
O1123 C1126 1.252 . S
O1124 Mg1114 2.251 . S
O1124 Mg1117 2.079 . S
O1124 C1126 1.273 . S
C1125 O1121 1.246 . S
C1125 O1122 1.259 . S
C1126 O1123 1.252 . S
C1126 O1124 1.273 . S
O1127 Mg1114 2.010 . S
O1127 C1119 1.249 . S
H1128 C1146 0.951 . S
H1129 C1148 0.951 . S
H1130 C1150 0.950 . S
H1131 C1151 0.950 . S
H1132 C1153 0.950 . S
H1133 C1156 0.950 . S
H1134 C1157 0.950 . S
H1135 C1159 0.950 . S
H1136 C1160 0.950 . S
H1137 C1161 0.951 . S
H1138 C1163 0.951 . S
H1139 C1165 0.950 . S
H1140 C1166 0.950 . S
H1141 C1168 0.950 . S
H1142 C1171 0.950 . S
H1143 C1172 0.950 . S
H1144 C1174 0.950 . S
H1145 C1175 0.950 . S
C1146 H1128 0.951 . S
C1146 C1147 1.366 . S
C1146 C1148 1.388 . S
C1147 C1146 1.366 . S
C1147 C1151 1.385 . S
C1148 H1129 0.951 . S
C1148 C1146 1.388 . S
C1148 C1149 1.366 . S
C1149 C1148 1.366 . S
C1149 C1150 1.414 . S
C1149 C1152 1.499 . S
C1150 H1130 0.950 . S
C1150 C1149 1.414 . S
C1150 C1151 1.374 . S
C1151 H1131 0.950 . S
C1151 C1147 1.385 . S
C1151 C1150 1.374 . S
C1152 C1149 1.499 . S
C1152 C1153 1.373 . S
C1152 C1154 1.389 . S
C1153 H1132 0.950 . S
C1153 C1152 1.373 . S
C1153 C1169 1.377 . S
C1154 C1152 1.389 . S
C1154 C1155 1.524 . S
C1154 C1168 1.377 . S
C1155 C1154 1.524 . S
C1155 C1156 1.397 . S
C1155 C1160 1.363 . S
C1156 H1133 0.950 . S
C1156 C1155 1.397 . S
C1156 C1157 1.334 . S
C1157 H1134 0.950 . S
C1157 C1156 1.334 . S
C1157 C1158 1.287 . S
C1158 C1157 1.287 . S
C1158 C1159 1.524 . S
C1158 H1177 0.913 . S
C1159 H1135 0.950 . S
C1159 C1158 1.524 . S
C1159 C1160 1.415 . S
C1160 H1136 0.950 . S
C1160 C1155 1.363 . S
C1160 C1159 1.415 . S
C1161 H1137 0.951 . S
C1161 C1162 1.366 . S
C1161 C1163 1.388 . S
C1162 C1161 1.366 . S
C1162 C1166 1.385 . S
C1163 H1138 0.951 . S
C1163 C1161 1.388 . S
C1163 C1164 1.366 . S
C1164 C1163 1.366 . S
C1164 C1165 1.414 . S
C1164 C1167 1.499 . S
C1165 H1139 0.950 . S
C1165 C1164 1.414 . S
C1165 C1166 1.374 . S
C1166 H1140 0.950 . S
C1166 C1162 1.385 . S
C1166 C1165 1.374 . S
C1167 C1164 1.499 . S
C1167 C1168 1.373 . S
C1167 C1169 1.389 . S
C1168 H1141 0.950 . S
C1168 C1154 1.377 . S
C1168 C1167 1.373 . S
C1169 C1153 1.377 . S
C1169 C1167 1.389 . S
C1169 C1170 1.524 . S
C1170 C1169 1.524 . S
C1170 C1171 1.397 . S
C1170 C1175 1.363 . S
C1171 H1142 0.950 . S
C1171 C1170 1.397 . S
C1171 C1172 1.334 . S
C1172 H1143 0.950 . S
C1172 C1171 1.334 . S
C1172 C1173 1.287 . S
C1173 C1172 1.287 . S
C1173 C1174 1.524 . S
C1173 H1176 0.999 . S
C1174 H1144 0.950 . S
C1174 C1173 1.524 . S
C1174 C1175 1.415 . S
C1175 H1145 0.950 . S
C1175 C1170 1.363 . S
C1175 C1174 1.415 . S
H1176 C1173 0.999 . S
H1177 C1158 0.913 . S
H1178 C1196 0.951 . S
H1179 C1198 0.951 . S
H1180 C1200 0.950 . S
H1181 C1201 0.950 . S
H1182 C1203 0.950 . S
H1183 C1206 0.950 . S
H1184 C1207 0.950 . S
H1185 C1209 0.950 . S
H1186 C1210 0.950 . S
H1187 C1211 0.951 . S
H1188 C1213 0.951 . S
H1189 C1215 0.950 . S
H1190 C1216 0.950 . S
H1191 C1218 0.950 . S
H1192 C1221 0.950 . S
H1193 C1222 0.950 . S
H1194 C1224 0.950 . S
H1195 C1225 0.950 . S
C1196 H1178 0.951 . S
C1196 C1197 1.366 . S
C1196 C1198 1.388 . S
C1197 C1196 1.366 . S
C1197 C1201 1.385 . S
C1198 H1179 0.951 . S
C1198 C1196 1.388 . S
C1198 C1199 1.366 . S
C1199 C1198 1.366 . S
C1199 C1200 1.414 . S
C1199 C1202 1.499 . S
C1200 H1180 0.950 . S
C1200 C1199 1.414 . S
C1200 C1201 1.374 . S
C1201 H1181 0.950 . S
C1201 C1197 1.385 . S
C1201 C1200 1.374 . S
C1202 C1199 1.499 . S
C1202 C1203 1.373 . S
C1202 C1204 1.389 . S
C1203 H1182 0.950 . S
C1203 C1202 1.373 . S
C1203 C1219 1.377 . S
C1204 C1202 1.389 . S
C1204 C1205 1.524 . S
C1204 C1218 1.377 . S
C1205 C1204 1.524 . S
C1205 C1206 1.397 . S
C1205 C1210 1.363 . S
C1206 H1183 0.950 . S
C1206 C1205 1.397 . S
C1206 C1207 1.334 . S
C1207 H1184 0.950 . S
C1207 C1206 1.334 . S
C1207 C1208 1.287 . S
C1208 C1207 1.287 . S
C1208 C1209 1.524 . S
C1208 H1227 0.913 . S
C1209 H1185 0.950 . S
C1209 C1208 1.524 . S
C1209 C1210 1.415 . S
C1210 H1186 0.950 . S
C1210 C1205 1.363 . S
C1210 C1209 1.415 . S
C1211 H1187 0.951 . S
C1211 C1212 1.366 . S
C1211 C1213 1.388 . S
C1212 C1211 1.366 . S
C1212 C1216 1.385 . S
C1213 H1188 0.951 . S
C1213 C1211 1.388 . S
C1213 C1214 1.366 . S
C1214 C1213 1.366 . S
C1214 C1215 1.414 . S
C1214 C1217 1.499 . S
C1215 H1189 0.950 . S
C1215 C1214 1.414 . S
C1215 C1216 1.374 . S
C1216 H1190 0.950 . S
C1216 C1212 1.385 . S
C1216 C1215 1.374 . S
C1217 C1214 1.499 . S
C1217 C1218 1.373 . S
C1217 C1219 1.389 . S
C1218 H1191 0.950 . S
C1218 C1204 1.377 . S
C1218 C1217 1.373 . S
C1219 C1203 1.377 . S
C1219 C1217 1.389 . S
C1219 C1220 1.524 . S
C1220 C1219 1.524 . S
C1220 C1221 1.397 . S
C1220 C1225 1.363 . S
C1221 H1192 0.950 . S
C1221 C1220 1.397 . S
C1221 C1222 1.334 . S
C1222 H1193 0.950 . S
C1222 C1221 1.334 . S
C1222 C1223 1.287 . S
C1223 C1222 1.287 . S
C1223 C1224 1.524 . S
C1223 H1226 0.999 . S
C1224 H1194 0.950 . S
C1224 C1223 1.524 . S
C1224 C1225 1.415 . S
C1225 H1195 0.950 . S
C1225 C1220 1.363 . S
C1225 C1224 1.415 . S
H1226 C1223 0.999 . S
H1227 C1208 0.913 . S
H1228 C1246 0.951 . S
H1229 C1248 0.951 . S
H1230 C1250 0.950 . S
H1231 C1251 0.950 . S
H1232 C1253 0.950 . S
H1233 C1256 0.950 . S
H1234 C1257 0.950 . S
H1235 C1259 0.950 . S
H1236 C1260 0.950 . S
H1237 C1261 0.951 . S
H1238 C1263 0.951 . S
H1239 C1265 0.950 . S
H1240 C1266 0.950 . S
H1241 C1268 0.950 . S
H1242 C1271 0.950 . S
H1243 C1272 0.950 . S
H1244 C1274 0.950 . S
H1245 C1275 0.950 . S
C1246 H1228 0.951 . S
C1246 C1247 1.366 . S
C1246 C1248 1.388 . S
C1247 C1246 1.366 . S
C1247 C1251 1.385 . S
C1248 H1229 0.951 . S
C1248 C1246 1.388 . S
C1248 C1249 1.366 . S
C1249 C1248 1.366 . S
C1249 C1250 1.414 . S
C1249 C1252 1.499 . S
C1250 H1230 0.950 . S
C1250 C1249 1.414 . S
C1250 C1251 1.374 . S
C1251 H1231 0.950 . S
C1251 C1247 1.385 . S
C1251 C1250 1.374 . S
C1252 C1249 1.499 . S
C1252 C1253 1.373 . S
C1252 C1254 1.389 . S
C1253 H1232 0.950 . S
C1253 C1252 1.373 . S
C1253 C1269 1.377 . S
C1254 C1252 1.389 . S
C1254 C1255 1.524 . S
C1254 C1268 1.377 . S
C1255 C1254 1.524 . S
C1255 C1256 1.397 . S
C1255 C1260 1.363 . S
C1256 H1233 0.950 . S
C1256 C1255 1.397 . S
C1256 C1257 1.334 . S
C1257 H1234 0.950 . S
C1257 C1256 1.334 . S
C1257 C1258 1.287 . S
C1258 C1257 1.287 . S
C1258 C1259 1.524 . S
C1258 H1277 0.913 . S
C1259 H1235 0.950 . S
C1259 C1258 1.524 . S
C1259 C1260 1.415 . S
C1260 H1236 0.950 . S
C1260 C1255 1.363 . S
C1260 C1259 1.415 . S
C1261 H1237 0.951 . S
C1261 C1262 1.366 . S
C1261 C1263 1.388 . S
C1262 C1261 1.366 . S
C1262 C1266 1.385 . S
C1263 H1238 0.951 . S
C1263 C1261 1.388 . S
C1263 C1264 1.366 . S
C1264 C1263 1.366 . S
C1264 C1265 1.414 . S
C1264 C1267 1.499 . S
C1265 H1239 0.950 . S
C1265 C1264 1.414 . S
C1265 C1266 1.374 . S
C1266 H1240 0.950 . S
C1266 C1262 1.385 . S
C1266 C1265 1.374 . S
C1267 C1264 1.499 . S
C1267 C1268 1.373 . S
C1267 C1269 1.389 . S
C1268 H1241 0.950 . S
C1268 C1254 1.377 . S
C1268 C1267 1.373 . S
C1269 C1253 1.377 . S
C1269 C1267 1.389 . S
C1269 C1270 1.524 . S
C1270 C1269 1.524 . S
C1270 C1271 1.397 . S
C1270 C1275 1.363 . S
C1271 H1242 0.950 . S
C1271 C1270 1.397 . S
C1271 C1272 1.334 . S
C1272 H1243 0.950 . S
C1272 C1271 1.334 . S
C1272 C1273 1.287 . S
C1273 C1272 1.287 . S
C1273 C1274 1.524 . S
C1273 H1276 0.999 . S
C1274 H1244 0.950 . S
C1274 C1273 1.524 . S
C1274 C1275 1.415 . S
C1275 H1245 0.950 . S
C1275 C1270 1.363 . S
C1275 C1274 1.415 . S
H1276 C1273 0.999 . S
H1277 C1258 0.913 . S
H1278 C1296 0.951 . S
H1279 C1298 0.981 . S
H1280 C1300 0.950 . S
H1281 C1301 0.950 . S
H1282 C1303 0.950 . S
H1283 C1306 0.950 . S
H1284 C1307 0.950 . S
H1285 C1309 0.950 1_455 S
H1286 C1310 0.950 . S
H1287 C1311 0.945 1_565 S
H1288 C1313 0.951 . S
H1289 C1315 0.950 . S
H1290 C1316 0.950 . S
H1291 C1318 0.950 . S
H1292 C1321 0.950 . S
H1293 C1322 0.950 . S
H1294 C1324 0.950 . S
H1295 C1325 0.950 . S
C1296 H1278 0.951 . S
C1296 C1297 1.339 1_455 S
C1296 C1298 1.388 1_455 S
C1297 C1296 1.339 1_655 S
C1297 C1301 1.454 . S
C1298 H1279 0.981 . S
C1298 C1296 1.388 1_655 S
C1298 C1299 1.366 . S
C1299 C1298 1.366 . S
C1299 C1300 1.414 . S
C1299 C1302 1.499 . S
C1300 H1280 0.950 . S
C1300 C1299 1.414 . S
C1300 C1301 1.374 . S
C1301 H1281 0.950 . S
C1301 C1297 1.454 . S
C1301 C1300 1.374 . S
C1302 C1299 1.499 . S
C1302 C1303 1.373 . S
C1302 C1304 1.389 1_565 S
C1303 H1282 0.950 . S
C1303 C1302 1.373 . S
C1303 C1319 1.377 . S
C1304 C1302 1.389 1_545 S
C1304 C1305 1.524 . S
C1304 C1318 1.377 . S
C1305 C1304 1.524 . S
C1305 C1306 1.397 . S
C1305 C1310 1.363 . S
C1306 H1283 0.950 . S
C1306 C1305 1.397 . S
C1306 C1307 1.334 . S
C1307 H1284 0.950 . S
C1307 C1306 1.334 . S
C1307 C1308 1.287 . S
C1308 C1307 1.287 . S
C1308 C1309 1.524 . S
C1308 H1327 0.912 1_655 S
C1309 H1285 0.950 1_655 S
C1309 C1308 1.524 . S
C1309 C1310 1.415 . S
C1310 H1286 0.950 . S
C1310 C1305 1.363 . S
C1310 C1309 1.415 . S
C1311 H1287 0.945 1_545 S
C1311 C1312 1.366 . S
C1311 C1313 1.388 1_545 S
C1312 C1311 1.366 . S
C1312 C1316 1.385 . S
C1313 H1288 0.951 . S
C1313 C1311 1.388 1_565 S
C1313 C1314 1.366 1_565 S
C1314 C1313 1.366 1_545 S
C1314 C1315 1.414 . S
C1314 C1317 1.499 1_545 S
C1315 H1289 0.950 . S
C1315 C1314 1.414 . S
C1315 C1316 1.374 . S
C1316 H1290 0.950 . S
C1316 C1312 1.385 . S
C1316 C1315 1.374 . S
C1317 C1314 1.499 1_565 S
C1317 C1318 1.373 1_565 S
C1317 C1319 1.389 . S
C1318 H1291 0.950 . S
C1318 C1304 1.377 . S
C1318 C1317 1.373 1_545 S
C1319 C1303 1.377 . S
C1319 C1317 1.389 . S
C1319 C1320 1.524 . S
C1320 C1319 1.524 . S
C1320 C1321 1.397 . S
C1320 C1325 1.363 . S
C1321 H1292 0.950 . S
C1321 C1320 1.397 . S
C1321 C1322 1.334 . S
C1322 H1293 0.950 . S
C1322 C1321 1.334 . S
C1322 C1323 1.287 . S
C1323 C1322 1.287 . S
C1323 C1324 1.524 . S
C1323 H1326 0.999 . S
C1324 H1294 0.950 . S
C1324 C1323 1.524 . S
C1324 C1325 1.415 . S
C1325 H1295 0.950 . S
C1325 C1320 1.363 . S
C1325 C1324 1.415 . S
H1326 C1323 0.999 . S
H1327 C1308 0.912 1_455 S
H1328 C1346 0.951 . S
H1329 C1348 0.951 . S
H1330 C1350 0.950 . S
H1331 C1351 0.950 . S
H1332 C1353 0.950 . S
H1333 C1356 0.950 . S
H1334 C1357 0.950 . S
H1335 C1359 0.950 . S
H1336 C1360 0.950 . S
H1337 C1361 0.951 . S
H1338 C1363 0.951 . S
H1339 C1365 0.950 . S
H1340 C1366 0.950 . S
H1341 C1368 0.950 . S
H1342 C1371 0.950 . S
H1343 C1372 0.950 . S
H1344 C1374 0.950 . S
H1345 C1375 0.950 . S
C1346 H1328 0.951 . S
C1346 C1347 1.366 . S
C1346 C1348 1.388 . S
C1347 C1346 1.366 . S
C1347 C1351 1.385 . S
C1348 H1329 0.951 . S
C1348 C1346 1.388 . S
C1348 C1349 1.366 . S
C1349 C1348 1.366 . S
C1349 C1350 1.414 . S
C1349 C1352 1.499 . S
C1350 H1330 0.950 . S
C1350 C1349 1.414 . S
C1350 C1351 1.374 . S
C1351 H1331 0.950 . S
C1351 C1347 1.385 . S
C1351 C1350 1.374 . S
C1352 C1349 1.499 . S
C1352 C1353 1.373 . S
C1352 C1354 1.389 . S
C1353 H1332 0.950 . S
C1353 C1352 1.373 . S
C1353 C1369 1.377 . S
C1354 C1352 1.389 . S
C1354 C1355 1.524 . S
C1354 C1368 1.377 . S
C1355 C1354 1.524 . S
C1355 C1356 1.397 . S
C1355 C1360 1.363 . S
C1356 H1333 0.950 . S
C1356 C1355 1.397 . S
C1356 C1357 1.334 . S
C1357 H1334 0.950 . S
C1357 C1356 1.334 . S
C1357 C1358 1.287 . S
C1358 C1357 1.287 . S
C1358 C1359 1.524 . S
C1358 H1377 0.913 . S
C1359 H1335 0.950 . S
C1359 C1358 1.524 . S
C1359 C1360 1.415 . S
C1360 H1336 0.950 . S
C1360 C1355 1.363 . S
C1360 C1359 1.415 . S
C1361 H1337 0.951 . S
C1361 C1362 1.366 . S
C1361 C1363 1.388 . S
C1362 C1361 1.366 . S
C1362 C1366 1.385 . S
C1363 H1338 0.951 . S
C1363 C1361 1.388 . S
C1363 C1364 1.366 . S
C1364 C1363 1.366 . S
C1364 C1365 1.414 . S
C1364 C1367 1.499 . S
C1365 H1339 0.950 . S
C1365 C1364 1.414 . S
C1365 C1366 1.374 . S
C1366 H1340 0.950 . S
C1366 C1362 1.385 . S
C1366 C1365 1.374 . S
C1367 C1364 1.499 . S
C1367 C1368 1.373 . S
C1367 C1369 1.389 . S
C1368 H1341 0.950 . S
C1368 C1354 1.377 . S
C1368 C1367 1.373 . S
C1369 C1353 1.377 . S
C1369 C1367 1.389 . S
C1369 C1370 1.524 . S
C1370 C1369 1.524 . S
C1370 C1371 1.397 . S
C1370 C1375 1.363 . S
C1371 H1342 0.950 . S
C1371 C1370 1.397 . S
C1371 C1372 1.334 . S
C1372 H1343 0.950 . S
C1372 C1371 1.334 . S
C1372 C1373 1.287 . S
C1373 C1372 1.287 . S
C1373 C1374 1.524 . S
C1373 H1376 0.999 . S
C1374 H1344 0.950 . S
C1374 C1373 1.524 . S
C1374 C1375 1.415 . S
C1375 H1345 0.950 . S
C1375 C1370 1.363 . S
C1375 C1374 1.415 . S
H1376 C1373 0.999 . S
H1377 C1358 0.913 . S
H1378 C1396 0.951 . S
H1379 C1398 0.951 . S
H1380 C1400 0.950 . S
H1381 C1401 0.950 . S
H1382 C1403 0.950 . S
H1383 C1406 0.950 . S
H1384 C1407 0.950 . S
H1385 C1409 0.950 . S
H1386 C1410 0.950 . S
H1387 C1411 0.951 . S
H1388 C1413 0.951 . S
H1389 C1415 0.950 . S
H1390 C1416 0.950 . S
H1391 C1418 0.950 . S
H1392 C1421 0.950 . S
H1393 C1422 0.950 . S
H1394 C1424 0.950 . S
H1395 C1425 0.950 . S
C1396 H1378 0.951 . S
C1396 C1397 1.366 . S
C1396 C1398 1.388 . S
C1397 C1396 1.366 . S
C1397 C1401 1.385 . S
C1398 H1379 0.951 . S
C1398 C1396 1.388 . S
C1398 C1399 1.366 . S
C1399 C1398 1.366 . S
C1399 C1400 1.414 . S
C1399 C1402 1.499 . S
C1400 H1380 0.950 . S
C1400 C1399 1.414 . S
C1400 C1401 1.374 . S
C1401 H1381 0.950 . S
C1401 C1397 1.385 . S
C1401 C1400 1.374 . S
C1402 C1399 1.499 . S
C1402 C1403 1.373 . S
C1402 C1404 1.389 . S
C1403 H1382 0.950 . S
C1403 C1402 1.373 . S
C1403 C1419 1.377 . S
C1404 C1402 1.389 . S
C1404 C1405 1.524 . S
C1404 C1418 1.377 . S
C1405 C1404 1.524 . S
C1405 C1406 1.397 . S
C1405 C1410 1.363 . S
C1406 H1383 0.950 . S
C1406 C1405 1.397 . S
C1406 C1407 1.334 . S
C1407 H1384 0.950 . S
C1407 C1406 1.334 . S
C1407 C1408 1.287 . S
C1408 C1407 1.287 . S
C1408 C1409 1.524 . S
C1408 H1427 0.913 . S
C1409 H1385 0.950 . S
C1409 C1408 1.524 . S
C1409 C1410 1.415 . S
C1410 H1386 0.950 . S
C1410 C1405 1.363 . S
C1410 C1409 1.415 . S
C1411 H1387 0.951 . S
C1411 C1412 1.366 . S
C1411 C1413 1.388 . S
C1412 C1411 1.366 . S
C1412 C1416 1.385 . S
C1413 H1388 0.951 . S
C1413 C1411 1.388 . S
C1413 C1414 1.366 . S
C1414 C1413 1.366 . S
C1414 C1415 1.414 . S
C1414 C1417 1.499 . S
C1415 H1389 0.950 . S
C1415 C1414 1.414 . S
C1415 C1416 1.374 . S
C1416 H1390 0.950 . S
C1416 C1412 1.385 . S
C1416 C1415 1.374 . S
C1417 C1414 1.499 . S
C1417 C1418 1.373 . S
C1417 C1419 1.389 . S
C1418 H1391 0.950 . S
C1418 C1404 1.377 . S
C1418 C1417 1.373 . S
C1419 C1403 1.377 . S
C1419 C1417 1.389 . S
C1419 C1420 1.524 . S
C1420 C1419 1.524 . S
C1420 C1421 1.397 . S
C1420 C1425 1.363 . S
C1421 H1392 0.950 . S
C1421 C1420 1.397 . S
C1421 C1422 1.334 . S
C1422 H1393 0.950 . S
C1422 C1421 1.334 . S
C1422 C1423 1.287 . S
C1423 C1422 1.287 . S
C1423 C1424 1.524 . S
C1423 H1426 0.999 . S
C1424 H1394 0.950 . S
C1424 C1423 1.524 . S
C1424 C1425 1.415 . S
C1425 H1395 0.950 . S
C1425 C1420 1.363 . S
C1425 C1424 1.415 . S
H1426 C1423 0.999 . S
H1427 C1408 0.913 . S
H1428 C1446 0.951 . S
H1429 C1448 0.951 . S
H1430 C1450 0.950 . S
H1431 C1451 0.950 . S
H1432 C1453 0.950 . S
H1433 C1456 0.950 . S
H1434 C1457 0.950 . S
H1435 C1459 0.950 . S
H1436 C1460 0.950 . S
H1437 C1461 0.951 . S
H1438 C1463 0.951 . S
H1439 C1465 0.950 . S
H1440 C1466 0.950 . S
H1441 C1468 0.950 . S
H1442 C1471 0.950 . S
H1443 C1472 0.950 . S
H1444 C1474 0.950 . S
H1445 C1475 0.950 . S
C1446 H1428 0.951 . S
C1446 C1447 1.366 . S
C1446 C1448 1.388 . S
C1447 C1446 1.366 . S
C1447 C1451 1.385 . S
C1448 H1429 0.951 . S
C1448 C1446 1.388 . S
C1448 C1449 1.366 . S
C1449 C1448 1.366 . S
C1449 C1450 1.414 . S
C1449 C1452 1.499 . S
C1450 H1430 0.950 . S
C1450 C1449 1.414 . S
C1450 C1451 1.374 . S
C1451 H1431 0.950 . S
C1451 C1447 1.385 . S
C1451 C1450 1.374 . S
C1452 C1449 1.499 . S
C1452 C1453 1.373 . S
C1452 C1454 1.389 . S
C1453 H1432 0.950 . S
C1453 C1452 1.373 . S
C1453 C1469 1.377 . S
C1454 C1452 1.389 . S
C1454 C1455 1.524 . S
C1454 C1468 1.377 . S
C1455 C1454 1.524 . S
C1455 C1456 1.397 . S
C1455 C1460 1.363 . S
C1456 H1433 0.950 . S
C1456 C1455 1.397 . S
C1456 C1457 1.334 . S
C1457 H1434 0.950 . S
C1457 C1456 1.334 . S
C1457 C1458 1.287 . S
C1458 C1457 1.287 . S
C1458 C1459 1.524 . S
C1458 H1477 0.913 . S
C1459 H1435 0.950 . S
C1459 C1458 1.524 . S
C1459 C1460 1.415 . S
C1460 H1436 0.950 . S
C1460 C1455 1.363 . S
C1460 C1459 1.415 . S
C1461 H1437 0.951 . S
C1461 C1462 1.366 . S
C1461 C1463 1.388 . S
C1462 C1461 1.366 . S
C1462 C1466 1.385 . S
C1463 H1438 0.951 . S
C1463 C1461 1.388 . S
C1463 C1464 1.366 . S
C1464 C1463 1.366 . S
C1464 C1465 1.414 . S
C1464 C1467 1.499 . S
C1465 H1439 0.950 . S
C1465 C1464 1.414 . S
C1465 C1466 1.374 . S
C1466 H1440 0.950 . S
C1466 C1462 1.385 . S
C1466 C1465 1.374 . S
C1467 C1464 1.499 . S
C1467 C1468 1.373 . S
C1467 C1469 1.389 . S
C1468 H1441 0.950 . S
C1468 C1454 1.377 . S
C1468 C1467 1.373 . S
C1469 C1453 1.377 . S
C1469 C1467 1.389 . S
C1469 C1470 1.524 . S
C1470 C1469 1.524 . S
C1470 C1471 1.397 . S
C1470 C1475 1.363 . S
C1471 H1442 0.950 . S
C1471 C1470 1.397 . S
C1471 C1472 1.334 . S
C1472 H1443 0.950 . S
C1472 C1471 1.334 . S
C1472 C1473 1.287 . S
C1473 C1472 1.287 . S
C1473 C1474 1.524 . S
C1473 H1476 0.999 . S
C1474 H1444 0.950 . S
C1474 C1473 1.524 . S
C1474 C1475 1.415 . S
C1475 H1445 0.950 . S
C1475 C1470 1.363 . S
C1475 C1474 1.415 . S
H1476 C1473 0.999 . S
H1477 C1458 0.913 . S
H1478 C1496 0.951 . S
H1479 C1498 0.951 . S
H1480 C1500 0.950 . S
H1481 C1501 0.950 . S
H1482 C1503 0.950 . S
H1483 C1506 0.950 . S
H1484 C1507 0.950 . S
H1485 C1509 0.950 . S
H1486 C1510 0.950 . S
H1487 C1511 0.951 . S
H1488 C1513 0.936 1_545 S
H1489 C1515 0.950 . S
H1490 C1516 0.950 . S
H1491 C1518 0.950 . S
H1492 C1521 0.950 . S
H1493 C1522 0.950 . S
H1494 C1524 0.950 . S
H1495 C1525 0.950 . S
C1496 H1478 0.951 . S
C1496 C1497 1.366 . S
C1496 C1498 1.388 . S
C1497 C1496 1.366 . S
C1497 C1501 1.385 . S
C1498 H1479 0.951 . S
C1498 C1496 1.388 . S
C1498 C1499 1.366 . S
C1499 C1498 1.366 . S
C1499 C1500 1.414 . S
C1499 C1502 1.499 . S
C1500 H1480 0.950 . S
C1500 C1499 1.414 . S
C1500 C1501 1.374 . S
C1501 H1481 0.950 . S
C1501 C1497 1.385 . S
C1501 C1500 1.374 . S
C1502 C1499 1.499 . S
C1502 C1503 1.373 . S
C1502 C1504 1.389 . S
C1503 H1482 0.950 . S
C1503 C1502 1.373 . S
C1503 C1519 1.377 . S
C1504 C1502 1.389 . S
C1504 C1505 1.524 . S
C1504 C1518 1.377 . S
C1505 C1504 1.524 . S
C1505 C1506 1.397 1_565 S
C1505 C1510 1.363 . S
C1506 H1483 0.950 . S
C1506 C1505 1.397 1_545 S
C1506 C1507 1.334 . S
C1507 H1484 0.950 . S
C1507 C1506 1.334 . S
C1507 C1508 1.287 . S
C1508 C1507 1.287 . S
C1508 C1509 1.524 1_545 S
C1508 H1527 0.913 . S
C1509 H1485 0.950 . S
C1509 C1508 1.524 1_565 S
C1509 C1510 1.415 . S
C1510 H1486 0.950 . S
C1510 C1505 1.363 . S
C1510 C1509 1.415 . S
C1511 H1487 0.951 . S
C1511 C1512 1.366 1_545 S
C1511 C1513 1.384 1_545 S
C1512 C1511 1.366 1_565 S
C1512 C1516 1.385 . S
C1513 H1488 0.936 1_565 S
C1513 C1511 1.384 1_565 S
C1513 C1514 1.385 . S
C1514 C1513 1.385 . S
C1514 C1515 1.414 . S
C1514 C1517 1.499 . S
C1515 H1489 0.950 . S
C1515 C1514 1.414 . S
C1515 C1516 1.374 . S
C1516 H1490 0.950 . S
C1516 C1512 1.385 . S
C1516 C1515 1.374 . S
C1517 C1514 1.499 . S
C1517 C1518 1.373 . S
C1517 C1519 1.389 . S
C1518 H1491 0.950 . S
C1518 C1504 1.377 . S
C1518 C1517 1.373 . S
C1519 C1503 1.377 . S
C1519 C1517 1.389 . S
C1519 C1520 1.524 . S
C1520 C1519 1.524 . S
C1520 C1521 1.397 . S
C1520 C1525 1.363 . S
C1521 H1492 0.950 . S
C1521 C1520 1.397 . S
C1521 C1522 1.334 . S
C1522 H1493 0.950 . S
C1522 C1521 1.334 . S
C1522 C1523 1.287 . S
C1523 C1522 1.287 . S
C1523 C1524 1.524 . S
C1523 H1526 0.999 . S
C1524 H1494 0.950 . S
C1524 C1523 1.524 . S
C1524 C1525 1.415 . S
C1525 H1495 0.950 . S
C1525 C1520 1.363 . S
C1525 C1524 1.415 . S
H1526 C1523 0.999 . S
H1527 C1508 0.913 . S
H1528 C1546 0.951 . S
H1529 C1548 0.951 . S
H1530 C1550 0.950 . S
H1531 C1551 0.950 . S
H1532 C1553 0.950 . S
H1533 C1556 0.950 . S
H1534 C1557 0.950 . S
H1535 C1559 0.950 . S
H1536 C1560 0.950 . S
H1537 C1561 0.951 . S
H1538 C1563 0.951 . S
H1539 C1565 0.950 . S
H1540 C1566 0.950 . S
H1541 C1568 0.950 . S
H1542 C1571 0.950 . S
H1543 C1572 0.950 . S
H1544 C1574 0.950 . S
H1545 C1575 0.950 . S
C1546 H1528 0.951 . S
C1546 C1547 1.366 . S
C1546 C1548 1.388 . S
C1547 C1546 1.366 . S
C1547 C1551 1.385 . S
C1548 H1529 0.951 . S
C1548 C1546 1.388 . S
C1548 C1549 1.366 . S
C1549 C1548 1.366 . S
C1549 C1550 1.414 . S
C1549 C1552 1.499 . S
C1550 H1530 0.950 . S
C1550 C1549 1.414 . S
C1550 C1551 1.374 . S
C1551 H1531 0.950 . S
C1551 C1547 1.385 . S
C1551 C1550 1.374 . S
C1552 C1549 1.499 . S
C1552 C1553 1.373 . S
C1552 C1554 1.389 . S
C1553 H1532 0.950 . S
C1553 C1552 1.373 . S
C1553 C1569 1.377 . S
C1554 C1552 1.389 . S
C1554 C1555 1.524 . S
C1554 C1568 1.377 . S
C1555 C1554 1.524 . S
C1555 C1556 1.397 . S
C1555 C1560 1.363 . S
C1556 H1533 0.950 . S
C1556 C1555 1.397 . S
C1556 C1557 1.334 . S
C1557 H1534 0.950 . S
C1557 C1556 1.334 . S
C1557 C1558 1.287 . S
C1558 C1557 1.287 . S
C1558 C1559 1.524 . S
C1558 H1577 0.913 . S
C1559 H1535 0.950 . S
C1559 C1558 1.524 . S
C1559 C1560 1.415 . S
C1560 H1536 0.950 . S
C1560 C1555 1.363 . S
C1560 C1559 1.415 . S
C1561 H1537 0.951 . S
C1561 C1562 1.366 . S
C1561 C1563 1.388 . S
C1562 C1561 1.366 . S
C1562 C1566 1.385 . S
C1563 H1538 0.951 . S
C1563 C1561 1.388 . S
C1563 C1564 1.366 . S
C1564 C1563 1.366 . S
C1564 C1565 1.414 . S
C1564 C1567 1.499 . S
C1565 H1539 0.950 . S
C1565 C1564 1.414 . S
C1565 C1566 1.374 . S
C1566 H1540 0.950 . S
C1566 C1562 1.385 . S
C1566 C1565 1.374 . S
C1567 C1564 1.499 . S
C1567 C1568 1.373 . S
C1567 C1569 1.389 . S
C1568 H1541 0.950 . S
C1568 C1554 1.377 . S
C1568 C1567 1.373 . S
C1569 C1553 1.377 . S
C1569 C1567 1.389 . S
C1569 C1570 1.524 . S
C1570 C1569 1.524 . S
C1570 C1571 1.397 . S
C1570 C1575 1.363 . S
C1571 H1542 0.950 . S
C1571 C1570 1.397 . S
C1571 C1572 1.334 . S
C1572 H1543 0.950 . S
C1572 C1571 1.334 . S
C1572 C1573 1.287 . S
C1573 C1572 1.287 . S
C1573 C1574 1.524 . S
C1573 H1576 0.999 . S
C1574 H1544 0.950 . S
C1574 C1573 1.524 . S
C1574 C1575 1.415 . S
C1575 H1545 0.950 . S
C1575 C1570 1.363 . S
C1575 C1574 1.415 . S
H1576 C1573 0.999 . S
H1577 C1558 0.913 . S
H1578 C1596 0.951 . S
H1579 C1598 0.951 . S
H1580 C1600 0.950 . S
H1581 C1601 0.950 . S
H1582 C1603 0.950 . S
H1583 C1606 0.950 . S
H1584 C1607 0.950 . S
H1585 C1609 0.950 . S
H1586 C1610 0.950 . S
H1587 C1611 0.951 . S
H1588 C1613 0.951 . S
H1589 C1615 0.950 . S
H1590 C1616 0.950 . S
H1591 C1618 0.950 . S
H1592 C1621 0.950 . S
H1593 C1622 0.950 . S
H1594 C1624 0.950 . S
H1595 C1625 0.950 . S
C1596 H1578 0.951 . S
C1596 C1597 1.366 . S
C1596 C1598 1.388 . S
C1597 C1596 1.366 . S
C1597 C1601 1.385 . S
C1598 H1579 0.951 . S
C1598 C1596 1.388 . S
C1598 C1599 1.366 . S
C1599 C1598 1.366 . S
C1599 C1600 1.414 . S
C1599 C1602 1.499 . S
C1600 H1580 0.950 . S
C1600 C1599 1.414 . S
C1600 C1601 1.374 . S
C1601 H1581 0.950 . S
C1601 C1597 1.385 . S
C1601 C1600 1.374 . S
C1602 C1599 1.499 . S
C1602 C1603 1.373 . S
C1602 C1604 1.389 . S
C1603 H1582 0.950 . S
C1603 C1602 1.373 . S
C1603 C1619 1.377 . S
C1604 C1602 1.389 . S
C1604 C1605 1.524 . S
C1604 C1618 1.377 . S
C1605 C1604 1.524 . S
C1605 C1606 1.397 . S
C1605 C1610 1.363 . S
C1606 H1583 0.950 . S
C1606 C1605 1.397 . S
C1606 C1607 1.334 . S
C1607 H1584 0.950 . S
C1607 C1606 1.334 . S
C1607 C1608 1.287 . S
C1608 C1607 1.287 . S
C1608 C1609 1.524 . S
C1608 H1627 0.913 . S
C1609 H1585 0.950 . S
C1609 C1608 1.524 . S
C1609 C1610 1.415 . S
C1610 H1586 0.950 . S
C1610 C1605 1.363 . S
C1610 C1609 1.415 . S
C1611 H1587 0.951 . S
C1611 C1612 1.366 . S
C1611 C1613 1.388 . S
C1612 C1611 1.366 . S
C1612 C1616 1.385 . S
C1613 H1588 0.951 . S
C1613 C1611 1.388 . S
C1613 C1614 1.366 . S
C1614 C1613 1.366 . S
C1614 C1615 1.414 . S
C1614 C1617 1.499 . S
C1615 H1589 0.950 . S
C1615 C1614 1.414 . S
C1615 C1616 1.374 . S
C1616 H1590 0.950 . S
C1616 C1612 1.385 . S
C1616 C1615 1.374 . S
C1617 C1614 1.499 . S
C1617 C1618 1.373 . S
C1617 C1619 1.389 . S
C1618 H1591 0.950 . S
C1618 C1604 1.377 . S
C1618 C1617 1.373 . S
C1619 C1603 1.377 . S
C1619 C1617 1.389 . S
C1619 C1620 1.524 . S
C1620 C1619 1.524 . S
C1620 C1621 1.397 . S
C1620 C1625 1.363 . S
C1621 H1592 0.950 . S
C1621 C1620 1.397 . S
C1621 C1622 1.334 . S
C1622 H1593 0.950 . S
C1622 C1621 1.334 . S
C1622 C1623 1.287 . S
C1623 C1622 1.287 . S
C1623 C1624 1.524 . S
C1623 H1626 0.999 . S
C1624 H1594 0.950 . S
C1624 C1623 1.524 . S
C1624 C1625 1.415 . S
C1625 H1595 0.950 . S
C1625 C1620 1.363 . S
C1625 C1624 1.415 . S
H1626 C1623 0.999 . S
H1627 C1608 0.913 . S
H1628 C1646 0.951 . S
H1629 C1648 0.951 . S
H1630 C1650 0.950 . S
H1631 C1651 0.950 . S
H1632 C1653 0.950 . S
H1633 C1656 0.950 . S
H1634 C1657 0.950 . S
H1635 C1659 0.950 . S
H1636 C1660 0.950 . S
H1637 C1661 0.951 . S
H1638 C1663 0.951 . S
H1639 C1665 0.950 . S
H1640 C1666 0.950 . S
H1641 C1668 0.950 . S
H1642 C1671 0.950 . S
H1643 C1672 0.950 . S
H1644 C1674 0.950 . S
H1645 C1675 0.950 . S
C1646 H1628 0.951 . S
C1646 C1647 1.366 . S
C1646 C1648 1.388 . S
C1647 C1646 1.366 . S
C1647 C1651 1.385 . S
C1648 H1629 0.951 . S
C1648 C1646 1.388 . S
C1648 C1649 1.366 . S
C1649 C1648 1.366 . S
C1649 C1650 1.414 . S
C1649 C1652 1.499 . S
C1650 H1630 0.950 . S
C1650 C1649 1.414 . S
C1650 C1651 1.374 . S
C1651 H1631 0.950 . S
C1651 C1647 1.385 . S
C1651 C1650 1.374 . S
C1652 C1649 1.499 . S
C1652 C1653 1.373 . S
C1652 C1654 1.389 . S
C1653 H1632 0.950 . S
C1653 C1652 1.373 . S
C1653 C1669 1.377 . S
C1654 C1652 1.389 . S
C1654 C1655 1.524 . S
C1654 C1668 1.377 . S
C1655 C1654 1.524 . S
C1655 C1656 1.397 . S
C1655 C1660 1.363 . S
C1656 H1633 0.950 . S
C1656 C1655 1.397 . S
C1656 C1657 1.334 . S
C1657 H1634 0.950 . S
C1657 C1656 1.334 . S
C1657 C1658 1.287 . S
C1658 C1657 1.287 . S
C1658 C1659 1.524 . S
C1658 H1677 0.913 . S
C1659 H1635 0.950 . S
C1659 C1658 1.524 . S
C1659 C1660 1.415 . S
C1660 H1636 0.950 . S
C1660 C1655 1.363 . S
C1660 C1659 1.415 . S
C1661 H1637 0.951 . S
C1661 C1662 1.366 . S
C1661 C1663 1.388 . S
C1662 C1661 1.366 . S
C1662 C1666 1.385 . S
C1663 H1638 0.951 . S
C1663 C1661 1.388 . S
C1663 C1664 1.366 . S
C1664 C1663 1.366 . S
C1664 C1665 1.414 . S
C1664 C1667 1.499 . S
C1665 H1639 0.950 . S
C1665 C1664 1.414 . S
C1665 C1666 1.374 . S
C1666 H1640 0.950 . S
C1666 C1662 1.385 . S
C1666 C1665 1.374 . S
C1667 C1664 1.499 . S
C1667 C1668 1.373 . S
C1667 C1669 1.389 . S
C1668 H1641 0.950 . S
C1668 C1654 1.377 . S
C1668 C1667 1.373 . S
C1669 C1653 1.377 . S
C1669 C1667 1.389 . S
C1669 C1670 1.524 . S
C1670 C1669 1.524 . S
C1670 C1671 1.397 . S
C1670 C1675 1.363 . S
C1671 H1642 0.950 . S
C1671 C1670 1.397 . S
C1671 C1672 1.334 . S
C1672 H1643 0.950 . S
C1672 C1671 1.334 . S
C1672 C1673 1.287 . S
C1673 C1672 1.287 . S
C1673 C1674 1.524 . S
C1673 H1676 0.999 . S
C1674 H1644 0.950 . S
C1674 C1673 1.524 . S
C1674 C1675 1.415 . S
C1675 H1645 0.950 . S
C1675 C1670 1.363 . S
C1675 C1674 1.415 . S
H1676 C1673 0.999 . S
H1677 C1658 0.913 . S
H1678 C1696 0.951 . S
H1679 C1698 0.951 . S
H1680 C1700 0.950 . S
H1681 C1701 0.950 . S
H1682 C1703 0.950 . S
H1683 C1706 0.950 . S
H1684 C1707 0.950 . S
H1685 C1709 0.950 . S
H1686 C1710 0.950 . S
H1687 C1711 0.951 . S
H1688 C1713 0.951 . S
H1689 C1715 0.950 . S
H1690 C1716 0.950 . S
H1691 C1718 0.950 . S
H1692 C1721 0.950 . S
H1693 C1722 0.950 . S
H1694 C1724 0.950 . S
H1695 C1725 0.950 . S
C1696 H1678 0.951 . S
C1696 C1697 1.366 . S
C1696 C1698 1.388 . S
C1697 C1696 1.366 . S
C1697 C1701 1.385 . S
C1698 H1679 0.951 . S
C1698 C1696 1.388 . S
C1698 C1699 1.366 . S
C1699 C1698 1.366 . S
C1699 C1700 1.414 . S
C1699 C1702 1.499 . S
C1700 H1680 0.950 . S
C1700 C1699 1.414 . S
C1700 C1701 1.374 . S
C1701 H1681 0.950 . S
C1701 C1697 1.385 . S
C1701 C1700 1.374 . S
C1702 C1699 1.499 . S
C1702 C1703 1.373 . S
C1702 C1704 1.389 . S
C1703 H1682 0.950 . S
C1703 C1702 1.373 . S
C1703 C1719 1.377 . S
C1704 C1702 1.389 . S
C1704 C1705 1.524 . S
C1704 C1718 1.377 . S
C1705 C1704 1.524 . S
C1705 C1706 1.397 . S
C1705 C1710 1.363 . S
C1706 H1683 0.950 . S
C1706 C1705 1.397 . S
C1706 C1707 1.334 . S
C1707 H1684 0.950 . S
C1707 C1706 1.334 . S
C1707 C1708 1.287 . S
C1708 C1707 1.287 . S
C1708 C1709 1.524 . S
C1708 H1727 0.913 . S
C1709 H1685 0.950 . S
C1709 C1708 1.524 . S
C1709 C1710 1.415 . S
C1710 H1686 0.950 . S
C1710 C1705 1.363 . S
C1710 C1709 1.415 . S
C1711 H1687 0.951 . S
C1711 C1712 1.366 . S
C1711 C1713 1.388 . S
C1712 C1711 1.366 . S
C1712 C1716 1.385 . S
C1713 H1688 0.951 . S
C1713 C1711 1.388 . S
C1713 C1714 1.366 . S
C1714 C1713 1.366 . S
C1714 C1715 1.414 . S
C1714 C1717 1.499 . S
C1715 H1689 0.950 . S
C1715 C1714 1.414 . S
C1715 C1716 1.374 . S
C1716 H1690 0.950 . S
C1716 C1712 1.385 . S
C1716 C1715 1.374 . S
C1717 C1714 1.499 . S
C1717 C1718 1.373 . S
C1717 C1719 1.389 . S
C1718 H1691 0.950 . S
C1718 C1704 1.377 . S
C1718 C1717 1.373 . S
C1719 C1703 1.377 . S
C1719 C1717 1.389 . S
C1719 C1720 1.524 . S
C1720 C1719 1.524 . S
C1720 C1721 1.397 . S
C1720 C1725 1.363 . S
C1721 H1692 0.950 . S
C1721 C1720 1.397 . S
C1721 C1722 1.334 . S
C1722 H1693 0.950 . S
C1722 C1721 1.334 . S
C1722 C1723 1.287 . S
C1723 C1722 1.287 . S
C1723 C1724 1.524 . S
C1723 H1726 0.999 . S
C1724 H1694 0.950 . S
C1724 C1723 1.524 . S
C1724 C1725 1.415 . S
C1725 H1695 0.950 . S
C1725 C1720 1.363 . S
C1725 C1724 1.415 . S
H1726 C1723 0.999 . S
H1727 C1708 0.913 . S
H1728 C1746 0.951 . S
H1729 C1748 0.951 . S
H1730 C1750 0.950 . S
H1731 C1751 0.950 . S
H1732 C1753 0.950 . S
H1733 C1756 0.950 . S
H1734 C1757 0.950 . S
H1735 C1759 0.950 . S
H1736 C1760 0.950 . S
H1737 C1761 0.951 . S
H1738 C1763 0.951 . S
H1739 C1765 0.950 . S
H1740 C1766 0.950 . S
H1741 C1768 0.950 . S
H1742 C1771 0.950 . S
H1743 C1772 0.950 . S
H1744 C1774 0.950 . S
H1745 C1775 0.950 . S
C1746 H1728 0.951 . S
C1746 C1747 1.366 . S
C1746 C1748 1.388 . S
C1747 C1746 1.366 . S
C1747 C1751 1.385 . S
C1748 H1729 0.951 . S
C1748 C1746 1.388 . S
C1748 C1749 1.366 . S
C1749 C1748 1.366 . S
C1749 C1750 1.414 . S
C1749 C1752 1.499 . S
C1750 H1730 0.950 . S
C1750 C1749 1.414 . S
C1750 C1751 1.374 . S
C1751 H1731 0.950 . S
C1751 C1747 1.385 . S
C1751 C1750 1.374 . S
C1752 C1749 1.499 . S
C1752 C1753 1.373 . S
C1752 C1754 1.389 . S
C1753 H1732 0.950 . S
C1753 C1752 1.373 . S
C1753 C1769 1.377 . S
C1754 C1752 1.389 . S
C1754 C1755 1.524 . S
C1754 C1768 1.377 . S
C1755 C1754 1.524 . S
C1755 C1756 1.397 . S
C1755 C1760 1.363 . S
C1756 H1733 0.950 . S
C1756 C1755 1.397 . S
C1756 C1757 1.334 . S
C1757 H1734 0.950 . S
C1757 C1756 1.334 . S
C1757 C1758 1.287 . S
C1758 C1757 1.287 . S
C1758 C1759 1.524 . S
C1758 H1777 0.913 . S
C1759 H1735 0.950 . S
C1759 C1758 1.524 . S
C1759 C1760 1.415 . S
C1760 H1736 0.950 . S
C1760 C1755 1.363 . S
C1760 C1759 1.415 . S
C1761 H1737 0.951 . S
C1761 C1762 1.366 . S
C1761 C1763 1.388 . S
C1762 C1761 1.366 . S
C1762 C1766 1.385 . S
C1763 H1738 0.951 . S
C1763 C1761 1.388 . S
C1763 C1764 1.366 . S
C1764 C1763 1.366 . S
C1764 C1765 1.414 . S
C1764 C1767 1.499 . S
C1765 H1739 0.950 . S
C1765 C1764 1.414 . S
C1765 C1766 1.374 . S
C1766 H1740 0.950 . S
C1766 C1762 1.385 . S
C1766 C1765 1.374 . S
C1767 C1764 1.499 . S
C1767 C1768 1.373 . S
C1767 C1769 1.389 . S
C1768 H1741 0.950 . S
C1768 C1754 1.377 . S
C1768 C1767 1.373 . S
C1769 C1753 1.377 . S
C1769 C1767 1.389 . S
C1769 C1770 1.524 . S
C1770 C1769 1.524 . S
C1770 C1771 1.397 . S
C1770 C1775 1.363 . S
C1771 H1742 0.950 . S
C1771 C1770 1.397 . S
C1771 C1772 1.334 . S
C1772 H1743 0.950 . S
C1772 C1771 1.334 . S
C1772 C1773 1.287 . S
C1773 C1772 1.287 . S
C1773 C1774 1.524 . S
C1773 H1776 0.999 . S
C1774 H1744 0.950 . S
C1774 C1773 1.524 . S
C1774 C1775 1.415 . S
C1775 H1745 0.950 . S
C1775 C1770 1.363 . S
C1775 C1774 1.415 . S
H1776 C1773 0.999 . S
H1777 C1758 0.913 . S
H1778 C1796 0.951 . S
H1779 C1798 0.951 . S
H1780 C1800 0.950 . S
H1781 C1801 0.950 . S
H1782 C1803 0.950 . S
H1783 C1806 0.950 . S
H1784 C1807 0.950 . S
H1785 C1809 0.950 . S
H1786 C1810 0.950 . S
H1787 C1811 0.951 . S
H1788 C1813 0.951 . S
H1789 C1815 0.950 . S
H1790 C1816 0.950 1_655 S
H1791 C1818 0.950 . S
H1792 C1821 0.950 . S
H1793 C1822 0.950 . S
H1794 C1824 0.950 . S
H1795 C1825 0.950 . S
C1796 H1778 0.951 . S
C1796 C1797 1.366 . S
C1796 C1798 1.388 . S
C1797 C1796 1.366 . S
C1797 C1801 1.385 . S
C1798 H1779 0.951 . S
C1798 C1796 1.388 . S
C1798 C1799 1.366 . S
C1799 C1798 1.366 . S
C1799 C1800 1.414 . S
C1799 C1802 1.499 . S
C1800 H1780 0.950 . S
C1800 C1799 1.414 . S
C1800 C1801 1.374 . S
C1801 H1781 0.950 . S
C1801 C1797 1.385 . S
C1801 C1800 1.374 . S
C1802 C1799 1.499 . S
C1802 C1803 1.373 . S
C1802 C1804 1.389 . S
C1803 H1782 0.950 . S
C1803 C1802 1.373 . S
C1803 C1819 1.377 . S
C1804 C1802 1.389 . S
C1804 C1805 1.524 . S
C1804 C1818 1.377 . S
C1805 C1804 1.524 . S
C1805 C1806 1.397 . S
C1805 C1810 1.363 . S
C1806 H1783 0.950 . S
C1806 C1805 1.397 . S
C1806 C1807 1.334 . S
C1807 H1784 0.950 . S
C1807 C1806 1.334 . S
C1807 C1808 1.287 . S
C1808 C1807 1.287 . S
C1808 C1809 1.524 . S
C1808 H1827 0.913 . S
C1809 H1785 0.950 . S
C1809 C1808 1.524 . S
C1809 C1810 1.415 . S
C1810 H1786 0.950 . S
C1810 C1805 1.363 . S
C1810 C1809 1.415 . S
C1811 H1787 0.951 . S
C1811 C1812 1.366 . S
C1811 C1813 1.388 . S
C1812 C1811 1.366 . S
C1812 C1816 1.385 . S
C1813 H1788 0.951 . S
C1813 C1811 1.388 . S
C1813 C1814 1.366 . S
C1814 C1813 1.366 . S
C1814 C1815 1.414 . S
C1814 C1817 1.499 . S
C1815 H1789 0.950 . S
C1815 C1814 1.414 . S
C1815 C1816 1.374 . S
C1816 H1790 0.950 1_455 S
C1816 C1812 1.385 . S
C1816 C1815 1.374 . S
C1817 C1814 1.499 . S
C1817 C1818 1.373 . S
C1817 C1819 1.389 . S
C1818 H1791 0.950 . S
C1818 C1804 1.377 . S
C1818 C1817 1.373 . S
C1819 C1803 1.377 . S
C1819 C1817 1.389 . S
C1819 C1820 1.524 . S
C1820 C1819 1.524 . S
C1820 C1821 1.397 1_455 S
C1820 C1825 1.363 . S
C1821 H1792 0.950 . S
C1821 C1820 1.397 1_655 S
C1821 C1822 1.334 . S
C1822 H1793 0.950 . S
C1822 C1821 1.334 . S
C1822 C1823 1.287 . S
C1823 C1822 1.287 . S
C1823 C1824 1.524 1_655 S
C1823 H1826 0.999 . S
C1824 H1794 0.950 . S
C1824 C1823 1.524 1_455 S
C1824 C1825 1.415 . S
C1825 H1795 0.950 . S
C1825 C1820 1.363 . S
C1825 C1824 1.415 . S
H1826 C1823 0.999 . S
H1827 C1808 0.913 . S
H1828 C1846 0.951 . S
H1829 C1848 0.951 . S
H1830 C1850 0.950 . S
H1831 C1851 0.950 . S
H1832 C1853 0.950 . S
H1833 C1856 0.950 . S
H1834 C1857 0.950 . S
H1835 C1859 0.950 . S
H1836 C1860 0.950 . S
H1837 C1861 0.951 . S
H1838 C1863 0.951 . S
H1839 C1865 0.950 . S
H1840 C1866 0.950 . S
H1841 C1868 0.950 . S
H1842 C1871 0.950 . S
H1843 C1872 0.950 . S
H1844 C1874 0.950 . S
H1845 C1875 0.950 . S
C1846 H1828 0.951 . S
C1846 C1847 1.366 . S
C1846 C1848 1.388 . S
C1847 C1846 1.366 . S
C1847 C1851 1.385 . S
C1848 H1829 0.951 . S
C1848 C1846 1.388 . S
C1848 C1849 1.366 . S
C1849 C1848 1.366 . S
C1849 C1850 1.414 . S
C1849 C1852 1.499 . S
C1850 H1830 0.950 . S
C1850 C1849 1.414 . S
C1850 C1851 1.374 . S
C1851 H1831 0.950 . S
C1851 C1847 1.385 . S
C1851 C1850 1.374 . S
C1852 C1849 1.499 . S
C1852 C1853 1.373 . S
C1852 C1854 1.389 . S
C1853 H1832 0.950 . S
C1853 C1852 1.373 . S
C1853 C1869 1.377 . S
C1854 C1852 1.389 . S
C1854 C1855 1.524 . S
C1854 C1868 1.377 . S
C1855 C1854 1.524 . S
C1855 C1856 1.397 . S
C1855 C1860 1.363 . S
C1856 H1833 0.950 . S
C1856 C1855 1.397 . S
C1856 C1857 1.334 . S
C1857 H1834 0.950 . S
C1857 C1856 1.334 . S
C1857 C1858 1.287 . S
C1858 C1857 1.287 . S
C1858 C1859 1.524 . S
C1858 H1877 0.913 . S
C1859 H1835 0.950 . S
C1859 C1858 1.524 . S
C1859 C1860 1.415 . S
C1860 H1836 0.950 . S
C1860 C1855 1.363 . S
C1860 C1859 1.415 . S
C1861 H1837 0.951 . S
C1861 C1862 1.366 . S
C1861 C1863 1.388 . S
C1862 C1861 1.366 . S
C1862 C1866 1.385 . S
C1863 H1838 0.951 . S
C1863 C1861 1.388 . S
C1863 C1864 1.366 . S
C1864 C1863 1.366 . S
C1864 C1865 1.414 . S
C1864 C1867 1.499 . S
C1865 H1839 0.950 . S
C1865 C1864 1.414 . S
C1865 C1866 1.374 . S
C1866 H1840 0.950 . S
C1866 C1862 1.385 . S
C1866 C1865 1.374 . S
C1867 C1864 1.499 . S
C1867 C1868 1.373 . S
C1867 C1869 1.389 . S
C1868 H1841 0.950 . S
C1868 C1854 1.377 . S
C1868 C1867 1.373 . S
C1869 C1853 1.377 . S
C1869 C1867 1.389 . S
C1869 C1870 1.524 . S
C1870 C1869 1.524 . S
C1870 C1871 1.397 . S
C1870 C1875 1.363 . S
C1871 H1842 0.950 . S
C1871 C1870 1.397 . S
C1871 C1872 1.334 . S
C1872 H1843 0.950 . S
C1872 C1871 1.334 . S
C1872 C1873 1.287 . S
C1873 C1872 1.287 . S
C1873 C1874 1.524 . S
C1873 H1876 0.999 . S
C1874 H1844 0.950 . S
C1874 C1873 1.524 . S
C1874 C1875 1.415 . S
C1875 H1845 0.950 . S
C1875 C1870 1.363 . S
C1875 C1874 1.415 . S
H1876 C1873 0.999 . S
H1877 C1858 0.913 . S
H1878 C1896 0.951 . S
H1879 C1898 0.993 . S
H1880 C1900 0.950 . S
H1881 C1901 0.950 . S
H1882 C1903 0.950 . S
H1883 C1906 0.950 . S
H1884 C1907 0.950 . S
H1885 C1909 0.950 . S
H1886 C1910 0.950 . S
H1887 C1911 0.951 . S
H1888 C1913 0.951 . S
H1889 C1915 0.950 . S
H1890 C1916 0.950 . S
H1891 C1918 0.950 . S
H1892 C1921 0.950 . S
H1893 C1922 0.950 . S
H1894 C1924 0.950 . S
H1895 C1925 0.950 . S
C1896 H1878 0.951 . S
C1896 C1897 1.366 . S
C1896 C1898 1.388 . S
C1897 C1896 1.366 . S
C1897 C1901 1.385 . S
C1898 H1879 0.993 . S
C1898 C1896 1.388 . S
C1898 C1899 1.366 . S
C1899 C1898 1.366 . S
C1899 C1900 1.414 . S
C1899 C1902 1.499 . S
C1900 H1880 0.950 . S
C1900 C1899 1.414 . S
C1900 C1901 1.374 . S
C1901 H1881 0.950 . S
C1901 C1897 1.385 . S
C1901 C1900 1.374 . S
C1902 C1899 1.499 . S
C1902 C1903 1.373 . S
C1902 C1904 1.389 . S
C1903 H1882 0.950 . S
C1903 C1902 1.373 . S
C1903 C1919 1.377 . S
C1904 C1902 1.389 . S
C1904 C1905 1.524 . S
C1904 C1918 1.377 . S
C1905 C1904 1.524 . S
C1905 C1906 1.397 . S
C1905 C1910 1.363 . S
C1906 H1883 0.950 . S
C1906 C1905 1.397 . S
C1906 C1907 1.334 . S
C1907 H1884 0.950 . S
C1907 C1906 1.334 . S
C1907 C1908 1.287 . S
C1908 C1907 1.287 . S
C1908 C1909 1.524 . S
C1908 H1927 0.913 . S
C1909 H1885 0.950 . S
C1909 C1908 1.524 . S
C1909 C1910 1.415 . S
C1910 H1886 0.950 . S
C1910 C1905 1.363 . S
C1910 C1909 1.415 . S
C1911 H1887 0.951 . S
C1911 C1912 1.366 . S
C1911 C1913 1.388 . S
C1912 C1911 1.366 . S
C1912 C1916 1.385 1_655 S
C1913 H1888 0.951 . S
C1913 C1911 1.388 . S
C1913 C1914 1.366 . S
C1914 C1913 1.366 . S
C1914 C1915 1.414 1_655 S
C1914 C1917 1.499 . S
C1915 H1889 0.950 . S
C1915 C1914 1.414 1_455 S
C1915 C1916 1.374 . S
C1916 H1890 0.950 . S
C1916 C1912 1.385 1_455 S
C1916 C1915 1.374 . S
C1917 C1914 1.499 . S
C1917 C1918 1.373 . S
C1917 C1919 1.389 . S
C1918 H1891 0.950 . S
C1918 C1904 1.377 . S
C1918 C1917 1.373 . S
C1919 C1903 1.377 . S
C1919 C1917 1.389 . S
C1919 C1920 1.524 . S
C1920 C1919 1.524 . S
C1920 C1921 1.397 1_655 S
C1920 C1925 1.363 . S
C1921 H1892 0.950 . S
C1921 C1920 1.397 1_455 S
C1921 C1922 1.334 . S
C1922 H1893 0.950 . S
C1922 C1921 1.334 . S
C1922 C1923 1.287 . S
C1923 C1922 1.287 . S
C1923 C1924 1.524 1_455 S
C1923 H1926 0.999 . S
C1924 H1894 0.950 . S
C1924 C1923 1.524 1_655 S
C1924 C1925 1.415 . S
C1925 H1895 0.950 . S
C1925 C1920 1.363 . S
C1925 C1924 1.415 . S
H1926 C1923 0.999 . S
H1927 C1908 0.913 . S
H1928 C1946 0.951 . S
H1929 C1948 0.951 . S
H1930 C1950 0.950 . S
H1931 C1951 0.950 . S
H1932 C1953 0.950 . S
H1933 C1956 0.950 . S
H1934 C1957 0.950 . S
H1935 C1959 0.950 . S
H1936 C1960 0.950 . S
H1937 C1961 0.951 . S
H1938 C1963 0.951 . S
H1939 C1965 0.950 . S
H1940 C1966 0.950 . S
H1941 C1968 0.950 . S
H1942 C1971 0.950 . S
H1943 C1972 0.950 . S
H1944 C1974 0.950 . S
H1945 C1975 0.950 . S
C1946 H1928 0.951 . S
C1946 C1947 1.366 . S
C1946 C1948 1.388 . S
C1947 C1946 1.366 . S
C1947 C1951 1.385 . S
C1948 H1929 0.951 . S
C1948 C1946 1.388 . S
C1948 C1949 1.366 . S
C1949 C1948 1.366 . S
C1949 C1950 1.414 . S
C1949 C1952 1.499 . S
C1950 H1930 0.950 . S
C1950 C1949 1.414 . S
C1950 C1951 1.374 . S
C1951 H1931 0.950 . S
C1951 C1947 1.385 . S
C1951 C1950 1.374 . S
C1952 C1949 1.499 . S
C1952 C1953 1.373 . S
C1952 C1954 1.389 . S
C1953 H1932 0.950 . S
C1953 C1952 1.373 . S
C1953 C1969 1.377 . S
C1954 C1952 1.389 . S
C1954 C1955 1.524 . S
C1954 C1968 1.377 . S
C1955 C1954 1.524 . S
C1955 C1956 1.397 . S
C1955 C1960 1.363 . S
C1956 H1933 0.950 . S
C1956 C1955 1.397 . S
C1956 C1957 1.334 . S
C1957 H1934 0.950 . S
C1957 C1956 1.334 . S
C1957 C1958 1.287 . S
C1958 C1957 1.287 . S
C1958 C1959 1.524 . S
C1958 H1977 0.913 . S
C1959 H1935 0.950 . S
C1959 C1958 1.524 . S
C1959 C1960 1.415 . S
C1960 H1936 0.950 . S
C1960 C1955 1.363 . S
C1960 C1959 1.415 . S
C1961 H1937 0.951 . S
C1961 C1962 1.366 . S
C1961 C1963 1.388 . S
C1962 C1961 1.366 . S
C1962 C1966 1.385 . S
C1963 H1938 0.951 . S
C1963 C1961 1.388 . S
C1963 C1964 1.366 . S
C1964 C1963 1.366 . S
C1964 C1965 1.414 . S
C1964 C1967 1.499 . S
C1965 H1939 0.950 . S
C1965 C1964 1.414 . S
C1965 C1966 1.374 . S
C1966 H1940 0.950 . S
C1966 C1962 1.385 . S
C1966 C1965 1.374 . S
C1967 C1964 1.499 . S
C1967 C1968 1.373 . S
C1967 C1969 1.389 . S
C1968 H1941 0.950 . S
C1968 C1954 1.377 . S
C1968 C1967 1.373 . S
C1969 C1953 1.377 . S
C1969 C1967 1.389 . S
C1969 C1970 1.524 . S
C1970 C1969 1.524 . S
C1970 C1971 1.397 . S
C1970 C1975 1.363 . S
C1971 H1942 0.950 . S
C1971 C1970 1.397 . S
C1971 C1972 1.334 . S
C1972 H1943 0.950 . S
C1972 C1971 1.334 . S
C1972 C1973 1.287 . S
C1973 C1972 1.287 . S
C1973 C1974 1.524 . S
C1973 H1976 0.999 . S
C1974 H1944 0.950 . S
C1974 C1973 1.524 . S
C1974 C1975 1.415 . S
C1975 H1945 0.950 . S
C1975 C1970 1.363 . S
C1975 C1974 1.415 . S
H1976 C1973 0.999 . S
H1977 C1958 0.913 . S
H1978 C1996 0.951 . S
H1979 C1998 0.951 . S
H1980 C2000 0.950 . S
H1981 C2001 0.950 . S
H1982 C2003 0.950 . S
H1983 C2006 0.950 . S
H1984 C2007 0.950 . S
H1985 C2009 0.950 . S
H1986 C2010 0.950 . S
H1987 C2011 0.951 . S
H1988 C2013 0.951 . S
H1989 C2015 0.950 . S
H1990 C2016 0.950 . S
H1991 C2018 0.950 . S
H1992 C2021 0.950 . S
H1993 C2022 0.950 . S
H1994 C2024 0.950 . S
H1995 C2025 0.950 . S
C1996 H1978 0.951 . S
C1996 C1997 1.366 . S
C1996 C1998 1.388 . S
C1997 C1996 1.366 . S
C1997 C2001 1.385 . S
C1998 H1979 0.951 . S
C1998 C1996 1.388 . S
C1998 C1999 1.366 . S
C1999 C1998 1.366 . S
C1999 C2000 1.414 . S
C1999 C2002 1.499 . S
C2000 H1980 0.950 . S
C2000 C1999 1.414 . S
C2000 C2001 1.374 . S
C2001 H1981 0.950 . S
C2001 C1997 1.385 . S
C2001 C2000 1.374 . S
C2002 C1999 1.499 . S
C2002 C2003 1.373 . S
C2002 C2004 1.389 . S
C2003 H1982 0.950 . S
C2003 C2002 1.373 . S
C2003 C2019 1.377 . S
C2004 C2002 1.389 . S
C2004 C2005 1.524 . S
C2004 C2018 1.377 . S
C2005 C2004 1.524 . S
C2005 C2006 1.397 . S
C2005 C2010 1.363 . S
C2006 H1983 0.950 . S
C2006 C2005 1.397 . S
C2006 C2007 1.334 . S
C2007 H1984 0.950 . S
C2007 C2006 1.334 . S
C2007 C2008 1.287 . S
C2008 C2007 1.287 . S
C2008 C2009 1.524 . S
C2008 H2027 0.913 . S
C2009 H1985 0.950 . S
C2009 C2008 1.524 . S
C2009 C2010 1.415 . S
C2010 H1986 0.950 . S
C2010 C2005 1.363 . S
C2010 C2009 1.415 . S
C2011 H1987 0.951 . S
C2011 C2012 1.366 . S
C2011 C2013 1.388 . S
C2012 C2011 1.366 . S
C2012 C2016 1.385 . S
C2013 H1988 0.951 . S
C2013 C2011 1.388 . S
C2013 C2014 1.366 . S
C2014 C2013 1.366 . S
C2014 C2015 1.414 . S
C2014 C2017 1.499 . S
C2015 H1989 0.950 . S
C2015 C2014 1.414 . S
C2015 C2016 1.374 . S
C2016 H1990 0.950 . S
C2016 C2012 1.385 . S
C2016 C2015 1.374 . S
C2017 C2014 1.499 . S
C2017 C2018 1.373 . S
C2017 C2019 1.389 . S
C2018 H1991 0.950 . S
C2018 C2004 1.377 . S
C2018 C2017 1.373 . S
C2019 C2003 1.377 . S
C2019 C2017 1.389 . S
C2019 C2020 1.524 . S
C2020 C2019 1.524 . S
C2020 C2021 1.397 . S
C2020 C2025 1.363 . S
C2021 H1992 0.950 . S
C2021 C2020 1.397 . S
C2021 C2022 1.334 . S
C2022 H1993 0.950 . S
C2022 C2021 1.334 . S
C2022 C2023 1.287 . S
C2023 C2022 1.287 . S
C2023 C2024 1.524 . S
C2023 H2026 0.999 . S
C2024 H1994 0.950 . S
C2024 C2023 1.524 . S
C2024 C2025 1.415 . S
C2025 H1995 0.950 . S
C2025 C2020 1.363 . S
C2025 C2024 1.415 . S
H2026 C2023 0.999 . S
H2027 C2008 0.913 . S
H2028 C2046 0.951 . S
H2029 C2048 0.951 . S
H2030 C2050 0.950 . S
H2031 C2051 0.950 . S
H2032 C2053 0.950 . S
H2033 C2056 0.950 . S
H2034 C2057 0.950 . S
H2035 C2059 0.950 . S
H2036 C2060 0.950 . S
H2037 C2061 0.951 . S
H2038 C2063 0.951 . S
H2039 C2065 0.950 1_554 S
H2040 C2066 0.964 . S
H2041 C2068 0.950 . S
H2042 C2071 0.950 . S
H2043 C2072 0.950 . S
H2044 C2074 0.950 . S
H2045 C2075 0.950 . S
C2046 H2028 0.951 . S
C2046 C2047 1.366 . S
C2046 C2048 1.388 . S
C2047 C2046 1.366 . S
C2047 C2051 1.385 . S
C2048 H2029 0.951 . S
C2048 C2046 1.388 . S
C2048 C2049 1.366 . S
C2049 C2048 1.366 . S
C2049 C2050 1.414 . S
C2049 C2052 1.499 . S
C2050 H2030 0.950 . S
C2050 C2049 1.414 . S
C2050 C2051 1.374 . S
C2051 H2031 0.950 . S
C2051 C2047 1.385 . S
C2051 C2050 1.374 . S
C2052 C2049 1.499 . S
C2052 C2053 1.373 . S
C2052 C2054 1.389 1_556 S
C2053 H2032 0.950 . S
C2053 C2052 1.373 . S
C2053 C2069 1.377 . S
C2054 C2052 1.389 1_554 S
C2054 C2055 1.524 . S
C2054 C2068 1.377 . S
C2055 C2054 1.524 . S
C2055 C2056 1.397 . S
C2055 C2060 1.363 . S
C2056 H2033 0.950 . S
C2056 C2055 1.397 . S
C2056 C2057 1.334 . S
C2057 H2034 0.950 . S
C2057 C2056 1.334 . S
C2057 C2058 1.287 . S
C2058 C2057 1.287 . S
C2058 C2059 1.524 . S
C2058 H2077 0.913 . S
C2059 H2035 0.950 . S
C2059 C2058 1.524 . S
C2059 C2060 1.415 . S
C2060 H2036 0.950 . S
C2060 C2055 1.363 . S
C2060 C2059 1.415 . S
C2061 H2037 0.951 . S
C2061 C2062 1.366 . S
C2061 C2063 1.388 . S
C2062 C2061 1.366 . S
C2062 C2066 1.377 1_556 S
C2063 H2038 0.951 . S
C2063 C2061 1.388 . S
C2063 C2064 1.366 . S
C2064 C2063 1.366 . S
C2064 C2065 1.414 . S
C2064 C2067 1.499 . S
C2065 H2039 0.950 1_556 S
C2065 C2064 1.414 . S
C2065 C2066 1.369 1_556 S
C2066 H2040 0.964 . S
C2066 C2062 1.377 1_554 S
C2066 C2065 1.369 1_554 S
C2067 C2064 1.499 . S
C2067 C2068 1.373 1_556 S
C2067 C2069 1.389 . S
C2068 H2041 0.950 . S
C2068 C2054 1.377 . S
C2068 C2067 1.373 1_554 S
C2069 C2053 1.377 . S
C2069 C2067 1.389 . S
C2069 C2070 1.524 . S
C2070 C2069 1.524 . S
C2070 C2071 1.397 . S
C2070 C2075 1.363 . S
C2071 H2042 0.950 . S
C2071 C2070 1.397 . S
C2071 C2072 1.334 . S
C2072 H2043 0.950 . S
C2072 C2071 1.334 . S
C2072 C2073 1.287 . S
C2073 C2072 1.287 . S
C2073 C2074 1.524 . S
C2073 H2076 0.999 . S
C2074 H2044 0.950 . S
C2074 C2073 1.524 . S
C2074 C2075 1.415 . S
C2075 H2045 0.950 . S
C2075 C2070 1.363 . S
C2075 C2074 1.415 . S
H2076 C2073 0.999 . S
H2077 C2058 0.913 . S
H2078 C2096 0.951 . S
H2079 C2098 0.951 . S
H2080 C2100 0.950 . S
H2081 C2101 0.950 . S
H2082 C2103 0.950 . S
H2083 C2106 0.950 . S
H2084 C2107 0.950 . S
H2085 C2109 0.950 . S
H2086 C2110 0.950 . S
H2087 C2111 0.951 . S
H2088 C2113 0.951 . S
H2089 C2115 0.950 . S
H2090 C2116 0.950 . S
H2091 C2118 0.950 . S
H2092 C2121 0.950 . S
H2093 C2122 0.950 . S
H2094 C2124 0.950 . S
H2095 C2125 0.950 . S
C2096 H2078 0.951 . S
C2096 C2097 1.366 . S
C2096 C2098 1.388 . S
C2097 C2096 1.366 . S
C2097 C2101 1.385 . S
C2098 H2079 0.951 . S
C2098 C2096 1.388 . S
C2098 C2099 1.366 . S
C2099 C2098 1.366 . S
C2099 C2100 1.414 . S
C2099 C2102 1.499 . S
C2100 H2080 0.950 . S
C2100 C2099 1.414 . S
C2100 C2101 1.374 . S
C2101 H2081 0.950 . S
C2101 C2097 1.385 . S
C2101 C2100 1.374 . S
C2102 C2099 1.499 . S
C2102 C2103 1.373 . S
C2102 C2104 1.389 . S
C2103 H2082 0.950 . S
C2103 C2102 1.373 . S
C2103 C2119 1.377 . S
C2104 C2102 1.389 . S
C2104 C2105 1.524 . S
C2104 C2118 1.377 . S
C2105 C2104 1.524 . S
C2105 C2106 1.397 . S
C2105 C2110 1.363 . S
C2106 H2083 0.950 . S
C2106 C2105 1.397 . S
C2106 C2107 1.334 . S
C2107 H2084 0.950 . S
C2107 C2106 1.334 . S
C2107 C2108 1.287 . S
C2108 C2107 1.287 . S
C2108 C2109 1.524 . S
C2108 H2127 0.913 . S
C2109 H2085 0.950 . S
C2109 C2108 1.524 . S
C2109 C2110 1.415 . S
C2110 H2086 0.950 . S
C2110 C2105 1.363 . S
C2110 C2109 1.415 . S
C2111 H2087 0.951 . S
C2111 C2112 1.366 . S
C2111 C2113 1.388 . S
C2112 C2111 1.366 . S
C2112 C2116 1.385 . S
C2113 H2088 0.951 . S
C2113 C2111 1.388 . S
C2113 C2114 1.366 . S
C2114 C2113 1.366 . S
C2114 C2115 1.414 . S
C2114 C2117 1.499 . S
C2115 H2089 0.950 . S
C2115 C2114 1.414 . S
C2115 C2116 1.374 . S
C2116 H2090 0.950 . S
C2116 C2112 1.385 . S
C2116 C2115 1.374 . S
C2117 C2114 1.499 . S
C2117 C2118 1.373 . S
C2117 C2119 1.389 . S
C2118 H2091 0.950 . S
C2118 C2104 1.377 . S
C2118 C2117 1.373 . S
C2119 C2103 1.377 . S
C2119 C2117 1.389 . S
C2119 C2120 1.524 . S
C2120 C2119 1.524 . S
C2120 C2121 1.397 . S
C2120 C2125 1.363 . S
C2121 H2092 0.950 . S
C2121 C2120 1.397 . S
C2121 C2122 1.334 . S
C2122 H2093 0.950 . S
C2122 C2121 1.334 . S
C2122 C2123 1.287 . S
C2123 C2122 1.287 . S
C2123 C2124 1.524 . S
C2123 H2126 0.999 . S
C2124 H2094 0.950 . S
C2124 C2123 1.524 . S
C2124 C2125 1.415 . S
C2125 H2095 0.950 . S
C2125 C2120 1.363 . S
C2125 C2124 1.415 . S
H2126 C2123 0.999 . S
H2127 C2108 0.913 . S
H2128 C2146 0.951 . S
H2129 C2148 0.951 . S
H2130 C2150 0.950 . S
H2131 C2151 0.950 . S
H2132 C2153 0.950 . S
H2133 C2156 0.950 . S
H2134 C2157 0.950 . S
H2135 C2159 0.950 . S
H2136 C2160 0.950 . S
H2137 C2161 0.951 . S
H2138 C2163 0.951 . S
H2139 C2165 0.950 . S
H2140 C2166 0.950 . S
H2141 C2168 0.950 . S
H2142 C2171 0.950 . S
H2143 C2172 0.950 . S
H2144 C2174 0.950 . S
H2145 C2175 0.950 . S
C2146 H2128 0.951 . S
C2146 C2147 1.366 . S
C2146 C2148 1.388 . S
C2147 C2146 1.366 . S
C2147 C2151 1.385 . S
C2148 H2129 0.951 . S
C2148 C2146 1.388 . S
C2148 C2149 1.366 . S
C2149 C2148 1.366 . S
C2149 C2150 1.414 . S
C2149 C2152 1.499 . S
C2150 H2130 0.950 . S
C2150 C2149 1.414 . S
C2150 C2151 1.374 . S
C2151 H2131 0.950 . S
C2151 C2147 1.385 . S
C2151 C2150 1.374 . S
C2152 C2149 1.499 . S
C2152 C2153 1.373 . S
C2152 C2154 1.389 . S
C2153 H2132 0.950 . S
C2153 C2152 1.373 . S
C2153 C2169 1.377 . S
C2154 C2152 1.389 . S
C2154 C2155 1.524 . S
C2154 C2168 1.377 . S
C2155 C2154 1.524 . S
C2155 C2156 1.397 . S
C2155 C2160 1.363 . S
C2156 H2133 0.950 . S
C2156 C2155 1.397 . S
C2156 C2157 1.334 . S
C2157 H2134 0.950 . S
C2157 C2156 1.334 . S
C2157 C2158 1.287 . S
C2158 C2157 1.287 . S
C2158 C2159 1.524 . S
C2158 H2177 0.913 . S
C2159 H2135 0.950 . S
C2159 C2158 1.524 . S
C2159 C2160 1.415 . S
C2160 H2136 0.950 . S
C2160 C2155 1.363 . S
C2160 C2159 1.415 . S
C2161 H2137 0.951 . S
C2161 C2162 1.366 . S
C2161 C2163 1.388 . S
C2162 C2161 1.366 . S
C2162 C2166 1.385 . S
C2163 H2138 0.951 . S
C2163 C2161 1.388 . S
C2163 C2164 1.366 . S
C2164 C2163 1.366 . S
C2164 C2165 1.414 . S
C2164 C2167 1.499 . S
C2165 H2139 0.950 . S
C2165 C2164 1.414 . S
C2165 C2166 1.374 . S
C2166 H2140 0.950 . S
C2166 C2162 1.385 . S
C2166 C2165 1.374 . S
C2167 C2164 1.499 . S
C2167 C2168 1.373 . S
C2167 C2169 1.389 . S
C2168 H2141 0.950 . S
C2168 C2154 1.377 . S
C2168 C2167 1.373 . S
C2169 C2153 1.377 . S
C2169 C2167 1.389 . S
C2169 C2170 1.524 . S
C2170 C2169 1.524 . S
C2170 C2171 1.397 . S
C2170 C2175 1.363 . S
C2171 H2142 0.950 . S
C2171 C2170 1.397 . S
C2171 C2172 1.334 . S
C2172 H2143 0.950 . S
C2172 C2171 1.334 . S
C2172 C2173 1.287 . S
C2173 C2172 1.287 . S
C2173 C2174 1.524 . S
C2173 H2176 0.999 . S
C2174 H2144 0.950 . S
C2174 C2173 1.524 . S
C2174 C2175 1.415 . S
C2175 H2145 0.950 . S
C2175 C2170 1.363 . S
C2175 C2174 1.415 . S
H2176 C2173 0.999 . S
H2177 C2158 0.913 . S
H2178 C2196 0.951 . S
H2179 C2198 0.951 . S
H2180 C2200 0.950 . S
H2181 C2201 0.950 . S
H2182 C2203 0.950 . S
H2183 C2206 0.950 . S
H2184 C2207 0.950 . S
H2185 C2209 0.950 . S
H2186 C2210 0.950 . S
H2187 C2211 0.951 . S
H2188 C2213 0.951 . S
H2189 C2215 0.950 . S
H2190 C2216 0.950 . S
H2191 C2218 0.950 . S
H2192 C2221 0.950 . S
H2193 C2222 0.950 . S
H2194 C2224 0.950 . S
H2195 C2225 0.950 . S
C2196 H2178 0.951 . S
C2196 C2197 1.366 . S
C2196 C2198 1.388 . S
C2197 C2196 1.366 . S
C2197 C2201 1.385 . S
C2198 H2179 0.951 . S
C2198 C2196 1.388 . S
C2198 C2199 1.366 . S
C2199 C2198 1.366 . S
C2199 C2200 1.414 . S
C2199 C2202 1.499 . S
C2200 H2180 0.950 . S
C2200 C2199 1.414 . S
C2200 C2201 1.374 . S
C2201 H2181 0.950 . S
C2201 C2197 1.385 . S
C2201 C2200 1.374 . S
C2202 C2199 1.499 . S
C2202 C2203 1.373 . S
C2202 C2204 1.389 . S
C2203 H2182 0.950 . S
C2203 C2202 1.373 . S
C2203 C2219 1.377 . S
C2204 C2202 1.389 . S
C2204 C2205 1.524 . S
C2204 C2218 1.377 . S
C2205 C2204 1.524 . S
C2205 C2206 1.397 . S
C2205 C2210 1.363 . S
C2206 H2183 0.950 . S
C2206 C2205 1.397 . S
C2206 C2207 1.334 . S
C2207 H2184 0.950 . S
C2207 C2206 1.334 . S
C2207 C2208 1.287 . S
C2208 C2207 1.287 . S
C2208 C2209 1.524 . S
C2208 H2227 0.913 . S
C2209 H2185 0.950 . S
C2209 C2208 1.524 . S
C2209 C2210 1.415 . S
C2210 H2186 0.950 . S
C2210 C2205 1.363 . S
C2210 C2209 1.415 . S
C2211 H2187 0.951 . S
C2211 C2212 1.366 . S
C2211 C2213 1.388 . S
C2212 C2211 1.366 . S
C2212 C2216 1.385 . S
C2213 H2188 0.951 . S
C2213 C2211 1.388 . S
C2213 C2214 1.366 . S
C2214 C2213 1.366 . S
C2214 C2215 1.414 . S
C2214 C2217 1.499 . S
C2215 H2189 0.950 . S
C2215 C2214 1.414 . S
C2215 C2216 1.374 . S
C2216 H2190 0.950 . S
C2216 C2212 1.385 . S
C2216 C2215 1.374 . S
C2217 C2214 1.499 . S
C2217 C2218 1.373 . S
C2217 C2219 1.389 . S
C2218 H2191 0.950 . S
C2218 C2204 1.377 . S
C2218 C2217 1.373 . S
C2219 C2203 1.377 . S
C2219 C2217 1.389 . S
C2219 C2220 1.524 . S
C2220 C2219 1.524 . S
C2220 C2221 1.397 . S
C2220 C2225 1.363 . S
C2221 H2192 0.950 . S
C2221 C2220 1.397 . S
C2221 C2222 1.334 . S
C2222 H2193 0.950 . S
C2222 C2221 1.334 . S
C2222 C2223 1.287 . S
C2223 C2222 1.287 . S
C2223 C2224 1.524 . S
C2223 H2226 0.999 . S
C2224 H2194 0.950 . S
C2224 C2223 1.524 . S
C2224 C2225 1.415 . S
C2225 H2195 0.950 . S
C2225 C2220 1.363 . S
C2225 C2224 1.415 . S
H2226 C2223 0.999 . S
H2227 C2208 0.913 . S
H2228 C2246 0.951 . S
H2229 C2248 0.951 . S
H2230 C2250 0.950 . S
H2231 C2251 0.913 1_565 S
H2232 C2253 0.950 . S
H2233 C2256 0.950 . S
H2234 C2257 0.950 . S
H2235 C2259 0.950 . S
H2236 C2260 0.950 . S
H2237 C2261 0.951 . S
H2238 C2263 0.951 . S
H2239 C2265 0.950 . S
H2240 C2266 0.950 . S
H2241 C2268 0.950 . S
H2242 C2271 0.950 . S
H2243 C2272 0.950 . S
H2244 C2274 0.950 . S
H2245 C2275 0.950 . S
C2246 H2228 0.951 . S
C2246 C2247 1.366 . S
C2246 C2248 1.388 . S
C2247 C2246 1.366 . S
C2247 C2251 1.385 . S
C2248 H2229 0.951 . S
C2248 C2246 1.388 . S
C2248 C2249 1.366 . S
C2249 C2248 1.366 . S
C2249 C2250 1.414 . S
C2249 C2252 1.499 . S
C2250 H2230 0.950 . S
C2250 C2249 1.414 . S
C2250 C2251 1.374 . S
C2251 H2231 0.913 1_545 S
C2251 C2247 1.385 . S
C2251 C2250 1.374 . S
C2252 C2249 1.499 . S
C2252 C2253 1.373 . S
C2252 C2254 1.389 . S
C2253 H2232 0.950 . S
C2253 C2252 1.373 . S
C2253 C2269 1.377 . S
C2254 C2252 1.389 . S
C2254 C2255 1.524 . S
C2254 C2268 1.377 . S
C2255 C2254 1.524 . S
C2255 C2256 1.397 . S
C2255 C2260 1.363 . S
C2256 H2233 0.950 . S
C2256 C2255 1.397 . S
C2256 C2257 1.334 . S
C2257 H2234 0.950 . S
C2257 C2256 1.334 . S
C2257 C2258 1.287 . S
C2258 C2257 1.287 . S
C2258 C2259 1.524 . S
C2258 H2277 0.913 . S
C2259 H2235 0.950 . S
C2259 C2258 1.524 . S
C2259 C2260 1.415 . S
C2260 H2236 0.950 . S
C2260 C2255 1.363 . S
C2260 C2259 1.415 . S
C2261 H2237 0.951 . S
C2261 C2262 1.366 . S
C2261 C2263 1.388 . S
C2262 C2261 1.366 . S
C2262 C2266 1.385 . S
C2263 H2238 0.951 . S
C2263 C2261 1.388 . S
C2263 C2264 1.366 . S
C2264 C2263 1.366 . S
C2264 C2265 1.414 . S
C2264 C2267 1.499 . S
C2265 H2239 0.950 . S
C2265 C2264 1.414 . S
C2265 C2266 1.374 . S
C2266 H2240 0.950 . S
C2266 C2262 1.385 . S
C2266 C2265 1.374 . S
C2267 C2264 1.499 . S
C2267 C2268 1.373 . S
C2267 C2269 1.389 . S
C2268 H2241 0.950 . S
C2268 C2254 1.377 . S
C2268 C2267 1.373 . S
C2269 C2253 1.377 . S
C2269 C2267 1.389 . S
C2269 C2270 1.524 . S
C2270 C2269 1.524 . S
C2270 C2271 1.397 . S
C2270 C2275 1.363 . S
C2271 H2242 0.950 . S
C2271 C2270 1.397 . S
C2271 C2272 1.334 . S
C2272 H2243 0.950 . S
C2272 C2271 1.334 . S
C2272 C2273 1.287 . S
C2273 C2272 1.287 . S
C2273 C2274 1.524 . S
C2273 H2276 0.999 . S
C2274 H2244 0.950 . S
C2274 C2273 1.524 . S
C2274 C2275 1.415 . S
C2275 H2245 0.950 . S
C2275 C2270 1.363 . S
C2275 C2274 1.415 . S
H2276 C2273 0.999 . S
H2277 C2258 0.913 . S
H2278 C2296 0.951 . S
H2279 C2298 0.951 . S
H2280 C2300 0.950 . S
H2281 C2301 0.950 . S
H2282 C2303 0.950 . S
H2283 C2306 0.950 . S
H2284 C2307 0.950 . S
H2285 C2309 0.950 . S
H2286 C2310 0.950 . S
H2287 C2311 0.951 . S
H2288 C2313 0.951 . S
H2289 C2315 0.950 . S
H2290 C2316 0.950 . S
H2291 C2318 0.950 . S
H2292 C2321 0.950 . S
H2293 C2322 0.950 . S
H2294 C2324 0.950 . S
H2295 C2325 0.950 . S
C2296 H2278 0.951 . S
C2296 C2297 1.366 . S
C2296 C2298 1.388 . S
C2297 C2296 1.366 . S
C2297 C2301 1.385 . S
C2298 H2279 0.951 . S
C2298 C2296 1.388 . S
C2298 C2299 1.366 . S
C2299 C2298 1.366 . S
C2299 C2300 1.414 . S
C2299 C2302 1.499 . S
C2300 H2280 0.950 . S
C2300 C2299 1.414 . S
C2300 C2301 1.374 . S
C2301 H2281 0.950 . S
C2301 C2297 1.385 . S
C2301 C2300 1.374 . S
C2302 C2299 1.499 . S
C2302 C2303 1.373 . S
C2302 C2304 1.389 . S
C2303 H2282 0.950 . S
C2303 C2302 1.373 . S
C2303 C2319 1.377 . S
C2304 C2302 1.389 . S
C2304 C2305 1.524 . S
C2304 C2318 1.377 . S
C2305 C2304 1.524 . S
C2305 C2306 1.397 . S
C2305 C2310 1.363 . S
C2306 H2283 0.950 . S
C2306 C2305 1.397 . S
C2306 C2307 1.334 . S
C2307 H2284 0.950 . S
C2307 C2306 1.334 . S
C2307 C2308 1.287 . S
C2308 C2307 1.287 . S
C2308 C2309 1.524 . S
C2308 H2327 0.913 . S
C2309 H2285 0.950 . S
C2309 C2308 1.524 . S
C2309 C2310 1.415 . S
C2310 H2286 0.950 . S
C2310 C2305 1.363 . S
C2310 C2309 1.415 . S
C2311 H2287 0.951 . S
C2311 C2312 1.366 . S
C2311 C2313 1.388 . S
C2312 C2311 1.366 . S
C2312 C2316 1.385 . S
C2313 H2288 0.951 . S
C2313 C2311 1.388 . S
C2313 C2314 1.366 . S
C2314 C2313 1.366 . S
C2314 C2315 1.414 . S
C2314 C2317 1.499 . S
C2315 H2289 0.950 . S
C2315 C2314 1.414 . S
C2315 C2316 1.374 . S
C2316 H2290 0.950 . S
C2316 C2312 1.385 . S
C2316 C2315 1.374 . S
C2317 C2314 1.499 . S
C2317 C2318 1.373 . S
C2317 C2319 1.389 . S
C2318 H2291 0.950 . S
C2318 C2304 1.377 . S
C2318 C2317 1.373 . S
C2319 C2303 1.377 . S
C2319 C2317 1.389 . S
C2319 C2320 1.524 . S
C2320 C2319 1.524 . S
C2320 C2321 1.397 . S
C2320 C2325 1.363 . S
C2321 H2292 0.950 . S
C2321 C2320 1.397 . S
C2321 C2322 1.334 . S
C2322 H2293 0.950 . S
C2322 C2321 1.334 . S
C2322 C2323 1.287 . S
C2323 C2322 1.287 . S
C2323 C2324 1.524 . S
C2323 H2326 0.999 . S
C2324 H2294 0.950 . S
C2324 C2323 1.524 . S
C2324 C2325 1.415 . S
C2325 H2295 0.950 . S
C2325 C2320 1.363 . S
C2325 C2324 1.415 . S
H2326 C2323 0.999 . S
H2327 C2308 0.913 . S
H2328 C2346 0.951 . S
H2329 C2348 0.951 . S
H2330 C2350 0.950 . S
H2331 C2351 0.950 . S
H2332 C2353 0.950 . S
H2333 C2356 0.950 . S
H2334 C2357 0.950 . S
H2335 C2359 0.950 . S
H2336 C2360 0.950 . S
H2337 C2361 0.951 . S
H2338 C2363 0.951 . S
H2339 C2365 0.950 . S
H2340 C2366 0.950 . S
H2341 C2368 0.950 . S
H2342 C2371 0.950 . S
H2343 C2372 0.950 . S
H2344 C2374 0.950 . S
H2345 C2375 0.950 . S
C2346 H2328 0.951 . S
C2346 C2347 1.366 . S
C2346 C2348 1.388 . S
C2347 C2346 1.366 . S
C2347 C2351 1.385 . S
C2348 H2329 0.951 . S
C2348 C2346 1.388 . S
C2348 C2349 1.366 . S
C2349 C2348 1.366 . S
C2349 C2350 1.414 . S
C2349 C2352 1.499 . S
C2350 H2330 0.950 . S
C2350 C2349 1.414 . S
C2350 C2351 1.374 . S
C2351 H2331 0.950 . S
C2351 C2347 1.385 . S
C2351 C2350 1.374 . S
C2352 C2349 1.499 . S
C2352 C2353 1.373 . S
C2352 C2354 1.389 . S
C2353 H2332 0.950 . S
C2353 C2352 1.373 . S
C2353 C2369 1.377 . S
C2354 C2352 1.389 . S
C2354 C2355 1.524 . S
C2354 C2368 1.377 . S
C2355 C2354 1.524 . S
C2355 C2356 1.397 . S
C2355 C2360 1.363 . S
C2356 H2333 0.950 . S
C2356 C2355 1.397 . S
C2356 C2357 1.334 . S
C2357 H2334 0.950 . S
C2357 C2356 1.334 . S
C2357 C2358 1.287 . S
C2358 C2357 1.287 . S
C2358 C2359 1.524 . S
C2358 H2377 0.913 . S
C2359 H2335 0.950 . S
C2359 C2358 1.524 . S
C2359 C2360 1.415 . S
C2360 H2336 0.950 . S
C2360 C2355 1.363 . S
C2360 C2359 1.415 . S
C2361 H2337 0.951 . S
C2361 C2362 1.366 . S
C2361 C2363 1.388 . S
C2362 C2361 1.366 . S
C2362 C2366 1.385 . S
C2363 H2338 0.951 . S
C2363 C2361 1.388 . S
C2363 C2364 1.366 . S
C2364 C2363 1.366 . S
C2364 C2365 1.414 . S
C2364 C2367 1.499 . S
C2365 H2339 0.950 . S
C2365 C2364 1.414 . S
C2365 C2366 1.374 . S
C2366 H2340 0.950 . S
C2366 C2362 1.385 . S
C2366 C2365 1.374 . S
C2367 C2364 1.499 . S
C2367 C2368 1.373 . S
C2367 C2369 1.389 . S
C2368 H2341 0.950 . S
C2368 C2354 1.377 . S
C2368 C2367 1.373 . S
C2369 C2353 1.377 . S
C2369 C2367 1.389 . S
C2369 C2370 1.524 . S
C2370 C2369 1.524 . S
C2370 C2371 1.397 . S
C2370 C2375 1.363 . S
C2371 H2342 0.950 . S
C2371 C2370 1.397 . S
C2371 C2372 1.334 . S
C2372 H2343 0.950 . S
C2372 C2371 1.334 . S
C2372 C2373 1.287 . S
C2373 C2372 1.287 . S
C2373 C2374 1.524 . S
C2373 H2376 0.999 . S
C2374 H2344 0.950 . S
C2374 C2373 1.524 . S
C2374 C2375 1.415 . S
C2375 H2345 0.950 . S
C2375 C2370 1.363 . S
C2375 C2374 1.415 . S
H2376 C2373 0.999 . S
H2377 C2358 0.913 . S
H2378 C2396 0.951 . S
H2379 C2398 0.951 . S
H2380 C2400 0.950 . S
H2381 C2401 0.950 . S
H2382 C2403 0.950 . S
H2383 C2406 0.950 . S
H2384 C2407 0.950 . S
H2385 C2409 0.950 . S
H2386 C2410 0.950 . S
H2387 C2411 0.994 . S
H2388 C2413 0.919 1_565 S
H2389 C2415 0.950 . S
H2390 C2416 0.950 . S
H2391 C2418 0.950 . S
H2392 C2421 0.950 . S
H2393 C2422 0.950 . S
H2394 C2424 0.950 . S
H2395 C2425 0.950 . S
C2396 H2378 0.951 . S
C2396 C2397 1.366 . S
C2396 C2398 1.388 . S
C2397 C2396 1.366 . S
C2397 C2401 1.385 . S
C2398 H2379 0.951 . S
C2398 C2396 1.388 . S
C2398 C2399 1.366 . S
C2399 C2398 1.366 . S
C2399 C2400 1.414 . S
C2399 C2402 1.499 . S
C2400 H2380 0.950 . S
C2400 C2399 1.414 . S
C2400 C2401 1.374 . S
C2401 H2381 0.950 . S
C2401 C2397 1.385 . S
C2401 C2400 1.374 . S
C2402 C2399 1.499 . S
C2402 C2403 1.373 . S
C2402 C2404 1.389 . S
C2403 H2382 0.950 . S
C2403 C2402 1.373 . S
C2403 C2419 1.377 . S
C2404 C2402 1.389 . S
C2404 C2405 1.524 . S
C2404 C2418 1.377 . S
C2405 C2404 1.524 . S
C2405 C2406 1.397 1_545 S
C2405 C2410 1.363 . S
C2406 H2383 0.950 . S
C2406 C2405 1.397 1_565 S
C2406 C2407 1.334 . S
C2407 H2384 0.950 . S
C2407 C2406 1.334 . S
C2407 C2408 1.287 . S
C2408 C2407 1.287 . S
C2408 C2409 1.524 1_565 S
C2408 H2427 0.913 . S
C2409 H2385 0.950 . S
C2409 C2408 1.524 1_545 S
C2409 C2410 1.415 . S
C2410 H2386 0.950 . S
C2410 C2405 1.363 . S
C2410 C2409 1.415 . S
C2411 H2387 0.994 . S
C2411 C2412 1.336 1_565 S
C2411 C2413 1.374 1_565 S
C2412 C2411 1.336 1_545 S
C2412 C2416 1.385 . S
C2413 H2388 0.919 1_545 S
C2413 C2411 1.374 1_545 S
C2413 C2414 1.412 . S
C2414 C2413 1.412 . S
C2414 C2415 1.414 . S
C2414 C2417 1.499 . S
C2415 H2389 0.950 . S
C2415 C2414 1.414 . S
C2415 C2416 1.374 . S
C2416 H2390 0.950 . S
C2416 C2412 1.385 . S
C2416 C2415 1.374 . S
C2417 C2414 1.499 . S
C2417 C2418 1.373 . S
C2417 C2419 1.389 . S
C2418 H2391 0.950 . S
C2418 C2404 1.377 . S
C2418 C2417 1.373 . S
C2419 C2403 1.377 . S
C2419 C2417 1.389 . S
C2419 C2420 1.524 . S
C2420 C2419 1.524 . S
C2420 C2421 1.397 . S
C2420 C2425 1.363 . S
C2421 H2392 0.950 . S
C2421 C2420 1.397 . S
C2421 C2422 1.334 . S
C2422 H2393 0.950 . S
C2422 C2421 1.334 . S
C2422 C2423 1.287 . S
C2423 C2422 1.287 . S
C2423 C2424 1.524 . S
C2423 H2426 0.999 . S
C2424 H2394 0.950 . S
C2424 C2423 1.524 . S
C2424 C2425 1.415 . S
C2425 H2395 0.950 . S
C2425 C2420 1.363 . S
C2425 C2424 1.415 . S
H2426 C2423 0.999 . S
H2427 C2408 0.913 . S
H2428 C2446 0.951 . S
H2429 C2448 0.951 . S
H2430 C2450 0.950 . S
H2431 C2451 0.950 . S
H2432 C2453 0.950 . S
H2433 C2456 0.950 . S
H2434 C2457 0.950 . S
H2435 C2459 0.950 . S
H2436 C2460 0.950 . S
H2437 C2461 0.951 . S
H2438 C2463 0.951 . S
H2439 C2465 0.950 . S
H2440 C2466 0.950 . S
H2441 C2468 0.950 . S
H2442 C2471 0.950 . S
H2443 C2472 0.950 . S
H2444 C2474 0.950 . S
H2445 C2475 0.950 . S
C2446 H2428 0.951 . S
C2446 C2447 1.366 . S
C2446 C2448 1.388 . S
C2447 C2446 1.366 . S
C2447 C2451 1.385 . S
C2448 H2429 0.951 . S
C2448 C2446 1.388 . S
C2448 C2449 1.366 . S
C2449 C2448 1.366 . S
C2449 C2450 1.414 . S
C2449 C2452 1.499 . S
C2450 H2430 0.950 . S
C2450 C2449 1.414 . S
C2450 C2451 1.374 . S
C2451 H2431 0.950 . S
C2451 C2447 1.385 . S
C2451 C2450 1.374 . S
C2452 C2449 1.499 . S
C2452 C2453 1.373 . S
C2452 C2454 1.389 . S
C2453 H2432 0.950 . S
C2453 C2452 1.373 . S
C2453 C2469 1.377 . S
C2454 C2452 1.389 . S
C2454 C2455 1.524 . S
C2454 C2468 1.377 . S
C2455 C2454 1.524 . S
C2455 C2456 1.397 . S
C2455 C2460 1.363 . S
C2456 H2433 0.950 . S
C2456 C2455 1.397 . S
C2456 C2457 1.334 . S
C2457 H2434 0.950 . S
C2457 C2456 1.334 . S
C2457 C2458 1.287 . S
C2458 C2457 1.287 . S
C2458 C2459 1.524 . S
C2458 H2477 0.913 . S
C2459 H2435 0.950 . S
C2459 C2458 1.524 . S
C2459 C2460 1.415 . S
C2460 H2436 0.950 . S
C2460 C2455 1.363 . S
C2460 C2459 1.415 . S
C2461 H2437 0.951 . S
C2461 C2462 1.366 . S
C2461 C2463 1.388 . S
C2462 C2461 1.366 . S
C2462 C2466 1.385 . S
C2463 H2438 0.951 . S
C2463 C2461 1.388 . S
C2463 C2464 1.366 . S
C2464 C2463 1.366 . S
C2464 C2465 1.414 . S
C2464 C2467 1.499 . S
C2465 H2439 0.950 . S
C2465 C2464 1.414 . S
C2465 C2466 1.374 . S
C2466 H2440 0.950 . S
C2466 C2462 1.385 . S
C2466 C2465 1.374 . S
C2467 C2464 1.499 . S
C2467 C2468 1.373 . S
C2467 C2469 1.389 . S
C2468 H2441 0.950 . S
C2468 C2454 1.377 . S
C2468 C2467 1.373 . S
C2469 C2453 1.377 . S
C2469 C2467 1.389 . S
C2469 C2470 1.524 . S
C2470 C2469 1.524 . S
C2470 C2471 1.397 . S
C2470 C2475 1.363 . S
C2471 H2442 0.950 . S
C2471 C2470 1.397 . S
C2471 C2472 1.334 . S
C2472 H2443 0.950 . S
C2472 C2471 1.334 . S
C2472 C2473 1.287 . S
C2473 C2472 1.287 . S
C2473 C2474 1.524 . S
C2473 H2476 0.999 . S
C2474 H2444 0.950 . S
C2474 C2473 1.524 . S
C2474 C2475 1.415 . S
C2475 H2445 0.950 . S
C2475 C2470 1.363 . S
C2475 C2474 1.415 . S
H2476 C2473 0.999 . S
H2477 C2458 0.913 . S
H2478 C2496 0.951 . S
H2479 C2498 0.951 . S
H2480 C2500 0.950 . S
H2481 C2501 0.950 . S
H2482 C2503 0.950 . S
H2483 C2506 0.950 . S
H2484 C2507 0.950 . S
H2485 C2509 0.950 . S
H2486 C2510 0.950 . S
H2487 C2511 0.951 . S
H2488 C2513 0.951 . S
H2489 C2515 0.950 . S
H2490 C2516 0.950 . S
H2491 C2518 0.950 . S
H2492 C2521 0.950 . S
H2493 C2522 0.950 . S
H2494 C2524 0.950 . S
H2495 C2525 0.950 . S
C2496 H2478 0.951 . S
C2496 C2497 1.366 . S
C2496 C2498 1.388 . S
C2497 C2496 1.366 . S
C2497 C2501 1.385 . S
C2498 H2479 0.951 . S
C2498 C2496 1.388 . S
C2498 C2499 1.366 . S
C2499 C2498 1.366 . S
C2499 C2500 1.414 . S
C2499 C2502 1.499 . S
C2500 H2480 0.950 . S
C2500 C2499 1.414 . S
C2500 C2501 1.374 . S
C2501 H2481 0.950 . S
C2501 C2497 1.385 . S
C2501 C2500 1.374 . S
C2502 C2499 1.499 . S
C2502 C2503 1.373 . S
C2502 C2504 1.389 . S
C2503 H2482 0.950 . S
C2503 C2502 1.373 . S
C2503 C2519 1.377 . S
C2504 C2502 1.389 . S
C2504 C2505 1.524 . S
C2504 C2518 1.377 . S
C2505 C2504 1.524 . S
C2505 C2506 1.397 . S
C2505 C2510 1.363 . S
C2506 H2483 0.950 . S
C2506 C2505 1.397 . S
C2506 C2507 1.334 . S
C2507 H2484 0.950 . S
C2507 C2506 1.334 . S
C2507 C2508 1.287 . S
C2508 C2507 1.287 . S
C2508 C2509 1.524 . S
C2508 H2527 0.913 . S
C2509 H2485 0.950 . S
C2509 C2508 1.524 . S
C2509 C2510 1.415 . S
C2510 H2486 0.950 . S
C2510 C2505 1.363 . S
C2510 C2509 1.415 . S
C2511 H2487 0.951 . S
C2511 C2512 1.366 . S
C2511 C2513 1.388 . S
C2512 C2511 1.366 . S
C2512 C2516 1.385 . S
C2513 H2488 0.951 . S
C2513 C2511 1.388 . S
C2513 C2514 1.366 . S
C2514 C2513 1.366 . S
C2514 C2515 1.414 . S
C2514 C2517 1.499 . S
C2515 H2489 0.950 . S
C2515 C2514 1.414 . S
C2515 C2516 1.374 . S
C2516 H2490 0.950 . S
C2516 C2512 1.385 . S
C2516 C2515 1.374 . S
C2517 C2514 1.499 . S
C2517 C2518 1.373 . S
C2517 C2519 1.389 . S
C2518 H2491 0.950 . S
C2518 C2504 1.377 . S
C2518 C2517 1.373 . S
C2519 C2503 1.377 . S
C2519 C2517 1.389 . S
C2519 C2520 1.524 . S
C2520 C2519 1.524 . S
C2520 C2521 1.397 . S
C2520 C2525 1.363 . S
C2521 H2492 0.950 . S
C2521 C2520 1.397 . S
C2521 C2522 1.334 . S
C2522 H2493 0.950 . S
C2522 C2521 1.334 . S
C2522 C2523 1.287 . S
C2523 C2522 1.287 . S
C2523 C2524 1.524 . S
C2523 H2526 0.999 . S
C2524 H2494 0.950 . S
C2524 C2523 1.524 . S
C2524 C2525 1.415 . S
C2525 H2495 0.950 . S
C2525 C2520 1.363 . S
C2525 C2524 1.415 . S
H2526 C2523 0.999 . S
H2527 C2508 0.913 . S
H2528 C2546 0.951 . S
H2529 C2548 0.951 . S
H2530 C2550 0.950 . S
H2531 C2551 0.950 . S
H2532 C2553 0.950 . S
H2533 C2556 0.950 . S
H2534 C2557 0.950 . S
H2535 C2559 0.950 . S
H2536 C2560 0.950 . S
H2537 C2561 0.951 . S
H2538 C2563 0.951 . S
H2539 C2565 0.950 . S
H2540 C2566 0.950 . S
H2541 C2568 0.950 . S
H2542 C2571 0.950 . S
H2543 C2572 0.950 . S
H2544 C2574 0.950 . S
H2545 C2575 0.950 . S
C2546 H2528 0.951 . S
C2546 C2547 1.366 . S
C2546 C2548 1.388 . S
C2547 C2546 1.366 . S
C2547 C2551 1.385 . S
C2548 H2529 0.951 . S
C2548 C2546 1.388 . S
C2548 C2549 1.366 . S
C2549 C2548 1.366 . S
C2549 C2550 1.414 . S
C2549 C2552 1.499 . S
C2550 H2530 0.950 . S
C2550 C2549 1.414 . S
C2550 C2551 1.374 . S
C2551 H2531 0.950 . S
C2551 C2547 1.385 . S
C2551 C2550 1.374 . S
C2552 C2549 1.499 . S
C2552 C2553 1.373 . S
C2552 C2554 1.389 . S
C2553 H2532 0.950 . S
C2553 C2552 1.373 . S
C2553 C2569 1.377 . S
C2554 C2552 1.389 . S
C2554 C2555 1.524 . S
C2554 C2568 1.377 . S
C2555 C2554 1.524 . S
C2555 C2556 1.397 . S
C2555 C2560 1.363 . S
C2556 H2533 0.950 . S
C2556 C2555 1.397 . S
C2556 C2557 1.334 . S
C2557 H2534 0.950 . S
C2557 C2556 1.334 . S
C2557 C2558 1.287 . S
C2558 C2557 1.287 . S
C2558 C2559 1.524 . S
C2558 H2577 0.913 . S
C2559 H2535 0.950 . S
C2559 C2558 1.524 . S
C2559 C2560 1.415 . S
C2560 H2536 0.950 . S
C2560 C2555 1.363 . S
C2560 C2559 1.415 . S
C2561 H2537 0.951 . S
C2561 C2562 1.366 . S
C2561 C2563 1.388 . S
C2562 C2561 1.366 . S
C2562 C2566 1.385 . S
C2563 H2538 0.951 . S
C2563 C2561 1.388 . S
C2563 C2564 1.366 . S
C2564 C2563 1.366 . S
C2564 C2565 1.414 . S
C2564 C2567 1.499 . S
C2565 H2539 0.950 . S
C2565 C2564 1.414 . S
C2565 C2566 1.374 . S
C2566 H2540 0.950 . S
C2566 C2562 1.385 . S
C2566 C2565 1.374 . S
C2567 C2564 1.499 . S
C2567 C2568 1.373 . S
C2567 C2569 1.389 . S
C2568 H2541 0.950 . S
C2568 C2554 1.377 . S
C2568 C2567 1.373 . S
C2569 C2553 1.377 . S
C2569 C2567 1.389 . S
C2569 C2570 1.524 . S
C2570 C2569 1.524 . S
C2570 C2571 1.397 . S
C2570 C2575 1.363 . S
C2571 H2542 0.950 . S
C2571 C2570 1.397 . S
C2571 C2572 1.334 . S
C2572 H2543 0.950 . S
C2572 C2571 1.334 . S
C2572 C2573 1.287 . S
C2573 C2572 1.287 . S
C2573 C2574 1.524 . S
C2573 H2576 0.999 . S
C2574 H2544 0.950 . S
C2574 C2573 1.524 . S
C2574 C2575 1.415 . S
C2575 H2545 0.950 . S
C2575 C2570 1.363 . S
C2575 C2574 1.415 . S
H2576 C2573 0.999 . S
H2577 C2558 0.913 . S
H2578 C2596 0.951 . S
H2579 C2598 0.951 . S
H2580 C2600 0.950 . S
H2581 C2601 0.950 . S
H2582 C2603 0.950 . S
H2583 C2606 0.950 . S
H2584 C2607 0.950 . S
H2585 C2609 0.950 . S
H2586 C2610 0.950 . S
H2587 C2611 0.951 . S
H2588 C2613 0.951 . S
H2589 C2615 0.950 1_565 S
H2590 C2616 0.950 1_565 S
H2591 C2618 0.950 . S
H2592 C2621 0.950 . S
H2593 C2622 0.950 . S
H2594 C2624 0.950 . S
H2595 C2625 0.950 . S
C2596 H2578 0.951 . S
C2596 C2597 1.366 . S
C2596 C2598 1.388 . S
C2597 C2596 1.366 . S
C2597 C2601 1.385 . S
C2598 H2579 0.951 . S
C2598 C2596 1.388 . S
C2598 C2599 1.366 . S
C2599 C2598 1.366 . S
C2599 C2600 1.414 . S
C2599 C2602 1.499 . S
C2600 H2580 0.950 . S
C2600 C2599 1.414 . S
C2600 C2601 1.374 . S
C2601 H2581 0.950 . S
C2601 C2597 1.385 . S
C2601 C2600 1.374 . S
C2602 C2599 1.499 . S
C2602 C2603 1.373 . S
C2602 C2604 1.389 . S
C2603 H2582 0.950 . S
C2603 C2602 1.373 . S
C2603 C2619 1.377 . S
C2604 C2602 1.389 . S
C2604 C2605 1.524 . S
C2604 C2618 1.377 . S
C2605 C2604 1.524 . S
C2605 C2606 1.397 . S
C2605 C2610 1.363 1_545 S
C2606 H2583 0.950 . S
C2606 C2605 1.397 . S
C2606 C2607 1.334 . S
C2607 H2584 0.950 . S
C2607 C2606 1.334 . S
C2607 C2608 1.287 1_545 S
C2608 C2607 1.287 1_565 S
C2608 C2609 1.524 . S
C2608 H2627 0.913 . S
C2609 H2585 0.950 . S
C2609 C2608 1.524 . S
C2609 C2610 1.415 . S
C2610 H2586 0.950 . S
C2610 C2605 1.363 1_565 S
C2610 C2609 1.415 . S
C2611 H2587 0.951 . S
C2611 C2612 1.366 . S
C2611 C2613 1.388 . S
C2612 C2611 1.366 . S
C2612 C2616 1.385 . S
C2613 H2588 0.951 . S
C2613 C2611 1.388 . S
C2613 C2614 1.366 . S
C2614 C2613 1.366 . S
C2614 C2615 1.414 . S
C2614 C2617 1.499 . S
C2615 H2589 0.950 1_545 S
C2615 C2614 1.414 . S
C2615 C2616 1.374 . S
C2616 H2590 0.950 1_545 S
C2616 C2612 1.385 . S
C2616 C2615 1.374 . S
C2617 C2614 1.499 . S
C2617 C2618 1.373 . S
C2617 C2619 1.389 . S
C2618 H2591 0.950 . S
C2618 C2604 1.377 . S
C2618 C2617 1.373 . S
C2619 C2603 1.377 . S
C2619 C2617 1.389 . S
C2619 C2620 1.524 . S
C2620 C2619 1.524 . S
C2620 C2621 1.397 . S
C2620 C2625 1.363 . S
C2621 H2592 0.950 . S
C2621 C2620 1.397 . S
C2621 C2622 1.334 . S
C2622 H2593 0.950 . S
C2622 C2621 1.334 . S
C2622 C2623 1.287 . S
C2623 C2622 1.287 . S
C2623 C2624 1.524 . S
C2623 H2626 0.999 . S
C2624 H2594 0.950 . S
C2624 C2623 1.524 . S
C2624 C2625 1.415 . S
C2625 H2595 0.950 . S
C2625 C2620 1.363 . S
C2625 C2624 1.415 . S
H2626 C2623 0.999 . S
H2627 C2608 0.913 . S
H2628 C2646 0.951 . S
H2629 C2648 0.951 . S
H2630 C2650 0.950 . S
H2631 C2651 0.950 . S
H2632 C2653 0.950 . S
H2633 C2656 0.950 . S
H2634 C2657 0.950 . S
H2635 C2659 0.950 . S
H2636 C2660 0.950 . S
H2637 C2661 0.951 . S
H2638 C2663 0.951 . S
H2639 C2665 0.950 . S
H2640 C2666 0.950 . S
H2641 C2668 0.950 . S
H2642 C2671 0.950 . S
H2643 C2672 0.950 . S
H2644 C2674 0.950 . S
H2645 C2675 0.950 . S
C2646 H2628 0.951 . S
C2646 C2647 1.366 . S
C2646 C2648 1.388 . S
C2647 C2646 1.366 . S
C2647 C2651 1.385 . S
C2648 H2629 0.951 . S
C2648 C2646 1.388 . S
C2648 C2649 1.366 . S
C2649 C2648 1.366 . S
C2649 C2650 1.414 . S
C2649 C2652 1.499 . S
C2650 H2630 0.950 . S
C2650 C2649 1.414 . S
C2650 C2651 1.374 . S
C2651 H2631 0.950 . S
C2651 C2647 1.385 . S
C2651 C2650 1.374 . S
C2652 C2649 1.499 . S
C2652 C2653 1.373 . S
C2652 C2654 1.389 . S
C2653 H2632 0.950 . S
C2653 C2652 1.373 . S
C2653 C2669 1.377 . S
C2654 C2652 1.389 . S
C2654 C2655 1.524 . S
C2654 C2668 1.377 . S
C2655 C2654 1.524 . S
C2655 C2656 1.397 . S
C2655 C2660 1.363 . S
C2656 H2633 0.950 . S
C2656 C2655 1.397 . S
C2656 C2657 1.334 . S
C2657 H2634 0.950 . S
C2657 C2656 1.334 . S
C2657 C2658 1.287 . S
C2658 C2657 1.287 . S
C2658 C2659 1.524 . S
C2658 H2677 0.913 . S
C2659 H2635 0.950 . S
C2659 C2658 1.524 . S
C2659 C2660 1.415 . S
C2660 H2636 0.950 . S
C2660 C2655 1.363 . S
C2660 C2659 1.415 . S
C2661 H2637 0.951 . S
C2661 C2662 1.366 . S
C2661 C2663 1.388 . S
C2662 C2661 1.366 . S
C2662 C2666 1.385 . S
C2663 H2638 0.951 . S
C2663 C2661 1.388 . S
C2663 C2664 1.366 . S
C2664 C2663 1.366 . S
C2664 C2665 1.414 . S
C2664 C2667 1.499 . S
C2665 H2639 0.950 . S
C2665 C2664 1.414 . S
C2665 C2666 1.374 . S
C2666 H2640 0.950 . S
C2666 C2662 1.385 . S
C2666 C2665 1.374 . S
C2667 C2664 1.499 . S
C2667 C2668 1.373 . S
C2667 C2669 1.389 . S
C2668 H2641 0.950 . S
C2668 C2654 1.377 . S
C2668 C2667 1.373 . S
C2669 C2653 1.377 . S
C2669 C2667 1.389 . S
C2669 C2670 1.524 . S
C2670 C2669 1.524 . S
C2670 C2671 1.397 . S
C2670 C2675 1.363 . S
C2671 H2642 0.950 . S
C2671 C2670 1.397 . S
C2671 C2672 1.334 . S
C2672 H2643 0.950 . S
C2672 C2671 1.334 . S
C2672 C2673 1.287 . S
C2673 C2672 1.287 . S
C2673 C2674 1.524 . S
C2673 H2676 0.999 . S
C2674 H2644 0.950 . S
C2674 C2673 1.524 . S
C2674 C2675 1.415 . S
C2675 H2645 0.950 . S
C2675 C2670 1.363 . S
C2675 C2674 1.415 . S
H2676 C2673 0.999 . S
H2677 C2658 0.913 . S
H2678 C2696 0.951 . S
H2679 C2698 0.951 . S
H2680 C2700 0.950 . S
H2681 C2701 0.950 . S
H2682 C2703 0.950 . S
H2683 C2706 0.950 . S
H2684 C2707 0.950 . S
H2685 C2709 0.950 . S
H2686 C2710 0.950 . S
H2687 C2711 0.951 . S
H2688 C2713 0.951 . S
H2689 C2715 0.950 . S
H2690 C2716 0.950 . S
H2691 C2718 0.950 . S
H2692 C2721 0.950 . S
H2693 C2722 0.950 . S
H2694 C2724 0.950 . S
H2695 C2725 0.950 . S
C2696 H2678 0.951 . S
C2696 C2697 1.366 . S
C2696 C2698 1.388 . S
C2697 C2696 1.366 . S
C2697 C2701 1.385 . S
C2698 H2679 0.951 . S
C2698 C2696 1.388 . S
C2698 C2699 1.366 . S
C2699 C2698 1.366 . S
C2699 C2700 1.414 . S
C2699 C2702 1.499 . S
C2700 H2680 0.950 . S
C2700 C2699 1.414 . S
C2700 C2701 1.374 . S
C2701 H2681 0.950 . S
C2701 C2697 1.385 . S
C2701 C2700 1.374 . S
C2702 C2699 1.499 . S
C2702 C2703 1.373 . S
C2702 C2704 1.389 . S
C2703 H2682 0.950 . S
C2703 C2702 1.373 . S
C2703 C2719 1.377 . S
C2704 C2702 1.389 . S
C2704 C2705 1.524 . S
C2704 C2718 1.377 . S
C2705 C2704 1.524 . S
C2705 C2706 1.397 . S
C2705 C2710 1.363 . S
C2706 H2683 0.950 . S
C2706 C2705 1.397 . S
C2706 C2707 1.334 . S
C2707 H2684 0.950 . S
C2707 C2706 1.334 . S
C2707 C2708 1.287 . S
C2708 C2707 1.287 . S
C2708 C2709 1.524 . S
C2708 H2727 0.913 . S
C2709 H2685 0.950 . S
C2709 C2708 1.524 . S
C2709 C2710 1.415 . S
C2710 H2686 0.950 . S
C2710 C2705 1.363 . S
C2710 C2709 1.415 . S
C2711 H2687 0.951 . S
C2711 C2712 1.366 . S
C2711 C2713 1.388 . S
C2712 C2711 1.366 . S
C2712 C2716 1.385 . S
C2713 H2688 0.951 . S
C2713 C2711 1.388 . S
C2713 C2714 1.366 . S
C2714 C2713 1.366 . S
C2714 C2715 1.414 . S
C2714 C2717 1.499 . S
C2715 H2689 0.950 . S
C2715 C2714 1.414 . S
C2715 C2716 1.374 . S
C2716 H2690 0.950 . S
C2716 C2712 1.385 . S
C2716 C2715 1.374 . S
C2717 C2714 1.499 . S
C2717 C2718 1.373 . S
C2717 C2719 1.389 . S
C2718 H2691 0.950 . S
C2718 C2704 1.377 . S
C2718 C2717 1.373 . S
C2719 C2703 1.377 . S
C2719 C2717 1.389 . S
C2719 C2720 1.524 . S
C2720 C2719 1.524 . S
C2720 C2721 1.397 . S
C2720 C2725 1.363 . S
C2721 H2692 0.950 . S
C2721 C2720 1.397 . S
C2721 C2722 1.334 . S
C2722 H2693 0.950 . S
C2722 C2721 1.334 . S
C2722 C2723 1.287 . S
C2723 C2722 1.287 . S
C2723 C2724 1.524 . S
C2723 H2726 0.999 . S
C2724 H2694 0.950 . S
C2724 C2723 1.524 . S
C2724 C2725 1.415 . S
C2725 H2695 0.950 . S
C2725 C2720 1.363 . S
C2725 C2724 1.415 . S
H2726 C2723 0.999 . S
H2727 C2708 0.913 . S
H2728 C2746 0.951 . S
H2729 C2748 0.951 . S
H2730 C2750 0.950 . S
H2731 C2751 0.950 . S
H2732 C2753 0.950 . S
H2733 C2756 0.950 . S
H2734 C2757 0.950 . S
H2735 C2759 0.950 . S
H2736 C2760 0.950 . S
H2737 C2761 0.951 . S
H2738 C2763 0.951 . S
H2739 C2765 0.950 . S
H2740 C2766 0.950 . S
H2741 C2768 0.950 . S
H2742 C2771 0.950 . S
H2743 C2772 0.950 . S
H2744 C2774 0.950 . S
H2745 C2775 0.950 . S
C2746 H2728 0.951 . S
C2746 C2747 1.366 . S
C2746 C2748 1.388 . S
C2747 C2746 1.366 . S
C2747 C2751 1.385 . S
C2748 H2729 0.951 . S
C2748 C2746 1.388 . S
C2748 C2749 1.366 . S
C2749 C2748 1.366 . S
C2749 C2750 1.414 . S
C2749 C2752 1.499 . S
C2750 H2730 0.950 . S
C2750 C2749 1.414 . S
C2750 C2751 1.374 . S
C2751 H2731 0.950 . S
C2751 C2747 1.385 . S
C2751 C2750 1.374 . S
C2752 C2749 1.499 . S
C2752 C2753 1.373 . S
C2752 C2754 1.389 . S
C2753 H2732 0.950 . S
C2753 C2752 1.373 . S
C2753 C2769 1.377 . S
C2754 C2752 1.389 . S
C2754 C2755 1.524 . S
C2754 C2768 1.377 . S
C2755 C2754 1.524 . S
C2755 C2756 1.397 . S
C2755 C2760 1.363 . S
C2756 H2733 0.950 . S
C2756 C2755 1.397 . S
C2756 C2757 1.334 . S
C2757 H2734 0.950 . S
C2757 C2756 1.334 . S
C2757 C2758 1.287 . S
C2758 C2757 1.287 . S
C2758 C2759 1.524 . S
C2758 H2777 0.913 . S
C2759 H2735 0.950 . S
C2759 C2758 1.524 . S
C2759 C2760 1.415 . S
C2760 H2736 0.950 . S
C2760 C2755 1.363 . S
C2760 C2759 1.415 . S
C2761 H2737 0.951 . S
C2761 C2762 1.366 . S
C2761 C2763 1.388 . S
C2762 C2761 1.366 . S
C2762 C2766 1.385 . S
C2763 H2738 0.951 . S
C2763 C2761 1.388 . S
C2763 C2764 1.366 . S
C2764 C2763 1.366 . S
C2764 C2765 1.414 . S
C2764 C2767 1.499 . S
C2765 H2739 0.950 . S
C2765 C2764 1.414 . S
C2765 C2766 1.374 . S
C2766 H2740 0.950 . S
C2766 C2762 1.385 . S
C2766 C2765 1.374 . S
C2767 C2764 1.499 . S
C2767 C2768 1.373 . S
C2767 C2769 1.389 . S
C2768 H2741 0.950 . S
C2768 C2754 1.377 . S
C2768 C2767 1.373 . S
C2769 C2753 1.377 . S
C2769 C2767 1.389 . S
C2769 C2770 1.524 . S
C2770 C2769 1.524 . S
C2770 C2771 1.397 . S
C2770 C2775 1.363 . S
C2771 H2742 0.950 . S
C2771 C2770 1.397 . S
C2771 C2772 1.334 . S
C2772 H2743 0.950 . S
C2772 C2771 1.334 . S
C2772 C2773 1.287 . S
C2773 C2772 1.287 . S
C2773 C2774 1.524 . S
C2773 H2776 0.999 . S
C2774 H2744 0.950 . S
C2774 C2773 1.524 . S
C2774 C2775 1.415 . S
C2775 H2745 0.950 . S
C2775 C2770 1.363 . S
C2775 C2774 1.415 . S
H2776 C2773 0.999 . S
H2777 C2758 0.913 . S
H2778 C2796 0.951 1_554 S
H2779 C2798 0.951 . S
H2780 C2800 0.950 . S
H2781 C2801 0.950 . S
H2782 C2803 0.950 . S
H2783 C2806 0.950 . S
H2784 C2807 0.950 . S
H2785 C2809 0.948 1_554 S
H2786 C2810 0.950 . S
H2787 C2811 0.951 . S
H2788 C2813 0.951 . S
H2789 C2815 0.950 . S
H2790 C2816 0.950 . S
H2791 C2818 0.950 . S
H2792 C2821 0.950 . S
H2793 C2822 0.950 . S
H2794 C2824 0.950 . S
H2795 C2825 0.950 . S
C2796 H2778 0.951 1_556 S
C2796 C2797 1.366 . S
C2796 C2798 1.388 . S
C2797 C2796 1.366 . S
C2797 C2801 1.385 . S
C2798 H2779 0.951 . S
C2798 C2796 1.388 . S
C2798 C2799 1.366 . S
C2799 C2798 1.366 . S
C2799 C2800 1.414 . S
C2799 C2802 1.501 . S
C2800 H2780 0.950 . S
C2800 C2799 1.414 . S
C2800 C2801 1.374 . S
C2801 H2781 0.950 . S
C2801 C2797 1.385 . S
C2801 C2800 1.374 . S
C2802 C2799 1.501 . S
C2802 C2803 1.378 . S
C2802 C2804 1.383 1_655 S
C2803 H2782 0.950 . S
C2803 C2802 1.378 . S
C2803 C2819 1.377 . S
C2804 C2802 1.383 1_455 S
C2804 C2805 1.524 . S
C2804 C2818 1.377 . S
C2805 C2804 1.524 . S
C2805 C2806 1.397 . S
C2805 C2810 1.363 . S
C2806 H2783 0.950 . S
C2806 C2805 1.397 . S
C2806 C2807 1.334 . S
C2807 H2784 0.950 . S
C2807 C2806 1.334 . S
C2807 C2808 1.302 . S
C2808 C2807 1.302 . S
C2808 C2809 1.523 . S
C2808 H2827 0.895 1_556 S
C2809 H2785 0.948 1_556 S
C2809 C2808 1.523 . S
C2809 C2810 1.417 . S
C2810 H2786 0.950 . S
C2810 C2805 1.363 . S
C2810 C2809 1.417 . S
C2811 H2787 0.951 . S
C2811 C2812 1.366 . S
C2811 C2813 1.388 . S
C2812 C2811 1.366 . S
C2812 C2816 1.385 . S
C2813 H2788 0.951 . S
C2813 C2811 1.388 . S
C2813 C2814 1.366 . S
C2814 C2813 1.366 . S
C2814 C2815 1.414 . S
C2814 C2817 1.499 . S
C2815 H2789 0.950 . S
C2815 C2814 1.414 . S
C2815 C2816 1.374 . S
C2816 H2790 0.950 . S
C2816 C2812 1.385 . S
C2816 C2815 1.374 . S
C2817 C2814 1.499 . S
C2817 C2818 1.373 . S
C2817 C2819 1.389 1_455 S
C2818 H2791 0.950 . S
C2818 C2804 1.377 . S
C2818 C2817 1.373 . S
C2819 C2803 1.377 . S
C2819 C2817 1.389 1_655 S
C2819 C2820 1.524 . S
C2820 C2819 1.524 . S
C2820 C2821 1.397 . S
C2820 C2825 1.363 . S
C2821 H2792 0.950 . S
C2821 C2820 1.397 . S
C2821 C2822 1.334 . S
C2822 H2793 0.950 . S
C2822 C2821 1.334 . S
C2822 C2823 1.287 . S
C2823 C2822 1.287 . S
C2823 C2824 1.524 . S
C2823 H2826 0.999 . S
C2824 H2794 0.950 . S
C2824 C2823 1.524 . S
C2824 C2825 1.415 . S
C2825 H2795 0.950 . S
C2825 C2820 1.363 . S
C2825 C2824 1.415 . S
H2826 C2823 0.999 . S
H2827 C2808 0.895 1_554 S
H2828 C2846 0.951 . S
H2829 C2848 0.951 . S
H2830 C2850 0.950 . S
H2831 C2851 0.950 . S
H2832 C2853 0.950 . S
H2833 C2856 0.950 . S
H2834 C2857 0.950 . S
H2835 C2859 0.950 . S
H2836 C2860 0.950 . S
H2837 C2861 0.951 . S
H2838 C2863 0.951 . S
H2839 C2865 0.950 . S
H2840 C2866 0.950 . S
H2841 C2868 0.950 . S
H2842 C2871 0.950 . S
H2843 C2872 0.950 . S
H2844 C2874 0.950 . S
H2845 C2875 0.950 . S
C2846 H2828 0.951 . S
C2846 C2847 1.366 . S
C2846 C2848 1.388 . S
C2847 C2846 1.366 . S
C2847 C2851 1.385 . S
C2848 H2829 0.951 . S
C2848 C2846 1.388 . S
C2848 C2849 1.366 . S
C2849 C2848 1.366 . S
C2849 C2850 1.414 . S
C2849 C2852 1.499 . S
C2850 H2830 0.950 . S
C2850 C2849 1.414 . S
C2850 C2851 1.374 . S
C2851 H2831 0.950 . S
C2851 C2847 1.385 . S
C2851 C2850 1.374 . S
C2852 C2849 1.499 . S
C2852 C2853 1.373 . S
C2852 C2854 1.389 . S
C2853 H2832 0.950 . S
C2853 C2852 1.373 . S
C2853 C2869 1.377 . S
C2854 C2852 1.389 . S
C2854 C2855 1.524 . S
C2854 C2868 1.377 . S
C2855 C2854 1.524 . S
C2855 C2856 1.397 . S
C2855 C2860 1.363 . S
C2856 H2833 0.950 . S
C2856 C2855 1.397 . S
C2856 C2857 1.334 . S
C2857 H2834 0.950 . S
C2857 C2856 1.334 . S
C2857 C2858 1.287 . S
C2858 C2857 1.287 . S
C2858 C2859 1.524 . S
C2858 H2877 0.913 . S
C2859 H2835 0.950 . S
C2859 C2858 1.524 . S
C2859 C2860 1.415 . S
C2860 H2836 0.950 . S
C2860 C2855 1.363 . S
C2860 C2859 1.415 . S
C2861 H2837 0.951 . S
C2861 C2862 1.366 . S
C2861 C2863 1.388 . S
C2862 C2861 1.366 . S
C2862 C2866 1.385 . S
C2863 H2838 0.951 . S
C2863 C2861 1.388 . S
C2863 C2864 1.366 . S
C2864 C2863 1.366 . S
C2864 C2865 1.414 . S
C2864 C2867 1.499 . S
C2865 H2839 0.950 . S
C2865 C2864 1.414 . S
C2865 C2866 1.374 . S
C2866 H2840 0.950 . S
C2866 C2862 1.385 . S
C2866 C2865 1.374 . S
C2867 C2864 1.499 . S
C2867 C2868 1.373 . S
C2867 C2869 1.389 . S
C2868 H2841 0.950 . S
C2868 C2854 1.377 . S
C2868 C2867 1.373 . S
C2869 C2853 1.377 . S
C2869 C2867 1.389 . S
C2869 C2870 1.524 . S
C2870 C2869 1.524 . S
C2870 C2871 1.397 . S
C2870 C2875 1.363 . S
C2871 H2842 0.950 . S
C2871 C2870 1.397 . S
C2871 C2872 1.334 . S
C2872 H2843 0.950 . S
C2872 C2871 1.334 . S
C2872 C2873 1.287 . S
C2873 C2872 1.287 . S
C2873 C2874 1.524 . S
C2873 H2876 0.999 . S
C2874 H2844 0.950 . S
C2874 C2873 1.524 . S
C2874 C2875 1.415 . S
C2875 H2845 0.950 . S
C2875 C2870 1.363 . S
C2875 C2874 1.415 . S
H2876 C2873 0.999 . S
H2877 C2858 0.913 . S
H2878 C2896 0.951 . S
H2879 C2898 0.951 . S
H2880 C2900 0.950 . S
H2881 C2901 0.950 . S
H2882 C2903 0.950 . S
H2883 C2906 0.950 . S
H2884 C2907 0.950 . S
H2885 C2909 0.950 . S
H2886 C2910 0.950 . S
H2887 C2911 0.951 . S
H2888 C2913 0.951 . S
H2889 C2915 0.950 . S
H2890 C2916 0.950 . S
H2891 C2918 0.950 . S
H2892 C2921 0.950 . S
H2893 C2922 0.950 . S
H2894 C2924 0.950 . S
H2895 C2925 0.950 . S
C2896 H2878 0.951 . S
C2896 C2897 1.366 . S
C2896 C2898 1.388 . S
C2897 C2896 1.366 . S
C2897 C2901 1.385 . S
C2898 H2879 0.951 . S
C2898 C2896 1.388 . S
C2898 C2899 1.366 . S
C2899 C2898 1.366 . S
C2899 C2900 1.414 . S
C2899 C2902 1.499 . S
C2900 H2880 0.950 . S
C2900 C2899 1.414 . S
C2900 C2901 1.374 . S
C2901 H2881 0.950 . S
C2901 C2897 1.385 . S
C2901 C2900 1.374 . S
C2902 C2899 1.499 . S
C2902 C2903 1.373 . S
C2902 C2904 1.389 . S
C2903 H2882 0.950 . S
C2903 C2902 1.373 . S
C2903 C2919 1.377 . S
C2904 C2902 1.389 . S
C2904 C2905 1.524 . S
C2904 C2918 1.377 . S
C2905 C2904 1.524 . S
C2905 C2906 1.397 . S
C2905 C2910 1.363 . S
C2906 H2883 0.950 . S
C2906 C2905 1.397 . S
C2906 C2907 1.334 . S
C2907 H2884 0.950 . S
C2907 C2906 1.334 . S
C2907 C2908 1.287 . S
C2908 C2907 1.287 . S
C2908 C2909 1.524 . S
C2908 H2927 0.913 . S
C2909 H2885 0.950 . S
C2909 C2908 1.524 . S
C2909 C2910 1.415 . S
C2910 H2886 0.950 . S
C2910 C2905 1.363 . S
C2910 C2909 1.415 . S
C2911 H2887 0.951 . S
C2911 C2912 1.366 . S
C2911 C2913 1.388 . S
C2912 C2911 1.366 . S
C2912 C2916 1.385 . S
C2913 H2888 0.951 . S
C2913 C2911 1.388 . S
C2913 C2914 1.366 . S
C2914 C2913 1.366 . S
C2914 C2915 1.414 . S
C2914 C2917 1.499 . S
C2915 H2889 0.950 . S
C2915 C2914 1.414 . S
C2915 C2916 1.374 . S
C2916 H2890 0.950 . S
C2916 C2912 1.385 . S
C2916 C2915 1.374 . S
C2917 C2914 1.499 . S
C2917 C2918 1.373 . S
C2917 C2919 1.389 . S
C2918 H2891 0.950 . S
C2918 C2904 1.377 . S
C2918 C2917 1.373 . S
C2919 C2903 1.377 . S
C2919 C2917 1.389 . S
C2919 C2920 1.524 . S
C2920 C2919 1.524 . S
C2920 C2921 1.397 1_455 S
C2920 C2925 1.363 . S
C2921 H2892 0.950 . S
C2921 C2920 1.397 1_655 S
C2921 C2922 1.334 . S
C2922 H2893 0.950 . S
C2922 C2921 1.334 . S
C2922 C2923 1.287 . S
C2923 C2922 1.287 . S
C2923 C2924 1.524 1_655 S
C2923 H2926 0.999 . S
C2924 H2894 0.950 . S
C2924 C2923 1.524 1_455 S
C2924 C2925 1.415 . S
C2925 H2895 0.950 . S
C2925 C2920 1.363 . S
C2925 C2924 1.415 . S
H2926 C2923 0.999 . S
H2927 C2908 0.913 . S
H2928 C2946 0.951 . S
H2929 C2948 0.951 . S
H2930 C2950 0.950 . S
H2931 C2951 0.950 . S
H2932 C2953 0.950 . S
H2933 C2956 0.950 . S
H2934 C2957 0.950 . S
H2935 C2959 0.950 . S
H2936 C2960 0.950 . S
H2937 C2961 0.951 . S
H2938 C2963 0.951 . S
H2939 C2965 0.950 . S
H2940 C2966 0.950 . S
H2941 C2968 0.950 . S
H2942 C2971 0.950 . S
H2943 C2972 0.950 . S
H2944 C2974 0.950 . S
H2945 C2975 0.950 . S
C2946 H2928 0.951 . S
C2946 C2947 1.366 . S
C2946 C2948 1.388 . S
C2947 C2946 1.366 . S
C2947 C2951 1.385 . S
C2948 H2929 0.951 . S
C2948 C2946 1.388 . S
C2948 C2949 1.366 . S
C2949 C2948 1.366 . S
C2949 C2950 1.414 . S
C2949 C2952 1.499 . S
C2950 H2930 0.950 . S
C2950 C2949 1.414 . S
C2950 C2951 1.374 . S
C2951 H2931 0.950 . S
C2951 C2947 1.385 . S
C2951 C2950 1.374 . S
C2952 C2949 1.499 . S
C2952 C2953 1.373 . S
C2952 C2954 1.389 . S
C2953 H2932 0.950 . S
C2953 C2952 1.373 . S
C2953 C2969 1.377 . S
C2954 C2952 1.389 . S
C2954 C2955 1.524 . S
C2954 C2968 1.377 . S
C2955 C2954 1.524 . S
C2955 C2956 1.397 . S
C2955 C2960 1.363 . S
C2956 H2933 0.950 . S
C2956 C2955 1.397 . S
C2956 C2957 1.334 . S
C2957 H2934 0.950 . S
C2957 C2956 1.334 . S
C2957 C2958 1.287 . S
C2958 C2957 1.287 . S
C2958 C2959 1.524 . S
C2958 H2977 0.913 . S
C2959 H2935 0.950 . S
C2959 C2958 1.524 . S
C2959 C2960 1.415 . S
C2960 H2936 0.950 . S
C2960 C2955 1.363 . S
C2960 C2959 1.415 . S
C2961 H2937 0.951 . S
C2961 C2962 1.366 . S
C2961 C2963 1.388 . S
C2962 C2961 1.366 . S
C2962 C2966 1.385 . S
C2963 H2938 0.951 . S
C2963 C2961 1.388 . S
C2963 C2964 1.366 . S
C2964 C2963 1.366 . S
C2964 C2965 1.414 . S
C2964 C2967 1.499 . S
C2965 H2939 0.950 . S
C2965 C2964 1.414 . S
C2965 C2966 1.374 . S
C2966 H2940 0.950 . S
C2966 C2962 1.385 . S
C2966 C2965 1.374 . S
C2967 C2964 1.499 . S
C2967 C2968 1.373 . S
C2967 C2969 1.389 . S
C2968 H2941 0.950 . S
C2968 C2954 1.377 . S
C2968 C2967 1.373 . S
C2969 C2953 1.377 . S
C2969 C2967 1.389 . S
C2969 C2970 1.524 . S
C2970 C2969 1.524 . S
C2970 C2971 1.397 . S
C2970 C2975 1.363 . S
C2971 H2942 0.950 . S
C2971 C2970 1.397 . S
C2971 C2972 1.334 . S
C2972 H2943 0.950 . S
C2972 C2971 1.334 . S
C2972 C2973 1.287 . S
C2973 C2972 1.287 . S
C2973 C2974 1.524 . S
C2973 H2976 0.999 . S
C2974 H2944 0.950 . S
C2974 C2973 1.524 . S
C2974 C2975 1.415 . S
C2975 H2945 0.950 . S
C2975 C2970 1.363 . S
C2975 C2974 1.415 . S
H2976 C2973 0.999 . S
H2977 C2958 0.913 . S
H2978 C2996 0.951 . S
H2979 C2998 0.951 . S
H2980 C3000 0.950 . S
H2981 C3001 0.950 . S
H2982 C3003 0.950 . S
H2983 C3006 0.950 . S
H2984 C3007 0.950 . S
H2985 C3009 0.950 . S
H2986 C3010 0.950 . S
H2987 C3011 0.951 . S
H2988 C3013 0.951 . S
H2989 C3015 0.950 . S
H2990 C3016 0.950 . S
H2991 C3018 0.950 . S
H2992 C3021 0.950 . S
H2993 C3022 0.950 . S
H2994 C3024 0.950 . S
H2995 C3025 0.950 . S
C2996 H2978 0.951 . S
C2996 C2997 1.366 . S
C2996 C2998 1.388 . S
C2997 C2996 1.366 . S
C2997 C3001 1.385 . S
C2998 H2979 0.951 . S
C2998 C2996 1.388 . S
C2998 C2999 1.366 . S
C2999 C2998 1.366 . S
C2999 C3000 1.414 . S
C2999 C3002 1.499 . S
C3000 H2980 0.950 . S
C3000 C2999 1.414 . S
C3000 C3001 1.374 . S
C3001 H2981 0.950 . S
C3001 C2997 1.385 . S
C3001 C3000 1.374 . S
C3002 C2999 1.499 . S
C3002 C3003 1.373 . S
C3002 C3004 1.389 . S
C3003 H2982 0.950 . S
C3003 C3002 1.373 . S
C3003 C3019 1.377 . S
C3004 C3002 1.389 . S
C3004 C3005 1.524 . S
C3004 C3018 1.377 . S
C3005 C3004 1.524 . S
C3005 C3006 1.397 . S
C3005 C3010 1.363 . S
C3006 H2983 0.950 . S
C3006 C3005 1.397 . S
C3006 C3007 1.334 1_554 S
C3007 H2984 0.950 . S
C3007 C3006 1.334 1_556 S
C3007 C3008 1.287 . S
C3008 C3007 1.287 . S
C3008 C3009 1.524 . S
C3008 H3027 0.913 . S
C3009 H2985 0.950 . S
C3009 C3008 1.524 . S
C3009 C3010 1.415 1_556 S
C3010 H2986 0.950 . S
C3010 C3005 1.363 . S
C3010 C3009 1.415 1_554 S
C3011 H2987 0.951 . S
C3011 C3012 1.366 . S
C3011 C3013 1.388 . S
C3012 C3011 1.366 . S
C3012 C3016 1.385 . S
C3013 H2988 0.951 . S
C3013 C3011 1.388 . S
C3013 C3014 1.366 . S
C3014 C3013 1.366 . S
C3014 C3015 1.414 . S
C3014 C3017 1.499 . S
C3015 H2989 0.950 . S
C3015 C3014 1.414 . S
C3015 C3016 1.374 . S
C3016 H2990 0.950 . S
C3016 C3012 1.385 . S
C3016 C3015 1.374 . S
C3017 C3014 1.499 . S
C3017 C3018 1.373 . S
C3017 C3019 1.389 . S
C3018 H2991 0.950 . S
C3018 C3004 1.377 . S
C3018 C3017 1.373 . S
C3019 C3003 1.377 . S
C3019 C3017 1.389 . S
C3019 C3020 1.524 . S
C3020 C3019 1.524 . S
C3020 C3021 1.397 . S
C3020 C3025 1.363 . S
C3021 H2992 0.950 . S
C3021 C3020 1.397 . S
C3021 C3022 1.334 . S
C3022 H2993 0.950 . S
C3022 C3021 1.334 . S
C3022 C3023 1.287 . S
C3023 C3022 1.287 . S
C3023 C3024 1.524 . S
C3023 H3026 0.999 . S
C3024 H2994 0.950 . S
C3024 C3023 1.524 . S
C3024 C3025 1.415 . S
C3025 H2995 0.950 . S
C3025 C3020 1.363 . S
C3025 C3024 1.415 . S
H3026 C3023 0.999 . S
H3027 C3008 0.913 . S
H3028 C3046 0.951 . S
H3029 C3048 0.951 . S
H3030 C3050 0.950 . S
H3031 C3051 0.950 . S
H3032 C3053 0.950 . S
H3033 C3056 0.950 . S
H3034 C3057 0.950 . S
H3035 C3059 0.950 . S
H3036 C3060 0.950 . S
H3037 C3061 0.951 . S
H3038 C3063 0.951 . S
H3039 C3065 0.950 . S
H3040 C3066 0.950 . S
H3041 C3068 0.950 . S
H3042 C3071 0.950 . S
H3043 C3072 0.950 . S
H3044 C3074 0.950 . S
H3045 C3075 0.950 . S
C3046 H3028 0.951 . S
C3046 C3047 1.366 . S
C3046 C3048 1.388 . S
C3047 C3046 1.366 . S
C3047 C3051 1.385 . S
C3048 H3029 0.951 . S
C3048 C3046 1.388 . S
C3048 C3049 1.366 . S
C3049 C3048 1.366 . S
C3049 C3050 1.414 . S
C3049 C3052 1.499 . S
C3050 H3030 0.950 . S
C3050 C3049 1.414 . S
C3050 C3051 1.374 . S
C3051 H3031 0.950 . S
C3051 C3047 1.385 . S
C3051 C3050 1.374 . S
C3052 C3049 1.499 . S
C3052 C3053 1.373 . S
C3052 C3054 1.389 . S
C3053 H3032 0.950 . S
C3053 C3052 1.373 . S
C3053 C3069 1.377 . S
C3054 C3052 1.389 . S
C3054 C3055 1.524 . S
C3054 C3068 1.377 . S
C3055 C3054 1.524 . S
C3055 C3056 1.397 . S
C3055 C3060 1.363 . S
C3056 H3033 0.950 . S
C3056 C3055 1.397 . S
C3056 C3057 1.334 . S
C3057 H3034 0.950 . S
C3057 C3056 1.334 . S
C3057 C3058 1.287 . S
C3058 C3057 1.287 . S
C3058 C3059 1.524 . S
C3058 H3077 0.913 . S
C3059 H3035 0.950 . S
C3059 C3058 1.524 . S
C3059 C3060 1.415 . S
C3060 H3036 0.950 . S
C3060 C3055 1.363 . S
C3060 C3059 1.415 . S
C3061 H3037 0.951 . S
C3061 C3062 1.366 . S
C3061 C3063 1.388 . S
C3062 C3061 1.366 . S
C3062 C3066 1.385 . S
C3063 H3038 0.951 . S
C3063 C3061 1.388 . S
C3063 C3064 1.366 . S
C3064 C3063 1.366 . S
C3064 C3065 1.414 . S
C3064 C3067 1.499 . S
C3065 H3039 0.950 . S
C3065 C3064 1.414 . S
C3065 C3066 1.374 . S
C3066 H3040 0.950 . S
C3066 C3062 1.385 . S
C3066 C3065 1.374 . S
C3067 C3064 1.499 . S
C3067 C3068 1.373 . S
C3067 C3069 1.389 . S
C3068 H3041 0.950 . S
C3068 C3054 1.377 . S
C3068 C3067 1.373 . S
C3069 C3053 1.377 . S
C3069 C3067 1.389 . S
C3069 C3070 1.524 . S
C3070 C3069 1.524 . S
C3070 C3071 1.397 . S
C3070 C3075 1.363 . S
C3071 H3042 0.950 . S
C3071 C3070 1.397 . S
C3071 C3072 1.334 . S
C3072 H3043 0.950 . S
C3072 C3071 1.334 . S
C3072 C3073 1.287 . S
C3073 C3072 1.287 . S
C3073 C3074 1.524 . S
C3073 H3076 0.999 . S
C3074 H3044 0.950 . S
C3074 C3073 1.524 . S
C3074 C3075 1.415 . S
C3075 H3045 0.950 . S
C3075 C3070 1.363 . S
C3075 C3074 1.415 . S
H3076 C3073 0.999 . S
H3077 C3058 0.913 . S
H3078 C3096 0.951 . S
H3079 C3098 0.951 . S
H3080 C3100 0.950 . S
H3081 C3101 0.950 . S
H3082 C3103 0.950 . S
H3083 C3106 0.950 . S
H3084 C3107 0.950 . S
H3085 C3109 0.950 . S
H3086 C3110 0.950 . S
H3087 C3111 0.951 . S
H3088 C3113 0.951 . S
H3089 C3115 0.950 . S
H3090 C3116 0.950 . S
H3091 C3118 0.950 . S
H3092 C3121 0.950 . S
H3093 C3122 0.950 . S
H3094 C3124 0.950 . S
H3095 C3125 0.950 . S
C3096 H3078 0.951 . S
C3096 C3097 1.366 . S
C3096 C3098 1.388 . S
C3097 C3096 1.366 . S
C3097 C3101 1.385 . S
C3098 H3079 0.951 . S
C3098 C3096 1.388 . S
C3098 C3099 1.366 . S
C3099 C3098 1.366 . S
C3099 C3100 1.414 . S
C3099 C3102 1.499 . S
C3100 H3080 0.950 . S
C3100 C3099 1.414 . S
C3100 C3101 1.374 . S
C3101 H3081 0.950 . S
C3101 C3097 1.385 . S
C3101 C3100 1.374 . S
C3102 C3099 1.499 . S
C3102 C3103 1.373 . S
C3102 C3104 1.389 . S
C3103 H3082 0.950 . S
C3103 C3102 1.373 . S
C3103 C3119 1.377 . S
C3104 C3102 1.389 . S
C3104 C3105 1.524 . S
C3104 C3118 1.377 . S
C3105 C3104 1.524 . S
C3105 C3106 1.397 . S
C3105 C3110 1.363 . S
C3106 H3083 0.950 . S
C3106 C3105 1.397 . S
C3106 C3107 1.334 . S
C3107 H3084 0.950 . S
C3107 C3106 1.334 . S
C3107 C3108 1.287 . S
C3108 C3107 1.287 . S
C3108 C3109 1.524 . S
C3108 H3127 0.913 . S
C3109 H3085 0.950 . S
C3109 C3108 1.524 . S
C3109 C3110 1.415 . S
C3110 H3086 0.950 . S
C3110 C3105 1.363 . S
C3110 C3109 1.415 . S
C3111 H3087 0.951 . S
C3111 C3112 1.366 . S
C3111 C3113 1.388 . S
C3112 C3111 1.366 . S
C3112 C3116 1.385 . S
C3113 H3088 0.951 . S
C3113 C3111 1.388 . S
C3113 C3114 1.366 . S
C3114 C3113 1.366 . S
C3114 C3115 1.414 . S
C3114 C3117 1.499 . S
C3115 H3089 0.950 . S
C3115 C3114 1.414 . S
C3115 C3116 1.374 . S
C3116 H3090 0.950 . S
C3116 C3112 1.385 . S
C3116 C3115 1.374 . S
C3117 C3114 1.499 . S
C3117 C3118 1.373 . S
C3117 C3119 1.389 . S
C3118 H3091 0.950 . S
C3118 C3104 1.377 . S
C3118 C3117 1.373 . S
C3119 C3103 1.377 . S
C3119 C3117 1.389 . S
C3119 C3120 1.524 . S
C3120 C3119 1.524 . S
C3120 C3121 1.397 . S
C3120 C3125 1.363 . S
C3121 H3092 0.950 . S
C3121 C3120 1.397 . S
C3121 C3122 1.334 . S
C3122 H3093 0.950 . S
C3122 C3121 1.334 . S
C3122 C3123 1.287 . S
C3123 C3122 1.287 . S
C3123 C3124 1.524 . S
C3123 H3126 0.999 . S
C3124 H3094 0.950 . S
C3124 C3123 1.524 . S
C3124 C3125 1.415 . S
C3125 H3095 0.950 . S
C3125 C3120 1.363 . S
C3125 C3124 1.415 . S
H3126 C3123 0.999 . S
H3127 C3108 0.913 . S
H3128 C3146 0.951 . S
H3129 C3148 0.951 . S
H3130 C3150 0.950 . S
H3131 C3151 0.950 . S
H3132 C3153 0.950 . S
H3133 C3156 0.950 . S
H3134 C3157 0.950 . S
H3135 C3159 0.950 . S
H3136 C3160 0.950 . S
H3137 C3161 0.951 . S
H3138 C3163 0.951 . S
H3139 C3165 0.950 . S
H3140 C3166 0.950 . S
H3141 C3168 0.950 . S
H3142 C3171 0.950 . S
H3143 C3172 0.950 . S
H3144 C3174 0.950 . S
H3145 C3175 0.950 . S
C3146 H3128 0.951 . S
C3146 C3147 1.366 . S
C3146 C3148 1.388 . S
C3147 C3146 1.366 . S
C3147 C3151 1.385 . S
C3148 H3129 0.951 . S
C3148 C3146 1.388 . S
C3148 C3149 1.366 . S
C3149 C3148 1.366 . S
C3149 C3150 1.414 . S
C3149 C3152 1.499 . S
C3150 H3130 0.950 . S
C3150 C3149 1.414 . S
C3150 C3151 1.374 . S
C3151 H3131 0.950 . S
C3151 C3147 1.385 . S
C3151 C3150 1.374 . S
C3152 C3149 1.499 . S
C3152 C3153 1.373 . S
C3152 C3154 1.389 . S
C3153 H3132 0.950 . S
C3153 C3152 1.373 . S
C3153 C3169 1.377 . S
C3154 C3152 1.389 . S
C3154 C3155 1.524 . S
C3154 C3168 1.377 . S
C3155 C3154 1.524 . S
C3155 C3156 1.397 . S
C3155 C3160 1.363 . S
C3156 H3133 0.950 . S
C3156 C3155 1.397 . S
C3156 C3157 1.334 . S
C3157 H3134 0.950 . S
C3157 C3156 1.334 . S
C3157 C3158 1.287 . S
C3158 C3157 1.287 . S
C3158 C3159 1.524 . S
C3158 H3177 0.913 . S
C3159 H3135 0.950 . S
C3159 C3158 1.524 . S
C3159 C3160 1.415 . S
C3160 H3136 0.950 . S
C3160 C3155 1.363 . S
C3160 C3159 1.415 . S
C3161 H3137 0.951 . S
C3161 C3162 1.366 . S
C3161 C3163 1.388 . S
C3162 C3161 1.366 . S
C3162 C3166 1.385 . S
C3163 H3138 0.951 . S
C3163 C3161 1.388 . S
C3163 C3164 1.366 . S
C3164 C3163 1.366 . S
C3164 C3165 1.414 . S
C3164 C3167 1.499 . S
C3165 H3139 0.950 . S
C3165 C3164 1.414 . S
C3165 C3166 1.374 . S
C3166 H3140 0.950 . S
C3166 C3162 1.385 . S
C3166 C3165 1.374 . S
C3167 C3164 1.499 . S
C3167 C3168 1.373 . S
C3167 C3169 1.389 . S
C3168 H3141 0.950 . S
C3168 C3154 1.377 . S
C3168 C3167 1.373 . S
C3169 C3153 1.377 . S
C3169 C3167 1.389 . S
C3169 C3170 1.524 . S
C3170 C3169 1.524 . S
C3170 C3171 1.397 . S
C3170 C3175 1.363 . S
C3171 H3142 0.950 . S
C3171 C3170 1.397 . S
C3171 C3172 1.334 . S
C3172 H3143 0.950 . S
C3172 C3171 1.334 . S
C3172 C3173 1.287 . S
C3173 C3172 1.287 . S
C3173 C3174 1.524 . S
C3173 H3176 0.999 . S
C3174 H3144 0.950 . S
C3174 C3173 1.524 . S
C3174 C3175 1.415 . S
C3175 H3145 0.950 . S
C3175 C3170 1.363 . S
C3175 C3174 1.415 . S
H3176 C3173 0.999 . S
H3177 C3158 0.913 . S
H3178 C3196 0.951 . S
H3179 C3198 0.951 . S
H3180 C3200 0.950 . S
H3181 C3201 0.950 . S
H3182 C3203 0.950 . S
H3183 C3206 0.950 . S
H3184 C3207 0.950 . S
H3185 C3209 0.950 . S
H3186 C3210 0.950 . S
H3187 C3211 0.951 . S
H3188 C3213 0.951 . S
H3189 C3215 0.950 . S
H3190 C3216 0.950 . S
H3191 C3218 0.950 . S
H3192 C3221 0.950 . S
H3193 C3222 0.950 . S
H3194 C3224 0.950 . S
H3195 C3225 0.950 . S
C3196 H3178 0.951 . S
C3196 C3197 1.366 . S
C3196 C3198 1.388 . S
C3197 C3196 1.366 . S
C3197 C3201 1.385 . S
C3198 H3179 0.951 . S
C3198 C3196 1.388 . S
C3198 C3199 1.366 . S
C3199 C3198 1.366 . S
C3199 C3200 1.414 . S
C3199 C3202 1.499 . S
C3200 H3180 0.950 . S
C3200 C3199 1.414 . S
C3200 C3201 1.374 . S
C3201 H3181 0.950 . S
C3201 C3197 1.385 . S
C3201 C3200 1.374 . S
C3202 C3199 1.499 . S
C3202 C3203 1.373 . S
C3202 C3204 1.389 . S
C3203 H3182 0.950 . S
C3203 C3202 1.373 . S
C3203 C3219 1.377 . S
C3204 C3202 1.389 . S
C3204 C3205 1.524 . S
C3204 C3218 1.377 . S
C3205 C3204 1.524 . S
C3205 C3206 1.397 . S
C3205 C3210 1.363 . S
C3206 H3183 0.950 . S
C3206 C3205 1.397 . S
C3206 C3207 1.334 . S
C3207 H3184 0.950 . S
C3207 C3206 1.334 . S
C3207 C3208 1.287 . S
C3208 C3207 1.287 . S
C3208 C3209 1.524 . S
C3208 H3227 0.913 . S
C3209 H3185 0.950 . S
C3209 C3208 1.524 . S
C3209 C3210 1.415 . S
C3210 H3186 0.950 . S
C3210 C3205 1.363 . S
C3210 C3209 1.415 . S
C3211 H3187 0.951 . S
C3211 C3212 1.366 . S
C3211 C3213 1.388 . S
C3212 C3211 1.366 . S
C3212 C3216 1.385 . S
C3213 H3188 0.951 . S
C3213 C3211 1.388 . S
C3213 C3214 1.366 . S
C3214 C3213 1.366 . S
C3214 C3215 1.414 . S
C3214 C3217 1.499 . S
C3215 H3189 0.950 . S
C3215 C3214 1.414 . S
C3215 C3216 1.374 . S
C3216 H3190 0.950 . S
C3216 C3212 1.385 . S
C3216 C3215 1.374 . S
C3217 C3214 1.499 . S
C3217 C3218 1.373 . S
C3217 C3219 1.389 . S
C3218 H3191 0.950 . S
C3218 C3204 1.377 . S
C3218 C3217 1.373 . S
C3219 C3203 1.377 . S
C3219 C3217 1.389 . S
C3219 C3220 1.524 . S
C3220 C3219 1.524 . S
C3220 C3221 1.397 . S
C3220 C3225 1.363 . S
C3221 H3192 0.950 . S
C3221 C3220 1.397 . S
C3221 C3222 1.334 . S
C3222 H3193 0.950 . S
C3222 C3221 1.334 . S
C3222 C3223 1.287 . S
C3223 C3222 1.287 . S
C3223 C3224 1.524 . S
C3223 H3226 0.999 . S
C3224 H3194 0.950 . S
C3224 C3223 1.524 . S
C3224 C3225 1.415 . S
C3225 H3195 0.950 . S
C3225 C3220 1.363 . S
C3225 C3224 1.415 . S
H3226 C3223 0.999 . S
H3227 C3208 0.913 . S
H3228 C3246 0.951 . S
H3229 C3248 0.951 . S
H3230 C3250 0.950 . S
H3231 C3251 0.950 . S
H3232 C3253 0.950 . S
H3233 C3256 0.950 . S
H3234 C3257 0.950 . S
H3235 C3259 0.950 . S
H3236 C3260 0.950 . S
H3237 C3261 0.951 . S
H3238 C3263 0.951 . S
H3239 C3265 0.950 . S
H3240 C3266 0.950 . S
H3241 C3268 0.950 . S
H3242 C3271 0.950 . S
H3243 C3272 0.950 . S
H3244 C3274 0.950 . S
H3245 C3275 0.950 . S
C3246 H3228 0.951 . S
C3246 C3247 1.366 . S
C3246 C3248 1.388 . S
C3247 C3246 1.366 . S
C3247 C3251 1.385 . S
C3248 H3229 0.951 . S
C3248 C3246 1.388 . S
C3248 C3249 1.366 . S
C3249 C3248 1.366 . S
C3249 C3250 1.414 . S
C3249 C3252 1.499 . S
C3250 H3230 0.950 . S
C3250 C3249 1.414 . S
C3250 C3251 1.374 . S
C3251 H3231 0.950 . S
C3251 C3247 1.385 . S
C3251 C3250 1.374 . S
C3252 C3249 1.499 . S
C3252 C3253 1.373 . S
C3252 C3254 1.389 . S
C3253 H3232 0.950 . S
C3253 C3252 1.373 . S
C3253 C3269 1.377 . S
C3254 C3252 1.389 . S
C3254 C3255 1.524 . S
C3254 C3268 1.377 . S
C3255 C3254 1.524 . S
C3255 C3256 1.397 . S
C3255 C3260 1.363 . S
C3256 H3233 0.950 . S
C3256 C3255 1.397 . S
C3256 C3257 1.334 . S
C3257 H3234 0.950 . S
C3257 C3256 1.334 . S
C3257 C3258 1.287 . S
C3258 C3257 1.287 . S
C3258 C3259 1.524 . S
C3258 H3277 0.913 . S
C3259 H3235 0.950 . S
C3259 C3258 1.524 . S
C3259 C3260 1.415 . S
C3260 H3236 0.950 . S
C3260 C3255 1.363 . S
C3260 C3259 1.415 . S
C3261 H3237 0.951 . S
C3261 C3262 1.366 . S
C3261 C3263 1.388 . S
C3262 C3261 1.366 . S
C3262 C3266 1.385 . S
C3263 H3238 0.951 . S
C3263 C3261 1.388 . S
C3263 C3264 1.366 . S
C3264 C3263 1.366 . S
C3264 C3265 1.414 . S
C3264 C3267 1.499 . S
C3265 H3239 0.950 . S
C3265 C3264 1.414 . S
C3265 C3266 1.374 . S
C3266 H3240 0.950 . S
C3266 C3262 1.385 . S
C3266 C3265 1.374 . S
C3267 C3264 1.499 . S
C3267 C3268 1.373 . S
C3267 C3269 1.389 . S
C3268 H3241 0.950 . S
C3268 C3254 1.377 . S
C3268 C3267 1.373 . S
C3269 C3253 1.377 . S
C3269 C3267 1.389 . S
C3269 C3270 1.524 . S
C3270 C3269 1.524 . S
C3270 C3271 1.397 . S
C3270 C3275 1.363 . S
C3271 H3242 0.950 . S
C3271 C3270 1.397 . S
C3271 C3272 1.334 . S
C3272 H3243 0.950 . S
C3272 C3271 1.334 . S
C3272 C3273 1.287 . S
C3273 C3272 1.287 . S
C3273 C3274 1.524 . S
C3273 H3276 0.999 . S
C3274 H3244 0.950 . S
C3274 C3273 1.524 . S
C3274 C3275 1.415 . S
C3275 H3245 0.950 . S
C3275 C3270 1.363 . S
C3275 C3274 1.415 . S
H3276 C3273 0.999 . S
H3277 C3258 0.913 . S
H3278 C3296 0.951 . S
H3279 C3298 0.951 . S
H3280 C3300 0.950 . S
H3281 C3301 0.950 . S
H3282 C3303 0.950 . S
H3283 C3306 0.950 . S
H3284 C3307 0.950 . S
H3285 C3309 0.950 . S
H3286 C3310 0.950 . S
H3287 C3311 0.951 . S
H3288 C3313 0.951 . S
H3289 C3315 0.950 . S
H3290 C3316 0.950 . S
H3291 C3318 0.950 . S
H3292 C3321 0.950 . S
H3293 C3322 0.950 . S
H3294 C3324 0.950 . S
H3295 C3325 0.950 . S
C3296 H3278 0.951 . S
C3296 C3297 1.366 . S
C3296 C3298 1.388 . S
C3297 C3296 1.366 . S
C3297 C3301 1.385 . S
C3298 H3279 0.951 . S
C3298 C3296 1.388 . S
C3298 C3299 1.366 . S
C3299 C3298 1.366 . S
C3299 C3300 1.414 . S
C3299 C3302 1.499 . S
C3300 H3280 0.950 . S
C3300 C3299 1.414 . S
C3300 C3301 1.374 . S
C3301 H3281 0.950 . S
C3301 C3297 1.385 . S
C3301 C3300 1.374 . S
C3302 C3299 1.499 . S
C3302 C3303 1.373 . S
C3302 C3304 1.389 . S
C3303 H3282 0.950 . S
C3303 C3302 1.373 . S
C3303 C3319 1.377 . S
C3304 C3302 1.389 . S
C3304 C3305 1.524 . S
C3304 C3318 1.377 . S
C3305 C3304 1.524 . S
C3305 C3306 1.397 . S
C3305 C3310 1.363 . S
C3306 H3283 0.950 . S
C3306 C3305 1.397 . S
C3306 C3307 1.334 . S
C3307 H3284 0.950 . S
C3307 C3306 1.334 . S
C3307 C3308 1.287 . S
C3308 C3307 1.287 . S
C3308 C3309 1.524 . S
C3308 H3327 0.913 . S
C3309 H3285 0.950 . S
C3309 C3308 1.524 . S
C3309 C3310 1.415 . S
C3310 H3286 0.950 . S
C3310 C3305 1.363 . S
C3310 C3309 1.415 . S
C3311 H3287 0.951 . S
C3311 C3312 1.366 . S
C3311 C3313 1.388 . S
C3312 C3311 1.366 . S
C3312 C3316 1.385 . S
C3313 H3288 0.951 . S
C3313 C3311 1.388 . S
C3313 C3314 1.366 . S
C3314 C3313 1.366 . S
C3314 C3315 1.414 . S
C3314 C3317 1.499 . S
C3315 H3289 0.950 . S
C3315 C3314 1.414 . S
C3315 C3316 1.374 . S
C3316 H3290 0.950 . S
C3316 C3312 1.385 . S
C3316 C3315 1.374 . S
C3317 C3314 1.499 . S
C3317 C3318 1.373 . S
C3317 C3319 1.389 . S
C3318 H3291 0.950 . S
C3318 C3304 1.377 . S
C3318 C3317 1.373 . S
C3319 C3303 1.377 . S
C3319 C3317 1.389 . S
C3319 C3320 1.524 . S
C3320 C3319 1.524 . S
C3320 C3321 1.397 . S
C3320 C3325 1.363 . S
C3321 H3292 0.950 . S
C3321 C3320 1.397 . S
C3321 C3322 1.334 . S
C3322 H3293 0.950 . S
C3322 C3321 1.334 . S
C3322 C3323 1.287 . S
C3323 C3322 1.287 . S
C3323 C3324 1.524 . S
C3323 H3326 0.999 . S
C3324 H3294 0.950 . S
C3324 C3323 1.524 . S
C3324 C3325 1.415 . S
C3325 H3295 0.950 . S
C3325 C3320 1.363 . S
C3325 C3324 1.415 . S
H3326 C3323 0.999 . S
H3327 C3308 0.913 . S
H3328 C3346 0.951 . S
H3329 C3348 0.951 . S
H3330 C3350 0.950 . S
H3331 C3351 0.950 . S
H3332 C3353 0.950 . S
H3333 C3356 0.950 . S
H3334 C3357 0.950 . S
H3335 C3359 0.950 . S
H3336 C3360 0.950 . S
H3337 C3361 0.951 . S
H3338 C3363 0.951 . S
H3339 C3365 0.950 . S
H3340 C3366 0.950 . S
H3341 C3368 0.950 . S
H3342 C3371 0.950 . S
H3343 C3372 0.950 . S
H3344 C3374 0.951 . S
H3345 C3375 0.950 . S
C3346 H3328 0.951 . S
C3346 C3347 1.366 . S
C3346 C3348 1.388 . S
C3347 C3346 1.366 . S
C3347 C3351 1.385 . S
C3348 H3329 0.951 . S
C3348 C3346 1.388 . S
C3348 C3349 1.366 . S
C3349 C3348 1.366 . S
C3349 C3350 1.414 . S
C3349 C3352 1.499 . S
C3350 H3330 0.950 . S
C3350 C3349 1.414 . S
C3350 C3351 1.374 . S
C3351 H3331 0.950 . S
C3351 C3347 1.385 . S
C3351 C3350 1.374 . S
C3352 C3349 1.499 . S
C3352 C3353 1.373 . S
C3352 C3354 1.389 . S
C3353 H3332 0.950 . S
C3353 C3352 1.373 . S
C3353 C3369 1.377 . S
C3354 C3352 1.389 . S
C3354 C3355 1.524 . S
C3354 C3368 1.377 . S
C3355 C3354 1.524 . S
C3355 C3356 1.397 . S
C3355 C3360 1.363 . S
C3356 H3333 0.950 . S
C3356 C3355 1.397 . S
C3356 C3357 1.334 . S
C3357 H3334 0.950 . S
C3357 C3356 1.334 . S
C3357 C3358 1.287 . S
C3358 C3357 1.287 . S
C3358 C3359 1.524 . S
C3358 H3377 0.913 . S
C3359 H3335 0.950 . S
C3359 C3358 1.524 . S
C3359 C3360 1.415 . S
C3360 H3336 0.950 . S
C3360 C3355 1.363 . S
C3360 C3359 1.415 . S
C3361 H3337 0.951 . S
C3361 C3362 1.401 . S
C3361 C3363 1.388 . S
C3362 C3361 1.401 . S
C3362 C3366 1.357 1_556 S
C3363 H3338 0.951 . S
C3363 C3361 1.388 . S
C3363 C3364 1.366 . S
C3364 C3363 1.366 . S
C3364 C3365 1.414 1_556 S
C3364 C3367 1.499 . S
C3365 H3339 0.950 . S
C3365 C3364 1.414 1_554 S
C3365 C3366 1.374 . S
C3366 H3340 0.950 . S
C3366 C3362 1.357 1_554 S
C3366 C3365 1.374 . S
C3367 C3364 1.499 . S
C3367 C3368 1.373 . S
C3367 C3369 1.389 . S
C3368 H3341 0.950 . S
C3368 C3354 1.377 . S
C3368 C3367 1.373 . S
C3369 C3353 1.377 . S
C3369 C3367 1.389 . S
C3369 C3370 1.506 1_556 S
C3370 C3369 1.506 1_554 S
C3370 C3371 1.448 . S
C3370 C3375 1.336 1_554 S
C3371 H3342 0.950 . S
C3371 C3370 1.448 . S
C3371 C3372 1.334 . S
C3372 H3343 0.950 . S
C3372 C3371 1.334 . S
C3372 C3373 1.287 . S
C3373 C3372 1.287 . S
C3373 C3374 1.522 1_554 S
C3373 H3376 0.999 . S
C3374 H3344 0.951 . S
C3374 C3373 1.522 1_556 S
C3374 C3375 1.416 . S
C3375 H3345 0.950 . S
C3375 C3370 1.336 1_556 S
C3375 C3374 1.416 . S
H3376 C3373 0.999 . S
H3377 C3358 0.913 . S
H3378 C3396 0.951 . S
H3379 C3398 0.951 . S
H3380 C3400 0.950 . S
H3381 C3401 0.950 . S
H3382 C3403 0.950 . S
H3383 C3406 0.950 . S
H3384 C3407 0.950 . S
H3385 C3409 0.950 . S
H3386 C3410 0.950 . S
H3387 C3411 0.951 . S
H3388 C3413 0.951 . S
H3389 C3415 0.950 . S
H3390 C3416 0.950 . S
H3391 C3418 0.950 . S
H3392 C3421 0.950 . S
H3393 C3422 0.950 . S
H3394 C3424 0.950 . S
H3395 C3425 0.950 . S
C3396 H3378 0.951 . S
C3396 C3397 1.366 . S
C3396 C3398 1.388 . S
C3397 C3396 1.366 . S
C3397 C3401 1.385 . S
C3398 H3379 0.951 . S
C3398 C3396 1.388 . S
C3398 C3399 1.366 . S
C3399 C3398 1.366 . S
C3399 C3400 1.414 . S
C3399 C3402 1.499 . S
C3400 H3380 0.950 . S
C3400 C3399 1.414 . S
C3400 C3401 1.374 . S
C3401 H3381 0.950 . S
C3401 C3397 1.385 . S
C3401 C3400 1.374 . S
C3402 C3399 1.499 . S
C3402 C3403 1.373 . S
C3402 C3404 1.389 . S
C3403 H3382 0.950 . S
C3403 C3402 1.373 . S
C3403 C3419 1.377 . S
C3404 C3402 1.389 . S
C3404 C3405 1.524 . S
C3404 C3418 1.377 . S
C3405 C3404 1.524 . S
C3405 C3406 1.397 . S
C3405 C3410 1.363 . S
C3406 H3383 0.950 . S
C3406 C3405 1.397 . S
C3406 C3407 1.334 . S
C3407 H3384 0.950 . S
C3407 C3406 1.334 . S
C3407 C3408 1.287 . S
C3408 C3407 1.287 . S
C3408 C3409 1.524 . S
C3408 H3427 0.913 . S
C3409 H3385 0.950 . S
C3409 C3408 1.524 . S
C3409 C3410 1.415 . S
C3410 H3386 0.950 . S
C3410 C3405 1.363 . S
C3410 C3409 1.415 . S
C3411 H3387 0.951 . S
C3411 C3412 1.366 . S
C3411 C3413 1.388 . S
C3412 C3411 1.366 . S
C3412 C3416 1.385 . S
C3413 H3388 0.951 . S
C3413 C3411 1.388 . S
C3413 C3414 1.366 . S
C3414 C3413 1.366 . S
C3414 C3415 1.414 . S
C3414 C3417 1.499 . S
C3415 H3389 0.950 . S
C3415 C3414 1.414 . S
C3415 C3416 1.374 . S
C3416 H3390 0.950 . S
C3416 C3412 1.385 . S
C3416 C3415 1.374 . S
C3417 C3414 1.499 . S
C3417 C3418 1.373 . S
C3417 C3419 1.389 . S
C3418 H3391 0.950 . S
C3418 C3404 1.377 . S
C3418 C3417 1.373 . S
C3419 C3403 1.377 . S
C3419 C3417 1.389 . S
C3419 C3420 1.524 . S
C3420 C3419 1.524 . S
C3420 C3421 1.397 . S
C3420 C3425 1.363 . S
C3421 H3392 0.950 . S
C3421 C3420 1.397 . S
C3421 C3422 1.334 . S
C3422 H3393 0.950 . S
C3422 C3421 1.334 . S
C3422 C3423 1.287 . S
C3423 C3422 1.287 . S
C3423 C3424 1.524 . S
C3423 H3426 0.999 . S
C3424 H3394 0.950 . S
C3424 C3423 1.524 . S
C3424 C3425 1.415 . S
C3425 H3395 0.950 . S
C3425 C3420 1.363 . S
C3425 C3424 1.415 . S
H3426 C3423 0.999 . S
H3427 C3408 0.913 . S
H3428 C3446 0.951 . S
H3429 C3448 0.951 . S
H3430 C3450 0.950 . S
H3431 C3451 0.950 . S
H3432 C3453 0.950 . S
H3433 C3456 0.950 . S
H3434 C3457 0.950 . S
H3435 C3459 0.950 . S
H3436 C3460 0.950 . S
H3437 C3461 0.951 . S
H3438 C3463 0.951 . S
H3439 C3465 0.950 . S
H3440 C3466 0.950 . S
H3441 C3468 0.950 . S
H3442 C3471 0.950 . S
H3443 C3472 0.950 . S
H3444 C3474 0.950 . S
H3445 C3475 0.950 . S
C3446 H3428 0.951 . S
C3446 C3447 1.366 . S
C3446 C3448 1.388 . S
C3447 C3446 1.366 . S
C3447 C3451 1.385 . S
C3448 H3429 0.951 . S
C3448 C3446 1.388 . S
C3448 C3449 1.366 . S
C3449 C3448 1.366 . S
C3449 C3450 1.414 . S
C3449 C3452 1.499 . S
C3450 H3430 0.950 . S
C3450 C3449 1.414 . S
C3450 C3451 1.374 . S
C3451 H3431 0.950 . S
C3451 C3447 1.385 . S
C3451 C3450 1.374 . S
C3452 C3449 1.499 . S
C3452 C3453 1.373 . S
C3452 C3454 1.389 . S
C3453 H3432 0.950 . S
C3453 C3452 1.373 . S
C3453 C3469 1.377 . S
C3454 C3452 1.389 . S
C3454 C3455 1.524 . S
C3454 C3468 1.377 . S
C3455 C3454 1.524 . S
C3455 C3456 1.397 . S
C3455 C3460 1.363 . S
C3456 H3433 0.950 . S
C3456 C3455 1.397 . S
C3456 C3457 1.334 . S
C3457 H3434 0.950 . S
C3457 C3456 1.334 . S
C3457 C3458 1.287 . S
C3458 C3457 1.287 . S
C3458 C3459 1.524 . S
C3458 H3477 0.913 . S
C3459 H3435 0.950 . S
C3459 C3458 1.524 . S
C3459 C3460 1.415 . S
C3460 H3436 0.950 . S
C3460 C3455 1.363 . S
C3460 C3459 1.415 . S
C3461 H3437 0.951 . S
C3461 C3462 1.366 . S
C3461 C3463 1.388 . S
C3462 C3461 1.366 . S
C3462 C3466 1.385 . S
C3463 H3438 0.951 . S
C3463 C3461 1.388 . S
C3463 C3464 1.366 . S
C3464 C3463 1.366 . S
C3464 C3465 1.414 . S
C3464 C3467 1.499 . S
C3465 H3439 0.950 . S
C3465 C3464 1.414 . S
C3465 C3466 1.374 . S
C3466 H3440 0.950 . S
C3466 C3462 1.385 . S
C3466 C3465 1.374 . S
C3467 C3464 1.499 . S
C3467 C3468 1.373 . S
C3467 C3469 1.389 . S
C3468 H3441 0.950 . S
C3468 C3454 1.377 . S
C3468 C3467 1.373 . S
C3469 C3453 1.377 . S
C3469 C3467 1.389 . S
C3469 C3470 1.524 1_554 S
C3470 C3469 1.524 1_556 S
C3470 C3471 1.397 . S
C3470 C3475 1.363 . S
C3471 H3442 0.950 . S
C3471 C3470 1.397 . S
C3471 C3472 1.334 . S
C3472 H3443 0.950 . S
C3472 C3471 1.334 . S
C3472 C3473 1.287 . S
C3473 C3472 1.287 . S
C3473 C3474 1.524 . S
C3473 H3476 0.999 . S
C3474 H3444 0.950 . S
C3474 C3473 1.524 . S
C3474 C3475 1.415 . S
C3475 H3445 0.950 . S
C3475 C3470 1.363 . S
C3475 C3474 1.415 . S
H3476 C3473 0.999 . S
H3477 C3458 0.913 . S
H3478 C3496 0.951 1_545 S
H3479 C3498 0.951 . S
H3480 C3500 0.950 . S
H3481 C3501 0.950 . S
H3482 C3503 0.950 . S
H3483 C3506 0.950 . S
H3484 C3507 0.950 . S
H3485 C3509 0.950 1_545 S
H3486 C3510 0.950 . S
H3487 C3511 0.951 . S
H3488 C3513 0.951 . S
H3489 C3515 0.950 . S
H3490 C3516 0.950 . S
H3491 C3518 0.950 1_556 S
H3492 C3521 0.950 . S
H3493 C3522 0.950 . S
H3494 C3524 0.950 . S
H3495 C3525 0.950 . S
C3496 H3478 0.951 1_565 S
C3496 C3497 1.366 . S
C3496 C3498 1.388 . S
C3497 C3496 1.366 . S
C3497 C3501 1.385 . S
C3498 H3479 0.951 . S
C3498 C3496 1.388 . S
C3498 C3499 1.366 . S
C3499 C3498 1.366 . S
C3499 C3500 1.414 . S
C3499 C3502 1.499 . S
C3500 H3480 0.950 . S
C3500 C3499 1.414 . S
C3500 C3501 1.374 . S
C3501 H3481 0.950 . S
C3501 C3497 1.385 . S
C3501 C3500 1.374 . S
C3502 C3499 1.499 . S
C3502 C3503 1.373 . S
C3502 C3504 1.389 . S
C3503 H3482 0.950 . S
C3503 C3502 1.373 . S
C3503 C3519 1.377 . S
C3504 C3502 1.389 . S
C3504 C3505 1.524 1_554 S
C3504 C3518 1.377 . S
C3505 C3504 1.524 1_556 S
C3505 C3506 1.397 . S
C3505 C3510 1.363 . S
C3506 H3483 0.950 . S
C3506 C3505 1.397 . S
C3506 C3507 1.334 . S
C3507 H3484 0.950 . S
C3507 C3506 1.334 . S
C3507 C3508 1.287 . S
C3508 C3507 1.287 . S
C3508 C3509 1.524 . S
C3508 H3527 0.913 1_565 S
C3509 H3485 0.950 1_565 S
C3509 C3508 1.524 . S
C3509 C3510 1.415 . S
C3510 H3486 0.950 . S
C3510 C3505 1.363 . S
C3510 C3509 1.415 . S
C3511 H3487 0.951 . S
C3511 C3512 1.366 . S
C3511 C3513 1.388 . S
C3512 C3511 1.366 . S
C3512 C3516 1.385 . S
C3513 H3488 0.951 . S
C3513 C3511 1.388 . S
C3513 C3514 1.366 . S
C3514 C3513 1.366 . S
C3514 C3515 1.414 . S
C3514 C3517 1.499 . S
C3515 H3489 0.950 . S
C3515 C3514 1.414 . S
C3515 C3516 1.374 . S
C3516 H3490 0.950 . S
C3516 C3512 1.385 . S
C3516 C3515 1.374 . S
C3517 C3514 1.499 . S
C3517 C3518 1.373 . S
C3517 C3519 1.389 . S
C3518 H3491 0.950 1_554 S
C3518 C3504 1.377 . S
C3518 C3517 1.373 . S
C3519 C3503 1.377 . S
C3519 C3517 1.389 . S
C3519 C3520 1.524 . S
C3520 C3519 1.524 . S
C3520 C3521 1.397 . S
C3520 C3525 1.363 . S
C3521 H3492 0.950 . S
C3521 C3520 1.397 . S
C3521 C3522 1.334 . S
C3522 H3493 0.950 . S
C3522 C3521 1.334 . S
C3522 C3523 1.287 . S
C3523 C3522 1.287 . S
C3523 C3524 1.524 . S
C3523 H3526 0.999 . S
C3524 H3494 0.950 . S
C3524 C3523 1.524 . S
C3524 C3525 1.415 . S
C3525 H3495 0.950 . S
C3525 C3520 1.363 . S
C3525 C3524 1.415 . S
H3526 C3523 0.999 . S
H3527 C3508 0.913 1_545 S
C1162 C971 1.436 . S
C1147 C331 1.439 . S
C1212 C979 1.292 . S
C1197 C380 1.529 . S
C1247 C421 1.407 . S
C1262 C999 1.403 . S
C1312 C1013 1.507 . S
C1297 C260 1.452 1_655 S
C1362 C1028 1.535 . S
C1347 C620 1.511 . S
C1412 C1042 1.514 . S
C1397 C740 1.497 . S
C1447 C680 1.551 . S
C1462 C1056 1.577 . S
C1512 C1062 1.439 . S
C1497 C571 1.461 . S
C1547 C691 1.496 . S
C1562 C1076 1.488 . S
C1612 C1097 1.543 . S
C1597 C541 1.546 . S
C1647 C601 1.444 . S
C1662 C1077 1.227 . S
C1712 C1098 1.542 . S
C1697 C721 1.522 . S
C1747 C451 1.457 . S
C1762 C1105 1.226 . S
C1797 C241 1.486 . S
C1812 C1111 1.495 . S
C1847 C320 1.483 . S
C1862 C1104 1.467 . S
C1897 C391 1.459 . S
C1912 C1112 1.477 . S
C1947 C211 1.473 . S
C1962 C1006 1.457 . S
C1997 C841 1.476 . S
C2012 C1007 1.251 . S
C2062 C964 1.525 . S
C2047 C901 1.554 . S
C2112 C985 1.429 . S
C2097 C500 1.439 . S
C2147 C271 1.467 . S
C2162 C1020 1.452 . S
C2212 C1070 1.535 . S
C2197 C661 1.507 . S
C2262 C1021 1.208 . S
C2247 C560 1.419 . S
C2312 C1049 1.290 . S
C2297 C751 1.544 . S
C2362 C1055 1.436 . S
C2347 C871 1.438 . S
C2397 C920 1.529 . S
C2412 C1063 1.293 . S
C2447 C481 1.407 . S
C2462 C1027 1.402 . S
C2512 C1041 1.507 . S
C2497 C800 1.501 . S
C2547 C200 1.511 . S
C2562 C1000 1.535 . S
C2612 C1014 1.514 . S
C2597 C20 1.496 . S
C2662 C972 1.577 . S
C2647 C80 1.551 . S
C2712 C978 1.438 . S
C2697 C151 1.461 . S
C2747 C91 1.496 . S
C2762 C1090 1.488 . S
C2797 C121 1.523 1_556 S
C2812 C1083 1.543 . S
C2847 C181 1.443 . S
C2862 C1091 1.226 . S
C2897 C1 1.522 . S
C2912 C1084 1.542 . S
C2962 C1119 1.226 . S
C2947 C511 1.456 . S
C3012 C1125 1.495 . S
C2997 C781 1.487 . S
C3062 C1118 1.468 . S
C3047 C860 1.483 . S
C3097 C931 1.459 . S
C3112 C1126 1.477 . S
C3147 C631 1.473 . S
C3162 C1034 1.457 . S
C3212 C1035 1.252 . S
C3197 C301 1.476 . S
C3262 C1048 1.525 . S
C3247 C361 1.554 . S
C3312 C1069 1.429 . S
C3297 C440 1.441 . S
C3347 C811 1.467 . S
C3362 C992 1.448 1_556 S
C3412 C986 1.535 . S
C3397 C61 1.510 . S
C3447 C140 1.420 . S
C3462 C993 1.208 . S
C3512 C965 1.292 . S
C3497 C31 1.545 . S
