# Generated by pormake.
# Topology csq, (4,8)-cn, num edge types: 1
# Building blocks:
#     Node 0, Type 0, BuildingBlock: GIZVER_clean_linker_0, # of connection points: 4
#     Node 1, Type 0, BuildingBlock: GIZVER_clean_linker_0, # of connection points: 4
#     Node 2, Type 0, BuildingBlock: GIZVER_clean_linker_0, # of connection points: 4
#     Node 3, Type 0, BuildingBlock: GIZVER_clean_linker_0, # of connection points: 4
#     Node 4, Type 0, BuildingBlock: GIZVER_clean_linker_0, # of connection points: 4
#     Node 5, Type 0, BuildingBlock: GIZVER_clean_linker_0, # of connection points: 4
#     Node 6, Type 1, BuildingBlock: TAGTUT_clean_sbu_1, # of connection points: 8
#     Node 7, Type 1, BuildingBlock: TAGTUT_clean_sbu_1, # of connection points: 8
#     Node 8, Type 1, BuildingBlock: TAGTUT_clean_sbu_1, # of connection points: 8
#     Edge 9, Type (0, 1), BuildingBlock: TEMPAE_clean_linker_10, # of connection points: 2
#     Edge 10, Type (0, 1), BuildingBlock: TEMPAE_clean_linker_10, # of connection points: 2
#     Edge 11, Type (0, 1), BuildingBlock: TEMPAE_clean_linker_10, # of connection points: 2
#     Edge 12, Type (0, 1), BuildingBlock: TEMPAE_clean_linker_10, # of connection points: 2
#     Edge 13, Type (0, 1), BuildingBlock: TEMPAE_clean_linker_10, # of connection points: 2
#     Edge 14, Type (0, 1), BuildingBlock: TEMPAE_clean_linker_10, # of connection points: 2
#     Edge 15, Type (0, 1), BuildingBlock: TEMPAE_clean_linker_10, # of connection points: 2
#     Edge 16, Type (0, 1), BuildingBlock: TEMPAE_clean_linker_10, # of connection points: 2
#     Edge 17, Type (0, 1), BuildingBlock: TEMPAE_clean_linker_10, # of connection points: 2
#     Edge 18, Type (0, 1), BuildingBlock: TEMPAE_clean_linker_10, # of connection points: 2
#     Edge 19, Type (0, 1), BuildingBlock: TEMPAE_clean_linker_10, # of connection points: 2
#     Edge 20, Type (0, 1), BuildingBlock: TEMPAE_clean_linker_10, # of connection points: 2
#     Edge 21, Type (0, 1), BuildingBlock: TEMPAE_clean_linker_10, # of connection points: 2
#     Edge 22, Type (0, 1), BuildingBlock: TEMPAE_clean_linker_10, # of connection points: 2
#     Edge 23, Type (0, 1), BuildingBlock: TEMPAE_clean_linker_10, # of connection points: 2
#     Edge 24, Type (0, 1), BuildingBlock: TEMPAE_clean_linker_10, # of connection points: 2
#     Edge 25, Type (0, 1), BuildingBlock: TEMPAE_clean_linker_10, # of connection points: 2
#     Edge 26, Type (0, 1), BuildingBlock: TEMPAE_clean_linker_10, # of connection points: 2
#     Edge 27, Type (0, 1), BuildingBlock: TEMPAE_clean_linker_10, # of connection points: 2
#     Edge 28, Type (0, 1), BuildingBlock: TEMPAE_clean_linker_10, # of connection points: 2
#     Edge 29, Type (0, 1), BuildingBlock: TEMPAE_clean_linker_10, # of connection points: 2
#     Edge 30, Type (0, 1), BuildingBlock: TEMPAE_clean_linker_10, # of connection points: 2
#     Edge 31, Type (0, 1), BuildingBlock: TEMPAE_clean_linker_10, # of connection points: 2
#     Edge 32, Type (0, 1), BuildingBlock: TEMPAE_clean_linker_10, # of connection points: 2
# Relax obj value: 0.046
# Max RMSD: 0.134
# Mean RMSD: 0.097
data_MOF--net-csq--node1-TAGTUT_clean_sbu_1--node2-GIZVER_clean_linker_0--edge1-TEMPAE_clean_linker_10
_symmetry_space_group_name_H-M    P1
_symmetry_Int_Tables_number       1
_symmetry_cell_setting            triclinic
loop_
_symmetry_equiv_pos_as_xyz
'x, y, z'
_cell_length_a     55.284806
_cell_length_b     54.80423
_cell_length_c     18.491113
_cell_angle_alpha  93.270804
_cell_angle_beta   92.204515
_cell_angle_gamma 119.90525
loop_
_atom_site_label
_atom_site_type_symbol
_atom_site_fract_x
_atom_site_fract_y
_atom_site_fract_z
_atom_type_partial_charge
H0 H 0.23159 0.49707 0.01818 0.0
H1 H 0.22934 0.51494 0.24637 0.0
H2 H 0.15287 0.47236 0.10857 0.0
H3 H 0.27166 0.53946 0.09334 0.0
H4 H 0.27278 0.5398 0.18969 0.0
H5 H 0.28552 0.51081 0.02064 0.0
H6 H 0.32423 0.47132 0.13537 0.0
H7 H 0.28029 0.50523 0.25114 0.0
C8 C 0.21958 0.49525 0.06457 0.0
C9 C 0.19034 0.4825 0.05486 0.0
C10 C 0.23379 0.50726 0.13306 0.0
C11 C 0.21835 0.50535 0.19363 0.0
C12 C 0.18891 0.49204 0.18575 0.0
C13 C 0.17526 0.48078 0.11599 0.0
C14 C 0.26532 0.5255 0.13864 0.0
C15 C 0.27983 0.50829 0.13543 0.0
C16 C 0.28951 0.50314 0.06983 0.0
C17 C 0.306 0.49009 0.06898 0.0
C18 C 0.31156 0.4813 0.1346 0.0
C19 C 0.30305 0.4873 0.20063 0.0
C20 C 0.28658 0.50014 0.20026 0.0
H21 H 0.80969 0.23586 0.02539 0.0
H22 H 0.80234 0.27241 0.23024 0.0
H23 H 0.84697 0.32551 0.06341 0.0
H24 H 0.79252 0.20686 0.12498 0.0
H25 H 0.79929 0.22418 0.21448 0.0
H26 H 0.75023 0.20713 0.04659 0.0
H27 H 0.67736 0.17305 0.16789 0.0
H28 H 0.75898 0.20785 0.27938 0.0
C29 C 0.81299 0.25409 0.05986 0.0
C30 C 0.82796 0.2811 0.03544 0.0
C31 C 0.80322 0.25084 0.12998 0.0
C32 C 0.80904 0.27492 0.17551 0.0
C33 C 0.82489 0.30215 0.15213 0.0
C34 C 0.83349 0.30474 0.08132 0.0
C35 C 0.78931 0.22217 0.15938 0.0
C36 C 0.75824 0.21042 0.16305 0.0
C37 C 0.74102 0.20326 0.09842 0.0
C38 C 0.7119 0.19019 0.10019 0.0
C39 C 0.69996 0.18402 0.16704 0.0
C40 C 0.71667 0.18985 0.23202 0.0
C41 C 0.74592 0.20373 0.22983 0.0
H42 H 0.537 0.80506 0.95864 0.0
H43 H 0.58406 0.81913 0.16362 0.0
H44 H 0.54123 0.86464 0.12781 0.0
H45 H 0.56927 0.7879 0.96964 0.0
H46 H 0.59364 0.79952 0.04719 0.0
H47 H 0.53316 0.73991 0.95357 0.0
H48 H 0.52649 0.68463 0.11744 0.0
H49 H 0.57845 0.77375 0.16381 0.0
C50 C 0.54339 0.81486 0.01379 0.0
C51 C 0.53628 0.83519 0.03799 0.0
C52 C 0.56012 0.80834 0.05945 0.0
C53 C 0.56979 0.82247 0.12953 0.0
C54 C 0.56212 0.84205 0.15426 0.0
C55 C 0.54527 0.84798 0.10901 0.0
C56 C 0.57096 0.78958 0.03009 0.0
C57 C 0.55605 0.7604 0.05702 0.0
C58 C 0.53768 0.73677 0.00868 0.0
C59 C 0.52696 0.70911 0.02953 0.0
C60 C 0.53329 0.70563 0.10094 0.0
C61 C 0.5514 0.72869 0.14951 0.0
C62 C 0.56308 0.75609 0.12747 0.0
H63 H 0.75817 0.56146 0.96724 0.0
H64 H 0.77064 0.57587 0.2012 0.0
H65 H 0.68827 0.54114 0.09385 0.0
H66 H 0.80405 0.59636 0.02727 0.0
H67 H 0.81014 0.60044 0.12366 0.0
H68 H 0.81443 0.56455 0.956 0.0
H69 H 0.84744 0.51988 0.06944 0.0
H70 H 0.81224 0.56298 0.18807 0.0
C71 C 0.74978 0.55966 0.01998 0.0
C72 C 0.72125 0.54984 0.02397 0.0
C73 C 0.76786 0.56923 0.08355 0.0
C74 C 0.75674 0.56782 0.15204 0.0
C75 C 0.72788 0.55775 0.15631 0.0
C76 C 0.71045 0.54861 0.09171 0.0
C77 C 0.7991 0.58446 0.07652 0.0
C78 C 0.81049 0.56447 0.07224 0.0
C79 C 0.81801 0.55697 0.00588 0.0
C80 C 0.83112 0.54054 0.00447 0.0
C81 C 0.83662 0.53181 0.07001 0.0
C82 C 0.83042 0.54023 0.13676 0.0
C83 C 0.81653 0.55575 0.13694 0.0
H84 H 0.27993 0.76627 0.00088 0.0
H85 H 0.29733 0.77615 0.23279 0.0
H86 H 0.33533 0.84863 0.11109 0.0
H87 H 0.27684 0.72701 0.07202 0.0
H88 H 0.27993 0.73079 0.16879 0.0
H89 H 0.23168 0.6977 0.02003 0.0
H90 H 0.16002 0.68012 0.13609 0.0
H91 H 0.24196 0.74192 0.23035 0.0
C92 C 0.28988 0.77995 0.05036 0.0
C93 C 0.30724 0.80933 0.04712 0.0
C94 C 0.28624 0.7679 0.11739 0.0
C95 C 0.29952 0.78541 0.18145 0.0
C96 C 0.3169 0.81455 0.17935 0.0
C97 C 0.32049 0.82632 0.11246 0.0
C98 C 0.27176 0.73628 0.12015 0.0
C99 C 0.24046 0.72289 0.1226 0.0
C100 C 0.22286 0.70251 0.06632 0.0
C101 C 0.19402 0.68676 0.07235 0.0
C102 C 0.18247 0.69259 0.13186 0.0
C103 C 0.19938 0.71252 0.18868 0.0
C104 C 0.22859 0.72752 0.18478 0.0
H105 H 0.49658 0.25987 0.01694 0.0
H106 H 0.52846 0.29334 0.23917 0.0
H107 H 0.48556 0.326 0.11479 0.0
H108 H 0.53251 0.25167 0.08328 0.0
H109 H 0.54185 0.26251 0.17798 0.0
H110 H 0.47475 0.21586 0.05743 0.0
H111 H 0.45545 0.14279 0.16908 0.0
H112 H 0.52877 0.22171 0.24044 0.0
C113 C 0.49845 0.27325 0.06472 0.0
C114 C 0.48809 0.2919 0.06005 0.0
C115 C 0.51178 0.27247 0.13087 0.0
C116 C 0.5167 0.29238 0.18977 0.0
C117 C 0.5081 0.31232 0.18263 0.0
C118 C 0.49261 0.31082 0.11952 0.0
C119 C 0.52397 0.25315 0.1358 0.0
C120 C 0.50276 0.2233 0.15177 0.0
C121 C 0.47888 0.20682 0.10339 0.0
C122 C 0.46164 0.17781 0.10945 0.0
C123 C 0.46791 0.16545 0.16592 0.0
C124 C 0.49226 0.18083 0.21211 0.0
C125 C 0.50941 0.20996 0.20622 0.0
C126 C 0.968 0.41503 0.74009 0.0
C127 C 0.05364 0.46961 0.69015 0.0
C128 C 0.03631 0.55435 0.73152 0.0
Mg129 Mg 0.99737 0.4428 0.60176 0.0
O130 O 0.98941 0.47019 0.64333 0.0
Mg131 Mg 0.00569 0.48642 0.7449 0.0
Mg132 Mg 0.0037 0.50615 0.59618 0.0
O133 O 0.01804 0.54216 0.55013 0.0
Mg134 Mg 0.01238 0.57079 0.59411 0.0
Mg135 Mg 1.00029 0.52606 0.45009 0.0
C136 C 0.97231 0.45797 0.46205 0.0
C137 C 0.04843 0.5094 0.47791 0.0
O138 O 0.97874 0.43978 0.7744 0.0
O139 O 0.97224 0.4114 0.67354 0.0
O140 O 0.04224 0.47974 0.73113 0.0
O141 O 0.04115 0.45534 0.62989 0.0
O142 O 0.97949 0.44156 0.49179 0.0
O143 O 0.97717 0.48157 0.4941 0.0
C144 C 0.95904 0.50465 0.71246 0.0
O145 O 0.96737 0.51019 0.64829 0.0
O146 O 0.9699 0.49486 0.75617 0.0
O147 O 0.0277 0.57296 0.42019 0.0
O148 O 0.03746 0.60176 0.52216 0.0
O149 O 0.96293 0.53174 0.47133 0.0
C150 C 0.04048 0.59776 0.45489 0.0
O151 O 0.96872 0.55842 0.57349 0.0
O152 O 0.0307 0.57193 0.70246 0.0
C153 C 0.95365 0.54263 0.51748 0.0
O154 O 0.02977 0.53034 0.69902 0.0
O155 O 0.0404 0.50282 0.54211 0.0
O156 O 0.03643 0.51863 0.436 0.0
C157 C 0.4411 0.02618 0.80727 0.0
C158 C 0.42441 0.945 0.71807 0.0
C159 C 0.53165 0.9812 0.76302 0.0
Mg160 Mg 0.44612 0.00237 0.6551 0.0
O161 O 0.48239 0.01639 0.70065 0.0
Mg162 Mg 0.48533 1.00053 0.79335 0.0
Mg163 Mg 0.50911 0.0098 0.64583 0.0
O164 O 0.53575 0.00305 0.59192 0.0
Mg165 Mg 0.5712 0.01449 0.63884 0.0
Mg166 Mg 0.53425 0.02022 0.50081 0.0
C167 C 0.48527 0.03648 0.52836 0.0
C168 C 0.47378 0.96362 0.509 0.0
O169 O 0.45846 0.01961 0.83626 0.0
O170 O 0.43386 0.02171 0.73894 0.0
O171 O 0.4456 0.9588 0.76361 0.0
O172 O 0.42031 0.95671 0.66468 0.0
O173 O 0.46111 0.02434 0.55497 0.0
O174 O 0.50628 0.03539 0.55702 0.0
C175 C 0.5458 0.05645 0.78084 0.0
O176 O 0.54443 0.04912 0.7131 0.0
O177 O 0.52595 0.04187 0.82056 0.0
O178 O 0.56083 1.00074 0.45739 0.0
O179 O 0.58284 0.99489 0.55429 0.0
O180 O 0.57474 0.06207 0.5363 0.0
C181 C 0.57653 0.992 0.4857 0.0
O182 O 0.59795 0.05979 0.63481 0.0
O183 O 0.5559 0.99213 0.73741 0.0
C184 C 0.59533 0.07362 0.58464 0.0
O185 O 0.51183 0.98422 0.73481 0.0
O186 O 0.47417 0.97048 0.5768 0.0
O187 O 0.49396 0.97895 0.47095 0.0
C188 C 0.55986 0.59247 0.45452 0.0
C189 C 0.59309 0.53943 0.51347 0.0
C190 C 0.48775 0.45334 0.48299 0.0
Mg191 Mg 0.56462 0.56735 0.59799 0.0
O192 O 0.52894 0.53924 0.55739 0.0
Mg193 Mg 0.52627 0.52111 0.45841 0.0
Mg194 Mg 0.50736 0.50479 0.60941 0.0
O195 O 0.4859 0.47036 0.66118 0.0
Mg196 Mg 0.45055 0.44142 0.62108 0.0
Mg197 Mg 0.48865 0.4884 0.76011 0.0
C198 C 0.52767 0.55609 0.7367 0.0
C199 C 0.55097 0.50138 0.72599 0.0
O200 O 0.5457 0.56729 0.42217 0.0
O201 O 0.56857 0.59708 0.52191 0.0
O202 O 0.57042 0.52706 0.47221 0.0
O203 O 0.59566 0.55526 0.57035 0.0
O204 O 0.5505 0.57157 0.70638 0.0
O205 O 0.50871 0.53169 0.70795 0.0
C206 C 0.46343 0.5073 0.49178 0.0
O207 O 0.46735 0.50215 0.55667 0.0
O208 O 0.48257 0.51484 0.44731 0.0
O209 O 0.46997 0.4423 0.79653 0.0
O210 O 0.44781 0.4121 0.69716 0.0
O211 O 0.44473 0.48296 0.74479 0.0
C212 C 0.45679 0.41705 0.76436 0.0
O213 O 0.41961 0.45371 0.6475 0.0
O214 O 0.46505 0.43742 0.51322 0.0
C215 C 0.42237 0.47042 0.7025 0.0
O216 O 0.5061 0.47803 0.51138 0.0
O217 O 0.54722 0.50708 0.66163 0.0
O218 O 0.53202 0.49417 0.77086 0.0
C219 C 0.14585 0.46862 0.25555 0.0
C220 C 0.17221 0.49219 0.2477 0.0
C221 C 0.1277 0.46997 0.30493 0.0
C222 C 0.13599 0.49551 0.34793 0.0
C223 C 0.16346 0.51862 0.34465 0.0
C224 C 0.18119 0.51674 0.29456 0.0
C225 C 0.09882 0.44467 0.30699 0.0
C226 C 0.1734 0.54612 0.39019 0.0
C227 C 0.07828 0.51271 0.3765 0.0
C228 C 0.07163 0.50621 0.44823 0.0
C229 C 0.09923 0.50957 0.34446 0.0
C230 C 0.11444 0.49973 0.38467 0.0
C231 C 0.10837 0.49355 0.45765 0.0
C232 C 0.08694 0.49674 0.48849 0.0
C233 C 0.10479 0.51652 0.26666 0.0
C234 C 0.12404 0.48305 0.50281 0.0
H235 H 0.1389 0.44933 0.22083 0.0
H236 H 0.20143 0.53514 0.28917 0.0
H237 H 0.09362 0.44047 0.36396 0.0
H238 H 0.08315 0.4491 0.28095 0.0
H239 H 0.09684 0.42536 0.27803 0.0
H240 H 0.1964 0.56028 0.39057 0.0
H241 H 0.16296 0.55723 0.36807 0.0
H242 H 0.16772 0.54215 0.44697 0.0
H243 H 0.06686 0.52013 0.34429 0.0
H244 H 0.08219 0.49175 0.54386 0.0
H245 H 0.10102 0.49747 0.23246 0.0
H246 H 0.12699 0.53297 0.26354 0.0
H247 H 0.09134 0.52428 0.24311 0.0
H248 H 0.11569 0.46029 0.48671 0.0
H249 H 0.12167 0.48551 0.56174 0.0
H250 H 0.14665 0.49443 0.49366 0.0
C251 C 0.71177 0.19453 0.36682 0.0
C252 C 0.70311 0.1782 0.29968 0.0
C253 C 0.69824 0.18325 0.42995 0.0
C254 C 0.67568 0.15501 0.4256 0.0
C255 C 0.66741 0.13835 0.35812 0.0
C256 C 0.68119 0.15012 0.29639 0.0
C257 C 0.70755 0.20182 0.50047 0.0
C258 C 0.64368 0.10804 0.35064 0.0
C259 C 0.64611 0.1053 0.57242 0.0
C260 C 0.61904 0.10145 0.57078 0.0
C261 C 0.66651 0.12547 0.53167 0.0
C262 C 0.65971 0.14239 0.48978 0.0
C263 C 0.63396 0.14158 0.49776 0.0
C264 C 0.61372 0.1208 0.53737 0.0
C265 C 0.69389 0.12595 0.52602 0.0
C266 C 0.62633 0.16019 0.45711 0.0
H267 H 0.7287 0.21626 0.36966 0.0
H268 H 0.67483 0.13716 0.2451 0.0
H269 H 0.6921 0.20855 0.51201 0.0
H270 H 0.70855 0.19012 0.54644 0.0
H271 H 0.72834 0.22105 0.49825 0.0
H272 H 0.64056 0.0977 0.29493 0.0
H273 H 0.64781 0.0956 0.38947 0.0
H274 H 0.6239 0.10723 0.36388 0.0
H275 H 0.65037 0.09043 0.59834 0.0
H276 H 0.59293 0.11816 0.53699 0.0
H277 H 0.71144 0.14783 0.52366 0.0
H278 H 0.6927 0.11348 0.47517 0.0
H279 H 0.69856 0.11659 0.57253 0.0
H280 H 0.64477 0.18154 0.45487 0.0
H281 H 0.60958 0.16236 0.48272 0.0
H282 H 0.61867 0.15069 0.40044 0.0
C283 C 0.54133 0.70813 0.26762 0.0
C284 C 0.56097 0.72222 0.21747 0.0
C285 C 0.5449 0.69076 0.31453 0.0
C286 C 0.56857 0.6873 0.31038 0.0
C287 C 0.58988 0.70388 0.2652 0.0
C288 C 0.58582 0.72127 0.21921 0.0
C289 C 0.52189 0.67384 0.36275 0.0
C290 C 0.61551 0.701 0.2595 0.0
C291 C 0.57851 0.6445 0.45091 0.0
C292 C 0.56464 0.61715 0.41479 0.0
C293 C 0.58075 0.66774 0.41702 0.0
C294 C 0.56893 0.66364 0.34516 0.0
C295 C 0.5559 0.63636 0.30728 0.0
C296 C 0.55389 0.61346 0.34256 0.0
C297 C 0.59483 0.69646 0.45906 0.0
C298 C 0.54324 0.63118 0.23014 0.0
H299 H 0.5219 0.70854 0.26519 0.0
H300 H 0.60072 0.73174 0.17927 0.0
H301 H 0.50987 0.6515 0.3395 0.0
H302 H 0.53076 0.67409 0.41781 0.0
H303 H 0.50717 0.68199 0.36783 0.0
H304 H 0.63219 0.71876 0.23287 0.0
H305 H 0.62405 0.70009 0.3139 0.0
H306 H 0.6097 0.68098 0.22674 0.0
H307 H 0.58703 0.64774 0.50665 0.0
H308 H 0.54324 0.59253 0.31401 0.0
H309 H 0.57906 0.70286 0.46964 0.0
H310 H 0.61068 0.71257 0.42686 0.0
H311 H 0.6052 0.69666 0.51194 0.0
H312 H 0.52571 0.6356 0.22846 0.0
H313 H 0.53516 0.60909 0.20705 0.0
H314 H 0.55904 0.6457 0.1949 0.0
C315 C 0.82723 0.53051 0.26887 0.0
C316 C 0.84223 0.5367 0.20639 0.0
C317 C 0.83961 0.52976 0.33605 0.0
C318 C 0.86751 0.53525 0.34046 0.0
C319 C 0.8825 0.54102 0.27729 0.0
C320 C 0.86978 0.54187 0.21145 0.0
C321 C 0.8229 0.52302 0.40203 0.0
C322 C 0.91222 0.54659 0.27909 0.0
C323 C 0.92222 0.56209 0.49607 0.0
C324 C 0.92571 0.53858 0.49924 0.0
C325 C 0.90023 0.5604 0.45131 0.0
C326 C 0.88156 0.53461 0.40987 0.0
C327 C 0.88238 0.50986 0.42315 0.0
C328 C 0.90471 0.51221 0.4673 0.0
C329 C 0.89956 0.58713 0.44042 0.0
C330 C 0.86233 0.48152 0.38322 0.0
H331 H 0.80587 0.52634 0.26527 0.0
H332 H 0.88182 0.54742 0.16414 0.0
H333 H 0.82077 0.50353 0.42303 0.0
H334 H 0.83405 0.54032 0.446 0.0
H335 H 0.80166 0.51993 0.38997 0.0
H336 H 0.92086 0.5507 0.22501 0.0
H337 H 0.92598 0.56513 0.31792 0.0
H338 H 0.91303 0.52813 0.29797 0.0
H339 H 0.93838 0.58245 0.52134 0.0
H340 H 0.90715 0.49386 0.47112 0.0
H341 H 0.87774 0.58276 0.43217 0.0
H342 H 0.91036 0.59621 0.39113 0.0
H343 H 0.91039 0.60317 0.48742 0.0
H344 H 0.8432 0.48049 0.35872 0.0
H345 H 0.85597 0.46468 0.42096 0.0
H346 H 0.87308 0.47696 0.33941 0.0
C347 C 0.33685 0.85873 0.26305 0.0
C348 C 0.33438 0.83237 0.24497 0.0
C349 C 0.3569 0.8778 0.3173 0.0
C350 C 0.37519 0.87047 0.35306 0.0
C351 C 0.37138 0.84308 0.33875 0.0
C352 C 0.35093 0.82429 0.28488 0.0
C353 C 0.35977 0.90649 0.33292 0.0
C354 C 0.39026 0.83441 0.37645 0.0
C355 C 0.44863 0.93186 0.39683 0.0
C356 C 0.4491 0.93821 0.47167 0.0
C357 C 0.42494 0.90939 0.35851 0.0
C358 C 0.40088 0.8928 0.39563 0.0
C359 C 0.40146 0.89828 0.47164 0.0
C360 C 0.42565 0.92091 0.50881 0.0
C361 C 0.42549 0.90386 0.27769 0.0
C362 C 0.37638 0.88118 0.51375 0.0
H363 H 0.32377 0.86481 0.23284 0.0
H364 H 0.34912 0.80394 0.27082 0.0
H365 H 0.36146 0.91177 0.39243 0.0
H366 H 0.37923 0.92281 0.31128 0.0
H367 H 0.34178 0.90756 0.3078 0.0
H368 H 0.38246 0.81143 0.36595 0.0
H369 H 0.41152 0.84623 0.35694 0.0
H370 H 0.39221 0.83977 0.43596 0.0
H371 H 0.4667 0.94479 0.36745 0.0
H372 H 0.42598 0.92521 0.56671 0.0
H373 H 0.40983 0.90732 0.24775 0.0
H374 H 0.41977 0.88154 0.2642 0.0
H375 H 0.44634 0.91778 0.25781 0.0
H376 H 0.36291 0.89087 0.5132 0.0
H377 H 0.38286 0.88108 0.5713 0.0
H378 H 0.36362 0.859 0.48982 0.0
C379 C 0.50693 0.3327 0.30587 0.0
C380 C 0.51655 0.33667 0.23636 0.0
C381 C 0.50726 0.35505 0.34801 0.0
C382 C 0.51683 0.38145 0.31868 0.0
C383 C 0.52898 0.38614 0.25139 0.0
C384 C 0.52912 0.36376 0.21163 0.0
C385 C 0.49526 0.34973 0.42118 0.0
C386 C 0.53904 0.41372 0.21752 0.0
C387 C 0.47721 0.41802 0.37827 0.0
C388 C 0.49676 0.43934 0.42908 0.0
C389 C 0.48412 0.39999 0.33899 0.0
C390 C 0.51076 0.40267 0.35349 0.0
C391 C 0.53097 0.42494 0.40256 0.0
C392 C 0.52387 0.44337 0.43881 0.0
C393 C 0.46248 0.3773 0.28427 0.0
C394 C 0.5593 0.42807 0.42089 0.0
H395 H 0.49726 0.31176 0.32488 0.0
H396 H 0.53676 0.36675 0.15782 0.0
H397 H 0.50864 0.36779 0.46175 0.0
H398 H 0.47422 0.34762 0.41692 0.0
H399 H 0.49319 0.3301 0.44126 0.0
H400 H 0.55167 0.41538 0.17079 0.0
H401 H 0.52065 0.41522 0.19777 0.0
H402 H 0.55176 0.43204 0.25786 0.0
H403 H 0.45625 0.41487 0.37115 0.0
H404 H 0.53889 0.45954 0.47924 0.0
H405 H 0.45517 0.35623 0.30442 0.0
H406 H 0.47178 0.37753 0.232 0.0
H407 H 0.44404 0.37997 0.27392 0.0
H408 H 0.55662 0.4102 0.45176 0.0
H409 H 0.57359 0.44815 0.45427 0.0
H410 H 0.56937 0.42721 0.37086 0.0
C411 C 0.50641 0.8569 0.01444 0.0
C412 C 0.52397 0.84725 0.98799 0.0
C413 C 0.50242 0.87673 0.979 0.0
C414 C 0.51534 0.88625 0.91387 0.0
C415 C 0.52992 0.87374 0.88194 0.0
C416 C 0.53436 0.85463 0.91979 0.0
C417 C 0.48687 0.88955 0.01543 0.0
C418 C 0.54297 0.88239 0.8108 0.0
C419 C 0.49991 0.93293 0.79878 0.0
C420 C 0.52469 0.95905 0.81335 0.0
C421 C 0.49599 0.90905 0.8327 0.0
C422 C 0.51696 0.91169 0.8842 0.0
C423 C 0.54089 0.93862 0.90355 0.0
C424 C 0.54476 0.96186 0.86673 0.0
C425 C 0.47056 0.88068 0.80913 0.0
C426 C 0.5632 0.94259 0.96042 0.0
H427 H 0.49765 0.85072 0.06624 0.0
H428 H 0.54788 0.84734 0.89855 0.0
H429 H 0.50225 0.91074 0.04208 0.0
H430 H 0.47327 0.89245 0.97535 0.0
H431 H 0.47381 0.87641 0.05752 0.0
H432 H 0.54932 0.86749 0.78744 0.0
H433 H 0.52818 0.88351 0.77068 0.0
H434 H 0.56184 0.90373 0.81959 0.0
H435 H 0.48454 0.93058 0.75655 0.0
H436 H 0.56392 0.98203 0.87785 0.0
H437 H 0.46049 0.8694 0.85689 0.0
H438 H 0.47711 0.86738 0.7777 0.0
H439 H 0.45484 0.88261 0.77451 0.0
H440 H 0.55356 0.93271 0.01022 0.0
H441 H 0.57867 0.96526 0.9753 0.0
H442 H 0.57453 0.93201 0.9396 0.0
C443 C 0.69213 0.56196 0.94625 0.0
C444 C 0.7028 0.54402 0.958 0.0
C445 C 0.67042 0.5544 0.89282 0.0
C446 C 0.65893 0.52807 0.85103 0.0
C447 C 0.67141 0.51109 0.85827 0.0
C448 C 0.69333 0.51928 0.91217 0.0
C449 C 0.65814 0.57343 0.88577 0.0
C450 C 0.66018 0.48328 0.81323 0.0
C451 C 0.58094 0.4963 0.82095 0.0
C452 C 0.57806 0.50422 0.75173 0.0
C453 C 0.60699 0.50214 0.85147 0.0
C454 C 0.63091 0.5163 0.8119 0.0
C455 C 0.62789 0.52232 0.73973 0.0
C456 C 0.60139 0.51613 0.71039 0.0
C457 C 0.60912 0.4949 0.92829 0.0
C458 C 0.65265 0.5369 0.6948 0.0
H459 H 0.69983 0.58124 0.98163 0.0
H460 H 0.70185 0.50558 0.9214 0.0
H461 H 0.65518 0.57623 0.82779 0.0
H462 H 0.63728 0.56356 0.90804 0.0
H463 H 0.67159 0.59457 0.91551 0.0
H464 H 0.67511 0.47529 0.81546 0.0
H465 H 0.64029 0.46734 0.83392 0.0
H466 H 0.65555 0.48539 0.75573 0.0
H467 H 0.56295 0.48642 0.85287 0.0
H468 H 0.59925 0.52158 0.65621 0.0
H469 H 0.62065 0.51464 0.96497 0.0
H470 H 0.62098 0.48353 0.93134 0.0
H471 H 0.58825 0.48157 0.94885 0.0
H472 H 0.66141 0.56008 0.70335 0.0
H473 H 0.64625 0.53051 0.63598 0.0
H474 H 0.66945 0.53226 0.71011 0.0
C475 C 0.17147 0.6662 0.94814 0.0
C476 C 0.17544 0.66241 0.02074 0.0
C477 C 0.14922 0.64455 0.90324 0.0
C478 C 0.13084 0.61879 0.93228 0.0
C479 C 0.13627 0.61415 0.00392 0.0
C480 C 0.1586 0.63612 0.04743 0.0
C481 C 0.14416 0.65005 0.82659 0.0
C482 C 0.11727 0.58693 0.03652 0.0
C483 C 0.05721 0.58537 0.84581 0.0
C484 C 0.05669 0.56521 0.79494 0.0
C485 C 0.0807 0.60173 0.89449 0.0
C486 C 0.10432 0.59821 0.89047 0.0
C487 C 0.10321 0.57664 0.84235 0.0
C488 C 0.0791 0.55999 0.79573 0.0
C489 C 0.08098 0.62417 0.9465 0.0
C490 C 0.12828 0.57278 0.83595 0.0
H491 H 0.18457 0.68663 0.92802 0.0
H492 H 0.16199 0.63331 0.10379 0.0
H493 H 0.14012 0.63199 0.7878 0.0
H494 H 0.12532 0.65234 0.82278 0.0
H495 H 0.16216 0.66959 0.80966 0.0
H496 H 0.12666 0.58518 0.08881 0.0
H497 H 0.09718 0.58598 0.04669 0.0
H498 H 0.1124 0.5684 0.99845 0.0
H499 H 0.03985 0.58933 0.8449 0.0
H500 H 0.07885 0.54465 0.75554 0.0
H501 H 0.09597 0.6454 0.93003 0.0
H502 H 0.08809 0.62284 0.00231 0.0
H503 H 0.06003 0.62227 0.9477 0.0
H504 H 0.14566 0.59184 0.81544 0.0
H505 H 0.12361 0.55418 0.79836 0.0
H506 H 0.13585 0.57044 0.89007 0.0
C507 C 0.45372 0.16023 0.97991 0.0
C508 C 0.44261 0.1586 0.04746 0.0
C509 C 0.44419 0.1359 0.93238 0.0
C510 C 0.42302 0.10968 0.95324 0.0
C511 C 0.40808 0.10915 0.01402 0.0
C512 C 0.41804 0.13384 0.0607 0.0
C513 C 0.4599 0.1376 0.86609 0.0
C514 C 0.38428 0.08186 0.03559 0.0
C515 C 0.41131 0.04838 0.82307 0.0
C516 C 0.43163 0.04261 0.85216 0.0
C517 C 0.40628 0.06855 0.8585 0.0
C518 C 0.42221 0.08351 0.92389 0.0
C519 C 0.4409 0.07594 0.95676 0.0
C520 C 0.44524 0.05545 0.9206 0.0
C521 C 0.38543 0.07513 0.82282 0.0
C522 C 0.45805 0.09107 0.02738 0.0
H523 H 0.47242 0.1794 0.96856 0.0
H524 H 0.40889 0.13277 0.1121 0.0
H525 H 0.47439 0.12953 0.87731 0.0
H526 H 0.44525 0.12434 0.81902 0.0
H527 H 0.47238 0.15966 0.85113 0.0
H528 H 0.37036 0.0858 0.07014 0.0
H529 H 0.37171 0.06755 0.98707 0.0
H530 H 0.39288 0.07092 0.06724 0.0
H531 H 0.40021 0.03813 0.77079 0.0
H532 H 0.4607 0.05091 0.94392 0.0
H533 H 0.39618 0.09169 0.78506 0.0
H534 H 0.37603 0.08301 0.86319 0.0
H535 H 0.3684 0.05616 0.79049 0.0
H536 H 0.47299 0.1135 0.01938 0.0
H537 H 0.47016 0.08136 0.04792 0.0
H538 H 0.44431 0.09088 0.06974 0.0
C539 C 0.3469 0.49149 0.0098 0.0
C540 C 0.3199 0.48799 0.00243 0.0
C541 C 0.36008 0.48824 0.94969 0.0
C542 C 0.34664 0.48253 0.87903 0.0
C543 C 0.32002 0.48036 0.87024 0.0
C544 C 0.30679 0.48273 0.93201 0.0
C545 C 0.38847 0.49079 0.96223 0.0
C546 C 0.30563 0.47569 0.79562 0.0
C547 C 0.40124 0.49929 0.74302 0.0
C548 C 0.39824 0.47262 0.72613 0.0
C549 C 0.38237 0.50249 0.78593 0.0
C550 C 0.36079 0.4786 0.81557 0.0
C551 C 0.35649 0.45137 0.7939 0.0
C552 C 0.37506 0.4487 0.7485 0.0
C553 C 0.38729 0.53185 0.80467 0.0
C554 C 0.33432 0.42535 0.82521 0.0
H555 H 0.35805 0.49691 0.06298 0.0
H556 H 0.28608 0.48016 0.92506 0.0
H557 H 0.38814 0.47179 0.9367 0.0
H558 H 0.4044 0.50937 0.9366 0.0
H559 H 0.39516 0.49326 0.0209 0.0
H560 H 0.28582 0.47621 0.79748 0.0
H561 H 0.31975 0.49218 0.76116 0.0
H562 H 0.30086 0.45498 0.76893 0.0
H563 H 0.41928 0.51786 0.72607 0.0
H564 H 0.37303 0.42813 0.73653 0.0
H565 H 0.40193 0.5415 0.8541 0.0
H566 H 0.36756 0.53158 0.81551 0.0
H567 H 0.39694 0.54552 0.76001 0.0
H568 H 0.34087 0.42557 0.88287 0.0
H569 H 0.33097 0.40559 0.79541 0.0
H570 H 0.31413 0.42509 0.82413 0.0
C571 C 0.8673 0.2859 0.96643 0.0
C572 C 0.84231 0.28653 0.96762 0.0
C573 C 0.88778 0.30223 0.91996 0.0
C574 C 0.88292 0.3194 0.87396 0.0
C575 C 0.85628 0.31726 0.86886 0.0
C576 C 0.83629 0.30088 0.91611 0.0
C577 C 0.91572 0.30359 0.92642 0.0
C578 C 0.85002 0.33484 0.81982 0.0
C579 C 0.94246 0.39289 0.84871 0.0
C580 C 0.94836 0.38987 0.77674 0.0
C581 C 0.92186 0.36982 0.88156 0.0
C582 C 0.90673 0.343 0.84155 0.0
C583 C 0.9133 0.33948 0.76998 0.0
C584 C 0.93402 0.36295 0.73841 0.0
C585 C 0.91563 0.37444 0.95841 0.0
C586 C 0.89773 0.31123 0.72578 0.0
H587 H 0.87209 0.27512 0.00713 0.0
H588 H 0.81705 0.30157 0.91783 0.0
H589 H 0.92402 0.30445 0.87237 0.0
H590 H 0.93098 0.32311 0.96031 0.0
H591 H 0.91431 0.28517 0.95232 0.0
H592 H 0.82726 0.32736 0.81323 0.0
H593 H 0.86105 0.35714 0.84349 0.0
H594 H 0.85765 0.33445 0.76541 0.0
H595 H 0.95344 0.41348 0.87903 0.0
H596 H 0.93841 0.36026 0.68282 0.0
H597 H 0.91708 0.35925 0.99295 0.0
H598 H 0.89393 0.37057 0.95878 0.0
H599 H 0.93019 0.39621 0.98326 0.0
H600 H 0.89681 0.29429 0.7577 0.0
H601 H 0.90754 0.31117 0.67451 0.0
H602 H 0.87585 0.30596 0.71189 0.0
C603 C 0.83678 0.50778 0.91556 0.0
C604 C 0.84272 0.53524 0.93771 0.0
C605 C 0.85258 0.50297 0.86468 0.0
C606 C 0.87538 0.52623 0.83641 0.0
C607 C 0.87999 0.55383 0.85424 0.0
C608 C 0.86349 0.55798 0.90436 0.0
C609 C 0.84643 0.47314 0.84637 0.0
C610 C 0.90408 0.57931 0.82615 0.0
C611 C 0.93846 0.51685 0.81624 0.0
C612 C 0.93792 0.51134 0.7409 0.0
C613 C 0.91875 0.52242 0.84698 0.0
C614 C 0.89739 0.5222 0.80167 0.0
C615 C 0.8969 0.51719 0.7252 0.0
C616 C 0.91731 0.51199 0.69561 0.0
C617 C 0.92065 0.52818 0.92857 0.0
C618 C 0.87442 0.51654 0.6749 0.0
H619 H 0.82071 0.49013 0.94112 0.0
H620 H 0.86836 0.57927 0.92178 0.0
H621 H 0.84772 0.46931 0.78745 0.0
H622 H 0.86227 0.4699 0.87621 0.0
H623 H 0.82537 0.45727 0.86161 0.0
H624 H 0.90182 0.59832 0.83356 0.0
H625 H 0.92389 0.58394 0.85616 0.0
H626 H 0.90589 0.57524 0.76773 0.0
H627 H 0.95454 0.5169 0.85182 0.0
H628 H 0.91667 0.50767 0.63745 0.0
H629 H 0.90176 0.51134 0.95103 0.0
H630 H 0.92145 0.54853 0.94261 0.0
H631 H 0.93939 0.52907 0.95574 0.0
H632 H 0.85389 0.49802 0.68395 0.0
H633 H 0.87842 0.5151 0.61681 0.0
H634 H 0.87277 0.5357 0.68674 0.0
C635 C 0.32022 0.85035 0.972 0.0
C636 C 0.31449 0.82248 0.9764 0.0
C637 C 0.3337 0.86576 0.91368 0.0
C638 C 0.34063 0.85268 0.85622 0.0
C639 C 0.33163 0.82351 0.85559 0.0
C640 C 0.31913 0.80886 0.91623 0.0
C641 C 0.34282 0.8968 0.91717 0.0
C642 C 0.33686 0.80816 0.79332 0.0
C643 C 0.37476 0.90389 0.71173 0.0
C644 C 0.40308 0.91635 0.73638 0.0
C645 C 0.35397 0.88086 0.74524 0.0
C646 C 0.3617 0.87086 0.8061 0.0
C647 C 0.39044 0.88172 0.82636 0.0
C648 C 0.41064 0.90381 0.7903 0.0
C649 C 0.32373 0.86865 0.71835 0.0
C650 C 0.39999 0.87195 0.89071 0.0
H651 H 0.31568 0.86079 0.01657 0.0
H652 H 0.31463 0.78728 0.91799 0.0
H653 H 0.36603 0.90956 0.92246 0.0
H654 H 0.33548 0.90174 0.86641 0.0
H655 H 0.33471 0.90346 0.96379 0.0
H656 H 0.32143 0.78516 0.78911 0.0
H657 H 0.3358 0.81666 0.74095 0.0
H658 H 0.35803 0.81085 0.8024 0.0
H659 H 0.36864 0.91309 0.66942 0.0
H660 H 0.43251 0.91279 0.80868 0.0
H661 H 0.31491 0.88033 0.74745 0.0
H662 H 0.31107 0.846 0.72806 0.0
H663 H 0.32176 0.87083 0.65936 0.0
H664 H 0.39158 0.87597 0.94074 0.0
H665 H 0.42316 0.88286 0.89979 0.0
H666 H 0.39188 0.84891 0.88256 0.0
C667 C 0.49414 0.31124 0.9404 0.0
C668 C 0.47598 0.29578 0.99211 0.0
C669 C 0.48746 0.32697 0.8946 0.0
C670 C 0.46205 0.32712 0.90105 0.0
C671 C 0.44227 0.30882 0.94711 0.0
C672 C 0.44948 0.29329 0.99209 0.0
C673 C 0.50895 0.34582 0.84529 0.0
C674 C 0.41484 0.30805 0.95525 0.0
C675 C 0.46684 0.39763 0.87424 0.0
C676 C 0.45482 0.3931 0.80304 0.0
C677 C 0.46858 0.37604 0.90731 0.0
C678 C 0.45813 0.34925 0.86824 0.0
C679 C 0.44495 0.34415 0.79761 0.0
C680 C 0.44339 0.36607 0.76595 0.0
C681 C 0.48248 0.38222 0.98333 0.0
C682 C 0.43348 0.3159 0.75436 0.0
H683 H 0.5148 0.31353 0.94127 0.0
H684 H 0.43562 0.28162 0.0329 0.0
H685 H 0.49888 0.34476 0.79124 0.0
H686 H 0.51922 0.36806 0.86917 0.0
H687 H 0.52536 0.34003 0.83788 0.0
H688 H 0.39988 0.28928 0.98227 0.0
H689 H 0.41874 0.3273 0.98872 0.0
H690 H 0.40502 0.30789 0.90166 0.0
H691 H 0.47569 0.41832 0.90351 0.0
H692 H 0.434 0.3622 0.71094 0.0
H693 H 0.50165 0.38051 0.9824 0.0
H694 H 0.46828 0.36643 0.01914 0.0
H695 H 0.4884 0.40366 0.00753 0.0
H696 H 0.45097 0.31236 0.7412 0.0
H697 H 0.42171 0.31453 0.70278 0.0
H698 H 0.41946 0.29856 0.7868 0.0
C699 C 0.18787 0.49157 0.9235 0.0
C700 C 0.17575 0.4744 0.98038 0.0
C701 C 0.17206 0.48793 0.85836 0.0
C702 C 0.14331 0.46728 0.85081 0.0
C703 C 0.1319 0.44782 0.90418 0.0
C704 C 0.14834 0.45147 0.96805 0.0
C705 C 0.18542 0.50811 0.80094 0.0
C706 C 0.1014 0.42521 0.89796 0.0
C707 C 0.09351 0.49059 0.78366 0.0
C708 C 0.08043 0.47268 0.71988 0.0
C709 C 0.11462 0.48963 0.82484 0.0
C710 C 0.12399 0.47104 0.80039 0.0
C711 C 0.11297 0.45492 0.73228 0.0
C712 C 0.09092 0.45561 0.69306 0.0
C713 C 0.1256 0.50736 0.89699 0.0
C714 C 0.12321 0.43582 0.70239 0.0
H715 H 0.20907 0.50928 0.93152 0.0
H716 H 0.13909 0.43741 0.0104 0.0
H717 H 0.17692 0.49728 0.74569 0.0
H718 H 0.18077 0.52556 0.80789 0.0
H719 H 0.20852 0.51749 0.80511 0.0
H720 H 0.09669 0.40951 0.93849 0.0
H721 H 0.08841 0.43519 0.9069 0.0
H722 H 0.09517 0.41397 0.84278 0.0
H723 H 0.08602 0.50432 0.80439 0.0
H724 H 0.08118 0.4419 0.64348 0.0
H725 H 0.14811 0.52314 0.89561 0.0
H726 H 0.12359 0.49388 0.94153 0.0
H727 H 0.11427 0.51878 0.91065 0.0
H728 H 0.14551 0.44394 0.72033 0.0
H729 H 0.12074 0.43336 0.64205 0.0
H730 H 0.11057 0.41457 0.72189 0.0
C731 C 0.67233 0.18571 0.01972 0.0
C732 C 0.69333 0.17893 0.03248 0.0
C733 C 0.65062 0.17027 0.9652 0.0
C734 C 0.64947 0.14695 0.9246 0.0
C735 C 0.67197 0.14166 0.93318 0.0
C736 C 0.69381 0.15793 0.98679 0.0
C737 C 0.62763 0.17731 0.95553 0.0
C738 C 0.67152 0.11695 0.89139 0.0
C739 C 0.57743 0.08222 0.8915 0.0
C740 C 0.57175 0.08083 0.81638 0.0
C741 C 0.60258 0.10369 0.92674 0.0
C742 C 0.62249 0.12485 0.88626 0.0
C743 C 0.61663 0.12414 0.81059 0.0
C744 C 0.5914 0.10187 0.77631 0.0
C745 C 0.60807 0.10327 0.00732 0.0
C746 C 0.63706 0.1464 0.76541 0.0
H747 H 0.67215 0.20214 0.05486 0.0
H748 H 0.71004 0.15264 0.99702 0.0
H749 H 0.62123 0.1757 0.89702 0.0
H750 H 0.60903 0.16197 0.98218 0.0
H751 H 0.63419 0.1989 0.97999 0.0
H752 H 0.69209 0.11797 0.89699 0.0
H753 H 0.65553 0.09699 0.91201 0.0
H754 H 0.66564 0.1161 0.83292 0.0
H755 H 0.56251 0.06592 0.92283 0.0
H756 H 0.58705 0.101 0.71829 0.0
H757 H 0.61103 0.12286 0.03696 0.0
H758 H 0.62759 0.10254 0.01774 0.0
H759 H 0.5907 0.08487 0.03029 0.0
H760 H 0.64735 0.16764 0.79557 0.0
H761 H 0.62666 0.14708 0.71355 0.0
H762 H 0.65362 0.14146 0.75189 0.0
C763 C 0.49559 0.65699 0.99744 0.0
C764 C 0.51439 0.68382 0.97559 0.0
C765 C 0.49218 0.6323 0.96034 0.0
C766 C 0.50653 0.63442 0.89728 0.0
C767 C 0.52181 0.66095 0.86852 0.0
C768 C 0.52599 0.68542 0.90865 0.0
C769 C 0.47596 0.60467 0.99393 0.0
C770 C 0.53601 0.66387 0.79879 0.0
C771 C 0.53841 0.58927 0.84673 0.0
C772 C 0.51931 0.57071 0.79057 0.0
C773 C 0.53312 0.60849 0.88649 0.0
C774 C 0.50894 0.61012 0.86663 0.0
C775 C 0.48893 0.59042 0.8123 0.0
C776 C 0.49408 0.57047 0.77605 0.0
C777 C 0.55428 0.62823 0.94673 0.0
C778 C 0.46334 0.59192 0.78819 0.0
H779 H 0.48562 0.65541 0.04767 0.0
H780 H 0.54033 0.70583 0.89039 0.0
H781 H 0.46528 0.58644 0.95232 0.0
H782 H 0.49076 0.60135 0.02852 0.0
H783 H 0.46013 0.60486 0.02884 0.0
H784 H 0.54241 0.68455 0.77703 0.0
H785 H 0.555 0.66217 0.80894 0.0
H786 H 0.52195 0.6467 0.75684 0.0
H787 H 0.55793 0.58948 0.85763 0.0
H788 H 0.47946 0.55635 0.73171 0.0
H789 H 0.54357 0.62937 0.99531 0.0
H790 H 0.56607 0.64983 0.92863 0.0
H791 H 0.56948 0.62146 0.9626 0.0
H792 H 0.45112 0.59096 0.83517 0.0
H793 H 0.44949 0.57457 0.74634 0.0
H794 H 0.46987 0.6124 0.76525 0.0
C795 C 0.50263 0.16816 0.33335 0.0
C796 C 0.50087 0.16456 0.25747 0.0
C797 C 0.50403 0.14818 0.3754 0.0
C798 C 0.50342 0.1241 0.34044 0.0
C799 C 0.50385 0.12169 0.26401 0.0
C800 C 0.50268 0.14199 0.22358 0.0
C801 C 0.5043 0.15185 0.45695 0.0
C802 C 0.50341 0.0966 0.22433 0.0
C803 C 0.51721 0.0763 0.45642 0.0
C804 C 0.48994 0.05604 0.47106 0.0
C805 C 0.52201 0.09818 0.41248 0.0
C806 C 0.49902 0.09997 0.38264 0.0
C807 C 0.47143 0.07872 0.39392 0.0
C808 C 0.46724 0.05708 0.43791 0.0
C809 C 0.55175 0.12009 0.40124 0.0
C810 C 0.44627 0.07934 0.36145 0.0
H811 H 0.50117 0.18555 0.35949 0.0
H812 H 0.50148 0.13932 0.16472 0.0
H813 H 0.48396 0.13556 0.47479 0.0
H814 H 0.52088 0.14883 0.48327 0.0
H815 H 0.50786 0.17304 0.47624 0.0
H816 H 0.50774 0.09985 0.16643 0.0
H817 H 0.51905 0.09224 0.25077 0.0
H818 H 0.4825 0.07757 0.2264 0.0
H819 H 0.53496 0.07587 0.48189 0.0
H820 H 0.44608 0.04149 0.44831 0.0
H821 H 0.55385 0.12635 0.34482 0.0
H822 H 0.56646 0.11233 0.41313 0.0
H823 H 0.55799 0.13928 0.43823 0.0
H824 H 0.44641 0.09862 0.38401 0.0
H825 H 0.42622 0.06057 0.37261 0.0
H826 H 0.44714 0.08025 0.30176 0.0
C827 C 0.33069 0.5091 0.31954 0.0
C828 C 0.3162 0.48514 0.26975 0.0
C829 C 0.35056 0.51098 0.37249 0.0
C830 C 0.35599 0.48839 0.37544 0.0
C831 C 0.33868 0.46276 0.33202 0.0
C832 C 0.31905 0.46148 0.27924 0.0
C833 C 0.36813 0.53847 0.41882 0.0
C834 C 0.34312 0.43782 0.33534 0.0
C835 C 0.43227 0.50883 0.39337 0.0
C836 C 0.43601 0.50359 0.46515 0.0
C837 C 0.40645 0.50425 0.36459 0.0
C838 C 0.38345 0.49396 0.40836 0.0
C839 C 0.38701 0.48894 0.48128 0.0
C840 C 0.41339 0.49411 0.50906 0.0
C841 C 0.40378 0.51016 0.28661 0.0
C842 C 0.36319 0.4783 0.53017 0.0
H843 H 0.32858 0.52748 0.31272 0.0
H844 H 0.30746 0.44271 0.24178 0.0
H845 H 0.37197 0.53454 0.47513 0.0
H846 H 0.38875 0.5506 0.39606 0.0
H847 H 0.35805 0.55166 0.42045 0.0
H848 H 0.32483 0.41804 0.30964 0.0
H849 H 0.36177 0.44186 0.30615 0.0
H850 H 0.34707 0.43472 0.39245 0.0
H851 H 0.44955 0.51635 0.35886 0.0
H852 H 0.41617 0.49051 0.56487 0.0
H853 H 0.39643 0.52562 0.28409 0.0
H854 H 0.38804 0.49044 0.25426 0.0
H855 H 0.42388 0.5187 0.26057 0.0
H856 H 0.36052 0.49617 0.55056 0.0
H857 H 0.36727 0.46906 0.57786 0.0
H858 H 0.3432 0.46216 0.5003 0.0
C859 C 0.84862 0.3278 0.27269 0.0
C860 C 0.83737 0.32805 0.20366 0.0
C861 C 0.86794 0.35308 0.31307 0.0
C862 C 0.87672 0.37913 0.28284 0.0
C863 C 0.86329 0.37971 0.21695 0.0
C864 C 0.84329 0.35412 0.17885 0.0
C865 C 0.88084 0.35168 0.3851 0.0
C866 C 0.87202 0.40695 0.18262 0.0
C867 C 0.92461 0.44315 0.41167 0.0
C868 C 0.95043 0.44486 0.40198 0.0
C869 C 0.90029 0.42276 0.37037 0.0
C870 C 0.90228 0.4048 0.31591 0.0
C871 C 0.9289 0.40885 0.30035 0.0
C872 C 0.95265 0.42841 0.34494 0.0
C873 C 0.8723 0.41871 0.38958 0.0
C874 C 0.932 0.3908 0.24078 0.0
H875 H 0.84427 0.30794 0.29284 0.0
H876 H 0.834 0.35453 0.12655 0.0
H877 H 0.90246 0.35599 0.37855 0.0
H878 H 0.88214 0.36795 0.42616 0.0
H879 H 0.86873 0.33059 0.40615 0.0
H880 H 0.85571 0.40472 0.14146 0.0
H881 H 0.87659 0.42446 0.22393 0.0
H882 H 0.89147 0.41294 0.15507 0.0
H883 H 0.92292 0.45571 0.45657 0.0
H884 H 0.97264 0.42974 0.33787 0.0
H885 H 0.85835 0.39661 0.40233 0.0
H886 H 0.86195 0.42253 0.34257 0.0
H887 H 0.87431 0.4331 0.4371 0.0
H888 H 0.92408 0.36917 0.25782 0.0
H889 H 0.95417 0.39949 0.22833 0.0
H890 H 0.91943 0.38901 0.19041 0.0
C891 C 0.60002 0.88494 0.22311 0.0
C892 C 0.57421 0.85998 0.22287 0.0
C893 C 0.60683 0.90819 0.27275 0.0
C894 C 0.58726 0.90612 0.3227 0.0
C895 C 0.56272 0.87978 0.32806 0.0
C896 C 0.55641 0.85698 0.27759 0.0
C897 C 0.63338 0.93574 0.26597 0.0
C898 C 0.54152 0.87652 0.38142 0.0
C899 C 0.59944 0.96266 0.47054 0.0
C900 C 0.58445 0.97449 0.4394 0.0
C901 C 0.60216 0.94152 0.4317 0.0
C902 C 0.58965 0.93204 0.36008 0.0
C903 C 0.57649 0.94546 0.32633 0.0
C904 C 0.57408 0.96654 0.3664 0.0
C905 C 0.61668 0.92802 0.46917 0.0
C906 C 0.56325 0.93621 0.24939 0.0
H907 H 0.61351 0.88729 0.17979 0.0
H908 H 0.53629 0.83772 0.27638 0.0
H909 H 0.62837 0.94955 0.2346 0.0
H910 H 0.64302 0.94708 0.32011 0.0
H911 H 0.64889 0.9324 0.23714 0.0
H912 H 0.52583 0.85398 0.38592 0.0
H913 H 0.55202 0.8864 0.43607 0.0
H914 H 0.53031 0.88745 0.36329 0.0
H915 H 0.60787 0.96883 0.52668 0.0
H916 H 0.56272 0.97569 0.34154 0.0
H917 H 0.63013 0.92446 0.43208 0.0
H918 H 0.60074 0.9071 0.48527 0.0
H919 H 0.62971 0.94111 0.51878 0.0
H920 H 0.57831 0.93567 0.21231 0.0
H921 H 0.55606 0.9504 0.22903 0.0
H922 H 0.54495 0.91449 0.24699 0.0
C923 C 0.69797 0.57027 0.22957 0.0
C924 C 0.71538 0.55847 0.22607 0.0
C925 C 0.68178 0.5671 0.28869 0.0
C926 C 0.68304 0.5519 0.34681 0.0
C927 C 0.70205 0.54158 0.34612 0.0
C928 C 0.718 0.54494 0.2856 0.0
C929 C 0.66207 0.5787 0.28672 0.0
C930 C 0.70448 0.52569 0.40729 0.0
C931 C 0.64511 0.56094 0.50479 0.0
C932 C 0.61774 0.53856 0.48637 0.0
C933 C 0.66746 0.5642 0.46403 0.0
C934 C 0.6623 0.54472 0.40337 0.0
C935 C 0.6353 0.52055 0.38966 0.0
C936 C 0.61346 0.51776 0.43127 0.0
C937 C 0.69603 0.58984 0.48212 0.0
C938 C 0.62869 0.49892 0.32648 0.0
H939 H 0.69619 0.58114 0.18425 0.0
H940 H 0.73141 0.53578 0.28328 0.0
H941 H 0.6401 0.561 0.28296 0.0
H942 H 0.66541 0.59215 0.33749 0.0
H943 H 0.66479 0.59143 0.23985 0.0
H944 H 0.7238 0.52422 0.40634 0.0
H945 H 0.70444 0.53596 0.46073 0.0
H946 H 0.68619 0.50394 0.40219 0.0
H947 H 0.64876 0.57706 0.54751 0.0
H948 H 0.5925 0.50013 0.41722 0.0
H949 H 0.69931 0.60602 0.44419 0.0
H950 H 0.71271 0.58441 0.47566 0.0
H951 H 0.69825 0.59929 0.53848 0.0
H952 H 0.62863 0.50829 0.27486 0.0
H953 H 0.60793 0.47964 0.32881 0.0
H954 H 0.64491 0.49266 0.32519 0.0
C955 C 0.16334 0.71864 0.24858 0.0
C956 C 0.18524 0.71273 0.2547 0.0
C957 C 0.14011 0.70533 0.28993 0.0
C958 C 0.13897 0.68583 0.33862 0.0
C959 C 0.16286 0.68305 0.35236 0.0
C960 C 0.18583 0.69665 0.31018 0.0
C961 C 0.11542 0.70941 0.27452 0.0
C962 C 0.16282 0.66295 0.40489 0.0
C963 C 0.07896 0.64846 0.45931 0.0
C964 C 0.06272 0.62191 0.41982 0.0
C965 C 0.10328 0.66995 0.4326 0.0
C966 C 0.11162 0.66486 0.36473 0.0
C967 C 0.09449 0.63876 0.32269 0.0
C968 C 0.07028 0.61766 0.35066 0.0
C969 C 0.12076 0.69751 0.47879 0.0
C970 C 0.10243 0.63258 0.2494 0.0
H971 H 0.16277 0.73087 0.20512 0.0
H972 H 0.20257 0.69179 0.31439 0.0
H973 H 0.09948 0.69138 0.23742 0.0
H974 H 0.1055 0.70997 0.32511 0.0
H975 H 0.1216 0.7292 0.24811 0.0
H976 H 0.18423 0.66672 0.41844 0.0
H977 H 0.15375 0.66492 0.45586 0.0
H978 H 0.14964 0.64091 0.38019 0.0
H979 H 0.07338 0.65214 0.51273 0.0
H980 H 0.05797 0.59736 0.31949 0.0
H981 H 0.12728 0.71572 0.44558 0.0
H982 H 0.14008 0.69847 0.50179 0.0
H983 H 0.10937 0.69985 0.52443 0.0
H984 H 0.10586 0.6494 0.21352 0.0
H985 H 0.08616 0.6119 0.22188 0.0
H986 H 0.12237 0.63238 0.25605 0.0
loop_
_geom_bond_atom_site_label_1
_geom_bond_atom_site_label_2
_geom_bond_distance
_geom_bond_site_symmetry_2
_ccdc_geom_bond_type
H0 C8 0.930 . S
H1 C11 0.930 . S
H2 C13 0.930 . S
H3 C14 0.970 . S
H4 C14 0.970 . S
H5 C16 0.930 . S
H6 C18 0.930 . S
H7 C20 0.930 . S
C8 H0 0.930 . S
C8 C9 1.382 . S
C8 C10 1.426 . S
C9 C8 1.382 . S
C9 C13 1.389 . S
C10 C8 1.426 . S
C10 C11 1.375 . S
C10 C14 1.532 . S
C11 H1 0.930 . S
C11 C10 1.375 . S
C11 C12 1.416 . S
C12 C11 1.416 . S
C12 C13 1.371 . S
C13 H2 0.930 . S
C13 C9 1.389 . S
C13 C12 1.371 . S
C14 H3 0.970 . S
C14 H4 0.970 . S
C14 C10 1.532 . S
C14 C15 1.499 . S
C15 C14 1.499 . S
C15 C16 1.370 . S
C15 C20 1.415 . S
C16 H5 0.930 . S
C16 C15 1.370 . S
C16 C17 1.407 . S
C17 C16 1.407 . S
C17 C18 1.365 . S
C18 H6 0.930 . S
C18 C17 1.365 . S
C18 C19 1.393 . S
C19 C18 1.393 . S
C19 C20 1.387 . S
C20 H7 0.930 . S
C20 C15 1.415 . S
C20 C19 1.387 . S
H21 C29 0.930 . S
H22 C32 0.930 . S
H23 C34 0.930 . S
H24 C35 0.970 . S
H25 C35 0.970 . S
H26 C37 0.930 . S
H27 C39 0.930 . S
H28 C41 0.930 . S
C29 H21 0.930 . S
C29 C30 1.382 . S
C29 C31 1.426 . S
C30 C29 1.382 . S
C30 C34 1.389 . S
C31 C29 1.426 . S
C31 C32 1.375 . S
C31 C35 1.532 . S
C32 H22 0.930 . S
C32 C31 1.375 . S
C32 C33 1.416 . S
C33 C32 1.416 . S
C33 C34 1.371 . S
C34 H23 0.930 . S
C34 C30 1.389 . S
C34 C33 1.371 . S
C35 H24 0.970 . S
C35 H25 0.970 . S
C35 C31 1.532 . S
C35 C36 1.499 . S
C36 C35 1.499 . S
C36 C37 1.370 . S
C36 C41 1.415 . S
C37 H26 0.930 . S
C37 C36 1.370 . S
C37 C38 1.407 . S
C38 C37 1.407 . S
C38 C39 1.365 . S
C39 H27 0.930 . S
C39 C38 1.365 . S
C39 C40 1.393 . S
C40 C39 1.393 . S
C40 C41 1.387 . S
C41 H28 0.930 . S
C41 C36 1.415 . S
C41 C40 1.387 . S
H42 C50 0.930 . S
H43 C53 0.930 . S
H44 C55 0.930 . S
H45 C56 0.970 1_556 S
H46 C56 0.970 . S
H47 C58 0.930 . S
H48 C60 0.930 . S
H49 C62 0.930 . S
C50 H42 0.930 . S
C50 C51 1.382 . S
C50 C52 1.426 1_556 S
C51 C50 1.382 . S
C51 C55 1.389 1_556 S
C52 C50 1.426 1_554 S
C52 C53 1.375 . S
C52 C56 1.532 . S
C53 H43 0.930 . S
C53 C52 1.375 . S
C53 C54 1.416 . S
C54 C53 1.416 . S
C54 C55 1.371 . S
C55 H44 0.930 . S
C55 C51 1.389 1_554 S
C55 C54 1.371 . S
C56 H45 0.970 1_554 S
C56 H46 0.970 . S
C56 C52 1.532 . S
C56 C57 1.499 . S
C57 C56 1.499 . S
C57 C58 1.370 1_554 S
C57 C62 1.415 . S
C58 H47 0.930 . S
C58 C57 1.370 1_556 S
C58 C59 1.407 . S
C59 C58 1.407 . S
C59 C60 1.365 1_556 S
C60 H48 0.930 . S
C60 C59 1.365 1_554 S
C60 C61 1.393 . S
C61 C60 1.393 . S
C61 C62 1.387 . S
C62 H49 0.930 . S
C62 C57 1.415 . S
C62 C61 1.387 . S
H63 C71 0.930 1_556 S
H64 C74 0.930 . S
H65 C76 0.930 . S
H66 C77 0.970 . S
H67 C77 0.970 . S
H68 C79 0.930 1_556 S
H69 C81 0.930 . S
H70 C83 0.930 . S
C71 H63 0.930 1_554 S
C71 C72 1.382 1_554 S
C71 C73 1.426 . S
C72 C71 1.382 1_556 S
C72 C76 1.389 1_556 S
C73 C71 1.426 . S
C73 C74 1.375 . S
C73 C77 1.532 . S
C74 H64 0.930 . S
C74 C73 1.375 . S
C74 C75 1.416 . S
C75 C74 1.416 . S
C75 C76 1.371 . S
C76 H65 0.930 . S
C76 C72 1.389 1_554 S
C76 C75 1.371 . S
C77 H66 0.970 . S
C77 H67 0.970 . S
C77 C73 1.532 . S
C77 C78 1.499 . S
C78 C77 1.499 . S
C78 C79 1.370 . S
C78 C83 1.415 . S
C79 H68 0.930 1_554 S
C79 C78 1.370 . S
C79 C80 1.407 . S
C80 C79 1.407 . S
C80 C81 1.365 . S
C81 H69 0.930 . S
C81 C80 1.365 . S
C81 C82 1.393 . S
C82 C81 1.393 . S
C82 C83 1.387 . S
C83 H70 0.930 . S
C83 C78 1.415 . S
C83 C82 1.387 . S
H84 C92 0.930 1_556 S
H85 C95 0.930 . S
H86 C97 0.930 . S
H87 C98 0.970 . S
H88 C98 0.970 . S
H89 C100 0.930 1_556 S
H90 C102 0.930 . S
H91 C104 0.930 . S
C92 H84 0.930 1_554 S
C92 C93 1.382 . S
C92 C94 1.426 . S
C93 C92 1.382 . S
C93 C97 1.389 . S
C94 C92 1.426 . S
C94 C95 1.375 . S
C94 C98 1.532 . S
C95 H85 0.930 . S
C95 C94 1.375 . S
C95 C96 1.416 . S
C96 C95 1.416 . S
C96 C97 1.371 . S
C97 H86 0.930 . S
C97 C93 1.389 . S
C97 C96 1.371 . S
C98 H87 0.970 . S
C98 H88 0.970 . S
C98 C94 1.532 . S
C98 C99 1.499 . S
C99 C98 1.499 . S
C99 C100 1.370 . S
C99 C104 1.415 . S
C100 H89 0.930 1_554 S
C100 C99 1.370 . S
C100 C101 1.407 . S
C101 C100 1.407 . S
C101 C102 1.365 . S
C102 H90 0.930 . S
C102 C101 1.365 . S
C102 C103 1.393 . S
C103 C102 1.393 . S
C103 C104 1.387 . S
C104 H91 0.930 . S
C104 C99 1.415 . S
C104 C103 1.387 . S
H105 C113 0.930 . S
H106 C116 0.930 . S
H107 C118 0.930 . S
H108 C119 0.970 . S
H109 C119 0.970 . S
H110 C121 0.930 . S
H111 C123 0.930 . S
H112 C125 0.930 . S
C113 H105 0.930 . S
C113 C114 1.382 . S
C113 C115 1.426 . S
C114 C113 1.382 . S
C114 C118 1.389 . S
C115 C113 1.426 . S
C115 C116 1.375 . S
C115 C119 1.532 . S
C116 H106 0.930 . S
C116 C115 1.375 . S
C116 C117 1.416 . S
C117 C116 1.416 . S
C117 C118 1.371 . S
C118 H107 0.930 . S
C118 C114 1.389 . S
C118 C117 1.371 . S
C119 H108 0.970 . S
C119 H109 0.970 . S
C119 C115 1.532 . S
C119 C120 1.499 . S
C120 C119 1.499 . S
C120 C121 1.370 . S
C120 C125 1.415 . S
C121 H110 0.930 . S
C121 C120 1.370 . S
C121 C122 1.407 . S
C122 C121 1.407 . S
C122 C123 1.365 . S
C123 H111 0.930 . S
C123 C122 1.365 . S
C123 C124 1.393 . S
C124 C123 1.393 . S
C124 C125 1.387 . S
C125 H112 0.930 . S
C125 C120 1.415 . S
C125 C124 1.387 . S
C126 O138 1.241 . S
C126 O139 1.280 . S
C127 O140 1.277 . S
C127 O141 1.245 . S
C128 O152 1.247 . S
C128 O154 1.289 . S
Mg129 O130 1.926 . S
Mg129 O139 1.984 . S
Mg129 O141 1.988 1_655 S
Mg129 O142 2.061 . S
O130 Mg129 1.926 . S
O130 Mg131 1.986 1_655 S
O130 Mg132 1.917 1_655 S
Mg131 O130 1.986 1_455 S
Mg131 O138 2.042 1_455 S
Mg131 O140 2.041 . S
Mg131 O146 2.038 1_455 S
Mg131 O154 2.238 . S
Mg132 O130 1.917 1_455 S
Mg132 O133 1.917 . S
Mg132 O143 2.106 1_455 S
Mg132 O145 2.079 1_455 S
Mg132 O154 2.106 . S
Mg132 O155 2.079 . S
O133 Mg132 1.917 . S
O133 Mg134 1.926 . S
O133 Mg135 1.986 . S
Mg134 O133 1.926 . S
Mg134 O148 1.984 . S
Mg134 O151 1.988 1_455 S
Mg134 O152 2.061 . S
Mg135 O133 1.986 . S
Mg135 O143 2.238 1_455 S
Mg135 O147 2.042 . S
Mg135 O149 2.041 1_455 S
Mg135 O156 2.038 . S
C136 O142 1.247 . S
C136 O143 1.289 . S
C137 O155 1.245 . S
C137 O156 1.274 . S
O138 C126 1.241 . S
O138 Mg131 2.042 1_655 S
O139 C126 1.280 . S
O139 Mg129 1.984 . S
O140 C127 1.277 . S
O140 Mg131 2.041 . S
O141 C127 1.245 . S
O141 Mg129 1.988 1_455 S
O142 Mg129 2.061 . S
O142 C136 1.247 . S
O143 Mg132 2.106 1_655 S
O143 Mg135 2.238 1_655 S
O143 C136 1.289 . S
C144 O145 1.245 . S
C144 O146 1.274 . S
O145 Mg132 2.079 1_655 S
O145 C144 1.245 . S
O146 Mg131 2.038 1_655 S
O146 C144 1.274 . S
O147 Mg135 2.042 . S
O147 C150 1.241 . S
O148 Mg134 1.984 . S
O148 C150 1.280 . S
O149 Mg135 2.041 1_655 S
O149 C153 1.277 . S
C150 O147 1.241 . S
C150 O148 1.280 . S
O151 Mg134 1.988 1_655 S
O151 C153 1.245 . S
O152 C128 1.247 . S
O152 Mg134 2.061 . S
C153 O149 1.277 . S
C153 O151 1.245 . S
O154 C128 1.289 . S
O154 Mg131 2.238 . S
O154 Mg132 2.106 . S
O155 Mg132 2.079 . S
O155 C137 1.245 . S
O156 Mg135 2.038 . S
O156 C137 1.274 . S
C157 O169 1.241 . S
C157 O170 1.280 . S
C158 O171 1.277 . S
C158 O172 1.245 . S
C159 O183 1.247 . S
C159 O185 1.289 . S
Mg160 O161 1.926 . S
Mg160 O170 1.984 . S
Mg160 O172 1.988 1_545 S
Mg160 O173 2.061 . S
O161 Mg160 1.926 . S
O161 Mg162 1.986 . S
O161 Mg163 1.917 . S
Mg162 O161 1.986 . S
Mg162 O169 2.042 . S
Mg162 O171 2.041 1_545 S
Mg162 O177 2.038 . S
Mg162 O185 2.238 1_545 S
Mg163 O161 1.917 . S
Mg163 O164 1.917 1_545 S
Mg163 O174 2.106 . S
Mg163 O176 2.079 . S
Mg163 O185 2.106 1_545 S
Mg163 O186 2.079 1_545 S
O164 Mg163 1.917 1_565 S
O164 Mg165 1.926 . S
O164 Mg166 1.986 1_565 S
Mg165 O164 1.926 . S
Mg165 O179 1.984 . S
Mg165 O182 1.988 1_565 S
Mg165 O183 2.061 . S
Mg166 O164 1.986 1_545 S
Mg166 O174 2.238 . S
Mg166 O178 2.042 1_545 S
Mg166 O180 2.041 . S
Mg166 O187 2.038 1_545 S
C167 O173 1.247 . S
C167 O174 1.289 . S
C168 O186 1.245 . S
C168 O187 1.274 . S
O169 C157 1.241 . S
O169 Mg162 2.042 . S
O170 C157 1.280 . S
O170 Mg160 1.984 . S
O171 C158 1.277 . S
O171 Mg162 2.041 1_565 S
O172 C158 1.245 . S
O172 Mg160 1.988 1_565 S
O173 Mg160 2.061 . S
O173 C167 1.247 . S
O174 Mg163 2.106 . S
O174 Mg166 2.238 . S
O174 C167 1.289 . S
C175 O176 1.245 . S
C175 O177 1.274 . S
O176 Mg163 2.079 . S
O176 C175 1.245 . S
O177 Mg162 2.038 . S
O177 C175 1.274 . S
O178 Mg166 2.042 1_565 S
O178 C181 1.241 . S
O179 Mg165 1.984 . S
O179 C181 1.280 . S
O180 Mg166 2.041 . S
O180 C184 1.277 . S
C181 O178 1.241 . S
C181 O179 1.280 . S
O182 Mg165 1.988 1_545 S
O182 C184 1.245 . S
O183 C159 1.247 . S
O183 Mg165 2.061 . S
C184 O180 1.277 . S
C184 O182 1.245 . S
O185 C159 1.289 . S
O185 Mg162 2.238 1_565 S
O185 Mg163 2.106 1_565 S
O186 Mg163 2.079 1_565 S
O186 C168 1.245 . S
O187 Mg166 2.038 1_565 S
O187 C168 1.274 . S
C188 O200 1.241 . S
C188 O201 1.280 . S
C189 O202 1.277 . S
C189 O203 1.245 . S
C190 O214 1.247 . S
C190 O216 1.289 . S
Mg191 O192 1.926 . S
Mg191 O201 1.984 . S
Mg191 O203 1.988 . S
Mg191 O204 2.061 . S
O192 Mg191 1.926 . S
O192 Mg193 1.986 . S
O192 Mg194 1.917 . S
Mg193 O192 1.986 . S
Mg193 O200 2.042 . S
Mg193 O202 2.041 . S
Mg193 O208 2.038 . S
Mg193 O216 2.238 . S
Mg194 O192 1.917 . S
Mg194 O195 1.917 . S
Mg194 O205 2.106 . S
Mg194 O207 2.079 . S
Mg194 O216 2.106 . S
Mg194 O217 2.079 . S
O195 Mg194 1.917 . S
O195 Mg196 1.926 . S
O195 Mg197 1.986 . S
Mg196 O195 1.926 . S
Mg196 O210 1.984 . S
Mg196 O213 1.988 . S
Mg196 O214 2.061 . S
Mg197 O195 1.986 . S
Mg197 O205 2.238 . S
Mg197 O209 2.042 . S
Mg197 O211 2.041 . S
Mg197 O218 2.038 . S
C198 O204 1.247 . S
C198 O205 1.289 . S
C199 O217 1.245 . S
C199 O218 1.274 . S
O200 C188 1.241 . S
O200 Mg193 2.042 . S
O201 C188 1.280 . S
O201 Mg191 1.984 . S
O202 C189 1.277 . S
O202 Mg193 2.041 . S
O203 C189 1.245 . S
O203 Mg191 1.988 . S
O204 Mg191 2.061 . S
O204 C198 1.247 . S
O205 Mg194 2.106 . S
O205 Mg197 2.238 . S
O205 C198 1.289 . S
C206 O207 1.245 . S
C206 O208 1.274 . S
O207 Mg194 2.079 . S
O207 C206 1.245 . S
O208 Mg193 2.038 . S
O208 C206 1.274 . S
O209 Mg197 2.042 . S
O209 C212 1.241 . S
O210 Mg196 1.984 . S
O210 C212 1.280 . S
O211 Mg197 2.041 . S
O211 C215 1.277 . S
C212 O209 1.241 . S
C212 O210 1.280 . S
O213 Mg196 1.988 . S
O213 C215 1.245 . S
O214 C190 1.247 . S
O214 Mg196 2.061 . S
C215 O211 1.277 . S
C215 O213 1.245 . S
O216 C190 1.289 . S
O216 Mg193 2.238 . S
O216 Mg194 2.106 . S
O217 Mg194 2.079 . S
O217 C199 1.245 . S
O218 Mg197 2.038 . S
O218 C199 1.274 . S
C219 C220 1.391 . S
C219 C221 1.394 . S
C219 H235 0.931 . S
C220 C219 1.391 . S
C220 C224 1.376 . S
C221 C219 1.394 . S
C221 C222 1.369 . S
C221 C225 1.531 . S
C222 C221 1.369 . S
C222 C223 1.410 . S
C222 C230 1.503 . S
C223 C222 1.410 . S
C223 C224 1.392 . S
C223 C226 1.511 . S
C224 C220 1.376 . S
C224 C223 1.392 . S
C224 H236 0.929 . S
C225 C221 1.531 . S
C225 H237 0.960 . S
C225 H238 0.962 . S
C225 H239 0.960 . S
C226 C223 1.511 . S
C226 H240 0.961 . S
C226 H241 0.961 . S
C226 H242 0.961 . S
C227 C228 1.370 . S
C227 C229 1.363 . S
C227 H243 0.931 . S
C228 C227 1.370 . S
C228 C232 1.408 . S
C229 C227 1.363 . S
C229 C230 1.370 . S
C229 C233 1.524 . S
C230 C222 1.503 . S
C230 C229 1.370 . S
C230 C231 1.403 . S
C231 C230 1.403 . S
C231 C232 1.404 . S
C231 C234 1.539 . S
C232 C228 1.408 . S
C232 C231 1.404 . S
C232 H244 0.930 . S
C233 C229 1.524 . S
C233 H245 0.956 . S
C233 H246 0.961 . S
C233 H247 0.961 . S
C234 C231 1.539 . S
C234 H248 0.958 . S
C234 H249 0.961 . S
C234 H250 0.960 . S
H235 C219 0.931 . S
H236 C224 0.929 . S
H237 C225 0.960 . S
H238 C225 0.962 . S
H239 C225 0.960 . S
H240 C226 0.961 . S
H241 C226 0.961 . S
H242 C226 0.961 . S
H243 C227 0.931 . S
H244 C232 0.930 . S
H245 C233 0.956 . S
H246 C233 0.961 . S
H247 C233 0.961 . S
H248 C234 0.958 . S
H249 C234 0.961 . S
H250 C234 0.960 . S
C251 C252 1.391 . S
C251 C253 1.394 . S
C251 H267 0.931 . S
C252 C251 1.391 . S
C252 C256 1.376 . S
C253 C251 1.394 . S
C253 C254 1.369 . S
C253 C257 1.531 . S
C254 C253 1.369 . S
C254 C255 1.410 . S
C254 C262 1.503 . S
C255 C254 1.410 . S
C255 C256 1.392 . S
C255 C258 1.511 . S
C256 C252 1.376 . S
C256 C255 1.392 . S
C256 H268 0.929 . S
C257 C253 1.531 . S
C257 H269 0.960 . S
C257 H270 0.962 . S
C257 H271 0.960 . S
C258 C255 1.511 . S
C258 H272 0.961 . S
C258 H273 0.961 . S
C258 H274 0.961 . S
C259 C260 1.370 . S
C259 C261 1.363 . S
C259 H275 0.931 . S
C260 C259 1.370 . S
C260 C264 1.408 . S
C261 C259 1.363 . S
C261 C262 1.370 . S
C261 C265 1.524 . S
C262 C254 1.503 . S
C262 C261 1.370 . S
C262 C263 1.403 . S
C263 C262 1.403 . S
C263 C264 1.404 . S
C263 C266 1.539 . S
C264 C260 1.408 . S
C264 C263 1.404 . S
C264 H276 0.930 . S
C265 C261 1.524 . S
C265 H277 0.956 . S
C265 H278 0.961 . S
C265 H279 0.961 . S
C266 C263 1.539 . S
C266 H280 0.958 . S
C266 H281 0.961 . S
C266 H282 0.960 . S
H267 C251 0.931 . S
H268 C256 0.929 . S
H269 C257 0.960 . S
H270 C257 0.962 . S
H271 C257 0.960 . S
H272 C258 0.961 . S
H273 C258 0.961 . S
H274 C258 0.961 . S
H275 C259 0.931 . S
H276 C264 0.930 . S
H277 C265 0.956 . S
H278 C265 0.961 . S
H279 C265 0.961 . S
H280 C266 0.958 . S
H281 C266 0.961 . S
H282 C266 0.960 . S
C283 C284 1.391 . S
C283 C285 1.394 . S
C283 H299 0.931 . S
C284 C283 1.391 . S
C284 C288 1.376 . S
C285 C283 1.394 . S
C285 C286 1.369 . S
C285 C289 1.531 . S
C286 C285 1.369 . S
C286 C287 1.410 . S
C286 C294 1.503 . S
C287 C286 1.410 . S
C287 C288 1.392 . S
C287 C290 1.511 . S
C288 C284 1.376 . S
C288 C287 1.392 . S
C288 H300 0.929 . S
C289 C285 1.531 . S
C289 H301 0.960 . S
C289 H302 0.962 . S
C289 H303 0.960 . S
C290 C287 1.511 . S
C290 H304 0.961 . S
C290 H305 0.961 . S
C290 H306 0.961 . S
C291 C292 1.370 . S
C291 C293 1.363 . S
C291 H307 0.931 . S
C292 C291 1.370 . S
C292 C296 1.408 . S
C293 C291 1.363 . S
C293 C294 1.370 . S
C293 C297 1.524 . S
C294 C286 1.503 . S
C294 C293 1.370 . S
C294 C295 1.403 . S
C295 C294 1.403 . S
C295 C296 1.404 . S
C295 C298 1.539 . S
C296 C292 1.408 . S
C296 C295 1.404 . S
C296 H308 0.930 . S
C297 C293 1.524 . S
C297 H309 0.956 . S
C297 H310 0.961 . S
C297 H311 0.961 . S
C298 C295 1.539 . S
C298 H312 0.958 . S
C298 H313 0.961 . S
C298 H314 0.960 . S
H299 C283 0.931 . S
H300 C288 0.929 . S
H301 C289 0.960 . S
H302 C289 0.962 . S
H303 C289 0.960 . S
H304 C290 0.961 . S
H305 C290 0.961 . S
H306 C290 0.961 . S
H307 C291 0.931 . S
H308 C296 0.930 . S
H309 C297 0.956 . S
H310 C297 0.961 . S
H311 C297 0.961 . S
H312 C298 0.958 . S
H313 C298 0.961 . S
H314 C298 0.960 . S
C315 C316 1.391 . S
C315 C317 1.394 . S
C315 H331 0.931 . S
C316 C315 1.391 . S
C316 C320 1.376 . S
C317 C315 1.394 . S
C317 C318 1.369 . S
C317 C321 1.531 . S
C318 C317 1.369 . S
C318 C319 1.410 . S
C318 C326 1.503 . S
C319 C318 1.410 . S
C319 C320 1.392 . S
C319 C322 1.511 . S
C320 C316 1.376 . S
C320 C319 1.392 . S
C320 H332 0.929 . S
C321 C317 1.531 . S
C321 H333 0.960 . S
C321 H334 0.962 . S
C321 H335 0.960 . S
C322 C319 1.511 . S
C322 H336 0.961 . S
C322 H337 0.961 . S
C322 H338 0.961 . S
C323 C324 1.370 . S
C323 C325 1.363 . S
C323 H339 0.931 . S
C324 C323 1.370 . S
C324 C328 1.408 . S
C325 C323 1.363 . S
C325 C326 1.370 . S
C325 C329 1.524 . S
C326 C318 1.503 . S
C326 C325 1.370 . S
C326 C327 1.403 . S
C327 C326 1.403 . S
C327 C328 1.404 . S
C327 C330 1.539 . S
C328 C324 1.408 . S
C328 C327 1.404 . S
C328 H340 0.930 . S
C329 C325 1.524 . S
C329 H341 0.956 . S
C329 H342 0.961 . S
C329 H343 0.961 . S
C330 C327 1.539 . S
C330 H344 0.958 . S
C330 H345 0.961 . S
C330 H346 0.960 . S
H331 C315 0.931 . S
H332 C320 0.929 . S
H333 C321 0.960 . S
H334 C321 0.962 . S
H335 C321 0.960 . S
H336 C322 0.961 . S
H337 C322 0.961 . S
H338 C322 0.961 . S
H339 C323 0.931 . S
H340 C328 0.930 . S
H341 C329 0.956 . S
H342 C329 0.961 . S
H343 C329 0.961 . S
H344 C330 0.958 . S
H345 C330 0.961 . S
H346 C330 0.960 . S
C347 C348 1.391 . S
C347 C349 1.394 . S
C347 H363 0.931 . S
C348 C347 1.391 . S
C348 C352 1.376 . S
C349 C347 1.394 . S
C349 C350 1.369 . S
C349 C353 1.531 . S
C350 C349 1.369 . S
C350 C351 1.410 . S
C350 C358 1.503 . S
C351 C350 1.410 . S
C351 C352 1.392 . S
C351 C354 1.511 . S
C352 C348 1.376 . S
C352 C351 1.392 . S
C352 H364 0.929 . S
C353 C349 1.531 . S
C353 H365 0.960 . S
C353 H366 0.962 . S
C353 H367 0.960 . S
C354 C351 1.511 . S
C354 H368 0.961 . S
C354 H369 0.961 . S
C354 H370 0.961 . S
C355 C356 1.370 . S
C355 C357 1.363 . S
C355 H371 0.931 . S
C356 C355 1.370 . S
C356 C360 1.408 . S
C357 C355 1.363 . S
C357 C358 1.370 . S
C357 C361 1.524 . S
C358 C350 1.503 . S
C358 C357 1.370 . S
C358 C359 1.403 . S
C359 C358 1.403 . S
C359 C360 1.404 . S
C359 C362 1.539 . S
C360 C356 1.408 . S
C360 C359 1.404 . S
C360 H372 0.930 . S
C361 C357 1.524 . S
C361 H373 0.956 . S
C361 H374 0.961 . S
C361 H375 0.961 . S
C362 C359 1.539 . S
C362 H376 0.958 . S
C362 H377 0.961 . S
C362 H378 0.960 . S
H363 C347 0.931 . S
H364 C352 0.929 . S
H365 C353 0.960 . S
H366 C353 0.962 . S
H367 C353 0.960 . S
H368 C354 0.961 . S
H369 C354 0.961 . S
H370 C354 0.961 . S
H371 C355 0.931 . S
H372 C360 0.930 . S
H373 C361 0.956 . S
H374 C361 0.961 . S
H375 C361 0.961 . S
H376 C362 0.958 . S
H377 C362 0.961 . S
H378 C362 0.960 . S
C379 C380 1.391 . S
C379 C381 1.394 . S
C379 H395 0.931 . S
C380 C379 1.391 . S
C380 C384 1.376 . S
C381 C379 1.394 . S
C381 C382 1.369 . S
C381 C385 1.531 . S
C382 C381 1.369 . S
C382 C383 1.410 . S
C382 C390 1.503 . S
C383 C382 1.410 . S
C383 C384 1.392 . S
C383 C386 1.511 . S
C384 C380 1.376 . S
C384 C383 1.392 . S
C384 H396 0.929 . S
C385 C381 1.531 . S
C385 H397 0.960 . S
C385 H398 0.962 . S
C385 H399 0.960 . S
C386 C383 1.511 . S
C386 H400 0.961 . S
C386 H401 0.961 . S
C386 H402 0.961 . S
C387 C388 1.370 . S
C387 C389 1.363 . S
C387 H403 0.931 . S
C388 C387 1.370 . S
C388 C392 1.408 . S
C389 C387 1.363 . S
C389 C390 1.370 . S
C389 C393 1.524 . S
C390 C382 1.503 . S
C390 C389 1.370 . S
C390 C391 1.403 . S
C391 C390 1.403 . S
C391 C392 1.404 . S
C391 C394 1.539 . S
C392 C388 1.408 . S
C392 C391 1.404 . S
C392 H404 0.930 . S
C393 C389 1.524 . S
C393 H405 0.956 . S
C393 H406 0.961 . S
C393 H407 0.961 . S
C394 C391 1.539 . S
C394 H408 0.958 . S
C394 H409 0.961 . S
C394 H410 0.960 . S
H395 C379 0.931 . S
H396 C384 0.929 . S
H397 C385 0.960 . S
H398 C385 0.962 . S
H399 C385 0.960 . S
H400 C386 0.961 . S
H401 C386 0.961 . S
H402 C386 0.961 . S
H403 C387 0.931 . S
H404 C392 0.930 . S
H405 C393 0.956 . S
H406 C393 0.961 . S
H407 C393 0.961 . S
H408 C394 0.958 . S
H409 C394 0.961 . S
H410 C394 0.960 . S
C411 C412 1.391 . S
C411 C413 1.394 . S
C411 H427 0.931 . S
C412 C411 1.391 . S
C412 C416 1.376 . S
C413 C411 1.394 . S
C413 C414 1.369 . S
C413 C417 1.531 . S
C414 C413 1.369 . S
C414 C415 1.410 . S
C414 C422 1.503 . S
C415 C414 1.410 . S
C415 C416 1.392 . S
C415 C418 1.511 . S
C416 C412 1.376 . S
C416 C415 1.392 . S
C416 H428 0.929 . S
C417 C413 1.531 . S
C417 H429 0.960 . S
C417 H430 0.962 . S
C417 H431 0.960 . S
C418 C415 1.511 . S
C418 H432 0.961 . S
C418 H433 0.961 . S
C418 H434 0.961 . S
C419 C420 1.370 . S
C419 C421 1.363 . S
C419 H435 0.931 . S
C420 C419 1.370 . S
C420 C424 1.408 . S
C421 C419 1.363 . S
C421 C422 1.370 . S
C421 C425 1.524 . S
C422 C414 1.503 . S
C422 C421 1.370 . S
C422 C423 1.403 . S
C423 C422 1.403 . S
C423 C424 1.404 . S
C423 C426 1.539 . S
C424 C420 1.408 . S
C424 C423 1.404 . S
C424 H436 0.930 . S
C425 C421 1.524 . S
C425 H437 0.956 . S
C425 H438 0.961 . S
C425 H439 0.961 . S
C426 C423 1.539 . S
C426 H440 0.958 . S
C426 H441 0.961 . S
C426 H442 0.960 . S
H427 C411 0.931 . S
H428 C416 0.929 . S
H429 C417 0.960 . S
H430 C417 0.962 . S
H431 C417 0.960 . S
H432 C418 0.961 . S
H433 C418 0.961 . S
H434 C418 0.961 . S
H435 C419 0.931 . S
H436 C424 0.930 . S
H437 C425 0.956 . S
H438 C425 0.961 . S
H439 C425 0.961 . S
H440 C426 0.958 . S
H441 C426 0.961 . S
H442 C426 0.960 . S
C443 C444 1.391 . S
C443 C445 1.394 . S
C443 H459 0.931 1_556 S
C444 C443 1.391 . S
C444 C448 1.376 . S
C445 C443 1.394 . S
C445 C446 1.369 . S
C445 C449 1.531 . S
C446 C445 1.369 . S
C446 C447 1.410 . S
C446 C454 1.503 . S
C447 C446 1.410 . S
C447 C448 1.392 . S
C447 C450 1.511 . S
C448 C444 1.376 . S
C448 C447 1.392 . S
C448 H460 0.929 . S
C449 C445 1.531 . S
C449 H461 0.960 . S
C449 H462 0.962 . S
C449 H463 0.960 . S
C450 C447 1.511 . S
C450 H464 0.961 . S
C450 H465 0.961 . S
C450 H466 0.961 . S
C451 C452 1.370 . S
C451 C453 1.363 . S
C451 H467 0.931 . S
C452 C451 1.370 . S
C452 C456 1.408 . S
C453 C451 1.363 . S
C453 C454 1.370 . S
C453 C457 1.524 . S
C454 C446 1.503 . S
C454 C453 1.370 . S
C454 C455 1.403 . S
C455 C454 1.403 . S
C455 C456 1.404 . S
C455 C458 1.539 . S
C456 C452 1.408 . S
C456 C455 1.404 . S
C456 H468 0.930 . S
C457 C453 1.524 . S
C457 H469 0.956 . S
C457 H470 0.961 . S
C457 H471 0.961 . S
C458 C455 1.539 . S
C458 H472 0.958 . S
C458 H473 0.961 . S
C458 H474 0.960 . S
H459 C443 0.931 1_554 S
H460 C448 0.929 . S
H461 C449 0.960 . S
H462 C449 0.962 . S
H463 C449 0.960 . S
H464 C450 0.961 . S
H465 C450 0.961 . S
H466 C450 0.961 . S
H467 C451 0.931 . S
H468 C456 0.930 . S
H469 C457 0.956 . S
H470 C457 0.961 . S
H471 C457 0.961 . S
H472 C458 0.958 . S
H473 C458 0.961 . S
H474 C458 0.960 . S
C475 C476 1.391 . S
C475 C477 1.394 . S
C475 H491 0.931 . S
C476 C475 1.391 . S
C476 C480 1.376 . S
C477 C475 1.394 . S
C477 C478 1.369 . S
C477 C481 1.531 . S
C478 C477 1.369 . S
C478 C479 1.410 . S
C478 C486 1.503 . S
C479 C478 1.410 . S
C479 C480 1.392 . S
C479 C482 1.511 . S
C480 C476 1.376 . S
C480 C479 1.392 . S
C480 H492 0.929 1_556 S
C481 C477 1.531 . S
C481 H493 0.960 . S
C481 H494 0.962 . S
C481 H495 0.960 . S
C482 C479 1.511 . S
C482 H496 0.961 1_556 S
C482 H497 0.961 . S
C482 H498 0.961 . S
C483 C484 1.370 . S
C483 C485 1.363 . S
C483 H499 0.931 . S
C484 C483 1.370 . S
C484 C488 1.408 . S
C485 C483 1.363 . S
C485 C486 1.370 . S
C485 C489 1.524 . S
C486 C478 1.503 . S
C486 C485 1.370 . S
C486 C487 1.403 . S
C487 C486 1.403 . S
C487 C488 1.404 . S
C487 C490 1.539 . S
C488 C484 1.408 . S
C488 C487 1.404 . S
C488 H500 0.930 . S
C489 C485 1.524 . S
C489 H501 0.956 . S
C489 H502 0.961 . S
C489 H503 0.961 . S
C490 C487 1.539 . S
C490 H504 0.958 . S
C490 H505 0.961 . S
C490 H506 0.960 . S
H491 C475 0.931 . S
H492 C480 0.929 1_554 S
H493 C481 0.960 . S
H494 C481 0.962 . S
H495 C481 0.960 . S
H496 C482 0.961 1_554 S
H497 C482 0.961 . S
H498 C482 0.961 . S
H499 C483 0.931 . S
H500 C488 0.930 . S
H501 C489 0.956 . S
H502 C489 0.961 . S
H503 C489 0.961 . S
H504 C490 0.958 . S
H505 C490 0.961 . S
H506 C490 0.960 . S
C507 C508 1.391 . S
C507 C509 1.394 . S
C507 H523 0.931 . S
C508 C507 1.391 . S
C508 C512 1.376 . S
C509 C507 1.394 . S
C509 C510 1.369 . S
C509 C513 1.531 . S
C510 C509 1.369 . S
C510 C511 1.410 1_554 S
C510 C518 1.503 1_554 S
C511 C510 1.410 1_556 S
C511 C512 1.392 1_556 S
C511 C514 1.511 . S
C512 C508 1.376 . S
C512 C511 1.392 1_554 S
C512 H524 0.929 . S
C513 C509 1.531 . S
C513 H525 0.960 . S
C513 H526 0.962 . S
C513 H527 0.960 . S
C514 C511 1.511 . S
C514 H528 0.961 . S
C514 H529 0.961 . S
C514 H530 0.961 . S
C515 C516 1.370 . S
C515 C517 1.363 . S
C515 H531 0.931 . S
C516 C515 1.370 . S
C516 C520 1.408 . S
C517 C515 1.363 . S
C517 C518 1.370 . S
C517 C521 1.524 . S
C518 C510 1.503 1_556 S
C518 C517 1.370 . S
C518 C519 1.403 . S
C519 C518 1.403 . S
C519 C520 1.404 . S
C519 C522 1.539 1_556 S
C520 C516 1.408 . S
C520 C519 1.404 . S
C520 H532 0.930 . S
C521 C517 1.524 . S
C521 H533 0.956 . S
C521 H534 0.961 . S
C521 H535 0.961 . S
C522 C519 1.539 1_554 S
C522 H536 0.958 . S
C522 H537 0.961 1_554 S
C522 H538 0.960 . S
H523 C507 0.931 . S
H524 C512 0.929 . S
H525 C513 0.960 . S
H526 C513 0.962 . S
H527 C513 0.960 . S
H528 C514 0.961 . S
H529 C514 0.961 . S
H530 C514 0.961 . S
H531 C515 0.931 . S
H532 C520 0.930 . S
H533 C521 0.956 . S
H534 C521 0.961 . S
H535 C521 0.961 . S
H536 C522 0.958 . S
H537 C522 0.961 1_556 S
H538 C522 0.960 . S
C539 C540 1.391 . S
C539 C541 1.394 . S
C539 H555 0.931 . S
C540 C539 1.391 . S
C540 C544 1.376 1_554 S
C541 C539 1.394 . S
C541 C542 1.369 1_554 S
C541 C545 1.531 . S
C542 C541 1.369 1_556 S
C542 C543 1.410 . S
C542 C550 1.503 . S
C543 C542 1.410 . S
C543 C544 1.392 . S
C543 C546 1.511 . S
C544 C540 1.376 1_556 S
C544 C543 1.392 . S
C544 H556 0.929 . S
C545 C541 1.531 . S
C545 H557 0.960 . S
C545 H558 0.962 . S
C545 H559 0.960 . S
C546 C543 1.511 . S
C546 H560 0.961 . S
C546 H561 0.961 . S
C546 H562 0.961 . S
C547 C548 1.370 . S
C547 C549 1.363 . S
C547 H563 0.931 . S
C548 C547 1.370 . S
C548 C552 1.408 . S
C549 C547 1.363 . S
C549 C550 1.370 . S
C549 C553 1.524 . S
C550 C542 1.503 . S
C550 C549 1.370 . S
C550 C551 1.403 . S
C551 C550 1.403 . S
C551 C552 1.404 . S
C551 C554 1.539 . S
C552 C548 1.408 . S
C552 C551 1.404 . S
C552 H564 0.930 . S
C553 C549 1.524 . S
C553 H565 0.956 . S
C553 H566 0.961 . S
C553 H567 0.961 . S
C554 C551 1.539 . S
C554 H568 0.958 . S
C554 H569 0.961 . S
C554 H570 0.960 . S
H555 C539 0.931 . S
H556 C544 0.929 . S
H557 C545 0.960 . S
H558 C545 0.962 . S
H559 C545 0.960 . S
H560 C546 0.961 . S
H561 C546 0.961 . S
H562 C546 0.961 . S
H563 C547 0.931 . S
H564 C552 0.930 . S
H565 C553 0.956 . S
H566 C553 0.961 . S
H567 C553 0.961 . S
H568 C554 0.958 . S
H569 C554 0.961 . S
H570 C554 0.960 . S
C571 C572 1.391 . S
C571 C573 1.394 . S
C571 H587 0.931 . S
C572 C571 1.391 . S
C572 C576 1.376 1_554 S
C573 C571 1.394 . S
C573 C574 1.369 1_554 S
C573 C577 1.531 . S
C574 C573 1.369 1_556 S
C574 C575 1.410 . S
C574 C582 1.503 . S
C575 C574 1.410 . S
C575 C576 1.392 . S
C575 C578 1.511 . S
C576 C572 1.376 1_556 S
C576 C575 1.392 . S
C576 H588 0.929 . S
C577 C573 1.531 . S
C577 H589 0.960 . S
C577 H590 0.962 . S
C577 H591 0.960 . S
C578 C575 1.511 . S
C578 H592 0.961 . S
C578 H593 0.961 . S
C578 H594 0.961 . S
C579 C580 1.370 . S
C579 C581 1.363 . S
C579 H595 0.931 . S
C580 C579 1.370 . S
C580 C584 1.408 . S
C581 C579 1.363 . S
C581 C582 1.370 . S
C581 C585 1.524 . S
C582 C574 1.503 . S
C582 C581 1.370 . S
C582 C583 1.403 . S
C583 C582 1.403 . S
C583 C584 1.404 . S
C583 C586 1.539 . S
C584 C580 1.408 . S
C584 C583 1.404 . S
C584 H596 0.930 . S
C585 C581 1.524 . S
C585 H597 0.956 1_556 S
C585 H598 0.961 . S
C585 H599 0.961 . S
C586 C583 1.539 . S
C586 H600 0.958 . S
C586 H601 0.961 . S
C586 H602 0.960 . S
H587 C571 0.931 . S
H588 C576 0.929 . S
H589 C577 0.960 . S
H590 C577 0.962 . S
H591 C577 0.960 . S
H592 C578 0.961 . S
H593 C578 0.961 . S
H594 C578 0.961 . S
H595 C579 0.931 . S
H596 C584 0.930 . S
H597 C585 0.956 1_554 S
H598 C585 0.961 . S
H599 C585 0.961 . S
H600 C586 0.958 . S
H601 C586 0.961 . S
H602 C586 0.960 . S
C603 C604 1.391 . S
C603 C605 1.394 . S
C603 H619 0.931 . S
C604 C603 1.391 . S
C604 C608 1.376 . S
C605 C603 1.394 . S
C605 C606 1.369 . S
C605 C609 1.531 . S
C606 C605 1.369 . S
C606 C607 1.410 . S
C606 C614 1.503 . S
C607 C606 1.410 . S
C607 C608 1.392 . S
C607 C610 1.511 . S
C608 C604 1.376 . S
C608 C607 1.392 . S
C608 H620 0.929 . S
C609 C605 1.531 . S
C609 H621 0.960 . S
C609 H622 0.962 . S
C609 H623 0.960 . S
C610 C607 1.511 . S
C610 H624 0.961 . S
C610 H625 0.961 . S
C610 H626 0.961 . S
C611 C612 1.370 . S
C611 C613 1.363 . S
C611 H627 0.931 . S
C612 C611 1.370 . S
C612 C616 1.408 . S
C613 C611 1.363 . S
C613 C614 1.370 . S
C613 C617 1.524 . S
C614 C606 1.503 . S
C614 C613 1.370 . S
C614 C615 1.403 . S
C615 C614 1.403 . S
C615 C616 1.404 . S
C615 C618 1.539 . S
C616 C612 1.408 . S
C616 C615 1.404 . S
C616 H628 0.930 . S
C617 C613 1.524 . S
C617 H629 0.956 . S
C617 H630 0.961 . S
C617 H631 0.961 . S
C618 C615 1.539 . S
C618 H632 0.958 . S
C618 H633 0.961 . S
C618 H634 0.960 . S
H619 C603 0.931 . S
H620 C608 0.929 . S
H621 C609 0.960 . S
H622 C609 0.962 . S
H623 C609 0.960 . S
H624 C610 0.961 . S
H625 C610 0.961 . S
H626 C610 0.961 . S
H627 C611 0.931 . S
H628 C616 0.930 . S
H629 C617 0.956 . S
H630 C617 0.961 . S
H631 C617 0.961 . S
H632 C618 0.958 . S
H633 C618 0.961 . S
H634 C618 0.960 . S
C635 C636 1.391 . S
C635 C637 1.394 . S
C635 H651 0.931 1_556 S
C636 C635 1.391 . S
C636 C640 1.376 . S
C637 C635 1.394 . S
C637 C638 1.369 . S
C637 C641 1.531 . S
C638 C637 1.369 . S
C638 C639 1.410 . S
C638 C646 1.503 . S
C639 C638 1.410 . S
C639 C640 1.392 . S
C639 C642 1.511 . S
C640 C636 1.376 . S
C640 C639 1.392 . S
C640 H652 0.929 . S
C641 C637 1.531 . S
C641 H653 0.960 . S
C641 H654 0.962 . S
C641 H655 0.960 1_556 S
C642 C639 1.511 . S
C642 H656 0.961 . S
C642 H657 0.961 . S
C642 H658 0.961 . S
C643 C644 1.370 . S
C643 C645 1.363 . S
C643 H659 0.931 . S
C644 C643 1.370 . S
C644 C648 1.408 . S
C645 C643 1.363 . S
C645 C646 1.370 . S
C645 C649 1.524 . S
C646 C638 1.503 . S
C646 C645 1.370 . S
C646 C647 1.403 . S
C647 C646 1.403 . S
C647 C648 1.404 . S
C647 C650 1.539 . S
C648 C644 1.408 . S
C648 C647 1.404 . S
C648 H660 0.930 . S
C649 C645 1.524 . S
C649 H661 0.956 . S
C649 H662 0.961 . S
C649 H663 0.961 . S
C650 C647 1.539 . S
C650 H664 0.958 1_556 S
C650 H665 0.961 . S
C650 H666 0.960 . S
H651 C635 0.931 1_554 S
H652 C640 0.929 . S
H653 C641 0.960 . S
H654 C641 0.962 . S
H655 C641 0.960 1_554 S
H656 C642 0.961 . S
H657 C642 0.961 . S
H658 C642 0.961 . S
H659 C643 0.931 . S
H660 C648 0.930 . S
H661 C649 0.956 . S
H662 C649 0.961 . S
H663 C649 0.961 . S
H664 C650 0.958 1_554 S
H665 C650 0.961 . S
H666 C650 0.960 . S
C667 C668 1.391 . S
C667 C669 1.394 . S
C667 H683 0.931 . S
C668 C667 1.391 . S
C668 C672 1.376 . S
C669 C667 1.394 . S
C669 C670 1.369 1_554 S
C669 C673 1.531 . S
C670 C669 1.369 1_556 S
C670 C671 1.410 . S
C670 C678 1.503 . S
C671 C670 1.410 . S
C671 C672 1.392 1_556 S
C671 C674 1.511 . S
C672 C668 1.376 . S
C672 C671 1.392 1_554 S
C672 H684 0.929 . S
C673 C669 1.531 . S
C673 H685 0.956 1_554 S
C673 H686 0.962 . S
C673 H687 0.960 . S
C674 C671 1.511 . S
C674 H688 0.961 . S
C674 H689 0.961 . S
C674 H690 0.961 . S
C675 C676 1.370 . S
C675 C677 1.363 . S
C675 H691 0.931 . S
C676 C675 1.370 . S
C676 C680 1.408 . S
C677 C675 1.363 . S
C677 C678 1.370 . S
C677 C681 1.524 1_556 S
C678 C670 1.503 . S
C678 C677 1.370 . S
C678 C679 1.403 . S
C679 C678 1.403 . S
C679 C680 1.404 . S
C679 C682 1.539 . S
C680 C676 1.408 . S
C680 C679 1.404 . S
C680 H692 0.930 . S
C681 C677 1.524 1_554 S
C681 H693 0.956 . S
C681 H694 0.961 . S
C681 H695 0.961 . S
C682 C679 1.539 . S
C682 H696 0.958 . S
C682 H697 0.961 . S
C682 H698 0.960 . S
H683 C667 0.931 . S
H684 C672 0.929 . S
H685 C673 0.956 1_556 S
H686 C673 0.962 . S
H687 C673 0.960 . S
H688 C674 0.961 . S
H689 C674 0.961 . S
H690 C674 0.961 . S
H691 C675 0.931 . S
H692 C680 0.930 . S
H693 C681 0.956 . S
H694 C681 0.961 . S
H695 C681 0.961 . S
H696 C682 0.958 . S
H697 C682 0.961 . S
H698 C682 0.960 . S
C699 C700 1.391 . S
C699 C701 1.394 1_554 S
C699 H715 0.931 . S
C700 C699 1.391 . S
C700 C704 1.376 1_554 S
C701 C699 1.394 1_556 S
C701 C702 1.369 . S
C701 C705 1.531 . S
C702 C701 1.369 . S
C702 C703 1.410 . S
C702 C710 1.503 . S
C703 C702 1.410 . S
C703 C704 1.392 . S
C703 C706 1.511 . S
C704 C700 1.376 1_556 S
C704 C703 1.392 . S
C704 H716 0.929 . S
C705 C701 1.531 . S
C705 H717 0.960 . S
C705 H718 0.962 1_556 S
C705 H719 0.960 1_556 S
C706 C703 1.511 . S
C706 H720 0.961 . S
C706 H721 0.961 . S
C706 H722 0.961 . S
C707 C708 1.370 . S
C707 C709 1.363 . S
C707 H723 0.931 . S
C708 C707 1.370 . S
C708 C712 1.408 . S
C709 C707 1.363 . S
C709 C710 1.370 . S
C709 C713 1.524 . S
C710 C702 1.503 . S
C710 C709 1.370 . S
C710 C711 1.403 . S
C711 C710 1.403 . S
C711 C712 1.404 . S
C711 C714 1.539 . S
C712 C708 1.408 . S
C712 C711 1.404 . S
C712 H724 0.930 . S
C713 C709 1.524 . S
C713 H725 0.956 1_556 S
C713 H726 0.961 . S
C713 H727 0.961 . S
C714 C711 1.539 . S
C714 H728 0.958 . S
C714 H729 0.961 . S
C714 H730 0.960 . S
H715 C699 0.931 . S
H716 C704 0.929 . S
H717 C705 0.960 . S
H718 C705 0.962 1_554 S
H719 C705 0.960 1_554 S
H720 C706 0.961 . S
H721 C706 0.961 . S
H722 C706 0.961 . S
H723 C707 0.931 . S
H724 C712 0.930 . S
H725 C713 0.956 1_554 S
H726 C713 0.961 . S
H727 C713 0.961 . S
H728 C714 0.958 . S
H729 C714 0.961 . S
H730 C714 0.960 . S
C731 C732 1.391 . S
C731 C733 1.394 . S
C731 H747 0.931 . S
C732 C731 1.391 . S
C732 C736 1.376 . S
C733 C731 1.394 . S
C733 C734 1.369 . S
C733 C737 1.531 . S
C734 C733 1.369 . S
C734 C735 1.410 . S
C734 C742 1.503 . S
C735 C734 1.410 . S
C735 C736 1.392 . S
C735 C738 1.511 . S
C736 C732 1.376 . S
C736 C735 1.392 . S
C736 H748 0.929 . S
C737 C733 1.531 . S
C737 H749 0.960 . S
C737 H750 0.962 . S
C737 H751 0.960 . S
C738 C735 1.511 . S
C738 H752 0.961 . S
C738 H753 0.961 . S
C738 H754 0.961 . S
C739 C740 1.370 . S
C739 C741 1.363 . S
C739 H755 0.931 . S
C740 C739 1.370 . S
C740 C744 1.408 . S
C741 C739 1.363 . S
C741 C742 1.370 . S
C741 C745 1.524 . S
C742 C734 1.503 . S
C742 C741 1.370 . S
C742 C743 1.403 . S
C743 C742 1.403 . S
C743 C744 1.404 . S
C743 C746 1.539 . S
C744 C740 1.408 . S
C744 C743 1.404 . S
C744 H756 0.930 . S
C745 C741 1.524 . S
C745 H757 0.956 . S
C745 H758 0.961 . S
C745 H759 0.961 . S
C746 C743 1.539 . S
C746 H760 0.958 . S
C746 H761 0.961 . S
C746 H762 0.960 . S
H747 C731 0.931 . S
H748 C736 0.929 . S
H749 C737 0.960 . S
H750 C737 0.962 . S
H751 C737 0.960 . S
H752 C738 0.961 . S
H753 C738 0.961 . S
H754 C738 0.961 . S
H755 C739 0.931 . S
H756 C744 0.930 . S
H757 C745 0.956 . S
H758 C745 0.961 . S
H759 C745 0.961 . S
H760 C746 0.958 . S
H761 C746 0.961 . S
H762 C746 0.960 . S
C763 C764 1.391 . S
C763 C765 1.394 . S
C763 H779 0.931 . S
C764 C763 1.391 . S
C764 C768 1.376 . S
C765 C763 1.394 . S
C765 C766 1.369 . S
C765 C769 1.531 . S
C766 C765 1.369 . S
C766 C767 1.410 . S
C766 C774 1.503 . S
C767 C766 1.410 . S
C767 C768 1.392 . S
C767 C770 1.511 . S
C768 C764 1.376 . S
C768 C767 1.392 . S
C768 H780 0.929 . S
C769 C765 1.531 . S
C769 H781 0.960 . S
C769 H782 0.962 . S
C769 H783 0.960 . S
C770 C767 1.511 . S
C770 H784 0.961 . S
C770 H785 0.961 . S
C770 H786 0.961 . S
C771 C772 1.370 . S
C771 C773 1.363 . S
C771 H787 0.931 . S
C772 C771 1.370 . S
C772 C776 1.408 . S
C773 C771 1.363 . S
C773 C774 1.370 . S
C773 C777 1.524 . S
C774 C766 1.503 . S
C774 C773 1.370 . S
C774 C775 1.403 . S
C775 C774 1.403 . S
C775 C776 1.404 . S
C775 C778 1.539 . S
C776 C772 1.408 . S
C776 C775 1.404 . S
C776 H788 0.930 . S
C777 C773 1.524 . S
C777 H789 0.956 . S
C777 H790 0.961 . S
C777 H791 0.961 . S
C778 C775 1.539 . S
C778 H792 0.958 . S
C778 H793 0.961 . S
C778 H794 0.960 . S
H779 C763 0.931 . S
H780 C768 0.929 . S
H781 C769 0.960 . S
H782 C769 0.962 . S
H783 C769 0.960 . S
H784 C770 0.961 . S
H785 C770 0.961 . S
H786 C770 0.961 . S
H787 C771 0.931 . S
H788 C776 0.930 . S
H789 C777 0.956 . S
H790 C777 0.961 . S
H791 C777 0.961 . S
H792 C778 0.958 . S
H793 C778 0.961 . S
H794 C778 0.960 . S
C795 C796 1.391 . S
C795 C797 1.394 . S
C795 H811 0.931 . S
C796 C795 1.391 . S
C796 C800 1.376 . S
C797 C795 1.394 . S
C797 C798 1.369 . S
C797 C801 1.531 . S
C798 C797 1.369 . S
C798 C799 1.410 . S
C798 C806 1.503 . S
C799 C798 1.410 . S
C799 C800 1.392 . S
C799 C802 1.511 . S
C800 C796 1.376 . S
C800 C799 1.392 . S
C800 H812 0.929 . S
C801 C797 1.531 . S
C801 H813 0.960 . S
C801 H814 0.962 . S
C801 H815 0.960 . S
C802 C799 1.511 . S
C802 H816 0.961 . S
C802 H817 0.961 . S
C802 H818 0.961 . S
C803 C804 1.370 . S
C803 C805 1.363 . S
C803 H819 0.931 . S
C804 C803 1.370 . S
C804 C808 1.408 . S
C805 C803 1.363 . S
C805 C806 1.370 . S
C805 C809 1.524 . S
C806 C798 1.503 . S
C806 C805 1.370 . S
C806 C807 1.403 . S
C807 C806 1.403 . S
C807 C808 1.404 . S
C807 C810 1.539 . S
C808 C804 1.408 . S
C808 C807 1.404 . S
C808 H820 0.930 . S
C809 C805 1.524 . S
C809 H821 0.956 . S
C809 H822 0.961 . S
C809 H823 0.961 . S
C810 C807 1.539 . S
C810 H824 0.958 . S
C810 H825 0.961 . S
C810 H826 0.960 . S
H811 C795 0.931 . S
H812 C800 0.929 . S
H813 C801 0.960 . S
H814 C801 0.962 . S
H815 C801 0.960 . S
H816 C802 0.961 . S
H817 C802 0.961 . S
H818 C802 0.961 . S
H819 C803 0.931 . S
H820 C808 0.930 . S
H821 C809 0.956 . S
H822 C809 0.961 . S
H823 C809 0.961 . S
H824 C810 0.958 . S
H825 C810 0.961 . S
H826 C810 0.960 . S
C827 C828 1.391 . S
C827 C829 1.394 . S
C827 H843 0.931 . S
C828 C827 1.391 . S
C828 C832 1.376 . S
C829 C827 1.394 . S
C829 C830 1.369 . S
C829 C833 1.531 . S
C830 C829 1.369 . S
C830 C831 1.410 . S
C830 C838 1.503 . S
C831 C830 1.410 . S
C831 C832 1.392 . S
C831 C834 1.511 . S
C832 C828 1.376 . S
C832 C831 1.392 . S
C832 H844 0.929 . S
C833 C829 1.531 . S
C833 H845 0.960 . S
C833 H846 0.962 . S
C833 H847 0.960 . S
C834 C831 1.511 . S
C834 H848 0.961 . S
C834 H849 0.961 . S
C834 H850 0.961 . S
C835 C836 1.370 . S
C835 C837 1.363 . S
C835 H851 0.931 . S
C836 C835 1.370 . S
C836 C840 1.408 . S
C837 C835 1.363 . S
C837 C838 1.370 . S
C837 C841 1.524 . S
C838 C830 1.503 . S
C838 C837 1.370 . S
C838 C839 1.403 . S
C839 C838 1.403 . S
C839 C840 1.404 . S
C839 C842 1.539 . S
C840 C836 1.408 . S
C840 C839 1.404 . S
C840 H852 0.930 . S
C841 C837 1.524 . S
C841 H853 0.956 . S
C841 H854 0.961 . S
C841 H855 0.961 . S
C842 C839 1.539 . S
C842 H856 0.958 . S
C842 H857 0.961 . S
C842 H858 0.960 . S
H843 C827 0.931 . S
H844 C832 0.929 . S
H845 C833 0.960 . S
H846 C833 0.962 . S
H847 C833 0.960 . S
H848 C834 0.961 . S
H849 C834 0.961 . S
H850 C834 0.961 . S
H851 C835 0.931 . S
H852 C840 0.930 . S
H853 C841 0.956 . S
H854 C841 0.961 . S
H855 C841 0.961 . S
H856 C842 0.958 . S
H857 C842 0.961 . S
H858 C842 0.960 . S
C859 C860 1.391 . S
C859 C861 1.394 . S
C859 H875 0.931 . S
C860 C859 1.391 . S
C860 C864 1.376 . S
C861 C859 1.394 . S
C861 C862 1.369 . S
C861 C865 1.531 . S
C862 C861 1.369 . S
C862 C863 1.410 . S
C862 C870 1.503 . S
C863 C862 1.410 . S
C863 C864 1.392 . S
C863 C866 1.511 . S
C864 C860 1.376 . S
C864 C863 1.392 . S
C864 H876 0.929 . S
C865 C861 1.531 . S
C865 H877 0.960 . S
C865 H878 0.962 . S
C865 H879 0.960 . S
C866 C863 1.511 . S
C866 H880 0.961 . S
C866 H881 0.961 . S
C866 H882 0.961 . S
C867 C868 1.370 . S
C867 C869 1.363 . S
C867 H883 0.931 . S
C868 C867 1.370 . S
C868 C872 1.408 . S
C869 C867 1.363 . S
C869 C870 1.370 . S
C869 C873 1.524 . S
C870 C862 1.503 . S
C870 C869 1.370 . S
C870 C871 1.403 . S
C871 C870 1.403 . S
C871 C872 1.404 . S
C871 C874 1.539 . S
C872 C868 1.408 . S
C872 C871 1.404 . S
C872 H884 0.930 . S
C873 C869 1.524 . S
C873 H885 0.956 . S
C873 H886 0.961 . S
C873 H887 0.961 . S
C874 C871 1.539 . S
C874 H888 0.958 . S
C874 H889 0.961 . S
C874 H890 0.960 . S
H875 C859 0.931 . S
H876 C864 0.929 . S
H877 C865 0.960 . S
H878 C865 0.962 . S
H879 C865 0.960 . S
H880 C866 0.961 . S
H881 C866 0.961 . S
H882 C866 0.961 . S
H883 C867 0.931 . S
H884 C872 0.930 . S
H885 C873 0.956 . S
H886 C873 0.961 . S
H887 C873 0.961 . S
H888 C874 0.958 . S
H889 C874 0.961 . S
H890 C874 0.960 . S
C891 C892 1.391 . S
C891 C893 1.394 . S
C891 H907 0.931 . S
C892 C891 1.391 . S
C892 C896 1.376 . S
C893 C891 1.394 . S
C893 C894 1.369 . S
C893 C897 1.531 . S
C894 C893 1.369 . S
C894 C895 1.410 . S
C894 C902 1.503 . S
C895 C894 1.410 . S
C895 C896 1.392 . S
C895 C898 1.511 . S
C896 C892 1.376 . S
C896 C895 1.392 . S
C896 H908 0.929 . S
C897 C893 1.531 . S
C897 H909 0.960 . S
C897 H910 0.962 . S
C897 H911 0.960 . S
C898 C895 1.511 . S
C898 H912 0.961 . S
C898 H913 0.961 . S
C898 H914 0.961 . S
C899 C900 1.370 . S
C899 C901 1.363 . S
C899 H915 0.931 . S
C900 C899 1.370 . S
C900 C904 1.408 . S
C901 C899 1.363 . S
C901 C902 1.370 . S
C901 C905 1.524 . S
C902 C894 1.503 . S
C902 C901 1.370 . S
C902 C903 1.403 . S
C903 C902 1.403 . S
C903 C904 1.404 . S
C903 C906 1.539 . S
C904 C900 1.408 . S
C904 C903 1.404 . S
C904 H916 0.930 . S
C905 C901 1.524 . S
C905 H917 0.956 . S
C905 H918 0.961 . S
C905 H919 0.961 . S
C906 C903 1.539 . S
C906 H920 0.958 . S
C906 H921 0.961 . S
C906 H922 0.960 . S
H907 C891 0.931 . S
H908 C896 0.929 . S
H909 C897 0.960 . S
H910 C897 0.962 . S
H911 C897 0.960 . S
H912 C898 0.961 . S
H913 C898 0.961 . S
H914 C898 0.961 . S
H915 C899 0.931 . S
H916 C904 0.930 . S
H917 C905 0.956 . S
H918 C905 0.961 . S
H919 C905 0.961 . S
H920 C906 0.958 . S
H921 C906 0.961 . S
H922 C906 0.960 . S
C923 C924 1.391 . S
C923 C925 1.394 . S
C923 H939 0.931 . S
C924 C923 1.391 . S
C924 C928 1.376 . S
C925 C923 1.394 . S
C925 C926 1.369 . S
C925 C929 1.531 . S
C926 C925 1.369 . S
C926 C927 1.410 . S
C926 C934 1.503 . S
C927 C926 1.410 . S
C927 C928 1.392 . S
C927 C930 1.511 . S
C928 C924 1.376 . S
C928 C927 1.392 . S
C928 H940 0.929 . S
C929 C925 1.531 . S
C929 H941 0.960 . S
C929 H942 0.962 . S
C929 H943 0.960 . S
C930 C927 1.511 . S
C930 H944 0.961 . S
C930 H945 0.961 . S
C930 H946 0.961 . S
C931 C932 1.370 . S
C931 C933 1.363 . S
C931 H947 0.931 . S
C932 C931 1.370 . S
C932 C936 1.408 . S
C933 C931 1.363 . S
C933 C934 1.370 . S
C933 C937 1.524 . S
C934 C926 1.503 . S
C934 C933 1.370 . S
C934 C935 1.403 . S
C935 C934 1.403 . S
C935 C936 1.404 . S
C935 C938 1.539 . S
C936 C932 1.408 . S
C936 C935 1.404 . S
C936 H948 0.930 . S
C937 C933 1.524 . S
C937 H949 0.956 . S
C937 H950 0.961 . S
C937 H951 0.961 . S
C938 C935 1.539 . S
C938 H952 0.958 . S
C938 H953 0.961 . S
C938 H954 0.960 . S
H939 C923 0.931 . S
H940 C928 0.929 . S
H941 C929 0.960 . S
H942 C929 0.962 . S
H943 C929 0.960 . S
H944 C930 0.961 . S
H945 C930 0.961 . S
H946 C930 0.961 . S
H947 C931 0.931 . S
H948 C936 0.930 . S
H949 C937 0.956 . S
H950 C937 0.961 . S
H951 C937 0.961 . S
H952 C938 0.958 . S
H953 C938 0.961 . S
H954 C938 0.960 . S
C955 C956 1.391 . S
C955 C957 1.394 . S
C955 H971 0.931 . S
C956 C955 1.391 . S
C956 C960 1.376 . S
C957 C955 1.394 . S
C957 C958 1.369 . S
C957 C961 1.531 . S
C958 C957 1.369 . S
C958 C959 1.410 . S
C958 C966 1.503 . S
C959 C958 1.410 . S
C959 C960 1.392 . S
C959 C962 1.511 . S
C960 C956 1.376 . S
C960 C959 1.392 . S
C960 H972 0.929 . S
C961 C957 1.531 . S
C961 H973 0.960 . S
C961 H974 0.962 . S
C961 H975 0.960 . S
C962 C959 1.511 . S
C962 H976 0.961 . S
C962 H977 0.961 . S
C962 H978 0.961 . S
C963 C964 1.370 . S
C963 C965 1.363 . S
C963 H979 0.931 . S
C964 C963 1.370 . S
C964 C968 1.408 . S
C965 C963 1.363 . S
C965 C966 1.370 . S
C965 C969 1.524 . S
C966 C958 1.503 . S
C966 C965 1.370 . S
C966 C967 1.403 . S
C967 C966 1.403 . S
C967 C968 1.404 . S
C967 C970 1.539 . S
C968 C964 1.408 . S
C968 C967 1.404 . S
C968 H980 0.930 . S
C969 C965 1.524 . S
C969 H981 0.956 . S
C969 H982 0.961 . S
C969 H983 0.961 . S
C970 C967 1.539 . S
C970 H984 0.958 . S
C970 H985 0.961 . S
C970 H986 0.960 . S
H971 C955 0.931 . S
H972 C960 0.929 . S
H973 C961 0.960 . S
H974 C961 0.962 . S
H975 C961 0.960 . S
H976 C962 0.961 . S
H977 C962 0.961 . S
H978 C962 0.961 . S
H979 C963 0.931 . S
H980 C968 0.930 . S
H981 C969 0.956 . S
H982 C969 0.961 . S
H983 C969 0.961 . S
H984 C970 0.958 . S
H985 C970 0.961 . S
H986 C970 0.960 . S
C220 C12 1.733 . S
C228 C137 1.864 . S
C252 C40 1.578 . S
C260 C184 1.616 . S
C292 C188 1.795 . S
C284 C61 1.805 . S
C324 C153 1.510 . S
C316 C82 1.504 . S
C348 C96 1.668 . S
C356 C168 1.767 . S
C388 C190 1.141 . S
C380 C117 1.085 . S
C420 C159 1.541 . S
C412 C51 1.494 . S
C444 C72 1.454 . S
C452 C199 1.449 . S
C484 C128 1.433 . S
C476 C101 1.351 1_556 S
C508 C122 1.408 . S
C516 C157 1.445 . S
C540 C17 1.864 . S
C548 C215 1.900 . S
C580 C126 1.530 . S
C572 C30 1.525 . S
C612 C144 1.849 . S
C604 C80 1.850 1_556 S
C644 C158 1.614 . S
C636 C93 1.501 1_556 S
C676 C212 1.802 . S
C668 C114 1.776 . S
C708 C127 1.520 . S
C700 C9 1.486 . S
C740 C175 1.746 . S
C732 C38 1.787 1_556 S
C764 C59 1.140 . S
C772 C198 1.110 . S
C804 C167 1.525 . S
C796 C124 1.416 . S
C836 C206 1.420 . S
C828 C19 1.347 . S
C868 C136 1.400 . S
C860 C33 1.371 . S
C900 C181 1.446 . S
C892 C54 1.413 . S
C924 C75 1.846 . S
C932 C189 1.879 . S
C956 C103 1.422 . S
C964 C150 1.522 . S
