# Generated by pormake.
# Topology anh, (6,3)-cn, num edge types: 1
# Building blocks:
#     Node 0, Type 0, BuildingBlock: NUHQIS_clean_sbu_0, # of connection points: 6
#     Node 1, Type 0, BuildingBlock: NUHQIS_clean_sbu_0, # of connection points: 6
#     Node 2, Type 0, BuildingBlock: NUHQIS_clean_sbu_0, # of connection points: 6
#     Node 3, Type 1, BuildingBlock: PAMTOO_clean_linker_0, # of connection points: 3
#     Node 4, Type 1, BuildingBlock: PAMTOO_clean_linker_0, # of connection points: 3
#     Node 5, Type 1, BuildingBlock: PAMTOO_clean_linker_0, # of connection points: 3
#     Node 6, Type 1, BuildingBlock: PAMTOO_clean_linker_0, # of connection points: 3
#     Node 7, Type 1, BuildingBlock: PAMTOO_clean_linker_0, # of connection points: 3
#     Node 8, Type 1, BuildingBlock: PAMTOO_clean_linker_0, # of connection points: 3
#     Edge 9, Type (0, 1), BuildingBlock: KIFKEQ_clean_linker_1, # of connection points: 2
#     Edge 10, Type (0, 1), BuildingBlock: KIFKEQ_clean_linker_1, # of connection points: 2
#     Edge 11, Type (0, 1), BuildingBlock: KIFKEQ_clean_linker_1, # of connection points: 2
#     Edge 12, Type (0, 1), BuildingBlock: KIFKEQ_clean_linker_1, # of connection points: 2
#     Edge 13, Type (0, 1), BuildingBlock: KIFKEQ_clean_linker_1, # of connection points: 2
#     Edge 14, Type (0, 1), BuildingBlock: KIFKEQ_clean_linker_1, # of connection points: 2
#     Edge 15, Type (0, 1), BuildingBlock: KIFKEQ_clean_linker_1, # of connection points: 2
#     Edge 16, Type (0, 1), BuildingBlock: KIFKEQ_clean_linker_1, # of connection points: 2
#     Edge 17, Type (0, 1), BuildingBlock: KIFKEQ_clean_linker_1, # of connection points: 2
#     Edge 18, Type (0, 1), BuildingBlock: KIFKEQ_clean_linker_1, # of connection points: 2
#     Edge 19, Type (0, 1), BuildingBlock: KIFKEQ_clean_linker_1, # of connection points: 2
#     Edge 20, Type (0, 1), BuildingBlock: KIFKEQ_clean_linker_1, # of connection points: 2
#     Edge 21, Type (0, 1), BuildingBlock: KIFKEQ_clean_linker_1, # of connection points: 2
#     Edge 22, Type (0, 1), BuildingBlock: KIFKEQ_clean_linker_1, # of connection points: 2
#     Edge 23, Type (0, 1), BuildingBlock: KIFKEQ_clean_linker_1, # of connection points: 2
#     Edge 24, Type (0, 1), BuildingBlock: KIFKEQ_clean_linker_1, # of connection points: 2
#     Edge 25, Type (0, 1), BuildingBlock: KIFKEQ_clean_linker_1, # of connection points: 2
#     Edge 26, Type (0, 1), BuildingBlock: KIFKEQ_clean_linker_1, # of connection points: 2
# Relax obj value: 0.247
# Max RMSD: 0.144
# Mean RMSD: 0.118
data_MOF--net-anh--node1-NUHQIS_clean_sbu_0--node2-PAMTOO_clean_linker_0--edge1-KIFKEQ_clean_linker_1
_symmetry_space_group_name_H-M    P1
_symmetry_Int_Tables_number       1
_symmetry_cell_setting            triclinic
loop_
_symmetry_equiv_pos_as_xyz
'x, y, z'
_cell_length_a     30.57636
_cell_length_b     30.649294
_cell_length_c     50.532884
_cell_angle_alpha  86.640368
_cell_angle_beta   94.054308
_cell_angle_gamma 120.01162
loop_
_atom_site_label
_atom_site_type_symbol
_atom_site_fract_x
_atom_site_fract_y
_atom_site_fract_z
_atom_type_partial_charge
Tb0 Tb 0.21001 0.62068 0.15741 0.0
Eu1 Eu 0.14563 0.67803 0.14504 0.0
C2 C 0.17365 0.65666 0.20264 0.0
C3 C 1.08722 0.55515 0.15469 0.0
C4 C 0.25257 0.52477 0.1647 0.0
C5 C 0.25625 0.45206 0.18385 0.0
C6 C 0.25665 0.49722 0.18693 0.0
C7 C 0.24581 0.50531 0.1393 0.0
C8 C 0.24572 0.46023 0.13618 0.0
C9 C 0.25223 0.43376 0.15839 0.0
C10 C 0.2584 0.57476 0.16852 0.0
O11 O 0.18348 0.60576 0.11582 0.0
O12 O 0.17461 0.67484 0.10599 0.0
O13 O 0.22649 0.74202 0.15411 0.0
O14 O 0.26967 0.69957 0.14963 0.0
C15 C 0.17868 0.63688 0.0984 0.0
O16 O 1.09275 0.6926 0.12023 0.0
O17 O 1.12297 0.73052 0.15758 0.0
O18 O 1.13482 0.64832 0.1869 0.0
O19 O 0.21367 0.65973 0.19291 0.0
O20 O 1.13119 0.55887 0.16257 0.0
O21 O 1.08493 0.59476 0.1447 0.0
C22 C 0.26955 0.74215 0.1526 0.0
O23 O 0.26546 0.60407 0.14754 0.0
O24 O 0.22744 0.57621 0.18443 0.0
C25 C 1.03539 0.69434 0.14758 0.0
C26 C 0.93291 0.62811 0.15735 0.0
C27 C 0.94656 0.66192 0.13533 0.0
C28 C 0.9975 0.6947 0.13045 0.0
C29 C 1.02172 0.66341 0.17067 0.0
C30 C 0.97096 0.63071 0.17554 0.0
C31 C 1.08735 0.71718 0.1388 0.0
H32 H 0.26055 0.43219 0.20138 0.0
H33 H 0.26158 0.51137 0.20672 0.0
H34 H 0.24224 0.52562 0.12177 0.0
H35 H 0.24306 0.4475 0.11628 0.0
H36 H 0.91809 0.66045 0.1208 0.0
H37 H 1.00725 0.71768 0.11236 0.0
H38 H 1.05021 0.66196 0.1841 0.0
H39 H 0.96157 0.60553 0.1928 0.0
Tb40 Tb 0.80177 0.19305 0.48941 0.0
Eu41 Eu 0.68134 0.13594 0.49763 0.0
C42 C 0.76138 0.17823 0.54578 0.0
C43 C 0.74066 1.07167 0.49933 0.0
C44 C 0.93604 0.28865 0.49366 0.0
C45 C 1.01935 0.36129 0.48842 0.0
C46 C 0.9832 0.31171 0.48231 0.0
C47 C 0.92607 0.31465 0.51211 0.0
C48 C 0.96218 0.36406 0.5183 0.0
C49 C 1.00864 0.38844 0.50593 0.0
C50 C 0.89609 0.23902 0.48494 0.0
O51 O 0.76525 0.15739 0.45206 0.0
O52 O 0.69374 0.16188 0.4545 0.0
O53 O 0.7061 0.21879 0.50146 0.0
O54 O 0.7856 0.25661 0.48526 0.0
C55 C 0.72642 0.15889 0.44032 0.0
O56 O 0.60356 1.08065 0.48564 0.0
O57 O 0.61862 0.13009 0.51835 0.0
O58 O 0.71959 0.13813 0.5378 0.0
O59 O 0.79209 0.21068 0.52857 0.0
O60 O 0.78371 0.11504 0.50102 0.0
O61 O 0.69716 1.07088 0.49505 0.0
C62 C 0.7471 0.25966 0.49374 0.0
O63 O 0.87314 0.2062 0.50392 0.0
O64 O 0.86419 0.23965 0.46655 0.0
C65 C 0.53961 1.05317 0.5176 0.0
C66 C 0.44115 0.98943 0.53519 0.0
C67 C 0.45831 0.97636 0.51347 0.0
C68 C 0.50695 1.00799 0.50472 0.0
C69 C 0.52419 1.06388 0.54077 0.0
C70 C 0.47547 1.03221 0.54954 0.0
C71 C 0.58437 0.09298 0.50419 0.0
H72 H 1.05446 0.37923 0.47826 0.0
H73 H 0.99133 0.29209 0.46798 0.0
H74 H 0.88972 0.29732 0.52105 0.0
H75 H 0.95301 0.38383 0.53203 0.0
H76 H 0.43282 0.94406 0.50171 0.0
H77 H 0.51749 0.99884 0.4867 0.0
H78 H 0.54841 0.09853 0.55112 0.0
H79 H 0.46359 1.04299 0.5665 0.0
Tb80 Tb 0.66616 0.59051 0.83125 0.0
Eu81 Eu 0.6057 0.47708 0.80987 0.0
C82 C 0.61688 0.49795 0.86988 0.0
C83 C 0.72742 0.53257 0.82447 0.0
C84 C 0.71387 0.72448 0.85129 0.0
C85 C 0.76202 0.81501 0.85563 0.0
C86 C 0.75987 0.76853 0.85619 0.0
C87 C 0.66942 0.72703 0.8465 0.0
C88 C 0.67146 0.77373 0.84606 0.0
C89 C 0.71798 0.81836 0.85028 0.0
C90 C 0.71403 0.67683 0.85109 0.0
O91 O 0.6523 0.59923 0.78854 0.0
O92 O 0.6515 0.5282 0.77693 0.0
O93 O 0.54523 0.50056 0.80691 0.0
O94 O 0.58646 0.57241 0.83154 0.0
C95 C 0.65635 0.57232 0.7705 0.0
O96 O 0.56623 0.42349 0.77812 0.0
O97 O 0.57759 0.39699 0.81735 0.0
O98 O 0.58282 0.47418 0.85112 0.0
O99 O 0.65978 0.53795 0.86393 0.0
O100 O 0.7275 0.57573 0.82337 0.0
O101 O 0.6842 0.48951 0.82379 0.0
C102 C 0.54484 0.53705 0.81948 0.0
O103 O 0.67702 0.63774 0.86239 0.0
O104 O 0.72485 0.66575 0.82885 0.0
C105 C 0.59616 0.36523 0.78168 0.0
C106 C 0.67454 0.34426 0.77545 0.0
C107 C 0.63466 0.31317 0.79196 0.0
C108 C 0.59569 0.32352 0.79498 0.0
C109 C 0.63317 0.39308 0.76312 0.0
C110 C 0.67183 0.3825 0.75996 0.0
C111 C 0.56757 0.38687 0.79217 0.0
H112 H 0.79868 0.8485 0.8583 0.0
H113 H 0.7945 0.76711 0.8599 0.0
H114 H 0.63346 0.69317 0.84275 0.0
H115 H 0.63684 0.77497 0.84202 0.0
H116 H 0.63562 0.28345 0.80423 0.0
H117 H 0.56784 0.30181 0.80954 0.0
H118 H 0.63475 0.42561 0.75258 0.0
H119 H 0.70134 0.40631 0.74658 0.0
H120 H 0.78463 0.24766 0.2379 0.0
H121 H 0.63982 0.11233 0.23151 0.0
H122 H 0.71655 0.19016 0.16075 0.0
H123 H 0.63536 1.04841 0.19442 0.0
C124 C 0.6223 1.062 0.17634 0.0
O125 O 0.63124 0.11076 0.18018 0.0
H126 H 0.64594 1.06422 0.16003 0.0
C127 C 0.75431 0.21923 0.22569 0.0
C128 C 0.75735 0.22432 0.19785 0.0
C129 C 0.7127 0.17912 0.23818 0.0
C130 C 0.67207 0.14355 0.2223 0.0
C131 C 0.67276 0.14648 0.19447 0.0
C132 C 0.71565 0.18738 0.18218 0.0
H133 H 0.7246 0.74687 0.57714 0.0
H134 H 0.71887 0.60542 0.56781 0.0
H135 H 0.74649 0.70719 0.5005 0.0
H136 H 0.79652 0.61688 0.53708 0.0
C137 C 0.77572 0.60798 0.51738 0.0
O138 O 0.73438 0.61589 0.51762 0.0
H139 H 0.80233 0.63531 0.50283 0.0
C140 C 0.72794 0.72117 0.56468 0.0
C141 C 0.73708 0.73403 0.53757 0.0
C142 C 0.72097 0.67504 0.57583 0.0
C143 C 0.72375 0.6409 0.55949 0.0
C144 C 0.73366 0.65187 0.53251 0.0
C145 C 0.73974 0.69859 0.5214 0.0
H146 H 1.05936 0.5632 0.902 0.0
H147 H 0.1983 0.56283 0.89543 0.0
H148 H 1.09705 0.53472 0.82645 0.0
H149 H 0.17057 0.48012 0.82912 0.0
C150 C 0.19728 0.50685 0.84421 0.0
O151 O 0.1883 0.54727 0.84471 0.0
H152 H 0.18845 0.48587 0.86363 0.0
C153 C 1.08459 0.55868 0.88983 0.0
C154 C 1.07143 0.54816 0.86271 0.0
C155 C 1.12956 0.56337 0.90175 0.0
C156 C 0.16289 0.55779 0.88641 0.0
C157 C 0.15191 0.5473 0.85929 0.0
C158 C 1.10543 0.54172 0.84746 0.0
H159 H 0.17037 0.68074 0.40667 0.0
H160 H 0.17059 0.81749 0.38194 0.0
H161 H 0.18438 0.78458 0.46465 0.0
H162 H 1.10471 0.81026 0.44548 0.0
C163 C 0.13839 0.84854 0.44321 0.0
O164 O 0.17591 0.84734 0.42998 0.0
H165 H 1.12563 0.87235 0.43153 0.0
C166 C 0.17391 0.71631 0.41163 0.0
C167 C 0.17687 0.72818 0.43837 0.0
C168 C 0.17323 0.7488 0.39104 0.0
C169 C 0.17185 0.79213 0.39743 0.0
C170 C 0.17502 0.80449 0.42398 0.0
C171 C 0.17989 0.77377 0.44426 0.0
H172 H 0.80748 0.14564 0.74445 0.0
H173 H 0.94557 0.28772 0.73828 0.0
H174 H 0.92174 0.19319 0.80803 0.0
H175 H 1.02517 0.35114 0.79922 0.0
C176 C 0.98931 0.31571 0.8031 0.0
O177 O 0.98319 0.27996 0.78532 0.0
H178 H 0.9934 0.30245 0.82358 0.0
C179 C 0.84371 0.17368 0.75297 0.0
C180 C 0.86048 0.16405 0.77802 0.0
C181 C 0.87421 0.21763 0.7382 0.0
C182 C 0.92151 0.2533 0.74924 0.0
C183 C 0.93809 0.24471 0.77456 0.0
C184 C 0.90787 0.19998 0.7888 0.0
H185 H 0.63543 0.39631 0.06739 0.0
H186 H 0.47337 0.31921 0.05507 0.0
H187 H 0.54003 0.33423 0.1338 0.0
H188 H 0.43226 0.23607 0.12284 0.0
C189 C 0.41938 0.25591 0.10791 0.0
O190 O 0.45623 0.30576 0.10535 0.0
H191 H 0.41098 0.23703 0.08857 0.0
C192 C 0.59801 0.37346 0.07498 0.0
C193 C 0.59303 0.36522 0.10252 0.0
C194 C 0.55527 0.35729 0.05749 0.0
C195 C 0.50702 0.3311 0.06796 0.0
C196 C 0.50174 0.32235 0.09534 0.0
C197 C 0.54456 0.33902 0.11257 0.0
H198 H 0.32175 0.41466 0.18488 0.0
H199 H 0.20253 0.35626 0.1234 0.0
H200 H 0.34521 0.3532 0.17486 0.0
H201 H 0.22603 0.29379 0.11333 0.0
H202 H 0.35294 0.27326 0.07707 0.0
H203 H 0.29747 0.30149 0.09203 0.0
H204 H 0.3283 0.26868 0.17334 0.0
H205 H 0.38552 0.24244 0.15816 0.0
C206 C 0.29939 0.38757 0.16977 0.0
C207 C 0.26047 0.39067 0.15482 0.0
C208 C 0.31279 0.352 0.16404 0.0
C209 C 0.28761 0.31846 0.14321 0.0
C210 C 0.24662 0.3195 0.12927 0.0
C211 C 0.23323 0.35532 0.135 0.0
C212 C 0.34608 0.27015 0.09803 0.0
C213 C 0.37325 0.25564 0.11647 0.0
C214 C 0.31426 0.2863 0.10667 0.0
C215 C 0.3091 0.28823 0.13396 0.0
C216 C 0.33229 0.26864 0.15221 0.0
C217 C 0.36456 0.25303 0.14356 0.0
H218 H 1.1125 0.44132 0.51122 0.0
H219 H 0.98128 0.46022 0.505 0.0
H220 H 0.16714 0.53249 0.50578 0.0
H221 H 1.03488 0.55001 0.49914 0.0
H222 H 1.12524 0.70659 0.48392 0.0
H223 H 1.09691 0.63119 0.51195 0.0
H224 H 0.18307 0.586 0.46775 0.0
H225 H 0.21476 0.66339 0.44125 0.0
C226 C 1.09544 0.46502 0.50919 0.0
C227 C 1.0426 0.44356 0.50824 0.0
C228 C 1.12667 0.51719 0.50607 0.0
C229 C 1.10554 0.54875 0.50171 0.0
C230 C 1.05287 0.52736 0.50287 0.0
C231 C 1.02185 0.47549 0.50615 0.0
C232 C 0.14 0.68178 0.48089 0.0
C233 C 0.17091 0.69022 0.45965 0.0
C234 C 1.12317 0.63808 0.49681 0.0
C235 C 1.13607 0.60149 0.49149 0.0
C236 C 0.17188 0.61296 0.47239 0.0
C237 C 0.18945 0.6571 0.45681 0.0
H238 H 0.66775 0.84723 0.81276 0.0
H239 H 0.77855 0.90399 0.87837 0.0
H240 H 0.69047 0.93296 0.79902 0.0
H241 H 0.80364 0.9899 0.86351 0.0
H242 H 0.83885 0.14407 0.83075 0.0
H243 H 0.79054 1.06099 0.8526 0.0
H244 H 0.76654 0.99035 0.77728 0.0
H245 H 0.81405 1.07219 0.75583 0.0
C246 C 0.696 0.87782 0.82471 0.0
C247 C 0.72238 0.86877 0.84622 0.0
C248 C 0.70947 0.92709 0.81662 0.0
C249 C 0.75002 0.96824 0.82963 0.0
C250 C 0.7725 0.95912 0.8529 0.0
C251 C 0.75856 0.9098 0.8612 0.0
C252 C 0.82288 0.1106 0.81898 0.0
C253 C 0.82997 0.11457 0.79158 0.0
C254 C 0.7951 1.06317 0.83142 0.0
C255 C 0.77407 1.01905 0.81663 0.0
C256 C 0.78076 1.02344 0.78919 0.0
C257 C 0.80834 1.07049 0.77686 0.0
H258 H 0.84513 0.63149 0.14921 0.0
H259 H 0.9019 0.52923 0.16886 0.0
H260 H 0.7596 0.55989 0.14408 0.0
H261 H 0.81634 0.4577 0.16419 0.0
H262 H 0.68222 0.3657 0.10117 0.0
H263 H 0.76281 0.42521 0.1228 0.0
H264 H 0.6875 0.48528 0.16512 0.0
H265 H 0.60691 0.42597 0.14321 0.0
C266 C 0.83914 0.59378 0.15299 0.0
C267 C 0.88023 0.58597 0.15918 0.0
C268 C 0.79014 0.55277 0.15033 0.0
C269 C 0.78136 0.50317 0.15361 0.0
C270 C 0.82205 0.49549 0.16139 0.0
C271 C 0.87097 0.5365 0.16424 0.0
C272 C 0.68279 0.39067 0.11568 0.0
C273 C 0.63855 0.39156 0.12039 0.0
C274 C 0.72881 0.42458 0.12817 0.0
C275 C 0.73146 0.46029 0.14542 0.0
C276 C 0.68656 0.4585 0.1517 0.0
C277 C 0.64042 0.42426 0.13936 0.0
H278 H 0.37105 0.88859 0.53312 0.0
H279 H 0.38599 1.03389 0.54531 0.0
H280 H 0.28104 0.85382 0.52301 0.0
H281 H 0.29563 0.99857 0.53627 0.0
H282 H 0.20019 0.94736 0.45378 0.0
H283 H 0.26249 0.98008 0.49047 0.0
H284 H 0.19307 0.83228 0.52867 0.0
H285 H 1.13 0.79984 0.4917 0.0
C286 C 0.35478 0.91258 0.53471 0.0
C287 C 0.38598 0.96433 0.53914 0.0
C288 C 0.30294 0.89251 0.52923 0.0
C289 C 0.28142 0.92387 0.52816 0.0
C290 C 0.31136 0.97376 0.53645 0.0
C291 C 0.36323 0.99389 0.54182 0.0
C292 C 0.19665 0.92258 0.4707 0.0
C293 C 0.1611 0.87105 0.46977 0.0
C294 C 0.23237 0.94123 0.49184 0.0
C295 C 0.23344 0.90846 0.51226 0.0
C296 C 0.19365 0.85824 0.51301 0.0
C297 C 0.15748 0.83973 0.49193 0.0
H298 H 0.77184 0.42221 0.77702 0.0
H299 H 0.68371 0.25943 0.77844 0.0
H300 H 0.84917 0.41793 0.78372 0.0
H301 H 0.76146 0.25533 0.78571 0.0
H302 H 0.90304 0.26976 0.83073 0.0
H303 H 0.82715 0.2771 0.82273 0.0
H304 H 0.90107 0.39009 0.7612 0.0
H305 H 0.97699 0.38249 0.76933 0.0
C306 C 0.76897 0.38547 0.77822 0.0
C307 C 0.72153 0.34108 0.77702 0.0
C308 C 0.81334 0.38311 0.78227 0.0
C309 C 0.81127 0.33635 0.78549 0.0
C310 C 0.76404 0.29193 0.78374 0.0
C311 C 0.71959 0.29426 0.77951 0.0
C312 C 0.90323 0.29687 0.81591 0.0
C313 C 0.94588 0.32625 0.80094 0.0
C314 C 0.85972 0.30058 0.81107 0.0
C315 C 0.85816 0.3339 0.79122 0.0
C316 C 0.90141 0.36438 0.77675 0.0
C317 C 0.94482 0.3603 0.78146 0.0
H318 H 0.82168 1.05661 0.51296 0.0
H319 H 0.66144 0.97309 0.49372 0.0
H320 H 0.82324 0.9778 0.51916 0.0
H321 H 0.66283 0.89394 0.50014 0.0
H322 H 0.6863 0.75591 0.49537 0.0
H323 H 0.68746 0.83594 0.48478 0.0
H324 H 0.80051 0.90668 0.54799 0.0
H325 H 0.79943 0.82749 0.55819 0.0
C326 C 0.78657 1.02152 0.51002 0.0
C327 C 0.7414 1.02221 0.50286 0.0
C328 C 0.78738 0.97576 0.51375 0.0
C329 C 0.74313 0.92831 0.51033 0.0
C330 C 0.69804 0.92903 0.50278 0.0
C331 C 0.69715 0.97488 0.49924 0.0
C332 C 0.71222 0.78884 0.5066 0.0
C333 C 0.74308 0.78464 0.52756 0.0
C334 C 0.71242 0.83493 0.50079 0.0
C335 C 0.74397 0.87888 0.51548 0.0
C336 C 0.77594 0.87472 0.53582 0.0
C337 C 0.7753 0.82879 0.54177 0.0
H338 H 0.82355 0.61476 0.82408 0.0
H339 H 0.74694 0.45248 0.82987 0.0
H340 H 0.90466 0.61817 0.82896 0.0
H341 H 0.82888 0.45576 0.83576 0.0
H342 H 0.9897 0.47546 0.83218 0.0
H343 H 0.90755 0.47024 0.82084 0.0
H344 H 0.96084 0.61185 0.85886 0.0
H345 H 1.04198 0.61746 0.86911 0.0
C346 C 0.82375 0.57953 0.82657 0.0
C347 C 0.77774 0.53337 0.82684 0.0
C348 C 0.87092 0.58147 0.82963 0.0
C349 C 0.87471 0.53734 0.83337 0.0
C350 C 0.82858 0.49088 0.83293 0.0
C351 C 0.7811 0.48895 0.82972 0.0
C352 C 0.98416 0.50602 0.83751 0.0
C353 C 1.02324 0.54704 0.85156 0.0
C354 C 0.93648 0.50275 0.83133 0.0
C355 C 0.92624 0.54059 0.83877 0.0
C356 C 0.9662 0.58206 0.85214 0.0
C357 C 1.01332 0.58521 0.85827 0.0
H358 H 0.3658 0.76073 0.1437 0.0
H359 H 0.28872 0.83655 0.16727 0.0
H360 H 0.44667 0.83872 0.14843 0.0
H361 H 0.36998 0.915 0.17204 0.0
H362 H 0.53533 1.0342 0.20417 0.0
H363 H 0.45057 0.95976 0.19812 0.0
H364 H 0.49901 0.92091 0.12954 0.0
H365 H 0.58279 0.99461 0.13567 0.0
C366 C 0.3658 0.79402 0.14979 0.0
C367 C 0.31975 0.79146 0.15491 0.0
C368 C 0.41266 0.83934 0.15241 0.0
C369 C 0.41595 0.88432 0.16056 0.0
C370 C 0.36988 0.8817 0.16589 0.0
C371 C 0.32282 0.83639 0.16295 0.0
C372 C 0.52743 1.01052 0.18738 0.0
C373 C 0.56627 1.02175 0.1701 0.0
C374 C 0.47862 0.96734 0.18394 0.0
C375 C 0.46702 0.93306 0.16339 0.0
C376 C 0.50576 0.9452 0.14587 0.0
C377 C 0.5541 0.98834 0.14917 0.0
H378 H 0.82458 0.35673 0.48093 0.0
H379 H 0.67518 0.27917 0.51133 0.0
H380 H 0.82787 0.43752 0.48545 0.0
H381 H 0.67807 0.35932 0.51552 0.0
H382 H 0.71804 0.51699 0.54509 0.0
H383 H 0.71089 0.4347 0.53912 0.0
H384 H 0.79988 0.49427 0.46985 0.0
H385 H 0.80724 0.57611 0.47617 0.0
C386 C 0.79218 0.35658 0.48841 0.0
C387 C 0.74958 0.31042 0.49563 0.0
C388 C 0.7939 0.40335 0.49093 0.0
C389 C 0.7532 0.40619 0.50093 0.0
C390 C 0.71069 0.35988 0.5081 0.0
C391 C 0.7089 0.31328 0.50547 0.0
C392 C 0.73499 0.51216 0.5282 0.0
C393 C 0.76238 0.55362 0.51089 0.0
C394 C 0.73118 0.46468 0.52476 0.0
C395 C 0.75509 0.45669 0.50399 0.0
C396 C 0.78147 0.49808 0.48638 0.0
C397 C 0.78506 0.54531 0.48977 0.0
H398 H 0.52674 0.60308 0.84572 0.0
H399 H 0.44933 0.47092 0.79795 0.0
H400 H 0.44694 0.60148 0.85032 0.0
H401 H 0.3694 0.46874 0.80285 0.0
H402 H 0.23415 0.49372 0.7985 0.0
H403 H 0.31709 0.50384 0.7916 0.0
H404 H 0.3678 0.56122 0.87054 0.0
H405 H 0.28466 0.55166 0.87707 0.0
C406 C 0.49282 0.5736 0.83608 0.0
C407 C 0.4954 0.53719 0.82135 0.0
C408 C 0.44649 0.57244 0.83891 0.0
C409 C 0.40054 0.53495 0.82705 0.0
C410 C 0.40335 0.49888 0.81208 0.0
C411 C 0.44964 0.49993 0.80933 0.0
C412 C 0.26328 0.50949 0.81423 0.0
C413 C 0.25225 0.52216 0.83832 0.0
C414 C 0.31107 0.51467 0.81042 0.0
C415 C 0.35013 0.53281 0.83055 0.0
C416 C 0.33961 0.54744 0.8543 0.0
C417 C 0.29165 0.54211 0.85811 0.0
H418 H 1.07485 0.46126 0.16944 0.0
H419 H 0.98744 0.53408 0.14797 0.0
H420 H 0.9973 0.38155 0.17608 0.0
H421 H 0.90944 0.45445 0.15541 0.0
H422 H 0.7687 0.29491 0.15703 0.0
H423 H 0.84632 0.37229 0.14468 0.0
H424 H 0.93233 0.33341 0.20299 0.0
H425 H 0.856 0.25637 0.21424 0.0
C426 C 1.03911 0.46055 0.16619 0.0
C427 C 1.0384 0.50506 0.15813 0.0
C428 C 0.99395 0.41432 0.17025 0.0
C429 C 0.94565 0.41024 0.16671 0.0
C430 C 0.94501 0.45479 0.15824 0.0
C431 C 0.99028 0.50106 0.15404 0.0
C432 C 0.80439 0.30235 0.16674 0.0
C433 C 0.80526 0.26855 0.18672 0.0
C434 C 0.84929 0.34751 0.15995 0.0
C435 C 0.89701 0.36059 0.17274 0.0
C436 C 0.89756 0.32567 0.1921 0.0
C437 C 0.85305 0.28096 0.19881 0.0
H438 H 0.21316 0.58396 0.07292 0.0
H439 H 1.13492 0.66812 0.05857 0.0
H440 H 0.20628 0.56876 0.02554 0.0
H441 H 1.12497 0.65048 0.01171 0.0
H442 H 0.14492 0.64789 0.92506 0.0
H443 H 0.16153 0.66787 0.97193 0.0
H444 H 0.15497 0.52492 0.98985 0.0
H445 H 0.14187 0.50719 0.94252 0.0
C446 C 0.19416 0.59892 0.05964 0.0
C447 C 0.17491 0.62755 0.06954 0.0
C448 C 0.18979 0.58989 0.03238 0.0
C449 C 0.16509 0.60836 0.01433 0.0
C450 C 0.14549 0.63661 0.02451 0.0
C451 C 0.15083 0.6465 0.0516 0.0
C452 C 0.1476 0.62113 0.93911 0.0
C453 C 0.14214 0.57606 0.93025 0.0
C454 C 0.15657 0.63219 0.96611 0.0
C455 C 0.159 0.59784 0.98518 0.0
C456 C 0.15417 0.55288 0.97604 0.0
C457 C 0.14633 0.5424 0.94888 0.0
H458 H 0.66356 0.18067 0.40755 0.0
H459 H 0.77628 0.13544 0.40602 0.0
H460 H 0.65878 0.18451 0.35904 0.0
H461 H 0.77023 0.13732 0.35784 0.0
H462 H 0.79257 0.19912 0.27352 0.0
H463 H 0.79373 0.19392 0.32158 0.0
H464 H 0.63304 0.13936 0.31897 0.0
H465 H 0.63254 0.14772 0.27064 0.0
C466 C 0.68688 0.17094 0.39689 0.0
C467 C 0.72058 0.15811 0.41077 0.0
C468 C 0.68399 0.1729 0.36899 0.0
C469 C 0.71446 0.1617 0.35424 0.0
C470 C 0.74704 0.14748 0.36829 0.0
C471 C 0.75026 0.14602 0.39607 0.0
C472 C 0.75749 0.1867 0.28308 0.0
C473 C 0.71252 0.17422 0.26792 0.0
C474 C 0.75799 0.18289 0.31083 0.0
C475 C 0.71342 0.16588 0.32447 0.0
C476 C 0.66829 0.15311 0.30934 0.0
C477 C 0.66787 0.15727 0.2815 0.0
H478 H 0.66555 0.52344 0.72982 0.0
H479 H 0.6697 0.66197 0.747 0.0
H480 H 0.68043 0.55012 0.68375 0.0
H481 H 0.68405 0.68862 0.7001 0.0
H482 H 0.76346 0.73677 0.61879 0.0
H483 H 0.74701 0.7145 0.66573 0.0
H484 H 0.63697 0.5619 0.64487 0.0
H485 H 0.65324 0.58405 0.59815 0.0
C486 C 0.66945 0.55968 0.72381 0.0
C487 C 0.66617 0.59044 0.74231 0.0
C488 C 0.67768 0.57484 0.69717 0.0
C489 C 0.68293 0.62131 0.68799 0.0
C490 C 0.68039 0.65264 0.70648 0.0
C491 C 0.67195 0.6373 0.73334 0.0
C492 C 0.73536 0.69858 0.62419 0.0
C493 C 0.71007 0.66212 0.60457 0.0
C494 C 0.72588 0.68584 0.65116 0.0
C495 C 0.69096 0.63627 0.65922 0.0
C496 C 0.66492 0.6002 0.63953 0.0
C497 C 0.67433 0.61289 0.61265 0.0
H498 H 0.71156 0.11904 0.58874 0.0
H499 H 0.84196 0.26108 0.56742 0.0
H500 H 0.73812 0.13533 0.63565 0.0
H501 H 0.86771 0.27741 0.61394 0.0
H502 H 0.9313 0.24745 0.6947 0.0
H503 H 0.9018 0.24177 0.64834 0.0
H504 H 0.75064 0.19195 0.67222 0.0
H505 H 0.78034 0.198 0.71877 0.0
C506 C 0.7455 0.15384 0.59403 0.0
C507 C 0.77484 0.18843 0.57432 0.0
C508 C 0.76055 0.16335 0.62088 0.0
C509 C 0.80519 0.20758 0.62845 0.0
C510 C 0.83358 0.24269 0.60873 0.0
C511 C 0.81863 0.23326 0.58203 0.0
C512 C 0.8921 0.23666 0.69009 0.0
C513 C 0.85811 0.22289 0.71038 0.0
C514 C 0.8751 0.23316 0.66351 0.0
C515 C 0.82374 0.21584 0.65664 0.0
C516 C 0.79021 0.20447 0.67692 0.0
C517 C 0.80727 0.20815 0.70353 0.0
H518 H 0.52711 0.42791 0.88979 0.0
H519 H 0.68578 0.52087 0.91192 0.0
H520 H 0.51141 0.39153 0.93465 0.0
H521 H 0.66983 0.48413 0.95698 0.0
H522 H 0.62575 0.36259 0.0247 0.0
H523 H 0.64132 0.39726 0.97935 0.0
H524 H 0.51492 0.42288 0.98043 0.0
H525 H 0.50017 0.38991 0.0259 0.0
C526 C 0.55866 0.44059 0.90424 0.0
C527 C 0.60772 0.47724 0.89733 0.0
C528 C 0.54957 0.41987 0.92994 0.0
C529 C 0.58941 0.43493 0.94922 0.0
C530 C 0.63854 0.47152 0.94237 0.0
C531 C 0.64757 0.49278 0.91668 0.0
C532 C 0.60132 0.3757 0.0153 0.0
C533 C 0.56163 0.37332 0.029 0.0
C534 C 0.61032 0.39558 0.98937 0.0
C535 C 0.57944 0.41288 0.97648 0.0
C536 C 0.539 0.40933 0.98984 0.0
C537 C 0.53035 0.39003 0.01584 0.0
H538 H 1.09351 0.64219 0.22991 0.0
H539 H 0.25433 0.69768 0.23844 0.0
H540 H 1.09416 0.66527 0.27524 0.0
H541 H 0.25533 0.72233 0.28357 0.0
H542 H 1.12075 0.75943 0.34704 0.0
H543 H 1.12236 0.73815 0.30147 0.0
H544 H 0.22842 0.68798 0.32678 0.0
H545 H 0.22901 0.71186 0.37182 0.0
C546 C 1.12905 0.6594 0.24148 0.0
C547 C 0.17389 0.66808 0.23063 0.0
C548 C 1.12949 0.67305 0.26739 0.0
C549 C 0.17484 0.69602 0.283 0.0
C550 C 0.21962 0.70417 0.27221 0.0
C551 C 0.2191 0.69014 0.24633 0.0
C552 C 0.14493 0.74454 0.34277 0.0
C553 C 0.17448 0.73706 0.3631 0.0
C554 C 0.14538 0.73171 0.31673 0.0
C555 C 0.1753 0.71103 0.31049 0.0
C556 C 0.20531 0.70424 0.33079 0.0
C557 C 0.2051 0.71731 0.35672 0.0
loop_
_geom_bond_atom_site_label_1
_geom_bond_atom_site_label_2
_geom_bond_distance
_geom_bond_site_symmetry_2
_ccdc_geom_bond_type
Tb0 C10 2.825 . S
Tb0 O11 2.347 . S
Tb0 O14 2.366 . S
Tb0 O19 2.418 . S
Tb0 O20 2.384 1_455 S
Tb0 O23 2.479 . S
Tb0 O24 2.471 . S
Eu1 O12 2.418 . S
Eu1 O13 2.384 1_655 S
Eu1 O16 2.479 . S
Eu1 O17 2.471 . S
Eu1 O18 2.335 1_655 S
Eu1 O21 2.366 . S
Eu1 C31 2.825 . S
C2 O18 1.271 . S
C2 O19 1.265 . S
C3 O20 1.255 . S
C3 O21 1.265 . S
C4 C6 1.380 . S
C4 C7 1.374 . S
C4 C10 1.507 . S
C5 C6 1.384 . S
C5 C9 1.387 . S
C5 H32 0.930 . S
C6 C4 1.380 . S
C6 C5 1.384 . S
C6 H33 0.931 . S
C7 C4 1.374 . S
C7 C8 1.390 . S
C7 H34 0.930 . S
C8 C7 1.390 . S
C8 C9 1.391 . S
C8 H35 0.930 . S
C9 C5 1.387 . S
C9 C8 1.391 . S
C10 Tb0 2.825 . S
C10 C4 1.507 . S
C10 O23 1.238 . S
C10 O24 1.247 . S
O11 Tb0 2.347 . S
O11 C15 1.259 . S
O12 Eu1 2.418 . S
O12 C15 1.265 1_655 S
O13 Eu1 2.384 1_455 S
O13 C22 1.255 . S
O14 Tb0 2.366 . S
O14 C22 1.265 . S
C15 O11 1.259 . S
C15 O12 1.265 1_455 S
O16 Eu1 2.479 . S
O16 C31 1.238 . S
O17 Eu1 2.471 . S
O17 C31 1.247 . S
O18 Eu1 2.335 1_455 S
O18 C2 1.271 . S
O19 Tb0 2.418 . S
O19 C2 1.265 . S
O20 Tb0 2.384 1_655 S
O20 C3 1.255 . S
O21 Eu1 2.366 . S
O21 C3 1.265 . S
C22 O13 1.255 . S
C22 O14 1.265 . S
O23 Tb0 2.479 . S
O23 C10 1.238 . S
O24 Tb0 2.471 . S
O24 C10 1.247 . S
C25 C28 1.380 . S
C25 C29 1.374 . S
C25 C31 1.507 . S
C26 C27 1.387 . S
C26 C30 1.391 . S
C27 C26 1.387 . S
C27 C28 1.384 . S
C27 H36 0.930 . S
C28 C25 1.380 . S
C28 C27 1.384 . S
C28 H37 0.931 . S
C29 C25 1.374 . S
C29 C30 1.390 . S
C29 H38 0.930 . S
C30 C26 1.391 . S
C30 C29 1.390 . S
C30 H39 0.930 . S
C31 Eu1 2.825 . S
C31 O16 1.238 . S
C31 O17 1.247 . S
C31 C25 1.507 . S
H32 C5 0.930 . S
H33 C6 0.931 . S
H34 C7 0.930 . S
H35 C8 0.930 . S
H36 C27 0.930 . S
H37 C28 0.931 . S
H38 C29 0.930 . S
H39 C30 0.930 . S
Tb40 C50 2.825 . S
Tb40 O51 2.347 . S
Tb40 O54 2.366 . S
Tb40 O59 2.418 . S
Tb40 O60 2.384 1_545 S
Tb40 O63 2.479 . S
Tb40 O64 2.471 . S
Eu41 O52 2.418 . S
Eu41 O53 2.384 . S
Eu41 O56 2.479 1_545 S
Eu41 O57 2.471 1_545 S
Eu41 O58 2.347 . S
Eu41 O61 2.366 1_545 S
Eu41 C71 2.825 1_545 S
C42 O58 1.259 . S
C42 O59 1.265 . S
C43 O60 1.255 . S
C43 O61 1.265 . S
C44 C46 1.380 . S
C44 C47 1.374 . S
C44 C50 1.507 . S
C45 C46 1.384 . S
C45 C49 1.387 . S
C45 H72 0.930 . S
C46 C44 1.380 . S
C46 C45 1.384 . S
C46 H73 0.931 . S
C47 C44 1.374 . S
C47 C48 1.390 . S
C47 H74 0.930 . S
C48 C47 1.390 . S
C48 C49 1.391 . S
C48 H75 0.930 . S
C49 C45 1.387 . S
C49 C48 1.391 . S
C50 Tb40 2.825 . S
C50 C44 1.507 . S
C50 O63 1.238 . S
C50 O64 1.247 . S
O51 Tb40 2.347 . S
O51 C55 1.259 . S
O52 Eu41 2.418 . S
O52 C55 1.265 . S
O53 Eu41 2.384 . S
O53 C62 1.255 . S
O54 Tb40 2.366 . S
O54 C62 1.265 . S
C55 O51 1.259 . S
C55 O52 1.265 . S
O56 Eu41 2.479 1_565 S
O56 C71 1.238 . S
O57 Eu41 2.471 1_565 S
O57 C71 1.247 . S
O58 Eu41 2.347 . S
O58 C42 1.259 . S
O59 Tb40 2.418 . S
O59 C42 1.265 . S
O60 Tb40 2.384 1_565 S
O60 C43 1.255 . S
O61 Eu41 2.366 1_565 S
O61 C43 1.265 . S
C62 O53 1.255 . S
C62 O54 1.265 . S
O63 Tb40 2.479 . S
O63 C50 1.238 . S
O64 Tb40 2.471 . S
O64 C50 1.247 . S
C65 C68 1.380 . S
C65 C69 1.374 . S
C65 C71 1.507 . S
C66 C67 1.387 . S
C66 C70 1.391 . S
C67 C66 1.387 . S
C67 C68 1.384 . S
C67 H76 0.930 . S
C68 C65 1.380 . S
C68 C67 1.384 . S
C68 H77 0.931 . S
C69 C65 1.374 . S
C69 C70 1.390 . S
C69 H78 0.930 . S
C70 C66 1.391 . S
C70 C69 1.390 . S
C70 H79 0.930 . S
C71 Eu41 2.825 1_565 S
C71 O56 1.238 . S
C71 O57 1.247 . S
C71 C65 1.507 . S
H72 C45 0.930 . S
H73 C46 0.931 . S
H74 C47 0.930 . S
H75 C48 0.930 . S
H76 C67 0.930 . S
H77 C68 0.931 . S
H78 C69 0.930 . S
H79 C70 0.930 . S
Tb80 C90 2.825 . S
Tb80 O91 2.347 . S
Tb80 O94 2.366 . S
Tb80 O99 2.418 . S
Tb80 O100 2.384 . S
Tb80 O103 2.479 . S
Tb80 O104 2.471 . S
Eu81 O92 2.418 . S
Eu81 O93 2.384 . S
Eu81 O96 2.479 . S
Eu81 O97 2.471 . S
Eu81 O98 2.347 . S
Eu81 O101 2.366 . S
Eu81 C111 2.825 . S
C82 O98 1.259 . S
C82 O99 1.265 . S
C83 O100 1.255 . S
C83 O101 1.265 . S
C84 C86 1.380 . S
C84 C87 1.374 . S
C84 C90 1.507 . S
C85 C86 1.384 . S
C85 C89 1.387 . S
C85 H112 0.930 . S
C86 C84 1.380 . S
C86 C85 1.384 . S
C86 H113 0.931 . S
C87 C84 1.374 . S
C87 C88 1.390 . S
C87 H114 0.930 . S
C88 C87 1.390 . S
C88 C89 1.391 . S
C88 H115 0.930 . S
C89 C85 1.387 . S
C89 C88 1.391 . S
C90 Tb80 2.825 . S
C90 C84 1.507 . S
C90 O103 1.238 . S
C90 O104 1.247 . S
O91 Tb80 2.347 . S
O91 C95 1.259 . S
O92 Eu81 2.418 . S
O92 C95 1.265 . S
O93 Eu81 2.384 . S
O93 C102 1.255 . S
O94 Tb80 2.366 . S
O94 C102 1.265 . S
C95 O91 1.259 . S
C95 O92 1.265 . S
O96 Eu81 2.479 . S
O96 C111 1.238 . S
O97 Eu81 2.471 . S
O97 C111 1.247 . S
O98 Eu81 2.347 . S
O98 C82 1.259 . S
O99 Tb80 2.418 . S
O99 C82 1.265 . S
O100 Tb80 2.384 . S
O100 C83 1.255 . S
O101 Eu81 2.366 . S
O101 C83 1.265 . S
C102 O93 1.255 . S
C102 O94 1.265 . S
O103 Tb80 2.479 . S
O103 C90 1.238 . S
O104 Tb80 2.471 . S
O104 C90 1.247 . S
C105 C108 1.380 . S
C105 C109 1.374 . S
C105 C111 1.507 . S
C106 C107 1.387 . S
C106 C110 1.391 . S
C107 C106 1.387 . S
C107 C108 1.384 . S
C107 H116 0.930 . S
C108 C105 1.380 . S
C108 C107 1.384 . S
C108 H117 0.931 . S
C109 C105 1.374 . S
C109 C110 1.390 . S
C109 H118 0.930 . S
C110 C106 1.391 . S
C110 C109 1.390 . S
C110 H119 0.930 . S
C111 Eu81 2.825 . S
C111 O96 1.238 . S
C111 O97 1.247 . S
C111 C105 1.507 . S
H112 C85 0.930 . S
H113 C86 0.931 . S
H114 C87 0.930 . S
H115 C88 0.930 . S
H116 C107 0.930 . S
H117 C108 0.931 . S
H118 C109 0.930 . S
H119 C110 0.930 . S
H120 C127 0.929 . S
H121 C130 0.930 . S
H122 C132 0.929 . S
H123 C124 0.969 . S
C124 H123 0.969 . S
C124 O125 1.550 . S
C124 H126 0.973 . S
O125 C124 1.550 . S
O125 C131 1.427 . S
H126 C124 0.973 . S
C127 H120 0.929 . S
C127 C128 1.400 . S
C127 C129 1.364 . S
C128 C127 1.400 . S
C128 C132 1.377 . S
C129 C127 1.364 . S
C129 C130 1.374 1_545 S
C130 H121 0.930 . S
C130 C129 1.374 1_565 S
C130 C131 1.383 . S
C131 O125 1.427 . S
C131 C130 1.383 . S
C131 C132 1.385 1_565 S
C132 H122 0.929 . S
C132 C128 1.377 . S
C132 C131 1.385 1_545 S
H133 C140 0.929 . S
H134 C143 0.930 . S
H135 C145 0.929 . S
H136 C137 0.969 . S
C137 H136 0.969 . S
C137 O138 1.550 . S
C137 H139 0.973 . S
O138 C137 1.550 . S
O138 C144 1.412 . S
H139 C137 0.973 . S
C140 H133 0.929 . S
C140 C141 1.400 . S
C140 C142 1.364 . S
C141 C140 1.400 . S
C141 C145 1.377 . S
C142 C140 1.364 . S
C142 C143 1.374 . S
C143 H134 0.930 . S
C143 C142 1.374 . S
C143 C144 1.383 . S
C144 O138 1.412 . S
C144 C143 1.383 . S
C144 C145 1.394 . S
C145 H135 0.929 . S
C145 C141 1.377 . S
C145 C144 1.394 . S
H146 C153 0.929 1_655 S
H147 C156 0.930 . S
H148 C158 0.929 . S
H149 C150 0.969 . S
C150 H149 0.969 . S
C150 O151 1.550 . S
C150 H152 0.973 . S
O151 C150 1.550 . S
O151 C157 1.412 . S
H152 C150 0.973 . S
C153 H146 0.929 1_455 S
C153 C154 1.400 . S
C153 C155 1.364 . S
C154 C153 1.400 . S
C154 C158 1.377 . S
C155 C153 1.364 . S
C155 C156 1.374 . S
C156 H147 0.930 . S
C156 C155 1.374 . S
C156 C157 1.383 . S
C157 O151 1.412 . S
C157 C156 1.383 . S
C157 C158 1.394 . S
C158 H148 0.929 . S
C158 C154 1.377 . S
C158 C157 1.394 . S
H159 C166 0.929 . S
H160 C169 0.930 . S
H161 C171 0.929 . S
H162 C163 0.969 . S
C163 H162 0.969 . S
C163 O164 1.550 . S
C163 H165 0.973 . S
O164 C163 1.550 . S
O164 C170 1.412 . S
H165 C163 0.973 . S
C166 H159 0.929 . S
C166 C167 1.400 . S
C166 C168 1.364 1_655 S
C167 C166 1.400 . S
C167 C171 1.377 1_655 S
C168 C166 1.364 1_455 S
C168 C169 1.374 . S
C169 H160 0.930 . S
C169 C168 1.374 . S
C169 C170 1.383 . S
C170 O164 1.412 . S
C170 C169 1.383 . S
C170 C171 1.394 . S
C171 H161 0.929 . S
C171 C167 1.377 1_455 S
C171 C170 1.394 . S
H172 C179 0.929 . S
H173 C182 0.930 . S
H174 C184 0.929 . S
H175 C176 0.969 . S
C176 H175 0.969 . S
C176 O177 1.550 . S
C176 H178 0.973 . S
O177 C176 1.550 . S
O177 C183 1.412 . S
H178 C176 0.973 . S
C179 H172 0.929 . S
C179 C180 1.400 . S
C179 C181 1.364 1_565 S
C180 C179 1.400 . S
C180 C184 1.377 . S
C181 C179 1.364 1_545 S
C181 C182 1.374 . S
C182 H173 0.930 . S
C182 C181 1.374 . S
C182 C183 1.383 . S
C183 O177 1.412 . S
C183 C182 1.383 . S
C183 C184 1.394 1_545 S
C184 H174 0.929 . S
C184 C180 1.377 . S
C184 C183 1.394 1_565 S
H185 C192 0.929 . S
H186 C195 0.930 . S
H187 C197 0.929 . S
H188 C189 0.969 . S
C189 H188 0.969 . S
C189 O190 1.550 . S
C189 H191 0.973 . S
O190 C189 1.550 . S
O190 C196 1.412 . S
H191 C189 0.973 . S
C192 H185 0.929 . S
C192 C193 1.400 . S
C192 C194 1.364 . S
C193 C192 1.400 . S
C193 C197 1.377 . S
C194 C192 1.364 . S
C194 C195 1.374 . S
C195 H186 0.930 . S
C195 C194 1.374 . S
C195 C196 1.383 . S
C196 O190 1.412 . S
C196 C195 1.383 . S
C196 C197 1.394 . S
C197 H187 0.929 . S
C197 C193 1.377 . S
C197 C196 1.394 . S
H198 C206 0.950 . S
H199 C211 0.950 . S
H200 C208 0.950 . S
H201 C210 0.950 . S
H202 C212 0.950 . S
H203 C214 0.950 . S
H204 C216 0.950 . S
H205 C217 0.950 . S
C206 H198 0.950 . S
C206 C207 1.386 . S
C206 C208 1.391 . S
C207 C206 1.386 . S
C207 C211 1.393 . S
C208 H200 0.950 . S
C208 C206 1.391 . S
C208 C209 1.400 . S
C209 C208 1.400 . S
C209 C210 1.398 . S
C209 C215 1.491 . S
C210 H201 0.950 . S
C210 C209 1.398 . S
C210 C211 1.391 . S
C211 H199 0.950 . S
C211 C207 1.393 . S
C211 C210 1.391 . S
C212 H202 0.950 . S
C212 C213 1.386 . S
C212 C214 1.391 . S
C213 C212 1.386 . S
C213 C217 1.393 . S
C214 H203 0.950 . S
C214 C212 1.391 . S
C214 C215 1.400 . S
C215 C209 1.491 . S
C215 C214 1.400 . S
C215 C216 1.398 . S
C216 H204 0.950 . S
C216 C215 1.398 . S
C216 C217 1.391 . S
C217 H205 0.950 . S
C217 C213 1.393 . S
C217 C216 1.391 . S
H218 C226 0.950 . S
H219 C231 0.950 . S
H220 C228 0.950 . S
H221 C230 0.950 . S
H222 C232 0.950 . S
H223 C234 0.950 . S
H224 C236 0.950 . S
H225 C237 0.950 1_455 S
C226 H218 0.950 . S
C226 C227 1.386 . S
C226 C228 1.391 . S
C227 C226 1.386 . S
C227 C231 1.393 . S
C228 H220 0.950 . S
C228 C226 1.391 . S
C228 C229 1.400 . S
C229 C228 1.400 . S
C229 C230 1.398 . S
C229 C235 1.491 . S
C230 H221 0.950 . S
C230 C229 1.398 . S
C230 C231 1.391 . S
C231 H219 0.950 . S
C231 C227 1.393 . S
C231 C230 1.391 . S
C232 H222 0.950 . S
C232 C233 1.386 . S
C232 C234 1.391 . S
C233 C232 1.386 . S
C233 C237 1.393 . S
C234 H223 0.950 . S
C234 C232 1.391 . S
C234 C235 1.400 . S
C235 C229 1.491 . S
C235 C234 1.400 . S
C235 C236 1.398 . S
C236 H224 0.950 . S
C236 C235 1.398 . S
C236 C237 1.391 . S
C237 H225 0.950 1_655 S
C237 C233 1.393 . S
C237 C236 1.391 . S
H238 C246 0.950 . S
H239 C251 0.950 . S
H240 C248 0.950 . S
H241 C250 0.950 . S
H242 C252 0.950 . S
H243 C254 0.950 . S
H244 C256 0.950 . S
H245 C257 0.950 . S
C246 H238 0.950 . S
C246 C247 1.386 . S
C246 C248 1.391 . S
C247 C246 1.386 . S
C247 C251 1.393 . S
C248 H240 0.950 . S
C248 C246 1.391 . S
C248 C249 1.400 . S
C249 C248 1.400 . S
C249 C250 1.398 . S
C249 C255 1.491 . S
C250 H241 0.950 . S
C250 C249 1.398 . S
C250 C251 1.391 . S
C251 H239 0.950 . S
C251 C247 1.393 . S
C251 C250 1.391 . S
C252 H242 0.950 . S
C252 C253 1.386 . S
C252 C254 1.391 . S
C253 C252 1.386 . S
C253 C257 1.393 . S
C254 H243 0.950 . S
C254 C252 1.391 . S
C254 C255 1.400 . S
C255 C249 1.491 . S
C255 C254 1.400 . S
C255 C256 1.398 . S
C256 H244 0.950 . S
C256 C255 1.398 . S
C256 C257 1.391 . S
C257 H245 0.950 . S
C257 C253 1.393 . S
C257 C256 1.391 . S
H258 C266 0.950 . S
H259 C271 0.950 . S
H260 C268 0.950 . S
H261 C270 0.950 . S
H262 C272 0.950 . S
H263 C274 0.950 . S
H264 C276 0.950 . S
H265 C277 0.950 . S
C266 H258 0.950 . S
C266 C267 1.386 . S
C266 C268 1.391 . S
C267 C266 1.386 . S
C267 C271 1.393 . S
C268 H260 0.950 . S
C268 C266 1.391 . S
C268 C269 1.400 . S
C269 C268 1.400 . S
C269 C270 1.398 . S
C269 C275 1.491 . S
C270 H261 0.950 . S
C270 C269 1.398 . S
C270 C271 1.391 . S
C271 H259 0.950 . S
C271 C267 1.393 . S
C271 C270 1.391 . S
C272 H262 0.950 . S
C272 C273 1.386 . S
C272 C274 1.391 . S
C273 C272 1.386 . S
C273 C277 1.393 . S
C274 H263 0.950 . S
C274 C272 1.391 . S
C274 C275 1.400 . S
C275 C269 1.491 . S
C275 C274 1.400 . S
C275 C276 1.398 . S
C276 H264 0.950 . S
C276 C275 1.398 . S
C276 C277 1.391 . S
C277 H265 0.950 . S
C277 C273 1.393 . S
C277 C276 1.391 . S
H278 C286 0.950 . S
H279 C291 0.950 . S
H280 C288 0.950 . S
H281 C290 0.950 . S
H282 C292 0.950 . S
H283 C294 0.950 . S
H284 C296 0.950 . S
H285 C297 0.950 . S
C286 H278 0.950 . S
C286 C287 1.386 . S
C286 C288 1.391 . S
C287 C286 1.386 . S
C287 C291 1.393 . S
C288 H280 0.950 . S
C288 C286 1.391 . S
C288 C289 1.400 . S
C289 C288 1.400 . S
C289 C290 1.398 . S
C289 C295 1.491 . S
C290 H281 0.950 . S
C290 C289 1.398 . S
C290 C291 1.391 . S
C291 H279 0.950 . S
C291 C287 1.393 . S
C291 C290 1.391 . S
C292 H282 0.950 . S
C292 C293 1.386 . S
C292 C294 1.391 . S
C293 C292 1.386 . S
C293 C297 1.393 . S
C294 H283 0.950 . S
C294 C292 1.391 . S
C294 C295 1.400 . S
C295 C289 1.491 . S
C295 C294 1.400 . S
C295 C296 1.398 . S
C296 H284 0.950 . S
C296 C295 1.398 . S
C296 C297 1.391 . S
C297 H285 0.950 . S
C297 C293 1.393 . S
C297 C296 1.391 . S
H298 C306 0.950 . S
H299 C311 0.950 . S
H300 C308 0.950 . S
H301 C310 0.950 . S
H302 C312 0.950 . S
H303 C314 0.950 . S
H304 C316 0.950 . S
H305 C317 0.950 . S
C306 H298 0.950 . S
C306 C307 1.386 . S
C306 C308 1.391 . S
C307 C306 1.386 . S
C307 C311 1.393 . S
C308 H300 0.950 . S
C308 C306 1.391 . S
C308 C309 1.400 . S
C309 C308 1.400 . S
C309 C310 1.398 . S
C309 C315 1.491 . S
C310 H301 0.950 . S
C310 C309 1.398 . S
C310 C311 1.391 . S
C311 H299 0.950 . S
C311 C307 1.393 . S
C311 C310 1.391 . S
C312 H302 0.950 . S
C312 C313 1.386 . S
C312 C314 1.391 . S
C313 C312 1.386 . S
C313 C317 1.393 . S
C314 H303 0.950 . S
C314 C312 1.391 . S
C314 C315 1.400 . S
C315 C309 1.491 . S
C315 C314 1.400 . S
C315 C316 1.398 . S
C316 H304 0.950 . S
C316 C315 1.398 . S
C316 C317 1.391 . S
C317 H305 0.950 . S
C317 C313 1.393 . S
C317 C316 1.391 . S
H318 C326 0.950 . S
H319 C331 0.950 . S
H320 C328 0.950 . S
H321 C330 0.950 . S
H322 C332 0.950 . S
H323 C334 0.950 . S
H324 C336 0.950 . S
H325 C337 0.950 . S
C326 H318 0.950 . S
C326 C327 1.386 . S
C326 C328 1.391 . S
C327 C326 1.386 . S
C327 C331 1.393 . S
C328 H320 0.950 . S
C328 C326 1.391 . S
C328 C329 1.400 . S
C329 C328 1.400 . S
C329 C330 1.398 . S
C329 C335 1.491 . S
C330 H321 0.950 . S
C330 C329 1.398 . S
C330 C331 1.391 . S
C331 H319 0.950 . S
C331 C327 1.393 . S
C331 C330 1.391 . S
C332 H322 0.950 . S
C332 C333 1.386 . S
C332 C334 1.391 . S
C333 C332 1.386 . S
C333 C337 1.393 . S
C334 H323 0.950 . S
C334 C332 1.391 . S
C334 C335 1.400 . S
C335 C329 1.491 . S
C335 C334 1.400 . S
C335 C336 1.398 . S
C336 H324 0.950 . S
C336 C335 1.398 . S
C336 C337 1.391 . S
C337 H325 0.950 . S
C337 C333 1.393 . S
C337 C336 1.391 . S
H338 C346 0.950 . S
H339 C351 0.950 . S
H340 C348 0.950 . S
H341 C350 0.950 . S
H342 C352 0.950 . S
H343 C354 0.950 . S
H344 C356 0.950 . S
H345 C357 0.950 . S
C346 H338 0.950 . S
C346 C347 1.386 . S
C346 C348 1.391 . S
C347 C346 1.386 . S
C347 C351 1.393 . S
C348 H340 0.950 . S
C348 C346 1.391 . S
C348 C349 1.400 . S
C349 C348 1.400 . S
C349 C350 1.398 . S
C349 C355 1.491 . S
C350 H341 0.950 . S
C350 C349 1.398 . S
C350 C351 1.391 . S
C351 H339 0.950 . S
C351 C347 1.393 . S
C351 C350 1.391 . S
C352 H342 0.950 . S
C352 C353 1.386 . S
C352 C354 1.391 . S
C353 C352 1.386 . S
C353 C357 1.393 . S
C354 H343 0.950 . S
C354 C352 1.391 . S
C354 C355 1.400 . S
C355 C349 1.491 . S
C355 C354 1.400 . S
C355 C356 1.398 . S
C356 H344 0.950 . S
C356 C355 1.398 . S
C356 C357 1.391 . S
C357 H345 0.950 . S
C357 C353 1.393 . S
C357 C356 1.391 . S
H358 C366 0.950 . S
H359 C371 0.950 . S
H360 C368 0.950 . S
H361 C370 0.950 . S
H362 C372 0.950 . S
H363 C374 0.950 . S
H364 C376 0.950 . S
H365 C377 0.950 . S
C366 H358 0.950 . S
C366 C367 1.386 . S
C366 C368 1.391 . S
C367 C366 1.386 . S
C367 C371 1.393 . S
C368 H360 0.950 . S
C368 C366 1.391 . S
C368 C369 1.400 . S
C369 C368 1.400 . S
C369 C370 1.398 . S
C369 C375 1.491 . S
C370 H361 0.950 . S
C370 C369 1.398 . S
C370 C371 1.391 . S
C371 H359 0.950 . S
C371 C367 1.393 . S
C371 C370 1.391 . S
C372 H362 0.950 . S
C372 C373 1.386 . S
C372 C374 1.391 . S
C373 C372 1.386 . S
C373 C377 1.393 . S
C374 H363 0.950 . S
C374 C372 1.391 . S
C374 C375 1.400 . S
C375 C369 1.491 . S
C375 C374 1.400 . S
C375 C376 1.398 . S
C376 H364 0.950 . S
C376 C375 1.398 . S
C376 C377 1.391 . S
C377 H365 0.950 . S
C377 C373 1.393 . S
C377 C376 1.391 . S
H378 C386 0.950 . S
H379 C391 0.950 . S
H380 C388 0.950 . S
H381 C390 0.950 . S
H382 C392 0.950 . S
H383 C394 0.950 . S
H384 C396 0.950 . S
H385 C397 0.950 . S
C386 H378 0.950 . S
C386 C387 1.386 . S
C386 C388 1.391 . S
C387 C386 1.386 . S
C387 C391 1.393 . S
C388 H380 0.950 . S
C388 C386 1.391 . S
C388 C389 1.400 . S
C389 C388 1.400 . S
C389 C390 1.398 . S
C389 C395 1.491 . S
C390 H381 0.950 . S
C390 C389 1.398 . S
C390 C391 1.391 . S
C391 H379 0.950 . S
C391 C387 1.393 . S
C391 C390 1.391 . S
C392 H382 0.950 . S
C392 C393 1.386 . S
C392 C394 1.391 . S
C393 C392 1.386 . S
C393 C397 1.393 . S
C394 H383 0.950 . S
C394 C392 1.391 . S
C394 C395 1.400 . S
C395 C389 1.491 . S
C395 C394 1.400 . S
C395 C396 1.398 . S
C396 H384 0.950 . S
C396 C395 1.398 . S
C396 C397 1.391 . S
C397 H385 0.950 . S
C397 C393 1.393 . S
C397 C396 1.391 . S
H398 C406 0.950 . S
H399 C411 0.950 . S
H400 C408 0.950 . S
H401 C410 0.950 . S
H402 C412 0.950 . S
H403 C414 0.950 . S
H404 C416 0.950 . S
H405 C417 0.950 . S
C406 H398 0.950 . S
C406 C407 1.386 . S
C406 C408 1.391 . S
C407 C406 1.386 . S
C407 C411 1.393 . S
C408 H400 0.950 . S
C408 C406 1.391 . S
C408 C409 1.400 . S
C409 C408 1.400 . S
C409 C410 1.398 . S
C409 C415 1.491 . S
C410 H401 0.950 . S
C410 C409 1.398 . S
C410 C411 1.391 . S
C411 H399 0.950 . S
C411 C407 1.393 . S
C411 C410 1.391 . S
C412 H402 0.950 . S
C412 C413 1.386 . S
C412 C414 1.391 . S
C413 C412 1.386 . S
C413 C417 1.393 . S
C414 H403 0.950 . S
C414 C412 1.391 . S
C414 C415 1.400 . S
C415 C409 1.491 . S
C415 C414 1.400 . S
C415 C416 1.398 . S
C416 H404 0.950 . S
C416 C415 1.398 . S
C416 C417 1.391 . S
C417 H405 0.950 . S
C417 C413 1.393 . S
C417 C416 1.391 . S
H418 C426 0.950 . S
H419 C431 0.950 . S
H420 C428 0.950 . S
H421 C430 0.950 . S
H422 C432 0.950 . S
H423 C434 0.950 . S
H424 C436 0.950 . S
H425 C437 0.950 . S
C426 H418 0.950 . S
C426 C427 1.386 . S
C426 C428 1.391 . S
C427 C426 1.386 . S
C427 C431 1.393 . S
C428 H420 0.950 . S
C428 C426 1.391 . S
C428 C429 1.400 . S
C429 C428 1.400 . S
C429 C430 1.398 . S
C429 C435 1.491 . S
C430 H421 0.950 . S
C430 C429 1.398 . S
C430 C431 1.391 . S
C431 H419 0.950 . S
C431 C427 1.393 . S
C431 C430 1.391 . S
C432 H422 0.950 . S
C432 C433 1.386 . S
C432 C434 1.391 . S
C433 C432 1.386 . S
C433 C437 1.393 . S
C434 H423 0.950 . S
C434 C432 1.391 . S
C434 C435 1.400 . S
C435 C429 1.491 . S
C435 C434 1.400 . S
C435 C436 1.398 . S
C436 H424 0.950 . S
C436 C435 1.398 . S
C436 C437 1.391 . S
C437 H425 0.950 . S
C437 C433 1.393 . S
C437 C436 1.391 . S
H438 C446 0.950 . S
H439 C451 0.950 1_655 S
H440 C448 0.950 . S
H441 C450 0.950 1_655 S
H442 C452 0.950 . S
H443 C454 0.950 . S
H444 C456 0.950 . S
H445 C457 0.950 . S
C446 H438 0.950 . S
C446 C447 1.386 . S
C446 C448 1.391 . S
C447 C446 1.386 . S
C447 C451 1.393 . S
C448 H440 0.950 . S
C448 C446 1.391 . S
C448 C449 1.400 . S
C449 C448 1.400 . S
C449 C450 1.398 . S
C449 C455 1.491 1_554 S
C450 H441 0.950 1_455 S
C450 C449 1.398 . S
C450 C451 1.391 . S
C451 H439 0.950 1_455 S
C451 C447 1.393 . S
C451 C450 1.391 . S
C452 H442 0.950 . S
C452 C453 1.386 . S
C452 C454 1.391 . S
C453 C452 1.386 . S
C453 C457 1.393 . S
C454 H443 0.950 . S
C454 C452 1.391 . S
C454 C455 1.400 . S
C455 C449 1.491 1_556 S
C455 C454 1.400 . S
C455 C456 1.398 . S
C456 H444 0.950 . S
C456 C455 1.398 . S
C456 C457 1.391 . S
C457 H445 0.950 . S
C457 C453 1.393 . S
C457 C456 1.391 . S
H458 C466 0.950 . S
H459 C471 0.950 . S
H460 C468 0.950 . S
H461 C470 0.950 . S
H462 C472 0.950 . S
H463 C474 0.950 . S
H464 C476 0.950 . S
H465 C477 0.950 . S
C466 H458 0.950 . S
C466 C467 1.386 . S
C466 C468 1.391 . S
C467 C466 1.386 . S
C467 C471 1.393 . S
C468 H460 0.950 . S
C468 C466 1.391 . S
C468 C469 1.400 . S
C469 C468 1.400 . S
C469 C470 1.398 . S
C469 C475 1.491 . S
C470 H461 0.950 . S
C470 C469 1.398 . S
C470 C471 1.391 . S
C471 H459 0.950 . S
C471 C467 1.393 . S
C471 C470 1.391 . S
C472 H462 0.950 . S
C472 C473 1.386 . S
C472 C474 1.391 . S
C473 C472 1.386 . S
C473 C477 1.393 . S
C474 H463 0.950 . S
C474 C472 1.391 . S
C474 C475 1.400 . S
C475 C469 1.491 . S
C475 C474 1.400 . S
C475 C476 1.398 . S
C476 H464 0.950 . S
C476 C475 1.398 . S
C476 C477 1.391 . S
C477 H465 0.950 . S
C477 C473 1.393 . S
C477 C476 1.391 . S
H478 C486 0.950 . S
H479 C491 0.950 . S
H480 C488 0.950 . S
H481 C490 0.950 . S
H482 C492 0.950 . S
H483 C494 0.950 . S
H484 C496 0.950 . S
H485 C497 0.950 . S
C486 H478 0.950 . S
C486 C487 1.386 . S
C486 C488 1.391 . S
C487 C486 1.386 . S
C487 C491 1.393 . S
C488 H480 0.950 . S
C488 C486 1.391 . S
C488 C489 1.400 . S
C489 C488 1.400 . S
C489 C490 1.398 . S
C489 C495 1.491 . S
C490 H481 0.950 . S
C490 C489 1.398 . S
C490 C491 1.391 . S
C491 H479 0.950 . S
C491 C487 1.393 . S
C491 C490 1.391 . S
C492 H482 0.950 . S
C492 C493 1.386 . S
C492 C494 1.391 . S
C493 C492 1.386 . S
C493 C497 1.393 . S
C494 H483 0.950 . S
C494 C492 1.391 . S
C494 C495 1.400 . S
C495 C489 1.491 . S
C495 C494 1.400 . S
C495 C496 1.398 . S
C496 H484 0.950 . S
C496 C495 1.398 . S
C496 C497 1.391 . S
C497 H485 0.950 . S
C497 C493 1.393 . S
C497 C496 1.391 . S
H498 C506 0.950 . S
H499 C511 0.950 . S
H500 C508 0.950 . S
H501 C510 0.950 . S
H502 C512 0.950 . S
H503 C514 0.950 . S
H504 C516 0.950 . S
H505 C517 0.950 . S
C506 H498 0.950 . S
C506 C507 1.386 1_565 S
C506 C508 1.391 . S
C507 C506 1.386 1_545 S
C507 C511 1.393 . S
C508 H500 0.950 . S
C508 C506 1.391 . S
C508 C509 1.400 1_565 S
C509 C508 1.400 1_545 S
C509 C510 1.398 . S
C509 C515 1.491 . S
C510 H501 0.950 . S
C510 C509 1.398 . S
C510 C511 1.391 . S
C511 H499 0.950 . S
C511 C507 1.393 . S
C511 C510 1.391 . S
C512 H502 0.950 . S
C512 C513 1.386 . S
C512 C514 1.391 . S
C513 C512 1.386 . S
C513 C517 1.393 1_545 S
C514 H503 0.950 . S
C514 C512 1.391 . S
C514 C515 1.400 . S
C515 C509 1.491 . S
C515 C514 1.400 . S
C515 C516 1.398 1_545 S
C516 H504 0.950 . S
C516 C515 1.398 1_565 S
C516 C517 1.391 . S
C517 H505 0.950 . S
C517 C513 1.393 1_565 S
C517 C516 1.391 . S
H518 C526 0.950 . S
H519 C531 0.950 . S
H520 C528 0.950 . S
H521 C530 0.950 . S
H522 C532 0.950 . S
H523 C534 0.950 1_556 S
H524 C536 0.950 . S
H525 C537 0.950 . S
C526 H518 0.950 . S
C526 C527 1.386 . S
C526 C528 1.391 . S
C527 C526 1.386 . S
C527 C531 1.393 . S
C528 H520 0.950 . S
C528 C526 1.391 . S
C528 C529 1.400 . S
C529 C528 1.400 . S
C529 C530 1.398 . S
C529 C535 1.491 . S
C530 H521 0.950 . S
C530 C529 1.398 . S
C530 C531 1.391 . S
C531 H519 0.950 . S
C531 C527 1.393 . S
C531 C530 1.391 . S
C532 H522 0.950 . S
C532 C533 1.386 . S
C532 C534 1.391 . S
C533 C532 1.386 . S
C533 C537 1.393 . S
C534 H523 0.950 1_554 S
C534 C532 1.391 . S
C534 C535 1.400 1_554 S
C535 C529 1.491 . S
C535 C534 1.400 1_556 S
C535 C536 1.398 1_556 S
C536 H524 0.950 . S
C536 C535 1.398 1_554 S
C536 C537 1.391 . S
C537 H525 0.950 . S
C537 C533 1.393 . S
C537 C536 1.391 . S
H538 C546 0.950 . S
H539 C551 0.950 . S
H540 C548 0.950 . S
H541 C550 0.950 . S
H542 C552 0.950 . S
H543 C554 0.950 . S
H544 C556 0.950 . S
H545 C557 0.950 . S
C546 H538 0.950 . S
C546 C547 1.386 1_655 S
C546 C548 1.391 . S
C547 C546 1.386 1_455 S
C547 C551 1.393 . S
C548 H540 0.950 . S
C548 C546 1.391 . S
C548 C549 1.400 1_655 S
C549 C548 1.400 1_455 S
C549 C550 1.398 . S
C549 C555 1.491 . S
C550 H541 0.950 . S
C550 C549 1.398 . S
C550 C551 1.391 . S
C551 H539 0.950 . S
C551 C547 1.393 . S
C551 C550 1.391 . S
C552 H542 0.950 . S
C552 C553 1.386 . S
C552 C554 1.391 . S
C553 C552 1.386 . S
C553 C557 1.393 1_455 S
C554 H543 0.950 . S
C554 C552 1.391 . S
C554 C555 1.400 . S
C555 C549 1.491 . S
C555 C554 1.400 . S
C555 C556 1.398 1_455 S
C556 H544 0.950 . S
C556 C555 1.398 1_655 S
C556 C557 1.391 . S
C557 H545 0.950 . S
C557 C553 1.393 1_655 S
C557 C556 1.391 . S
C207 C9 0.481 . S
C213 C189 0.556 . S
C227 C49 0.212 . S
C233 C167 0.274 . S
C247 C89 0.238 . S
C253 C180 0.241 . S
C267 C26 0.318 . S
C273 C193 0.255 . S
C293 C163 0.522 . S
C287 C66 0.604 . S
C313 C176 0.564 . S
C307 C106 0.579 . S
C327 C43 2.900 . S
C333 C141 2.868 . S
C347 C83 2.995 . S
C353 C154 2.951 1_655 S
C367 C22 3.164 . S
C373 C124 2.946 . S
C393 C137 2.961 . S
C387 C62 3.177 . S
C413 C150 2.881 . S
C407 C102 3.079 . S
C427 C3 2.909 . S
C433 C128 2.881 . S
C453 C155 1.748 . S
C447 C15 1.705 . S
C467 C55 1.715 . S
C473 C129 1.781 . S
C487 C95 1.704 . S
C493 C142 1.779 . S
C513 C181 1.258 . S
C507 C42 1.245 . S
C533 C194 1.255 . S
C527 C82 1.256 . S
C547 C2 1.215 . S
C553 C168 1.245 . S
