# Generated by pormake.
# Topology zzz, (3,6)-cn, num edge types: 1
# Building blocks:
#     Node 0, Type 0, BuildingBlock: PAMTOO_clean_linker_0, # of connection points: 3
#     Node 1, Type 0, BuildingBlock: PAMTOO_clean_linker_0, # of connection points: 3
#     Node 2, Type 0, BuildingBlock: PAMTOO_clean_linker_0, # of connection points: 3
#     Node 3, Type 0, BuildingBlock: PAMTOO_clean_linker_0, # of connection points: 3
#     Node 4, Type 0, BuildingBlock: PAMTOO_clean_linker_0, # of connection points: 3
#     Node 5, Type 0, BuildingBlock: PAMTOO_clean_linker_0, # of connection points: 3
#     Node 6, Type 0, BuildingBlock: PAMTOO_clean_linker_0, # of connection points: 3
#     Node 7, Type 0, BuildingBlock: PAMTOO_clean_linker_0, # of connection points: 3
#     Node 8, Type 1, BuildingBlock: KUMBOL_clean_sbu_0, # of connection points: 6
#     Node 9, Type 1, BuildingBlock: KUMBOL_clean_sbu_0, # of connection points: 6
#     Node 10, Type 1, BuildingBlock: KUMBOL_clean_sbu_0, # of connection points: 6
#     Node 11, Type 1, BuildingBlock: KUMBOL_clean_sbu_0, # of connection points: 6
#     Edge 12, Type (0, 1), BuildingBlock: CIFDUS_clean_linker_0, # of connection points: 2
#     Edge 13, Type (0, 1), BuildingBlock: CIFDUS_clean_linker_0, # of connection points: 2
#     Edge 14, Type (0, 1), BuildingBlock: CIFDUS_clean_linker_0, # of connection points: 2
#     Edge 15, Type (0, 1), BuildingBlock: CIFDUS_clean_linker_0, # of connection points: 2
#     Edge 16, Type (0, 1), BuildingBlock: CIFDUS_clean_linker_0, # of connection points: 2
#     Edge 17, Type (0, 1), BuildingBlock: CIFDUS_clean_linker_0, # of connection points: 2
#     Edge 18, Type (0, 1), BuildingBlock: CIFDUS_clean_linker_0, # of connection points: 2
#     Edge 19, Type (0, 1), BuildingBlock: CIFDUS_clean_linker_0, # of connection points: 2
#     Edge 20, Type (0, 1), BuildingBlock: CIFDUS_clean_linker_0, # of connection points: 2
#     Edge 21, Type (0, 1), BuildingBlock: CIFDUS_clean_linker_0, # of connection points: 2
#     Edge 22, Type (0, 1), BuildingBlock: CIFDUS_clean_linker_0, # of connection points: 2
#     Edge 23, Type (0, 1), BuildingBlock: CIFDUS_clean_linker_0, # of connection points: 2
#     Edge 24, Type (0, 1), BuildingBlock: CIFDUS_clean_linker_0, # of connection points: 2
#     Edge 25, Type (0, 1), BuildingBlock: CIFDUS_clean_linker_0, # of connection points: 2
#     Edge 26, Type (0, 1), BuildingBlock: CIFDUS_clean_linker_0, # of connection points: 2
#     Edge 27, Type (0, 1), BuildingBlock: CIFDUS_clean_linker_0, # of connection points: 2
#     Edge 28, Type (0, 1), BuildingBlock: CIFDUS_clean_linker_0, # of connection points: 2
#     Edge 29, Type (0, 1), BuildingBlock: CIFDUS_clean_linker_0, # of connection points: 2
#     Edge 30, Type (0, 1), BuildingBlock: CIFDUS_clean_linker_0, # of connection points: 2
#     Edge 31, Type (0, 1), BuildingBlock: CIFDUS_clean_linker_0, # of connection points: 2
#     Edge 32, Type (0, 1), BuildingBlock: CIFDUS_clean_linker_0, # of connection points: 2
#     Edge 33, Type (0, 1), BuildingBlock: CIFDUS_clean_linker_0, # of connection points: 2
#     Edge 34, Type (0, 1), BuildingBlock: CIFDUS_clean_linker_0, # of connection points: 2
#     Edge 35, Type (0, 1), BuildingBlock: CIFDUS_clean_linker_0, # of connection points: 2
# Relax obj value: 0.193
# Max RMSD: 0.171
# Mean RMSD: 0.116
data_MOF--net-zzz--node1-KUMBOL_clean_sbu_0--node2-PAMTOO_clean_linker_0--edge1-CIFDUS_clean_linker_0
_symmetry_space_group_name_H-M    P1
_symmetry_Int_Tables_number       1
_symmetry_cell_setting            triclinic
loop_
_symmetry_equiv_pos_as_xyz
'x, y, z'
_cell_length_a     44.525488
_cell_length_b     44.463053
_cell_length_c     13.051731
_cell_angle_alpha  91.335898
_cell_angle_beta   89.803496
_cell_angle_gamma 90.002876
loop_
_atom_site_label
_atom_site_type_symbol
_atom_site_fract_x
_atom_site_fract_y
_atom_site_fract_z
_atom_type_partial_charge
H0 H 0.8301 0.59291 0.2985 0.0
H1 H 0.75113 0.58975 0.11058 0.0
H2 H 0.77623 0.51281 0.28696 0.0
H3 H 0.70221 0.55929 0.23424 0.0
C4 C 0.70516 0.5385 0.18602 0.0
O5 O 0.73515 0.53552 0.15506 0.0
H6 H 0.69962 0.5193 0.23564 0.0
C7 C 0.80986 0.58136 0.27345 0.0
C8 C 0.80604 0.55156 0.30235 0.0
C9 C 0.79072 0.59524 0.20345 0.0
C10 C 0.76527 0.5797 0.16783 0.0
C11 C 0.75893 0.55044 0.19998 0.0
C12 C 0.77973 0.53605 0.2671 0.0
H13 H 0.97672 0.85414 0.23446 0.0
H14 H 0.98038 0.76823 0.07562 0.0
H15 H 0.03981 0.78694 0.32901 0.0
H16 H 0.98668 0.72073 0.16742 0.0
C17 C 1.0115 0.71821 0.17138 0.0
O18 O 0.02528 0.74681 0.17133 0.0
H19 H 0.0161 0.70785 0.24635 0.0
C20 C 0.9856 0.83149 0.22757 0.0
C21 C 1.00869 0.82347 0.2947 0.0
C22 C 0.97489 0.8118 0.14922 0.0
C23 C 0.98784 0.78321 0.13698 0.0
C24 C 1.0112 0.77361 0.19944 0.0
C25 C 0.0214 0.79374 0.28083 0.0
H26 H 0.71077 0.96778 0.28942 0.0
H27 H 0.80231 0.96524 0.17813 0.0
H28 H 0.77281 0.03665 0.38208 0.0
H29 H 0.82996 0.05542 0.21499 0.0
C30 C 0.82861 0.03176 0.18631 0.0
O31 O 0.81964 0.01383 0.26798 0.0
H32 H 0.81089 0.03138 0.12625 0.0
C33 C 0.73357 0.97613 0.28935 0.0
C34 C 0.73914 1.00213 0.34903 0.0
C35 C 0.75536 0.96337 0.22201 0.0
C36 C 0.78463 0.97531 0.2245 0.0
C37 C 0.79122 1.002 0.27863 0.0
C38 C 0.76817 0.01578 0.3408 0.0
H39 H 0.49567 0.70951 0.30023 0.0
H40 H 0.50505 0.78875 0.12301 0.0
H41 H 0.56401 0.7743 0.37998 0.0
H42 H 0.54976 0.84762 0.32718 0.0
C43 C 0.53898 0.8404 0.25396 0.0
O44 O 0.5497 0.81185 0.22644 0.0
H45 H 0.51439 0.83956 0.26954 0.0
C46 C 0.50618 0.73128 0.29008 0.0
C47 C 0.53015 0.73962 0.35338 0.0
C48 C 0.49671 0.74877 0.20883 0.0
C49 C 0.51162 0.77569 0.18832 0.0
C50 C 0.53541 0.78567 0.25094 0.0
C51 C 0.54509 0.76729 0.33336 0.0
H52 H 0.20353 0.47668 0.11795 0.0
H53 H 0.27922 0.48093 0.32051 0.0
H54 H 0.2762 0.53707 0.05449 0.0
H55 H 0.34591 0.50706 0.1307 0.0
C56 C 0.33689 0.50444 0.20928 0.0
O57 O 0.30979 0.52031 0.21804 0.0
H58 H 0.33247 0.48 0.21834 0.0
C59 C 0.22574 0.48528 0.13601 0.0
C60 C 0.2372 0.50816 0.07581 0.0
C61 C 0.24027 0.47543 0.22422 0.0
C62 C 0.26835 0.48761 0.25045 0.0
C63 C 0.28245 0.50876 0.18752 0.0
C64 C 0.26653 0.51942 0.0998 0.0
H65 H 0.05216 0.20111 0.17645 0.0
H66 H 0.04956 0.28974 0.31462 0.0
H67 H 0.03175 0.27779 0.99248 0.0
H68 H 0.04674 0.35778 0.09899 0.0
C69 C 0.0519 0.3433 0.16487 0.0
O70 O 0.03299 0.31797 0.15832 0.0
H71 H 0.07563 0.33613 0.15265 0.0
C72 C 0.05086 0.22527 0.16753 0.0
C73 C 0.04427 0.23646 0.07024 0.0
C74 C 0.05175 0.24422 0.25552 0.0
C75 C 0.04914 0.27536 0.24634 0.0
C76 C 0.04195 0.28818 0.15361 0.0
C77 C 0.03904 0.26851 0.06417 0.0
H78 H 0.34855 0.98779 0.12615 0.0
H79 H 0.26033 0.99686 0.25339 0.0
H80 H 0.28459 0.04774 0.98786 0.0
H81 H 0.22383 0.07696 0.154 0.0
C82 C 0.22837 0.05592 0.19541 0.0
O83 O 0.23967 0.03451 0.12455 0.0
H84 H 0.2459 0.06161 0.25337 0.0
C85 C 0.32634 0.99759 0.12096 0.0
C86 C 0.31995 0.01805 0.0433 0.0
C87 C 0.30511 0.99005 0.19553 0.0
C88 C 0.27664 1.00305 0.19571 0.0
C89 C 0.26879 0.02405 0.12268 0.0
C90 C 0.29065 0.03189 0.04595 0.0
H91 H 0.46115 0.33182 0.07265 0.0
H92 H 0.46649 0.25237 0.25348 0.0
H93 H 0.53999 0.27645 0.0571 0.0
H94 H 0.53207 0.19877 0.10727 0.0
C95 C 0.51456 0.20575 0.16373 0.0
O96 O 0.51924 0.2359 0.19129 0.0
H97 H 0.4924 0.20308 0.1252 0.0
C98 C 0.4722 0.31084 0.09041 0.0
C99 C 0.50116 0.30609 0.05139 0.0
C100 C 0.45989 0.2924 0.16621 0.0
C101 C 0.4753 0.26622 0.19305 0.0
C102 C 0.50366 0.2595 0.15169 0.0
C103 C 0.51705 0.28 0.08235 0.0
Gd104 Gd 1.00619 0.03949 0.58421 0.0
Gd105 Gd 0.05256 0.01974 0.79501 0.0
C106 C 0.09445 0.09192 1.00493 0.0
C107 C 0.14784 0.08305 0.97989 0.0
C108 C 0.11115 0.05302 0.88492 0.0
C109 C 0.08809 0.06874 0.9325 0.0
C110 C 0.14133 0.05962 0.90936 0.0
C111 C 0.12444 0.09921 0.02743 0.0
C112 C 0.07047 0.10687 0.05337 0.0
C113 C 0.04109 0.09814 0.03085 0.0
N114 N 0.0594 0.06083 0.91001 0.0
C115 C 0.03595 0.07457 0.96023 0.0
H116 H 0.01309 0.0681 0.94414 0.0
C117 C 0.12605 1.0118 0.77912 0.0
N118 N 0.10405 0.03031 0.81822 0.0
C119 C 0.15631 0.01767 0.79993 0.0
C120 C 0.16401 0.04188 0.86463 0.0
H121 H 0.1202 0.9928 0.73003 0.0
H122 H 0.12975 0.11698 0.08266 0.0
H123 H 0.03892 0.07163 0.38422 0.0
H124 H 0.07439 0.12497 0.10878 0.0
H125 H 0.02237 0.10938 0.06846 0.0
H126 H 0.17087 0.08846 0.99961 0.0
H127 H 0.96718 0.97954 0.67144 0.0
H128 H 0.0194 0.01895 0.11454 0.0
H129 H 0.04426 0.06274 0.19795 0.0
H130 H 0.96118 0.93715 0.24051 0.0
H131 H 0.17363 1.00339 0.76673 0.0
H132 H 0.18745 0.0462 0.88158 0.0
H133 H 0.9888 0.97207 0.13092 0.0
H134 H 0.94183 0.93478 0.60167 0.0
N135 N 0.01398 0.03152 0.40732 0.0
C136 C 0.01788 0.02218 0.19648 0.0
C137 C 0.03166 0.04708 0.24308 0.0
C138 C 1.00184 1.00198 0.25614 0.0
C139 C 0.99999 1.00752 0.36273 0.0
C140 C 0.02892 0.05181 0.34873 0.0
N141 N 0.98308 0.99428 0.52645 0.0
C142 C 0.98391 0.98838 0.42406 0.0
C143 C 0.95345 0.94974 0.55063 0.0
C144 C 0.95443 0.94326 0.44565 0.0
C145 C 0.96779 0.97548 0.58986 0.0
C146 C 0.96975 0.96266 0.38085 0.0
H147 H 0.94349 0.92318 0.41556 0.0
O148 O 0.95879 0.05032 0.60236 0.0
O149 O 0.02601 0.05764 0.73189 0.0
O150 O 1.0039 0.02033 0.85832 0.0
O151 O 0.97467 0.03138 0.71758 0.0
O152 O 0.02952 0.085 0.60759 0.0
O153 O 0.986 0.0749 0.49641 0.0
O154 O 0.07053 0.9779 0.85126 0.0
O155 O 0.02455 1.00037 0.66571 0.0
O156 O 0.05507 0.03501 0.52371 0.0
O157 O 0.08315 0.04004 0.67338 0.0
O158 O 0.06456 0.9791 0.69183 0.0
O159 O 0.04316 1.00649 0.94956 0.0
C160 C 0.03523 0.0835 0.70412 0.0
C161 C 0.97173 0.95687 0.27485 0.0
C162 C 0.98762 0.9766 0.21257 0.0
C163 C 0.96102 0.07445 0.54863 0.0
C164 C 0.95226 0.10291 0.60143 0.0
C165 C 0.9298 0.10378 0.67738 0.0
C166 C 0.96865 0.12905 0.58287 0.0
C167 C 0.96445 0.15536 0.64252 0.0
C168 C 0.92442 0.13037 0.73422 0.0
C169 C 0.9417 0.1561 0.71721 0.0
C170 C 0.97727 0.0248 0.81553 0.0
C171 C 0.04133 0.97861 0.6337 0.0
C172 C 0.05667 0.98075 0.93856 0.0
C173 C 0.03964 0.95462 0.96951 0.0
C174 C 0.0537 0.93359 0.03123 0.0
C175 C 1.00996 0.95001 0.93601 0.0
C176 C 0.99407 0.9249 0.9681 0.0
C177 C 0.03822 0.90806 0.06067 0.0
C178 C 1.00846 0.90392 0.03108 0.0
C179 C 0.08122 0.0392 0.57154 0.0
H180 H 0.91678 0.08388 0.69382 0.0
H181 H 0.98522 0.12885 0.52186 0.0
H182 H 0.90711 0.13089 0.79264 0.0
H183 H 0.93753 0.17633 0.76284 0.0
H184 H 0.07675 0.93677 0.05563 0.0
H185 H 0.99924 0.96564 0.88564 0.0
H186 H 0.04944 0.89143 0.1059 0.0
H187 H 0.99677 0.88411 0.05674 0.0
Gd188 Gd 0.51744 0.99086 0.58255 0.0
Gd189 Gd 0.53731 0.04263 0.78424 0.0
C190 C 0.45886 0.0755 0.98854 0.0
C191 C 0.4585 0.12917 0.95877 0.0
C192 C 0.49522 0.0967 0.87271 0.0
C193 C 0.48328 0.07204 0.91975 0.0
C194 C 0.48343 0.12572 0.89341 0.0
C195 C 0.44619 0.10407 1.00613 0.0
C196 C 0.44831 0.05027 0.03931 0.0
C197 C 0.46256 0.02269 0.02319 0.0
N198 N 0.49647 0.04488 0.90222 0.0
C199 C 0.487 0.02051 0.9558 0.0
H200 H 0.49747 0.99895 0.94583 0.0
C201 C 0.53458 0.11702 0.77473 0.0
N202 N 0.51957 0.09258 0.81159 0.0
C203 C 0.52357 0.14615 0.79183 0.0
C204 C 0.49766 0.15052 0.85057 0.0
H205 H 0.55486 0.11388 0.72986 0.0
H206 H 0.42733 0.10708 0.05807 0.0
H207 H 0.48622 1.01301 0.36172 0.0
H208 H 0.42952 0.05193 0.09213 0.0
H209 H 0.45486 1.00305 0.06309 0.0
H210 H 0.44904 0.15123 0.97511 0.0
H211 H 0.56818 0.94226 0.67258 0.0
H212 H 0.55369 1.01079 0.12711 0.0
H213 H 0.5021 0.02332 0.18455 0.0
H214 H 0.63389 0.95701 0.28325 0.0
H215 H 0.5352 0.16521 0.76021 0.0
H216 H 0.48932 0.17314 0.86472 0.0
H217 H 0.60332 0.98693 0.16618 0.0
H218 H 0.6152 0.91781 0.61702 0.0
N219 N 0.52944 0.99823 0.40788 0.0
C220 C 0.54706 1.00691 0.20566 0.0
C221 C 0.51786 0.01379 0.23741 0.0
C222 C 0.56675 0.99346 0.27416 0.0
C223 C 0.557 0.98904 0.37576 0.0
C224 C 0.50904 1.00821 0.33808 0.0
N225 N 0.56333 0.96746 0.53693 0.0
C226 C 0.57426 0.97259 0.44177 0.0
C227 C 0.60405 0.93336 0.56718 0.0
C228 C 0.6166 0.94001 0.4722 0.0
C229 C 0.57733 0.94742 0.59862 0.0
C230 C 0.60162 0.9597 0.4078 0.0
H231 H 0.63752 0.92945 0.44863 0.0
O232 O 0.51039 0.94247 0.58338 0.0
O233 O 0.50004 0.01346 0.72624 0.0
O234 O 0.54301 0.99533 0.84951 0.0
O235 O 0.51977 0.9643 0.72844 0.0
O236 O 0.47244 0.01481 0.60233 0.0
O237 O 0.48033 0.97056 0.49903 0.0
O238 O 0.57272 0.07101 0.84646 0.0
O239 O 0.55714 1.01143 0.663 0.0
O240 O 0.51743 0.03728 0.51252 0.0
O241 O 0.52047 0.07106 0.651 0.0
O242 O 0.57286 0.05487 0.66727 0.0
O243 O 0.56206 0.02961 0.91965 0.0
C244 C 0.47396 0.02196 0.69871 0.0
C245 C 0.61255 0.96602 0.30957 0.0
C246 C 0.59518 0.98305 0.24299 0.0
C247 C 0.48503 0.94393 0.53503 0.0
C248 C 0.45909 0.92862 0.58215 0.0
C249 C 0.46307 0.90281 0.64098 0.0
C250 C 0.4299 0.93918 0.56575 0.0
C251 C 0.40498 0.92415 0.60562 0.0
C252 C 0.43822 0.88818 0.68307 0.0
C253 C 0.40914 0.89857 0.66446 0.0
C254 C 0.5324 0.9687 0.81909 0.0
C255 C 0.57649 0.02899 0.62292 0.0
C256 C 0.58171 0.05094 0.90965 0.0
C257 C 0.61348 0.04207 0.8987 0.0
C258 C 0.63494 0.06403 0.87588 0.0
C259 C 0.62239 1.01177 0.90464 0.0
C260 C 0.65271 1.00342 0.89144 0.0
C261 C 0.66473 0.05598 0.85887 0.0
C262 C 0.67366 0.02613 0.86736 0.0
C263 C 0.51679 0.06502 0.55173 0.0
H264 H 0.48532 0.89387 0.65405 0.0
H265 H 0.42627 0.95851 0.51809 0.0
H266 H 0.4415 0.86834 0.72819 0.0
H267 H 0.39 0.8864 0.69383 0.0
H268 H 0.6286 0.08746 0.87011 0.0
H269 H 0.6057 0.99479 0.91992 0.0
H270 H 0.68116 0.07307 0.8414 0.0
H271 H 0.6974 0.02148 0.85969 0.0
Gd272 Gd 0.49573 0.53248 0.79859 0.0
Gd273 Gd 0.54695 0.51308 0.59726 0.0
C274 C 0.64521 0.51311 0.70239 0.0
C275 C 0.666 0.55567 0.61305 0.0
C276 C 0.61364 0.54144 0.58904 0.0
C277 C 0.61702 0.51839 0.65681 0.0
C278 C 0.63842 0.55964 0.5633 0.0
C279 C 0.66936 0.53247 0.68277 0.0
C280 C 0.64854 0.48803 0.7639 0.0
C281 C 0.62451 0.4683 0.77521 0.0
N282 N 0.59327 0.49995 0.67323 0.0
C283 C 0.59706 0.47444 0.72831 0.0
H284 H 0.57915 0.4586 0.73742 0.0
C285 C 0.58427 0.56307 0.45983 0.0
N286 N 0.58677 0.5445 0.54202 0.0
C287 C 0.60812 0.58162 0.43168 0.0
C288 C 0.63514 0.58037 0.48512 0.0
H289 H 0.56323 0.56454 0.41897 0.0
H290 H 0.691 0.52905 0.71841 0.0
H291 H 0.47914 0.60557 0.84499 0.0
H292 H 0.66976 0.48326 0.80054 0.0
H293 H 0.62704 0.44836 0.82042 0.0
H294 H 0.68513 0.56972 0.59549 0.0
H295 H 0.46377 0.46314 0.77306 0.0
H296 H 0.39159 0.62322 0.72569 0.0
H297 H 0.43793 0.64135 0.8091 0.0
H298 H 0.35478 0.52522 0.63687 0.0
H299 H 0.60556 0.59697 0.36915 0.0
H300 H 0.65364 0.59469 0.46298 0.0
H301 H 0.3609 0.57985 0.66006 0.0
H302 H 0.41649 0.44085 0.71597 0.0
N303 N 0.45735 0.56833 0.77201 0.0
C304 C 0.40967 0.60755 0.73974 0.0
C305 C 0.43572 0.6178 0.78784 0.0
C306 C 0.40664 0.57696 0.7152 0.0
C307 C 0.431 0.55751 0.73415 0.0
C308 C 0.45898 0.59756 0.80723 0.0
N309 N 0.4507 0.50838 0.74645 0.0
C310 C 0.42745 0.52669 0.72215 0.0
C311 C 0.41934 0.46503 0.71622 0.0
C312 C 0.39589 0.48345 0.6856 0.0
C313 C 0.44656 0.4779 0.74729 0.0
C314 C 0.39959 0.51466 0.68944 0.0
H315 H 0.37486 0.4734 0.66111 0.0
O316 O 0.49676 0.5545 0.94832 0.0
O317 O 0.54366 0.51971 0.76666 0.0
O318 O 0.53036 0.46927 0.67002 0.0
O319 O 0.51144 0.4846 0.82917 0.0
O320 O 0.53718 0.55761 0.85618 0.0
O321 O 0.47188 0.51323 0.92771 0.0
O322 O 0.55114 0.50834 0.43242 0.0
O323 O 0.49784 0.51337 0.639 0.0
O324 O 0.50225 0.57366 0.69982 0.0
O325 O 0.54714 0.56461 0.61509 0.0
O326 O 0.50922 0.53313 0.50378 0.0
O327 O 0.55557 0.46923 0.52506 0.0
C328 C 0.55757 0.53978 0.81888 0.0
C329 C 0.37608 0.53407 0.66384 0.0
C330 C 0.3796 0.56517 0.67667 0.0
C331 C 0.4761 0.53712 0.98558 0.0
C332 C 0.44891 0.55269 0.02625 0.0
C333 C 0.42066 0.53856 0.02454 0.0
C334 C 0.45057 0.58329 0.05542 0.0
C335 C 0.42445 0.60024 0.07555 0.0
C336 C 0.39471 0.55502 0.04843 0.0
C337 C 0.39648 0.58571 0.0734 0.0
C338 C 0.52096 0.46322 0.76433 0.0
C339 C 0.48681 0.52581 0.56047 0.0
C340 C 0.55234 0.4793 0.4329 0.0
C341 C 0.53058 0.46414 0.36468 0.0
C342 C 0.53056 0.47093 0.26028 0.0
C343 C 0.50903 0.44418 0.4028 0.0
C344 C 0.48823 0.43 0.33662 0.0
C345 C 0.50945 0.45784 0.19462 0.0
C346 C 0.48862 0.43736 0.23194 0.0
C347 C 0.52516 0.583 0.6439 0.0
H348 H 0.41848 0.51508 1.0018 0.0
H349 H 0.47226 0.59433 0.05843 0.0
H350 H 0.373 0.5442 0.0445 0.0
H351 H 0.37598 0.59819 0.08819 0.0
H352 H 0.54682 0.48653 0.22968 0.0
H353 H 0.50872 0.43942 0.48372 0.0
H354 H 0.50967 0.46305 0.11398 0.0
H355 H 0.47381 0.42634 0.17725 0.0
Gd356 Gd 1.0077 0.51212 0.76714 0.0
Gd357 Gd 0.04392 0.54823 0.56255 0.0
C358 C 0.09761 0.63361 0.64583 0.0
C359 C 0.0583 0.67113 0.66526 0.0
C360 C 0.04592 0.61961 0.61351 0.0
C361 C 0.07577 0.61169 0.61994 0.0
C362 C 0.03697 0.64971 0.63298 0.0
C363 C 0.08859 0.66307 0.67184 0.0
C364 C 0.12796 0.62565 0.64051 0.0
C365 C 0.13596 0.59702 0.60432 0.0
N366 N 0.08373 0.58315 0.59299 0.0
C367 C 0.11353 0.57627 0.5782 0.0
H368 H 0.12012 0.55425 0.54892 0.0
C369 C 0.99681 0.6063 0.56305 0.0
N370 N 0.02579 0.59823 0.58359 0.0
C371 C 0.98697 0.63587 0.58007 0.0
C372 C 1.007 0.65758 0.61704 0.0
H373 H 0.98088 0.59034 0.53321 0.0
H374 H 0.10498 0.68006 0.69346 0.0
H375 H 0.94837 0.48058 0.63738 0.0
H376 H 0.14537 0.64182 0.6599 0.0
H377 H 0.15939 0.59094 0.59596 0.0
H378 H 0.05173 0.69418 0.68232 0.0
H379 H 0.05041 0.49178 0.97068 0.0
H380 H 0.9681 0.38843 0.57257 0.0
H381 H 0.93535 0.43283 0.55357 0.0
H382 H 0.0535 0.36981 0.78341 0.0
H383 H 0.96387 0.64185 0.565 0.0
H384 H 0.99927 0.68043 0.6308 0.0
H385 H 0.01295 0.36528 0.65622 0.0
H386 H 0.08241 0.44921 0.01743 0.0
N387 N 0.99001 0.4652 0.69819 0.0
C388 C 0.97427 0.40969 0.60887 0.0
C389 C 0.95581 0.4347 0.59785 0.0
C390 C 0.99967 0.41211 0.671 0.0
C391 C 1.00664 0.44037 0.71659 0.0
C392 C 0.96378 0.46221 0.64443 0.0
N393 N 0.03271 0.46972 0.83698 0.0
C394 C 0.02917 0.44286 0.7876 0.0
C395 C 0.0674 0.44695 0.95298 0.0
C396 C 0.06589 0.41991 0.89707 0.0
C397 C 0.04953 0.47121 0.92486 0.0
C398 C 0.04573 0.41724 0.81554 0.0
H399 H 0.07932 0.40094 0.92024 0.0
O400 O 0.99229 0.50582 0.92416 0.0
O401 O 0.01795 0.55865 0.70805 0.0
O402 O 0.08258 0.53453 0.6678 0.0
O403 O 0.05731 0.51723 0.80939 0.0
O404 O 0.03007 0.55009 0.85644 0.0
O405 O 0.96242 0.52443 0.81388 0.0
O406 O 0.02513 0.54886 0.40845 0.0
O407 O 0.02337 0.50419 0.60536 0.0
O408 O 0.96993 0.52753 0.66051 0.0
O409 O 0.99563 0.53909 0.51203 0.0
O410 O 0.06627 0.50214 0.54993 0.0
O411 O 0.07256 0.55293 0.42844 0.0
C412 C 0.02853 0.57106 0.79035 0.0
C413 C 0.04064 0.38959 0.76438 0.0
C414 C 0.01755 0.387 0.69216 0.0
C415 C 0.96784 0.52107 0.91047 0.0
C416 C 0.96308 0.54841 0.97544 0.0
C417 C 0.98602 0.56047 0.03765 0.0
C418 C 0.93646 0.56478 0.96422 0.0
C419 C 0.93294 0.59382 1.00884 0.0
C420 C 0.98274 0.58894 0.0837 0.0
C421 C 0.95664 0.6057 0.06854 0.0
C422 C 0.08247 0.52509 0.76294 0.0
C423 C 0.04356 0.48566 0.57423 0.0
C424 C 0.05121 0.54602 0.36486 0.0
C425 C 0.05554 0.5183 0.30116 0.0
C426 C 0.03193 0.50658 0.24167 0.0
C427 C 0.08172 0.501 0.31223 0.0
C428 C 0.08364 0.47119 0.2734 0.0
C429 C 0.03401 0.47764 0.19839 0.0
C430 C 0.05929 0.45982 0.21584 0.0
C431 C 0.97016 0.53367 0.56149 0.0
H432 H 1.00688 0.54842 0.04815 0.0
H433 H 0.91858 0.55451 0.91967 0.0
H434 H 1.00078 0.59835 0.12964 0.0
H435 H 0.95534 0.62802 0.10299 0.0
H436 H 1.01145 0.51935 0.23186 0.0
H437 H 0.10048 0.51088 0.35313 0.0
H438 H 0.0155 0.46855 0.15394 0.0
H439 H 0.05939 0.43706 0.18492 0.0
H440 H 0.21355 0.06414 0.39902 0.0
H441 H 0.17554 0.03011 0.11673 0.0
H442 H 0.12703 0.02254 0.20377 0.0
H443 H 0.09456 0.02626 0.36315 0.0
H444 H 0.13415 0.06266 0.64101 0.0
H445 H 0.18201 0.06818 0.55396 0.0
C446 C 0.1949 0.05443 0.35655 0.0
C447 C 0.19898 0.04679 0.25129 0.0
C448 C 0.16683 0.05064 0.4071 0.0
C449 C 0.17378 0.03534 0.19798 0.0
C450 C 0.14578 0.03127 0.24799 0.0
C451 C 0.11359 0.03551 0.40472 0.0
C452 C 0.11015 0.0436 0.51053 0.0
C453 C 0.14183 0.03897 0.35294 0.0
C454 C 0.13556 0.05557 0.56123 0.0
C455 C 0.16325 0.05892 0.51096 0.0
H456 H 0.48627 0.15158 0.18378 0.0
H457 H 0.54775 0.21041 0.34496 0.0
H458 H 0.55284 0.17339 0.48066 0.0
H459 H 0.54143 0.12266 0.55059 0.0
H460 H 0.47985 0.06463 0.38612 0.0
H461 H 0.47351 0.10239 0.25575 0.0
C462 C 0.5004 0.15659 0.24951 0.0
C463 C 0.51591 0.18435 0.25477 0.0
C464 C 0.50353 0.13493 0.32677 0.0
C465 C 0.53489 0.18977 0.33938 0.0
C466 C 0.53795 0.16841 0.41701 0.0
C467 C 0.52625 0.11845 0.48729 0.0
C468 C 0.51143 0.09027 0.47857 0.0
C469 C 0.52252 0.14072 0.41149 0.0
C470 C 0.49221 0.08545 0.39435 0.0
C471 C 0.48832 0.1073 0.31973 0.0
H472 H 0.37397 0.46914 0.32566 0.0
H473 H 0.35694 0.56212 0.26133 0.0
H474 H 0.40066 0.57711 0.3652 0.0
H475 H 0.44582 0.56345 0.46924 0.0
H476 H 0.46219 0.47017 0.53067 0.0
H477 H 0.41728 0.45575 0.43389 0.0
C478 C 0.37933 0.4928 0.33605 0.0
C479 C 0.36134 0.51448 0.28693 0.0
C480 C 0.40483 0.5012 0.39541 0.0
C481 C 0.36961 0.54492 0.29961 0.0
C482 C 0.39489 0.55347 0.35866 0.0
C483 C 0.43925 0.54001 0.4627 0.0
C484 C 0.45725 0.51796 0.51001 0.0
C485 C 0.41294 0.53182 0.40639 0.0
C486 C 0.44865 0.48768 0.49778 0.0
C487 C 0.4229 0.4794 0.44171 0.0
H488 H 1.00803 0.38597 0.2292 0.0
H489 H 0.09221 0.34811 0.3241 0.0
H490 H 0.09662 0.3869 0.45903 0.0
H491 H 0.07925 0.43503 0.54232 0.0
H492 H 0.99516 0.47317 0.44865 0.0
H493 H 0.98782 0.43124 0.32612 0.0
C494 C 0.02685 0.38548 0.28155 0.0
C495 C 0.04964 0.36332 0.26511 0.0
C496 C 0.02937 0.40836 0.36074 0.0
C497 C 0.07408 0.36416 0.33379 0.0
C498 C 0.07677 0.38672 0.41126 0.0
C499 C 0.05899 0.43392 0.49662 0.0
C500 C 0.03749 0.45745 0.50797 0.0
C501 C 0.05499 0.40949 0.42429 0.0
C502 C 1.0118 0.45542 0.44523 0.0
C503 C 1.00766 0.43129 0.37393 0.0
H504 H 0.84213 0.02453 0.98181 0.0
H505 H 0.8851 0.02335 0.27633 0.0
H506 H 0.9346 0.0199 0.1917 0.0
H507 H 0.96649 0.02081 0.02991 0.0
H508 H 0.92057 0.02303 0.73897 0.0
H509 H 0.87256 0.02255 0.8254 0.0
C510 C 0.8622 0.02279 0.0281 0.0
C511 C 0.85933 0.02351 0.13622 0.0
C512 C 0.89068 0.02151 0.97864 0.0
C513 C 0.88613 0.02211 0.19344 0.0
C514 C 0.91464 0.02044 0.14458 0.0
C515 C 0.94603 0.02096 0.98531 0.0
C516 C 0.94801 0.0224 0.8764 0.0
C517 C 0.9174 0.02067 0.03661 0.0
C518 C 0.92066 0.02244 0.82182 0.0
C519 C 0.89274 0.02202 0.87153 0.0
H520 H 0.50606 0.85202 0.08067 0.0
H521 H 0.58424 0.88293 0.2451 0.0
H522 H 0.58949 0.92515 0.12867 0.0
H523 H 0.56997 0.95549 0.98371 0.0
H524 H 0.49171 0.92347 0.82118 0.0
H525 H 0.48821 0.88051 0.9324 0.0
C526 C 0.5245 0.86776 0.09013 0.0
C527 C 0.54472 0.86404 0.17193 0.0
C528 C 0.52712 0.89242 0.02351 0.0
C529 C 0.56838 0.88496 0.18292 0.0
C530 C 0.57121 0.90941 0.11673 0.0
C531 C 0.55226 0.93906 0.97237 0.0
C532 C 0.53139 0.94282 0.89197 0.0
C533 C 0.55041 0.91378 0.03744 0.0
C534 C 0.50854 0.9211 0.87993 0.0
C535 C 0.50637 0.89643 0.94437 0.0
H536 H 0.65705 0.50086 0.14095 0.0
H537 H 0.70085 0.5805 0.0332 0.0
H538 H 0.66029 0.58773 0.90915 0.0
H539 H 0.60984 0.57336 0.83847 0.0
H540 H 0.56685 0.49329 0.94662 0.0
H541 H 0.60888 0.48456 0.06256 0.0
C542 C 0.65812 0.5195 0.08897 0.0
C543 C 0.68257 0.53988 0.0964 0.0
C544 C 0.63432 0.52372 0.01824 0.0
C545 C 0.68288 0.56414 0.02889 0.0
C546 C 0.65939 0.56845 0.95832 0.0
C547 C 0.60989 0.55382 0.88659 0.0
C548 C 0.58519 0.53371 0.88194 0.0
C549 C 0.63461 0.54872 0.95333 0.0
C550 C 0.5856 0.50881 0.94656 0.0
C551 C 0.60971 0.50386 0.01345 0.0
H552 H 0.97832 0.69118 0.01142 0.0
H553 H 0.06723 0.69167 0.14028 0.0
H554 H 0.08101 0.64849 0.0292 0.0
H555 H 0.06646 0.60687 0.90663 0.0
H556 H 0.97726 0.60574 0.78098 0.0
H557 H 0.96536 0.6525 0.87607 0.0
C558 C 1.00104 0.68248 0.01342 0.0
C559 C 0.02181 0.69555 0.08474 0.0
C560 C 1.00882 0.6571 0.94899 0.0
C561 C 0.05084 0.68294 0.08619 0.0
C562 C 0.05865 0.65786 0.02281 0.0
C563 C 0.04465 0.61731 0.89766 0.0
C564 C 0.02323 0.60294 0.83221 0.0
C565 C 0.0377 0.64423 0.95534 0.0
C566 C 0.99477 0.61657 0.82583 0.0
C567 C 0.98781 0.64332 0.88193 0.0
H568 H 1.00948 0.26047 0.39305 0.0
H569 H 0.08279 0.19823 0.34443 0.0
H570 H 0.06598 0.16942 0.49193 0.0
H571 H 0.02436 0.15628 0.60484 0.0
H572 H 0.94653 0.21391 0.62685 0.0
H573 H 0.97226 0.25159 0.52572 0.0
C574 C 0.02253 0.24128 0.41702 0.0
C575 C 0.04722 0.23127 0.35777 0.0
C576 C 1.01179 0.22411 0.4975 0.0
C577 C 0.06358 0.2061 0.3886 0.0
C578 C 0.05393 0.18969 0.47262 0.0
C579 C 0.01331 0.17744 0.5894 0.0
C580 C 0.98318 0.18187 0.61948 0.0
C581 C 0.02709 0.19757 0.52338 0.0
C582 C 0.96952 0.20976 0.60312 0.0
C583 C 0.98407 0.23109 0.54389 0.0
H584 H 0.31146 1.00325 0.39664 0.0
H585 H 0.31927 0.93108 0.1723 0.0
H586 H 0.34468 0.89981 0.29719 0.0
H587 H 0.37372 0.89765 0.4556 0.0
H588 H 0.37226 0.97262 0.67006 0.0
H589 H 0.33453 0.99794 0.56659 0.0
C590 C 0.31793 0.98031 0.37682 0.0
C591 C 0.3138 0.96928 0.2763 0.0
C592 C 0.33375 0.96314 0.44748 0.0
C593 C 0.32245 0.9398 0.24973 0.0
C594 C 0.33701 0.92205 0.32086 0.0
C595 C 0.36395 0.91887 0.48163 0.0
C596 C 0.37521 0.93326 0.57006 0.0
C597 C 0.34403 0.93404 0.41815 0.0
C598 C 0.36334 0.9611 0.60273 0.0
C599 C 0.34219 0.97571 0.54276 0.0
H600 H 0.46567 0.29837 0.37123 0.0
H601 H 0.40518 0.32017 0.12821 0.0
H602 H 0.40099 0.37164 0.1954 0.0
H603 H 0.43226 0.41214 0.27089 0.0
H604 H 0.50231 0.38891 0.48344 0.0
H605 H 0.48458 0.33772 0.48509 0.0
C606 C 0.45018 0.3139 0.33624 0.0
C607 C 0.4382 0.30669 0.23925 0.0
C608 C 0.451 0.34417 0.36815 0.0
C609 C 0.41619 0.32594 0.19991 0.0
C610 C 0.41446 0.3557 0.23683 0.0
C611 C 0.44325 0.39601 0.31927 0.0
C612 C 0.46978 0.40415 0.37162 0.0
C613 C 0.43476 0.36565 0.31243 0.0
C614 C 0.48236 0.38352 0.43972 0.0
C615 C 0.4724 0.35382 0.43997 0.0
H616 H 0.21025 0.42352 0.18206 0.0
H617 H 0.22779 0.48757 0.42648 0.0
H618 H 0.17632 0.48248 0.48809 0.0
H619 H 0.12432 0.47517 0.43246 0.0
H620 H 0.10686 0.42433 0.15245 0.0
H621 H 0.15865 0.40814 0.14635 0.0
C622 C 0.20308 0.43513 0.25203 0.0
C623 C 0.22204 0.45729 0.2957 0.0
C624 C 0.17242 0.43565 0.27693 0.0
C625 C 0.2133 0.47117 0.38892 0.0
C626 C 0.18352 0.46886 0.42255 0.0
C627 C 0.13172 0.4608 0.3691 0.0
C628 C 0.11184 0.45332 0.28822 0.0
C629 C 0.16236 0.4539 0.36008 0.0
C630 C 0.12147 0.43199 0.21352 0.0
C631 C 0.1514 0.42262 0.20965 0.0
H632 H 0.92818 0.8519 0.1708 0.0
H633 H 0.97475 0.79811 0.9411 0.0
H634 H 0.96628 0.83597 0.81579 0.0
H635 H 0.97307 0.89026 0.81004 0.0
H636 H 0.94163 0.94656 0.05741 0.0
H637 H 0.9154 0.90431 0.13265 0.0
C638 C 0.93548 0.84806 0.09219 0.0
C639 C 0.9546 0.82362 0.0685 0.0
C640 C 0.93382 0.87168 0.02326 0.0
C641 C 0.96151 0.81748 0.96451 0.0
C642 C 0.95688 0.83947 0.89188 0.0
C643 C 0.95863 0.89345 0.87664 0.0
C644 C 0.96256 0.91951 0.93762 0.0
C645 C 0.94729 0.86803 0.92513 0.0
C646 C 0.94143 0.92521 0.01573 0.0
C647 C 0.92687 0.90081 0.05995 0.0
H648 H 0.7058 0.92517 0.20463 0.0
H649 H 0.78251 0.95389 0.02927 0.0
H650 H 0.75218 0.95567 0.87742 0.0
H651 H 0.70283 0.97278 0.82114 0.0
H652 H 0.6266 0.96202 0.02225 0.0
H653 H 0.6557 0.9297 0.12985 0.0
C654 C 0.71601 0.93179 0.13309 0.0
C655 C 0.74536 0.94372 0.13292 0.0
C656 C 0.69745 0.93736 0.04912 0.0
C657 C 0.75924 0.94735 0.03637 0.0
C658 C 0.74169 0.94877 0.94818 0.0
C659 C 0.69243 0.96327 0.88827 0.0
C660 C 0.66354 0.97276 0.91917 0.0
C661 C 0.71038 0.94798 0.95785 0.0
C662 C 0.64942 0.95719 0.99916 0.0
C663 C 0.66625 0.93869 0.06215 0.0
H664 H 0.44022 0.73096 0.2542 0.0
H665 H 0.50525 0.73298 0.00943 0.0
H666 H 0.48468 0.68643 0.93615 0.0
H667 H 0.45913 0.63945 0.97281 0.0
H668 H 0.39546 0.63513 0.2213 0.0
H669 H 0.40544 0.68803 0.26574 0.0
C670 C 0.44866 0.72201 0.18159 0.0
C671 C 0.47463 0.73477 0.13841 0.0
C672 C 0.43818 0.69408 0.1446 0.0
C673 C 0.4854 0.7234 0.04418 0.0
C674 C 0.47413 0.69635 1.00386 0.0
C675 C 0.44652 0.65024 0.03405 0.0
C676 C 0.42676 0.63325 0.09386 0.0
C677 C 0.45226 0.68047 0.05831 0.0
C678 C 0.4109 0.64766 0.17425 0.0
C679 C 0.41658 0.6779 0.19953 0.0
H680 H 0.79779 0.60135 0.99809 0.0
H681 H 0.81284 0.64891 0.28364 0.0
H682 H 0.86445 0.6594 0.23342 0.0
H683 H 0.90713 0.63533 0.14326 0.0
H684 H 0.89207 0.59108 0.84934 0.0
H685 H 0.83831 0.59864 0.86906 0.0
C686 C 0.81167 0.61577 0.04659 0.0
C687 C 0.80303 0.62151 0.14886 0.0
C688 C 0.84173 0.62044 0.01857 0.0
C689 C 0.81998 0.6425 0.20675 0.0
C690 C 0.84986 0.64779 0.17922 0.0
C691 C 0.8926 0.62844 0.08065 0.0
C692 C 0.90359 0.60996 0.99954 0.0
C693 C 0.86163 0.63369 0.0906 0.0
C694 C 0.88404 0.60285 0.9176 0.0
C695 C 0.85321 0.60762 0.92771 0.0
H696 H 0.0845 0.19979 0.95875 0.0
H697 H 0.98989 0.21626 0.99824 0.0
H698 H 0.97855 0.17036 0.898 0.0
H699 H 0.99528 0.1232 0.80328 0.0
H700 H 0.08964 0.10977 0.74756 0.0
H701 H 0.10107 0.15588 0.8471 0.0
C702 C 0.06133 0.19402 0.94248 0.0
C703 C 0.03813 0.2127 0.98513 0.0
C704 C 0.05483 0.16735 0.88214 0.0
C705 C 1.00836 0.20353 0.96482 0.0
C706 C 1.00182 0.1768 0.90786 0.0
C707 C 0.01836 0.13036 0.81265 0.0
C708 C 0.04161 0.11182 0.77004 0.0
C709 C 0.02479 0.15812 0.86705 0.0
C710 C 0.07124 0.12253 0.78133 0.0
C711 C 0.07779 0.14929 0.838 0.0
H712 H 0.36147 0.97798 0.95956 0.0
H713 H 0.33628 0.07148 0.94791 0.0
H714 H 0.38073 0.08126 0.84102 0.0
H715 H 0.42899 0.06346 0.7558 0.0
H716 H 0.45435 0.97044 0.78257 0.0
H717 H 0.40843 0.96065 0.87919 0.0
C718 C 0.36553 1.00075 0.93507 0.0
C719 C 0.34497 0.02399 0.96469 0.0
C720 C 0.3918 1.00641 0.87636 0.0
C721 C 0.35097 0.0529 0.92724 0.0
C722 C 0.37679 0.05858 0.86646 0.0
C723 C 0.42453 0.04111 0.78349 0.0
C724 C 0.44586 0.01783 0.76316 0.0
C725 C 0.39774 0.0356 0.84144 0.0
C726 C 0.43905 0.98894 0.79836 0.0
C727 C 0.41256 0.98329 0.85358 0.0
H728 H 0.49326 0.32528 0.85336 0.0
H729 H 0.53718 0.34877 0.13736 0.0
H730 H 0.54702 0.39948 0.07601 0.0
H731 H 0.53939 0.43902 0.94644 0.0
H732 H 0.49858 0.41475 0.65762 0.0
H733 H 0.49163 0.36301 0.71441 0.0
C734 C 0.50612 0.34108 0.90005 0.0
C735 C 0.51527 0.3326 0.9992 0.0
C736 C 0.51181 0.37051 0.86369 0.0
C737 C 0.53083 0.35405 0.05975 0.0
C738 C 0.53603 0.38335 0.02512 0.0
C739 C 0.52927 0.42231 0.89553 0.0
C740 C 0.51943 0.431 0.79751 0.0
C741 C 0.52604 0.39214 0.9281 0.0
C742 C 0.5066 0.40881 0.7327 0.0
C743 C 0.5025 0.37914 0.76559 0.0
H744 H 0.18184 0.53111 0.11214 0.0
H745 H 0.24164 0.50888 0.86219 0.0
H746 H 0.19971 0.51362 0.74045 0.0
H747 H 0.14375 0.51874 0.70741 0.0
H748 H 0.08536 0.53578 0.96728 0.0
H749 H 0.12829 0.5376 0.08082 0.0
C750 C 0.18603 0.52812 0.03057 0.0
C751 C 0.21537 0.52017 0.99721 0.0
C752 C 0.16144 0.52896 0.96219 0.0
C753 C 0.2198 0.51578 0.89093 0.0
C754 C 0.1955 0.51793 0.82127 0.0
C755 C 0.14046 0.52299 0.78876 0.0
C756 C 0.11072 0.52663 0.82775 0.0
C757 C 0.16586 0.5236 0.85615 0.0
C758 C 0.10742 0.53218 0.93397 0.0
C759 C 0.13219 0.53354 0.99963 0.0
H760 H 0.03107 0.88067 0.26303 0.0
H761 H 1.00511 0.82296 0.50743 0.0
H762 H 1.01028 0.86537 0.63082 0.0
H763 H 0.02103 0.92031 0.6703 0.0
H764 H 0.05259 0.97584 0.42671 0.0
H765 H 0.0465 0.93372 0.30385 0.0
C766 C 0.02737 0.87702 0.34352 0.0
C767 C 0.01837 0.84777 0.37433 0.0
C768 C 0.03073 0.9018 0.4148 0.0
C769 C 0.01289 0.84441 0.47999 0.0
C770 C 0.01549 0.86904 0.55092 0.0
C771 C 0.02614 0.92338 0.58997 0.0
C772 C 0.03525 0.9525 0.55755 0.0
C773 C 0.02404 0.89809 0.51945 0.0
C774 C 0.04368 0.9548 0.45389 0.0
C775 C 0.04064 0.93033 0.3834 0.0
H776 H 0.70962 0.98105 0.51999 0.0
H777 H 0.7054 0.05108 0.2984 0.0
H778 H 0.6547 0.0645 0.35813 0.0
H779 H 0.60964 0.05456 0.46799 0.0
H780 H 0.61573 0.98751 0.69911 0.0
H781 H 0.66693 0.97511 0.64315 0.0
C782 C 0.69806 0.99995 0.48701 0.0
C783 C 0.71217 0.01553 0.40595 0.0
C784 C 0.66857 1.00762 0.52223 0.0
C785 C 0.69597 0.03928 0.36265 0.0
C786 C 0.66659 0.04665 0.39599 0.0
C787 C 0.62204 0.03694 0.50527 0.0
C788 C 0.60768 0.02061 0.58396 0.0
C789 C 0.65229 0.03062 0.4744 0.0
C790 C 0.62511 0.99918 0.63462 0.0
C791 C 0.65477 0.99239 0.60336 0.0
H792 H 0.49315 0.7135 0.48979 0.0
H793 H 0.5853 0.71232 0.38953 0.0
H794 H 0.59311 0.66441 0.47714 0.0
H795 H 0.5714 0.61936 0.5662 0.0
H796 H 0.4762 0.61868 0.62738 0.0
H797 H 0.47194 0.66997 0.57243 0.0
C798 C 0.51525 0.7032 0.48901 0.0
C799 C 0.5386 0.71693 0.43309 0.0
C800 C 0.51881 0.67459 0.53188 0.0
C801 C 0.56697 0.70288 0.433 0.0
C802 C 0.57123 0.67503 0.48156 0.0
C803 C 0.54974 0.63037 0.56729 0.0
C804 C 0.52428 0.61491 0.60595 0.0
C805 C 0.54696 0.66 0.52815 0.0
C806 C 0.49652 0.63002 0.60524 0.0
C807 C 0.49392 0.65948 0.57156 0.0
H808 H 0.86385 0.54613 0.23717 0.0
H809 H 0.80838 0.53022 0.50092 0.0
H810 H 0.85371 0.52283 0.60528 0.0
H811 H 0.91009 0.52546 0.62503 0.0
H812 H 0.96377 0.54356 0.35695 0.0
H813 H 0.91877 0.54596 0.25345 0.0
C814 C 0.86155 0.54012 0.31691 0.0
C815 C 0.83231 0.53813 0.35981 0.0
C816 C 0.88779 0.5371 0.37722 0.0
C817 C 0.83021 0.53111 0.46428 0.0
C818 C 0.85634 0.52741 0.52458 0.0
C819 C 0.91202 0.52978 0.54392 0.0
C820 C 0.94102 0.53449 0.50049 0.0
C821 C 0.88541 0.53111 0.48269 0.0
C822 C 0.94238 0.54 0.39448 0.0
C823 C 0.9164 0.54127 0.33423 0.0
loop_
_geom_bond_atom_site_label_1
_geom_bond_atom_site_label_2
_geom_bond_distance
_geom_bond_site_symmetry_2
_ccdc_geom_bond_type
H0 C7 0.929 . S
H1 C10 0.930 . S
H2 C12 0.929 . S
H3 C4 0.969 . S
C4 H3 0.969 . S
C4 O5 1.550 . S
C4 H6 0.973 . S
O5 C4 1.550 . S
O5 C11 1.412 . S
H6 C4 0.973 . S
C7 H0 0.929 . S
C7 C8 1.400 . S
C7 C9 1.364 . S
C8 C7 1.400 . S
C8 C12 1.377 . S
C9 C7 1.364 . S
C9 C10 1.374 . S
C10 H1 0.930 . S
C10 C9 1.374 . S
C10 C11 1.383 . S
C11 O5 1.412 . S
C11 C10 1.383 . S
C11 C12 1.394 . S
C12 H2 0.929 . S
C12 C8 1.377 . S
C12 C11 1.394 . S
H13 C20 0.929 . S
H14 C23 0.930 . S
H15 C25 0.929 . S
H16 C17 0.969 . S
C17 H16 0.969 . S
C17 O18 1.550 . S
C17 H19 0.973 . S
O18 C17 1.550 . S
O18 C24 1.412 . S
H19 C17 0.973 . S
C20 H13 0.929 . S
C20 C21 1.400 . S
C20 C22 1.364 . S
C21 C20 1.400 . S
C21 C25 1.377 . S
C22 C20 1.364 . S
C22 C23 1.374 . S
C23 H14 0.930 . S
C23 C22 1.374 . S
C23 C24 1.383 . S
C24 O18 1.412 . S
C24 C23 1.383 . S
C24 C25 1.394 . S
C25 H15 0.929 . S
C25 C21 1.377 . S
C25 C24 1.394 . S
H26 C33 0.929 . S
H27 C36 0.930 . S
H28 C38 0.929 . S
H29 C30 0.969 . S
C30 H29 0.969 . S
C30 O31 1.550 . S
C30 H32 0.973 . S
O31 C30 1.550 . S
O31 C37 1.412 . S
H32 C30 0.973 . S
C33 H26 0.929 . S
C33 C34 1.400 . S
C33 C35 1.364 . S
C34 C33 1.400 . S
C34 C38 1.377 . S
C35 C33 1.364 . S
C35 C36 1.374 . S
C36 H27 0.930 . S
C36 C35 1.374 . S
C36 C37 1.383 . S
C37 O31 1.412 . S
C37 C36 1.383 . S
C37 C38 1.394 . S
C38 H28 0.929 . S
C38 C34 1.377 . S
C38 C37 1.394 . S
H39 C46 0.929 . S
H40 C49 0.930 . S
H41 C51 0.929 . S
H42 C43 0.969 . S
C43 H42 0.969 . S
C43 O44 1.550 . S
C43 H45 0.973 . S
O44 C43 1.550 . S
O44 C50 1.412 . S
H45 C43 0.973 . S
C46 H39 0.929 . S
C46 C47 1.400 . S
C46 C48 1.364 . S
C47 C46 1.400 . S
C47 C51 1.377 . S
C48 C46 1.364 . S
C48 C49 1.374 . S
C49 H40 0.930 . S
C49 C48 1.374 . S
C49 C50 1.383 . S
C50 O44 1.412 . S
C50 C49 1.383 . S
C50 C51 1.394 . S
C51 H41 0.929 . S
C51 C47 1.377 . S
C51 C50 1.394 . S
H52 C59 0.929 . S
H53 C62 0.930 . S
H54 C64 0.929 . S
H55 C56 0.969 . S
C56 H55 0.969 . S
C56 O57 1.550 . S
C56 H58 0.973 . S
O57 C56 1.550 . S
O57 C63 1.412 . S
H58 C56 0.973 . S
C59 H52 0.929 . S
C59 C60 1.400 . S
C59 C61 1.364 1_556 S
C60 C59 1.400 . S
C60 C64 1.377 . S
C61 C59 1.364 1_554 S
C61 C62 1.374 . S
C62 H53 0.930 . S
C62 C61 1.374 . S
C62 C63 1.383 . S
C63 O57 1.412 . S
C63 C62 1.383 . S
C63 C64 1.394 1_554 S
C64 H54 0.929 . S
C64 C60 1.377 . S
C64 C63 1.394 1_556 S
H65 C72 0.929 . S
H66 C75 0.930 . S
H67 C77 0.929 . S
H68 C69 0.969 . S
C69 H68 0.969 . S
C69 O70 1.550 . S
C69 H71 0.973 . S
O70 C69 1.550 . S
O70 C76 1.412 . S
H71 C69 0.973 . S
C72 H65 0.929 . S
C72 C73 1.400 . S
C72 C74 1.364 1_556 S
C73 C72 1.400 . S
C73 C77 1.377 . S
C74 C72 1.364 1_554 S
C74 C75 1.374 . S
C75 H66 0.930 . S
C75 C74 1.374 . S
C75 C76 1.383 . S
C76 O70 1.412 . S
C76 C75 1.383 . S
C76 C77 1.394 1_554 S
C77 H67 0.929 . S
C77 C73 1.377 . S
C77 C76 1.394 1_556 S
H78 C85 0.929 . S
H79 C88 0.930 . S
H80 C90 0.929 . S
H81 C82 0.969 . S
C82 H81 0.969 . S
C82 O83 1.552 . S
C82 H84 0.973 . S
O83 C82 1.552 . S
O83 C89 1.412 . S
H84 C82 0.973 . S
C85 H78 0.929 . S
C85 C86 1.400 . S
C85 C87 1.364 1_556 S
C86 C85 1.400 . S
C86 C90 1.377 . S
C87 C85 1.364 1_554 S
C87 C88 1.374 . S
C88 H79 0.930 . S
C88 C87 1.374 . S
C88 C89 1.383 . S
C89 O83 1.412 . S
C89 C88 1.383 . S
C89 C90 1.395 1_554 S
C90 H80 0.929 . S
C90 C86 1.377 . S
C90 C89 1.395 1_556 S
H91 C98 0.929 . S
H92 C101 0.930 . S
H93 C103 0.929 . S
H94 C95 0.969 . S
C95 H94 0.969 . S
C95 O96 1.550 . S
C95 H97 0.973 . S
O96 C95 1.550 . S
O96 C102 1.412 . S
H97 C95 0.973 . S
C98 H91 0.929 . S
C98 C99 1.400 . S
C98 C100 1.364 1_556 S
C99 C98 1.400 . S
C99 C103 1.377 . S
C100 C98 1.364 1_554 S
C100 C101 1.374 . S
C101 H92 0.930 . S
C101 C100 1.374 . S
C101 C102 1.383 . S
C102 O96 1.412 . S
C102 C101 1.383 . S
C102 C103 1.394 1_554 S
C103 H93 0.929 . S
C103 C99 1.377 . S
C103 C102 1.394 1_556 S
Gd104 N135 2.661 1_545 S
Gd104 N141 2.601 . S
Gd104 O148 2.545 . S
Gd104 O149 2.606 1_655 S
Gd104 O151 2.429 . S
Gd104 O152 2.545 1_655 S
Gd104 O153 2.412 . S
Gd104 O155 2.362 1_545 S
Gd104 O156 2.324 1_655 S
Gd104 C163 2.828 . S
Gd105 N114 2.661 1_565 S
Gd105 N118 2.601 1_565 S
Gd105 O149 2.362 1_565 S
Gd105 O150 2.324 1_455 S
Gd105 O154 2.545 . S
Gd105 O155 2.606 1_455 S
Gd105 O157 2.429 . S
Gd105 O158 2.545 . S
Gd105 O159 2.412 . S
Gd105 C172 2.828 . S
C106 C109 1.417 1_554 S
C106 C111 1.431 . S
C106 C112 1.412 . S
C107 C110 1.437 1_554 S
C107 C111 1.317 . S
C107 H126 0.929 . S
C108 C109 1.426 . S
C108 C110 1.413 . S
C108 N118 1.359 . S
C109 C106 1.417 1_556 S
C109 C108 1.426 . S
C109 N114 1.350 . S
C110 C107 1.437 1_556 S
C110 C108 1.413 . S
C110 C120 1.391 . S
C111 C106 1.431 . S
C111 C107 1.317 . S
C111 H122 0.930 . S
C112 C106 1.412 . S
C112 C113 1.355 . S
C112 H124 0.930 . S
C113 C112 1.355 . S
C113 C115 1.402 1_554 S
C113 H125 0.930 1_455 S
N114 Gd105 2.661 1_545 S
N114 C109 1.350 . S
N114 C115 1.307 . S
C115 C113 1.402 1_556 S
C115 N114 1.307 . S
C115 H116 0.930 1_455 S
H116 C115 0.930 1_655 S
C117 N118 1.334 1_565 S
C117 C119 1.394 . S
C117 H121 0.930 . S
N118 Gd105 2.601 1_545 S
N118 C108 1.359 . S
N118 C117 1.334 1_545 S
C119 C117 1.394 . S
C119 C120 1.359 1_565 S
C119 H131 0.930 . S
C120 C110 1.391 . S
C120 C119 1.359 1_545 S
C120 H132 0.929 . S
H121 C117 0.930 . S
H122 C111 0.930 . S
H123 C140 0.930 . S
H124 C112 0.930 . S
H125 C113 0.930 1_655 S
H126 C107 0.929 . S
H127 C145 0.930 . S
H128 C136 0.930 . S
H129 C137 0.930 . S
H130 C161 0.929 . S
H131 C119 0.930 . S
H132 C120 0.929 . S
H133 C162 0.930 . S
H134 C143 0.930 . S
N135 Gd104 2.661 1_565 S
N135 C139 1.350 . S
N135 C140 1.307 1_655 S
C136 H128 0.930 . S
C136 C137 1.355 1_655 S
C136 C138 1.412 . S
C137 H129 0.930 . S
C137 C136 1.355 1_455 S
C137 C140 1.402 . S
C138 C136 1.412 . S
C138 C139 1.417 . S
C138 C162 1.431 . S
C139 N135 1.350 . S
C139 C138 1.417 . S
C139 C142 1.426 1_565 S
C140 H123 0.930 . S
C140 N135 1.307 1_455 S
C140 C137 1.402 . S
N141 Gd104 2.601 . S
N141 C142 1.359 . S
N141 C145 1.334 . S
C142 C139 1.426 1_545 S
C142 N141 1.359 . S
C142 C146 1.413 1_545 S
C143 H134 0.930 . S
C143 C144 1.359 . S
C143 C145 1.394 . S
C144 C143 1.359 . S
C144 C146 1.391 1_545 S
C144 H147 0.929 . S
C145 H127 0.930 . S
C145 N141 1.334 . S
C145 C143 1.394 . S
C146 C142 1.413 1_565 S
C146 C144 1.391 1_565 S
C146 C161 1.437 . S
H147 C144 0.929 . S
O148 Gd104 2.545 . S
O148 C163 1.258 . S
O149 Gd104 2.606 1_455 S
O149 Gd105 2.362 1_545 S
O149 C160 1.284 . S
O150 Gd105 2.324 1_655 S
O150 C170 1.254 1_565 S
O151 Gd104 2.429 . S
O151 C170 1.268 . S
O152 Gd104 2.545 1_455 S
O152 C160 1.250 . S
O153 Gd104 2.412 . S
O153 C163 1.252 . S
O154 Gd105 2.545 . S
O154 C172 1.258 . S
O155 Gd104 2.362 1_565 S
O155 Gd105 2.606 1_655 S
O155 C171 1.284 . S
O156 Gd104 2.324 1_455 S
O156 C179 1.254 . S
O157 Gd105 2.429 . S
O157 C179 1.268 1_565 S
O158 Gd105 2.545 . S
O158 C171 1.250 1_455 S
O159 Gd105 2.412 . S
O159 C172 1.252 . S
C160 O149 1.284 . S
C160 O152 1.250 . S
C161 H130 0.929 . S
C161 C146 1.437 . S
C161 C162 1.317 . S
C162 H133 0.930 . S
C162 C138 1.431 . S
C162 C161 1.317 . S
C163 Gd104 2.828 . S
C163 O148 1.258 . S
C163 O153 1.252 . S
C163 C164 1.497 . S
C164 C163 1.497 . S
C164 C165 1.395 . S
C164 C166 1.380 . S
C165 C164 1.395 . S
C165 C168 1.398 . S
C165 H180 0.930 . S
C166 C164 1.380 . S
C166 C167 1.391 . S
C166 H181 0.930 1_655 S
C167 C166 1.391 . S
C167 C169 1.387 . S
C168 C165 1.398 . S
C168 C169 1.380 . S
C168 H182 0.930 . S
C169 C167 1.387 . S
C169 C168 1.380 . S
C169 H183 0.930 . S
C170 O150 1.254 1_545 S
C170 O151 1.268 . S
C171 O155 1.284 . S
C171 O158 1.250 1_655 S
C172 Gd105 2.828 . S
C172 O154 1.258 . S
C172 O159 1.252 . S
C172 C173 1.497 . S
C173 C172 1.497 . S
C173 C174 1.395 . S
C173 C175 1.380 1_556 S
C174 C173 1.395 . S
C174 C177 1.398 1_556 S
C174 H184 0.930 . S
C175 C173 1.380 1_554 S
C175 C176 1.391 . S
C175 H185 0.930 1_554 S
C176 C175 1.391 . S
C176 C178 1.387 . S
C177 C174 1.398 1_554 S
C177 C178 1.380 . S
C177 H186 0.930 . S
C178 C176 1.387 . S
C178 C177 1.380 . S
C178 H187 0.930 . S
C179 O156 1.254 . S
C179 O157 1.268 1_545 S
H180 C165 0.930 . S
H181 C166 0.930 1_455 S
H182 C168 0.930 . S
H183 C169 0.930 . S
H184 C174 0.930 . S
H185 C175 0.930 1_556 S
H186 C177 0.930 . S
H187 C178 0.930 . S
Gd188 N219 2.661 . S
Gd188 N225 2.601 . S
Gd188 O232 2.545 . S
Gd188 O233 2.606 1_565 S
Gd188 O235 2.429 . S
Gd188 O236 2.545 1_565 S
Gd188 O237 2.412 . S
Gd188 O239 2.362 . S
Gd188 O240 2.324 1_565 S
Gd188 C247 2.828 . S
Gd189 N198 2.661 . S
Gd189 N202 2.601 . S
Gd189 O233 2.362 . S
Gd189 O234 2.324 1_545 S
Gd189 O238 2.545 . S
Gd189 O239 2.606 1_545 S
Gd189 O241 2.429 . S
Gd189 O242 2.545 . S
Gd189 O243 2.412 . S
Gd189 C256 2.828 . S
C190 C193 1.417 1_554 S
C190 C195 1.431 . S
C190 C196 1.412 . S
C191 C194 1.437 1_554 S
C191 C195 1.317 . S
C191 H210 0.929 . S
C192 C193 1.426 . S
C192 C194 1.413 . S
C192 N202 1.359 . S
C193 C190 1.417 1_556 S
C193 C192 1.426 . S
C193 N198 1.350 . S
C194 C191 1.437 1_556 S
C194 C192 1.413 . S
C194 C204 1.391 . S
C195 C190 1.431 . S
C195 C191 1.317 . S
C195 H206 0.930 . S
C196 C190 1.412 . S
C196 C197 1.355 . S
C196 H208 0.930 . S
C197 C196 1.355 . S
C197 C199 1.402 1_554 S
C197 H209 0.930 1_545 S
N198 Gd189 2.661 . S
N198 C193 1.350 . S
N198 C199 1.307 . S
C199 C197 1.402 1_556 S
C199 N198 1.307 . S
C199 H200 0.930 1_545 S
H200 C199 0.930 1_565 S
C201 N202 1.334 . S
C201 C203 1.394 . S
C201 H205 0.930 . S
N202 Gd189 2.601 . S
N202 C192 1.359 . S
N202 C201 1.334 . S
C203 C201 1.394 . S
C203 C204 1.359 . S
C203 H215 0.930 . S
C204 C194 1.391 . S
C204 C203 1.359 . S
C204 H216 0.929 . S
H205 C201 0.930 . S
H206 C195 0.930 . S
H207 C224 0.930 . S
H208 C196 0.930 . S
H209 C197 0.930 1_565 S
H210 C191 0.929 . S
H211 C229 0.930 . S
H212 C220 0.930 . S
H213 C221 0.930 . S
H214 C245 0.929 . S
H215 C203 0.930 . S
H216 C204 0.929 . S
H217 C246 0.930 . S
H218 C227 0.930 . S
N219 Gd188 2.661 . S
N219 C223 1.350 . S
N219 C224 1.307 1_565 S
C220 H212 0.930 . S
C220 C221 1.355 1_565 S
C220 C222 1.412 . S
C221 H213 0.930 . S
C221 C220 1.355 1_545 S
C221 C224 1.402 . S
C222 C220 1.412 . S
C222 C223 1.417 . S
C222 C246 1.431 . S
C223 N219 1.350 . S
C223 C222 1.417 . S
C223 C226 1.426 . S
C224 H207 0.930 . S
C224 N219 1.307 1_545 S
C224 C221 1.402 . S
N225 Gd188 2.601 . S
N225 C226 1.359 . S
N225 C229 1.334 . S
C226 C223 1.426 . S
C226 N225 1.359 . S
C226 C230 1.413 . S
C227 H218 0.930 . S
C227 C228 1.359 . S
C227 C229 1.394 . S
C228 C227 1.359 . S
C228 C230 1.391 . S
C228 H231 0.929 . S
C229 H211 0.930 . S
C229 N225 1.334 . S
C229 C227 1.394 . S
C230 C226 1.413 . S
C230 C228 1.391 . S
C230 C245 1.437 . S
H231 C228 0.929 . S
O232 Gd188 2.545 . S
O232 C247 1.258 . S
O233 Gd188 2.606 1_545 S
O233 Gd189 2.362 . S
O233 C244 1.284 . S
O234 Gd189 2.324 1_565 S
O234 C254 1.254 . S
O235 Gd188 2.429 . S
O235 C254 1.268 . S
O236 Gd188 2.545 1_545 S
O236 C244 1.250 . S
O237 Gd188 2.412 . S
O237 C247 1.252 . S
O238 Gd189 2.545 . S
O238 C256 1.258 . S
O239 Gd188 2.362 . S
O239 Gd189 2.606 1_565 S
O239 C255 1.284 . S
O240 Gd188 2.324 1_545 S
O240 C263 1.254 . S
O241 Gd189 2.429 . S
O241 C263 1.268 . S
O242 Gd189 2.545 . S
O242 C255 1.250 1_545 S
O243 Gd189 2.412 . S
O243 C256 1.252 . S
C244 O233 1.284 . S
C244 O236 1.250 . S
C245 H214 0.929 . S
C245 C230 1.437 . S
C245 C246 1.317 . S
C246 H217 0.930 . S
C246 C222 1.431 . S
C246 C245 1.317 . S
C247 Gd188 2.828 . S
C247 O232 1.258 . S
C247 O237 1.252 . S
C247 C248 1.497 . S
C248 C247 1.497 . S
C248 C249 1.395 . S
C248 C250 1.380 . S
C249 C248 1.395 . S
C249 C252 1.398 . S
C249 H264 0.930 . S
C250 C248 1.380 . S
C250 C251 1.391 . S
C250 H265 0.930 1_565 S
C251 C250 1.391 . S
C251 C253 1.387 . S
C252 C249 1.398 . S
C252 C253 1.380 . S
C252 H266 0.930 . S
C253 C251 1.387 . S
C253 C252 1.380 . S
C253 H267 0.930 . S
C254 O234 1.254 . S
C254 O235 1.268 . S
C255 O239 1.284 . S
C255 O242 1.250 1_565 S
C256 Gd189 2.828 . S
C256 O238 1.258 . S
C256 O243 1.252 . S
C256 C257 1.497 . S
C257 C256 1.497 . S
C257 C258 1.395 . S
C257 C259 1.380 1_556 S
C258 C257 1.395 . S
C258 C261 1.398 1_556 S
C258 H268 0.930 . S
C259 C257 1.380 1_554 S
C259 C260 1.391 . S
C259 H269 0.930 1_554 S
C260 C259 1.391 . S
C260 C262 1.387 . S
C261 C258 1.398 1_554 S
C261 C262 1.380 . S
C261 H270 0.930 . S
C262 C260 1.387 . S
C262 C261 1.380 . S
C262 H271 0.930 . S
C263 O240 1.254 . S
C263 O241 1.268 . S
H264 C249 0.930 . S
H265 C250 0.930 1_545 S
H266 C252 0.930 . S
H267 C253 0.930 . S
H268 C258 0.930 . S
H269 C259 0.930 1_556 S
H270 C261 0.930 . S
H271 C262 0.930 . S
Gd272 N303 2.661 . S
Gd272 N309 2.601 . S
Gd272 O316 2.545 . S
Gd272 O317 2.606 . S
Gd272 O319 2.429 . S
Gd272 O320 2.545 . S
Gd272 O321 2.412 . S
Gd272 O323 2.362 . S
Gd272 O324 2.324 . S
Gd272 C331 2.828 . S
Gd273 N282 2.661 . S
Gd273 N286 2.601 . S
Gd273 O317 2.362 . S
Gd273 O318 2.324 . S
Gd273 O322 2.545 . S
Gd273 O323 2.606 . S
Gd273 O325 2.429 . S
Gd273 O326 2.545 . S
Gd273 O327 2.412 . S
Gd273 C340 2.828 . S
C274 C277 1.417 . S
C274 C279 1.431 . S
C274 C280 1.412 . S
C275 C278 1.437 . S
C275 C279 1.317 . S
C275 H294 0.929 . S
C276 C277 1.426 . S
C276 C278 1.413 . S
C276 N286 1.359 . S
C277 C274 1.417 . S
C277 C276 1.426 . S
C277 N282 1.350 . S
C278 C275 1.437 . S
C278 C276 1.413 . S
C278 C288 1.391 . S
C279 C274 1.431 . S
C279 C275 1.317 . S
C279 H290 0.930 . S
C280 C274 1.412 . S
C280 C281 1.355 . S
C280 H292 0.930 . S
C281 C280 1.355 . S
C281 C283 1.402 . S
C281 H293 0.930 . S
N282 Gd273 2.661 . S
N282 C277 1.350 . S
N282 C283 1.307 . S
C283 C281 1.402 . S
C283 N282 1.307 . S
C283 H284 0.930 . S
H284 C283 0.930 . S
C285 N286 1.334 . S
C285 C287 1.394 . S
C285 H289 0.930 . S
N286 Gd273 2.601 . S
N286 C276 1.359 . S
N286 C285 1.334 . S
C287 C285 1.394 . S
C287 C288 1.359 . S
C287 H299 0.930 . S
C288 C278 1.391 . S
C288 C287 1.359 . S
C288 H300 0.929 . S
H289 C285 0.930 . S
H290 C279 0.930 . S
H291 C308 0.930 . S
H292 C280 0.930 . S
H293 C281 0.930 . S
H294 C275 0.929 . S
H295 C313 0.930 . S
H296 C304 0.930 . S
H297 C305 0.930 . S
H298 C329 0.929 . S
H299 C287 0.930 . S
H300 C288 0.929 . S
H301 C330 0.930 . S
H302 C311 0.930 1_554 S
N303 Gd272 2.661 . S
N303 C307 1.350 . S
N303 C308 1.307 . S
C304 H296 0.930 . S
C304 C305 1.355 . S
C304 C306 1.412 . S
C305 H297 0.930 . S
C305 C304 1.355 . S
C305 C308 1.402 . S
C306 C304 1.412 . S
C306 C307 1.417 . S
C306 C330 1.431 . S
C307 N303 1.350 . S
C307 C306 1.417 . S
C307 C310 1.426 . S
C308 H291 0.930 . S
C308 N303 1.307 . S
C308 C305 1.402 . S
N309 Gd272 2.601 . S
N309 C310 1.359 . S
N309 C313 1.334 . S
C310 C307 1.426 . S
C310 N309 1.359 . S
C310 C314 1.413 . S
C311 H302 0.930 1_556 S
C311 C312 1.359 . S
C311 C313 1.394 . S
C312 C311 1.359 . S
C312 C314 1.391 . S
C312 H315 0.929 . S
C313 H295 0.930 . S
C313 N309 1.334 . S
C313 C311 1.394 . S
C314 C310 1.413 . S
C314 C312 1.391 . S
C314 C329 1.437 . S
H315 C312 0.929 . S
O316 Gd272 2.545 . S
O316 C331 1.258 . S
O317 Gd272 2.606 . S
O317 Gd273 2.362 . S
O317 C328 1.284 . S
O318 Gd273 2.324 . S
O318 C338 1.254 . S
O319 Gd272 2.429 . S
O319 C338 1.268 . S
O320 Gd272 2.545 . S
O320 C328 1.250 . S
O321 Gd272 2.412 . S
O321 C331 1.252 . S
O322 Gd273 2.545 . S
O322 C340 1.258 . S
O323 Gd272 2.362 . S
O323 Gd273 2.606 . S
O323 C339 1.284 . S
O324 Gd272 2.324 . S
O324 C347 1.254 . S
O325 Gd273 2.429 . S
O325 C347 1.268 . S
O326 Gd273 2.545 . S
O326 C339 1.250 . S
O327 Gd273 2.412 . S
O327 C340 1.252 . S
C328 O317 1.284 . S
C328 O320 1.250 . S
C329 H298 0.929 . S
C329 C314 1.437 . S
C329 C330 1.317 . S
C330 H301 0.930 . S
C330 C306 1.431 . S
C330 C329 1.317 . S
C331 Gd272 2.828 . S
C331 O316 1.258 . S
C331 O321 1.252 . S
C331 C332 1.497 1_556 S
C332 C331 1.497 1_554 S
C332 C333 1.395 . S
C332 C334 1.380 . S
C333 C332 1.395 . S
C333 C336 1.398 . S
C333 H348 0.930 . S
C334 C332 1.380 . S
C334 C335 1.391 . S
C334 H349 0.930 1_554 S
C335 C334 1.391 . S
C335 C337 1.387 . S
C336 C333 1.398 . S
C336 C337 1.380 . S
C336 H350 0.930 . S
C337 C335 1.387 . S
C337 C336 1.380 . S
C337 H351 0.930 . S
C338 O318 1.254 . S
C338 O319 1.268 . S
C339 O323 1.284 . S
C339 O326 1.250 . S
C340 Gd273 2.828 . S
C340 O322 1.258 . S
C340 O327 1.252 . S
C340 C341 1.497 . S
C341 C340 1.497 . S
C341 C342 1.395 . S
C341 C343 1.380 . S
C342 C341 1.395 . S
C342 C345 1.398 . S
C342 H352 0.930 . S
C343 C341 1.380 . S
C343 C344 1.391 . S
C343 H353 0.930 . S
C344 C343 1.391 . S
C344 C346 1.387 . S
C345 C342 1.398 . S
C345 C346 1.380 . S
C345 H354 0.930 . S
C346 C344 1.387 . S
C346 C345 1.380 . S
C346 H355 0.930 . S
C347 O324 1.254 . S
C347 O325 1.268 . S
H348 C333 0.930 . S
H349 C334 0.930 1_556 S
H350 C336 0.930 . S
H351 C337 0.930 . S
H352 C342 0.930 . S
H353 C343 0.930 . S
H354 C345 0.930 . S
H355 C346 0.930 . S
Gd356 N387 2.661 . S
Gd356 N393 2.601 . S
Gd356 O400 2.545 . S
Gd356 O401 2.606 1_655 S
Gd356 O403 2.429 1_655 S
Gd356 O404 2.545 . S
Gd356 O405 2.412 . S
Gd356 O407 2.362 1_655 S
Gd356 O408 2.324 . S
Gd356 C415 2.828 . S
Gd357 N366 2.661 . S
Gd357 N370 2.601 . S
Gd357 O401 2.362 . S
Gd357 O402 2.324 . S
Gd357 O406 2.545 . S
Gd357 O407 2.606 . S
Gd357 O409 2.429 1_455 S
Gd357 O410 2.545 . S
Gd357 O411 2.412 . S
Gd357 C424 2.828 . S
C358 C361 1.417 . S
C358 C363 1.431 . S
C358 C364 1.412 . S
C359 C362 1.437 . S
C359 C363 1.317 . S
C359 H378 0.929 . S
C360 C361 1.426 . S
C360 C362 1.413 . S
C360 N370 1.359 . S
C361 C358 1.417 . S
C361 C360 1.426 . S
C361 N366 1.350 . S
C362 C359 1.437 . S
C362 C360 1.413 . S
C362 C372 1.391 . S
C363 C358 1.431 . S
C363 C359 1.317 . S
C363 H374 0.930 . S
C364 C358 1.412 . S
C364 C365 1.355 . S
C364 H376 0.930 . S
C365 C364 1.355 . S
C365 C367 1.402 . S
C365 H377 0.930 . S
N366 Gd357 2.661 . S
N366 C361 1.350 . S
N366 C367 1.307 . S
C367 C365 1.402 . S
C367 N366 1.307 . S
C367 H368 0.930 . S
H368 C367 0.930 . S
C369 N370 1.334 1_655 S
C369 C371 1.394 . S
C369 H373 0.930 . S
N370 Gd357 2.601 . S
N370 C360 1.359 . S
N370 C369 1.334 1_455 S
C371 C369 1.394 . S
C371 C372 1.359 1_655 S
C371 H383 0.930 . S
C372 C362 1.391 . S
C372 C371 1.359 1_455 S
C372 H384 0.929 . S
H373 C369 0.930 . S
H374 C363 0.930 . S
H375 C392 0.930 . S
H376 C364 0.930 . S
H377 C365 0.930 . S
H378 C359 0.929 . S
H379 C397 0.930 . S
H380 C388 0.930 . S
H381 C389 0.930 . S
H382 C413 0.929 . S
H383 C371 0.930 . S
H384 C372 0.929 . S
H385 C414 0.930 . S
H386 C395 0.930 1_554 S
N387 Gd356 2.661 . S
N387 C391 1.350 . S
N387 C392 1.307 . S
C388 H380 0.930 . S
C388 C389 1.355 . S
C388 C390 1.412 . S
C389 H381 0.930 . S
C389 C388 1.355 . S
C389 C392 1.402 . S
C390 C388 1.412 . S
C390 C391 1.417 . S
C390 C414 1.431 . S
C391 N387 1.350 . S
C391 C390 1.417 . S
C391 C394 1.426 . S
C392 H375 0.930 . S
C392 N387 1.307 . S
C392 C389 1.402 . S
N393 Gd356 2.601 . S
N393 C394 1.359 . S
N393 C397 1.334 1_655 S
C394 C391 1.426 . S
C394 N393 1.359 . S
C394 C398 1.413 . S
C395 H386 0.930 1_556 S
C395 C396 1.359 . S
C395 C397 1.394 . S
C396 C395 1.359 . S
C396 C398 1.391 1_455 S
C396 H399 0.929 . S
C397 H379 0.930 . S
C397 N393 1.334 1_455 S
C397 C395 1.394 . S
C398 C394 1.413 . S
C398 C396 1.391 1_655 S
C398 C413 1.437 . S
H399 C396 0.929 . S
O400 Gd356 2.545 . S
O400 C415 1.258 . S
O401 Gd356 2.606 1_455 S
O401 Gd357 2.362 . S
O401 C412 1.284 1_455 S
O402 Gd357 2.324 . S
O402 C422 1.254 . S
O403 Gd356 2.429 1_455 S
O403 C422 1.268 . S
O404 Gd356 2.545 . S
O404 C412 1.250 . S
O405 Gd356 2.412 . S
O405 C415 1.252 . S
O406 Gd357 2.545 . S
O406 C424 1.258 . S
O407 Gd356 2.362 1_455 S
O407 Gd357 2.606 . S
O407 C423 1.284 . S
O408 Gd356 2.324 . S
O408 C431 1.254 . S
O409 Gd357 2.429 1_655 S
O409 C431 1.268 . S
O410 Gd357 2.545 . S
O410 C423 1.250 . S
O411 Gd357 2.412 . S
O411 C424 1.252 . S
C412 O401 1.284 1_655 S
C412 O404 1.250 . S
C413 H382 0.929 . S
C413 C398 1.437 . S
C413 C414 1.317 . S
C414 H385 0.930 . S
C414 C390 1.431 . S
C414 C413 1.317 . S
C415 Gd356 2.828 . S
C415 O400 1.258 . S
C415 O405 1.252 . S
C415 C416 1.497 1_556 S
C416 C415 1.497 1_554 S
C416 C417 1.395 . S
C416 C418 1.380 . S
C417 C416 1.395 . S
C417 C420 1.398 . S
C417 H432 0.930 . S
C418 C416 1.380 . S
C418 C419 1.391 . S
C418 H433 0.930 1_554 S
C419 C418 1.391 . S
C419 C421 1.387 . S
C420 C417 1.398 . S
C420 C421 1.380 . S
C420 H434 0.930 . S
C421 C419 1.387 . S
C421 C420 1.380 . S
C421 H435 0.930 . S
C422 O402 1.254 . S
C422 O403 1.268 . S
C423 O407 1.284 . S
C423 O410 1.250 . S
C424 Gd357 2.828 . S
C424 O406 1.258 . S
C424 O411 1.252 . S
C424 C425 1.497 . S
C425 C424 1.497 . S
C425 C426 1.395 . S
C425 C427 1.380 . S
C426 C425 1.395 . S
C426 C429 1.398 . S
C426 H436 0.930 . S
C427 C425 1.380 . S
C427 C428 1.391 . S
C427 H437 0.930 . S
C428 C427 1.391 . S
C428 C430 1.387 . S
C429 C426 1.398 . S
C429 C430 1.380 . S
C429 H438 0.930 . S
C430 C428 1.387 . S
C430 C429 1.380 . S
C430 H439 0.930 . S
C431 O408 1.254 . S
C431 O409 1.268 . S
H432 C417 0.930 . S
H433 C418 0.930 1_556 S
H434 C420 0.930 . S
H435 C421 0.930 . S
H436 C426 0.930 . S
H437 C427 0.930 . S
H438 C429 0.930 . S
H439 C430 0.930 . S
H440 C446 0.930 . S
H441 C449 0.930 . S
H442 C450 0.930 . S
H443 C451 0.930 . S
H444 C454 0.930 . S
H445 C455 0.930 . S
C446 H440 0.930 . S
C446 C447 1.355 . S
C446 C448 1.415 . S
C447 C446 1.355 . S
C447 C449 1.419 . S
C448 C446 1.415 . S
C448 C453 1.425 . S
C448 C455 1.409 . S
C449 H441 0.930 . S
C449 C447 1.419 . S
C449 C450 1.362 . S
C450 H442 0.930 . S
C450 C449 1.362 . S
C450 C453 1.409 . S
C451 H443 0.930 . S
C451 C452 1.355 . S
C451 C453 1.415 . S
C452 C451 1.355 . S
C452 C454 1.419 . S
C453 C448 1.425 . S
C453 C450 1.409 . S
C453 C451 1.415 . S
C454 H444 0.930 . S
C454 C452 1.419 . S
C454 C455 1.362 . S
C455 H445 0.930 . S
C455 C448 1.409 . S
C455 C454 1.362 . S
H456 C462 0.930 . S
H457 C465 0.930 . S
H458 C466 0.930 . S
H459 C467 0.930 . S
H460 C470 0.930 . S
H461 C471 0.930 . S
C462 H456 0.930 . S
C462 C463 1.355 . S
C462 C464 1.415 . S
C463 C462 1.355 . S
C463 C465 1.419 . S
C464 C462 1.415 . S
C464 C469 1.425 . S
C464 C471 1.409 . S
C465 H457 0.930 . S
C465 C463 1.419 . S
C465 C466 1.362 . S
C466 H458 0.930 . S
C466 C465 1.362 . S
C466 C469 1.409 . S
C467 H459 0.930 . S
C467 C468 1.355 . S
C467 C469 1.415 . S
C468 C467 1.355 . S
C468 C470 1.419 . S
C469 C464 1.425 . S
C469 C466 1.409 . S
C469 C467 1.415 . S
C470 H460 0.930 . S
C470 C468 1.419 . S
C470 C471 1.362 . S
C471 H461 0.930 . S
C471 C464 1.409 . S
C471 C470 1.362 . S
H472 C478 0.930 . S
H473 C481 0.930 . S
H474 C482 0.930 . S
H475 C483 0.930 . S
H476 C486 0.930 . S
H477 C487 0.930 . S
C478 H472 0.930 . S
C478 C479 1.355 . S
C478 C480 1.415 . S
C479 C478 1.355 . S
C479 C481 1.419 . S
C480 C478 1.415 . S
C480 C485 1.425 . S
C480 C487 1.409 . S
C481 H473 0.930 . S
C481 C479 1.419 . S
C481 C482 1.362 . S
C482 H474 0.930 . S
C482 C481 1.362 . S
C482 C485 1.409 . S
C483 H475 0.930 . S
C483 C484 1.355 . S
C483 C485 1.415 . S
C484 C483 1.355 . S
C484 C486 1.419 . S
C485 C480 1.425 . S
C485 C482 1.409 . S
C485 C483 1.415 . S
C486 H476 0.930 . S
C486 C484 1.419 . S
C486 C487 1.362 . S
C487 H477 0.930 . S
C487 C480 1.409 . S
C487 C486 1.362 . S
H488 C494 0.930 . S
H489 C497 0.930 . S
H490 C498 0.930 . S
H491 C499 0.930 . S
H492 C502 0.930 . S
H493 C503 0.930 . S
C494 H488 0.930 . S
C494 C495 1.355 . S
C494 C496 1.415 . S
C495 C494 1.355 . S
C495 C497 1.419 . S
C496 C494 1.415 . S
C496 C501 1.425 . S
C496 C503 1.409 . S
C497 H489 0.930 . S
C497 C495 1.419 . S
C497 C498 1.362 . S
C498 H490 0.930 . S
C498 C497 1.362 . S
C498 C501 1.409 . S
C499 H491 0.930 . S
C499 C500 1.355 . S
C499 C501 1.415 . S
C500 C499 1.355 . S
C500 C502 1.419 . S
C501 C496 1.425 . S
C501 C498 1.409 . S
C501 C499 1.415 . S
C502 H492 0.930 . S
C502 C500 1.419 . S
C502 C503 1.362 . S
C503 H493 0.930 . S
C503 C496 1.409 . S
C503 C502 1.362 . S
H504 C510 0.930 . S
H505 C513 0.930 . S
H506 C514 0.930 . S
H507 C515 0.932 . S
H508 C518 0.930 . S
H509 C519 0.930 . S
C510 H504 0.930 . S
C510 C511 1.355 . S
C510 C512 1.415 . S
C511 C510 1.355 . S
C511 C513 1.419 . S
C512 C510 1.415 . S
C512 C517 1.425 . S
C512 C519 1.409 1_554 S
C513 H505 0.930 . S
C513 C511 1.419 . S
C513 C514 1.362 . S
C514 H506 0.930 . S
C514 C513 1.362 . S
C514 C517 1.409 . S
C515 H507 0.932 . S
C515 C516 1.355 . S
C515 C517 1.415 1_556 S
C516 C515 1.355 . S
C516 C518 1.419 . S
C517 C512 1.425 . S
C517 C514 1.409 . S
C517 C515 1.415 1_554 S
C518 H508 0.930 . S
C518 C516 1.419 . S
C518 C519 1.362 . S
C519 H509 0.930 . S
C519 C512 1.409 1_556 S
C519 C518 1.362 . S
H520 C526 0.930 . S
H521 C529 0.930 . S
H522 C530 0.930 . S
H523 C531 0.930 . S
H524 C534 0.930 . S
H525 C535 0.930 . S
C526 H520 0.930 . S
C526 C527 1.355 . S
C526 C528 1.415 . S
C527 C526 1.355 . S
C527 C529 1.419 . S
C528 C526 1.415 . S
C528 C533 1.425 . S
C528 C535 1.409 1_554 S
C529 H521 0.930 . S
C529 C527 1.419 . S
C529 C530 1.362 . S
C530 H522 0.930 . S
C530 C529 1.362 . S
C530 C533 1.409 . S
C531 H523 0.930 . S
C531 C532 1.355 . S
C531 C533 1.415 1_556 S
C532 C531 1.355 . S
C532 C534 1.419 . S
C533 C528 1.425 . S
C533 C530 1.409 . S
C533 C531 1.415 1_554 S
C534 H524 0.930 . S
C534 C532 1.419 . S
C534 C535 1.362 . S
C535 H525 0.930 . S
C535 C528 1.409 1_556 S
C535 C534 1.362 . S
H536 C542 0.930 . S
H537 C545 0.930 . S
H538 C546 0.930 1_556 S
H539 C547 0.930 . S
H540 C550 0.930 . S
H541 C551 0.930 . S
C542 H536 0.930 . S
C542 C543 1.355 . S
C542 C544 1.415 . S
C543 C542 1.355 . S
C543 C545 1.419 . S
C544 C542 1.415 . S
C544 C549 1.425 1_554 S
C544 C551 1.409 . S
C545 H537 0.930 . S
C545 C543 1.419 . S
C545 C546 1.362 . S
C546 H538 0.930 1_554 S
C546 C545 1.362 . S
C546 C549 1.409 1_554 S
C547 H539 0.930 . S
C547 C548 1.355 . S
C547 C549 1.415 . S
C548 C547 1.355 . S
C548 C550 1.419 . S
C549 C544 1.425 1_556 S
C549 C546 1.409 1_556 S
C549 C547 1.415 . S
C550 H540 0.930 . S
C550 C548 1.419 . S
C550 C551 1.362 1_556 S
C551 H541 0.930 . S
C551 C544 1.409 . S
C551 C550 1.362 1_554 S
H552 C558 0.930 . S
H553 C561 0.930 1_455 S
H554 C562 0.930 . S
H555 C563 0.930 1_455 S
H556 C566 0.930 . S
H557 C567 0.930 . S
C558 H552 0.930 . S
C558 C559 1.355 . S
C558 C560 1.415 . S
C559 C558 1.355 . S
C559 C561 1.419 . S
C560 C558 1.415 . S
C560 C565 1.425 . S
C560 C567 1.409 . S
C561 H553 0.930 1_655 S
C561 C559 1.419 . S
C561 C562 1.362 1_655 S
C562 H554 0.930 . S
C562 C561 1.362 1_455 S
C562 C565 1.409 1_455 S
C563 H555 0.930 1_655 S
C563 C564 1.355 . S
C563 C565 1.415 1_556 S
C564 C563 1.355 . S
C564 C566 1.419 . S
C565 C560 1.425 . S
C565 C562 1.409 1_655 S
C565 C563 1.415 1_554 S
C566 H556 0.930 . S
C566 C564 1.419 . S
C566 C567 1.362 1_556 S
C567 H557 0.930 . S
C567 C560 1.409 . S
C567 C566 1.362 1_554 S
H568 C574 0.930 . S
H569 C577 0.930 1_556 S
H570 C578 0.930 . S
H571 C579 0.930 . S
H572 C582 0.929 1_655 S
H573 C583 0.930 . S
C574 H568 0.930 . S
C574 C575 1.355 . S
C574 C576 1.415 . S
C575 C574 1.355 . S
C575 C577 1.419 . S
C576 C574 1.415 . S
C576 C581 1.425 . S
C576 C583 1.409 . S
C577 H569 0.930 1_554 S
C577 C575 1.419 . S
C577 C578 1.362 . S
C578 H570 0.930 . S
C578 C577 1.362 . S
C578 C581 1.409 . S
C579 H571 0.930 . S
C579 C580 1.355 . S
C579 C581 1.415 . S
C580 C579 1.355 . S
C580 C582 1.419 . S
C581 C576 1.425 . S
C581 C578 1.409 . S
C581 C579 1.415 . S
C582 H572 0.929 1_455 S
C582 C580 1.419 . S
C582 C583 1.363 . S
C583 H573 0.930 . S
C583 C576 1.409 . S
C583 C582 1.363 . S
H584 C590 0.930 . S
H585 C593 0.930 . S
H586 C594 0.930 . S
H587 C595 0.930 1_565 S
H588 C598 0.930 . S
H589 C599 0.930 . S
C590 H584 0.930 . S
C590 C591 1.355 . S
C590 C592 1.415 . S
C591 C590 1.355 . S
C591 C593 1.419 . S
C592 C590 1.415 . S
C592 C597 1.425 . S
C592 C599 1.409 . S
C593 H585 0.930 . S
C593 C591 1.419 . S
C593 C594 1.362 . S
C594 H586 0.930 . S
C594 C593 1.362 . S
C594 C597 1.409 . S
C595 H587 0.930 1_545 S
C595 C596 1.355 . S
C595 C597 1.415 . S
C596 C595 1.355 . S
C596 C598 1.419 . S
C597 C592 1.425 . S
C597 C594 1.409 . S
C597 C595 1.415 . S
C598 H588 0.930 . S
C598 C596 1.419 . S
C598 C599 1.362 . S
C599 H589 0.930 . S
C599 C592 1.409 . S
C599 C598 1.362 . S
H600 C606 0.930 . S
H601 C609 0.930 1_556 S
H602 C610 0.930 . S
H603 C611 0.930 . S
H604 C614 0.930 . S
H605 C615 0.930 . S
C606 H600 0.930 . S
C606 C607 1.355 . S
C606 C608 1.415 . S
C607 C606 1.355 . S
C607 C609 1.419 . S
C608 C606 1.415 . S
C608 C613 1.425 . S
C608 C615 1.409 . S
C609 H601 0.930 1_554 S
C609 C607 1.419 . S
C609 C610 1.362 . S
C610 H602 0.930 . S
C610 C609 1.362 . S
C610 C613 1.409 . S
C611 H603 0.930 . S
C611 C612 1.355 . S
C611 C613 1.415 . S
C612 C611 1.355 . S
C612 C614 1.419 . S
C613 C608 1.425 . S
C613 C610 1.409 . S
C613 C611 1.415 . S
C614 H604 0.930 . S
C614 C612 1.419 . S
C614 C615 1.362 . S
C615 H605 0.930 . S
C615 C608 1.409 . S
C615 C614 1.362 . S
H616 C622 0.930 . S
H617 C625 0.930 . S
H618 C626 0.930 . S
H619 C627 0.930 . S
H620 C630 0.930 . S
H621 C631 0.930 . S
C622 H616 0.930 . S
C622 C623 1.355 . S
C622 C624 1.415 . S
C623 C622 1.355 . S
C623 C625 1.419 . S
C624 C622 1.415 . S
C624 C629 1.425 . S
C624 C631 1.409 . S
C625 H617 0.930 . S
C625 C623 1.419 . S
C625 C626 1.362 . S
C626 H618 0.930 . S
C626 C625 1.362 . S
C626 C629 1.409 . S
C627 H619 0.930 . S
C627 C628 1.355 . S
C627 C629 1.415 . S
C628 C627 1.355 . S
C628 C630 1.419 . S
C629 C624 1.425 . S
C629 C626 1.409 . S
C629 C627 1.415 . S
C630 H620 0.930 . S
C630 C628 1.419 . S
C630 C631 1.362 . S
C631 H621 0.930 . S
C631 C624 1.409 . S
C631 C630 1.362 . S
H632 C638 0.930 . S
H633 C641 0.930 . S
H634 C642 0.930 . S
H635 C643 0.930 . S
H636 C646 0.930 . S
H637 C647 0.930 . S
C638 H632 0.930 . S
C638 C639 1.355 . S
C638 C640 1.415 . S
C639 C638 1.355 . S
C639 C641 1.419 . S
C640 C638 1.415 . S
C640 C645 1.425 . S
C640 C647 1.409 . S
C641 H633 0.930 . S
C641 C639 1.419 . S
C641 C642 1.362 1_655 S
C642 H634 0.930 . S
C642 C641 1.362 1_455 S
C642 C645 1.409 1_455 S
C643 H635 0.930 . S
C643 C644 1.355 . S
C643 C645 1.415 1_455 S
C644 C643 1.355 . S
C644 C646 1.419 1_455 S
C645 C640 1.425 . S
C645 C642 1.409 1_655 S
C645 C643 1.415 1_655 S
C646 H636 0.930 . S
C646 C644 1.419 1_655 S
C646 C647 1.362 . S
C647 H637 0.930 . S
C647 C640 1.409 . S
C647 C646 1.362 . S
H648 C654 0.930 . S
H649 C657 0.930 . S
H650 C658 0.930 . S
H651 C659 0.930 1_556 S
H652 C662 0.930 . S
H653 C663 0.930 . S
C654 H648 0.930 . S
C654 C655 1.355 . S
C654 C656 1.415 . S
C655 C654 1.355 . S
C655 C657 1.419 . S
C656 C654 1.415 . S
C656 C661 1.425 . S
C656 C663 1.409 . S
C657 H649 0.930 . S
C657 C655 1.419 . S
C657 C658 1.362 . S
C658 H650 0.930 . S
C658 C657 1.362 . S
C658 C661 1.409 . S
C659 H651 0.930 1_554 S
C659 C660 1.355 . S
C659 C661 1.415 1_545 S
C660 C659 1.355 . S
C660 C662 1.419 . S
C661 C656 1.425 . S
C661 C658 1.409 . S
C661 C659 1.415 1_565 S
C662 H652 0.930 . S
C662 C660 1.419 . S
C662 C663 1.362 1_545 S
C663 H653 0.930 . S
C663 C656 1.409 . S
C663 C662 1.362 1_565 S
H664 C670 0.930 . S
H665 C673 0.930 . S
H666 C674 0.930 . S
H667 C675 0.930 . S
H668 C678 0.930 . S
H669 C679 0.930 . S
C670 H664 0.930 . S
C670 C671 1.355 . S
C670 C672 1.415 . S
C671 C670 1.355 . S
C671 C673 1.419 . S
C672 C670 1.415 . S
C672 C677 1.425 . S
C672 C679 1.409 . S
C673 H665 0.930 . S
C673 C671 1.419 . S
C673 C674 1.362 . S
C674 H666 0.930 . S
C674 C673 1.362 . S
C674 C677 1.409 . S
C675 H667 0.930 . S
C675 C676 1.355 . S
C675 C677 1.415 . S
C676 C675 1.355 . S
C676 C678 1.419 . S
C677 C672 1.425 . S
C677 C674 1.409 . S
C677 C675 1.415 . S
C678 H668 0.930 . S
C678 C676 1.419 . S
C678 C679 1.362 . S
C679 H669 0.930 . S
C679 C672 1.409 . S
C679 C678 1.362 . S
H680 C686 0.930 . S
H681 C689 0.930 . S
H682 C690 0.930 . S
H683 C691 0.930 . S
H684 C694 0.930 . S
H685 C695 0.930 . S
C686 H680 0.930 . S
C686 C687 1.355 . S
C686 C688 1.415 . S
C687 C686 1.355 . S
C687 C689 1.419 . S
C688 C686 1.415 . S
C688 C693 1.425 . S
C688 C695 1.409 . S
C689 H681 0.930 . S
C689 C687 1.419 . S
C689 C690 1.362 . S
C690 H682 0.930 . S
C690 C689 1.362 . S
C690 C693 1.409 . S
C691 H683 0.930 . S
C691 C692 1.355 . S
C691 C693 1.415 . S
C692 C691 1.355 . S
C692 C694 1.419 . S
C693 C688 1.425 . S
C693 C690 1.409 . S
C693 C691 1.415 . S
C694 H684 0.930 . S
C694 C692 1.419 . S
C694 C695 1.362 . S
C695 H685 0.930 . S
C695 C688 1.409 . S
C695 C694 1.362 . S
H696 C702 0.930 . S
H697 C705 0.930 . S
H698 C706 0.930 1_655 S
H699 C707 0.904 1_655 S
H700 C710 0.930 . S
H701 C711 0.930 . S
C702 H696 0.930 . S
C702 C703 1.355 . S
C702 C704 1.415 . S
C703 C702 1.355 . S
C703 C705 1.419 . S
C704 C702 1.415 . S
C704 C709 1.425 . S
C704 C711 1.409 . S
C705 H697 0.930 . S
C705 C703 1.419 . S
C705 C706 1.362 . S
C706 H698 0.930 1_455 S
C706 C705 1.362 . S
C706 C709 1.409 . S
C707 H699 0.904 1_455 S
C707 C708 1.355 . S
C707 C709 1.415 . S
C708 C707 1.355 . S
C708 C710 1.419 . S
C709 C704 1.425 . S
C709 C706 1.409 . S
C709 C707 1.415 . S
C710 H700 0.930 . S
C710 C708 1.419 . S
C710 C711 1.362 . S
C711 H701 0.930 . S
C711 C704 1.409 . S
C711 C710 1.362 . S
H712 C718 0.930 . S
H713 C721 0.930 . S
H714 C722 0.930 . S
H715 C723 0.930 . S
H716 C726 0.930 1_565 S
H717 C727 0.930 1_565 S
C718 H712 0.930 . S
C718 C719 1.355 . S
C718 C720 1.415 . S
C719 C718 1.355 . S
C719 C721 1.419 . S
C720 C718 1.415 . S
C720 C725 1.425 . S
C720 C727 1.409 . S
C721 H713 0.930 . S
C721 C719 1.419 . S
C721 C722 1.362 . S
C722 H714 0.930 . S
C722 C721 1.362 . S
C722 C725 1.409 . S
C723 H715 0.930 . S
C723 C724 1.355 . S
C723 C725 1.415 . S
C724 C723 1.355 . S
C724 C726 1.419 . S
C725 C720 1.425 . S
C725 C722 1.409 . S
C725 C723 1.415 . S
C726 H716 0.930 1_545 S
C726 C724 1.419 . S
C726 C727 1.362 . S
C727 H717 0.930 1_545 S
C727 C720 1.409 . S
C727 C726 1.362 . S
H728 C734 0.930 . S
H729 C737 0.930 . S
H730 C738 0.930 . S
H731 C739 0.930 . S
H732 C742 0.930 . S
H733 C743 0.930 . S
C734 H728 0.930 . S
C734 C735 1.355 . S
C734 C736 1.415 . S
C735 C734 1.355 . S
C735 C737 1.419 . S
C736 C734 1.415 . S
C736 C741 1.425 . S
C736 C743 1.409 . S
C737 H729 0.930 . S
C737 C735 1.419 . S
C737 C738 1.362 . S
C738 H730 0.930 . S
C738 C737 1.362 . S
C738 C741 1.409 . S
C739 H731 0.930 . S
C739 C740 1.355 . S
C739 C741 1.415 . S
C740 C739 1.355 . S
C740 C742 1.419 . S
C741 C736 1.425 . S
C741 C738 1.409 . S
C741 C739 1.415 . S
C742 H732 0.930 . S
C742 C740 1.419 . S
C742 C743 1.362 . S
C743 H733 0.930 . S
C743 C736 1.409 . S
C743 C742 1.362 . S
H744 C750 0.930 . S
H745 C753 0.930 . S
H746 C754 0.930 1_554 S
H747 C755 0.930 . S
H748 C758 0.930 . S
H749 C759 0.930 . S
C750 H744 0.930 . S
C750 C751 1.355 . S
C750 C752 1.415 . S
C751 C750 1.355 . S
C751 C753 1.419 . S
C752 C750 1.415 . S
C752 C757 1.425 . S
C752 C759 1.409 . S
C753 H745 0.930 . S
C753 C751 1.419 . S
C753 C754 1.362 . S
C754 H746 0.930 1_556 S
C754 C753 1.362 . S
C754 C757 1.409 . S
C755 H747 0.930 . S
C755 C756 1.355 . S
C755 C757 1.415 . S
C756 C755 1.355 . S
C756 C758 1.419 . S
C757 C752 1.425 . S
C757 C754 1.409 . S
C757 C755 1.415 . S
C758 H748 0.930 . S
C758 C756 1.419 . S
C758 C759 1.362 . S
C759 H749 0.930 . S
C759 C752 1.409 . S
C759 C758 1.362 . S
H760 C766 0.930 . S
H761 C769 0.930 . S
H762 C770 0.930 . S
H763 C771 0.930 . S
H764 C774 0.930 . S
H765 C775 0.930 . S
C766 H760 0.930 . S
C766 C767 1.355 . S
C766 C768 1.415 . S
C767 C766 1.355 . S
C767 C769 1.419 . S
C768 C766 1.415 . S
C768 C773 1.425 . S
C768 C775 1.409 . S
C769 H761 0.930 . S
C769 C767 1.419 . S
C769 C770 1.362 . S
C770 H762 0.930 . S
C770 C769 1.362 . S
C770 C773 1.409 . S
C771 H763 0.930 . S
C771 C772 1.355 . S
C771 C773 1.415 . S
C772 C771 1.355 . S
C772 C774 1.419 . S
C773 C768 1.425 . S
C773 C770 1.409 . S
C773 C771 1.415 . S
C774 H764 0.930 . S
C774 C772 1.419 . S
C774 C775 1.362 . S
C775 H765 0.930 . S
C775 C768 1.409 . S
C775 C774 1.362 . S
H776 C782 0.930 . S
H777 C785 0.930 1_545 S
H778 C786 0.930 . S
H779 C787 0.930 1_545 S
H780 C790 0.930 . S
H781 C791 0.930 . S
C782 H776 0.930 . S
C782 C783 1.355 . S
C782 C784 1.415 . S
C783 C782 1.355 . S
C783 C785 1.419 . S
C784 C782 1.415 . S
C784 C789 1.425 . S
C784 C791 1.409 . S
C785 H777 0.930 1_565 S
C785 C783 1.419 . S
C785 C786 1.362 1_565 S
C786 H778 0.930 . S
C786 C785 1.362 1_545 S
C786 C789 1.409 1_545 S
C787 H779 0.930 1_565 S
C787 C788 1.355 . S
C787 C789 1.415 . S
C788 C787 1.355 . S
C788 C790 1.419 . S
C789 C784 1.425 . S
C789 C786 1.409 1_565 S
C789 C787 1.415 . S
C790 H780 0.930 . S
C790 C788 1.419 . S
C790 C791 1.362 . S
C791 H781 0.930 . S
C791 C784 1.409 . S
C791 C790 1.362 . S
H792 C798 0.930 . S
H793 C801 0.930 . S
H794 C802 0.930 . S
H795 C803 0.930 . S
H796 C806 0.930 . S
H797 C807 0.930 . S
C798 H792 0.930 . S
C798 C799 1.355 . S
C798 C800 1.415 . S
C799 C798 1.355 . S
C799 C801 1.419 . S
C800 C798 1.415 . S
C800 C805 1.425 . S
C800 C807 1.409 . S
C801 H793 0.930 . S
C801 C799 1.419 . S
C801 C802 1.362 . S
C802 H794 0.930 . S
C802 C801 1.362 . S
C802 C805 1.409 . S
C803 H795 0.930 . S
C803 C804 1.355 . S
C803 C805 1.415 . S
C804 C803 1.355 . S
C804 C806 1.419 . S
C805 C800 1.425 . S
C805 C802 1.409 . S
C805 C803 1.415 . S
C806 H796 0.930 . S
C806 C804 1.419 . S
C806 C807 1.362 . S
C807 H797 0.930 . S
C807 C800 1.409 . S
C807 C806 1.362 . S
H808 C814 0.930 . S
H809 C817 0.930 . S
H810 C818 0.930 . S
H811 C819 0.930 . S
H812 C822 0.930 . S
H813 C823 0.930 . S
C814 H808 0.930 . S
C814 C815 1.355 . S
C814 C816 1.415 . S
C815 C814 1.355 . S
C815 C817 1.419 . S
C816 C814 1.415 . S
C816 C821 1.425 . S
C816 C823 1.409 . S
C817 H809 0.930 . S
C817 C815 1.419 . S
C817 C818 1.362 . S
C818 H810 0.930 . S
C818 C817 1.362 . S
C818 C821 1.409 . S
C819 H811 0.930 . S
C819 C820 1.355 . S
C819 C821 1.415 . S
C820 C819 1.355 . S
C820 C822 1.419 . S
C821 C816 1.425 . S
C821 C818 1.409 . S
C821 C819 1.415 . S
C822 H812 0.930 . S
C822 C820 1.419 . S
C822 C823 1.362 . S
C823 H813 0.930 . S
C823 C816 1.409 . S
C823 C822 1.362 . S
C447 C82 1.813 . S
C452 C179 2.010 . S
C468 C263 2.016 . S
C463 C95 1.800 . S
C484 C339 1.981 . S
C479 C56 1.912 . S
C500 C423 1.887 . S
C495 C69 1.797 . S
C516 C170 1.994 1_565 S
C511 C30 1.761 . S
C527 C43 1.751 . S
C532 C254 1.982 . S
C543 C4 1.738 . S
C548 C328 1.896 . S
C559 C17 1.755 . S
C564 C412 1.914 . S
C580 C167 0.717 1_455 S
C575 C74 0.740 . S
C596 C251 0.760 1_545 S
C591 C87 0.710 . S
C612 C344 0.726 . S
C607 C100 0.683 . S
C623 C61 0.634 . S
C628 C428 0.773 . S
C639 C22 0.747 . S
C644 C176 0.782 . S
C660 C260 0.709 . S
C655 C35 0.781 . S
C676 C335 0.714 . S
C671 C48 0.706 . S
C687 C9 0.705 . S
C692 C419 0.756 . S
C703 C73 2.046 . S
C708 C160 2.140 . S
C719 C86 2.028 . S
C724 C244 2.067 . S
C740 C338 2.157 . S
C735 C99 1.905 . S
C756 C422 2.168 . S
C751 C60 1.909 . S
C767 C21 1.998 . S
C772 C171 2.073 . S
C788 C255 2.116 . S
C783 C34 2.013 . S
C804 C347 2.127 . S
C799 C47 1.968 . S
C815 C8 1.912 . S
C820 C431 2.154 . S
