# Generated by pormake.
# Topology ctn, (3,4)-cn, num edge types: 1
# Building blocks:
#     Node 0, Type 0, BuildingBlock: CUQRIR_clean_linker_1, # of connection points: 3
#     Node 1, Type 0, BuildingBlock: CUQRIR_clean_linker_1, # of connection points: 3
#     Node 2, Type 0, BuildingBlock: CUQRIR_clean_linker_1, # of connection points: 3
#     Node 3, Type 0, BuildingBlock: CUQRIR_clean_linker_1, # of connection points: 3
#     Node 4, Type 0, BuildingBlock: CUQRIR_clean_linker_1, # of connection points: 3
#     Node 5, Type 0, BuildingBlock: CUQRIR_clean_linker_1, # of connection points: 3
#     Node 6, Type 0, BuildingBlock: CUQRIR_clean_linker_1, # of connection points: 3
#     Node 7, Type 0, BuildingBlock: CUQRIR_clean_linker_1, # of connection points: 3
#     Node 8, Type 0, BuildingBlock: CUQRIR_clean_linker_1, # of connection points: 3
#     Node 9, Type 0, BuildingBlock: CUQRIR_clean_linker_1, # of connection points: 3
#     Node 10, Type 0, BuildingBlock: CUQRIR_clean_linker_1, # of connection points: 3
#     Node 11, Type 0, BuildingBlock: CUQRIR_clean_linker_1, # of connection points: 3
#     Node 12, Type 0, BuildingBlock: CUQRIR_clean_linker_1, # of connection points: 3
#     Node 13, Type 0, BuildingBlock: CUQRIR_clean_linker_1, # of connection points: 3
#     Node 14, Type 0, BuildingBlock: CUQRIR_clean_linker_1, # of connection points: 3
#     Node 15, Type 0, BuildingBlock: CUQRIR_clean_linker_1, # of connection points: 3
#     Node 16, Type 1, BuildingBlock: UXUYUI_clean_sbu_0, # of connection points: 4
#     Node 17, Type 1, BuildingBlock: UXUYUI_clean_sbu_0, # of connection points: 4
#     Node 18, Type 1, BuildingBlock: UXUYUI_clean_sbu_0, # of connection points: 4
#     Node 19, Type 1, BuildingBlock: UXUYUI_clean_sbu_0, # of connection points: 4
#     Node 20, Type 1, BuildingBlock: UXUYUI_clean_sbu_0, # of connection points: 4
#     Node 21, Type 1, BuildingBlock: UXUYUI_clean_sbu_0, # of connection points: 4
#     Node 22, Type 1, BuildingBlock: UXUYUI_clean_sbu_0, # of connection points: 4
#     Node 23, Type 1, BuildingBlock: UXUYUI_clean_sbu_0, # of connection points: 4
#     Node 24, Type 1, BuildingBlock: UXUYUI_clean_sbu_0, # of connection points: 4
#     Node 25, Type 1, BuildingBlock: UXUYUI_clean_sbu_0, # of connection points: 4
#     Node 26, Type 1, BuildingBlock: UXUYUI_clean_sbu_0, # of connection points: 4
#     Node 27, Type 1, BuildingBlock: UXUYUI_clean_sbu_0, # of connection points: 4
#     Edge 28, Type (0, 1), BuildingBlock: XIVTED_clean_linker_0, # of connection points: 2
#     Edge 29, Type (0, 1), BuildingBlock: XIVTED_clean_linker_0, # of connection points: 2
#     Edge 30, Type (0, 1), BuildingBlock: XIVTED_clean_linker_0, # of connection points: 2
#     Edge 31, Type (0, 1), BuildingBlock: XIVTED_clean_linker_0, # of connection points: 2
#     Edge 32, Type (0, 1), BuildingBlock: XIVTED_clean_linker_0, # of connection points: 2
#     Edge 33, Type (0, 1), BuildingBlock: XIVTED_clean_linker_0, # of connection points: 2
#     Edge 34, Type (0, 1), BuildingBlock: XIVTED_clean_linker_0, # of connection points: 2
#     Edge 35, Type (0, 1), BuildingBlock: XIVTED_clean_linker_0, # of connection points: 2
#     Edge 36, Type (0, 1), BuildingBlock: XIVTED_clean_linker_0, # of connection points: 2
#     Edge 37, Type (0, 1), BuildingBlock: XIVTED_clean_linker_0, # of connection points: 2
#     Edge 38, Type (0, 1), BuildingBlock: XIVTED_clean_linker_0, # of connection points: 2
#     Edge 39, Type (0, 1), BuildingBlock: XIVTED_clean_linker_0, # of connection points: 2
#     Edge 40, Type (0, 1), BuildingBlock: XIVTED_clean_linker_0, # of connection points: 2
#     Edge 41, Type (0, 1), BuildingBlock: XIVTED_clean_linker_0, # of connection points: 2
#     Edge 42, Type (0, 1), BuildingBlock: XIVTED_clean_linker_0, # of connection points: 2
#     Edge 43, Type (0, 1), BuildingBlock: XIVTED_clean_linker_0, # of connection points: 2
#     Edge 44, Type (0, 1), BuildingBlock: XIVTED_clean_linker_0, # of connection points: 2
#     Edge 45, Type (0, 1), BuildingBlock: XIVTED_clean_linker_0, # of connection points: 2
#     Edge 46, Type (0, 1), BuildingBlock: XIVTED_clean_linker_0, # of connection points: 2
#     Edge 47, Type (0, 1), BuildingBlock: XIVTED_clean_linker_0, # of connection points: 2
#     Edge 48, Type (0, 1), BuildingBlock: XIVTED_clean_linker_0, # of connection points: 2
#     Edge 49, Type (0, 1), BuildingBlock: XIVTED_clean_linker_0, # of connection points: 2
#     Edge 50, Type (0, 1), BuildingBlock: XIVTED_clean_linker_0, # of connection points: 2
#     Edge 51, Type (0, 1), BuildingBlock: XIVTED_clean_linker_0, # of connection points: 2
#     Edge 52, Type (0, 1), BuildingBlock: XIVTED_clean_linker_0, # of connection points: 2
#     Edge 53, Type (0, 1), BuildingBlock: XIVTED_clean_linker_0, # of connection points: 2
#     Edge 54, Type (0, 1), BuildingBlock: XIVTED_clean_linker_0, # of connection points: 2
#     Edge 55, Type (0, 1), BuildingBlock: XIVTED_clean_linker_0, # of connection points: 2
#     Edge 56, Type (0, 1), BuildingBlock: XIVTED_clean_linker_0, # of connection points: 2
#     Edge 57, Type (0, 1), BuildingBlock: XIVTED_clean_linker_0, # of connection points: 2
#     Edge 58, Type (0, 1), BuildingBlock: XIVTED_clean_linker_0, # of connection points: 2
#     Edge 59, Type (0, 1), BuildingBlock: XIVTED_clean_linker_0, # of connection points: 2
#     Edge 60, Type (0, 1), BuildingBlock: XIVTED_clean_linker_0, # of connection points: 2
#     Edge 61, Type (0, 1), BuildingBlock: XIVTED_clean_linker_0, # of connection points: 2
#     Edge 62, Type (0, 1), BuildingBlock: XIVTED_clean_linker_0, # of connection points: 2
#     Edge 63, Type (0, 1), BuildingBlock: XIVTED_clean_linker_0, # of connection points: 2
#     Edge 64, Type (0, 1), BuildingBlock: XIVTED_clean_linker_0, # of connection points: 2
#     Edge 65, Type (0, 1), BuildingBlock: XIVTED_clean_linker_0, # of connection points: 2
#     Edge 66, Type (0, 1), BuildingBlock: XIVTED_clean_linker_0, # of connection points: 2
#     Edge 67, Type (0, 1), BuildingBlock: XIVTED_clean_linker_0, # of connection points: 2
#     Edge 68, Type (0, 1), BuildingBlock: XIVTED_clean_linker_0, # of connection points: 2
#     Edge 69, Type (0, 1), BuildingBlock: XIVTED_clean_linker_0, # of connection points: 2
#     Edge 70, Type (0, 1), BuildingBlock: XIVTED_clean_linker_0, # of connection points: 2
#     Edge 71, Type (0, 1), BuildingBlock: XIVTED_clean_linker_0, # of connection points: 2
#     Edge 72, Type (0, 1), BuildingBlock: XIVTED_clean_linker_0, # of connection points: 2
#     Edge 73, Type (0, 1), BuildingBlock: XIVTED_clean_linker_0, # of connection points: 2
#     Edge 74, Type (0, 1), BuildingBlock: XIVTED_clean_linker_0, # of connection points: 2
#     Edge 75, Type (0, 1), BuildingBlock: XIVTED_clean_linker_0, # of connection points: 2
# Relax obj value: 0.078
# Max RMSD: 0.211
# Mean RMSD: 0.130
data_MOF--net-ctn--node1-UXUYUI_clean_sbu_0--node2-CUQRIR_clean_linker_1--edge1-XIVTED_clean_linker_0
_symmetry_space_group_name_H-M    P1
_symmetry_Int_Tables_number       1
_symmetry_cell_setting            triclinic
loop_
_symmetry_equiv_pos_as_xyz
'x, y, z'
_cell_length_a     65.707898
_cell_length_b     61.267146
_cell_length_c     62.841894
_cell_angle_alpha  96.536436
_cell_angle_beta   88.891046
_cell_angle_gamma 92.669751
loop_
_atom_site_label
_atom_site_type_symbol
_atom_site_fract_x
_atom_site_fract_y
_atom_site_fract_z
_atom_type_partial_charge
C0 C 0.04712 0.02031 0.07204 0.0
N1 N 0.05725 0.02891 0.05572 0.0
N2 N 0.03287 0.03407 0.08064 0.0
C3 C 0.05217 0.99926 0.08059 0.0
C4 C 0.03476 0.05142 0.06912 0.0
N5 N 0.04978 0.04844 0.05415 0.0
C6 C 0.02097 0.07052 0.0715 0.0
H7 H 0.04708 0.99917 0.09751 0.0
H8 H 0.0688 0.99684 0.07945 0.0
H9 H 0.04432 0.98526 0.0708 0.0
H10 H 0.02854 0.08443 0.08167 0.0
H11 H 0.00622 0.06614 0.07917 0.0
H12 H 0.018 0.07605 0.05569 0.0
C13 C 0.29171 0.72784 0.22069 0.0
N14 N 0.29933 0.71928 0.23763 0.0
N15 N 0.30156 0.74721 0.21776 0.0
C16 C 0.27353 0.71813 0.2081 0.0
C17 C 0.31531 0.75025 0.23378 0.0
N18 N 0.31382 0.73334 0.24603 0.0
C19 C 0.33127 0.76873 0.23632 0.0
H20 H 0.27881 0.70623 0.19474 0.0
H21 H 0.26526 0.73107 0.20134 0.0
H22 H 0.26282 0.70922 0.21831 0.0
H23 H 0.32544 0.78234 0.24762 0.0
H24 H 0.33484 0.77508 0.22077 0.0
H25 H 0.34546 0.76325 0.24293 0.0
C26 C 0.97537 0.49728 0.07516 0.0
N27 N 0.98798 0.48028 0.0744 0.0
N28 N 0.96421 0.49591 0.05712 0.0
C29 C 0.97503 0.51613 0.09273 0.0
C30 C 0.97057 0.47757 0.04528 0.0
N31 N 0.98519 0.46821 0.05565 0.0
C32 C 0.96128 0.46774 0.02443 0.0
H33 H 0.96422 0.51178 0.10552 0.0
H34 H 0.96998 0.53125 0.08661 0.0
H35 H 0.99034 0.51954 0.09984 0.0
H36 H 0.97028 0.4738 0.011 0.0
H37 H 0.94531 0.47257 0.02327 0.0
H38 H 0.96155 0.44954 0.02269 0.0
C39 C 0.6952 0.77542 0.2285 0.0
N40 N 0.7123 0.7851 0.22069 0.0
N41 N 0.69126 0.78417 0.24887 0.0
C42 C 0.6834 0.75612 0.21695 0.0
C43 C 0.70669 0.79938 0.25322 0.0
N44 N 0.71958 0.79974 0.2362 0.0
C45 C 0.70835 0.81504 0.27345 0.0
H46 H 0.67157 0.76229 0.20709 0.0
H47 H 0.6758 0.74582 0.22845 0.0
H48 H 0.69356 0.74578 0.20616 0.0
H49 H 0.71791 0.80783 0.28498 0.0
H50 H 0.69313 0.81797 0.2809 0.0
H51 H 0.71569 0.83102 0.2702 0.0
C52 C 0.03909 0.97733 0.4813 0.0
N53 N 0.05643 0.97899 0.49281 0.0
N54 N 0.04161 0.98785 0.46356 0.0
C55 C 0.02022 0.96387 0.48639 0.0
C56 C 0.0612 0.99575 0.46452 0.0
N57 N 0.07032 0.99013 0.48217 0.0
C58 C 0.07092 0.01042 0.44917 0.0
H59 H 0.02419 0.94931 0.4942 0.0
H60 H 0.01149 0.9582 0.47169 0.0
H61 H 0.01034 0.97413 0.49758 0.0
H62 H 0.05927 0.01921 0.44135 0.0
H63 H 0.0794 1.00018 0.4366 0.0
H64 H 0.08185 0.02267 0.45754 0.0
C65 C 0.19935 0.72757 0.80594 0.0
N66 N 0.21546 0.71896 0.81449 0.0
N67 N 0.19486 0.71655 0.78661 0.0
C68 C 0.18858 0.74735 0.81606 0.0
C69 C 0.20894 0.70102 0.78359 0.0
N70 N 0.22162 0.70263 0.8005 0.0
C71 C 0.21087 0.685 0.76374 0.0
H72 H 0.17261 0.74699 0.81055 0.0
H73 H 0.19667 0.76241 0.81135 0.0
H74 H 0.18873 0.74817 0.83378 0.0
H75 H 0.22145 0.69235 0.75227 0.0
H76 H 0.19599 0.68132 0.75583 0.0
H77 H 0.21715 0.66944 0.76762 0.0
C78 C 0.9614 0.54103 0.45732 0.0
N79 N 0.97576 0.55772 0.45933 0.0
N80 N 0.94925 0.54169 0.47504 0.0
C81 C 0.96036 0.523 0.43893 0.0
C82 C 0.95683 0.5593 0.48793 0.0
N83 N 0.97307 0.56885 0.47849 0.0
C84 C 0.94757 0.56809 0.5091 0.0
H85 H 0.95084 0.52819 0.42618 0.0
H86 H 0.95344 0.50756 0.44409 0.0
H87 H 0.97576 0.51976 0.4321 0.0
H88 H 0.95512 0.56083 0.52211 0.0
H89 H 0.93101 0.56373 0.50974 0.0
H90 H 0.9499 0.58623 0.512 0.0
C91 C 0.79266 0.80436 0.81432 0.0
N92 N 0.80906 0.79161 0.81189 0.0
N93 N 0.79501 0.82151 0.80251 0.0
C94 C 0.77515 0.80112 0.82961 0.0
C95 C 0.81352 0.81883 0.79295 0.0
N96 N 0.82217 0.80085 0.79886 0.0
C97 C 0.82255 0.83282 0.77663 0.0
H98 H 0.76337 0.78985 0.82134 0.0
H99 H 0.76818 0.81696 0.83515 0.0
H100 H 0.78025 0.79365 0.84377 0.0
H101 H 0.83246 0.84617 0.78493 0.0
H102 H 0.81047 0.84033 0.76818 0.0
H103 H 0.83203 0.823 0.76464 0.0
C104 C 0.2917 0.30514 0.31721 0.0
N105 N 0.30772 0.29191 0.31419 0.0
N106 N 0.28989 0.31687 0.30041 0.0
C107 C 0.27699 0.3056 0.33591 0.0
C108 C 0.30529 0.31022 0.28696 0.0
N109 N 0.31599 0.29481 0.29518 0.0
C110 C 0.31096 0.32019 0.26671 0.0
H111 H 0.26193 0.31115 0.33161 0.0
H112 H 0.28319 0.31722 0.34931 0.0
H113 H 0.27496 0.28909 0.34151 0.0
H114 H 0.32773 0.32094 0.2642 0.0
H115 H 0.30532 0.33702 0.26712 0.0
H116 H 0.30403 0.30976 0.2529 0.0
C117 C 0.47084 0.98817 0.57775 0.0
N118 N 0.48433 0.97194 0.57638 0.0
N119 N 0.46042 0.98748 0.55931 0.0
C120 C 0.46876 1.00556 0.59649 0.0
C121 C 0.46803 0.97038 0.54663 0.0
N122 N 0.48273 0.96105 0.55689 0.0
C123 C 0.46006 0.96182 0.52482 0.0
H124 H 0.45859 0.99894 0.60875 0.0
H125 H 0.46205 0.02047 0.59159 0.0
H126 H 0.48379 0.01015 0.60385 0.0
H127 H 0.4703 0.96813 0.51244 0.0
H128 H 0.44447 0.96728 0.52256 0.0
H129 H 0.45985 0.94358 0.52242 0.0
C130 C 0.19775 0.27157 0.73242 0.0
N131 N 0.21385 0.28209 0.72362 0.0
N132 N 0.18899 0.28504 0.74821 0.0
C133 C 0.18969 0.24873 0.72462 0.0
C134 C 0.20025 0.30415 0.74864 0.0
N135 N 0.21524 0.30243 0.73352 0.0
C136 C 0.19762 0.32384 0.76494 0.0
H137 H 0.19209 0.24512 0.70707 0.0
H138 H 0.17321 0.24662 0.72844 0.0
H139 H 0.19802 0.23669 0.73264 0.0
H140 H 0.19004 0.31904 0.77975 0.0
H141 H 0.18802 0.33562 0.75805 0.0
H142 H 0.21255 0.33228 0.76914 0.0
C143 C 0.78804 0.23532 0.73235 0.0
N144 N 0.79692 0.2245 0.74707 0.0
N145 N 0.80074 0.25163 0.72635 0.0
C146 C 0.76765 0.22871 0.72246 0.0
C147 C 0.8178 0.25014 0.7378 0.0
N148 N 0.81557 0.23346 0.75026 0.0
C149 C 0.83591 0.26614 0.73814 0.0
H150 H 0.76704 0.23323 0.70589 0.0
H151 H 0.75559 0.23733 0.73225 0.0
H152 H 0.76438 0.21074 0.72209 0.0
H153 H 0.83147 0.28233 0.73387 0.0
H154 H 0.84744 0.25955 0.72627 0.0
H155 H 0.84297 0.26847 0.75418 0.0
C156 C 0.54861 0.52407 0.57368 0.0
N157 N 0.55689 0.53028 0.55528 0.0
N158 N 0.52942 0.53106 0.57662 0.0
C159 C 0.55875 0.50995 0.58809 0.0
C160 C 0.52623 0.54158 0.55925 0.0
N161 N 0.54283 0.54083 0.5461 0.0
C162 C 0.50762 0.55421 0.55608 0.0
H163 H 0.54731 0.50088 0.59736 0.0
H164 H 0.56858 0.52062 0.59949 0.0
H165 H 0.56848 0.49797 0.57863 0.0
H166 H 0.49971 0.55907 0.57153 0.0
H167 H 0.49695 0.54364 0.54548 0.0
H168 H 0.51172 0.56921 0.54829 0.0
C169 C 0.53827 0.47611 0.98085 0.0
N170 N 0.55585 0.4781 0.99195 0.0
N171 N 0.54022 0.48659 0.96302 0.0
C172 C 0.51976 0.46237 0.98646 0.0
C173 C 0.55972 0.49484 0.96357 0.0
N174 N 0.56933 0.48942 0.981 0.0
C175 C 0.56885 0.50967 0.94804 0.0
H176 H 0.52416 0.44809 0.99447 0.0
H177 H 0.51089 0.45625 0.97199 0.0
H178 H 0.50987 0.47259 0.99768 0.0
H179 H 0.55688 0.51835 0.9406 0.0
H180 H 0.57715 0.49959 0.9352 0.0
H181 H 0.57985 0.52203 0.95616 0.0
C182 C 0.70685 0.23411 0.30304 0.0
N183 N 0.72056 0.22298 0.31281 0.0
N184 N 0.7007 0.22247 0.2845 0.0
C185 C 0.69856 0.25573 0.31226 0.0
C186 C 0.71106 0.20376 0.28347 0.0
N187 N 0.72305 0.20396 0.30083 0.0
C188 C 0.71066 0.18619 0.26466 0.0
H189 H 0.6995 0.25805 0.32998 0.0
H190 H 0.68247 0.25685 0.30761 0.0
H191 H 0.70773 0.26927 0.3059 0.0
H192 H 0.70657 0.19304 0.24979 0.0
H193 H 0.69905 0.17314 0.26774 0.0
H194 H 0.72568 0.17865 0.26228 0.0
C195 C 0.46622 0.04294 0.95897 0.0
N196 N 0.48077 0.05943 0.96096 0.0
N197 N 0.45113 0.04697 0.97366 0.0
C198 C 0.46739 0.02234 0.94358 0.0
C199 C 0.45698 0.06646 0.98459 0.0
N200 N 0.4749 0.07413 0.97679 0.0
C201 C 0.44546 0.07772 1.00331 0.0
H202 H 0.45205 0.01484 0.93975 0.0
H203 H 0.47616 0.01024 0.95105 0.0
H204 H 0.47539 0.02587 0.92855 0.0
H205 H 0.42892 0.07326 1.00219 0.0
H206 H 0.44788 0.09584 1.00415 0.0
H207 H 0.45117 0.07238 0.01831 0.0
Li208 Li 0.27547 0.90347 0.02044 0.0
Li209 Li 0.25807 0.87745 0.04313 0.0
Li210 Li 0.25618 0.87163 1.00357 0.0
Li211 Li 0.23807 0.9005 0.0231 0.0
C212 C 0.29753 0.86409 0.01078 0.0
N213 N 0.33161 0.84819 0.98879 0.0
C214 C 0.30702 0.84594 0.01705 0.0
C215 C 0.30555 0.87427 0.99347 0.0
C216 C 0.32417 0.8381 0.00569 0.0
C217 C 0.32273 0.86597 0.98252 0.0
C218 C 0.26978 0.91905 0.06323 0.0
C219 C 0.27715 0.9475 0.09219 0.0
N220 N 0.29422 0.93719 0.09656 0.0
C221 C 0.28743 0.90877 0.06799 0.0
C222 C 0.26461 0.93859 0.07538 0.0
C223 C 0.29957 0.91819 0.08491 0.0
C224 C 0.29509 0.94232 0.00963 0.0
N225 N 0.29825 0.92351 0.0184 0.0
C226 C 0.33387 0.93282 0.02132 0.0
C227 C 0.31707 0.91878 0.02469 0.0
C228 C 0.33122 0.95195 0.01147 0.0
C229 C 0.31145 0.95681 0.00593 0.0
H230 H 0.27988 0.94577 1.00505 0.0
H231 H 0.31915 0.90379 0.0318 0.0
C232 C 0.267 0.84156 0.06376 0.0
N233 N 0.26047 0.86232 0.06785 0.0
C234 C 0.27092 0.82934 0.08052 0.0
C235 C 0.26029 0.85969 0.10557 0.0
C236 C 0.25677 0.87145 0.08824 0.0
C237 C 0.2677 0.83837 0.10185 0.0
H238 H 0.26941 0.83459 0.04738 0.0
H239 H 0.2513 0.88792 0.09108 0.0
C240 C 0.25407 0.90079 0.97544 0.0
N241 N 0.2517 0.89636 0.93125 0.0
C242 C 0.23727 0.88966 0.96519 0.0
C243 C 0.26965 0.90972 0.96315 0.0
C244 C 0.23637 0.88757 0.94286 0.0
C245 C 0.26817 0.9073 0.94085 0.0
C246 C 0.21381 0.86818 0.0302 0.0
C247 C 0.19928 0.86418 0.0141 0.0
C248 C 0.2075 0.87294 0.05152 0.0
C249 C 0.17862 0.86515 0.01962 0.0
C250 C 0.1867 0.87375 0.05638 0.0
N251 N 0.17281 0.86989 0.04047 0.0
C252 C 0.2415 0.83183 0.9805 0.0
C253 C 0.26847 0.84969 0.96276 0.0
C254 C 0.23977 0.81523 0.96334 0.0
N255 N 0.25554 0.84877 0.97983 0.0
C256 C 0.26748 0.83334 0.94543 0.0
C257 C 0.2528 0.8159 0.94536 0.0
H258 H 0.2314 0.83139 0.99424 0.0
H259 H 0.27927 0.86339 0.96221 0.0
C260 C 0.20338 0.91935 0.0067 0.0
N261 N 0.21429 0.91778 0.0246 0.0
C262 C 0.18657 0.93257 0.00759 0.0
C263 C 0.19249 0.94255 0.04533 0.0
C264 C 0.20911 0.92896 0.04374 0.0
C265 C 0.181 0.94454 0.02706 0.0
H266 H 0.20777 0.91049 0.99166 0.0
H267 H 0.21796 0.92738 0.05777 0.0
O268 O 0.28088 0.87219 0.02196 0.0
O269 O 0.25768 0.91027 0.04663 0.0
O270 O 0.2553 0.90294 0.99732 0.0
O271 O 0.23412 0.86809 0.02507 0.0
H272 H 0.30131 0.83801 0.03061 0.0
H273 H 0.29852 0.88838 0.98844 0.0
H274 H 0.33162 0.82403 0.01035 0.0
H275 H 0.329 0.87368 0.96903 0.0
H276 H 0.27332 0.96261 0.10173 0.0
H277 H 0.29173 0.89366 0.05878 0.0
H278 H 0.25106 0.94683 0.07184 0.0
H279 H 0.31325 0.91039 0.08878 0.0
H280 H 0.34884 0.92836 0.02573 0.0
H281 H 0.30866 0.97157 0.99867 0.0
H282 H 0.27685 0.81315 0.0767 0.0
H283 H 0.25719 0.86723 0.12166 0.0
H284 H 0.22533 0.88213 0.97434 0.0
H285 H 0.28281 0.91834 0.9707 0.0
H286 H 0.22354 0.8788 0.93476 0.0
H287 H 0.28014 0.91409 0.93117 0.0
H288 H 0.20391 0.86055 0.99751 0.0
H289 H 0.21857 0.87629 0.06413 0.0
H290 H 0.16721 0.86219 0.00733 0.0
H291 H 0.18159 0.87755 0.0728 0.0
H292 H 0.228 0.80236 0.96397 0.0
H293 H 0.27808 0.8345 0.93216 0.0
H294 H 0.17828 0.93376 0.99307 0.0
H295 H 0.18856 0.95124 0.06073 0.0
Li296 Li 0.13037 0.52212 0.291 0.0
Li297 Li 0.15516 0.49652 0.2754 0.0
Li298 Li 0.15807 0.53586 0.27048 0.0
Li299 Li 0.13138 0.5122 0.25163 0.0
C300 C 0.16108 0.52756 0.31892 0.0
N301 N 0.16286 0.53849 0.36279 0.0
C302 C 0.16831 0.51268 0.33198 0.0
C303 C 0.15497 0.5481 0.3282 0.0
C304 C 0.16904 0.51849 0.35411 0.0
C305 C 0.15592 0.55329 0.3504 0.0
C306 C 0.11669 0.47767 0.28737 0.0
C307 C 0.08955 0.45208 0.29597 0.0
N308 N 0.10006 0.4477 0.31331 0.0
C309 C 0.12724 0.47279 0.30519 0.0
C310 C 0.09772 0.46713 0.28264 0.0
C311 C 0.11859 0.45765 0.31814 0.0
C312 C 0.09789 0.54466 0.31162 0.0
N313 N 0.1117 0.52944 0.31447 0.0
C314 C 0.09847 0.52614 0.34978 0.0
C315 C 0.11218 0.52013 0.33311 0.0
C316 C 0.08404 0.54186 0.3473 0.0
C317 C 0.08392 0.55118 0.32788 0.0
H318 H 0.09773 0.55181 0.29668 0.0
H319 H 0.12332 0.50819 0.33521 0.0
C320 C 0.19035 0.47644 0.28555 0.0
N321 N 0.17108 0.47186 0.2784 0.0
C322 C 0.20311 0.45944 0.28833 0.0
C323 C 0.17611 0.43324 0.27582 0.0
C324 C 0.16382 0.45079 0.27336 0.0
C325 C 0.19601 0.43747 0.28353 0.0
H326 H 0.19578 0.49338 0.28914 0.0
H327 H 0.14848 0.44759 0.26751 0.0
C328 C 0.1305 0.56231 0.26201 0.0
N329 N 0.13568 0.60416 0.24983 0.0
C330 C 0.13153 0.56536 0.24031 0.0
C331 C 0.13194 0.58054 0.27752 0.0
C332 C 0.13418 0.58665 0.23447 0.0
C333 C 0.1346 0.60157 0.27104 0.0
C334 C 0.16637 0.49434 0.23219 0.0
C335 C 0.18375 0.49728 0.2195 0.0
C336 C 0.15414 0.47505 0.22843 0.0
C337 C 0.18863 0.48081 0.2032 0.0
C338 C 0.15954 0.45897 0.21199 0.0
N339 N 0.17653 0.46216 0.19981 0.0
C340 C 0.18316 0.56495 0.24799 0.0
C341 C 0.18668 0.57007 0.28568 0.0
C342 C 0.19811 0.58156 0.24567 0.0
N343 N 0.17771 0.5596 0.26779 0.0
C344 C 0.20165 0.58676 0.28412 0.0
C345 C 0.20764 0.59268 0.26391 0.0
H346 H 0.17599 0.55618 0.23398 0.0
H347 H 0.18253 0.56524 0.30118 0.0
C348 C 0.09511 0.49951 0.23049 0.0
N349 N 0.11473 0.50605 0.22672 0.0
C350 C 0.08171 0.49408 0.21356 0.0
C351 C 0.10876 0.50287 0.18898 0.0
C352 C 0.12177 0.50783 0.20646 0.0
C353 C 0.08834 0.49586 0.19237 0.0
H354 H 0.08984 0.49855 0.24676 0.0
H355 H 0.13743 0.51325 0.20386 0.0
O356 O 0.16017 0.52211 0.29719 0.0
O357 O 0.125 0.49233 0.27436 0.0
O358 O 0.12843 0.54155 0.26802 0.0
O359 O 0.16149 0.51032 0.24824 0.0
H360 H 0.17329 0.49679 0.32514 0.0
H361 H 0.1493 0.5598 0.31839 0.0
H362 H 0.17452 0.50709 0.36439 0.0
H363 H 0.15108 0.56906 0.35777 0.0
H364 H 0.07487 0.44385 0.29251 0.0
H365 H 0.14194 0.48065 0.30904 0.0
H366 H 0.08938 0.47042 0.26879 0.0
H367 H 0.12661 0.45382 0.33202 0.0
H368 H 0.099 0.51828 0.36433 0.0
H369 H 0.07324 0.56352 0.32529 0.0
H370 H 0.21845 0.46348 0.29395 0.0
H371 H 0.16998 0.41656 0.27204 0.0
H372 H 0.13054 0.55143 0.22811 0.0
H373 H 0.13105 0.5785 0.29438 0.0
H374 H 0.13512 0.58925 0.21774 0.0
H375 H 0.13583 0.61582 0.28287 0.0
H376 H 0.19336 0.51214 0.22223 0.0
H377 H 0.14062 0.47249 0.23807 0.0
H378 H 0.20204 0.48286 0.19324 0.0
H379 H 0.15022 0.44395 0.2089 0.0
H380 H 0.20208 0.5857 0.22977 0.0
H381 H 0.2088 0.59457 0.29858 0.0
H382 H 0.06631 0.4884 0.21715 0.0
H383 H 0.1146 0.50489 0.17307 0.0
Li384 Li 0.75662 0.62657 1.00027 0.0
Li385 Li 0.77262 0.65872 0.02192 0.0
Li386 Li 0.77987 0.65203 0.98207 0.0
Li387 Li 0.7948 0.62938 0.00706 0.0
C388 C 0.73475 0.66106 0.98938 0.0
N389 N 0.69667 0.66577 0.97299 0.0
C390 C 0.72102 0.67497 1.00069 0.0
C391 C 0.72917 0.64971 0.96965 0.0
C392 C 0.70183 0.67709 0.99215 0.0
C393 C 0.70984 0.65226 0.96165 0.0
C394 C 0.76723 0.62719 0.04899 0.0
C395 C 0.7782 0.62843 0.08556 0.0
N396 N 0.7584 0.6272 0.0922 0.0
C397 C 0.74701 0.62563 0.05617 0.0
C398 C 0.78298 0.62834 0.06379 0.0
C399 C 0.74285 0.62578 0.07807 0.0
C400 C 0.73512 0.58552 0.99017 0.0
N401 N 0.73295 0.60682 0.99834 0.0
C402 C 0.69768 0.59927 0.00615 0.0
C403 C 0.71468 0.61385 0.00627 0.0
C404 C 0.69943 0.57709 0.99794 0.0
C405 C 0.7185 0.57033 0.98977 0.0
H406 H 0.74988 0.58024 0.98427 0.0
H407 H 0.71335 0.63074 0.01308 0.0
C408 C 0.78189 0.6947 0.0544 0.0
N409 N 0.76724 0.68001 0.0459 0.0
C410 C 0.77756 0.70942 0.07243 0.0
C411 C 0.743 0.69412 0.07221 0.0
C412 C 0.74803 0.67964 0.05431 0.0
C413 C 0.75789 0.70922 0.08159 0.0
H414 H 0.79693 0.69508 0.04721 0.0
H415 H 0.73662 0.66791 0.0472 0.0
C416 C 0.78429 0.61116 0.9595 0.0
N417 N 0.79336 0.59496 0.91771 0.0
C418 C 0.80456 0.60935 0.95266 0.0
C419 C 0.76862 0.6043 0.9452 0.0
C420 C 0.80884 0.60126 0.93144 0.0
C421 C 0.77352 0.59627 0.92411 0.0
C422 C 0.81846 0.66779 0.0122 0.0
C423 C 0.8322 0.67695 0.99806 0.0
C424 C 0.82481 0.6647 0.03269 0.0
C425 C 0.85217 0.68254 1.00458 0.0
C426 C 0.84489 0.67049 0.03861 0.0
N427 N 0.85806 0.67919 0.02454 0.0
C428 C 0.77132 0.6788 0.9491 0.0
C429 C 0.80386 0.66362 0.94625 0.0
C430 C 0.77535 0.68955 0.93091 0.0
N431 N 0.78542 0.66595 0.95632 0.0
C432 C 0.80865 0.67434 0.92815 0.0
C433 C 0.79425 0.68747 0.92021 0.0
H434 H 0.75706 0.68113 0.95764 0.0
H435 H 0.81504 0.65374 0.95249 0.0
C436 C 0.81405 0.5959 0.02486 0.0
N437 N 0.81758 0.61256 0.01253 0.0
C438 C 0.83 0.58323 0.02999 0.0
C439 C 0.85291 0.60474 0.00923 0.0
C440 C 0.83649 0.61696 1.00445 0.0
C441 C 0.84982 0.58767 0.02228 0.0
H442 H 0.7988 0.59246 0.03075 0.0
H443 H 0.8389 0.63002 0.99436 0.0
O444 O 0.75347 0.65844 0.99766 0.0
O445 O 0.77158 0.62725 0.0276 0.0
O446 O 0.77981 0.61909 0.98022 0.0
O447 O 0.79894 0.66185 0.00596 0.0
H448 H 0.72514 0.68409 0.01586 0.0
H449 H 0.7397 0.63913 0.96061 0.0
H450 H 0.69104 0.68776 1.00076 0.0
H451 H 0.70533 0.64353 0.94642 0.0
H452 H 0.79024 0.6294 0.09717 0.0
H453 H 0.73463 0.62458 0.045 0.0
H454 H 0.79872 0.62898 0.05856 0.0
H455 H 0.72725 0.6248 0.08383 0.0
H456 H 0.68329 0.60537 0.01236 0.0
H457 H 0.72071 0.55338 0.98354 0.0
H458 H 0.78941 0.72099 0.07899 0.0
H459 H 0.7277 0.69321 0.07886 0.0
H460 H 0.81686 0.61438 0.96356 0.0
H461 H 0.75284 0.60498 0.95034 0.0
H462 H 0.82447 0.59998 0.92589 0.0
H463 H 0.76154 0.59099 0.91285 0.0
H464 H 0.82752 0.6798 0.98227 0.0
H465 H 0.81433 0.65793 0.04389 0.0
H466 H 0.86297 0.68957 0.99377 0.0
H467 H 0.85001 0.66807 0.0544 0.0
H468 H 0.76396 0.69987 0.92559 0.0
H469 H 0.82341 0.6723 0.92041 0.0
H470 H 0.82676 0.56996 0.03971 0.0
H471 H 0.86791 0.60889 1.00303 0.0
Li472 Li 0.86456 0.02569 0.28425 0.0
Li473 Li 0.89046 1.00527 0.29796 0.0
Li474 Li 0.89134 0.00789 0.26 0.0
Li475 Li 0.86447 0.98612 0.27685 0.0
C476 C 0.90016 0.05136 0.27558 0.0
N477 N 0.91138 0.08996 0.25871 0.0
C478 C 0.91444 0.06625 0.28604 0.0
C479 C 0.89165 0.05605 0.25646 0.0
C480 C 0.91988 0.0857 0.27728 0.0
C481 C 0.89752 0.07566 0.24821 0.0
C482 C 0.85739 0.01448 0.32484 0.0
C483 C 0.83909 0.01775 0.35861 0.0
N484 N 0.85001 0.03674 0.36481 0.0
C485 C 0.86842 0.03406 0.33154 0.0
C486 C 0.8426 1.00626 0.33847 0.0
C487 C 0.86447 0.04505 0.3518 0.0
C488 C 0.82688 0.04409 0.29376 0.0
N489 N 0.84681 0.04981 0.29034 0.0
C490 C 0.83959 0.08799 0.296 0.0
C491 C 0.85339 0.07131 0.29191 0.0
C492 C 0.81878 0.08261 0.29909 0.0
C493 C 0.81258 0.06023 0.29824 0.0
H494 H 0.82209 0.02688 0.29304 0.0
H495 H 0.86931 0.07575 0.29002 0.0
C496 C 0.92789 0.0129 0.31833 0.0
N497 N 0.90872 1.00426 0.32104 0.0
C498 C 0.94264 0.01165 0.33376 0.0
C499 C 0.91753 0.99301 0.35473 0.0
C500 C 0.90327 0.99451 0.33881 0.0
C501 C 0.93758 1.00149 0.35221 0.0
H502 H 0.93179 0.02042 0.30394 0.0
H503 H 0.88799 0.98748 0.3404 0.0
C504 C 0.84756 0.9973 0.24215 0.0
N505 N 0.8194 0.97387 0.21538 0.0
C506 C 0.85344 0.97912 0.22827 0.0
C507 C 0.82742 1.00368 0.24226 0.0
C508 C 0.83896 0.96745 0.21492 0.0
C509 C 0.8134 0.9916 0.22863 0.0
C510 C 0.9061 0.96807 0.28373 0.0
C511 C 0.92708 0.96886 0.27962 0.0
C512 C 0.8979 0.9544 0.29839 0.0
C513 C 0.93958 0.95608 0.29044 0.0
C514 C 0.91091 0.94185 0.30885 0.0
N515 N 0.9313 0.94296 0.30471 0.0
C516 C 0.9289 0.01485 0.23991 0.0
C517 C 0.9014 0.00891 0.21575 0.0
C518 C 0.94265 0.01728 0.22306 0.0
N519 N 0.90876 0.01058 0.23596 0.0
C520 C 0.91463 0.01107 0.19839 0.0
C521 C 0.93556 0.01529 0.20195 0.0
H522 H 0.93423 0.01647 0.25621 0.0
H523 H 0.88525 1.00613 0.2131 0.0
C524 C 0.82686 0.96134 0.27504 0.0
N525 N 0.84729 0.96016 0.27161 0.0
C526 C 0.81388 0.94295 0.26935 0.0
C527 C 0.84329 0.92237 0.25736 0.0
C528 C 0.85565 0.94121 0.26299 0.0
C529 C 0.8221 0.92316 0.26034 0.0
H530 H 0.82063 0.97671 0.28173 0.0
H531 H 0.8719 0.94086 0.26001 0.0
O532 O 0.89512 0.03205 0.28378 0.0
O533 O 0.86079 1.00338 0.30503 0.0
O534 O 0.86138 0.00854 0.25579 0.0
O535 O 0.89367 0.98097 0.27383 0.0
H536 H 0.92126 0.06279 0.30077 0.0
H537 H 0.8806 0.04476 0.24809 0.0
H538 H 0.93088 0.0974 0.28524 0.0
H539 H 0.89104 0.07951 0.23346 0.0
H540 H 0.82769 0.01157 0.36932 0.0
H541 H 0.87991 0.04076 0.32127 0.0
H542 H 0.8339 0.99116 0.33349 0.0
H543 H 0.87288 0.06021 0.35717 0.0
H544 H 0.84522 0.1049 0.29632 0.0
H545 H 0.79686 0.05514 0.30107 0.0
H546 H 0.95784 0.01861 0.33128 0.0
H547 H 0.91306 0.98481 0.36859 0.0
H548 H 0.86892 0.97381 0.22816 0.0
H549 H 0.82263 0.01777 0.25279 0.0
H550 H 0.84324 0.95322 0.20427 0.0
H551 H 0.79773 0.99631 0.22861 0.0
H552 H 0.93367 0.97935 0.26834 0.0
H553 H 0.88171 0.95378 0.30191 0.0
H554 H 0.95586 0.95662 0.28752 0.0
H555 H 0.9048 0.93132 0.32034 0.0
H556 H 0.95867 0.02043 0.22649 0.0
H557 H 0.90851 0.00983 0.18239 0.0
H558 H 0.79763 0.94417 0.27206 0.0
H559 H 0.85018 0.9075 0.25024 0.0
Li560 Li 0.27473 0.15498 0.52549 0.0
Li561 Li 0.26031 0.12303 0.50202 0.0
Li562 Li 0.29618 0.12642 0.50782 0.0
Li563 Li 0.28113 0.15039 0.48479 0.0
C564 C 0.28131 0.109 0.54191 0.0
N565 N 0.29724 0.07908 0.56606 0.0
C566 C 0.27597 0.0866 0.5376 0.0
C567 C 0.29458 0.11621 0.55863 0.0
C568 C 0.28422 0.07173 0.54997 0.0
C569 C 0.30252 0.10082 0.57061 0.0
C570 C 0.23479 0.1535 0.49811 0.0
C571 C 0.20628 0.14627 0.47439 0.0
N572 N 0.19335 0.14794 0.49161 0.0
C573 C 0.22125 0.15526 0.51558 0.0
C574 C 0.2273 0.14905 0.47734 0.0
C575 C 0.20034 0.15235 0.51196 0.0
C576 C 0.27437 0.19675 0.55083 0.0
N577 N 0.26983 0.17482 0.55036 0.0
C578 C 0.25848 0.17949 0.58684 0.0
C579 C 0.26191 0.16606 0.56778 0.0
C580 C 0.26323 0.20221 0.58802 0.0
C581 C 0.27118 0.21084 0.56962 0.0
H582 H 0.28071 0.20323 0.53669 0.0
H583 H 0.25829 0.14858 0.56686 0.0
C584 C 0.22648 0.10039 0.51854 0.0
N585 N 0.23666 0.10339 0.49998 0.0
C586 C 0.20918 0.08624 0.51843 0.0
C587 C 0.21297 0.07859 0.48003 0.0
C588 C 0.23029 0.09286 0.4809 0.0
C589 C 0.20214 0.07505 0.499 0.0
H590 H 0.23189 0.10899 0.5335 0.0
H591 H 0.23859 0.09565 0.46635 0.0
C592 C 0.31801 0.16907 0.51675 0.0
N593 N 0.35357 0.19011 0.53274 0.0
C594 C 0.33327 0.17582 0.50277 0.0
C595 C 0.32085 0.17312 0.53887 0.0
C596 C 0.35113 0.18639 0.51117 0.0
C597 C 0.33893 0.18376 0.54663 0.0
C598 C 0.29566 0.1122 0.46373 0.0
C599 C 0.31492 0.12287 0.46373 0.0
C600 C 0.29033 0.09613 0.44694 0.0
C601 C 0.32856 0.11729 0.44688 0.0
C602 C 0.30439 0.09101 0.43036 0.0
N603 N 0.32306 0.10162 0.43068 0.0
C604 C 0.31687 0.08699 0.50666 0.0
C605 C 0.33721 0.11817 0.52033 0.0
C606 C 0.33223 0.07302 0.51071 0.0
N607 N 0.31942 0.10912 0.51186 0.0
C608 C 0.35308 0.10488 0.52423 0.0
C609 C 0.35058 0.08199 0.51968 0.0
H610 H 0.30268 0.08015 0.49979 0.0
H611 H 0.33916 0.13561 0.52443 0.0
C612 C 0.29519 0.18722 0.46562 0.0
N613 N 0.28598 0.16698 0.46095 0.0
C614 C 0.30035 0.2003 0.44937 0.0
C615 C 0.28579 0.17185 0.42365 0.0
C616 C 0.28119 0.15911 0.44045 0.0
C617 C 0.29557 0.19282 0.42796 0.0
H618 H 0.2987 0.19318 0.48205 0.0
H619 H 0.27379 0.14297 0.43714 0.0
O620 O 0.27377 0.12375 0.52966 0.0
O621 O 0.25531 0.1555 0.50137 0.0
O622 O 0.30029 0.15891 0.50882 0.0
O623 O 0.28193 0.11747 0.47993 0.0
H624 H 0.26582 0.08072 0.52463 0.0
H625 H 0.2988 0.13348 0.56222 0.0
H626 H 0.28035 0.05433 0.54672 0.0
H627 H 0.31292 0.10615 0.5835 0.0
H628 H 0.20025 0.14268 0.45841 0.0
H629 H 0.22687 0.15856 0.53177 0.0
H630 H 0.23764 0.14752 0.46368 0.0
H631 H 0.18966 0.15353 0.52532 0.0
H632 H 0.25194 0.17216 0.60045 0.0
H633 H 0.27518 0.22821 0.56983 0.0
H634 H 0.20159 0.08388 0.5335 0.0
H635 H 0.20798 0.07065 0.46462 0.0
H636 H 0.33139 0.17291 0.48561 0.0
H637 H 0.30937 0.16791 0.54996 0.0
H638 H 0.36306 0.19165 0.50053 0.0
H639 H 0.34133 0.18692 0.56371 0.0
H640 H 0.31932 0.13526 0.47661 0.0
H641 H 0.27545 0.08773 0.44669 0.0
H642 H 0.34352 0.12543 0.4467 0.0
H643 H 0.30046 0.07862 0.41724 0.0
H644 H 0.3298 0.05542 0.50683 0.0
H645 H 0.36698 0.1124 0.5313 0.0
H646 H 0.30823 0.21604 0.45366 0.0
H647 H 0.28146 0.1654 0.40754 0.0
Li648 Li 0.38918 0.50491 0.79718 0.0
Li649 Li 0.36522 0.52716 0.78303 0.0
Li650 Li 0.36327 0.48577 0.77358 0.0
Li651 Li 0.39097 0.5105 0.75992 0.0
C652 C 0.35609 0.49774 0.82209 0.0
N653 N 0.3499 0.48621 0.86306 0.0
C654 C 0.36071 0.51293 0.83985 0.0
C655 C 0.34828 0.47669 0.82517 0.0
C656 C 0.35751 0.50677 0.86043 0.0
C657 C 0.34526 0.47118 0.84601 0.0
C658 C 0.39533 0.55453 0.79216 0.0
C659 C 0.3925 0.59239 0.7859 0.0
N660 N 0.39429 0.59864 0.80727 0.0
C661 C 0.39714 0.56134 0.81407 0.0
C662 C 0.39302 0.57018 0.77794 0.0
C663 C 0.39661 0.58371 0.82139 0.0
C664 C 0.42496 0.51375 0.8204 0.0
N665 N 0.40718 0.50147 0.82035 0.0
C666 C 0.41782 0.48463 0.8506 0.0
C667 C 0.40357 0.48676 0.83483 0.0
C668 C 0.43619 0.49732 0.85111 0.0
C669 C 0.43972 0.51195 0.83568 0.0
H670 H 0.42782 0.5248 0.80833 0.0
H671 H 0.38989 0.47629 0.83391 0.0
C672 C 0.33964 0.55927 0.77097 0.0
N673 N 0.34847 0.55211 0.78812 0.0
C674 C 0.32775 0.5777 0.7736 0.0
C675 C 0.33388 0.58094 0.81163 0.0
C676 C 0.3457 0.56244 0.80824 0.0
C677 C 0.32478 0.58885 0.79415 0.0
H678 H 0.34175 0.55062 0.7552 0.0
H679 H 0.35283 0.55649 0.82164 0.0
C680 C 0.40678 0.46943 0.77934 0.0
N681 N 0.43534 0.44461 0.79591 0.0
C682 C 0.42754 0.47455 0.77666 0.0
C683 C 0.4005 0.45162 0.7903 0.0
C684 C 0.44176 0.46183 0.78521 0.0
C685 C 0.4152 0.43927 0.79857 0.0
C686 C 0.36106 0.50941 0.73277 0.0
C687 C 0.35548 0.49004 0.71985 0.0
C688 C 0.36719 0.52823 0.72323 0.0
C689 C 0.3563 0.48976 0.69759 0.0
C690 C 0.36785 0.52728 0.70091 0.0
N691 N 0.36244 0.50822 0.68866 0.0
C692 C 0.32561 0.46211 0.77027 0.0
C693 C 0.3537 0.44177 0.75644 0.0
C694 C 0.31217 0.44425 0.76423 0.0
N695 N 0.34591 0.46053 0.76633 0.0
C696 C 0.3408 0.4235 0.75009 0.0
C697 C 0.31969 0.42462 0.75388 0.0
H698 H 0.31988 0.47732 0.77805 0.0
H699 H 0.36989 0.44114 0.75317 0.0
C700 C 0.42102 0.5315 0.73541 0.0
N701 N 0.40895 0.51299 0.7362 0.0
C702 C 0.43412 0.53354 0.71794 0.0
C703 C 0.42236 0.49727 0.7026 0.0
C704 C 0.40954 0.4959 0.72042 0.0
C705 C 0.43486 0.51631 0.70119 0.0
H706 H 0.42051 0.54467 0.74836 0.0
H707 H 0.39999 0.48123 0.72168 0.0
O708 O 0.35885 0.5035 0.8018 0.0
O709 O 0.39542 0.53264 0.78472 0.0
O710 O 0.39265 0.48209 0.77167 0.0
O711 O 0.36076 0.50987 0.75461 0.0
H712 H 0.36706 0.52914 0.83781 0.0
H713 H 0.34469 0.46468 0.81165 0.0
H714 H 0.36115 0.51832 0.87431 0.0
H715 H 0.33926 0.45494 0.84863 0.0
H716 H 0.39058 0.60465 0.77508 0.0
H717 H 0.39869 0.54949 0.82537 0.0
H718 H 0.39133 0.56522 0.76098 0.0
H719 H 0.39792 0.58919 0.83831 0.0
H720 H 0.41473 0.47281 0.86195 0.0
H721 H 0.4537 0.52202 0.8355 0.0
H722 H 0.3207 0.58294 0.75972 0.0
H723 H 0.33211 0.58911 0.82773 0.0
H724 H 0.43259 0.48837 0.76829 0.0
H725 H 0.38446 0.44761 0.79268 0.0
H726 H 0.45789 0.46567 0.78341 0.0
H727 H 0.41058 0.42553 0.80722 0.0
H728 H 0.35066 0.47533 0.72689 0.0
H729 H 0.37174 0.54332 0.73294 0.0
H730 H 0.35209 0.47485 0.68741 0.0
H731 H 0.37274 0.54166 0.69333 0.0
H732 H 0.29608 0.44578 0.76779 0.0
H733 H 0.34725 0.40884 0.74192 0.0
H734 H 0.44338 0.54857 0.71744 0.0
H735 H 0.42269 0.48345 0.69023 0.0
Li736 Li 0.77267 0.39852 0.52258 0.0
Li737 Li 0.75623 0.37571 0.54822 0.0
Li738 Li 0.75157 0.36679 0.50864 0.0
Li739 Li 0.73448 0.39814 0.52806 0.0
C740 C 0.79724 0.36455 0.52241 0.0
N741 N 0.8387 0.36021 0.51623 0.0
C742 C 0.80914 0.35856 0.53882 0.0
C743 C 0.80643 0.36806 0.50275 0.0
C744 C 0.83007 0.35651 0.53541 0.0
C745 C 0.8274 0.36587 0.49997 0.0
C746 C 0.75706 0.4194 0.56873 0.0
C747 C 0.73981 0.43558 0.60052 0.0
N748 N 0.75814 0.44241 0.60921 0.0
C749 C 0.77569 0.4269 0.57785 0.0
C750 C 0.73894 0.42404 0.58004 0.0
C751 C 0.77593 0.43837 0.59838 0.0
C752 C 0.7947 0.43046 0.5017 0.0
N753 N 0.79583 0.41717 0.51749 0.0
C754 C 0.83001 0.43037 0.52507 0.0
C755 C 0.81291 0.41711 0.52934 0.0
C756 C 0.82942 0.44418 0.5087 0.0
C757 C 0.81135 0.44419 0.49706 0.0
H758 H 0.78082 0.43042 0.49274 0.0
H759 H 0.81337 0.40654 0.54196 0.0
C760 C 0.74879 0.34547 0.57899 0.0
N761 N 0.76045 0.3633 0.57435 0.0
C762 C 0.75281 0.33508 0.59704 0.0
C763 C 0.78108 0.36119 0.60496 0.0
C764 C 0.77633 0.37127 0.58693 0.0
C765 C 0.7693 0.34278 0.61013 0.0
H766 H 0.73673 0.33889 0.56836 0.0
H767 H 0.78587 0.38489 0.5825 0.0
C768 C 0.74586 0.39415 0.47982 0.0
N769 N 0.73566 0.38646 0.43708 0.0
C770 C 0.72548 0.39387 0.47379 0.0
C771 C 0.76107 0.39077 0.4641 0.0
C772 C 0.72063 0.38991 0.45211 0.0
C773 C 0.7556 0.38683 0.44258 0.0
C774 C 0.71217 0.36207 0.54161 0.0
C775 C 0.69721 0.34867 0.53044 0.0
C776 C 0.70821 0.37111 0.56262 0.0
C777 C 0.6784 0.34479 0.5404 0.0
C778 C 0.68922 0.36684 0.57204 0.0
N779 N 0.67482 0.35391 0.56081 0.0
C780 C 0.76527 0.33164 0.47944 0.0
C781 C 0.73055 0.3392 0.47592 0.0
C782 C 0.76403 0.31528 0.46209 0.0
N783 N 0.74878 0.34346 0.48577 0.0
C784 C 0.72855 0.32282 0.4586 0.0
C785 C 0.74552 0.3108 0.45135 0.0
H786 H 0.77946 0.33491 0.48777 0.0
H787 H 0.71763 0.34877 0.48129 0.0
C788 C 0.71634 0.43875 0.53308 0.0
N789 N 0.7118 0.41681 0.5291 0.0
C790 C 0.70099 0.45384 0.53357 0.0
C791 C 0.6765 0.42352 0.52557 0.0
C792 C 0.69235 0.40901 0.52521 0.0
C793 C 0.68069 0.44631 0.52983 0.0
H794 H 0.73198 0.44454 0.53577 0.0
H795 H 0.68911 0.39157 0.52158 0.0
O796 O 0.77673 0.36686 0.52555 0.0
O797 O 0.75654 0.4083 0.54855 0.0
O798 O 0.75086 0.39761 0.501 0.0
O799 O 0.73059 0.36623 0.53199 0.0
H800 H 0.8023 0.35542 0.55401 0.0
H801 H 0.79747 0.37262 0.48986 0.0
H802 H 0.83945 0.35196 0.54801 0.0
H803 H 0.8347 0.36871 0.48489 0.0
H804 H 0.72591 0.4392 0.60946 0.0
H805 H 0.78984 0.42376 0.56924 0.0
H806 H 0.72434 0.419 0.57303 0.0
H807 H 0.79027 0.44408 0.60569 0.0
H808 H 0.84362 0.42952 0.53432 0.0
H809 H 0.80996 0.45487 0.48462 0.0
H810 H 0.74359 0.32067 0.60025 0.0
H811 H 0.79396 0.36759 0.61461 0.0
H812 H 0.71351 0.39641 0.48573 0.0
H813 H 0.77693 0.39117 0.46844 0.0
H814 H 0.7049 0.38949 0.44723 0.0
H815 H 0.76722 0.38407 0.43026 0.0
H816 H 0.70005 0.34139 0.51422 0.0
H817 H 0.71977 0.38104 0.57166 0.0
H818 H 0.66665 0.33454 0.5319 0.0
H819 H 0.68597 0.37375 0.5883 0.0
H820 H 0.77739 0.30617 0.45718 0.0
H821 H 0.71405 0.32 0.45062 0.0
H822 H 0.70505 0.47123 0.53659 0.0
H823 H 0.66109 0.4169 0.52277 0.0
Li824 Li 0.65625 0.9959 0.77226 0.0
Li825 Li 0.63127 0.0214 0.78961 0.0
Li826 Li 0.63166 0.00979 0.74963 0.0
Li827 Li 0.65837 0.03586 0.76616 0.0
C828 C 0.62308 0.97064 0.77857 0.0
N829 N 0.61784 0.92801 0.78868 0.0
C830 C 0.61588 0.96664 0.7989 0.0
C831 C 0.62743 0.95298 0.76331 0.0
C832 C 0.61336 0.94495 0.80371 0.0
C833 C 0.62474 0.93155 0.76876 0.0
C834 C 0.66849 0.03167 0.81232 0.0
C835 C 0.67613 0.06382 0.83724 0.0
N836 N 0.68343 0.05078 0.8512 0.0
C837 C 0.67628 0.01862 0.82682 0.0
C838 C 0.66858 0.05448 0.81748 0.0
C839 C 0.68367 0.02857 0.84643 0.0
C840 C 0.68769 0.96679 0.76172 0.0
N841 N 0.6727 0.97191 0.77641 0.0
C842 C 0.6825 0.94377 0.79709 0.0
C843 C 0.67001 0.96093 0.79396 0.0
C844 C 0.69821 0.93826 0.78227 0.0
C845 C 0.70075 0.95 0.7644 0.0
H846 H 0.68967 0.97595 0.74805 0.0
H847 H 0.65832 0.96567 0.80569 0.0
C848 C 0.59628 0.0377 0.81136 0.0
N849 N 0.61437 0.02863 0.81426 0.0
C850 C 0.58342 0.04355 0.82883 0.0
C851 C 0.60782 0.03021 0.85197 0.0
C852 C 0.62021 0.02462 0.83404 0.0
C853 C 0.58913 0.03986 0.84952 0.0
H854 H 0.59182 0.04036 0.79541 0.0
H855 H 0.63439 0.01691 0.83591 0.0
C856 C 0.66383 1.00607 0.72347 0.0
N857 N 0.66704 0.99974 0.67934 0.0
C858 C 0.6691 0.0238 0.71201 0.0
C859 C 0.66037 0.9851 0.71255 0.0
C860 C 0.67062 0.02026 0.68968 0.0
C861 C 0.662 0.98225 0.69022 0.0
C862 C 0.62277 0.06083 0.76609 0.0
C863 C 0.61553 0.06854 0.74769 0.0
C864 C 0.62402 0.07494 0.78518 0.0
C865 C 0.60995 0.09036 0.74861 0.0
C866 C 0.6183 0.09665 0.78545 0.0
N867 N 0.61146 0.10385 0.76731 0.0
C868 C 0.60052 0.98508 0.72616 0.0
C869 C 0.61553 0.01368 0.70796 0.0
C870 C 0.58723 0.97887 0.70923 0.0
N871 N 0.61433 1.00219 0.72527 0.0
C872 C 0.60254 0.008 0.69061 0.0
C873 C 0.58803 0.99044 0.69114 0.0
H874 H 0.59965 0.97631 0.74014 0.0
H875 H 0.62643 0.0274 0.70767 0.0
C876 C 0.69657 0.05756 0.77098 0.0
N877 N 0.6775 0.06009 0.76384 0.0
C878 C 0.71131 0.07481 0.77148 0.0
C879 C 0.68668 0.09684 0.75681 0.0
C880 C 0.67247 0.07911 0.75644 0.0
C881 C 0.70634 0.0949 0.76462 0.0
H882 H 0.70019 0.04224 0.77672 0.0
H883 H 0.65743 0.08068 0.75039 0.0
O884 O 0.62577 0.99175 0.77362 0.0
O885 O 0.6612 0.02215 0.79305 0.0
O886 O 0.66207 0.00924 0.74529 0.0
O887 O 0.62831 0.03951 0.76543 0.0
H888 H 0.61235 0.98012 0.81085 0.0
H889 H 0.63297 0.95582 0.7475 0.0
H890 H 0.60788 0.9416 0.81941 0.0
H891 H 0.62817 0.91772 0.75716 0.0
H892 H 0.67625 0.08144 0.84144 0.0
H893 H 0.67649 1.00097 0.82303 0.0
H894 H 0.66308 0.0649 0.80629 0.0
H895 H 0.68962 0.01865 0.85786 0.0
H896 H 0.68025 0.93529 0.81121 0.0
H897 H 0.71266 0.94617 0.75259 0.0
H898 H 0.56897 0.05049 0.82607 0.0
H899 H 0.61291 0.02712 0.86759 0.0
H900 H 0.67184 0.04014 0.72024 0.0
H901 H 0.65636 0.9712 0.72123 0.0
H902 H 0.67459 0.03384 0.68058 0.0
H903 H 0.65925 0.96613 0.68153 0.0
H904 H 0.6143 0.05782 0.73282 0.0
H905 H 0.62917 0.06918 0.79968 0.0
H906 H 0.60442 0.09657 0.73445 0.0
H907 H 0.61923 0.10774 0.80011 0.0
H908 H 0.57647 0.9651 0.71031 0.0
H909 H 0.60353 0.01762 0.67717 0.0
H910 H 0.72624 0.07263 0.7777 0.0
H911 H 0.68234 0.1119 0.75097 0.0
Li912 Li 0.01982 0.24094 0.89517 0.0
Li913 Li 1.00119 0.25768 0.92768 0.0
Li914 Li 1.00497 0.21749 0.92237 0.0
Li915 Li 0.98286 0.23497 0.90057 0.0
C916 C 0.0387 0.23512 0.94119 0.0
N917 N 0.06125 0.21959 0.97249 0.0
C918 C 0.03515 0.24232 0.9628 0.0
C919 C 0.05372 0.22 0.93551 0.0
C920 C 0.04674 0.23431 0.97838 0.0
C921 C 0.06494 0.21234 0.95157 0.0
C922 C 0.99844 0.28492 0.89869 0.0
C923 C 0.98123 0.31881 0.90702 0.0
N924 N 0.99903 0.33031 0.90386 0.0
C925 C 0.01654 0.29705 0.8954 0.0
C926 C 0.9806 0.29584 0.90443 0.0
C927 C 0.01653 0.32 0.89813 0.0
C928 C 0.03708 0.24843 0.85507 0.0
N929 N 0.04149 0.24545 0.87556 0.0
C930 C 0.07717 0.24982 0.86828 0.0
C931 C 0.06102 0.24628 0.88242 0.0
C932 C 0.07314 0.25279 0.84695 0.0
C933 C 0.05277 0.25215 0.84041 0.0
H934 H 0.02137 0.24806 0.85019 0.0
H935 H 0.06407 0.24446 0.89893 0.0
C936 C 0.98547 0.28951 0.96021 0.0
N937 N 1.00198 0.28356 0.94791 0.0
C938 C 0.9863 0.30895 0.97428 0.0
C939 C 0.0212 0.31552 0.96301 0.0
C940 C 0.0197 0.29598 0.94922 0.0
C941 C 1.00431 0.32237 0.97568 0.0
H942 H 0.97159 0.27932 0.95895 0.0
H943 H 0.03265 0.29075 0.93935 0.0
C944 C 0.9924 0.19797 0.87749 0.0
N945 N 0.96855 0.16921 0.85036 0.0
C946 C 0.9818 0.18015 0.88528 0.0
C947 C 0.99096 0.20111 0.8559 0.0
C948 C 0.96983 0.16578 0.87129 0.0
C949 C 0.97877 0.18643 0.84245 0.0
C950 C 0.96067 0.22834 0.93538 0.0
C951 C 0.95477 0.20714 0.93994 0.0
C952 C 0.94592 0.24383 0.93408 0.0
C953 C 0.9341 0.20173 0.94297 0.0
C954 C 0.92541 0.23776 0.93717 0.0
N955 N 0.91998 0.21701 0.94151 0.0
C956 C 0.00746 0.19365 0.95809 0.0
C957 C 0.02108 0.17587 0.9258 0.0
C958 C 0.01444 0.17736 0.9696 0.0
N959 N 0.01112 0.19277 0.93666 0.0
C960 C 0.02819 0.15912 0.93667 0.0
C961 C 0.02521 0.15995 0.95895 0.0
H962 H 0.99971 0.20742 0.96633 0.0
H963 H 0.02412 0.17583 0.90882 0.0
C964 C 0.95707 0.24592 0.86867 0.0
N965 N 0.95826 0.2317 0.88367 0.0
C966 C 0.94085 0.24406 0.85445 0.0
C967 C 0.92697 0.21313 0.87145 0.0
C968 C 0.94364 0.21541 0.8852 0.0
C969 C 0.92555 0.22744 0.85565 0.0
H970 H 0.96899 0.25849 0.86742 0.0
H971 H 0.94508 0.20382 0.89672 0.0
O972 O 0.02704 0.2422 0.92574 0.0
O973 O 0.99824 0.26246 0.89671 0.0
O974 O 1.00387 0.21244 0.89103 0.0
O975 O 0.98083 0.23399 0.93257 0.0
H976 H 0.02338 0.25373 0.96755 0.0
H977 H 0.05638 0.21387 0.9189 0.0
H978 H 0.0441 0.23969 0.99516 0.0
H979 H 0.07649 0.2005 0.94741 0.0
H980 H 0.96758 0.32749 0.91159 0.0
H981 H 0.0305 0.28883 0.89105 0.0
H982 H 0.96648 0.28665 0.90702 0.0
H983 H 0.03045 0.32962 0.89577 0.0
H984 H 0.09262 0.25064 0.8741 0.0
H985 H 0.049 0.25428 0.8241 0.0
H986 H 0.97283 0.31367 0.98354 0.0
H987 H 0.03547 0.32513 0.96375 0.0
H988 H 0.98259 0.1776 0.90199 0.0
H989 H 0.99898 0.21488 0.84966 0.0
H990 H 0.96146 0.15198 0.87711 0.0
H991 H 0.97739 0.18874 0.82574 0.0
H992 H 0.96599 0.19496 0.94099 0.0
H993 H 0.95023 0.26028 0.93049 0.0
H994 H 0.92929 0.18536 0.94643 0.0
H995 H 0.91381 0.24952 0.93607 0.0
H996 H 0.01158 0.1785 0.98671 0.0
H997 H 0.03657 0.14611 0.92788 0.0
H998 H 0.94029 0.25555 0.84261 0.0
H999 H 0.91566 0.19989 0.87272 0.0
Li1000 Li 0.51913 0.73819 0.39216 0.0
Li1001 Li 0.50097 0.75424 0.42415 0.0
Li1002 Li 0.50437 0.71422 0.41671 0.0
Li1003 Li 0.48189 0.7339 0.3952 0.0
C1004 C 0.53782 0.72959 0.43708 0.0
N1005 N 0.55997 0.71191 0.46741 0.0
C1006 C 0.53626 0.73783 0.45871 0.0
C1007 C 0.55067 0.71234 0.43091 0.0
C1008 C 0.5476 0.7287 0.47378 0.0
C1009 C 0.56171 0.70361 0.44648 0.0
C1010 C 0.49971 0.78355 0.39724 0.0
C1011 C 0.48425 0.81785 0.40916 0.0
N1012 N 0.50226 0.82885 0.40571 0.0
C1013 C 0.51805 0.79519 0.3938 0.0
C1014 C 0.48264 0.79496 0.40495 0.0
C1015 C 0.51903 0.81809 0.39816 0.0
C1016 C 0.53738 0.75133 0.35423 0.0
N1017 N 0.5412 0.7431 0.37287 0.0
C1018 C 0.57673 0.74219 0.36422 0.0
C1019 C 0.5604 0.73861 0.3781 0.0
C1020 C 0.57336 0.75089 0.34488 0.0
C1021 C 0.5533 0.75543 0.33997 0.0
H1022 H 0.52195 0.75492 0.35058 0.0
H1023 H 0.56308 0.73228 0.39306 0.0
C1024 C 0.48525 0.78453 0.45814 0.0
N1025 N 0.50177 0.77908 0.44564 0.0
C1026 C 0.486 0.80359 0.47272 0.0
C1027 C 0.52086 0.81072 0.4616 0.0
C1028 C 0.51944 0.79155 0.4473 0.0
C1029 C 0.50393 0.81713 0.47442 0.0
H1030 H 0.47138 0.77432 0.45651 0.0
H1031 H 0.53239 0.78673 0.43725 0.0
C1032 C 0.50946 0.70397 0.36569 0.0
N1033 N 0.52669 0.69187 0.32588 0.0
C1034 C 0.49986 0.70856 0.34716 0.0
C1035 C 0.52781 0.69317 0.36397 0.0
C1036 C 0.5088 0.7023 0.32718 0.0
C1037 C 0.53628 0.68722 0.3437 0.0
C1038 C 0.45973 0.72433 0.42805 0.0
C1039 C 0.45396 0.70216 0.42858 0.0
C1040 C 0.44479 0.73986 0.42816 0.0
C1041 C 0.43326 0.69585 0.42911 0.0
C1042 C 0.42426 0.73288 0.42863 0.0
N1043 N 0.41897 0.71121 0.42909 0.0
C1044 C 0.50719 0.68939 0.45163 0.0
C1045 C 0.51384 0.6693 0.41791 0.0
C1046 C 0.51283 0.67181 0.46222 0.0
N1047 N 0.50832 0.68805 0.4299 0.0
C1048 C 0.51938 0.6512 0.42785 0.0
C1049 C 0.51935 0.65251 0.45031 0.0
H1050 H 0.50259 0.70444 0.46076 0.0
H1051 H 0.51446 0.66859 0.40066 0.0
C1052 C 0.45083 0.74997 0.37111 0.0
N1053 N 0.45716 0.73171 0.37898 0.0
C1054 C 0.43344 0.74886 0.35852 0.0
C1055 C 0.42941 0.71006 0.36207 0.0
C1056 C 0.4469 0.71194 0.37466 0.0
C1057 C 0.42246 0.72869 0.35376 0.0
H1058 H 0.4595 0.76537 0.37424 0.0
H1059 H 0.45244 0.69757 0.38081 0.0
O1060 O 0.52658 0.73808 0.42211 0.0
O1061 O 0.49858 0.76107 0.39361 0.0
O1062 O 0.50125 0.71052 0.38542 0.0
O1063 O 0.47989 0.73077 0.42709 0.0
H1064 H 0.52623 0.75094 0.46388 0.0
H1065 H 0.55172 0.70536 0.41435 0.0
H1066 H 0.54648 0.73488 0.49057 0.0
H1067 H 0.57154 0.69013 0.44194 0.0
H1068 H 0.47121 0.82687 0.41529 0.0
H1069 H 0.53149 0.78666 0.38812 0.0
H1070 H 0.46841 0.7862 0.40805 0.0
H1071 H 0.53315 0.8273 0.39567 0.0
H1072 H 0.59181 0.73805 0.3686 0.0
H1073 H 0.54992 0.76248 0.32547 0.0
H1074 H 0.4725 0.80799 0.48209 0.0
H1075 H 0.53507 0.82045 0.46256 0.0
H1076 H 0.48576 0.71708 0.34818 0.0
H1077 H 0.53564 0.68982 0.37815 0.0
H1078 H 0.50157 0.70582 0.31271 0.0
H1079 H 0.55055 0.67902 0.34215 0.0
H1080 H 0.46533 0.68992 0.42841 0.0
H1081 H 0.449 0.75706 0.42754 0.0
H1082 H 0.42857 0.67873 0.42944 0.0
H1083 H 0.41253 0.74469 0.42856 0.0
H1084 H 0.51223 0.67336 0.47956 0.0
H1085 H 0.52429 0.63662 0.41808 0.0
H1086 H 0.42897 0.76357 0.35211 0.0
H1087 H 0.42142 0.69419 0.35893 0.0
Li1088 Li 0.02028 0.80644 0.62959 0.0
Li1089 Li 0.99707 0.78761 0.65416 0.0
Li1090 Li 0.03361 0.78088 0.65199 0.0
Li1091 Li 0.01089 0.76689 0.62265 0.0
C1092 C 0.02317 0.8305 0.66812 0.0
N1093 N 0.02813 0.87516 0.68041 0.0
C1094 C 0.00672 0.84238 0.67676 0.0
C1095 C 0.04215 0.84131 0.66578 0.0
C1096 C 0.00954 0.86495 0.68289 0.0
C1097 C 0.04434 0.8639 0.67205 0.0
C1098 C 0.98189 0.7863 0.60563 0.0
C1099 C 0.95697 0.76252 0.5857 0.0
N1100 N 0.96157 0.77279 0.56802 0.0
C1101 C 0.98632 0.79669 0.5873 0.0
C1102 C 0.96704 0.76915 0.60489 0.0
C1103 C 0.97588 0.7896 0.56843 0.0
C1104 C 0.04114 0.83034 0.59963 0.0
N1105 N 0.02705 0.83238 0.61578 0.0
C1106 C 0.02379 0.87033 0.61125 0.0
C1107 C 0.01811 0.85179 0.62147 0.0
C1108 C 0.03841 0.8688 0.5945 0.0
C1109 C 0.04698 0.8483 0.5887 0.0
H1110 H 0.04769 0.81462 0.59499 0.0
H1111 H 0.00658 0.85296 0.63398 0.0
C1112 C 0.97934 0.79307 0.6954 0.0
N1113 N 0.97464 0.78973 0.67427 0.0
C1114 C 0.96404 0.79237 0.71108 0.0
C1115 C 0.93919 0.78531 0.68302 0.0
C1116 C 0.95502 0.78611 0.66785 0.0
C1117 C 0.94361 0.78828 0.70502 0.0
H1118 H 0.99511 0.79568 0.70006 0.0
H1119 H 0.95167 0.78342 0.65096 0.0
C1120 C 0.05759 0.77595 0.61819 0.0
N1121 N 0.09741 0.76327 0.61467 0.0
C1122 C 0.06181 0.7542 0.61091 0.0
C1123 C 0.0736 0.79129 0.62355 0.0
C1124 C 0.08206 0.7481 0.60926 0.0
C1125 C 0.09363 0.78454 0.62171 0.0
C1126 C 1.00059 0.74886 0.66763 0.0
C1127 C 0.00923 0.74938 0.68785 0.0
C1128 C 0.98129 0.73874 0.66385 0.0
C1129 C 0.99834 0.73981 0.70399 0.0
C1130 C 0.97087 0.72941 0.68043 0.0
N1131 N 0.97955 0.73014 0.69999 0.0
C1132 C 0.06602 0.78889 0.68168 0.0
C1133 C 0.06174 0.75234 0.66493 0.0
C1134 C 0.08215 0.78299 0.69366 0.0
N1135 N 0.05624 0.77359 0.66767 0.0
C1136 C 0.07777 0.74571 0.67654 0.0
C1137 C 0.08814 0.7611 0.69125 0.0
H1138 H 0.06109 0.80557 0.68384 0.0
H1139 H 0.05348 0.74048 0.65384 0.0
C1140 C 0.01146 0.74583 0.5799 0.0
N1141 N 0.00714 0.74291 0.60067 0.0
C1142 C 0.01037 0.72792 0.56396 0.0
C1143 C 1.00056 0.70441 0.59115 0.0
C1144 C 1.00177 0.72273 0.6065 0.0
C1145 C 1.00509 0.7068 0.56956 0.0
H1146 H 0.01618 0.76199 0.57579 0.0
H1147 H 0.99885 0.72076 0.62315 0.0
O1148 O 0.02071 0.8084 0.66205 0.0
O1149 O 0.99222 0.79273 0.62414 0.0
O1150 O 0.03786 0.78213 0.62041 0.0
O1151 O 0.01076 0.75866 0.65177 0.0
H1152 H 0.99189 0.83432 0.67858 0.0
H1153 H 0.055 0.8324 0.65897 0.0
H1154 H 0.99694 0.87437 0.68955 0.0
H1155 H 0.05891 0.8725 0.67023 0.0
H1156 H 0.94556 0.74915 0.58484 0.0
H1157 H 0.99778 0.80997 0.5876 0.0
H1158 H 0.96358 0.7608 0.61888 0.0
H1159 H 0.9792 0.79742 0.55409 0.0
H1160 H 0.01681 0.8857 0.61657 0.0
H1161 H 0.05782 0.8459 0.57555 0.0
H1162 H 0.96827 0.79448 0.72778 0.0
H1163 H 0.92367 0.78245 0.67756 0.0
H1164 H 0.0496 0.74209 0.6068 0.0
H1165 H 0.07056 0.80817 0.62924 0.0
H1166 H 0.08556 0.7313 0.60375 0.0
H1167 H 0.10618 0.7962 0.62592 0.0
H1168 H 0.02403 0.75734 0.69117 0.0
H1169 H 0.97425 0.73844 0.64839 0.0
H1170 H 1.0048 0.74019 0.71974 0.0
H1171 H 0.95586 0.7217 0.67778 0.0
H1172 H 0.08949 0.7953 0.70507 0.0
H1173 H 0.082 0.72873 0.67401 0.0
H1174 H 0.01421 0.73048 0.54757 0.0
H1175 H 0.99616 0.68851 0.59617 0.0
Li1176 Li 0.5199 0.30832 0.13136 0.0
Li1177 Li 0.49664 0.28839 0.15822 0.0
Li1178 Li 0.53368 0.28383 0.1548 0.0
Li1179 Li 0.51239 0.2682 0.12676 0.0
C1180 C 0.53261 0.32126 0.17874 0.0
N1181 N 0.56025 0.33889 0.20928 0.0
C1182 C 0.5299 0.31717 0.20006 0.0
C1183 C 0.54932 0.33437 0.17294 0.0
C1184 C 0.54407 0.32621 0.21526 0.0
C1185 C 0.56313 0.34315 0.18863 0.0
C1186 C 0.47977 0.28248 0.11151 0.0
C1187 C 0.45123 0.25805 0.10011 0.0
N1188 N 0.45536 0.26151 0.07944 0.0
C1189 C 0.48369 0.28585 0.09017 0.0
C1190 C 0.4634 0.2685 0.11657 0.0
C1191 C 0.47119 0.27507 0.07418 0.0
C1192 C 0.53164 0.32964 0.09582 0.0
N1193 N 0.52545 0.33357 0.1166 0.0
C1194 C 0.53056 0.37237 0.11557 0.0
C1195 C 0.52463 0.35441 0.12657 0.0
C1196 C 0.53738 0.36881 0.09413 0.0
C1197 C 0.53766 0.34705 0.08424 0.0
H1198 H 0.53229 0.31288 0.08834 0.0
H1199 H 0.5198 0.35707 0.14318 0.0
C1200 C 0.47643 0.28176 0.19698 0.0
N1201 N 0.47389 0.28942 0.17776 0.0
C1202 C 0.45999 0.28023 0.21128 0.0
C1203 C 0.43861 0.2947 0.18585 0.0
C1204 C 0.45552 0.29612 0.1721 0.0
C1205 C 0.44067 0.28646 0.20568 0.0
H1206 H 0.49113 0.2762 0.20092 0.0
H1207 H 0.4539 0.30213 0.15672 0.0
C1208 C 0.55832 0.28097 0.11889 0.0
N1209 N 0.59877 0.27368 0.10905 0.0
C1210 C 0.56541 0.2597 0.11752 0.0
C1211 C 0.57173 0.2985 0.11498 0.0
C1212 C 0.58594 0.25637 0.11262 0.0
C1213 C 0.59214 0.29449 0.1101 0.0
C1214 C 0.50801 0.2396 0.15772 0.0
C1215 C 0.52368 0.22506 0.15317 0.0
C1216 C 0.48866 0.23154 0.16346 0.0
C1217 C 0.51965 0.20259 0.15408 0.0
C1218 C 0.48524 0.20896 0.16422 0.0
N1219 N 0.50067 0.19507 0.15952 0.0
C1220 C 0.55316 0.26462 0.18671 0.0
C1221 C 0.57543 0.28826 0.16887 0.0
C1222 C 0.56911 0.2589 0.19899 0.0
N1223 N 0.55662 0.27868 0.17167 0.0
C1224 C 0.59188 0.28294 0.18074 0.0
C1225 C 0.58889 0.26781 0.19584 0.0
H1226 H 0.53797 0.25774 0.18916 0.0
H1227 H 0.57776 0.3 0.15743 0.0
C1228 C 0.52118 0.24366 0.08708 0.0
N1229 N 0.5089 0.24377 0.10478 0.0
C1230 C 0.52044 0.22571 0.07121 0.0
C1231 C 0.49397 0.20859 0.09171 0.0
C1232 C 0.49503 0.22698 0.10699 0.0
C1233 C 0.507 0.20768 0.07369 0.0
H1234 H 0.53177 0.25741 0.0854 0.0
H1235 H 0.48479 0.22774 0.12063 0.0
O1236 O 0.51922 0.31208 0.16352 0.0
O1237 O 0.49217 0.29239 0.12733 0.0
O1238 O 0.53826 0.28457 0.12359 0.0
O1239 O 0.51166 0.26167 0.157 0.0
H1240 H 0.51709 0.30698 0.20478 0.0
H1241 H 0.5518 0.33743 0.15645 0.0
H1242 H 0.54222 0.32309 0.2318 0.0
H1243 H 0.5762 0.35322 0.18435 0.0
H1244 H 0.43859 0.24709 0.10377 0.0
H1245 H 0.49636 0.29653 0.086 0.0
H1246 H 0.46034 0.26545 0.13297 0.0
H1247 H 0.4741 0.27744 0.05758 0.0
H1248 H 0.53022 0.38881 0.12393 0.0
H1249 H 0.54241 0.34345 0.06767 0.0
H1250 H 0.46224 0.27357 0.22626 0.0
H1251 H 0.42407 0.29995 0.18099 0.0
H1252 H 0.55517 0.24592 0.12013 0.0
H1253 H 0.56652 0.31509 0.11603 0.0
H1254 H 0.59166 0.24 0.11159 0.0
H1255 H 0.60273 0.30792 0.1072 0.0
H1256 H 0.53882 0.23106 0.14908 0.0
H1257 H 0.47632 0.24253 0.16698 0.0
H1258 H 0.53162 0.19114 0.15051 0.0
H1259 H 0.47031 0.20247 0.16847 0.0
H1260 H 0.56594 0.24767 0.21088 0.0
H1261 H 0.60683 0.29026 0.17776 0.0
H1262 H 0.53064 0.22566 0.05746 0.0
H1263 H 0.48304 0.19523 0.09393 0.0
H1264 H 0.24421 0.75146 0.81594 0.0
H1265 H 0.24214 0.77163 0.94408 0.0
H1266 H 0.20973 0.70944 0.855 0.0
H1267 H 0.25819 0.82184 0.9029 0.0
H1268 H 0.23663 0.7452 0.91225 0.0
H1269 H 0.25692 0.77352 0.84849 0.0
C1270 C 0.23987 0.74661 0.8315 0.0
C1271 C 0.22622 0.72867 0.83308 0.0
C1272 C 0.24154 0.76199 0.91028 0.0
C1273 C 0.24005 0.75382 0.87016 0.0
C1274 C 0.24455 0.77716 0.92843 0.0
C1275 C 0.25056 0.79914 0.9263 0.0
C1276 C 0.24475 0.76877 0.88984 0.0
C1277 C 0.25387 0.80509 0.90551 0.0
C1278 C 0.24688 0.75923 0.85 0.0
C1279 C 0.22051 0.72307 0.85339 0.0
N1280 N 0.25088 0.79003 0.88815 0.0
N1281 N 0.22735 0.73572 0.87124 0.0
H1282 H 0.97171 0.56481 0.41821 0.0
H1283 H 0.08982 0.54785 0.39089 0.0
H1284 H 0.01626 0.55849 0.46612 0.0
H1285 H 0.04366 0.54999 0.3433 0.0
H1286 H 0.06413 0.55599 0.41901 0.0
H1287 H 0.99892 0.56455 0.39098 0.0
C1288 C 0.98736 0.56375 0.42294 0.0
C1289 C 0.9919 0.56156 0.44424 0.0
C1290 C 0.05967 0.55483 0.40241 0.0
C1291 C 0.02306 0.5609 0.41335 0.0
C1292 C 0.0743 0.55003 0.38633 0.0
C1293 C 0.06891 0.54806 0.36463 0.0
C1294 C 0.03945 0.55767 0.39681 0.0
C1295 C 0.04862 0.55153 0.35974 0.0
C1296 C 1.00286 0.5635 0.40747 0.0
C1297 C 0.01231 0.5603 0.4498 0.0
N1298 N 0.03465 0.55602 0.37567 0.0
N1299 N 0.02717 0.55972 0.43438 0.0
H1300 H 0.83845 0.7856 0.83995 0.0
H1301 H 0.77001 0.69053 0.88591 0.0
H1302 H 0.78526 0.75459 0.80867 0.0
H1303 H 0.82908 0.71166 0.91134 0.0
H1304 H 0.77669 0.71242 0.8562 0.0
H1305 H 0.83745 0.75686 0.86441 0.0
C1306 C 0.82697 0.7723 0.83787 0.0
C1307 C 0.81188 0.77233 0.82244 0.0
C1308 C 0.78832 0.71215 0.86813 0.0
C1309 C 0.81018 0.73993 0.8505 0.0
C1310 C 0.78444 0.69974 0.88518 0.0
C1311 C 0.79893 0.6994 0.90122 0.0
C1312 C 0.80675 0.72465 0.86718 0.0
C1313 C 0.8175 0.71141 0.89928 0.0
C1314 C 0.82624 0.75605 0.85191 0.0
C1315 C 0.79709 0.75504 0.82048 0.0
N1316 N 0.82078 0.72377 0.88273 0.0
N1317 N 0.79642 0.73973 0.83453 0.0
H1318 H 1.00395 1.00319 0.47046 0.0
H1319 H 0.97733 0.99051 0.34562 0.0
H1320 H 0.04542 0.97827 0.42065 0.0
H1321 H 0.93347 0.00787 0.39599 0.0
H1322 H 1.00298 0.98763 0.3727 0.0
H1323 H 0.97831 1.00659 0.44332 0.0
C1324 C 0.00756 0.99841 0.45374 0.0
C1325 C 0.02668 0.9904 0.44766 0.0
C1326 C 0.98775 0.99206 0.37785 0.0
C1327 C 0.99768 0.99436 0.41654 0.0
C1328 C 0.97313 0.99384 0.36239 0.0
C1329 C 0.95323 0.9995 0.36855 0.0
C1330 C 0.9825 0.99608 0.39967 0.0
C1331 C 0.94856 1.00326 0.39052 0.0
C1332 C 0.993 1.00037 0.43827 0.0
C1333 C 0.03084 0.98465 0.42585 0.0
N1334 N 0.9631 1.00155 0.40527 0.0
N1335 N 0.01645 0.98673 0.41104 0.0
H1336 H 0.23604 0.24598 0.72016 0.0
H1337 H 0.24818 0.24368 0.59325 0.0
H1338 H 0.21824 0.29865 0.68574 0.0
H1339 H 0.27012 0.19372 0.62911 0.0
H1340 H 0.24004 0.26579 0.62698 0.0
H1341 H 0.25168 0.22833 0.68728 0.0
C1342 C 0.23577 0.25391 0.70563 0.0
C1343 C 0.22584 0.2736 0.70542 0.0
C1344 C 0.24679 0.25007 0.62746 0.0
C1345 C 0.24331 0.25356 0.66773 0.0
C1346 C 0.25152 0.23746 0.60819 0.0
C1347 C 0.25963 0.21665 0.6083 0.0
C1348 C 0.25013 0.24181 0.64701 0.0
C1349 C 0.26346 0.20942 0.6282 0.0
C1350 C 0.24461 0.24389 0.68688 0.0
C1351 C 0.22585 0.28345 0.68638 0.0
N1352 N 0.25855 0.22188 0.6467 0.0
N1353 N 0.23422 0.27318 0.66817 0.0
H1354 H 0.53764 0.54326 0.61821 0.0
H1355 H 0.4271 0.5034 0.65877 0.0
H1356 H 0.49077 0.51402 0.57578 0.0
H1357 H 0.47415 0.53339 0.70092 0.0
H1358 H 0.45019 0.50664 0.6282 0.0
H1359 H 0.51462 0.53942 0.64885 0.0
C1360 C 0.52246 0.53594 0.61547 0.0
C1361 C 0.51598 0.52887 0.59464 0.0
C1362 C 0.45546 0.51252 0.64413 0.0
C1363 C 0.48952 0.52453 0.62935 0.0
C1364 C 0.44233 0.51056 0.66161 0.0
C1365 C 0.44869 0.51814 0.68245 0.0
C1366 C 0.47514 0.52209 0.6475 0.0
C1367 C 0.46849 0.52758 0.68513 0.0
C1368 C 0.50931 0.53381 0.63287 0.0
C1369 C 0.49617 0.51972 0.5917 0.0
N1370 N 0.481 0.52927 0.66787 0.0
N1371 N 0.4836 0.51779 0.60889 0.0
H1372 H 0.76803 0.27656 0.72512 0.0
H1373 H 0.80702 0.33071 0.62084 0.0
H1374 H 0.82472 0.26087 0.69272 0.0
H1375 H 0.74391 0.32785 0.64096 0.0
H1376 H 0.81547 0.3099 0.65029 0.0
H1377 H 0.76055 0.30015 0.69746 0.0
C1378 C 0.7789 0.27818 0.71215 0.0
C1379 C 0.79693 0.26672 0.71103 0.0
C1380 C 0.79979 0.31389 0.64829 0.0
C1381 C 0.78871 0.29381 0.67959 0.0
C1382 C 0.79498 0.32588 0.63159 0.0
C1383 C 0.77472 0.331 0.62846 0.0
C1384 C 0.78428 0.30719 0.66213 0.0
C1385 C 0.75968 0.32409 0.64271 0.0
C1386 C 0.77467 0.29161 0.69643 0.0
C1387 C 0.81073 0.26959 0.69418 0.0
N1388 N 0.76477 0.31259 0.65895 0.0
N1389 N 0.80634 0.28285 0.67908 0.0
H1390 H 0.47777 0.96495 0.6176 0.0
H1391 H 0.59515 0.98939 0.64769 0.0
H1392 H 0.52514 0.9731 0.5706 0.0
H1393 H 0.5474 0.97833 0.6939 0.0
H1394 H 0.57038 0.98117 0.61895 0.0
H1395 H 0.50363 0.96662 0.64542 0.0
C1396 C 0.49372 0.96675 0.61319 0.0
C1397 C 0.49946 0.969 0.59195 0.0
C1398 C 0.56536 0.98039 0.63537 0.0
C1399 C 0.52914 0.97128 0.62355 0.0
C1400 C 0.57947 0.98524 0.65182 0.0
C1401 C 0.57339 0.98465 0.67332 0.0
C1402 C 0.54494 0.975 0.64041 0.0
C1403 C 0.5529 0.97879 0.6776 0.0
C1404 C 0.50847 0.96778 0.62901 0.0
C1405 C 0.52025 0.97121 0.58686 0.0
N1406 N 0.53945 0.97434 0.66135 0.0
N1407 N 0.53436 0.97257 0.60259 0.0
H1408 H 0.85428 0.22287 0.74087 0.0
H1409 H 0.88458 0.22039 0.8636 0.0
H1410 H 0.81056 0.23038 0.79275 0.0
H1411 H 0.92786 0.22848 0.8123 0.0
H1412 H 0.85684 0.21793 0.83765 0.0
H1413 H 0.88092 0.21827 0.76652 0.0
C1414 C 0.85033 0.22327 0.75771 0.0
C1415 C 0.83037 0.22722 0.76483 0.0
C1416 C 0.87243 0.22014 0.83209 0.0
C1417 C 0.86064 0.22207 0.79433 0.0
C1418 C 0.88825 0.22146 0.84686 0.0
C1419 C 0.90855 0.22486 0.84013 0.0
C1420 C 0.87696 0.22196 0.8104 0.0
C1421 C 0.91243 0.22623 0.81826 0.0
C1422 C 0.86549 0.22072 0.77235 0.0
C1423 C 0.82583 0.22732 0.78673 0.0
N1424 N 0.89682 0.2248 0.80423 0.0
N1425 N 0.84091 0.225 0.80079 0.0
H1426 H 0.479 0.92272 0.57404 0.0
H1427 H 0.52177 0.85676 0.46641 0.0
H1428 H 0.50666 0.95349 0.52183 0.0
H1429 H 0.48784 0.82573 0.51515 0.0
H1430 H 0.52151 0.89168 0.48931 0.0
H1431 H 0.48776 0.88657 0.55592 0.0
C1432 C 0.4875 0.92179 0.55905 0.0
C1433 C 0.49215 0.94087 0.54929 0.0
C1434 C 0.51426 0.87721 0.4951 0.0
C1435 C 0.50176 0.8999 0.52824 0.0
C1436 C 0.51448 0.8572 0.48206 0.0
C1437 C 0.50473 0.83823 0.48879 0.0
C1438 C 0.50418 0.87839 0.51508 0.0
C1439 C 0.49527 0.83997 0.50913 0.0
C1440 C 0.49228 0.90124 0.54859 0.0
C1441 C 0.50286 0.93901 0.52973 0.0
N1442 N 0.49514 0.85971 0.5215 0.0
N1443 N 0.50711 0.91887 0.51971 0.0
H1444 H 0.15441 0.30711 0.75405 0.0
H1445 H 0.10936 0.23224 0.84195 0.0
H1446 H 0.18488 0.25188 0.77297 0.0
H1447 H 0.07564 0.2825 0.81738 0.0
H1448 H 0.13751 0.23973 0.81745 0.0
H1449 H 0.1256 0.29896 0.77778 0.0
C1450 C 0.15492 0.29326 0.76327 0.0
C1451 C 0.17186 0.28011 0.7617 0.0
C1452 C 0.12393 0.24908 0.81736 0.0
C1453 C 0.13921 0.2706 0.78875 0.0
C1454 C 0.1079 0.2449 0.83143 0.0
C1455 C 0.09013 0.25679 0.83175 0.0
C1456 C 0.12227 0.26539 0.80356 0.0
C1457 C 0.08897 0.27278 0.81753 0.0
C1458 C 0.13854 0.28855 0.77672 0.0
C1459 C 0.17194 0.26225 0.77375 0.0
N1460 N 0.10485 0.27667 0.80409 0.0
N1461 N 0.15588 0.25804 0.78685 0.0
H1462 H 0.5688 0.5755 0.5425 0.0
H1463 H 0.50995 0.60837 0.44105 0.0
H1464 H 0.52229 0.53413 0.50914 0.0
H1465 H 0.54472 0.65462 0.4846 0.0
H1466 H 0.52019 0.5785 0.46082 0.0
H1467 H 0.56659 0.60178 0.51592 0.0
C1468 C 0.55866 0.57167 0.52908 0.0
C1469 C 0.54574 0.55277 0.52779 0.0
C1470 C 0.5257 0.59517 0.46594 0.0
C1471 C 0.54267 0.58272 0.49779 0.0
C1472 C 0.5199 0.6122 0.45464 0.0
C1473 C 0.52628 0.63404 0.46136 0.0
C1474 C 0.53812 0.59997 0.48398 0.0
C1475 C 0.53912 0.63807 0.47912 0.0
C1476 C 0.55718 0.58672 0.51411 0.0
C1477 C 0.53252 0.54857 0.51045 0.0
N1478 N 0.54455 0.62122 0.48985 0.0
N1479 N 0.53114 0.56355 0.49622 0.0
H1480 H 0.82851 0.76532 0.7705 0.0
H1481 H 0.94006 0.81372 0.74373 0.0
H1482 H 0.85907 0.81964 0.8081 0.0
H1483 H 0.90939 0.7604 0.7042 0.0
H1484 H 0.91251 0.81247 0.77017 0.0
H1485 H 0.86 0.759 0.74928 0.0
C1486 C 0.84216 0.77532 0.77474 0.0
C1487 C 0.84145 0.79284 0.79107 0.0
C1488 C 0.91184 0.80093 0.75578 0.0
C1489 C 0.87715 0.78641 0.76663 0.0
C1490 C 0.92765 0.80157 0.74067 0.0
C1491 C 0.92707 0.78724 0.72155 0.0
C1492 C 0.89517 0.78589 0.75185 0.0
C1493 C 0.91035 0.77208 0.71846 0.0
C1494 C 0.86002 0.77198 0.7625 0.0
C1495 C 0.85925 0.80582 0.79573 0.0
N1496 N 0.89504 0.77188 0.73337 0.0
N1497 N 0.8763 0.80254 0.78342 0.0
H1498 H 0.03527 0.98577 0.52978 0.0
H1499 H 0.07546 0.87932 0.57554 0.0
H1500 H 0.08344 0.94832 0.49882 0.0
H1501 H 0.01461 0.90268 0.58609 0.0
H1502 H 0.08342 0.90939 0.55383 0.0
H1503 H 0.03336 0.96119 0.55801 0.0
C1504 C 0.04585 0.97269 0.52937 0.0
C1505 C 0.05941 0.96885 0.51202 0.0
C1506 C 0.06841 0.90796 0.56112 0.0
C1507 C 0.05719 0.94052 0.5439 0.0
C1508 C 0.06373 0.89067 0.57339 0.0
C1509 C 0.04417 0.88809 0.58263 0.0
C1510 C 0.0536 0.92309 0.55831 0.0
C1511 C 0.02995 0.90392 0.57967 0.0
C1512 C 0.04464 0.95857 0.5453 0.0
C1513 C 0.07284 0.95175 0.51205 0.0
N1514 N 0.03494 0.92062 0.56777 0.0
N1515 N 0.07124 0.93796 0.52762 0.0
H1516 H 0.16157 0.6921 0.77288 0.0
H1517 H 0.12431 0.78338 0.70224 0.0
H1518 H 0.19464 0.75346 0.76723 0.0
H1519 H 0.08971 0.72318 0.71039 0.0
H1520 H 0.15089 0.77213 0.72482 0.0
H1521 H 0.13572 0.70236 0.74853 0.0
C1522 C 0.16335 0.70766 0.76627 0.0
C1523 C 0.1801 0.72196 0.77176 0.0
C1524 C 0.1375 0.76135 0.72163 0.0
C1525 C 0.1508 0.734 0.7443 0.0
C1526 C 0.12227 0.76782 0.70882 0.0
C1527 C 0.10472 0.75423 0.70442 0.0
C1528 C 0.13519 0.74114 0.73015 0.0
C1529 C 0.10308 0.73407 0.71311 0.0
C1530 C 0.14866 0.71358 0.7525 0.0
C1531 C 0.18184 0.74209 0.7632 0.0
N1532 N 0.11808 0.72817 0.72559 0.0
N1533 N 0.16734 0.74755 0.74987 0.0
H1534 H 0.9976 0.57277 0.51238 0.0
H1535 H 0.99032 0.70312 0.52855 0.0
H1536 H 0.97268 0.60911 0.46518 0.0
H1537 H 0.01881 0.6659 0.57318 0.0
H1538 H 0.98746 0.66983 0.50302 0.0
H1539 H 0.00979 0.60737 0.53249 0.0
C1540 C 0.99527 0.58817 0.50604 0.0
C1541 C 0.98432 0.58835 0.48722 0.0
C1542 C 0.99451 0.66901 0.51832 0.0
C1543 C 0.99741 0.62796 0.51029 0.0
C1544 C 0.99619 0.68802 0.53289 0.0
C1545 C 1.00453 0.68724 0.55319 0.0
C1546 C 1.00121 0.64906 0.52409 0.0
C1547 C 0.0118 0.66718 0.55795 0.0
C1548 C 1.00202 0.6079 0.51753 0.0
C1549 C 0.98128 0.60852 0.47961 0.0
N1550 N 0.00982 0.64891 0.54361 0.0
N1551 N 0.98752 0.62763 0.49135 0.0
H1552 H 0.7239 0.83268 0.2113 0.0
H1553 H 0.8272 0.88078 0.2683 0.0
H1554 H 0.75402 0.80091 0.2587 0.0
H1555 H 0.78652 0.92065 0.23797 0.0
H1556 H 0.8043 0.84863 0.25876 0.0
H1557 H 0.75083 0.8622 0.21438 0.0
C1558 C 0.73654 0.83175 0.22192 0.0
C1559 C 0.737 0.81456 0.23474 0.0
C1560 C 0.80044 0.86439 0.2541 0.0
C1561 C 0.76746 0.84799 0.23862 0.0
C1562 C 0.81353 0.88272 0.25948 0.0
C1563 C 0.80865 0.90343 0.25407 0.0
C1564 C 0.78245 0.86673 0.24303 0.0
C1565 C 0.79068 0.90503 0.24273 0.0
C1566 C 0.75172 0.84859 0.22386 0.0
C1567 C 0.75336 0.814 0.24856 0.0
N1568 N 0.77821 0.88692 0.23759 0.0
N1569 N 0.76793 0.83056 0.25023 0.0
H1570 H 0.76316 0.20854 0.31023 0.0
H1571 H 0.77903 0.081 0.28572 0.0
H1572 H 0.71302 0.1608 0.30122 0.0
H1573 H 0.82381 0.1246 0.32021 0.0
H1574 H 0.75506 0.11034 0.29 0.0
H1575 H 0.78624 0.17863 0.31317 0.0
C1576 C 0.757 0.19178 0.3093 0.0
C1577 C 0.73627 0.187 0.30534 0.0
C1578 C 0.77009 0.11341 0.29678 0.0
C1579 C 0.76245 0.1528 0.30804 0.0
C1580 C 0.78382 0.09658 0.29446 0.0
C1581 C 0.80364 0.10017 0.30255 0.0
C1582 C 0.77621 0.13419 0.30696 0.0
C1583 C 0.80892 0.12107 0.31325 0.0
C1584 C 0.77014 0.17473 0.31083 0.0
C1585 C 0.729 0.16502 0.3039 0.0
N1586 N 0.79537 0.13733 0.31496 0.0
N1587 N 0.74211 0.14869 0.30495 0.0
H1588 H 0.41886 0.0345 0.94866 0.0
H1589 H 0.36471 0.96462 0.03608 0.0
H1590 H 0.44481 0.02776 0.00975 0.0
H1591 H 0.33842 0.9718 0.97497 0.0
H1592 H 0.39431 0.98741 0.02666 0.0
H1593 H 0.38928 0.01111 0.95777 0.0
C1594 C 0.41827 0.02786 0.96393 0.0
C1595 C 0.43412 0.03273 0.97847 0.0
C1596 C 0.38205 0.98404 0.01533 0.0
C1597 C 0.40055 1.0064 0.9892 0.0
C1598 C 0.36518 0.97095 0.02066 0.0
C1599 C 0.34903 0.96631 0.00631 0.0
C1600 C 0.38283 0.99252 0.99546 0.0
C1601 C 0.35037 0.9752 0.98667 0.0
C1602 C 0.40145 0.01466 0.9692 0.0
C1603 C 0.43277 0.02419 0.9982 0.0
N1604 N 0.36697 0.98783 0.98181 0.0
N1605 N 0.41626 0.0114 1.00302 0.0
H1606 H 0.2647 0.31875 0.2673 0.0
H1607 H 0.2216 0.43425 0.31682 0.0
H1608 H 0.28305 0.35287 0.32803 0.0
H1609 H 0.20085 0.399 0.25723 0.0
H1610 H 0.24414 0.40456 0.32115 0.0
H1611 H 0.24108 0.34787 0.26316 0.0
C1612 C 0.26366 0.33244 0.27973 0.0
C1613 C 0.27568 0.33356 0.29801 0.0
C1614 C 0.23464 0.40327 0.30714 0.0
C1615 C 0.24887 0.36679 0.29356 0.0
C1616 C 0.22184 0.42029 0.30459 0.0
C1617 C 0.20936 0.41918 0.28658 0.0
C1618 C 0.23507 0.38495 0.29153 0.0
C1619 C 0.21006 0.40048 0.27146 0.0
C1620 C 0.25021 0.34899 0.27744 0.0
C1621 C 0.27384 0.35145 0.3138 0.0
N1622 N 0.22276 0.38415 0.27424 0.0
N1623 N 0.26072 0.36741 0.3112 0.0
H1624 H 0.08071 0.01714 0.51758 0.0
H1625 H 0.19499 0.03576 0.47377 0.0
H1626 H 0.10551 0.98025 0.46152 0.0
H1627 H 0.16692 0.07958 0.52332 0.0
H1628 H 0.16412 0.01187 0.47254 0.0
H1629 H 0.11426 0.03606 0.52417 0.0
C1630 C 0.09346 0.01261 0.50708 0.0
C1631 C 0.09057 0.99719 0.48906 0.0
C1632 C 0.16476 0.02666 0.48377 0.0
C1633 C 0.12865 0.01893 0.49601 0.0
C1634 C 0.18236 0.04044 0.48436 0.0
C1635 C 0.18362 0.0599 0.49855 0.0
C1636 C 0.14821 0.03227 0.49748 0.0
C1637 C 0.16682 0.06471 0.51224 0.0
C1638 C 0.11249 0.02354 0.51063 0.0
C1639 C 0.10733 0.99205 0.47561 0.0
N1640 N 0.14983 0.05107 0.51129 0.0
N1641 N 0.12561 1.00303 0.47922 0.0
H1642 H 0.80944 0.18283 0.74178 0.0
H1643 H 0.6999 0.13793 0.77866 0.0
H1644 H 0.76338 0.22383 0.77201 0.0
H1645 H 0.74712 0.09505 0.75376 0.0
H1646 H 0.72428 0.16925 0.77927 0.0
H1647 H 0.78883 0.15005 0.74976 0.0
C1648 C 0.79527 0.18482 0.75072 0.0
C1649 C 0.78796 0.20583 0.75631 0.0
C1650 C 0.72941 0.153 0.7738 0.0
C1651 C 0.76412 0.16882 0.76494 0.0
C1652 C 0.71542 0.13512 0.77328 0.0
C1653 C 0.72141 0.11387 0.7659 0.0
C1654 C 0.74957 0.14974 0.76668 0.0
C1655 C 0.74185 0.11115 0.75958 0.0
C1656 C 0.78341 0.16621 0.75507 0.0
C1657 C 0.7694 0.20779 0.76752 0.0
N1658 N 0.75515 0.12891 0.7599 0.0
N1659 N 0.75799 0.18953 0.77123 0.0
H1660 H 0.42388 0.99234 0.57906 0.0
H1661 H 0.39112 0.0858 0.50957 0.0
H1662 H 0.46138 0.01406 0.52799 0.0
H1663 H 0.34723 0.04591 0.54166 0.0
H1664 H 0.41821 0.06286 0.51948 0.0
H1665 H 0.39656 0.01531 0.56916 0.0
C1666 C 0.42628 1.00212 0.56585 0.0
C1667 C 0.44469 1.0015 0.55426 0.0
C1668 C 0.40264 0.05908 0.52427 0.0
C1669 C 0.4139 0.02765 0.54289 0.0
C1670 C 0.38722 0.07218 0.51869 0.0
C1671 C 0.36695 0.06766 0.52477 0.0
C1672 C 0.3978 0.04157 0.53635 0.0
C1673 C 0.36267 0.04978 0.53649 0.0
C1674 C 0.41077 0.01506 0.56012 0.0
C1675 C 0.44728 0.01424 0.53719 0.0
N1676 N 0.378 0.03747 0.54206 0.0
N1677 N 0.43207 0.02691 0.53205 0.0
H1678 H 0.5644 0.50455 0.51855 0.0
H1679 H 0.67624 0.48384 0.55756 0.0
H1680 H 0.59344 0.54145 0.57282 0.0
H1681 H 0.64701 0.44489 0.50417 0.0
H1682 H 0.64809 0.50858 0.5599 0.0
H1683 H 0.59657 0.48657 0.50908 0.0
C1684 C 0.57782 0.50933 0.528 0.0
C1685 C 0.57647 0.52435 0.54644 0.0
C1686 C 0.64788 0.49472 0.54755 0.0
C1687 C 0.61296 0.50364 0.53627 0.0
C1688 C 0.66404 0.4806 0.54614 0.0
C1689 C 0.664 0.46209 0.53073 0.0
C1690 C 0.63142 0.49036 0.53353 0.0
C1691 C 0.64754 0.45867 0.51658 0.0
C1692 C 0.59607 0.49893 0.52281 0.0
C1693 C 0.59404 0.52988 0.55849 0.0
N1694 N 0.63187 0.47257 0.51841 0.0
N1695 N 0.6115 0.51932 0.55337 0.0
H1696 H 0.75211 0.25173 0.32133 0.0
H1697 H 0.71554 0.27878 0.44165 0.0
H1698 H 0.70711 0.2112 0.35068 0.0
H1699 H 0.77231 0.30521 0.41754 0.0
H1700 H 0.71261 0.25314 0.40887 0.0
H1701 H 0.76104 0.27035 0.3568 0.0
C1702 C 0.74464 0.24636 0.33546 0.0
C1703 C 0.72917 0.22984 0.33341 0.0
C1704 C 0.72583 0.26436 0.41087 0.0
C1705 C 0.73845 0.25146 0.37374 0.0
C1706 C 0.72742 0.2791 0.42948 0.0
C1707 C 0.74413 0.29421 0.43224 0.0
C1708 C 0.7409 0.26499 0.39474 0.0
C1709 C 0.75922 0.29376 0.4161 0.0
C1710 C 0.74955 0.25702 0.35563 0.0
C1711 C 0.71937 0.22368 0.3519 0.0
N1712 N 0.75713 0.27958 0.39794 0.0
N1713 N 0.72394 0.23475 0.37135 0.0
H1714 H 0.51125 0.03165 0.96097 0.0
H1715 H 0.56561 0.0759 0.8581 0.0
H1716 H 0.49237 0.08834 0.93332 0.0
H1717 H 0.5812 0.01653 0.8838 0.0
H1718 H 0.54153 0.08342 0.8879 0.0
H1719 H 0.54022 0.02891 0.93575 0.0
C1720 C 0.51356 0.04375 0.94976 0.0
C1721 C 0.49961 0.06022 0.94905 0.0
C1722 C 0.55034 0.06883 0.8871 0.0
C1723 C 0.5323 0.05712 0.91997 0.0
C1724 C 0.564 0.06444 0.87 0.0
C1725 C 0.57538 0.04544 0.86828 0.0
C1726 C 0.54797 0.05412 0.90264 0.0
C1727 C 0.57293 0.03146 0.88448 0.0
C1728 C 0.52996 0.04218 0.93533 0.0
C1729 C 0.50301 0.07556 0.93435 0.0
N1730 N 0.55943 0.03601 0.90085 0.0
N1731 N 0.51892 0.07352 0.92018 0.0
H1732 H 0.30771 0.24758 0.30631 0.0
H1733 H 0.29579 0.23796 0.43031 0.0
H1734 H 0.3195 0.30169 0.35496 0.0
H1735 H 0.30626 0.18057 0.38546 0.0
H1736 H 0.30409 0.2611 0.40225 0.0
H1737 H 0.30789 0.22204 0.33394 0.0
C1738 C 0.31103 0.25392 0.32272 0.0
C1739 C 0.31355 0.27664 0.32853 0.0
C1740 C 0.30476 0.24345 0.39855 0.0
C1741 C 0.31308 0.24794 0.36014 0.0
C1742 C 0.30009 0.23011 0.41468 0.0
C1743 C 0.30045 0.20709 0.41051 0.0
C1744 C 0.3095 0.23388 0.37779 0.0
C1745 C 0.30549 0.19815 0.38951 0.0
C1746 C 0.31092 0.23945 0.3385 0.0
C1747 C 0.31746 0.28423 0.34999 0.0
N1748 N 0.30967 0.21154 0.37391 0.0
N1749 N 0.31675 0.26999 0.36507 0.0
H1750 H 0.50169 0.49967 0.96976 0.0
H1751 H 0.47727 0.49353 0.8451 0.0
H1752 H 0.54442 0.47736 0.9201 0.0
H1753 H 0.43044 0.49634 0.89427 0.0
H1754 H 0.50281 0.49093 0.87243 0.0
H1755 H 0.4759 0.50179 0.94243 0.0
C1756 C 0.50555 0.49517 0.95306 0.0
C1757 C 0.5251 0.48831 0.94708 0.0
C1758 C 0.48694 0.49205 0.87724 0.0
C1759 C 0.49596 0.49097 0.91577 0.0
C1760 C 0.47239 0.49366 0.86167 0.0
C1761 C 0.45173 0.49519 0.86746 0.0
C1762 C 0.48083 0.49225 0.89879 0.0
C1763 C 0.4462 0.49502 0.88912 0.0
C1764 C 0.49091 0.4964 0.93749 0.0
C1765 C 0.52955 0.48294 0.92526 0.0
N1766 N 0.46068 0.49371 0.90403 0.0
N1767 N 0.51511 0.48444 0.91036 0.0
H1768 H 0.75049 0.77175 0.21201 0.0
H1769 H 0.72358 0.73265 0.08962 0.0
H1770 H 0.6947 0.78541 0.18242 0.0
H1771 H 0.7807 0.72028 0.11774 0.0
H1772 H 0.71428 0.75516 0.12262 0.0
H1773 H 0.76374 0.75655 0.1768 0.0
C1774 C 0.74127 0.77194 0.19795 0.0
C1775 C 0.7215 0.77961 0.19993 0.0
C1776 C 0.72893 0.74768 0.12157 0.0
C1777 C 0.73618 0.76202 0.15988 0.0
C1778 C 0.73419 0.73471 0.10274 0.0
C1779 C 0.75285 0.72436 0.10098 0.0
C1780 C 0.74234 0.75024 0.13891 0.0
C1781 C 0.76618 0.72799 0.11837 0.0
C1782 C 0.7487 0.76314 0.17793 0.0
C1783 C 0.70995 0.77939 0.18142 0.0
N1784 N 0.76058 0.74045 0.13669 0.0
N1785 N 0.71736 0.77051 0.1622 0.0
H1786 H 0.0294 0.06147 0.11704 0.0
H1787 H 0.93681 0.99021 0.163 0.0
H1788 H 1.0055 1.00045 0.08425 0.0
H1789 H 0.96697 0.04593 0.19956 0.0
H1790 H 0.96067 0.99457 0.13327 0.0
H1791 H 1.00558 0.05696 0.14693 0.0
C1792 C 0.01905 0.04713 0.11626 0.0
C1793 C 0.01924 0.0313 0.09836 0.0
C1794 C 0.96209 1.00582 0.14781 0.0
C1795 C 0.99206 0.02591 0.13222 0.0
C1796 C 0.9484 1.00342 0.16473 0.0
C1797 C 0.94991 0.01773 0.18378 0.0
C1798 C 0.97733 0.02274 0.1499 0.0
C1799 C 0.96539 0.03438 0.18525 0.0
C1800 C 1.00553 0.04449 0.13325 0.0
C1801 C 0.00574 0.0129 0.09794 0.0
N1802 N 0.97846 0.03647 0.16852 0.0
N1803 N 0.99261 0.01071 0.11462 0.0
H1804 H 0.29992 0.73445 0.17531 0.0
H1805 H 0.28296 0.8538 0.14169 0.0
H1806 H 0.29566 0.79104 0.22227 0.0
H1807 H 0.26323 0.79369 0.10347 0.0
H1808 H 0.2918 0.83216 0.17034 0.0
H1809 H 0.29145 0.75707 0.14728 0.0
C1810 C 0.2972 0.75169 0.17964 0.0
C1811 C 0.29826 0.7609 0.20106 0.0
C1812 C 0.2855 0.8238 0.15566 0.0
C1813 C 0.28888 0.78697 0.16917 0.0
C1814 C 0.2803 0.83613 0.13931 0.0
C1815 C 0.2724 0.82564 0.11993 0.0
C1816 C 0.28305 0.80079 0.15255 0.0
C1817 C 0.2697 0.80259 0.1178 0.0
C1818 C 0.29239 0.76458 0.1637 0.0
C1819 C 0.29506 0.78342 0.20588 0.0
N1820 N 0.27513 0.79098 0.13381 0.0
N1821 N 0.29049 0.79574 0.19004 0.0
H1822 H 0.97956 0.47683 0.11597 0.0
H1823 H 0.09621 0.47795 0.15066 0.0
H1824 H 0.02874 0.47594 0.06973 0.0
H1825 H 0.04721 0.50249 0.19221 0.0
H1826 H 0.07195 0.47051 0.12128 0.0
H1827 H 1.00436 0.47805 0.14472 0.0
C1828 C 0.99565 0.47656 0.11194 0.0
C1829 C 1.00223 0.47658 0.09062 0.0
C1830 C 0.06659 0.4774 0.13691 0.0
C1831 C 0.03072 0.47805 0.12327 0.0
C1832 C 0.08045 0.48184 0.15369 0.0
C1833 C 0.07388 0.49087 0.17416 0.0
C1834 C 0.04596 0.48175 0.14063 0.0
C1835 C 0.05309 0.4951 0.17701 0.0
C1836 C 0.00979 0.47736 0.12829 0.0
C1837 C 0.02318 0.47592 0.08605 0.0
N1838 N 0.03996 0.49047 0.16052 0.0
N1839 N 0.03677 0.4769 0.10229 0.0
H1840 H 0.31939 0.76154 0.28178 0.0
H1841 H 0.41108 0.69568 0.32218 0.0
H1842 H 0.33701 0.69888 0.25075 0.0
H1843 H 0.39234 0.75823 0.35309 0.0
H1844 H 0.38237 0.69479 0.29781 0.0
H1845 H 0.34417 0.75893 0.30994 0.0
C1846 C 0.3284 0.74712 0.28112 0.0
C1847 C 0.32635 0.73047 0.26399 0.0
C1848 C 0.38447 0.70864 0.31001 0.0
C1849 C 0.35484 0.72731 0.29593 0.0
C1850 C 0.40081 0.70911 0.32404 0.0
C1851 C 0.40429 0.72715 0.33968 0.0
C1852 C 0.37144 0.72632 0.31158 0.0
C1853 C 0.39054 0.74418 0.34107 0.0
C1854 C 0.34254 0.7456 0.29712 0.0
C1855 C 0.33817 0.71199 0.26381 0.0
N1856 N 0.37484 0.74338 0.32718 0.0
N1857 N 0.35208 0.71098 0.27943 0.0
H1858 H 0.98022 0.43026 0.07344 0.0
H1859 H 0.02269 0.36158 0.96708 0.0
H1860 H 0.00906 0.45938 0.02086 0.0
H1861 H 0.98805 0.33198 0.01624 0.0
H1862 H 0.02273 0.39685 0.98939 0.0
H1863 H 0.98826 0.39358 0.05593 0.0
C1864 C 0.98883 0.42884 0.05852 0.0
C1865 C 0.9941 0.44762 0.0485 0.0
C1866 C 0.01524 0.38262 0.9954 0.0
C1867 C 1.00289 0.40609 0.02814 0.0
C1868 C 0.0153 0.3624 0.98269 0.0
C1869 C 1.00526 0.34372 0.9897 0.0
C1870 C 1.00504 0.38433 0.01533 0.0
C1871 C 0.99569 0.34598 0.00999 0.0
C1872 C 0.99321 0.408 0.0484 0.0
C1873 C 1.00488 0.44515 0.029 0.0
N1874 N 0.99573 0.36591 0.02203 0.0
N1875 N 0.00874 0.42476 0.01933 0.0
H1876 H 0.69318 0.77469 0.28971 0.0
H1877 H 0.57394 0.74683 0.30073 0.0
H1878 H 0.65121 0.78129 0.23929 0.0
H1879 H 0.61253 0.76547 0.35531 0.0
H1880 H 0.60262 0.75483 0.27708 0.0
H1881 H 0.66432 0.76644 0.31328 0.0
C1882 C 0.67784 0.77445 0.28369 0.0
C1883 C 0.67446 0.77874 0.26265 0.0
C1884 C 0.60474 0.75715 0.29425 0.0
C1885 C 0.6415 0.76895 0.2892 0.0
C1886 C 0.58835 0.75271 0.30781 0.0
C1887 C 0.59071 0.75545 0.33015 0.0
C1888 C 0.62374 0.76414 0.30305 0.0
C1889 C 0.60997 0.76268 0.33825 0.0
C1890 C 0.66141 0.7697 0.29706 0.0
C1891 C 0.65437 0.77785 0.25538 0.0
N1892 N 0.62573 0.76668 0.32472 0.0
N1893 N 0.6386 0.77299 0.26862 0.0
H1894 H 0.04481 0.03865 0.01165 0.0
H1895 H 0.04484 0.16643 0.99729 0.0
H1896 H 0.0641 0.09048 0.05993 0.0
H1897 H 0.02506 0.11513 0.94831 0.0
H1898 H 0.0567 0.13854 0.01833 0.0
H1899 H 0.04317 0.06574 0.98576 0.0
C1900 C 0.04939 0.05567 0.01649 0.0
C1901 C 0.05455 0.06253 0.03779 0.0
C1902 C 0.04991 0.13333 1.00291 0.0
C1903 C 0.05217 0.0936 0.00877 0.0
C1904 C 0.04298 0.14927 0.99096 0.0
C1905 C 0.03363 0.1431 0.97116 0.0
C1906 C 0.04738 0.11096 0.99513 0.0
C1907 C 0.03213 0.12063 0.96351 0.0
C1908 C 0.04823 0.07116 1.00187 0.0
C1909 C 0.06005 0.08472 0.04357 0.0
N1910 N 0.03872 0.10536 0.97562 0.0
N1911 N 0.05843 0.09954 0.02925 0.0
H1912 H 0.35383 0.3014 0.31129 0.0
H1913 H 0.40212 0.27073 0.19483 0.0
H1914 H 0.32009 0.26965 0.25761 0.0
H1915 H 0.43826 0.29598 0.24953 0.0
H1916 H 0.3725 0.26749 0.21848 0.0
H1917 H 0.38567 0.29575 0.29052 0.0
C1918 C 0.35329 0.2925 0.29539 0.0
C1919 C 0.3345 0.28588 0.28606 0.0
C1920 C 0.38692 0.27362 0.22539 0.0
C1921 C 0.37048 0.28003 0.26196 0.0
C1922 C 0.40382 0.27566 0.21183 0.0
C1923 C 0.42269 0.28387 0.22014 0.0
C1924 C 0.38874 0.28001 0.2475 0.0
C1925 C 0.42403 0.28953 0.24241 0.0
C1926 C 0.37137 0.28952 0.28342 0.0
C1927 C 0.33439 0.27486 0.26527 0.0
N1928 N 0.40726 0.2877 0.25528 0.0
N1929 N 0.35205 0.27257 0.2538 0.0
H1930 H 0.53744 0.48616 0.03035 0.0
H1931 H 0.56905 0.37102 0.06503 0.0
H1932 H 0.58133 0.4455 0.99564 0.0
H1933 H 0.52097 0.40948 0.09553 0.0
H1934 H 0.5779 0.40075 0.04323 0.0
H1935 H 0.53619 0.46168 0.05865 0.0
C1936 C 0.5473 0.47238 0.02914 0.0
C1937 C 0.55952 0.46773 0.01084 0.0
C1938 C 0.56553 0.40276 0.05482 0.0
C1939 C 0.55779 0.43924 0.0426 0.0
C1940 C 0.56034 0.38571 0.06719 0.0
C1941 C 0.54401 0.38754 0.08199 0.0
C1942 C 0.55435 0.42188 0.05721 0.0
C1943 C 0.5337 0.40727 0.08442 0.0
C1944 C 0.54645 0.45828 0.04511 0.0
C1945 C 0.57187 0.44962 0.00968 0.0
N1946 N 0.53892 0.42355 0.07205 0.0
N1947 N 0.57047 0.43578 0.0252 0.0
H1948 H 0.66754 0.19771 0.27072 0.0
H1949 H 0.6215 0.29348 0.21258 0.0
H1950 H 0.69928 0.26007 0.26599 0.0
H1951 H 0.59595 0.22688 0.207 0.0
H1952 H 0.64972 0.28197 0.23281 0.0
H1953 H 0.64071 0.2083 0.24787 0.0
C1954 C 0.66889 0.21354 0.26461 0.0
C1955 C 0.6855 0.22808 0.27014 0.0
C1956 C 0.63796 0.26988 0.2271 0.0
C1957 C 0.65488 0.24055 0.24443 0.0
C1958 C 0.62187 0.27641 0.21547 0.0
C1959 C 0.60624 0.26115 0.20811 0.0
C1960 C 0.6384 0.24794 0.23153 0.0
C1961 C 0.60742 0.23932 0.21266 0.0
C1962 C 0.65358 0.21966 0.2517 0.0
C1963 C 0.68653 0.24857 0.26219 0.0
N1964 N 0.62317 0.2334 0.22412 0.0
N1965 N 0.67135 0.25427 0.24981 0.0
H1966 H 0.47803 0.11475 0.96426 0.0
H1967 H 0.50794 0.16498 0.08168 0.0
H1968 H 0.49688 0.07572 0.01238 0.0
H1969 H 0.50551 0.2052 0.02984 0.0
H1970 H 0.50548 0.1321 0.05582 0.0
H1971 H 0.49036 0.14818 0.98657 0.0
C1972 C 0.48551 0.11329 0.9792 0.0
C1973 C 0.4868 0.09269 0.98652 0.0
C1974 C 0.50569 0.14809 0.05002 0.0
C1975 C 0.50005 0.13049 0.01244 0.0
C1976 C 0.50693 0.16685 0.0648 0.0
C1977 C 0.5067 0.18779 0.05788 0.0
C1978 C 0.50388 0.15022 0.02811 0.0
C1979 C 0.50571 0.18931 0.0358 0.0
C1980 C 0.49233 0.13228 0.99202 0.0
C1981 C 0.49595 0.09144 0.00623 0.0
N1982 N 0.50405 0.17075 0.0217 0.0
N1983 N 0.50197 0.11011 0.01868 0.0
H1984 H 0.21097 0.34358 0.7237 0.0
H1985 H 0.32544 0.38069 0.75574 0.0
H1986 H 0.25561 0.29822 0.73757 0.0
H1987 H 0.28168 0.42485 0.73657 0.0
H1988 H 0.30121 0.34979 0.74627 0.0
H1989 H 0.23763 0.37304 0.72509 0.0
C1990 C 0.22654 0.33987 0.72667 0.0
C1991 C 0.23125 0.31867 0.73062 0.0
C1992 C 0.29696 0.36623 0.744 0.0
C1993 C 0.26175 0.3521 0.73263 0.0
C1994 C 0.31084 0.3839 0.74933 0.0
C1995 C 0.30555 0.40549 0.74717 0.0
C1996 C 0.27761 0.37013 0.73649 0.0
C1997 C 0.28629 0.40858 0.73897 0.0
C1998 C 0.24174 0.35661 0.72754 0.0
C1999 C 0.25154 0.31444 0.73437 0.0
N2000 N 0.273 0.39115 0.73408 0.0
N2001 N 0.26606 0.3311 0.73557 0.0
H2002 H 0.22792 0.677 0.83163 0.0
H2003 H 0.32371 0.62268 0.76926 0.0
H2004 H 0.25444 0.69877 0.77415 0.0
H2005 H 0.29658 0.59941 0.82606 0.0
H2006 H 0.3007 0.65308 0.773 0.0
H2007 H 0.25543 0.65128 0.83252 0.0
C2008 C 0.23981 0.67655 0.81944 0.0
C2009 C 0.239 0.68972 0.80272 0.0
C2010 C 0.29985 0.64142 0.78474 0.0
C2011 C 0.27018 0.66036 0.80329 0.0
C2012 C 0.31291 0.62398 0.78254 0.0
C2013 C 0.31193 0.60832 0.79723 0.0
C2014 C 0.28558 0.64324 0.80172 0.0
C2015 C 0.29794 0.61113 0.8144 0.0
C2016 C 0.25539 0.66184 0.81982 0.0
C2017 C 0.25453 0.68858 0.78712 0.0
N2018 N 0.28519 0.62813 0.81607 0.0
N2019 N 0.26941 0.674 0.78767 0.0
H2020 H 0.91718 0.52953 0.44943 0.0
H2021 H 0.85724 0.46578 0.53679 0.0
H2022 H 0.9427 0.52078 0.51032 0.0
H2023 H 0.84294 0.45532 0.46946 0.0
H2024 H 0.88688 0.48885 0.52833 0.0
H2025 H 0.88797 0.50511 0.45728 0.0
C2026 C 0.91662 0.52231 0.46438 0.0
C2027 C 0.93224 0.52709 0.47929 0.0
C2028 C 0.87726 0.48144 0.51542 0.0
C2029 C 0.89891 0.49963 0.48857 0.0
C2030 C 0.86036 0.46815 0.52021 0.0
C2031 C 0.84748 0.45846 0.50383 0.0
C2032 C 0.88126 0.48534 0.49414 0.0
C2033 C 0.85216 0.46267 0.4827 0.0
C2034 C 0.89999 0.50848 0.4689 0.0
C2035 C 0.93078 0.51765 0.49859 0.0
N2036 N 0.86861 0.47584 0.47848 0.0
N2037 N 0.91435 0.50445 0.50275 0.0
H2038 H 0.80345 0.86538 0.80671 0.0
H2039 H 0.68837 0.89676 0.79246 0.0
H2040 H 0.75483 0.81638 0.79359 0.0
H2041 H 0.73981 0.94001 0.77994 0.0
H2042 H 0.71191 0.86805 0.79802 0.0
H2043 H 0.77972 0.89413 0.80189 0.0
C2044 C 0.78776 0.86074 0.80276 0.0
C2045 C 0.78105 0.83856 0.80041 0.0
C2046 C 0.71801 0.88382 0.79403 0.0
C2047 C 0.75378 0.8712 0.79533 0.0
C2048 C 0.70462 0.9002 0.79096 0.0
C2049 C 0.71219 0.92072 0.78567 0.0
C2050 C 0.73911 0.88814 0.79215 0.0
C2051 C 0.73336 0.92433 0.78379 0.0
C2052 C 0.77424 0.87708 0.80007 0.0
C2053 C 0.7605 0.83333 0.7957 0.0
N2054 N 0.7461 0.90824 0.78714 0.0
N2055 N 0.74754 0.84954 0.79336 0.0
H2056 H 0.60365 0.48022 0.95847 0.0
H2057 H 0.66922 0.57461 0.02871 0.0
H2058 H 0.58122 0.51515 0.01679 0.0
H2059 H 0.68856 0.54318 0.96713 0.0
H2060 H 0.63894 0.54977 0.0273 0.0
H2061 H 0.63715 0.49898 0.96457 0.0
C2062 C 0.60606 0.4915 0.97286 0.0
C2063 C 0.58984 0.49626 0.98716 0.0
C2064 C 0.64989 0.54821 0.01417 0.0
C2065 C 0.62781 0.51822 0.99409 0.0
C2066 C 0.66714 0.56253 0.01486 0.0
C2067 C 0.68147 0.56122 0.99789 0.0
C2068 C 0.64686 0.5324 0.99638 0.0
C2069 C 0.67809 0.54479 0.98066 0.0
C2070 C 0.62506 0.50234 0.97628 0.0
C2071 C 0.59349 0.51102 0.00553 0.0
N2072 N 0.66112 0.53117 0.9803 0.0
N2073 N 0.61205 0.52174 0.00835 0.0
H2074 H 0.27994 0.71542 0.27531 0.0
H2075 H 0.23845 0.59328 0.23382 0.0
H2076 H 0.30065 0.67839 0.21736 0.0
H2077 H 0.21415 0.63174 0.28958 0.0
H2078 H 0.26446 0.62245 0.23025 0.0
H2079 H 0.25966 0.6828 0.28424 0.0
C2080 C 0.28065 0.70013 0.26488 0.0
C2081 C 0.29187 0.69934 0.24567 0.0
C2082 C 0.25352 0.62448 0.24335 0.0
C2083 C 0.2685 0.66236 0.25524 0.0
C2084 C 0.23853 0.60789 0.24529 0.0
C2085 C 0.22392 0.61011 0.2619 0.0
C2086 C 0.25395 0.64356 0.25808 0.0
C2087 C 0.22514 0.62923 0.27658 0.0
C2088 C 0.26895 0.68164 0.26977 0.0
C2089 C 0.29216 0.67942 0.23235 0.0
N2090 N 0.23978 0.64526 0.27424 0.0
N2091 N 0.28045 0.66177 0.23724 0.0
H2092 H 0.96095 0.51584 0.02121 0.0
H2093 H 0.857 0.57213 0.06062 0.0
H2094 H 0.93152 0.50769 0.08176 0.0
H2095 H 0.88216 0.57338 0.99676 0.0
H2096 H 0.88511 0.55018 0.06932 0.0
H2097 H 0.93324 0.53876 0.01257 0.0
C2098 C 0.94859 0.51895 0.03264 0.0
C2099 C 0.9484 0.50996 0.05217 0.0
C2100 C 0.88449 0.55526 0.0534 0.0
C2101 C 0.91681 0.53615 0.04262 0.0
C2102 C 0.86836 0.5677 0.04836 0.0
C2103 C 0.86709 0.57458 0.02787 0.0
C2104 C 0.89959 0.54964 0.03788 0.0
C2105 C 0.88257 0.56869 0.01284 0.0
C2106 C 0.93284 0.53202 0.02778 0.0
C2107 C 0.93224 0.51455 0.06662 0.0
N2108 N 0.89813 0.55656 0.01813 0.0
N2109 N 0.91707 0.52731 0.06156 0.0
H2110 H 0.05915 0.99113 0.02959 0.0
H2111 H 0.17822 0.98606 0.04817 0.0
H2112 H 0.09564 0.04609 0.05884 0.0
H2113 H 0.14358 0.936 0.00855 0.0
H2114 H 0.14862 0.00907 0.05078 0.0
H2115 H 0.09029 0.97178 0.01913 0.0
C2116 C 0.07386 0.9993 0.03318 0.0
C2117 C 0.07504 0.02015 0.04489 0.0
C2118 C 0.14754 0.99313 0.04136 0.0
C2119 C 0.11061 0.99804 0.03381 0.0
C2120 C 0.16438 0.9799 0.04003 0.0
C2121 C 0.16335 0.95899 0.02825 0.0
C2122 C 0.12941 0.98534 0.03103 0.0
C2123 C 0.14512 0.95204 0.01772 0.0
C2124 C 0.09159 0.98826 0.02742 0.0
C2125 C 0.09428 0.03008 0.04959 0.0
N2126 N 0.12884 0.96508 0.01952 0.0
N2127 N 0.11136 0.0188 0.04434 0.0
loop_
_geom_bond_atom_site_label_1
_geom_bond_atom_site_label_2
_geom_bond_distance
_geom_bond_site_symmetry_2
_ccdc_geom_bond_type
C0 N1 1.317 1_565 S
C0 N2 1.348 1_565 S
C0 C3 1.485 . S
N1 C0 1.317 1_545 S
N1 N5 1.370 . S
N2 C0 1.348 1_545 S
N2 C4 1.349 . S
C3 C0 1.485 . S
C3 H7 0.960 . S
C3 H8 0.961 . S
C3 H9 0.960 . S
C4 N2 1.349 . S
C4 N5 1.323 . S
C4 C6 1.470 1_455 S
N5 N1 1.370 . S
N5 C4 1.323 . S
C6 C4 1.470 1_655 S
C6 H10 0.960 . S
C6 H11 0.960 . S
C6 H12 0.959 . S
H7 C3 0.960 . S
H8 C3 0.961 . S
H9 C3 0.960 . S
H10 C6 0.960 . S
H11 C6 0.960 . S
H12 C6 0.959 . S
C13 N14 1.317 . S
C13 N15 1.348 . S
C13 C16 1.485 . S
N14 C13 1.317 . S
N14 N18 1.370 . S
N15 C13 1.348 . S
N15 C17 1.346 . S
C16 C13 1.485 . S
C16 H20 0.960 . S
C16 H21 0.961 . S
C16 H22 0.960 . S
C17 N15 1.346 . S
C17 N18 1.307 . S
C17 C19 1.486 . S
N18 N14 1.370 . S
N18 C17 1.307 . S
C19 C17 1.486 . S
C19 H23 0.960 . S
C19 H24 0.960 . S
C19 H25 0.959 . S
H20 C16 0.960 . S
H21 C16 0.961 . S
H22 C16 0.960 . S
H23 C19 0.960 . S
H24 C19 0.960 . S
H25 C19 0.959 . S
C26 N27 1.317 . S
C26 N28 1.348 . S
C26 C29 1.485 . S
N27 C26 1.317 . S
N27 N31 1.370 . S
N28 C26 1.348 . S
N28 C30 1.346 . S
C29 C26 1.485 . S
C29 H33 0.960 . S
C29 H34 0.961 . S
C29 H35 0.960 . S
C30 N28 1.346 . S
C30 N31 1.307 . S
C30 C32 1.486 . S
N31 N27 1.370 . S
N31 C30 1.307 . S
C32 C30 1.486 . S
C32 H36 0.960 . S
C32 H37 0.960 . S
C32 H38 0.959 . S
H33 C29 0.960 . S
H34 C29 0.961 . S
H35 C29 0.960 . S
H36 C32 0.960 . S
H37 C32 0.960 . S
H38 C32 0.959 . S
C39 N40 1.317 . S
C39 N41 1.348 . S
C39 C42 1.485 . S
N40 C39 1.317 . S
N40 N44 1.370 . S
N41 C39 1.348 . S
N41 C43 1.346 . S
C42 C39 1.485 . S
C42 H46 0.960 . S
C42 H47 0.961 . S
C42 H48 0.960 . S
C43 N41 1.346 . S
C43 N44 1.307 . S
C43 C45 1.486 . S
N44 N40 1.370 . S
N44 C43 1.307 . S
C45 C43 1.486 . S
C45 H49 0.960 . S
C45 H50 0.960 . S
C45 H51 0.959 . S
H46 C42 0.960 . S
H47 C42 0.961 . S
H48 C42 0.960 . S
H49 C45 0.960 . S
H50 C45 0.960 . S
H51 C45 0.959 . S
C52 N53 1.317 . S
C52 N54 1.348 . S
C52 C55 1.485 . S
N53 C52 1.317 . S
N53 N57 1.370 . S
N54 C52 1.348 . S
N54 C56 1.347 1_565 S
C55 C52 1.485 . S
C55 H59 0.960 . S
C55 H60 0.961 1_455 S
C55 H61 0.960 . S
C56 N54 1.347 1_545 S
C56 N57 1.308 1_545 S
C56 C58 1.484 . S
N57 N53 1.370 . S
N57 C56 1.308 1_565 S
C58 C56 1.484 . S
C58 H62 0.960 . S
C58 H63 0.960 . S
C58 H64 0.959 . S
H59 C55 0.960 . S
H60 C55 0.961 1_655 S
H61 C55 0.960 . S
H62 C58 0.960 . S
H63 C58 0.960 . S
H64 C58 0.959 . S
C65 N66 1.317 . S
C65 N67 1.348 . S
C65 C68 1.485 . S
N66 C65 1.317 . S
N66 N70 1.370 . S
N67 C65 1.348 . S
N67 C69 1.346 . S
C68 C65 1.485 . S
C68 H72 0.960 . S
C68 H73 0.961 . S
C68 H74 0.960 . S
C69 N67 1.346 . S
C69 N70 1.307 . S
C69 C71 1.486 . S
N70 N66 1.370 . S
N70 C69 1.307 . S
C71 C69 1.486 . S
C71 H75 0.960 . S
C71 H76 0.960 . S
C71 H77 0.959 . S
H72 C68 0.960 . S
H73 C68 0.961 . S
H74 C68 0.960 . S
H75 C71 0.960 . S
H76 C71 0.960 . S
H77 C71 0.959 . S
C78 N79 1.317 . S
C78 N80 1.348 . S
C78 C81 1.485 . S
N79 C78 1.317 . S
N79 N83 1.370 . S
N80 C78 1.348 . S
N80 C82 1.346 . S
C81 C78 1.485 . S
C81 H85 0.960 . S
C81 H86 0.961 . S
C81 H87 0.960 . S
C82 N80 1.346 . S
C82 N83 1.307 . S
C82 C84 1.486 . S
N83 N79 1.370 . S
N83 C82 1.307 . S
C84 C82 1.486 . S
C84 H88 0.960 . S
C84 H89 0.960 . S
C84 H90 0.959 . S
H85 C81 0.960 . S
H86 C81 0.961 . S
H87 C81 0.960 . S
H88 C84 0.960 . S
H89 C84 0.960 . S
H90 C84 0.959 . S
C91 N92 1.317 . S
C91 N93 1.348 . S
C91 C94 1.485 . S
N92 C91 1.317 . S
N92 N96 1.370 . S
N93 C91 1.348 . S
N93 C95 1.346 . S
C94 C91 1.485 . S
C94 H98 0.960 . S
C94 H99 0.961 . S
C94 H100 0.960 . S
C95 N93 1.346 . S
C95 N96 1.307 . S
C95 C97 1.486 . S
N96 N92 1.370 . S
N96 C95 1.307 . S
C97 C95 1.486 . S
C97 H101 0.960 . S
C97 H102 0.960 . S
C97 H103 0.959 . S
H98 C94 0.960 . S
H99 C94 0.961 . S
H100 C94 0.960 . S
H101 C97 0.960 . S
H102 C97 0.960 . S
H103 C97 0.959 . S
C104 N105 1.317 . S
C104 N106 1.348 . S
C104 C107 1.485 . S
N105 C104 1.317 . S
N105 N109 1.370 . S
N106 C104 1.348 . S
N106 C108 1.346 . S
C107 C104 1.485 . S
C107 H111 0.960 . S
C107 H112 0.961 . S
C107 H113 0.960 . S
C108 N106 1.346 . S
C108 N109 1.307 . S
C108 C110 1.486 . S
N109 N105 1.370 . S
N109 C108 1.307 . S
C110 C108 1.486 . S
C110 H114 0.960 . S
C110 H115 0.960 . S
C110 H116 0.959 . S
H111 C107 0.960 . S
H112 C107 0.961 . S
H113 C107 0.960 . S
H114 C110 0.960 . S
H115 C110 0.960 . S
H116 C110 0.959 . S
C117 N118 1.317 . S
C117 N119 1.348 . S
C117 C120 1.485 1_565 S
N118 C117 1.317 . S
N118 N122 1.370 . S
N119 C117 1.348 . S
N119 C121 1.346 . S
C120 C117 1.485 1_545 S
C120 H124 0.960 . S
C120 H125 0.961 . S
C120 H126 0.960 . S
C121 N119 1.346 . S
C121 N122 1.307 . S
C121 C123 1.486 . S
N122 N118 1.370 . S
N122 C121 1.307 . S
C123 C121 1.486 . S
C123 H127 0.960 . S
C123 H128 0.960 . S
C123 H129 0.959 . S
H124 C120 0.960 . S
H125 C120 0.961 . S
H126 C120 0.960 . S
H127 C123 0.960 . S
H128 C123 0.960 . S
H129 C123 0.959 . S
C130 N131 1.317 . S
C130 N132 1.348 . S
C130 C133 1.485 . S
N131 C130 1.317 . S
N131 N135 1.370 . S
N132 C130 1.348 . S
N132 C134 1.346 . S
C133 C130 1.485 . S
C133 H137 0.960 . S
C133 H138 0.961 . S
C133 H139 0.960 . S
C134 N132 1.346 . S
C134 N135 1.307 . S
C134 C136 1.486 . S
N135 N131 1.370 . S
N135 C134 1.307 . S
C136 C134 1.486 . S
C136 H140 0.960 . S
C136 H141 0.960 . S
C136 H142 0.959 . S
H137 C133 0.960 . S
H138 C133 0.961 . S
H139 C133 0.960 . S
H140 C136 0.960 . S
H141 C136 0.960 . S
H142 C136 0.959 . S
C143 N144 1.317 . S
C143 N145 1.348 . S
C143 C146 1.485 . S
N144 C143 1.317 . S
N144 N148 1.370 . S
N145 C143 1.348 . S
N145 C147 1.346 . S
C146 C143 1.485 . S
C146 H150 0.960 . S
C146 H151 0.961 . S
C146 H152 0.960 . S
C147 N145 1.346 . S
C147 N148 1.307 . S
C147 C149 1.486 . S
N148 N144 1.370 . S
N148 C147 1.307 . S
C149 C147 1.486 . S
C149 H153 0.960 . S
C149 H154 0.960 . S
C149 H155 0.959 . S
H150 C146 0.960 . S
H151 C146 0.961 . S
H152 C146 0.960 . S
H153 C149 0.960 . S
H154 C149 0.960 . S
H155 C149 0.959 . S
C156 N157 1.317 . S
C156 N158 1.348 . S
C156 C159 1.485 . S
N157 C156 1.317 . S
N157 N161 1.370 . S
N158 C156 1.348 . S
N158 C160 1.346 . S
C159 C156 1.485 . S
C159 H163 0.960 . S
C159 H164 0.961 . S
C159 H165 0.960 . S
C160 N158 1.346 . S
C160 N161 1.307 . S
C160 C162 1.486 . S
N161 N157 1.370 . S
N161 C160 1.307 . S
C162 C160 1.486 . S
C162 H166 0.960 . S
C162 H167 0.960 . S
C162 H168 0.959 . S
H163 C159 0.960 . S
H164 C159 0.961 . S
H165 C159 0.960 . S
H166 C162 0.960 . S
H167 C162 0.960 . S
H168 C162 0.959 . S
C169 N170 1.317 . S
C169 N171 1.348 . S
C169 C172 1.485 . S
N170 C169 1.317 . S
N170 N174 1.370 . S
N171 C169 1.348 . S
N171 C173 1.346 . S
C172 C169 1.485 . S
C172 H176 0.960 . S
C172 H177 0.961 . S
C172 H178 0.960 . S
C173 N171 1.346 . S
C173 N174 1.307 . S
C173 C175 1.486 . S
N174 N170 1.370 . S
N174 C173 1.307 . S
C175 C173 1.486 . S
C175 H179 0.960 . S
C175 H180 0.960 . S
C175 H181 0.959 . S
H176 C172 0.960 . S
H177 C172 0.961 . S
H178 C172 0.960 . S
H179 C175 0.960 . S
H180 C175 0.960 . S
H181 C175 0.959 . S
C182 N183 1.317 . S
C182 N184 1.348 . S
C182 C185 1.485 . S
N183 C182 1.317 . S
N183 N187 1.370 . S
N184 C182 1.348 . S
N184 C186 1.346 . S
C185 C182 1.485 . S
C185 H189 0.960 . S
C185 H190 0.961 . S
C185 H191 0.960 . S
C186 N184 1.346 . S
C186 N187 1.307 . S
C186 C188 1.486 . S
N187 N183 1.370 . S
N187 C186 1.307 . S
C188 C186 1.486 . S
C188 H192 0.960 . S
C188 H193 0.960 . S
C188 H194 0.959 . S
H189 C185 0.960 . S
H190 C185 0.961 . S
H191 C185 0.960 . S
H192 C188 0.960 . S
H193 C188 0.960 . S
H194 C188 0.959 . S
C195 N196 1.317 . S
C195 N197 1.348 . S
C195 C198 1.485 . S
N196 C195 1.317 . S
N196 N200 1.370 . S
N197 C195 1.348 . S
N197 C199 1.346 . S
C198 C195 1.485 . S
C198 H202 0.960 . S
C198 H203 0.961 1_545 S
C198 H204 0.960 . S
C199 N197 1.346 . S
C199 N200 1.307 . S
C199 C201 1.486 1_556 S
N200 N196 1.370 . S
N200 C199 1.307 . S
C201 C199 1.486 1_554 S
C201 H205 0.960 . S
C201 H206 0.960 . S
C201 H207 0.959 . S
H202 C198 0.960 . S
H203 C198 0.961 1_565 S
H204 C198 0.960 . S
H205 C201 0.960 . S
H206 C201 0.960 . S
H207 C201 0.959 . S
Li208 N225 1.990 . S
Li208 O268 1.956 . S
Li208 O269 1.970 . S
Li208 O270 1.961 1_554 S
Li209 N233 1.990 . S
Li209 O268 1.970 . S
Li209 O269 1.956 . S
Li209 O271 1.961 . S
Li210 N255 1.990 . S
Li210 O268 1.961 1_556 S
Li210 O270 1.956 . S
Li210 O271 1.970 1_556 S
Li211 N261 1.990 . S
Li211 O269 1.961 . S
Li211 O270 1.970 1_554 S
Li211 O271 1.956 . S
C212 C214 1.350 . S
C212 C215 1.353 1_554 S
C212 O268 1.325 . S
N213 C216 1.314 1_556 S
N213 C217 1.279 . S
C214 C212 1.350 . S
C214 C216 1.353 . S
C214 H272 0.929 . S
C215 C212 1.353 1_556 S
C215 C217 1.358 . S
C215 H273 0.930 . S
C216 N213 1.314 1_554 S
C216 C214 1.353 . S
C216 H274 0.930 . S
C217 N213 1.279 . S
C217 C215 1.358 . S
C217 H275 0.930 . S
C218 C221 1.348 . S
C218 C222 1.356 . S
C218 O269 1.325 . S
C219 N220 1.279 . S
C219 C222 1.358 . S
C219 H276 0.930 . S
N220 C219 1.279 . S
N220 C223 1.314 . S
C221 C218 1.348 . S
C221 C223 1.353 . S
C221 H277 0.929 . S
C222 C218 1.356 . S
C222 C219 1.358 . S
C222 H278 0.930 . S
C223 N220 1.314 . S
C223 C221 1.353 . S
C223 H279 0.930 . S
C224 N225 1.307 1_556 S
C224 C229 1.358 . S
C224 H230 0.934 . S
N225 Li208 1.990 . S
N225 C224 1.307 1_554 S
N225 C227 1.279 . S
C226 C227 1.358 . S
C226 C228 1.355 . S
C226 H280 0.930 . S
C227 N225 1.279 . S
C227 C226 1.358 . S
C227 H231 0.930 . S
C228 C226 1.355 . S
C228 C229 1.348 1_554 S
C229 C224 1.358 . S
C229 C228 1.348 1_556 S
C229 H281 0.929 . S
H230 C224 0.934 . S
H231 C227 0.930 . S
C232 N233 1.314 . S
C232 C234 1.353 . S
C232 H238 0.930 . S
N233 Li209 1.990 . S
N233 C232 1.314 . S
N233 C236 1.279 . S
C234 C232 1.353 . S
C234 C237 1.348 . S
C234 H282 0.929 . S
C235 C236 1.358 . S
C235 C237 1.356 . S
C235 H283 0.930 . S
C236 N233 1.279 . S
C236 C235 1.358 . S
C236 H239 0.930 . S
C237 C234 1.348 . S
C237 C235 1.356 . S
H238 C232 0.930 . S
H239 C236 0.930 . S
C240 C242 1.348 . S
C240 C243 1.356 . S
C240 O270 1.325 . S
N241 C244 1.314 . S
N241 C245 1.279 . S
C242 C240 1.348 . S
C242 C244 1.353 . S
C242 H284 0.929 . S
C243 C240 1.356 . S
C243 C245 1.358 . S
C243 H285 0.930 . S
C244 N241 1.314 . S
C244 C242 1.353 . S
C244 H286 0.930 . S
C245 N241 1.279 . S
C245 C243 1.358 . S
C245 H287 0.930 . S
C246 C247 1.348 1_554 S
C246 C248 1.356 . S
C246 O271 1.325 . S
C247 C246 1.348 1_556 S
C247 C249 1.347 1_556 S
C247 H288 0.929 . S
C248 C246 1.356 . S
C248 C250 1.358 . S
C248 H289 0.930 . S
C249 C247 1.347 1_554 S
C249 N251 1.340 . S
C249 H290 0.908 1_554 S
C250 C248 1.358 . S
C250 N251 1.279 . S
C250 H291 0.930 . S
N251 C249 1.340 . S
N251 C250 1.279 . S
C252 C254 1.353 . S
C252 N255 1.314 . S
C252 H258 0.930 . S
C253 N255 1.279 . S
C253 C256 1.358 . S
C253 H259 0.930 . S
C254 C252 1.353 . S
C254 C257 1.348 . S
C254 H292 0.929 . S
N255 Li210 1.990 . S
N255 C252 1.314 . S
N255 C253 1.279 . S
C256 C253 1.358 . S
C256 C257 1.356 . S
C256 H293 0.930 . S
C257 C254 1.348 . S
C257 C256 1.356 . S
H258 C252 0.930 . S
H259 C253 0.930 . S
C260 N261 1.314 . S
C260 C262 1.353 . S
C260 H266 0.930 . S
N261 Li211 1.990 . S
N261 C260 1.314 . S
N261 C264 1.279 . S
C262 C260 1.353 . S
C262 C265 1.348 . S
C262 H294 0.929 . S
C263 C264 1.358 . S
C263 C265 1.356 . S
C263 H295 0.930 . S
C264 N261 1.279 . S
C264 C263 1.358 . S
C264 H267 0.930 . S
C265 C262 1.348 . S
C265 C263 1.356 . S
H266 C260 0.930 . S
H267 C264 0.930 . S
O268 Li208 1.956 . S
O268 Li209 1.970 . S
O268 Li210 1.961 1_554 S
O268 C212 1.325 . S
O269 Li208 1.970 . S
O269 Li209 1.956 . S
O269 Li211 1.961 . S
O269 C218 1.325 . S
O270 Li208 1.961 1_556 S
O270 Li210 1.956 . S
O270 Li211 1.970 1_556 S
O270 C240 1.325 . S
O271 Li209 1.961 . S
O271 Li210 1.970 1_554 S
O271 Li211 1.956 . S
O271 C246 1.325 . S
H272 C214 0.929 . S
H273 C215 0.930 . S
H274 C216 0.930 . S
H275 C217 0.930 . S
H276 C219 0.930 . S
H277 C221 0.929 . S
H278 C222 0.930 . S
H279 C223 0.930 . S
H280 C226 0.930 . S
H281 C229 0.929 . S
H282 C234 0.929 . S
H283 C235 0.930 . S
H284 C242 0.929 . S
H285 C243 0.930 . S
H286 C244 0.930 . S
H287 C245 0.930 . S
H288 C247 0.929 . S
H289 C248 0.930 . S
H290 C249 0.908 1_556 S
H291 C250 0.930 . S
H292 C254 0.929 . S
H293 C256 0.930 . S
H294 C262 0.929 . S
H295 C263 0.930 . S
Li296 N313 1.990 . S
Li296 O356 1.956 . S
Li296 O357 1.970 . S
Li296 O358 1.961 . S
Li297 N321 1.990 . S
Li297 O356 1.970 . S
Li297 O357 1.956 . S
Li297 O359 1.961 . S
Li298 N343 1.990 . S
Li298 O356 1.961 . S
Li298 O358 1.956 . S
Li298 O359 1.970 . S
Li299 N349 1.990 . S
Li299 O357 1.961 . S
Li299 O358 1.970 . S
Li299 O359 1.956 . S
C300 C302 1.348 . S
C300 C303 1.356 . S
C300 O356 1.325 . S
N301 C304 1.314 . S
N301 C305 1.279 . S
C302 C300 1.348 . S
C302 C304 1.353 . S
C302 H360 0.929 . S
C303 C300 1.356 . S
C303 C305 1.358 . S
C303 H361 0.930 . S
C304 N301 1.314 . S
C304 C302 1.353 . S
C304 H362 0.930 . S
C305 N301 1.279 . S
C305 C303 1.358 . S
C305 H363 0.930 . S
C306 C309 1.348 . S
C306 C310 1.356 . S
C306 O357 1.325 . S
C307 N308 1.279 . S
C307 C310 1.358 . S
C307 H364 0.930 . S
N308 C307 1.279 . S
N308 C311 1.314 . S
C309 C306 1.348 . S
C309 C311 1.353 . S
C309 H365 0.929 . S
C310 C306 1.356 . S
C310 C307 1.358 . S
C310 H366 0.930 . S
C311 N308 1.314 . S
C311 C309 1.353 . S
C311 H367 0.930 . S
C312 N313 1.314 . S
C312 C317 1.353 . S
C312 H318 0.930 . S
N313 Li296 1.990 . S
N313 C312 1.314 . S
N313 C315 1.279 . S
C314 C315 1.358 . S
C314 C316 1.356 . S
C314 H368 0.930 . S
C315 N313 1.279 . S
C315 C314 1.358 . S
C315 H319 0.930 . S
C316 C314 1.356 . S
C316 C317 1.348 . S
C317 C312 1.353 . S
C317 C316 1.348 . S
C317 H369 0.929 . S
H318 C312 0.930 . S
H319 C315 0.930 . S
C320 N321 1.314 . S
C320 C322 1.353 . S
C320 H326 0.930 . S
N321 Li297 1.990 . S
N321 C320 1.314 . S
N321 C324 1.279 . S
C322 C320 1.353 . S
C322 C325 1.348 . S
C322 H370 0.929 . S
C323 C324 1.358 . S
C323 C325 1.356 . S
C323 H371 0.930 . S
C324 N321 1.279 . S
C324 C323 1.358 . S
C324 H327 0.930 . S
C325 C322 1.348 . S
C325 C323 1.356 . S
H326 C320 0.930 . S
H327 C324 0.930 . S
C328 C330 1.348 . S
C328 C331 1.356 . S
C328 O358 1.325 . S
N329 C332 1.314 . S
N329 C333 1.279 . S
C330 C328 1.348 . S
C330 C332 1.353 . S
C330 H372 0.929 . S
C331 C328 1.356 . S
C331 C333 1.358 . S
C331 H373 0.930 . S
C332 N329 1.314 . S
C332 C330 1.353 . S
C332 H374 0.930 . S
C333 N329 1.279 . S
C333 C331 1.358 . S
C333 H375 0.930 . S
C334 C335 1.348 . S
C334 C336 1.356 . S
C334 O359 1.325 . S
C335 C334 1.348 . S
C335 C337 1.353 . S
C335 H376 0.929 . S
C336 C334 1.356 . S
C336 C338 1.358 . S
C336 H377 0.930 . S
C337 C335 1.353 . S
C337 N339 1.314 . S
C337 H378 0.930 . S
C338 C336 1.358 . S
C338 N339 1.279 . S
C338 H379 0.930 . S
N339 C337 1.314 . S
N339 C338 1.279 . S
C340 C342 1.353 . S
C340 N343 1.314 . S
C340 H346 0.930 . S
C341 N343 1.279 . S
C341 C344 1.358 . S
C341 H347 0.930 . S
C342 C340 1.353 . S
C342 C345 1.348 . S
C342 H380 0.929 . S
N343 Li298 1.990 . S
N343 C340 1.314 . S
N343 C341 1.279 . S
C344 C341 1.358 . S
C344 C345 1.356 . S
C344 H381 0.930 . S
C345 C342 1.348 . S
C345 C344 1.356 . S
H346 C340 0.930 . S
H347 C341 0.930 . S
C348 N349 1.314 . S
C348 C350 1.353 . S
C348 H354 0.930 . S
N349 Li299 1.990 . S
N349 C348 1.314 . S
N349 C352 1.279 . S
C350 C348 1.353 . S
C350 C353 1.348 . S
C350 H382 0.929 . S
C351 C352 1.358 . S
C351 C353 1.356 . S
C351 H383 0.930 . S
C352 N349 1.279 . S
C352 C351 1.358 . S
C352 H355 0.930 . S
C353 C350 1.348 . S
C353 C351 1.356 . S
H354 C348 0.930 . S
H355 C352 0.930 . S
O356 Li296 1.956 . S
O356 Li297 1.970 . S
O356 Li298 1.961 . S
O356 C300 1.325 . S
O357 Li296 1.970 . S
O357 Li297 1.956 . S
O357 Li299 1.961 . S
O357 C306 1.325 . S
O358 Li296 1.961 . S
O358 Li298 1.956 . S
O358 Li299 1.970 . S
O358 C328 1.325 . S
O359 Li297 1.961 . S
O359 Li298 1.970 . S
O359 Li299 1.956 . S
O359 C334 1.325 . S
H360 C302 0.929 . S
H361 C303 0.930 . S
H362 C304 0.930 . S
H363 C305 0.930 . S
H364 C307 0.930 . S
H365 C309 0.929 . S
H366 C310 0.930 . S
H367 C311 0.930 . S
H368 C314 0.930 . S
H369 C317 0.929 . S
H370 C322 0.929 . S
H371 C323 0.930 . S
H372 C330 0.929 . S
H373 C331 0.930 . S
H374 C332 0.930 . S
H375 C333 0.930 . S
H376 C335 0.929 . S
H377 C336 0.930 . S
H378 C337 0.930 . S
H379 C338 0.930 . S
H380 C342 0.929 . S
H381 C344 0.930 . S
H382 C350 0.929 . S
H383 C351 0.930 . S
Li384 N401 1.990 1_554 S
Li384 O444 1.956 . S
Li384 O445 1.970 . S
Li384 O446 1.961 1_554 S
Li385 N409 1.990 . S
Li385 O444 1.970 . S
Li385 O445 1.956 . S
Li385 O447 1.961 . S
Li386 N431 1.990 . S
Li386 O444 1.961 1_556 S
Li386 O446 1.956 . S
Li386 O447 1.970 1_556 S
Li387 N437 1.990 . S
Li387 O445 1.961 . S
Li387 O446 1.970 1_554 S
Li387 O447 1.956 . S
C388 C390 1.348 . S
C388 C391 1.356 1_554 S
C388 O444 1.325 . S
N389 C392 1.350 . S
N389 C393 1.251 1_554 S
C390 C388 1.348 . S
C390 C392 1.353 . S
C390 H448 0.929 . S
C391 C388 1.356 1_556 S
C391 C393 1.358 . S
C391 H449 0.930 . S
C392 N389 1.350 . S
C392 C390 1.353 . S
C392 H450 0.930 . S
C393 N389 1.251 1_556 S
C393 C391 1.358 . S
C393 H451 0.930 . S
C394 C397 1.348 . S
C394 C398 1.356 . S
C394 O445 1.325 . S
C395 N396 1.279 . S
C395 C398 1.358 . S
C395 H452 0.930 . S
N396 C395 1.279 . S
N396 C399 1.314 . S
C397 C394 1.348 . S
C397 C399 1.353 . S
C397 H453 0.929 . S
C398 C394 1.356 . S
C398 C395 1.358 . S
C398 H454 0.930 . S
C399 N396 1.314 . S
C399 C397 1.353 . S
C399 H455 0.930 . S
C400 N401 1.314 . S
C400 C405 1.353 . S
C400 H406 0.930 . S
N401 Li384 1.990 1_556 S
N401 C400 1.314 . S
N401 C403 1.279 . S
C402 C403 1.358 . S
C402 C404 1.356 . S
C402 H456 0.930 . S
C403 N401 1.279 . S
C403 C402 1.358 . S
C403 H407 0.922 1_556 S
C404 C402 1.356 . S
C404 C405 1.348 . S
C405 C400 1.353 . S
C405 C404 1.348 . S
C405 H457 0.929 . S
H406 C400 0.930 . S
H407 C403 0.922 1_554 S
C408 N409 1.314 . S
C408 C410 1.353 . S
C408 H414 0.930 . S
N409 Li385 1.990 . S
N409 C408 1.314 . S
N409 C412 1.279 . S
C410 C408 1.353 . S
C410 C413 1.348 . S
C410 H458 0.929 . S
C411 C412 1.358 . S
C411 C413 1.356 . S
C411 H459 0.930 . S
C412 N409 1.279 . S
C412 C411 1.358 . S
C412 H415 0.930 . S
C413 C410 1.348 . S
C413 C411 1.356 . S
H414 C408 0.930 . S
H415 C412 0.930 . S
C416 C418 1.348 . S
C416 C419 1.356 . S
C416 O446 1.325 . S
N417 C420 1.314 . S
N417 C421 1.279 . S
C418 C416 1.348 . S
C418 C420 1.353 . S
C418 H460 0.929 . S
C419 C416 1.356 . S
C419 C421 1.358 . S
C419 H461 0.930 . S
C420 N417 1.314 . S
C420 C418 1.353 . S
C420 H462 0.930 . S
C421 N417 1.279 . S
C421 C419 1.358 . S
C421 H463 0.930 . S
C422 C423 1.348 . S
C422 C424 1.356 . S
C422 O447 1.325 . S
C423 C422 1.348 . S
C423 C425 1.353 . S
C423 H464 0.929 1_554 S
C424 C422 1.356 . S
C424 C426 1.358 . S
C424 H465 0.930 . S
C425 C423 1.353 . S
C425 N427 1.314 . S
C425 H466 0.934 . S
C426 C424 1.358 . S
C426 N427 1.279 . S
C426 H467 0.930 . S
N427 C425 1.314 . S
N427 C426 1.279 . S
C428 C430 1.353 . S
C428 N431 1.314 . S
C428 H434 0.930 . S
C429 N431 1.279 . S
C429 C432 1.358 . S
C429 H435 0.930 . S
C430 C428 1.353 . S
C430 C433 1.348 . S
C430 H468 0.929 . S
N431 Li386 1.990 . S
N431 C428 1.314 . S
N431 C429 1.279 . S
C432 C429 1.358 . S
C432 C433 1.356 . S
C432 H469 0.930 . S
C433 C430 1.348 . S
C433 C432 1.356 . S
H434 C428 0.930 . S
H435 C429 0.930 . S
C436 N437 1.314 . S
C436 C438 1.353 . S
C436 H442 0.930 . S
N437 Li387 1.990 . S
N437 C436 1.314 . S
N437 C440 1.279 . S
C438 C436 1.353 . S
C438 C441 1.348 . S
C438 H470 0.929 . S
C439 C440 1.358 . S
C439 C441 1.356 . S
C439 H471 0.930 . S
C440 N437 1.279 . S
C440 C439 1.358 . S
C440 H443 0.930 . S
C441 C438 1.348 . S
C441 C439 1.356 . S
H442 C436 0.930 . S
H443 C440 0.930 . S
O444 Li384 1.956 . S
O444 Li385 1.970 . S
O444 Li386 1.961 1_554 S
O444 C388 1.325 . S
O445 Li384 1.970 . S
O445 Li385 1.956 . S
O445 Li387 1.961 . S
O445 C394 1.325 . S
O446 Li384 1.961 1_556 S
O446 Li386 1.956 . S
O446 Li387 1.970 1_556 S
O446 C416 1.325 . S
O447 Li385 1.961 . S
O447 Li386 1.970 1_554 S
O447 Li387 1.956 . S
O447 C422 1.325 . S
H448 C390 0.929 . S
H449 C391 0.930 . S
H450 C392 0.930 . S
H451 C393 0.930 . S
H452 C395 0.930 . S
H453 C397 0.929 . S
H454 C398 0.930 . S
H455 C399 0.930 . S
H456 C402 0.930 . S
H457 C405 0.929 . S
H458 C410 0.929 . S
H459 C411 0.930 . S
H460 C418 0.929 . S
H461 C419 0.930 . S
H462 C420 0.930 . S
H463 C421 0.930 . S
H464 C423 0.929 1_556 S
H465 C424 0.930 . S
H466 C425 0.934 . S
H467 C426 0.930 . S
H468 C430 0.929 . S
H469 C432 0.930 . S
H470 C438 0.929 . S
H471 C439 0.930 . S
Li472 N489 1.990 . S
Li472 O532 1.956 . S
Li472 O533 1.970 . S
Li472 O534 1.961 . S
Li473 N497 1.990 . S
Li473 O532 1.970 . S
Li473 O533 1.956 . S
Li473 O535 1.961 1_545 S
Li474 N519 1.990 . S
Li474 O532 1.961 . S
Li474 O534 1.956 . S
Li474 O535 1.970 1_545 S
Li475 N525 1.990 . S
Li475 O533 1.961 1_565 S
Li475 O534 1.970 1_565 S
Li475 O535 1.956 . S
C476 C478 1.348 . S
C476 C479 1.356 . S
C476 O532 1.325 . S
N477 C480 1.314 . S
N477 C481 1.279 . S
C478 C476 1.348 . S
C478 C480 1.353 . S
C478 H536 0.929 . S
C479 C476 1.356 . S
C479 C481 1.358 . S
C479 H537 0.930 . S
C480 N477 1.314 . S
C480 C478 1.353 . S
C480 H538 0.930 . S
C481 N477 1.279 . S
C481 C479 1.358 . S
C481 H539 0.930 . S
C482 C485 1.348 . S
C482 C486 1.356 1_545 S
C482 O533 1.325 . S
C483 N484 1.276 1_565 S
C483 C486 1.358 . S
C483 H540 0.930 . S
N484 C483 1.276 1_545 S
N484 C487 1.318 . S
C485 C482 1.348 . S
C485 C487 1.353 . S
C485 H541 0.929 . S
C486 C482 1.356 1_565 S
C486 C483 1.358 . S
C486 H542 0.930 . S
C487 N484 1.318 . S
C487 C485 1.353 . S
C487 H543 0.930 . S
C488 N489 1.314 . S
C488 C493 1.353 . S
C488 H494 0.930 . S
N489 Li472 1.990 . S
N489 C488 1.314 . S
N489 C491 1.279 . S
C490 C491 1.358 . S
C490 C492 1.356 . S
C490 H544 0.930 . S
C491 N489 1.279 . S
C491 C490 1.358 . S
C491 H495 0.930 . S
C492 C490 1.356 . S
C492 C493 1.348 . S
C493 C488 1.353 . S
C493 C492 1.348 . S
C493 H545 0.929 . S
H494 C488 0.930 . S
H495 C491 0.930 . S
C496 N497 1.314 1_565 S
C496 C498 1.353 . S
C496 H502 0.930 . S
N497 Li473 1.990 . S
N497 C496 1.314 1_545 S
N497 C500 1.279 . S
C498 C496 1.353 . S
C498 C501 1.348 1_565 S
C498 H546 0.929 . S
C499 C500 1.358 . S
C499 C501 1.356 . S
C499 H547 0.930 . S
C500 N497 1.279 . S
C500 C499 1.358 . S
C500 H503 0.930 . S
C501 C498 1.348 1_545 S
C501 C499 1.356 . S
H502 C496 0.930 . S
H503 C500 0.930 . S
C504 C506 1.348 1_545 S
C504 C507 1.356 . S
C504 O534 1.325 . S
N505 C508 1.314 1_545 S
N505 C509 1.279 . S
C506 C504 1.348 1_565 S
C506 C508 1.353 . S
C506 H548 0.929 . S
C507 C504 1.356 . S
C507 C509 1.358 . S
C507 H549 0.930 . S
C508 N505 1.314 1_565 S
C508 C506 1.353 . S
C508 H550 0.930 . S
C509 N505 1.279 . S
C509 C507 1.358 . S
C509 H551 0.930 . S
C510 C511 1.348 . S
C510 C512 1.356 . S
C510 O535 1.325 . S
C511 C510 1.348 . S
C511 C513 1.353 . S
C511 H552 0.929 . S
C512 C510 1.356 . S
C512 C514 1.358 . S
C512 H553 0.930 . S
C513 C511 1.353 . S
C513 N515 1.314 . S
C513 H554 0.930 . S
C514 C512 1.358 . S
C514 N515 1.279 . S
C514 H555 0.930 . S
N515 C513 1.314 . S
N515 C514 1.279 . S
C516 C518 1.353 . S
C516 N519 1.314 . S
C516 H522 0.930 . S
C517 N519 1.274 1_565 S
C517 C520 1.356 . S
C517 H523 0.943 . S
C518 C516 1.353 . S
C518 C521 1.348 . S
C518 H556 0.929 . S
N519 Li474 1.990 . S
N519 C516 1.314 . S
N519 C517 1.274 1_545 S
C520 C517 1.356 . S
C520 C521 1.356 1_565 S
C520 H557 0.930 . S
C521 C518 1.348 . S
C521 C520 1.356 1_545 S
H522 C516 0.930 . S
H523 C517 0.943 . S
C524 N525 1.314 . S
C524 C526 1.353 . S
C524 H530 0.930 . S
N525 Li475 1.990 . S
N525 C524 1.314 . S
N525 C528 1.279 . S
C526 C524 1.353 . S
C526 C529 1.348 . S
C526 H558 0.929 . S
C527 C528 1.358 . S
C527 C529 1.356 . S
C527 H559 0.930 . S
C528 N525 1.279 . S
C528 C527 1.358 . S
C528 H531 0.930 . S
C529 C526 1.348 . S
C529 C527 1.356 . S
H530 C524 0.930 . S
H531 C528 0.930 . S
O532 Li472 1.956 . S
O532 Li473 1.970 . S
O532 Li474 1.961 . S
O532 C476 1.325 . S
O533 Li472 1.970 . S
O533 Li473 1.956 . S
O533 Li475 1.961 1_545 S
O533 C482 1.325 . S
O534 Li472 1.961 . S
O534 Li474 1.956 . S
O534 Li475 1.970 1_545 S
O534 C504 1.325 . S
O535 Li473 1.961 1_565 S
O535 Li474 1.970 1_565 S
O535 Li475 1.956 . S
O535 C510 1.325 . S
H536 C478 0.929 . S
H537 C479 0.930 . S
H538 C480 0.930 . S
H539 C481 0.930 . S
H540 C483 0.930 . S
H541 C485 0.929 . S
H542 C486 0.930 . S
H543 C487 0.930 . S
H544 C490 0.930 . S
H545 C493 0.929 . S
H546 C498 0.929 . S
H547 C499 0.930 . S
H548 C506 0.929 . S
H549 C507 0.930 . S
H550 C508 0.930 . S
H551 C509 0.930 . S
H552 C511 0.929 . S
H553 C512 0.930 . S
H554 C513 0.930 . S
H555 C514 0.930 . S
H556 C518 0.929 . S
H557 C520 0.930 . S
H558 C526 0.929 . S
H559 C527 0.930 . S
Li560 N577 1.990 . S
Li560 O620 1.956 . S
Li560 O621 1.970 . S
Li560 O622 1.961 . S
Li561 N585 1.990 . S
Li561 O620 1.970 . S
Li561 O621 1.956 . S
Li561 O623 1.961 . S
Li562 N607 1.990 . S
Li562 O620 1.961 . S
Li562 O622 1.956 . S
Li562 O623 1.970 . S
Li563 N613 1.990 . S
Li563 O621 1.961 . S
Li563 O622 1.970 . S
Li563 O623 1.956 . S
C564 C566 1.348 . S
C564 C567 1.356 . S
C564 O620 1.325 . S
N565 C568 1.314 . S
N565 C569 1.279 . S
C566 C564 1.348 . S
C566 C568 1.353 . S
C566 H624 0.929 . S
C567 C564 1.356 . S
C567 C569 1.358 . S
C567 H625 0.930 . S
C568 N565 1.314 . S
C568 C566 1.353 . S
C568 H626 0.930 . S
C569 N565 1.279 . S
C569 C567 1.358 . S
C569 H627 0.930 . S
C570 C573 1.348 . S
C570 C574 1.356 . S
C570 O621 1.325 . S
C571 N572 1.279 . S
C571 C574 1.358 . S
C571 H628 0.930 . S
N572 C571 1.279 . S
N572 C575 1.314 . S
C573 C570 1.348 . S
C573 C575 1.353 . S
C573 H629 0.929 . S
C574 C570 1.356 . S
C574 C571 1.358 . S
C574 H630 0.930 . S
C575 N572 1.314 . S
C575 C573 1.353 . S
C575 H631 0.930 . S
C576 N577 1.314 . S
C576 C581 1.353 . S
C576 H582 0.930 . S
N577 Li560 1.990 . S
N577 C576 1.314 . S
N577 C579 1.279 . S
C578 C579 1.358 . S
C578 C580 1.356 . S
C578 H632 0.930 . S
C579 N577 1.279 . S
C579 C578 1.358 . S
C579 H583 0.930 . S
C580 C578 1.356 . S
C580 C581 1.348 . S
C581 C576 1.353 . S
C581 C580 1.348 . S
C581 H633 0.929 . S
H582 C576 0.930 . S
H583 C579 0.930 . S
C584 N585 1.314 . S
C584 C586 1.353 . S
C584 H590 0.930 . S
N585 Li561 1.990 . S
N585 C584 1.314 . S
N585 C588 1.279 . S
C586 C584 1.353 . S
C586 C589 1.348 . S
C586 H634 0.929 . S
C587 C588 1.358 . S
C587 C589 1.356 . S
C587 H635 0.930 . S
C588 N585 1.279 . S
C588 C587 1.358 . S
C588 H591 0.930 . S
C589 C586 1.348 . S
C589 C587 1.356 . S
H590 C584 0.930 . S
H591 C588 0.930 . S
C592 C594 1.348 . S
C592 C595 1.356 . S
C592 O622 1.325 . S
N593 C596 1.314 . S
N593 C597 1.279 . S
C594 C592 1.348 . S
C594 C596 1.353 . S
C594 H636 0.929 . S
C595 C592 1.356 . S
C595 C597 1.358 . S
C595 H637 0.930 . S
C596 N593 1.314 . S
C596 C594 1.353 . S
C596 H638 0.930 . S
C597 N593 1.279 . S
C597 C595 1.358 . S
C597 H639 0.930 . S
C598 C599 1.348 . S
C598 C600 1.356 . S
C598 O623 1.325 . S
C599 C598 1.348 . S
C599 C601 1.353 . S
C599 H640 0.929 . S
C600 C598 1.356 . S
C600 C602 1.358 . S
C600 H641 0.930 . S
C601 C599 1.353 . S
C601 N603 1.314 . S
C601 H642 0.930 . S
C602 C600 1.358 . S
C602 N603 1.279 . S
C602 H643 0.930 . S
N603 C601 1.314 . S
N603 C602 1.279 . S
C604 C606 1.353 . S
C604 N607 1.314 . S
C604 H610 0.930 . S
C605 N607 1.279 . S
C605 C608 1.358 . S
C605 H611 0.930 . S
C606 C604 1.353 . S
C606 C609 1.348 . S
C606 H644 0.929 . S
N607 Li562 1.990 . S
N607 C604 1.314 . S
N607 C605 1.279 . S
C608 C605 1.358 . S
C608 C609 1.356 . S
C608 H645 0.930 . S
C609 C606 1.348 . S
C609 C608 1.356 . S
H610 C604 0.930 . S
H611 C605 0.930 . S
C612 N613 1.314 . S
C612 C614 1.353 . S
C612 H618 0.930 . S
N613 Li563 1.990 . S
N613 C612 1.314 . S
N613 C616 1.279 . S
C614 C612 1.353 . S
C614 C617 1.348 . S
C614 H646 0.929 . S
C615 C616 1.358 . S
C615 C617 1.356 . S
C615 H647 0.930 . S
C616 N613 1.279 . S
C616 C615 1.358 . S
C616 H619 0.930 . S
C617 C614 1.348 . S
C617 C615 1.356 . S
H618 C612 0.930 . S
H619 C616 0.930 . S
O620 Li560 1.956 . S
O620 Li561 1.970 . S
O620 Li562 1.961 . S
O620 C564 1.325 . S
O621 Li560 1.970 . S
O621 Li561 1.956 . S
O621 Li563 1.961 . S
O621 C570 1.325 . S
O622 Li560 1.961 . S
O622 Li562 1.956 . S
O622 Li563 1.970 . S
O622 C592 1.325 . S
O623 Li561 1.961 . S
O623 Li562 1.970 . S
O623 Li563 1.956 . S
O623 C598 1.325 . S
H624 C566 0.929 . S
H625 C567 0.930 . S
H626 C568 0.930 . S
H627 C569 0.930 . S
H628 C571 0.930 . S
H629 C573 0.929 . S
H630 C574 0.930 . S
H631 C575 0.930 . S
H632 C578 0.930 . S
H633 C581 0.929 . S
H634 C586 0.929 . S
H635 C587 0.930 . S
H636 C594 0.929 . S
H637 C595 0.930 . S
H638 C596 0.930 . S
H639 C597 0.930 . S
H640 C599 0.929 . S
H641 C600 0.930 . S
H642 C601 0.930 . S
H643 C602 0.930 . S
H644 C606 0.929 . S
H645 C608 0.930 . S
H646 C614 0.929 . S
H647 C615 0.930 . S
Li648 N665 1.990 . S
Li648 O708 1.956 . S
Li648 O709 1.970 . S
Li648 O710 1.961 . S
Li649 N673 1.990 . S
Li649 O708 1.970 . S
Li649 O709 1.956 . S
Li649 O711 1.961 . S
Li650 N695 1.990 . S
Li650 O708 1.961 . S
Li650 O710 1.956 . S
Li650 O711 1.970 . S
Li651 N701 1.990 . S
Li651 O709 1.961 . S
Li651 O710 1.970 . S
Li651 O711 1.956 . S
C652 C654 1.348 . S
C652 C655 1.356 . S
C652 O708 1.325 . S
N653 C656 1.314 . S
N653 C657 1.279 . S
C654 C652 1.348 . S
C654 C656 1.353 . S
C654 H712 0.929 . S
C655 C652 1.356 . S
C655 C657 1.358 . S
C655 H713 0.930 . S
C656 N653 1.314 . S
C656 C654 1.353 . S
C656 H714 0.930 . S
C657 N653 1.279 . S
C657 C655 1.358 . S
C657 H715 0.930 . S
C658 C661 1.348 . S
C658 C662 1.356 . S
C658 O709 1.325 . S
C659 N660 1.279 . S
C659 C662 1.358 . S
C659 H716 0.930 . S
N660 C659 1.279 . S
N660 C663 1.314 . S
C661 C658 1.348 . S
C661 C663 1.353 . S
C661 H717 0.929 . S
C662 C658 1.356 . S
C662 C659 1.358 . S
C662 H718 0.930 . S
C663 N660 1.314 . S
C663 C661 1.353 . S
C663 H719 0.930 . S
C664 N665 1.314 . S
C664 C669 1.353 . S
C664 H670 0.930 . S
N665 Li648 1.990 . S
N665 C664 1.314 . S
N665 C667 1.279 . S
C666 C667 1.358 . S
C666 C668 1.356 . S
C666 H720 0.930 . S
C667 N665 1.279 . S
C667 C666 1.358 . S
C667 H671 0.930 . S
C668 C666 1.356 . S
C668 C669 1.348 . S
C669 C664 1.353 . S
C669 C668 1.348 . S
C669 H721 0.929 . S
H670 C664 0.930 . S
H671 C667 0.930 . S
C672 N673 1.314 . S
C672 C674 1.353 . S
C672 H678 0.930 . S
N673 Li649 1.990 . S
N673 C672 1.314 . S
N673 C676 1.279 . S
C674 C672 1.353 . S
C674 C677 1.348 . S
C674 H722 0.929 . S
C675 C676 1.358 . S
C675 C677 1.356 . S
C675 H723 0.930 . S
C676 N673 1.279 . S
C676 C675 1.358 . S
C676 H679 0.930 . S
C677 C674 1.348 . S
C677 C675 1.356 . S
H678 C672 0.930 . S
H679 C676 0.930 . S
C680 C682 1.348 . S
C680 C683 1.356 . S
C680 O710 1.325 . S
N681 C684 1.314 . S
N681 C685 1.279 . S
C682 C680 1.348 . S
C682 C684 1.353 . S
C682 H724 0.929 . S
C683 C680 1.356 . S
C683 C685 1.358 . S
C683 H725 0.930 . S
C684 N681 1.314 . S
C684 C682 1.353 . S
C684 H726 0.930 . S
C685 N681 1.279 . S
C685 C683 1.358 . S
C685 H727 0.930 . S
C686 C687 1.348 . S
C686 C688 1.356 . S
C686 O711 1.325 . S
C687 C686 1.348 . S
C687 C689 1.353 . S
C687 H728 0.929 . S
C688 C686 1.356 . S
C688 C690 1.358 . S
C688 H729 0.930 . S
C689 C687 1.353 . S
C689 N691 1.314 . S
C689 H730 0.930 . S
C690 C688 1.358 . S
C690 N691 1.279 . S
C690 H731 0.930 . S
N691 C689 1.314 . S
N691 C690 1.279 . S
C692 C694 1.353 . S
C692 N695 1.314 . S
C692 H698 0.930 . S
C693 N695 1.279 . S
C693 C696 1.358 . S
C693 H699 0.930 . S
C694 C692 1.353 . S
C694 C697 1.348 . S
C694 H732 0.929 . S
N695 Li650 1.990 . S
N695 C692 1.314 . S
N695 C693 1.279 . S
C696 C693 1.358 . S
C696 C697 1.356 . S
C696 H733 0.930 . S
C697 C694 1.348 . S
C697 C696 1.356 . S
H698 C692 0.930 . S
H699 C693 0.930 . S
C700 N701 1.314 . S
C700 C702 1.353 . S
C700 H706 0.930 . S
N701 Li651 1.990 . S
N701 C700 1.314 . S
N701 C704 1.279 . S
C702 C700 1.353 . S
C702 C705 1.348 . S
C702 H734 0.929 . S
C703 C704 1.358 . S
C703 C705 1.356 . S
C703 H735 0.930 . S
C704 N701 1.279 . S
C704 C703 1.358 . S
C704 H707 0.930 . S
C705 C702 1.348 . S
C705 C703 1.356 . S
H706 C700 0.930 . S
H707 C704 0.930 . S
O708 Li648 1.956 . S
O708 Li649 1.970 . S
O708 Li650 1.961 . S
O708 C652 1.325 . S
O709 Li648 1.970 . S
O709 Li649 1.956 . S
O709 Li651 1.961 . S
O709 C658 1.325 . S
O710 Li648 1.961 . S
O710 Li650 1.956 . S
O710 Li651 1.970 . S
O710 C680 1.325 . S
O711 Li649 1.961 . S
O711 Li650 1.970 . S
O711 Li651 1.956 . S
O711 C686 1.325 . S
H712 C654 0.929 . S
H713 C655 0.930 . S
H714 C656 0.930 . S
H715 C657 0.930 . S
H716 C659 0.930 . S
H717 C661 0.929 . S
H718 C662 0.930 . S
H719 C663 0.930 . S
H720 C666 0.930 . S
H721 C669 0.929 . S
H722 C674 0.929 . S
H723 C675 0.930 . S
H724 C682 0.929 . S
H725 C683 0.930 . S
H726 C684 0.930 . S
H727 C685 0.930 . S
H728 C687 0.929 . S
H729 C688 0.930 . S
H730 C689 0.930 . S
H731 C690 0.930 . S
H732 C694 0.929 . S
H733 C696 0.930 . S
H734 C702 0.929 . S
H735 C703 0.930 . S
Li736 N753 1.990 . S
Li736 O796 1.956 . S
Li736 O797 1.970 . S
Li736 O798 1.961 . S
Li737 N761 1.990 . S
Li737 O796 1.970 . S
Li737 O797 1.956 . S
Li737 O799 1.961 . S
Li738 N783 1.990 . S
Li738 O796 1.961 . S
Li738 O798 1.956 . S
Li738 O799 1.970 . S
Li739 N789 1.990 . S
Li739 O797 1.961 . S
Li739 O798 1.970 . S
Li739 O799 1.956 . S
C740 C742 1.348 . S
C740 C743 1.356 . S
C740 O796 1.325 . S
N741 C744 1.314 . S
N741 C745 1.279 . S
C742 C740 1.348 . S
C742 C744 1.353 . S
C742 H800 0.929 . S
C743 C740 1.356 . S
C743 C745 1.358 . S
C743 H801 0.930 . S
C744 N741 1.314 . S
C744 C742 1.353 . S
C744 H802 0.930 . S
C745 N741 1.279 . S
C745 C743 1.358 . S
C745 H803 0.930 . S
C746 C749 1.348 . S
C746 C750 1.356 . S
C746 O797 1.325 . S
C747 N748 1.279 . S
C747 C750 1.358 . S
C747 H804 0.930 . S
N748 C747 1.279 . S
N748 C751 1.314 . S
C749 C746 1.348 . S
C749 C751 1.353 . S
C749 H805 0.929 . S
C750 C746 1.356 . S
C750 C747 1.358 . S
C750 H806 0.930 . S
C751 N748 1.314 . S
C751 C749 1.353 . S
C751 H807 0.930 . S
C752 N753 1.314 . S
C752 C757 1.353 . S
C752 H758 0.930 . S
N753 Li736 1.990 . S
N753 C752 1.314 . S
N753 C755 1.279 . S
C754 C755 1.358 . S
C754 C756 1.356 . S
C754 H808 0.930 . S
C755 N753 1.279 . S
C755 C754 1.358 . S
C755 H759 0.930 . S
C756 C754 1.356 . S
C756 C757 1.348 . S
C757 C752 1.353 . S
C757 C756 1.348 . S
C757 H809 0.929 . S
H758 C752 0.930 . S
H759 C755 0.930 . S
C760 N761 1.314 . S
C760 C762 1.353 . S
C760 H766 0.930 . S
N761 Li737 1.990 . S
N761 C760 1.314 . S
N761 C764 1.279 . S
C762 C760 1.353 . S
C762 C765 1.348 . S
C762 H810 0.929 . S
C763 C764 1.358 . S
C763 C765 1.356 . S
C763 H811 0.930 . S
C764 N761 1.279 . S
C764 C763 1.358 . S
C764 H767 0.930 . S
C765 C762 1.348 . S
C765 C763 1.356 . S
H766 C760 0.930 . S
H767 C764 0.930 . S
C768 C770 1.348 . S
C768 C771 1.356 . S
C768 O798 1.325 . S
N769 C772 1.314 . S
N769 C773 1.279 . S
C770 C768 1.348 . S
C770 C772 1.353 . S
C770 H812 0.929 . S
C771 C768 1.356 . S
C771 C773 1.358 . S
C771 H813 0.930 . S
C772 N769 1.314 . S
C772 C770 1.353 . S
C772 H814 0.930 . S
C773 N769 1.279 . S
C773 C771 1.358 . S
C773 H815 0.930 . S
C774 C775 1.348 . S
C774 C776 1.356 . S
C774 O799 1.325 . S
C775 C774 1.348 . S
C775 C777 1.353 . S
C775 H816 0.929 . S
C776 C774 1.356 . S
C776 C778 1.358 . S
C776 H817 0.930 . S
C777 C775 1.353 . S
C777 N779 1.314 . S
C777 H818 0.930 . S
C778 C776 1.358 . S
C778 N779 1.279 . S
C778 H819 0.930 . S
N779 C777 1.314 . S
N779 C778 1.279 . S
C780 C782 1.353 . S
C780 N783 1.314 . S
C780 H786 0.930 . S
C781 N783 1.279 . S
C781 C784 1.358 . S
C781 H787 0.930 . S
C782 C780 1.353 . S
C782 C785 1.348 . S
C782 H820 0.929 . S
N783 Li738 1.990 . S
N783 C780 1.314 . S
N783 C781 1.279 . S
C784 C781 1.358 . S
C784 C785 1.356 . S
C784 H821 0.930 . S
C785 C782 1.348 . S
C785 C784 1.356 . S
H786 C780 0.930 . S
H787 C781 0.930 . S
C788 N789 1.314 . S
C788 C790 1.353 . S
C788 H794 0.930 . S
N789 Li739 1.990 . S
N789 C788 1.314 . S
N789 C792 1.279 . S
C790 C788 1.353 . S
C790 C793 1.348 . S
C790 H822 0.929 . S
C791 C792 1.358 . S
C791 C793 1.356 . S
C791 H823 0.930 . S
C792 N789 1.279 . S
C792 C791 1.358 . S
C792 H795 0.930 . S
C793 C790 1.348 . S
C793 C791 1.356 . S
H794 C788 0.930 . S
H795 C792 0.930 . S
O796 Li736 1.956 . S
O796 Li737 1.970 . S
O796 Li738 1.961 . S
O796 C740 1.325 . S
O797 Li736 1.970 . S
O797 Li737 1.956 . S
O797 Li739 1.961 . S
O797 C746 1.325 . S
O798 Li736 1.961 . S
O798 Li738 1.956 . S
O798 Li739 1.970 . S
O798 C768 1.325 . S
O799 Li737 1.961 . S
O799 Li738 1.970 . S
O799 Li739 1.956 . S
O799 C774 1.325 . S
H800 C742 0.929 . S
H801 C743 0.930 . S
H802 C744 0.930 . S
H803 C745 0.930 . S
H804 C747 0.930 . S
H805 C749 0.929 . S
H806 C750 0.930 . S
H807 C751 0.930 . S
H808 C754 0.930 . S
H809 C757 0.929 . S
H810 C762 0.929 . S
H811 C763 0.930 . S
H812 C770 0.929 . S
H813 C771 0.930 . S
H814 C772 0.930 . S
H815 C773 0.930 . S
H816 C775 0.929 . S
H817 C776 0.930 . S
H818 C777 0.930 . S
H819 C778 0.930 . S
H820 C782 0.929 . S
H821 C784 0.930 . S
H822 C790 0.929 . S
H823 C791 0.930 . S
Li824 N841 1.990 . S
Li824 O884 1.956 . S
Li824 O885 1.970 1_565 S
Li824 O886 1.961 1_565 S
Li825 N849 1.990 . S
Li825 O884 1.970 1_545 S
Li825 O885 1.956 . S
Li825 O887 1.961 . S
Li826 N871 1.987 1_545 S
Li826 O884 1.961 1_545 S
Li826 O886 1.956 . S
Li826 O887 1.970 . S
Li827 N877 1.990 . S
Li827 O885 1.961 . S
Li827 O886 1.970 . S
Li827 O887 1.956 . S
C828 C830 1.348 . S
C828 C831 1.356 . S
C828 O884 1.325 . S
N829 C832 1.314 . S
N829 C833 1.279 . S
C830 C828 1.348 . S
C830 C832 1.353 . S
C830 H888 0.929 . S
C831 C828 1.356 . S
C831 C833 1.358 . S
C831 H889 0.930 . S
C832 N829 1.314 . S
C832 C830 1.353 . S
C832 H890 0.930 . S
C833 N829 1.279 . S
C833 C831 1.358 . S
C833 H891 0.930 . S
C834 C837 1.348 . S
C834 C838 1.356 . S
C834 O885 1.325 . S
C835 N836 1.279 . S
C835 C838 1.358 . S
C835 H892 0.930 . S
N836 C835 1.279 . S
N836 C839 1.314 . S
C837 C834 1.348 . S
C837 C839 1.353 . S
C837 H893 0.929 1_545 S
C838 C834 1.356 . S
C838 C835 1.358 . S
C838 H894 0.930 . S
C839 N836 1.314 . S
C839 C837 1.353 . S
C839 H895 0.930 . S
C840 N841 1.314 . S
C840 C845 1.353 . S
C840 H846 0.930 . S
N841 Li824 1.990 . S
N841 C840 1.314 . S
N841 C843 1.279 . S
C842 C843 1.358 . S
C842 C844 1.356 . S
C842 H896 0.930 . S
C843 N841 1.279 . S
C843 C842 1.358 . S
C843 H847 0.930 . S
C844 C842 1.356 . S
C844 C845 1.348 . S
C845 C840 1.353 . S
C845 C844 1.348 . S
C845 H897 0.929 . S
H846 C840 0.930 . S
H847 C843 0.930 . S
C848 N849 1.314 . S
C848 C850 1.353 . S
C848 H854 0.930 . S
N849 Li825 1.990 . S
N849 C848 1.314 . S
N849 C852 1.279 . S
C850 C848 1.353 . S
C850 C853 1.348 . S
C850 H898 0.929 . S
C851 C852 1.358 . S
C851 C853 1.356 . S
C851 H899 0.930 . S
C852 N849 1.279 . S
C852 C851 1.358 . S
C852 H855 0.930 . S
C853 C850 1.348 . S
C853 C851 1.356 . S
H854 C848 0.930 . S
H855 C852 0.930 . S
C856 C858 1.348 . S
C856 C859 1.356 1_545 S
C856 O886 1.325 . S
N857 C860 1.314 1_565 S
N857 C861 1.279 . S
C858 C856 1.348 . S
C858 C860 1.353 . S
C858 H900 0.929 . S
C859 C856 1.356 1_565 S
C859 C861 1.358 . S
C859 H901 0.930 . S
C860 N857 1.314 1_545 S
C860 C858 1.353 . S
C860 H902 0.930 . S
C861 N857 1.279 . S
C861 C859 1.358 . S
C861 H903 0.930 . S
C862 C863 1.348 . S
C862 C864 1.356 . S
C862 O887 1.325 . S
C863 C862 1.348 . S
C863 C865 1.353 . S
C863 H904 0.929 . S
C864 C862 1.356 . S
C864 C866 1.358 . S
C864 H905 0.930 . S
C865 C863 1.353 . S
C865 N867 1.314 . S
C865 H906 0.930 . S
C866 C864 1.358 . S
C866 N867 1.279 . S
C866 H907 0.930 . S
N867 C865 1.314 . S
N867 C866 1.279 . S
C868 C870 1.353 . S
C868 N871 1.320 . S
C868 H874 0.930 . S
C869 N871 1.275 1_545 S
C869 C872 1.358 1_545 S
C869 H875 0.932 . S
C870 C868 1.353 . S
C870 C873 1.348 . S
C870 H908 0.929 . S
N871 Li826 1.987 1_565 S
N871 C868 1.320 . S
N871 C869 1.275 1_565 S
C872 C869 1.358 1_565 S
C872 C873 1.356 . S
C872 H909 0.930 . S
C873 C870 1.348 . S
C873 C872 1.356 . S
H874 C868 0.930 . S
H875 C869 0.932 . S
C876 N877 1.314 . S
C876 C878 1.353 . S
C876 H882 0.930 . S
N877 Li827 1.990 . S
N877 C876 1.314 . S
N877 C880 1.279 . S
C878 C876 1.353 . S
C878 C881 1.348 . S
C878 H910 0.929 . S
C879 C880 1.358 . S
C879 C881 1.356 . S
C879 H911 0.930 . S
C880 N877 1.279 . S
C880 C879 1.358 . S
C880 H883 0.930 . S
C881 C878 1.348 . S
C881 C879 1.356 . S
H882 C876 0.930 . S
H883 C880 0.930 . S
O884 Li824 1.956 . S
O884 Li825 1.970 1_565 S
O884 Li826 1.961 1_565 S
O884 C828 1.325 . S
O885 Li824 1.970 1_545 S
O885 Li825 1.956 . S
O885 Li827 1.961 . S
O885 C834 1.325 . S
O886 Li824 1.961 1_545 S
O886 Li826 1.956 . S
O886 Li827 1.970 . S
O886 C856 1.325 . S
O887 Li825 1.961 . S
O887 Li826 1.970 . S
O887 Li827 1.956 . S
O887 C862 1.325 . S
H888 C830 0.929 . S
H889 C831 0.930 . S
H890 C832 0.930 . S
H891 C833 0.930 . S
H892 C835 0.930 . S
H893 C837 0.929 1_565 S
H894 C838 0.930 . S
H895 C839 0.930 . S
H896 C842 0.930 . S
H897 C845 0.929 . S
H898 C850 0.929 . S
H899 C851 0.930 . S
H900 C858 0.929 . S
H901 C859 0.930 . S
H902 C860 0.930 . S
H903 C861 0.930 . S
H904 C863 0.929 . S
H905 C864 0.930 . S
H906 C865 0.930 . S
H907 C866 0.930 . S
H908 C870 0.929 . S
H909 C872 0.930 . S
H910 C878 0.929 . S
H911 C879 0.930 . S
Li912 N929 1.990 . S
Li912 O972 1.956 . S
Li912 O973 1.970 . S
Li912 O974 1.961 . S
Li913 N937 1.990 1_455 S
Li913 O972 1.970 . S
Li913 O973 1.956 . S
Li913 O975 1.961 1_455 S
Li914 N959 1.990 . S
Li914 O972 1.961 . S
Li914 O974 1.956 . S
Li914 O975 1.970 1_455 S
Li915 N965 1.990 . S
Li915 O973 1.961 1_655 S
Li915 O974 1.970 1_655 S
Li915 O975 1.956 . S
C916 C918 1.348 . S
C916 C919 1.356 . S
C916 O972 1.325 . S
N917 C920 1.314 . S
N917 C921 1.279 . S
C918 C916 1.348 . S
C918 C920 1.353 . S
C918 H976 0.929 . S
C919 C916 1.356 . S
C919 C921 1.358 . S
C919 H977 0.930 . S
C920 N917 1.314 . S
C920 C918 1.353 . S
C920 H978 0.930 . S
C921 N917 1.279 . S
C921 C919 1.358 . S
C921 H979 0.930 . S
C922 C925 1.348 . S
C922 C926 1.356 1_455 S
C922 O973 1.325 . S
C923 N924 1.279 1_655 S
C923 C926 1.358 . S
C923 H980 0.930 . S
N924 C923 1.279 1_455 S
N924 C927 1.314 . S
C925 C922 1.348 . S
C925 C927 1.353 . S
C925 H981 0.929 . S
C926 C922 1.356 1_655 S
C926 C923 1.358 . S
C926 H982 0.930 . S
C927 N924 1.314 . S
C927 C925 1.353 . S
C927 H983 0.930 . S
C928 N929 1.314 . S
C928 C933 1.353 . S
C928 H934 0.930 . S
N929 Li912 1.990 . S
N929 C928 1.314 . S
N929 C931 1.279 . S
C930 C931 1.358 . S
C930 C932 1.356 . S
C930 H984 0.930 . S
C931 N929 1.279 . S
C931 C930 1.358 . S
C931 H935 0.930 . S
C932 C930 1.356 . S
C932 C933 1.348 . S
C933 C928 1.353 . S
C933 C932 1.348 . S
C933 H985 0.929 . S
H934 C928 0.930 . S
H935 C931 0.930 . S
C936 N937 1.314 . S
C936 C938 1.353 . S
C936 H942 0.930 . S
N937 Li913 1.990 1_655 S
N937 C936 1.314 . S
N937 C940 1.279 1_655 S
C938 C936 1.353 . S
C938 C941 1.348 . S
C938 H986 0.929 . S
C939 C940 1.365 . S
C939 C941 1.345 1_455 S
C939 H987 0.938 . S
C940 N937 1.279 1_455 S
C940 C939 1.365 . S
C940 H943 0.930 . S
C941 C938 1.348 . S
C941 C939 1.345 1_655 S
H942 C936 0.930 . S
H943 C940 0.930 . S
C944 C946 1.348 1_455 S
C944 C947 1.356 . S
C944 O974 1.325 . S
N945 C948 1.314 1_455 S
N945 C949 1.279 . S
C946 C944 1.348 1_655 S
C946 C948 1.353 . S
C946 H988 0.929 . S
C947 C944 1.356 . S
C947 C949 1.358 . S
C947 H989 0.930 . S
C948 N945 1.314 1_655 S
C948 C946 1.353 . S
C948 H990 0.930 . S
C949 N945 1.279 . S
C949 C947 1.358 . S
C949 H991 0.930 . S
C950 C951 1.348 . S
C950 C952 1.356 . S
C950 O975 1.325 . S
C951 C950 1.348 . S
C951 C953 1.353 . S
C951 H992 0.929 . S
C952 C950 1.356 . S
C952 C954 1.358 . S
C952 H993 0.930 . S
C953 C951 1.353 . S
C953 N955 1.314 . S
C953 H994 0.930 . S
C954 C952 1.358 . S
C954 N955 1.279 . S
C954 H995 0.930 . S
N955 C953 1.314 . S
N955 C954 1.279 . S
C956 C958 1.353 . S
C956 N959 1.314 . S
C956 H962 0.930 . S
C957 N959 1.279 . S
C957 C960 1.358 . S
C957 H963 0.930 . S
C958 C956 1.353 . S
C958 C961 1.348 . S
C958 H996 0.929 . S
N959 Li914 1.990 . S
N959 C956 1.314 . S
N959 C957 1.279 . S
C960 C957 1.358 . S
C960 C961 1.356 . S
C960 H997 0.930 . S
C961 C958 1.348 . S
C961 C960 1.356 . S
H962 C956 0.930 . S
H963 C957 0.930 . S
C964 N965 1.314 . S
C964 C966 1.353 . S
C964 H970 0.930 . S
N965 Li915 1.990 . S
N965 C964 1.314 . S
N965 C968 1.279 . S
C966 C964 1.353 . S
C966 C969 1.348 . S
C966 H998 0.929 . S
C967 C968 1.358 . S
C967 C969 1.356 . S
C967 H999 0.930 . S
C968 N965 1.279 . S
C968 C967 1.358 . S
C968 H971 0.930 . S
C969 C966 1.348 . S
C969 C967 1.356 . S
H970 C964 0.930 . S
H971 C968 0.930 . S
O972 Li912 1.956 . S
O972 Li913 1.970 . S
O972 Li914 1.961 . S
O972 C916 1.325 . S
O973 Li912 1.970 . S
O973 Li913 1.956 . S
O973 Li915 1.961 1_455 S
O973 C922 1.325 . S
O974 Li912 1.961 . S
O974 Li914 1.956 . S
O974 Li915 1.970 1_455 S
O974 C944 1.325 . S
O975 Li913 1.961 1_655 S
O975 Li914 1.970 1_655 S
O975 Li915 1.956 . S
O975 C950 1.325 . S
H976 C918 0.929 . S
H977 C919 0.930 . S
H978 C920 0.930 . S
H979 C921 0.930 . S
H980 C923 0.930 . S
H981 C925 0.929 . S
H982 C926 0.930 . S
H983 C927 0.930 . S
H984 C930 0.930 . S
H985 C933 0.929 . S
H986 C938 0.929 . S
H987 C939 0.938 . S
H988 C946 0.929 . S
H989 C947 0.930 . S
H990 C948 0.930 . S
H991 C949 0.930 . S
H992 C951 0.929 . S
H993 C952 0.930 . S
H994 C953 0.930 . S
H995 C954 0.930 . S
H996 C958 0.929 . S
H997 C960 0.930 . S
H998 C966 0.929 . S
H999 C967 0.930 . S
Li1000 N1017 1.990 . S
Li1000 O1060 1.956 . S
Li1000 O1061 1.970 . S
Li1000 O1062 1.961 . S
Li1001 N1025 1.990 . S
Li1001 O1060 1.970 . S
Li1001 O1061 1.956 . S
Li1001 O1063 1.961 . S
Li1002 N1047 1.990 . S
Li1002 O1060 1.961 . S
Li1002 O1062 1.956 . S
Li1002 O1063 1.970 . S
Li1003 N1053 1.990 . S
Li1003 O1061 1.961 . S
Li1003 O1062 1.970 . S
Li1003 O1063 1.956 . S
C1004 C1006 1.348 . S
C1004 C1007 1.356 . S
C1004 O1060 1.325 . S
N1005 C1008 1.314 . S
N1005 C1009 1.279 . S
C1006 C1004 1.348 . S
C1006 C1008 1.353 . S
C1006 H1064 0.929 . S
C1007 C1004 1.356 . S
C1007 C1009 1.358 . S
C1007 H1065 0.930 . S
C1008 N1005 1.314 . S
C1008 C1006 1.353 . S
C1008 H1066 0.930 . S
C1009 N1005 1.279 . S
C1009 C1007 1.358 . S
C1009 H1067 0.930 . S
C1010 C1013 1.348 . S
C1010 C1014 1.356 . S
C1010 O1061 1.325 . S
C1011 N1012 1.279 . S
C1011 C1014 1.358 . S
C1011 H1068 0.930 . S
N1012 C1011 1.279 . S
N1012 C1015 1.314 . S
C1013 C1010 1.348 . S
C1013 C1015 1.353 . S
C1013 H1069 0.929 . S
C1014 C1010 1.356 . S
C1014 C1011 1.358 . S
C1014 H1070 0.930 . S
C1015 N1012 1.314 . S
C1015 C1013 1.353 . S
C1015 H1071 0.930 . S
C1016 N1017 1.314 . S
C1016 C1021 1.353 . S
C1016 H1022 0.930 . S
N1017 Li1000 1.990 . S
N1017 C1016 1.314 . S
N1017 C1019 1.279 . S
C1018 C1019 1.358 . S
C1018 C1020 1.356 . S
C1018 H1072 0.930 . S
C1019 N1017 1.279 . S
C1019 C1018 1.358 . S
C1019 H1023 0.930 . S
C1020 C1018 1.356 . S
C1020 C1021 1.348 . S
C1021 C1016 1.353 . S
C1021 C1020 1.348 . S
C1021 H1073 0.929 . S
H1022 C1016 0.930 . S
H1023 C1019 0.930 . S
C1024 N1025 1.314 . S
C1024 C1026 1.353 . S
C1024 H1030 0.930 . S
N1025 Li1001 1.990 . S
N1025 C1024 1.314 . S
N1025 C1028 1.279 . S
C1026 C1024 1.353 . S
C1026 C1029 1.348 . S
C1026 H1074 0.929 . S
C1027 C1028 1.358 . S
C1027 C1029 1.356 . S
C1027 H1075 0.930 . S
C1028 N1025 1.279 . S
C1028 C1027 1.358 . S
C1028 H1031 0.930 . S
C1029 C1026 1.348 . S
C1029 C1027 1.356 . S
H1030 C1024 0.930 . S
H1031 C1028 0.930 . S
C1032 C1034 1.348 . S
C1032 C1035 1.356 . S
C1032 O1062 1.325 . S
N1033 C1036 1.314 . S
N1033 C1037 1.279 . S
C1034 C1032 1.348 . S
C1034 C1036 1.353 . S
C1034 H1076 0.929 . S
C1035 C1032 1.356 . S
C1035 C1037 1.358 . S
C1035 H1077 0.930 . S
C1036 N1033 1.314 . S
C1036 C1034 1.353 . S
C1036 H1078 0.930 . S
C1037 N1033 1.279 . S
C1037 C1035 1.358 . S
C1037 H1079 0.930 . S
C1038 C1039 1.348 . S
C1038 C1040 1.356 . S
C1038 O1063 1.325 . S
C1039 C1038 1.348 . S
C1039 C1041 1.353 . S
C1039 H1080 0.929 . S
C1040 C1038 1.356 . S
C1040 C1042 1.358 . S
C1040 H1081 0.930 . S
C1041 C1039 1.353 . S
C1041 N1043 1.314 . S
C1041 H1082 0.930 . S
C1042 C1040 1.358 . S
C1042 N1043 1.279 . S
C1042 H1083 0.930 . S
N1043 C1041 1.314 . S
N1043 C1042 1.279 . S
C1044 C1046 1.353 . S
C1044 N1047 1.314 . S
C1044 H1050 0.930 . S
C1045 N1047 1.279 . S
C1045 C1048 1.358 . S
C1045 H1051 0.930 . S
C1046 C1044 1.353 . S
C1046 C1049 1.348 . S
C1046 H1084 0.929 . S
N1047 Li1002 1.990 . S
N1047 C1044 1.314 . S
N1047 C1045 1.279 . S
C1048 C1045 1.358 . S
C1048 C1049 1.356 . S
C1048 H1085 0.930 . S
C1049 C1046 1.348 . S
C1049 C1048 1.356 . S
H1050 C1044 0.930 . S
H1051 C1045 0.930 . S
C1052 N1053 1.314 . S
C1052 C1054 1.353 . S
C1052 H1058 0.930 . S
N1053 Li1003 1.990 . S
N1053 C1052 1.314 . S
N1053 C1056 1.279 . S
C1054 C1052 1.353 . S
C1054 C1057 1.348 . S
C1054 H1086 0.929 . S
C1055 C1056 1.358 . S
C1055 C1057 1.356 . S
C1055 H1087 0.930 . S
C1056 N1053 1.279 . S
C1056 C1055 1.358 . S
C1056 H1059 0.930 . S
C1057 C1054 1.348 . S
C1057 C1055 1.356 . S
H1058 C1052 0.930 . S
H1059 C1056 0.930 . S
O1060 Li1000 1.956 . S
O1060 Li1001 1.970 . S
O1060 Li1002 1.961 . S
O1060 C1004 1.325 . S
O1061 Li1000 1.970 . S
O1061 Li1001 1.956 . S
O1061 Li1003 1.961 . S
O1061 C1010 1.325 . S
O1062 Li1000 1.961 . S
O1062 Li1002 1.956 . S
O1062 Li1003 1.970 . S
O1062 C1032 1.325 . S
O1063 Li1001 1.961 . S
O1063 Li1002 1.970 . S
O1063 Li1003 1.956 . S
O1063 C1038 1.325 . S
H1064 C1006 0.929 . S
H1065 C1007 0.930 . S
H1066 C1008 0.930 . S
H1067 C1009 0.930 . S
H1068 C1011 0.930 . S
H1069 C1013 0.929 . S
H1070 C1014 0.930 . S
H1071 C1015 0.930 . S
H1072 C1018 0.930 . S
H1073 C1021 0.929 . S
H1074 C1026 0.929 . S
H1075 C1027 0.930 . S
H1076 C1034 0.929 . S
H1077 C1035 0.930 . S
H1078 C1036 0.930 . S
H1079 C1037 0.930 . S
H1080 C1039 0.929 . S
H1081 C1040 0.930 . S
H1082 C1041 0.930 . S
H1083 C1042 0.930 . S
H1084 C1046 0.929 . S
H1085 C1048 0.930 . S
H1086 C1054 0.929 . S
H1087 C1055 0.930 . S
Li1088 N1105 1.990 . S
Li1088 O1148 1.956 . S
Li1088 O1149 1.967 . S
Li1088 O1150 1.961 . S
Li1089 N1113 1.990 1_455 S
Li1089 O1148 1.970 . S
Li1089 O1149 1.956 . S
Li1089 O1151 1.961 . S
Li1090 N1135 1.990 . S
Li1090 O1148 1.961 . S
Li1090 O1150 1.956 . S
Li1090 O1151 1.970 . S
Li1091 N1141 1.990 . S
Li1091 O1149 1.959 . S
Li1091 O1150 1.970 . S
Li1091 O1151 1.956 . S
C1092 C1094 1.348 . S
C1092 C1095 1.356 . S
C1092 O1148 1.325 . S
N1093 C1096 1.314 . S
N1093 C1097 1.279 . S
C1094 C1092 1.348 . S
C1094 C1096 1.353 . S
C1094 H1152 0.929 . S
C1095 C1092 1.356 . S
C1095 C1097 1.358 . S
C1095 H1153 0.930 . S
C1096 N1093 1.314 . S
C1096 C1094 1.353 . S
C1096 H1154 0.930 . S
C1097 N1093 1.279 . S
C1097 C1095 1.358 . S
C1097 H1155 0.930 . S
C1098 C1101 1.348 . S
C1098 C1102 1.356 . S
C1098 O1149 1.328 1_655 S
C1099 N1100 1.279 . S
C1099 C1102 1.358 . S
C1099 H1156 0.930 . S
N1100 C1099 1.279 . S
N1100 C1103 1.314 . S
C1101 C1098 1.348 . S
C1101 C1103 1.353 . S
C1101 H1157 0.929 . S
C1102 C1098 1.356 . S
C1102 C1099 1.358 . S
C1102 H1158 0.930 . S
C1103 N1100 1.314 . S
C1103 C1101 1.353 . S
C1103 H1159 0.930 . S
C1104 N1105 1.314 . S
C1104 C1109 1.353 . S
C1104 H1110 0.930 . S
N1105 Li1088 1.990 . S
N1105 C1104 1.314 . S
N1105 C1107 1.279 . S
C1106 C1107 1.358 . S
C1106 C1108 1.356 . S
C1106 H1160 0.930 . S
C1107 N1105 1.279 . S
C1107 C1106 1.358 . S
C1107 H1111 0.930 . S
C1108 C1106 1.356 . S
C1108 C1109 1.348 . S
C1109 C1104 1.353 . S
C1109 C1108 1.348 . S
C1109 H1161 0.929 . S
H1110 C1104 0.930 . S
H1111 C1107 0.930 . S
C1112 N1113 1.314 . S
C1112 C1114 1.353 . S
C1112 H1118 0.930 . S
N1113 Li1089 1.990 1_655 S
N1113 C1112 1.314 . S
N1113 C1116 1.279 . S
C1114 C1112 1.353 . S
C1114 C1117 1.348 . S
C1114 H1162 0.929 . S
C1115 C1116 1.358 . S
C1115 C1117 1.356 . S
C1115 H1163 0.930 . S
C1116 N1113 1.279 . S
C1116 C1115 1.358 . S
C1116 H1119 0.930 . S
C1117 C1114 1.348 . S
C1117 C1115 1.356 . S
H1118 C1112 0.930 . S
H1119 C1116 0.930 . S
C1120 C1122 1.348 . S
C1120 C1123 1.356 . S
C1120 O1150 1.325 . S
N1121 C1124 1.314 . S
N1121 C1125 1.279 . S
C1122 C1120 1.348 . S
C1122 C1124 1.353 . S
C1122 H1164 0.929 . S
C1123 C1120 1.356 . S
C1123 C1125 1.358 . S
C1123 H1165 0.930 . S
C1124 N1121 1.314 . S
C1124 C1122 1.353 . S
C1124 H1166 0.930 . S
C1125 N1121 1.279 . S
C1125 C1123 1.358 . S
C1125 H1167 0.930 . S
C1126 C1127 1.348 . S
C1126 C1128 1.356 1_455 S
C1126 O1151 1.325 . S
C1127 C1126 1.348 . S
C1127 C1129 1.353 . S
C1127 H1168 0.929 . S
C1128 C1126 1.356 1_655 S
C1128 C1130 1.358 . S
C1128 H1169 0.930 . S
C1129 C1127 1.353 . S
C1129 N1131 1.314 . S
C1129 H1170 0.930 . S
C1130 C1128 1.358 . S
C1130 N1131 1.279 1_655 S
C1130 H1171 0.930 . S
N1131 C1129 1.314 . S
N1131 C1130 1.279 1_455 S
C1132 C1134 1.353 . S
C1132 N1135 1.314 . S
C1132 H1138 0.930 . S
C1133 N1135 1.279 . S
C1133 C1136 1.358 . S
C1133 H1139 0.930 . S
C1134 C1132 1.353 . S
C1134 C1137 1.348 . S
C1134 H1172 0.929 . S
N1135 Li1090 1.990 . S
N1135 C1132 1.314 . S
N1135 C1133 1.279 . S
C1136 C1133 1.358 . S
C1136 C1137 1.356 . S
C1136 H1173 0.930 . S
C1137 C1134 1.348 . S
C1137 C1136 1.356 . S
H1138 C1132 0.930 . S
H1139 C1133 0.930 . S
C1140 N1141 1.314 . S
C1140 C1142 1.353 . S
C1140 H1146 0.930 . S
N1141 Li1091 1.990 . S
N1141 C1140 1.314 . S
N1141 C1144 1.279 . S
C1142 C1140 1.353 . S
C1142 C1145 1.348 . S
C1142 H1174 0.929 1_455 S
C1143 C1144 1.358 . S
C1143 C1145 1.356 . S
C1143 H1175 0.930 . S
C1144 N1141 1.279 . S
C1144 C1143 1.358 . S
C1144 H1147 0.930 . S
C1145 C1142 1.348 . S
C1145 C1143 1.356 . S
H1146 C1140 0.930 . S
H1147 C1144 0.930 . S
O1148 Li1088 1.956 . S
O1148 Li1089 1.970 . S
O1148 Li1090 1.961 . S
O1148 C1092 1.325 . S
O1149 Li1088 1.967 . S
O1149 Li1089 1.956 . S
O1149 Li1091 1.959 . S
O1149 C1098 1.328 1_455 S
O1150 Li1088 1.961 . S
O1150 Li1090 1.956 . S
O1150 Li1091 1.970 . S
O1150 C1120 1.325 . S
O1151 Li1089 1.961 . S
O1151 Li1090 1.970 . S
O1151 Li1091 1.956 . S
O1151 C1126 1.325 . S
H1152 C1094 0.929 . S
H1153 C1095 0.930 . S
H1154 C1096 0.930 . S
H1155 C1097 0.930 . S
H1156 C1099 0.930 . S
H1157 C1101 0.929 . S
H1158 C1102 0.930 . S
H1159 C1103 0.930 . S
H1160 C1106 0.930 . S
H1161 C1109 0.929 . S
H1162 C1114 0.929 . S
H1163 C1115 0.930 . S
H1164 C1122 0.929 . S
H1165 C1123 0.930 . S
H1166 C1124 0.930 . S
H1167 C1125 0.930 . S
H1168 C1127 0.929 . S
H1169 C1128 0.930 . S
H1170 C1129 0.930 . S
H1171 C1130 0.930 . S
H1172 C1134 0.929 . S
H1173 C1136 0.930 . S
H1174 C1142 0.929 1_655 S
H1175 C1143 0.930 . S
Li1176 N1193 1.990 . S
Li1176 O1236 1.956 . S
Li1176 O1237 1.970 . S
Li1176 O1238 1.961 . S
Li1177 N1201 1.990 . S
Li1177 O1236 1.970 . S
Li1177 O1237 1.956 . S
Li1177 O1239 1.961 . S
Li1178 N1223 1.990 . S
Li1178 O1236 1.961 . S
Li1178 O1238 1.956 . S
Li1178 O1239 1.970 . S
Li1179 N1229 1.990 . S
Li1179 O1237 1.961 . S
Li1179 O1238 1.970 . S
Li1179 O1239 1.956 . S
C1180 C1182 1.348 . S
C1180 C1183 1.356 . S
C1180 O1236 1.325 . S
N1181 C1184 1.314 . S
N1181 C1185 1.279 . S
C1182 C1180 1.348 . S
C1182 C1184 1.353 . S
C1182 H1240 0.929 . S
C1183 C1180 1.356 . S
C1183 C1185 1.358 . S
C1183 H1241 0.930 . S
C1184 N1181 1.314 . S
C1184 C1182 1.353 . S
C1184 H1242 0.930 . S
C1185 N1181 1.279 . S
C1185 C1183 1.358 . S
C1185 H1243 0.930 . S
C1186 C1189 1.348 . S
C1186 C1190 1.356 . S
C1186 O1237 1.325 . S
C1187 N1188 1.279 . S
C1187 C1190 1.358 . S
C1187 H1244 0.930 . S
N1188 C1187 1.279 . S
N1188 C1191 1.314 . S
C1189 C1186 1.348 . S
C1189 C1191 1.353 . S
C1189 H1245 0.929 . S
C1190 C1186 1.356 . S
C1190 C1187 1.358 . S
C1190 H1246 0.930 . S
C1191 N1188 1.314 . S
C1191 C1189 1.353 . S
C1191 H1247 0.930 . S
C1192 N1193 1.314 . S
C1192 C1197 1.353 . S
C1192 H1198 0.930 . S
N1193 Li1176 1.990 . S
N1193 C1192 1.314 . S
N1193 C1195 1.279 . S
C1194 C1195 1.358 . S
C1194 C1196 1.356 . S
C1194 H1248 0.930 . S
C1195 N1193 1.279 . S
C1195 C1194 1.358 . S
C1195 H1199 0.930 . S
C1196 C1194 1.356 . S
C1196 C1197 1.348 . S
C1197 C1192 1.353 . S
C1197 C1196 1.348 . S
C1197 H1249 0.929 . S
H1198 C1192 0.930 . S
H1199 C1195 0.930 . S
C1200 N1201 1.314 . S
C1200 C1202 1.353 . S
C1200 H1206 0.930 . S
N1201 Li1177 1.990 . S
N1201 C1200 1.314 . S
N1201 C1204 1.279 . S
C1202 C1200 1.353 . S
C1202 C1205 1.348 . S
C1202 H1250 0.929 . S
C1203 C1204 1.358 . S
C1203 C1205 1.356 . S
C1203 H1251 0.930 . S
C1204 N1201 1.279 . S
C1204 C1203 1.358 . S
C1204 H1207 0.930 . S
C1205 C1202 1.348 . S
C1205 C1203 1.356 . S
H1206 C1200 0.930 . S
H1207 C1204 0.930 . S
C1208 C1210 1.348 . S
C1208 C1211 1.356 . S
C1208 O1238 1.325 . S
N1209 C1212 1.314 . S
N1209 C1213 1.279 . S
C1210 C1208 1.348 . S
C1210 C1212 1.353 . S
C1210 H1252 0.929 . S
C1211 C1208 1.356 . S
C1211 C1213 1.358 . S
C1211 H1253 0.930 . S
C1212 N1209 1.314 . S
C1212 C1210 1.353 . S
C1212 H1254 0.930 . S
C1213 N1209 1.279 . S
C1213 C1211 1.358 . S
C1213 H1255 0.930 . S
C1214 C1215 1.348 . S
C1214 C1216 1.356 . S
C1214 O1239 1.325 . S
C1215 C1214 1.348 . S
C1215 C1217 1.353 . S
C1215 H1256 0.929 . S
C1216 C1214 1.356 . S
C1216 C1218 1.358 . S
C1216 H1257 0.930 . S
C1217 C1215 1.353 . S
C1217 N1219 1.314 . S
C1217 H1258 0.930 . S
C1218 C1216 1.358 . S
C1218 N1219 1.279 . S
C1218 H1259 0.930 . S
N1219 C1217 1.314 . S
N1219 C1218 1.279 . S
C1220 C1222 1.353 . S
C1220 N1223 1.314 . S
C1220 H1226 0.930 . S
C1221 N1223 1.279 . S
C1221 C1224 1.358 . S
C1221 H1227 0.930 . S
C1222 C1220 1.353 . S
C1222 C1225 1.348 . S
C1222 H1260 0.929 . S
N1223 Li1178 1.990 . S
N1223 C1220 1.314 . S
N1223 C1221 1.279 . S
C1224 C1221 1.358 . S
C1224 C1225 1.356 . S
C1224 H1261 0.930 . S
C1225 C1222 1.348 . S
C1225 C1224 1.356 . S
H1226 C1220 0.930 . S
H1227 C1221 0.930 . S
C1228 N1229 1.314 . S
C1228 C1230 1.353 . S
C1228 H1234 0.930 . S
N1229 Li1179 1.990 . S
N1229 C1228 1.314 . S
N1229 C1232 1.279 . S
C1230 C1228 1.353 . S
C1230 C1233 1.348 . S
C1230 H1262 0.929 . S
C1231 C1232 1.358 . S
C1231 C1233 1.356 . S
C1231 H1263 0.930 . S
C1232 N1229 1.279 . S
C1232 C1231 1.358 . S
C1232 H1235 0.930 . S
C1233 C1230 1.348 . S
C1233 C1231 1.356 . S
H1234 C1228 0.930 . S
H1235 C1232 0.930 . S
O1236 Li1176 1.956 . S
O1236 Li1177 1.970 . S
O1236 Li1178 1.961 . S
O1236 C1180 1.325 . S
O1237 Li1176 1.970 . S
O1237 Li1177 1.956 . S
O1237 Li1179 1.961 . S
O1237 C1186 1.325 . S
O1238 Li1176 1.961 . S
O1238 Li1178 1.956 . S
O1238 Li1179 1.970 . S
O1238 C1208 1.325 . S
O1239 Li1177 1.961 . S
O1239 Li1178 1.970 . S
O1239 Li1179 1.956 . S
O1239 C1214 1.325 . S
H1240 C1182 0.929 . S
H1241 C1183 0.930 . S
H1242 C1184 0.930 . S
H1243 C1185 0.930 . S
H1244 C1187 0.930 . S
H1245 C1189 0.929 . S
H1246 C1190 0.930 . S
H1247 C1191 0.930 . S
H1248 C1194 0.930 . S
H1249 C1197 0.929 . S
H1250 C1202 0.929 . S
H1251 C1203 0.930 . S
H1252 C1210 0.929 . S
H1253 C1211 0.930 . S
H1254 C1212 0.930 . S
H1255 C1213 0.930 . S
H1256 C1215 0.929 . S
H1257 C1216 0.930 . S
H1258 C1217 0.930 . S
H1259 C1218 0.930 . S
H1260 C1222 0.929 . S
H1261 C1224 0.930 . S
H1262 C1230 0.929 . S
H1263 C1231 0.930 . S
H1264 C1270 0.930 . S
H1265 C1274 0.930 . S
H1266 C1279 0.929 . S
H1267 C1277 0.929 . S
H1268 C1272 0.929 . S
H1269 C1278 0.929 . S
C1270 H1264 0.930 . S
C1270 C1271 1.367 . S
C1270 C1278 1.378 . S
C1271 C1270 1.367 . S
C1271 C1279 1.433 . S
C1272 H1268 0.929 . S
C1272 C1274 1.378 . S
C1272 C1276 1.350 . S
C1273 C1276 1.463 . S
C1273 C1278 1.350 . S
C1273 N1281 1.427 . S
C1274 H1265 0.930 . S
C1274 C1272 1.378 . S
C1274 C1275 1.367 . S
C1275 C1274 1.367 . S
C1275 C1277 1.433 . S
C1276 C1272 1.350 . S
C1276 C1273 1.463 . S
C1276 N1280 1.427 . S
C1277 H1267 0.929 . S
C1277 C1275 1.433 . S
C1277 N1280 1.384 . S
C1278 H1269 0.929 . S
C1278 C1270 1.378 . S
C1278 C1273 1.350 . S
C1279 H1266 0.929 . S
C1279 C1271 1.433 . S
C1279 N1281 1.384 . S
N1280 C1276 1.427 . S
N1280 C1277 1.384 . S
N1281 C1273 1.427 . S
N1281 C1279 1.384 . S
H1282 C1288 0.930 . S
H1283 C1292 0.930 . S
H1284 C1297 0.929 . S
H1285 C1295 0.929 . S
H1286 C1290 0.929 . S
H1287 C1296 0.929 . S
C1288 H1282 0.930 . S
C1288 C1289 1.367 . S
C1288 C1296 1.378 1_655 S
C1289 C1288 1.367 . S
C1289 C1297 1.433 1_655 S
C1290 H1286 0.929 . S
C1290 C1292 1.378 . S
C1290 C1294 1.350 . S
C1291 C1294 1.463 . S
C1291 C1296 1.350 . S
C1291 N1299 1.427 . S
C1292 H1283 0.930 . S
C1292 C1290 1.378 . S
C1292 C1293 1.367 . S
C1293 C1292 1.367 . S
C1293 C1295 1.433 . S
C1294 C1290 1.350 . S
C1294 C1291 1.463 . S
C1294 N1298 1.427 . S
C1295 H1285 0.929 . S
C1295 C1293 1.433 . S
C1295 N1298 1.384 . S
C1296 H1287 0.929 . S
C1296 C1288 1.378 1_455 S
C1296 C1291 1.350 . S
C1297 H1284 0.929 . S
C1297 C1289 1.433 1_455 S
C1297 N1299 1.384 . S
N1298 C1294 1.427 . S
N1298 C1295 1.384 . S
N1299 C1291 1.427 . S
N1299 C1297 1.384 . S
H1300 C1306 0.930 . S
H1301 C1310 0.930 . S
H1302 C1315 0.929 . S
H1303 C1313 0.929 . S
H1304 C1308 0.929 . S
H1305 C1314 0.929 . S
C1306 H1300 0.930 . S
C1306 C1307 1.367 . S
C1306 C1314 1.378 . S
C1307 C1306 1.367 . S
C1307 C1315 1.433 . S
C1308 H1304 0.929 . S
C1308 C1310 1.378 . S
C1308 C1312 1.350 . S
C1309 C1312 1.463 . S
C1309 C1314 1.350 . S
C1309 N1317 1.427 . S
C1310 H1301 0.930 . S
C1310 C1308 1.378 . S
C1310 C1311 1.367 . S
C1311 C1310 1.367 . S
C1311 C1313 1.433 . S
C1312 C1308 1.350 . S
C1312 C1309 1.463 . S
C1312 N1316 1.427 . S
C1313 H1303 0.929 . S
C1313 C1311 1.433 . S
C1313 N1316 1.384 . S
C1314 H1305 0.929 . S
C1314 C1306 1.378 . S
C1314 C1309 1.350 . S
C1315 H1302 0.929 . S
C1315 C1307 1.433 . S
C1315 N1317 1.384 . S
N1316 C1312 1.427 . S
N1316 C1313 1.384 . S
N1317 C1309 1.427 . S
N1317 C1315 1.384 . S
H1318 C1324 0.930 . S
H1319 C1328 0.930 . S
H1320 C1333 0.929 . S
H1321 C1331 0.929 . S
H1322 C1326 0.929 . S
H1323 C1332 0.929 . S
C1324 H1318 0.930 . S
C1324 C1325 1.367 1_545 S
C1324 C1332 1.378 1_455 S
C1325 C1324 1.367 1_565 S
C1325 C1333 1.433 . S
C1326 H1322 0.929 . S
C1326 C1328 1.378 . S
C1326 C1330 1.350 . S
C1327 C1330 1.463 . S
C1327 C1332 1.350 1_565 S
C1327 N1335 1.427 . S
C1328 H1319 0.930 . S
C1328 C1326 1.378 . S
C1328 C1329 1.367 1_565 S
C1329 C1328 1.367 1_545 S
C1329 C1331 1.433 . S
C1330 C1326 1.350 . S
C1330 C1327 1.463 . S
C1330 N1334 1.427 1_565 S
C1331 H1321 0.929 . S
C1331 C1329 1.433 . S
C1331 N1334 1.384 . S
C1332 H1323 0.929 . S
C1332 C1324 1.378 1_655 S
C1332 C1327 1.350 1_545 S
C1333 H1320 0.929 . S
C1333 C1325 1.433 . S
C1333 N1335 1.384 1_455 S
N1334 C1330 1.427 1_545 S
N1334 C1331 1.384 . S
N1335 C1327 1.427 . S
N1335 C1333 1.384 1_655 S
H1336 C1342 0.930 . S
H1337 C1346 0.930 . S
H1338 C1351 0.929 . S
H1339 C1349 0.929 . S
H1340 C1344 0.929 . S
H1341 C1350 0.929 . S
C1342 H1336 0.930 . S
C1342 C1343 1.367 . S
C1342 C1350 1.378 . S
C1343 C1342 1.367 . S
C1343 C1351 1.433 . S
C1344 H1340 0.929 . S
C1344 C1346 1.378 . S
C1344 C1348 1.350 . S
C1345 C1348 1.463 . S
C1345 C1350 1.350 . S
C1345 N1353 1.427 . S
C1346 H1337 0.930 . S
C1346 C1344 1.378 . S
C1346 C1347 1.367 . S
C1347 C1346 1.367 . S
C1347 C1349 1.433 . S
C1348 C1344 1.350 . S
C1348 C1345 1.463 . S
C1348 N1352 1.427 . S
C1349 H1339 0.929 . S
C1349 C1347 1.433 . S
C1349 N1352 1.384 . S
C1350 H1341 0.929 . S
C1350 C1342 1.378 . S
C1350 C1345 1.350 . S
C1351 H1338 0.929 . S
C1351 C1343 1.433 . S
C1351 N1353 1.384 . S
N1352 C1348 1.427 . S
N1352 C1349 1.384 . S
N1353 C1345 1.427 . S
N1353 C1351 1.384 . S
H1354 C1360 0.930 . S
H1355 C1364 0.930 . S
H1356 C1369 0.929 . S
H1357 C1367 0.929 . S
H1358 C1362 0.929 . S
H1359 C1368 0.929 . S
C1360 H1354 0.930 . S
C1360 C1361 1.367 . S
C1360 C1368 1.378 . S
C1361 C1360 1.367 . S
C1361 C1369 1.433 . S
C1362 H1358 0.929 . S
C1362 C1364 1.378 . S
C1362 C1366 1.350 . S
C1363 C1366 1.463 . S
C1363 C1368 1.350 . S
C1363 N1371 1.427 . S
C1364 H1355 0.930 . S
C1364 C1362 1.378 . S
C1364 C1365 1.367 . S
C1365 C1364 1.367 . S
C1365 C1367 1.433 . S
C1366 C1362 1.350 . S
C1366 C1363 1.463 . S
C1366 N1370 1.427 . S
C1367 H1357 0.929 . S
C1367 C1365 1.433 . S
C1367 N1370 1.384 . S
C1368 H1359 0.929 . S
C1368 C1360 1.378 . S
C1368 C1363 1.350 . S
C1369 H1356 0.929 . S
C1369 C1361 1.433 . S
C1369 N1371 1.384 . S
N1370 C1366 1.427 . S
N1370 C1367 1.384 . S
N1371 C1363 1.427 . S
N1371 C1369 1.384 . S
H1372 C1378 0.930 . S
H1373 C1382 0.930 . S
H1374 C1387 0.929 . S
H1375 C1385 0.929 . S
H1376 C1380 0.929 . S
H1377 C1386 0.929 . S
C1378 H1372 0.930 . S
C1378 C1379 1.367 . S
C1378 C1386 1.378 . S
C1379 C1378 1.367 . S
C1379 C1387 1.433 . S
C1380 H1376 0.929 . S
C1380 C1382 1.378 . S
C1380 C1384 1.350 . S
C1381 C1384 1.463 . S
C1381 C1386 1.350 . S
C1381 N1389 1.427 . S
C1382 H1373 0.930 . S
C1382 C1380 1.378 . S
C1382 C1383 1.367 . S
C1383 C1382 1.367 . S
C1383 C1385 1.433 . S
C1384 C1380 1.350 . S
C1384 C1381 1.463 . S
C1384 N1388 1.427 . S
C1385 H1375 0.929 . S
C1385 C1383 1.433 . S
C1385 N1388 1.384 . S
C1386 H1377 0.929 . S
C1386 C1378 1.378 . S
C1386 C1381 1.350 . S
C1387 H1374 0.929 . S
C1387 C1379 1.433 . S
C1387 N1389 1.384 . S
N1388 C1384 1.427 . S
N1388 C1385 1.384 . S
N1389 C1381 1.427 . S
N1389 C1387 1.384 . S
H1390 C1396 0.930 . S
H1391 C1400 0.930 . S
H1392 C1405 0.929 . S
H1393 C1403 0.930 . S
H1394 C1398 0.929 . S
H1395 C1404 0.929 1_545 S
C1396 H1390 0.930 . S
C1396 C1397 1.367 . S
C1396 C1404 1.378 . S
C1397 C1396 1.367 . S
C1397 C1405 1.433 . S
C1398 H1394 0.929 . S
C1398 C1400 1.378 . S
C1398 C1402 1.350 . S
C1399 C1402 1.463 . S
C1399 C1404 1.350 . S
C1399 N1407 1.427 . S
C1400 H1391 0.930 . S
C1400 C1398 1.378 . S
C1400 C1401 1.367 . S
C1401 C1400 1.367 . S
C1401 C1403 1.432 1_565 S
C1402 C1398 1.350 . S
C1402 C1399 1.463 . S
C1402 N1406 1.427 . S
C1403 H1393 0.930 . S
C1403 C1401 1.432 1_545 S
C1403 N1406 1.384 1_545 S
C1404 H1395 0.929 1_565 S
C1404 C1396 1.378 . S
C1404 C1399 1.350 . S
C1405 H1392 0.929 . S
C1405 C1397 1.433 . S
C1405 N1407 1.384 . S
N1406 C1402 1.427 . S
N1406 C1403 1.384 1_565 S
N1407 C1399 1.427 . S
N1407 C1405 1.384 . S
H1408 C1414 0.930 . S
H1409 C1418 0.930 . S
H1410 C1423 0.929 . S
H1411 C1421 0.929 . S
H1412 C1416 0.929 . S
H1413 C1422 0.929 . S
C1414 H1408 0.930 . S
C1414 C1415 1.367 . S
C1414 C1422 1.378 . S
C1415 C1414 1.367 . S
C1415 C1423 1.433 . S
C1416 H1412 0.929 . S
C1416 C1418 1.378 . S
C1416 C1420 1.350 . S
C1417 C1420 1.463 . S
C1417 C1422 1.350 . S
C1417 N1425 1.427 . S
C1418 H1409 0.930 . S
C1418 C1416 1.378 . S
C1418 C1419 1.367 . S
C1419 C1418 1.367 . S
C1419 C1421 1.433 . S
C1420 C1416 1.350 . S
C1420 C1417 1.463 . S
C1420 N1424 1.427 . S
C1421 H1411 0.929 . S
C1421 C1419 1.433 . S
C1421 N1424 1.384 . S
C1422 H1413 0.929 . S
C1422 C1414 1.378 . S
C1422 C1417 1.350 . S
C1423 H1410 0.929 . S
C1423 C1415 1.433 . S
C1423 N1425 1.384 . S
N1424 C1420 1.427 . S
N1424 C1421 1.384 . S
N1425 C1417 1.427 . S
N1425 C1423 1.384 . S
H1426 C1432 0.930 . S
H1427 C1436 0.930 . S
H1428 C1441 0.929 . S
H1429 C1439 0.929 . S
H1430 C1434 0.929 . S
H1431 C1440 0.929 . S
C1432 H1426 0.930 . S
C1432 C1433 1.367 . S
C1432 C1440 1.378 . S
C1433 C1432 1.367 . S
C1433 C1441 1.433 . S
C1434 H1430 0.929 . S
C1434 C1436 1.378 . S
C1434 C1438 1.350 . S
C1435 C1438 1.463 . S
C1435 C1440 1.350 . S
C1435 N1443 1.427 . S
C1436 H1427 0.930 . S
C1436 C1434 1.378 . S
C1436 C1437 1.367 . S
C1437 C1436 1.367 . S
C1437 C1439 1.433 . S
C1438 C1434 1.350 . S
C1438 C1435 1.463 . S
C1438 N1442 1.427 . S
C1439 H1429 0.929 . S
C1439 C1437 1.433 . S
C1439 N1442 1.384 . S
C1440 H1431 0.929 . S
C1440 C1432 1.378 . S
C1440 C1435 1.350 . S
C1441 H1428 0.929 . S
C1441 C1433 1.433 . S
C1441 N1443 1.384 . S
N1442 C1438 1.427 . S
N1442 C1439 1.384 . S
N1443 C1435 1.427 . S
N1443 C1441 1.384 . S
H1444 C1450 0.930 . S
H1445 C1454 0.930 . S
H1446 C1459 0.929 . S
H1447 C1457 0.929 . S
H1448 C1452 0.929 . S
H1449 C1458 0.929 . S
C1450 H1444 0.930 . S
C1450 C1451 1.367 . S
C1450 C1458 1.378 . S
C1451 C1450 1.367 . S
C1451 C1459 1.433 . S
C1452 H1448 0.929 . S
C1452 C1454 1.378 . S
C1452 C1456 1.350 . S
C1453 C1456 1.463 . S
C1453 C1458 1.350 . S
C1453 N1461 1.427 . S
C1454 H1445 0.930 . S
C1454 C1452 1.378 . S
C1454 C1455 1.367 . S
C1455 C1454 1.367 . S
C1455 C1457 1.433 . S
C1456 C1452 1.350 . S
C1456 C1453 1.463 . S
C1456 N1460 1.427 . S
C1457 H1447 0.929 . S
C1457 C1455 1.433 . S
C1457 N1460 1.384 . S
C1458 H1449 0.929 . S
C1458 C1450 1.378 . S
C1458 C1453 1.350 . S
C1459 H1446 0.929 . S
C1459 C1451 1.433 . S
C1459 N1461 1.384 . S
N1460 C1456 1.427 . S
N1460 C1457 1.384 . S
N1461 C1453 1.427 . S
N1461 C1459 1.384 . S
H1462 C1468 0.930 . S
H1463 C1472 0.930 . S
H1464 C1477 0.929 . S
H1465 C1475 0.929 . S
H1466 C1470 0.929 . S
H1467 C1476 0.929 . S
C1468 H1462 0.930 . S
C1468 C1469 1.367 . S
C1468 C1476 1.378 . S
C1469 C1468 1.367 . S
C1469 C1477 1.433 . S
C1470 H1466 0.929 . S
C1470 C1472 1.378 . S
C1470 C1474 1.350 . S
C1471 C1474 1.463 . S
C1471 C1476 1.350 . S
C1471 N1479 1.427 . S
C1472 H1463 0.930 . S
C1472 C1470 1.378 . S
C1472 C1473 1.367 . S
C1473 C1472 1.367 . S
C1473 C1475 1.433 . S
C1474 C1470 1.350 . S
C1474 C1471 1.463 . S
C1474 N1478 1.427 . S
C1475 H1465 0.929 . S
C1475 C1473 1.433 . S
C1475 N1478 1.384 . S
C1476 H1467 0.929 . S
C1476 C1468 1.378 . S
C1476 C1471 1.350 . S
C1477 H1464 0.929 . S
C1477 C1469 1.433 . S
C1477 N1479 1.384 . S
N1478 C1474 1.427 . S
N1478 C1475 1.384 . S
N1479 C1471 1.427 . S
N1479 C1477 1.384 . S
H1480 C1486 0.930 . S
H1481 C1490 0.930 . S
H1482 C1495 0.929 . S
H1483 C1493 0.929 . S
H1484 C1488 0.929 . S
H1485 C1494 0.929 . S
C1486 H1480 0.930 . S
C1486 C1487 1.367 . S
C1486 C1494 1.378 . S
C1487 C1486 1.367 . S
C1487 C1495 1.433 . S
C1488 H1484 0.929 . S
C1488 C1490 1.378 . S
C1488 C1492 1.350 . S
C1489 C1492 1.463 . S
C1489 C1494 1.350 . S
C1489 N1497 1.427 . S
C1490 H1481 0.930 . S
C1490 C1488 1.378 . S
C1490 C1491 1.367 . S
C1491 C1490 1.367 . S
C1491 C1493 1.433 . S
C1492 C1488 1.350 . S
C1492 C1489 1.463 . S
C1492 N1496 1.427 . S
C1493 H1483 0.929 . S
C1493 C1491 1.433 . S
C1493 N1496 1.384 . S
C1494 H1485 0.929 . S
C1494 C1486 1.378 . S
C1494 C1489 1.350 . S
C1495 H1482 0.929 . S
C1495 C1487 1.433 . S
C1495 N1497 1.384 . S
N1496 C1492 1.427 . S
N1496 C1493 1.384 . S
N1497 C1489 1.427 . S
N1497 C1495 1.384 . S
H1498 C1504 0.930 . S
H1499 C1508 0.930 . S
H1500 C1513 0.929 . S
H1501 C1511 0.929 . S
H1502 C1506 0.929 . S
H1503 C1512 0.929 . S
C1504 H1498 0.930 . S
C1504 C1505 1.367 . S
C1504 C1512 1.378 . S
C1505 C1504 1.367 . S
C1505 C1513 1.433 . S
C1506 H1502 0.929 . S
C1506 C1508 1.378 . S
C1506 C1510 1.350 . S
C1507 C1510 1.463 . S
C1507 C1512 1.350 . S
C1507 N1515 1.427 . S
C1508 H1499 0.930 . S
C1508 C1506 1.378 . S
C1508 C1509 1.367 . S
C1509 C1508 1.367 . S
C1509 C1511 1.433 . S
C1510 C1506 1.350 . S
C1510 C1507 1.463 . S
C1510 N1514 1.427 . S
C1511 H1501 0.929 . S
C1511 C1509 1.433 . S
C1511 N1514 1.384 . S
C1512 H1503 0.929 . S
C1512 C1504 1.378 . S
C1512 C1507 1.350 . S
C1513 H1500 0.929 . S
C1513 C1505 1.433 . S
C1513 N1515 1.384 . S
N1514 C1510 1.427 . S
N1514 C1511 1.384 . S
N1515 C1507 1.427 . S
N1515 C1513 1.384 . S
H1516 C1522 0.930 . S
H1517 C1526 0.930 . S
H1518 C1531 0.929 . S
H1519 C1529 0.929 . S
H1520 C1524 0.929 . S
H1521 C1530 0.929 . S
C1522 H1516 0.930 . S
C1522 C1523 1.367 . S
C1522 C1530 1.378 . S
C1523 C1522 1.367 . S
C1523 C1531 1.433 . S
C1524 H1520 0.929 . S
C1524 C1526 1.378 . S
C1524 C1528 1.350 . S
C1525 C1528 1.463 . S
C1525 C1530 1.350 . S
C1525 N1533 1.427 . S
C1526 H1517 0.930 . S
C1526 C1524 1.378 . S
C1526 C1527 1.367 . S
C1527 C1526 1.367 . S
C1527 C1529 1.433 . S
C1528 C1524 1.350 . S
C1528 C1525 1.463 . S
C1528 N1532 1.427 . S
C1529 H1519 0.929 . S
C1529 C1527 1.433 . S
C1529 N1532 1.384 . S
C1530 H1521 0.929 . S
C1530 C1522 1.378 . S
C1530 C1525 1.350 . S
C1531 H1518 0.929 . S
C1531 C1523 1.433 . S
C1531 N1533 1.384 . S
N1532 C1528 1.427 . S
N1532 C1529 1.384 . S
N1533 C1525 1.427 . S
N1533 C1531 1.384 . S
H1534 C1540 0.930 . S
H1535 C1544 0.930 . S
H1536 C1549 0.929 . S
H1537 C1547 0.929 . S
H1538 C1542 0.929 . S
H1539 C1548 0.929 1_455 S
C1540 H1534 0.930 . S
C1540 C1541 1.367 . S
C1540 C1548 1.378 . S
C1541 C1540 1.367 . S
C1541 C1549 1.433 . S
C1542 H1538 0.929 . S
C1542 C1544 1.378 . S
C1542 C1546 1.350 . S
C1543 C1546 1.463 . S
C1543 C1548 1.350 . S
C1543 N1551 1.427 . S
C1544 H1535 0.930 . S
C1544 C1542 1.378 . S
C1544 C1545 1.367 . S
C1545 C1544 1.367 . S
C1545 C1547 1.433 1_655 S
C1546 C1542 1.350 . S
C1546 C1543 1.463 . S
C1546 N1550 1.427 1_655 S
C1547 H1537 0.929 . S
C1547 C1545 1.433 1_455 S
C1547 N1550 1.384 . S
C1548 H1539 0.929 1_655 S
C1548 C1540 1.378 . S
C1548 C1543 1.350 . S
C1549 H1536 0.929 . S
C1549 C1541 1.433 . S
C1549 N1551 1.384 . S
N1550 C1546 1.427 1_455 S
N1550 C1547 1.384 . S
N1551 C1543 1.427 . S
N1551 C1549 1.384 . S
H1552 C1558 0.930 . S
H1553 C1562 0.930 . S
H1554 C1567 0.929 . S
H1555 C1565 0.929 . S
H1556 C1560 0.929 . S
H1557 C1566 0.929 . S
C1558 H1552 0.930 . S
C1558 C1559 1.367 . S
C1558 C1566 1.378 . S
C1559 C1558 1.367 . S
C1559 C1567 1.433 . S
C1560 H1556 0.929 . S
C1560 C1562 1.378 . S
C1560 C1564 1.350 . S
C1561 C1564 1.463 . S
C1561 C1566 1.350 . S
C1561 N1569 1.427 . S
C1562 H1553 0.930 . S
C1562 C1560 1.378 . S
C1562 C1563 1.367 . S
C1563 C1562 1.367 . S
C1563 C1565 1.433 . S
C1564 C1560 1.350 . S
C1564 C1561 1.463 . S
C1564 N1568 1.427 . S
C1565 H1555 0.929 . S
C1565 C1563 1.433 . S
C1565 N1568 1.384 . S
C1566 H1557 0.929 . S
C1566 C1558 1.378 . S
C1566 C1561 1.350 . S
C1567 H1554 0.929 . S
C1567 C1559 1.433 . S
C1567 N1569 1.384 . S
N1568 C1564 1.427 . S
N1568 C1565 1.384 . S
N1569 C1561 1.427 . S
N1569 C1567 1.384 . S
H1570 C1576 0.930 . S
H1571 C1580 0.930 . S
H1572 C1585 0.929 . S
H1573 C1583 0.929 . S
H1574 C1578 0.929 . S
H1575 C1584 0.929 . S
C1576 H1570 0.930 . S
C1576 C1577 1.367 . S
C1576 C1584 1.378 . S
C1577 C1576 1.367 . S
C1577 C1585 1.433 . S
C1578 H1574 0.929 . S
C1578 C1580 1.378 . S
C1578 C1582 1.350 . S
C1579 C1582 1.463 . S
C1579 C1584 1.350 . S
C1579 N1587 1.427 . S
C1580 H1571 0.930 . S
C1580 C1578 1.378 . S
C1580 C1581 1.367 . S
C1581 C1580 1.367 . S
C1581 C1583 1.433 . S
C1582 C1578 1.350 . S
C1582 C1579 1.463 . S
C1582 N1586 1.427 . S
C1583 H1573 0.929 . S
C1583 C1581 1.433 . S
C1583 N1586 1.384 . S
C1584 H1575 0.929 . S
C1584 C1576 1.378 . S
C1584 C1579 1.350 . S
C1585 H1572 0.929 . S
C1585 C1577 1.433 . S
C1585 N1587 1.384 . S
N1586 C1582 1.427 . S
N1586 C1583 1.384 . S
N1587 C1579 1.427 . S
N1587 C1585 1.384 . S
H1588 C1594 0.930 . S
H1589 C1598 0.930 . S
H1590 C1603 0.929 . S
H1591 C1601 0.929 . S
H1592 C1596 0.929 . S
H1593 C1602 0.929 . S
C1594 H1588 0.930 . S
C1594 C1595 1.367 . S
C1594 C1602 1.378 . S
C1595 C1594 1.367 . S
C1595 C1603 1.433 1_556 S
C1596 H1592 0.929 . S
C1596 C1598 1.378 . S
C1596 C1600 1.350 1_554 S
C1597 C1600 1.463 . S
C1597 C1602 1.350 1_565 S
C1597 N1605 1.427 1_556 S
C1598 H1589 0.930 . S
C1598 C1596 1.378 . S
C1598 C1599 1.367 1_554 S
C1599 C1598 1.367 1_556 S
C1599 C1601 1.433 . S
C1600 C1596 1.350 1_556 S
C1600 C1597 1.463 . S
C1600 N1604 1.427 . S
C1601 H1591 0.929 . S
C1601 C1599 1.433 . S
C1601 N1604 1.384 . S
C1602 H1593 0.929 . S
C1602 C1594 1.378 . S
C1602 C1597 1.350 1_545 S
C1603 H1590 0.929 . S
C1603 C1595 1.433 1_554 S
C1603 N1605 1.384 1_545 S
N1604 C1600 1.427 . S
N1604 C1601 1.384 . S
N1605 C1597 1.427 1_554 S
N1605 C1603 1.384 1_565 S
H1606 C1612 0.930 . S
H1607 C1616 0.930 . S
H1608 C1621 0.929 . S
H1609 C1619 0.929 . S
H1610 C1614 0.929 . S
H1611 C1620 0.929 . S
C1612 H1606 0.930 . S
C1612 C1613 1.367 . S
C1612 C1620 1.378 . S
C1613 C1612 1.367 . S
C1613 C1621 1.433 . S
C1614 H1610 0.929 . S
C1614 C1616 1.378 . S
C1614 C1618 1.350 . S
C1615 C1618 1.463 . S
C1615 C1620 1.350 . S
C1615 N1623 1.427 . S
C1616 H1607 0.930 . S
C1616 C1614 1.378 . S
C1616 C1617 1.367 . S
C1617 C1616 1.367 . S
C1617 C1619 1.433 . S
C1618 C1614 1.350 . S
C1618 C1615 1.463 . S
C1618 N1622 1.427 . S
C1619 H1609 0.929 . S
C1619 C1617 1.433 . S
C1619 N1622 1.384 . S
C1620 H1611 0.929 . S
C1620 C1612 1.378 . S
C1620 C1615 1.350 . S
C1621 H1608 0.929 . S
C1621 C1613 1.433 . S
C1621 N1623 1.384 . S
N1622 C1618 1.427 . S
N1622 C1619 1.384 . S
N1623 C1615 1.427 . S
N1623 C1621 1.384 . S
H1624 C1630 0.930 1_565 S
H1625 C1634 0.930 . S
H1626 C1639 0.929 . S
H1627 C1637 0.929 . S
H1628 C1632 0.929 . S
H1629 C1638 0.929 . S
C1630 H1624 0.930 1_545 S
C1630 C1631 1.367 . S
C1630 C1638 1.378 . S
C1631 C1630 1.367 . S
C1631 C1639 1.433 . S
C1632 H1628 0.929 . S
C1632 C1634 1.378 . S
C1632 C1636 1.350 . S
C1633 C1636 1.463 . S
C1633 C1638 1.350 . S
C1633 N1641 1.427 . S
C1634 H1625 0.930 . S
C1634 C1632 1.378 . S
C1634 C1635 1.367 . S
C1635 C1634 1.367 . S
C1635 C1637 1.433 . S
C1636 C1632 1.350 . S
C1636 C1633 1.463 . S
C1636 N1640 1.427 . S
C1637 H1627 0.929 . S
C1637 C1635 1.433 . S
C1637 N1640 1.384 . S
C1638 H1629 0.929 . S
C1638 C1630 1.378 . S
C1638 C1633 1.350 . S
C1639 H1626 0.929 . S
C1639 C1631 1.433 . S
C1639 N1641 1.384 . S
N1640 C1636 1.427 . S
N1640 C1637 1.384 . S
N1641 C1633 1.427 . S
N1641 C1639 1.384 . S
H1642 C1648 0.930 . S
H1643 C1652 0.930 . S
H1644 C1657 0.929 . S
H1645 C1655 0.929 . S
H1646 C1650 0.929 . S
H1647 C1656 0.929 . S
C1648 H1642 0.930 . S
C1648 C1649 1.367 . S
C1648 C1656 1.378 . S
C1649 C1648 1.367 . S
C1649 C1657 1.433 . S
C1650 H1646 0.929 . S
C1650 C1652 1.378 . S
C1650 C1654 1.350 . S
C1651 C1654 1.463 . S
C1651 C1656 1.350 . S
C1651 N1659 1.427 . S
C1652 H1643 0.930 . S
C1652 C1650 1.378 . S
C1652 C1653 1.367 . S
C1653 C1652 1.367 . S
C1653 C1655 1.433 . S
C1654 C1650 1.350 . S
C1654 C1651 1.463 . S
C1654 N1658 1.427 . S
C1655 H1645 0.929 . S
C1655 C1653 1.433 . S
C1655 N1658 1.384 . S
C1656 H1647 0.929 . S
C1656 C1648 1.378 . S
C1656 C1651 1.350 . S
C1657 H1644 0.929 . S
C1657 C1649 1.433 . S
C1657 N1659 1.384 . S
N1658 C1654 1.427 . S
N1658 C1655 1.384 . S
N1659 C1651 1.427 . S
N1659 C1657 1.384 . S
H1660 C1666 0.930 . S
H1661 C1670 0.930 . S
H1662 C1675 0.929 . S
H1663 C1673 0.929 . S
H1664 C1668 0.929 . S
H1665 C1674 0.929 . S
C1666 H1660 0.930 . S
C1666 C1667 1.355 1_565 S
C1666 C1674 1.378 1_565 S
C1667 C1666 1.355 1_545 S
C1667 C1675 1.476 . S
C1668 H1664 0.929 . S
C1668 C1670 1.378 . S
C1668 C1672 1.350 . S
C1669 C1672 1.463 . S
C1669 C1674 1.350 . S
C1669 N1677 1.427 . S
C1670 H1661 0.930 . S
C1670 C1668 1.378 . S
C1670 C1671 1.367 . S
C1671 C1670 1.367 . S
C1671 C1673 1.433 . S
C1672 C1668 1.350 . S
C1672 C1669 1.463 . S
C1672 N1676 1.427 . S
C1673 H1663 0.929 . S
C1673 C1671 1.433 . S
C1673 N1676 1.384 . S
C1674 H1665 0.929 . S
C1674 C1666 1.378 1_545 S
C1674 C1669 1.350 . S
C1675 H1662 0.929 . S
C1675 C1667 1.476 . S
C1675 N1677 1.384 . S
N1676 C1672 1.427 . S
N1676 C1673 1.384 . S
N1677 C1669 1.427 . S
N1677 C1675 1.384 . S
H1678 C1684 0.930 . S
H1679 C1688 0.930 . S
H1680 C1693 0.929 . S
H1681 C1691 0.929 . S
H1682 C1686 0.929 . S
H1683 C1692 0.929 . S
C1684 H1678 0.930 . S
C1684 C1685 1.367 . S
C1684 C1692 1.378 . S
C1685 C1684 1.367 . S
C1685 C1693 1.433 . S
C1686 H1682 0.929 . S
C1686 C1688 1.378 . S
C1686 C1690 1.350 . S
C1687 C1690 1.463 . S
C1687 C1692 1.350 . S
C1687 N1695 1.427 . S
C1688 H1679 0.930 . S
C1688 C1686 1.378 . S
C1688 C1689 1.367 . S
C1689 C1688 1.367 . S
C1689 C1691 1.433 . S
C1690 C1686 1.350 . S
C1690 C1687 1.463 . S
C1690 N1694 1.427 . S
C1691 H1681 0.929 . S
C1691 C1689 1.433 . S
C1691 N1694 1.384 . S
C1692 H1683 0.929 . S
C1692 C1684 1.378 . S
C1692 C1687 1.350 . S
C1693 H1680 0.929 . S
C1693 C1685 1.433 . S
C1693 N1695 1.384 . S
N1694 C1690 1.427 . S
N1694 C1691 1.384 . S
N1695 C1687 1.427 . S
N1695 C1693 1.384 . S
H1696 C1702 0.930 . S
H1697 C1706 0.930 . S
H1698 C1711 0.929 . S
H1699 C1709 0.929 . S
H1700 C1704 0.929 . S
H1701 C1710 0.929 . S
C1702 H1696 0.930 . S
C1702 C1703 1.367 . S
C1702 C1710 1.378 . S
C1703 C1702 1.367 . S
C1703 C1711 1.433 . S
C1704 H1700 0.929 . S
C1704 C1706 1.378 . S
C1704 C1708 1.350 . S
C1705 C1708 1.463 . S
C1705 C1710 1.350 . S
C1705 N1713 1.427 . S
C1706 H1697 0.930 . S
C1706 C1704 1.378 . S
C1706 C1707 1.367 . S
C1707 C1706 1.367 . S
C1707 C1709 1.433 . S
C1708 C1704 1.350 . S
C1708 C1705 1.463 . S
C1708 N1712 1.427 . S
C1709 H1699 0.929 . S
C1709 C1707 1.433 . S
C1709 N1712 1.384 . S
C1710 H1701 0.929 . S
C1710 C1702 1.378 . S
C1710 C1705 1.350 . S
C1711 H1698 0.929 . S
C1711 C1703 1.433 . S
C1711 N1713 1.384 . S
N1712 C1708 1.427 . S
N1712 C1709 1.384 . S
N1713 C1705 1.427 . S
N1713 C1711 1.384 . S
H1714 C1720 0.930 . S
H1715 C1724 0.930 . S
H1716 C1729 0.929 . S
H1717 C1727 0.929 . S
H1718 C1722 0.929 . S
H1719 C1728 0.929 . S
C1720 H1714 0.930 . S
C1720 C1721 1.367 . S
C1720 C1728 1.378 . S
C1721 C1720 1.367 . S
C1721 C1729 1.433 . S
C1722 H1718 0.929 . S
C1722 C1724 1.378 . S
C1722 C1726 1.350 . S
C1723 C1726 1.463 . S
C1723 C1728 1.350 . S
C1723 N1731 1.427 . S
C1724 H1715 0.930 . S
C1724 C1722 1.378 . S
C1724 C1725 1.367 . S
C1725 C1724 1.367 . S
C1725 C1727 1.433 . S
C1726 C1722 1.350 . S
C1726 C1723 1.463 . S
C1726 N1730 1.427 . S
C1727 H1717 0.929 . S
C1727 C1725 1.433 . S
C1727 N1730 1.384 . S
C1728 H1719 0.929 . S
C1728 C1720 1.378 . S
C1728 C1723 1.350 . S
C1729 H1716 0.929 . S
C1729 C1721 1.433 . S
C1729 N1731 1.384 . S
N1730 C1726 1.427 . S
N1730 C1727 1.384 . S
N1731 C1723 1.427 . S
N1731 C1729 1.384 . S
H1732 C1738 0.930 . S
H1733 C1742 0.930 . S
H1734 C1747 0.929 . S
H1735 C1745 0.929 . S
H1736 C1740 0.929 . S
H1737 C1746 0.929 . S
C1738 H1732 0.930 . S
C1738 C1739 1.367 . S
C1738 C1746 1.378 . S
C1739 C1738 1.367 . S
C1739 C1747 1.433 . S
C1740 H1736 0.929 . S
C1740 C1742 1.378 . S
C1740 C1744 1.350 . S
C1741 C1744 1.463 . S
C1741 C1746 1.350 . S
C1741 N1749 1.427 . S
C1742 H1733 0.930 . S
C1742 C1740 1.378 . S
C1742 C1743 1.367 . S
C1743 C1742 1.367 . S
C1743 C1745 1.433 . S
C1744 C1740 1.350 . S
C1744 C1741 1.463 . S
C1744 N1748 1.427 . S
C1745 H1735 0.929 . S
C1745 C1743 1.433 . S
C1745 N1748 1.384 . S
C1746 H1737 0.929 . S
C1746 C1738 1.378 . S
C1746 C1741 1.350 . S
C1747 H1734 0.929 . S
C1747 C1739 1.433 . S
C1747 N1749 1.384 . S
N1748 C1744 1.427 . S
N1748 C1745 1.384 . S
N1749 C1741 1.427 . S
N1749 C1747 1.384 . S
H1750 C1756 0.930 . S
H1751 C1760 0.930 . S
H1752 C1765 0.929 . S
H1753 C1763 0.929 . S
H1754 C1758 0.929 . S
H1755 C1764 0.929 . S
C1756 H1750 0.930 . S
C1756 C1757 1.367 . S
C1756 C1764 1.378 . S
C1757 C1756 1.367 . S
C1757 C1765 1.433 . S
C1758 H1754 0.929 . S
C1758 C1760 1.378 . S
C1758 C1762 1.350 . S
C1759 C1762 1.463 . S
C1759 C1764 1.350 . S
C1759 N1767 1.427 . S
C1760 H1751 0.930 . S
C1760 C1758 1.378 . S
C1760 C1761 1.367 . S
C1761 C1760 1.367 . S
C1761 C1763 1.433 . S
C1762 C1758 1.350 . S
C1762 C1759 1.463 . S
C1762 N1766 1.427 . S
C1763 H1753 0.929 . S
C1763 C1761 1.433 . S
C1763 N1766 1.384 . S
C1764 H1755 0.929 . S
C1764 C1756 1.378 . S
C1764 C1759 1.350 . S
C1765 H1752 0.929 . S
C1765 C1757 1.433 . S
C1765 N1767 1.384 . S
N1766 C1762 1.427 . S
N1766 C1763 1.384 . S
N1767 C1759 1.427 . S
N1767 C1765 1.384 . S
H1768 C1774 0.930 . S
H1769 C1778 0.930 . S
H1770 C1783 0.929 . S
H1771 C1781 0.929 . S
H1772 C1776 0.929 . S
H1773 C1782 0.929 . S
C1774 H1768 0.930 . S
C1774 C1775 1.367 . S
C1774 C1782 1.378 . S
C1775 C1774 1.367 . S
C1775 C1783 1.433 . S
C1776 H1772 0.929 . S
C1776 C1778 1.378 . S
C1776 C1780 1.350 . S
C1777 C1780 1.463 . S
C1777 C1782 1.350 . S
C1777 N1785 1.427 . S
C1778 H1769 0.930 . S
C1778 C1776 1.378 . S
C1778 C1779 1.367 . S
C1779 C1778 1.367 . S
C1779 C1781 1.433 . S
C1780 C1776 1.350 . S
C1780 C1777 1.463 . S
C1780 N1784 1.427 . S
C1781 H1771 0.929 . S
C1781 C1779 1.433 . S
C1781 N1784 1.384 . S
C1782 H1773 0.929 . S
C1782 C1774 1.378 . S
C1782 C1777 1.350 . S
C1783 H1770 0.929 . S
C1783 C1775 1.433 . S
C1783 N1785 1.384 . S
N1784 C1780 1.427 . S
N1784 C1781 1.384 . S
N1785 C1777 1.427 . S
N1785 C1783 1.384 . S
H1786 C1792 0.930 . S
H1787 C1796 0.930 . S
H1788 C1801 0.929 . S
H1789 C1799 0.929 . S
H1790 C1794 0.929 . S
H1791 C1800 0.929 . S
C1792 H1786 0.930 . S
C1792 C1793 1.367 . S
C1792 C1800 1.378 . S
C1793 C1792 1.367 . S
C1793 C1801 1.433 1_545 S
C1794 H1790 0.929 . S
C1794 C1796 1.378 . S
C1794 C1798 1.350 1_565 S
C1795 C1798 1.463 . S
C1795 C1800 1.350 . S
C1795 N1803 1.427 1_545 S
C1796 H1787 0.930 . S
C1796 C1794 1.378 . S
C1796 C1797 1.367 1_565 S
C1797 C1796 1.367 1_545 S
C1797 C1799 1.433 . S
C1798 C1794 1.350 1_545 S
C1798 C1795 1.463 . S
C1798 N1802 1.427 . S
C1799 H1789 0.929 . S
C1799 C1797 1.433 . S
C1799 N1802 1.384 . S
C1800 H1791 0.929 . S
C1800 C1792 1.378 . S
C1800 C1795 1.350 . S
C1801 H1788 0.929 . S
C1801 C1793 1.433 1_565 S
C1801 N1803 1.384 . S
N1802 C1798 1.427 . S
N1802 C1799 1.384 . S
N1803 C1795 1.427 1_565 S
N1803 C1801 1.384 . S
H1804 C1810 0.930 . S
H1805 C1814 0.930 . S
H1806 C1819 0.929 . S
H1807 C1817 0.929 . S
H1808 C1812 0.929 . S
H1809 C1818 0.929 . S
C1810 H1804 0.930 . S
C1810 C1811 1.367 . S
C1810 C1818 1.378 . S
C1811 C1810 1.367 . S
C1811 C1819 1.433 . S
C1812 H1808 0.929 . S
C1812 C1814 1.378 . S
C1812 C1816 1.350 . S
C1813 C1816 1.463 . S
C1813 C1818 1.350 . S
C1813 N1821 1.427 . S
C1814 H1805 0.930 . S
C1814 C1812 1.378 . S
C1814 C1815 1.367 . S
C1815 C1814 1.367 . S
C1815 C1817 1.433 . S
C1816 C1812 1.350 . S
C1816 C1813 1.463 . S
C1816 N1820 1.427 . S
C1817 H1807 0.929 . S
C1817 C1815 1.433 . S
C1817 N1820 1.384 . S
C1818 H1809 0.929 . S
C1818 C1810 1.378 . S
C1818 C1813 1.350 . S
C1819 H1806 0.929 . S
C1819 C1811 1.433 . S
C1819 N1821 1.384 . S
N1820 C1816 1.427 . S
N1820 C1817 1.384 . S
N1821 C1813 1.427 . S
N1821 C1819 1.384 . S
H1822 C1828 0.930 1_655 S
H1823 C1832 0.930 . S
H1824 C1837 0.929 . S
H1825 C1835 0.929 . S
H1826 C1830 0.929 . S
H1827 C1836 0.929 . S
C1828 H1822 0.930 1_455 S
C1828 C1829 1.367 . S
C1828 C1836 1.378 . S
C1829 C1828 1.367 . S
C1829 C1837 1.433 . S
C1830 H1826 0.929 . S
C1830 C1832 1.378 . S
C1830 C1834 1.350 . S
C1831 C1834 1.463 . S
C1831 C1836 1.350 . S
C1831 N1839 1.427 . S
C1832 H1823 0.930 . S
C1832 C1830 1.378 . S
C1832 C1833 1.367 . S
C1833 C1832 1.367 . S
C1833 C1835 1.433 . S
C1834 C1830 1.350 . S
C1834 C1831 1.463 . S
C1834 N1838 1.427 . S
C1835 H1825 0.929 . S
C1835 C1833 1.433 . S
C1835 N1838 1.384 . S
C1836 H1827 0.929 . S
C1836 C1828 1.378 . S
C1836 C1831 1.350 . S
C1837 H1824 0.929 . S
C1837 C1829 1.433 . S
C1837 N1839 1.384 . S
N1838 C1834 1.427 . S
N1838 C1835 1.384 . S
N1839 C1831 1.427 . S
N1839 C1837 1.384 . S
H1840 C1846 0.930 . S
H1841 C1850 0.930 . S
H1842 C1855 0.929 . S
H1843 C1853 0.929 . S
H1844 C1848 0.929 . S
H1845 C1854 0.929 . S
C1846 H1840 0.930 . S
C1846 C1847 1.367 . S
C1846 C1854 1.378 . S
C1847 C1846 1.367 . S
C1847 C1855 1.433 . S
C1848 H1844 0.929 . S
C1848 C1850 1.378 . S
C1848 C1852 1.350 . S
C1849 C1852 1.463 . S
C1849 C1854 1.350 . S
C1849 N1857 1.427 . S
C1850 H1841 0.930 . S
C1850 C1848 1.378 . S
C1850 C1851 1.367 . S
C1851 C1850 1.367 . S
C1851 C1853 1.433 . S
C1852 C1848 1.350 . S
C1852 C1849 1.463 . S
C1852 N1856 1.427 . S
C1853 H1843 0.929 . S
C1853 C1851 1.433 . S
C1853 N1856 1.384 . S
C1854 H1845 0.929 . S
C1854 C1846 1.378 . S
C1854 C1849 1.350 . S
C1855 H1842 0.929 . S
C1855 C1847 1.433 . S
C1855 N1857 1.384 . S
N1856 C1852 1.427 . S
N1856 C1853 1.384 . S
N1857 C1849 1.427 . S
N1857 C1855 1.384 . S
H1858 C1864 0.930 . S
H1859 C1868 0.930 . S
H1860 C1873 0.929 . S
H1861 C1871 0.929 . S
H1862 C1866 0.929 . S
H1863 C1872 0.929 . S
C1864 H1858 0.930 . S
C1864 C1865 1.367 . S
C1864 C1872 1.378 . S
C1865 C1864 1.367 . S
C1865 C1873 1.433 . S
C1866 H1862 0.929 . S
C1866 C1868 1.378 . S
C1866 C1870 1.350 1_556 S
C1867 C1870 1.463 . S
C1867 C1872 1.350 . S
C1867 N1875 1.462 . S
C1868 H1859 0.930 . S
C1868 C1866 1.378 . S
C1868 C1869 1.367 . S
C1869 C1868 1.367 . S
C1869 C1871 1.433 1_556 S
C1870 C1866 1.350 1_554 S
C1870 C1867 1.463 . S
C1870 N1874 1.427 . S
C1871 H1861 0.929 . S
C1871 C1869 1.433 1_554 S
C1871 N1874 1.384 . S
C1872 H1863 0.929 . S
C1872 C1864 1.378 . S
C1872 C1867 1.350 . S
C1873 H1860 0.929 . S
C1873 C1865 1.433 . S
C1873 N1875 1.403 . S
N1874 C1870 1.427 . S
N1874 C1871 1.384 . S
N1875 C1867 1.462 . S
N1875 C1873 1.403 . S
H1876 C1882 0.930 . S
H1877 C1886 0.930 . S
H1878 C1891 0.929 . S
H1879 C1889 0.929 . S
H1880 C1884 0.929 . S
H1881 C1890 0.929 . S
C1882 H1876 0.930 . S
C1882 C1883 1.367 . S
C1882 C1890 1.378 . S
C1883 C1882 1.367 . S
C1883 C1891 1.433 . S
C1884 H1880 0.929 . S
C1884 C1886 1.378 . S
C1884 C1888 1.350 . S
C1885 C1888 1.463 . S
C1885 C1890 1.350 . S
C1885 N1893 1.427 . S
C1886 H1877 0.930 . S
C1886 C1884 1.378 . S
C1886 C1887 1.367 . S
C1887 C1886 1.367 . S
C1887 C1889 1.433 . S
C1888 C1884 1.350 . S
C1888 C1885 1.463 . S
C1888 N1892 1.427 . S
C1889 H1879 0.929 . S
C1889 C1887 1.433 . S
C1889 N1892 1.384 . S
C1890 H1881 0.929 . S
C1890 C1882 1.378 . S
C1890 C1885 1.350 . S
C1891 H1878 0.929 . S
C1891 C1883 1.433 . S
C1891 N1893 1.384 . S
N1892 C1888 1.427 . S
N1892 C1889 1.384 . S
N1893 C1885 1.427 . S
N1893 C1891 1.384 . S
H1894 C1900 0.930 . S
H1895 C1904 0.930 . S
H1896 C1909 0.929 . S
H1897 C1907 0.929 . S
H1898 C1902 0.929 . S
H1899 C1908 0.929 . S
C1900 H1894 0.930 . S
C1900 C1901 1.367 1_655 S
C1900 C1908 1.378 . S
C1901 C1900 1.367 1_455 S
C1901 C1909 1.433 . S
C1902 H1898 0.929 . S
C1902 C1904 1.378 . S
C1902 C1906 1.350 . S
C1903 C1906 1.463 1_554 S
C1903 C1908 1.350 1_455 S
C1903 N1911 1.427 . S
C1904 H1895 0.930 . S
C1904 C1902 1.378 . S
C1904 C1905 1.367 . S
C1905 C1904 1.367 . S
C1905 C1907 1.433 1_455 S
C1906 C1902 1.350 . S
C1906 C1903 1.463 1_556 S
C1906 N1910 1.427 1_455 S
C1907 H1897 0.929 . S
C1907 C1905 1.433 1_655 S
C1907 N1910 1.384 . S
C1908 H1899 0.929 . S
C1908 C1900 1.378 . S
C1908 C1903 1.350 1_655 S
C1909 H1896 0.929 . S
C1909 C1901 1.433 . S
C1909 N1911 1.384 . S
N1910 C1906 1.427 1_655 S
N1910 C1907 1.384 . S
N1911 C1903 1.427 . S
N1911 C1909 1.384 . S
H1912 C1918 0.930 . S
H1913 C1922 0.930 . S
H1914 C1927 0.929 . S
H1915 C1925 0.929 . S
H1916 C1920 0.929 . S
H1917 C1926 0.929 . S
C1918 H1912 0.930 . S
C1918 C1919 1.367 . S
C1918 C1926 1.378 . S
C1919 C1918 1.367 . S
C1919 C1927 1.433 . S
C1920 H1916 0.929 . S
C1920 C1922 1.378 . S
C1920 C1924 1.350 . S
C1921 C1924 1.463 . S
C1921 C1926 1.350 . S
C1921 N1929 1.427 . S
C1922 H1913 0.930 . S
C1922 C1920 1.378 . S
C1922 C1923 1.367 . S
C1923 C1922 1.367 . S
C1923 C1925 1.433 . S
C1924 C1920 1.350 . S
C1924 C1921 1.463 . S
C1924 N1928 1.427 . S
C1925 H1915 0.929 . S
C1925 C1923 1.433 . S
C1925 N1928 1.384 . S
C1926 H1917 0.929 . S
C1926 C1918 1.378 . S
C1926 C1921 1.350 . S
C1927 H1914 0.929 . S
C1927 C1919 1.433 . S
C1927 N1929 1.384 . S
N1928 C1924 1.427 . S
N1928 C1925 1.384 . S
N1929 C1921 1.427 . S
N1929 C1927 1.384 . S
H1930 C1936 0.930 . S
H1931 C1940 0.930 . S
H1932 C1945 0.929 . S
H1933 C1943 0.929 . S
H1934 C1938 0.929 . S
H1935 C1944 0.929 . S
C1936 H1930 0.930 . S
C1936 C1937 1.367 1_554 S
C1936 C1944 1.378 . S
C1937 C1936 1.367 1_556 S
C1937 C1945 1.433 . S
C1938 H1934 0.929 . S
C1938 C1940 1.378 . S
C1938 C1942 1.350 . S
C1939 C1942 1.463 . S
C1939 C1944 1.350 . S
C1939 N1947 1.427 . S
C1940 H1931 0.930 . S
C1940 C1938 1.378 . S
C1940 C1941 1.367 . S
C1941 C1940 1.367 . S
C1941 C1943 1.433 . S
C1942 C1938 1.350 . S
C1942 C1939 1.463 . S
C1942 N1946 1.427 . S
C1943 H1933 0.929 . S
C1943 C1941 1.433 . S
C1943 N1946 1.384 . S
C1944 H1935 0.929 . S
C1944 C1936 1.378 . S
C1944 C1939 1.350 . S
C1945 H1932 0.929 . S
C1945 C1937 1.433 . S
C1945 N1947 1.384 1_556 S
N1946 C1942 1.427 . S
N1946 C1943 1.384 . S
N1947 C1939 1.427 . S
N1947 C1945 1.384 1_554 S
H1948 C1954 0.930 . S
H1949 C1958 0.930 . S
H1950 C1963 0.929 . S
H1951 C1961 0.929 . S
H1952 C1956 0.929 . S
H1953 C1962 0.929 . S
C1954 H1948 0.930 . S
C1954 C1955 1.367 . S
C1954 C1962 1.378 . S
C1955 C1954 1.367 . S
C1955 C1963 1.433 . S
C1956 H1952 0.929 . S
C1956 C1958 1.378 . S
C1956 C1960 1.350 . S
C1957 C1960 1.463 . S
C1957 C1962 1.350 . S
C1957 N1965 1.427 . S
C1958 H1949 0.930 . S
C1958 C1956 1.378 . S
C1958 C1959 1.367 . S
C1959 C1958 1.367 . S
C1959 C1961 1.433 . S
C1960 C1956 1.350 . S
C1960 C1957 1.463 . S
C1960 N1964 1.427 . S
C1961 H1951 0.929 . S
C1961 C1959 1.433 . S
C1961 N1964 1.384 . S
C1962 H1953 0.929 . S
C1962 C1954 1.378 . S
C1962 C1957 1.350 . S
C1963 H1950 0.929 . S
C1963 C1955 1.433 . S
C1963 N1965 1.384 . S
N1964 C1960 1.427 . S
N1964 C1961 1.384 . S
N1965 C1957 1.427 . S
N1965 C1963 1.384 . S
H1966 C1972 0.916 1_556 S
H1967 C1976 0.930 . S
H1968 C1981 0.929 1_556 S
H1969 C1979 0.929 . S
H1970 C1974 0.929 . S
H1971 C1980 0.929 . S
C1972 H1966 0.916 1_554 S
C1972 C1973 1.358 1_554 S
C1972 C1980 1.404 . S
C1973 C1972 1.358 1_556 S
C1973 C1981 1.433 1_556 S
C1974 H1970 0.929 . S
C1974 C1976 1.378 . S
C1974 C1978 1.350 . S
C1975 C1978 1.463 . S
C1975 C1980 1.350 . S
C1975 N1983 1.427 . S
C1976 H1967 0.930 . S
C1976 C1974 1.378 . S
C1976 C1977 1.367 . S
C1977 C1976 1.367 . S
C1977 C1979 1.433 . S
C1978 C1974 1.350 . S
C1978 C1975 1.463 . S
C1978 N1982 1.427 . S
C1979 H1969 0.929 . S
C1979 C1977 1.433 . S
C1979 N1982 1.384 . S
C1980 H1971 0.929 . S
C1980 C1972 1.404 . S
C1980 C1975 1.350 . S
C1981 H1968 0.929 1_554 S
C1981 C1973 1.433 1_554 S
C1981 N1983 1.384 . S
N1982 C1978 1.427 . S
N1982 C1979 1.384 . S
N1983 C1975 1.427 . S
N1983 C1981 1.384 . S
H1984 C1990 0.930 . S
H1985 C1994 0.930 . S
H1986 C1999 0.929 . S
H1987 C1997 0.929 . S
H1988 C1992 0.929 . S
H1989 C1998 0.929 . S
C1990 H1984 0.930 . S
C1990 C1991 1.367 . S
C1990 C1998 1.378 . S
C1991 C1990 1.367 . S
C1991 C1999 1.433 . S
C1992 H1988 0.929 . S
C1992 C1994 1.378 . S
C1992 C1996 1.350 . S
C1993 C1996 1.463 . S
C1993 C1998 1.350 . S
C1993 N2001 1.427 . S
C1994 H1985 0.930 . S
C1994 C1992 1.378 . S
C1994 C1995 1.367 . S
C1995 C1994 1.367 . S
C1995 C1997 1.433 . S
C1996 C1992 1.350 . S
C1996 C1993 1.463 . S
C1996 N2000 1.427 . S
C1997 H1987 0.929 . S
C1997 C1995 1.433 . S
C1997 N2000 1.384 . S
C1998 H1989 0.929 . S
C1998 C1990 1.378 . S
C1998 C1993 1.350 . S
C1999 H1986 0.929 . S
C1999 C1991 1.433 . S
C1999 N2001 1.384 . S
N2000 C1996 1.427 . S
N2000 C1997 1.384 . S
N2001 C1993 1.427 . S
N2001 C1999 1.384 . S
H2002 C2008 0.930 . S
H2003 C2012 0.930 . S
H2004 C2017 0.929 . S
H2005 C2015 0.929 . S
H2006 C2010 0.929 . S
H2007 C2016 0.929 . S
C2008 H2002 0.930 . S
C2008 C2009 1.367 . S
C2008 C2016 1.378 . S
C2009 C2008 1.367 . S
C2009 C2017 1.433 . S
C2010 H2006 0.929 . S
C2010 C2012 1.378 . S
C2010 C2014 1.350 . S
C2011 C2014 1.463 . S
C2011 C2016 1.350 . S
C2011 N2019 1.427 . S
C2012 H2003 0.930 . S
C2012 C2010 1.378 . S
C2012 C2013 1.367 . S
C2013 C2012 1.367 . S
C2013 C2015 1.433 . S
C2014 C2010 1.350 . S
C2014 C2011 1.463 . S
C2014 N2018 1.427 . S
C2015 H2005 0.929 . S
C2015 C2013 1.433 . S
C2015 N2018 1.384 . S
C2016 H2007 0.929 . S
C2016 C2008 1.378 . S
C2016 C2011 1.350 . S
C2017 H2004 0.929 . S
C2017 C2009 1.433 . S
C2017 N2019 1.384 . S
N2018 C2014 1.427 . S
N2018 C2015 1.384 . S
N2019 C2011 1.427 . S
N2019 C2017 1.384 . S
H2020 C2026 0.930 . S
H2021 C2030 0.930 . S
H2022 C2035 0.929 . S
H2023 C2033 0.929 . S
H2024 C2028 0.929 . S
H2025 C2034 0.929 . S
C2026 H2020 0.930 . S
C2026 C2027 1.367 . S
C2026 C2034 1.378 . S
C2027 C2026 1.367 . S
C2027 C2035 1.433 . S
C2028 H2024 0.929 . S
C2028 C2030 1.378 . S
C2028 C2032 1.350 . S
C2029 C2032 1.463 . S
C2029 C2034 1.350 . S
C2029 N2037 1.427 . S
C2030 H2021 0.930 . S
C2030 C2028 1.378 . S
C2030 C2031 1.367 . S
C2031 C2030 1.367 . S
C2031 C2033 1.433 . S
C2032 C2028 1.350 . S
C2032 C2029 1.463 . S
C2032 N2036 1.427 . S
C2033 H2023 0.929 . S
C2033 C2031 1.433 . S
C2033 N2036 1.384 . S
C2034 H2025 0.929 . S
C2034 C2026 1.378 . S
C2034 C2029 1.350 . S
C2035 H2022 0.929 . S
C2035 C2027 1.433 . S
C2035 N2037 1.384 . S
N2036 C2032 1.427 . S
N2036 C2033 1.384 . S
N2037 C2029 1.427 . S
N2037 C2035 1.384 . S
H2038 C2044 0.930 . S
H2039 C2048 0.930 . S
H2040 C2053 0.929 . S
H2041 C2051 0.929 . S
H2042 C2046 0.929 . S
H2043 C2052 0.929 . S
C2044 H2038 0.930 . S
C2044 C2045 1.367 . S
C2044 C2052 1.378 . S
C2045 C2044 1.367 . S
C2045 C2053 1.433 . S
C2046 H2042 0.929 . S
C2046 C2048 1.378 . S
C2046 C2050 1.350 . S
C2047 C2050 1.463 . S
C2047 C2052 1.350 . S
C2047 N2055 1.427 . S
C2048 H2039 0.930 . S
C2048 C2046 1.378 . S
C2048 C2049 1.367 . S
C2049 C2048 1.367 . S
C2049 C2051 1.433 . S
C2050 C2046 1.350 . S
C2050 C2047 1.463 . S
C2050 N2054 1.427 . S
C2051 H2041 0.929 . S
C2051 C2049 1.433 . S
C2051 N2054 1.384 . S
C2052 H2043 0.929 . S
C2052 C2044 1.378 . S
C2052 C2047 1.350 . S
C2053 H2040 0.929 . S
C2053 C2045 1.433 . S
C2053 N2055 1.384 . S
N2054 C2050 1.427 . S
N2054 C2051 1.384 . S
N2055 C2047 1.427 . S
N2055 C2053 1.384 . S
H2056 C2062 0.930 . S
H2057 C2066 0.902 1_554 S
H2058 C2071 0.929 1_554 S
H2059 C2069 0.929 . S
H2060 C2064 0.929 1_554 S
H2061 C2070 0.929 . S
C2062 H2056 0.930 . S
C2062 C2063 1.367 . S
C2062 C2070 1.378 . S
C2063 C2062 1.367 . S
C2063 C2071 1.433 . S
C2064 H2060 0.929 1_556 S
C2064 C2066 1.378 . S
C2064 C2068 1.350 . S
C2065 C2068 1.463 . S
C2065 C2070 1.350 . S
C2065 N2073 1.427 . S
C2066 H2057 0.902 1_556 S
C2066 C2064 1.378 . S
C2066 C2067 1.396 . S
C2067 C2066 1.396 . S
C2067 C2069 1.433 . S
C2068 C2064 1.350 . S
C2068 C2065 1.463 . S
C2068 N2072 1.427 . S
C2069 H2059 0.929 . S
C2069 C2067 1.433 . S
C2069 N2072 1.384 . S
C2070 H2061 0.929 . S
C2070 C2062 1.378 . S
C2070 C2065 1.350 . S
C2071 H2058 0.929 1_556 S
C2071 C2063 1.433 . S
C2071 N2073 1.384 . S
N2072 C2068 1.427 . S
N2072 C2069 1.384 . S
N2073 C2065 1.427 . S
N2073 C2071 1.384 . S
H2074 C2080 0.930 . S
H2075 C2084 0.930 . S
H2076 C2089 0.929 . S
H2077 C2087 0.929 . S
H2078 C2082 0.929 . S
H2079 C2088 0.929 . S
C2080 H2074 0.930 . S
C2080 C2081 1.367 . S
C2080 C2088 1.378 . S
C2081 C2080 1.367 . S
C2081 C2089 1.433 . S
C2082 H2078 0.929 . S
C2082 C2084 1.378 . S
C2082 C2086 1.350 . S
C2083 C2086 1.463 . S
C2083 C2088 1.350 . S
C2083 N2091 1.427 . S
C2084 H2075 0.930 . S
C2084 C2082 1.378 . S
C2084 C2085 1.367 . S
C2085 C2084 1.367 . S
C2085 C2087 1.433 . S
C2086 C2082 1.350 . S
C2086 C2083 1.463 . S
C2086 N2090 1.427 . S
C2087 H2077 0.929 . S
C2087 C2085 1.433 . S
C2087 N2090 1.384 . S
C2088 H2079 0.929 . S
C2088 C2080 1.378 . S
C2088 C2083 1.350 . S
C2089 H2076 0.929 . S
C2089 C2081 1.433 . S
C2089 N2091 1.384 . S
N2090 C2086 1.427 . S
N2090 C2087 1.384 . S
N2091 C2083 1.427 . S
N2091 C2089 1.384 . S
H2092 C2098 0.930 . S
H2093 C2102 0.930 . S
H2094 C2107 0.929 . S
H2095 C2105 0.932 1_556 S
H2096 C2100 0.929 . S
H2097 C2106 0.929 . S
C2098 H2092 0.930 . S
C2098 C2099 1.367 . S
C2098 C2106 1.378 . S
C2099 C2098 1.367 . S
C2099 C2107 1.433 . S
C2100 H2096 0.929 . S
C2100 C2102 1.378 . S
C2100 C2104 1.350 . S
C2101 C2104 1.463 . S
C2101 C2106 1.350 . S
C2101 N2109 1.427 . S
C2102 H2093 0.930 . S
C2102 C2100 1.378 . S
C2102 C2103 1.367 . S
C2103 C2102 1.367 . S
C2103 C2105 1.431 . S
C2104 C2100 1.350 . S
C2104 C2101 1.463 . S
C2104 N2108 1.427 . S
C2105 H2095 0.932 1_554 S
C2105 C2103 1.431 . S
C2105 N2108 1.382 . S
C2106 H2097 0.929 . S
C2106 C2098 1.378 . S
C2106 C2101 1.350 . S
C2107 H2094 0.929 . S
C2107 C2099 1.433 . S
C2107 N2109 1.384 . S
N2108 C2104 1.427 . S
N2108 C2105 1.382 . S
N2109 C2101 1.427 . S
N2109 C2107 1.384 . S
H2110 C2116 0.916 1_545 S
H2111 C2120 0.930 . S
H2112 C2125 0.929 . S
H2113 C2123 0.929 . S
H2114 C2118 0.929 . S
H2115 C2124 0.929 . S
C2116 H2110 0.916 1_565 S
C2116 C2117 1.367 . S
C2116 C2124 1.378 . S
C2117 C2116 1.367 . S
C2117 C2125 1.433 . S
C2118 H2114 0.929 . S
C2118 C2120 1.378 . S
C2118 C2122 1.350 . S
C2119 C2122 1.463 . S
C2119 C2124 1.350 . S
C2119 N2127 1.427 . S
C2120 H2111 0.930 . S
C2120 C2118 1.378 . S
C2120 C2121 1.367 . S
C2121 C2120 1.367 . S
C2121 C2123 1.433 . S
C2122 C2118 1.350 . S
C2122 C2119 1.463 . S
C2122 N2126 1.427 . S
C2123 H2113 0.929 . S
C2123 C2121 1.433 . S
C2123 N2126 1.384 . S
C2124 H2115 0.929 . S
C2124 C2116 1.378 . S
C2124 C2119 1.350 . S
C2125 H2112 0.929 . S
C2125 C2117 1.433 . S
C2125 N2127 1.384 . S
N2126 C2122 1.427 . S
N2126 C2123 1.384 . S
N2127 C2119 1.427 . S
N2127 C2125 1.384 . S
C1275 C257 1.249 . S
C1271 N66 1.224 . S
C1293 C316 1.587 . S
C1289 N79 1.571 . S
C1307 N92 1.839 . S
C1311 C433 1.861 . S
C1329 C501 1.341 . S
C1325 N54 1.348 . S
C1347 C580 1.557 . S
C1343 N131 1.555 . S
C1365 C705 1.150 . S
C1361 N158 1.145 . S
C1379 N145 1.546 . S
C1383 C765 1.550 . S
C1401 C873 1.838 . S
C1397 N118 1.815 . S
C1415 N148 2.040 . S
C1419 C969 2.033 . S
C1437 C1029 1.623 . S
C1433 N122 1.613 . S
C1451 N132 1.228 . S
C1455 C932 1.228 . S
C1473 C1049 1.504 . S
C1469 N161 1.470 . S
C1487 N96 1.929 . S
C1491 C1117 1.966 . S
C1505 N53 1.776 . S
C1509 C1108 1.801 . S
C1523 N67 1.006 . S
C1527 C1137 1.006 . S
C1541 N83 1.310 . S
C1545 C1145 1.321 1_655 S
C1559 N44 1.442 . S
C1563 C529 1.462 . S
C1577 N187 1.534 . S
C1581 C492 1.537 . S
C1599 C228 1.139 1_556 S
C1595 N197 1.143 . S
C1617 C325 1.249 . S
C1613 N106 1.252 . S
C1631 N57 1.882 1_545 S
C1635 C589 1.900 . S
C1653 C881 1.431 . S
C1649 N144 1.417 . S
C1671 C609 1.367 . S
C1667 N119 1.343 1_545 S
C1689 C793 1.865 . S
C1685 N157 1.828 . S
C1707 C785 1.247 . S
C1703 N183 1.236 . S
C1721 N196 1.571 . S
C1725 C853 1.586 . S
C1739 N105 1.839 . S
C1743 C617 1.862 . S
C1761 C668 1.341 . S
C1757 N171 1.348 . S
C1775 N40 1.558 . S
C1779 C413 1.554 . S
C1797 C521 1.151 . S
C1793 N2 1.144 1_655 S
C1815 C237 1.549 . S
C1811 N15 1.547 . S
C1833 C353 1.838 . S
C1829 N27 1.815 1_455 S
C1847 N18 2.040 . S
C1851 C1057 2.037 . S
C1865 N31 1.614 . S
C1869 C941 1.623 . S
C1883 N41 1.230 . S
C1887 C1020 1.228 . S
C1901 N5 1.465 . S
C1905 C961 1.502 . S
C1923 C1205 1.963 . S
C1919 N109 1.924 . S
C1941 C1196 1.801 . S
C1937 N170 1.776 . S
C1959 C1225 1.005 . S
C1955 N184 1.002 . S
C1973 N200 1.305 . S
C1977 C1233 1.323 . S
C1991 N135 1.439 . S
C1995 C697 1.462 . S
C2013 C677 1.534 . S
C2009 N70 1.532 . S
C2031 C756 1.142 . S
C2027 N80 1.143 . S
C2049 C844 1.251 . S
C2045 N93 1.251 . S
C2063 N174 1.874 . S
C2067 C404 1.898 . S
C2085 C345 1.430 . S
C2081 N14 1.407 . S
C2099 N28 1.371 . S
C2103 C441 1.362 . S
C2121 C265 1.864 . S
C2117 N1 1.828 1_565 S
