# Generated by pormake.
# Topology zzz, (3,6)-cn, num edge types: 1
# Building blocks:
#     Node 0, Type 0, BuildingBlock: ESEHIV_clean_linker_0, # of connection points: 3
#     Node 1, Type 0, BuildingBlock: ESEHIV_clean_linker_0, # of connection points: 3
#     Node 2, Type 0, BuildingBlock: ESEHIV_clean_linker_0, # of connection points: 3
#     Node 3, Type 0, BuildingBlock: ESEHIV_clean_linker_0, # of connection points: 3
#     Node 4, Type 0, BuildingBlock: ESEHIV_clean_linker_0, # of connection points: 3
#     Node 5, Type 0, BuildingBlock: ESEHIV_clean_linker_0, # of connection points: 3
#     Node 6, Type 0, BuildingBlock: ESEHIV_clean_linker_0, # of connection points: 3
#     Node 7, Type 0, BuildingBlock: ESEHIV_clean_linker_0, # of connection points: 3
#     Node 8, Type 1, BuildingBlock: KUMBUR_clean_sbu_1, # of connection points: 6
#     Node 9, Type 1, BuildingBlock: KUMBUR_clean_sbu_1, # of connection points: 6
#     Node 10, Type 1, BuildingBlock: KUMBUR_clean_sbu_1, # of connection points: 6
#     Node 11, Type 1, BuildingBlock: KUMBUR_clean_sbu_1, # of connection points: 6
#     Edge 12, Type (0, 1), BuildingBlock: AJUNOK_clean_linker_0, # of connection points: 2
#     Edge 13, Type (0, 1), BuildingBlock: AJUNOK_clean_linker_0, # of connection points: 2
#     Edge 14, Type (0, 1), BuildingBlock: AJUNOK_clean_linker_0, # of connection points: 2
#     Edge 15, Type (0, 1), BuildingBlock: AJUNOK_clean_linker_0, # of connection points: 2
#     Edge 16, Type (0, 1), BuildingBlock: AJUNOK_clean_linker_0, # of connection points: 2
#     Edge 17, Type (0, 1), BuildingBlock: AJUNOK_clean_linker_0, # of connection points: 2
#     Edge 18, Type (0, 1), BuildingBlock: AJUNOK_clean_linker_0, # of connection points: 2
#     Edge 19, Type (0, 1), BuildingBlock: AJUNOK_clean_linker_0, # of connection points: 2
#     Edge 20, Type (0, 1), BuildingBlock: AJUNOK_clean_linker_0, # of connection points: 2
#     Edge 21, Type (0, 1), BuildingBlock: AJUNOK_clean_linker_0, # of connection points: 2
#     Edge 22, Type (0, 1), BuildingBlock: AJUNOK_clean_linker_0, # of connection points: 2
#     Edge 23, Type (0, 1), BuildingBlock: AJUNOK_clean_linker_0, # of connection points: 2
#     Edge 24, Type (0, 1), BuildingBlock: AJUNOK_clean_linker_0, # of connection points: 2
#     Edge 25, Type (0, 1), BuildingBlock: AJUNOK_clean_linker_0, # of connection points: 2
#     Edge 26, Type (0, 1), BuildingBlock: AJUNOK_clean_linker_0, # of connection points: 2
#     Edge 27, Type (0, 1), BuildingBlock: AJUNOK_clean_linker_0, # of connection points: 2
#     Edge 28, Type (0, 1), BuildingBlock: AJUNOK_clean_linker_0, # of connection points: 2
#     Edge 29, Type (0, 1), BuildingBlock: AJUNOK_clean_linker_0, # of connection points: 2
#     Edge 30, Type (0, 1), BuildingBlock: AJUNOK_clean_linker_0, # of connection points: 2
#     Edge 31, Type (0, 1), BuildingBlock: AJUNOK_clean_linker_0, # of connection points: 2
#     Edge 32, Type (0, 1), BuildingBlock: AJUNOK_clean_linker_0, # of connection points: 2
#     Edge 33, Type (0, 1), BuildingBlock: AJUNOK_clean_linker_0, # of connection points: 2
#     Edge 34, Type (0, 1), BuildingBlock: AJUNOK_clean_linker_0, # of connection points: 2
#     Edge 35, Type (0, 1), BuildingBlock: AJUNOK_clean_linker_0, # of connection points: 2
# Relax obj value: 0.446
# Max RMSD: 0.197
# Mean RMSD: 0.187
data_MOF--net-zzz--node1-KUMBUR_clean_sbu_1--node2-ESEHIV_clean_linker_0--edge1-AJUNOK_clean_linker_0
_symmetry_space_group_name_H-M    P1
_symmetry_Int_Tables_number       1
_symmetry_cell_setting            triclinic
loop_
_symmetry_equiv_pos_as_xyz
'x, y, z'
_cell_length_a     30.843626
_cell_length_b     31.091666
_cell_length_c     11.908192
_cell_angle_alpha  90.326808
_cell_angle_beta   90.199406
_cell_angle_gamma 90.258861
loop_
_atom_site_label
_atom_site_type_symbol
_atom_site_fract_x
_atom_site_fract_y
_atom_site_fract_z
_atom_type_partial_charge
H0 H 0.84371 0.50404 0.20566 0.0
H1 H 0.72359 0.52495 0.04247 0.0
H2 H 0.73747 0.56191 0.39233 0.0
C3 C 0.81083 0.51576 0.21377 0.0
C4 C 0.79636 0.53365 0.31612 0.0
C5 C 0.78368 0.512 0.12022 0.0
C6 C 0.74251 0.52822 0.11956 0.0
C7 C 0.72407 0.54642 0.21364 0.0
C8 C 0.75116 0.54917 0.31582 0.0
H9 H 0.95274 0.83937 0.29149 0.0
H10 H 0.952 0.73327 0.06932 0.0
H11 H 0.0324 0.72959 0.36763 0.0
C12 C 0.96141 0.80625 0.27707 0.0
C13 C 0.99152 0.78768 0.35063 0.0
C14 C 0.95613 0.79039 0.16742 0.0
C15 C 0.96187 0.74651 0.14986 0.0
C16 C 0.99093 0.72302 0.2159 0.0
C17 C 1.00799 0.74513 0.31679 0.0
H18 H 0.72481 0.92674 0.34785 0.0
H19 H 0.83056 0.91861 0.12108 0.0
H20 H 0.81231 0.03418 0.32029 0.0
C21 C 0.75339 0.94099 0.31149 0.0
C22 C 0.76436 0.98254 0.34763 0.0
C23 C 0.77356 0.92096 0.21888 0.0
C24 C 0.81415 0.93656 0.1859 0.0
C25 C 0.82969 0.97761 0.21651 0.0
C26 C 0.80306 1.00174 0.29699 0.0
H27 H 0.61693 0.72066 0.32398 0.0
H28 H 0.50949 0.80934 0.36094 0.0
H29 H 0.60726 0.82411 0.10368 0.0
C30 C 0.60027 0.75017 0.30255 0.0
C31 C 0.60495 0.7649 0.19265 0.0
C32 C 0.5634 0.76246 0.36469 0.0
C33 C 0.53973 0.79995 0.32227 0.0
C34 C 0.55665 0.82446 0.22698 0.0
C35 C 0.59428 0.80799 0.17683 0.0
H36 H 0.20463 0.46481 0.15611 0.0
H37 H 0.29576 0.46987 0.41114 0.0
H38 H 0.33122 0.51785 0.08211 0.0
C39 C 0.23757 0.47273 0.17964 0.0
C40 C 0.26427 0.49222 0.09934 0.0
C41 C 0.24563 0.48296 0.29226 0.0
C42 C 0.28873 0.47686 0.32414 0.0
C43 C 0.32215 0.49097 0.25303 0.0
C44 C 0.3085 0.50254 0.13835 0.0
H45 H 1.01407 0.21086 0.21787 0.0
H46 H 0.04582 0.32252 0.41008 0.0
H47 H 0.0675 0.32284 0.05115 0.0
C48 C 0.02856 0.24272 0.21932 0.0
C49 C 0.0449 0.26057 0.11958 0.0
C50 C 0.02853 0.2658 0.32064 0.0
C51 C 0.04695 0.30616 0.329 0.0
C52 C 0.05895 0.32923 0.2351 0.0
C53 C 0.05854 0.30603 0.12688 0.0
H54 H 0.34124 0.12321 0.14492 0.0
H55 H 0.24088 0.12795 0.3696 0.0
H56 H 0.23386 0.03403 0.09799 0.0
C57 C 0.31018 0.10958 0.16794 0.0
C58 C 0.2923 0.07623 0.10224 0.0
C59 C 0.29714 0.11261 0.28018 0.0
C60 C 0.25231 0.11415 0.29159 0.0
C61 C 0.22725 0.08232 0.2358 0.0
C62 C 0.24943 0.06074 0.14074 0.0
H63 H 0.42693 0.3386 0.13594 0.0
H64 H 0.52616 0.23971 0.11834 0.0
H65 H 0.44229 0.26949 0.40527 0.0
C66 C 0.44658 0.31288 0.16924 0.0
C67 C 0.45609 0.31569 0.2827 0.0
C68 C 0.47982 0.29431 0.10496 0.0
C69 C 0.50055 0.25691 0.1607 0.0
C70 C 0.48595 0.24344 0.27437 0.0
C71 C 0.45891 0.27449 0.32713 0.0
Tb72 Tb 0.97573 0.04022 0.63642 0.0
C73 C 0.14975 0.07502 0.87864 0.0
N74 N 0.14046 0.04925 0.78903 0.0
C75 C 0.20791 0.06967 0.70357 0.0
C76 C 0.18731 0.10107 0.8809 0.0
C77 C 0.16937 0.04587 0.70247 0.0
C78 C 0.21677 0.09774 0.79247 0.0
C79 C 0.12603 0.10672 0.05404 0.0
C80 C 0.12034 0.07669 0.9661 0.0
C81 C 0.16252 0.13396 0.05425 0.0
C82 C 0.19365 0.13035 0.96955 0.0
Tb83 Tb 0.07688 1.01062 0.79917 0.0
N84 N 0.08414 0.05157 0.95954 0.0
C85 C 0.09357 0.11005 0.13526 0.0
C86 C 0.05562 0.05093 0.04711 0.0
C87 C 0.05916 0.08093 0.13438 0.0
H88 H 0.16391 0.0234 0.63456 0.0
H89 H 0.03516 0.08176 0.20045 0.0
H90 H 0.89453 1.00894 0.8067 0.0
H91 H 0.02352 0.98381 0.22338 0.0
H92 H 0.0301 0.02756 0.05158 0.0
H93 H 0.09473 0.13479 0.19912 0.0
H94 H 0.02274 0.03506 0.37907 0.0
H95 H 0.23088 0.06618 0.63614 0.0
H96 H 0.16686 0.15828 0.11854 0.0
H97 H 0.22195 0.15113 0.97186 0.0
H98 H 0.83724 0.95412 0.80699 0.0
H99 H 0.24637 0.11665 0.792 0.0
H100 H 0.97234 0.92239 0.22083 0.0
N101 N 0.92056 0.99033 0.6486 0.0
C102 C 0.91402 0.96596 0.55466 0.0
C103 C 0.85907 0.95655 0.73626 0.0
C104 C 0.88067 0.93474 0.55014 0.0
C105 C 0.89277 0.98671 0.73769 0.0
C106 C 0.8532 0.93019 0.64244 0.0
N107 N 0.97522 1.00062 0.47328 0.0
C108 C 1.00168 1.00755 0.38335 0.0
C109 C 0.94034 0.94196 0.37373 0.0
C110 C 0.94303 0.97033 0.46603 0.0
C111 C 0.97178 0.94506 0.29002 0.0
C112 C 1.0013 0.97912 0.29229 0.0
H113 H 0.82738 0.90644 0.64205 0.0
H114 H 0.85114 0.88411 0.45003 0.0
H115 H 0.90314 0.88996 0.29727 0.0
O116 O 0.95844 0.08897 0.52238 0.0
O117 O 0.98841 0.96932 0.66607 0.0
O118 O 0.06101 0.96416 0.65907 0.0
O119 O 0.91086 0.05926 0.62595 0.0
O120 O 0.03966 0.06243 0.5589 0.0
O121 O 0.08657 1.0102 0.61579 0.0
O122 O 0.08453 0.964 0.92429 0.0
O123 O 0.06719 0.08269 0.78723 0.0
O124 O 0.99405 0.09185 0.76344 0.0
O125 O 0.13477 0.97474 0.80414 0.0
O126 O 1.01099 0.994 0.87723 0.0
O127 O 0.96609 0.04739 0.81732 0.0
C128 C 0.02286 0.94684 0.63604 0.0
C129 C 0.90341 0.13236 0.60499 0.0
C130 C 0.91615 0.20828 0.63792 0.0
C131 C 0.87425 0.21285 0.68121 0.0
C132 C 0.86155 0.13661 0.65025 0.0
C133 C 0.84741 0.17663 0.69023 0.0
C134 C 0.93095 0.16773 0.60497 0.0
C135 C 0.07715 0.04142 0.54633 0.0
C136 C 0.91892 0.09099 0.56089 0.0
C137 C 0.87669 0.90808 0.45554 0.0
C138 C 0.9067 0.91131 0.36849 0.0
C139 C 0.0321 0.10679 0.80073 0.0
C140 C 0.11581 0.90348 0.83846 0.0
C141 C 0.06713 0.84297 0.82867 0.0
C142 C 0.10254 0.81481 0.8239 0.0
C143 C 0.15162 0.87592 0.83586 0.0
C144 C 0.07452 0.88673 0.81635 0.0
C145 C 0.14487 0.83152 0.82264 0.0
C146 C 0.97549 1.01817 0.89203 0.0
C147 C 0.11919 0.94838 0.8769 0.0
H148 H 0.86188 0.24435 0.70297 0.0
H149 H 0.8398 0.1092 0.65377 0.0
H150 H 0.81499 0.17991 0.72355 0.0
H151 H 0.96304 0.16472 0.56871 0.0
H152 H 0.0977 0.78052 0.83409 0.0
H153 H 0.18413 0.88835 0.84871 0.0
H154 H 0.04667 0.90773 0.82278 0.0
H155 H 0.17227 0.80989 0.82297 0.0
Tb156 Tb 0.55061 0.06596 0.82302 0.0
C157 C 0.52818 0.88687 0.63613 0.0
N158 N 0.54758 0.92418 0.602 0.0
C159 C 0.60958 0.88376 0.54053 0.0
C160 C 0.5491 0.84693 0.62381 0.0
C161 C 0.58651 0.92218 0.54708 0.0
C162 C 0.59092 0.84602 0.57963 0.0
C163 C 0.46446 0.85026 0.70945 0.0
C164 C 0.4864 0.88848 0.68053 0.0
C165 C 0.48471 0.81059 0.69206 0.0
C166 C 0.52724 0.80908 0.65297 0.0
Tb167 Tb 0.50479 0.98437 0.62282 0.0
N168 N 0.46787 0.92764 0.6981 0.0
C169 C 0.423 0.85303 0.75581 0.0
C170 C 0.42696 0.93034 0.74118 0.0
C171 C 0.40427 0.89327 0.77209 0.0
H172 H 0.59948 0.94886 0.50173 0.0
H173 H 0.3719 0.89577 0.80631 0.0
H174 H 0.47737 0.09008 0.02634 0.0
H175 H 0.6411 0.16771 0.54096 0.0
H176 H 0.41058 0.96062 0.74801 0.0
H177 H 0.40518 0.82434 0.77912 0.0
H178 H 0.6181 0.09906 0.62179 0.0
H179 H 0.64119 0.883 0.50151 0.0
H180 H 0.46783 0.78082 0.70838 0.0
H181 H 0.54274 0.77832 0.64468 0.0
H182 H 0.43242 0.15201 0.07564 0.0
H183 H 0.60847 0.81624 0.57111 0.0
H184 H 0.6075 0.23504 0.60483 0.0
N185 N 0.51057 0.12212 0.89279 0.0
C186 C 0.51913 0.16088 0.84533 0.0
C187 C 0.45631 0.15483 1.00967 0.0
C188 C 0.49561 0.19784 0.87612 0.0
C189 C 0.48145 0.11937 0.97921 0.0
C190 C 0.46279 0.19405 0.95615 0.0
N191 N 0.56999 0.12657 0.72732 0.0
C192 C 0.60182 0.12781 0.64766 0.0
C193 C 0.56288 0.20359 0.71831 0.0
C194 C 0.55119 0.16352 0.76396 0.0
C195 C 0.59616 0.20497 0.63879 0.0
C196 C 0.61538 0.16691 0.60256 0.0
H197 H 0.44329 0.2215 0.97989 0.0
H198 H 0.48709 0.26567 0.84588 0.0
H199 H 0.5489 0.27186 0.71999 0.0
O200 O 0.61371 0.08822 0.8525 0.0
O201 O 0.50953 0.09171 0.68265 0.0
O202 O 0.52213 0.04614 0.53705 0.0
O203 O 0.56988 0.07898 0.98832 0.0
O204 O 0.59934 0.02485 0.73026 0.0
O205 O 0.56735 1.0121 0.56174 0.0
O206 O 0.45087 0.99537 0.52202 0.0
O207 O 0.52059 0.95582 0.79116 0.0
O208 O 0.54319 1.00602 0.92121 0.0
O209 O 0.49517 0.94464 0.48085 0.0
O210 O 0.45359 0.02263 0.71605 0.0
O211 O 0.48679 0.04031 0.88228 0.0
C212 C 0.51263 0.08528 0.57312 0.0
C213 C 0.64471 0.06851 1.01933 0.0
C214 C 0.69016 1.00576 0.04242 0.0
C215 C 0.72364 0.03261 0.08283 0.0
C216 C 0.67775 0.09469 0.06357 0.0
C217 C 0.71718 0.07671 0.09514 0.0
C218 C 0.6505 0.02378 1.0112 0.0
C219 C 0.60316 0.01849 0.62053 0.0
C220 C 0.60916 0.08917 0.96029 0.0
C221 C 0.50574 0.23737 0.82666 0.0
C222 C 0.54043 0.24061 0.75202 0.0
C223 C 0.53268 0.96604 0.8947 0.0
C224 C 0.42053 0.93056 0.45211 0.0
C225 C 0.34724 0.94731 0.41662 0.0
C226 C 0.34512 0.91643 0.33022 0.0
C227 C 0.42038 0.89966 0.36555 0.0
C228 C 0.38072 0.9445 0.49407 0.0
C229 C 0.38131 0.89032 0.30969 0.0
C230 C 0.45076 0.03393 0.82386 0.0
C231 C 0.45734 0.96063 0.46274 0.0
H232 H 0.75469 0.01931 0.10608 0.0
H233 H 0.6738 0.12927 0.06833 0.0
H234 H 0.74306 0.09702 0.12718 0.0
H235 H 0.62537 1.00347 0.97541 0.0
H236 H 0.31839 0.91637 0.27105 0.0
H237 H 0.45045 0.88662 0.3336 0.0
H238 H 0.3804 0.9676 0.56267 0.0
H239 H 0.38093 0.86782 0.24002 0.0
Tb240 Tb 0.57435 0.5122 0.67521 0.0
C241 C 0.40366 0.48043 0.89633 0.0
N242 N 0.41234 0.50463 0.80446 0.0
C243 C 0.35053 0.47404 0.70975 0.0
C244 C 0.36942 0.45027 0.89622 0.0
C245 C 0.38484 0.50353 0.71415 0.0
C246 C 0.34346 0.44655 0.80009 0.0
C247 C 0.42375 0.45951 0.08446 0.0
C248 C 0.43076 0.48463 0.9887 0.0
C249 C 0.39017 0.4288 0.08464 0.0
C250 C 0.36299 0.42421 0.99071 0.0
Tb251 Tb 0.47214 0.54845 0.81797 0.0
N252 N 0.46465 0.51275 0.98351 0.0
C253 C 0.45097 0.46598 0.17686 0.0
C254 C 0.48907 0.52115 0.07702 0.0
C255 C 0.4832 0.49725 0.17411 0.0
H256 H 0.38863 0.52573 0.64577 0.0
H257 H 0.50348 0.50286 0.24678 0.0
H258 H 0.65801 0.52536 0.85631 0.0
H259 H 0.54875 0.57225 0.25517 0.0
H260 H 0.5121 0.5471 0.07958 0.0
H261 H 0.44767 0.44672 0.25094 0.0
H262 H 0.53401 0.52622 0.41494 0.0
H263 H 0.32966 0.47247 0.63654 0.0
H264 H 0.38481 0.4086 0.15702 0.0
H265 H 0.3371 0.40056 0.99211 0.0
H266 H 0.72424 0.56939 0.86744 0.0
H267 H 0.31786 0.42275 0.79482 0.0
H268 H 0.61018 0.62357 0.26199 0.0
N269 N 0.63769 0.55066 0.69844 0.0
C270 C 0.64902 0.57577 0.60969 0.0
C271 C 0.70304 0.57188 0.79517 0.0
C272 C 0.68724 0.60087 0.612 0.0
C273 C 0.66473 0.5477 0.78963 0.0
C274 C 0.71418 0.59883 0.70648 0.0
N275 N 0.5852 0.55164 0.51615 0.0
C276 C 0.56005 0.54892 0.42192 0.0
C277 C 0.63175 0.60324 0.42493 0.0
C278 C 0.62192 0.57637 0.5161 0.0
C279 C 0.60375 0.60318 0.33291 0.0
C280 C 0.5687 0.57482 0.32961 0.0
H281 H 0.74387 0.61754 0.71124 0.0
H282 H 0.72631 0.64706 0.52097 0.0
H283 H 0.67724 0.64973 0.35797 0.0
O284 O 0.57767 0.4531 0.59228 0.0
O285 O 0.56456 0.58408 0.68445 0.0
O286 O 0.49177 0.59339 0.68147 0.0
O287 O 0.63605 0.4851 0.64461 0.0
O288 O 0.51076 0.49523 0.58354 0.0
O289 O 0.46404 0.5487 0.635 0.0
O290 O 0.45539 0.59261 0.944 0.0
O291 O 0.48227 0.476 0.80088 0.0
O292 O 0.55529 0.46808 0.81363 0.0
O293 O 0.41493 0.58501 0.79962 0.0
O294 O 0.53647 0.56924 0.89968 0.0
O295 O 0.58067 0.51267 0.859 0.0
C296 C 0.5307 0.60764 0.65616 0.0
C297 C 0.63791 0.4482 0.4721 0.0
C298 C 0.61525 0.41424 0.30179 0.0
C299 C 0.65704 0.39748 0.28596 0.0
C300 C 0.68008 0.43227 0.4584 0.0
C301 C 0.69029 0.40896 0.36103 0.0
C302 C 0.60905 0.44615 0.38199 0.0
C303 C 0.47431 0.51756 0.5658 0.0
C304 C 0.61981 0.45442 0.58469 0.0
C305 C 0.69722 0.62739 0.52048 0.0
C306 C 0.66929 0.62892 0.4277 0.0
C307 C 0.51615 0.45195 0.82955 0.0
C308 C 0.42923 0.65518 0.86239 0.0
C309 C 0.48181 0.71269 0.87749 0.0
C310 C 0.44812 0.74201 0.89721 0.0
C311 C 0.39539 0.68425 0.88026 0.0
C312 C 0.47133 0.6708 0.84541 0.0
C313 C 0.40484 0.72815 0.89245 0.0
C314 C 0.57129 0.54544 0.9242 0.0
C315 C 0.42408 0.60909 0.88525 0.0
H316 H 0.66272 0.37248 0.22423 0.0
H317 H 0.70364 0.43476 0.52583 0.0
H318 H 0.72228 0.39528 0.3514 0.0
H319 H 0.5766 0.45895 0.39183 0.0
H320 H 0.45536 0.77446 0.92544 0.0
H321 H 0.36246 0.67287 0.89154 0.0
H322 H 0.49771 0.64817 0.83779 0.0
H323 H 0.37901 0.75067 0.90976 0.0
Tb324 Tb 0.04816 0.58031 0.63397 0.0
C325 C 0.09172 0.41434 0.87745 0.0
N326 N 0.06862 0.42141 0.78165 0.0
C327 C 0.09902 0.35778 0.69804 0.0
C328 C 0.11981 0.37883 0.88625 0.0
C329 C 0.07189 0.39356 0.69239 0.0
C330 C 0.12292 0.35023 0.79549 0.0
C331 C 0.11371 0.43871 0.06285 0.0
C332 C 0.08769 0.44344 0.96609 0.0
C333 C 0.1426 0.40406 0.07035 0.0
C334 C 0.1449 0.37368 0.98364 0.0
Tb335 Tb 0.0212 0.47807 0.78949 0.0
N336 N 0.05846 0.47619 0.95755 0.0
C337 C 0.10938 0.46853 0.15018 0.0
C338 C 0.05007 0.5011 0.05008 0.0
C339 C 0.07671 0.49916 0.14496 0.0
H340 H 0.05162 0.39716 0.61934 0.0
H341 H 0.0713 0.52056 0.21532 0.0
H342 H 0.02577 0.66085 0.81418 0.0
H343 H 0.97384 0.53533 0.23577 0.0
H344 H 0.02234 0.52176 0.05462 0.0
H345 H 0.1297 0.46697 0.22426 0.0
H346 H 0.02943 0.53224 0.38151 0.0
H347 H 0.10101 0.33574 0.62759 0.0
H348 H 0.16294 0.40001 0.14365 0.0
H349 H 0.16697 0.34685 0.99157 0.0
H350 H 0.97819 0.72331 0.82072 0.0
H351 H 0.14403 0.32252 0.79938 0.0
H352 H 0.91992 0.59375 0.23832 0.0
N353 N 1.00318 0.63856 0.65473 0.0
C354 C 0.97811 0.64787 0.56381 0.0
C355 C 0.97762 0.70235 0.748 0.0
C356 C 0.95134 0.68459 0.56238 0.0
C357 C 1.0036 0.6657 0.74571 0.0
C358 C 0.95159 0.71208 0.65571 0.0
N359 N 1.0042 0.58427 0.47777 0.0
C360 C 1.00507 0.55633 0.38884 0.0
C361 C 0.94764 0.62456 0.38566 0.0
C362 C 0.97761 0.61916 0.47409 0.0
C363 C 0.94437 0.59233 0.30371 0.0
C364 C 0.97422 0.55888 0.30307 0.0
H365 H 0.93153 0.7406 0.65782 0.0
H366 H 0.90348 0.71997 0.46695 0.0
H367 H 0.89844 0.66621 0.31536 0.0
O368 O 0.09125 0.59592 0.5044 0.0
O369 O 0.9764 0.56645 0.65635 0.0
O370 O 0.97311 0.49357 0.65246 0.0
O371 O 0.07759 0.64185 0.63817 0.0
O372 O 0.07036 0.51813 0.54784 0.0
O373 O 0.01981 0.46876 0.60571 0.0
O374 O 0.96454 0.46515 0.88229 0.0
O375 O 0.09256 0.48914 0.76251 0.0
O376 O 0.10062 0.56191 0.75782 0.0
O377 O 1.00191 0.41395 0.81355 0.0
O378 O 1.00247 0.54162 0.87475 0.0
O379 O 0.05506 0.58811 0.81683 0.0
C380 C 0.95478 0.53097 0.62846 0.0
C381 C 0.12587 0.66625 0.49194 0.0
C382 C 0.18925 0.65645 0.38271 0.0
C383 C 0.21087 0.68913 0.44321 0.0
C384 C 0.14634 0.69875 0.55555 0.0
C385 C 0.18824 0.71217 0.52584 0.0
C386 C 0.14422 0.65359 0.39133 0.0
C387 C 0.04997 0.48029 0.53392 0.0
C388 C 0.09721 0.63463 0.54468 0.0
C389 C 0.92408 0.69185 0.46982 0.0
C390 C 0.92132 0.66129 0.38324 0.0
C391 C 0.11645 0.52362 0.78418 0.0
C392 C 0.92724 0.40802 0.79388 0.0
C393 C 0.85125 0.42162 0.76961 0.0
C394 C 0.85298 0.40858 0.65714 0.0
C395 C 0.92957 0.39375 0.68131 0.0
C396 C 0.88727 0.41697 0.83967 0.0
C397 C 0.89199 0.39253 0.61459 0.0
C398 C 0.02589 0.5775 0.89161 0.0
C399 C 0.96521 0.4244 0.85549 0.0
H400 H 0.24559 0.69344 0.43536 0.0
H401 H 0.13209 0.71052 0.63278 0.0
H402 H 0.20497 0.73615 0.57621 0.0
H403 H 0.12664 0.6299 0.34155 0.0
H404 H 0.82527 0.41258 0.60214 0.0
H405 H 0.96042 0.38612 0.64307 0.0
H406 H 0.88574 0.42823 0.92623 0.0
H407 H 0.894 0.38267 0.52745 0.0
C408 C 0.17055 0.02859 0.32261 0.0
C409 C 0.18317 0.07119 0.29505 0.0
C410 C 0.13576 0.0193 0.39929 0.0
C411 C 0.11038 0.05181 0.45245 0.0
H412 H 0.1893 1.00201 0.28981 0.0
H413 H 0.12937 0.98596 0.41943 0.0
S414 S 0.12768 0.1688 0.41227 0.0
N415 N 0.16487 0.14649 0.33168 0.0
N416 N 0.10076 0.12851 0.46901 0.0
C417 C 0.12146 0.09419 0.42313 0.0
C418 C 0.1572 0.10385 0.34741 0.0
C419 C 0.48642 0.2005 0.46391 0.0
C420 C 0.49682 0.20202 0.3465 0.0
C421 C 0.4899 0.1632 0.53176 0.0
C422 C 0.50706 0.12407 0.49241 0.0
H423 H 0.4758 0.2286 0.50898 0.0
H424 H 0.47923 0.16561 0.618 0.0
S425 S 0.55082 0.10994 0.20619 0.0
N426 N 0.53148 0.15932 0.20174 0.0
N427 N 0.54071 0.09078 0.33182 0.0
C428 C 0.5207 0.12499 0.37893 0.0
C429 C 0.51561 0.1631 0.30701 0.0
C430 C 0.38913 0.5356 0.32429 0.0
C431 C 0.36707 0.4957 0.31246 0.0
C432 C 0.42481 0.54169 0.40097 0.0
C433 C 0.44185 0.50813 0.46906 0.0
H434 H 0.37725 0.56315 0.27852 0.0
H435 H 0.4386 0.57365 0.40916 0.0
S436 S 0.39748 0.39701 0.47201 0.0
N437 N 0.36628 0.42186 0.38014 0.0
N438 N 0.43298 0.43317 0.51684 0.0
C439 C 0.4208 0.46805 0.45652 0.0
C440 C 0.38379 0.46204 0.38139 0.0
C441 C 0.02667 0.40298 0.27925 0.0
C442 C 0.06451 0.37739 0.26706 0.0
C443 C 0.02324 0.43737 0.35956 0.0
C444 C 0.05783 0.45001 0.43182 0.0
H445 H 0.99757 0.39343 0.2343 0.0
H446 H 0.99213 0.45297 0.36881 0.0
S447 S 0.1647 0.39558 0.43766 0.0
N448 N 0.13741 0.36837 0.34073 0.0
N449 N 0.13213 0.43415 0.48165 0.0
C450 C 0.09661 0.42662 0.41675 0.0
C451 C 0.09964 0.39059 0.33771 0.0
C452 C 0.90211 0.96151 0.11257 0.0
C453 C 0.87086 0.9924 0.14965 0.0
C454 C 0.93659 0.97045 0.03688 0.0
C455 C 0.9423 1.011 0.98792 0.0
H456 H 0.8998 0.92865 0.13977 0.0
H457 H 0.95785 0.94437 1.01264 0.0
S458 S 0.86915 0.10425 0.04274 0.0
N459 N 0.84873 0.0662 0.1232 0.0
N460 N 0.91179 0.08306 0.97998 0.0
C461 C 0.91157 0.04271 1.02266 0.0
C462 C 0.87671 0.03358 0.10248 0.0
C463 C 0.52812 0.85361 0.04154 0.0
C464 C 0.53573 0.86129 0.15773 0.0
C465 C 0.52713 0.88681 0.9598 0.0
C466 C 0.53197 0.93092 0.98698 0.0
H467 H 0.52653 0.82075 1.01148 0.0
H468 H 0.52482 0.87709 0.87339 0.0
S469 S 0.546 0.97161 0.2791 0.0
N470 N 0.54365 0.91878 0.2952 0.0
N471 N 0.54019 0.98052 0.14357 0.0
C472 C 0.53605 0.93973 0.10365 0.0
C473 C 0.53779 0.90555 0.18761 0.0
C474 C 0.64682 0.52118 0.17921 0.0
C475 C 0.67607 0.55651 0.18749 0.0
C476 C 0.61149 0.51943 0.10104 0.0
C477 C 0.6016 0.55345 0.0264 0.0
H478 H 0.6547 0.49217 0.22411 0.0
H479 H 0.5932 0.48971 0.09441 0.0
S480 S 0.66561 0.65467 1.01107 0.0
N481 N 0.69094 0.62702 0.10946 0.0
N482 N 0.62385 0.62491 0.97034 0.0
C483 C 0.62852 0.5902 0.03781 0.0
C484 C 0.66548 0.59139 0.11523 0.0
C485 C 0.96991 0.65228 0.11359 0.0
C486 C 1.00328 0.67902 0.16058 0.0
C487 C 0.97743 0.61807 0.03525 0.0
C488 C 1.01899 0.6089 0.99251 0.0
H489 H 0.93649 0.65934 0.13368 0.0
H490 H 0.94974 0.60047 1.00249 0.0
S491 S 0.11878 0.66938 0.07762 0.0
N492 N 0.08047 0.69271 0.15271 0.0
N493 N 0.09471 0.6307 1.00452 0.0
C494 C 0.05301 0.63495 0.03858 0.0
C495 C 0.0453 0.66911 0.12139 0.0
C496 C 0.95464 0.25909 0.39342 0.0
C497 C 0.99932 0.25474 0.41216 0.0
C498 C 0.92538 0.25514 0.4817 0.0
C499 C 0.94005 0.24421 0.58954 0.0
H500 H 0.94226 0.26523 0.30974 0.0
H501 H 0.89107 0.25406 0.46176 0.0
S502 S 0.05408 0.24377 0.6871 0.0
N503 N 0.05735 0.25053 0.54998 0.0
N504 N 1.00177 0.24111 0.7162 0.0
C505 C 0.98468 0.24679 0.61226 0.0
C506 C 1.01455 0.25117 0.52269 0.0
C507 C 0.29292 0.05543 0.43067 0.0
C508 C 0.31878 0.08066 0.35712 0.0
C509 C 0.30093 1.01162 0.44594 0.0
C510 C 0.33585 0.99213 0.39198 0.0
H511 H 0.26335 0.0679 0.466 0.0
H512 H 0.27921 0.9928 0.49767 0.0
S513 S 0.4262 0.04868 0.24687 0.0
N514 N 0.39094 0.08678 0.27642 0.0
N515 N 0.40405 1.00379 0.29308 0.0
C516 C 0.36636 0.01868 0.33718 0.0
C517 C 0.35913 0.06346 0.32679 0.0
C518 C 0.50198 0.38033 0.23062 0.0
C519 C 0.49382 0.34608 0.30582 0.0
C520 C 0.54227 0.40062 0.2231 0.0
C521 C 0.57695 0.38672 0.28825 0.0
H522 H 0.47822 0.38904 0.16878 0.0
H523 H 0.54654 0.42688 0.16475 0.0
S524 S 0.57199 0.30972 0.52224 0.0
N525 N 0.52291 0.30789 0.46744 0.0
N526 N 0.59993 0.34372 0.44575 0.0
C527 C 0.56923 0.35531 0.3699 0.0
C528 C 0.52748 0.33601 0.38151 0.0
C529 C 0.19804 0.54728 0.25804 0.0
C530 C 0.22561 0.5246 0.33177 0.0
C531 C 0.19378 0.59161 0.26402 0.0
C532 C 0.21041 0.61516 0.35514 0.0
H533 H 0.18115 0.53147 0.18984 0.0
H534 H 0.1739 0.60715 0.20123 0.0
S535 S 0.26974 0.56975 0.59924 0.0
N536 N 0.26202 0.52843 0.51396 0.0
N537 N 0.24789 0.6113 0.53513 0.0
C538 C 0.23342 0.59257 0.43847 0.0
C539 C 0.24093 0.54743 0.42712 0.0
C540 C 0.96369 0.80611 0.96174 0.0
C541 C 0.97275 0.8178 0.07481 0.0
C542 C 0.99401 0.81303 0.87792 0.0
C543 C 0.03201 0.83361 0.9074 0.0
H544 H 0.93522 0.78703 0.94151 0.0
H545 H 0.98837 0.80165 0.79297 0.0
S546 S 0.06814 0.89981 0.1841 0.0
N547 N 0.04482 0.86876 0.07929 0.0
N548 N 0.06603 0.87937 0.05431 0.0
C549 C 0.03556 0.85321 1.02442 0.0
C550 C 1.00737 0.84498 0.11103 0.0
C551 C 0.75575 0.90694 1.0218 0.0
C552 C 0.7468 0.8953 0.13398 0.0
C553 C 0.73472 0.94372 0.98122 0.0
C554 C 0.69766 0.95904 0.03717 0.0
H555 H 0.78609 0.89788 0.98314 0.0
H556 H 0.75044 0.96292 0.91761 0.0
S557 S 0.63978 0.9001 0.2596 0.0
N558 N 0.6845 0.87227 0.24011 0.0
N559 N 0.64059 0.94021 0.16911 0.0
C560 C 0.67833 0.93155 0.11617 0.0
C561 C 0.7022 0.8953 0.15543 0.0
C562 C 0.59112 0.75125 0.98693 0.0
C563 C 0.58948 0.7359 0.09882 0.0
C564 C 0.55707 0.74287 0.91103 0.0
C565 C 0.52203 0.71708 0.94326 0.0
H566 H 0.61567 0.77437 0.96267 0.0
H567 H 0.55702 0.7585 0.83043 0.0
S568 S 0.51121 0.65359 0.20329 0.0
N569 N 0.55638 0.68135 0.21961 0.0
N570 N 0.493 0.66709 0.07894 0.0
C571 C 0.52439 0.69502 0.04503 0.0
C572 C 0.55866 0.70318 0.12141 0.0
C573 C 0.77771 0.45081 0.98863 0.0
C574 C 0.79676 0.49049 1.01767 0.0
C575 C 0.78819 0.43056 0.88751 0.0
C576 C 0.81787 0.44978 0.81425 0.0
H577 H 0.75615 0.43469 0.04664 0.0
H578 H 0.77759 0.39768 0.87364 0.0
S579 S 0.8688 0.55738 0.84536 0.0
N580 N 0.84008 0.55137 0.96062 0.0
N581 N 0.85967 0.51377 0.76875 0.0
C582 C 0.83141 0.49241 0.83557 0.0
C583 C 0.82178 0.5123 0.93957 0.0
C584 C 0.07876 0.2083 0.96912 0.0
C585 C 0.04211 0.22967 1.01492 0.0
C586 C 0.07529 0.17107 0.89625 0.0
C587 C 0.03512 0.15079 0.86727 0.0
H588 H 0.11081 0.21939 0.99311 0.0
H589 H 0.10492 0.15755 0.86375 0.0
S590 S 0.92843 0.19651 0.95128 0.0
N591 N 0.96361 0.22899 1.01347 0.0
N592 N 0.95732 0.16018 0.88334 0.0
C593 C 0.99828 0.17324 0.90816 0.0
C594 C 1.00176 0.21158 0.97996 0.0
C595 C 0.34262 0.08792 0.93044 0.0
C596 C 0.32392 0.05889 1.0095 0.0
C597 C 0.38157 0.07911 0.86843 0.0
C598 C 0.40587 0.04085 0.88195 0.0
H599 H 0.32802 0.11928 0.92041 0.0
H600 H 0.39386 0.1037 0.81274 0.0
S601 S 0.37175 0.95162 0.06892 0.0
N602 N 0.3334 0.98785 0.08887 0.0
N603 N 0.40621 0.97258 0.97856 0.0
C604 C 0.38722 1.01098 0.95784 0.0
C605 C 0.34686 0.01951 1.01913 0.0
C606 C 0.4621 0.34562 0.94058 0.0
C607 C 0.49432 0.324 1.00559 0.0
C608 C 0.46963 0.3851 0.88263 0.0
C609 C 0.51025 0.40637 0.88263 0.0
H610 H 0.42924 0.33321 0.94037 0.0
H611 H 0.44266 0.39952 0.83889 0.0
S612 S 0.60982 0.35895 1.00987 0.0
N613 N 0.57145 0.32438 0.04549 0.0
N614 N 0.58582 0.39696 0.93614 0.0
C615 C 0.54417 0.38272 0.93551 0.0
C616 C 0.53634 0.3423 0.99564 0.0
C617 C 0.21641 0.5451 0.98599 0.0
C618 C 0.23932 0.50549 0.99082 0.0
C619 C 0.17857 0.55142 0.91707 0.0
C620 C 0.16117 0.51891 0.84537 0.0
H621 H 0.22594 0.57081 0.04251 0.0
H622 H 0.16172 0.58173 0.92411 0.0
S623 S 0.21643 0.41423 0.79623 0.0
N624 N 0.24457 0.43586 0.90057 0.0
N625 N 0.17798 0.44906 0.76492 0.0
C626 C 0.18681 0.48112 0.83947 0.0
C627 C 0.22431 0.4742 0.91259 0.0
C628 C 0.97304 0.83814 0.51747 0.0
C629 C 1.00546 0.81888 0.44862 0.0
C630 C 0.97951 0.87721 0.58031 0.0
C631 C 1.01862 0.90142 0.57779 0.0
H632 H 0.94093 0.8239 0.51816 0.0
H633 H 0.95278 0.8891 0.62975 0.0
S634 S 0.11777 0.86267 0.43053 0.0
N635 N 0.08108 0.82583 0.39668 0.0
N636 N 0.09299 0.89812 0.51164 0.0
C637 C 0.05253 0.88095 0.51665 0.0
C638 C 0.04603 0.84066 0.45321 0.0
C639 C 0.69531 0.02797 0.39112 0.0
C640 C 0.73037 1.00242 0.43022 0.0
C641 C 0.65582 0.03408 0.45342 0.0
C642 C 0.6482 1.01544 0.5606 0.0
H643 H 0.69709 0.04141 0.30791 0.0
H644 H 0.63029 0.05287 0.41519 0.0
S645 S 0.7254 0.94036 0.69609 0.0
N646 N 0.75121 0.95502 0.58132 0.0
N647 N 0.67939 0.96732 0.69751 0.0
C648 C 0.6829 0.99012 0.60111 0.0
C649 C 0.72276 0.98342 0.53686 0.0
C650 C 0.5108 0.70615 0.45502 0.0
C651 C 0.55025 0.72984 0.45759 0.0
C652 C 0.5042 0.6679 0.52041 0.0
C653 C 0.53638 0.651 0.59384 0.0
H654 H 0.48567 0.71564 0.39664 0.0
H655 H 0.47398 0.65047 0.50982 0.0
S656 S 0.64122 0.70581 0.65434 0.0
N657 N 0.61976 0.73508 0.55342 0.0
N658 N 0.60609 0.6668 0.67876 0.0
C659 C 0.57429 0.67635 0.60393 0.0
C660 C 0.58147 0.71437 0.53584 0.0
C661 C 0.85958 0.49684 0.42449 0.0
C662 C 0.83105 0.53274 0.41384 0.0
C663 C 0.89785 0.49685 0.49292 0.0
C664 C 0.91132 0.53257 0.55877 0.0
H665 H 0.85294 0.46796 0.37611 0.0
H666 H 0.9179 0.46839 0.49148 0.0
S667 S 0.84499 0.63255 0.58385 0.0
N668 N 0.81763 0.60374 0.49037 0.0
N669 N 0.88804 0.6039 0.61832 0.0
C670 C 0.88192 0.56807 0.55472 0.0
C671 C 0.84254 0.56798 0.48421 0.0
loop_
_geom_bond_atom_site_label_1
_geom_bond_atom_site_label_2
_geom_bond_distance
_geom_bond_site_symmetry_2
_ccdc_geom_bond_type
H0 C3 0.931 . S
H1 C6 0.928 . S
H2 C8 0.930 . S
C3 H0 0.931 . S
C3 C4 1.413 . S
C3 C5 1.360 . S
C4 C3 1.413 . S
C4 C8 1.429 . S
C5 C3 1.360 . S
C5 C6 1.372 . S
C6 H1 0.928 . S
C6 C5 1.372 . S
C6 C7 1.404 . S
C7 C6 1.404 . S
C7 C8 1.391 . S
C8 H2 0.930 . S
C8 C4 1.429 . S
C8 C7 1.391 . S
H9 C12 0.931 . S
H10 C15 0.928 . S
H11 C17 0.930 . S
C12 H9 0.931 . S
C12 C13 1.413 . S
C12 C14 1.360 . S
C13 C12 1.413 . S
C13 C17 1.429 . S
C14 C12 1.360 . S
C14 C15 1.372 . S
C15 H10 0.928 . S
C15 C14 1.372 . S
C15 C16 1.404 . S
C16 C15 1.404 . S
C16 C17 1.391 . S
C17 H11 0.930 . S
C17 C13 1.429 . S
C17 C16 1.391 . S
H18 C21 0.931 . S
H19 C24 0.928 . S
H20 C26 0.930 . S
C21 H18 0.931 . S
C21 C22 1.413 . S
C21 C23 1.360 . S
C22 C21 1.413 . S
C22 C26 1.429 . S
C23 C21 1.360 . S
C23 C24 1.372 . S
C24 H19 0.928 . S
C24 C23 1.372 . S
C24 C25 1.404 . S
C25 C24 1.404 . S
C25 C26 1.391 . S
C26 H20 0.930 . S
C26 C22 1.429 . S
C26 C25 1.391 . S
H27 C30 0.931 . S
H28 C33 0.928 . S
H29 C35 0.930 . S
C30 H27 0.931 . S
C30 C31 1.413 . S
C30 C32 1.360 . S
C31 C30 1.413 . S
C31 C35 1.429 . S
C32 C30 1.360 . S
C32 C33 1.372 . S
C33 H28 0.928 . S
C33 C32 1.372 . S
C33 C34 1.404 . S
C34 C33 1.404 . S
C34 C35 1.391 . S
C35 H29 0.930 . S
C35 C31 1.429 . S
C35 C34 1.391 . S
H36 C39 0.931 . S
H37 C42 0.928 . S
H38 C44 0.930 . S
C39 H36 0.931 . S
C39 C40 1.413 . S
C39 C41 1.360 1_556 S
C40 C39 1.413 . S
C40 C44 1.429 . S
C41 C39 1.360 1_554 S
C41 C42 1.372 . S
C42 H37 0.928 . S
C42 C41 1.372 . S
C42 C43 1.404 . S
C43 C42 1.404 . S
C43 C44 1.391 1_554 S
C44 H38 0.930 . S
C44 C40 1.429 . S
C44 C43 1.391 1_556 S
H45 C48 0.931 . S
H46 C51 0.928 . S
H47 C53 0.930 . S
C48 H45 0.931 . S
C48 C49 1.413 . S
C48 C50 1.360 1_556 S
C49 C48 1.413 . S
C49 C53 1.429 . S
C50 C48 1.360 1_554 S
C50 C51 1.372 . S
C51 H46 0.928 . S
C51 C50 1.372 . S
C51 C52 1.404 . S
C52 C51 1.404 . S
C52 C53 1.391 1_554 S
C53 H47 0.930 . S
C53 C49 1.429 . S
C53 C52 1.391 1_556 S
H54 C57 0.931 . S
H55 C60 0.928 . S
H56 C62 0.930 . S
C57 H54 0.931 . S
C57 C58 1.413 . S
C57 C59 1.360 1_556 S
C58 C57 1.413 . S
C58 C62 1.429 . S
C59 C57 1.360 1_554 S
C59 C60 1.372 . S
C60 H55 0.928 . S
C60 C59 1.372 . S
C60 C61 1.404 . S
C61 C60 1.404 . S
C61 C62 1.391 1_554 S
C62 H56 0.930 . S
C62 C58 1.429 . S
C62 C61 1.391 1_556 S
H63 C66 0.931 . S
H64 C69 0.928 . S
H65 C71 0.930 . S
C66 H63 0.931 . S
C66 C67 1.413 1_556 S
C66 C68 1.360 . S
C67 C66 1.413 1_554 S
C67 C71 1.429 . S
C68 C66 1.360 . S
C68 C69 1.372 . S
C69 H64 0.928 . S
C69 C68 1.372 . S
C69 C70 1.404 1_556 S
C70 C69 1.404 1_554 S
C70 C71 1.391 . S
C71 H65 0.930 . S
C71 C67 1.429 . S
C71 C70 1.391 . S
Tb72 N101 2.617 . S
Tb72 N107 2.572 . S
Tb72 O116 2.465 . S
Tb72 O117 2.387 1_545 S
Tb72 O119 2.428 . S
Tb72 O120 2.308 1_655 S
Tb72 O124 2.349 . S
Tb72 O127 2.393 . S
Tb72 C136 2.802 . S
C73 N74 1.379 . S
C73 C76 1.416 . S
C73 C80 1.424 1_556 S
N74 C73 1.379 . S
N74 C77 1.335 . S
N74 Tb83 2.617 1_545 S
C75 C77 1.392 . S
C75 C78 1.339 . S
C75 H95 0.930 . S
C76 C73 1.416 . S
C76 C78 1.416 . S
C76 C82 1.448 1_556 S
C77 N74 1.335 . S
C77 C75 1.392 . S
C77 H88 0.927 1_545 S
C78 C75 1.339 . S
C78 C76 1.416 . S
C78 H99 0.930 . S
C79 C80 1.413 . S
C79 C81 1.427 . S
C79 C85 1.416 . S
C80 C73 1.424 1_554 S
C80 C79 1.413 . S
C80 N84 1.361 1_554 S
C81 C79 1.427 . S
C81 C82 1.328 . S
C81 H96 0.929 . S
C82 C76 1.448 1_554 S
C82 C81 1.328 . S
C82 H97 0.930 . S
Tb83 N74 2.617 1_565 S
Tb83 N84 2.572 1_565 S
Tb83 O118 2.349 . S
Tb83 O121 2.393 . S
Tb83 O122 2.465 . S
Tb83 O123 2.387 1_565 S
Tb83 O125 2.428 . S
Tb83 O126 2.308 1_455 S
Tb83 C147 2.802 . S
N84 C80 1.361 1_556 S
N84 Tb83 2.572 1_545 S
N84 C86 1.340 1_556 S
C85 C79 1.416 . S
C85 C87 1.332 . S
C85 H93 0.931 . S
C86 N84 1.340 1_554 S
C86 C87 1.407 . S
C86 H92 0.930 . S
C87 C85 1.332 . S
C87 C86 1.407 . S
C87 H89 0.929 . S
H88 C77 0.927 1_565 S
H89 C87 0.929 . S
H90 C105 0.930 . S
H91 C112 0.929 . S
H92 C86 0.930 . S
H93 C85 0.931 . S
H94 C108 0.930 1_445 S
H95 C75 0.930 . S
H96 C81 0.929 . S
H97 C82 0.930 . S
H98 C103 0.930 1_545 S
H99 C78 0.930 . S
H100 C111 0.931 . S
N101 Tb72 2.617 . S
N101 C102 1.379 1_545 S
N101 C105 1.334 . S
C102 N101 1.379 1_565 S
C102 C104 1.416 . S
C102 C110 1.424 . S
C103 H98 0.930 1_565 S
C103 C105 1.390 1_565 S
C103 C106 1.339 . S
C104 C102 1.416 . S
C104 C106 1.416 . S
C104 C137 1.448 . S
C105 H90 0.930 . S
C105 N101 1.334 . S
C105 C103 1.390 1_545 S
C106 C103 1.339 . S
C106 C104 1.416 . S
C106 H113 0.930 . S
N107 Tb72 2.572 . S
N107 C108 1.340 1_545 S
N107 C110 1.361 1_545 S
C108 H94 0.930 1_665 S
C108 N107 1.340 1_565 S
C108 C112 1.407 . S
C109 C110 1.413 . S
C109 C111 1.416 . S
C109 C138 1.427 . S
C110 C102 1.424 . S
C110 N107 1.361 1_565 S
C110 C109 1.413 . S
C111 H100 0.931 . S
C111 C109 1.416 . S
C111 C112 1.332 . S
C112 H91 0.929 . S
C112 C108 1.407 . S
C112 C111 1.332 . S
H113 C106 0.930 . S
H114 C137 0.930 . S
H115 C138 0.929 . S
O116 Tb72 2.465 . S
O116 C136 1.264 . S
O117 Tb72 2.387 1_565 S
O117 C128 1.264 . S
O118 Tb83 2.349 . S
O118 C128 1.243 1_455 S
O119 Tb72 2.428 . S
O119 C136 1.256 . S
O120 Tb72 2.308 1_455 S
O120 C135 1.266 . S
O121 Tb83 2.393 . S
O121 C135 1.248 1_565 S
O122 Tb83 2.465 . S
O122 C147 1.264 . S
O123 Tb83 2.387 1_545 S
O123 C139 1.264 . S
O124 Tb72 2.349 . S
O124 C139 1.243 1_655 S
O125 Tb83 2.428 . S
O125 C147 1.256 . S
O126 Tb83 2.308 1_655 S
O126 C146 1.266 1_565 S
O127 Tb72 2.393 . S
O127 C146 1.248 . S
C128 O117 1.264 . S
C128 O118 1.243 1_655 S
C129 C132 1.399 . S
C129 C134 1.383 . S
C129 C136 1.496 . S
C130 C131 1.399 . S
C130 C134 1.389 . S
C131 C130 1.399 . S
C131 C133 1.380 . S
C131 H148 0.929 . S
C132 C129 1.399 . S
C132 C133 1.392 . S
C132 H149 0.929 . S
C133 C131 1.380 . S
C133 C132 1.392 . S
C133 H150 0.929 . S
C134 C129 1.383 . S
C134 C130 1.389 . S
C134 H151 0.931 . S
C135 O120 1.266 . S
C135 O121 1.248 1_545 S
C136 Tb72 2.802 . S
C136 O116 1.264 . S
C136 O119 1.256 . S
C136 C129 1.496 . S
C137 C104 1.448 . S
C137 H114 0.930 . S
C137 C138 1.328 . S
C138 C109 1.427 . S
C138 H115 0.929 . S
C138 C137 1.328 . S
C139 O123 1.264 . S
C139 O124 1.243 1_455 S
C140 C143 1.399 . S
C140 C144 1.383 1_556 S
C140 C147 1.496 . S
C141 C142 1.399 . S
C141 C144 1.389 . S
C142 C141 1.399 . S
C142 C145 1.382 . S
C142 H152 0.929 . S
C143 C140 1.399 . S
C143 C145 1.390 1_556 S
C143 H153 0.929 . S
C144 C140 1.383 1_554 S
C144 C141 1.389 . S
C144 H154 0.931 . S
C145 C142 1.382 . S
C145 C143 1.390 1_554 S
C145 H155 0.929 1_554 S
C146 O126 1.266 1_545 S
C146 O127 1.248 . S
C147 Tb83 2.802 . S
C147 O122 1.264 . S
C147 O125 1.256 . S
C147 C140 1.496 . S
H148 C131 0.929 . S
H149 C132 0.929 . S
H150 C133 0.929 . S
H151 C134 0.931 . S
H152 C142 0.929 . S
H153 C143 0.929 . S
H154 C144 0.931 . S
H155 C145 0.929 1_556 S
Tb156 N185 2.617 . S
Tb156 N191 2.572 . S
Tb156 O200 2.465 . S
Tb156 O201 2.387 . S
Tb156 O203 2.428 . S
Tb156 O204 2.308 . S
Tb156 O208 2.349 1_545 S
Tb156 O211 2.393 . S
Tb156 C220 2.802 . S
C157 N158 1.379 . S
C157 C160 1.416 . S
C157 C164 1.424 . S
N158 C157 1.379 . S
N158 C161 1.334 . S
N158 Tb167 2.617 . S
C159 C161 1.390 . S
C159 C162 1.339 . S
C159 H179 0.930 . S
C160 C157 1.416 . S
C160 C162 1.416 . S
C160 C166 1.448 . S
C161 N158 1.334 . S
C161 C159 1.390 . S
C161 H172 0.930 . S
C162 C159 1.339 . S
C162 C160 1.416 . S
C162 H183 0.930 . S
C163 C164 1.413 . S
C163 C165 1.427 . S
C163 C169 1.416 . S
C164 C157 1.424 . S
C164 C163 1.413 . S
C164 N168 1.361 . S
C165 C163 1.427 . S
C165 C166 1.328 . S
C165 H180 0.929 . S
C166 C160 1.448 . S
C166 C165 1.328 . S
C166 H181 0.930 . S
Tb167 N158 2.617 . S
Tb167 N168 2.572 . S
Tb167 O202 2.349 1_565 S
Tb167 O205 2.393 . S
Tb167 O206 2.465 . S
Tb167 O207 2.387 . S
Tb167 O209 2.428 . S
Tb167 O210 2.308 . S
Tb167 C231 2.802 . S
N168 C164 1.361 . S
N168 Tb167 2.572 . S
N168 C170 1.340 . S
C169 C163 1.416 . S
C169 C171 1.332 . S
C169 H177 0.931 . S
C170 N168 1.340 . S
C170 C171 1.407 . S
C170 H176 0.930 . S
C171 C169 1.332 . S
C171 C170 1.407 . S
C171 H173 0.929 . S
H172 C161 0.930 . S
H173 C171 0.929 . S
H174 C189 0.930 . S
H175 C196 0.929 . S
H176 C170 0.930 . S
H177 C169 0.931 . S
H178 C192 0.930 . S
H179 C159 0.930 . S
H180 C165 0.929 . S
H181 C166 0.930 . S
H182 C187 0.930 . S
H183 C162 0.930 . S
H184 C195 0.931 . S
N185 Tb156 2.617 . S
N185 C186 1.379 . S
N185 C189 1.334 . S
C186 N185 1.379 . S
C186 C188 1.416 . S
C186 C194 1.424 . S
C187 H182 0.930 . S
C187 C189 1.390 . S
C187 C190 1.339 . S
C188 C186 1.416 . S
C188 C190 1.416 . S
C188 C221 1.448 . S
C189 H174 0.930 . S
C189 N185 1.334 . S
C189 C187 1.390 . S
C190 C187 1.339 . S
C190 C188 1.416 . S
C190 H197 0.930 . S
N191 Tb156 2.572 . S
N191 C192 1.340 . S
N191 C194 1.361 . S
C192 H178 0.930 . S
C192 N191 1.340 . S
C192 C196 1.407 . S
C193 C194 1.413 . S
C193 C195 1.416 . S
C193 C222 1.427 . S
C194 C186 1.424 . S
C194 N191 1.361 . S
C194 C193 1.413 . S
C195 H184 0.931 . S
C195 C193 1.416 . S
C195 C196 1.332 . S
C196 H175 0.929 . S
C196 C192 1.407 . S
C196 C195 1.332 . S
H197 C190 0.930 . S
H198 C221 0.930 . S
H199 C222 0.929 . S
O200 Tb156 2.465 . S
O200 C220 1.264 . S
O201 Tb156 2.387 . S
O201 C212 1.264 . S
O202 Tb167 2.349 1_545 S
O202 C212 1.243 . S
O203 Tb156 2.428 . S
O203 C220 1.256 . S
O204 Tb156 2.308 . S
O204 C219 1.266 1_545 S
O205 Tb167 2.393 . S
O205 C219 1.248 . S
O206 Tb167 2.465 . S
O206 C231 1.264 . S
O207 Tb167 2.387 . S
O207 C223 1.264 . S
O208 Tb156 2.349 1_565 S
O208 C223 1.243 . S
O209 Tb167 2.428 . S
O209 C231 1.256 . S
O210 Tb167 2.308 . S
O210 C230 1.266 1_565 S
O211 Tb156 2.393 . S
O211 C230 1.248 . S
C212 O201 1.264 . S
C212 O202 1.243 . S
C213 C216 1.399 . S
C213 C218 1.383 . S
C213 C220 1.496 1_554 S
C214 C215 1.399 . S
C214 C218 1.389 . S
C215 C214 1.399 . S
C215 C217 1.380 . S
C215 H232 0.929 . S
C216 C213 1.399 . S
C216 C217 1.392 . S
C216 H233 0.929 . S
C217 C215 1.380 . S
C217 C216 1.392 . S
C217 H234 0.929 . S
C218 C213 1.383 . S
C218 C214 1.389 . S
C218 H235 0.931 1_554 S
C219 O204 1.266 1_565 S
C219 O205 1.248 . S
C220 Tb156 2.802 . S
C220 O200 1.264 . S
C220 O203 1.256 . S
C220 C213 1.496 1_556 S
C221 C188 1.448 . S
C221 H198 0.930 . S
C221 C222 1.328 . S
C222 C193 1.427 . S
C222 H199 0.929 . S
C222 C221 1.328 . S
C223 O207 1.264 . S
C223 O208 1.243 . S
C224 C227 1.399 . S
C224 C228 1.383 . S
C224 C231 1.496 . S
C225 C226 1.399 . S
C225 C228 1.389 . S
C226 C225 1.399 . S
C226 C229 1.380 . S
C226 H236 0.929 . S
C227 C224 1.399 . S
C227 C229 1.392 . S
C227 H237 0.929 . S
C228 C224 1.383 . S
C228 C225 1.389 . S
C228 H238 0.931 . S
C229 C226 1.380 . S
C229 C227 1.392 . S
C229 H239 0.929 . S
C230 O210 1.266 1_545 S
C230 O211 1.248 . S
C231 Tb167 2.802 . S
C231 O206 1.264 . S
C231 O209 1.256 . S
C231 C224 1.496 . S
H232 C215 0.929 . S
H233 C216 0.929 . S
H234 C217 0.929 . S
H235 C218 0.931 1_556 S
H236 C226 0.929 . S
H237 C227 0.929 . S
H238 C228 0.931 . S
H239 C229 0.929 . S
Tb240 N269 2.617 . S
Tb240 N275 2.572 . S
Tb240 O284 2.465 . S
Tb240 O285 2.387 . S
Tb240 O287 2.428 . S
Tb240 O288 2.308 . S
Tb240 O292 2.349 . S
Tb240 O295 2.393 . S
Tb240 C304 2.802 . S
C241 N242 1.379 . S
C241 C244 1.416 . S
C241 C248 1.424 1_556 S
N242 C241 1.379 . S
N242 C245 1.334 . S
N242 Tb251 2.617 . S
C243 C245 1.390 . S
C243 C246 1.339 . S
C243 H263 0.930 . S
C244 C241 1.416 . S
C244 C246 1.416 . S
C244 C250 1.448 1_556 S
C245 N242 1.334 . S
C245 C243 1.390 . S
C245 H256 0.930 . S
C246 C243 1.339 . S
C246 C244 1.416 . S
C246 H267 0.930 . S
C247 C248 1.413 . S
C247 C249 1.427 . S
C247 C253 1.416 . S
C248 C241 1.424 1_554 S
C248 C247 1.413 . S
C248 N252 1.361 1_554 S
C249 C247 1.427 . S
C249 C250 1.328 . S
C249 H264 0.929 . S
C250 C244 1.448 1_554 S
C250 C249 1.328 . S
C250 H265 0.930 . S
Tb251 N242 2.617 . S
Tb251 N252 2.572 . S
Tb251 O286 2.349 . S
Tb251 O289 2.393 . S
Tb251 O290 2.465 . S
Tb251 O291 2.387 . S
Tb251 O293 2.428 . S
Tb251 O294 2.308 . S
Tb251 C315 2.802 . S
N252 C248 1.361 1_556 S
N252 Tb251 2.572 . S
N252 C254 1.340 1_556 S
C253 C247 1.416 . S
C253 C255 1.332 . S
C253 H261 0.931 . S
C254 N252 1.340 1_554 S
C254 C255 1.407 . S
C254 H260 0.930 . S
C255 C253 1.332 . S
C255 C254 1.407 . S
C255 H257 0.929 . S
H256 C245 0.930 . S
H257 C255 0.929 . S
H258 C273 0.930 . S
H259 C280 0.929 . S
H260 C254 0.930 . S
H261 C253 0.931 . S
H262 C276 0.930 . S
H263 C243 0.930 . S
H264 C249 0.929 . S
H265 C250 0.930 . S
H266 C271 0.930 . S
H267 C246 0.930 . S
H268 C279 0.931 . S
N269 Tb240 2.617 . S
N269 C270 1.379 . S
N269 C273 1.334 . S
C270 N269 1.379 . S
C270 C272 1.416 . S
C270 C278 1.424 . S
C271 H266 0.930 . S
C271 C273 1.390 . S
C271 C274 1.339 . S
C272 C270 1.416 . S
C272 C274 1.416 . S
C272 C305 1.448 . S
C273 H258 0.930 . S
C273 N269 1.334 . S
C273 C271 1.390 . S
C274 C271 1.339 . S
C274 C272 1.416 . S
C274 H281 0.930 . S
N275 Tb240 2.572 . S
N275 C276 1.340 . S
N275 C278 1.361 . S
C276 H262 0.930 . S
C276 N275 1.340 . S
C276 C280 1.407 . S
C277 C278 1.413 . S
C277 C279 1.416 . S
C277 C306 1.427 . S
C278 C270 1.424 . S
C278 N275 1.361 . S
C278 C277 1.413 . S
C279 H268 0.931 . S
C279 C277 1.416 . S
C279 C280 1.332 . S
C280 H259 0.929 . S
C280 C276 1.407 . S
C280 C279 1.332 . S
H281 C274 0.930 . S
H282 C305 0.930 . S
H283 C306 0.929 . S
O284 Tb240 2.465 . S
O284 C304 1.264 . S
O285 Tb240 2.387 . S
O285 C296 1.264 . S
O286 Tb251 2.349 . S
O286 C296 1.243 . S
O287 Tb240 2.428 . S
O287 C304 1.256 . S
O288 Tb240 2.308 . S
O288 C303 1.266 . S
O289 Tb251 2.393 . S
O289 C303 1.248 . S
O290 Tb251 2.465 . S
O290 C315 1.264 . S
O291 Tb251 2.387 . S
O291 C307 1.264 . S
O292 Tb240 2.349 . S
O292 C307 1.243 . S
O293 Tb251 2.428 . S
O293 C315 1.256 . S
O294 Tb251 2.308 . S
O294 C314 1.266 . S
O295 Tb240 2.393 . S
O295 C314 1.248 . S
C296 O285 1.264 . S
C296 O286 1.243 . S
C297 C300 1.399 . S
C297 C302 1.383 . S
C297 C304 1.496 . S
C298 C299 1.399 . S
C298 C302 1.389 . S
C299 C298 1.399 . S
C299 C301 1.380 . S
C299 H316 0.929 . S
C300 C297 1.399 . S
C300 C301 1.392 . S
C300 H317 0.929 . S
C301 C299 1.380 . S
C301 C300 1.392 . S
C301 H318 0.929 . S
C302 C297 1.383 . S
C302 C298 1.389 . S
C302 H319 0.931 . S
C303 O288 1.266 . S
C303 O289 1.248 . S
C304 Tb240 2.802 . S
C304 O284 1.264 . S
C304 O287 1.256 . S
C304 C297 1.496 . S
C305 C272 1.448 . S
C305 H282 0.930 . S
C305 C306 1.328 . S
C306 C277 1.427 . S
C306 H283 0.929 . S
C306 C305 1.328 . S
C307 O291 1.264 . S
C307 O292 1.243 . S
C308 C311 1.399 . S
C308 C312 1.383 1_556 S
C308 C315 1.496 . S
C309 C310 1.399 . S
C309 C312 1.389 . S
C310 C309 1.399 . S
C310 C313 1.380 . S
C310 H320 0.929 . S
C311 C308 1.399 . S
C311 C313 1.392 1_556 S
C311 H321 0.929 . S
C312 C308 1.383 1_554 S
C312 C309 1.389 . S
C312 H322 0.931 . S
C313 C310 1.380 . S
C313 C311 1.392 1_554 S
C313 H323 0.929 1_554 S
C314 O294 1.266 . S
C314 O295 1.248 . S
C315 Tb251 2.802 . S
C315 O290 1.264 . S
C315 O293 1.256 . S
C315 C308 1.496 . S
H316 C299 0.929 . S
H317 C300 0.929 . S
H318 C301 0.929 . S
H319 C302 0.931 . S
H320 C310 0.929 . S
H321 C311 0.929 . S
H322 C312 0.931 . S
H323 C313 0.929 1_556 S
Tb324 N353 2.617 . S
Tb324 N359 2.572 . S
Tb324 O368 2.465 . S
Tb324 O369 2.387 1_455 S
Tb324 O371 2.428 . S
Tb324 O372 2.308 . S
Tb324 O376 2.349 . S
Tb324 O379 2.393 . S
Tb324 C388 2.802 . S
C325 N326 1.374 1_455 S
C325 C328 1.416 . S
C325 C332 1.424 1_556 S
N326 C325 1.374 1_655 S
N326 C329 1.336 . S
N326 Tb335 2.620 . S
C327 C329 1.390 1_455 S
C327 C330 1.339 . S
C327 H347 0.930 . S
C328 C325 1.416 . S
C328 C330 1.416 . S
C328 C334 1.448 1_556 S
C329 N326 1.336 . S
C329 C327 1.390 1_655 S
C329 H340 0.930 . S
C330 C327 1.339 . S
C330 C328 1.416 . S
C330 H351 0.930 . S
C331 C332 1.413 . S
C331 C333 1.427 . S
C331 C337 1.416 . S
C332 C325 1.424 1_554 S
C332 C331 1.413 . S
C332 N336 1.361 1_554 S
C333 C331 1.427 . S
C333 C334 1.328 . S
C333 H348 0.929 . S
C334 C328 1.448 1_554 S
C334 C333 1.328 . S
C334 H349 0.930 . S
Tb335 N326 2.620 . S
Tb335 N336 2.572 1_655 S
Tb335 O370 2.349 . S
Tb335 O373 2.393 . S
Tb335 O374 2.465 . S
Tb335 O375 2.387 1_655 S
Tb335 O377 2.428 . S
Tb335 O378 2.308 . S
Tb335 C399 2.802 . S
N336 C332 1.361 1_556 S
N336 Tb335 2.572 1_455 S
N336 C338 1.340 1_556 S
C337 C331 1.416 . S
C337 C339 1.332 . S
C337 H345 0.931 . S
C338 N336 1.340 1_554 S
C338 C339 1.407 . S
C338 H344 0.930 . S
C339 C337 1.332 . S
C339 C338 1.407 . S
C339 H341 0.929 . S
H340 C329 0.930 . S
H341 C339 0.929 . S
H342 C357 0.930 . S
H343 C364 0.929 . S
H344 C338 0.930 . S
H345 C337 0.931 . S
H346 C360 0.930 1_455 S
H347 C327 0.930 . S
H348 C333 0.929 . S
H349 C334 0.930 . S
H350 C355 0.930 1_455 S
H351 C330 0.930 . S
H352 C363 0.931 . S
N353 Tb324 2.617 . S
N353 C354 1.379 1_455 S
N353 C357 1.334 . S
C354 N353 1.379 1_655 S
C354 C356 1.416 . S
C354 C362 1.424 . S
C355 H350 0.930 1_655 S
C355 C357 1.390 1_655 S
C355 C358 1.339 . S
C356 C354 1.416 . S
C356 C358 1.416 . S
C356 C389 1.448 . S
C357 H342 0.930 . S
C357 N353 1.334 . S
C357 C355 1.390 1_455 S
C358 C355 1.339 . S
C358 C356 1.416 . S
C358 H365 0.930 . S
N359 Tb324 2.572 . S
N359 C360 1.340 1_455 S
N359 C362 1.361 1_455 S
C360 H346 0.930 1_655 S
C360 N359 1.340 1_655 S
C360 C364 1.407 . S
C361 C362 1.413 . S
C361 C363 1.416 . S
C361 C390 1.427 . S
C362 C354 1.424 . S
C362 N359 1.361 1_655 S
C362 C361 1.413 . S
C363 H352 0.931 . S
C363 C361 1.416 . S
C363 C364 1.332 . S
C364 H343 0.929 . S
C364 C360 1.407 . S
C364 C363 1.332 . S
H365 C358 0.930 . S
H366 C389 0.930 . S
H367 C390 0.929 . S
O368 Tb324 2.465 . S
O368 C388 1.264 . S
O369 Tb324 2.387 1_655 S
O369 C380 1.264 . S
O370 Tb335 2.349 . S
O370 C380 1.243 . S
O371 Tb324 2.428 . S
O371 C388 1.256 . S
O372 Tb324 2.308 . S
O372 C387 1.266 . S
O373 Tb335 2.393 . S
O373 C387 1.248 1_655 S
O374 Tb335 2.465 . S
O374 C399 1.264 . S
O375 Tb335 2.387 1_455 S
O375 C391 1.264 . S
O376 Tb324 2.349 . S
O376 C391 1.243 . S
O377 Tb335 2.428 . S
O377 C399 1.256 . S
O378 Tb335 2.308 . S
O378 C398 1.266 1_655 S
O379 Tb324 2.393 . S
O379 C398 1.248 . S
C380 O369 1.264 . S
C380 O370 1.243 . S
C381 C384 1.399 . S
C381 C386 1.383 . S
C381 C388 1.496 . S
C382 C383 1.399 . S
C382 C386 1.389 . S
C383 C382 1.399 . S
C383 C385 1.380 . S
C383 H400 0.929 . S
C384 C381 1.399 . S
C384 C385 1.392 . S
C384 H401 0.929 . S
C385 C383 1.380 . S
C385 C384 1.392 . S
C385 H402 0.929 . S
C386 C381 1.383 . S
C386 C382 1.389 . S
C386 H403 0.931 . S
C387 O372 1.266 . S
C387 O373 1.248 1_455 S
C388 Tb324 2.802 . S
C388 O368 1.264 . S
C388 O371 1.256 . S
C388 C381 1.496 . S
C389 C356 1.448 . S
C389 H366 0.930 . S
C389 C390 1.328 . S
C390 C361 1.427 . S
C390 H367 0.929 . S
C390 C389 1.328 . S
C391 O375 1.264 . S
C391 O376 1.243 . S
C392 C395 1.399 . S
C392 C396 1.383 1_556 S
C392 C399 1.496 . S
C393 C394 1.399 . S
C393 C396 1.389 . S
C394 C393 1.399 . S
C394 C397 1.380 . S
C394 H404 0.929 . S
C395 C392 1.399 . S
C395 C397 1.392 1_556 S
C395 H405 0.929 . S
C396 C392 1.383 1_554 S
C396 C393 1.389 . S
C396 H406 0.931 . S
C397 C394 1.380 . S
C397 C395 1.392 1_554 S
C397 H407 0.929 1_554 S
C398 O378 1.266 1_455 S
C398 O379 1.248 . S
C399 Tb335 2.802 . S
C399 O374 1.264 . S
C399 O377 1.256 . S
C399 C392 1.496 . S
H400 C383 0.929 . S
H401 C384 0.929 . S
H402 C385 0.929 . S
H403 C386 0.931 . S
H404 C394 0.929 . S
H405 C395 0.929 . S
H406 C396 0.931 . S
H407 C397 0.929 1_556 S
C408 C409 1.369 1_565 S
C408 C410 1.419 . S
C408 H412 0.930 . S
C409 C408 1.369 1_545 S
C409 C418 1.429 . S
C410 C408 1.419 . S
C410 C411 1.363 1_565 S
C410 H413 0.929 . S
C411 C410 1.363 1_545 S
C411 C417 1.428 . S
H412 C408 0.930 . S
H413 C410 0.929 . S
S414 N415 1.613 . S
S414 N416 1.610 . S
N415 S414 1.613 . S
N415 C418 1.350 . S
N416 S414 1.610 . S
N416 C417 1.351 . S
C417 C411 1.428 . S
C417 N416 1.351 . S
C417 C418 1.434 . S
C418 C409 1.429 . S
C418 N415 1.350 . S
C418 C417 1.434 . S
C419 C420 1.369 . S
C419 C421 1.419 . S
C419 H423 0.930 . S
C420 C419 1.369 . S
C420 C429 1.429 . S
C421 C419 1.419 . S
C421 C422 1.363 . S
C421 H424 0.929 . S
C422 C421 1.363 . S
C422 C428 1.428 . S
H423 C419 0.930 . S
H424 C421 0.929 . S
S425 N426 1.613 . S
S425 N427 1.610 . S
N426 S425 1.613 . S
N426 C429 1.350 . S
N427 S425 1.610 . S
N427 C428 1.351 . S
C428 C422 1.428 . S
C428 N427 1.351 . S
C428 C429 1.434 . S
C429 C420 1.429 . S
C429 N426 1.350 . S
C429 C428 1.434 . S
C430 C431 1.369 . S
C430 C432 1.419 . S
C430 H434 0.930 . S
C431 C430 1.369 . S
C431 C440 1.429 . S
C432 C430 1.419 . S
C432 C433 1.363 . S
C432 H435 0.929 . S
C433 C432 1.363 . S
C433 C439 1.428 . S
H434 C430 0.930 . S
H435 C432 0.929 . S
S436 N437 1.613 . S
S436 N438 1.610 . S
N437 S436 1.613 . S
N437 C440 1.350 . S
N438 S436 1.610 . S
N438 C439 1.351 . S
C439 C433 1.428 . S
C439 N438 1.351 . S
C439 C440 1.434 . S
C440 C431 1.429 . S
C440 N437 1.350 . S
C440 C439 1.434 . S
C441 C442 1.369 1_655 S
C441 C443 1.419 . S
C441 H445 0.930 . S
C442 C441 1.369 1_455 S
C442 C451 1.429 . S
C443 C441 1.419 . S
C443 C444 1.363 1_655 S
C443 H446 0.929 . S
C444 C443 1.363 1_455 S
C444 C450 1.428 . S
H445 C441 0.930 . S
H446 C443 0.929 . S
S447 N448 1.613 . S
S447 N449 1.610 . S
N448 S447 1.613 . S
N448 C451 1.350 . S
N449 S447 1.610 . S
N449 C450 1.351 . S
C450 C444 1.428 . S
C450 N449 1.351 . S
C450 C451 1.434 . S
C451 C442 1.429 . S
C451 N448 1.350 . S
C451 C450 1.434 . S
C452 C453 1.369 . S
C452 C454 1.419 . S
C452 H456 0.930 . S
C453 C452 1.369 . S
C453 C462 1.429 1_565 S
C454 C452 1.419 . S
C454 C455 1.363 1_554 S
C454 H457 0.929 1_554 S
C455 C454 1.363 1_556 S
C455 C461 1.428 1_566 S
H456 C452 0.930 . S
H457 C454 0.929 1_556 S
S458 N459 1.613 . S
S458 N460 1.610 . S
N459 S458 1.613 . S
N459 C462 1.350 . S
N460 S458 1.610 . S
N460 C461 1.351 . S
C461 C455 1.428 1_544 S
C461 N460 1.351 . S
C461 C462 1.434 . S
C462 C453 1.429 1_545 S
C462 N459 1.350 . S
C462 C461 1.434 . S
C463 C464 1.369 . S
C463 C465 1.419 . S
C463 H467 0.930 . S
C464 C463 1.369 . S
C464 C473 1.429 . S
C465 C463 1.419 . S
C465 C466 1.363 1_554 S
C465 H468 0.929 1_554 S
C466 C465 1.363 1_556 S
C466 C472 1.428 1_556 S
H467 C463 0.930 . S
H468 C465 0.929 1_556 S
S469 N470 1.613 1_545 S
S469 N471 1.610 1_545 S
N470 S469 1.613 1_565 S
N470 C473 1.350 . S
N471 S469 1.610 1_565 S
N471 C472 1.351 . S
C472 C466 1.428 1_554 S
C472 N471 1.351 . S
C472 C473 1.434 . S
C473 C464 1.429 . S
C473 N470 1.350 . S
C473 C472 1.434 . S
C474 C475 1.369 . S
C474 C476 1.419 . S
C474 H478 0.930 . S
C475 C474 1.369 . S
C475 C484 1.429 . S
C476 C474 1.419 . S
C476 C477 1.363 1_554 S
C476 H479 0.929 . S
C477 C476 1.363 1_556 S
C477 C483 1.428 1_556 S
H478 C474 0.930 . S
H479 C476 0.929 . S
S480 N481 1.613 . S
S480 N482 1.610 1_554 S
N481 S480 1.613 . S
N481 C484 1.350 . S
N482 S480 1.610 1_556 S
N482 C483 1.351 1_556 S
C483 C477 1.428 1_554 S
C483 N482 1.351 1_554 S
C483 C484 1.434 . S
C484 C475 1.429 . S
C484 N481 1.350 . S
C484 C483 1.434 . S
C485 C486 1.369 . S
C485 C487 1.419 . S
C485 H489 0.930 . S
C486 C485 1.369 . S
C486 C495 1.429 1_655 S
C487 C485 1.419 . S
C487 C488 1.363 1_554 S
C487 H490 0.929 . S
C488 C487 1.363 1_556 S
C488 C494 1.428 1_656 S
H489 C485 0.930 . S
H490 C487 0.929 . S
S491 N492 1.613 . S
S491 N493 1.610 1_554 S
N492 S491 1.613 . S
N492 C495 1.350 . S
N493 S491 1.610 1_556 S
N493 C494 1.351 1_556 S
C494 C488 1.428 1_454 S
C494 N493 1.351 1_554 S
C494 C495 1.434 . S
C495 C486 1.429 1_455 S
C495 N492 1.350 . S
C495 C494 1.434 . S
C496 C497 1.369 1_655 S
C496 C498 1.419 . S
C496 H500 0.930 . S
C497 C496 1.369 1_455 S
C497 C506 1.429 . S
C498 C496 1.419 . S
C498 C499 1.363 . S
C498 H501 0.929 . S
C499 C498 1.363 . S
C499 C505 1.428 1_655 S
H500 C496 0.930 . S
H501 C498 0.929 . S
S502 N503 1.613 . S
S502 N504 1.610 . S
N503 S502 1.613 . S
N503 C506 1.350 . S
N504 S502 1.610 . S
N504 C505 1.351 . S
C505 C499 1.428 1_455 S
C505 N504 1.351 . S
C505 C506 1.434 . S
C506 C497 1.429 . S
C506 N503 1.350 . S
C506 C505 1.434 . S
C507 C508 1.385 . S
C507 C509 1.405 1_545 S
C507 H511 0.928 1_545 S
C508 C507 1.385 . S
C508 C517 1.429 . S
C509 C507 1.405 1_565 S
C509 C510 1.363 . S
C509 H512 0.929 . S
C510 C509 1.363 . S
C510 C516 1.428 1_565 S
H511 C507 0.928 1_565 S
H512 C509 0.929 . S
S513 N514 1.613 . S
S513 N515 1.610 . S
N514 S513 1.613 . S
N514 C517 1.350 . S
N515 S513 1.610 . S
N515 C516 1.351 . S
C516 C510 1.428 1_545 S
C516 N515 1.351 . S
C516 C517 1.434 . S
C517 C508 1.429 . S
C517 N514 1.350 . S
C517 C516 1.434 . S
C518 C519 1.369 . S
C518 C520 1.419 . S
C518 H522 0.930 . S
C519 C518 1.369 . S
C519 C528 1.429 . S
C520 C518 1.419 . S
C520 C521 1.363 . S
C520 H523 0.929 . S
C521 C520 1.363 . S
C521 C527 1.428 . S
H522 C518 0.930 . S
H523 C520 0.929 . S
S524 N525 1.613 . S
S524 N526 1.610 . S
N525 S524 1.613 . S
N525 C528 1.350 . S
N526 S524 1.610 . S
N526 C527 1.351 . S
C527 C521 1.428 . S
C527 N526 1.351 . S
C527 C528 1.434 . S
C528 C519 1.429 . S
C528 N525 1.350 . S
C528 C527 1.434 . S
C529 C530 1.369 . S
C529 C531 1.419 . S
C529 H533 0.930 . S
C530 C529 1.369 . S
C530 C539 1.429 . S
C531 C529 1.419 . S
C531 C532 1.363 . S
C531 H534 0.929 . S
C532 C531 1.363 . S
C532 C538 1.428 . S
H533 C529 0.930 . S
H534 C531 0.929 . S
S535 N536 1.613 . S
S535 N537 1.610 . S
N536 S535 1.613 . S
N536 C539 1.350 . S
N537 S535 1.610 . S
N537 C538 1.351 . S
C538 C532 1.428 . S
C538 N537 1.351 . S
C538 C539 1.434 . S
C539 C530 1.429 . S
C539 N536 1.350 . S
C539 C538 1.434 . S
C540 C541 1.369 . S
C540 C542 1.419 1_655 S
C540 H544 0.930 . S
C541 C540 1.369 . S
C541 C550 1.429 1_655 S
C542 C540 1.419 1_455 S
C542 C543 1.363 . S
C542 H545 0.929 . S
C543 C542 1.363 . S
C543 C549 1.428 . S
H544 C540 0.930 . S
H545 C542 0.929 . S
S546 N547 1.613 1_455 S
S546 N548 1.610 . S
N547 S546 1.613 1_655 S
N547 C550 1.350 1_655 S
N548 S546 1.610 . S
N548 C549 1.351 . S
C549 C543 1.428 . S
C549 N548 1.351 . S
C549 C550 1.434 . S
C550 C541 1.429 1_455 S
C550 N547 1.350 1_455 S
C550 C549 1.434 . S
C551 C552 1.369 1_545 S
C551 C553 1.419 . S
C551 H555 0.930 . S
C552 C551 1.369 1_565 S
C552 C561 1.429 . S
C553 C551 1.419 . S
C553 C554 1.363 . S
C553 H556 0.929 . S
C554 C553 1.363 . S
C554 C560 1.428 . S
H555 C551 0.930 . S
H556 C553 0.929 . S
S557 N558 1.613 . S
S557 N559 1.610 . S
N558 S557 1.613 . S
N558 C561 1.350 . S
N559 S557 1.610 . S
N559 C560 1.351 1_565 S
C560 C554 1.428 . S
C560 N559 1.351 1_545 S
C560 C561 1.434 1_545 S
C561 C552 1.429 . S
C561 N558 1.350 . S
C561 C560 1.434 1_565 S
C562 C563 1.369 . S
C562 C564 1.419 . S
C562 H566 0.930 . S
C563 C562 1.369 . S
C563 C572 1.429 . S
C564 C562 1.419 . S
C564 C565 1.363 . S
C564 H567 0.929 . S
C565 C564 1.363 . S
C565 C571 1.428 . S
H566 C562 0.930 . S
H567 C564 0.929 . S
S568 N569 1.613 . S
S568 N570 1.610 . S
N569 S568 1.613 . S
N569 C572 1.350 . S
N570 S568 1.610 . S
N570 C571 1.351 . S
C571 C565 1.428 . S
C571 N570 1.351 . S
C571 C572 1.434 . S
C572 C563 1.429 . S
C572 N569 1.350 . S
C572 C571 1.434 . S
C573 C574 1.369 . S
C573 C575 1.419 . S
C573 H577 0.930 . S
C574 C573 1.369 . S
C574 C583 1.429 . S
C575 C573 1.419 . S
C575 C576 1.363 . S
C575 H578 0.929 . S
C576 C575 1.363 . S
C576 C582 1.428 . S
H577 C573 0.930 . S
H578 C575 0.929 . S
S579 N580 1.613 . S
S579 N581 1.610 . S
N580 S579 1.613 . S
N580 C583 1.350 . S
N581 S579 1.610 . S
N581 C582 1.351 . S
C582 C576 1.428 . S
C582 N581 1.351 . S
C582 C583 1.434 . S
C583 C574 1.429 . S
C583 N580 1.350 . S
C583 C582 1.434 . S
C584 C585 1.369 . S
C584 C586 1.419 . S
C584 H588 0.930 . S
C585 C584 1.369 . S
C585 C594 1.429 . S
C586 C584 1.419 . S
C586 C587 1.363 . S
C586 H589 0.929 . S
C587 C586 1.363 . S
C587 C593 1.428 . S
H588 C584 0.930 . S
H589 C586 0.929 . S
S590 N591 1.613 . S
S590 N592 1.610 . S
N591 S590 1.613 . S
N591 C594 1.350 1_655 S
N592 S590 1.610 . S
N592 C593 1.351 1_655 S
C593 C587 1.428 . S
C593 N592 1.351 1_455 S
C593 C594 1.434 . S
C594 C585 1.429 . S
C594 N591 1.350 1_455 S
C594 C593 1.434 . S
C595 C596 1.369 . S
C595 C597 1.419 . S
C595 H599 0.930 . S
C596 C595 1.369 . S
C596 C605 1.429 1_545 S
C597 C595 1.419 . S
C597 C598 1.363 . S
C597 H600 0.929 . S
C598 C597 1.363 . S
C598 C604 1.428 1_545 S
H599 C595 0.930 . S
H600 C597 0.929 . S
S601 N602 1.613 . S
S601 N603 1.610 . S
N602 S601 1.613 . S
N602 C605 1.350 . S
N603 S601 1.610 . S
N603 C604 1.351 . S
C604 C598 1.428 1_565 S
C604 N603 1.351 . S
C604 C605 1.434 . S
C605 C596 1.429 1_565 S
C605 N602 1.350 . S
C605 C604 1.434 . S
C606 C607 1.369 . S
C606 C608 1.419 . S
C606 H610 0.930 . S
C607 C606 1.369 . S
C607 C616 1.429 . S
C608 C606 1.419 . S
C608 C609 1.363 . S
C608 H611 0.929 . S
C609 C608 1.363 . S
C609 C615 1.428 . S
H610 C606 0.930 . S
H611 C608 0.929 . S
S612 N613 1.613 . S
S612 N614 1.610 1_554 S
N613 S612 1.613 . S
N613 C616 1.350 1_554 S
N614 S612 1.610 1_556 S
N614 C615 1.351 . S
C615 C609 1.428 . S
C615 N614 1.351 . S
C615 C616 1.434 . S
C616 C607 1.429 . S
C616 N613 1.350 1_556 S
C616 C615 1.434 . S
C617 C618 1.369 . S
C617 C619 1.419 . S
C617 H621 0.930 . S
C618 C617 1.369 . S
C618 C627 1.429 . S
C619 C617 1.419 . S
C619 C620 1.363 . S
C619 H622 0.929 . S
C620 C619 1.363 . S
C620 C626 1.428 . S
H621 C617 0.930 . S
H622 C619 0.929 . S
S623 N624 1.613 . S
S623 N625 1.610 1_554 S
N624 S623 1.613 . S
N624 C627 1.350 1_554 S
N625 S623 1.610 1_556 S
N625 C626 1.351 . S
C626 C620 1.428 . S
C626 N625 1.351 . S
C626 C627 1.434 . S
C627 C618 1.429 . S
C627 N624 1.350 1_556 S
C627 C626 1.434 . S
C628 C629 1.369 . S
C628 C630 1.419 . S
C628 H632 0.930 . S
C629 C628 1.369 . S
C629 C638 1.429 1_655 S
C630 C628 1.419 . S
C630 C631 1.363 . S
C630 H633 0.929 . S
C631 C630 1.363 . S
C631 C637 1.418 1_655 S
H632 C628 0.930 . S
H633 C630 0.929 . S
S634 N635 1.613 . S
S634 N636 1.610 . S
N635 S634 1.613 . S
N635 C638 1.350 . S
N636 S634 1.610 . S
N636 C637 1.363 . S
C637 C631 1.418 1_455 S
C637 N636 1.363 . S
C637 C638 1.435 . S
C638 C629 1.429 1_455 S
C638 N635 1.350 . S
C638 C637 1.435 . S
C639 C640 1.369 1_545 S
C639 C641 1.419 . S
C639 H643 0.930 . S
C640 C639 1.369 1_565 S
C640 C649 1.429 . S
C641 C639 1.419 . S
C641 C642 1.363 1_545 S
C641 H644 0.929 . S
C642 C641 1.363 1_565 S
C642 C648 1.428 . S
H643 C639 0.930 . S
H644 C641 0.929 . S
S645 N646 1.613 . S
S645 N647 1.610 . S
N646 S645 1.613 . S
N646 C649 1.350 . S
N647 S645 1.610 . S
N647 C648 1.351 . S
C648 C642 1.428 . S
C648 N647 1.351 . S
C648 C649 1.434 . S
C649 C640 1.429 . S
C649 N646 1.350 . S
C649 C648 1.434 . S
C650 C651 1.369 . S
C650 C652 1.419 . S
C650 H654 0.930 . S
C651 C650 1.369 . S
C651 C660 1.429 . S
C652 C650 1.419 . S
C652 C653 1.363 . S
C652 H655 0.929 . S
C653 C652 1.363 . S
C653 C659 1.428 . S
H654 C650 0.930 . S
H655 C652 0.929 . S
S656 N657 1.613 . S
S656 N658 1.610 . S
N657 S656 1.613 . S
N657 C660 1.350 . S
N658 S656 1.610 . S
N658 C659 1.351 . S
C659 C653 1.428 . S
C659 N658 1.351 . S
C659 C660 1.434 . S
C660 C651 1.429 . S
C660 N657 1.350 . S
C660 C659 1.434 . S
C661 C662 1.369 . S
C661 C663 1.419 . S
C661 H665 0.930 . S
C662 C661 1.369 . S
C662 C671 1.429 . S
C663 C661 1.419 . S
C663 C664 1.363 . S
C663 H666 0.929 . S
C664 C663 1.363 . S
C664 C670 1.428 . S
H665 C661 0.930 . S
H666 C663 0.929 . S
S667 N668 1.613 . S
S667 N669 1.610 . S
N668 S667 1.613 . S
N668 C671 1.350 . S
N669 S667 1.610 . S
N669 C670 1.351 . S
C670 C664 1.428 . S
C670 N669 1.351 . S
C670 C671 1.434 . S
C671 C662 1.429 . S
C671 N668 1.350 . S
C671 C670 1.434 . S
C409 C61 2.005 . S
C411 C135 2.213 . S
C422 C212 2.217 . S
C420 C70 2.028 . S
C433 C303 2.213 . S
C431 C43 2.003 . S
C444 C387 2.202 . S
C442 C52 1.996 . S
C455 C146 2.210 1_565 S
C453 C25 2.007 . S
C464 C34 2.025 . S
C466 C223 2.216 . S
C475 C7 2.001 . S
C477 C314 2.215 . S
C486 C16 1.992 . S
C488 C398 2.202 1_655 S
C499 C130 0.767 . S
C497 C50 0.774 . S
C510 C225 0.740 . S
C508 C59 0.749 . S
C521 C298 0.773 . S
C519 C67 0.768 . S
C530 C41 0.760 . S
C532 C382 0.753 . S
C541 C14 0.763 . S
C543 C141 0.770 . S
C554 C214 0.743 . S
C552 C23 0.758 . S
C565 C309 0.779 . S
C563 C31 0.780 . S
C574 C5 0.766 . S
C576 C393 0.758 . S
C585 C49 2.058 . S
C587 C139 2.332 . S
C596 C58 2.051 . S
C598 C230 2.352 . S
C609 C307 2.347 . S
C607 C68 2.057 . S
C620 C391 2.351 . S
C618 C40 2.066 . S
C629 C13 2.051 . S
C631 C128 2.335 . S
C642 C219 2.353 . S
C640 C22 2.050 . S
C653 C296 2.345 . S
C651 C32 2.066 . S
C662 C4 2.064 . S
C664 C380 2.351 . S
