# Generated by pormake.
# Topology dag, (6,3)-cn, num edge types: 1
# Building blocks:
#     Node 0, Type 0, BuildingBlock: OJICUG_clean_sbu_0, # of connection points: 6
#     Node 1, Type 0, BuildingBlock: OJICUG_clean_sbu_0, # of connection points: 6
#     Node 2, Type 0, BuildingBlock: OJICUG_clean_sbu_0, # of connection points: 6
#     Node 3, Type 0, BuildingBlock: OJICUG_clean_sbu_0, # of connection points: 6
#     Node 4, Type 1, BuildingBlock: CUQRIR_clean_linker_1, # of connection points: 3
#     Node 5, Type 1, BuildingBlock: CUQRIR_clean_linker_1, # of connection points: 3
#     Node 6, Type 1, BuildingBlock: CUQRIR_clean_linker_1, # of connection points: 3
#     Node 7, Type 1, BuildingBlock: CUQRIR_clean_linker_1, # of connection points: 3
#     Node 8, Type 1, BuildingBlock: CUQRIR_clean_linker_1, # of connection points: 3
#     Node 9, Type 1, BuildingBlock: CUQRIR_clean_linker_1, # of connection points: 3
#     Node 10, Type 1, BuildingBlock: CUQRIR_clean_linker_1, # of connection points: 3
#     Node 11, Type 1, BuildingBlock: CUQRIR_clean_linker_1, # of connection points: 3
#     Edge 12, Type (0, 1), BuildingBlock: ZUJKAS_clean_linker_0, # of connection points: 2
#     Edge 13, Type (0, 1), BuildingBlock: ZUJKAS_clean_linker_0, # of connection points: 2
#     Edge 14, Type (0, 1), BuildingBlock: ZUJKAS_clean_linker_0, # of connection points: 2
#     Edge 15, Type (0, 1), BuildingBlock: ZUJKAS_clean_linker_0, # of connection points: 2
#     Edge 16, Type (0, 1), BuildingBlock: ZUJKAS_clean_linker_0, # of connection points: 2
#     Edge 17, Type (0, 1), BuildingBlock: ZUJKAS_clean_linker_0, # of connection points: 2
#     Edge 18, Type (0, 1), BuildingBlock: ZUJKAS_clean_linker_0, # of connection points: 2
#     Edge 19, Type (0, 1), BuildingBlock: ZUJKAS_clean_linker_0, # of connection points: 2
#     Edge 20, Type (0, 1), BuildingBlock: ZUJKAS_clean_linker_0, # of connection points: 2
#     Edge 21, Type (0, 1), BuildingBlock: ZUJKAS_clean_linker_0, # of connection points: 2
#     Edge 22, Type (0, 1), BuildingBlock: ZUJKAS_clean_linker_0, # of connection points: 2
#     Edge 23, Type (0, 1), BuildingBlock: ZUJKAS_clean_linker_0, # of connection points: 2
#     Edge 24, Type (0, 1), BuildingBlock: ZUJKAS_clean_linker_0, # of connection points: 2
#     Edge 25, Type (0, 1), BuildingBlock: ZUJKAS_clean_linker_0, # of connection points: 2
#     Edge 26, Type (0, 1), BuildingBlock: ZUJKAS_clean_linker_0, # of connection points: 2
#     Edge 27, Type (0, 1), BuildingBlock: ZUJKAS_clean_linker_0, # of connection points: 2
#     Edge 28, Type (0, 1), BuildingBlock: ZUJKAS_clean_linker_0, # of connection points: 2
#     Edge 29, Type (0, 1), BuildingBlock: ZUJKAS_clean_linker_0, # of connection points: 2
#     Edge 30, Type (0, 1), BuildingBlock: ZUJKAS_clean_linker_0, # of connection points: 2
#     Edge 31, Type (0, 1), BuildingBlock: ZUJKAS_clean_linker_0, # of connection points: 2
#     Edge 32, Type (0, 1), BuildingBlock: ZUJKAS_clean_linker_0, # of connection points: 2
#     Edge 33, Type (0, 1), BuildingBlock: ZUJKAS_clean_linker_0, # of connection points: 2
#     Edge 34, Type (0, 1), BuildingBlock: ZUJKAS_clean_linker_0, # of connection points: 2
#     Edge 35, Type (0, 1), BuildingBlock: ZUJKAS_clean_linker_0, # of connection points: 2
# Relax obj value: 0.085
# Max RMSD: 0.083
# Mean RMSD: 0.074
data_MOF--net-dag--node1-OJICUG_clean_sbu_0--node2-CUQRIR_clean_linker_1--edge1-ZUJKAS_clean_linker_0
_symmetry_space_group_name_H-M    P1
_symmetry_Int_Tables_number       1
_symmetry_cell_setting            triclinic
loop_
_symmetry_equiv_pos_as_xyz
'x, y, z'
_cell_length_a     46.269163
_cell_length_b     46.900926
_cell_length_c     48.28032
_cell_angle_alpha  92.536268
_cell_angle_beta   90.08257
_cell_angle_gamma 90.053435
loop_
_atom_site_label
_atom_site_type_symbol
_atom_site_fract_x
_atom_site_fract_y
_atom_site_fract_z
_atom_type_partial_charge
Sc0 Sc 0.08113 0.9094 0.01761 0.0
Sc1 Sc 0.10015 0.8365 0.01672 0.0
Sc2 Sc 0.15193 0.8891 0.03524 0.0
O3 O 0.11107 0.87834 0.02315 0.0
C4 C 0.13782 0.93736 0.9926 0.0
C5 C 0.06796 0.86534 0.96661 0.0
C6 C 0.16421 0.83731 0.99191 0.0
C7 C 0.04305 0.86188 0.0457 0.0
C8 C 0.11416 0.93339 0.07196 0.0
C9 C 0.13918 0.83471 0.07102 0.0
O10 O 0.11053 0.93479 0.99437 0.0
O11 O 0.07983 0.84404 0.97746 0.0
O12 O 0.17171 0.86041 0.00474 0.0
O13 O 0.04813 0.88765 0.04013 0.0
O14 O 0.13691 0.9188 0.06727 0.0
O15 O 0.11915 0.82468 0.05537 0.0
O16 O 0.09239 0.93243 0.05582 0.0
O17 O 0.05971 0.84144 0.03828 0.0
O18 O 0.15306 0.85729 0.06593 0.0
O19 O 0.06659 0.88989 0.97883 0.0
O20 O 0.15534 0.92242 0.00615 0.0
O21 O 0.13935 0.82622 0.99453 0.0
Sc22 Sc 0.65059 0.60779 0.48152 0.0
Sc23 Sc 0.59765 0.65959 0.49852 0.0
Sc24 Sc 0.58041 0.58635 0.50006 0.0
O25 O 0.60953 0.61791 0.49338 0.0
C26 C 0.61333 0.56168 0.44607 0.0
C27 C 0.6365 0.66055 0.44411 0.0
C28 C 0.5408 0.63201 0.47096 0.0
C29 C 0.66173 0.66112 0.52353 0.0
C30 C 0.63813 0.5607 0.52552 0.0
C31 C 0.56683 0.63141 0.54987 0.0
O32 O 0.63605 0.5764 0.45075 0.0
O33 O 0.61658 0.67076 0.4597 0.0
O34 O 0.54613 0.60679 0.47811 0.0
O35 O 0.66978 0.63812 0.51091 0.0
O36 O 0.6108 0.56214 0.5233 0.0
O37 O 0.5773 0.65274 0.53789 0.0
O38 O 0.65524 0.57594 0.51188 0.0
O39 O 0.6365 0.6714 0.52092 0.0
O40 O 0.56653 0.60632 0.53874 0.0
O41 O 0.65066 0.6383 0.44962 0.0
O42 O 0.59135 0.56306 0.4619 0.0
O43 O 0.5575 0.65299 0.47659 0.0
Sc44 Sc 0.89923 0.16045 0.00383 0.0
Sc45 Sc 0.8472 0.10821 0.985 0.0
Sc46 Sc 0.91765 0.08734 0.00295 0.0
O47 O 0.88805 0.11867 0.99728 0.0
C48 C 0.95669 0.13478 0.97579 0.0
C49 C 0.86112 0.16184 0.94874 0.0
C50 C 0.88491 0.06315 0.94878 0.0
C51 C 0.83487 0.16069 0.02767 0.0
C52 C 0.93025 0.13104 0.05438 0.0
C53 C 0.86018 0.0604 0.02794 0.0
O54 O 0.93989 0.15531 0.98261 0.0
O55 O 0.84742 0.13903 0.95342 0.0
O56 O 0.90726 0.06519 0.96409 0.0
O57 O 0.86006 0.17125 0.02595 0.0
O58 O 0.9313 0.10637 0.04232 0.0
O59 O 0.84294 0.0764 0.0153 0.0
O60 O 0.91917 0.15255 0.04318 0.0
O61 O 0.82728 0.13798 0.01429 0.0
O62 O 0.88749 0.06154 0.02509 0.0
O63 O 0.88044 0.1723 0.96502 0.0
O64 O 0.95138 0.1091 0.98149 0.0
O65 O 0.86178 0.0769 0.95414 0.0
Sc66 Sc 0.41845 0.41099 0.51652 0.0
Sc67 Sc 0.34822 0.38954 0.53437 0.0
Sc68 Sc 0.40041 0.3378 0.51497 0.0
O69 O 0.38904 0.37942 0.52193 0.0
C70 C 0.43058 0.36824 0.4645 0.0
C71 C 0.36056 0.4377 0.49189 0.0
C72 C 0.3359 0.3369 0.49161 0.0
C73 C 0.38622 0.43462 0.57076 0.0
C74 C 0.45798 0.36324 0.54286 0.0
C75 C 0.36271 0.33598 0.57037 0.0
O76 O 0.43082 0.39298 0.47646 0.0
O77 O 0.3434 0.42072 0.50343 0.0
O78 O 0.36147 0.32713 0.49234 0.0
O79 O 0.4089 0.43197 0.55604 0.0
O80 O 0.44076 0.34283 0.53672 0.0
O81 O 0.34931 0.35913 0.56638 0.0
O82 O 0.45293 0.38882 0.53667 0.0
O83 O 0.36278 0.42157 0.56472 0.0
O84 O 0.38134 0.32542 0.55346 0.0
O85 O 0.38777 0.43742 0.4957 0.0
O86 O 0.42074 0.34629 0.47593 0.0
O87 O 0.32809 0.359 0.50582 0.0
C88 C 0.10437 0.17893 0.32118 0.0
N89 N 0.09544 0.15911 0.30181 0.0
N90 N 0.12975 0.17098 0.33252 0.0
C91 C 0.08979 0.20712 0.32735 0.0
C92 C 0.13595 0.14568 0.31926 0.0
N93 N 0.11504 0.13841 0.30072 0.0
C94 C 0.16379 0.12963 0.3223 0.0
H95 H 0.10101 0.22382 0.31582 0.0
H96 H 0.09129 0.21312 0.34977 0.0
H97 H 0.06674 0.20639 0.32102 0.0
H98 H 0.15983 0.10629 0.32071 0.0
H99 H 0.17439 0.13536 0.34242 0.0
H100 H 0.17858 0.13506 0.30524 0.0
C101 C 0.36367 0.64907 0.81687 0.0
N102 N 0.38425 0.64133 0.79818 0.0
N103 N 0.36972 0.67511 0.82882 0.0
C104 C 0.33607 0.63288 0.82116 0.0
C105 C 0.39458 0.68296 0.81644 0.0
N106 N 0.40338 0.66242 0.79786 0.0
C107 C 0.4102 0.71066 0.8224 0.0
H108 H 0.31737 0.64769 0.82138 0.0
H109 H 0.33696 0.62302 0.8416 0.0
H110 H 0.3327 0.61575 0.80489 0.0
H111 H 0.40586 0.71892 0.84388 0.0
H112 H 0.40257 0.72664 0.80779 0.0
H113 H 0.43382 0.70781 0.8194 0.0
C114 C 0.73134 0.81883 0.19065 0.0
N115 N 0.7539 0.82589 0.17459 0.0
N116 N 0.73694 0.79436 0.20353 0.0
C117 C 0.70368 0.83547 0.19342 0.0
C118 C 0.76383 0.78688 0.1948 0.0
N119 N 0.77405 0.80602 0.17713 0.0
C120 C 0.78116 0.76274 0.20588 0.0
H121 H 0.706 0.85201 0.21042 0.0
H122 H 0.68542 0.82126 0.1985 0.0
H123 H 0.69883 0.84632 0.17398 0.0
H124 H 0.77415 0.74247 0.1952 0.0
H125 H 0.7772 0.76099 0.2284 0.0
H126 H 0.80464 0.76554 0.20233 0.0
C127 C 0.76512 0.32547 0.69861 0.0
N128 N 0.74379 0.33152 0.68072 0.0
N129 N 0.76 0.30012 0.7101 0.0
C130 C 0.79081 0.34429 0.70485 0.0
C131 C 0.73458 0.29119 0.6987 0.0
N132 N 0.72483 0.31028 0.68075 0.0
C133 C 0.71792 0.26552 0.70738 0.0
H134 H 0.79692 0.35611 0.68632 0.0
H135 H 0.80948 0.33153 0.71172 0.0
H136 H 0.78511 0.36011 0.72171 0.0
H137 H 0.71936 0.26362 0.73017 0.0
H138 H 0.72766 0.24606 0.69739 0.0
H139 H 0.69488 0.26653 0.70114 0.0
C140 C 0.60172 0.31888 0.1971 0.0
N141 N 0.59368 0.34012 0.21524 0.0
N142 N 0.6268 0.32555 0.18444 0.0
C143 C 0.58621 0.29084 0.19337 0.0
C144 C 0.63391 0.3515 0.19593 0.0
N145 N 0.61377 0.36031 0.21469 0.0
C146 C 0.66195 0.36669 0.19094 0.0
H147 H 0.59356 0.27647 0.20961 0.0
H148 H 0.59088 0.28057 0.17271 0.0
H149 H 0.56256 0.29397 0.1958 0.0
H150 H 0.66599 0.36768 0.16839 0.0
H151 H 0.67992 0.35448 0.19999 0.0
H152 H 0.66188 0.38872 0.20028 0.0
C153 C 0.23147 0.20785 0.81831 0.0
N154 N 0.22251 0.18938 0.83713 0.0
N155 N 0.25661 0.19882 0.80654 0.0
C156 C 0.21501 0.23394 0.81064 0.0
C157 C 0.26234 0.17394 0.81869 0.0
N158 N 0.24156 0.16829 0.83732 0.0
C159 C 0.28707 0.15446 0.81088 0.0
H160 H 0.199 0.2278 0.79431 0.0
H161 H 0.22977 0.25027 0.80256 0.0
H162 H 0.20307 0.2431 0.82886 0.0
H163 H 0.30773 0.16526 0.81651 0.0
H164 H 0.28714 0.1501 0.7881 0.0
H165 H 0.28598 0.13405 0.82156 0.0
C166 C 0.22804 0.67623 0.32716 0.0
N167 N 0.24882 0.67028 0.3457 0.0
N168 N 0.23379 0.70123 0.31527 0.0
C169 C 0.20272 0.65722 0.32005 0.0
C170 C 0.25909 0.70999 0.32697 0.0
N171 N 0.26811 0.69125 0.34562 0.0
C172 C 0.27642 0.73504 0.31784 0.0
H173 H 0.20911 0.64147 0.30336 0.0
H174 H 0.18425 0.66987 0.31256 0.0
H175 H 0.19603 0.64534 0.33836 0.0
H176 H 0.26414 0.75498 0.32245 0.0
H177 H 0.27974 0.73311 0.29507 0.0
H178 H 0.29767 0.7367 0.32845 0.0
C179 C 0.85928 0.84963 0.70207 0.0
N180 N 0.88002 0.8573 0.72071 0.0
N181 N 0.86516 0.82359 0.69007 0.0
C182 C 0.83181 0.86599 0.69776 0.0
C183 C 0.89006 0.81566 0.70238 0.0
N184 N 0.89906 0.83617 0.72095 0.0
C185 C 0.90559 0.78797 0.69632 0.0
H186 H 0.81304 0.85123 0.69686 0.0
H187 H 0.83307 0.87644 0.67763 0.0
H188 H 0.82831 0.88269 0.7144 0.0
H189 H 0.90118 0.77982 0.6748 0.0
H190 H 0.89792 0.77193 0.71084 0.0
H191 H 0.92922 0.79077 0.69935 0.0
H192 H 0.07553 0.97634 0.08441 0.0
H193 H 0.07618 0.01 0.12456 0.0
H194 H 0.15092 0.9676 0.15675 0.0
H195 H 0.15092 0.93431 0.11643 0.0
H196 H 0.07184 0.00269 0.18008 0.0
H197 H 0.17843 0.04946 0.15556 0.0
H198 H 0.15895 0.02626 0.13127 0.0
H199 H 0.17957 0.01152 0.15883 0.0
C200 C 0.09209 0.97412 0.10004 0.0
C201 C 0.11339 0.95282 0.09701 0.0
C202 C 0.09241 0.99338 0.12298 0.0
C203 C 0.11395 0.99166 0.14334 0.0
C204 C 0.13457 0.96979 0.14091 0.0
H205 H 0.10998 0.08173 0.30593 0.0
H206 H 0.11001 0.04477 0.26802 0.0
C207 C 0.13444 0.95069 0.11788 0.0
C208 C 0.11496 0.0129 0.16699 0.0
H209 H 0.15813 0.06331 0.19921 0.0
C210 C 0.09068 0.01597 0.18427 0.0
C211 C 0.13942 0.03051 0.17215 0.0
C212 C 0.16546 0.02954 0.15332 0.0
C213 C 0.09031 0.036 0.20676 0.0
C214 C 0.11513 0.05291 0.21243 0.0
C215 C 0.13929 0.05001 0.19502 0.0
C216 C 0.11606 0.07468 0.23558 0.0
C217 C 0.0631 0.03944 0.22378 0.0
C218 C 0.12045 0.10346 0.22994 0.0
C219 C 0.12089 0.12425 0.2515 0.0
C220 C 0.11692 0.1166 0.27897 0.0
C221 C 0.11316 0.08783 0.28478 0.0
C222 C 0.11286 0.06693 0.2632 0.0
H223 H 0.044 0.03012 0.21272 0.0
H224 H 0.06578 0.0283 0.24341 0.0
H225 H 0.05871 0.06232 0.22907 0.0
H226 H 0.12309 0.10987 0.20881 0.0
H227 H 0.1239 0.14642 0.24681 0.0
H228 H 0.56377 0.68127 0.58177 0.0
H229 H 0.54012 0.68886 0.62676 0.0
H230 H 0.51673 0.59983 0.62611 0.0
H231 H 0.54006 0.59195 0.58116 0.0
H232 H 0.47053 0.63801 0.63712 0.0
H233 H 0.56595 0.6631 0.704 0.0
H234 H 0.56309 0.68334 0.67335 0.0
H235 H 0.56901 0.64551 0.67009 0.0
C236 C 0.55381 0.66322 0.59125 0.0
C237 C 0.5538 0.63599 0.57775 0.0
C238 C 0.54045 0.6676 0.61705 0.0
C239 C 0.52697 0.64484 0.62982 0.0
C240 C 0.52715 0.61763 0.6166 0.0
H241 H 0.44776 0.62627 0.7897 0.0
H242 H 0.48041 0.62407 0.74949 0.0
C243 C 0.54052 0.6132 0.59088 0.0
C244 C 0.5112 0.6496 0.65623 0.0
H245 H 0.51973 0.66909 0.72477 0.0
C246 C 0.48127 0.64481 0.65628 0.0
C247 C 0.52539 0.65826 0.68118 0.0
C248 C 0.55767 0.66265 0.68237 0.0
C249 C 0.46504 0.64869 0.68062 0.0
C250 C 0.47912 0.65787 0.70543 0.0
C251 C 0.50908 0.66239 0.70554 0.0
C252 C 0.46288 0.66184 0.73158 0.0
C253 C 0.43298 0.64269 0.67974 0.0
C254 C 0.44296 0.68424 0.73502 0.0
C255 C 0.42453 0.68551 0.75791 0.0
C256 C 0.42585 0.6644 0.77755 0.0
C257 C 0.44673 0.64281 0.77478 0.0
C258 C 0.46525 0.64159 0.75196 0.0
H259 H 0.42658 0.63013 0.66066 0.0
H260 H 0.42619 0.63091 0.69809 0.0
H261 H 0.42106 0.66323 0.68023 0.0
H262 H 0.44084 0.69998 0.71938 0.0
H263 H 0.40812 0.70193 0.75946 0.0
H264 H 0.80474 0.05762 0.04712 0.0
H265 H 0.78337 0.02072 0.07475 0.0
H266 H 0.86536 0.9771 0.07641 0.0
H267 H 0.88715 0.01427 0.04934 0.0
H268 H 0.77772 0.96487 0.06085 0.0
H269 H 0.8425 0.97822 0.15711 0.0
H270 H 0.84244 0.00438 0.1308 0.0
H271 H 0.86456 0.97292 0.12681 0.0
C272 C 0.81835 0.04034 0.05359 0.0
C273 C 0.8477 0.03892 0.04603 0.0
C274 C 0.80607 0.01927 0.06938 0.0
C275 C 0.82285 0.99638 0.07793 0.0
C276 C 0.85218 0.99496 0.07061 0.0
H277 H 0.76837 0.82894 0.12099 0.0
H278 H 0.78242 0.872 0.09734 0.0
C279 C 0.86457 0.01616 0.055 0.0
C280 C 0.80924 0.97316 0.09313 0.0
H281 H 0.81522 0.93498 0.15136 0.0
C282 C 0.78572 0.95851 0.08078 0.0
C283 C 0.81943 0.96517 0.1193 0.0
C284 C 0.84343 0.98119 0.13442 0.0
C285 C 0.77265 0.93552 0.09353 0.0
C286 C 0.78385 0.92658 0.11898 0.0
C287 C 0.8068 0.94175 0.13172 0.0
C288 C 0.77285 0.90094 0.13233 0.0
C289 C 0.74692 0.92113 0.07966 0.0
C290 C 0.76307 0.9029 0.15987 0.0
C291 C 0.75546 0.87829 0.17341 0.0
C292 C 0.75751 0.85144 0.15958 0.0
C293 C 0.76646 0.84956 0.13183 0.0
C294 C 0.77427 0.8741 0.11834 0.0
H295 H 0.73565 0.93566 0.06564 0.0
H296 H 0.75441 0.90229 0.06693 0.0
H297 H 0.73121 0.91376 0.09517 0.0
H298 H 0.76209 0.92339 0.1711 0.0
H299 H 0.74928 0.88006 0.19502 0.0
H300 H 0.5015 0.40024 0.55902 0.0
H301 H 0.5467 0.38893 0.58243 0.0
H302 H 0.52173 0.30037 0.58297 0.0
H303 H 0.47639 0.31137 0.5599 0.0
H304 H 0.54272 0.32209 0.63389 0.0
H305 H 0.61668 0.34707 0.54773 0.0
H306 H 0.59244 0.37547 0.55803 0.0
H307 H 0.5782 0.34269 0.54286 0.0
C308 C 0.50559 0.37833 0.56407 0.0
C309 C 0.48529 0.35671 0.55743 0.0
C310 C 0.53153 0.3719 0.57729 0.0
C311 C 0.53773 0.34375 0.58401 0.0
C312 C 0.51741 0.32221 0.57779 0.0
H313 H 0.70479 0.27846 0.63713 0.0
H314 H 0.65804 0.28449 0.61342 0.0
C315 C 0.4915 0.32858 0.56458 0.0
C316 C 0.56509 0.33676 0.59811 0.0
H317 H 0.63849 0.33771 0.59097 0.0
C318 C 0.56367 0.3254 0.62448 0.0
C319 C 0.59234 0.34083 0.58562 0.0
C320 C 0.59514 0.35194 0.55689 0.0
C321 C 0.58884 0.31858 0.63899 0.0
C322 C 0.61606 0.32342 0.62683 0.0
C323 C 0.61752 0.33417 0.60023 0.0
C324 C 0.64333 0.31842 0.64182 0.0
C325 C 0.58617 0.30615 0.66717 0.0
C326 C 0.6503 0.33544 0.66551 0.0
C327 C 0.67672 0.33194 0.67886 0.0
C328 C 0.69651 0.31145 0.6687 0.0
C329 C 0.68946 0.29408 0.64531 0.0
C330 C 0.66302 0.29765 0.63181 0.0
H331 H 0.56417 0.29752 0.67069 0.0
H332 H 0.6022 0.28884 0.66965 0.0
H333 H 0.59051 0.32312 0.6834 0.0
H334 H 0.6356 0.35189 0.67324 0.0
H335 H 0.68213 0.34564 0.69676 0.0
H336 H 0.57013 0.52459 0.42912 0.0
H337 H 0.57006 0.49149 0.38849 0.0
H338 H 0.65495 0.52068 0.36625 0.0
H339 H 0.65522 0.55399 0.40649 0.0
H340 H 0.61568 0.51664 0.32155 0.0
H341 H 0.61811 0.41753 0.38058 0.0
H342 H 0.58932 0.44186 0.38964 0.0
H343 H 0.62613 0.45223 0.39644 0.0
C344 C 0.58881 0.52401 0.41561 0.0
C345 C 0.61276 0.54189 0.42123 0.0
C346 C 0.58876 0.50497 0.39247 0.0
C347 C 0.61266 0.5034 0.37462 0.0
C348 C 0.63634 0.5215 0.37986 0.0
H349 H 0.65505 0.3679 0.25358 0.0
H350 H 0.6557 0.40437 0.29173 0.0
C351 C 0.63645 0.5405 0.40295 0.0
C352 C 0.61313 0.48298 0.35036 0.0
H353 H 0.61365 0.41191 0.3319 0.0
C354 C 0.61512 0.49373 0.32376 0.0
C355 C 0.61281 0.45313 0.3534 0.0
C356 C 0.61173 0.44039 0.38154 0.0
C357 C 0.61651 0.47539 0.30002 0.0
C358 C 0.61561 0.44555 0.30304 0.0
C359 C 0.61401 0.43482 0.32967 0.0
C360 C 0.61635 0.425 0.27889 0.0
C361 C 0.61954 0.48808 0.272 0.0
C362 C 0.59413 0.42464 0.25905 0.0
C363 C 0.59403 0.4041 0.23719 0.0
C364 C 0.61601 0.38359 0.23497 0.0
C365 C 0.63834 0.38405 0.25465 0.0
C366 C 0.63852 0.40462 0.27647 0.0
H367 H 0.62745 0.51046 0.27377 0.0
H368 H 0.63462 0.47532 0.25857 0.0
H369 H 0.59811 0.48811 0.26165 0.0
H370 H 0.57646 0.43973 0.26088 0.0
H371 H 0.57646 0.4037 0.22235 0.0
H372 H 0.99615 0.09693 0.95302 0.0
H373 H 0.04121 0.1079 0.92937 0.0
H374 H 0.0242 0.19793 0.94189 0.0
H375 H 0.97887 0.18728 0.96505 0.0
H376 H 0.04159 0.18405 0.88921 0.0
H377 H 0.11595 0.13662 0.96478 0.0
H378 H 0.08937 0.11203 0.95089 0.0
H379 H 0.07813 0.14256 0.97205 0.0
C380 C 0.00198 0.11908 0.95082 0.0
C381 C 0.98389 0.14122 0.96108 0.0
C382 C 0.02786 0.1253 0.93744 0.0
C383 C 0.0363 0.15373 0.93434 0.0
C384 C 0.01816 0.17584 0.94422 0.0
H385 H 0.20757 0.21162 0.88723 0.0
H386 H 0.16116 0.2047 0.91107 0.0
C387 C 0.99223 0.16968 0.95746 0.0
C388 C 0.06369 0.16054 0.92019 0.0
H389 H 0.1368 0.15099 0.92257 0.0
C390 C 0.06242 0.17694 0.89658 0.0
C391 C 0.09087 0.15147 0.93001 0.0
C392 C 0.09378 0.13493 0.95598 0.0
C393 C 0.08756 0.18418 0.88228 0.0
C394 C 0.1146 0.17442 0.89164 0.0
C395 C 0.11596 0.15836 0.91544 0.0
C396 C 0.14174 0.18025 0.87677 0.0
C397 C 0.08502 0.20243 0.85742 0.0
C398 C 0.146 0.16888 0.84971 0.0
C399 C 0.17226 0.17298 0.83626 0.0
C400 C 0.19451 0.18842 0.84969 0.0
C401 C 0.19026 0.20009 0.87656 0.0
C402 C 0.164 0.19597 0.8901 0.0
H403 H 0.06408 0.214 0.85716 0.0
H404 H 0.10288 0.21825 0.85708 0.0
H405 H 0.08638 0.1886 0.83822 0.0
H406 H 0.12933 0.1562 0.8393 0.0
H407 H 0.17566 0.1634 0.8157 0.0
H408 H 0.30872 0.43544 0.46478 0.0
H409 H 0.28755 0.47164 0.43605 0.0
H410 H 0.36241 0.52521 0.45059 0.0
H411 H 0.38421 0.48861 0.47834 0.0
H412 H 0.27135 0.52347 0.44994 0.0
H413 H 0.3551 0.53022 0.36887 0.0
H414 H 0.35493 0.50219 0.39328 0.0
H415 H 0.37005 0.5367 0.40281 0.0
C416 C 0.3208 0.45481 0.4616 0.0
C417 C 0.34819 0.45913 0.47372 0.0
C418 C 0.30869 0.47547 0.44516 0.0
C419 C 0.32358 0.50097 0.44073 0.0
C420 C 0.35088 0.50537 0.45295 0.0
H421 H 0.25075 0.66261 0.40036 0.0
H422 H 0.26698 0.61956 0.42281 0.0
C423 C 0.36324 0.4845 0.46899 0.0
C424 C 0.30979 0.5236 0.42475 0.0
H425 H 0.32128 0.56892 0.37248 0.0
C426 C 0.28215 0.53315 0.43278 0.0
C427 C 0.32366 0.53603 0.4021 0.0
C428 C 0.35243 0.52553 0.39109 0.0
C429 C 0.26836 0.5553 0.41933 0.0
C430 C 0.28296 0.5688 0.39778 0.0
C431 C 0.31022 0.55873 0.3892 0.0
C432 C 0.27089 0.59404 0.38447 0.0
C433 C 0.23823 0.56383 0.42827 0.0
C434 C 0.26802 0.59413 0.3555 0.0
C435 C 0.25927 0.61888 0.34277 0.0
C436 C 0.25326 0.64378 0.35884 0.0
C437 C 0.25524 0.64347 0.38777 0.0
C438 C 0.26425 0.61887 0.40051 0.0
H439 H 0.22678 0.54593 0.43788 0.0
H440 H 0.23958 0.58175 0.44401 0.0
H441 H 0.22518 0.57087 0.4105 0.0
H442 H 0.27325 0.57527 0.34272 0.0
H443 H 0.25835 0.61901 0.32037 0.0
H444 H 0.0655 0.81641 0.93326 0.0
H445 H 0.04077 0.8095 0.88867 0.0
H446 H 0.01502 0.89791 0.89241 0.0
H447 H 0.03939 0.90508 0.93702 0.0
H448 H 0.96962 0.85952 0.88117 0.0
H449 H 0.06346 0.83744 0.81179 0.0
H450 H 0.06179 0.81606 0.84174 0.0
H451 H 0.06725 0.85391 0.84613 0.0
C452 C 0.05481 0.83448 0.92453 0.0
C453 C 0.05442 0.8613 0.93883 0.0
C454 C 0.04083 0.83051 0.89895 0.0
C455 C 0.02636 0.85328 0.88715 0.0
C456 C 0.02619 0.8801 0.90115 0.0
H457 H 0.94374 0.8722 0.72844 0.0
H458 H 0.97707 0.87448 0.76823 0.0
C459 C 0.04016 0.88413 0.92667 0.0
C460 C 0.00992 0.84884 0.861 0.0
H461 H 0.01676 0.83053 0.79204 0.0
C462 C 0.97992 0.85319 0.86168 0.0
C463 C 0.0235 0.84082 0.83561 0.0
C464 C 0.0558 0.837 0.83357 0.0
C465 C 0.96306 0.84945 0.83767 0.0
C466 C 0.97654 0.84081 0.81243 0.0
C467 C 0.00655 0.83679 0.81158 0.0
C468 C 0.95962 0.83691 0.78659 0.0
C469 C 0.93096 0.85506 0.83936 0.0
C470 C 0.93951 0.81457 0.7835 0.0
C471 C 0.92069 0.81327 0.76084 0.0
C472 C 0.9218 0.83426 0.74107 0.0
C473 C 0.94283 0.85577 0.74348 0.0
C474 C 0.96174 0.85704 0.76607 0.0
H475 H 0.92504 0.86756 0.85861 0.0
H476 H 0.92343 0.86676 0.82121 0.0
H477 H 0.91928 0.83438 0.83923 0.0
H478 H 0.93761 0.79888 0.7992 0.0
H479 H 0.9042 0.79687 0.75954 0.0
H480 H 0.83882 0.0414 0.91942 0.0
H481 H 0.83947 0.00774 0.87945 0.0
H482 H 0.93271 0.00756 0.88096 0.0
H483 H 0.93223 0.04052 0.92169 0.0
H484 H 0.86036 0.01136 0.82868 0.0
H485 H 0.9165 0.92363 0.88025 0.0
H486 H 0.9031 0.95482 0.89926 0.0
H487 H 0.93686 0.9562 0.88088 0.0
C488 C 0.8595 0.03419 0.91131 0.0
C489 C 0.88548 0.04347 0.92392 0.0
C490 C 0.85983 0.01495 0.88841 0.0
C491 C 0.88611 0.00469 0.87748 0.0
C492 C 0.91214 0.01453 0.8895 0.0
H493 H 0.89658 0.91178 0.71573 0.0
H494 H 0.89881 0.94915 0.75316 0.0
C495 C 0.91183 0.0335 0.9127 0.0
C496 C 0.88602 0.98382 0.85343 0.0
H497 H 0.90845 0.91717 0.83199 0.0
C498 C 0.87085 0.99073 0.82941 0.0
C499 C 0.89946 0.95678 0.85449 0.0
C500 C 0.91465 0.94725 0.88019 0.0
C501 C 0.86852 0.9713 0.80653 0.0
C502 C 0.88247 0.94453 0.8074 0.0
C503 C 0.89788 0.93774 0.8313 0.0
C504 C 0.88041 0.92265 0.78432 0.0
C505 C 0.85036 0.97932 0.78208 0.0
C506 C 0.86988 0.89529 0.78948 0.0
C507 C 0.86897 0.87412 0.76828 0.0
C508 C 0.87843 0.87998 0.74159 0.0
C509 C 0.8887 0.90727 0.73618 0.0
C510 C 0.88989 0.92847 0.75748 0.0
H511 H 0.83495 0.99676 0.78778 0.0
H512 H 0.86471 0.98694 0.76556 0.0
H513 H 0.83792 0.9607 0.77348 0.0
H514 H 0.86263 0.89024 0.81003 0.0
H515 H 0.86139 0.85294 0.77269 0.0
H516 H 0.44527 0.41027 0.42953 0.0
H517 H 0.46779 0.40473 0.38392 0.0
H518 H 0.46739 0.31327 0.39015 0.0
H519 H 0.44421 0.31852 0.43548 0.0
H520 H 0.51951 0.3825 0.37223 0.0
H521 H 0.43629 0.32083 0.31274 0.0
H522 H 0.42896 0.33834 0.34604 0.0
H523 H 0.44653 0.30408 0.34397 0.0
C524 C 0.44968 0.38893 0.42112 0.0
C525 C 0.44293 0.36483 0.43623 0.0
C526 C 0.46252 0.38582 0.395 0.0
C527 C 0.46891 0.35858 0.38343 0.0
C528 C 0.46199 0.33447 0.39832 0.0
H529 H 0.60288 0.31838 0.26464 0.0
H530 H 0.57057 0.32217 0.305 0.0
C531 C 0.44891 0.33754 0.42437 0.0
C532 C 0.48478 0.35555 0.3568 0.0
H533 H 0.48359 0.32206 0.29249 0.0
C534 C 0.51151 0.36947 0.35473 0.0
C535 C 0.47415 0.33888 0.33382 0.0
C536 C 0.44477 0.32493 0.3341 0.0
C537 C 0.52829 0.36652 0.33064 0.0
C538 C 0.51841 0.34858 0.30828 0.0
C539 C 0.49128 0.33539 0.30991 0.0
C540 C 0.53626 0.34321 0.28323 0.0
C541 C 0.55639 0.38277 0.32927 0.0
C542 C 0.52707 0.3526 0.25744 0.0
C543 C 0.5454 0.3501 0.23445 0.0
C544 C 0.5729 0.33805 0.23705 0.0
C545 C 0.58153 0.32744 0.26242 0.0
C546 C 0.56327 0.32987 0.28536 0.0
H547 H 0.55709 0.40104 0.34472 0.0
H548 H 0.57458 0.36829 0.33379 0.0
H549 H 0.55982 0.39099 0.30829 0.0
H550 H 0.50628 0.3629 0.25542 0.0
H551 H 0.53875 0.35865 0.21498 0.0
H552 H 0.19347 0.95696 0.99096 0.0
H553 H 0.21251 0.99523 0.9636 0.0
H554 H 0.12877 0.00563 0.92603 0.0
H555 H 0.10925 0.96783 0.95387 0.0
H556 H 0.2167 0.0007 0.90841 0.0
H557 H 0.14638 0.08612 0.95426 0.0
H558 H 0.14898 0.05135 0.96861 0.0
H559 H 0.12656 0.05663 0.93879 0.0
C560 C 0.17905 0.96732 0.97686 0.0
C561 C 0.14974 0.95946 0.97481 0.0
C562 C 0.19 0.98921 0.96124 0.0
C563 C 0.17194 0.00365 0.94318 0.0
C564 C 0.14291 0.99528 0.94039 0.0
H565 H 0.22811 0.11645 0.8152 0.0
H566 H 0.21265 0.07489 0.84077 0.0
C567 C 0.13184 0.97354 0.9562 0.0
C568 C 0.18365 0.02738 0.92729 0.0
H569 H 0.17495 0.09812 0.91571 0.0
C570 C 0.20764 0.02203 0.91005 0.0
C571 C 0.17199 0.05527 0.92974 0.0
C572 C 0.14724 0.06282 0.94905 0.0
C573 C 0.2202 0.04378 0.89504 0.0
C574 C 0.20805 0.07144 0.89692 0.0
C575 C 0.18415 0.07683 0.91424 0.0
C576 C 0.21983 0.0953 0.88133 0.0
C577 C 0.24669 0.03709 0.87777 0.0
C578 C 0.22885 0.12049 0.89562 0.0
C579 C 0.23755 0.14403 0.88103 0.0
C580 C 0.23743 0.14269 0.852 0.0
C581 C 0.22905 0.1174 0.83763 0.0
C582 C 0.22022 0.09384 0.85221 0.0
H583 H 0.25776 0.01752 0.88443 0.0
H584 H 0.24017 0.03343 0.85577 0.0
H585 H 0.26231 0.05509 0.879 0.0
H586 H 0.22851 0.12213 0.91808 0.0
H587 H 0.24348 0.16365 0.89228 0.0
H588 H 0.52964 0.67359 0.43466 0.0
H589 H 0.48355 0.68406 0.41249 0.0
H590 H 0.44359 0.61434 0.45362 0.0
H591 H 0.49001 0.60285 0.47464 0.0
H592 H 0.42451 0.61489 0.40348 0.0
H593 H 0.41772 0.72533 0.44806 0.0
H594 H 0.44974 0.72026 0.42763 0.0
H595 H 0.44503 0.70066 0.4586 0.0
C596 C 0.51102 0.66046 0.43888 0.0
C597 C 0.51334 0.63752 0.45651 0.0
C598 C 0.48462 0.66662 0.4264 0.0
C599 C 0.45984 0.65054 0.43201 0.0
C600 C 0.46233 0.62719 0.44911 0.0
H601 H 0.28377 0.7052 0.39806 0.0
H602 H 0.33058 0.69496 0.4197 0.0
C603 C 0.48887 0.62062 0.46109 0.0
C604 C 0.4314 0.65785 0.41991 0.0
H605 H 0.38432 0.71291 0.41172 0.0
C606 C 0.41568 0.6363 0.40543 0.0
C607 C 0.41945 0.68563 0.42299 0.0
C608 C 0.43372 0.70917 0.44044 0.0
C609 C 0.3887 0.64186 0.39352 0.0
C610 C 0.37771 0.67004 0.39509 0.0
C611 C 0.39307 0.69145 0.41005 0.0
C612 C 0.35004 0.67763 0.38179 0.0
C613 C 0.37194 0.61731 0.38003 0.0
C614 C 0.34579 0.67213 0.35323 0.0
C615 C 0.31909 0.67771 0.34112 0.0
C616 C 0.29653 0.68936 0.35727 0.0
C617 C 0.30111 0.69622 0.38544 0.0
C618 C 0.3277 0.69034 0.39769 0.0
H619 H 0.37877 0.59652 0.38808 0.0
H620 H 0.34834 0.61985 0.38351 0.0
H621 H 0.37599 0.6165 0.35737 0.0
H622 H 0.36295 0.66308 0.34042 0.0
H623 H 0.31566 0.67226 0.31934 0.0
H624 H 0.34015 0.45735 0.59932 0.0
H625 H 0.34098 0.49114 0.63923 0.0
H626 H 0.43419 0.48921 0.63937 0.0
H627 H 0.43358 0.45612 0.59877 0.0
H628 H 0.36104 0.48749 0.69049 0.0
H629 H 0.42003 0.57349 0.63903 0.0
H630 H 0.40606 0.54247 0.62006 0.0
H631 H 0.43958 0.54049 0.63886 0.0
C632 C 0.36086 0.46411 0.6078 0.0
C633 C 0.38682 0.45423 0.59568 0.0
C634 C 0.36129 0.48343 0.63065 0.0
C635 C 0.38764 0.49316 0.642 0.0
C636 C 0.4136 0.48266 0.63049 0.0
H637 H 0.39948 0.58653 0.80335 0.0
H638 H 0.40083 0.54899 0.76604 0.0
C639 C 0.41321 0.46361 0.60737 0.0
C640 C 0.38772 0.51422 0.66589 0.0
H641 H 0.41183 0.58038 0.68722 0.0
C642 C 0.3721 0.50784 0.68977 0.0
C643 C 0.4019 0.54091 0.66482 0.0
C644 C 0.41759 0.54992 0.63923 0.0
C645 C 0.37013 0.52744 0.71254 0.0
C646 C 0.38487 0.55383 0.71169 0.0
C647 C 0.40066 0.56011 0.6879 0.0
C648 C 0.38332 0.57583 0.73469 0.0
C649 C 0.35155 0.52002 0.73686 0.0
C650 C 0.37358 0.60342 0.72938 0.0
C651 C 0.37317 0.62468 0.75051 0.0
C652 C 0.38236 0.61868 0.77727 0.0
C653 C 0.39185 0.59117 0.78283 0.0
C654 C 0.39253 0.56987 0.7616 0.0
H655 H 0.33569 0.50296 0.7311 0.0
H656 H 0.36553 0.51213 0.75355 0.0
H657 H 0.33958 0.539 0.74526 0.0
H658 H 0.36655 0.60857 0.70878 0.0
H659 H 0.36615 0.646 0.74599 0.0
H660 H 0.02734 0.81069 0.06635 0.0
H661 H 0.98236 0.79906 0.08977 0.0
H662 H 0.95313 0.88575 0.08321 0.0
H663 H 0.99801 0.89771 0.05963 0.0
H664 H 0.95814 0.82546 0.13985 0.0
H665 H 0.88761 0.83509 0.0474 0.0
H666 H 0.92639 0.83142 0.04487 0.0
H667 H 0.91071 0.86519 0.05541 0.0
C668 C 0.0114 0.82736 0.06985 0.0
C669 C 0.01626 0.85513 0.06091 0.0
C670 C 0.98574 0.82064 0.0833 0.0
C671 C 0.96437 0.84145 0.08785 0.0
C672 C 0.96926 0.8693 0.07948 0.0
H673 H 0.81315 0.8462 0.19151 0.0
H674 H 0.86091 0.85274 0.17051 0.0
C675 C 0.99499 0.87611 0.06613 0.0
C676 C 0.93691 0.83398 0.10138 0.0
H677 H 0.8642 0.82857 0.09033 0.0
C678 C 0.93759 0.82602 0.12904 0.0
C679 C 0.91027 0.83441 0.08703 0.0
C680 C 0.90855 0.84175 0.05696 0.0
C681 C 0.91211 0.81914 0.143 0.0
C682 C 0.88539 0.82041 0.1289 0.0
C683 C 0.88479 0.82772 0.10105 0.0
C684 C 0.85766 0.8152 0.14293 0.0
C685 C 0.91389 0.81052 0.17269 0.0
C686 C 0.84015 0.79199 0.1343 0.0
C687 C 0.81301 0.78829 0.14634 0.0
C688 C 0.80304 0.80796 0.16682 0.0
C689 C 0.82073 0.83084 0.17577 0.0
C690 C 0.84787 0.83447 0.16389 0.0
H691 H 0.9362 0.80437 0.17848 0.0
H692 H 0.90716 0.82876 0.18662 0.0
H693 H 0.89911 0.79238 0.17626 0.0
H694 H 0.84733 0.77703 0.11801 0.0
H695 H 0.79938 0.77069 0.13915 0.0
H696 H 0.6109 0.53356 0.56719 0.0
H697 H 0.63117 0.49775 0.59693 0.0
H698 H 0.71318 0.50387 0.55518 0.0
H699 H 0.69342 0.54031 0.52602 0.0
H700 H 0.65113 0.44658 0.58253 0.0
H701 H 0.73902 0.50865 0.63447 0.0
H702 H 0.71101 0.52525 0.61476 0.0
H703 H 0.74175 0.50909 0.59746 0.0
C704 C 0.63335 0.5275 0.56453 0.0
C705 C 0.65058 0.53985 0.54429 0.0
C706 C 0.64489 0.50705 0.58156 0.0
C707 C 0.67382 0.49847 0.5786 0.0
C708 C 0.69106 0.51075 0.55841 0.0
H709 H 0.73996 0.33548 0.62576 0.0
H710 H 0.72421 0.37741 0.60106 0.0
C711 C 0.67965 0.53145 0.54161 0.0
C712 C 0.68542 0.47538 0.59539 0.0
H713 H 0.74168 0.45775 0.63713 0.0
C714 C 0.67079 0.44912 0.59467 0.0
C715 C 0.71082 0.47883 0.61157 0.0
C716 C 0.72637 0.50708 0.61488 0.0
C717 C 0.68126 0.42599 0.60908 0.0
C718 C 0.7076 0.42895 0.62388 0.0
C719 C 0.72179 0.45541 0.62532 0.0
C720 C 0.72052 0.4048 0.6382 0.0
C721 C 0.66377 0.39874 0.60857 0.0
C722 C 0.72537 0.4069 0.66694 0.0
C723 C 0.73497 0.38317 0.68084 0.0
C724 C 0.73979 0.35719 0.66612 0.0
C725 C 0.73641 0.35551 0.63727 0.0
C726 C 0.72712 0.37925 0.62333 0.0
H727 H 0.64069 0.40267 0.60358 0.0
H728 H 0.67246 0.38365 0.59232 0.0
H729 H 0.66489 0.38838 0.62878 0.0
H730 H 0.72053 0.42648 0.67876 0.0
H731 H 0.73704 0.38456 0.7032 0.0
H732 H 0.92911 0.17898 0.0891 0.0
H733 H 0.95328 0.18625 0.13398 0.0
H734 H 0.98507 0.09985 0.12801 0.0
H735 H 0.96111 0.09224 0.08318 0.0
H736 H 0.94858 0.15248 0.18471 0.0
H737 H 0.05809 0.15309 0.13733 0.0
H738 H 0.02558 0.1586 0.11754 0.0
H739 H 0.0354 0.12331 0.12703 0.0
C740 C 0.94112 0.16144 0.09734 0.0
C741 C 0.94335 0.13508 0.08235 0.0
C742 C 0.95482 0.16564 0.12303 0.0
C743 C 0.97114 0.14368 0.13406 0.0
C744 C 0.97278 0.11714 0.11962 0.0
H745 H 0.05266 0.1213 0.29214 0.0
H746 H 0.01921 0.11996 0.25254 0.0
C747 C 0.959 0.11284 0.09402 0.0
C748 C 0.98735 0.14875 0.16022 0.0
H749 H 0.05582 0.1536 0.18629 0.0
C750 C 0.97201 0.15287 0.18513 0.0
C751 C 0.01788 0.1495 0.16053 0.0
C752 C 0.03532 0.14612 0.13419 0.0
C753 C 0.98656 0.15708 0.21055 0.0
C754 C 0.01711 0.15712 0.21089 0.0
C755 C 0.03238 0.15356 0.1859 0.0
C756 C 0.03391 0.16002 0.23694 0.0
C757 C 0.96927 0.16157 0.23683 0.0
C758 C 0.053 0.18306 0.24133 0.0
C759 C 0.07198 0.18379 0.26388 0.0
C760 C 0.07221 0.16141 0.28221 0.0
C761 C 0.05238 0.13893 0.27841 0.0
C762 C 0.03334 0.13821 0.25591 0.0
H763 H 0.94647 0.16733 0.23247 0.0
H764 H 0.96926 0.14155 0.24825 0.0
H765 H 0.97907 0.17863 0.25051 0.0
H766 H 0.05398 0.19989 0.2267 0.0
H767 H 0.08766 0.20088 0.26607 0.0
H768 H 0.11554 0.78539 0.08977 0.0
H769 H 0.1286 0.76084 0.13169 0.0
H770 H 0.19252 0.82549 0.15174 0.0
H771 H 0.17999 0.85001 0.10993 0.0
H772 H 0.21296 0.76962 0.15486 0.0
H773 H 0.11006 0.78591 0.21274 0.0
H774 H 0.1065 0.77018 0.17827 0.0
H775 H 0.1194 0.80618 0.18309 0.0
C776 C 0.13233 0.79446 0.10312 0.0
C777 C 0.1467 0.81971 0.09643 0.0
C778 C 0.13962 0.78048 0.12715 0.0
C779 C 0.16126 0.79158 0.14492 0.0
C780 C 0.17568 0.81666 0.1383 0.0
H781 H 0.21136 0.75379 0.3116 0.0
H782 H 0.19212 0.77483 0.26959 0.0
C783 C 0.16845 0.83063 0.11435 0.0
C784 C 0.16972 0.7767 0.17005 0.0
H785 H 0.1455 0.7571 0.23321 0.0
C786 C 0.19821 0.76679 0.17197 0.0
C787 C 0.15045 0.77337 0.19238 0.0
C788 C 0.11994 0.78465 0.19176 0.0
C789 C 0.20802 0.7536 0.1957 0.0
C790 C 0.18865 0.74986 0.21787 0.0
C791 C 0.16016 0.75981 0.21601 0.0
C792 C 0.19803 0.73652 0.24354 0.0
C793 C 0.23924 0.74443 0.19715 0.0
C794 C 0.20706 0.70795 0.2428 0.0
C795 C 0.21811 0.69612 0.26663 0.0
C796 C 0.22006 0.71263 0.29151 0.0
C797 C 0.21013 0.74088 0.29248 0.0
C798 C 0.19908 0.75276 0.26864 0.0
H799 H 0.25269 0.75451 0.18123 0.0
H800 H 0.24853 0.74991 0.21793 0.0
H801 H 0.24056 0.72094 0.19353 0.0
H802 H 0.20611 0.69502 0.22367 0.0
H803 H 0.22598 0.67437 0.26549 0.0
H804 H 0.71671 0.64503 0.53723 0.0
H805 H 0.75172 0.67176 0.56608 0.0
H806 H 0.69014 0.74001 0.57886 0.0
H807 H 0.65478 0.71333 0.55048 0.0
H808 H 0.7753 0.72472 0.55815 0.0
H809 H 0.71545 0.72483 0.65762 0.0
H810 H 0.7058 0.70177 0.62812 0.0
H811 H 0.69488 0.73861 0.62964 0.0
C812 C 0.71048 0.66564 0.5463 0.0
C813 C 0.68282 0.67694 0.54159 0.0
C814 C 0.73057 0.6809 0.56276 0.0
C815 C 0.72339 0.70768 0.5749 0.0
C816 C 0.69591 0.7191 0.57017 0.0
H817 H 0.84267 0.83742 0.64093 0.0
H818 H 0.80851 0.80893 0.61214 0.0
C819 C 0.67576 0.70384 0.5538 0.0
C820 C 0.74495 0.72402 0.5919 0.0
H821 H 0.75651 0.75528 0.65614 0.0
C822 C 0.77128 0.73131 0.57962 0.0
C823 C 0.73977 0.73228 0.61998 0.0
C824 C 0.71257 0.72376 0.63474 0.0
C825 C 0.79241 0.74705 0.59456 0.0
C826 C 0.78679 0.75616 0.62235 0.0
C827 C 0.76065 0.7485 0.63474 0.0
C828 C 0.8079 0.77328 0.63917 0.0
C829 C 0.82072 0.75333 0.58059 0.0
C830 C 0.81834 0.76299 0.66414 0.0
C831 C 0.83743 0.77939 0.68064 0.0
C832 C 0.84644 0.80631 0.67244 0.0
C833 C 0.83601 0.81665 0.64751 0.0
C834 C 0.81678 0.80031 0.63102 0.0
H835 H 0.82466 0.73852 0.56239 0.0
H836 H 0.82021 0.77538 0.57316 0.0
H837 H 0.83911 0.75175 0.59525 0.0
H838 H 0.81157 0.74232 0.67094 0.0
H839 H 0.84473 0.77132 0.70011 0.0
H840 H 0.83942 0.21382 0.05326 0.0
H841 H 0.80277 0.23963 0.08064 0.0
H842 H 0.74467 0.16803 0.06995 0.0
H843 H 0.78093 0.1422 0.04199 0.0
H844 H 0.71819 0.21811 0.06004 0.0
H845 H 0.77785 0.22787 0.15958 0.0
H846 H 0.79775 0.24165 0.13124 0.0
H847 H 0.78925 0.20419 0.13121 0.0
C848 C 0.81895 0.20341 0.05689 0.0
C849 C 0.81318 0.17587 0.04543 0.0
C850 C 0.79807 0.21817 0.07269 0.0
C851 C 0.77116 0.20558 0.0777 0.0
C852 C 0.76534 0.17809 0.06642 0.0
H853 H 0.64867 0.27543 0.19935 0.0
H854 H 0.68203 0.24441 0.17249 0.0
C855 C 0.78613 0.16336 0.05046 0.0
C856 C 0.74868 0.22152 0.09379 0.0
H857 H 0.73578 0.25685 0.15584 0.0
C858 C 0.72194 0.22642 0.08106 0.0
C859 C 0.75346 0.23199 0.12135 0.0
C860 C 0.78102 0.22593 0.13677 0.0
C861 C 0.70007 0.24206 0.09493 0.0
C862 C 0.70536 0.25365 0.12201 0.0
C863 C 0.73186 0.2482 0.13496 0.0
C864 C 0.6838 0.27154 0.13738 0.0
C865 C 0.6714 0.24566 0.08056 0.0
C866 C 0.67368 0.297 0.12655 0.0
C867 C 0.65435 0.31441 0.14173 0.0
C868 C 0.64519 0.30682 0.16806 0.0
C869 C 0.65522 0.28137 0.17888 0.0
C870 C 0.67436 0.26385 0.16366 0.0
H871 H 0.66786 0.22876 0.06404 0.0
H872 H 0.6532 0.24515 0.09549 0.0
H873 H 0.67109 0.26657 0.07066 0.0
H874 H 0.68116 0.30369 0.10661 0.0
H875 H 0.64675 0.33397 0.13311 0.0
H876 H 0.32168 0.34944 0.6095 0.0
H877 H 0.31024 0.324 0.65098 0.0
H878 H 0.37729 0.26272 0.631 0.0
H879 H 0.38871 0.28779 0.58899 0.0
H880 H 0.32637 0.23746 0.64492 0.0
H881 H 0.35467 0.32242 0.72345 0.0
H882 H 0.33004 0.33478 0.6979 0.0
H883 H 0.36582 0.32354 0.68769 0.0
C884 C 0.33419 0.33067 0.61392 0.0
C885 C 0.35619 0.32072 0.59587 0.0
C886 C 0.32774 0.31627 0.6378 0.0
C887 C 0.3433 0.29182 0.64435 0.0
C888 C 0.3652 0.28171 0.62641 0.0
H889 H 0.31207 0.21602 0.80469 0.0
H890 H 0.33696 0.23609 0.76495 0.0
C891 C 0.37165 0.29607 0.6024 0.0
C892 C 0.33551 0.27609 0.66917 0.0
H893 H 0.3237 0.28502 0.73875 0.0
C894 C 0.32617 0.24771 0.66551 0.0
C895 C 0.33576 0.28932 0.69608 0.0
C896 C 0.34741 0.3191 0.7016 0.0
C897 C 0.31563 0.23267 0.68785 0.0
C898 C 0.3139 0.24663 0.71437 0.0
C899 C 0.32467 0.27449 0.71831 0.0
C900 C 0.29956 0.23331 0.73794 0.0
C901 C 0.30623 0.20207 0.68278 0.0
C902 C 0.27034 0.22539 0.73594 0.0
C903 C 0.25635 0.21386 0.75844 0.0
C904 C 0.27124 0.21038 0.78337 0.0
C905 C 0.3004 0.21833 0.78547 0.0
C906 C 0.31448 0.22984 0.76291 0.0
H907 H 0.31729 0.19199 0.66443 0.0
H908 H 0.31072 0.18921 0.70107 0.0
H909 H 0.28263 0.20145 0.67866 0.0
H910 H 0.25824 0.22849 0.71709 0.0
H911 H 0.23388 0.20763 0.75646 0.0
H912 H 0.68018 0.64766 0.4076 0.0
H913 H 0.69289 0.67231 0.36589 0.0
H914 H 0.62233 0.73101 0.3804 0.0
H915 H 0.6092 0.70645 0.42231 0.0
H916 H 0.62886 0.70665 0.32317 0.0
H917 H 0.7295 0.75415 0.36822 0.0
H918 H 0.72561 0.71635 0.37181 0.0
H919 H 0.70087 0.74049 0.38932 0.0
C920 C 0.66726 0.66577 0.402 0.0
C921 C 0.64377 0.67519 0.41848 0.0
C922 C 0.67463 0.67985 0.37817 0.0
C923 C 0.65871 0.70358 0.37035 0.0
C924 C 0.63489 0.71274 0.38627 0.0
H925 H 0.72017 0.82199 0.25066 0.0
H926 H 0.69708 0.80105 0.29067 0.0
C927 C 0.62752 0.69874 0.41023 0.0
C928 C 0.66739 0.71901 0.34573 0.0
H929 H 0.72258 0.75792 0.31984 0.0
C930 C 0.64923 0.71806 0.32241 0.0
C931 C 0.69382 0.73405 0.34507 0.0
C932 C 0.71353 0.73662 0.36999 0.0
C933 C 0.6573 0.73119 0.29801 0.0
C934 C 0.68424 0.74534 0.29704 0.0
C935 C 0.70199 0.7469 0.32065 0.0
C936 C 0.69486 0.75842 0.27171 0.0
C937 C 0.63695 0.72994 0.27356 0.0
C938 C 0.70099 0.74139 0.24779 0.0
C939 C 0.71396 0.75341 0.22493 0.0
C940 C 0.72102 0.78251 0.22578 0.0
C941 C 0.71434 0.79961 0.24946 0.0
C942 C 0.70138 0.78765 0.27228 0.0
H943 H 0.61451 0.72484 0.27985 0.0
H944 H 0.63684 0.75052 0.26302 0.0
H945 H 0.64424 0.71301 0.25838 0.0
H946 H 0.69666 0.71867 0.24716 0.0
H947 H 0.71913 0.73995 0.20681 0.0
H948 H 0.82115 0.1462 0.90919 0.0
H949 H 0.80828 0.17124 0.8678 0.0
H950 H 0.87124 0.23649 0.88889 0.0
H951 H 0.88461 0.21146 0.93047 0.0
H952 H 0.78706 0.22766 0.86725 0.0
H953 H 0.88853 0.21344 0.80653 0.0
H954 H 0.87977 0.19182 0.83542 0.0
H955 H 0.89263 0.22767 0.84152 0.0
C956 C 0.83246 0.16578 0.90506 0.0
C957 C 0.85393 0.17682 0.92325 0.0
C958 C 0.82505 0.18004 0.88136 0.0
C959 C 0.83901 0.20551 0.87522 0.0
C960 C 0.86056 0.21659 0.8931 0.0
H961 H 0.77131 0.32604 0.7597 0.0
H962 H 0.79309 0.30427 0.80005 0.0
C963 C 0.86802 0.20233 0.91692 0.0
C964 C 0.82984 0.221 0.85073 0.0
H965 H 0.85211 0.24214 0.78744 0.0
C966 C 0.80129 0.23093 0.84983 0.0
C967 C 0.84845 0.22492 0.82801 0.0
C968 C 0.87901 0.21375 0.82765 0.0
C969 C 0.79076 0.2447 0.82673 0.0
C970 C 0.80945 0.24895 0.80414 0.0
C971 C 0.838 0.239 0.80497 0.0
C972 C 0.79922 0.26294 0.77916 0.0
C973 C 0.75954 0.254 0.82636 0.0
C974 C 0.79638 0.2471 0.75397 0.0
C975 C 0.78419 0.25958 0.73096 0.0
C976 C 0.77493 0.28806 0.73286 0.0
C977 C 0.77869 0.30415 0.7578 0.0
C978 C 0.79085 0.2917 0.78079 0.0
H979 H 0.74662 0.24388 0.84265 0.0
H980 H 0.75841 0.27749 0.83012 0.0
H981 H 0.74952 0.24867 0.80586 0.0
H982 H 0.80276 0.22487 0.75238 0.0
H983 H 0.78149 0.24697 0.7118 0.0
H984 H 0.27898 0.35089 0.48401 0.0
H985 H 0.24237 0.32354 0.45769 0.0
H986 H 0.3063 0.26041 0.43366 0.0
H987 H 0.34307 0.28736 0.46007 0.0
H988 H 0.24097 0.30645 0.40089 0.0
H989 H 0.24123 0.2136 0.46833 0.0
H990 H 0.25714 0.24755 0.47884 0.0
H991 H 0.27627 0.22318 0.4557 0.0
C992 C 0.28534 0.33122 0.47311 0.0
C993 C 0.314 0.32125 0.47437 0.0
C994 C 0.26436 0.31564 0.45808 0.0
C995 C 0.27155 0.28975 0.44417 0.0
C996 C 0.30021 0.28007 0.44474 0.0
H997 H 0.17975 0.1933 0.31571 0.0
H998 H 0.21332 0.22336 0.34358 0.0
C999 C 0.32123 0.29563 0.45973 0.0
C1000 C 0.24911 0.2729 0.4289 0.0
H1001 H 0.2153 0.20809 0.42585 0.0
C1002 C 0.23523 0.285 0.4064 0.0
C1003 C 0.24139 0.2451 0.43645 0.0
C1004 C 0.25455 0.23162 0.4613 0.0
C1005 C 0.21437 0.26969 0.3907 0.0
C1006 C 0.20753 0.24147 0.39755 0.0
C1007 C 0.2208 0.22966 0.42053 0.0
C1008 C 0.18714 0.22358 0.38073 0.0
C1009 C 0.19971 0.2839 0.36703 0.0
C1010 C 0.16168 0.21327 0.39258 0.0
C1011 C 0.14269 0.19602 0.3767 0.0
C1012 C 0.14909 0.18871 0.34893 0.0
C1013 C 0.1746 0.19881 0.33716 0.0
C1014 C 0.19355 0.21607 0.35295 0.0
H1015 H 0.20157 0.30752 0.36909 0.0
H1016 H 0.21013 0.27669 0.34725 0.0
H1017 H 0.17647 0.27804 0.3658 0.0
H1018 H 0.15649 0.21869 0.41404 0.0
H1019 H 0.12312 0.1882 0.38602 0.0
H1020 H 0.1584 0.78489 0.96525 0.0
H1021 H 0.19462 0.75841 0.93801 0.0
H1022 H 0.25465 0.82824 0.95019 0.0
H1023 H 0.21874 0.85481 0.978 0.0
H1024 H 0.2221 0.77132 0.8902 0.0
H1025 H 0.3014 0.76058 0.97548 0.0
H1026 H 0.26471 0.77228 0.98152 0.0
H1027 H 0.29136 0.79677 0.96953 0.0
C1028 C 0.17927 0.79473 0.96217 0.0
C1029 C 0.18569 0.82195 0.97404 0.0
C1030 C 0.19996 0.77951 0.94657 0.0
C1031 C 0.22748 0.79114 0.94251 0.0
C1032 C 0.23376 0.8186 0.95364 0.0
H1033 H 0.34953 0.72726 0.818 0.0
H1034 H 0.31573 0.75629 0.84624 0.0
C1035 C 0.21312 0.83382 0.96938 0.0
C1036 C 0.24939 0.77451 0.92636 0.0
H1037 H 0.31665 0.74503 0.93038 0.0
C1038 C 0.24277 0.76555 0.89897 0.0
C1039 C 0.27615 0.76665 0.93803 0.0
C1040 C 0.2838 0.7743 0.96783 0.0
C1041 C 0.2623 0.74916 0.8828 0.0
C1042 C 0.28943 0.74208 0.89417 0.0
C1043 C 0.29594 0.75076 0.92165 0.0
C1044 C 0.31117 0.72535 0.87792 0.0
C1045 C 0.25341 0.73905 0.85391 0.0
C1046 C 0.32062 0.69885 0.88692 0.0
C1047 C 0.34033 0.68255 0.87104 0.0
C1048 C 0.35092 0.69259 0.84607 0.0
C1049 C 0.34192 0.71934 0.8374 0.0
C1050 C 0.32236 0.73569 0.8533 0.0
H1051 H 0.22957 0.73956 0.8512 0.0
H1052 H 0.2631 0.7533 0.83869 0.0
H1053 H 0.26112 0.71698 0.84904 0.0
H1054 H 0.31236 0.69058 0.90595 0.0
H1055 H 0.34719 0.66203 0.87809 0.0
loop_
_geom_bond_atom_site_label_1
_geom_bond_atom_site_label_2
_geom_bond_distance
_geom_bond_site_symmetry_2
_ccdc_geom_bond_type
Sc0 O3 2.025 . S
Sc0 O10 2.105 1_554 S
Sc0 O13 2.105 . S
Sc0 O16 2.105 . S
Sc0 O19 2.105 1_554 S
Sc1 O3 2.025 . S
Sc1 O11 2.105 1_554 S
Sc1 O15 2.105 . S
Sc1 O17 2.105 . S
Sc1 O21 2.105 1_554 S
Sc2 O3 2.025 . S
Sc2 O12 2.094 1_554 S
Sc2 O14 2.105 . S
Sc2 O18 2.105 . S
Sc2 O20 2.113 . S
O3 Sc0 2.025 . S
O3 Sc1 2.025 . S
O3 Sc2 2.025 . S
C4 O10 1.268 . S
C4 O20 1.262 1_556 S
C5 O11 1.268 . S
C5 O19 1.268 . S
C6 O12 1.276 . S
C6 O21 1.268 . S
C7 O13 1.268 . S
C7 O17 1.268 . S
C8 O14 1.268 . S
C8 O16 1.268 . S
C9 O15 1.268 . S
C9 O18 1.268 . S
O10 Sc0 2.105 1_556 S
O10 C4 1.268 . S
O11 Sc1 2.105 1_556 S
O11 C5 1.268 . S
O12 Sc2 2.094 1_556 S
O12 C6 1.276 . S
O13 Sc0 2.105 . S
O13 C7 1.268 . S
O14 Sc2 2.105 . S
O14 C8 1.268 . S
O15 Sc1 2.105 . S
O15 C9 1.268 . S
O16 Sc0 2.105 . S
O16 C8 1.268 . S
O17 Sc1 2.105 . S
O17 C7 1.268 . S
O18 Sc2 2.105 . S
O18 C9 1.268 . S
O19 Sc0 2.105 1_556 S
O19 C5 1.268 . S
O20 Sc2 2.113 . S
O20 C4 1.262 1_554 S
O21 Sc1 2.105 1_556 S
O21 C6 1.268 . S
Sc22 O25 2.025 . S
Sc22 O32 2.105 . S
Sc22 O35 2.105 . S
Sc22 O38 2.105 . S
Sc22 O41 2.105 . S
Sc23 O25 2.025 . S
Sc23 O33 2.105 . S
Sc23 O37 2.105 . S
Sc23 O39 2.105 . S
Sc23 O43 2.105 . S
Sc24 O25 2.025 . S
Sc24 O34 2.105 . S
Sc24 O36 2.105 . S
Sc24 O40 2.105 . S
Sc24 O42 2.105 . S
O25 Sc22 2.025 . S
O25 Sc23 2.025 . S
O25 Sc24 2.025 . S
C26 O32 1.268 . S
C26 O42 1.268 . S
C27 O33 1.268 . S
C27 O41 1.268 . S
C28 O34 1.268 . S
C28 O43 1.268 . S
C29 O35 1.268 . S
C29 O39 1.268 . S
C30 O36 1.268 . S
C30 O38 1.268 . S
C31 O37 1.268 . S
C31 O40 1.268 . S
O32 Sc22 2.105 . S
O32 C26 1.268 . S
O33 Sc23 2.105 . S
O33 C27 1.268 . S
O34 Sc24 2.105 . S
O34 C28 1.268 . S
O35 Sc22 2.105 . S
O35 C29 1.268 . S
O36 Sc24 2.105 . S
O36 C30 1.268 . S
O37 Sc23 2.105 . S
O37 C31 1.268 . S
O38 Sc22 2.105 . S
O38 C30 1.268 . S
O39 Sc23 2.105 . S
O39 C29 1.268 . S
O40 Sc24 2.105 . S
O40 C31 1.268 . S
O41 Sc22 2.105 . S
O41 C27 1.268 . S
O42 Sc24 2.105 . S
O42 C26 1.268 . S
O43 Sc23 2.105 . S
O43 C28 1.268 . S
Sc44 O47 2.027 . S
Sc44 O54 2.105 1_554 S
Sc44 O57 2.105 . S
Sc44 O60 2.105 . S
Sc44 O63 2.105 1_554 S
Sc45 O47 2.022 1_556 S
Sc45 O55 2.105 . S
Sc45 O59 2.105 1_556 S
Sc45 O61 2.105 1_556 S
Sc45 O65 2.105 . S
Sc46 O47 2.028 . S
Sc46 O56 2.105 1_554 S
Sc46 O58 2.105 . S
Sc46 O62 2.105 . S
Sc46 O64 2.105 1_554 S
O47 Sc44 2.027 . S
O47 Sc45 2.022 1_554 S
O47 Sc46 2.028 . S
C48 O54 1.268 . S
C48 O64 1.268 . S
C49 O55 1.268 . S
C49 O63 1.268 . S
C50 O56 1.268 . S
C50 O65 1.268 . S
C51 O57 1.268 . S
C51 O61 1.268 . S
C52 O58 1.268 . S
C52 O60 1.268 . S
C53 O59 1.268 . S
C53 O62 1.268 . S
O54 Sc44 2.105 1_556 S
O54 C48 1.268 . S
O55 Sc45 2.105 . S
O55 C49 1.268 . S
O56 Sc46 2.105 1_556 S
O56 C50 1.268 . S
O57 Sc44 2.105 . S
O57 C51 1.268 . S
O58 Sc46 2.105 . S
O58 C52 1.268 . S
O59 Sc45 2.105 1_554 S
O59 C53 1.268 . S
O60 Sc44 2.105 . S
O60 C52 1.268 . S
O61 Sc45 2.105 1_554 S
O61 C51 1.268 . S
O62 Sc46 2.105 . S
O62 C53 1.268 . S
O63 Sc44 2.105 1_556 S
O63 C49 1.268 . S
O64 Sc46 2.105 1_556 S
O64 C48 1.268 . S
O65 Sc45 2.105 . S
O65 C50 1.268 . S
Sc66 O69 2.025 . S
Sc66 O76 2.105 . S
Sc66 O79 2.105 . S
Sc66 O82 2.105 . S
Sc66 O85 2.105 . S
Sc67 O69 2.025 . S
Sc67 O77 2.105 . S
Sc67 O81 2.105 . S
Sc67 O83 2.105 . S
Sc67 O87 2.105 . S
Sc68 O69 2.025 . S
Sc68 O78 2.105 . S
Sc68 O80 2.105 . S
Sc68 O84 2.105 . S
Sc68 O86 2.105 . S
O69 Sc66 2.025 . S
O69 Sc67 2.025 . S
O69 Sc68 2.025 . S
C70 O76 1.268 . S
C70 O86 1.268 . S
C71 O77 1.268 . S
C71 O85 1.268 . S
C72 O78 1.268 . S
C72 O87 1.268 . S
C73 O79 1.268 . S
C73 O83 1.268 . S
C74 O80 1.268 . S
C74 O82 1.268 . S
C75 O81 1.268 . S
C75 O84 1.268 . S
O76 Sc66 2.105 . S
O76 C70 1.268 . S
O77 Sc67 2.105 . S
O77 C71 1.268 . S
O78 Sc68 2.105 . S
O78 C72 1.268 . S
O79 Sc66 2.105 . S
O79 C73 1.268 . S
O80 Sc68 2.105 . S
O80 C74 1.268 . S
O81 Sc67 2.105 . S
O81 C75 1.268 . S
O82 Sc66 2.105 . S
O82 C74 1.268 . S
O83 Sc67 2.105 . S
O83 C73 1.268 . S
O84 Sc68 2.105 . S
O84 C75 1.268 . S
O85 Sc66 2.105 . S
O85 C71 1.268 . S
O86 Sc68 2.105 . S
O86 C70 1.268 . S
O87 Sc67 2.105 . S
O87 C72 1.268 . S
C88 N89 1.317 . S
C88 N90 1.348 . S
C88 C91 1.485 . S
N89 C88 1.317 . S
N89 N93 1.370 . S
N90 C88 1.348 . S
N90 C92 1.346 . S
C91 C88 1.485 . S
C91 H95 0.960 . S
C91 H96 0.961 . S
C91 H97 0.960 . S
C92 N90 1.346 . S
C92 N93 1.307 . S
C92 C94 1.486 . S
N93 N89 1.370 . S
N93 C92 1.307 . S
C94 C92 1.486 . S
C94 H98 0.960 . S
C94 H99 0.960 . S
C94 H100 0.959 . S
H95 C91 0.960 . S
H96 C91 0.961 . S
H97 C91 0.960 . S
H98 C94 0.960 . S
H99 C94 0.960 . S
H100 C94 0.959 . S
C101 N102 1.317 . S
C101 N103 1.348 . S
C101 C104 1.485 . S
N102 C101 1.317 . S
N102 N106 1.370 . S
N103 C101 1.348 . S
N103 C105 1.346 . S
C104 C101 1.485 . S
C104 H108 0.960 . S
C104 H109 0.961 . S
C104 H110 0.960 . S
C105 N103 1.346 . S
C105 N106 1.307 . S
C105 C107 1.486 . S
N106 N102 1.370 . S
N106 C105 1.307 . S
C107 C105 1.486 . S
C107 H111 0.960 . S
C107 H112 0.960 . S
C107 H113 0.959 . S
H108 C104 0.960 . S
H109 C104 0.961 . S
H110 C104 0.960 . S
H111 C107 0.960 . S
H112 C107 0.960 . S
H113 C107 0.959 . S
C114 N115 1.317 . S
C114 N116 1.348 . S
C114 C117 1.485 . S
N115 C114 1.317 . S
N115 N119 1.370 . S
N116 C114 1.348 . S
N116 C118 1.346 . S
C117 C114 1.485 . S
C117 H121 0.960 . S
C117 H122 0.961 . S
C117 H123 0.960 . S
C118 N116 1.346 . S
C118 N119 1.307 . S
C118 C120 1.486 . S
N119 N115 1.370 . S
N119 C118 1.307 . S
C120 C118 1.486 . S
C120 H124 0.960 . S
C120 H125 0.960 . S
C120 H126 0.959 . S
H121 C117 0.960 . S
H122 C117 0.961 . S
H123 C117 0.960 . S
H124 C120 0.960 . S
H125 C120 0.960 . S
H126 C120 0.959 . S
C127 N128 1.317 . S
C127 N129 1.348 . S
C127 C130 1.485 . S
N128 C127 1.317 . S
N128 N132 1.370 . S
N129 C127 1.348 . S
N129 C131 1.346 . S
C130 C127 1.485 . S
C130 H134 0.960 . S
C130 H135 0.961 . S
C130 H136 0.960 . S
C131 N129 1.346 . S
C131 N132 1.307 . S
C131 C133 1.486 . S
N132 N128 1.370 . S
N132 C131 1.307 . S
C133 C131 1.486 . S
C133 H137 0.960 . S
C133 H138 0.960 . S
C133 H139 0.959 . S
H134 C130 0.960 . S
H135 C130 0.961 . S
H136 C130 0.960 . S
H137 C133 0.960 . S
H138 C133 0.960 . S
H139 C133 0.959 . S
C140 N141 1.317 . S
C140 N142 1.348 . S
C140 C143 1.485 . S
N141 C140 1.317 . S
N141 N145 1.370 . S
N142 C140 1.348 . S
N142 C144 1.346 . S
C143 C140 1.485 . S
C143 H147 0.960 . S
C143 H148 0.961 . S
C143 H149 0.960 . S
C144 N142 1.346 . S
C144 N145 1.307 . S
C144 C146 1.486 . S
N145 N141 1.370 . S
N145 C144 1.307 . S
C146 C144 1.486 . S
C146 H150 0.960 . S
C146 H151 0.960 . S
C146 H152 0.959 . S
H147 C143 0.960 . S
H148 C143 0.961 . S
H149 C143 0.960 . S
H150 C146 0.960 . S
H151 C146 0.960 . S
H152 C146 0.959 . S
C153 N154 1.317 . S
C153 N155 1.348 . S
C153 C156 1.485 . S
N154 C153 1.317 . S
N154 N158 1.370 . S
N155 C153 1.348 . S
N155 C157 1.346 . S
C156 C153 1.485 . S
C156 H160 0.960 . S
C156 H161 0.961 . S
C156 H162 0.960 . S
C157 N155 1.346 . S
C157 N158 1.307 . S
C157 C159 1.486 . S
N158 N154 1.370 . S
N158 C157 1.307 . S
C159 C157 1.486 . S
C159 H163 0.960 . S
C159 H164 0.960 . S
C159 H165 0.959 . S
H160 C156 0.960 . S
H161 C156 0.961 . S
H162 C156 0.960 . S
H163 C159 0.960 . S
H164 C159 0.960 . S
H165 C159 0.959 . S
C166 N167 1.317 . S
C166 N168 1.348 . S
C166 C169 1.485 . S
N167 C166 1.317 . S
N167 N171 1.370 . S
N168 C166 1.348 . S
N168 C170 1.346 . S
C169 C166 1.485 . S
C169 H173 0.960 . S
C169 H174 0.961 . S
C169 H175 0.960 . S
C170 N168 1.346 . S
C170 N171 1.307 . S
C170 C172 1.486 . S
N171 N167 1.370 . S
N171 C170 1.307 . S
C172 C170 1.486 . S
C172 H176 0.960 . S
C172 H177 0.960 . S
C172 H178 0.959 . S
H173 C169 0.960 . S
H174 C169 0.961 . S
H175 C169 0.960 . S
H176 C172 0.960 . S
H177 C172 0.960 . S
H178 C172 0.959 . S
C179 N180 1.317 . S
C179 N181 1.348 . S
C179 C182 1.485 . S
N180 C179 1.317 . S
N180 N184 1.370 . S
N181 C179 1.348 . S
N181 C183 1.346 . S
C182 C179 1.485 . S
C182 H186 0.960 . S
C182 H187 0.961 . S
C182 H188 0.960 . S
C183 N181 1.346 . S
C183 N184 1.307 . S
C183 C185 1.486 . S
N184 N180 1.370 . S
N184 C183 1.307 . S
C185 C183 1.486 . S
C185 H189 0.960 . S
C185 H190 0.960 . S
C185 H191 0.959 . S
H186 C182 0.960 . S
H187 C182 0.961 . S
H188 C182 0.960 . S
H189 C185 0.960 . S
H190 C185 0.960 . S
H191 C185 0.959 . S
H192 C200 0.929 . S
H193 C202 0.930 . S
H194 C204 0.930 . S
H195 C207 0.929 . S
H196 C210 0.930 1_565 S
H197 C212 0.960 . S
H198 C212 0.960 . S
H199 C212 0.960 1_565 S
C200 H192 0.929 . S
C200 C201 1.377 . S
C200 C202 1.384 . S
C201 C200 1.377 . S
C201 C207 1.390 . S
C202 H193 0.930 . S
C202 C200 1.384 . S
C202 C203 1.372 . S
C203 C202 1.372 . S
C203 C204 1.400 . S
C203 C208 1.472 1_565 S
C204 H194 0.930 . S
C204 C203 1.400 . S
C204 C207 1.386 . S
H205 C221 0.930 . S
H206 C222 0.931 . S
C207 H195 0.929 . S
C207 C201 1.390 . S
C207 C204 1.386 . S
C208 C203 1.472 1_545 S
C208 C210 1.398 . S
C208 C211 1.417 . S
H209 C215 0.930 . S
C210 H196 0.930 1_545 S
C210 C208 1.398 . S
C210 C213 1.403 . S
C211 C208 1.417 . S
C211 C212 1.524 . S
C211 C215 1.400 . S
C212 H197 0.960 . S
C212 H198 0.960 . S
C212 H199 0.960 1_545 S
C212 C211 1.524 . S
C213 C210 1.403 . S
C213 C214 1.392 . S
C213 C217 1.495 . S
C214 C213 1.392 . S
C214 C215 1.385 . S
C214 C216 1.478 . S
C215 H209 0.930 . S
C215 C211 1.400 . S
C215 C214 1.385 . S
C216 C214 1.478 . S
C216 C218 1.381 . S
C216 C222 1.383 . S
C217 C213 1.495 . S
C217 H223 0.959 . S
C217 H224 0.961 . S
C217 H225 0.960 . S
C218 C216 1.381 . S
C218 C219 1.394 . S
C218 H226 0.930 . S
C219 C218 1.394 . S
C219 C220 1.383 . S
C219 H227 0.929 . S
C220 C219 1.383 . S
C220 C221 1.377 . S
C221 H205 0.930 . S
C221 C220 1.377 . S
C221 C222 1.379 . S
C222 H206 0.931 . S
C222 C216 1.383 . S
C222 C221 1.379 . S
H223 C217 0.959 . S
H224 C217 0.961 . S
H225 C217 0.960 . S
H226 C218 0.930 . S
H227 C219 0.929 . S
H228 C236 0.929 . S
H229 C238 0.930 . S
H230 C240 0.930 . S
H231 C243 0.929 . S
H232 C246 0.930 . S
H233 C248 0.960 . S
H234 C248 0.960 . S
H235 C248 0.960 . S
C236 H228 0.929 . S
C236 C237 1.377 . S
C236 C238 1.384 . S
C237 C236 1.377 . S
C237 C243 1.390 . S
C238 H229 0.930 . S
C238 C236 1.384 . S
C238 C239 1.372 . S
C239 C238 1.372 . S
C239 C240 1.400 . S
C239 C244 1.490 . S
C240 H230 0.930 . S
C240 C239 1.400 . S
C240 C243 1.386 . S
H241 C257 0.930 . S
H242 C258 0.931 . S
C243 H231 0.929 . S
C243 C237 1.390 . S
C243 C240 1.386 . S
C244 C239 1.490 . S
C244 C246 1.395 . S
C244 C247 1.403 . S
H245 C251 0.930 . S
C246 H232 0.930 . S
C246 C244 1.395 . S
C246 C249 1.403 . S
C247 C244 1.403 . S
C247 C248 1.524 . S
C247 C251 1.400 . S
C248 H233 0.960 . S
C248 H234 0.960 . S
C248 H235 0.960 . S
C248 C247 1.524 . S
C249 C246 1.403 . S
C249 C250 1.392 . S
C249 C253 1.495 . S
C250 C249 1.392 . S
C250 C251 1.385 . S
C250 C252 1.478 . S
C251 H245 0.930 . S
C251 C247 1.400 . S
C251 C250 1.385 . S
C252 C250 1.478 . S
C252 C254 1.381 . S
C252 C258 1.383 . S
C253 C249 1.495 . S
C253 H259 0.959 . S
C253 H260 0.961 . S
C253 H261 0.960 . S
C254 C252 1.381 . S
C254 C255 1.394 . S
C254 H262 0.930 . S
C255 C254 1.394 . S
C255 C256 1.383 . S
C255 H263 0.929 . S
C256 C255 1.383 . S
C256 C257 1.377 . S
C257 H241 0.930 . S
C257 C256 1.377 . S
C257 C258 1.379 . S
C258 H242 0.931 . S
C258 C252 1.383 . S
C258 C257 1.379 . S
H259 C253 0.959 . S
H260 C253 0.961 . S
H261 C253 0.960 . S
H262 C254 0.930 . S
H263 C255 0.929 . S
H264 C272 0.929 . S
H265 C274 0.930 . S
H266 C276 0.930 1_565 S
H267 C279 0.929 . S
H268 C282 0.930 1_545 S
H269 C284 0.960 . S
H270 C284 0.960 . S
H271 C284 0.960 . S
C272 H264 0.929 . S
C272 C273 1.377 . S
C272 C274 1.384 . S
C273 C272 1.377 . S
C273 C279 1.390 . S
C274 H265 0.930 . S
C274 C272 1.384 . S
C274 C275 1.372 . S
C275 C274 1.372 . S
C275 C276 1.400 . S
C275 C280 1.490 1_545 S
C276 H266 0.930 1_545 S
C276 C275 1.400 . S
C276 C279 1.386 . S
H277 C293 0.930 . S
H278 C294 0.931 . S
C279 H267 0.929 . S
C279 C273 1.390 . S
C279 C276 1.386 . S
C280 C275 1.490 1_565 S
C280 C282 1.395 . S
C280 C283 1.403 . S
H281 C287 0.930 . S
C282 H268 0.930 1_565 S
C282 C280 1.395 . S
C282 C285 1.403 . S
C283 C280 1.403 . S
C283 C284 1.524 . S
C283 C287 1.400 . S
C284 H269 0.960 . S
C284 H270 0.960 . S
C284 H271 0.960 . S
C284 C283 1.524 . S
C285 C282 1.403 . S
C285 C286 1.392 . S
C285 C289 1.495 . S
C286 C285 1.392 . S
C286 C287 1.385 . S
C286 C288 1.478 . S
C287 H281 0.930 . S
C287 C283 1.400 . S
C287 C286 1.385 . S
C288 C286 1.478 . S
C288 C290 1.381 . S
C288 C294 1.383 . S
C289 C285 1.495 . S
C289 H295 0.959 . S
C289 H296 0.961 . S
C289 H297 0.960 . S
C290 C288 1.381 . S
C290 C291 1.394 . S
C290 H298 0.930 . S
C291 C290 1.394 . S
C291 C292 1.383 . S
C291 H299 0.929 . S
C292 C291 1.383 . S
C292 C293 1.377 . S
C293 H277 0.930 . S
C293 C292 1.377 . S
C293 C294 1.379 . S
C294 H278 0.931 . S
C294 C288 1.383 . S
C294 C293 1.379 . S
H295 C289 0.959 . S
H296 C289 0.961 . S
H297 C289 0.960 . S
H298 C290 0.930 . S
H299 C291 0.929 . S
H300 C308 0.929 . S
H301 C310 0.930 . S
H302 C312 0.930 . S
H303 C315 0.929 . S
H304 C318 0.930 . S
H305 C320 0.960 . S
H306 C320 0.960 . S
H307 C320 0.960 . S
C308 H300 0.929 . S
C308 C309 1.377 . S
C308 C310 1.384 . S
C309 C308 1.377 . S
C309 C315 1.390 . S
C310 H301 0.930 . S
C310 C308 1.384 . S
C310 C311 1.372 . S
C311 C310 1.372 . S
C311 C312 1.400 . S
C311 C316 1.490 . S
C312 H302 0.930 . S
C312 C311 1.400 . S
C312 C315 1.386 . S
H313 C329 0.930 . S
H314 C330 0.931 . S
C315 H303 0.929 . S
C315 C309 1.390 . S
C315 C312 1.386 . S
C316 C311 1.490 . S
C316 C318 1.395 . S
C316 C319 1.403 . S
H317 C323 0.930 . S
C318 H304 0.930 . S
C318 C316 1.395 . S
C318 C321 1.403 . S
C319 C316 1.403 . S
C319 C320 1.524 . S
C319 C323 1.400 . S
C320 H305 0.960 . S
C320 H306 0.960 . S
C320 H307 0.960 . S
C320 C319 1.524 . S
C321 C318 1.403 . S
C321 C322 1.392 . S
C321 C325 1.495 . S
C322 C321 1.392 . S
C322 C323 1.385 . S
C322 C324 1.478 . S
C323 H317 0.930 . S
C323 C319 1.400 . S
C323 C322 1.385 . S
C324 C322 1.478 . S
C324 C326 1.381 . S
C324 C330 1.383 . S
C325 C321 1.495 . S
C325 H331 0.959 . S
C325 H332 0.961 . S
C325 H333 0.960 . S
C326 C324 1.381 . S
C326 C327 1.394 . S
C326 H334 0.930 . S
C327 C326 1.394 . S
C327 C328 1.383 . S
C327 H335 0.929 . S
C328 C327 1.383 . S
C328 C329 1.377 . S
C329 H313 0.930 . S
C329 C328 1.377 . S
C329 C330 1.379 . S
C330 H314 0.931 . S
C330 C324 1.383 . S
C330 C329 1.379 . S
H331 C325 0.959 . S
H332 C325 0.961 . S
H333 C325 0.960 . S
H334 C326 0.930 . S
H335 C327 0.929 . S
H336 C344 0.929 . S
H337 C346 0.930 . S
H338 C348 0.930 . S
H339 C351 0.929 . S
H340 C354 0.930 . S
H341 C356 0.960 . S
H342 C356 0.960 . S
H343 C356 0.960 . S
C344 H336 0.929 . S
C344 C345 1.377 . S
C344 C346 1.384 . S
C345 C344 1.377 . S
C345 C351 1.390 . S
C346 H337 0.930 . S
C346 C344 1.384 . S
C346 C347 1.372 . S
C347 C346 1.372 . S
C347 C348 1.400 . S
C347 C352 1.490 . S
C348 H338 0.930 . S
C348 C347 1.400 . S
C348 C351 1.386 . S
H349 C365 0.930 . S
H350 C366 0.931 . S
C351 H339 0.929 . S
C351 C345 1.390 . S
C351 C348 1.386 . S
C352 C347 1.490 . S
C352 C354 1.395 . S
C352 C355 1.403 . S
H353 C359 0.930 . S
C354 H340 0.930 . S
C354 C352 1.395 . S
C354 C357 1.403 . S
C355 C352 1.403 . S
C355 C356 1.524 . S
C355 C359 1.400 . S
C356 H341 0.960 . S
C356 H342 0.960 . S
C356 H343 0.960 . S
C356 C355 1.524 . S
C357 C354 1.403 . S
C357 C358 1.392 . S
C357 C361 1.495 . S
C358 C357 1.392 . S
C358 C359 1.385 . S
C358 C360 1.478 . S
C359 H353 0.930 . S
C359 C355 1.400 . S
C359 C358 1.385 . S
C360 C358 1.478 . S
C360 C362 1.381 . S
C360 C366 1.383 . S
C361 C357 1.495 . S
C361 H367 0.959 . S
C361 H368 0.961 . S
C361 H369 0.960 . S
C362 C360 1.381 . S
C362 C363 1.394 . S
C362 H370 0.930 . S
C363 C362 1.394 . S
C363 C364 1.383 . S
C363 H371 0.929 . S
C364 C363 1.383 . S
C364 C365 1.377 . S
C365 H349 0.930 . S
C365 C364 1.377 . S
C365 C366 1.379 . S
C366 H350 0.931 . S
C366 C360 1.383 . S
C366 C365 1.379 . S
H367 C361 0.959 . S
H368 C361 0.961 . S
H369 C361 0.960 . S
H370 C362 0.930 . S
H371 C363 0.929 . S
H372 C380 0.929 . S
H373 C382 0.930 . S
H374 C384 0.925 1_455 S
H375 C387 0.929 . S
H376 C390 0.930 . S
H377 C392 0.960 . S
H378 C392 0.960 . S
H379 C392 0.960 . S
C380 H372 0.929 . S
C380 C381 1.377 . S
C380 C382 1.384 . S
C381 C380 1.377 . S
C381 C387 1.390 . S
C382 H373 0.930 . S
C382 C380 1.384 . S
C382 C383 1.372 . S
C383 C382 1.372 . S
C383 C384 1.400 . S
C383 C388 1.490 1_655 S
C384 H374 0.925 1_655 S
C384 C383 1.400 . S
C384 C387 1.386 . S
H385 C401 0.930 . S
H386 C402 0.931 . S
C387 H375 0.929 . S
C387 C381 1.390 . S
C387 C384 1.386 . S
C388 C383 1.490 1_455 S
C388 C390 1.395 . S
C388 C391 1.403 . S
H389 C395 0.930 . S
C390 H376 0.930 . S
C390 C388 1.395 . S
C390 C393 1.403 . S
C391 C388 1.403 . S
C391 C392 1.524 . S
C391 C395 1.400 . S
C392 H377 0.960 . S
C392 H378 0.960 . S
C392 H379 0.960 . S
C392 C391 1.524 . S
C393 C390 1.403 . S
C393 C394 1.392 . S
C393 C397 1.495 . S
C394 C393 1.392 . S
C394 C395 1.385 . S
C394 C396 1.478 . S
C395 H389 0.930 . S
C395 C391 1.400 . S
C395 C394 1.385 . S
C396 C394 1.478 . S
C396 C398 1.381 . S
C396 C402 1.383 . S
C397 C393 1.495 . S
C397 H403 0.959 . S
C397 H404 0.961 . S
C397 H405 0.960 . S
C398 C396 1.381 . S
C398 C399 1.394 . S
C398 H406 0.930 . S
C399 C398 1.394 . S
C399 C400 1.383 . S
C399 H407 0.929 . S
C400 C399 1.383 . S
C400 C401 1.377 . S
C401 H385 0.930 . S
C401 C400 1.377 . S
C401 C402 1.379 . S
C402 H386 0.931 . S
C402 C396 1.383 . S
C402 C401 1.379 . S
H403 C397 0.959 . S
H404 C397 0.961 . S
H405 C397 0.960 . S
H406 C398 0.930 . S
H407 C399 0.929 . S
H408 C416 0.929 . S
H409 C418 0.930 . S
H410 C420 0.930 . S
H411 C423 0.929 . S
H412 C426 0.930 . S
H413 C428 0.960 . S
H414 C428 0.960 . S
H415 C428 0.960 . S
C416 H408 0.929 . S
C416 C417 1.377 . S
C416 C418 1.384 . S
C417 C416 1.377 . S
C417 C423 1.390 . S
C418 H409 0.930 . S
C418 C416 1.384 . S
C418 C419 1.372 . S
C419 C418 1.372 . S
C419 C420 1.400 . S
C419 C424 1.490 . S
C420 H410 0.930 . S
C420 C419 1.400 . S
C420 C423 1.386 . S
H421 C437 0.930 . S
H422 C438 0.931 . S
C423 H411 0.929 . S
C423 C417 1.390 . S
C423 C420 1.386 . S
C424 C419 1.490 . S
C424 C426 1.395 . S
C424 C427 1.403 . S
H425 C431 0.930 . S
C426 H412 0.930 . S
C426 C424 1.395 . S
C426 C429 1.403 . S
C427 C424 1.403 . S
C427 C428 1.524 . S
C427 C431 1.400 . S
C428 H413 0.960 . S
C428 H414 0.960 . S
C428 H415 0.960 . S
C428 C427 1.524 . S
C429 C426 1.403 . S
C429 C430 1.392 . S
C429 C433 1.495 . S
C430 C429 1.392 . S
C430 C431 1.385 . S
C430 C432 1.478 . S
C431 H425 0.930 . S
C431 C427 1.400 . S
C431 C430 1.385 . S
C432 C430 1.478 . S
C432 C434 1.381 . S
C432 C438 1.383 . S
C433 C429 1.495 . S
C433 H439 0.959 . S
C433 H440 0.961 . S
C433 H441 0.960 . S
C434 C432 1.381 . S
C434 C435 1.394 . S
C434 H442 0.930 . S
C435 C434 1.394 . S
C435 C436 1.383 . S
C435 H443 0.929 . S
C436 C435 1.383 . S
C436 C437 1.377 . S
C437 H421 0.930 . S
C437 C436 1.377 . S
C437 C438 1.379 . S
C438 H422 0.931 . S
C438 C432 1.383 . S
C438 C437 1.379 . S
H439 C433 0.959 . S
H440 C433 0.961 . S
H441 C433 0.960 . S
H442 C434 0.930 . S
H443 C435 0.929 . S
H444 C452 0.929 . S
H445 C454 0.930 . S
H446 C456 0.930 . S
H447 C459 0.929 . S
H448 C462 0.930 . S
H449 C464 0.960 . S
H450 C464 0.960 . S
H451 C464 0.960 . S
C452 H444 0.929 . S
C452 C453 1.377 . S
C452 C454 1.384 . S
C453 C452 1.377 . S
C453 C459 1.390 . S
C454 H445 0.930 . S
C454 C452 1.384 . S
C454 C455 1.372 . S
C455 C454 1.372 . S
C455 C456 1.400 . S
C455 C460 1.490 . S
C456 H446 0.930 . S
C456 C455 1.400 . S
C456 C459 1.386 . S
H457 C473 0.930 . S
H458 C474 0.931 . S
C459 H447 0.929 . S
C459 C453 1.390 . S
C459 C456 1.386 . S
C460 C455 1.490 . S
C460 C462 1.395 1_455 S
C460 C463 1.403 . S
H461 C467 0.930 . S
C462 H448 0.930 . S
C462 C460 1.395 1_655 S
C462 C465 1.403 . S
C463 C460 1.403 . S
C463 C464 1.524 . S
C463 C467 1.400 . S
C464 H449 0.960 . S
C464 H450 0.960 . S
C464 H451 0.960 . S
C464 C463 1.524 . S
C465 C462 1.403 . S
C465 C466 1.392 . S
C465 C469 1.495 . S
C466 C465 1.392 . S
C466 C467 1.385 1_655 S
C466 C468 1.478 . S
C467 H461 0.930 . S
C467 C463 1.400 . S
C467 C466 1.385 1_455 S
C468 C466 1.478 . S
C468 C470 1.381 . S
C468 C474 1.383 . S
C469 C465 1.495 . S
C469 H475 0.959 . S
C469 H476 0.961 . S
C469 H477 0.960 . S
C470 C468 1.381 . S
C470 C471 1.394 . S
C470 H478 0.930 . S
C471 C470 1.394 . S
C471 C472 1.383 . S
C471 H479 0.929 . S
C472 C471 1.383 . S
C472 C473 1.377 . S
C473 H457 0.930 . S
C473 C472 1.377 . S
C473 C474 1.379 . S
C474 H458 0.931 . S
C474 C468 1.383 . S
C474 C473 1.379 . S
H475 C469 0.959 . S
H476 C469 0.961 . S
H477 C469 0.960 . S
H478 C470 0.930 . S
H479 C471 0.929 . S
H480 C488 0.929 . S
H481 C490 0.930 . S
H482 C492 0.930 . S
H483 C495 0.929 . S
H484 C498 0.930 1_545 S
H485 C500 0.960 . S
H486 C500 0.960 . S
H487 C500 0.960 1_545 S
C488 H480 0.929 . S
C488 C489 1.377 . S
C488 C490 1.384 . S
C489 C488 1.377 . S
C489 C495 1.390 . S
C490 H481 0.930 . S
C490 C488 1.384 . S
C490 C491 1.372 . S
C491 C490 1.372 . S
C491 C492 1.400 . S
C491 C496 1.475 1_545 S
C492 H482 0.930 . S
C492 C491 1.400 . S
C492 C495 1.386 . S
H493 C509 0.930 . S
H494 C510 0.931 . S
C495 H483 0.929 . S
C495 C489 1.390 . S
C495 C492 1.386 . S
C496 C491 1.475 1_565 S
C496 C498 1.398 . S
C496 C499 1.415 . S
H497 C503 0.930 . S
C498 H484 0.930 1_565 S
C498 C496 1.398 . S
C498 C501 1.403 . S
C499 C496 1.415 . S
C499 C500 1.524 . S
C499 C503 1.400 . S
C500 H485 0.960 . S
C500 H486 0.960 . S
C500 H487 0.960 1_565 S
C500 C499 1.524 . S
C501 C498 1.403 . S
C501 C502 1.392 . S
C501 C505 1.495 . S
C502 C501 1.392 . S
C502 C503 1.385 . S
C502 C504 1.478 . S
C503 H497 0.930 . S
C503 C499 1.400 . S
C503 C502 1.385 . S
C504 C502 1.478 . S
C504 C506 1.381 . S
C504 C510 1.383 . S
C505 C501 1.495 . S
C505 H511 0.959 . S
C505 H512 0.961 . S
C505 H513 0.960 . S
C506 C504 1.381 . S
C506 C507 1.394 . S
C506 H514 0.930 . S
C507 C506 1.394 . S
C507 C508 1.383 . S
C507 H515 0.929 . S
C508 C507 1.383 . S
C508 C509 1.377 . S
C509 H493 0.930 . S
C509 C508 1.377 . S
C509 C510 1.379 . S
C510 H494 0.931 . S
C510 C504 1.383 . S
C510 C509 1.379 . S
H511 C505 0.959 . S
H512 C505 0.961 . S
H513 C505 0.960 . S
H514 C506 0.930 . S
H515 C507 0.929 . S
H516 C524 0.929 . S
H517 C526 0.930 . S
H518 C528 0.930 . S
H519 C531 0.929 . S
H520 C534 0.930 . S
H521 C536 0.960 . S
H522 C536 0.960 . S
H523 C536 0.960 . S
C524 H516 0.929 . S
C524 C525 1.377 . S
C524 C526 1.384 . S
C525 C524 1.377 . S
C525 C531 1.390 . S
C526 H517 0.930 . S
C526 C524 1.384 . S
C526 C527 1.372 . S
C527 C526 1.372 . S
C527 C528 1.400 . S
C527 C532 1.490 . S
C528 H518 0.930 . S
C528 C527 1.400 . S
C528 C531 1.386 . S
H529 C545 0.930 . S
H530 C546 0.931 . S
C531 H519 0.929 . S
C531 C525 1.390 . S
C531 C528 1.386 . S
C532 C527 1.490 . S
C532 C534 1.395 . S
C532 C535 1.403 . S
H533 C539 0.930 . S
C534 H520 0.930 . S
C534 C532 1.395 . S
C534 C537 1.403 . S
C535 C532 1.403 . S
C535 C536 1.524 . S
C535 C539 1.400 . S
C536 H521 0.960 . S
C536 H522 0.960 . S
C536 H523 0.960 . S
C536 C535 1.524 . S
C537 C534 1.403 . S
C537 C538 1.392 . S
C537 C541 1.495 . S
C538 C537 1.392 . S
C538 C539 1.385 . S
C538 C540 1.478 . S
C539 H533 0.930 . S
C539 C535 1.400 . S
C539 C538 1.385 . S
C540 C538 1.478 . S
C540 C542 1.381 . S
C540 C546 1.383 . S
C541 C537 1.495 . S
C541 H547 0.959 . S
C541 H548 0.961 . S
C541 H549 0.960 . S
C542 C540 1.381 . S
C542 C543 1.394 . S
C542 H550 0.930 . S
C543 C542 1.394 . S
C543 C544 1.383 . S
C543 H551 0.929 . S
C544 C543 1.383 . S
C544 C545 1.377 . S
C545 H529 0.930 . S
C545 C544 1.377 . S
C545 C546 1.379 . S
C546 H530 0.931 . S
C546 C540 1.383 . S
C546 C545 1.379 . S
H547 C541 0.959 . S
H548 C541 0.961 . S
H549 C541 0.960 . S
H550 C542 0.930 . S
H551 C543 0.929 . S
H552 C560 0.908 1_554 S
H553 C562 0.930 1_545 S
H554 C564 0.930 . S
H555 C567 0.929 . S
H556 C570 0.930 . S
H557 C572 0.942 1_545 S
H558 C572 0.960 . S
H559 C572 0.999 . S
C560 H552 0.908 1_556 S
C560 C561 1.377 . S
C560 C562 1.384 . S
C561 C560 1.377 . S
C561 C567 1.390 . S
C562 H553 0.930 1_565 S
C562 C560 1.384 . S
C562 C563 1.372 . S
C563 C562 1.372 . S
C563 C564 1.400 . S
C563 C568 1.490 1_565 S
C564 H554 0.930 . S
C564 C563 1.400 . S
C564 C567 1.386 . S
H565 C581 0.930 . S
H566 C582 0.931 . S
C567 H555 0.929 . S
C567 C561 1.390 . S
C567 C564 1.386 . S
C568 C563 1.490 1_545 S
C568 C570 1.395 . S
C568 C571 1.403 . S
H569 C575 0.930 . S
C570 H556 0.930 . S
C570 C568 1.395 . S
C570 C573 1.403 . S
C571 C568 1.403 . S
C571 C572 1.503 1_545 S
C571 C575 1.400 . S
C572 H557 0.942 1_565 S
C572 H558 0.960 . S
C572 H559 0.999 . S
C572 C571 1.503 1_565 S
C573 C570 1.403 . S
C573 C574 1.392 . S
C573 C577 1.495 . S
C574 C573 1.392 . S
C574 C575 1.385 . S
C574 C576 1.478 . S
C575 H569 0.930 . S
C575 C571 1.400 . S
C575 C574 1.385 . S
C576 C574 1.478 . S
C576 C578 1.381 . S
C576 C582 1.383 . S
C577 C573 1.495 . S
C577 H583 0.959 . S
C577 H584 0.961 . S
C577 H585 0.960 . S
C578 C576 1.381 . S
C578 C579 1.394 . S
C578 H586 0.930 . S
C579 C578 1.394 . S
C579 C580 1.383 . S
C579 H587 0.929 . S
C580 C579 1.383 . S
C580 C581 1.377 . S
C581 H565 0.930 . S
C581 C580 1.377 . S
C581 C582 1.379 . S
C582 H566 0.931 . S
C582 C576 1.383 . S
C582 C581 1.379 . S
H583 C577 0.959 . S
H584 C577 0.961 . S
H585 C577 0.960 . S
H586 C578 0.930 . S
H587 C579 0.929 . S
H588 C596 0.929 . S
H589 C598 0.930 . S
H590 C600 0.930 . S
H591 C603 0.929 . S
H592 C606 0.930 . S
H593 C608 0.960 . S
H594 C608 0.960 . S
H595 C608 0.960 . S
C596 H588 0.929 . S
C596 C597 1.377 . S
C596 C598 1.384 . S
C597 C596 1.377 . S
C597 C603 1.390 . S
C598 H589 0.930 . S
C598 C596 1.384 . S
C598 C599 1.372 . S
C599 C598 1.372 . S
C599 C600 1.400 . S
C599 C604 1.490 . S
C600 H590 0.930 . S
C600 C599 1.400 . S
C600 C603 1.386 . S
H601 C617 0.930 . S
H602 C618 0.931 . S
C603 H591 0.929 . S
C603 C597 1.390 . S
C603 C600 1.386 . S
C604 C599 1.490 . S
C604 C606 1.395 . S
C604 C607 1.403 . S
H605 C611 0.930 . S
C606 H592 0.930 . S
C606 C604 1.395 . S
C606 C609 1.403 . S
C607 C604 1.403 . S
C607 C608 1.524 . S
C607 C611 1.400 . S
C608 H593 0.960 . S
C608 H594 0.960 . S
C608 H595 0.960 . S
C608 C607 1.524 . S
C609 C606 1.403 . S
C609 C610 1.392 . S
C609 C613 1.495 . S
C610 C609 1.392 . S
C610 C611 1.385 . S
C610 C612 1.478 . S
C611 H605 0.930 . S
C611 C607 1.400 . S
C611 C610 1.385 . S
C612 C610 1.478 . S
C612 C614 1.381 . S
C612 C618 1.383 . S
C613 C609 1.495 . S
C613 H619 0.959 . S
C613 H620 0.961 . S
C613 H621 0.960 . S
C614 C612 1.381 . S
C614 C615 1.394 . S
C614 H622 0.930 . S
C615 C614 1.394 . S
C615 C616 1.383 . S
C615 H623 0.929 . S
C616 C615 1.383 . S
C616 C617 1.377 . S
C617 H601 0.930 . S
C617 C616 1.377 . S
C617 C618 1.379 . S
C618 H602 0.931 . S
C618 C612 1.383 . S
C618 C617 1.379 . S
H619 C613 0.959 . S
H620 C613 0.961 . S
H621 C613 0.960 . S
H622 C614 0.930 . S
H623 C615 0.929 . S
H624 C632 0.929 . S
H625 C634 0.930 . S
H626 C636 0.930 . S
H627 C639 0.929 . S
H628 C642 0.930 . S
H629 C644 0.960 . S
H630 C644 0.960 . S
H631 C644 0.960 . S
C632 H624 0.929 . S
C632 C633 1.377 . S
C632 C634 1.384 . S
C633 C632 1.377 . S
C633 C639 1.390 . S
C634 H625 0.930 . S
C634 C632 1.384 . S
C634 C635 1.372 . S
C635 C634 1.372 . S
C635 C636 1.400 . S
C635 C640 1.490 . S
C636 H626 0.930 . S
C636 C635 1.400 . S
C636 C639 1.386 . S
H637 C653 0.930 . S
H638 C654 0.931 . S
C639 H627 0.929 . S
C639 C633 1.390 . S
C639 C636 1.386 . S
C640 C635 1.490 . S
C640 C642 1.395 . S
C640 C643 1.403 . S
H641 C647 0.930 . S
C642 H628 0.930 . S
C642 C640 1.395 . S
C642 C645 1.403 . S
C643 C640 1.403 . S
C643 C644 1.524 . S
C643 C647 1.400 . S
C644 H629 0.960 . S
C644 H630 0.960 . S
C644 H631 0.960 . S
C644 C643 1.524 . S
C645 C642 1.403 . S
C645 C646 1.392 . S
C645 C649 1.495 . S
C646 C645 1.392 . S
C646 C647 1.385 . S
C646 C648 1.478 . S
C647 H641 0.930 . S
C647 C643 1.400 . S
C647 C646 1.385 . S
C648 C646 1.478 . S
C648 C650 1.381 . S
C648 C654 1.383 . S
C649 C645 1.495 . S
C649 H655 0.959 . S
C649 H656 0.961 . S
C649 H657 0.960 . S
C650 C648 1.381 . S
C650 C651 1.394 . S
C650 H658 0.930 . S
C651 C650 1.394 . S
C651 C652 1.383 . S
C651 H659 0.929 . S
C652 C651 1.383 . S
C652 C653 1.377 . S
C653 H637 0.930 . S
C653 C652 1.377 . S
C653 C654 1.379 . S
C654 H638 0.931 . S
C654 C648 1.383 . S
C654 C653 1.379 . S
H655 C649 0.959 . S
H656 C649 0.961 . S
H657 C649 0.960 . S
H658 C650 0.930 . S
H659 C651 0.929 . S
H660 C668 0.929 . S
H661 C670 0.930 . S
H662 C672 0.931 . S
H663 C675 0.929 . S
H664 C678 0.930 . S
H665 C680 0.960 . S
H666 C680 0.960 . S
H667 C680 0.960 . S
C668 H660 0.929 . S
C668 C669 1.377 . S
C668 C670 1.384 . S
C669 C668 1.377 . S
C669 C675 1.390 . S
C670 H661 0.930 . S
C670 C668 1.384 . S
C670 C671 1.374 1_455 S
C671 C670 1.374 1_655 S
C671 C672 1.401 1_655 S
C671 C676 1.487 . S
C672 H662 0.931 . S
C672 C671 1.401 1_455 S
C672 C675 1.386 . S
H673 C689 0.930 . S
H674 C690 0.931 . S
C675 H663 0.929 . S
C675 C669 1.390 . S
C675 C672 1.386 . S
C676 C671 1.487 . S
C676 C678 1.395 . S
C676 C679 1.403 . S
H677 C683 0.930 . S
C678 H664 0.930 . S
C678 C676 1.395 . S
C678 C681 1.403 . S
C679 C676 1.403 . S
C679 C680 1.524 . S
C679 C683 1.400 . S
C680 H665 0.960 . S
C680 H666 0.960 . S
C680 H667 0.960 . S
C680 C679 1.524 . S
C681 C678 1.403 . S
C681 C682 1.392 . S
C681 C685 1.495 . S
C682 C681 1.392 . S
C682 C683 1.385 . S
C682 C684 1.478 . S
C683 H677 0.930 . S
C683 C679 1.400 . S
C683 C682 1.385 . S
C684 C682 1.478 . S
C684 C686 1.381 . S
C684 C690 1.383 . S
C685 C681 1.495 . S
C685 H691 0.959 . S
C685 H692 0.961 . S
C685 H693 0.960 . S
C686 C684 1.381 . S
C686 C687 1.394 . S
C686 H694 0.930 . S
C687 C686 1.394 . S
C687 C688 1.383 . S
C687 H695 0.929 . S
C688 C687 1.383 . S
C688 C689 1.377 . S
C689 H673 0.930 . S
C689 C688 1.377 . S
C689 C690 1.379 . S
C690 H674 0.931 . S
C690 C684 1.383 . S
C690 C689 1.379 . S
H691 C685 0.959 . S
H692 C685 0.961 . S
H693 C685 0.960 . S
H694 C686 0.930 . S
H695 C687 0.929 . S
H696 C704 0.929 . S
H697 C706 0.930 . S
H698 C708 0.930 . S
H699 C711 0.929 . S
H700 C714 0.930 . S
H701 C716 0.960 . S
H702 C716 0.960 . S
H703 C716 0.960 . S
C704 H696 0.929 . S
C704 C705 1.377 . S
C704 C706 1.384 . S
C705 C704 1.377 . S
C705 C711 1.390 . S
C706 H697 0.930 . S
C706 C704 1.384 . S
C706 C707 1.372 . S
C707 C706 1.372 . S
C707 C708 1.400 . S
C707 C712 1.490 . S
C708 H698 0.930 . S
C708 C707 1.400 . S
C708 C711 1.386 . S
H709 C725 0.930 . S
H710 C726 0.931 . S
C711 H699 0.929 . S
C711 C705 1.390 . S
C711 C708 1.386 . S
C712 C707 1.490 . S
C712 C714 1.395 . S
C712 C715 1.403 . S
H713 C719 0.930 . S
C714 H700 0.930 . S
C714 C712 1.395 . S
C714 C717 1.403 . S
C715 C712 1.403 . S
C715 C716 1.524 . S
C715 C719 1.400 . S
C716 H701 0.960 . S
C716 H702 0.960 . S
C716 H703 0.960 . S
C716 C715 1.524 . S
C717 C714 1.403 . S
C717 C718 1.392 . S
C717 C721 1.495 . S
C718 C717 1.392 . S
C718 C719 1.385 . S
C718 C720 1.478 . S
C719 H713 0.930 . S
C719 C715 1.400 . S
C719 C718 1.385 . S
C720 C718 1.478 . S
C720 C722 1.381 . S
C720 C726 1.383 . S
C721 C717 1.495 . S
C721 H727 0.959 . S
C721 H728 0.961 . S
C721 H729 0.960 . S
C722 C720 1.381 . S
C722 C723 1.394 . S
C722 H730 0.930 . S
C723 C722 1.394 . S
C723 C724 1.383 . S
C723 H731 0.929 . S
C724 C723 1.383 . S
C724 C725 1.377 . S
C725 H709 0.930 . S
C725 C724 1.377 . S
C725 C726 1.379 . S
C726 H710 0.931 . S
C726 C720 1.383 . S
C726 C725 1.379 . S
H727 C721 0.959 . S
H728 C721 0.961 . S
H729 C721 0.960 . S
H730 C722 0.930 . S
H731 C723 0.929 . S
H732 C740 0.929 . S
H733 C742 0.930 . S
H734 C744 0.930 . S
H735 C747 0.929 . S
H736 C750 0.930 . S
H737 C752 0.960 . S
H738 C752 0.960 . S
H739 C752 0.960 . S
C740 H732 0.929 . S
C740 C741 1.377 . S
C740 C742 1.384 . S
C741 C740 1.377 . S
C741 C747 1.390 . S
C742 H733 0.930 . S
C742 C740 1.384 . S
C742 C743 1.372 . S
C743 C742 1.372 . S
C743 C744 1.400 . S
C743 C748 1.490 . S
C744 H734 0.930 . S
C744 C743 1.400 . S
C744 C747 1.386 . S
H745 C761 0.930 . S
H746 C762 0.931 . S
C747 H735 0.929 . S
C747 C741 1.390 . S
C747 C744 1.386 . S
C748 C743 1.490 . S
C748 C750 1.395 . S
C748 C751 1.403 1_655 S
H749 C755 0.930 . S
C750 H736 0.930 . S
C750 C748 1.395 . S
C750 C753 1.403 . S
C751 C748 1.403 1_455 S
C751 C752 1.524 . S
C751 C755 1.400 . S
C752 H737 0.960 . S
C752 H738 0.960 . S
C752 H739 0.960 . S
C752 C751 1.524 . S
C753 C750 1.403 . S
C753 C754 1.392 1_655 S
C753 C757 1.495 . S
C754 C753 1.392 1_455 S
C754 C755 1.385 . S
C754 C756 1.478 . S
C755 H749 0.930 . S
C755 C751 1.400 . S
C755 C754 1.385 . S
C756 C754 1.478 . S
C756 C758 1.381 . S
C756 C762 1.383 . S
C757 C753 1.495 . S
C757 H763 0.959 . S
C757 H764 0.961 . S
C757 H765 0.960 . S
C758 C756 1.381 . S
C758 C759 1.394 . S
C758 H766 0.930 . S
C759 C758 1.394 . S
C759 C760 1.383 . S
C759 H767 0.929 . S
C760 C759 1.383 . S
C760 C761 1.377 . S
C761 H745 0.930 . S
C761 C760 1.377 . S
C761 C762 1.379 . S
C762 H746 0.931 . S
C762 C756 1.383 . S
C762 C761 1.379 . S
H763 C757 0.959 . S
H764 C757 0.961 . S
H765 C757 0.960 . S
H766 C758 0.930 . S
H767 C759 0.929 . S
H768 C776 0.929 . S
H769 C778 0.930 . S
H770 C780 0.930 . S
H771 C783 0.929 . S
H772 C786 0.930 . S
H773 C788 0.960 . S
H774 C788 0.960 . S
H775 C788 0.960 . S
C776 H768 0.929 . S
C776 C777 1.377 . S
C776 C778 1.384 . S
C777 C776 1.377 . S
C777 C783 1.390 . S
C778 H769 0.930 . S
C778 C776 1.384 . S
C778 C779 1.372 . S
C779 C778 1.372 . S
C779 C780 1.400 . S
C779 C784 1.490 . S
C780 H770 0.930 . S
C780 C779 1.400 . S
C780 C783 1.386 . S
H781 C797 0.930 . S
H782 C798 0.931 . S
C783 H771 0.929 . S
C783 C777 1.390 . S
C783 C780 1.386 . S
C784 C779 1.490 . S
C784 C786 1.395 . S
C784 C787 1.403 . S
H785 C791 0.930 . S
C786 H772 0.930 . S
C786 C784 1.395 . S
C786 C789 1.403 . S
C787 C784 1.403 . S
C787 C788 1.524 . S
C787 C791 1.400 . S
C788 H773 0.960 . S
C788 H774 0.960 . S
C788 H775 0.960 . S
C788 C787 1.524 . S
C789 C786 1.403 . S
C789 C790 1.392 . S
C789 C793 1.495 . S
C790 C789 1.392 . S
C790 C791 1.385 . S
C790 C792 1.478 . S
C791 H785 0.930 . S
C791 C787 1.400 . S
C791 C790 1.385 . S
C792 C790 1.478 . S
C792 C794 1.381 . S
C792 C798 1.383 . S
C793 C789 1.495 . S
C793 H799 0.959 . S
C793 H800 0.961 . S
C793 H801 0.960 . S
C794 C792 1.381 . S
C794 C795 1.394 . S
C794 H802 0.930 . S
C795 C794 1.394 . S
C795 C796 1.383 . S
C795 H803 0.929 . S
C796 C795 1.383 . S
C796 C797 1.377 . S
C797 H781 0.930 . S
C797 C796 1.377 . S
C797 C798 1.379 . S
C798 H782 0.931 . S
C798 C792 1.383 . S
C798 C797 1.379 . S
H799 C793 0.959 . S
H800 C793 0.961 . S
H801 C793 0.960 . S
H802 C794 0.930 . S
H803 C795 0.929 . S
H804 C812 0.929 . S
H805 C814 0.930 . S
H806 C816 0.930 . S
H807 C819 0.929 . S
H808 C822 0.930 . S
H809 C824 0.960 . S
H810 C824 0.960 . S
H811 C824 0.960 . S
C812 H804 0.929 . S
C812 C813 1.377 . S
C812 C814 1.384 . S
C813 C812 1.377 . S
C813 C819 1.390 . S
C814 H805 0.930 . S
C814 C812 1.384 . S
C814 C815 1.372 . S
C815 C814 1.372 . S
C815 C816 1.400 . S
C815 C820 1.490 . S
C816 H806 0.930 . S
C816 C815 1.400 . S
C816 C819 1.386 . S
H817 C833 0.930 . S
H818 C834 0.931 . S
C819 H807 0.929 . S
C819 C813 1.390 . S
C819 C816 1.386 . S
C820 C815 1.490 . S
C820 C822 1.395 . S
C820 C823 1.403 . S
H821 C827 0.930 . S
C822 H808 0.930 . S
C822 C820 1.395 . S
C822 C825 1.403 . S
C823 C820 1.403 . S
C823 C824 1.524 . S
C823 C827 1.400 . S
C824 H809 0.960 . S
C824 H810 0.960 . S
C824 H811 0.960 . S
C824 C823 1.524 . S
C825 C822 1.403 . S
C825 C826 1.392 . S
C825 C829 1.495 . S
C826 C825 1.392 . S
C826 C827 1.385 . S
C826 C828 1.478 . S
C827 H821 0.930 . S
C827 C823 1.400 . S
C827 C826 1.385 . S
C828 C826 1.478 . S
C828 C830 1.381 . S
C828 C834 1.383 . S
C829 C825 1.495 . S
C829 H835 0.959 . S
C829 H836 0.961 . S
C829 H837 0.960 . S
C830 C828 1.381 . S
C830 C831 1.394 . S
C830 H838 0.930 . S
C831 C830 1.394 . S
C831 C832 1.383 . S
C831 H839 0.929 . S
C832 C831 1.383 . S
C832 C833 1.377 . S
C833 H817 0.930 . S
C833 C832 1.377 . S
C833 C834 1.379 . S
C834 H818 0.931 . S
C834 C828 1.383 . S
C834 C833 1.379 . S
H835 C829 0.959 . S
H836 C829 0.961 . S
H837 C829 0.960 . S
H838 C830 0.930 . S
H839 C831 0.929 . S
H840 C848 0.929 . S
H841 C850 0.930 . S
H842 C852 0.930 . S
H843 C855 0.929 . S
H844 C858 0.930 . S
H845 C860 0.960 . S
H846 C860 0.960 . S
H847 C860 0.960 . S
C848 H840 0.929 . S
C848 C849 1.377 . S
C848 C850 1.384 . S
C849 C848 1.377 . S
C849 C855 1.390 . S
C850 H841 0.930 . S
C850 C848 1.384 . S
C850 C851 1.372 . S
C851 C850 1.372 . S
C851 C852 1.400 . S
C851 C856 1.490 . S
C852 H842 0.930 . S
C852 C851 1.400 . S
C852 C855 1.386 . S
H853 C869 0.930 . S
H854 C870 0.931 . S
C855 H843 0.929 . S
C855 C849 1.390 . S
C855 C852 1.386 . S
C856 C851 1.490 . S
C856 C858 1.395 . S
C856 C859 1.403 . S
H857 C863 0.930 . S
C858 H844 0.930 . S
C858 C856 1.395 . S
C858 C861 1.403 . S
C859 C856 1.403 . S
C859 C860 1.524 . S
C859 C863 1.400 . S
C860 H845 0.960 . S
C860 H846 0.960 . S
C860 H847 0.960 . S
C860 C859 1.524 . S
C861 C858 1.403 . S
C861 C862 1.392 . S
C861 C865 1.495 . S
C862 C861 1.392 . S
C862 C863 1.385 . S
C862 C864 1.478 . S
C863 H857 0.930 . S
C863 C859 1.400 . S
C863 C862 1.385 . S
C864 C862 1.478 . S
C864 C866 1.381 . S
C864 C870 1.383 . S
C865 C861 1.495 . S
C865 H871 0.959 . S
C865 H872 0.961 . S
C865 H873 0.960 . S
C866 C864 1.381 . S
C866 C867 1.394 . S
C866 H874 0.930 . S
C867 C866 1.394 . S
C867 C868 1.383 . S
C867 H875 0.929 . S
C868 C867 1.383 . S
C868 C869 1.377 . S
C869 H853 0.930 . S
C869 C868 1.377 . S
C869 C870 1.379 . S
C870 H854 0.931 . S
C870 C864 1.383 . S
C870 C869 1.379 . S
H871 C865 0.959 . S
H872 C865 0.961 . S
H873 C865 0.960 . S
H874 C866 0.930 . S
H875 C867 0.929 . S
H876 C884 0.929 . S
H877 C886 0.930 . S
H878 C888 0.930 . S
H879 C891 0.929 . S
H880 C894 0.930 . S
H881 C896 0.960 . S
H882 C896 0.960 . S
H883 C896 0.960 . S
C884 H876 0.929 . S
C884 C885 1.377 . S
C884 C886 1.384 . S
C885 C884 1.377 . S
C885 C891 1.390 . S
C886 H877 0.930 . S
C886 C884 1.384 . S
C886 C887 1.372 . S
C887 C886 1.372 . S
C887 C888 1.400 . S
C887 C892 1.490 . S
C888 H878 0.930 . S
C888 C887 1.400 . S
C888 C891 1.386 . S
H889 C905 0.930 . S
H890 C906 0.931 . S
C891 H879 0.929 . S
C891 C885 1.390 . S
C891 C888 1.386 . S
C892 C887 1.490 . S
C892 C894 1.395 . S
C892 C895 1.403 . S
H893 C899 0.930 . S
C894 H880 0.930 . S
C894 C892 1.395 . S
C894 C897 1.403 . S
C895 C892 1.403 . S
C895 C896 1.524 . S
C895 C899 1.400 . S
C896 H881 0.960 . S
C896 H882 0.960 . S
C896 H883 0.960 . S
C896 C895 1.524 . S
C897 C894 1.403 . S
C897 C898 1.392 . S
C897 C901 1.495 . S
C898 C897 1.392 . S
C898 C899 1.385 . S
C898 C900 1.478 . S
C899 H893 0.930 . S
C899 C895 1.400 . S
C899 C898 1.385 . S
C900 C898 1.478 . S
C900 C902 1.381 . S
C900 C906 1.383 . S
C901 C897 1.495 . S
C901 H907 0.959 . S
C901 H908 0.961 . S
C901 H909 0.960 . S
C902 C900 1.381 . S
C902 C903 1.394 . S
C902 H910 0.930 . S
C903 C902 1.394 . S
C903 C904 1.383 . S
C903 H911 0.929 . S
C904 C903 1.383 . S
C904 C905 1.377 . S
C905 H889 0.930 . S
C905 C904 1.377 . S
C905 C906 1.379 . S
C906 H890 0.931 . S
C906 C900 1.383 . S
C906 C905 1.379 . S
H907 C901 0.959 . S
H908 C901 0.961 . S
H909 C901 0.960 . S
H910 C902 0.930 . S
H911 C903 0.929 . S
H912 C920 0.929 . S
H913 C922 0.930 . S
H914 C924 0.930 . S
H915 C927 0.929 . S
H916 C930 0.930 . S
H917 C932 0.960 . S
H918 C932 0.960 . S
H919 C932 0.960 . S
C920 H912 0.929 . S
C920 C921 1.377 . S
C920 C922 1.384 . S
C921 C920 1.377 . S
C921 C927 1.390 . S
C922 H913 0.930 . S
C922 C920 1.384 . S
C922 C923 1.372 . S
C923 C922 1.372 . S
C923 C924 1.400 . S
C923 C928 1.490 . S
C924 H914 0.930 . S
C924 C923 1.400 . S
C924 C927 1.386 . S
H925 C941 0.930 . S
H926 C942 0.931 . S
C927 H915 0.929 . S
C927 C921 1.390 . S
C927 C924 1.386 . S
C928 C923 1.490 . S
C928 C930 1.395 . S
C928 C931 1.403 . S
H929 C935 0.930 . S
C930 H916 0.930 . S
C930 C928 1.395 . S
C930 C933 1.403 . S
C931 C928 1.403 . S
C931 C932 1.524 . S
C931 C935 1.400 . S
C932 H917 0.960 . S
C932 H918 0.960 . S
C932 H919 0.960 . S
C932 C931 1.524 . S
C933 C930 1.403 . S
C933 C934 1.392 . S
C933 C937 1.495 . S
C934 C933 1.392 . S
C934 C935 1.385 . S
C934 C936 1.478 . S
C935 H929 0.930 . S
C935 C931 1.400 . S
C935 C934 1.385 . S
C936 C934 1.478 . S
C936 C938 1.381 . S
C936 C942 1.383 . S
C937 C933 1.495 . S
C937 H943 0.959 . S
C937 H944 0.961 . S
C937 H945 0.960 . S
C938 C936 1.381 . S
C938 C939 1.394 . S
C938 H946 0.930 . S
C939 C938 1.394 . S
C939 C940 1.383 . S
C939 H947 0.929 . S
C940 C939 1.383 . S
C940 C941 1.377 . S
C941 H925 0.930 . S
C941 C940 1.377 . S
C941 C942 1.379 . S
C942 H926 0.931 . S
C942 C936 1.383 . S
C942 C941 1.379 . S
H943 C937 0.959 . S
H944 C937 0.961 . S
H945 C937 0.960 . S
H946 C938 0.930 . S
H947 C939 0.929 . S
H948 C956 0.929 . S
H949 C958 0.930 . S
H950 C960 0.930 . S
H951 C963 0.929 . S
H952 C966 0.930 . S
H953 C968 0.960 . S
H954 C968 0.960 . S
H955 C968 0.960 . S
C956 H948 0.929 . S
C956 C957 1.377 . S
C956 C958 1.384 . S
C957 C956 1.377 . S
C957 C963 1.390 . S
C958 H949 0.930 . S
C958 C956 1.384 . S
C958 C959 1.372 . S
C959 C958 1.372 . S
C959 C960 1.400 . S
C959 C964 1.490 . S
C960 H950 0.930 . S
C960 C959 1.400 . S
C960 C963 1.386 . S
H961 C977 0.930 . S
H962 C978 0.931 . S
C963 H951 0.929 . S
C963 C957 1.390 . S
C963 C960 1.386 . S
C964 C959 1.490 . S
C964 C966 1.395 . S
C964 C967 1.403 . S
H965 C971 0.930 . S
C966 H952 0.930 . S
C966 C964 1.395 . S
C966 C969 1.403 . S
C967 C964 1.403 . S
C967 C968 1.524 . S
C967 C971 1.400 . S
C968 H953 0.960 . S
C968 H954 0.960 . S
C968 H955 0.960 . S
C968 C967 1.524 . S
C969 C966 1.403 . S
C969 C970 1.392 . S
C969 C973 1.495 . S
C970 C969 1.392 . S
C970 C971 1.385 . S
C970 C972 1.478 . S
C971 H965 0.930 . S
C971 C967 1.400 . S
C971 C970 1.385 . S
C972 C970 1.478 . S
C972 C974 1.381 . S
C972 C978 1.383 . S
C973 C969 1.495 . S
C973 H979 0.959 . S
C973 H980 0.961 . S
C973 H981 0.960 . S
C974 C972 1.381 . S
C974 C975 1.394 . S
C974 H982 0.930 . S
C975 C974 1.394 . S
C975 C976 1.383 . S
C975 H983 0.929 . S
C976 C975 1.383 . S
C976 C977 1.377 . S
C977 H961 0.930 . S
C977 C976 1.377 . S
C977 C978 1.379 . S
C978 H962 0.931 . S
C978 C972 1.383 . S
C978 C977 1.379 . S
H979 C973 0.959 . S
H980 C973 0.961 . S
H981 C973 0.960 . S
H982 C974 0.930 . S
H983 C975 0.929 . S
H984 C992 0.929 . S
H985 C994 0.930 . S
H986 C996 0.930 . S
H987 C999 0.929 . S
H988 C1002 0.930 . S
H989 C1004 0.960 . S
H990 C1004 0.960 . S
H991 C1004 0.960 . S
C992 H984 0.929 . S
C992 C993 1.377 . S
C992 C994 1.384 . S
C993 C992 1.377 . S
C993 C999 1.390 . S
C994 H985 0.930 . S
C994 C992 1.384 . S
C994 C995 1.372 . S
C995 C994 1.372 . S
C995 C996 1.400 . S
C995 C1000 1.490 . S
C996 H986 0.930 . S
C996 C995 1.400 . S
C996 C999 1.386 . S
H997 C1013 0.930 . S
H998 C1014 0.931 . S
C999 H987 0.929 . S
C999 C993 1.390 . S
C999 C996 1.386 . S
C1000 C995 1.490 . S
C1000 C1002 1.395 . S
C1000 C1003 1.403 . S
H1001 C1007 0.930 . S
C1002 H988 0.930 . S
C1002 C1000 1.395 . S
C1002 C1005 1.403 . S
C1003 C1000 1.403 . S
C1003 C1004 1.524 . S
C1003 C1007 1.400 . S
C1004 H989 0.960 . S
C1004 H990 0.960 . S
C1004 H991 0.960 . S
C1004 C1003 1.524 . S
C1005 C1002 1.403 . S
C1005 C1006 1.392 . S
C1005 C1009 1.495 . S
C1006 C1005 1.392 . S
C1006 C1007 1.385 . S
C1006 C1008 1.478 . S
C1007 H1001 0.930 . S
C1007 C1003 1.400 . S
C1007 C1006 1.385 . S
C1008 C1006 1.478 . S
C1008 C1010 1.381 . S
C1008 C1014 1.383 . S
C1009 C1005 1.495 . S
C1009 H1015 0.959 . S
C1009 H1016 0.961 . S
C1009 H1017 0.960 . S
C1010 C1008 1.381 . S
C1010 C1011 1.394 . S
C1010 H1018 0.930 . S
C1011 C1010 1.394 . S
C1011 C1012 1.383 . S
C1011 H1019 0.929 . S
C1012 C1011 1.383 . S
C1012 C1013 1.377 . S
C1013 H997 0.930 . S
C1013 C1012 1.377 . S
C1013 C1014 1.379 . S
C1014 H998 0.931 . S
C1014 C1008 1.383 . S
C1014 C1013 1.379 . S
H1015 C1009 0.959 . S
H1016 C1009 0.961 . S
H1017 C1009 0.960 . S
H1018 C1010 0.930 . S
H1019 C1011 0.929 . S
H1020 C1028 0.929 . S
H1021 C1030 0.930 . S
H1022 C1032 0.930 . S
H1023 C1035 0.929 . S
H1024 C1038 0.930 . S
H1025 C1040 0.960 . S
H1026 C1040 0.960 . S
H1027 C1040 0.960 . S
C1028 H1020 0.929 . S
C1028 C1029 1.377 . S
C1028 C1030 1.384 . S
C1029 C1028 1.377 . S
C1029 C1035 1.390 . S
C1030 H1021 0.930 . S
C1030 C1028 1.384 . S
C1030 C1031 1.372 . S
C1031 C1030 1.372 . S
C1031 C1032 1.400 . S
C1031 C1036 1.490 . S
C1032 H1022 0.930 . S
C1032 C1031 1.400 . S
C1032 C1035 1.386 . S
H1033 C1049 0.930 . S
H1034 C1050 0.931 . S
C1035 H1023 0.929 . S
C1035 C1029 1.390 . S
C1035 C1032 1.386 . S
C1036 C1031 1.490 . S
C1036 C1038 1.395 . S
C1036 C1039 1.403 . S
H1037 C1043 0.930 . S
C1038 H1024 0.930 . S
C1038 C1036 1.395 . S
C1038 C1041 1.403 . S
C1039 C1036 1.403 . S
C1039 C1040 1.524 . S
C1039 C1043 1.400 . S
C1040 H1025 0.960 . S
C1040 H1026 0.960 . S
C1040 H1027 0.960 . S
C1040 C1039 1.524 . S
C1041 C1038 1.403 . S
C1041 C1042 1.392 . S
C1041 C1045 1.495 . S
C1042 C1041 1.392 . S
C1042 C1043 1.385 . S
C1042 C1044 1.478 . S
C1043 H1037 0.930 . S
C1043 C1039 1.400 . S
C1043 C1042 1.385 . S
C1044 C1042 1.478 . S
C1044 C1046 1.381 . S
C1044 C1050 1.383 . S
C1045 C1041 1.495 . S
C1045 H1051 0.959 . S
C1045 H1052 0.961 . S
C1045 H1053 0.960 . S
C1046 C1044 1.381 . S
C1046 C1047 1.394 . S
C1046 H1054 0.930 . S
C1047 C1046 1.394 . S
C1047 C1048 1.383 . S
C1047 H1055 0.929 . S
C1048 C1047 1.383 . S
C1048 C1049 1.377 . S
C1049 H1033 0.930 . S
C1049 C1048 1.377 . S
C1049 C1050 1.379 . S
C1050 H1034 0.931 . S
C1050 C1044 1.383 . S
C1050 C1049 1.379 . S
H1051 C1045 0.959 . S
H1052 C1045 0.961 . S
H1053 C1045 0.960 . S
H1054 C1046 0.930 . S
H1055 C1047 0.929 . S
C201 C8 1.287 . S
C220 N93 1.314 . S
C237 C31 1.206 . S
C256 N106 1.205 . S
C273 C53 1.242 . S
C292 N115 1.271 . S
C328 N132 1.306 . S
C309 C74 1.287 . S
C364 N145 1.314 . S
C345 C26 1.290 . S
C381 C48 1.286 . S
C400 N154 1.314 . S
C417 C71 1.240 . S
C436 N167 1.269 . S
C453 C5 1.209 . S
C472 N184 1.208 . S
C489 C50 1.285 . S
C508 N180 1.309 . S
C544 N141 1.205 . S
C525 C70 1.201 . S
C580 N158 1.272 . S
C561 C4 1.239 . S
C597 C28 1.293 . S
C616 N171 1.309 . S
C652 N102 1.310 . S
C633 C73 1.285 . S
C669 C7 1.291 . S
C688 N119 1.314 . S
C724 N128 1.240 . S
C705 C30 1.242 . S
C760 N89 1.224 . S
C741 C52 1.201 . S
C796 N168 1.314 . S
C777 C9 1.318 . S
C832 N181 1.330 . S
C813 C29 1.318 . S
C849 C51 1.310 . S
C868 N142 1.324 . S
C904 N155 1.314 . S
C885 C75 1.321 . S
C940 N116 1.330 . S
C921 C27 1.321 . S
C957 C49 1.317 . S
C976 N129 1.303 . S
C1012 N90 1.322 . S
C993 C72 1.310 . S
C1048 N103 1.313 . S
C1029 C6 1.309 . S
