# Generated by pormake.
# Topology nom, (4,4)-cn, num edge types: 1
# Building blocks:
#     Node 0, Type 0, BuildingBlock: NAWXER_clean_linker_0, # of connection points: 4
#     Node 1, Type 0, BuildingBlock: NAWXER_clean_linker_0, # of connection points: 4
#     Node 2, Type 0, BuildingBlock: NAWXER_clean_linker_0, # of connection points: 4
#     Node 3, Type 0, BuildingBlock: NAWXER_clean_linker_0, # of connection points: 4
#     Node 4, Type 0, BuildingBlock: NAWXER_clean_linker_0, # of connection points: 4
#     Node 5, Type 0, BuildingBlock: NAWXER_clean_linker_0, # of connection points: 4
#     Node 6, Type 1, BuildingBlock: UXUYUI_clean_sbu_0, # of connection points: 4
#     Node 7, Type 1, BuildingBlock: UXUYUI_clean_sbu_0, # of connection points: 4
#     Node 8, Type 1, BuildingBlock: UXUYUI_clean_sbu_0, # of connection points: 4
#     Node 9, Type 1, BuildingBlock: UXUYUI_clean_sbu_0, # of connection points: 4
#     Node 10, Type 1, BuildingBlock: UXUYUI_clean_sbu_0, # of connection points: 4
#     Node 11, Type 1, BuildingBlock: UXUYUI_clean_sbu_0, # of connection points: 4
#     Edge 12, Type (0, 1), BuildingBlock: TEMPAE_clean_linker_10, # of connection points: 2
#     Edge 13, Type (0, 1), BuildingBlock: TEMPAE_clean_linker_10, # of connection points: 2
#     Edge 14, Type (0, 1), BuildingBlock: TEMPAE_clean_linker_10, # of connection points: 2
#     Edge 15, Type (0, 1), BuildingBlock: TEMPAE_clean_linker_10, # of connection points: 2
#     Edge 16, Type (0, 1), BuildingBlock: TEMPAE_clean_linker_10, # of connection points: 2
#     Edge 17, Type (0, 1), BuildingBlock: TEMPAE_clean_linker_10, # of connection points: 2
#     Edge 18, Type (0, 1), BuildingBlock: TEMPAE_clean_linker_10, # of connection points: 2
#     Edge 19, Type (0, 1), BuildingBlock: TEMPAE_clean_linker_10, # of connection points: 2
#     Edge 20, Type (0, 1), BuildingBlock: TEMPAE_clean_linker_10, # of connection points: 2
#     Edge 21, Type (0, 1), BuildingBlock: TEMPAE_clean_linker_10, # of connection points: 2
#     Edge 22, Type (0, 1), BuildingBlock: TEMPAE_clean_linker_10, # of connection points: 2
#     Edge 23, Type (0, 1), BuildingBlock: TEMPAE_clean_linker_10, # of connection points: 2
#     Edge 24, Type (0, 1), BuildingBlock: TEMPAE_clean_linker_10, # of connection points: 2
#     Edge 25, Type (0, 1), BuildingBlock: TEMPAE_clean_linker_10, # of connection points: 2
#     Edge 26, Type (0, 1), BuildingBlock: TEMPAE_clean_linker_10, # of connection points: 2
#     Edge 27, Type (0, 1), BuildingBlock: TEMPAE_clean_linker_10, # of connection points: 2
#     Edge 28, Type (0, 1), BuildingBlock: TEMPAE_clean_linker_10, # of connection points: 2
#     Edge 29, Type (0, 1), BuildingBlock: TEMPAE_clean_linker_10, # of connection points: 2
#     Edge 30, Type (0, 1), BuildingBlock: TEMPAE_clean_linker_10, # of connection points: 2
#     Edge 31, Type (0, 1), BuildingBlock: TEMPAE_clean_linker_10, # of connection points: 2
#     Edge 32, Type (0, 1), BuildingBlock: TEMPAE_clean_linker_10, # of connection points: 2
#     Edge 33, Type (0, 1), BuildingBlock: TEMPAE_clean_linker_10, # of connection points: 2
#     Edge 34, Type (0, 1), BuildingBlock: TEMPAE_clean_linker_10, # of connection points: 2
#     Edge 35, Type (0, 1), BuildingBlock: TEMPAE_clean_linker_10, # of connection points: 2
# Relax obj value: 0.041
# Max RMSD: 0.144
# Mean RMSD: 0.123
data_MOF--net-nom--node1-UXUYUI_clean_sbu_0--node2-NAWXER_clean_linker_0--edge1-TEMPAE_clean_linker_10
_symmetry_space_group_name_H-M    P1
_symmetry_Int_Tables_number       1
_symmetry_cell_setting            triclinic
loop_
_symmetry_equiv_pos_as_xyz
'x, y, z'
_cell_length_a     62.731446
_cell_length_b     62.73211
_cell_length_c     69.741616
_cell_angle_alpha  89.984598
_cell_angle_beta   90.015508
_cell_angle_gamma 120.01143
loop_
_atom_site_label
_atom_site_type_symbol
_atom_site_fract_x
_atom_site_fract_y
_atom_site_fract_z
_atom_type_partial_charge
C0 C 0.93724 0.49855 0.33461 0.0
C1 C 0.92563 0.48061 0.34895 0.0
C2 C 0.96114 0.50565 0.32873 0.0
C3 C 0.97391 0.49487 0.33698 0.0
C4 C 0.93855 0.46995 0.35727 0.0
C5 C 0.96254 0.47717 0.35144 0.0
C6 C -0.00036 0.50331 0.3314 0.0
C7 C 0.95286 0.46366 0.28067 0.0
C8 C 0.95845 0.47739 0.26367 0.0
C9 C 0.96877 0.47269 0.29638 0.0
C10 C 0.99018 0.49601 0.29559 0.0
C11 C 0.98015 0.50033 0.26263 0.0
C12 C 0.99583 0.50957 0.27846 0.0
C13 C 0.00741 0.50591 0.31209 0.0
C14 C 0.11863 0.55344 0.31942 0.0
C15 C 0.12498 0.57179 0.30544 0.0
C16 C 0.09399 0.53821 0.32468 0.0
C17 C 0.07546 0.54166 0.31647 0.0
C18 C 0.10631 0.57445 0.29667 0.0
C19 C 0.08182 0.55956 0.30214 0.0
C20 C 0.04934 0.527 0.32242 0.0
C21 C 0.09223 0.56483 0.376 0.0
C22 C 0.0902 0.54808 0.39029 0.0
C23 C 0.07639 0.55683 0.3602 0.0
C24 C 0.05851 0.53187 0.35826 0.0
C25 C 0.07197 0.52318 0.38843 0.0
C26 C 0.05621 0.5152 0.37262 0.0
C27 C 0.04147 0.523 0.34175 0.0
H28 H 0.92807 0.50755 0.32821 0.0
H29 H 0.96982 0.51992 0.31796 0.0
H30 H 0.93007 0.45593 0.36824 0.0
H31 H 0.97219 0.46883 0.35812 0.0
H32 H 0.93642 0.44572 0.28167 0.0
H33 H 0.96443 0.46126 0.30904 0.0
H34 H 0.98482 0.51124 0.24965 0.0
H35 H 0.01232 0.52746 0.27735 0.0
H36 H 0.1327 0.55084 0.32619 0.0
H37 H 0.08951 0.52395 0.33526 0.0
H38 H 0.11073 0.58855 0.28593 0.0
H39 H 0.06788 0.56246 0.29546 0.0
H40 H 0.10579 0.5842 0.37721 0.0
H41 H 0.07804 0.57014 0.34955 0.0
H42 H 0.07006 0.50979 0.39911 0.0
H43 H 0.04238 0.4959 0.37147 0.0
N44 N 0.01693 0.51143 0.34547 0.0
N45 N 0.03196 0.51806 0.3084 0.0
C46 C 0.45884 0.93726 0.50594 0.0
C47 C 0.46563 0.92617 0.52036 0.0
C48 C 0.47565 0.96069 0.4992 0.0
C49 C 0.49967 0.97345 0.50662 0.0
C50 C 0.48975 0.9388 0.52765 0.0
C51 C 0.50657 0.96238 0.52096 0.0
C52 C 0.51658 0.99916 0.50072 0.0
C53 C 0.5083 0.9531 0.44935 0.0
C54 C 0.49806 0.95758 0.43295 0.0
C55 C 0.51544 0.96903 0.46505 0.0
C56 C 0.51202 0.98953 0.46491 0.0
C57 C 0.49512 0.97839 0.4327 0.0
C58 C 0.50204 0.99418 0.44849 0.0
C59 C 0.51989 0.00686 0.48137 0.0
C60 C 0.57907 0.11839 0.48744 0.0
C61 C 0.56451 0.12362 0.4751 0.0
C62 C 0.57146 0.09409 0.49272 0.0
C63 C 0.54901 0.07466 0.48595 0.0
C64 C 0.54249 0.10402 0.46789 0.0
C65 C 0.53486 0.07985 0.47324 0.0
C66 C 0.53984 0.04877 0.49162 0.0
C67 C 0.54541 0.08856 0.54757 0.0
C68 C 0.56402 0.08951 0.55939 0.0
C69 C 0.53724 0.07309 0.53155 0.0
C70 C 0.54746 0.05823 0.52721 0.0
C71 C 0.57424 0.07465 0.55495 0.0
C72 C 0.56582 0.05894 0.5391 0.0
C73 C 0.53837 0.04106 0.51084 0.0
H74 H 0.44042 0.92788 0.49998 0.0
H75 H 0.46963 0.96909 0.48852 0.0
H76 H 0.49537 0.93074 0.53889 0.0
H77 H 0.52489 0.97208 0.52708 0.0
H78 H 0.51072 0.93719 0.45011 0.0
H79 H 0.52386 0.96539 0.47722 0.0
H80 H 0.48777 0.98271 0.42018 0.0
H81 H 0.49951 0.01003 0.44787 0.0
H82 H 0.59615 0.13309 0.49323 0.0
H83 H 0.5831 0.09054 0.50208 0.0
H84 H 0.53113 0.10734 0.45801 0.0
H85 H 0.51762 0.06517 0.46762 0.0
H86 H 0.5373 0.0999 0.55067 0.0
H87 H 0.5228 0.07252 0.52266 0.0
H88 H 0.58842 0.07485 0.56395 0.0
H89 H 0.57373 0.0474 0.53606 0.0
N90 N 0.52652 0.01655 0.51468 0.0
N91 N 0.53088 0.03136 0.47763 0.0
C92 C 0.57876 0.50992 0.61189 0.0
C93 C 0.56489 0.50078 0.59501 0.0
C94 C 0.56905 0.5159 0.62768 0.0
C95 C 0.54506 0.5123 0.62703 0.0
C96 C 0.54103 0.49744 0.59429 0.0
C97 C 0.53123 0.50315 0.61014 0.0
C98 C 0.53483 0.51956 0.64331 0.0
C99 C 0.54404 0.45852 0.6672 0.0
C100 C 0.56235 0.46569 0.68136 0.0
C101 C 0.53646 0.47479 0.66092 0.0
C102 C 0.54702 0.4986 0.66862 0.0
C103 C 0.57287 0.48959 0.68907 0.0
C104 C 0.56509 0.50581 0.68288 0.0
C105 C 0.53792 0.51524 0.6627 0.0
C106 C 0.47754 0.55 0.70591 0.0
C107 C 0.4942 0.56313 0.72077 0.0
C108 C 0.48484 0.54113 0.69033 0.0
C109 C 0.5092 0.54595 0.68892 0.0
C110 C 0.5183 0.56704 0.71963 0.0
C111 C 0.5257 0.55861 0.70387 0.0
C112 C 0.51761 0.53701 0.67254 0.0
C113 C 0.48737 0.58303 0.64733 0.0
C114 C 0.4679 0.56952 0.63447 0.0
C115 C 0.50258 0.57385 0.65327 0.0
C116 C 0.49816 0.55081 0.64673 0.0
C117 C 0.46406 0.54684 0.62756 0.0
C118 C 0.47908 0.53765 0.63358 0.0
C119 C 0.51316 0.53997 0.65309 0.0
H120 H 0.59735 0.51304 0.6127 0.0
H121 H 0.58054 0.52382 0.64021 0.0
H122 H 0.52988 0.49025 0.58149 0.0
H123 H 0.51277 0.5004 0.60919 0.0
H124 H 0.5351 0.4401 0.66127 0.0
H125 H 0.52193 0.46856 0.65031 0.0
H126 H 0.58718 0.49581 0.69985 0.0
H127 H 0.57329 0.52403 0.68913 0.0
H128 H 0.45887 0.54668 0.70619 0.0
H129 H 0.47141 0.53053 0.6794 0.0
H130 H 0.53148 0.5764 0.731 0.0
H131 H 0.54444 0.56208 0.70334 0.0
H132 H 0.49091 0.60071 0.65269 0.0
H133 H 0.51761 0.58464 0.66304 0.0
H134 H 0.44905 0.53589 0.61781 0.0
H135 H 0.47542 0.5199 0.62826 0.0
N136 N 0.52216 0.53132 0.6393 0.0
N137 N 0.52969 0.52459 0.67655 0.0
C138 C 0.93471 0.45655 0.81764 0.0
C139 C 0.9215 0.46581 0.80775 0.0
C140 C 0.95874 0.47225 0.82377 0.0
C141 C 0.97034 0.49752 0.81986 0.0
C142 C 0.93326 0.49128 0.80389 0.0
C143 C 0.95762 0.50695 0.80968 0.0
C144 C 0.99608 0.51354 0.82588 0.0
C145 C 0.95123 0.50566 0.8781 0.0
C146 C 0.95358 0.49205 0.89316 0.0
C147 C 0.96704 0.51276 0.86234 0.0
C148 C 0.9855 0.50637 0.86126 0.0
C149 C 0.97202 0.48557 0.89198 0.0
C150 C 0.98793 0.49282 0.87625 0.0
C151 C 0.00329 0.51518 0.8452 0.0
C152 C 0.11419 0.57648 0.84286 0.0
C153 C 0.11967 0.56105 0.85392 0.0
C154 C 0.09003 0.5684 0.83686 0.0
C155 C 0.07106 0.54469 0.8417 0.0
C156 C 0.1005 0.53746 0.85887 0.0
C157 C 0.07646 0.52946 0.85293 0.0
C158 C 0.04536 0.53537 0.83558 0.0
C159 C 0.08997 0.54721 0.78192 0.0
C160 C 0.08815 0.56297 0.76848 0.0
C161 C 0.07378 0.538 0.79745 0.0
C162 C 0.0558 0.54483 0.80013 0.0
C163 C 0.06976 0.56931 0.771 0.0
C164 C 0.05375 0.56029 0.78664 0.0
C165 C 0.03819 0.535 0.81629 0.0
H166 H 0.92671 0.43704 0.8204 0.0
H167 H 0.96849 0.46458 0.83128 0.0
H168 H 0.92365 0.49919 0.79655 0.0
H169 H 0.96639 0.52643 0.80648 0.0
H170 H 0.93757 0.51138 0.87871 0.0
H171 H 0.96527 0.52386 0.85124 0.0
H172 H 0.97413 0.47481 0.90319 0.0
H173 H 0.00211 0.48778 0.87577 0.0
H174 H 0.12851 0.59488 0.83903 0.0
H175 H 0.08615 0.58065 0.82854 0.0
H176 H 0.10413 0.52497 0.8671 0.0
H177 H 0.06209 0.5111 0.85684 0.0
H178 H 0.10397 0.54202 0.78049 0.0
H179 H 0.07522 0.52541 0.80727 0.0
H180 H 0.06746 0.58095 0.76073 0.0
H181 H 0.03973 0.56544 0.78823 0.0
N182 N 0.01373 0.52386 0.81216 0.0
N183 N 0.02762 0.52562 0.84929 0.0
C184 C 0.4855 0.92874 0.98362 0.0
C185 C 0.46832 0.91984 0.96856 0.0
C186 C 0.49433 0.95246 0.99075 0.0
C187 C 0.48583 0.96764 0.98324 0.0
C188 C 0.45985 0.93503 0.96098 0.0
C189 C 0.46859 0.95876 0.96824 0.0
C190 C 0.49691 0.99356 0.98955 0.0
C191 C 0.45843 0.94853 0.04145 0.0
C192 C 0.47348 0.95186 0.05744 0.0
C193 C 0.46765 0.96434 0.02568 0.0
C194 C 0.49228 0.98355 0.02536 0.0
C195 C 0.49797 0.9714 0.05722 0.0
C196 C 0.50724 0.98705 0.04138 0.0
C197 C 0.50226 0.00091 0.00896 0.0
C198 C 0.55802 0.11221 0.00475 0.0
C199 C 0.57842 0.11669 0.01606 0.0
C200 C 0.54079 0.08821 0.9992 0.0
C201 C 0.54379 0.06836 0.00479 0.0
C202 C 0.58104 0.0967 0.02193 0.0
C203 C 0.56383 0.07279 0.01642 0.0
C204 C 0.52617 0.04281 0.999 0.0
C205 C 0.56083 0.0836 0.94375 0.0
C206 C 0.54359 0.08544 0.93202 0.0
C207 C 0.55301 0.06762 0.95947 0.0
C208 C 0.52782 0.05315 0.96364 0.0
C209 C 0.51839 0.07091 0.93625 0.0
C210 C 0.51058 0.05472 0.95181 0.0
C211 C 0.5192 0.03563 0.9798 0.0
H212 H 0.49278 0.91767 0.98945 0.0
H213 H 0.50841 0.95916 0.00174 0.0
H214 H 0.44657 0.9286 0.9494 0.0
H215 H 0.46207 0.97028 0.96201 0.0
H216 H 0.43952 0.93362 0.04107 0.0
H217 H 0.45541 0.96165 0.01382 0.0
H218 H 0.50995 0.97487 0.06942 0.0
H219 H 0.52618 0.00191 0.04166 0.0
H220 H 0.55555 0.12728 1.0 0.0
H221 H 0.52514 0.08518 0.9906 0.0
H222 H 0.59631 0.09952 0.03093 0.0
H223 H 0.56637 0.05771 0.02106 0.0
H224 H 0.58036 0.09465 0.94083 0.0
H225 H 0.56658 0.06638 0.96827 0.0
H226 H 0.50472 0.07177 0.92731 0.0
H227 H 0.49105 0.04351 0.95471 0.0
N228 N 0.50506 0.01127 0.97578 0.0
N229 N 0.51716 0.02521 0.01284 0.0
C230 C 0.50029 0.58626 0.17004 0.0
C231 C 0.48318 0.5804 0.18495 0.0
C232 C 0.5064 0.56897 0.16357 0.0
C233 C 0.49529 0.54531 0.17167 0.0
C234 C 0.47206 0.55671 0.19308 0.0
C235 C 0.47822 0.53938 0.18659 0.0
C236 C 0.50309 0.52763 0.16565 0.0
C237 C 0.46476 0.53686 0.11482 0.0
C238 C 0.47916 0.54624 0.09817 0.0
C239 C 0.47336 0.52936 0.13045 0.0
C240 C 0.49677 0.53154 0.12992 0.0
C241 C 0.50236 0.5479 0.09755 0.0
C242 C 0.51104 0.54063 0.11324 0.0
C243 C 0.50609 0.52329 0.14621 0.0
C244 C 0.5525 0.45862 0.15116 0.0
C245 C 0.57184 0.47174 0.13811 0.0
C246 C 0.53733 0.46794 0.15682 0.0
C247 C 0.5416 0.49075 0.14979 0.0
C248 C 0.57556 0.49418 0.13072 0.0
C249 C 0.56056 0.50353 0.13647 0.0
C250 C 0.52665 0.50175 0.15595 0.0
C251 C 0.5636 0.49511 0.20942 0.0
C252 C 0.54644 0.47815 0.2225 0.0
C253 C 0.55576 0.50375 0.19403 0.0
C254 C 0.53063 0.49554 0.19147 0.0
C255 C 0.52132 0.47017 0.21997 0.0
C256 C 0.51351 0.47897 0.20468 0.0
C257 C 0.52207 0.50457 0.17534 0.0
H258 H 0.50903 0.60428 0.16339 0.0
H259 H 0.5202 0.57429 0.15245 0.0
H260 H 0.45903 0.55178 0.20475 0.0
H261 H 0.46974 0.52137 0.19326 0.0
H262 H 0.44686 0.53543 0.11585 0.0
H263 H 0.46156 0.52164 0.14285 0.0
H264 H 0.51373 0.55452 0.08483 0.0
H265 H 0.52901 0.54218 0.11233 0.0
H266 H 0.54901 0.44111 0.15686 0.0
H267 H 0.52235 0.45736 0.16667 0.0
H268 H 0.59047 0.50484 0.12082 0.0
H269 H 0.56415 0.5211 0.13079 0.0
H270 H 0.58306 0.50151 0.211 0.0
H271 H 0.56929 0.51685 0.18415 0.0
H272 H 0.50774 0.45738 0.22999 0.0
H273 H 0.49407 0.47264 0.20303 0.0
N274 N 0.51065 0.51758 0.17947 0.0
N275 N 0.51821 0.51097 0.14217 0.0
Li276 Li 0.64217 0.41551 0.42669 0.0
Li277 Li 0.63408 0.37596 0.41507 0.0
Li278 Li 0.6731 0.41301 0.40622 0.0
Li279 Li 0.63408 0.40467 0.39253 0.0
C280 C 0.65903 0.38902 0.45013 0.0
N281 N 0.65416 0.36846 0.48606 0.0
C282 C 0.63821 0.3828 0.46126 0.0
C283 C 0.67745 0.38489 0.45733 0.0
C284 C 0.63606 0.3724 0.47937 0.0
C285 C 0.67463 0.37444 0.47551 0.0
C286 C 0.5888 0.36976 0.41802 0.0
C287 C 0.55499 0.33026 0.4085 0.0
N288 N 0.54323 0.32904 0.4252 0.0
C289 C 0.5763 0.36818 0.43504 0.0
C290 C 0.57799 0.35072 0.40459 0.0
C291 C 0.55331 0.34743 0.43842 0.0
C292 C 0.61658 0.43455 0.44619 0.0
N293 N 0.6372 0.43266 0.44705 0.0
C294 C 0.6469 0.45113 0.47814 0.0
C295 C 0.65262 0.44115 0.4624 0.0
C296 C 0.62505 0.45218 0.47803 0.0
C297 C 0.61004 0.44418 0.46165 0.0
H298 H 0.60478 0.4278 0.43372 0.0
H299 H 0.6689 0.43938 0.46271 0.0
C300 C 0.63071 0.32996 0.41165 0.0
N301 N 0.62162 0.34221 0.42174 0.0
C302 C 0.62453 0.30603 0.41678 0.0
C303 C 0.59961 0.30766 0.44253 0.0
C304 C 0.60615 0.33148 0.43684 0.0
C305 C 0.60906 0.29475 0.43258 0.0
H306 H 0.64333 0.33904 0.39993 0.0
H307 H 0.59928 0.3415 0.4448 0.0
C308 C 0.67721 0.45931 0.40989 0.0
N309 N 0.71117 0.50608 0.42221 0.0
C310 C 0.67807 0.47989 0.40138 0.0
C311 C 0.69363 0.4625 0.42466 0.0
C312 C 0.69537 0.50339 0.40781 0.0
C313 C 0.71065 0.4863 0.43068 0.0
C314 C 0.64907 0.37992 0.37084 0.0
C315 C 0.66748 0.3962 0.35838 0.0
C316 C 0.62898 0.35854 0.36357 0.0
C317 C 0.66523 0.39107 0.33875 0.0
C318 C 0.62741 0.35406 0.34385 0.0
N319 N 0.64539 0.3703 0.33195 0.0
C320 C 0.71617 0.41067 0.40756 0.0
C321 C 0.72039 0.44499 0.39009 0.0
C322 C 0.74031 0.41696 0.40318 0.0
N323 N 0.70677 0.42464 0.40101 0.0
C324 C 0.74459 0.45188 0.38524 0.0
C325 C 0.7548 0.43766 0.39167 0.0
H326 H 0.70469 0.3943 0.41585 0.0
H327 H 0.71223 0.45545 0.3847 0.0
C328 C 0.59592 0.39893 0.3669 0.0
N329 N 0.62062 0.41009 0.36985 0.0
C330 C 0.58667 0.40422 0.35047 0.0
C331 C 0.62845 0.4323 0.34042 0.0
C332 C 0.63686 0.42666 0.35711 0.0
C333 C 0.60304 0.42113 0.33699 0.0
H334 H 0.58337 0.38625 0.37743 0.0
H335 H 0.65639 0.43573 0.36008 0.0
O336 O 0.6615 0.39919 0.43232 0.0
O337 O 0.6114 0.38988 0.41447 0.0
O338 O 0.66028 0.43623 0.40374 0.0
O339 O 0.65076 0.38482 0.39007 0.0
H340 H 0.62372 0.38573 0.45591 0.0
H341 H 0.69379 0.38973 0.449 0.0
H342 H 0.61997 0.36742 0.48808 0.0
H343 H 0.68873 0.37111 0.48124 0.0
H344 H 0.54648 0.31535 0.39827 0.0
H345 H 0.5843 0.38269 0.44562 0.0
H346 H 0.58731 0.35171 0.39133 0.0
H347 H 0.54351 0.34591 0.45157 0.0
H348 H 0.65887 0.457 0.49056 0.0
H349 H 0.59322 0.44501 0.46094 0.0
H350 H 0.63241 0.29679 0.40886 0.0
H351 H 0.58742 0.2995 0.45468 0.0
H352 H 0.66547 0.4777 0.38993 0.0
H353 H 0.69331 0.44682 0.43138 0.0
H354 H 0.69625 0.5195 0.40136 0.0
H355 H 0.72346 0.48904 0.44209 0.0
H356 H 0.68317 0.41279 0.36375 0.0
H357 H 0.61483 0.34548 0.37304 0.0
H358 H 0.67924 0.40364 0.32892 0.0
H359 H 0.61191 0.33764 0.33802 0.0
H360 H 0.74746 0.40561 0.40864 0.0
H361 H 0.75491 0.46773 0.37606 0.0
H362 H 0.56695 0.39522 0.34833 0.0
H363 H 0.64166 0.44576 0.33055 0.0
Li364 Li 0.24892 0.64193 0.59747 0.0
Li365 Li 0.28026 0.63511 0.58259 0.0
Li366 Li 0.28013 0.67468 0.57683 0.0
Li367 Li 0.24963 0.63612 0.56185 0.0
C368 C 0.29204 0.67034 0.61919 0.0
N369 N 0.30647 0.68897 0.6558 0.0
C370 C 0.29796 0.65763 0.63268 0.0
C371 C 0.29403 0.69283 0.62422 0.0
C372 C 0.30503 0.66724 0.65114 0.0
C373 C 0.30121 0.70187 0.64282 0.0
C374 C 0.24103 0.5894 0.58504 0.0
C375 C 0.24492 0.5556 0.57266 0.0
N376 N 0.23603 0.54332 0.58948 0.0
C377 C 0.23165 0.57632 0.60211 0.0
C378 C 0.24746 0.57884 0.57012 0.0
C379 C 0.22936 0.5531 0.60411 0.0
C380 C 0.20895 0.63787 0.61976 0.0
N381 N 0.22881 0.63462 0.61973 0.0
C382 C 0.21977 0.61869 0.65166 0.0
C383 C 0.2343 0.62507 0.6352 0.0
C384 C 0.1993 0.62213 0.65226 0.0
C385 C 0.194 0.63194 0.636 0.0
H386 H 0.20452 0.64484 0.60711 0.0
H387 H 0.24959 0.62176 0.63456 0.0
C388 C 0.32253 0.63183 0.57593 0.0
N389 N 0.30201 0.6228 0.58701 0.0
C390 C 0.34069 0.62584 0.57996 0.0
C391 C 0.31613 0.60112 0.60661 0.0
C392 C 0.29843 0.60758 0.60205 0.0
C393 C 0.33779 0.6106 0.59567 0.0
H394 H 0.32516 0.64432 0.56431 0.0
H395 H 0.28231 0.60123 0.61099 0.0
C396 C 0.23774 0.67839 0.57764 0.0
N397 N 0.22608 0.71533 0.58058 0.0
C398 C 0.22713 0.68379 0.56212 0.0
C399 C 0.24205 0.69153 0.59474 0.0
C400 C 0.22147 0.70261 0.56386 0.0
C401 C 0.23612 0.71019 0.59593 0.0
C402 C 0.29003 0.65316 0.53931 0.0
C403 C 0.29405 0.67278 0.52745 0.0
C404 C 0.29042 0.63286 0.53147 0.0
C405 C 0.2978 0.67151 0.50784 0.0
C406 C 0.29425 0.63228 0.51179 0.0
N407 N 0.29779 0.65144 0.50047 0.0
C408 C 0.32402 0.71922 0.58104 0.0
C409 C 0.29514 0.72185 0.56069 0.0
C410 C 0.34161 0.74361 0.57708 0.0
N411 N 0.30136 0.70888 0.57282 0.0
C412 C 0.31222 0.74625 0.55621 0.0
C413 C 0.3359 0.7573 0.56428 0.0
H414 H 0.32866 0.70826 0.59025 0.0
H415 H 0.27731 0.71301 0.55386 0.0
C416 C 0.21449 0.59898 0.53702 0.0
N417 N 0.23019 0.62352 0.53929 0.0
C418 C 0.19988 0.59018 0.52058 0.0
C419 C 0.21785 0.63206 0.50918 0.0
C420 C 0.23207 0.64002 0.52581 0.0
C421 C 0.20136 0.60684 0.50644 0.0
H422 H 0.21299 0.58627 0.5481 0.0
H423 H 0.2445 0.65944 0.52806 0.0
O424 O 0.28522 0.66122 0.60098 0.0
O425 O 0.24367 0.61229 0.5829 0.0
O426 O 0.24365 0.6602 0.57612 0.0
O427 O 0.2861 0.65399 0.55854 0.0
H428 H 0.29689 0.64039 0.62901 0.0
H429 H 0.29041 0.70341 0.61385 0.0
H430 H 0.30941 0.65745 0.66176 0.0
H431 H 0.30273 0.71922 0.6469 0.0
H432 H 0.24996 0.54729 0.56125 0.0
H433 H 0.2262 0.58398 0.61371 0.0
H434 H 0.25428 0.58848 0.5567 0.0
H435 H 0.22226 0.54285 0.61729 0.0
H436 H 0.22421 0.61057 0.66361 0.0
H437 H 0.1785 0.63503 0.63581 0.0
H438 H 0.35699 0.63336 0.57104 0.0
H439 H 0.31332 0.58963 0.61903 0.0
H440 H 0.22333 0.67363 0.54886 0.0
H441 H 0.24952 0.6871 0.60705 0.0
H442 H 0.21339 0.70707 0.55192 0.0
H443 H 0.2394 0.72051 0.60909 0.0
H444 H 0.29398 0.68871 0.53326 0.0
H445 H 0.288 0.6178 0.54047 0.0
H446 H 0.3007 0.68648 0.49847 0.0
H447 H 0.29449 0.61662 0.50552 0.0
H448 H 0.35978 0.75134 0.58336 0.0
H449 H 0.30712 0.75623 0.5463 0.0
H450 H 0.18715 0.57062 0.51916 0.0
H451 H 0.21977 0.64553 0.49858 0.0
Li452 Li 0.66786 0.28176 0.7504 0.0
Li453 Li 0.62963 0.25046 0.76344 0.0
Li454 Li 0.63947 0.24993 0.73012 0.0
Li455 Li 0.63137 0.28258 0.74106 0.0
C456 C 0.66825 0.24177 0.7672 0.0
N457 N 0.69142 0.23255 0.79712 0.0
C458 C 0.67377 0.25547 0.78414 0.0
C459 C 0.67449 0.22336 0.76551 0.0
C460 C 0.68549 0.25053 0.79909 0.0
C461 C 0.68622 0.21899 0.78078 0.0
C462 C 0.63336 0.29365 0.77961 0.0
C463 C 0.59537 0.28912 0.79189 0.0
N464 N 0.60838 0.30751 0.80467 0.0
C465 C 0.64636 0.31256 0.79281 0.0
C466 C 0.60765 0.28186 0.77907 0.0
C467 C 0.63339 0.31927 0.80539 0.0
C468 C 0.70655 0.32823 0.75846 0.0
N469 N 0.70145 0.30465 0.75608 0.0
C470 C 0.74336 0.31643 0.76232 0.0
C471 C 0.7193 0.2985 0.75764 0.0
C472 C 0.74925 0.34106 0.76493 0.0
C473 C 0.73042 0.34682 0.76262 0.0
H474 H 0.69199 0.33259 0.75693 0.0
H475 H 0.71487 0.27967 0.75542 0.0
C476 C 0.60486 0.20524 0.78262 0.0
N477 N 0.61479 0.22986 0.78535 0.0
C478 C 0.59608 0.18906 0.79819 0.0
C479 C 0.60779 0.22386 0.81913 0.0
C480 C 0.61652 0.23935 0.8032 0.0
C481 C 0.59765 0.19834 0.81681 0.0
H482 H 0.60453 0.19826 0.76838 0.0
H483 H 0.62538 0.25897 0.80529 0.0
C484 C 0.67981 0.30096 0.71617 0.0
N485 N 0.72581 0.33321 0.7015 0.0
C486 C 0.68674 0.32559 0.713 0.0
C487 C 0.69616 0.29266 0.71171 0.0
C488 C 0.71011 0.34162 0.70561 0.0
C489 C 0.71936 0.30928 0.70435 0.0
C490 C 0.5908 0.23056 0.72864 0.0
C491 C 0.59095 0.23808 0.70974 0.0
C492 C 0.57337 0.2067 0.73425 0.0
C493 C 0.57381 0.22145 0.69669 0.0
C494 C 0.55649 0.19063 0.72078 0.0
N495 N 0.55709 0.19826 0.70243 0.0
C496 C 0.62155 0.20403 0.7113 0.0
C497 C 0.64226 0.23907 0.69126 0.0
C498 C 0.61482 0.1884 0.69541 0.0
N499 N 0.6346 0.22884 0.70889 0.0
C500 C 0.63633 0.22415 0.67504 0.0
C501 C 0.62193 0.19843 0.67689 0.0
H502 H 0.61547 0.19643 0.72549 0.0
H503 H 0.65232 0.25885 0.68969 0.0
C504 C 0.63449 0.32815 0.74085 0.0
N505 N 0.61964 0.30443 0.73532 0.0
C506 C 0.62823 0.34603 0.73654 0.0
C507 C 0.59131 0.31466 0.72105 0.0
C508 C 0.59816 0.29731 0.72589 0.0
C509 C 0.60657 0.33949 0.72621 0.0
H510 H 0.65139 0.33322 0.74847 0.0
H511 H 0.5865 0.27828 0.72188 0.0
O512 O 0.65645 0.24589 0.75238 0.0
O513 O 0.64593 0.28721 0.76707 0.0
O514 O 0.65727 0.28511 0.72386 0.0
O515 O 0.60788 0.24636 0.7415 0.0
H516 H 0.66911 0.26978 0.78578 0.0
H517 H 0.67025 0.21252 0.75252 0.0
H518 H 0.68986 0.26099 0.81226 0.0
H519 H 0.69115 0.2048 0.77966 0.0
H520 H 0.57549 0.28014 0.79166 0.0
H521 H 0.66627 0.32194 0.79331 0.0
H522 H 0.59725 0.26726 0.76892 0.0
H523 H 0.64321 0.33385 0.8157 0.0
H524 H 0.75703 0.31089 0.76418 0.0
H525 H 0.734 0.36552 0.76392 0.0
H526 H 0.58892 0.16961 0.79572 0.0
H527 H 0.60924 0.23188 0.83316 0.0
H528 H 0.67428 0.33228 0.71634 0.0
H529 H 0.69108 0.27366 0.71418 0.0
H530 H 0.71579 0.36077 0.70318 0.0
H531 H 0.73228 0.30317 0.70097 0.0
H532 H 0.60452 0.25641 0.70511 0.0
H533 H 0.57289 0.20064 0.74885 0.0
H534 H 0.57389 0.22693 0.68197 0.0
H535 H 0.54295 0.17208 0.7249 0.0
H536 H 0.60342 0.16875 0.6976 0.0
H537 H 0.64268 0.23277 0.66117 0.0
H538 H 0.64031 0.36478 0.7412 0.0
H539 H 0.57455 0.30876 0.71295 0.0
Li540 Li 0.406 0.63491 0.92812 0.0
Li541 Li 0.40929 0.67038 0.91325 0.0
Li542 Li 0.37296 0.63108 0.90842 0.0
Li543 Li 0.41275 0.64103 0.89235 0.0
C544 C 0.38219 0.64707 0.95193 0.0
N545 N 0.37787 0.64175 0.99133 0.0
C546 C 0.39817 0.66641 0.96389 0.0
C547 C 0.36389 0.62511 0.96004 0.0
C548 C 0.3957 0.66335 0.98376 0.0
C549 C 0.36205 0.62274 0.97997 0.0
C550 C 0.45656 0.68299 0.9138 0.0
C551 C 0.49301 0.71408 0.89774 0.0
N552 N 0.49979 0.72788 0.91401 0.0
C553 C 0.46393 0.6975 0.93036 0.0
C554 C 0.47121 0.69136 0.89734 0.0
C555 C 0.48582 0.72015 0.93017 0.0
C556 C 0.40357 0.59706 0.95199 0.0
N557 N 0.41392 0.62185 0.95003 0.0
C558 C 0.43516 0.6285 0.97982 0.0
C559 C 0.42972 0.63756 0.96341 0.0
C560 C 0.42461 0.60301 0.98231 0.0
C561 C 0.40877 0.58717 0.96809 0.0
H562 H 0.39129 0.58494 0.94107 0.0
H563 H 0.43795 0.65715 0.96146 0.0
C564 C 0.40321 0.70836 0.92762 0.0
N565 N 0.41828 0.70434 0.91604 0.0
C566 C 0.40762 0.73214 0.93075 0.0
C567 C 0.44238 0.74741 0.90923 0.0
C568 C 0.43723 0.72322 0.90648 0.0
C569 C 0.42757 0.75209 0.92165 0.0
H570 H 0.38763 0.69303 0.93443 0.0
H571 H 0.44824 0.71958 0.89659 0.0
C572 C 0.3698 0.58823 0.90206 0.0
N573 N 0.32987 0.54354 0.89159 0.0
C574 C 0.36851 0.57878 0.88368 0.0
C575 C 0.35093 0.57477 0.91519 0.0
C576 C 0.34815 0.5562 0.87864 0.0
C577 C 0.33085 0.55228 0.90961 0.0
C578 C 0.39238 0.67514 0.87966 0.0
C579 C 0.37432 0.68126 0.88388 0.0
C580 C 0.41111 0.68943 0.86667 0.0
C581 C 0.37545 0.70183 0.87512 0.0
C582 C 0.41157 0.70983 0.85818 0.0
N583 N 0.3939 0.71557 0.86257 0.0
C584 C 0.32456 0.61992 0.91667 0.0
C585 C 0.32993 0.60654 0.88617 0.0
C586 C 0.30025 0.61295 0.91223 0.0
N587 N 0.33882 0.61672 0.90364 0.0
C588 C 0.30565 0.59911 0.88119 0.0
C589 C 0.29065 0.60272 0.89418 0.0
H590 H 0.33235 0.62881 0.93019 0.0
H591 H 0.34198 0.60507 0.87585 0.0
C592 C 0.44623 0.63226 0.87135 0.0
N593 N 0.42615 0.63503 0.87008 0.0
C594 C 0.45513 0.62629 0.85506 0.0
C595 C 0.42217 0.62568 0.83664 0.0
C596 C 0.41422 0.63211 0.85319 0.0
C597 C 0.44287 0.62255 0.83741 0.0
H598 H 0.45523 0.63453 0.88504 0.0
H599 H 0.39803 0.63405 0.85273 0.0
O600 O 0.38457 0.64955 0.93241 0.0
O601 O 0.43532 0.66062 0.91375 0.0
O602 O 0.38943 0.6105 0.90717 0.0
O603 O 0.39197 0.65549 0.88847 0.0
H604 H 0.4126 0.68347 0.95793 0.0
H605 H 0.35127 0.61001 0.95105 0.0
H606 H 0.40806 0.6781 0.99317 0.0
H607 H 0.34805 0.60579 0.98642 0.0
H608 H 0.50447 0.72078 0.88509 0.0
H609 H 0.45267 0.69164 0.94311 0.0
H610 H 0.46573 0.6806 0.88432 0.0
H611 H 0.49163 0.73162 0.94285 0.0
H612 H 0.44776 0.64132 0.99034 0.0
H613 H 0.40027 0.56738 0.96952 0.0
H614 H 0.39576 0.73489 0.94049 0.0
H615 H 0.45763 0.76223 0.90161 0.0
H616 H 0.38304 0.58875 0.87339 0.0
H617 H 0.35168 0.5817 0.9295 0.0
H618 H 0.34687 0.54874 0.86443 0.0
H619 H 0.31604 0.54177 0.9196 0.0
H620 H 0.35976 0.67039 0.89398 0.0
H621 H 0.4253 0.68498 0.86336 0.0
H622 H 0.36171 0.7069 0.87833 0.0
H623 H 0.42603 0.72117 0.84818 0.0
H624 H 0.28922 0.61596 0.92264 0.0
H625 H 0.29905 0.59166 0.86701 0.0
H626 H 0.47139 0.62456 0.85637 0.0
H627 H 0.41175 0.62251 0.82354 0.0
Li628 Li 0.75845 0.40505 0.08377 0.0
Li629 Li 0.79135 0.39767 0.09756 0.0
Li630 Li 0.79095 0.40762 0.06213 0.0
Li631 Li 0.76029 0.36965 0.07578 0.0
C632 C 0.80349 0.45064 0.09351 0.0
N633 N 0.82175 0.49609 0.11088 0.0
C634 C 0.80396 0.45249 0.1135 0.0
C635 C 0.81253 0.47196 0.08237 0.0
C636 C 0.8132 0.47562 0.12201 0.0
C637 C 0.82161 0.49475 0.09142 0.0
C638 C 0.73687 0.3572 0.10805 0.0
C639 C 0.723 0.31754 0.12265 0.0
N640 N 0.69927 0.31154 0.11938 0.0
C641 C 0.71234 0.35067 0.10489 0.0
C642 C 0.74228 0.34053 0.11702 0.0
C643 C 0.6936 0.32748 0.11069 0.0
C644 C 0.71485 0.40695 0.07925 0.0
N645 N 0.73601 0.4164 0.08963 0.0
C646 C 0.7222 0.43758 0.11015 0.0
C647 C 0.73989 0.43136 0.10491 0.0
C648 C 0.70016 0.42802 0.09971 0.0
C649 C 0.69669 0.41267 0.08396 0.0
H650 H 0.71168 0.39433 0.06762 0.0
H651 H 0.75626 0.43781 0.11347 0.0
C652 C 0.83696 0.42097 0.11587 0.0
N653 N 0.81283 0.40403 0.11858 0.0
C654 C 0.85347 0.42823 0.13118 0.0
C655 C 0.82013 0.39981 0.15161 0.0
C656 C 0.80417 0.39343 0.13597 0.0
C657 C 0.84503 0.41765 0.14932 0.0
H658 H 0.8432 0.42929 0.1019 0.0
H659 H 0.78478 0.38056 0.13786 0.0
C660 C 0.75083 0.40425 0.04424 0.0
N661 N 0.74288 0.43143 0.01689 0.0
C662 C 0.73751 0.39289 0.02761 0.0
C663 C 0.7602 0.42948 0.04688 0.0
C664 C 0.73366 0.40693 0.01397 0.0
C665 C 0.75594 0.44289 0.03292 0.0
C666 C 0.79939 0.36273 0.07089 0.0
C667 C 0.79507 0.35272 0.05244 0.0
C668 C 0.80704 0.35269 0.0854 0.0
C669 C 0.79816 0.33251 0.04888 0.0
C670 C 0.80997 0.33252 0.08125 0.0
N671 N 0.80547 0.32291 0.06323 0.0
C672 C 0.83322 0.44359 0.04195 0.0
C673 C 0.80341 0.40996 0.02367 0.0
C674 C 0.84861 0.45289 0.02594 0.0
N675 N 0.81119 0.42242 0.0405 0.0
C676 C 0.81823 0.41846 0.0074 0.0
C677 C 0.84129 0.44002 0.00848 0.0
H678 H 0.83908 0.45288 0.05562 0.0
H679 H 0.78586 0.39308 0.02302 0.0
C680 C 0.71927 0.33176 0.05821 0.0
N681 N 0.73868 0.33572 0.06936 0.0
C682 C 0.70206 0.30804 0.05236 0.0
C683 C 0.7246 0.29256 0.07005 0.0
C684 C 0.74147 0.31667 0.07553 0.0
C685 C 0.70469 0.28808 0.05818 0.0
H686 H 0.71696 0.34704 0.05399 0.0
H687 H 0.75658 0.32006 0.08484 0.0
O688 O 0.79511 0.42824 0.08488 0.0
O689 O 0.75547 0.37963 0.10209 0.0
O690 O 0.75508 0.39071 0.05753 0.0
O691 O 0.79663 0.38256 0.07468 0.0
H692 H 0.79691 0.43622 0.12238 0.0
H693 H 0.81261 0.47096 0.06688 0.0
H694 H 0.81353 0.47728 0.13746 0.0
H695 H 0.8286 0.51137 0.08296 0.0
H696 H 0.72692 0.30439 0.12948 0.0
H697 H 0.70783 0.36327 0.09788 0.0
H698 H 0.76115 0.34504 0.11919 0.0
H699 H 0.67453 0.32214 0.10825 0.0
H700 H 0.72541 0.44906 0.12263 0.0
H701 H 0.68001 0.40497 0.07547 0.0
H702 H 0.87258 0.44203 0.12892 0.0
H703 H 0.81295 0.39155 0.16547 0.0
H704 H 0.73036 0.37344 0.02519 0.0
H705 H 0.77047 0.4386 0.05961 0.0
H706 H 0.7234 0.39836 0.00104 0.0
H707 H 0.76303 0.46241 0.03484 0.0
H708 H 0.78916 0.36031 0.04107 0.0
H709 H 0.81056 0.36034 0.09974 0.0
H710 H 0.79471 0.32445 0.03471 0.0
H711 H 0.81578 0.32447 0.09234 0.0
H712 H 0.86638 0.46945 0.02737 0.0
H713 H 0.81183 0.40816 0.99415 0.0
H714 H 0.68665 0.30533 0.04358 0.0
H715 H 0.72725 0.27764 0.07489 0.0
Li716 Li 0.41502 0.79499 0.2633 0.0
Li717 Li 0.37639 0.7619 0.25078 0.0
Li718 Li 0.4162 0.76567 0.24178 0.0
Li719 Li 0.4053 0.79474 0.2291 0.0
C720 C 0.40319 0.75584 0.28611 0.0
N721 N 0.40898 0.74986 0.32466 0.0
C722 C 0.38514 0.75298 0.29926 0.0
C723 C 0.42396 0.75517 0.29252 0.0
C724 C 0.38847 0.75013 0.31871 0.0
C725 C 0.4266 0.75225 0.31208 0.0
C726 C 0.36903 0.80185 0.2456 0.0
C727 C 0.33404 0.7916 0.22534 0.0
N728 N 0.3325 0.81077 0.23289 0.0
C729 C 0.36709 0.82142 0.25318 0.0
C730 C 0.35237 0.78678 0.23158 0.0
C731 C 0.3485 0.82564 0.24657 0.0
C732 C 0.45283 0.8314 0.28722 0.0
N733 N 0.4283 0.81532 0.28534 0.0
C734 C 0.42009 0.8284 0.31523 0.0
C735 C 0.41193 0.81383 0.29878 0.0
C736 C 0.4453 0.84508 0.31764 0.0
C737 C 0.46178 0.84657 0.30336 0.0
H738 H 0.46542 0.83276 0.27611 0.0
H739 H 0.39246 0.80146 0.29661 0.0
C740 C 0.33426 0.71561 0.24986 0.0
N741 N 0.34337 0.73871 0.25694 0.0
C742 C 0.31068 0.69705 0.25488 0.0
C743 C 0.30636 0.72642 0.27454 0.0
C744 C 0.32998 0.74449 0.26897 0.0
C745 C 0.29646 0.70224 0.26759 0.0
H746 H 0.34554 0.71152 0.24057 0.0
H747 H 0.33791 0.76297 0.27463 0.0
C748 C 0.46056 0.80683 0.23824 0.0
N749 N 0.50781 0.81534 0.23263 0.0
C750 C 0.47308 0.81756 0.22118 0.0
C751 C 0.4722 0.80069 0.2525 0.0
C752 C 0.49693 0.82165 0.2186 0.0
C753 C 0.49605 0.80506 0.24938 0.0
C754 C 0.39079 0.75167 0.2069 0.0
C755 C 0.41223 0.76652 0.19648 0.0
C756 C 0.37246 0.72964 0.19891 0.0
C757 C 0.41507 0.75903 0.17827 0.0
C758 C 0.37598 0.72277 0.18064 0.0
N759 N 0.39704 0.73748 0.17079 0.0
C760 C 0.42026 0.72381 0.24611 0.0
C761 C 0.44676 0.75045 0.22196 0.0
C762 C 0.42715 0.70638 0.24185 0.0
N763 N 0.42999 0.74529 0.23614 0.0
C764 C 0.45416 0.73351 0.21719 0.0
C765 C 0.44409 0.711 0.22704 0.0
H766 H 0.40655 0.7199 0.25703 0.0
H767 H 0.45396 0.76737 0.21395 0.0
C768 C 0.42816 0.83811 0.20756 0.0
N769 N 0.40829 0.81505 0.20781 0.0
C770 C 0.43285 0.85326 0.19161 0.0
C771 C 0.39585 0.82103 0.17683 0.0
C772 C 0.39199 0.80642 0.19302 0.0
C773 C 0.41675 0.84468 0.17582 0.0
H774 H 0.44078 0.84447 0.21956 0.0
H775 H 0.37628 0.788 0.19361 0.0
O776 O 0.40035 0.75886 0.26703 0.0
O777 O 0.3872 0.7976 0.25197 0.0
O778 O 0.43711 0.80249 0.24098 0.0
O779 O 0.38761 0.75862 0.22479 0.0
H780 H 0.36888 0.75327 0.29455 0.0
H781 H 0.43779 0.75667 0.28251 0.0
H782 H 0.37476 0.74815 0.32906 0.0
H783 H 0.44264 0.7518 0.31725 0.0
H784 H 0.32103 0.7801 0.21448 0.0
H785 H 0.37985 0.83323 0.26407 0.0
H786 H 0.35351 0.7715 0.22557 0.0
H787 H 0.34678 0.84074 0.2523 0.0
H788 H 0.40675 0.82706 0.32574 0.0
H789 H 0.48136 0.85926 0.30469 0.0
H790 H 0.30372 0.67882 0.24892 0.0
H791 H 0.29627 0.73121 0.28458 0.0
H792 H 0.46446 0.82253 0.20997 0.0
H793 H 0.46291 0.79267 0.26584 0.0
H794 H 0.50677 0.82981 0.20543 0.0
H795 H 0.50521 0.80029 0.26029 0.0
H796 H 0.42655 0.78362 0.20241 0.0
H797 H 0.35565 0.71798 0.20669 0.0
H798 H 0.43162 0.77035 0.17009 0.0
H799 H 0.36195 0.70575 0.17429 0.0
H800 H 0.41865 0.6891 0.2496 0.0
H801 H 0.4674 0.73788 0.20577 0.0
H802 H 0.44937 0.87117 0.19143 0.0
H803 H 0.38273 0.81378 0.16515 0.0
C804 C 0.16844 0.60157 0.31468 0.0
C805 C 0.15101 0.58879 0.30032 0.0
C806 C 0.19261 0.61956 0.30994 0.0
C807 C 0.1995 0.62459 0.29041 0.0
C808 C 0.18217 0.61107 0.27588 0.0
C809 C 0.15807 0.59344 0.28103 0.0
C810 C 0.21052 0.63377 0.32582 0.0
C811 C 0.18894 0.61562 0.25491 0.0
C812 C 0.25232 0.68731 0.27615 0.0
C813 C 0.27168 0.68242 0.27377 0.0
C814 C 0.22886 0.66874 0.28188 0.0
C815 C 0.22454 0.64461 0.28509 0.0
C816 C 0.24396 0.63952 0.28278 0.0
C817 C 0.26732 0.65852 0.27729 0.0
C818 C 0.20861 0.67489 0.28432 0.0
C819 C 0.24 0.61397 0.28595 0.0
H820 H 0.16289 0.59814 0.3296 0.0
H821 H 0.14462 0.58338 0.26994 0.0
H822 H 0.22752 0.63265 0.32427 0.0
H823 H 0.21595 0.65351 0.32482 0.0
H824 H 0.20259 0.62688 0.34026 0.0
H825 H 0.17372 0.60259 0.24545 0.0
H826 H 0.19373 0.63466 0.25103 0.0
H827 H 0.20541 0.61388 0.25204 0.0
H828 H 0.25539 0.7056 0.27323 0.0
H829 H 0.28225 0.65464 0.27587 0.0
H830 H 0.20066 0.66974 0.29893 0.0
H831 H 0.19355 0.66409 0.27398 0.0
H832 H 0.21524 0.69476 0.28203 0.0
H833 H 0.23342 0.60779 0.30079 0.0
H834 H 0.25704 0.61308 0.28359 0.0
H835 H 0.22553 0.60079 0.27608 0.0
C836 C 0.55438 0.15684 0.4688 0.0
C837 C 0.57202 0.14935 0.46971 0.0
C838 C 0.56081 0.18069 0.46294 0.0
C839 C 0.58553 0.19757 0.45805 0.0
C840 C 0.60355 0.19033 0.45929 0.0
C841 C 0.59657 0.16626 0.46507 0.0
C842 C 0.54107 0.18774 0.46183 0.0
C843 C 0.63013 0.20791 0.45426 0.0
C844 C 0.59687 0.25093 0.42571 0.0
C845 C 0.60338 0.26993 0.43903 0.0
C846 C 0.59127 0.22732 0.43168 0.0
C847 C 0.59239 0.22272 0.45143 0.0
C848 C 0.59928 0.24193 0.46492 0.0
C849 C 0.60462 0.2653 0.45855 0.0
C850 C 0.58379 0.20722 0.41691 0.0
C851 C 0.60086 0.23775 0.48607 0.0
H852 H 0.53546 0.14402 0.47271 0.0
H853 H 0.61024 0.16053 0.46557 0.0
H854 H 0.54595 0.20381 0.47122 0.0
H855 H 0.53975 0.19329 0.44697 0.0
H856 H 0.52271 0.17244 0.46619 0.0
H857 H 0.64202 0.19967 0.45658 0.0
H858 H 0.63157 0.21351 0.43901 0.0
H859 H 0.63732 0.22487 0.46305 0.0
H860 H 0.59572 0.25441 0.41062 0.0
H861 H 0.61003 0.28006 0.46885 0.0
H862 H 0.5648 0.1921 0.4199 0.0
H863 H 0.59609 0.19929 0.41774 0.0
H864 H 0.58441 0.21398 0.40208 0.0
H865 H 0.58256 0.22357 0.49148 0.0
H866 H 0.6072 0.25482 0.49462 0.0
H867 H 0.61374 0.23073 0.48851 0.0
C868 C 0.441 0.5873 0.64224 0.0
C869 C 0.45103 0.57847 0.62855 0.0
C870 C 0.42326 0.59364 0.63705 0.0
C871 C 0.41549 0.59115 0.6177 0.0
C872 C 0.42614 0.58299 0.60372 0.0
C873 C 0.44378 0.57674 0.60932 0.0
C874 C 0.41228 0.60227 0.65235 0.0
C875 C 0.41848 0.5803 0.58293 0.0
C876 C 0.35207 0.5819 0.60705 0.0
C877 C 0.3577 0.60551 0.60112 0.0
C878 C 0.37071 0.57702 0.6126 0.0
C879 C 0.39557 0.59621 0.61216 0.0
C880 C 0.4014 0.62008 0.60618 0.0
C881 C 0.38239 0.62445 0.60076 0.0
C882 C 0.3638 0.5513 0.61884 0.0
C883 C 0.42771 0.64099 0.60556 0.0
H884 H 0.44639 0.58843 0.65714 0.0
H885 H 0.45176 0.57023 0.59866 0.0
H886 H 0.41404 0.62015 0.64819 0.0
H887 H 0.39234 0.58883 0.65383 0.0
H888 H 0.42123 0.60443 0.66652 0.0
H889 H 0.42931 0.57471 0.57372 0.0
H890 H 0.3987 0.56627 0.58157 0.0
H891 H 0.42078 0.59793 0.57744 0.0
H892 H 0.33305 0.56714 0.60718 0.0
H893 H 0.38685 0.64284 0.59651 0.0
H894 H 0.37069 0.55172 0.63357 0.0
H895 H 0.37261 0.54384 0.60926 0.0
H896 H 0.34358 0.53854 0.61865 0.0
H897 H 0.43608 0.64403 0.62003 0.0
H898 H 0.42913 0.65847 0.60054 0.0
H899 H 0.43873 0.63624 0.59586 0.0
C900 C 0.88004 0.4281 0.81243 0.0
C901 C 0.89574 0.44877 0.80133 0.0
C902 C 0.85635 0.41095 0.80607 0.0
C903 C 0.8477 0.41496 0.78846 0.0
C904 C 0.86302 0.43617 0.77747 0.0
C905 C 0.88697 0.45264 0.78389 0.0
C906 C 0.8407 0.38835 0.81807 0.0
C907 C 0.85416 0.44137 0.75886 0.0
C908 C 0.79531 0.35953 0.7638 0.0
C909 C 0.77466 0.36053 0.77036 0.0
C910 C 0.8192 0.37719 0.7695 0.0
C911 C 0.82264 0.39678 0.78159 0.0
C912 C 0.80204 0.3984 0.78779 0.0
C913 C 0.77833 0.38007 0.78239 0.0
C914 C 0.84072 0.37458 0.76291 0.0
C915 C 0.80502 0.41932 0.80036 0.0
H916 H 0.88625 0.42518 0.82616 0.0
H917 H 0.89893 0.4683 0.77502 0.0
H918 H 0.82356 0.38799 0.82254 0.0
H919 H 0.83521 0.37151 0.80946 0.0
H920 H 0.85045 0.3876 0.83113 0.0
H921 H 0.86778 0.4594 0.75259 0.0
H922 H 0.85043 0.42671 0.74828 0.0
H923 H 0.83661 0.44126 0.76122 0.0
H924 H 0.79289 0.34493 0.75419 0.0
H925 H 0.76264 0.38091 0.78793 0.0
H926 H 0.85053 0.37287 0.77554 0.0
H927 H 0.85405 0.39125 0.75492 0.0
H928 H 0.83492 0.35825 0.75356 0.0
H929 H 0.81233 0.41821 0.81457 0.0
H930 H 0.78735 0.41907 0.80256 0.0
H931 H 0.8185 0.43725 0.79389 0.0
C932 C 0.45982 0.89187 0.94045 0.0
C933 C 0.46019 0.89514 0.96037 0.0
C934 C 0.45395 0.86898 0.93259 0.0
C935 C 0.44826 0.84893 0.94496 0.0
C936 C 0.448 0.85199 0.96506 0.0
C937 C 0.454 0.87507 0.97251 0.0
C938 C 0.45447 0.8664 0.9111 0.0
C939 C 0.44182 0.83098 0.97871 0.0
C940 C 0.41405 0.78302 0.92712 0.0
C941 C 0.43315 0.7776 0.92566 0.0
C942 C 0.41879 0.80644 0.93279 0.0
C943 C 0.44322 0.82488 0.93704 0.0
C944 C 0.46271 0.81983 0.93485 0.0
C945 C 0.45743 0.79623 0.92919 0.0
C946 C 0.39756 0.81119 0.93487 0.0
C947 C 0.48902 0.83907 0.93921 0.0
H948 H 0.46487 0.90742 0.93103 0.0
H949 H 0.45399 0.87748 0.98791 0.0
H950 H 0.46904 0.8621 0.90715 0.0
H951 H 0.4367 0.85088 0.90601 0.0
H952 H 0.45805 0.88341 0.90344 0.0
H953 H 0.4417 0.83622 0.99391 0.0
H954 H 0.42347 0.81509 0.97519 0.0
H955 H 0.45545 0.82475 0.97715 0.0
H956 H 0.3953 0.7688 0.92409 0.0
H957 H 0.47223 0.79209 0.92826 0.0
H958 H 0.40128 0.82788 0.9267 0.0
H959 H 0.39544 0.81467 0.95015 0.0
H960 H 0.3799 0.79544 0.92977 0.0
H961 H 0.49417 0.85627 0.93122 0.0
H962 H 0.5022 0.83278 0.93546 0.0
H963 H 0.49092 0.84362 0.95472 0.0
C964 C 0.59569 0.46372 0.11325 0.0
C965 C 0.58861 0.46258 0.13246 0.0
C966 C 0.61308 0.45704 0.10786 0.0
C967 C 0.62366 0.44905 0.12205 0.0
C968 C 0.61609 0.44719 0.1414 0.0
C969 C 0.5986 0.45395 0.14638 0.0
C970 C 0.62054 0.45908 0.08706 0.0
C971 C 0.62699 0.43876 0.15691 0.0
C972 C 0.6558 0.41462 0.10559 0.0
C973 C 0.68057 0.43338 0.10556 0.0
C974 C 0.63707 0.4194 0.11107 0.0
C975 C 0.64328 0.44349 0.11669 0.0
C976 C 0.66825 0.46247 0.11682 0.0
C977 C 0.68659 0.45719 0.11124 0.0
C978 C 0.61066 0.39869 0.1108 0.0
C979 C 0.67556 0.48842 0.12268 0.0
H980 H 0.58774 0.47005 0.10242 0.0
H981 H 0.59334 0.45327 0.16127 0.0
H982 H 0.64039 0.47282 0.08553 0.0
H983 H 0.61789 0.44119 0.08188 0.0
H984 H 0.60985 0.46467 0.0777 0.0
H985 H 0.61821 0.43712 0.17108 0.0
H986 H 0.62493 0.42066 0.15309 0.0
H987 H 0.64699 0.45203 0.15822 0.0
H988 H 0.65106 0.39609 0.10153 0.0
H989 H 0.70566 0.47181 0.11106 0.0
H990 H 0.5997 0.40328 0.10088 0.0
H991 H 0.60242 0.39628 0.12527 0.0
H992 H 0.60895 0.38094 0.10622 0.0
H993 H 0.66693 0.49589 0.1129 0.0
H994 H 0.69582 0.50094 0.12241 0.0
H995 H 0.66875 0.48846 0.13736 0.0
C996 C 0.42357 0.89703 0.53281 0.0
C997 C 0.44726 0.90177 0.52805 0.0
C998 C 0.40562 0.87383 0.5395 0.0
C999 C 0.41148 0.85489 0.54135 0.0
C1000 C 0.43549 0.85966 0.53684 0.0
C1001 C 0.45317 0.88313 0.53032 0.0
C1002 C 0.38029 0.86951 0.54434 0.0
C1003 C 0.44234 0.83983 0.53851 0.0
C1004 C 0.37032 0.79954 0.57234 0.0
C1005 C 0.355 0.78247 0.55855 0.0
C1006 C 0.38883 0.82322 0.56696 0.0
C1007 C 0.39218 0.82984 0.54733 0.0
C1008 C 0.37681 0.81264 0.53335 0.0
C1009 C 0.35835 0.78918 0.53914 0.0
C1010 C 0.40473 0.84118 0.58227 0.0
C1011 C 0.37995 0.81897 0.51226 0.0
H1012 H 0.41908 0.91155 0.53134 0.0
H1013 H 0.47143 0.88673 0.52653 0.0
H1014 H 0.36642 0.85518 0.53474 0.0
H1015 H 0.37535 0.86262 0.55926 0.0
H1016 H 0.37903 0.88648 0.54287 0.0
H1017 H 0.46201 0.84675 0.53505 0.0
H1018 H 0.43867 0.83219 0.55326 0.0
H1019 H 0.43079 0.82445 0.52863 0.0
H1020 H 0.36765 0.79443 0.58737 0.0
H1021 H 0.3468 0.77589 0.52842 0.0
H1022 H 0.40284 0.85784 0.58179 0.0
H1023 H 0.42438 0.84724 0.57958 0.0
H1024 H 0.3998 0.83312 0.59689 0.0
H1025 H 0.37737 0.83498 0.50962 0.0
H1026 H 0.36668 0.80338 0.5032 0.0
H1027 H 0.39891 0.82434 0.50765 0.0
C1028 C 0.57199 0.43198 0.67538 0.0
C1029 C 0.56993 0.44804 0.68827 0.0
C1030 C 0.578 0.41445 0.68178 0.0
C1031 C 0.58246 0.41317 0.70152 0.0
C1032 C 0.5809 0.4296 0.71458 0.0
C1033 C 0.5745 0.44673 0.70782 0.0
C1034 C 0.57939 0.39715 0.66742 0.0
C1035 C 0.5858 0.42894 0.73571 0.0
C1036 C 0.57584 0.35337 0.7204 0.0
C1037 C 0.60036 0.35858 0.72042 0.0
C1038 C 0.56976 0.37101 0.71437 0.0
C1039 C 0.58867 0.39454 0.70846 0.0
C1040 C 0.61347 0.40009 0.70876 0.0
C1041 C 0.61899 0.38199 0.71457 0.0
C1042 C 0.54306 0.36438 0.7141 0.0
C1043 C 0.63416 0.42506 0.70273 0.0
H1044 H 0.56893 0.43313 0.66021 0.0
H1045 H 0.57262 0.4588 0.71794 0.0
H1046 H 0.59806 0.39934 0.66757 0.0
H1047 H 0.56619 0.3778 0.67142 0.0
H1048 H 0.57518 0.40041 0.6526 0.0
H1049 H 0.58458 0.44349 0.74389 0.0
H1050 H 0.57232 0.41075 0.74178 0.0
H1051 H 0.60439 0.43132 0.73785 0.0
H1052 H 0.56136 0.3355 0.72516 0.0
H1053 H 0.63795 0.3861 0.71419 0.0
H1054 H 0.53761 0.36615 0.6993 0.0
H1055 H 0.54042 0.37732 0.72327 0.0
H1056 H 0.53057 0.34531 0.71921 0.0
H1057 H 0.63195 0.42838 0.68742 0.0
H1058 H 0.65255 0.4268 0.70463 0.0
H1059 H 0.63355 0.43972 0.71119 0.0
C1060 C 0.14974 0.56354 0.87867 0.0
C1061 C 0.14524 0.56918 0.86017 0.0
C1062 C 0.1735 0.56952 0.88441 0.0
C1063 C 0.19331 0.58164 0.8714 0.0
C1064 C 0.18905 0.58802 0.85289 0.0
C1065 C 0.16503 0.58165 0.84747 0.0
C1066 C 0.17732 0.56247 0.9043 0.0
C1067 C 0.20979 0.6011 0.83868 0.0
C1068 C 0.25794 0.61428 0.89205 0.0
C1069 C 0.26561 0.59713 0.88852 0.0
C1070 C 0.23453 0.6096 0.88638 0.0
C1071 C 0.21838 0.58716 0.87708 0.0
C1072 C 0.22601 0.56975 0.87351 0.0
C1073 C 0.2496 0.575 0.87921 0.0
C1074 C 0.22712 0.62868 0.89027 0.0
C1075 C 0.20918 0.54551 0.86379 0.0
H1076 H 0.13459 0.55431 0.88868 0.0
H1077 H 0.16166 0.58584 0.83309 0.0
H1078 H 0.18469 0.54969 0.90331 0.0
H1079 H 0.19111 0.57904 0.91217 0.0
H1080 H 0.16002 0.55343 0.91278 0.0
H1081 H 0.2036 0.60576 0.82519 0.0
H1082 H 0.22473 0.61832 0.84508 0.0
H1083 H 0.21776 0.5893 0.83511 0.0
H1084 H 0.27044 0.6316 0.89896 0.0
H1085 H 0.25544 0.56166 0.87658 0.0
H1086 H 0.2105 0.62074 0.89951 0.0
H1087 H 0.22229 0.63434 0.87663 0.0
H1088 H 0.24197 0.64533 0.89744 0.0
H1089 H 0.19211 0.53496 0.87234 0.0
H1090 H 0.21798 0.53406 0.86195 0.0
H1091 H 0.20366 0.54882 0.84948 0.0
C1092 C 0.62217 0.14981 0.02079 0.0
C1093 C 0.597 0.14208 0.02181 0.0
C1094 C 0.64001 0.17351 0.02664 0.0
C1095 C 0.63248 0.18985 0.0337 0.0
C1096 C 0.60711 0.18223 0.03466 0.0
C1097 C 0.58965 0.15842 0.02866 0.0
C1098 C 0.66691 0.18106 0.02528 0.0
C1099 C 0.59841 0.19917 0.04215 0.0
C1100 C 0.67712 0.24318 0.06496 0.0
C1101 C 0.6866 0.26278 0.05189 0.0
C1102 C 0.65946 0.21931 0.05924 0.0
C1103 C 0.65119 0.21499 0.03999 0.0
C1104 C 0.66085 0.23467 0.0267 0.0
C1105 C 0.67843 0.25833 0.03282 0.0
C1106 C 0.6495 0.19876 0.07382 0.0
C1107 C 0.65259 0.23073 0.00601 0.0
H1108 H 0.62794 0.13734 0.01525 0.0
H1109 H 0.57021 0.15241 0.02967 0.0
H1110 H 0.6767 0.19749 0.01593 0.0
H1111 H 0.67556 0.18624 0.03966 0.0
H1112 H 0.66968 0.16615 0.01943 0.0
H1113 H 0.57803 0.19045 0.04192 0.0
H1114 H 0.6049 0.2047 0.05709 0.0
H1115 H 0.60637 0.21623 0.03341 0.0
H1116 H 0.68319 0.2466 0.07977 0.0
H1117 H 0.68596 0.27338 0.02261 0.0
H1118 H 0.65299 0.18392 0.069 0.0
H1119 H 0.62927 0.19057 0.07513 0.0
H1120 H 0.65793 0.20517 0.0882 0.0
H1121 H 0.65637 0.21692 0.9993 0.0
H1122 H 0.66197 0.24799 0.99749 0.0
H1123 H 0.63243 0.22333 0.00523 0.0
C1124 C 0.49637 0.62349 0.19512 0.0
C1125 C 0.4774 0.5992 0.19215 0.0
C1126 C 0.49126 0.64172 0.20133 0.0
C1127 C 0.46656 0.63549 0.20467 0.0
C1128 C 0.44733 0.61092 0.20199 0.0
C1129 C 0.453 0.59304 0.19579 0.0
C1130 C 0.51226 0.66769 0.20412 0.0
C1131 C 0.42077 0.60362 0.20538 0.0
C1132 C 0.45463 0.67846 0.23535 0.0
C1133 C 0.45034 0.69197 0.22138 0.0
C1134 C 0.45989 0.65997 0.23013 0.0
C1135 C 0.46083 0.65487 0.21048 0.0
C1136 C 0.45656 0.66846 0.19631 0.0
C1137 C 0.45137 0.68685 0.20194 0.0
C1138 C 0.46446 0.64592 0.24563 0.0
C1139 C 0.45735 0.6635 0.17521 0.0
H1140 H 0.51531 0.62826 0.19264 0.0
H1141 H 0.43826 0.57433 0.19336 0.0
H1142 H 0.51003 0.68037 0.19431 0.0
H1143 H 0.51208 0.67391 0.21898 0.0
H1144 H 0.53047 0.66936 0.20136 0.0
H1145 H 0.40807 0.5836 0.2032 0.0
H1146 H 0.41838 0.60851 0.22019 0.0
H1147 H 0.41537 0.61394 0.19546 0.0
H1148 H 0.45408 0.6825 0.25039 0.0
H1149 H 0.44767 0.69695 0.19108 0.0
H1150 H 0.48312 0.64832 0.24394 0.0
H1151 H 0.45107 0.62595 0.24429 0.0
H1152 H 0.46291 0.65204 0.26025 0.0
H1153 H 0.47571 0.6662 0.17139 0.0
H1154 H 0.45357 0.67569 0.16601 0.0
H1155 H 0.44358 0.64408 0.17191 0.0
C1156 C 0.89423 0.46984 0.37497 0.0
C1157 C 0.90036 0.4735 0.35543 0.0
C1158 C 0.87063 0.46377 0.3813 0.0
C1159 C 0.85278 0.4615 0.36778 0.0
C1160 C 0.85878 0.46506 0.34804 0.0
C1161 C 0.88244 0.47089 0.3421 0.0
C1162 C 0.86483 0.45994 0.40246 0.0
C1163 C 0.84023 0.46284 0.3332 0.0
C1164 C 0.78509 0.42508 0.381 0.0
C1165 C 0.78008 0.44384 0.3859 0.0
C1166 C 0.80874 0.43056 0.3753 0.0
C1167 C 0.8278 0.45542 0.37427 0.0
C1168 C 0.82291 0.47446 0.37917 0.0
C1169 C 0.79913 0.46844 0.38501 0.0
C1170 C 0.81327 0.40975 0.37025 0.0
C1171 C 0.84278 0.50119 0.37815 0.0
H1172 H 0.90805 0.47215 0.38539 0.0
H1173 H 0.88689 0.47331 0.32695 0.0
H1174 H 0.85977 0.47351 0.40772 0.0
H1175 H 0.84877 0.44135 0.40498 0.0
H1176 H 0.8806 0.46186 0.41107 0.0
H1177 H 0.84787 0.46633 0.31843 0.0
H1178 H 0.82379 0.44414 0.33371 0.0
H1179 H 0.83393 0.47613 0.3364 0.0
H1180 H 0.77041 0.40605 0.38131 0.0
H1181 H 0.79551 0.48302 0.389 0.0
H1182 H 0.82839 0.4108 0.3792 0.0
H1183 H 0.81916 0.41141 0.35506 0.0
H1184 H 0.79664 0.39139 0.37234 0.0
H1185 H 0.85835 0.50454 0.38764 0.0
H1186 H 0.83598 0.51379 0.38245 0.0
H1187 H 0.8501 0.50587 0.36333 0.0
C1188 C 0.09748 0.54803 0.42561 0.0
C1189 C 0.10686 0.55653 0.40719 0.0
C1190 C 0.11294 0.55587 0.44173 0.0
C1191 C 0.13839 0.57264 0.43937 0.0
C1192 C 0.14801 0.58122 0.42081 0.0
C1193 C 0.13212 0.57308 0.40494 0.0
C1194 C 0.10198 0.54639 0.46131 0.0
C1195 C 0.17508 0.59905 0.41773 0.0
C1196 C 0.17387 0.61092 0.48247 0.0
C1197 C 0.18542 0.59811 0.48914 0.0
C1198 C 0.15865 0.60291 0.46623 0.0
C1199 C 0.15486 0.58155 0.4564 0.0
C1200 C 0.1665 0.56855 0.46301 0.0
C1201 C 0.18163 0.57698 0.47932 0.0
C1202 C 0.14646 0.61719 0.45968 0.0
C1203 C 0.16294 0.54574 0.45286 0.0
H1204 H 0.07793 0.53549 0.42748 0.0
H1205 H 0.13951 0.57947 0.3907 0.0
H1206 H 0.11122 0.53723 0.4682 0.0
H1207 H 0.10507 0.562 0.47065 0.0
H1208 H 0.08189 0.5331 0.46065 0.0
H1209 H 0.17968 0.6037 0.40235 0.0
H1210 H 0.18066 0.6163 0.42579 0.0
H1211 H 0.18614 0.5911 0.42336 0.0
H1212 H 0.17643 0.62705 0.49015 0.0
H1213 H 0.19073 0.56717 0.48428 0.0
H1214 H 0.12615 0.60517 0.46004 0.0
H1215 H 0.15168 0.62331 0.44463 0.0
H1216 H 0.15159 0.63361 0.46875 0.0
H1217 H 0.14314 0.53149 0.45282 0.0
H1218 H 0.17349 0.53789 0.45971 0.0
H1219 H 0.16882 0.55008 0.43768 0.0
C1220 C 0.59776 0.12138 0.57971 0.0
C1221 C 0.57255 0.10565 0.5765 0.0
C1222 C 0.60612 0.13661 0.59596 0.0
C1223 C 0.58884 0.13574 0.60945 0.0
C1224 C 0.56335 0.11974 0.60633 0.0
C1225 C 0.5555 0.10503 0.58979 0.0
C1226 C 0.63341 0.15375 0.5986 0.0
C1227 C 0.54439 0.11803 0.62054 0.0
C1228 C 0.61166 0.15901 0.65988 0.0
C1229 C 0.61366 0.18233 0.65957 0.0
C1230 C 0.60341 0.14357 0.64374 0.0
C1231 C 0.59743 0.15178 0.62674 0.0
C1232 C 0.5996 0.17533 0.62624 0.0
C1233 C 0.60741 0.19018 0.64269 0.0
C1234 C 0.60104 0.11843 0.64488 0.0
C1235 C 0.59362 0.18485 0.60832 0.0
H1236 H 0.61094 0.12199 0.56934 0.0
H1237 H 0.53601 0.09266 0.58741 0.0
H1238 H 0.63738 0.17306 0.59951 0.0
H1239 H 0.6396 0.14954 0.61226 0.0
H1240 H 0.64441 0.15236 0.58668 0.0
H1241 H 0.52532 0.10433 0.61617 0.0
H1242 H 0.54805 0.1128 0.63486 0.0
H1243 H 0.54568 0.13623 0.6221 0.0
H1244 H 0.61673 0.15285 0.67271 0.0
H1245 H 0.60831 0.20787 0.64236 0.0
H1246 H 0.61327 0.11695 0.63414 0.0
H1247 H 0.5819 0.10402 0.64141 0.0
H1248 H 0.60583 0.11455 0.6593 0.0
H1249 H 0.60489 0.1846 0.59616 0.0
H1250 H 0.59703 0.2039 0.6101 0.0
H1251 H 0.57402 0.17268 0.6044 0.0
C1252 C 0.46265 0.5589 0.74507 0.0
C1253 C 0.48653 0.57252 0.7375 0.0
C1254 C 0.45534 0.56743 0.76095 0.0
C1255 C 0.47248 0.58986 0.7698 0.0
C1256 C 0.49658 0.60372 0.7623 0.0
C1257 C 0.50321 0.59505 0.74612 0.0
C1258 C 0.42933 0.55234 0.76837 0.0
C1259 C 0.51548 0.62756 0.77151 0.0
C1260 C 0.44901 0.62278 0.80172 0.0
C1261 C 0.45109 0.61472 0.82006 0.0
C1262 C 0.45572 0.6147 0.78523 0.0
C1263 C 0.4653 0.59863 0.78711 0.0
C1264 C 0.46793 0.59079 0.80554 0.0
C1265 C 0.46053 0.59868 0.82175 0.0
C1266 C 0.45232 0.62318 0.76578 0.0
C1267 C 0.47845 0.57395 0.80815 0.0
H1268 H 0.44969 0.5413 0.73878 0.0
H1269 H 0.52153 0.60603 0.74021 0.0
H1270 H 0.42957 0.54601 0.78318 0.0
H1271 H 0.42044 0.5638 0.76898 0.0
H1272 H 0.4179 0.53596 0.75929 0.0
H1273 H 0.53354 0.63599 0.76405 0.0
H1274 H 0.50883 0.64095 0.77148 0.0
H1275 H 0.51824 0.62425 0.7867 0.0
H1276 H 0.44219 0.63551 0.8002 0.0
H1277 H 0.4618 0.59189 0.83574 0.0
H1278 H 0.44017 0.607 0.75677 0.0
H1279 H 0.4703 0.63335 0.75832 0.0
H1280 H 0.44416 0.63529 0.76675 0.0
H1281 H 0.46646 0.55608 0.80097 0.0
H1282 H 0.48026 0.5704 0.8235 0.0
H1283 H 0.49686 0.58215 0.80132 0.0
C1284 C 0.91205 0.47721 0.90803 0.0
C1285 C 0.93716 0.48505 0.91019 0.0
C1286 C 0.8964 0.47063 0.92399 0.0
C1287 C 0.90601 0.47169 0.94255 0.0
C1288 C 0.93132 0.47965 0.94486 0.0
C1289 C 0.9466 0.48634 0.92867 0.0
C1290 C 0.8695 0.46229 0.92097 0.0
C1291 C 0.94222 0.48091 0.96442 0.0
C1292 C 0.8702 0.47311 0.98602 0.0
C1293 C 0.85794 0.44834 0.99164 0.0
C1294 C 0.88583 0.481 0.96998 0.0
C1295 C 0.88944 0.46372 0.9595 0.0
C1296 C 0.87726 0.43873 0.96523 0.0
C1297 C 0.86159 0.43134 0.98119 0.0
C1298 C 0.89835 0.50775 0.96416 0.0
C1299 C 0.88087 0.41982 0.95457 0.0
H1300 H 0.90453 0.47586 0.8938 0.0
H1301 H 0.96605 0.4928 0.93051 0.0
H1302 H 0.85801 0.44296 0.92583 0.0
H1303 H 0.86421 0.47369 0.92971 0.0
H1304 H 0.86514 0.46348 0.90571 0.0
H1305 H 0.9623 0.48768 0.96378 0.0
H1306 H 0.9391 0.49327 0.97392 0.0
H1307 H 0.93293 0.46238 0.97113 0.0
H1308 H 0.86726 0.48625 0.994 0.0
H1309 H 0.85241 0.41223 0.98568 0.0
H1310 H 0.89305 0.50937 0.94928 0.0
H1311 H 0.91862 0.51576 0.96433 0.0
H1312 H 0.89352 0.51882 0.97378 0.0
H1313 H 0.87524 0.41891 0.93938 0.0
H1314 H 0.87011 0.40114 0.96095 0.0
H1315 H 0.90064 0.42526 0.95462 0.0
C1316 C 0.47849 0.92788 0.08414 0.0
C1317 C 0.46368 0.93527 0.07439 0.0
C1318 C 0.46985 0.91289 0.10048 0.0
C1319 C 0.44566 0.90477 0.10714 0.0
C1320 C 0.43044 0.91177 0.09722 0.0
C1321 C 0.43967 0.92705 0.08103 0.0
C1322 C 0.48669 0.90589 0.11072 0.0
C1323 C 0.40448 0.9033 0.10381 0.0
C1324 C 0.41839 0.84898 0.13997 0.0
C1325 C 0.42242 0.85992 0.15816 0.0
C1326 C 0.42517 0.86329 0.12321 0.0
C1327 C 0.43652 0.88921 0.12466 0.0
C1328 C 0.44016 0.90035 0.14292 0.0
C1329 C 0.43293 0.88558 0.15943 0.0
C1330 C 0.42078 0.85071 0.10398 0.0
C1331 C 0.45229 0.92795 0.14505 0.0
H1332 H 0.49688 0.93374 0.07894 0.0
H1333 H 0.42818 0.9329 0.07378 0.0
H1334 H 0.48936 0.91238 0.12579 0.0
H1335 H 0.4782 0.88557 0.1111 0.0
H1336 H 0.50501 0.91381 0.10374 0.0
H1337 H 0.39472 0.90966 0.09412 0.0
H1338 H 0.39382 0.88291 0.10457 0.0
H1339 H 0.40478 0.91035 0.11845 0.0
H1340 H 0.4106 0.82923 0.1388 0.0
H1341 H 0.43572 0.89418 0.17338 0.0
H1342 H 0.43868 0.85612 0.09701 0.0
H1343 H 0.41061 0.85665 0.09438 0.0
H1344 H 0.41018 0.83033 0.10523 0.0
H1345 H 0.47135 0.9368 0.13936 0.0
H1346 H 0.45303 0.93368 0.16022 0.0
H1347 H 0.4422 0.93503 0.13654 0.0
C1348 C 0.57458 0.48554 0.25026 0.0
C1349 C 0.55471 0.46903 0.23889 0.0
C1350 C 0.58226 0.47726 0.26608 0.0
C1351 C 0.56991 0.45182 0.2705 0.0
C1352 C 0.55001 0.43502 0.25893 0.0
C1353 C 0.54257 0.44385 0.24331 0.0
C1354 C 0.6034 0.49577 0.2782 0.0
C1355 C 0.53659 0.40773 0.26306 0.0
C1356 C 0.60429 0.42933 0.30175 0.0
C1357 C 0.59376 0.42783 0.31979 0.0
C1358 C 0.59638 0.43666 0.2855 0.0
C1359 C 0.57768 0.44288 0.28739 0.0
C1360 C 0.5668 0.44115 0.30554 0.0
C1361 C 0.5749 0.43353 0.32151 0.0
C1362 C 0.6082 0.43798 0.26634 0.0
C1363 C 0.54697 0.44785 0.30817 0.0
H1364 H 0.58383 0.50505 0.247 0.0
H1365 H 0.52736 0.43102 0.2344 0.0
H1366 H 0.59715 0.49502 0.2932 0.0
H1367 H 0.61834 0.4912 0.27852 0.0
H1368 H 0.61108 0.51489 0.2728 0.0
H1369 H 0.52183 0.39707 0.25244 0.0
H1370 H 0.54975 0.4008 0.26299 0.0
H1371 H 0.52823 0.4042 0.27756 0.0
H1372 H 0.61871 0.42469 0.30035 0.0
H1373 H 0.56693 0.43267 0.33547 0.0
H1374 H 0.61765 0.45721 0.26097 0.0
H1375 H 0.5939 0.42654 0.25566 0.0
H1376 H 0.62182 0.43163 0.26716 0.0
H1377 H 0.55426 0.46744 0.30426 0.0
H1378 H 0.54006 0.44502 0.32315 0.0
H1379 H 0.53125 0.43662 0.29847 0.0
C1380 C 0.50511 0.93059 0.41025 0.0
C1381 C 0.49068 0.94075 0.41612 0.0
C1382 C 0.49834 0.91471 0.39441 0.0
C1383 C 0.47677 0.90907 0.38402 0.0
C1384 C 0.46216 0.91931 0.38978 0.0
C1385 C 0.4692 0.93489 0.40582 0.0
C1386 C 0.5143 0.90401 0.38876 0.0
C1387 C 0.43908 0.91383 0.379 0.0
C1388 C 0.47054 0.88661 0.33263 0.0
C1389 C 0.45418 0.86131 0.33472 0.0
C1390 C 0.47818 0.90237 0.34858 0.0
C1391 C 0.46946 0.8925 0.36706 0.0
C1392 C 0.45332 0.86688 0.36929 0.0
C1393 C 0.44575 0.85161 0.35307 0.0
C1394 C 0.49518 0.92963 0.3456 0.0
C1395 C 0.4439 0.85564 0.3888 0.0
H1396 H 0.52194 0.93529 0.4179 0.0
H1397 H 0.4577 0.9423 0.4104 0.0
H1398 H 0.50322 0.88361 0.38869 0.0
H1399 H 0.52143 0.90991 0.374 0.0
H1400 H 0.53017 0.90976 0.39861 0.0
H1401 H 0.42999 0.9236 0.38513 0.0
H1402 H 0.44357 0.9193 0.36375 0.0
H1403 H 0.4258 0.89375 0.37925 0.0
H1404 H 0.47686 0.89419 0.31843 0.0
H1405 H 0.4333 0.832 0.35472 0.0
H1406 H 0.51205 0.93612 0.3544 0.0
H1407 H 0.48599 0.93989 0.35042 0.0
H1408 H 0.50066 0.93429 0.33035 0.0
H1409 H 0.45959 0.8603 0.39858 0.0
H1410 H 0.43213 0.83528 0.38815 0.0
H1411 H 0.43302 0.86337 0.39518 0.0
C1412 C 0.58691 0.48095 0.58007 0.0
C1413 C 0.57534 0.495 0.57806 0.0
C1414 C 0.59607 0.47461 0.56401 0.0
C1415 C 0.5938 0.48277 0.54559 0.0
C1416 C 0.58265 0.49746 0.54356 0.0
C1417 C 0.57342 0.50329 0.55982 0.0
C1418 C 0.6076 0.45869 0.56671 0.0
C1419 C 0.58014 0.50674 0.52418 0.0
C1420 C 0.63386 0.48172 0.50513 0.0
C1421 C 0.61723 0.4603 0.49527 0.0
C1422 C 0.62651 0.48934 0.52154 0.0
C1423 C 0.60205 0.47501 0.52832 0.0
C1424 C 0.58527 0.45326 0.51849 0.0
C1425 C 0.59304 0.44623 0.50203 0.0
C1426 C 0.64481 0.51279 0.53154 0.0
C1427 C 0.55912 0.43733 0.5254 0.0
H1428 H 0.58825 0.47439 0.59415 0.0
H1429 H 0.56478 0.51445 0.55829 0.0
H1430 H 0.59665 0.44104 0.55894 0.0
H1431 H 0.62642 0.4679 0.56053 0.0
H1432 H 0.60873 0.45459 0.58205 0.0
H1433 H 0.57214 0.51899 0.52519 0.0
H1434 H 0.59841 0.51698 0.51713 0.0
H1435 H 0.56818 0.49094 0.51479 0.0
H1436 H 0.65254 0.49267 0.49985 0.0
H1437 H 0.58025 0.42945 0.4946 0.0
H1438 H 0.64715 0.50882 0.54665 0.0
H1439 H 0.63781 0.52589 0.53181 0.0
H1440 H 0.66311 0.52183 0.52443 0.0
H1441 H 0.5591 0.43126 0.54034 0.0
H1442 H 0.5485 0.42078 0.51628 0.0
H1443 H 0.54949 0.44811 0.52547 0.0
C1444 C 0.11424 0.59667 0.74525 0.0
C1445 C 0.10505 0.57242 0.7517 0.0
C1446 C 0.12972 0.60562 0.72917 0.0
C1447 C 0.1364 0.59005 0.71943 0.0
C1448 C 0.12747 0.56567 0.72598 0.0
C1449 C 0.11179 0.55711 0.74195 0.0
C1450 C 0.13879 0.63168 0.72254 0.0
C1451 C 0.13433 0.54856 0.71602 0.0
C1452 C 0.15755 0.6034 0.6676 0.0
C1453 C 0.18322 0.61481 0.66953 0.0
C1454 C 0.14213 0.59566 0.68374 0.0
C1455 C 0.15259 0.59914 0.70226 0.0
C1456 C 0.17846 0.61081 0.70435 0.0
C1457 C 0.19346 0.61863 0.68797 0.0
C1458 C 0.11461 0.58344 0.68095 0.0
C1459 C 0.19028 0.61474 0.72387 0.0
H1460 H 0.10947 0.60876 0.75286 0.0
H1461 H 0.1045 0.53824 0.74661 0.0
H1462 H 0.1592 0.64228 0.72273 0.0
H1463 H 0.13289 0.63161 0.70753 0.0
H1464 H 0.13179 0.64139 0.73164 0.0
H1465 H 0.12636 0.53037 0.72323 0.0
H1466 H 0.12777 0.54562 0.70096 0.0
H1467 H 0.15465 0.55697 0.71562 0.0
H1468 H 0.14941 0.60002 0.65343 0.0
H1469 H 0.21328 0.62779 0.68964 0.0
H1470 H 0.10715 0.59326 0.68934 0.0
H1471 H 0.10563 0.56424 0.68636 0.0
H1472 H 0.10947 0.58305 0.66566 0.0
H1473 H 0.18489 0.62573 0.73302 0.0
H1474 H 0.21069 0.62435 0.72305 0.0
H1475 H 0.18365 0.59674 0.73108 0.0
C1476 C 0.56851 0.10196 0.90208 0.0
C1477 C 0.55177 0.1022 0.91525 0.0
C1478 C 0.57595 0.11731 0.88589 0.0
C1479 C 0.56667 0.13353 0.88298 0.0
C1480 C 0.54995 0.13401 0.89636 0.0
C1481 C 0.54256 0.1182 0.91228 0.0
C1482 C 0.59357 0.11604 0.87181 0.0
C1483 C 0.53996 0.15132 0.89392 0.0
C1484 C 0.6032 0.1891 0.85088 0.0
C1485 C 0.58958 0.18168 0.83377 0.0
C1486 C 0.59587 0.17368 0.86702 0.0
C1487 C 0.57458 0.15009 0.86599 0.0
C1488 C 0.56084 0.14236 0.84875 0.0
C1489 C 0.56843 0.15828 0.83289 0.0
C1490 C 0.61094 0.18264 0.88518 0.0
C1491 C 0.53812 0.11726 0.84707 0.0
H1492 H 0.57544 0.0894 0.90427 0.0
H1493 H 0.52978 0.11856 0.92256 0.0
H1494 H 0.58504 0.1112 0.85736 0.0
H1495 H 0.6105 0.13431 0.87062 0.0
H1496 H 0.59887 0.10226 0.87606 0.0
H1497 H 0.52728 0.14957 0.90571 0.0
H1498 H 0.55537 0.17063 0.89344 0.0
H1499 H 0.52994 0.1476 0.88011 0.0
H1500 H 0.61984 0.20691 0.85163 0.0
H1501 H 0.55762 0.15248 0.81984 0.0
H1502 H 0.61813 0.17026 0.88904 0.0
H1503 H 0.59917 0.18218 0.89723 0.0
H1504 H 0.62673 0.20168 0.88376 0.0
H1505 H 0.54277 0.10275 0.85034 0.0
H1506 H 0.52978 0.11383 0.83254 0.0
H1507 H 0.52416 0.11544 0.85771 0.0
C1508 C 0.44523 0.54059 0.07587 0.0
C1509 C 0.47004 0.55411 0.08143 0.0
C1510 C 0.43652 0.54773 0.05997 0.0
C1511 C 0.45308 0.56871 0.04925 0.0
C1512 C 0.47811 0.58244 0.05477 0.0
C1513 C 0.48624 0.57508 0.07085 0.0
C1514 C 0.40965 0.53277 0.0546 0.0
C1515 C 0.49635 0.60487 0.04364 0.0
C1516 C 0.43777 0.57543 0.99771 0.0
C1517 C 0.43053 0.59315 0.99954 0.0
C1518 C 0.44483 0.56703 0.01382 0.0
C1519 C 0.44432 0.57637 0.0322 0.0
C1520 C 0.43636 0.59376 0.03418 0.0
C1521 C 0.4297 0.60206 0.01779 0.0
C1522 C 0.45349 0.54868 0.01112 0.0
C1523 C 0.43521 0.60387 0.05356 0.0
H1524 H 0.43264 0.52418 0.08376 0.0
H1525 H 0.50533 0.5859 0.07522 0.0
H1526 H 0.4013 0.54473 0.05432 0.0
H1527 H 0.40779 0.52507 0.03998 0.0
H1528 H 0.39904 0.51735 0.06474 0.0
H1529 H 0.51526 0.61329 0.04963 0.0
H1530 H 0.49684 0.59983 0.02846 0.0
H1531 H 0.49053 0.61891 0.04369 0.0
H1532 H 0.43861 0.56868 0.98358 0.0
H1533 H 0.42382 0.61556 0.01924 0.0
H1534 H 0.44254 0.53225 0.02024 0.0
H1535 H 0.47298 0.55701 0.01571 0.0
H1536 H 0.452 0.54261 0.99598 0.0
H1537 H 0.42382 0.58856 0.06354 0.0
H1538 H 0.42741 0.61631 0.05274 0.0
H1539 H 0.45396 0.61424 0.0598 0.0
C1540 C 0.91671 0.46018 0.24905 0.0
C1541 C 0.94172 0.46778 0.24698 0.0
C1542 C 0.90076 0.4517 0.23323 0.0
C1543 C 0.91001 0.45033 0.21502 0.0
C1544 C 0.93519 0.45754 0.21296 0.0
C1545 C 0.95081 0.46644 0.22895 0.0
C1546 C 0.87414 0.44463 0.23591 0.0
C1547 C 0.94562 0.45589 0.19386 0.0
C1548 C 0.8638 0.40877 0.17763 0.0
C1549 C 0.86191 0.42593 0.16596 0.0
C1550 C 0.87964 0.41647 0.19353 0.0
C1551 C 0.89346 0.44186 0.19804 0.0
C1552 C 0.89142 0.45922 0.18635 0.0
C1553 C 0.87583 0.45104 0.17032 0.0
C1554 C 0.8817 0.39748 0.20545 0.0
C1555 C 0.90549 0.4864 0.19091 0.0
H1556 H 0.90976 0.46141 0.263 0.0
H1557 H 0.97014 0.47212 0.22743 0.0
H1558 H 0.86969 0.45624 0.22662 0.0
H1559 H 0.86193 0.42522 0.23151 0.0
H1560 H 0.86988 0.44677 0.25101 0.0
H1561 H 0.96535 0.46127 0.19486 0.0
H1562 H 0.9351 0.43682 0.18824 0.0
H1563 H 0.94374 0.46807 0.18329 0.0
H1564 H 0.85309 0.38935 0.17415 0.0
H1565 H 0.87413 0.46426 0.16139 0.0
H1566 H 0.87597 0.39792 0.22042 0.0
H1567 H 0.90115 0.40181 0.20592 0.0
H1568 H 0.87017 0.37854 0.19973 0.0
H1569 H 0.90072 0.4896 0.20554 0.0
H1570 H 0.90152 0.49743 0.18055 0.0
H1571 H 0.92556 0.4932 0.19075 0.0
loop_
_geom_bond_atom_site_label_1
_geom_bond_atom_site_label_2
_geom_bond_distance
_geom_bond_site_symmetry_2
_ccdc_geom_bond_type
C0 C1 1.384 . S
C0 C2 1.384 . S
C0 H28 0.931 . S
C1 C0 1.384 . S
C1 C4 1.382 . S
C2 C0 1.384 . S
C2 C3 1.381 . S
C2 H29 0.930 . S
C3 C2 1.381 . S
C3 C5 1.381 . S
C3 C6 1.487 . S
C4 C1 1.382 . S
C4 C5 1.387 . S
C4 H30 0.930 . S
C5 C3 1.381 . S
C5 C4 1.387 . S
C5 H31 0.931 . S
C6 C3 1.487 . S
C6 C13 1.399 1_655 S
C6 N44 1.343 1_655 S
C7 C8 1.384 . S
C7 C9 1.384 . S
C7 H32 0.931 . S
C8 C7 1.384 . S
C8 C11 1.382 . S
C9 C7 1.384 . S
C9 C10 1.381 . S
C9 H33 0.930 . S
C10 C9 1.381 . S
C10 C12 1.381 . S
C10 C13 1.487 1_655 S
C11 C8 1.382 . S
C11 C12 1.387 . S
C11 H34 0.930 . S
C12 C10 1.381 . S
C12 C11 1.387 . S
C12 H35 0.931 1_655 S
C13 C6 1.399 1_455 S
C13 C10 1.487 1_455 S
C13 N45 1.343 . S
C14 C15 1.384 . S
C14 C16 1.384 . S
C14 H36 0.931 . S
C15 C14 1.384 . S
C15 C18 1.382 . S
C16 C14 1.384 . S
C16 C17 1.381 . S
C16 H37 0.930 . S
C17 C16 1.381 . S
C17 C19 1.381 . S
C17 C20 1.487 . S
C18 C15 1.382 . S
C18 C19 1.387 . S
C18 H38 0.930 . S
C19 C17 1.381 . S
C19 C18 1.387 . S
C19 H39 0.931 . S
C20 C17 1.487 . S
C20 C27 1.399 . S
C20 N45 1.343 . S
C21 C22 1.384 . S
C21 C23 1.384 . S
C21 H40 0.931 . S
C22 C21 1.384 . S
C22 C25 1.382 . S
C23 C21 1.384 . S
C23 C24 1.381 . S
C23 H41 0.930 . S
C24 C23 1.381 . S
C24 C26 1.381 . S
C24 C27 1.487 . S
C25 C22 1.382 . S
C25 C26 1.387 . S
C25 H42 0.930 . S
C26 C24 1.381 . S
C26 C25 1.387 . S
C26 H43 0.931 . S
C27 C20 1.399 . S
C27 C24 1.487 . S
C27 N44 1.343 . S
H28 C0 0.931 . S
H29 C2 0.930 . S
H30 C4 0.930 . S
H31 C5 0.931 . S
H32 C7 0.931 . S
H33 C9 0.930 . S
H34 C11 0.930 . S
H35 C12 0.931 1_455 S
H36 C14 0.931 . S
H37 C16 0.930 . S
H38 C18 0.930 . S
H39 C19 0.931 . S
H40 C21 0.931 . S
H41 C23 0.930 . S
H42 C25 0.930 . S
H43 C26 0.931 . S
N44 C6 1.343 1_455 S
N44 C27 1.343 . S
N45 C13 1.343 . S
N45 C20 1.343 . S
C46 C47 1.384 . S
C46 C48 1.384 . S
C46 H74 0.931 . S
C47 C46 1.384 . S
C47 C50 1.382 . S
C48 C46 1.384 . S
C48 C49 1.381 . S
C48 H75 0.930 . S
C49 C48 1.381 . S
C49 C51 1.381 . S
C49 C52 1.487 . S
C50 C47 1.382 . S
C50 C51 1.387 . S
C50 H76 0.930 . S
C51 C49 1.381 . S
C51 C50 1.387 . S
C51 H77 0.931 . S
C52 C49 1.487 . S
C52 C59 1.399 1_565 S
C52 N90 1.343 1_565 S
C53 C54 1.384 . S
C53 C55 1.384 . S
C53 H78 0.931 . S
C54 C53 1.384 . S
C54 C57 1.382 . S
C55 C53 1.384 . S
C55 C56 1.381 . S
C55 H79 0.930 . S
C56 C55 1.381 . S
C56 C58 1.381 . S
C56 C59 1.487 1_565 S
C57 C54 1.382 . S
C57 C58 1.387 . S
C57 H80 0.930 . S
C58 C56 1.381 . S
C58 C57 1.387 . S
C58 H81 0.931 1_565 S
C59 C52 1.399 1_545 S
C59 C56 1.487 1_545 S
C59 N91 1.343 . S
C60 C61 1.384 . S
C60 C62 1.384 . S
C60 H82 0.931 . S
C61 C60 1.384 . S
C61 C64 1.382 . S
C62 C60 1.384 . S
C62 C63 1.381 . S
C62 H83 0.930 . S
C63 C62 1.381 . S
C63 C65 1.381 . S
C63 C66 1.487 . S
C64 C61 1.382 . S
C64 C65 1.387 . S
C64 H84 0.930 . S
C65 C63 1.381 . S
C65 C64 1.387 . S
C65 H85 0.931 . S
C66 C63 1.487 . S
C66 C73 1.399 . S
C66 N91 1.343 . S
C67 C68 1.384 . S
C67 C69 1.384 . S
C67 H86 0.931 . S
C68 C67 1.384 . S
C68 C71 1.382 . S
C69 C67 1.384 . S
C69 C70 1.381 . S
C69 H87 0.930 . S
C70 C69 1.381 . S
C70 C72 1.381 . S
C70 C73 1.487 . S
C71 C68 1.382 . S
C71 C72 1.387 . S
C71 H88 0.930 . S
C72 C70 1.381 . S
C72 C71 1.387 . S
C72 H89 0.931 . S
C73 C66 1.399 . S
C73 C70 1.487 . S
C73 N90 1.343 . S
H74 C46 0.931 . S
H75 C48 0.930 . S
H76 C50 0.930 . S
H77 C51 0.931 . S
H78 C53 0.931 . S
H79 C55 0.930 . S
H80 C57 0.930 . S
H81 C58 0.931 1_545 S
H82 C60 0.931 . S
H83 C62 0.930 . S
H84 C64 0.930 . S
H85 C65 0.931 . S
H86 C67 0.931 . S
H87 C69 0.930 . S
H88 C71 0.930 . S
H89 C72 0.931 . S
N90 C52 1.343 1_545 S
N90 C73 1.343 . S
N91 C59 1.343 . S
N91 C66 1.343 . S
C92 C93 1.384 . S
C92 C94 1.384 . S
C92 H120 0.931 . S
C93 C92 1.384 . S
C93 C96 1.382 . S
C94 C92 1.384 . S
C94 C95 1.381 . S
C94 H121 0.930 . S
C95 C94 1.381 . S
C95 C97 1.381 . S
C95 C98 1.487 . S
C96 C93 1.382 . S
C96 C97 1.387 . S
C96 H122 0.930 . S
C97 C95 1.381 . S
C97 C96 1.387 . S
C97 H123 0.931 . S
C98 C95 1.487 . S
C98 C105 1.399 . S
C98 N136 1.343 . S
C99 C100 1.384 . S
C99 C101 1.384 . S
C99 H124 0.931 . S
C100 C99 1.384 . S
C100 C103 1.382 . S
C101 C99 1.384 . S
C101 C102 1.381 . S
C101 H125 0.930 . S
C102 C101 1.381 . S
C102 C104 1.381 . S
C102 C105 1.487 . S
C103 C100 1.382 . S
C103 C104 1.387 . S
C103 H126 0.930 . S
C104 C102 1.381 . S
C104 C103 1.387 . S
C104 H127 0.931 . S
C105 C98 1.399 . S
C105 C102 1.487 . S
C105 N137 1.343 . S
C106 C107 1.384 . S
C106 C108 1.384 . S
C106 H128 0.931 . S
C107 C106 1.384 . S
C107 C110 1.382 . S
C108 C106 1.384 . S
C108 C109 1.381 . S
C108 H129 0.930 . S
C109 C108 1.381 . S
C109 C111 1.381 . S
C109 C112 1.487 . S
C110 C107 1.382 . S
C110 C111 1.387 . S
C110 H130 0.930 . S
C111 C109 1.381 . S
C111 C110 1.387 . S
C111 H131 0.931 . S
C112 C109 1.487 . S
C112 C119 1.399 . S
C112 N137 1.343 . S
C113 C114 1.384 . S
C113 C115 1.384 . S
C113 H132 0.931 . S
C114 C113 1.384 . S
C114 C117 1.382 . S
C115 C113 1.384 . S
C115 C116 1.381 . S
C115 H133 0.930 . S
C116 C115 1.381 . S
C116 C118 1.381 . S
C116 C119 1.487 . S
C117 C114 1.382 . S
C117 C118 1.387 . S
C117 H134 0.930 . S
C118 C116 1.381 . S
C118 C117 1.387 . S
C118 H135 0.931 . S
C119 C112 1.399 . S
C119 C116 1.487 . S
C119 N136 1.343 . S
H120 C92 0.931 . S
H121 C94 0.930 . S
H122 C96 0.930 . S
H123 C97 0.931 . S
H124 C99 0.931 . S
H125 C101 0.930 . S
H126 C103 0.930 . S
H127 C104 0.931 . S
H128 C106 0.931 . S
H129 C108 0.930 . S
H130 C110 0.930 . S
H131 C111 0.931 . S
H132 C113 0.931 . S
H133 C115 0.930 . S
H134 C117 0.930 . S
H135 C118 0.931 . S
N136 C98 1.343 . S
N136 C119 1.343 . S
N137 C105 1.343 . S
N137 C112 1.343 . S
C138 C139 1.384 . S
C138 C140 1.384 . S
C138 H166 0.931 . S
C139 C138 1.384 . S
C139 C142 1.382 . S
C140 C138 1.384 . S
C140 C141 1.381 . S
C140 H167 0.930 . S
C141 C140 1.381 . S
C141 C143 1.381 . S
C141 C144 1.487 . S
C142 C139 1.382 . S
C142 C143 1.387 . S
C142 H168 0.930 . S
C143 C141 1.381 . S
C143 C142 1.387 . S
C143 H169 0.931 . S
C144 C141 1.487 . S
C144 C151 1.399 1_655 S
C144 N182 1.343 1_655 S
C145 C146 1.384 . S
C145 C147 1.384 . S
C145 H170 0.931 . S
C146 C145 1.384 . S
C146 C149 1.382 . S
C147 C145 1.384 . S
C147 C148 1.381 . S
C147 H171 0.930 . S
C148 C147 1.381 . S
C148 C150 1.381 . S
C148 C151 1.487 1_655 S
C149 C146 1.382 . S
C149 C150 1.387 . S
C149 H172 0.930 . S
C150 C148 1.381 . S
C150 C149 1.387 . S
C150 H173 0.931 1_655 S
C151 C144 1.399 1_455 S
C151 C148 1.487 1_455 S
C151 N183 1.343 . S
C152 C153 1.384 . S
C152 C154 1.384 . S
C152 H174 0.931 . S
C153 C152 1.384 . S
C153 C156 1.382 . S
C154 C152 1.384 . S
C154 C155 1.381 . S
C154 H175 0.930 . S
C155 C154 1.381 . S
C155 C157 1.381 . S
C155 C158 1.487 . S
C156 C153 1.382 . S
C156 C157 1.387 . S
C156 H176 0.930 . S
C157 C155 1.381 . S
C157 C156 1.387 . S
C157 H177 0.931 . S
C158 C155 1.487 . S
C158 C165 1.399 . S
C158 N183 1.343 . S
C159 C160 1.384 . S
C159 C161 1.384 . S
C159 H178 0.931 . S
C160 C159 1.384 . S
C160 C163 1.382 . S
C161 C159 1.384 . S
C161 C162 1.381 . S
C161 H179 0.930 . S
C162 C161 1.381 . S
C162 C164 1.381 . S
C162 C165 1.487 . S
C163 C160 1.382 . S
C163 C164 1.387 . S
C163 H180 0.930 . S
C164 C162 1.381 . S
C164 C163 1.387 . S
C164 H181 0.931 . S
C165 C158 1.399 . S
C165 C162 1.487 . S
C165 N182 1.343 . S
H166 C138 0.931 . S
H167 C140 0.930 . S
H168 C142 0.930 . S
H169 C143 0.931 . S
H170 C145 0.931 . S
H171 C147 0.930 . S
H172 C149 0.930 . S
H173 C150 0.931 1_455 S
H174 C152 0.931 . S
H175 C154 0.930 . S
H176 C156 0.930 . S
H177 C157 0.931 . S
H178 C159 0.931 . S
H179 C161 0.930 . S
H180 C163 0.930 . S
H181 C164 0.931 . S
N182 C144 1.343 1_455 S
N182 C165 1.343 . S
N183 C151 1.343 . S
N183 C158 1.343 . S
C184 C185 1.384 . S
C184 C186 1.384 . S
C184 H212 0.931 . S
C185 C184 1.384 . S
C185 C188 1.382 . S
C186 C184 1.384 . S
C186 C187 1.381 . S
C186 H213 0.930 1_556 S
C187 C186 1.381 . S
C187 C189 1.381 . S
C187 C190 1.487 . S
C188 C185 1.382 . S
C188 C189 1.387 . S
C188 H214 0.930 . S
C189 C187 1.381 . S
C189 C188 1.387 . S
C189 H215 0.931 . S
C190 C187 1.487 . S
C190 C197 1.399 1_566 S
C190 N228 1.343 1_565 S
C191 C192 1.384 . S
C191 C193 1.384 . S
C191 H216 0.931 . S
C192 C191 1.384 . S
C192 C195 1.382 . S
C193 C191 1.384 . S
C193 C194 1.381 . S
C193 H217 0.930 . S
C194 C193 1.381 . S
C194 C196 1.381 . S
C194 C197 1.487 1_565 S
C195 C192 1.382 . S
C195 C196 1.387 . S
C195 H218 0.930 . S
C196 C194 1.381 . S
C196 C195 1.387 . S
C196 H219 0.931 1_565 S
C197 C190 1.399 1_544 S
C197 C194 1.487 1_545 S
C197 N229 1.343 . S
C198 C199 1.384 . S
C198 C200 1.384 1_554 S
C198 H220 0.937 . S
C199 C198 1.384 . S
C199 C202 1.382 . S
C200 C198 1.384 1_556 S
C200 C201 1.381 1_556 S
C200 H221 0.930 . S
C201 C200 1.381 1_554 S
C201 C203 1.381 . S
C201 C204 1.473 1_554 S
C202 C199 1.382 . S
C202 C203 1.387 . S
C202 H222 0.930 . S
C203 C201 1.381 . S
C203 C202 1.387 . S
C203 H223 0.931 . S
C204 C201 1.473 1_556 S
C204 C211 1.447 . S
C204 N229 1.305 1_556 S
C205 C206 1.384 . S
C205 C207 1.384 . S
C205 H224 0.931 . S
C206 C205 1.384 . S
C206 C209 1.382 . S
C207 C205 1.384 . S
C207 C208 1.381 . S
C207 H225 0.930 . S
C208 C207 1.381 . S
C208 C210 1.381 . S
C208 C211 1.487 . S
C209 C206 1.382 . S
C209 C210 1.387 . S
C209 H226 0.930 . S
C210 C208 1.381 . S
C210 C209 1.387 . S
C210 H227 0.931 . S
C211 C204 1.447 . S
C211 C208 1.487 . S
C211 N228 1.343 . S
H212 C184 0.931 . S
H213 C186 0.930 1_554 S
H214 C188 0.930 . S
H215 C189 0.931 . S
H216 C191 0.931 . S
H217 C193 0.930 . S
H218 C195 0.930 . S
H219 C196 0.931 1_545 S
H220 C198 0.937 . S
H221 C200 0.930 . S
H222 C202 0.930 . S
H223 C203 0.931 . S
H224 C205 0.931 . S
H225 C207 0.930 . S
H226 C209 0.930 . S
H227 C210 0.931 . S
N228 C190 1.343 1_545 S
N228 C211 1.343 . S
N229 C197 1.343 . S
N229 C204 1.305 1_554 S
C230 C231 1.384 . S
C230 C232 1.384 . S
C230 H258 0.931 . S
C231 C230 1.384 . S
C231 C234 1.382 . S
C232 C230 1.384 . S
C232 C233 1.381 . S
C232 H259 0.930 . S
C233 C232 1.381 . S
C233 C235 1.381 . S
C233 C236 1.487 . S
C234 C231 1.382 . S
C234 C235 1.387 . S
C234 H260 0.930 . S
C235 C233 1.381 . S
C235 C234 1.387 . S
C235 H261 0.931 . S
C236 C233 1.487 . S
C236 C243 1.399 . S
C236 N274 1.343 . S
C237 C238 1.384 . S
C237 C239 1.384 . S
C237 H262 0.931 . S
C238 C237 1.384 . S
C238 C241 1.382 . S
C239 C237 1.384 . S
C239 C240 1.381 . S
C239 H263 0.930 . S
C240 C239 1.381 . S
C240 C242 1.381 . S
C240 C243 1.487 . S
C241 C238 1.382 . S
C241 C242 1.387 . S
C241 H264 0.930 . S
C242 C240 1.381 . S
C242 C241 1.387 . S
C242 H265 0.931 . S
C243 C236 1.399 . S
C243 C240 1.487 . S
C243 N275 1.343 . S
C244 C245 1.384 . S
C244 C246 1.384 . S
C244 H266 0.931 . S
C245 C244 1.384 . S
C245 C248 1.382 . S
C246 C244 1.384 . S
C246 C247 1.381 . S
C246 H267 0.930 . S
C247 C246 1.381 . S
C247 C249 1.381 . S
C247 C250 1.487 . S
C248 C245 1.382 . S
C248 C249 1.387 . S
C248 H268 0.930 . S
C249 C247 1.381 . S
C249 C248 1.387 . S
C249 H269 0.931 . S
C250 C247 1.487 . S
C250 C257 1.399 . S
C250 N275 1.343 . S
C251 C252 1.384 . S
C251 C253 1.384 . S
C251 H270 0.931 . S
C252 C251 1.384 . S
C252 C255 1.382 . S
C253 C251 1.384 . S
C253 C254 1.381 . S
C253 H271 0.930 . S
C254 C253 1.381 . S
C254 C256 1.381 . S
C254 C257 1.487 . S
C255 C252 1.382 . S
C255 C256 1.387 . S
C255 H272 0.930 . S
C256 C254 1.381 . S
C256 C255 1.387 . S
C256 H273 0.931 . S
C257 C250 1.399 . S
C257 C254 1.487 . S
C257 N274 1.343 . S
H258 C230 0.931 . S
H259 C232 0.930 . S
H260 C234 0.930 . S
H261 C235 0.931 . S
H262 C237 0.931 . S
H263 C239 0.930 . S
H264 C241 0.930 . S
H265 C242 0.931 . S
H266 C244 0.931 . S
H267 C246 0.930 . S
H268 C248 0.930 . S
H269 C249 0.931 . S
H270 C251 0.931 . S
H271 C253 0.930 . S
H272 C255 0.930 . S
H273 C256 0.931 . S
N274 C236 1.343 . S
N274 C257 1.343 . S
N275 C243 1.343 . S
N275 C250 1.343 . S
Li276 N293 1.990 . S
Li276 O336 1.956 . S
Li276 O337 1.970 . S
Li276 O338 1.961 . S
Li277 N301 1.990 . S
Li277 O336 1.970 . S
Li277 O337 1.956 . S
Li277 O339 1.961 . S
Li278 N323 1.990 . S
Li278 O336 1.961 . S
Li278 O338 1.956 . S
Li278 O339 1.970 . S
Li279 N329 1.990 . S
Li279 O337 1.961 . S
Li279 O338 1.970 . S
Li279 O339 1.956 . S
C280 C282 1.348 . S
C280 C283 1.356 . S
C280 O336 1.325 . S
N281 C284 1.314 . S
N281 C285 1.279 . S
C282 C280 1.348 . S
C282 C284 1.353 . S
C282 H340 0.929 . S
C283 C280 1.356 . S
C283 C285 1.358 . S
C283 H341 0.930 . S
C284 N281 1.314 . S
C284 C282 1.353 . S
C284 H342 0.930 . S
C285 N281 1.279 . S
C285 C283 1.358 . S
C285 H343 0.930 . S
C286 C289 1.348 . S
C286 C290 1.356 . S
C286 O337 1.325 . S
C287 N288 1.279 . S
C287 C290 1.358 . S
C287 H344 0.930 . S
N288 C287 1.279 . S
N288 C291 1.314 . S
C289 C286 1.348 . S
C289 C291 1.353 . S
C289 H345 0.929 . S
C290 C286 1.356 . S
C290 C287 1.358 . S
C290 H346 0.930 . S
C291 N288 1.314 . S
C291 C289 1.353 . S
C291 H347 0.930 . S
C292 N293 1.314 . S
C292 C297 1.353 . S
C292 H298 0.930 . S
N293 Li276 1.990 . S
N293 C292 1.314 . S
N293 C295 1.279 . S
C294 C295 1.358 . S
C294 C296 1.356 . S
C294 H348 0.930 . S
C295 N293 1.279 . S
C295 C294 1.358 . S
C295 H299 0.930 . S
C296 C294 1.356 . S
C296 C297 1.348 . S
C297 C292 1.353 . S
C297 C296 1.348 . S
C297 H349 0.929 . S
H298 C292 0.930 . S
H299 C295 0.930 . S
C300 N301 1.314 . S
C300 C302 1.353 . S
C300 H306 0.930 . S
N301 Li277 1.990 . S
N301 C300 1.314 . S
N301 C304 1.279 . S
C302 C300 1.353 . S
C302 C305 1.348 . S
C302 H350 0.929 . S
C303 C304 1.358 . S
C303 C305 1.356 . S
C303 H351 0.930 . S
C304 N301 1.279 . S
C304 C303 1.358 . S
C304 H307 0.930 . S
C305 C302 1.348 . S
C305 C303 1.356 . S
H306 C300 0.930 . S
H307 C304 0.930 . S
C308 C310 1.348 . S
C308 C311 1.356 . S
C308 O338 1.325 . S
N309 C312 1.314 . S
N309 C313 1.279 . S
C310 C308 1.348 . S
C310 C312 1.353 . S
C310 H352 0.929 . S
C311 C308 1.356 . S
C311 C313 1.358 . S
C311 H353 0.930 . S
C312 N309 1.314 . S
C312 C310 1.353 . S
C312 H354 0.930 . S
C313 N309 1.279 . S
C313 C311 1.358 . S
C313 H355 0.930 . S
C314 C315 1.348 . S
C314 C316 1.356 . S
C314 O339 1.325 . S
C315 C314 1.348 . S
C315 C317 1.353 . S
C315 H356 0.929 . S
C316 C314 1.356 . S
C316 C318 1.358 . S
C316 H357 0.930 . S
C317 C315 1.353 . S
C317 N319 1.314 . S
C317 H358 0.930 . S
C318 C316 1.358 . S
C318 N319 1.279 . S
C318 H359 0.930 . S
N319 C317 1.314 . S
N319 C318 1.279 . S
C320 C322 1.353 . S
C320 N323 1.314 . S
C320 H326 0.930 . S
C321 N323 1.279 . S
C321 C324 1.358 . S
C321 H327 0.930 . S
C322 C320 1.353 . S
C322 C325 1.348 . S
C322 H360 0.929 . S
N323 Li278 1.990 . S
N323 C320 1.314 . S
N323 C321 1.279 . S
C324 C321 1.358 . S
C324 C325 1.356 . S
C324 H361 0.930 . S
C325 C322 1.348 . S
C325 C324 1.356 . S
H326 C320 0.930 . S
H327 C321 0.930 . S
C328 N329 1.314 . S
C328 C330 1.353 . S
C328 H334 0.930 . S
N329 Li279 1.990 . S
N329 C328 1.314 . S
N329 C332 1.279 . S
C330 C328 1.353 . S
C330 C333 1.348 . S
C330 H362 0.929 . S
C331 C332 1.358 . S
C331 C333 1.356 . S
C331 H363 0.930 . S
C332 N329 1.279 . S
C332 C331 1.358 . S
C332 H335 0.930 . S
C333 C330 1.348 . S
C333 C331 1.356 . S
H334 C328 0.930 . S
H335 C332 0.930 . S
O336 Li276 1.956 . S
O336 Li277 1.970 . S
O336 Li278 1.961 . S
O336 C280 1.325 . S
O337 Li276 1.970 . S
O337 Li277 1.956 . S
O337 Li279 1.961 . S
O337 C286 1.325 . S
O338 Li276 1.961 . S
O338 Li278 1.956 . S
O338 Li279 1.970 . S
O338 C308 1.325 . S
O339 Li277 1.961 . S
O339 Li278 1.970 . S
O339 Li279 1.956 . S
O339 C314 1.325 . S
H340 C282 0.929 . S
H341 C283 0.930 . S
H342 C284 0.930 . S
H343 C285 0.930 . S
H344 C287 0.930 . S
H345 C289 0.929 . S
H346 C290 0.930 . S
H347 C291 0.930 . S
H348 C294 0.930 . S
H349 C297 0.929 . S
H350 C302 0.929 . S
H351 C303 0.930 . S
H352 C310 0.929 . S
H353 C311 0.930 . S
H354 C312 0.930 . S
H355 C313 0.930 . S
H356 C315 0.929 . S
H357 C316 0.930 . S
H358 C317 0.930 . S
H359 C318 0.930 . S
H360 C322 0.929 . S
H361 C324 0.930 . S
H362 C330 0.929 . S
H363 C331 0.930 . S
Li364 N381 1.990 . S
Li364 O424 1.956 . S
Li364 O425 1.970 . S
Li364 O426 1.961 . S
Li365 N389 1.990 . S
Li365 O424 1.970 . S
Li365 O425 1.956 . S
Li365 O427 1.961 . S
Li366 N411 1.990 . S
Li366 O424 1.961 . S
Li366 O426 1.956 . S
Li366 O427 1.970 . S
Li367 N417 1.990 . S
Li367 O425 1.961 . S
Li367 O426 1.970 . S
Li367 O427 1.956 . S
C368 C370 1.348 . S
C368 C371 1.356 . S
C368 O424 1.325 . S
N369 C372 1.314 . S
N369 C373 1.279 . S
C370 C368 1.348 . S
C370 C372 1.353 . S
C370 H428 0.929 . S
C371 C368 1.356 . S
C371 C373 1.358 . S
C371 H429 0.930 . S
C372 N369 1.314 . S
C372 C370 1.353 . S
C372 H430 0.930 . S
C373 N369 1.279 . S
C373 C371 1.358 . S
C373 H431 0.930 . S
C374 C377 1.348 . S
C374 C378 1.356 . S
C374 O425 1.325 . S
C375 N376 1.279 . S
C375 C378 1.358 . S
C375 H432 0.930 . S
N376 C375 1.279 . S
N376 C379 1.314 . S
C377 C374 1.348 . S
C377 C379 1.353 . S
C377 H433 0.929 . S
C378 C374 1.356 . S
C378 C375 1.358 . S
C378 H434 0.930 . S
C379 N376 1.314 . S
C379 C377 1.353 . S
C379 H435 0.930 . S
C380 N381 1.314 . S
C380 C385 1.353 . S
C380 H386 0.930 . S
N381 Li364 1.990 . S
N381 C380 1.314 . S
N381 C383 1.279 . S
C382 C383 1.358 . S
C382 C384 1.356 . S
C382 H436 0.930 . S
C383 N381 1.279 . S
C383 C382 1.358 . S
C383 H387 0.930 . S
C384 C382 1.356 . S
C384 C385 1.348 . S
C385 C380 1.353 . S
C385 C384 1.348 . S
C385 H437 0.929 . S
H386 C380 0.930 . S
H387 C383 0.930 . S
C388 N389 1.314 . S
C388 C390 1.353 . S
C388 H394 0.930 . S
N389 Li365 1.990 . S
N389 C388 1.314 . S
N389 C392 1.279 . S
C390 C388 1.353 . S
C390 C393 1.348 . S
C390 H438 0.929 . S
C391 C392 1.358 . S
C391 C393 1.356 . S
C391 H439 0.930 . S
C392 N389 1.279 . S
C392 C391 1.358 . S
C392 H395 0.930 . S
C393 C390 1.348 . S
C393 C391 1.356 . S
H394 C388 0.930 . S
H395 C392 0.930 . S
C396 C398 1.348 . S
C396 C399 1.356 . S
C396 O426 1.325 . S
N397 C400 1.314 . S
N397 C401 1.279 . S
C398 C396 1.348 . S
C398 C400 1.353 . S
C398 H440 0.929 . S
C399 C396 1.356 . S
C399 C401 1.358 . S
C399 H441 0.930 . S
C400 N397 1.314 . S
C400 C398 1.353 . S
C400 H442 0.930 . S
C401 N397 1.279 . S
C401 C399 1.358 . S
C401 H443 0.930 . S
C402 C403 1.348 . S
C402 C404 1.356 . S
C402 O427 1.325 . S
C403 C402 1.348 . S
C403 C405 1.353 . S
C403 H444 0.929 . S
C404 C402 1.356 . S
C404 C406 1.358 . S
C404 H445 0.930 . S
C405 C403 1.353 . S
C405 N407 1.314 . S
C405 H446 0.930 . S
C406 C404 1.358 . S
C406 N407 1.279 . S
C406 H447 0.930 . S
N407 C405 1.314 . S
N407 C406 1.279 . S
C408 C410 1.353 . S
C408 N411 1.314 . S
C408 H414 0.930 . S
C409 N411 1.279 . S
C409 C412 1.358 . S
C409 H415 0.930 . S
C410 C408 1.353 . S
C410 C413 1.348 . S
C410 H448 0.929 . S
N411 Li366 1.990 . S
N411 C408 1.314 . S
N411 C409 1.279 . S
C412 C409 1.358 . S
C412 C413 1.356 . S
C412 H449 0.930 . S
C413 C410 1.348 . S
C413 C412 1.356 . S
H414 C408 0.930 . S
H415 C409 0.930 . S
C416 N417 1.314 . S
C416 C418 1.353 . S
C416 H422 0.930 . S
N417 Li367 1.990 . S
N417 C416 1.314 . S
N417 C420 1.279 . S
C418 C416 1.353 . S
C418 C421 1.348 . S
C418 H450 0.929 . S
C419 C420 1.358 . S
C419 C421 1.356 . S
C419 H451 0.930 . S
C420 N417 1.279 . S
C420 C419 1.358 . S
C420 H423 0.930 . S
C421 C418 1.348 . S
C421 C419 1.356 . S
H422 C416 0.930 . S
H423 C420 0.930 . S
O424 Li364 1.956 . S
O424 Li365 1.970 . S
O424 Li366 1.961 . S
O424 C368 1.325 . S
O425 Li364 1.970 . S
O425 Li365 1.956 . S
O425 Li367 1.961 . S
O425 C374 1.325 . S
O426 Li364 1.961 . S
O426 Li366 1.956 . S
O426 Li367 1.970 . S
O426 C396 1.325 . S
O427 Li365 1.961 . S
O427 Li366 1.970 . S
O427 Li367 1.956 . S
O427 C402 1.325 . S
H428 C370 0.929 . S
H429 C371 0.930 . S
H430 C372 0.930 . S
H431 C373 0.930 . S
H432 C375 0.930 . S
H433 C377 0.929 . S
H434 C378 0.930 . S
H435 C379 0.930 . S
H436 C382 0.930 . S
H437 C385 0.929 . S
H438 C390 0.929 . S
H439 C391 0.930 . S
H440 C398 0.929 . S
H441 C399 0.930 . S
H442 C400 0.930 . S
H443 C401 0.930 . S
H444 C403 0.929 . S
H445 C404 0.930 . S
H446 C405 0.930 . S
H447 C406 0.930 . S
H448 C410 0.929 . S
H449 C412 0.930 . S
H450 C418 0.929 . S
H451 C419 0.930 . S
Li452 N469 1.990 . S
Li452 O512 1.956 . S
Li452 O513 1.970 . S
Li452 O514 1.961 . S
Li453 N477 1.990 . S
Li453 O512 1.970 . S
Li453 O513 1.956 . S
Li453 O515 1.961 . S
Li454 N499 1.990 . S
Li454 O512 1.961 . S
Li454 O514 1.956 . S
Li454 O515 1.970 . S
Li455 N505 1.990 . S
Li455 O513 1.961 . S
Li455 O514 1.970 . S
Li455 O515 1.956 . S
C456 C458 1.348 . S
C456 C459 1.356 . S
C456 O512 1.325 . S
N457 C460 1.314 . S
N457 C461 1.279 . S
C458 C456 1.348 . S
C458 C460 1.353 . S
C458 H516 0.929 . S
C459 C456 1.356 . S
C459 C461 1.358 . S
C459 H517 0.930 . S
C460 N457 1.314 . S
C460 C458 1.353 . S
C460 H518 0.930 . S
C461 N457 1.279 . S
C461 C459 1.358 . S
C461 H519 0.930 . S
C462 C465 1.348 . S
C462 C466 1.356 . S
C462 O513 1.325 . S
C463 N464 1.279 . S
C463 C466 1.358 . S
C463 H520 0.930 . S
N464 C463 1.279 . S
N464 C467 1.314 . S
C465 C462 1.348 . S
C465 C467 1.353 . S
C465 H521 0.929 . S
C466 C462 1.356 . S
C466 C463 1.358 . S
C466 H522 0.930 . S
C467 N464 1.314 . S
C467 C465 1.353 . S
C467 H523 0.930 . S
C468 N469 1.314 . S
C468 C473 1.353 . S
C468 H474 0.930 . S
N469 Li452 1.990 . S
N469 C468 1.314 . S
N469 C471 1.279 . S
C470 C471 1.358 . S
C470 C472 1.356 . S
C470 H524 0.930 . S
C471 N469 1.279 . S
C471 C470 1.358 . S
C471 H475 0.930 . S
C472 C470 1.356 . S
C472 C473 1.348 . S
C473 C468 1.353 . S
C473 C472 1.348 . S
C473 H525 0.929 . S
H474 C468 0.930 . S
H475 C471 0.930 . S
C476 N477 1.314 . S
C476 C478 1.353 . S
C476 H482 0.930 . S
N477 Li453 1.990 . S
N477 C476 1.314 . S
N477 C480 1.279 . S
C478 C476 1.353 . S
C478 C481 1.348 . S
C478 H526 0.929 . S
C479 C480 1.358 . S
C479 C481 1.356 . S
C479 H527 0.930 . S
C480 N477 1.279 . S
C480 C479 1.358 . S
C480 H483 0.930 . S
C481 C478 1.348 . S
C481 C479 1.356 . S
H482 C476 0.930 . S
H483 C480 0.930 . S
C484 C486 1.348 . S
C484 C487 1.356 . S
C484 O514 1.325 . S
N485 C488 1.314 . S
N485 C489 1.279 . S
C486 C484 1.348 . S
C486 C488 1.353 . S
C486 H528 0.929 . S
C487 C484 1.356 . S
C487 C489 1.358 . S
C487 H529 0.930 . S
C488 N485 1.314 . S
C488 C486 1.353 . S
C488 H530 0.930 . S
C489 N485 1.279 . S
C489 C487 1.358 . S
C489 H531 0.930 . S
C490 C491 1.348 . S
C490 C492 1.356 . S
C490 O515 1.325 . S
C491 C490 1.348 . S
C491 C493 1.353 . S
C491 H532 0.929 . S
C492 C490 1.356 . S
C492 C494 1.358 . S
C492 H533 0.930 . S
C493 C491 1.353 . S
C493 N495 1.314 . S
C493 H534 0.930 . S
C494 C492 1.358 . S
C494 N495 1.279 . S
C494 H535 0.930 . S
N495 C493 1.314 . S
N495 C494 1.279 . S
C496 C498 1.353 . S
C496 N499 1.314 . S
C496 H502 0.930 . S
C497 N499 1.279 . S
C497 C500 1.358 . S
C497 H503 0.930 . S
C498 C496 1.353 . S
C498 C501 1.348 . S
C498 H536 0.929 . S
N499 Li454 1.990 . S
N499 C496 1.314 . S
N499 C497 1.279 . S
C500 C497 1.358 . S
C500 C501 1.356 . S
C500 H537 0.930 . S
C501 C498 1.348 . S
C501 C500 1.356 . S
H502 C496 0.930 . S
H503 C497 0.930 . S
C504 N505 1.314 . S
C504 C506 1.353 . S
C504 H510 0.930 . S
N505 Li455 1.990 . S
N505 C504 1.314 . S
N505 C508 1.279 . S
C506 C504 1.353 . S
C506 C509 1.348 . S
C506 H538 0.929 . S
C507 C508 1.358 . S
C507 C509 1.356 . S
C507 H539 0.930 . S
C508 N505 1.279 . S
C508 C507 1.358 . S
C508 H511 0.930 . S
C509 C506 1.348 . S
C509 C507 1.356 . S
H510 C504 0.930 . S
H511 C508 0.930 . S
O512 Li452 1.956 . S
O512 Li453 1.970 . S
O512 Li454 1.961 . S
O512 C456 1.325 . S
O513 Li452 1.970 . S
O513 Li453 1.956 . S
O513 Li455 1.961 . S
O513 C462 1.325 . S
O514 Li452 1.961 . S
O514 Li454 1.956 . S
O514 Li455 1.970 . S
O514 C484 1.325 . S
O515 Li453 1.961 . S
O515 Li454 1.970 . S
O515 Li455 1.956 . S
O515 C490 1.325 . S
H516 C458 0.929 . S
H517 C459 0.930 . S
H518 C460 0.930 . S
H519 C461 0.930 . S
H520 C463 0.930 . S
H521 C465 0.929 . S
H522 C466 0.930 . S
H523 C467 0.930 . S
H524 C470 0.930 . S
H525 C473 0.929 . S
H526 C478 0.929 . S
H527 C479 0.930 . S
H528 C486 0.929 . S
H529 C487 0.930 . S
H530 C488 0.930 . S
H531 C489 0.930 . S
H532 C491 0.929 . S
H533 C492 0.930 . S
H534 C493 0.930 . S
H535 C494 0.930 . S
H536 C498 0.929 . S
H537 C500 0.930 . S
H538 C506 0.929 . S
H539 C507 0.930 . S
Li540 N557 1.990 . S
Li540 O600 1.956 . S
Li540 O601 1.970 . S
Li540 O602 1.961 . S
Li541 N565 1.990 . S
Li541 O600 1.970 . S
Li541 O601 1.956 . S
Li541 O603 1.961 . S
Li542 N587 1.990 . S
Li542 O600 1.961 . S
Li542 O602 1.956 . S
Li542 O603 1.970 . S
Li543 N593 1.990 . S
Li543 O601 1.961 . S
Li543 O602 1.970 . S
Li543 O603 1.956 . S
C544 C546 1.348 . S
C544 C547 1.356 . S
C544 O600 1.325 . S
N545 C548 1.314 . S
N545 C549 1.279 . S
C546 C544 1.348 . S
C546 C548 1.353 . S
C546 H604 0.929 . S
C547 C544 1.356 . S
C547 C549 1.358 . S
C547 H605 0.930 . S
C548 N545 1.314 . S
C548 C546 1.353 . S
C548 H606 0.930 . S
C549 N545 1.279 . S
C549 C547 1.358 . S
C549 H607 0.930 . S
C550 C553 1.348 . S
C550 C554 1.356 . S
C550 O601 1.325 . S
C551 N552 1.279 . S
C551 C554 1.358 . S
C551 H608 0.930 . S
N552 C551 1.279 . S
N552 C555 1.314 . S
C553 C550 1.348 . S
C553 C555 1.353 . S
C553 H609 0.929 . S
C554 C550 1.356 . S
C554 C551 1.358 . S
C554 H610 0.930 . S
C555 N552 1.314 . S
C555 C553 1.353 . S
C555 H611 0.930 . S
C556 N557 1.314 . S
C556 C561 1.353 . S
C556 H562 0.930 . S
N557 Li540 1.990 . S
N557 C556 1.314 . S
N557 C559 1.279 . S
C558 C559 1.358 . S
C558 C560 1.356 . S
C558 H612 0.969 . S
C559 N557 1.279 . S
C559 C558 1.358 . S
C559 H563 0.930 . S
C560 C558 1.356 . S
C560 C561 1.348 . S
C561 C556 1.353 . S
C561 C560 1.348 . S
C561 H613 0.929 . S
H562 C556 0.930 . S
H563 C559 0.930 . S
C564 N565 1.314 . S
C564 C566 1.353 . S
C564 H570 0.930 . S
N565 Li541 1.990 . S
N565 C564 1.314 . S
N565 C568 1.279 . S
C566 C564 1.353 . S
C566 C569 1.348 . S
C566 H614 0.929 . S
C567 C568 1.358 . S
C567 C569 1.356 . S
C567 H615 0.930 . S
C568 N565 1.279 . S
C568 C567 1.358 . S
C568 H571 0.930 . S
C569 C566 1.348 . S
C569 C567 1.356 . S
H570 C564 0.930 . S
H571 C568 0.930 . S
C572 C574 1.348 . S
C572 C575 1.356 . S
C572 O602 1.325 . S
N573 C576 1.314 . S
N573 C577 1.279 . S
C574 C572 1.348 . S
C574 C576 1.353 . S
C574 H616 0.929 . S
C575 C572 1.356 . S
C575 C577 1.358 . S
C575 H617 0.930 . S
C576 N573 1.314 . S
C576 C574 1.353 . S
C576 H618 0.930 . S
C577 N573 1.279 . S
C577 C575 1.358 . S
C577 H619 0.930 . S
C578 C579 1.348 . S
C578 C580 1.356 . S
C578 O603 1.325 . S
C579 C578 1.348 . S
C579 C581 1.353 . S
C579 H620 0.929 . S
C580 C578 1.356 . S
C580 C582 1.358 . S
C580 H621 0.930 . S
C581 C579 1.353 . S
C581 N583 1.314 . S
C581 H622 0.930 . S
C582 C580 1.358 . S
C582 N583 1.279 . S
C582 H623 0.930 . S
N583 C581 1.314 . S
N583 C582 1.279 . S
C584 C586 1.353 . S
C584 N587 1.314 . S
C584 H590 0.930 . S
C585 N587 1.279 . S
C585 C588 1.358 . S
C585 H591 0.930 . S
C586 C584 1.353 . S
C586 C589 1.348 . S
C586 H624 0.929 . S
N587 Li542 1.990 . S
N587 C584 1.314 . S
N587 C585 1.279 . S
C588 C585 1.358 . S
C588 C589 1.356 . S
C588 H625 0.930 . S
C589 C586 1.348 . S
C589 C588 1.356 . S
H590 C584 0.930 . S
H591 C585 0.930 . S
C592 N593 1.314 . S
C592 C594 1.353 . S
C592 H598 0.930 . S
N593 Li543 1.990 . S
N593 C592 1.314 . S
N593 C596 1.279 . S
C594 C592 1.353 . S
C594 C597 1.348 . S
C594 H626 0.929 . S
C595 C596 1.358 . S
C595 C597 1.356 . S
C595 H627 0.930 . S
C596 N593 1.279 . S
C596 C595 1.358 . S
C596 H599 0.930 . S
C597 C594 1.348 . S
C597 C595 1.356 . S
H598 C592 0.930 . S
H599 C596 0.930 . S
O600 Li540 1.956 . S
O600 Li541 1.970 . S
O600 Li542 1.961 . S
O600 C544 1.325 . S
O601 Li540 1.970 . S
O601 Li541 1.956 . S
O601 Li543 1.961 . S
O601 C550 1.325 . S
O602 Li540 1.961 . S
O602 Li542 1.956 . S
O602 Li543 1.970 . S
O602 C572 1.325 . S
O603 Li541 1.961 . S
O603 Li542 1.970 . S
O603 Li543 1.956 . S
O603 C578 1.325 . S
H604 C546 0.929 . S
H605 C547 0.930 . S
H606 C548 0.930 . S
H607 C549 0.930 . S
H608 C551 0.930 . S
H609 C553 0.929 . S
H610 C554 0.930 . S
H611 C555 0.930 . S
H612 C558 0.969 . S
H613 C561 0.929 . S
H614 C566 0.929 . S
H615 C567 0.930 . S
H616 C574 0.929 . S
H617 C575 0.930 . S
H618 C576 0.930 . S
H619 C577 0.930 . S
H620 C579 0.929 . S
H621 C580 0.930 . S
H622 C581 0.930 . S
H623 C582 0.930 . S
H624 C586 0.929 . S
H625 C588 0.930 . S
H626 C594 0.929 . S
H627 C595 0.930 . S
Li628 N645 1.990 . S
Li628 O688 1.956 . S
Li628 O689 1.970 . S
Li628 O690 1.961 . S
Li629 N653 1.990 . S
Li629 O688 1.970 . S
Li629 O689 1.956 . S
Li629 O691 1.961 . S
Li630 N675 1.990 . S
Li630 O688 1.961 . S
Li630 O690 1.956 . S
Li630 O691 1.970 . S
Li631 N681 1.990 . S
Li631 O689 1.961 . S
Li631 O690 1.970 . S
Li631 O691 1.956 . S
C632 C634 1.348 . S
C632 C635 1.356 . S
C632 O688 1.325 . S
N633 C636 1.314 . S
N633 C637 1.279 . S
C634 C632 1.348 . S
C634 C636 1.353 . S
C634 H692 0.929 . S
C635 C632 1.356 . S
C635 C637 1.358 . S
C635 H693 0.930 . S
C636 N633 1.314 . S
C636 C634 1.353 . S
C636 H694 0.930 . S
C637 N633 1.279 . S
C637 C635 1.358 . S
C637 H695 0.930 . S
C638 C641 1.348 . S
C638 C642 1.356 . S
C638 O689 1.325 . S
C639 N640 1.279 . S
C639 C642 1.358 . S
C639 H696 0.930 . S
N640 C639 1.279 . S
N640 C643 1.314 . S
C641 C638 1.348 . S
C641 C643 1.353 . S
C641 H697 0.929 . S
C642 C638 1.356 . S
C642 C639 1.358 . S
C642 H698 0.930 . S
C643 N640 1.314 . S
C643 C641 1.353 . S
C643 H699 0.930 . S
C644 N645 1.314 . S
C644 C649 1.353 . S
C644 H650 0.930 . S
N645 Li628 1.990 . S
N645 C644 1.314 . S
N645 C647 1.279 . S
C646 C647 1.358 . S
C646 C648 1.356 . S
C646 H700 0.930 . S
C647 N645 1.279 . S
C647 C646 1.358 . S
C647 H651 0.930 . S
C648 C646 1.356 . S
C648 C649 1.348 . S
C649 C644 1.353 . S
C649 C648 1.348 . S
C649 H701 0.929 . S
H650 C644 0.930 . S
H651 C647 0.930 . S
C652 N653 1.314 . S
C652 C654 1.353 . S
C652 H658 0.930 . S
N653 Li629 1.990 . S
N653 C652 1.314 . S
N653 C656 1.279 . S
C654 C652 1.353 . S
C654 C657 1.348 . S
C654 H702 0.929 . S
C655 C656 1.358 . S
C655 C657 1.356 . S
C655 H703 0.930 . S
C656 N653 1.279 . S
C656 C655 1.358 . S
C656 H659 0.930 . S
C657 C654 1.348 . S
C657 C655 1.356 . S
H658 C652 0.930 . S
H659 C656 0.930 . S
C660 C662 1.348 . S
C660 C663 1.356 . S
C660 O690 1.325 . S
N661 C664 1.314 . S
N661 C665 1.279 . S
C662 C660 1.348 . S
C662 C664 1.353 . S
C662 H704 0.929 . S
C663 C660 1.356 . S
C663 C665 1.358 . S
C663 H705 0.930 . S
C664 N661 1.314 . S
C664 C662 1.353 . S
C664 H706 0.930 . S
C665 N661 1.279 . S
C665 C663 1.358 . S
C665 H707 0.930 . S
C666 C667 1.348 . S
C666 C668 1.356 . S
C666 O691 1.325 . S
C667 C666 1.348 . S
C667 C669 1.353 . S
C667 H708 0.929 . S
C668 C666 1.356 . S
C668 C670 1.358 . S
C668 H709 0.930 . S
C669 C667 1.353 . S
C669 N671 1.314 . S
C669 H710 0.930 . S
C670 C668 1.358 . S
C670 N671 1.279 . S
C670 H711 0.930 . S
N671 C669 1.314 . S
N671 C670 1.279 . S
C672 C674 1.353 . S
C672 N675 1.314 . S
C672 H678 0.930 . S
C673 N675 1.279 . S
C673 C676 1.358 . S
C673 H679 0.930 . S
C674 C672 1.353 . S
C674 C677 1.348 . S
C674 H712 0.929 . S
N675 Li630 1.990 . S
N675 C672 1.314 . S
N675 C673 1.279 . S
C676 C673 1.358 . S
C676 C677 1.356 . S
C676 H713 0.930 1_554 S
C677 C674 1.348 . S
C677 C676 1.356 . S
H678 C672 0.930 . S
H679 C673 0.930 . S
C680 N681 1.314 . S
C680 C682 1.353 . S
C680 H686 0.930 . S
N681 Li631 1.990 . S
N681 C680 1.314 . S
N681 C684 1.279 . S
C682 C680 1.353 . S
C682 C685 1.348 . S
C682 H714 0.929 . S
C683 C684 1.358 . S
C683 C685 1.356 . S
C683 H715 0.930 . S
C684 N681 1.279 . S
C684 C683 1.358 . S
C684 H687 0.930 . S
C685 C682 1.348 . S
C685 C683 1.356 . S
H686 C680 0.930 . S
H687 C684 0.930 . S
O688 Li628 1.956 . S
O688 Li629 1.970 . S
O688 Li630 1.961 . S
O688 C632 1.325 . S
O689 Li628 1.970 . S
O689 Li629 1.956 . S
O689 Li631 1.961 . S
O689 C638 1.325 . S
O690 Li628 1.961 . S
O690 Li630 1.956 . S
O690 Li631 1.970 . S
O690 C660 1.325 . S
O691 Li629 1.961 . S
O691 Li630 1.970 . S
O691 Li631 1.956 . S
O691 C666 1.325 . S
H692 C634 0.929 . S
H693 C635 0.930 . S
H694 C636 0.930 . S
H695 C637 0.930 . S
H696 C639 0.930 . S
H697 C641 0.929 . S
H698 C642 0.930 . S
H699 C643 0.930 . S
H700 C646 0.930 . S
H701 C649 0.929 . S
H702 C654 0.929 . S
H703 C655 0.930 . S
H704 C662 0.929 . S
H705 C663 0.930 . S
H706 C664 0.930 . S
H707 C665 0.930 . S
H708 C667 0.929 . S
H709 C668 0.930 . S
H710 C669 0.930 . S
H711 C670 0.930 . S
H712 C674 0.929 . S
H713 C676 0.930 1_556 S
H714 C682 0.929 . S
H715 C683 0.930 . S
Li716 N733 1.990 . S
Li716 O776 1.956 . S
Li716 O777 1.970 . S
Li716 O778 1.961 . S
Li717 N741 1.990 . S
Li717 O776 1.970 . S
Li717 O777 1.956 . S
Li717 O779 1.961 . S
Li718 N763 1.990 . S
Li718 O776 1.961 . S
Li718 O778 1.956 . S
Li718 O779 1.970 . S
Li719 N769 1.990 . S
Li719 O777 1.961 . S
Li719 O778 1.970 . S
Li719 O779 1.956 . S
C720 C722 1.348 . S
C720 C723 1.356 . S
C720 O776 1.325 . S
N721 C724 1.314 . S
N721 C725 1.279 . S
C722 C720 1.348 . S
C722 C724 1.353 . S
C722 H780 0.929 . S
C723 C720 1.356 . S
C723 C725 1.358 . S
C723 H781 0.930 . S
C724 N721 1.314 . S
C724 C722 1.353 . S
C724 H782 0.930 . S
C725 N721 1.279 . S
C725 C723 1.358 . S
C725 H783 0.930 . S
C726 C729 1.348 . S
C726 C730 1.356 . S
C726 O777 1.325 . S
C727 N728 1.279 . S
C727 C730 1.358 . S
C727 H784 0.930 . S
N728 C727 1.279 . S
N728 C731 1.314 . S
C729 C726 1.348 . S
C729 C731 1.353 . S
C729 H785 0.929 . S
C730 C726 1.356 . S
C730 C727 1.358 . S
C730 H786 0.930 . S
C731 N728 1.314 . S
C731 C729 1.353 . S
C731 H787 0.930 . S
C732 N733 1.314 . S
C732 C737 1.353 . S
C732 H738 0.930 . S
N733 Li716 1.990 . S
N733 C732 1.314 . S
N733 C735 1.279 . S
C734 C735 1.358 . S
C734 C736 1.356 . S
C734 H788 0.930 . S
C735 N733 1.279 . S
C735 C734 1.358 . S
C735 H739 0.930 . S
C736 C734 1.356 . S
C736 C737 1.348 . S
C737 C732 1.353 . S
C737 C736 1.348 . S
C737 H789 0.929 . S
H738 C732 0.930 . S
H739 C735 0.930 . S
C740 N741 1.314 . S
C740 C742 1.353 . S
C740 H746 0.930 . S
N741 Li717 1.990 . S
N741 C740 1.314 . S
N741 C744 1.279 . S
C742 C740 1.353 . S
C742 C745 1.348 . S
C742 H790 0.929 . S
C743 C744 1.358 . S
C743 C745 1.356 . S
C743 H791 0.930 . S
C744 N741 1.279 . S
C744 C743 1.358 . S
C744 H747 0.930 . S
C745 C742 1.348 . S
C745 C743 1.356 . S
H746 C740 0.930 . S
H747 C744 0.930 . S
C748 C750 1.348 . S
C748 C751 1.356 . S
C748 O778 1.325 . S
N749 C752 1.314 . S
N749 C753 1.279 . S
C750 C748 1.348 . S
C750 C752 1.353 . S
C750 H792 0.929 . S
C751 C748 1.356 . S
C751 C753 1.358 . S
C751 H793 0.930 . S
C752 N749 1.314 . S
C752 C750 1.353 . S
C752 H794 0.930 . S
C753 N749 1.279 . S
C753 C751 1.358 . S
C753 H795 0.930 . S
C754 C755 1.348 . S
C754 C756 1.356 . S
C754 O779 1.325 . S
C755 C754 1.348 . S
C755 C757 1.353 . S
C755 H796 0.929 . S
C756 C754 1.356 . S
C756 C758 1.358 . S
C756 H797 0.930 . S
C757 C755 1.353 . S
C757 N759 1.314 . S
C757 H798 0.930 . S
C758 C756 1.358 . S
C758 N759 1.279 . S
C758 H799 0.930 . S
N759 C757 1.314 . S
N759 C758 1.279 . S
C760 C762 1.353 . S
C760 N763 1.314 . S
C760 H766 0.930 . S
C761 N763 1.279 . S
C761 C764 1.358 . S
C761 H767 0.930 . S
C762 C760 1.353 . S
C762 C765 1.348 . S
C762 H800 0.929 . S
N763 Li718 1.990 . S
N763 C760 1.314 . S
N763 C761 1.279 . S
C764 C761 1.358 . S
C764 C765 1.356 . S
C764 H801 0.930 . S
C765 C762 1.348 . S
C765 C764 1.356 . S
H766 C760 0.930 . S
H767 C761 0.930 . S
C768 N769 1.314 . S
C768 C770 1.353 . S
C768 H774 0.930 . S
N769 Li719 1.990 . S
N769 C768 1.314 . S
N769 C772 1.279 . S
C770 C768 1.353 . S
C770 C773 1.348 . S
C770 H802 0.929 . S
C771 C772 1.358 . S
C771 C773 1.356 . S
C771 H803 0.930 . S
C772 N769 1.279 . S
C772 C771 1.358 . S
C772 H775 0.930 . S
C773 C770 1.348 . S
C773 C771 1.356 . S
H774 C768 0.930 . S
H775 C772 0.930 . S
O776 Li716 1.956 . S
O776 Li717 1.970 . S
O776 Li718 1.961 . S
O776 C720 1.325 . S
O777 Li716 1.970 . S
O777 Li717 1.956 . S
O777 Li719 1.961 . S
O777 C726 1.325 . S
O778 Li716 1.961 . S
O778 Li718 1.956 . S
O778 Li719 1.970 . S
O778 C748 1.325 . S
O779 Li717 1.961 . S
O779 Li718 1.970 . S
O779 Li719 1.956 . S
O779 C754 1.325 . S
H780 C722 0.929 . S
H781 C723 0.930 . S
H782 C724 0.930 . S
H783 C725 0.930 . S
H784 C727 0.930 . S
H785 C729 0.929 . S
H786 C730 0.930 . S
H787 C731 0.930 . S
H788 C734 0.930 . S
H789 C737 0.929 . S
H790 C742 0.929 . S
H791 C743 0.930 . S
H792 C750 0.929 . S
H793 C751 0.930 . S
H794 C752 0.930 . S
H795 C753 0.930 . S
H796 C755 0.929 . S
H797 C756 0.930 . S
H798 C757 0.930 . S
H799 C758 0.930 . S
H800 C762 0.929 . S
H801 C764 0.930 . S
H802 C770 0.929 . S
H803 C771 0.930 . S
C804 C805 1.391 . S
C804 C806 1.394 . S
C804 H820 0.931 . S
C805 C804 1.391 . S
C805 C809 1.376 . S
C806 C804 1.394 . S
C806 C807 1.369 . S
C806 C810 1.531 . S
C807 C806 1.369 . S
C807 C808 1.410 . S
C807 C815 1.503 . S
C808 C807 1.410 . S
C808 C809 1.392 . S
C808 C811 1.511 . S
C809 C805 1.376 . S
C809 C808 1.392 . S
C809 H821 0.929 . S
C810 C806 1.531 . S
C810 H822 0.960 . S
C810 H823 0.962 . S
C810 H824 0.960 . S
C811 C808 1.511 . S
C811 H825 0.961 . S
C811 H826 0.961 . S
C811 H827 0.961 . S
C812 C813 1.370 . S
C812 C814 1.363 . S
C812 H828 0.931 . S
C813 C812 1.370 . S
C813 C817 1.408 . S
C814 C812 1.363 . S
C814 C815 1.370 . S
C814 C818 1.524 . S
C815 C807 1.503 . S
C815 C814 1.370 . S
C815 C816 1.403 . S
C816 C815 1.403 . S
C816 C817 1.404 . S
C816 C819 1.539 . S
C817 C813 1.408 . S
C817 C816 1.404 . S
C817 H829 0.930 . S
C818 C814 1.524 . S
C818 H830 0.956 . S
C818 H831 0.961 . S
C818 H832 0.961 . S
C819 C816 1.539 . S
C819 H833 0.958 . S
C819 H834 0.961 . S
C819 H835 0.960 . S
H820 C804 0.931 . S
H821 C809 0.929 . S
H822 C810 0.960 . S
H823 C810 0.962 . S
H824 C810 0.960 . S
H825 C811 0.961 . S
H826 C811 0.961 . S
H827 C811 0.961 . S
H828 C812 0.931 . S
H829 C817 0.930 . S
H830 C818 0.956 . S
H831 C818 0.961 . S
H832 C818 0.961 . S
H833 C819 0.958 . S
H834 C819 0.961 . S
H835 C819 0.960 . S
C836 C837 1.391 . S
C836 C838 1.394 . S
C836 H852 0.931 . S
C837 C836 1.391 . S
C837 C841 1.376 . S
C838 C836 1.394 . S
C838 C839 1.369 . S
C838 C842 1.531 . S
C839 C838 1.369 . S
C839 C840 1.410 . S
C839 C847 1.503 . S
C840 C839 1.410 . S
C840 C841 1.392 . S
C840 C843 1.511 . S
C841 C837 1.376 . S
C841 C840 1.392 . S
C841 H853 0.929 . S
C842 C838 1.531 . S
C842 H854 0.960 . S
C842 H855 0.962 . S
C842 H856 0.960 . S
C843 C840 1.511 . S
C843 H857 0.961 . S
C843 H858 0.961 . S
C843 H859 0.961 . S
C844 C845 1.370 . S
C844 C846 1.363 . S
C844 H860 0.931 . S
C845 C844 1.370 . S
C845 C849 1.408 . S
C846 C844 1.363 . S
C846 C847 1.370 . S
C846 C850 1.524 . S
C847 C839 1.503 . S
C847 C846 1.370 . S
C847 C848 1.403 . S
C848 C847 1.403 . S
C848 C849 1.404 . S
C848 C851 1.539 . S
C849 C845 1.408 . S
C849 C848 1.404 . S
C849 H861 0.930 . S
C850 C846 1.524 . S
C850 H862 0.956 . S
C850 H863 0.961 . S
C850 H864 0.961 . S
C851 C848 1.539 . S
C851 H865 0.958 . S
C851 H866 0.961 . S
C851 H867 0.960 . S
H852 C836 0.931 . S
H853 C841 0.929 . S
H854 C842 0.960 . S
H855 C842 0.962 . S
H856 C842 0.960 . S
H857 C843 0.961 . S
H858 C843 0.961 . S
H859 C843 0.961 . S
H860 C844 0.931 . S
H861 C849 0.930 . S
H862 C850 0.956 . S
H863 C850 0.961 . S
H864 C850 0.961 . S
H865 C851 0.958 . S
H866 C851 0.961 . S
H867 C851 0.960 . S
C868 C869 1.391 . S
C868 C870 1.394 . S
C868 H884 0.931 . S
C869 C868 1.391 . S
C869 C873 1.376 . S
C870 C868 1.394 . S
C870 C871 1.369 . S
C870 C874 1.531 . S
C871 C870 1.369 . S
C871 C872 1.410 . S
C871 C879 1.503 . S
C872 C871 1.410 . S
C872 C873 1.392 . S
C872 C875 1.511 . S
C873 C869 1.376 . S
C873 C872 1.392 . S
C873 H885 0.929 . S
C874 C870 1.531 . S
C874 H886 0.960 . S
C874 H887 0.962 . S
C874 H888 0.960 . S
C875 C872 1.511 . S
C875 H889 0.961 . S
C875 H890 0.961 . S
C875 H891 0.961 . S
C876 C877 1.370 . S
C876 C878 1.363 . S
C876 H892 0.931 . S
C877 C876 1.370 . S
C877 C881 1.408 . S
C878 C876 1.363 . S
C878 C879 1.370 . S
C878 C882 1.524 . S
C879 C871 1.503 . S
C879 C878 1.370 . S
C879 C880 1.403 . S
C880 C879 1.403 . S
C880 C881 1.404 . S
C880 C883 1.539 . S
C881 C877 1.408 . S
C881 C880 1.404 . S
C881 H893 0.930 . S
C882 C878 1.524 . S
C882 H894 0.956 . S
C882 H895 0.961 . S
C882 H896 0.961 . S
C883 C880 1.539 . S
C883 H897 0.958 . S
C883 H898 0.961 . S
C883 H899 0.960 . S
H884 C868 0.931 . S
H885 C873 0.929 . S
H886 C874 0.960 . S
H887 C874 0.962 . S
H888 C874 0.960 . S
H889 C875 0.961 . S
H890 C875 0.961 . S
H891 C875 0.961 . S
H892 C876 0.931 . S
H893 C881 0.930 . S
H894 C882 0.956 . S
H895 C882 0.961 . S
H896 C882 0.961 . S
H897 C883 0.958 . S
H898 C883 0.961 . S
H899 C883 0.960 . S
C900 C901 1.391 . S
C900 C902 1.394 . S
C900 H916 0.931 . S
C901 C900 1.391 . S
C901 C905 1.376 . S
C902 C900 1.394 . S
C902 C903 1.369 . S
C902 C906 1.531 . S
C903 C902 1.369 . S
C903 C904 1.410 . S
C903 C911 1.503 . S
C904 C903 1.410 . S
C904 C905 1.392 . S
C904 C907 1.511 . S
C905 C901 1.376 . S
C905 C904 1.392 . S
C905 H917 0.929 . S
C906 C902 1.531 . S
C906 H918 0.960 . S
C906 H919 0.962 . S
C906 H920 0.960 . S
C907 C904 1.511 . S
C907 H921 0.961 . S
C907 H922 0.961 . S
C907 H923 0.961 . S
C908 C909 1.370 . S
C908 C910 1.363 . S
C908 H924 0.931 . S
C909 C908 1.370 . S
C909 C913 1.408 . S
C910 C908 1.363 . S
C910 C911 1.370 . S
C910 C914 1.524 . S
C911 C903 1.503 . S
C911 C910 1.370 . S
C911 C912 1.403 . S
C912 C911 1.403 . S
C912 C913 1.404 . S
C912 C915 1.539 . S
C913 C909 1.408 . S
C913 C912 1.404 . S
C913 H925 0.930 . S
C914 C910 1.524 . S
C914 H926 0.956 . S
C914 H927 0.961 . S
C914 H928 0.961 . S
C915 C912 1.539 . S
C915 H929 0.958 . S
C915 H930 0.961 . S
C915 H931 0.960 . S
H916 C900 0.931 . S
H917 C905 0.929 . S
H918 C906 0.960 . S
H919 C906 0.962 . S
H920 C906 0.960 . S
H921 C907 0.961 . S
H922 C907 0.961 . S
H923 C907 0.961 . S
H924 C908 0.931 . S
H925 C913 0.930 . S
H926 C914 0.956 . S
H927 C914 0.961 . S
H928 C914 0.961 . S
H929 C915 0.958 . S
H930 C915 0.961 . S
H931 C915 0.960 . S
C932 C933 1.391 . S
C932 C934 1.394 . S
C932 H948 0.931 . S
C933 C932 1.391 . S
C933 C937 1.376 . S
C934 C932 1.394 . S
C934 C935 1.369 . S
C934 C938 1.531 . S
C935 C934 1.369 . S
C935 C936 1.410 . S
C935 C943 1.503 . S
C936 C935 1.410 . S
C936 C937 1.392 . S
C936 C939 1.511 . S
C937 C933 1.376 . S
C937 C936 1.392 . S
C937 H949 0.929 . S
C938 C934 1.531 . S
C938 H950 0.960 . S
C938 H951 0.962 . S
C938 H952 0.960 . S
C939 C936 1.511 . S
C939 H953 0.961 . S
C939 H954 0.961 . S
C939 H955 0.961 . S
C940 C941 1.370 . S
C940 C942 1.363 . S
C940 H956 0.931 . S
C941 C940 1.370 . S
C941 C945 1.408 . S
C942 C940 1.363 . S
C942 C943 1.370 . S
C942 C946 1.524 . S
C943 C935 1.503 . S
C943 C942 1.370 . S
C943 C944 1.403 . S
C944 C943 1.403 . S
C944 C945 1.404 . S
C944 C947 1.539 . S
C945 C941 1.408 . S
C945 C944 1.404 . S
C945 H957 0.930 . S
C946 C942 1.524 . S
C946 H958 0.956 . S
C946 H959 0.961 . S
C946 H960 0.961 . S
C947 C944 1.539 . S
C947 H961 0.958 . S
C947 H962 0.961 . S
C947 H963 0.960 . S
H948 C932 0.931 . S
H949 C937 0.929 . S
H950 C938 0.960 . S
H951 C938 0.962 . S
H952 C938 0.960 . S
H953 C939 0.961 . S
H954 C939 0.961 . S
H955 C939 0.961 . S
H956 C940 0.931 . S
H957 C945 0.930 . S
H958 C946 0.956 . S
H959 C946 0.961 . S
H960 C946 0.961 . S
H961 C947 0.958 . S
H962 C947 0.961 . S
H963 C947 0.960 . S
C964 C965 1.391 . S
C964 C966 1.394 . S
C964 H980 0.931 . S
C965 C964 1.391 . S
C965 C969 1.376 . S
C966 C964 1.394 . S
C966 C967 1.369 . S
C966 C970 1.531 . S
C967 C966 1.369 . S
C967 C968 1.410 . S
C967 C975 1.503 . S
C968 C967 1.410 . S
C968 C969 1.392 . S
C968 C971 1.511 . S
C969 C965 1.376 . S
C969 C968 1.392 . S
C969 H981 0.929 . S
C970 C966 1.531 . S
C970 H982 0.960 . S
C970 H983 0.962 . S
C970 H984 0.960 . S
C971 C968 1.511 . S
C971 H985 0.961 . S
C971 H986 0.961 . S
C971 H987 0.961 . S
C972 C973 1.370 . S
C972 C974 1.363 . S
C972 H988 0.931 . S
C973 C972 1.370 . S
C973 C977 1.408 . S
C974 C972 1.363 . S
C974 C975 1.370 . S
C974 C978 1.524 . S
C975 C967 1.503 . S
C975 C974 1.370 . S
C975 C976 1.403 . S
C976 C975 1.403 . S
C976 C977 1.404 . S
C976 C979 1.539 . S
C977 C973 1.408 . S
C977 C976 1.404 . S
C977 H989 0.930 . S
C978 C974 1.524 . S
C978 H990 0.956 . S
C978 H991 0.961 . S
C978 H992 0.961 . S
C979 C976 1.539 . S
C979 H993 0.958 . S
C979 H994 0.961 . S
C979 H995 0.960 . S
H980 C964 0.931 . S
H981 C969 0.929 . S
H982 C970 0.960 . S
H983 C970 0.962 . S
H984 C970 0.960 . S
H985 C971 0.961 . S
H986 C971 0.961 . S
H987 C971 0.961 . S
H988 C972 0.931 . S
H989 C977 0.930 . S
H990 C978 0.956 . S
H991 C978 0.961 . S
H992 C978 0.961 . S
H993 C979 0.958 . S
H994 C979 0.961 . S
H995 C979 0.960 . S
C996 C997 1.391 . S
C996 C998 1.394 . S
C996 H1012 0.931 . S
C997 C996 1.391 . S
C997 C1001 1.376 . S
C998 C996 1.394 . S
C998 C999 1.369 . S
C998 C1002 1.531 . S
C999 C998 1.369 . S
C999 C1000 1.410 . S
C999 C1007 1.503 . S
C1000 C999 1.410 . S
C1000 C1001 1.392 . S
C1000 C1003 1.511 . S
C1001 C997 1.376 . S
C1001 C1000 1.392 . S
C1001 H1013 0.929 . S
C1002 C998 1.531 . S
C1002 H1014 0.960 . S
C1002 H1015 0.962 . S
C1002 H1016 0.960 . S
C1003 C1000 1.511 . S
C1003 H1017 0.961 . S
C1003 H1018 0.961 . S
C1003 H1019 0.961 . S
C1004 C1005 1.370 . S
C1004 C1006 1.363 . S
C1004 H1020 0.931 . S
C1005 C1004 1.370 . S
C1005 C1009 1.408 . S
C1006 C1004 1.363 . S
C1006 C1007 1.370 . S
C1006 C1010 1.524 . S
C1007 C999 1.503 . S
C1007 C1006 1.370 . S
C1007 C1008 1.403 . S
C1008 C1007 1.403 . S
C1008 C1009 1.404 . S
C1008 C1011 1.539 . S
C1009 C1005 1.408 . S
C1009 C1008 1.404 . S
C1009 H1021 0.930 . S
C1010 C1006 1.524 . S
C1010 H1022 0.956 . S
C1010 H1023 0.961 . S
C1010 H1024 0.961 . S
C1011 C1008 1.539 . S
C1011 H1025 0.958 . S
C1011 H1026 0.961 . S
C1011 H1027 0.960 . S
H1012 C996 0.931 . S
H1013 C1001 0.929 . S
H1014 C1002 0.960 . S
H1015 C1002 0.962 . S
H1016 C1002 0.960 . S
H1017 C1003 0.961 . S
H1018 C1003 0.961 . S
H1019 C1003 0.961 . S
H1020 C1004 0.931 . S
H1021 C1009 0.930 . S
H1022 C1010 0.956 . S
H1023 C1010 0.961 . S
H1024 C1010 0.961 . S
H1025 C1011 0.958 . S
H1026 C1011 0.961 . S
H1027 C1011 0.960 . S
C1028 C1029 1.391 . S
C1028 C1030 1.394 . S
C1028 H1044 0.931 . S
C1029 C1028 1.391 . S
C1029 C1033 1.376 . S
C1030 C1028 1.394 . S
C1030 C1031 1.369 . S
C1030 C1034 1.531 . S
C1031 C1030 1.369 . S
C1031 C1032 1.410 . S
C1031 C1039 1.503 . S
C1032 C1031 1.410 . S
C1032 C1033 1.392 . S
C1032 C1035 1.511 . S
C1033 C1029 1.376 . S
C1033 C1032 1.392 . S
C1033 H1045 0.929 . S
C1034 C1030 1.531 . S
C1034 H1046 0.960 . S
C1034 H1047 0.962 . S
C1034 H1048 0.960 . S
C1035 C1032 1.511 . S
C1035 H1049 0.961 . S
C1035 H1050 0.961 . S
C1035 H1051 0.961 . S
C1036 C1037 1.370 . S
C1036 C1038 1.363 . S
C1036 H1052 0.931 . S
C1037 C1036 1.370 . S
C1037 C1041 1.408 . S
C1038 C1036 1.363 . S
C1038 C1039 1.370 . S
C1038 C1042 1.524 . S
C1039 C1031 1.503 . S
C1039 C1038 1.370 . S
C1039 C1040 1.403 . S
C1040 C1039 1.403 . S
C1040 C1041 1.404 . S
C1040 C1043 1.539 . S
C1041 C1037 1.408 . S
C1041 C1040 1.404 . S
C1041 H1053 0.930 . S
C1042 C1038 1.524 . S
C1042 H1054 0.956 . S
C1042 H1055 0.961 . S
C1042 H1056 0.961 . S
C1043 C1040 1.539 . S
C1043 H1057 0.958 . S
C1043 H1058 0.961 . S
C1043 H1059 0.960 . S
H1044 C1028 0.931 . S
H1045 C1033 0.929 . S
H1046 C1034 0.960 . S
H1047 C1034 0.962 . S
H1048 C1034 0.960 . S
H1049 C1035 0.961 . S
H1050 C1035 0.961 . S
H1051 C1035 0.961 . S
H1052 C1036 0.931 . S
H1053 C1041 0.930 . S
H1054 C1042 0.956 . S
H1055 C1042 0.961 . S
H1056 C1042 0.961 . S
H1057 C1043 0.958 . S
H1058 C1043 0.961 . S
H1059 C1043 0.960 . S
C1060 C1061 1.391 . S
C1060 C1062 1.394 . S
C1060 H1076 0.931 . S
C1061 C1060 1.391 . S
C1061 C1065 1.376 . S
C1062 C1060 1.394 . S
C1062 C1063 1.369 . S
C1062 C1066 1.531 . S
C1063 C1062 1.369 . S
C1063 C1064 1.410 . S
C1063 C1071 1.503 . S
C1064 C1063 1.410 . S
C1064 C1065 1.392 . S
C1064 C1067 1.511 . S
C1065 C1061 1.376 . S
C1065 C1064 1.392 . S
C1065 H1077 0.929 . S
C1066 C1062 1.531 . S
C1066 H1078 0.960 . S
C1066 H1079 0.962 . S
C1066 H1080 0.960 . S
C1067 C1064 1.511 . S
C1067 H1081 0.961 . S
C1067 H1082 0.961 . S
C1067 H1083 0.961 . S
C1068 C1069 1.370 . S
C1068 C1070 1.363 . S
C1068 H1084 0.931 . S
C1069 C1068 1.370 . S
C1069 C1073 1.408 . S
C1070 C1068 1.363 . S
C1070 C1071 1.370 . S
C1070 C1074 1.524 . S
C1071 C1063 1.503 . S
C1071 C1070 1.370 . S
C1071 C1072 1.403 . S
C1072 C1071 1.403 . S
C1072 C1073 1.404 . S
C1072 C1075 1.539 . S
C1073 C1069 1.408 . S
C1073 C1072 1.404 . S
C1073 H1085 0.930 . S
C1074 C1070 1.524 . S
C1074 H1086 0.956 . S
C1074 H1087 0.961 . S
C1074 H1088 0.961 . S
C1075 C1072 1.539 . S
C1075 H1089 0.958 . S
C1075 H1090 0.961 . S
C1075 H1091 0.960 . S
H1076 C1060 0.931 . S
H1077 C1065 0.929 . S
H1078 C1066 0.960 . S
H1079 C1066 0.962 . S
H1080 C1066 0.960 . S
H1081 C1067 0.961 . S
H1082 C1067 0.961 . S
H1083 C1067 0.961 . S
H1084 C1068 0.931 . S
H1085 C1073 0.930 . S
H1086 C1074 0.956 . S
H1087 C1074 0.961 . S
H1088 C1074 0.961 . S
H1089 C1075 0.958 . S
H1090 C1075 0.961 . S
H1091 C1075 0.960 . S
C1092 C1093 1.391 . S
C1092 C1094 1.394 . S
C1092 H1108 0.931 . S
C1093 C1092 1.391 . S
C1093 C1097 1.376 . S
C1094 C1092 1.394 . S
C1094 C1095 1.369 . S
C1094 C1098 1.531 . S
C1095 C1094 1.369 . S
C1095 C1096 1.410 . S
C1095 C1103 1.503 . S
C1096 C1095 1.410 . S
C1096 C1097 1.392 . S
C1096 C1099 1.511 . S
C1097 C1093 1.376 . S
C1097 C1096 1.392 . S
C1097 H1109 0.929 . S
C1098 C1094 1.531 . S
C1098 H1110 0.960 . S
C1098 H1111 0.962 . S
C1098 H1112 0.960 1_554 S
C1099 C1096 1.511 . S
C1099 H1113 0.961 . S
C1099 H1114 0.961 . S
C1099 H1115 0.961 . S
C1100 C1101 1.370 . S
C1100 C1102 1.363 . S
C1100 H1116 0.931 . S
C1101 C1100 1.370 . S
C1101 C1105 1.408 . S
C1102 C1100 1.363 . S
C1102 C1103 1.370 . S
C1102 C1106 1.524 . S
C1103 C1095 1.503 . S
C1103 C1102 1.370 . S
C1103 C1104 1.403 . S
C1104 C1103 1.403 . S
C1104 C1105 1.404 . S
C1104 C1107 1.539 . S
C1105 C1101 1.408 . S
C1105 C1104 1.404 . S
C1105 H1117 0.930 . S
C1106 C1102 1.524 . S
C1106 H1118 0.956 . S
C1106 H1119 0.961 . S
C1106 H1120 0.961 . S
C1107 C1104 1.539 . S
C1107 H1121 0.958 . S
C1107 H1122 0.961 . S
C1107 H1123 0.960 . S
H1108 C1092 0.931 . S
H1109 C1097 0.929 . S
H1110 C1098 0.960 . S
H1111 C1098 0.962 . S
H1112 C1098 0.960 1_556 S
H1113 C1099 0.961 . S
H1114 C1099 0.961 . S
H1115 C1099 0.961 . S
H1116 C1100 0.931 . S
H1117 C1105 0.930 . S
H1118 C1106 0.956 . S
H1119 C1106 0.961 . S
H1120 C1106 0.961 . S
H1121 C1107 0.958 . S
H1122 C1107 0.961 . S
H1123 C1107 0.960 . S
C1124 C1125 1.391 . S
C1124 C1126 1.394 . S
C1124 H1140 0.931 . S
C1125 C1124 1.391 . S
C1125 C1129 1.376 . S
C1126 C1124 1.394 . S
C1126 C1127 1.369 . S
C1126 C1130 1.531 . S
C1127 C1126 1.369 . S
C1127 C1128 1.410 . S
C1127 C1135 1.503 . S
C1128 C1127 1.410 . S
C1128 C1129 1.392 . S
C1128 C1131 1.511 . S
C1129 C1125 1.376 . S
C1129 C1128 1.392 . S
C1129 H1141 0.929 . S
C1130 C1126 1.531 . S
C1130 H1142 0.960 . S
C1130 H1143 0.962 . S
C1130 H1144 0.960 . S
C1131 C1128 1.511 . S
C1131 H1145 0.961 . S
C1131 H1146 0.961 . S
C1131 H1147 0.961 . S
C1132 C1133 1.370 . S
C1132 C1134 1.363 . S
C1132 H1148 0.931 . S
C1133 C1132 1.370 . S
C1133 C1137 1.408 . S
C1134 C1132 1.363 . S
C1134 C1135 1.370 . S
C1134 C1138 1.524 . S
C1135 C1127 1.503 . S
C1135 C1134 1.370 . S
C1135 C1136 1.403 . S
C1136 C1135 1.403 . S
C1136 C1137 1.404 . S
C1136 C1139 1.539 . S
C1137 C1133 1.408 . S
C1137 C1136 1.404 . S
C1137 H1149 0.930 . S
C1138 C1134 1.524 . S
C1138 H1150 0.956 . S
C1138 H1151 0.961 . S
C1138 H1152 0.961 . S
C1139 C1136 1.539 . S
C1139 H1153 0.958 . S
C1139 H1154 0.961 . S
C1139 H1155 0.960 . S
H1140 C1124 0.931 . S
H1141 C1129 0.929 . S
H1142 C1130 0.960 . S
H1143 C1130 0.962 . S
H1144 C1130 0.960 . S
H1145 C1131 0.961 . S
H1146 C1131 0.961 . S
H1147 C1131 0.961 . S
H1148 C1132 0.931 . S
H1149 C1137 0.930 . S
H1150 C1138 0.956 . S
H1151 C1138 0.961 . S
H1152 C1138 0.961 . S
H1153 C1139 0.958 . S
H1154 C1139 0.961 . S
H1155 C1139 0.960 . S
C1156 C1157 1.391 . S
C1156 C1158 1.394 . S
C1156 H1172 0.931 . S
C1157 C1156 1.391 . S
C1157 C1161 1.376 . S
C1158 C1156 1.394 . S
C1158 C1159 1.369 . S
C1158 C1162 1.531 . S
C1159 C1158 1.369 . S
C1159 C1160 1.410 . S
C1159 C1167 1.503 . S
C1160 C1159 1.410 . S
C1160 C1161 1.392 . S
C1160 C1163 1.511 . S
C1161 C1157 1.376 . S
C1161 C1160 1.392 . S
C1161 H1173 0.929 . S
C1162 C1158 1.531 . S
C1162 H1174 0.960 . S
C1162 H1175 0.962 . S
C1162 H1176 0.960 . S
C1163 C1160 1.511 . S
C1163 H1177 0.961 . S
C1163 H1178 0.961 . S
C1163 H1179 0.961 . S
C1164 C1165 1.370 . S
C1164 C1166 1.363 . S
C1164 H1180 0.931 . S
C1165 C1164 1.370 . S
C1165 C1169 1.408 . S
C1166 C1164 1.363 . S
C1166 C1167 1.370 . S
C1166 C1170 1.524 . S
C1167 C1159 1.503 . S
C1167 C1166 1.370 . S
C1167 C1168 1.403 . S
C1168 C1167 1.403 . S
C1168 C1169 1.404 . S
C1168 C1171 1.539 . S
C1169 C1165 1.408 . S
C1169 C1168 1.404 . S
C1169 H1181 0.930 . S
C1170 C1166 1.524 . S
C1170 H1182 0.956 . S
C1170 H1183 0.961 . S
C1170 H1184 0.961 . S
C1171 C1168 1.539 . S
C1171 H1185 0.958 . S
C1171 H1186 0.961 . S
C1171 H1187 0.960 . S
H1172 C1156 0.931 . S
H1173 C1161 0.929 . S
H1174 C1162 0.960 . S
H1175 C1162 0.962 . S
H1176 C1162 0.960 . S
H1177 C1163 0.961 . S
H1178 C1163 0.961 . S
H1179 C1163 0.961 . S
H1180 C1164 0.931 . S
H1181 C1169 0.930 . S
H1182 C1170 0.956 . S
H1183 C1170 0.961 . S
H1184 C1170 0.961 . S
H1185 C1171 0.958 . S
H1186 C1171 0.961 . S
H1187 C1171 0.960 . S
C1188 C1189 1.391 . S
C1188 C1190 1.394 . S
C1188 H1204 0.931 . S
C1189 C1188 1.391 . S
C1189 C1193 1.376 . S
C1190 C1188 1.394 . S
C1190 C1191 1.369 . S
C1190 C1194 1.531 . S
C1191 C1190 1.369 . S
C1191 C1192 1.410 . S
C1191 C1199 1.503 . S
C1192 C1191 1.410 . S
C1192 C1193 1.392 . S
C1192 C1195 1.511 . S
C1193 C1189 1.376 . S
C1193 C1192 1.392 . S
C1193 H1205 0.929 . S
C1194 C1190 1.531 . S
C1194 H1206 0.960 . S
C1194 H1207 0.962 . S
C1194 H1208 0.960 . S
C1195 C1192 1.511 . S
C1195 H1209 0.961 . S
C1195 H1210 0.961 . S
C1195 H1211 0.961 . S
C1196 C1197 1.370 . S
C1196 C1198 1.363 . S
C1196 H1212 0.931 . S
C1197 C1196 1.370 . S
C1197 C1201 1.408 . S
C1198 C1196 1.363 . S
C1198 C1199 1.370 . S
C1198 C1202 1.524 . S
C1199 C1191 1.503 . S
C1199 C1198 1.370 . S
C1199 C1200 1.403 . S
C1200 C1199 1.403 . S
C1200 C1201 1.404 . S
C1200 C1203 1.539 . S
C1201 C1197 1.408 . S
C1201 C1200 1.404 . S
C1201 H1213 0.930 . S
C1202 C1198 1.524 . S
C1202 H1214 0.956 . S
C1202 H1215 0.961 . S
C1202 H1216 0.961 . S
C1203 C1200 1.539 . S
C1203 H1217 0.958 . S
C1203 H1218 0.961 . S
C1203 H1219 0.960 . S
H1204 C1188 0.931 . S
H1205 C1193 0.929 . S
H1206 C1194 0.960 . S
H1207 C1194 0.962 . S
H1208 C1194 0.960 . S
H1209 C1195 0.961 . S
H1210 C1195 0.961 . S
H1211 C1195 0.961 . S
H1212 C1196 0.931 . S
H1213 C1201 0.930 . S
H1214 C1202 0.956 . S
H1215 C1202 0.961 . S
H1216 C1202 0.961 . S
H1217 C1203 0.958 . S
H1218 C1203 0.961 . S
H1219 C1203 0.960 . S
C1220 C1221 1.391 . S
C1220 C1222 1.394 . S
C1220 H1236 0.931 . S
C1221 C1220 1.391 . S
C1221 C1225 1.376 . S
C1222 C1220 1.394 . S
C1222 C1223 1.369 . S
C1222 C1226 1.531 . S
C1223 C1222 1.369 . S
C1223 C1224 1.410 . S
C1223 C1231 1.503 . S
C1224 C1223 1.410 . S
C1224 C1225 1.392 . S
C1224 C1227 1.511 . S
C1225 C1221 1.376 . S
C1225 C1224 1.392 . S
C1225 H1237 0.929 . S
C1226 C1222 1.531 . S
C1226 H1238 0.960 . S
C1226 H1239 0.962 . S
C1226 H1240 0.960 . S
C1227 C1224 1.511 . S
C1227 H1241 0.961 . S
C1227 H1242 0.961 . S
C1227 H1243 0.961 . S
C1228 C1229 1.370 . S
C1228 C1230 1.363 . S
C1228 H1244 0.931 . S
C1229 C1228 1.370 . S
C1229 C1233 1.408 . S
C1230 C1228 1.363 . S
C1230 C1231 1.370 . S
C1230 C1234 1.524 . S
C1231 C1223 1.503 . S
C1231 C1230 1.370 . S
C1231 C1232 1.403 . S
C1232 C1231 1.403 . S
C1232 C1233 1.404 . S
C1232 C1235 1.539 . S
C1233 C1229 1.408 . S
C1233 C1232 1.404 . S
C1233 H1245 0.930 . S
C1234 C1230 1.524 . S
C1234 H1246 0.956 . S
C1234 H1247 0.961 . S
C1234 H1248 0.961 . S
C1235 C1232 1.539 . S
C1235 H1249 0.958 . S
C1235 H1250 0.961 . S
C1235 H1251 0.960 . S
H1236 C1220 0.931 . S
H1237 C1225 0.929 . S
H1238 C1226 0.960 . S
H1239 C1226 0.962 . S
H1240 C1226 0.960 . S
H1241 C1227 0.961 . S
H1242 C1227 0.961 . S
H1243 C1227 0.961 . S
H1244 C1228 0.931 . S
H1245 C1233 0.930 . S
H1246 C1234 0.956 . S
H1247 C1234 0.961 . S
H1248 C1234 0.961 . S
H1249 C1235 0.958 . S
H1250 C1235 0.961 . S
H1251 C1235 0.960 . S
C1252 C1253 1.391 . S
C1252 C1254 1.394 . S
C1252 H1268 0.931 . S
C1253 C1252 1.391 . S
C1253 C1257 1.376 . S
C1254 C1252 1.394 . S
C1254 C1255 1.369 . S
C1254 C1258 1.531 . S
C1255 C1254 1.369 . S
C1255 C1256 1.410 . S
C1255 C1263 1.503 . S
C1256 C1255 1.410 . S
C1256 C1257 1.392 . S
C1256 C1259 1.511 . S
C1257 C1253 1.376 . S
C1257 C1256 1.392 . S
C1257 H1269 0.929 . S
C1258 C1254 1.531 . S
C1258 H1270 0.960 . S
C1258 H1271 0.962 . S
C1258 H1272 0.960 . S
C1259 C1256 1.511 . S
C1259 H1273 0.961 . S
C1259 H1274 0.961 . S
C1259 H1275 0.961 . S
C1260 C1261 1.370 . S
C1260 C1262 1.363 . S
C1260 H1276 0.931 . S
C1261 C1260 1.370 . S
C1261 C1265 1.408 . S
C1262 C1260 1.363 . S
C1262 C1263 1.370 . S
C1262 C1266 1.524 . S
C1263 C1255 1.503 . S
C1263 C1262 1.370 . S
C1263 C1264 1.403 . S
C1264 C1263 1.403 . S
C1264 C1265 1.404 . S
C1264 C1267 1.539 . S
C1265 C1261 1.408 . S
C1265 C1264 1.404 . S
C1265 H1277 0.930 . S
C1266 C1262 1.524 . S
C1266 H1278 0.956 . S
C1266 H1279 0.961 . S
C1266 H1280 0.961 . S
C1267 C1264 1.539 . S
C1267 H1281 0.958 . S
C1267 H1282 0.961 . S
C1267 H1283 0.960 . S
H1268 C1252 0.931 . S
H1269 C1257 0.929 . S
H1270 C1258 0.960 . S
H1271 C1258 0.962 . S
H1272 C1258 0.960 . S
H1273 C1259 0.961 . S
H1274 C1259 0.961 . S
H1275 C1259 0.961 . S
H1276 C1260 0.931 . S
H1277 C1265 0.930 . S
H1278 C1266 0.956 . S
H1279 C1266 0.961 . S
H1280 C1266 0.961 . S
H1281 C1267 0.958 . S
H1282 C1267 0.961 . S
H1283 C1267 0.960 . S
C1284 C1285 1.391 . S
C1284 C1286 1.394 . S
C1284 H1300 0.931 . S
C1285 C1284 1.391 . S
C1285 C1289 1.376 . S
C1286 C1284 1.394 . S
C1286 C1287 1.369 . S
C1286 C1290 1.531 . S
C1287 C1286 1.369 . S
C1287 C1288 1.410 . S
C1287 C1295 1.503 . S
C1288 C1287 1.410 . S
C1288 C1289 1.392 . S
C1288 C1291 1.511 . S
C1289 C1285 1.376 . S
C1289 C1288 1.392 . S
C1289 H1301 0.929 . S
C1290 C1286 1.531 . S
C1290 H1302 0.960 . S
C1290 H1303 0.962 . S
C1290 H1304 0.960 . S
C1291 C1288 1.511 . S
C1291 H1305 0.961 . S
C1291 H1306 0.961 . S
C1291 H1307 0.961 . S
C1292 C1293 1.370 . S
C1292 C1294 1.363 . S
C1292 H1308 0.931 . S
C1293 C1292 1.370 . S
C1293 C1297 1.408 . S
C1294 C1292 1.363 . S
C1294 C1295 1.370 . S
C1294 C1298 1.524 . S
C1295 C1287 1.503 . S
C1295 C1294 1.370 . S
C1295 C1296 1.403 . S
C1296 C1295 1.403 . S
C1296 C1297 1.404 . S
C1296 C1299 1.539 . S
C1297 C1293 1.408 . S
C1297 C1296 1.404 . S
C1297 H1309 0.930 . S
C1298 C1294 1.524 . S
C1298 H1310 0.956 . S
C1298 H1311 0.961 . S
C1298 H1312 0.961 . S
C1299 C1296 1.539 . S
C1299 H1313 0.958 . S
C1299 H1314 0.961 . S
C1299 H1315 0.960 . S
H1300 C1284 0.931 . S
H1301 C1289 0.929 . S
H1302 C1290 0.960 . S
H1303 C1290 0.962 . S
H1304 C1290 0.960 . S
H1305 C1291 0.961 . S
H1306 C1291 0.961 . S
H1307 C1291 0.961 . S
H1308 C1292 0.931 . S
H1309 C1297 0.930 . S
H1310 C1298 0.956 . S
H1311 C1298 0.961 . S
H1312 C1298 0.961 . S
H1313 C1299 0.958 . S
H1314 C1299 0.961 . S
H1315 C1299 0.960 . S
C1316 C1317 1.391 . S
C1316 C1318 1.394 . S
C1316 H1332 0.931 . S
C1317 C1316 1.391 . S
C1317 C1321 1.376 . S
C1318 C1316 1.394 . S
C1318 C1319 1.369 . S
C1318 C1322 1.531 . S
C1319 C1318 1.369 . S
C1319 C1320 1.410 . S
C1319 C1327 1.503 . S
C1320 C1319 1.410 . S
C1320 C1321 1.392 . S
C1320 C1323 1.511 . S
C1321 C1317 1.376 . S
C1321 C1320 1.392 . S
C1321 H1333 0.929 . S
C1322 C1318 1.531 . S
C1322 H1334 0.960 . S
C1322 H1335 0.962 . S
C1322 H1336 0.960 . S
C1323 C1320 1.511 . S
C1323 H1337 0.961 . S
C1323 H1338 0.961 . S
C1323 H1339 0.961 . S
C1324 C1325 1.370 . S
C1324 C1326 1.363 . S
C1324 H1340 0.931 . S
C1325 C1324 1.370 . S
C1325 C1329 1.408 . S
C1326 C1324 1.363 . S
C1326 C1327 1.370 . S
C1326 C1330 1.524 . S
C1327 C1319 1.503 . S
C1327 C1326 1.370 . S
C1327 C1328 1.403 . S
C1328 C1327 1.403 . S
C1328 C1329 1.404 . S
C1328 C1331 1.539 . S
C1329 C1325 1.408 . S
C1329 C1328 1.404 . S
C1329 H1341 0.930 . S
C1330 C1326 1.524 . S
C1330 H1342 0.956 . S
C1330 H1343 0.961 . S
C1330 H1344 0.961 . S
C1331 C1328 1.539 . S
C1331 H1345 0.958 . S
C1331 H1346 0.961 . S
C1331 H1347 0.960 . S
H1332 C1316 0.931 . S
H1333 C1321 0.929 . S
H1334 C1322 0.960 . S
H1335 C1322 0.962 . S
H1336 C1322 0.960 . S
H1337 C1323 0.961 . S
H1338 C1323 0.961 . S
H1339 C1323 0.961 . S
H1340 C1324 0.931 . S
H1341 C1329 0.930 . S
H1342 C1330 0.956 . S
H1343 C1330 0.961 . S
H1344 C1330 0.961 . S
H1345 C1331 0.958 . S
H1346 C1331 0.961 . S
H1347 C1331 0.960 . S
C1348 C1349 1.391 . S
C1348 C1350 1.394 . S
C1348 H1364 0.931 . S
C1349 C1348 1.391 . S
C1349 C1353 1.376 . S
C1350 C1348 1.394 . S
C1350 C1351 1.369 . S
C1350 C1354 1.531 . S
C1351 C1350 1.369 . S
C1351 C1352 1.410 . S
C1351 C1359 1.503 . S
C1352 C1351 1.410 . S
C1352 C1353 1.392 . S
C1352 C1355 1.511 . S
C1353 C1349 1.376 . S
C1353 C1352 1.392 . S
C1353 H1365 0.929 . S
C1354 C1350 1.531 . S
C1354 H1366 0.960 . S
C1354 H1367 0.962 . S
C1354 H1368 0.960 . S
C1355 C1352 1.511 . S
C1355 H1369 0.961 . S
C1355 H1370 0.961 . S
C1355 H1371 0.961 . S
C1356 C1357 1.370 . S
C1356 C1358 1.363 . S
C1356 H1372 0.931 . S
C1357 C1356 1.370 . S
C1357 C1361 1.408 . S
C1358 C1356 1.363 . S
C1358 C1359 1.370 . S
C1358 C1362 1.524 . S
C1359 C1351 1.503 . S
C1359 C1358 1.370 . S
C1359 C1360 1.403 . S
C1360 C1359 1.403 . S
C1360 C1361 1.404 . S
C1360 C1363 1.539 . S
C1361 C1357 1.408 . S
C1361 C1360 1.404 . S
C1361 H1373 0.930 . S
C1362 C1358 1.524 . S
C1362 H1374 0.956 . S
C1362 H1375 0.961 . S
C1362 H1376 0.961 . S
C1363 C1360 1.539 . S
C1363 H1377 0.958 . S
C1363 H1378 0.961 . S
C1363 H1379 0.960 . S
H1364 C1348 0.931 . S
H1365 C1353 0.929 . S
H1366 C1354 0.960 . S
H1367 C1354 0.962 . S
H1368 C1354 0.960 . S
H1369 C1355 0.961 . S
H1370 C1355 0.961 . S
H1371 C1355 0.961 . S
H1372 C1356 0.931 . S
H1373 C1361 0.930 . S
H1374 C1362 0.956 . S
H1375 C1362 0.961 . S
H1376 C1362 0.961 . S
H1377 C1363 0.958 . S
H1378 C1363 0.961 . S
H1379 C1363 0.960 . S
C1380 C1381 1.391 . S
C1380 C1382 1.394 . S
C1380 H1396 0.931 . S
C1381 C1380 1.391 . S
C1381 C1385 1.376 . S
C1382 C1380 1.394 . S
C1382 C1383 1.369 . S
C1382 C1386 1.531 . S
C1383 C1382 1.369 . S
C1383 C1384 1.410 . S
C1383 C1391 1.503 . S
C1384 C1383 1.410 . S
C1384 C1385 1.392 . S
C1384 C1387 1.511 . S
C1385 C1381 1.376 . S
C1385 C1384 1.392 . S
C1385 H1397 0.929 . S
C1386 C1382 1.531 . S
C1386 H1398 0.960 . S
C1386 H1399 0.962 . S
C1386 H1400 0.960 . S
C1387 C1384 1.511 . S
C1387 H1401 0.961 . S
C1387 H1402 0.961 . S
C1387 H1403 0.961 . S
C1388 C1389 1.370 . S
C1388 C1390 1.363 . S
C1388 H1404 0.931 . S
C1389 C1388 1.370 . S
C1389 C1393 1.408 . S
C1390 C1388 1.363 . S
C1390 C1391 1.370 . S
C1390 C1394 1.524 . S
C1391 C1383 1.503 . S
C1391 C1390 1.370 . S
C1391 C1392 1.403 . S
C1392 C1391 1.403 . S
C1392 C1393 1.404 . S
C1392 C1395 1.539 . S
C1393 C1389 1.408 . S
C1393 C1392 1.404 . S
C1393 H1405 0.930 . S
C1394 C1390 1.524 . S
C1394 H1406 0.956 . S
C1394 H1407 0.961 . S
C1394 H1408 0.961 . S
C1395 C1392 1.539 . S
C1395 H1409 0.958 . S
C1395 H1410 0.961 . S
C1395 H1411 0.960 . S
H1396 C1380 0.931 . S
H1397 C1385 0.929 . S
H1398 C1386 0.960 . S
H1399 C1386 0.962 . S
H1400 C1386 0.960 . S
H1401 C1387 0.961 . S
H1402 C1387 0.961 . S
H1403 C1387 0.961 . S
H1404 C1388 0.931 . S
H1405 C1393 0.930 . S
H1406 C1394 0.956 . S
H1407 C1394 0.961 . S
H1408 C1394 0.961 . S
H1409 C1395 0.958 . S
H1410 C1395 0.961 . S
H1411 C1395 0.960 . S
C1412 C1413 1.391 . S
C1412 C1414 1.394 . S
C1412 H1428 0.931 . S
C1413 C1412 1.391 . S
C1413 C1417 1.376 . S
C1414 C1412 1.394 . S
C1414 C1415 1.369 . S
C1414 C1418 1.531 . S
C1415 C1414 1.369 . S
C1415 C1416 1.410 . S
C1415 C1423 1.503 . S
C1416 C1415 1.410 . S
C1416 C1417 1.392 . S
C1416 C1419 1.511 . S
C1417 C1413 1.376 . S
C1417 C1416 1.392 . S
C1417 H1429 0.929 . S
C1418 C1414 1.531 . S
C1418 H1430 0.960 . S
C1418 H1431 0.962 . S
C1418 H1432 0.960 . S
C1419 C1416 1.511 . S
C1419 H1433 0.961 . S
C1419 H1434 0.961 . S
C1419 H1435 0.961 . S
C1420 C1421 1.370 . S
C1420 C1422 1.363 . S
C1420 H1436 0.931 . S
C1421 C1420 1.370 . S
C1421 C1425 1.408 . S
C1422 C1420 1.363 . S
C1422 C1423 1.370 . S
C1422 C1426 1.524 . S
C1423 C1415 1.503 . S
C1423 C1422 1.370 . S
C1423 C1424 1.403 . S
C1424 C1423 1.403 . S
C1424 C1425 1.404 . S
C1424 C1427 1.539 . S
C1425 C1421 1.408 . S
C1425 C1424 1.404 . S
C1425 H1437 0.930 . S
C1426 C1422 1.524 . S
C1426 H1438 0.956 . S
C1426 H1439 0.961 . S
C1426 H1440 0.961 . S
C1427 C1424 1.539 . S
C1427 H1441 0.958 . S
C1427 H1442 0.961 . S
C1427 H1443 0.960 . S
H1428 C1412 0.931 . S
H1429 C1417 0.929 . S
H1430 C1418 0.960 . S
H1431 C1418 0.962 . S
H1432 C1418 0.960 . S
H1433 C1419 0.961 . S
H1434 C1419 0.961 . S
H1435 C1419 0.961 . S
H1436 C1420 0.931 . S
H1437 C1425 0.930 . S
H1438 C1426 0.956 . S
H1439 C1426 0.961 . S
H1440 C1426 0.961 . S
H1441 C1427 0.958 . S
H1442 C1427 0.961 . S
H1443 C1427 0.960 . S
C1444 C1445 1.391 . S
C1444 C1446 1.394 . S
C1444 H1460 0.931 . S
C1445 C1444 1.391 . S
C1445 C1449 1.376 . S
C1446 C1444 1.394 . S
C1446 C1447 1.369 . S
C1446 C1450 1.531 . S
C1447 C1446 1.369 . S
C1447 C1448 1.410 . S
C1447 C1455 1.503 . S
C1448 C1447 1.410 . S
C1448 C1449 1.392 . S
C1448 C1451 1.511 . S
C1449 C1445 1.376 . S
C1449 C1448 1.392 . S
C1449 H1461 0.929 . S
C1450 C1446 1.531 . S
C1450 H1462 0.960 . S
C1450 H1463 0.962 . S
C1450 H1464 0.960 . S
C1451 C1448 1.511 . S
C1451 H1465 0.961 . S
C1451 H1466 0.961 . S
C1451 H1467 0.961 . S
C1452 C1453 1.370 . S
C1452 C1454 1.363 . S
C1452 H1468 0.931 . S
C1453 C1452 1.370 . S
C1453 C1457 1.408 . S
C1454 C1452 1.363 . S
C1454 C1455 1.370 . S
C1454 C1458 1.524 . S
C1455 C1447 1.503 . S
C1455 C1454 1.370 . S
C1455 C1456 1.403 . S
C1456 C1455 1.403 . S
C1456 C1457 1.404 . S
C1456 C1459 1.539 . S
C1457 C1453 1.408 . S
C1457 C1456 1.404 . S
C1457 H1469 0.930 . S
C1458 C1454 1.524 . S
C1458 H1470 0.956 . S
C1458 H1471 0.961 . S
C1458 H1472 0.961 . S
C1459 C1456 1.539 . S
C1459 H1473 0.958 . S
C1459 H1474 0.961 . S
C1459 H1475 0.960 . S
H1460 C1444 0.931 . S
H1461 C1449 0.929 . S
H1462 C1450 0.960 . S
H1463 C1450 0.962 . S
H1464 C1450 0.960 . S
H1465 C1451 0.961 . S
H1466 C1451 0.961 . S
H1467 C1451 0.961 . S
H1468 C1452 0.931 . S
H1469 C1457 0.930 . S
H1470 C1458 0.956 . S
H1471 C1458 0.961 . S
H1472 C1458 0.961 . S
H1473 C1459 0.958 . S
H1474 C1459 0.961 . S
H1475 C1459 0.960 . S
C1476 C1477 1.391 . S
C1476 C1478 1.394 . S
C1476 H1492 0.931 . S
C1477 C1476 1.391 . S
C1477 C1481 1.376 . S
C1478 C1476 1.394 . S
C1478 C1479 1.369 . S
C1478 C1482 1.531 . S
C1479 C1478 1.369 . S
C1479 C1480 1.410 . S
C1479 C1487 1.503 . S
C1480 C1479 1.410 . S
C1480 C1481 1.392 . S
C1480 C1483 1.511 . S
C1481 C1477 1.376 . S
C1481 C1480 1.392 . S
C1481 H1493 0.929 . S
C1482 C1478 1.531 . S
C1482 H1494 0.960 . S
C1482 H1495 0.962 . S
C1482 H1496 0.960 . S
C1483 C1480 1.511 . S
C1483 H1497 0.961 . S
C1483 H1498 0.961 . S
C1483 H1499 0.961 . S
C1484 C1485 1.370 . S
C1484 C1486 1.363 . S
C1484 H1500 0.931 . S
C1485 C1484 1.370 . S
C1485 C1489 1.408 . S
C1486 C1484 1.363 . S
C1486 C1487 1.370 . S
C1486 C1490 1.524 . S
C1487 C1479 1.503 . S
C1487 C1486 1.370 . S
C1487 C1488 1.403 . S
C1488 C1487 1.403 . S
C1488 C1489 1.404 . S
C1488 C1491 1.539 . S
C1489 C1485 1.408 . S
C1489 C1488 1.404 . S
C1489 H1501 0.930 . S
C1490 C1486 1.524 . S
C1490 H1502 0.956 . S
C1490 H1503 0.961 . S
C1490 H1504 0.961 . S
C1491 C1488 1.539 . S
C1491 H1505 0.958 . S
C1491 H1506 0.961 . S
C1491 H1507 0.960 . S
H1492 C1476 0.931 . S
H1493 C1481 0.929 . S
H1494 C1482 0.960 . S
H1495 C1482 0.962 . S
H1496 C1482 0.960 . S
H1497 C1483 0.961 . S
H1498 C1483 0.961 . S
H1499 C1483 0.961 . S
H1500 C1484 0.931 . S
H1501 C1489 0.930 . S
H1502 C1490 0.956 . S
H1503 C1490 0.961 . S
H1504 C1490 0.961 . S
H1505 C1491 0.958 . S
H1506 C1491 0.961 . S
H1507 C1491 0.960 . S
C1508 C1509 1.391 . S
C1508 C1510 1.394 . S
C1508 H1524 0.931 . S
C1509 C1508 1.391 . S
C1509 C1513 1.376 . S
C1510 C1508 1.394 . S
C1510 C1511 1.369 . S
C1510 C1514 1.531 . S
C1511 C1510 1.369 . S
C1511 C1512 1.410 . S
C1511 C1519 1.503 . S
C1512 C1511 1.410 . S
C1512 C1513 1.392 . S
C1512 C1515 1.511 . S
C1513 C1509 1.376 . S
C1513 C1512 1.392 . S
C1513 H1525 0.929 . S
C1514 C1510 1.531 . S
C1514 H1526 0.960 . S
C1514 H1527 0.962 . S
C1514 H1528 0.960 . S
C1515 C1512 1.511 . S
C1515 H1529 0.961 . S
C1515 H1530 0.961 . S
C1515 H1531 0.961 . S
C1516 C1517 1.370 . S
C1516 C1518 1.363 . S
C1516 H1532 0.931 1_554 S
C1517 C1516 1.370 . S
C1517 C1521 1.408 . S
C1518 C1516 1.363 . S
C1518 C1519 1.370 . S
C1518 C1522 1.524 . S
C1519 C1511 1.503 . S
C1519 C1518 1.370 . S
C1519 C1520 1.403 . S
C1520 C1519 1.403 . S
C1520 C1521 1.404 . S
C1520 C1523 1.539 . S
C1521 C1517 1.408 . S
C1521 C1520 1.404 . S
C1521 H1533 0.930 . S
C1522 C1518 1.524 . S
C1522 H1534 0.956 . S
C1522 H1535 0.961 . S
C1522 H1536 0.961 . S
C1523 C1520 1.539 . S
C1523 H1537 0.958 . S
C1523 H1538 0.961 . S
C1523 H1539 0.960 . S
H1524 C1508 0.931 . S
H1525 C1513 0.929 . S
H1526 C1514 0.960 . S
H1527 C1514 0.962 . S
H1528 C1514 0.960 . S
H1529 C1515 0.961 . S
H1530 C1515 0.961 . S
H1531 C1515 0.961 . S
H1532 C1516 0.931 1_556 S
H1533 C1521 0.930 . S
H1534 C1522 0.956 . S
H1535 C1522 0.961 . S
H1536 C1522 0.961 . S
H1537 C1523 0.958 . S
H1538 C1523 0.961 . S
H1539 C1523 0.960 . S
C1540 C1541 1.391 . S
C1540 C1542 1.394 . S
C1540 H1556 0.931 . S
C1541 C1540 1.391 . S
C1541 C1545 1.376 . S
C1542 C1540 1.394 . S
C1542 C1543 1.369 . S
C1542 C1546 1.531 . S
C1543 C1542 1.369 . S
C1543 C1544 1.410 . S
C1543 C1551 1.503 . S
C1544 C1543 1.410 . S
C1544 C1545 1.392 . S
C1544 C1547 1.511 . S
C1545 C1541 1.376 . S
C1545 C1544 1.392 . S
C1545 H1557 0.929 . S
C1546 C1542 1.531 . S
C1546 H1558 0.960 . S
C1546 H1559 0.962 . S
C1546 H1560 0.960 . S
C1547 C1544 1.511 . S
C1547 H1561 0.961 . S
C1547 H1562 0.961 . S
C1547 H1563 0.961 . S
C1548 C1549 1.370 . S
C1548 C1550 1.363 . S
C1548 H1564 0.931 . S
C1549 C1548 1.370 . S
C1549 C1553 1.408 . S
C1550 C1548 1.363 . S
C1550 C1551 1.370 . S
C1550 C1554 1.524 . S
C1551 C1543 1.503 . S
C1551 C1550 1.370 . S
C1551 C1552 1.403 . S
C1552 C1551 1.403 . S
C1552 C1553 1.404 . S
C1552 C1555 1.539 . S
C1553 C1549 1.408 . S
C1553 C1552 1.404 . S
C1553 H1565 0.930 . S
C1554 C1550 1.524 . S
C1554 H1566 0.956 . S
C1554 H1567 0.961 . S
C1554 H1568 0.961 . S
C1555 C1552 1.539 . S
C1555 H1569 0.958 . S
C1555 H1570 0.961 . S
C1555 H1571 0.960 . S
H1556 C1540 0.931 . S
H1557 C1545 0.929 . S
H1558 C1546 0.960 . S
H1559 C1546 0.962 . S
H1560 C1546 0.960 . S
H1561 C1547 0.961 . S
H1562 C1547 0.961 . S
H1563 C1547 0.961 . S
H1564 C1548 0.931 . S
H1565 C1553 0.930 . S
H1566 C1554 0.956 . S
H1567 C1554 0.961 . S
H1568 C1554 0.961 . S
H1569 C1555 0.958 . S
H1570 C1555 0.961 . S
H1571 C1555 0.960 . S
C813 C745 1.643 . S
C805 C15 1.644 . S
C837 C61 1.623 . S
C845 C305 1.646 . S
C869 C114 1.647 . S
C877 C393 1.647 . S
C901 C139 1.658 . S
C909 C472 1.643 . S
C941 C569 1.655 . S
C933 C185 1.619 . S
C965 C245 1.602 . S
C973 C648 1.660 . S
C997 C47 1.633 . S
C1005 C413 1.648 . S
C1029 C100 1.662 . S
C1037 C509 1.645 . S
C1061 C153 1.593 . S
C1069 C589 1.657 . S
C1101 C685 1.643 . S
C1093 C199 1.637 . S
C1133 C765 1.644 . S
C1125 C231 1.647 . S
C1165 C325 1.660 . S
C1157 C1 1.624 . S
C1189 C22 1.451 . S
C1197 C421 1.465 . S
C1221 C68 1.453 . S
C1229 C501 1.457 . S
C1261 C597 1.457 . S
C1253 C107 1.468 . S
C1285 C146 1.461 . S
C1293 C677 1.455 1_556 S
C1325 C773 1.461 . S
C1317 C192 1.467 . S
C1357 C333 1.457 . S
C1349 C252 1.468 . S
C1389 C736 1.459 . S
C1381 C54 1.451 . S
C1413 C93 1.464 . S
C1421 C296 1.455 . S
C1453 C384 1.463 . S
C1445 C160 1.446 . S
C1477 C206 1.459 . S
C1485 C481 1.463 . S
C1509 C238 1.451 . S
C1517 C560 1.462 1_554 S
C1541 C8 1.465 . S
C1549 C657 1.456 . S
