# Generated by pormake.
# Topology ftw, (4,12)-cn, num edge types: 1
# Building blocks:
#     Node 0, Type 0, BuildingBlock: GIZVER_clean_linker_0, # of connection points: 4
#     Node 1, Type 0, BuildingBlock: GIZVER_clean_linker_0, # of connection points: 4
#     Node 2, Type 0, BuildingBlock: GIZVER_clean_linker_0, # of connection points: 4
#     Node 3, Type 1, BuildingBlock: EZIPEK_clean_sbu_0, # of connection points: 12
#     Edge 4, Type (0, 1), BuildingBlock: AJUNOK_clean_linker_0, # of connection points: 2
#     Edge 5, Type (0, 1), BuildingBlock: AJUNOK_clean_linker_0, # of connection points: 2
#     Edge 6, Type (0, 1), BuildingBlock: AJUNOK_clean_linker_0, # of connection points: 2
#     Edge 7, Type (0, 1), BuildingBlock: AJUNOK_clean_linker_0, # of connection points: 2
#     Edge 8, Type (0, 1), BuildingBlock: AJUNOK_clean_linker_0, # of connection points: 2
#     Edge 9, Type (0, 1), BuildingBlock: AJUNOK_clean_linker_0, # of connection points: 2
#     Edge 10, Type (0, 1), BuildingBlock: AJUNOK_clean_linker_0, # of connection points: 2
#     Edge 11, Type (0, 1), BuildingBlock: AJUNOK_clean_linker_0, # of connection points: 2
#     Edge 12, Type (0, 1), BuildingBlock: AJUNOK_clean_linker_0, # of connection points: 2
#     Edge 13, Type (0, 1), BuildingBlock: AJUNOK_clean_linker_0, # of connection points: 2
#     Edge 14, Type (0, 1), BuildingBlock: AJUNOK_clean_linker_0, # of connection points: 2
#     Edge 15, Type (0, 1), BuildingBlock: AJUNOK_clean_linker_0, # of connection points: 2
# Relax obj value: 0.085
# Max RMSD: 0.239
# Mean RMSD: 0.181
data_MOF--net-ftw--node1-EZIPEK_clean_sbu_0--node2-GIZVER_clean_linker_0--edge1-AJUNOK_clean_linker_0
_symmetry_space_group_name_H-M    P1
_symmetry_Int_Tables_number       1
_symmetry_cell_setting            triclinic
loop_
_symmetry_equiv_pos_as_xyz
'x, y, z'
_cell_length_a     19.642033
_cell_length_b     18.517353
_cell_length_c     18.222845
_cell_angle_alpha  90.489778
_cell_angle_beta   89.996928
_cell_angle_gamma 90.318269
loop_
_atom_site_label
_atom_site_type_symbol
_atom_site_fract_x
_atom_site_fract_y
_atom_site_fract_z
_atom_type_partial_charge
H0 H 0.93446 0.43122 0.37564 0.0
H1 H 0.93209 0.44592 0.61033 0.0
H2 H 0.09523 0.33526 0.50216 0.0
H3 H 0.84246 0.49406 0.43996 0.0
H4 H 0.84249 0.50118 0.5385 0.0
H5 H 0.90718 0.57912 0.36585 0.0
H6 H 1.00997 0.75666 0.47135 0.0
H7 H 0.91891 0.58943 0.60192 0.0
C8 C 0.95919 0.42027 0.42744 0.0
C9 C 1.01684 0.37567 0.43 0.0
C10 C 0.93135 0.44924 0.49227 0.0
C11 C 0.95792 0.42938 0.56046 0.0
C12 C 1.01524 0.38524 0.56401 0.0
C13 C 0.0484 0.36554 0.4985 0.0
C14 C 0.87535 0.50374 0.48883 0.0
C15 C 0.90884 0.5766 0.48444 0.0
C16 C 0.92431 0.60601 0.41567 0.0
C17 C 0.96053 0.67088 0.41121 0.0
C18 C 0.98283 0.70566 0.4754 0.0
C19 C 0.96809 0.67682 0.5446 0.0
C20 C 0.93124 0.61192 0.5488 0.0
H21 H 0.46255 0.08772 0.37133 0.0
H22 H 0.46303 0.09369 0.6072 0.0
H23 H 0.30357 0.98119 0.49291 0.0
H24 H 0.53231 0.17451 0.43819 0.0
H25 H 0.53181 0.17792 0.53592 0.0
H26 H 0.61215 0.09842 0.37219 0.0
H27 H 0.77929 1.0127 0.49543 0.0
H28 H 0.60352 0.09503 0.60836 0.0
C29 C 0.4414 0.06903 0.42272 0.0
C30 C 0.37968 0.03012 0.42311 0.0
C31 C 0.47292 0.0901 0.48906 0.0
C32 C 0.44186 0.07282 0.55627 0.0
C33 C 0.38004 0.0349 0.55739 0.0
C34 C 0.35159 1.01032 0.49116 0.0
C35 C 0.53361 0.14024 0.48805 0.0
C36 C 0.59944 0.0989 0.48996 0.0
C37 C 0.63399 0.08281 0.42431 0.0
C38 C 0.69919 0.05251 0.42612 0.0
C39 C 0.72813 0.03441 0.49396 0.0
C40 C 0.69397 0.0493 0.55999 0.0
C41 C 0.62943 0.08142 0.5576 0.0
H42 H 0.61319 0.40701 0.0575 0.0
H43 H 0.60089 0.63817 0.04444 0.0
H44 H 0.78433 0.52929 0.97832 0.0
H45 H 0.53386 0.47329 0.1343 0.0
H46 H 0.53337 0.56908 0.13508 0.0
H47 H 0.46568 0.40452 0.04395 0.0
H48 H 0.28432 0.51627 0.97869 0.0
H49 H 0.46115 0.63609 0.0497 0.0
C50 C 0.63532 0.45802 0.04075 0.0
C51 C 0.70218 0.45984 0.01319 0.0
C52 C 0.59889 0.52231 0.05285 0.0
C53 C 0.62907 0.58886 0.03484 0.0
C54 C 0.6964 0.59233 0.00876 0.0
C55 C 0.73202 0.52732 -0.00282 0.0
C56 C 0.53421 0.52116 0.09777 0.0
C57 C 0.4699 0.52043 0.05212 0.0
C58 C 0.43883 0.45433 0.03334 0.0
C59 C 0.37222 0.45198 0.00505 0.0
C60 C 0.3373 0.51757 -0.00487 0.0
C61 C 0.36855 0.58478 0.01052 0.0
C62 C 0.43585 0.58534 0.03733 0.0
C63 C 0.03674 0.19854 0.81705 0.0
C64 C 0.04944 0.18942 0.17295 0.0
C65 C 1.02471 0.85481 0.80177 0.0
C66 C 1.01415 0.84412 0.15788 0.0
C67 C 0.19505 0.83871 0.98512 0.0
C68 C 0.20547 0.19313 0.98578 0.0
C69 C 0.86545 0.84956 0.98383 0.0
C70 C 0.87682 0.2045 -0.00049 0.0
C71 C 0.87493 0.0325 0.17057 0.0
C72 C 0.20126 1.01054 0.16622 0.0
C73 C 0.86817 0.02758 0.81423 0.0
C74 C 0.19812 0.02548 0.80896 0.0
Eu75 Eu 0.04007 0.15852 -0.00626 0.0
O76 O 0.10021 0.08211 0.0542 0.0
O77 O 0.97497 0.08972 0.92802 0.0
Eu78 Eu 0.16724 1.0168 -0.01227 0.0
Eu79 Eu 0.90407 0.02599 -0.00866 0.0
O80 O 0.09788 0.08426 0.92757 0.0
O81 O 0.9771 0.08597 0.05595 0.0
Eu82 Eu 0.03373 0.02466 0.85367 0.0
Eu83 Eu 0.03722 1.01716 0.12354 0.0
O84 O 0.09527 0.95609 0.92084 0.0
O85 O 0.09587 0.95188 0.04928 0.0
O86 O 0.97352 0.95729 0.04949 0.0
O87 O 0.97101 0.96091 0.92399 0.0
Eu88 Eu 0.03135 0.88346 0.98206 0.0
O89 O 0.03838 0.22164 0.88669 0.0
O90 O 0.04756 0.21602 0.10498 0.0
O91 O 1.02552 0.82778 0.86962 0.0
O92 O 1.01967 0.82089 0.08855 0.0
O93 O 0.2192 0.90648 -0.01086 0.0
O94 O 0.22617 0.12429 -0.01125 0.0
O95 O 0.84555 0.91832 -0.00734 0.0
O96 O 0.85204 0.1369 -0.00526 0.0
O97 O 0.94049 0.02895 0.18883 0.0
O98 O 0.13581 1.00714 0.18529 0.0
O99 O 0.93299 0.02514 0.7923 0.0
O100 O 0.1325 0.0278 0.79019 0.0
O101 O 0.9294 0.82683 0.97628 0.0
O102 O 0.12952 0.81942 0.98058 0.0
O103 O 0.94272 0.22238 0.00095 0.0
O104 O 0.14121 0.21575 0.98625 0.0
O105 O 0.04583 0.11964 0.18916 0.0
O106 O 1.02076 0.91207 0.18113 0.0
O107 O 0.03481 0.12984 0.79587 0.0
O108 O 1.0294 0.92432 0.78531 0.0
O109 O 0.22203 1.01887 0.87732 0.0
O110 O 0.22426 1.01551 0.09729 0.0
O111 O 0.84639 0.02961 0.88355 0.0
O112 O 0.85016 0.02935 0.10227 0.0
C113 C 1.02931 0.35841 0.29235 0.0
C114 C 0.0369 0.33138 0.36416 0.0
C115 C 0.03656 0.31348 0.23011 0.0
C116 C 0.05244 0.23983 0.23712 0.0
H117 H 1.01561 0.41429 0.28399 0.0
H118 H 1.02697 0.33608 0.1765 0.0
S119 S 0.08521 0.14302 0.41173 0.0
N120 N 0.06471 0.22557 0.43695 0.0
N121 N 0.08304 0.144 0.32151 0.0
C122 C 0.06511 0.21352 0.30819 0.0
C123 C 0.05627 0.25846 0.37121 0.0
C124 C 0.72144 1.01032 0.29637 0.0
C125 C 0.74161 0.05016 0.35891 0.0
C126 C 0.76359 1.00646 0.23391 0.0
C127 C 0.82702 0.04226 0.2325 0.0
H128 H 0.67374 0.98068 0.29649 0.0
H129 H 0.74759 0.97338 0.18768 0.0
S130 S 0.89679 0.16339 0.37779 0.0
N131 N 0.82469 0.13264 0.4122 0.0
N132 N 0.90376 0.12543 0.29588 0.0
C133 C 0.84575 0.08504 0.29348 0.0
C134 C 0.80308 0.08897 0.35643 0.0
C135 C 1.0169 0.68642 0.28888 0.0
C136 C 0.96785 0.70802 0.34072 0.0
C137 C 1.02966 0.72839 0.2263 0.0
C138 C 0.99373 0.79276 0.21488 0.0
H139 H 0.04732 0.63878 0.2984 0.0
H140 H 0.06997 0.71258 0.18901 0.0
S141 S 0.85412 0.86618 0.33014 0.0
N142 N 0.87918 0.793 0.37337 0.0
N143 N 0.90238 0.8715 0.25616 0.0
C144 C 0.94181 0.81196 0.2643 0.0
C145 C 0.92907 0.76963 0.32734 0.0
C146 C 0.26722 0.03561 0.36 0.0
C147 C 0.33743 1.02194 0.35518 0.0
C148 C 0.22485 0.02997 0.29901 0.0
C149 C 0.25022 1.01299 0.22877 0.0
H150 H 0.24418 0.05207 0.41144 0.0
H151 H 0.17136 0.04015 0.30754 0.0
S152 S 0.43051 0.97181 0.18489 0.0
N153 N 0.43082 0.98838 0.27414 0.0
N154 N 0.35092 0.98203 0.15765 0.0
C155 C 0.32058 0.99997 0.22219 0.0
C156 C 0.36412 1.00381 0.28554 0.0
C157 C 0.96673 0.79244 0.61411 0.0
C158 C 0.9847 0.71928 0.61159 0.0
C159 C 0.98069 0.83503 0.67567 0.0
C160 C 1.01245 0.8063 0.73817 0.0
H161 H 0.94082 0.81706 0.56824 0.0
H162 H 0.96535 0.8911 0.67426 0.0
S163 S 0.07712 0.62002 0.75627 0.0
N164 N 0.04101 0.6208 0.67435 0.0
N165 N 0.06615 0.70146 0.79176 0.0
C166 C 0.03174 0.73344 0.73633 0.0
C167 C 1.01803 0.68978 0.67273 0.0
C168 C 0.35436 0.9971 0.68747 0.0
C169 C 0.33686 0.0356 0.62407 0.0
C170 C 0.31026 0.99535 0.74853 0.0
C171 C 0.24753 0.03205 0.7477 0.0
H172 H 0.40139 0.96689 0.6891 0.0
H173 H 0.32438 0.96342 0.79562 0.0
S174 S 0.18422 0.14934 0.59829 0.0
N175 N 0.25675 0.11695 0.56687 0.0
N176 N 0.17445 0.11426 0.6806 0.0
C177 C 0.23158 0.07346 0.68564 0.0
C178 C 0.27612 0.07511 0.62412 0.0
C179 C 1.0304 0.26773 0.62347 0.0
C180 C 1.02842 0.343 0.63123 0.0
C181 C 0.03434 0.22301 0.68372 0.0
C182 C 0.0359 0.25084 0.75587 0.0
H183 H 1.02561 0.24219 0.57021 0.0
H184 H 0.03438 0.1655 0.6725 0.0
S185 S 1.0302 0.44477 0.80744 0.0
N186 N 1.02759 0.4446 0.71674 0.0
N187 N 0.0347 0.35934 0.83205 0.0
C188 C 0.03423 0.32633 0.76525 0.0
C189 C 1.03024 0.37258 0.70269 0.0
C190 C 0.73974 0.09877 0.67867 0.0
C191 C 0.73005 0.03945 0.6308 0.0
C192 C 0.78233 0.09368 0.74032 0.0
C193 C 0.81644 0.02916 0.75589 0.0
H194 H 0.71682 0.15038 0.6665 0.0
H195 H 0.79084 0.14125 0.77423 0.0
S196 S 0.79959 0.85554 0.65508 0.0
N197 N 0.7522 0.91226 0.60807 0.0
N198 N 0.83197 0.90285 0.72416 0.0
C199 C 0.80423 0.96852 0.71111 0.0
C200 C 0.76104 0.97361 0.64845 0.0
C201 C 0.34278 0.32533 0.04511 0.0
C202 C 0.3366 0.3811 -0.00692 0.0
C203 C 0.30387 0.2615 0.03963 0.0
C204 C 0.25688 0.25149 0.98241 0.0
H205 H 0.3754 0.33234 0.09256 0.0
H206 H 0.30761 0.22181 0.08278 0.0
S207 S 0.22707 0.37507 0.82686 0.0
N208 N 0.28502 0.41698 0.87753 0.0
N209 N 0.20999 0.29877 0.86953 0.0
C210 C 0.25244 0.30475 0.92823 0.0
C211 C 0.2927 0.36907 0.93298 0.0
C212 C 0.28426 0.66184 0.94237 0.0
C213 C 0.32885 0.65338 0.00242 0.0
C214 C 0.24235 0.72277 0.9362 0.0
C215 C 0.2445 0.77875 -0.01128 0.0
H216 H 0.28095 0.62052 0.90007 0.0
H217 H 0.2076 0.7259 0.89015 0.0
S218 S 0.34891 0.78336 0.15789 0.0
N219 N 0.36932 0.7063 0.11751 0.0
N220 N 0.29327 0.82209 0.10312 0.0
C221 C 0.28948 0.77227 0.04806 0.0
C222 C 0.33105 0.70944 0.05552 0.0
C223 C 0.80962 0.39282 0.0405 0.0
C224 C 0.74403 0.39263 0.00954 0.0
C225 C 0.8509 0.3314 0.03801 0.0
C226 C 0.82868 0.26645 0.0046 0.0
H227 H 0.8293 0.44092 0.06751 0.0
H228 H 0.90094 0.33512 0.06281 0.0
S229 S 0.66128 0.23732 0.9143 0.0
N230 N 0.65862 0.32188 0.94383 0.0
N231 N 0.73627 0.20599 0.93945 0.0
C232 C 0.76274 0.26492 0.97424 0.0
C233 C 0.72051 0.32796 0.97664 0.0
C234 C 0.7746 0.67418 0.93778 0.0
C235 C 0.73199 0.66336 -0.00104 0.0
C236 C 0.81496 0.73662 0.93142 0.0
C237 C 0.81344 0.79151 0.98521 0.0
H238 H 0.77821 0.63313 0.89527 0.0
H239 H 0.84907 0.74117 0.8849 0.0
S240 S 0.71209 0.79067 0.15648 0.0
N241 N 0.69205 0.71365 0.11524 0.0
N242 N 0.76617 0.83184 0.10126 0.0
C243 C 0.76951 0.78309 0.04522 0.0
C244 C 0.72916 0.7189 0.05256 0.0
loop_
_geom_bond_atom_site_label_1
_geom_bond_atom_site_label_2
_geom_bond_distance
_geom_bond_site_symmetry_2
_ccdc_geom_bond_type
H0 C8 0.930 . S
H1 C11 0.930 . S
H2 C13 0.930 . S
H3 C14 0.970 . S
H4 C14 0.970 . S
H5 C16 0.930 . S
H6 C18 0.930 . S
H7 C20 0.930 . S
C8 H0 0.930 . S
C8 C9 1.382 . S
C8 C10 1.426 . S
C9 C8 1.382 . S
C9 C13 1.389 1_655 S
C10 C8 1.426 . S
C10 C11 1.375 . S
C10 C14 1.532 . S
C11 H1 0.930 . S
C11 C10 1.375 . S
C11 C12 1.416 . S
C12 C11 1.416 . S
C12 C13 1.371 1_655 S
C13 H2 0.930 . S
C13 C9 1.389 1_455 S
C13 C12 1.371 1_455 S
C14 H3 0.970 . S
C14 H4 0.970 . S
C14 C10 1.532 . S
C14 C15 1.499 . S
C15 C14 1.499 . S
C15 C16 1.370 . S
C15 C20 1.415 . S
C16 H5 0.930 . S
C16 C15 1.370 . S
C16 C17 1.407 . S
C17 C16 1.407 . S
C17 C18 1.365 1_655 S
C18 H6 0.930 . S
C18 C17 1.365 1_455 S
C18 C19 1.393 1_455 S
C19 C18 1.393 1_655 S
C19 C20 1.387 . S
C20 H7 0.930 . S
C20 C15 1.415 . S
C20 C19 1.387 . S
H21 C29 0.930 . S
H22 C32 0.930 . S
H23 C34 0.930 . S
H24 C35 0.970 . S
H25 C35 0.970 . S
H26 C37 0.930 . S
H27 C39 0.930 . S
H28 C41 0.930 . S
C29 H21 0.930 . S
C29 C30 1.382 . S
C29 C31 1.426 . S
C30 C29 1.382 . S
C30 C34 1.389 1_545 S
C31 C29 1.426 . S
C31 C32 1.375 . S
C31 C35 1.532 . S
C32 H22 0.930 . S
C32 C31 1.375 . S
C32 C33 1.416 . S
C33 C32 1.416 . S
C33 C34 1.371 1_545 S
C34 H23 0.930 . S
C34 C30 1.389 1_565 S
C34 C33 1.371 1_565 S
C35 H24 0.970 . S
C35 H25 0.970 . S
C35 C31 1.532 . S
C35 C36 1.499 . S
C36 C35 1.499 . S
C36 C37 1.370 . S
C36 C41 1.415 . S
C37 H26 0.930 . S
C37 C36 1.370 . S
C37 C38 1.407 . S
C38 C37 1.407 . S
C38 C39 1.365 1_545 S
C39 H27 0.930 . S
C39 C38 1.365 1_565 S
C39 C40 1.393 1_565 S
C40 C39 1.393 1_545 S
C40 C41 1.387 . S
C41 H28 0.930 . S
C41 C36 1.415 . S
C41 C40 1.387 . S
H42 C50 0.930 . S
H43 C53 0.930 . S
H44 C55 0.930 . S
H45 C56 0.970 . S
H46 C56 0.970 . S
H47 C58 0.930 . S
H48 C60 0.930 . S
H49 C62 0.930 . S
C50 H42 0.930 . S
C50 C51 1.382 . S
C50 C52 1.426 . S
C51 C50 1.382 . S
C51 C55 1.389 1_554 S
C52 C50 1.426 . S
C52 C53 1.375 . S
C52 C56 1.532 . S
C53 H43 0.930 . S
C53 C52 1.375 . S
C53 C54 1.416 . S
C54 C53 1.416 . S
C54 C55 1.371 1_554 S
C55 H44 0.930 . S
C55 C51 1.389 1_556 S
C55 C54 1.371 1_556 S
C56 H45 0.970 . S
C56 H46 0.970 . S
C56 C52 1.532 . S
C56 C57 1.499 . S
C57 C56 1.499 . S
C57 C58 1.370 . S
C57 C62 1.415 . S
C58 H47 0.930 . S
C58 C57 1.370 . S
C58 C59 1.407 . S
C59 C58 1.407 . S
C59 C60 1.365 1_554 S
C60 H48 0.930 . S
C60 C59 1.365 1_556 S
C60 C61 1.393 1_556 S
C61 C60 1.393 1_554 S
C61 C62 1.387 . S
C62 H49 0.930 . S
C62 C57 1.415 . S
C62 C61 1.387 . S
C63 O89 1.283 . S
C63 O107 1.283 . S
C64 O90 1.283 . S
C64 O105 1.283 1_455 S
C65 O91 1.283 1_455 S
C65 O108 1.283 . S
C66 O92 1.283 . S
C66 O106 1.283 . S
C67 O93 1.283 . S
C67 O102 1.283 . S
C68 O94 1.283 . S
C68 O104 1.283 . S
C69 O95 1.283 . S
C69 O101 1.283 . S
C70 O96 1.283 . S
C70 O103 1.283 . S
C71 O97 1.283 . S
C71 O112 1.283 . S
C72 O98 1.283 . S
C72 O110 1.283 . S
C73 O99 1.283 . S
C73 O111 1.283 . S
C74 O100 1.283 . S
C74 O109 1.283 . S
Eu75 O76 2.375 . S
Eu75 O77 2.365 1_454 S
Eu75 O80 2.375 1_554 S
Eu75 O81 2.365 1_455 S
Eu75 O89 2.363 1_554 S
Eu75 O90 2.363 . S
Eu75 O103 2.354 1_455 S
Eu75 O104 2.372 . S
O76 Eu75 2.375 . S
O76 Eu78 2.370 . S
O76 Eu83 2.367 1_455 S
O77 Eu75 2.365 1_656 S
O77 Eu79 2.370 1_556 S
O77 Eu82 2.364 1_655 S
Eu78 O76 2.370 . S
Eu78 O80 2.370 1_554 S
Eu78 O84 2.370 1_544 S
Eu78 O85 2.370 1_545 S
Eu78 O93 2.363 1_545 S
Eu78 O94 2.363 . S
Eu78 O109 2.363 1_554 S
Eu78 O110 2.363 . S
Eu79 O77 2.370 1_554 S
Eu79 O81 2.370 . S
Eu79 O86 2.370 1_545 S
Eu79 O87 2.370 1_544 S
Eu79 O95 2.363 1_545 S
Eu79 O96 2.363 . S
Eu79 O111 2.363 1_554 S
Eu79 O112 2.363 . S
O80 Eu75 2.375 1_556 S
O80 Eu78 2.370 1_556 S
O80 Eu82 2.376 . S
O81 Eu75 2.365 1_655 S
O81 Eu79 2.370 . S
O81 Eu83 2.373 . S
Eu82 O77 2.364 1_455 S
Eu82 O80 2.376 . S
Eu82 O84 2.376 1_545 S
Eu82 O87 2.364 1_445 S
Eu82 O99 2.353 1_455 S
Eu82 O100 2.373 . S
Eu82 O107 2.363 . S
Eu82 O108 2.363 1_545 S
Eu83 O76 2.367 1_655 S
Eu83 O81 2.373 . S
Eu83 O85 2.367 1_645 S
Eu83 O86 2.373 1_545 S
Eu83 O97 2.368 . S
Eu83 O98 2.358 1_655 S
Eu83 O105 2.363 . S
Eu83 O106 2.363 1_545 S
O84 Eu78 2.370 1_566 S
O84 Eu82 2.376 1_565 S
O84 Eu88 2.368 1_456 S
O85 Eu78 2.370 1_565 S
O85 Eu83 2.367 1_465 S
O85 Eu88 2.368 1_455 S
O86 Eu79 2.370 1_565 S
O86 Eu83 2.373 1_565 S
O86 Eu88 2.372 . S
O87 Eu79 2.370 1_566 S
O87 Eu82 2.364 1_665 S
O87 Eu88 2.372 1_556 S
Eu88 O84 2.368 1_654 S
Eu88 O85 2.368 1_655 S
Eu88 O86 2.372 . S
Eu88 O87 2.372 1_554 S
Eu88 O91 2.363 1_554 S
Eu88 O92 2.363 . S
Eu88 O101 2.367 . S
Eu88 O102 2.359 1_655 S
O89 C63 1.283 . S
O89 Eu75 2.363 1_556 S
O90 C64 1.283 . S
O90 Eu75 2.363 . S
O91 C65 1.283 1_655 S
O91 Eu88 2.363 1_556 S
O92 C66 1.283 . S
O92 Eu88 2.363 . S
O93 C67 1.283 . S
O93 Eu78 2.363 1_565 S
O94 C68 1.283 . S
O94 Eu78 2.363 . S
O95 C69 1.283 . S
O95 Eu79 2.363 1_565 S
O96 C70 1.283 . S
O96 Eu79 2.363 . S
O97 C71 1.283 . S
O97 Eu83 2.368 . S
O98 C72 1.283 . S
O98 Eu83 2.358 1_455 S
O99 C73 1.283 . S
O99 Eu82 2.353 1_655 S
O100 C74 1.283 . S
O100 Eu82 2.373 . S
O101 C69 1.283 . S
O101 Eu88 2.367 . S
O102 C67 1.283 . S
O102 Eu88 2.359 1_455 S
O103 C70 1.283 . S
O103 Eu75 2.354 1_655 S
O104 C68 1.283 . S
O104 Eu75 2.372 . S
O105 C64 1.283 1_655 S
O105 Eu83 2.363 . S
O106 C66 1.283 . S
O106 Eu83 2.363 1_565 S
O107 C63 1.283 . S
O107 Eu82 2.363 . S
O108 C65 1.283 . S
O108 Eu82 2.363 1_565 S
O109 C74 1.283 . S
O109 Eu78 2.363 1_556 S
O110 C72 1.283 . S
O110 Eu78 2.363 . S
O111 C73 1.283 . S
O111 Eu79 2.363 1_556 S
O112 C71 1.283 . S
O112 Eu79 2.363 . S
C113 C114 1.369 . S
C113 C115 1.419 . S
C113 H117 0.930 . S
C114 C113 1.369 . S
C114 C123 1.429 1_655 S
C115 C113 1.419 . S
C115 C116 1.364 . S
C115 H118 0.929 . S
C116 C115 1.364 . S
C116 C122 1.427 1_655 S
H117 C113 0.930 . S
H118 C115 0.929 . S
S119 N120 1.613 . S
S119 N121 1.610 . S
N120 S119 1.613 . S
N120 C123 1.350 . S
N121 S119 1.610 . S
N121 C122 1.351 . S
C122 C116 1.427 1_455 S
C122 N121 1.351 . S
C122 C123 1.434 . S
C123 C114 1.429 1_455 S
C123 N120 1.350 . S
C123 C122 1.434 . S
C124 C125 1.372 . S
C124 C126 1.419 . S
C124 H128 0.930 . S
C125 C124 1.372 . S
C125 C134 1.426 1_565 S
C126 C124 1.419 . S
C126 C127 1.363 1_565 S
C126 H129 0.929 . S
C127 C126 1.363 1_545 S
C127 C133 1.428 . S
H128 C124 0.930 . S
H129 C126 0.929 . S
S130 N131 1.613 . S
S130 N132 1.610 . S
N131 S130 1.613 . S
N131 C134 1.350 . S
N132 S130 1.610 . S
N132 C133 1.351 . S
C133 C127 1.428 . S
C133 N132 1.351 . S
C133 C134 1.434 . S
C134 C125 1.426 1_545 S
C134 N131 1.350 . S
C134 C133 1.434 . S
C135 C136 1.369 . S
C135 C137 1.419 . S
C135 H139 0.930 . S
C136 C135 1.369 . S
C136 C145 1.429 1_455 S
C137 C135 1.419 . S
C137 C138 1.349 1_455 S
C137 H140 0.929 . S
C138 C137 1.349 1_655 S
C138 C144 1.442 . S
H139 C135 0.930 . S
H140 C137 0.929 . S
S141 N142 1.613 . S
S141 N143 1.610 . S
N142 S141 1.613 . S
N142 C145 1.350 . S
N143 S141 1.610 . S
N143 C144 1.351 . S
C144 C138 1.442 . S
C144 N143 1.351 . S
C144 C145 1.434 . S
C145 C136 1.429 1_655 S
C145 N142 1.350 . S
C145 C144 1.434 . S
C146 C147 1.369 . S
C146 C148 1.419 . S
C146 H150 0.930 . S
C147 C146 1.369 . S
C147 C156 1.429 . S
C148 C146 1.419 . S
C148 C149 1.363 . S
C148 H151 0.929 . S
C149 C148 1.363 . S
C149 C155 1.428 . S
H150 C146 0.930 . S
H151 C148 0.929 . S
S152 N153 1.613 . S
S152 N154 1.610 . S
N153 S152 1.613 . S
N153 C156 1.350 . S
N154 S152 1.610 . S
N154 C155 1.351 . S
C155 C149 1.428 . S
C155 N154 1.351 . S
C155 C156 1.434 . S
C156 C147 1.429 . S
C156 N153 1.350 . S
C156 C155 1.434 . S
C157 C158 1.369 . S
C157 C159 1.419 . S
C157 H161 0.930 . S
C158 C157 1.369 . S
C158 C167 1.429 1_655 S
C159 C157 1.419 . S
C159 C160 1.364 . S
C159 H162 0.929 . S
C160 C159 1.364 . S
C160 C166 1.428 1_655 S
H161 C157 0.930 . S
H162 C159 0.929 . S
S163 N164 1.613 . S
S163 N165 1.610 . S
N164 S163 1.613 . S
N164 C167 1.350 . S
N165 S163 1.610 . S
N165 C166 1.351 . S
C166 C160 1.428 1_455 S
C166 N165 1.351 . S
C166 C167 1.434 . S
C167 C158 1.429 1_455 S
C167 N164 1.350 . S
C167 C166 1.434 . S
C168 C169 1.369 . S
C168 C170 1.418 1_565 S
C168 H172 0.930 . S
C169 C168 1.369 . S
C169 C178 1.428 1_565 S
C170 C168 1.418 1_545 S
C170 C171 1.363 . S
C170 H173 0.929 . S
C171 C170 1.363 . S
C171 C177 1.428 . S
H172 C168 0.930 . S
H173 C170 0.929 . S
S174 N175 1.613 . S
S174 N176 1.610 . S
N175 S174 1.613 . S
N175 C178 1.350 . S
N176 S174 1.610 . S
N176 C177 1.351 . S
C177 C171 1.428 . S
C177 N176 1.351 . S
C177 C178 1.434 . S
C178 C169 1.428 1_545 S
C178 N175 1.350 . S
C178 C177 1.434 . S
C179 C180 1.369 . S
C179 C181 1.419 . S
C179 H183 0.930 . S
C180 C179 1.369 . S
C180 C189 1.429 1_455 S
C181 C179 1.419 . S
C181 C182 1.363 . S
C181 H184 0.929 . S
C182 C181 1.363 . S
C182 C188 1.428 1_455 S
H183 C179 0.930 . S
H184 C181 0.929 . S
S185 N186 1.613 . S
S185 N187 1.610 . S
N186 S185 1.613 . S
N186 C189 1.350 . S
N187 S185 1.610 . S
N187 C188 1.351 . S
C188 C182 1.428 1_655 S
C188 N187 1.351 . S
C188 C189 1.434 . S
C189 C180 1.429 1_655 S
C189 N186 1.350 . S
C189 C188 1.434 . S
C190 C191 1.369 . S
C190 C192 1.419 . S
C190 H194 0.930 . S
C191 C190 1.369 . S
C191 C200 1.429 1_545 S
C192 C190 1.419 . S
C192 C193 1.363 . S
C192 H195 0.929 . S
C193 C192 1.363 . S
C193 C199 1.428 1_545 S
H194 C190 0.930 . S
H195 C192 0.929 . S
S196 N197 1.613 . S
S196 N198 1.610 . S
N197 S196 1.613 . S
N197 C200 1.350 . S
N198 S196 1.610 . S
N198 C199 1.351 . S
C199 C193 1.428 1_565 S
C199 N198 1.351 . S
C199 C200 1.434 . S
C200 C191 1.429 1_565 S
C200 N197 1.350 . S
C200 C199 1.434 . S
C201 C202 1.369 1_554 S
C201 C203 1.419 . S
C201 H205 0.930 . S
C202 C201 1.369 1_556 S
C202 C211 1.429 . S
C203 C201 1.419 . S
C203 C204 1.366 . S
C203 H206 0.929 . S
C204 C203 1.366 . S
C204 C210 1.425 1_554 S
H205 C201 0.930 . S
H206 C203 0.929 . S
S207 N208 1.613 . S
S207 N209 1.610 . S
N208 S207 1.613 . S
N208 C211 1.350 . S
N209 S207 1.610 . S
N209 C210 1.351 . S
C210 C204 1.425 1_556 S
C210 N209 1.351 . S
C210 C211 1.434 . S
C211 C202 1.429 . S
C211 N208 1.350 . S
C211 C210 1.434 . S
C212 C213 1.369 1_556 S
C212 C214 1.419 . S
C212 H216 0.930 . S
C213 C212 1.369 1_554 S
C213 C222 1.429 . S
C214 C212 1.419 . S
C214 C215 1.363 1_556 S
C214 H217 0.929 . S
C215 C214 1.363 1_554 S
C215 C221 1.428 . S
H216 C212 0.930 . S
H217 C214 0.929 . S
S218 N219 1.613 . S
S218 N220 1.610 . S
N219 S218 1.613 . S
N219 C222 1.350 . S
N220 S218 1.610 . S
N220 C221 1.351 . S
C221 C215 1.428 . S
C221 N220 1.351 . S
C221 C222 1.434 . S
C222 C213 1.429 . S
C222 N219 1.350 . S
C222 C221 1.434 . S
C223 C224 1.369 . S
C223 C225 1.419 . S
C223 H227 0.930 . S
C224 C223 1.369 . S
C224 C233 1.429 . S
C225 C223 1.419 . S
C225 C226 1.363 . S
C225 H228 0.929 . S
C226 C225 1.363 . S
C226 C232 1.428 . S
H227 C223 0.930 . S
H228 C225 0.929 . S
S229 N230 1.613 . S
S229 N231 1.610 . S
N230 S229 1.613 . S
N230 C233 1.350 . S
N231 S229 1.610 . S
N231 C232 1.351 . S
C232 C226 1.428 . S
C232 N231 1.351 . S
C232 C233 1.434 . S
C233 C224 1.429 . S
C233 N230 1.350 . S
C233 C232 1.434 . S
C234 C235 1.375 . S
C234 C236 1.419 . S
C234 H238 0.930 . S
C235 C234 1.375 . S
C235 C244 1.423 1_556 S
C236 C234 1.419 . S
C236 C237 1.363 1_556 S
C236 H239 0.929 . S
C237 C236 1.363 1_554 S
C237 C243 1.428 . S
H238 C234 0.930 . S
H239 C236 0.929 . S
S240 N241 1.613 . S
S240 N242 1.610 . S
N241 S240 1.613 . S
N241 C244 1.350 . S
N242 S240 1.610 . S
N242 C243 1.351 . S
C243 C237 1.428 . S
C243 N242 1.351 . S
C243 C244 1.434 . S
C244 C235 1.423 1_554 S
C244 N241 1.350 . S
C244 C243 1.434 . S
C116 C64 1.289 1_655 S
C114 C9 1.272 . S
C127 C71 1.561 . S
C125 C38 1.501 1_565 S
C138 C66 1.304 . S
C136 C17 1.269 1_455 S
C149 C72 1.543 . S
C147 C30 1.506 . S
C158 C19 1.274 . S
C160 C65 1.284 1_655 S
C171 C74 1.558 . S
C169 C33 1.488 1_565 S
C180 C12 1.268 1_455 S
C182 C63 1.303 . S
C191 C40 1.506 . S
C193 C73 1.535 . S
C202 C59 1.814 1_556 S
C204 C68 1.856 . S
C213 C61 1.811 . S
C215 C67 1.831 . S
C226 C70 1.840 . S
C224 C51 1.812 . S
C237 C69 1.856 . S
C235 C54 1.799 1_556 S
