# Generated by pormake.
# Topology rtl, (3,6)-cn, num edge types: 1
# Building blocks:
#     Node 0, Type 0, BuildingBlock: ESEHIV_clean_linker_0, # of connection points: 3
#     Node 1, Type 0, BuildingBlock: ESEHIV_clean_linker_0, # of connection points: 3
#     Node 2, Type 0, BuildingBlock: ESEHIV_clean_linker_0, # of connection points: 3
#     Node 3, Type 0, BuildingBlock: ESEHIV_clean_linker_0, # of connection points: 3
#     Node 4, Type 1, BuildingBlock: LEVNOQ01_clean_sbu_1, # of connection points: 6
#     Node 5, Type 1, BuildingBlock: LEVNOQ01_clean_sbu_1, # of connection points: 6
#     Edge 6, Type (0, 1), BuildingBlock: XUDNAN_clean_linker_2, # of connection points: 2
#     Edge 7, Type (0, 1), BuildingBlock: XUDNAN_clean_linker_2, # of connection points: 2
#     Edge 8, Type (0, 1), BuildingBlock: XUDNAN_clean_linker_2, # of connection points: 2
#     Edge 9, Type (0, 1), BuildingBlock: XUDNAN_clean_linker_2, # of connection points: 2
#     Edge 10, Type (0, 1), BuildingBlock: XUDNAN_clean_linker_2, # of connection points: 2
#     Edge 11, Type (0, 1), BuildingBlock: XUDNAN_clean_linker_2, # of connection points: 2
#     Edge 12, Type (0, 1), BuildingBlock: XUDNAN_clean_linker_2, # of connection points: 2
#     Edge 13, Type (0, 1), BuildingBlock: XUDNAN_clean_linker_2, # of connection points: 2
#     Edge 14, Type (0, 1), BuildingBlock: XUDNAN_clean_linker_2, # of connection points: 2
#     Edge 15, Type (0, 1), BuildingBlock: XUDNAN_clean_linker_2, # of connection points: 2
#     Edge 16, Type (0, 1), BuildingBlock: XUDNAN_clean_linker_2, # of connection points: 2
#     Edge 17, Type (0, 1), BuildingBlock: XUDNAN_clean_linker_2, # of connection points: 2
# Relax obj value: 0.026
# Max RMSD: 0.059
# Mean RMSD: 0.045
data_MOF--net-rtl--node1-LEVNOQ01_clean_sbu_1--node2-ESEHIV_clean_linker_0--edge1-XUDNAN_clean_linker_2
_symmetry_space_group_name_H-M    P1
_symmetry_Int_Tables_number       1
_symmetry_cell_setting            triclinic
loop_
_symmetry_equiv_pos_as_xyz
'x, y, z'
_cell_length_a     28.953418
_cell_length_b     32.953393
_cell_length_c     22.832046
_cell_angle_alpha  89.698374
_cell_angle_beta   98.901715
_cell_angle_gamma 90.547858
loop_
_atom_site_label
_atom_site_type_symbol
_atom_site_fract_x
_atom_site_fract_y
_atom_site_fract_z
_atom_type_partial_charge
H0 H 0.20656 0.93177 0.08001 0.0
H1 H 0.28758 0.85772 0.2136 0.0
H2 H 0.28031 0.82827 0.0293 0.0
C3 C 0.22977 0.90643 0.09206 0.0
C4 C 0.24217 0.88147 0.04739 0.0
C5 C 0.24569 0.89806 0.15224 0.0
C6 C 0.27583 0.86516 0.16742 0.0
C7 C 0.28805 0.8399 0.12321 0.0
C8 C 0.27094 0.84799 0.0634 0.0
H9 H 0.67737 0.61125 0.55091 0.0
H10 H 0.79533 0.67229 0.49379 0.0
H11 H 0.77232 0.68362 0.67323 0.0
C12 C 0.70845 0.63011 0.56034 0.0
C13 C 0.72121 0.64664 0.61756 0.0
C14 C 0.73542 0.63866 0.51512 0.0
C15 C 0.7753 0.66375 0.52836 0.0
C16 C 0.78855 0.67988 0.58507 0.0
C17 C 0.76162 0.67113 0.62933 0.0
H18 H 0.80336 0.08236 0.03559 0.0
H19 H 0.71678 0.17732 0.0853 0.0
H20 H 0.71286 0.14797 0.90122 0.0
C21 C 0.77728 0.10554 0.02345 0.0
C22 C 0.7601 0.11266 0.96319 0.0
C23 C 0.76054 0.12795 0.0679 0.0
C24 C 0.72742 0.15839 0.0512 0.0
C25 C 0.70971 0.16592 0.99123 0.0
C26 C 0.72579 0.14231 0.94762 0.0
H27 H 0.3312 0.41121 0.53818 0.0
H28 H 0.22939 0.31995 0.56308 0.0
H29 H 0.26554 0.33998 0.38968 0.0
C30 C 0.30712 0.38749 0.51992 0.0
C31 C 0.30245 0.37806 0.45921 0.0
C32 C 0.28179 0.36623 0.55797 0.0
C33 C 0.2489 0.33696 0.53411 0.0
C34 C 0.24232 0.32824 0.47325 0.0
C35 C 0.26921 0.34854 0.43593 0.0
O36 O 0.98971 0.08345 0.67976 0.0
Mg37 Mg 0.05304 0.08357 0.64676 0.0
O38 O 0.95821 0.03302 0.62264 0.0
Mg39 Mg 0.01056 0.01681 0.55651 0.0
O40 O 0.04461 0.08047 0.55697 0.0
O41 O 0.07549 0.13446 0.60819 0.0
O42 O 0.06272 0.00057 0.49301 0.0
O43 O 0.95732 0.04804 0.47795 0.0
Mg44 Mg 0.96198 0.97216 0.47648 0.0
O45 O 0.98021 0.94893 0.56007 0.0
O46 O 0.01185 0.97958 0.41791 0.0
O47 O 0.89965 0.00451 0.46137 0.0
O48 O 0.94741 0.9129 0.4803 0.0
C49 C 0.09659 0.00365 0.67626 0.0
C50 C 0.95674 0.05827 0.66471 0.0
C51 C 0.06377 0.11629 0.55809 0.0
C52 C 0.05339 0.98931 0.43925 0.0
C53 C 0.91521 0.03973 0.45517 0.0
C54 C 0.96263 0.91518 0.53623 0.0
O55 O 0.10202 0.04134 0.68593 0.0
O56 O 0.06518 0.99059 0.63481 0.0
O57 O 0.61977 0.52231 0.09027 0.0
Mg58 Mg 0.56714 0.47819 0.09202 0.0
O59 O 0.55448 0.5477 0.10798 0.0
Mg60 Mg 0.5015 0.51048 0.03435 0.0
O61 O 0.54115 0.44832 0.01669 0.0
O62 O 0.59466 0.42288 0.08949 0.0
O63 O 0.44703 0.47474 0.96367 0.0
O64 O 0.54149 0.53964 0.96196 0.0
Mg65 Mg 0.43946 0.55871 0.95941 0.0
O66 O 0.45734 0.56898 0.04892 0.0
O67 O 0.38853 0.51511 0.9324 0.0
O68 O 0.48827 0.57482 0.90395 0.0
O69 O 0.40863 0.60767 0.98566 0.0
C70 C 0.48758 0.47566 0.15978 0.0
C71 C 0.59909 0.54887 0.11576 0.0
C72 C 0.5692 0.41938 0.03828 0.0
C73 C 0.40607 0.48027 0.93504 0.0
C74 C 0.52968 0.56224 0.9167 0.0
C75 C 0.42928 0.59981 0.03859 0.0
O76 O 0.53175 0.47686 0.16679 0.0
O77 O 0.46461 0.48191 0.10839 0.0
H78 H 0.25901 0.24814 0.48336 0.0
H79 H 0.1522 0.33502 0.41855 0.0
H80 H 0.09304 0.27971 0.40413 0.0
H81 H 0.20335 0.15588 0.39138 0.0
H82 H 0.22189 0.12269 0.4534 0.0
H83 H 0.25742 0.16602 0.43997 0.0
H84 H 0.25562 0.19137 0.54689 0.0
H85 H 0.22072 0.14831 0.56056 0.0
H86 H 0.19997 0.19874 0.57131 0.0
H87 H 0.04411 0.22062 0.42383 0.0
H88 H 0.01108 0.16554 0.47897 0.0
H89 H 0.14881 0.11513 0.5276 0.0
C90 C 0.22354 0.25485 0.46317 0.0
C91 C 0.2099 0.29523 0.45077 0.0
C92 C 0.16312 0.30389 0.42686 0.0
C93 C 0.12947 0.27264 0.41843 0.0
C94 C 0.14348 0.23298 0.43353 0.0
C95 C 0.18974 0.22397 0.45462 0.0
C96 C 0.19476 0.1809 0.47786 0.0
C97 C 0.2209 0.15483 0.43827 0.0
C98 C 0.21912 0.17983 0.54297 0.0
C99 C 0.14384 0.16826 0.47186 0.0
C100 C 0.11475 0.19811 0.4442 0.0
C101 C 0.06638 0.19632 0.44324 0.0
C102 C 0.04773 0.16478 0.47424 0.0
C103 C 0.07745 0.13563 0.50548 0.0
C104 C 0.12544 0.13614 0.50143 0.0
H105 H 0.25937 0.76255 0.10311 0.0
H106 H 0.37951 0.83534 0.17563 0.0
H107 H 0.42882 0.77369 0.18572 0.0
H108 H 0.29542 0.66587 0.19145 0.0
H109 H 0.27207 0.63509 0.12856 0.0
H110 H 0.24497 0.68266 0.14111 0.0
H111 H 0.25445 0.70678 0.03523 0.0
H112 H 0.28093 0.65944 0.02236 0.0
H113 H 0.31165 0.70635 0.01327 0.0
H114 H 0.46715 0.70753 0.16625 0.0
H115 H 0.48983 0.64577 0.11625 0.0
H116 H 0.34391 0.61609 0.06101 0.0
C117 C 0.29573 0.76504 0.1231 0.0
C118 C 0.31592 0.80315 0.13892 0.0
C119 C 0.36362 0.806 0.16396 0.0
C120 C 0.39168 0.77118 0.17003 0.0
C121 C 0.37104 0.73386 0.1521 0.0
C122 C 0.32382 0.73065 0.12995 0.0
C123 C 0.31095 0.68874 0.10613 0.0
C124 C 0.27897 0.6668 0.1441 0.0
C125 C 0.28823 0.69047 0.0404 0.0
C126 C 0.35876 0.66967 0.11388 0.0
C127 C 0.39302 0.69555 0.14204 0.0
C128 C 0.44053 0.68649 0.14601 0.0
C129 C 0.45322 0.65126 0.11792 0.0
C130 C 0.41838 0.62619 0.08602 0.0
C131 C 0.37091 0.63443 0.08676 0.0
H132 H 0.7884 0.75718 0.62619 0.0
H133 H 0.87801 0.66702 0.56597 0.0
H134 H 0.94227 0.71758 0.57245 0.0
H135 H 0.81806 0.83273 0.53939 0.0
H136 H 0.81555 0.87367 0.59084 0.0
H137 H 0.78167 0.82838 0.5965 0.0
H138 H 0.82068 0.8196 0.70589 0.0
H139 H 0.85513 0.86494 0.70021 0.0
H140 H 0.8835 0.81784 0.7236 0.0
H141 H 0.99036 0.77935 0.56682 0.0
H142 H 0.0154 0.848 0.54045 0.0
H143 H 0.89518 0.89935 0.60289 0.0
C144 C 0.82225 0.74783 0.61678 0.0
C145 C 0.82881 0.70823 0.59661 0.0
C146 C 0.87272 0.69721 0.58212 0.0
C147 C 0.90942 0.72563 0.58617 0.0
C148 C 0.90158 0.7649 0.60475 0.0
C149 C 0.85898 0.77605 0.61977 0.0
C150 C 0.85676 0.82151 0.62847 0.0
C151 C 0.81562 0.84014 0.58626 0.0
C152 C 0.85386 0.83156 0.69342 0.0
C153 C 0.90355 0.83452 0.61233 0.0
C154 C 0.92954 0.80125 0.60079 0.0
C155 C 0.97113 0.80558 0.57758 0.0
C156 C 0.98531 0.84465 0.56307 0.0
C157 C 0.95798 0.87871 0.5718 0.0
C158 C 0.91768 0.87379 0.59873 0.0
H159 H 0.63998 0.19266 0.05004 0.0
H160 H 0.70711 0.21856 0.89648 0.0
H161 H 0.66132 0.28113 0.87825 0.0
H162 H 0.5248 0.24368 0.9978 0.0
H163 H 0.52301 0.26324 0.07099 0.0
H164 H 0.55033 0.21517 0.06216 0.0
H165 H 0.6268 0.24109 0.12581 0.0
H166 H 0.59972 0.28887 0.13502 0.0
H167 H 0.6536 0.28743 0.10471 0.0
H168 H 0.61929 0.34674 0.8868 0.0
H169 H 0.59176 0.41036 0.92714 0.0
H170 H 0.55842 0.34398 0.07937 0.0
C171 C 0.64449 0.211 0.01183 0.0
C172 C 0.67713 0.20032 0.97465 0.0
C173 C 0.68164 0.22532 0.92502 0.0
C174 C 0.65575 0.26112 0.91428 0.0
C175 C 0.62542 0.27162 0.95346 0.0
C176 C 0.61978 0.24718 1.00134 0.0
C177 C 0.59167 0.26812 0.04269 0.0
C178 C 0.54465 0.24625 0.04342 0.0
C179 C 0.61964 0.2716 0.10571 0.0
C180 C 0.58477 0.30907 0.01258 0.0
C181 C 0.60284 0.31014 0.95994 0.0
C182 C 0.60413 0.34601 0.92724 0.0
C183 C 0.58831 0.38194 0.95019 0.0
C184 C 0.57266 0.38155 0.00576 0.0
C185 C 0.56946 0.34458 0.03615 0.0
H186 H 0.15496 0.9183 0.15443 0.0
H187 H 0.29382 0.92759 0.25689 0.0
H188 H 0.26038 0.95917 0.33899 0.0
H189 H 0.10792 0.01359 0.2075 0.0
H190 H 0.05118 0.99079 0.20831 0.0
H191 H 0.087 0.97425 0.15521 0.0
H192 H 0.08097 0.90015 0.19213 0.0
H193 H 0.04548 0.91642 0.24546 0.0
H194 H 0.09846 0.88874 0.26967 0.0
H195 H 0.21039 0.98396 0.41314 0.0
H196 H 0.14835 -0.00238 0.47359 0.0
H197 H 0.04296 0.97112 0.32141 0.0
C198 C 0.17856 0.92816 0.19335 0.0
C199 C 0.22704 0.92095 0.1991 0.0
C200 C 0.25656 0.93292 0.25164 0.0
C201 C 0.23791 0.95108 0.29827 0.0
C202 C 0.18975 0.95707 0.29151 0.0
C203 C 0.16055 0.94607 0.24018 0.0
C204 C 0.10972 0.95227 0.24568 0.0
C205 C 0.08767 0.98466 0.20156 0.0
C206 C 0.08207 0.912 0.2378 0.0
C207 C 0.1147 0.96731 0.30878 0.0
C208 C 0.16108 0.97055 0.3343 0.0
C209 C 0.17398 0.98195 0.39337 0.0
C210 C 0.13851 0.9896 0.42738 0.0
C211 C 0.09081 0.98533 0.40231 0.0
C212 C 0.07906 0.97475 0.34194 0.0
H213 H 0.67939 0.57559 0.65021 0.0
H214 H 0.6969 0.70368 0.6927 0.0
H215 H 0.65542 0.69382 0.77785 0.0
H216 H 0.56185 0.56702 0.68715 0.0
H217 H 0.57032 0.51657 0.71759 0.0
H218 H 0.60241 0.53328 0.66017 0.0
H219 H 0.68001 0.51565 0.72774 0.0
H220 H 0.64815 0.49947 0.78571 0.0
H221 H 0.69301 0.538 0.8004 0.0
H222 H 0.61276 0.67144 0.85766 0.0
H223 H 0.56386 0.63817 0.92379 0.0
H224 H 0.57133 0.52447 0.83135 0.0
C225 C 0.67407 0.60156 0.67717 0.0
C226 C 0.69217 0.64031 0.66529 0.0
C227 C 0.68441 0.67354 0.70165 0.0
C228 C 0.66078 0.6683 0.75011 0.0
C229 C 0.64459 0.62967 0.76162 0.0
C230 C 0.65019 0.5969 0.72595 0.0
C231 C 0.62773 0.55896 0.74772 0.0
C232 C 0.58823 0.54303 0.70034 0.0
C233 C 0.66443 0.52608 0.76651 0.0
C234 C 0.60863 0.57575 0.80094 0.0
C235 C 0.61922 0.61659 0.80816 0.0
C236 C 0.60442 0.63944 0.85279 0.0
C237 C 0.57695 0.62033 0.89025 0.0
C238 C 0.56483 0.57886 0.88305 0.0
C239 C 0.58126 0.55605 0.83839 0.0
H240 H 0.85091 0.11418 0.12353 0.0
H241 H 0.70787 0.12364 0.15709 0.0
H242 H 0.73442 0.1117 0.26355 0.0
H243 H 0.88312 0.03333 0.22402 0.0
H244 H 0.94188 0.05163 0.24765 0.0
H245 H 0.91198 0.06413 0.17485 0.0
H246 H 0.92651 0.14055 0.19784 0.0
H247 H 0.95581 0.12818 0.2712 0.0
H248 H 0.90676 0.16214 0.26191 0.0
H249 H 0.77442 0.09211 0.36382 0.0
H250 H 0.82558 0.06379 0.45096 0.0
H251 H 0.94347 0.06975 0.35529 0.0
C252 C 0.82523 0.11382 0.15334 0.0
C253 C 0.77729 0.12017 0.13194 0.0
C254 C 0.74483 0.11953 0.17249 0.0
C255 C 0.75957 0.11278 0.23309 0.0
C256 C 0.807 0.10697 0.2528 0.0
C257 C 0.83942 0.10736 0.21425 0.0
C258 C 0.88796 0.09802 0.24672 0.0
C259 C 0.90735 0.05949 0.22184 0.0
C260 C 0.92122 0.1344 0.24426 0.0
C261 C 0.87745 0.09123 0.30914 0.0
C262 C 0.83054 0.09689 0.31166 0.0
C263 C 0.81142 0.08854 0.36288 0.0
C264 C 0.84067 0.07272 0.41222 0.0
C265 C 0.88852 0.06602 0.41021 0.0
C266 C 0.90739 0.07639 0.35862 0.0
H267 H 0.36742 0.37382 0.6268 0.0
H268 H 0.21884 0.37564 0.63523 0.0
H269 H 0.23618 0.39307 0.74171 0.0
H270 H 0.40638 0.3344 0.77983 0.0
H271 H 0.45787 0.36634 0.78949 0.0
H272 H 0.43403 0.34781 0.7168 0.0
H273 H 0.42819 0.42156 0.67628 0.0
H274 H 0.45245 0.44011 0.74844 0.0
H275 H 0.39687 0.45866 0.71219 0.0
H276 H 0.269 0.42141 0.84094 0.0
H277 H 0.31451 0.4588 0.9245 0.0
H278 H 0.44202 0.43563 0.85376 0.0
C279 C 0.33853 0.37734 0.65129 0.0
C280 C 0.29175 0.37349 0.62284 0.0
C281 C 0.25491 0.37811 0.65634 0.0
C282 C 0.26447 0.38792 0.71681 0.0
C283 C 0.31105 0.3923 0.74322 0.0
C284 C 0.34749 0.38686 0.71157 0.0
C285 C 0.39418 0.397 0.74857 0.0
C286 C 0.42492 0.35912 0.75931 0.0
C287 C 0.41936 0.43137 0.71966 0.0
C288 C 0.37825 0.41081 0.80527 0.0
C289 C 0.33017 0.40736 0.80157 0.0
C290 C 0.30672 0.42309 0.84517 0.0
C291 C 0.33278 0.44414 0.89253 0.0
C292 C 0.38174 0.44885 0.89617 0.0
C293 C 0.4049 0.43075 0.85319 0.0
H294 H 0.64663 0.62924 0.44945 0.0
H295 H 0.79404 0.61239 0.44027 0.0
H296 H 0.77457 0.59582 0.33456 0.0
H297 H 0.6077 0.54353 0.35235 0.0
H298 H 0.55473 0.56816 0.31896 0.0
H299 H 0.5803 0.58015 0.39393 0.0
H300 H 0.58225 0.65624 0.36498 0.0
H301 H 0.5577 0.6443 0.28956 0.0
H302 H 0.61234 0.67177 0.30497 0.0
H303 H 0.74069 0.5832 0.22989 0.0
H304 H 0.69302 0.56255 0.13581 0.0
H305 H 0.56665 0.58279 0.21174 0.0
C306 C 0.67479 0.62157 0.42549 0.0
C307 C 0.7221 0.62326 0.45328 0.0
C308 C 0.75769 0.61274 0.41991 0.0
C309 C 0.74702 0.60316 0.3597 0.0
C310 C 0.70042 0.60337 0.33324 0.0
C311 C 0.66469 0.6112 0.36516 0.0
C312 C 0.61738 0.60683 0.32613 0.0
C313 C 0.58832 0.57264 0.34921 0.0
C314 C 0.59086 0.6472 0.32113 0.0
C315 C 0.63236 0.59554 0.26745 0.0
C316 C 0.68049 0.59434 0.27262 0.0
C317 C 0.70294 0.5839 0.22523 0.0
C318 C 0.67552 0.57246 0.17181 0.0
C319 C 0.62611 0.57114 0.1662 0.0
C320 C 0.6043 0.58412 0.21421 0.0
H321 H 0.85244 0.10598 0.95626 0.0
H322 H 0.71484 0.076 0.8621 0.0
H323 H 0.75053 0.05166 0.77692 0.0
H324 H 0.89467 0.1474 0.83705 0.0
H325 H 0.95363 0.1294 0.85689 0.0
H326 H 0.9181 0.13757 0.9136 0.0
H327 H 0.93094 0.0632 0.94965 0.0
H328 H 0.96711 0.05489 0.89338 0.0
H329 H 0.9174 0.02226 0.89757 0.0
H330 H 0.80226 0.03631 0.69798 0.0
H331 H 0.86415 0.03428 0.63353 0.0
H332 H 0.96532 0.07766 0.78046 0.0
C333 C 0.82996 0.09294 0.91858 0.0
C334 C 0.78104 0.0923 0.91596 0.0
C335 C 0.75253 0.07647 0.86497 0.0
C336 C 0.7725 0.06249 0.81655 0.0
C337 C 0.82096 0.06466 0.81986 0.0
C338 C 0.84923 0.07941 0.86985 0.0
C339 C 0.89962 0.08273 0.8606 0.0
C340 C 0.91751 0.12689 0.86741 0.0
C341 C 0.93058 0.05405 0.9028 0.0
C342 C 0.89524 0.06868 0.79713 0.0
C343 C 0.84995 0.05756 0.77435 0.0
C344 C 0.83791 0.04471 0.7156 0.0
C345 C 0.8731 0.04368 0.67929 0.0
C346 C 0.91924 0.05632 0.70181 0.0
C347 C 0.93019 0.06832 0.76166 0.0
H348 H 0.28578 0.39936 0.33968 0.0
H349 H 0.39463 0.39741 0.49412 0.0
H350 H 0.44961 0.42832 0.43559 0.0
H351 H 0.36072 0.36896 0.23832 0.0
H352 H 0.33337 0.39997 0.17768 0.0
H353 H 0.29984 0.38192 0.23284 0.0
H354 H 0.27728 0.4558 0.25332 0.0
H355 H 0.31089 0.4741 0.19827 0.0
H356 H 0.32267 0.49334 0.27289 0.0
H357 H 0.49416 0.45623 0.36237 0.0
H358 H 0.52869 0.47542 0.27473 0.0
H359 H 0.3945 0.456 0.16308 0.0
C360 C 0.3211 0.40554 0.36127 0.0
C361 C 0.33517 0.39683 0.42227 0.0
C362 C 0.38203 0.40516 0.44834 0.0
C363 C 0.41387 0.42251 0.41531 0.0
C364 C 0.39882 0.43089 0.35579 0.0
C365 C 0.35384 0.4224 0.32856 0.0
C366 C 0.34831 0.43178 0.2626 0.0
C367 C 0.33477 0.39336 0.22569 0.0
C368 C 0.31267 0.46578 0.2458 0.0
C369 C 0.39754 0.44603 0.25725 0.0
C370 C 0.42563 0.44577 0.31198 0.0
C371 C 0.47263 0.4566 0.31918 0.0
C372 C 0.49192 0.46731 0.26891 0.0
C373 C 0.46442 0.46687 0.21184 0.0
C374 C 0.41633 0.4567 0.20609 0.0
H375 H 0.24265 0.95389 0.98921 0.0
H376 H 0.19976 0.82805 0.96373 0.0
H377 H 0.16457 0.8435 0.86012 0.0
H378 H 0.14211 -0.00316 0.91084 0.0
H379 H 0.17216 0.03778 0.8795 0.0
H380 H 0.1974 0.01543 0.94895 0.0
H381 H 0.27322 0.0003 0.9058 0.0
H382 H 0.24797 0.02246 0.83595 0.0
H383 H 0.26974 0.97131 0.83849 0.0
H384 H 0.12646 0.87524 0.76234 0.0
H385 H 0.09024 0.91991 0.68061 0.0
H386 H 0.16212 0.02358 0.77079 0.0
C387 C 0.22627 0.92953 0.96157 0.0
C388 C 0.22385 0.88984 0.98425 0.0
C389 C 0.20231 0.85863 0.94684 0.0
C390 C 0.18224 0.86713 0.88804 0.0
C391 C 0.18474 0.90683 0.86719 0.0
C392 C 0.20667 0.93738 0.90283 0.0
C393 C 0.20287 0.97786 0.87127 0.0
C394 C 0.17709 0.00877 0.90461 0.0
C395 C 0.25134 -0.00608 0.86234 0.0
C396 C 0.17404 0.96572 0.81298 0.0
C397 C 0.16407 0.92463 0.81097 0.0
C398 C 0.13477 0.90734 0.76304 0.0
C399 C 0.11441 0.93291 0.71674 0.0
C400 C 0.12345 0.97526 0.71895 0.0
C401 C 0.15473 0.99134 0.76711 0.0
loop_
_geom_bond_atom_site_label_1
_geom_bond_atom_site_label_2
_geom_bond_distance
_geom_bond_site_symmetry_2
_ccdc_geom_bond_type
H0 C3 0.931 . S
H1 C6 0.928 . S
H2 C8 0.940 . S
C3 H0 0.931 . S
C3 C4 1.413 . S
C3 C5 1.360 . S
C4 C3 1.413 . S
C4 C8 1.429 . S
C5 C3 1.360 . S
C5 C6 1.372 . S
C6 H1 0.928 . S
C6 C5 1.372 . S
C6 C7 1.404 . S
C7 C6 1.404 . S
C7 C8 1.391 . S
C8 H2 0.940 . S
C8 C4 1.429 . S
C8 C7 1.391 . S
H9 C12 0.931 . S
H10 C15 0.928 . S
H11 C17 0.930 . S
C12 H9 0.931 . S
C12 C13 1.413 . S
C12 C14 1.360 . S
C13 C12 1.413 . S
C13 C17 1.429 . S
C14 C12 1.360 . S
C14 C15 1.372 . S
C15 H10 0.928 . S
C15 C14 1.372 . S
C15 C16 1.404 . S
C16 C15 1.404 . S
C16 C17 1.391 . S
C17 H11 0.930 . S
C17 C13 1.429 . S
C17 C16 1.391 . S
H18 C21 0.931 . S
H19 C24 0.928 . S
H20 C26 0.930 . S
C21 H18 0.931 . S
C21 C22 1.413 1_554 S
C21 C23 1.360 . S
C22 C21 1.413 1_556 S
C22 C26 1.429 . S
C23 C21 1.360 . S
C23 C24 1.372 . S
C24 H19 0.928 . S
C24 C23 1.372 . S
C24 C25 1.405 1_554 S
C25 C24 1.405 1_556 S
C25 C26 1.390 . S
C26 H20 0.930 . S
C26 C22 1.429 . S
C26 C25 1.390 . S
H27 C30 0.931 . S
H28 C33 0.928 . S
H29 C35 0.930 . S
C30 H27 0.931 . S
C30 C31 1.413 . S
C30 C32 1.360 . S
C31 C30 1.413 . S
C31 C35 1.429 . S
C32 C30 1.360 . S
C32 C33 1.372 . S
C33 H28 0.928 . S
C33 C32 1.372 . S
C33 C34 1.404 . S
C34 C33 1.404 . S
C34 C35 1.391 . S
C35 H29 0.930 . S
C35 C31 1.429 . S
C35 C34 1.391 . S
O36 Mg37 1.990 1_655 S
O36 C50 1.253 . S
Mg37 O36 1.990 1_455 S
Mg37 O40 2.180 . S
Mg37 O41 2.117 . S
Mg37 O55 2.030 . S
O38 Mg39 2.072 1_655 S
O38 C50 1.260 . S
Mg39 O38 2.072 1_455 S
Mg39 O40 2.099 . S
Mg39 O42 2.079 1_545 S
Mg39 O43 2.072 1_455 S
Mg39 O45 2.099 1_445 S
Mg39 O56 2.079 1_545 S
O40 Mg37 2.180 . S
O40 Mg39 2.099 . S
O40 C51 1.279 . S
O41 Mg37 2.117 . S
O41 C51 1.250 . S
O42 Mg39 2.079 1_565 S
O42 C52 1.264 . S
O43 Mg39 2.072 1_655 S
O43 C53 1.260 . S
Mg44 O45 2.180 . S
Mg44 O46 2.030 1_655 S
Mg44 O47 1.990 . S
Mg44 O48 2.117 . S
O45 Mg39 2.099 1_665 S
O45 Mg44 2.180 . S
O45 C54 1.279 . S
O46 Mg44 2.030 1_455 S
O46 C52 1.248 . S
O47 Mg44 1.990 . S
O47 C53 1.253 1_565 S
O48 Mg44 2.117 . S
O48 C54 1.250 . S
C49 O55 1.248 1_565 S
C49 O56 1.264 . S
C50 O36 1.253 . S
C50 O38 1.260 . S
C51 O40 1.279 . S
C51 O41 1.250 . S
C52 O42 1.264 . S
C52 O46 1.248 . S
C53 O43 1.260 . S
C53 O47 1.253 1_545 S
C54 O45 1.279 . S
C54 O48 1.250 . S
O55 Mg37 2.030 . S
O55 C49 1.248 1_545 S
O56 Mg39 2.079 1_565 S
O56 C49 1.264 . S
O57 Mg58 1.990 . S
O57 C71 1.253 . S
Mg58 O57 1.990 . S
Mg58 O61 2.180 . S
Mg58 O62 2.117 . S
Mg58 O76 2.030 . S
O59 Mg60 2.072 . S
O59 C71 1.260 . S
Mg60 O59 2.072 . S
Mg60 O61 2.099 . S
Mg60 O63 2.079 1_554 S
Mg60 O64 2.072 1_554 S
Mg60 O66 2.099 . S
Mg60 O77 2.079 . S
O61 Mg58 2.180 . S
O61 Mg60 2.099 . S
O61 C72 1.279 . S
O62 Mg58 2.117 . S
O62 C72 1.250 . S
O63 Mg60 2.079 1_556 S
O63 C73 1.264 . S
O64 Mg60 2.072 1_556 S
O64 C74 1.260 . S
Mg65 O66 2.180 1_556 S
Mg65 O67 2.030 . S
Mg65 O68 1.990 . S
Mg65 O69 2.117 . S
O66 Mg60 2.099 . S
O66 Mg65 2.180 1_554 S
O66 C75 1.279 . S
O67 Mg65 2.030 . S
O67 C73 1.248 . S
O68 Mg65 1.990 . S
O68 C74 1.253 . S
O69 Mg65 2.117 . S
O69 C75 1.250 1_556 S
C70 O76 1.248 . S
C70 O77 1.264 . S
C71 O57 1.253 . S
C71 O59 1.260 . S
C72 O61 1.279 . S
C72 O62 1.250 . S
C73 O63 1.264 . S
C73 O67 1.248 . S
C74 O64 1.260 . S
C74 O68 1.253 . S
C75 O66 1.279 . S
C75 O69 1.250 1_554 S
O76 Mg58 2.030 . S
O76 C70 1.248 . S
O77 Mg60 2.079 . S
O77 C70 1.264 . S
H78 C90 0.930 . S
H79 C92 0.930 . S
H80 C93 0.930 . S
H81 C97 0.959 . S
H82 C97 0.959 . S
H83 C97 0.961 . S
H84 C98 0.960 . S
H85 C98 0.961 . S
H86 C98 0.959 . S
H87 C101 0.929 . S
H88 C102 0.931 . S
H89 C104 0.930 . S
C90 H78 0.930 . S
C90 C91 1.399 . S
C90 C95 1.399 . S
C91 C90 1.399 . S
C91 C92 1.376 . S
C92 H79 0.930 . S
C92 C91 1.376 . S
C92 C93 1.388 . S
C93 H80 0.930 . S
C93 C92 1.388 . S
C93 C94 1.390 . S
C94 C93 1.390 . S
C94 C95 1.394 . S
C94 C100 1.465 . S
C95 C90 1.399 . S
C95 C94 1.394 . S
C95 C96 1.516 . S
C96 C95 1.516 . S
C96 C97 1.502 . S
C96 C98 1.561 . S
C96 C99 1.526 . S
C97 H81 0.959 . S
C97 H82 0.959 . S
C97 H83 0.961 . S
C97 C96 1.502 . S
C98 H84 0.960 . S
C98 H85 0.961 . S
C98 H86 0.959 . S
C98 C96 1.561 . S
C99 C96 1.526 . S
C99 C100 1.396 . S
C99 C104 1.390 . S
C100 C94 1.465 . S
C100 C99 1.396 . S
C100 C101 1.399 . S
C101 H87 0.929 . S
C101 C100 1.399 . S
C101 C102 1.385 . S
C102 H88 0.931 . S
C102 C101 1.385 . S
C102 C103 1.389 . S
C103 C102 1.389 . S
C103 C104 1.387 . S
C104 H89 0.930 . S
C104 C99 1.390 . S
C104 C103 1.387 . S
H105 C117 0.930 . S
H106 C119 0.930 . S
H107 C120 0.930 . S
H108 C124 0.959 1_554 S
H109 C124 0.959 . S
H110 C124 0.961 . S
H111 C125 0.960 . S
H112 C125 0.961 . S
H113 C125 0.959 . S
H114 C128 0.929 . S
H115 C129 0.931 . S
H116 C131 0.930 1_556 S
C117 H105 0.930 . S
C117 C118 1.399 . S
C117 C122 1.399 . S
C118 C117 1.399 . S
C118 C119 1.376 . S
C119 H106 0.930 . S
C119 C118 1.376 . S
C119 C120 1.388 . S
C120 H107 0.930 . S
C120 C119 1.388 . S
C120 C121 1.390 . S
C121 C120 1.390 . S
C121 C122 1.394 . S
C121 C127 1.465 . S
C122 C117 1.399 . S
C122 C121 1.394 . S
C122 C123 1.516 . S
C123 C122 1.516 . S
C123 C124 1.502 1_554 S
C123 C125 1.561 1_554 S
C123 C126 1.526 . S
C124 H108 0.959 1_556 S
C124 H109 0.959 . S
C124 H110 0.961 . S
C124 C123 1.502 1_556 S
C125 H111 0.960 . S
C125 H112 0.961 . S
C125 H113 0.959 . S
C125 C123 1.561 1_556 S
C126 C123 1.526 . S
C126 C127 1.396 . S
C126 C131 1.390 . S
C127 C121 1.465 . S
C127 C126 1.396 . S
C127 C128 1.399 . S
C128 H114 0.929 . S
C128 C127 1.399 . S
C128 C129 1.385 . S
C129 H115 0.931 . S
C129 C128 1.385 . S
C129 C130 1.389 . S
C130 C129 1.389 . S
C130 C131 1.387 . S
C131 H116 0.930 1_554 S
C131 C126 1.390 . S
C131 C130 1.387 . S
H132 C144 0.930 . S
H133 C146 0.930 . S
H134 C147 0.930 . S
H135 C151 0.959 . S
H136 C151 0.959 . S
H137 C151 0.961 . S
H138 C152 0.960 . S
H139 C152 0.961 . S
H140 C152 0.959 . S
H141 C155 0.929 . S
H142 C156 0.931 . S
H143 C158 0.930 . S
C144 H132 0.930 . S
C144 C145 1.399 . S
C144 C149 1.399 . S
C145 C144 1.399 . S
C145 C146 1.376 . S
C146 H133 0.930 . S
C146 C145 1.376 . S
C146 C147 1.388 . S
C147 H134 0.930 . S
C147 C146 1.388 . S
C147 C148 1.390 . S
C148 C147 1.390 . S
C148 C149 1.394 . S
C148 C154 1.465 . S
C149 C144 1.399 . S
C149 C148 1.394 . S
C149 C150 1.516 . S
C150 C149 1.516 . S
C150 C151 1.502 . S
C150 C152 1.561 . S
C150 C153 1.526 . S
C151 H135 0.959 . S
C151 H136 0.959 . S
C151 H137 0.961 . S
C151 C150 1.502 . S
C152 H138 0.960 . S
C152 H139 0.961 . S
C152 H140 0.959 . S
C152 C150 1.561 . S
C153 C150 1.526 . S
C153 C154 1.396 . S
C153 C158 1.390 . S
C154 C148 1.465 . S
C154 C153 1.396 . S
C154 C155 1.399 . S
C155 H141 0.929 . S
C155 C154 1.399 . S
C155 C156 1.385 . S
C156 H142 0.931 . S
C156 C155 1.385 . S
C156 C157 1.389 . S
C157 C156 1.389 . S
C157 C158 1.387 . S
C158 H143 0.930 . S
C158 C153 1.390 . S
C158 C157 1.387 . S
H159 C171 0.930 . S
H160 C173 0.930 . S
H161 C174 0.930 . S
H162 C178 0.959 1_556 S
H163 C178 0.959 . S
H164 C178 0.961 . S
H165 C179 0.960 . S
H166 C179 0.961 . S
H167 C179 0.959 . S
H168 C182 0.929 . S
H169 C183 0.931 . S
H170 C185 0.930 . S
C171 H159 0.930 . S
C171 C172 1.400 1_554 S
C171 C176 1.399 . S
C172 C171 1.400 1_556 S
C172 C173 1.376 . S
C173 H160 0.930 . S
C173 C172 1.376 . S
C173 C174 1.388 . S
C174 H161 0.930 . S
C174 C173 1.388 . S
C174 C175 1.394 . S
C175 C174 1.394 . S
C175 C176 1.390 1_556 S
C175 C181 1.464 1_556 S
C176 C171 1.399 . S
C176 C175 1.390 1_554 S
C176 C177 1.516 . S
C177 C176 1.516 . S
C177 C178 1.502 . S
C177 C179 1.561 . S
C177 C180 1.526 . S
C178 H162 0.959 1_554 S
C178 H163 0.959 . S
C178 H164 0.961 . S
C178 C177 1.502 . S
C179 H165 0.960 . S
C179 H166 0.961 . S
C179 H167 0.959 . S
C179 C177 1.561 . S
C180 C177 1.526 . S
C180 C181 1.396 . S
C180 C185 1.390 . S
C181 C175 1.464 1_554 S
C181 C180 1.396 . S
C181 C182 1.399 1_554 S
C182 H168 0.929 . S
C182 C181 1.399 1_556 S
C182 C183 1.385 . S
C183 H169 0.931 . S
C183 C182 1.385 . S
C183 C184 1.389 1_556 S
C184 C183 1.389 1_554 S
C184 C185 1.387 . S
C185 H170 0.930 . S
C185 C180 1.390 . S
C185 C184 1.387 . S
H186 C198 0.930 . S
H187 C200 0.930 . S
H188 C201 0.930 . S
H189 C205 0.959 . S
H190 C205 0.959 . S
H191 C205 0.961 . S
H192 C206 0.960 1_545 S
H193 C206 0.961 1_545 S
H194 C206 0.959 . S
H195 C209 0.929 . S
H196 C210 0.931 . S
H197 C212 0.930 1_545 S
C198 H186 0.930 . S
C198 C199 1.399 . S
C198 C203 1.399 . S
C199 C198 1.399 . S
C199 C200 1.376 . S
C200 H187 0.930 . S
C200 C199 1.376 . S
C200 C201 1.388 . S
C201 H188 0.930 . S
C201 C200 1.388 . S
C201 C202 1.390 . S
C202 C201 1.390 . S
C202 C203 1.394 . S
C202 C208 1.465 . S
C203 C198 1.399 . S
C203 C202 1.394 . S
C203 C204 1.516 . S
C204 C203 1.516 . S
C204 C205 1.502 1_565 S
C204 C206 1.561 . S
C204 C207 1.526 . S
C205 H189 0.959 . S
C205 H190 0.959 . S
C205 H191 0.961 . S
C205 C204 1.502 1_545 S
C206 H192 0.960 1_565 S
C206 H193 0.961 1_565 S
C206 H194 0.959 . S
C206 C204 1.561 . S
C207 C204 1.526 . S
C207 C208 1.396 . S
C207 C212 1.390 . S
C208 C202 1.465 . S
C208 C207 1.396 . S
C208 C209 1.399 . S
C209 H195 0.929 . S
C209 C208 1.399 . S
C209 C210 1.385 . S
C210 H196 0.931 . S
C210 C209 1.385 . S
C210 C211 1.389 . S
C211 C210 1.389 . S
C211 C212 1.387 . S
C212 H197 0.930 1_565 S
C212 C207 1.390 . S
C212 C211 1.387 . S
H213 C225 0.930 . S
H214 C227 0.930 . S
H215 C228 0.930 . S
H216 C232 0.959 . S
H217 C232 0.959 . S
H218 C232 0.961 . S
H219 C233 0.960 . S
H220 C233 0.961 . S
H221 C233 0.959 . S
H222 C236 0.929 . S
H223 C237 0.931 . S
H224 C239 0.930 . S
C225 H213 0.930 . S
C225 C226 1.399 . S
C225 C230 1.399 . S
C226 C225 1.399 . S
C226 C227 1.376 . S
C227 H214 0.930 . S
C227 C226 1.376 . S
C227 C228 1.388 . S
C228 H215 0.930 . S
C228 C227 1.388 . S
C228 C229 1.390 . S
C229 C228 1.390 . S
C229 C230 1.394 . S
C229 C235 1.465 . S
C230 C225 1.399 . S
C230 C229 1.394 . S
C230 C231 1.516 . S
C231 C230 1.516 . S
C231 C232 1.502 . S
C231 C233 1.561 . S
C231 C234 1.526 . S
C232 H216 0.959 . S
C232 H217 0.959 . S
C232 H218 0.961 . S
C232 C231 1.502 . S
C233 H219 0.960 . S
C233 H220 0.961 . S
C233 H221 0.959 . S
C233 C231 1.561 . S
C234 C231 1.526 . S
C234 C235 1.396 . S
C234 C239 1.390 . S
C235 C229 1.465 . S
C235 C234 1.396 . S
C235 C236 1.399 . S
C236 H222 0.929 . S
C236 C235 1.399 . S
C236 C237 1.385 . S
C237 H223 0.931 . S
C237 C236 1.385 . S
C237 C238 1.389 . S
C238 C237 1.389 . S
C238 C239 1.387 . S
C239 H224 0.930 . S
C239 C234 1.390 . S
C239 C238 1.387 . S
H240 C252 0.930 . S
H241 C254 0.930 . S
H242 C255 0.930 . S
H243 C259 0.959 . S
H244 C259 0.959 . S
H245 C259 0.961 . S
H246 C260 0.960 . S
H247 C260 0.961 . S
H248 C260 0.959 . S
H249 C263 0.929 1_565 S
H250 C264 0.931 1_565 S
H251 C266 0.930 . S
C252 H240 0.930 . S
C252 C253 1.399 . S
C252 C257 1.399 . S
C253 C252 1.399 . S
C253 C254 1.376 . S
C254 H241 0.930 . S
C254 C253 1.376 . S
C254 C255 1.388 . S
C255 H242 0.930 . S
C255 C254 1.388 . S
C255 C256 1.390 . S
C256 C255 1.390 . S
C256 C257 1.394 . S
C256 C262 1.465 . S
C257 C252 1.399 . S
C257 C256 1.394 . S
C257 C258 1.516 . S
C258 C257 1.516 . S
C258 C259 1.502 . S
C258 C260 1.561 . S
C258 C261 1.526 . S
C259 H243 0.959 . S
C259 H244 0.959 . S
C259 H245 0.961 . S
C259 C258 1.502 . S
C260 H246 0.960 . S
C260 H247 0.961 . S
C260 H248 0.959 . S
C260 C258 1.561 . S
C261 C258 1.526 . S
C261 C262 1.396 . S
C261 C266 1.390 . S
C262 C256 1.465 . S
C262 C261 1.396 . S
C262 C263 1.399 . S
C263 H249 0.929 1_545 S
C263 C262 1.399 . S
C263 C264 1.385 . S
C264 H250 0.931 1_545 S
C264 C263 1.385 . S
C264 C265 1.389 . S
C265 C264 1.389 . S
C265 C266 1.387 . S
C266 H251 0.930 . S
C266 C261 1.390 . S
C266 C265 1.387 . S
H267 C279 0.930 . S
H268 C281 0.930 . S
H269 C282 0.930 . S
H270 C286 0.959 . S
H271 C286 0.959 . S
H272 C286 0.961 . S
H273 C287 0.960 . S
H274 C287 0.961 . S
H275 C287 0.959 . S
H276 C290 0.929 . S
H277 C291 0.931 . S
H278 C293 0.930 . S
C279 H267 0.930 . S
C279 C280 1.399 . S
C279 C284 1.399 . S
C280 C279 1.399 . S
C280 C281 1.376 . S
C281 H268 0.930 . S
C281 C280 1.376 . S
C281 C282 1.388 . S
C282 H269 0.930 . S
C282 C281 1.388 . S
C282 C283 1.390 . S
C283 C282 1.390 . S
C283 C284 1.394 . S
C283 C289 1.465 . S
C284 C279 1.399 . S
C284 C283 1.394 . S
C284 C285 1.516 . S
C285 C284 1.516 . S
C285 C286 1.502 . S
C285 C287 1.561 . S
C285 C288 1.526 . S
C286 H270 0.959 . S
C286 H271 0.959 . S
C286 H272 0.961 . S
C286 C285 1.502 . S
C287 H273 0.960 . S
C287 H274 0.961 . S
C287 H275 0.959 . S
C287 C285 1.561 . S
C288 C285 1.526 . S
C288 C289 1.396 . S
C288 C293 1.390 . S
C289 C283 1.465 . S
C289 C288 1.396 . S
C289 C290 1.399 . S
C290 H276 0.929 . S
C290 C289 1.399 . S
C290 C291 1.385 . S
C291 H277 0.931 . S
C291 C290 1.385 . S
C291 C292 1.389 . S
C292 C291 1.389 . S
C292 C293 1.387 . S
C293 H278 0.930 . S
C293 C288 1.390 . S
C293 C292 1.387 . S
H294 C306 0.930 . S
H295 C308 0.930 . S
H296 C309 0.930 . S
H297 C313 0.959 . S
H298 C313 0.959 . S
H299 C313 0.961 . S
H300 C314 0.960 . S
H301 C314 0.961 . S
H302 C314 0.959 . S
H303 C317 0.929 . S
H304 C318 0.931 . S
H305 C320 0.930 . S
C306 H294 0.930 . S
C306 C307 1.399 . S
C306 C311 1.399 . S
C307 C306 1.399 . S
C307 C308 1.376 . S
C308 H295 0.930 . S
C308 C307 1.376 . S
C308 C309 1.388 . S
C309 H296 0.930 . S
C309 C308 1.388 . S
C309 C310 1.390 . S
C310 C309 1.390 . S
C310 C311 1.394 . S
C310 C316 1.465 . S
C311 C306 1.399 . S
C311 C310 1.394 . S
C311 C312 1.516 . S
C312 C311 1.516 . S
C312 C313 1.502 . S
C312 C314 1.561 . S
C312 C315 1.526 . S
C313 H297 0.959 . S
C313 H298 0.959 . S
C313 H299 0.961 . S
C313 C312 1.502 . S
C314 H300 0.960 . S
C314 H301 0.961 . S
C314 H302 0.959 . S
C314 C312 1.561 . S
C315 C312 1.526 . S
C315 C316 1.396 . S
C315 C320 1.390 . S
C316 C310 1.465 . S
C316 C315 1.396 . S
C316 C317 1.399 . S
C317 H303 0.929 . S
C317 C316 1.399 . S
C317 C318 1.385 . S
C318 H304 0.931 . S
C318 C317 1.385 . S
C318 C319 1.389 . S
C319 C318 1.389 . S
C319 C320 1.387 . S
C320 H305 0.930 . S
C320 C315 1.390 . S
C320 C319 1.387 . S
H321 C333 0.930 . S
H322 C335 0.930 . S
H323 C336 0.930 . S
H324 C340 0.959 . S
H325 C340 0.959 . S
H326 C340 0.961 . S
H327 C341 0.960 . S
H328 C341 0.961 . S
H329 C341 0.959 . S
H330 C344 0.929 . S
H331 C345 0.931 . S
H332 C347 0.930 . S
C333 H321 0.930 . S
C333 C334 1.399 . S
C333 C338 1.399 . S
C334 C333 1.399 . S
C334 C335 1.376 . S
C335 H322 0.930 . S
C335 C334 1.376 . S
C335 C336 1.388 . S
C336 H323 0.930 . S
C336 C335 1.388 . S
C336 C337 1.390 . S
C337 C336 1.390 . S
C337 C338 1.394 . S
C337 C343 1.465 . S
C338 C333 1.399 . S
C338 C337 1.394 . S
C338 C339 1.516 . S
C339 C338 1.516 . S
C339 C340 1.502 . S
C339 C341 1.561 . S
C339 C342 1.526 . S
C340 H324 0.959 . S
C340 H325 0.959 . S
C340 H326 0.961 . S
C340 C339 1.502 . S
C341 H327 0.960 . S
C341 H328 0.961 . S
C341 H329 0.959 . S
C341 C339 1.561 . S
C342 C339 1.526 . S
C342 C343 1.396 . S
C342 C347 1.390 . S
C343 C337 1.465 . S
C343 C342 1.396 . S
C343 C344 1.399 . S
C344 H330 0.929 . S
C344 C343 1.399 . S
C344 C345 1.385 . S
C345 H331 0.931 . S
C345 C344 1.385 . S
C345 C346 1.389 . S
C346 C345 1.389 . S
C346 C347 1.387 . S
C347 H332 0.930 . S
C347 C342 1.390 . S
C347 C346 1.387 . S
H348 C360 0.930 . S
H349 C362 0.930 . S
H350 C363 0.930 . S
H351 C367 0.959 . S
H352 C367 0.959 . S
H353 C367 0.961 . S
H354 C368 0.960 . S
H355 C368 0.961 . S
H356 C368 0.959 . S
H357 C371 0.929 . S
H358 C372 0.931 . S
H359 C374 0.930 . S
C360 H348 0.930 . S
C360 C361 1.399 . S
C360 C365 1.399 . S
C361 C360 1.399 . S
C361 C362 1.376 . S
C362 H349 0.930 . S
C362 C361 1.376 . S
C362 C363 1.388 . S
C363 H350 0.930 . S
C363 C362 1.388 . S
C363 C364 1.390 . S
C364 C363 1.390 . S
C364 C365 1.394 . S
C364 C370 1.465 . S
C365 C360 1.399 . S
C365 C364 1.394 . S
C365 C366 1.516 . S
C366 C365 1.516 . S
C366 C367 1.502 . S
C366 C368 1.561 . S
C366 C369 1.526 . S
C367 H351 0.959 . S
C367 H352 0.959 . S
C367 H353 0.961 . S
C367 C366 1.502 . S
C368 H354 0.960 . S
C368 H355 0.961 . S
C368 H356 0.959 . S
C368 C366 1.561 . S
C369 C366 1.526 . S
C369 C370 1.396 . S
C369 C374 1.390 . S
C370 C364 1.465 . S
C370 C369 1.396 . S
C370 C371 1.399 . S
C371 H357 0.929 . S
C371 C370 1.399 . S
C371 C372 1.385 . S
C372 H358 0.931 . S
C372 C371 1.385 . S
C372 C373 1.389 . S
C373 C372 1.389 . S
C373 C374 1.387 . S
C374 H359 0.930 . S
C374 C369 1.390 . S
C374 C373 1.387 . S
H375 C387 0.930 . S
H376 C389 0.930 . S
H377 C390 0.930 . S
H378 C394 0.959 . S
H379 C394 0.959 . S
H380 C394 0.961 . S
H381 C395 0.960 . S
H382 C395 0.961 . S
H383 C395 0.959 1_565 S
H384 C398 0.929 . S
H385 C399 0.931 . S
H386 C401 0.930 1_545 S
C387 H375 0.930 . S
C387 C388 1.399 . S
C387 C392 1.399 . S
C388 C387 1.399 . S
C388 C389 1.376 . S
C389 H376 0.930 . S
C389 C388 1.376 . S
C389 C390 1.388 . S
C390 H377 0.930 . S
C390 C389 1.388 . S
C390 C391 1.390 . S
C391 C390 1.390 . S
C391 C392 1.394 . S
C391 C397 1.465 . S
C392 C387 1.399 . S
C392 C391 1.394 . S
C392 C393 1.516 . S
C393 C392 1.516 . S
C393 C394 1.502 1_565 S
C393 C395 1.561 1_565 S
C393 C396 1.526 . S
C394 H378 0.959 . S
C394 H379 0.959 . S
C394 H380 0.961 . S
C394 C393 1.502 1_545 S
C395 H381 0.960 . S
C395 H382 0.961 . S
C395 H383 0.959 1_545 S
C395 C393 1.561 1_545 S
C396 C393 1.526 . S
C396 C397 1.396 . S
C396 C401 1.390 . S
C397 C391 1.465 . S
C397 C396 1.396 . S
C397 C398 1.399 . S
C398 H384 0.929 . S
C398 C397 1.399 . S
C398 C399 1.385 . S
C399 H385 0.931 . S
C399 C398 1.385 . S
C399 C400 1.389 . S
C400 C399 1.389 . S
C400 C401 1.387 . S
C401 H386 0.930 1_565 S
C401 C396 1.390 . S
C401 C400 1.387 . S
C103 C51 1.315 . S
C91 C34 1.461 . S
C118 C7 1.462 . S
C130 C75 1.316 . S
C145 C16 1.579 . S
C157 C54 1.302 . S
C172 C25 1.561 . S
C184 C72 1.399 . S
C211 C52 1.457 . S
C199 C5 1.488 . S
C238 C74 1.471 . S
C226 C13 1.550 . S
C253 C23 1.546 . S
C265 C53 1.430 . S
C280 C32 1.506 . S
C292 C73 1.396 . S
C319 C71 1.428 . S
C307 C14 1.545 . S
C346 C50 1.520 . S
C334 C22 1.552 . S
C373 C70 1.435 . S
C361 C31 1.478 . S
C388 C4 1.484 1_556 S
C400 C49 1.480 . S
