# Generated by pormake.
# Topology tbo, (3,4)-cn, num edge types: 1
# Building blocks:
#     Node 0, Type 0, BuildingBlock: WUSLED_clean_sbu_0, # of connection points: 3
#     Node 1, Type 0, BuildingBlock: WUSLED_clean_sbu_0, # of connection points: 3
#     Node 2, Type 0, BuildingBlock: WUSLED_clean_sbu_0, # of connection points: 3
#     Node 3, Type 0, BuildingBlock: WUSLED_clean_sbu_0, # of connection points: 3
#     Node 4, Type 0, BuildingBlock: WUSLED_clean_sbu_0, # of connection points: 3
#     Node 5, Type 0, BuildingBlock: WUSLED_clean_sbu_0, # of connection points: 3
#     Node 6, Type 0, BuildingBlock: WUSLED_clean_sbu_0, # of connection points: 3
#     Node 7, Type 0, BuildingBlock: WUSLED_clean_sbu_0, # of connection points: 3
#     Node 8, Type 0, BuildingBlock: WUSLED_clean_sbu_0, # of connection points: 3
#     Node 9, Type 0, BuildingBlock: WUSLED_clean_sbu_0, # of connection points: 3
#     Node 10, Type 0, BuildingBlock: WUSLED_clean_sbu_0, # of connection points: 3
#     Node 11, Type 0, BuildingBlock: WUSLED_clean_sbu_0, # of connection points: 3
#     Node 12, Type 0, BuildingBlock: WUSLED_clean_sbu_0, # of connection points: 3
#     Node 13, Type 0, BuildingBlock: WUSLED_clean_sbu_0, # of connection points: 3
#     Node 14, Type 0, BuildingBlock: WUSLED_clean_sbu_0, # of connection points: 3
#     Node 15, Type 0, BuildingBlock: WUSLED_clean_sbu_0, # of connection points: 3
#     Node 16, Type 0, BuildingBlock: WUSLED_clean_sbu_0, # of connection points: 3
#     Node 17, Type 0, BuildingBlock: WUSLED_clean_sbu_0, # of connection points: 3
#     Node 18, Type 0, BuildingBlock: WUSLED_clean_sbu_0, # of connection points: 3
#     Node 19, Type 0, BuildingBlock: WUSLED_clean_sbu_0, # of connection points: 3
#     Node 20, Type 0, BuildingBlock: WUSLED_clean_sbu_0, # of connection points: 3
#     Node 21, Type 0, BuildingBlock: WUSLED_clean_sbu_0, # of connection points: 3
#     Node 22, Type 0, BuildingBlock: WUSLED_clean_sbu_0, # of connection points: 3
#     Node 23, Type 0, BuildingBlock: WUSLED_clean_sbu_0, # of connection points: 3
#     Node 24, Type 0, BuildingBlock: WUSLED_clean_sbu_0, # of connection points: 3
#     Node 25, Type 0, BuildingBlock: WUSLED_clean_sbu_0, # of connection points: 3
#     Node 26, Type 0, BuildingBlock: WUSLED_clean_sbu_0, # of connection points: 3
#     Node 27, Type 0, BuildingBlock: WUSLED_clean_sbu_0, # of connection points: 3
#     Node 28, Type 0, BuildingBlock: WUSLED_clean_sbu_0, # of connection points: 3
#     Node 29, Type 0, BuildingBlock: WUSLED_clean_sbu_0, # of connection points: 3
#     Node 30, Type 0, BuildingBlock: WUSLED_clean_sbu_0, # of connection points: 3
#     Node 31, Type 0, BuildingBlock: WUSLED_clean_sbu_0, # of connection points: 3
#     Node 32, Type 1, BuildingBlock: NAWXER_clean_linker_0, # of connection points: 4
#     Node 33, Type 1, BuildingBlock: NAWXER_clean_linker_0, # of connection points: 4
#     Node 34, Type 1, BuildingBlock: NAWXER_clean_linker_0, # of connection points: 4
#     Node 35, Type 1, BuildingBlock: NAWXER_clean_linker_0, # of connection points: 4
#     Node 36, Type 1, BuildingBlock: NAWXER_clean_linker_0, # of connection points: 4
#     Node 37, Type 1, BuildingBlock: NAWXER_clean_linker_0, # of connection points: 4
#     Node 38, Type 1, BuildingBlock: NAWXER_clean_linker_0, # of connection points: 4
#     Node 39, Type 1, BuildingBlock: NAWXER_clean_linker_0, # of connection points: 4
#     Node 40, Type 1, BuildingBlock: NAWXER_clean_linker_0, # of connection points: 4
#     Node 41, Type 1, BuildingBlock: NAWXER_clean_linker_0, # of connection points: 4
#     Node 42, Type 1, BuildingBlock: NAWXER_clean_linker_0, # of connection points: 4
#     Node 43, Type 1, BuildingBlock: NAWXER_clean_linker_0, # of connection points: 4
#     Node 44, Type 1, BuildingBlock: NAWXER_clean_linker_0, # of connection points: 4
#     Node 45, Type 1, BuildingBlock: NAWXER_clean_linker_0, # of connection points: 4
#     Node 46, Type 1, BuildingBlock: NAWXER_clean_linker_0, # of connection points: 4
#     Node 47, Type 1, BuildingBlock: NAWXER_clean_linker_0, # of connection points: 4
#     Node 48, Type 1, BuildingBlock: NAWXER_clean_linker_0, # of connection points: 4
#     Node 49, Type 1, BuildingBlock: NAWXER_clean_linker_0, # of connection points: 4
#     Node 50, Type 1, BuildingBlock: NAWXER_clean_linker_0, # of connection points: 4
#     Node 51, Type 1, BuildingBlock: NAWXER_clean_linker_0, # of connection points: 4
#     Node 52, Type 1, BuildingBlock: NAWXER_clean_linker_0, # of connection points: 4
#     Node 53, Type 1, BuildingBlock: NAWXER_clean_linker_0, # of connection points: 4
#     Node 54, Type 1, BuildingBlock: NAWXER_clean_linker_0, # of connection points: 4
#     Node 55, Type 1, BuildingBlock: NAWXER_clean_linker_0, # of connection points: 4
#     Edge 56, Type (0, 1), BuildingBlock: XUDNAN_clean_linker_2, # of connection points: 2
#     Edge 57, Type (0, 1), BuildingBlock: XUDNAN_clean_linker_2, # of connection points: 2
#     Edge 58, Type (0, 1), BuildingBlock: XUDNAN_clean_linker_2, # of connection points: 2
#     Edge 59, Type (0, 1), BuildingBlock: XUDNAN_clean_linker_2, # of connection points: 2
#     Edge 60, Type (0, 1), BuildingBlock: XUDNAN_clean_linker_2, # of connection points: 2
#     Edge 61, Type (0, 1), BuildingBlock: XUDNAN_clean_linker_2, # of connection points: 2
#     Edge 62, Type (0, 1), BuildingBlock: XUDNAN_clean_linker_2, # of connection points: 2
#     Edge 63, Type (0, 1), BuildingBlock: XUDNAN_clean_linker_2, # of connection points: 2
#     Edge 64, Type (0, 1), BuildingBlock: XUDNAN_clean_linker_2, # of connection points: 2
#     Edge 65, Type (0, 1), BuildingBlock: XUDNAN_clean_linker_2, # of connection points: 2
#     Edge 66, Type (0, 1), BuildingBlock: XUDNAN_clean_linker_2, # of connection points: 2
#     Edge 67, Type (0, 1), BuildingBlock: XUDNAN_clean_linker_2, # of connection points: 2
#     Edge 68, Type (0, 1), BuildingBlock: XUDNAN_clean_linker_2, # of connection points: 2
#     Edge 69, Type (0, 1), BuildingBlock: XUDNAN_clean_linker_2, # of connection points: 2
#     Edge 70, Type (0, 1), BuildingBlock: XUDNAN_clean_linker_2, # of connection points: 2
#     Edge 71, Type (0, 1), BuildingBlock: XUDNAN_clean_linker_2, # of connection points: 2
#     Edge 72, Type (0, 1), BuildingBlock: XUDNAN_clean_linker_2, # of connection points: 2
#     Edge 73, Type (0, 1), BuildingBlock: XUDNAN_clean_linker_2, # of connection points: 2
#     Edge 74, Type (0, 1), BuildingBlock: XUDNAN_clean_linker_2, # of connection points: 2
#     Edge 75, Type (0, 1), BuildingBlock: XUDNAN_clean_linker_2, # of connection points: 2
#     Edge 76, Type (0, 1), BuildingBlock: XUDNAN_clean_linker_2, # of connection points: 2
#     Edge 77, Type (0, 1), BuildingBlock: XUDNAN_clean_linker_2, # of connection points: 2
#     Edge 78, Type (0, 1), BuildingBlock: XUDNAN_clean_linker_2, # of connection points: 2
#     Edge 79, Type (0, 1), BuildingBlock: XUDNAN_clean_linker_2, # of connection points: 2
#     Edge 80, Type (0, 1), BuildingBlock: XUDNAN_clean_linker_2, # of connection points: 2
#     Edge 81, Type (0, 1), BuildingBlock: XUDNAN_clean_linker_2, # of connection points: 2
#     Edge 82, Type (0, 1), BuildingBlock: XUDNAN_clean_linker_2, # of connection points: 2
#     Edge 83, Type (0, 1), BuildingBlock: XUDNAN_clean_linker_2, # of connection points: 2
#     Edge 84, Type (0, 1), BuildingBlock: XUDNAN_clean_linker_2, # of connection points: 2
#     Edge 85, Type (0, 1), BuildingBlock: XUDNAN_clean_linker_2, # of connection points: 2
#     Edge 86, Type (0, 1), BuildingBlock: XUDNAN_clean_linker_2, # of connection points: 2
#     Edge 87, Type (0, 1), BuildingBlock: XUDNAN_clean_linker_2, # of connection points: 2
#     Edge 88, Type (0, 1), BuildingBlock: XUDNAN_clean_linker_2, # of connection points: 2
#     Edge 89, Type (0, 1), BuildingBlock: XUDNAN_clean_linker_2, # of connection points: 2
#     Edge 90, Type (0, 1), BuildingBlock: XUDNAN_clean_linker_2, # of connection points: 2
#     Edge 91, Type (0, 1), BuildingBlock: XUDNAN_clean_linker_2, # of connection points: 2
#     Edge 92, Type (0, 1), BuildingBlock: XUDNAN_clean_linker_2, # of connection points: 2
#     Edge 93, Type (0, 1), BuildingBlock: XUDNAN_clean_linker_2, # of connection points: 2
#     Edge 94, Type (0, 1), BuildingBlock: XUDNAN_clean_linker_2, # of connection points: 2
#     Edge 95, Type (0, 1), BuildingBlock: XUDNAN_clean_linker_2, # of connection points: 2
#     Edge 96, Type (0, 1), BuildingBlock: XUDNAN_clean_linker_2, # of connection points: 2
#     Edge 97, Type (0, 1), BuildingBlock: XUDNAN_clean_linker_2, # of connection points: 2
#     Edge 98, Type (0, 1), BuildingBlock: XUDNAN_clean_linker_2, # of connection points: 2
#     Edge 99, Type (0, 1), BuildingBlock: XUDNAN_clean_linker_2, # of connection points: 2
#     Edge 100, Type (0, 1), BuildingBlock: XUDNAN_clean_linker_2, # of connection points: 2
#     Edge 101, Type (0, 1), BuildingBlock: XUDNAN_clean_linker_2, # of connection points: 2
#     Edge 102, Type (0, 1), BuildingBlock: XUDNAN_clean_linker_2, # of connection points: 2
#     Edge 103, Type (0, 1), BuildingBlock: XUDNAN_clean_linker_2, # of connection points: 2
#     Edge 104, Type (0, 1), BuildingBlock: XUDNAN_clean_linker_2, # of connection points: 2
#     Edge 105, Type (0, 1), BuildingBlock: XUDNAN_clean_linker_2, # of connection points: 2
#     Edge 106, Type (0, 1), BuildingBlock: XUDNAN_clean_linker_2, # of connection points: 2
#     Edge 107, Type (0, 1), BuildingBlock: XUDNAN_clean_linker_2, # of connection points: 2
#     Edge 108, Type (0, 1), BuildingBlock: XUDNAN_clean_linker_2, # of connection points: 2
#     Edge 109, Type (0, 1), BuildingBlock: XUDNAN_clean_linker_2, # of connection points: 2
#     Edge 110, Type (0, 1), BuildingBlock: XUDNAN_clean_linker_2, # of connection points: 2
#     Edge 111, Type (0, 1), BuildingBlock: XUDNAN_clean_linker_2, # of connection points: 2
#     Edge 112, Type (0, 1), BuildingBlock: XUDNAN_clean_linker_2, # of connection points: 2
#     Edge 113, Type (0, 1), BuildingBlock: XUDNAN_clean_linker_2, # of connection points: 2
#     Edge 114, Type (0, 1), BuildingBlock: XUDNAN_clean_linker_2, # of connection points: 2
#     Edge 115, Type (0, 1), BuildingBlock: XUDNAN_clean_linker_2, # of connection points: 2
#     Edge 116, Type (0, 1), BuildingBlock: XUDNAN_clean_linker_2, # of connection points: 2
#     Edge 117, Type (0, 1), BuildingBlock: XUDNAN_clean_linker_2, # of connection points: 2
#     Edge 118, Type (0, 1), BuildingBlock: XUDNAN_clean_linker_2, # of connection points: 2
#     Edge 119, Type (0, 1), BuildingBlock: XUDNAN_clean_linker_2, # of connection points: 2
#     Edge 120, Type (0, 1), BuildingBlock: XUDNAN_clean_linker_2, # of connection points: 2
#     Edge 121, Type (0, 1), BuildingBlock: XUDNAN_clean_linker_2, # of connection points: 2
#     Edge 122, Type (0, 1), BuildingBlock: XUDNAN_clean_linker_2, # of connection points: 2
#     Edge 123, Type (0, 1), BuildingBlock: XUDNAN_clean_linker_2, # of connection points: 2
#     Edge 124, Type (0, 1), BuildingBlock: XUDNAN_clean_linker_2, # of connection points: 2
#     Edge 125, Type (0, 1), BuildingBlock: XUDNAN_clean_linker_2, # of connection points: 2
#     Edge 126, Type (0, 1), BuildingBlock: XUDNAN_clean_linker_2, # of connection points: 2
#     Edge 127, Type (0, 1), BuildingBlock: XUDNAN_clean_linker_2, # of connection points: 2
#     Edge 128, Type (0, 1), BuildingBlock: XUDNAN_clean_linker_2, # of connection points: 2
#     Edge 129, Type (0, 1), BuildingBlock: XUDNAN_clean_linker_2, # of connection points: 2
#     Edge 130, Type (0, 1), BuildingBlock: XUDNAN_clean_linker_2, # of connection points: 2
#     Edge 131, Type (0, 1), BuildingBlock: XUDNAN_clean_linker_2, # of connection points: 2
#     Edge 132, Type (0, 1), BuildingBlock: XUDNAN_clean_linker_2, # of connection points: 2
#     Edge 133, Type (0, 1), BuildingBlock: XUDNAN_clean_linker_2, # of connection points: 2
#     Edge 134, Type (0, 1), BuildingBlock: XUDNAN_clean_linker_2, # of connection points: 2
#     Edge 135, Type (0, 1), BuildingBlock: XUDNAN_clean_linker_2, # of connection points: 2
#     Edge 136, Type (0, 1), BuildingBlock: XUDNAN_clean_linker_2, # of connection points: 2
#     Edge 137, Type (0, 1), BuildingBlock: XUDNAN_clean_linker_2, # of connection points: 2
#     Edge 138, Type (0, 1), BuildingBlock: XUDNAN_clean_linker_2, # of connection points: 2
#     Edge 139, Type (0, 1), BuildingBlock: XUDNAN_clean_linker_2, # of connection points: 2
#     Edge 140, Type (0, 1), BuildingBlock: XUDNAN_clean_linker_2, # of connection points: 2
#     Edge 141, Type (0, 1), BuildingBlock: XUDNAN_clean_linker_2, # of connection points: 2
#     Edge 142, Type (0, 1), BuildingBlock: XUDNAN_clean_linker_2, # of connection points: 2
#     Edge 143, Type (0, 1), BuildingBlock: XUDNAN_clean_linker_2, # of connection points: 2
#     Edge 144, Type (0, 1), BuildingBlock: XUDNAN_clean_linker_2, # of connection points: 2
#     Edge 145, Type (0, 1), BuildingBlock: XUDNAN_clean_linker_2, # of connection points: 2
#     Edge 146, Type (0, 1), BuildingBlock: XUDNAN_clean_linker_2, # of connection points: 2
#     Edge 147, Type (0, 1), BuildingBlock: XUDNAN_clean_linker_2, # of connection points: 2
#     Edge 148, Type (0, 1), BuildingBlock: XUDNAN_clean_linker_2, # of connection points: 2
#     Edge 149, Type (0, 1), BuildingBlock: XUDNAN_clean_linker_2, # of connection points: 2
#     Edge 150, Type (0, 1), BuildingBlock: XUDNAN_clean_linker_2, # of connection points: 2
#     Edge 151, Type (0, 1), BuildingBlock: XUDNAN_clean_linker_2, # of connection points: 2
# Relax obj value: 0.000
# Max RMSD: 0.012
# Mean RMSD: 0.006
data_MOF--net-tbo--node1-WUSLED_clean_sbu_0--node2-NAWXER_clean_linker_0--edge1-XUDNAN_clean_linker_2
_symmetry_space_group_name_H-M    P1
_symmetry_Int_Tables_number       1
_symmetry_cell_setting            triclinic
loop_
_symmetry_equiv_pos_as_xyz
'x, y, z'
_cell_length_a     107.59563
_cell_length_b     108.0203
_cell_length_c     107.88939
_cell_angle_alpha  89.678608
_cell_angle_beta   90.279333
_cell_angle_gamma 90.689443
loop_
_atom_site_label
_atom_site_type_symbol
_atom_site_fract_x
_atom_site_fract_y
_atom_site_fract_z
_atom_type_partial_charge
C0 C 0.18955 0.15503 0.20543 0.0
C1 C 0.19263 0.14473 0.19816 0.0
C2 C 0.20046 0.13393 0.21649 0.0
C3 C 0.19809 0.13429 0.20365 0.0
C4 C 0.19789 0.14448 0.22357 0.0
C5 C 0.19248 0.15487 0.21811 0.0
U6 U 0.18206 0.18239 0.18286 0.0
O7 O 0.16387 0.18812 0.17566 0.0
O8 O 0.17448 0.20057 0.18787 0.0
C9 C 0.16388 0.19842 0.18211 0.0
C10 C 0.18222 0.1655 0.2005 0.0
C11 C 0.15247 0.20104 0.1892 0.0
C12 C 0.13305 0.19436 0.19876 0.0
C13 C 0.14425 0.19153 0.1929 0.0
C14 C 0.13835 0.21618 0.19779 0.0
C15 C 0.12989 0.20673 0.20113 0.0
C16 C 0.1495 0.21336 0.19185 0.0
C17 C 0.20277 0.19142 0.15539 0.0
C18 C 0.19646 0.20557 0.13896 0.0
C19 C 0.21799 0.19951 0.14074 0.0
C20 C 0.21501 0.19213 0.15104 0.0
C21 C 0.20876 0.20634 0.13455 0.0
C22 C 0.19351 0.19822 0.1493 0.0
C23 C 0.19984 0.18356 0.16624 0.0
O24 O 0.18711 0.17663 0.20184 0.0
O25 O 0.17647 0.16397 0.18982 0.0
O26 O 0.18996 0.17636 0.16516 0.0
O27 O 0.20061 0.18905 0.17707 0.0
H28 H 0.19047 0.14458 0.18835 0.0
H29 H 0.19992 0.1263 0.19795 0.0
H30 H 0.19979 0.14459 0.23343 0.0
H31 H 0.1902 0.16266 0.22391 0.0
H32 H 0.12681 0.18685 0.20136 0.0
H33 H 0.14635 0.18193 0.19109 0.0
H34 H 0.13616 0.2258 0.19938 0.0
H35 H 0.1557 0.22084 0.18907 0.0
H36 H 0.18907 0.21054 0.13436 0.0
H37 H 0.22758 0.2 0.13776 0.0
H38 H 0.2223 0.18699 0.15565 0.0
H39 H 0.18399 0.19781 0.15251 0.0
C40 C 0.82441 0.1886 0.15408 0.0
C41 C 0.83388 0.19512 0.14785 0.0
C42 C 0.81868 0.20397 0.13358 0.0
C43 C 0.83106 0.20268 0.13767 0.0
C44 C 0.80924 0.19741 0.13989 0.0
C45 C 0.81209 0.18979 0.15003 0.0
U46 U 0.845 0.18076 0.1817 0.0
O47 O 0.8402 0.17503 0.20074 0.0
O48 O 0.85136 0.16289 0.18903 0.0
C49 C 0.84565 0.16427 0.19967 0.0
C50 C 0.82724 0.18075 0.16493 0.0
C51 C 0.83886 0.1534 0.20465 0.0
C52 C 0.8279 0.1337 0.20212 0.0
C53 C 0.83308 0.14455 0.19697 0.0
C54 C 0.83386 0.1407 0.22262 0.0
C55 C 0.82852 0.13153 0.21499 0.0
C56 C 0.83897 0.15149 0.2175 0.0
C57 C 0.87363 0.20095 0.18837 0.0
C58 C 0.89076 0.19487 0.20178 0.0
C59 C 0.88776 0.21653 0.19682 0.0
C60 C 0.87741 0.21335 0.18953 0.0
C61 C 0.89457 0.20733 0.20306 0.0
C62 C 0.88036 0.19173 0.19457 0.0
C63 C 0.86255 0.19785 0.18085 0.0
O64 O 0.83728 0.17398 0.16406 0.0
O65 O 0.82621 0.18619 0.17574 0.0
O66 O 0.85183 0.19949 0.18633 0.0
O67 O 0.863 0.18746 0.17458 0.0
H68 H 0.84347 0.19438 0.15086 0.0
H69 H 0.8386 0.20742 0.13296 0.0
H70 H 0.79959 0.19831 0.13715 0.0
H71 H 0.80464 0.1849 0.15478 0.0
H72 H 0.82387 0.1268 0.19601 0.0
H73 H 0.83286 0.14586 0.18701 0.0
H74 H 0.83427 0.13943 0.23258 0.0
H75 H 0.84334 0.15822 0.22359 0.0
H76 H 0.89585 0.18751 0.20629 0.0
H77 H 0.89026 0.22622 0.19773 0.0
H78 H 0.87229 0.22062 0.18489 0.0
H79 H 0.87758 0.18208 0.19385 0.0
C80 C 0.82205 0.83849 0.15418 0.0
C81 C 0.83002 0.83304 0.14552 0.0
C82 C 0.81224 0.82371 0.13476 0.0
C83 C 0.82515 0.82576 0.13585 0.0
C84 C 0.80434 0.82929 0.1434 0.0
C85 C 0.80919 0.83659 0.15295 0.0
U86 U 0.84384 0.84594 0.18193 0.0
O87 O 0.8515 0.86387 0.18811 0.0
O88 O 0.8387 0.85346 0.20012 0.0
C89 C 0.84483 0.86389 0.19829 0.0
C90 C 0.82668 0.8463 0.16449 0.0
C91 C 0.83785 0.8753 0.20077 0.0
C92 C 0.82483 0.89229 0.19384 0.0
C93 C 0.83114 0.88131 0.19135 0.0
C94 C 0.83158 0.89122 0.21526 0.0
C95 C 0.82504 0.89743 0.20582 0.0
C96 C 0.83793 0.88028 0.21274 0.0
C97 C 0.86973 0.82226 0.19053 0.0
C98 C 0.89075 0.82373 0.19905 0.0
C99 C 0.87972 0.80408 0.19924 0.0
C100 C 0.86942 0.80966 0.19372 0.0
C101 C 0.89063 0.81095 0.20168 0.0
C102 C 0.8804 0.82934 0.19347 0.0
C103 C 0.85927 0.82727 0.18314 0.0
O104 O 0.82472 0.84189 0.17569 0.0
O105 O 0.83769 0.85158 0.16323 0.0
O106 O 0.86141 0.83732 0.1765 0.0
O107 O 0.84828 0.8271 0.18841 0.0
H108 H 0.84 0.83435 0.14624 0.0
H109 H 0.83148 0.82154 0.12939 0.0
H110 H 0.79436 0.82808 0.14272 0.0
H111 H 0.80285 0.84077 0.15944 0.0
H112 H 0.81976 0.89673 0.18639 0.0
H113 H 0.83084 0.87755 0.18206 0.0
H114 H 0.83204 0.89497 0.22454 0.0
H115 H 0.84303 0.87576 0.22014 0.0
H116 H 0.89903 0.82927 0.20078 0.0
H117 H 0.87923 0.79427 0.20134 0.0
H118 H 0.86132 0.804 0.19156 0.0
H119 H 0.8809 0.83909 0.19112 0.0
C120 C 0.15193 0.82556 0.18995 0.0
C121 C 0.15225 0.82814 0.20269 0.0
C122 C 0.13114 0.8199 0.20504 0.0
C123 C 0.14198 0.82529 0.21016 0.0
C124 C 0.13086 0.81746 0.19223 0.0
C125 C 0.14116 0.82023 0.18479 0.0
U126 U 0.18041 0.84516 0.18064 0.0
O127 O 0.19898 0.83951 0.17468 0.0
O128 O 0.1872 0.85021 0.16198 0.0
C129 C 0.19755 0.84401 0.16342 0.0
C130 C 0.16273 0.82821 0.18192 0.0
C131 C 0.20107 0.83582 0.1531 0.0
C132 C 0.20532 0.81537 0.14488 0.0
C133 C 0.20076 0.82286 0.15434 0.0
C134 C 0.21003 0.83362 0.13256 0.0
C135 C 0.2102 0.82067 0.13396 0.0
C136 C 0.20555 0.84111 0.14206 0.0
C137 C 0.18907 0.87414 0.19946 0.0
C138 C 0.20941 0.8842 0.20031 0.0
C139 C 0.19129 0.89501 0.2076 0.0
C140 C 0.18382 0.88475 0.2046 0.0
C141 C 0.2042 0.89486 0.20557 0.0
C142 C 0.20191 0.87397 0.19725 0.0
C143 C 0.18103 0.86331 0.19676 0.0
O144 O 0.16193 0.83817 0.17492 0.0
O145 O 0.17375 0.82691 0.18706 0.0
O146 O 0.18594 0.8524 0.19887 0.0
O147 O 0.17466 0.8638 0.18635 0.0
H148 H 0.16045 0.83228 0.2069 0.0
H149 H 0.14263 0.82717 0.21999 0.0
H150 H 0.12264 0.81352 0.1879 0.0
H151 H 0.1407 0.81822 0.17497 0.0
H152 H 0.20516 0.80542 0.14617 0.0
H153 H 0.19725 0.81853 0.16273 0.0
H154 H 0.21381 0.83801 0.12433 0.0
H155 H 0.20589 0.85108 0.14092 0.0
H156 H 0.21932 0.88366 0.19875 0.0
H157 H 0.1869 0.90311 0.21141 0.0
H158 H 0.17392 0.88509 0.20633 0.0
H159 H 0.20617 0.86588 0.19327 0.0
C160 C 0.15319 0.82326 0.84465 0.0
C161 C 0.15146 0.82342 0.83172 0.0
C162 C 0.13194 0.81187 0.83392 0.0
C163 C 0.1409 0.81779 0.8264 0.0
C164 C 0.1335 0.81225 0.84687 0.0
C165 C 0.14401 0.81785 0.85216 0.0
U166 U 0.18208 0.84488 0.84749 0.0
O167 O 0.1909 0.85244 0.86429 0.0
O168 O 0.2013 0.83984 0.85239 0.0
C169 C 0.20116 0.84614 0.86277 0.0
C170 C 0.16479 0.82776 0.85056 0.0
C171 C 0.20632 0.83994 0.87385 0.0
C172 C 0.20407 0.83011 0.89412 0.0
C173 C 0.19873 0.83487 0.88322 0.0
C174 C 0.22457 0.83505 0.8862 0.0
C175 C 0.21706 0.8304 0.89584 0.0
C176 C 0.21925 0.83977 0.87535 0.0
C177 C 0.18884 0.87109 0.82437 0.0
C178 C 0.20916 0.87967 0.81903 0.0
C179 C 0.19062 0.8914 0.81456 0.0
C180 C 0.1833 0.88184 0.81964 0.0
C181 C 0.20362 0.89033 0.81401 0.0
C182 C 0.20186 0.87018 0.82421 0.0
C183 C 0.18092 0.86084 0.82907 0.0
O184 O 0.17512 0.82595 0.84441 0.0
O185 O 0.1644 0.83866 0.85591 0.0
O186 O 0.17558 0.86267 0.83983 0.0
O187 O 0.18543 0.84964 0.82796 0.0
H188 H 0.15842 0.82758 0.82574 0.0
H189 H 0.14 0.81765 0.8164 0.0
H190 H 0.12667 0.80801 0.85295 0.0
H191 H 0.14512 0.81767 0.86215 0.0
H192 H 0.19804 0.82662 0.90138 0.0
H193 H 0.18871 0.83487 0.88223 0.0
H194 H 0.2346 0.83519 0.8871 0.0
H195 H 0.22527 0.84357 0.86822 0.0
H196 H 0.21916 0.87865 0.8189 0.0
H197 H 0.18606 0.89945 0.81071 0.0
H198 H 0.17329 0.88275 0.81969 0.0
H199 H 0.20639 0.86205 0.82793 0.0
C200 C 0.15473 0.18889 0.82252 0.0
C201 C 0.14538 0.19332 0.83035 0.0
C202 C 0.13559 0.20404 0.81293 0.0
C203 C 0.13587 0.20079 0.82558 0.0
C204 C 0.14499 0.19957 0.80517 0.0
C205 C 0.15441 0.19209 0.80991 0.0
U206 U 0.18105 0.17897 0.84506 0.0
O207 O 0.18574 0.16036 0.85186 0.0
O208 O 0.19913 0.17077 0.84047 0.0
C209 C 0.19635 0.16016 0.84586 0.0
C210 C 0.16464 0.18055 0.82699 0.0
C211 C 0.19894 0.14888 0.83863 0.0
C212 C 0.19206 0.13024 0.82787 0.0
C213 C 0.18932 0.14135 0.83387 0.0
C214 C 0.21405 0.13425 0.83085 0.0
C215 C 0.20446 0.12648 0.82642 0.0
C216 C 0.21131 0.14531 0.83692 0.0
C217 C 0.18944 0.19887 0.87366 0.0
C218 C 0.19764 0.19264 0.8938 0.0
C219 C 0.19878 0.21416 0.88749 0.0
C220 C 0.19306 0.21112 0.8762 0.0
C221 C 0.2009 0.20499 0.89654 0.0
C222 C 0.192 0.18959 0.88247 0.0
C223 C 0.1823 0.19616 0.86221 0.0
O224 O 0.1761 0.18483 0.82609 0.0
O225 O 0.16259 0.17442 0.83736 0.0
O226 O 0.17458 0.18664 0.86267 0.0
O227 O 0.18844 0.19692 0.85172 0.0
H228 H 0.14538 0.191 0.84013 0.0
H229 H 0.12883 0.20415 0.83182 0.0
H230 H 0.14497 0.2017 0.79535 0.0
H231 H 0.16144 0.18869 0.80366 0.0
H232 H 0.18445 0.12455 0.82442 0.0
H233 H 0.1797 0.14393 0.83496 0.0
H234 H 0.22368 0.13159 0.83 0.0
H235 H 0.21887 0.15096 0.84052 0.0
H236 H 0.1993 0.18533 0.9005 0.0
H237 H 0.20107 0.22377 0.88933 0.0
H238 H 0.19116 0.21843 0.86956 0.0
H239 H 0.1894 0.18004 0.88072 0.0
C240 C 0.82229 0.15415 0.83876 0.0
C241 C 0.82162 0.1557 0.82583 0.0
C242 C 0.81263 0.13497 0.82362 0.0
C243 C 0.8168 0.14622 0.81835 0.0
C244 C 0.81375 0.1333 0.83651 0.0
C245 C 0.81848 0.14282 0.844 0.0
U246 U 0.8437 0.18153 0.84821 0.0
O247 O 0.83875 0.19966 0.85575 0.0
O248 O 0.85009 0.187 0.86688 0.0
C249 C 0.84391 0.19742 0.86659 0.0
C250 C 0.82619 0.16439 0.84702 0.0
C251 C 0.83617 0.19998 0.8775 0.0
C252 C 0.81621 0.19964 0.88803 0.0
C253 C 0.82351 0.1967 0.87776 0.0
C254 C 0.83419 0.20897 0.89801 0.0
C255 C 0.82145 0.20586 0.89829 0.0
C256 C 0.84145 0.20608 0.88772 0.0
C257 C 0.87178 0.19076 0.82809 0.0
C258 C 0.88919 0.20382 0.83453 0.0
C259 C 0.88585 0.19962 0.81274 0.0
C260 C 0.87541 0.19236 0.81571 0.0
C261 C 0.89292 0.20543 0.82211 0.0
C262 C 0.87871 0.1966 0.83749 0.0
C263 C 0.86083 0.18291 0.83094 0.0
O264 O 0.83665 0.16288 0.85316 0.0
O265 O 0.82486 0.1757 0.84266 0.0
O266 O 0.84999 0.18831 0.82995 0.0
O267 O 0.86173 0.17576 0.84081 0.0
H268 H 0.82458 0.16432 0.82152 0.0
H269 H 0.81623 0.14774 0.80843 0.0
H270 H 0.81053 0.12481 0.84088 0.0
H271 H 0.81888 0.14142 0.85395 0.0
H272 H 0.80642 0.19722 0.88781 0.0
H273 H 0.81923 0.19198 0.86997 0.0
H274 H 0.83861 0.21356 0.9058 0.0
H275 H 0.85122 0.20865 0.88771 0.0
H276 H 0.89447 0.208 0.84202 0.0
H277 H 0.88828 0.20079 0.80308 0.0
H278 H 0.87015 0.18797 0.80832 0.0
H279 H 0.87606 0.19552 0.84711 0.0
C280 C 0.83936 0.87504 0.8268 0.0
C281 C 0.8357 0.88279 0.8365 0.0
C282 C 0.82767 0.89784 0.8216 0.0
C283 C 0.82995 0.89409 0.83393 0.0
C284 C 0.83103 0.88987 0.81195 0.0
C285 C 0.83685 0.87862 0.81453 0.0
U286 U 0.84596 0.84533 0.84556 0.0
O287 O 0.85005 0.82657 0.83885 0.0
O288 O 0.86378 0.83663 0.85021 0.0
C289 C 0.86135 0.82672 0.84356 0.0
C290 C 0.84615 0.86343 0.82917 0.0
C291 C 0.87143 0.82197 0.83561 0.0
C292 C 0.89287 0.82255 0.8283 0.0
C293 C 0.88292 0.82821 0.83434 0.0
C294 C 0.87986 0.80459 0.82425 0.0
C295 C 0.89155 0.81052 0.82349 0.0
C296 C 0.86996 0.81022 0.83026 0.0
C297 C 0.82653 0.83732 0.87445 0.0
C298 C 0.82251 0.81679 0.88306 0.0
C299 C 0.81752 0.83495 0.89501 0.0
C300 C 0.82194 0.84253 0.88537 0.0
C301 C 0.81752 0.82199 0.89386 0.0
C302 C 0.82702 0.82437 0.87347 0.0
C303 C 0.83003 0.8455 0.86397 0.0
O304 O 0.85343 0.86323 0.83901 0.0
O305 O 0.83974 0.85312 0.82767 0.0
O306 O 0.82732 0.84131 0.85285 0.0
O307 O 0.84107 0.85082 0.8646 0.0
H308 H 0.83742 0.88019 0.84607 0.0
H309 H 0.82733 0.89993 0.84159 0.0
H310 H 0.82953 0.89252 0.80236 0.0
H311 H 0.83959 0.87278 0.8069 0.0
H312 H 0.90176 0.82735 0.82793 0.0
H313 H 0.88439 0.83726 0.8384 0.0
H314 H 0.87844 0.79542 0.82045 0.0
H315 H 0.86124 0.80517 0.83112 0.0
H316 H 0.8228 0.80684 0.88195 0.0
H317 H 0.81366 0.83926 0.90315 0.0
H318 H 0.82148 0.8525 0.88632 0.0
H319 H 0.83061 0.82012 0.86518 0.0
C320 C 0.1886 0.65184 0.70126 0.0
C321 C 0.19021 0.64093 0.6944 0.0
C322 C 0.20429 0.63285 0.71025 0.0
C323 C 0.19796 0.63152 0.69887 0.0
C324 C 0.20257 0.64374 0.71708 0.0
C325 C 0.19481 0.65307 0.71267 0.0
U326 U 0.17857 0.67868 0.67952 0.0
O327 O 0.1599 0.68443 0.67361 0.0
O328 O 0.17151 0.69698 0.68477 0.0
C329 C 0.16051 0.69486 0.67985 0.0
C330 C 0.18013 0.66182 0.69713 0.0
C331 C 0.14973 0.69782 0.68773 0.0
C332 C 0.13125 0.69176 0.69932 0.0
C333 C 0.14152 0.6886 0.69211 0.0
C334 C 0.13731 0.71338 0.69803 0.0
C335 C 0.129 0.7042 0.70239 0.0
C336 C 0.14752 0.71022 0.69076 0.0
C337 C 0.19864 0.68789 0.65134 0.0
C338 C 0.20089 0.70826 0.64182 0.0
C339 C 0.20841 0.6902 0.63114 0.0
C340 C 0.20431 0.68268 0.64095 0.0
C341 C 0.20699 0.70312 0.63158 0.0
C342 C 0.19671 0.70072 0.65158 0.0
C343 C 0.19556 0.67991 0.6621 0.0
O344 O 0.18447 0.67318 0.69828 0.0
O345 O 0.17377 0.66012 0.68681 0.0
O346 O 0.18543 0.67304 0.66115 0.0
O347 O 0.19691 0.68502 0.67307 0.0
H348 H 0.18549 0.63963 0.68561 0.0
H349 H 0.19913 0.62327 0.69335 0.0
H350 H 0.20711 0.64499 0.72598 0.0
H351 H 0.19359 0.66126 0.71826 0.0
H352 H 0.12499 0.68444 0.70234 0.0
H353 H 0.14299 0.67896 0.68992 0.0
H354 H 0.13604 0.72301 0.70035 0.0
H355 H 0.15374 0.71749 0.68751 0.0
H356 H 0.1995 0.71816 0.64237 0.0
H357 H 0.21315 0.68596 0.62345 0.0
H358 H 0.2059 0.6728 0.64058 0.0
H359 H 0.19226 0.70496 0.65945 0.0
C360 C 0.82607 0.68662 0.65128 0.0
C361 C 0.82612 0.69959 0.65003 0.0
C362 C 0.81999 0.69778 0.6283 0.0
C363 C 0.82304 0.70512 0.63864 0.0
C364 C 0.81991 0.68482 0.62966 0.0
C365 C 0.82289 0.67933 0.64101 0.0
U366 U 0.84515 0.6827 0.68144 0.0
O367 O 0.83894 0.67688 0.69999 0.0
O368 O 0.85212 0.66545 0.68981 0.0
C369 C 0.84478 0.66626 0.69947 0.0
C370 C 0.82915 0.68037 0.66309 0.0
C371 C 0.83729 0.65505 0.70228 0.0
C372 C 0.81769 0.64358 0.70185 0.0
C373 C 0.82459 0.65434 0.69925 0.0
C374 C 0.83609 0.63401 0.71041 0.0
C375 C 0.82334 0.63323 0.70742 0.0
C376 C 0.84296 0.64482 0.70788 0.0
C377 C 0.87164 0.70651 0.68874 0.0
C378 C 0.89286 0.70596 0.69679 0.0
C379 C 0.88104 0.72482 0.6981 0.0
C380 C 0.87089 0.71889 0.69248 0.0
C381 C 0.89226 0.71854 0.70005 0.0
C382 C 0.88266 0.7 0.69116 0.0
C383 C 0.86131 0.70114 0.6813 0.0
O384 O 0.83987 0.67469 0.66341 0.0
O385 O 0.82672 0.68637 0.67335 0.0
O386 O 0.85008 0.70202 0.68595 0.0
O387 O 0.86325 0.6905 0.6758 0.0
H388 H 0.82858 0.70543 0.65781 0.0
H389 H 0.82327 0.71513 0.63786 0.0
H390 H 0.81742 0.6789 0.62194 0.0
H391 H 0.82272 0.66932 0.64179 0.0
H392 H 0.80787 0.64343 0.69958 0.0
H393 H 0.82 0.66209 0.69486 0.0
H394 H 0.84083 0.6262 0.7145 0.0
H395 H 0.85277 0.64514 0.71022 0.0
H396 H 0.90138 0.70086 0.6981 0.0
H397 H 0.88017 0.73445 0.70069 0.0
H398 H 0.86254 0.72413 0.6907 0.0
H399 H 0.88356 0.69044 0.68836 0.0
C400 C 0.8267 0.33877 0.65225 0.0
C401 C 0.83633 0.33517 0.64434 0.0
C402 C 0.82119 0.32693 0.62949 0.0
C403 C 0.8336 0.32935 0.63306 0.0
C404 C 0.81162 0.33021 0.63763 0.0
C405 C 0.81436 0.33609 0.64887 0.0
U406 U 0.84583 0.346 0.68177 0.0
O407 O 0.85031 0.364 0.69027 0.0
O408 O 0.8393 0.3502 0.7006 0.0
C409 C 0.84382 0.36156 0.70031 0.0
C410 C 0.82922 0.3457 0.6638 0.0
C411 C 0.83554 0.37137 0.70486 0.0
C412 C 0.82344 0.39013 0.70193 0.0
C413 C 0.83081 0.38069 0.69706 0.0
C414 C 0.82537 0.38099 0.72237 0.0
C415 C 0.82061 0.39037 0.71466 0.0
C416 C 0.83274 0.37164 0.71753 0.0
C417 C 0.87485 0.32706 0.68975 0.0
C418 C 0.88448 0.32625 0.71018 0.0
C419 C 0.89417 0.31595 0.69292 0.0
C420 C 0.8846 0.32 0.68508 0.0
C421 C 0.89412 0.31885 0.70562 0.0
C422 C 0.87495 0.33034 0.70232 0.0
C423 C 0.86434 0.33031 0.68157 0.0
O424 O 0.82785 0.33945 0.6742 0.0
O425 O 0.83905 0.35306 0.66384 0.0
O426 O 0.8649 0.34126 0.6762 0.0
O427 O 0.85325 0.32757 0.68591 0.0
H428 H 0.84595 0.33702 0.64679 0.0
H429 H 0.8412 0.3268 0.62709 0.0
H430 H 0.80197 0.3286 0.63513 0.0
H431 H 0.80679 0.33878 0.65482 0.0
H432 H 0.81984 0.39716 0.69572 0.0
H433 H 0.83283 0.38072 0.68723 0.0
H434 H 0.82358 0.38098 0.73224 0.0
H435 H 0.83638 0.36463 0.72374 0.0
H436 H 0.88425 0.32881 0.71987 0.0
H437 H 0.90135 0.31019 0.68911 0.0
H438 H 0.88467 0.31735 0.67541 0.0
H439 H 0.86754 0.33584 0.7061 0.0
C440 C 0.15208 0.3253 0.68877 0.0
C441 C 0.14552 0.33486 0.69446 0.0
C442 C 0.13114 0.31981 0.7037 0.0
C443 C 0.13513 0.33215 0.7018 0.0
C444 C 0.13782 0.31027 0.69801 0.0
C445 C 0.14816 0.313 0.69061 0.0
U446 U 0.18087 0.34468 0.68004 0.0
O447 O 0.19921 0.33855 0.67359 0.0
O448 O 0.18779 0.3505 0.66176 0.0
C449 C 0.19787 0.34379 0.66265 0.0
C450 C 0.16299 0.32792 0.68089 0.0
C451 C 0.20054 0.33597 0.65186 0.0
C452 C 0.1938 0.32165 0.63579 0.0
C453 C 0.19132 0.32834 0.64657 0.0
C454 C 0.21487 0.3298 0.63572 0.0
C455 C 0.20557 0.32242 0.63014 0.0
C456 C 0.21236 0.33653 0.64645 0.0
C457 C 0.18948 0.3734 0.69936 0.0
C458 C 0.2096 0.3839 0.70008 0.0
C459 C 0.19129 0.39433 0.70744 0.0
C460 C 0.18404 0.3839 0.70452 0.0
C461 C 0.20419 0.39447 0.7053 0.0
C462 C 0.20232 0.37349 0.6971 0.0
C463 C 0.1816 0.36249 0.69654 0.0
O464 O 0.16246 0.33797 0.67398 0.0
O465 O 0.17387 0.32642 0.68623 0.0
O466 O 0.18667 0.3516 0.69833 0.0
O467 O 0.17508 0.36314 0.68623 0.0
H468 H 0.1484 0.34443 0.6932 0.0
H469 H 0.13015 0.33975 0.70587 0.0
H470 H 0.13519 0.30066 0.69941 0.0
H471 H 0.15313 0.30549 0.68635 0.0
H472 H 0.18648 0.31592 0.63185 0.0
H473 H 0.18215 0.32773 0.65065 0.0
H474 H 0.22398 0.33071 0.63156 0.0
H475 H 0.21959 0.34238 0.6504 0.0
H476 H 0.21951 0.38358 0.69844 0.0
H477 H 0.18674 0.40234 0.71124 0.0
H478 H 0.17413 0.38404 0.70629 0.0
H479 H 0.20673 0.3655 0.6931 0.0
C480 C 0.15287 0.32363 0.3424 0.0
C481 C 0.15135 0.32437 0.32947 0.0
C482 C 0.13209 0.31229 0.33083 0.0
C483 C 0.14101 0.31877 0.32372 0.0
C484 C 0.13341 0.31211 0.34381 0.0
C485 C 0.14369 0.3177 0.34951 0.0
U486 U 0.18207 0.34472 0.34626 0.0
O487 O 0.19035 0.35195 0.3635 0.0
O488 O 0.20085 0.33912 0.35202 0.0
C489 C 0.20023 0.34497 0.36263 0.0
C490 C 0.16428 0.32802 0.34869 0.0
C491 C 0.20317 0.33742 0.37366 0.0
C492 C 0.19705 0.32239 0.38941 0.0
C493 C 0.19405 0.3299 0.37924 0.0
C494 C 0.21836 0.32982 0.38855 0.0
C495 C 0.20928 0.32217 0.39415 0.0
C496 C 0.21532 0.33737 0.3784 0.0
C497 C 0.18988 0.37046 0.32247 0.0
C498 C 0.20231 0.38933 0.32473 0.0
C499 C 0.19939 0.38023 0.30445 0.0
C500 C 0.1921 0.3708 0.30968 0.0
C501 C 0.20461 0.38961 0.3119 0.0
C502 C 0.19506 0.3798 0.32999 0.0
C503 C 0.18197 0.36038 0.32755 0.0
O504 O 0.17479 0.32594 0.34297 0.0
O505 O 0.16387 0.33899 0.35388 0.0
O506 O 0.17634 0.36249 0.33811 0.0
O507 O 0.18656 0.34918 0.32684 0.0
H508 H 0.15834 0.32894 0.32381 0.0
H509 H 0.14027 0.31906 0.31371 0.0
H510 H 0.12659 0.30741 0.34956 0.0
H511 H 0.14466 0.31707 0.3595 0.0
H512 H 0.18977 0.31678 0.39358 0.0
H513 H 0.18461 0.32977 0.37569 0.0
H514 H 0.22789 0.32978 0.39181 0.0
H515 H 0.22251 0.34305 0.37415 0.0
H516 H 0.20628 0.39637 0.33073 0.0
H517 H 0.20082 0.38027 0.29452 0.0
H518 H 0.18814 0.36374 0.30369 0.0
H519 H 0.19352 0.37975 0.3399 0.0
C520 C 0.15181 0.68791 0.32488 0.0
C521 C 0.14228 0.692 0.3327 0.0
C522 C 0.13271 0.70327 0.31551 0.0
C523 C 0.1328 0.69957 0.32804 0.0
C524 C 0.14224 0.69909 0.30774 0.0
C525 C 0.15163 0.6915 0.31236 0.0
U526 U 0.17877 0.6786 0.34686 0.0
O527 O 0.18394 0.66011 0.35386 0.0
O528 O 0.19688 0.67074 0.34211 0.0
C529 C 0.19458 0.66023 0.34792 0.0
C530 C 0.16181 0.67961 0.32925 0.0
C531 C 0.19816 0.64865 0.34164 0.0
C532 C 0.20592 0.63752 0.32368 0.0
C533 C 0.20075 0.64819 0.32887 0.0
C534 C 0.20545 0.62752 0.3438 0.0
C535 C 0.20867 0.6272 0.33119 0.0
C536 C 0.20029 0.63811 0.34895 0.0
C537 C 0.18841 0.69889 0.37445 0.0
C538 C 0.20841 0.6982 0.38507 0.0
C539 C 0.19099 0.70812 0.39486 0.0
C540 C 0.18352 0.70528 0.38456 0.0
C541 C 0.20356 0.70464 0.39526 0.0
C542 C 0.20091 0.69531 0.37481 0.0
C543 C 0.18038 0.69613 0.36364 0.0
O544 O 0.17324 0.68382 0.32787 0.0
O545 O 0.16009 0.67374 0.33984 0.0
O546 O 0.173 0.68641 0.36476 0.0
O547 O 0.18572 0.69689 0.35272 0.0
H548 H 0.14215 0.68937 0.3424 0.0
H549 H 0.12564 0.70269 0.33429 0.0
H550 H 0.14236 0.70157 0.298 0.0
H551 H 0.15877 0.68837 0.30611 0.0
H552 H 0.20831 0.63757 0.31394 0.0
H553 H 0.19921 0.65618 0.32299 0.0
H554 H 0.20725 0.61966 0.3498 0.0
H555 H 0.19839 0.63823 0.3588 0.0
H556 H 0.21807 0.69551 0.38492 0.0
H557 H 0.18684 0.71289 0.40258 0.0
H558 H 0.17388 0.70808 0.3845 0.0
H559 H 0.20491 0.69033 0.36713 0.0
C560 C 0.82453 0.65168 0.34403 0.0
C561 C 0.82296 0.65079 0.33111 0.0
C562 C 0.81833 0.62869 0.33297 0.0
C563 C 0.81983 0.63941 0.32565 0.0
C564 C 0.81992 0.62964 0.34589 0.0
C565 C 0.82294 0.64101 0.35134 0.0
U566 U 0.844 0.68159 0.34776 0.0
O567 O 0.83798 0.70063 0.3514 0.0
O568 O 0.85014 0.69117 0.36472 0.0
C569 C 0.8435 0.70104 0.36228 0.0
C570 C 0.82753 0.66359 0.35016 0.0
C571 C 0.83603 0.706 0.37251 0.0
C572 C 0.8227 0.70344 0.39057 0.0
C573 C 0.82974 0.69828 0.38101 0.0
C574 C 0.82818 0.724 0.38321 0.0
C575 C 0.82176 0.71638 0.39171 0.0
C576 C 0.83522 0.71887 0.37374 0.0
C577 C 0.87101 0.68804 0.325 0.0
C578 C 0.88922 0.70153 0.32716 0.0
C579 C 0.88158 0.69608 0.30673 0.0
C580 C 0.87212 0.68891 0.31209 0.0
C581 C 0.89022 0.70253 0.31418 0.0
C582 C 0.87965 0.69439 0.33253 0.0
C583 C 0.86079 0.68038 0.3302 0.0
O584 O 0.838 0.66402 0.35649 0.0
O585 O 0.82549 0.67373 0.3437 0.0
O586 O 0.84953 0.68461 0.32834 0.0
O587 O 0.86242 0.67571 0.34137 0.0
H588 H 0.82415 0.65886 0.32521 0.0
H589 H 0.8188 0.63897 0.31567 0.0
H590 H 0.81868 0.6216 0.35182 0.0
H591 H 0.824 0.64146 0.36132 0.0
H592 H 0.81781 0.69732 0.39692 0.0
H593 H 0.83021 0.68831 0.38021 0.0
H594 H 0.82783 0.73399 0.38392 0.0
H595 H 0.84005 0.72498 0.36733 0.0
H596 H 0.89568 0.70646 0.33314 0.0
H597 H 0.88219 0.69648 0.29672 0.0
H598 H 0.86562 0.68403 0.3061 0.0
H599 H 0.87898 0.6939 0.34254 0.0
C600 C 0.84241 0.37507 0.32559 0.0
C601 C 0.82939 0.37602 0.32514 0.0
C602 C 0.83123 0.39591 0.3144 0.0
C603 C 0.82384 0.38641 0.31962 0.0
C604 C 0.84423 0.39514 0.31545 0.0
C605 C 0.84974 0.38484 0.32097 0.0
U606 U 0.84748 0.34567 0.34614 0.0
O607 O 0.85338 0.32727 0.33985 0.0
O608 O 0.86523 0.33798 0.35256 0.0
C609 C 0.86424 0.32819 0.34542 0.0
C610 C 0.84871 0.36366 0.32966 0.0
C611 C 0.87514 0.32552 0.33765 0.0
C612 C 0.89229 0.33238 0.3246 0.0
C613 C 0.88194 0.33509 0.33187 0.0
C614 C 0.8891 0.31051 0.32863 0.0
C615 C 0.89601 0.32005 0.32284 0.0
C616 C 0.87879 0.31323 0.33597 0.0
C617 C 0.82618 0.33672 0.37326 0.0
C618 C 0.82553 0.31639 0.38307 0.0
C619 C 0.81471 0.33349 0.39241 0.0
C620 C 0.81879 0.3413 0.38282 0.0
C621 C 0.81791 0.32089 0.39258 0.0
C622 C 0.82966 0.32423 0.37352 0.0
C623 C 0.82991 0.34501 0.36299 0.0
O624 O 0.85462 0.36405 0.34035 0.0
O625 O 0.8428 0.35312 0.32774 0.0
O626 O 0.8285 0.34049 0.35177 0.0
O627 O 0.84048 0.35104 0.3645 0.0
H628 H 0.82353 0.36859 0.32867 0.0
H629 H 0.8138 0.38673 0.31894 0.0
H630 H 0.85018 0.4024 0.31172 0.0
H631 H 0.85979 0.38431 0.32124 0.0
H632 H 0.89746 0.34 0.32046 0.0
H633 H 0.87928 0.34465 0.33301 0.0
H634 H 0.89152 0.3009 0.32735 0.0
H635 H 0.87362 0.30571 0.34029 0.0
H636 H 0.82831 0.30678 0.38301 0.0
H637 H 0.80876 0.33723 0.3995 0.0
H638 H 0.81601 0.35091 0.38279 0.0
H639 H 0.83545 0.32053 0.36628 0.0
C640 C 0.68708 0.15011 0.69925 0.0
C641 C 0.69173 0.14253 0.68984 0.0
C642 C 0.69932 0.1278 0.70527 0.0
C643 C 0.69774 0.13147 0.69283 0.0
C644 C 0.69513 0.13567 0.71467 0.0
C645 C 0.68902 0.14669 0.71168 0.0
U646 U 0.67962 0.17933 0.68006 0.0
O647 O 0.66161 0.18572 0.67286 0.0
O648 O 0.67216 0.19724 0.68602 0.0
C649 C 0.66176 0.19575 0.67971 0.0
C650 C 0.67955 0.16113 0.69635 0.0
C651 C 0.64992 0.19899 0.68584 0.0
C652 C 0.63842 0.20798 0.70297 0.0
C653 C 0.64948 0.20326 0.69813 0.0
C654 C 0.62798 0.2038 0.6835 0.0
C655 C 0.62763 0.20862 0.69558 0.0
C656 C 0.63898 0.19909 0.6787 0.0
C657 C 0.70051 0.18928 0.65294 0.0
C658 C 0.6944 0.2027 0.63582 0.0
C659 C 0.71619 0.19882 0.63967 0.0
C660 C 0.713 0.19121 0.64974 0.0
C661 C 0.70694 0.20464 0.63253 0.0
C662 C 0.69122 0.19515 0.64595 0.0
C663 C 0.69739 0.18103 0.66347 0.0
O664 O 0.68478 0.17198 0.69851 0.0
O665 O 0.67325 0.16081 0.68587 0.0
O666 O 0.68741 0.17402 0.66208 0.0
O667 O 0.69826 0.18599 0.67454 0.0
H668 H 0.69046 0.14499 0.68018 0.0
H669 H 0.70102 0.12569 0.68537 0.0
H670 H 0.69612 0.13308 0.72433 0.0
H671 H 0.68551 0.15238 0.71908 0.0
H672 H 0.63847 0.21167 0.71229 0.0
H673 H 0.65776 0.20338 0.70388 0.0
H674 H 0.6198 0.20396 0.67762 0.0
H675 H 0.63903 0.19593 0.66918 0.0
H676 H 0.68699 0.20687 0.63048 0.0
H677 H 0.72594 0.20024 0.63758 0.0
H678 H 0.72032 0.18682 0.65505 0.0
H679 H 0.68151 0.19381 0.64825 0.0
C680 C 0.32455 0.1894 0.65381 0.0
C681 C 0.33351 0.19727 0.64843 0.0
C682 C 0.31808 0.20513 0.63379 0.0
C683 C 0.33033 0.20502 0.6385 0.0
C684 C 0.30914 0.19724 0.63929 0.0
C685 C 0.31236 0.18945 0.64918 0.0
U686 U 0.34512 0.18108 0.68148 0.0
O687 O 0.34031 0.17363 0.69986 0.0
O688 O 0.35247 0.16307 0.68761 0.0
C689 C 0.3464 0.1633 0.69815 0.0
C690 C 0.32776 0.18116 0.66427 0.0
C691 C 0.3403 0.15162 0.70216 0.0
C692 C 0.32224 0.13989 0.70945 0.0
C693 C 0.3274 0.15061 0.70404 0.0
C694 C 0.34272 0.1309 0.71068 0.0
C695 C 0.32991 0.13004 0.71313 0.0
C696 C 0.34784 0.14157 0.70528 0.0
C697 C 0.37248 0.20219 0.69016 0.0
C698 C 0.3884 0.1962 0.70502 0.0
C699 C 0.38711 0.21753 0.69815 0.0
C700 C 0.37699 0.21441 0.69056 0.0
C701 C 0.39296 0.20847 0.7055 0.0
C702 C 0.37823 0.1931 0.69746 0.0
C703 C 0.36172 0.19911 0.68222 0.0
O704 O 0.33825 0.17514 0.6632 0.0
O705 O 0.32618 0.18583 0.67537 0.0
O706 O 0.35082 0.19973 0.68761 0.0
O707 O 0.36287 0.18923 0.67527 0.0
H708 H 0.34298 0.1974 0.65189 0.0
H709 H 0.33751 0.21081 0.63442 0.0
H710 H 0.29959 0.1972 0.63607 0.0
H711 H 0.30529 0.18349 0.65326 0.0
H712 H 0.31235 0.13952 0.71125 0.0
H713 H 0.32136 0.15824 0.70171 0.0
H714 H 0.34886 0.12341 0.71318 0.0
H715 H 0.3578 0.14212 0.70391 0.0
H716 H 0.39275 0.18894 0.7104 0.0
H717 H 0.39022 0.2271 0.69841 0.0
H718 H 0.37261 0.22156 0.68504 0.0
H719 H 0.37487 0.18361 0.69731 0.0
C720 C 0.32676 0.84135 0.65052 0.0
C721 C 0.32422 0.82856 0.64981 0.0
C722 C 0.31646 0.83103 0.62863 0.0
C723 C 0.31915 0.82344 0.63893 0.0
C724 C 0.31959 0.84369 0.62923 0.0
C725 C 0.32465 0.84878 0.64004 0.0
U726 U 0.34631 0.84629 0.68078 0.0
O727 O 0.35286 0.86391 0.6887 0.0
O728 O 0.33947 0.85241 0.69898 0.0
C729 C 0.34545 0.86307 0.69832 0.0
C730 C 0.33039 0.8475 0.66225 0.0
C731 C 0.33811 0.87421 0.70097 0.0
C732 C 0.32613 0.89192 0.694 0.0
C733 C 0.33222 0.88085 0.69143 0.0
C734 C 0.33128 0.88963 0.71576 0.0
C735 C 0.32573 0.89655 0.70618 0.0
C736 C 0.33744 0.87859 0.71316 0.0
C737 C 0.37362 0.82548 0.69004 0.0
C738 C 0.38293 0.82379 0.71058 0.0
C739 C 0.3944 0.81713 0.69261 0.0
C740 C 0.3844 0.82044 0.68497 0.0
C741 C 0.39383 0.81876 0.70553 0.0
C742 C 0.37297 0.82716 0.70291 0.0
C743 C 0.36325 0.82895 0.68172 0.0
O744 O 0.3281 0.84151 0.67266 0.0
O745 O 0.34107 0.85354 0.66235 0.0
O746 O 0.36476 0.8394 0.67559 0.0
O747 O 0.35195 0.82748 0.68615 0.0
H748 H 0.32575 0.8226 0.65776 0.0
H749 H 0.31682 0.81366 0.63878 0.0
H750 H 0.31785 0.84976 0.6214 0.0
H751 H 0.32652 0.85865 0.64034 0.0
H752 H 0.3218 0.89692 0.68643 0.0
H753 H 0.33255 0.87759 0.68196 0.0
H754 H 0.33125 0.89296 0.72521 0.0
H755 H 0.34192 0.8736 0.72066 0.0
H756 H 0.38204 0.82503 0.72048 0.0
H757 H 0.40267 0.8135 0.68833 0.0
H758 H 0.38513 0.81912 0.67505 0.0
H759 H 0.36475 0.83106 0.70706 0.0
C760 C 0.65156 0.82595 0.68528 0.0
C761 C 0.65046 0.82363 0.69808 0.0
C762 C 0.62919 0.81607 0.69511 0.0
C763 C 0.63935 0.81876 0.70295 0.0
C764 C 0.63017 0.81899 0.68243 0.0
C765 C 0.64123 0.82384 0.67758 0.0
U766 U 0.68237 0.84497 0.68147 0.0
O767 O 0.70071 0.83788 0.67609 0.0
O768 O 0.6912 0.85136 0.66423 0.0
C769 C 0.70059 0.84375 0.66539 0.0
C770 C 0.66355 0.82935 0.67944 0.0
C771 C 0.70329 0.83622 0.65438 0.0
C772 C 0.69631 0.82429 0.63655 0.0
C773 C 0.69367 0.83062 0.6475 0.0
C774 C 0.71826 0.8286 0.63949 0.0
C775 C 0.70862 0.82336 0.63231 0.0
C776 C 0.7156 0.83501 0.6504 0.0
C777 C 0.69126 0.87185 0.70309 0.0
C778 C 0.71182 0.88138 0.70459 0.0
C779 C 0.69424 0.89116 0.71428 0.0
C780 C 0.68644 0.88161 0.71003 0.0
C781 C 0.70705 0.89111 0.71171 0.0
C782 C 0.70398 0.87186 0.70028 0.0
C783 C 0.68288 0.86174 0.69904 0.0
O784 O 0.66406 0.84 0.6735 0.0
O785 O 0.67374 0.82691 0.68573 0.0
O786 O 0.68703 0.85042 0.70056 0.0
O787 O 0.67732 0.86342 0.6883 0.0
H788 H 0.65829 0.82517 0.70425 0.0
H789 H 0.63891 0.81658 0.71275 0.0
H790 H 0.62245 0.81726 0.67617 0.0
H791 H 0.64183 0.82556 0.6677 0.0
H792 H 0.68868 0.82022 0.63132 0.0
H793 H 0.6841 0.83134 0.65046 0.0
H794 H 0.72782 0.82814 0.63644 0.0
H795 H 0.72316 0.83926 0.65559 0.0
H796 H 0.7216 0.88114 0.70231 0.0
H797 H 0.69028 0.89842 0.71984 0.0
H798 H 0.67664 0.88178 0.71228 0.0
H799 H 0.70787 0.86446 0.69484 0.0
C800 C 0.65381 0.82068 0.34132 0.0
C801 C 0.65184 0.82057 0.32843 0.0
C802 C 0.63211 0.80952 0.33127 0.0
C803 C 0.64105 0.81505 0.32344 0.0
C804 C 0.63397 0.8101 0.34417 0.0
C805 C 0.6447 0.81559 0.34912 0.0
U806 U 0.68189 0.84339 0.34459 0.0
O807 O 0.69023 0.85075 0.36172 0.0
O808 O 0.70133 0.83916 0.34942 0.0
C809 C 0.70077 0.84498 0.36007 0.0
C810 C 0.66547 0.82535 0.34698 0.0
C811 C 0.70613 0.83852 0.37092 0.0
C812 C 0.7045 0.82968 0.3917 0.0
C813 C 0.69885 0.83461 0.38104 0.0
C814 C 0.72467 0.83208 0.38206 0.0
C815 C 0.71752 0.82862 0.39243 0.0
C816 C 0.71904 0.83699 0.37146 0.0
C817 C 0.68719 0.87143 0.3238 0.0
C818 C 0.70169 0.88787 0.32956 0.0
C819 C 0.69243 0.88777 0.30905 0.0
C820 C 0.68593 0.87683 0.31202 0.0
C821 C 0.70023 0.89351 0.31786 0.0
C822 C 0.69527 0.87691 0.33248 0.0
C823 C 0.67988 0.86026 0.32709 0.0
O824 O 0.67568 0.82439 0.34041 0.0
O825 O 0.66477 0.83585 0.35301 0.0
O826 O 0.67398 0.86081 0.33772 0.0
O827 O 0.68547 0.84966 0.32543 0.0
H828 H 0.65873 0.82449 0.32222 0.0
H829 H 0.63993 0.81474 0.31347 0.0
H830 H 0.62717 0.80617 0.35048 0.0
H831 H 0.64599 0.81562 0.35909 0.0
H832 H 0.69873 0.82715 0.39953 0.0
H833 H 0.68885 0.83565 0.38085 0.0
H834 H 0.73468 0.83116 0.38219 0.0
H835 H 0.72483 0.8399 0.36376 0.0
H836 H 0.70776 0.89196 0.33649 0.0
H837 H 0.69105 0.89193 0.3 0.0
H838 H 0.67976 0.87271 0.30519 0.0
H839 H 0.69648 0.87281 0.34159 0.0
C840 C 0.65099 0.18802 0.32674 0.0
C841 C 0.65204 0.20091 0.32812 0.0
C842 C 0.63078 0.20351 0.32053 0.0
C843 C 0.64207 0.20857 0.325 0.0
C844 C 0.62977 0.19057 0.31926 0.0
C845 C 0.63978 0.18293 0.32231 0.0
U846 U 0.67951 0.17883 0.34621 0.0
O847 O 0.68509 0.16052 0.35321 0.0
O848 O 0.69725 0.17078 0.34039 0.0
C849 C 0.69523 0.16036 0.34646 0.0
C850 C 0.66144 0.17973 0.32974 0.0
C851 C 0.69778 0.14861 0.33997 0.0
C852 C 0.7024 0.13674 0.3214 0.0
C853 C 0.69937 0.14799 0.32704 0.0
C854 C 0.7022 0.12662 0.34147 0.0
C855 C 0.70381 0.1259 0.32856 0.0
C856 C 0.69925 0.13782 0.34708 0.0
C857 C 0.68957 0.19913 0.37387 0.0
C858 C 0.70971 0.19951 0.38426 0.0
C859 C 0.69163 0.20744 0.39471 0.0
C860 C 0.6843 0.20457 0.38435 0.0
C861 C 0.70445 0.20498 0.39482 0.0
C862 C 0.70234 0.19657 0.37391 0.0
C863 C 0.68154 0.19624 0.36308 0.0
O864 O 0.67269 0.18418 0.32771 0.0
O865 O 0.66053 0.17359 0.34025 0.0
O866 O 0.67424 0.18648 0.36431 0.0
O867 O 0.6867 0.19706 0.35207 0.0
H868 H 0.66059 0.20508 0.33154 0.0
H869 H 0.64329 0.21848 0.32595 0.0
H870 H 0.6212 0.18629 0.31606 0.0
H871 H 0.63874 0.17301 0.32122 0.0
H872 H 0.7035 0.13649 0.31143 0.0
H873 H 0.69834 0.15618 0.32131 0.0
H874 H 0.70343 0.11853 0.34731 0.0
H875 H 0.69823 0.13808 0.35706 0.0
H876 H 0.71955 0.19761 0.38391 0.0
H877 H 0.68719 0.21143 0.40271 0.0
H878 H 0.67446 0.20656 0.38453 0.0
H879 H 0.70663 0.19235 0.36595 0.0
C880 C 0.3246 0.15285 0.33931 0.0
C881 C 0.3236 0.15443 0.32641 0.0
C882 C 0.31474 0.13364 0.32432 0.0
C883 C 0.31867 0.14495 0.31901 0.0
C884 C 0.31618 0.13192 0.33718 0.0
C885 C 0.32102 0.14146 0.34459 0.0
U886 U 0.34636 0.18018 0.34758 0.0
O887 O 0.34196 0.19843 0.35516 0.0
O888 O 0.35399 0.18588 0.36574 0.0
C889 C 0.34816 0.1965 0.36551 0.0
C890 C 0.32878 0.16307 0.34747 0.0
C891 C 0.34223 0.20049 0.37713 0.0
C892 C 0.32406 0.2065 0.38899 0.0
C893 C 0.32924 0.20096 0.3785 0.0
C894 C 0.34473 0.21065 0.39703 0.0
C895 C 0.33178 0.21173 0.3982 0.0
C896 C 0.34988 0.2051 0.38662 0.0
C897 C 0.37332 0.18942 0.3264 0.0
C898 C 0.3898 0.20374 0.3326 0.0
C899 C 0.38755 0.19797 0.31104 0.0
C900 C 0.37737 0.19037 0.3141 0.0
C901 C 0.39392 0.20477 0.32025 0.0
C902 C 0.37958 0.19619 0.33563 0.0
C903 C 0.36256 0.1814 0.32944 0.0
O904 O 0.33953 0.16161 0.35311 0.0
O905 O 0.3272 0.17438 0.3432 0.0
O906 O 0.35166 0.18675 0.32894 0.0
O907 O 0.36388 0.17421 0.33922 0.0
H908 H 0.3264 0.16308 0.32205 0.0
H909 H 0.31784 0.1465 0.30911 0.0
H910 H 0.31316 0.12337 0.34158 0.0
H911 H 0.3217 0.14002 0.35452 0.0
H912 H 0.31405 0.20721 0.38962 0.0
H913 H 0.32314 0.19746 0.37128 0.0
H914 H 0.35092 0.21439 0.40406 0.0
H915 H 0.3599 0.20483 0.38577 0.0
H916 H 0.39455 0.20868 0.33997 0.0
H917 H 0.3903 0.19866 0.30142 0.0
H918 H 0.37262 0.18527 0.30684 0.0
H919 H 0.37659 0.1956 0.3452 0.0
C920 C 0.33778 0.87371 0.32477 0.0
C921 C 0.32502 0.87377 0.32744 0.0
C922 C 0.32335 0.89482 0.31921 0.0
C923 C 0.31787 0.88419 0.32464 0.0
C924 C 0.33615 0.89469 0.31661 0.0
C925 C 0.34327 0.88425 0.31934 0.0
U926 U 0.34693 0.84577 0.34496 0.0
O927 O 0.35294 0.82717 0.33963 0.0
O928 O 0.36564 0.83931 0.35006 0.0
C929 C 0.36422 0.82879 0.34411 0.0
C930 C 0.34554 0.86283 0.32754 0.0
C931 C 0.37449 0.82534 0.33586 0.0
C932 C 0.38446 0.8255 0.31567 0.0
C933 C 0.37494 0.82941 0.32349 0.0
C934 C 0.39338 0.81367 0.33258 0.0
C935 C 0.39375 0.81748 0.32009 0.0
C936 C 0.38383 0.81756 0.34036 0.0
C937 C 0.32864 0.83904 0.37518 0.0
C938 C 0.32284 0.82022 0.38648 0.0
C939 C 0.32589 0.83944 0.39755 0.0
C940 C 0.32865 0.84552 0.38642 0.0
C941 C 0.32298 0.82671 0.39775 0.0
C942 C 0.32569 0.82631 0.3753 0.0
C943 C 0.33121 0.84597 0.36355 0.0
O944 O 0.35285 0.86384 0.33728 0.0
O945 O 0.34007 0.85191 0.32671 0.0
O946 O 0.3289 0.84029 0.35302 0.0
O947 O 0.34156 0.85256 0.36336 0.0
H948 H 0.32056 0.86576 0.33166 0.0
H949 H 0.30802 0.88384 0.32663 0.0
H950 H 0.34076 0.90274 0.31263 0.0
H951 H 0.35311 0.88442 0.31726 0.0
H952 H 0.38456 0.82874 0.30616 0.0
H953 H 0.36785 0.8355 0.31985 0.0
H954 H 0.40027 0.8074 0.33626 0.0
H955 H 0.38364 0.81431 0.34988 0.0
H956 H 0.32072 0.81039 0.38632 0.0
H957 H 0.32588 0.84478 0.40602 0.0
H958 H 0.33072 0.85536 0.38658 0.0
H959 H 0.32555 0.82105 0.36678 0.0
C960 C 0.68855 0.65088 0.20129 0.0
C961 C 0.70129 0.65089 0.19854 0.0
C962 C 0.70326 0.63013 0.2074 0.0
C963 C 0.70858 0.64065 0.20161 0.0
C964 C 0.69046 0.63017 0.21003 0.0
C965 C 0.6832 0.64044 0.20702 0.0
U966 U 0.68016 0.67944 0.18166 0.0
O967 O 0.66168 0.68612 0.17594 0.0
O968 O 0.67387 0.69778 0.18747 0.0
C969 C 0.66281 0.69637 0.18239 0.0
C970 C 0.68071 0.66166 0.19839 0.0
C971 C 0.65219 0.69956 0.19029 0.0
C972 C 0.64172 0.69933 0.21023 0.0
C973 C 0.65141 0.6954 0.20262 0.0
C974 C 0.63325 0.71127 0.19317 0.0
C975 C 0.6326 0.70745 0.20564 0.0
C976 C 0.64296 0.70737 0.18559 0.0
C977 C 0.70022 0.68861 0.15358 0.0
C978 C 0.69414 0.70239 0.13676 0.0
C979 C 0.71587 0.69771 0.13999 0.0
C980 C 0.71267 0.69012 0.15006 0.0
C981 C 0.70665 0.70395 0.13317 0.0
C982 C 0.69096 0.69484 0.14688 0.0
C983 C 0.69713 0.68049 0.16422 0.0
O984 O 0.68588 0.67262 0.20004 0.0
O985 O 0.67415 0.66092 0.18811 0.0
O986 O 0.68681 0.67391 0.16328 0.0
O987 O 0.69872 0.68541 0.17523 0.0
H988 H 0.70563 0.65885 0.1941 0.0
H989 H 0.71842 0.64106 0.19958 0.0
H990 H 0.68598 0.62219 0.21428 0.0
H991 H 0.67337 0.64022 0.20916 0.0
H992 H 0.6414 0.69607 0.21973 0.0
H993 H 0.6584 0.6893 0.20641 0.0
H994 H 0.62649 0.7176 0.18936 0.0
H995 H 0.64342 0.7107 0.17611 0.0
H996 H 0.68676 0.70689 0.13165 0.0
H997 H 0.7256 0.69882 0.13766 0.0
H998 H 0.71996 0.68543 0.15515 0.0
H999 H 0.68128 0.69384 0.14944 0.0
C1000 C 0.32375 0.68364 0.15325 0.0
C1001 C 0.32271 0.69658 0.15219 0.0
C1002 C 0.31715 0.69466 0.13033 0.0
C1003 C 0.31936 0.70203 0.14085 0.0
C1004 C 0.31808 0.68173 0.13149 0.0
C1005 C 0.32131 0.67629 0.14282 0.0
U1006 U 0.34454 0.68094 0.18218 0.0
O1007 O 0.33996 0.67526 0.20125 0.0
O1008 O 0.35314 0.66439 0.19043 0.0
C1009 C 0.34669 0.66519 0.2007 0.0
C1010 C 0.32752 0.67753 0.16496 0.0
C1011 C 0.34099 0.65353 0.20533 0.0
C1012 C 0.32313 0.64119 0.21213 0.0
C1013 C 0.32806 0.65199 0.20667 0.0
C1014 C 0.34392 0.63319 0.21457 0.0
C1015 C 0.33103 0.63176 0.21637 0.0
C1016 C 0.34882 0.64395 0.20916 0.0
C1017 C 0.37053 0.70565 0.18706 0.0
C1018 C 0.39122 0.70447 0.19629 0.0
C1019 C 0.38151 0.72439 0.19343 0.0
C1020 C 0.37099 0.71855 0.18841 0.0
C1021 C 0.39188 0.71746 0.19718 0.0
C1022 C 0.38065 0.69861 0.19127 0.0
C1023 C 0.35983 0.70002 0.18044 0.0
O1024 O 0.33841 0.67217 0.16478 0.0
O1025 O 0.32545 0.68356 0.1753 0.0
O1026 O 0.34899 0.70055 0.18598 0.0
O1027 O 0.36172 0.68938 0.17493 0.0
H1028 H 0.32461 0.70248 0.16008 0.0
H1029 H 0.31881 0.71202 0.14022 0.0
H1030 H 0.31629 0.67579 0.12361 0.0
H1031 H 0.32201 0.66631 0.14342 0.0
H1032 H 0.31317 0.64042 0.21341 0.0
H1033 H 0.32178 0.65923 0.20376 0.0
H1034 H 0.35027 0.62602 0.21748 0.0
H1035 H 0.35881 0.6449 0.20819 0.0
H1036 H 0.39905 0.69885 0.19903 0.0
H1037 H 0.38158 0.73438 0.19421 0.0
H1038 H 0.3633 0.72417 0.18527 0.0
H1039 H 0.38053 0.68863 0.19037 0.0
C1040 C 0.32569 0.33986 0.15186 0.0
C1041 C 0.3349 0.33285 0.1461 0.0
C1042 C 0.31965 0.32464 0.13133 0.0
C1043 C 0.33193 0.32537 0.13592 0.0
C1044 C 0.31048 0.33173 0.13714 0.0
C1045 C 0.31348 0.33926 0.14728 0.0
U1046 U 0.3455 0.34704 0.18046 0.0
O1047 O 0.35213 0.36477 0.18815 0.0
O1048 O 0.33995 0.35262 0.19925 0.0
C1049 C 0.34578 0.36335 0.19847 0.0
C1050 C 0.32859 0.34757 0.16279 0.0
C1051 C 0.33911 0.37425 0.20318 0.0
C1052 C 0.32978 0.39458 0.20044 0.0
C1053 C 0.3348 0.38378 0.19537 0.0
C1054 C 0.33291 0.38624 0.22107 0.0
C1055 C 0.32908 0.39604 0.21338 0.0
C1056 C 0.33786 0.3755 0.21603 0.0
C1057 C 0.37268 0.32422 0.18726 0.0
C1058 C 0.39369 0.32583 0.19581 0.0
C1059 C 0.38313 0.30594 0.19517 0.0
C1060 C 0.37269 0.3115 0.1899 0.0
C1061 C 0.39387 0.31296 0.19792 0.0
C1062 C 0.38319 0.33142 0.19047 0.0
C1063 C 0.36203 0.32929 0.18018 0.0
O1064 O 0.32676 0.34217 0.17358 0.0
O1065 O 0.33905 0.35399 0.16234 0.0
O1066 O 0.36363 0.33999 0.17448 0.0
O1067 O 0.35101 0.32802 0.18526 0.0
H1068 H 0.34439 0.33312 0.14951 0.0
H1069 H 0.33929 0.32021 0.13161 0.0
H1070 H 0.3009 0.33129 0.13402 0.0
H1071 H 0.30621 0.34454 0.15164 0.0
H1072 H 0.32692 0.40197 0.19427 0.0
H1073 H 0.33564 0.38302 0.1854 0.0
H1074 H 0.3323 0.38696 0.23106 0.0
H1075 H 0.34107 0.36828 0.22223 0.0
H1076 H 0.40183 0.33149 0.19778 0.0
H1077 H 0.38286 0.29604 0.19687 0.0
H1078 H 0.36472 0.30574 0.18751 0.0
H1079 H 0.38346 0.34127 0.18854 0.0
C1080 C 0.6508 0.32653 0.18343 0.0
C1081 C 0.64932 0.32555 0.19635 0.0
C1082 C 0.62894 0.31576 0.19351 0.0
C1083 C 0.63846 0.32023 0.20135 0.0
C1084 C 0.63026 0.31733 0.18062 0.0
C1085 C 0.64107 0.32262 0.17566 0.0
U1086 U 0.68042 0.34727 0.18022 0.0
O1087 O 0.69957 0.34144 0.17646 0.0
O1088 O 0.68986 0.35339 0.16314 0.0
C1089 C 0.69984 0.34685 0.16552 0.0
C1090 C 0.66268 0.33052 0.17773 0.0
C1091 C 0.70476 0.33932 0.15532 0.0
C1092 C 0.70209 0.32611 0.13723 0.0
C1093 C 0.69697 0.33326 0.14672 0.0
C1094 C 0.72276 0.33099 0.14488 0.0
C1095 C 0.71506 0.3248 0.13628 0.0
C1096 C 0.71767 0.33816 0.15426 0.0
C1097 C 0.68757 0.37423 0.20253 0.0
C1098 C 0.69692 0.39488 0.2008 0.0
C1099 C 0.70087 0.38234 0.21901 0.0
C1100 C 0.6933 0.37291 0.21419 0.0
C1101 C 0.70283 0.39343 0.21236 0.0
C1102 C 0.68939 0.38538 0.19592 0.0
C1103 C 0.6795 0.36406 0.19774 0.0
O1104 O 0.66271 0.34113 0.17169 0.0
O1105 O 0.67283 0.32873 0.18429 0.0
O1106 O 0.6836 0.35277 0.19959 0.0
O1107 O 0.67445 0.36557 0.18671 0.0
H1108 H 0.65669 0.32853 0.20257 0.0
H1109 H 0.63777 0.31914 0.2113 0.0
H1110 H 0.62301 0.31422 0.17432 0.0
H1111 H 0.64198 0.32331 0.16568 0.0
H1112 H 0.69591 0.3214 0.13081 0.0
H1113 H 0.68697 0.33399 0.14739 0.0
H1114 H 0.73278 0.33036 0.14431 0.0
H1115 H 0.72384 0.3428 0.16076 0.0
H1116 H 0.69828 0.40328 0.19542 0.0
H1117 H 0.7051 0.381 0.22804 0.0
H1118 H 0.69192 0.36454 0.21961 0.0
H1119 H 0.68503 0.38678 0.18695 0.0
C1120 C 0.65462 0.32447 0.83594 0.0
C1121 C 0.64862 0.33382 0.82919 0.0
C1122 C 0.6344 0.31858 0.8201 0.0
C1123 C 0.63859 0.33092 0.82139 0.0
C1124 C 0.64056 0.30924 0.82681 0.0
C1125 C 0.65054 0.31217 0.83466 0.0
U1126 U 0.68183 0.34514 0.84607 0.0
O1127 O 0.6874 0.35124 0.86477 0.0
O1128 O 0.70021 0.34036 0.85356 0.0
C1129 C 0.69794 0.34525 0.86445 0.0
C1130 C 0.66501 0.3274 0.84442 0.0
C1131 C 0.70061 0.33738 0.87532 0.0
C1132 C 0.70057 0.31733 0.8857 0.0
C1133 C 0.69784 0.32465 0.87531 0.0
C1134 C 0.70869 0.33542 0.89631 0.0
C1135 C 0.70604 0.32262 0.89636 0.0
C1136 C 0.70602 0.3427 0.88589 0.0
C1137 C 0.68963 0.37421 0.82683 0.0
C1138 C 0.70233 0.39156 0.83394 0.0
C1139 C 0.69637 0.39018 0.8123 0.0
C1140 C 0.68998 0.37909 0.81477 0.0
C1141 C 0.70249 0.39663 0.82188 0.0
C1142 C 0.69599 0.38042 0.83638 0.0
C1143 C 0.68231 0.36286 0.82929 0.0
O1144 O 0.67619 0.32654 0.83969 0.0
O1145 O 0.66363 0.33733 0.85126 0.0
O1146 O 0.6752 0.36307 0.83917 0.0
O1147 O 0.68824 0.35239 0.82803 0.0
H1148 H 0.65164 0.34339 0.83002 0.0
H1149 H 0.634 0.33838 0.81653 0.0
H1150 H 0.63775 0.29962 0.82591 0.0
H1151 H 0.6551 0.30482 0.83976 0.0
H1152 H 0.69854 0.3075 0.88532 0.0
H1153 H 0.69362 0.32035 0.86725 0.0
H1154 H 0.71269 0.33987 0.90439 0.0
H1155 H 0.70816 0.35253 0.8861 0.0
H1156 H 0.70708 0.39622 0.84149 0.0
H1157 H 0.6962 0.39389 0.80295 0.0
H1158 H 0.68513 0.37442 0.80728 0.0
H1159 H 0.69591 0.37675 0.84575 0.0
C1160 C 0.65343 0.68867 0.82489 0.0
C1161 C 0.64715 0.69489 0.83433 0.0
C1162 C 0.6327 0.7036 0.81916 0.0
C1163 C 0.63687 0.70225 0.8315 0.0
C1164 C 0.63911 0.69738 0.80975 0.0
C1165 C 0.64934 0.68999 0.81261 0.0
U1166 U 0.68133 0.67898 0.84496 0.0
O1167 O 0.6875 0.66023 0.85013 0.0
O1168 O 0.6998 0.67258 0.83947 0.0
C1169 C 0.69801 0.66141 0.84406 0.0
C1170 C 0.66411 0.68063 0.82767 0.0
C1171 C 0.70127 0.65106 0.83586 0.0
C1172 C 0.70171 0.64146 0.81553 0.0
C1173 C 0.69772 0.65094 0.82333 0.0
C1174 C 0.71249 0.63191 0.83279 0.0
C1175 C 0.70929 0.63191 0.82013 0.0
C1176 C 0.70854 0.64141 0.84056 0.0
C1177 C 0.68948 0.69755 0.87442 0.0
C1178 C 0.70044 0.69061 0.89295 0.0
C1179 C 0.69795 0.71255 0.88907 0.0
C1180 C 0.6916 0.70986 0.87803 0.0
C1181 C 0.70226 0.70295 0.89677 0.0
C1182 C 0.69415 0.68794 0.88186 0.0
C1183 C 0.68195 0.69502 0.8632 0.0
O1184 O 0.67516 0.68585 0.82668 0.0
O1185 O 0.66303 0.6735 0.83752 0.0
O1186 O 0.67508 0.68487 0.86336 0.0
O1187 O 0.6875 0.69698 0.85253 0.0
H1188 H 0.65015 0.69401 0.84389 0.0
H1189 H 0.6321 0.70675 0.83902 0.0
H1190 H 0.63633 0.69834 0.80014 0.0
H1191 H 0.65409 0.68529 0.80518 0.0
H1192 H 0.69893 0.64165 0.80587 0.0
H1193 H 0.69204 0.65827 0.81953 0.0
H1194 H 0.71841 0.6248 0.83663 0.0
H1195 H 0.71139 0.64136 0.85021 0.0
H1196 H 0.70378 0.68301 0.89858 0.0
H1197 H 0.69908 0.72213 0.89179 0.0
H1198 H 0.68808 0.71742 0.87244 0.0
H1199 H 0.69274 0.67836 0.87922 0.0
C1200 C 0.32223 0.6551 0.83537 0.0
C1201 C 0.33171 0.64876 0.82928 0.0
C1202 C 0.3165 0.63421 0.8206 0.0
C1203 C 0.32888 0.6384 0.82201 0.0
C1204 C 0.30704 0.6407 0.82666 0.0
C1205 C 0.30989 0.65102 0.83398 0.0
U1206 U 0.34286 0.68267 0.84475 0.0
O1207 O 0.33764 0.70115 0.85149 0.0
O1208 O 0.34889 0.68888 0.86318 0.0
C1209 C 0.34268 0.69927 0.86246 0.0
C1210 C 0.32506 0.66585 0.84332 0.0
C1211 C 0.33492 0.70217 0.87329 0.0
C1212 C 0.32247 0.69558 0.89095 0.0
C1213 C 0.32874 0.69279 0.87999 0.0
C1214 C 0.32794 0.71725 0.88833 0.0
C1215 C 0.32219 0.70782 0.89537 0.0
C1216 C 0.33429 0.71443 0.87742 0.0
C1217 C 0.37311 0.68883 0.82629 0.0
C1218 C 0.38556 0.70757 0.82302 0.0
C1219 C 0.39519 0.68748 0.82188 0.0
C1220 C 0.38376 0.68175 0.82435 0.0
C1221 C 0.39626 0.70045 0.82123 0.0
C1222 C 0.37408 0.70182 0.82559 0.0
C1223 C 0.36121 0.68229 0.82876 0.0
O1224 O 0.33484 0.66478 0.85059 0.0
O1225 O 0.32437 0.67676 0.83792 0.0
O1226 O 0.35089 0.68843 0.82684 0.0
O1227 O 0.36093 0.67546 0.83888 0.0
H1228 H 0.34131 0.65176 0.83022 0.0
H1229 H 0.33644 0.63357 0.81765 0.0
H1230 H 0.29739 0.6379 0.82565 0.0
H1231 H 0.30244 0.65582 0.83858 0.0
H1232 H 0.31799 0.68814 0.89607 0.0
H1233 H 0.32901 0.68326 0.87693 0.0
H1234 H 0.32798 0.72674 0.89152 0.0
H1235 H 0.339 0.7218 0.87238 0.0
H1236 H 0.3861 0.71759 0.82264 0.0
H1237 H 0.4032 0.6817 0.82035 0.0
H1238 H 0.38323 0.67173 0.82474 0.0
H1239 H 0.36601 0.70751 0.82704 0.0
C1240 C 0.33635 0.37299 0.82513 0.0
C1241 C 0.3302 0.37938 0.83455 0.0
C1242 C 0.32156 0.39377 0.81931 0.0
C1243 C 0.32292 0.38968 0.83167 0.0
C1244 C 0.3277 0.38726 0.80992 0.0
C1245 C 0.33502 0.377 0.81282 0.0
U1246 U 0.34487 0.34414 0.84431 0.0
O1247 O 0.35177 0.32613 0.83793 0.0
O1248 O 0.36315 0.33754 0.85045 0.0
C1249 C 0.36255 0.32756 0.84355 0.0
C1250 C 0.34426 0.36223 0.8279 0.0
C1251 C 0.37366 0.32501 0.83606 0.0
C1252 C 0.39059 0.33189 0.82274 0.0
C1253 C 0.37959 0.33437 0.82912 0.0
C1254 C 0.38964 0.31059 0.82983 0.0
C1255 C 0.39584 0.32001 0.82314 0.0
C1256 C 0.37868 0.31309 0.83624 0.0
C1257 C 0.32472 0.3344 0.87213 0.0
C1258 C 0.33086 0.31985 0.88827 0.0
C1259 C 0.30939 0.32616 0.88659 0.0
C1260 C 0.31246 0.33371 0.87645 0.0
C1261 C 0.31855 0.31914 0.89268 0.0
C1262 C 0.3339 0.32737 0.87808 0.0
C1263 C 0.32771 0.34259 0.86154 0.0
O1264 O 0.3508 0.36276 0.83822 0.0
O1265 O 0.33912 0.3513 0.826 0.0
O1266 O 0.3264 0.33767 0.8505 0.0
O1267 O 0.33789 0.34937 0.86265 0.0
H1268 H 0.33106 0.37644 0.84413 0.0
H1269 H 0.31848 0.39453 0.83918 0.0
H1270 H 0.32672 0.38997 0.80029 0.0
H1271 H 0.33965 0.37217 0.80541 0.0
H1272 H 0.39502 0.33931 0.81754 0.0
H1273 H 0.37581 0.34362 0.82879 0.0
H1274 H 0.39348 0.30139 0.83045 0.0
H1275 H 0.37424 0.30575 0.84155 0.0
H1276 H 0.3382 0.31472 0.89279 0.0
H1277 H 0.2998 0.32572 0.88956 0.0
H1278 H 0.30523 0.33903 0.87195 0.0
H1279 H 0.34343 0.32776 0.87489 0.0
C1280 C 0.25347 0.24544 0.05693 0.0
C1281 C 0.24064 0.24706 0.05866 0.0
C1282 C 0.25924 0.24948 0.04599 0.0
C1283 C 0.2523 0.25529 0.03658 0.0
C1284 C 0.2337 0.25268 0.04912 0.0
C1285 C 0.23946 0.25666 0.03818 0.0
C1286 C 0.25821 0.25947 0.02483 0.0
C1287 C 0.27458 0.28298 0.05525 0.0
C1288 C 0.28742 0.28137 0.05706 0.0
C1289 C 0.26863 0.27833 0.04464 0.0
C1290 C 0.27538 0.27191 0.03563 0.0
C1291 C 0.29419 0.2752 0.04788 0.0
C1292 C 0.28824 0.2706 0.03726 0.0
C1293 C 0.26918 0.2668 0.02439 0.0
C1294 C 0.27353 0.27995 0.97012 0.0
C1295 C 0.28636 0.2783 0.96835 0.0
C1296 C 0.26779 0.27591 0.98107 0.0
C1297 C 0.27473 0.27009 0.99047 0.0
C1298 C 0.29331 0.27267 0.97787 0.0
C1299 C 0.28757 0.2687 0.98883 0.0
C1300 C 0.26885 0.26587 1.0022 0.0
C1301 C 0.25199 0.24165 0.9721 0.0
C1302 C 0.23893 0.2412 0.97172 0.0
C1303 C 0.25824 0.24742 0.98198 0.0
C1304 C 0.25155 0.25317 0.99151 0.0
C1305 C 0.23227 0.24697 0.98121 0.0
C1306 C 0.2385 0.25287 0.99097 0.0
C1307 C 0.25787 0.2585 1.00264 0.0
H1308 H 0.25909 0.24118 0.06409 0.0
H1309 H 0.2691 0.24801 0.04487 0.0
H1310 H 0.22378 0.25388 0.05006 0.0
H1311 H 0.23388 0.26094 0.03099 0.0
H1312 H 0.26907 0.28765 0.06213 0.0
H1313 H 0.25875 0.27976 0.04348 0.0
H1314 H 0.30412 0.27399 0.04886 0.0
H1315 H 0.29369 0.26584 0.03038 0.0
H1316 H 0.26791 0.28422 0.96297 0.0
H1317 H 0.25792 0.27737 0.98222 0.0
H1318 H 0.30323 0.27144 0.97691 0.0
H1319 H 0.29316 0.2644 0.996 0.0
H1320 H 0.25736 0.23712 0.96502 0.0
H1321 H 0.26828 0.24703 0.98234 0.0
H1322 H 0.2222 0.24683 0.98114 0.0
H1323 H 0.23308 0.25711 0.99821 0.0
N1324 N 0.25299 0.2557 0.01396 0.0
N1325 N 0.2741 0.26962 0.01309 0.0
C1326 C 0.767 0.24163 0.97395 0.0
C1327 C 0.77977 0.24101 0.97127 0.0
C1328 C 0.76285 0.24785 0.98447 0.0
C1329 C 0.77137 0.25371 0.9925 0.0
C1330 C 0.78827 0.2469 0.97932 0.0
C1331 C 0.78412 0.25309 0.98986 0.0
C1332 C 0.76718 0.25976 1.00406 0.0
C1333 C 0.75134 0.28155 0.97225 0.0
C1334 C 0.73827 0.28194 0.97192 0.0
C1335 C 0.75758 0.27726 0.98282 0.0
C1336 C 0.7509 0.27307 0.99322 0.0
C1337 C 0.73164 0.27809 0.9825 0.0
C1338 C 0.73788 0.27374 0.99303 0.0
C1339 C 0.75734 0.26835 1.00448 0.0
C1340 C 0.76017 0.28494 0.058 0.0
C1341 C 0.74753 0.2849 0.06126 0.0
C1342 C 0.76396 0.28024 0.04661 0.0
C1343 C 0.75524 0.27514 0.03829 0.0
C1344 C 0.73872 0.28042 0.05265 0.0
C1345 C 0.74255 0.27561 0.04126 0.0
C1346 C 0.75934 0.26932 0.02655 0.0
C1347 C 0.77432 0.24601 0.05774 0.0
C1348 C 0.78734 0.24663 0.05884 0.0
C1349 C 0.76837 0.25051 0.0471 0.0
C1350 C 0.77533 0.25574 0.03736 0.0
C1351 C 0.79428 0.25165 0.04896 0.0
C1352 C 0.78834 0.25607 0.03829 0.0
C1353 C 0.76913 0.2607 0.02611 0.0
H1354 H 0.76018 0.23727 0.96792 0.0
H1355 H 0.75299 0.24791 0.98644 0.0
H1356 H 0.79817 0.24645 0.97766 0.0
H1357 H 0.79089 0.25739 0.99599 0.0
H1358 H 0.75678 0.2844 0.96429 0.0
H1359 H 0.76765 0.27724 0.98284 0.0
H1360 H 0.72159 0.27852 0.9827 0.0
H1361 H 0.73251 0.27076 1.001 0.0
H1362 H 0.76716 0.2886 0.06429 0.0
H1363 H 0.77377 0.28046 0.04437 0.0
H1364 H 0.72892 0.28028 0.05489 0.0
H1365 H 0.73563 0.2719 0.03493 0.0
H1366 H 0.76871 0.24223 0.0652 0.0
H1367 H 0.75833 0.24992 0.04649 0.0
H1368 H 0.80434 0.25209 0.04945 0.0
H1369 H 0.79389 0.25994 0.03083 0.0
N1370 N 0.77271 0.25635 0.01489 0.0
N1371 N 0.75377 0.27272 0.01572 0.0
C1372 C 0.76703 0.78431 0.05573 0.0
C1373 C 0.77973 0.78425 0.05883 0.0
C1374 C 0.76286 0.7796 0.0444 0.0
C1375 C 0.77126 0.77446 0.03598 0.0
C1376 C 0.78825 0.77988 0.05007 0.0
C1377 C 0.78403 0.77502 0.03873 0.0
C1378 C 0.76663 0.76822 0.02457 0.0
C1379 C 0.75273 0.74563 0.0573 0.0
C1380 C 0.73971 0.74582 0.05846 0.0
C1381 C 0.75846 0.74991 0.04641 0.0
C1382 C 0.75128 0.75445 0.0365 0.0
C1383 C 0.73257 0.75015 0.04842 0.0
C1384 C 0.73828 0.75432 0.03754 0.0
C1385 C 0.75708 0.75911 0.02488 0.0
C1386 C 0.75365 0.74112 0.97189 0.0
C1387 C 0.7408 0.73863 0.97173 0.0
C1388 C 0.75911 0.74753 0.98185 0.0
C1389 C 0.75175 0.75192 0.99161 0.0
C1390 C 0.73348 0.74299 0.98148 0.0
C1391 C 0.73888 0.74956 0.99127 0.0
C1392 C 0.75724 0.75807 1.00274 0.0
C1393 C 0.76788 0.78097 0.96982 0.0
C1394 C 0.78074 0.78221 0.96785 0.0
C1395 C 0.76332 0.7765 0.98113 0.0
C1396 C 0.77151 0.77278 0.9906 0.0
C1397 C 0.78893 0.77919 0.97757 0.0
C1398 C 0.78436 0.77451 0.98883 0.0
C1399 C 0.76673 0.76731 1.00237 0.0
H1400 H 0.76026 0.78788 0.06215 0.0
H1401 H 0.753 0.7797 0.04233 0.0
H1402 H 0.79809 0.77975 0.05219 0.0
H1403 H 0.79071 0.77127 0.03232 0.0
H1404 H 0.75849 0.74237 0.06487 0.0
H1405 H 0.7685 0.74967 0.04574 0.0
H1406 H 0.72252 0.75023 0.04894 0.0
H1407 H 0.73253 0.75765 0.02998 0.0
H1408 H 0.75952 0.73772 0.96456 0.0
H1409 H 0.76911 0.7488 0.98202 0.0
H1410 H 0.72354 0.74124 0.98156 0.0
H1411 H 0.73296 0.75273 0.99867 0.0
H1412 H 0.76133 0.78347 0.9626 0.0
H1413 H 0.75335 0.77581 0.98239 0.0
H1414 H 0.79888 0.78008 0.97631 0.0
H1415 H 0.79087 0.77194 0.99606 0.0
N1416 N 0.77114 0.77191 0.01333 0.0
N1417 N 0.75279 0.75447 0.01398 0.0
C1418 C 0.27358 0.74597 0.97106 0.0
C1419 C 0.28618 0.74267 0.97114 0.0
C1420 C 0.26838 0.75188 0.98132 0.0
C1421 C 0.27579 0.7549 0.9917 0.0
C1422 C 0.29358 0.74584 0.98141 0.0
C1423 C 0.28846 0.7519 0.99154 0.0
C1424 C 0.27042 0.76002 1.00327 0.0
C1425 C 0.26237 0.78866 0.97415 0.0
C1426 C 0.24968 0.79059 0.9717 0.0
C1427 C 0.26613 0.78169 0.98442 0.0
C1428 C 0.2573 0.77636 0.99245 0.0
C1429 C 0.24083 0.78522 0.97972 0.0
C1430 C 0.24462 0.77827 0.99006 0.0
C1431 C 0.26134 0.76939 1.00363 0.0
C1432 C 0.26009 0.78117 0.05845 0.0
C1433 C 0.24724 0.78222 0.06039 0.0
C1434 C 0.26463 0.77693 0.04714 0.0
C1435 C 0.25641 0.7733 0.03763 0.0
C1436 C 0.23903 0.77925 0.05064 0.0
C1437 C 0.24358 0.77483 0.03937 0.0
C1438 C 0.26114 0.76811 0.02584 0.0
C1439 C 0.27395 0.74114 0.05591 0.0
C1440 C 0.2869 0.73949 0.05633 0.0
C1441 C 0.26844 0.74764 0.04605 0.0
C1442 C 0.27583 0.75278 0.03655 0.0
C1443 C 0.29423 0.74483 0.04693 0.0
C1444 C 0.28877 0.75135 0.03716 0.0
C1445 C 0.27033 0.75885 0.02545 0.0
H1446 H 0.26764 0.74349 0.9633 0.0
H1447 H 0.25851 0.75367 0.98129 0.0
H1448 H 0.30333 0.74346 0.98168 0.0
H1449 H 0.29441 0.75405 0.99939 0.0
H1450 H 0.26943 0.79258 0.96812 0.0
H1451 H 0.27598 0.78061 0.98618 0.0
H1452 H 0.231 0.78665 0.97817 0.0
H1453 H 0.23764 0.77437 0.9962 0.0
H1454 H 0.26666 0.78366 0.06569 0.0
H1455 H 0.27459 0.7764 0.04589 0.0
H1456 H 0.22909 0.78 0.05187 0.0
H1457 H 0.23706 0.7723 0.03211 0.0
H1458 H 0.26803 0.73702 0.06294 0.0
H1459 H 0.25842 0.74834 0.04568 0.0
H1460 H 0.30424 0.74387 0.04706 0.0
H1461 H 0.29468 0.75519 0.02997 0.0
N1462 N 0.27454 0.75525 0.0142 0.0
N1463 N 0.25697 0.77296 0.0149 0.0
C1464 C 0.97077 0.24443 0.25737 0.0
C1465 C 0.96901 0.24208 0.24466 0.0
C1466 C 0.98153 0.25045 0.26162 0.0
C1467 C 0.99068 0.25455 0.25325 0.0
C1468 C 0.97823 0.24612 0.23629 0.0
C1469 C 0.98896 0.25224 0.24055 0.0
C1470 C 1.00243 0.26039 0.25777 0.0
C1471 C 0.97214 0.28634 0.26809 0.0
C1472 C 0.97049 0.28822 0.28088 0.0
C1473 C 0.98263 0.2803 0.26367 0.0
C1474 C 0.99166 0.27575 0.27193 0.0
C1475 C 0.97964 0.28384 0.28912 0.0
C1476 C 0.99013 0.27773 0.28469 0.0
C1477 C 1.00288 0.26937 0.26726 0.0
C1478 C 0.05785 0.28042 0.27397 0.0
C1479 C 0.05878 0.27858 0.28687 0.0
C1480 C 0.0469 0.27715 0.2676 0.0
C1481 C 0.03672 0.27202 0.27404 0.0
C1482 C 0.04842 0.27381 0.29328 0.0
C1483 C 0.03751 0.27065 0.28695 0.0
C1484 C 0.0251 0.26816 0.26765 0.0
C1485 C 0.0553 0.24296 0.25282 0.0
C1486 C 0.05549 0.24194 0.23983 0.0
C1487 C 0.04545 0.24891 0.25873 0.0
C1488 C 0.03581 0.25428 0.25173 0.0
C1489 C 0.04589 0.24733 0.23288 0.0
C1490 C 0.03619 0.25343 0.23875 0.0
C1491 C 0.02468 0.25977 0.25761 0.0
H1492 H 0.96385 0.24157 0.26408 0.0
H1493 H 0.98275 0.25171 0.2715 0.0
H1494 H 0.9773 0.2443 0.22647 0.0
H1495 H 0.99597 0.25511 0.23392 0.0
H1496 H 0.96527 0.28947 0.26145 0.0
H1497 H 0.98371 0.27924 0.25376 0.0
H1498 H 0.97881 0.28529 0.299 0.0
H1499 H 0.99703 0.27447 0.29125 0.0
H1500 H 0.06568 0.28409 0.2688 0.0
H1501 H 0.04642 0.27854 0.25766 0.0
H1502 H 0.04876 0.27249 0.30324 0.0
H1503 H 0.02973 0.26687 0.29214 0.0
H1504 H 0.0625 0.23872 0.2584 0.0
H1505 H 0.04521 0.24894 0.26876 0.0
H1506 H 0.04582 0.24673 0.22286 0.0
H1507 H 0.02886 0.25737 0.23311 0.0
N1508 N 0.01333 0.25618 0.25318 0.0
N1509 N 0.01419 0.27268 0.27199 0.0
C1510 C 0.74165 0.9701 0.27288 0.0
C1511 C 0.74322 0.96832 0.28575 0.0
C1512 C 0.74705 0.98039 0.26689 0.0
C1513 C 0.75407 0.98908 0.27367 0.0
C1514 C 0.75078 0.97678 0.29231 0.0
C1515 C 0.756 0.9871 0.28637 0.0
C1516 C 0.75838 1.0009 0.26803 0.0
C1517 C 0.78304 0.97176 0.25104 0.0
C1518 C 0.78215 0.97099 0.23803 0.0
C1519 C 0.77748 0.9815 0.25744 0.0
C1520 C 0.7709 0.99068 0.25098 0.0
C1521 C 0.77527 0.98007 0.23167 0.0
C1522 C 0.76984 0.98985 0.23805 0.0
C1523 C 0.76599 1.00169 0.25743 0.0
C1524 C 0.78508 0.05366 0.26001 0.0
C1525 C 0.78644 0.05652 0.24735 0.0
C1526 C 0.77822 0.04327 0.26379 0.0
C1527 C 0.77241 0.03554 0.25502 0.0
C1528 C 0.78043 0.04893 0.23856 0.0
C1529 C 0.77357 0.03847 0.24237 0.0
C1530 C 0.76622 0.02382 0.259 0.0
C1531 C 0.74232 0.0539 0.27525 0.0
C1532 C 0.74044 0.05328 0.28813 0.0
C1533 C 0.7483 0.04428 0.26906 0.0
C1534 C 0.75279 0.03396 0.27567 0.0
C1535 C 0.74511 0.04307 0.29473 0.0
C1536 C 0.75118 0.03355 0.28859 0.0
C1537 C 0.75809 0.02303 0.26927 0.0
H1538 H 0.73582 0.96386 0.26753 0.0
H1539 H 0.74529 0.98183 0.2571 0.0
H1540 H 0.75251 0.97558 0.30214 0.0
H1541 H 0.76141 0.99367 0.29178 0.0
H1542 H 0.78841 0.96511 0.25628 0.0
H1543 H 0.77872 0.98208 0.26738 0.0
H1544 H 0.77413 0.9797 0.2217 0.0
H1545 H 0.76484 0.99683 0.23285 0.0
H1546 H 0.78952 0.05936 0.26701 0.0
H1547 H 0.7778 0.04107 0.27359 0.0
H1548 H 0.7814 0.05081 0.22874 0.0
H1549 H 0.76932 0.03256 0.23542 0.0
H1550 H 0.73869 0.06158 0.26989 0.0
H1551 H 0.74901 0.04473 0.25906 0.0
H1552 H 0.74392 0.04238 0.30468 0.0
H1553 H 0.75449 0.02573 0.29395 0.0
N1554 N 0.75468 0.01158 0.27343 0.0
N1555 N 0.76966 0.01313 0.25338 0.0
C1556 C 0.05421 0.78533 0.2599 0.0
C1557 C 0.05643 0.7868 0.24713 0.0
C1558 C 0.04345 0.77925 0.2641 0.0
C1559 C 0.03472 0.77443 0.25563 0.0
C1560 C 0.04763 0.78204 0.23867 0.0
C1561 C 0.03685 0.776 0.24288 0.0
C1562 C 0.02315 0.76816 0.25997 0.0
C1563 C 0.0552 0.74472 0.27006 0.0
C1564 C 0.05744 0.74354 0.28286 0.0
C1565 C 0.0439 0.74923 0.26565 0.0
C1566 C 0.03463 0.75297 0.27392 0.0
C1567 C 0.04789 0.74654 0.29114 0.0
C1568 C 0.03657 0.75122 0.2867 0.0
C1569 C 0.02302 0.75873 0.26915 0.0
C1570 C 0.96925 0.74198 0.26784 0.0
C1571 C 0.96599 0.74213 0.28045 0.0
C1572 C 0.98071 0.74675 0.26392 0.0
C1573 C 0.98909 0.75201 0.27247 0.0
C1574 C 0.97468 0.74675 0.2891 0.0
C1575 C 0.98614 0.75163 0.28514 0.0
C1576 C 1.00079 0.75806 0.2682 0.0
C1577 C 0.96857 0.77986 0.25261 0.0
C1578 C 0.96787 0.77919 0.23961 0.0
C1579 C 0.97936 0.77616 0.25892 0.0
C1580 C 0.98963 0.77173 0.25233 0.0
C1581 C 0.97834 0.77518 0.23305 0.0
C1582 C 0.9891 0.77159 0.23934 0.0
C1583 C 1.00099 0.76721 0.25873 0.0
H1584 H 0.06082 0.78882 0.26667 0.0
H1585 H 0.04192 0.7784 0.27399 0.0
H1586 H 0.04896 0.78317 0.22879 0.0
H1587 H 0.0302 0.77248 0.23617 0.0
H1588 H 0.06226 0.7422 0.26343 0.0
H1589 H 0.04248 0.74997 0.25573 0.0
H1590 H 0.04934 0.74569 0.30105 0.0
H1591 H 0.0295 0.75384 0.29326 0.0
H1592 H 0.9629 0.73821 0.26097 0.0
H1593 H 0.98293 0.74653 0.25414 0.0
H1594 H 0.97244 0.74698 0.29887 0.0
H1595 H 0.99252 0.75548 0.29193 0.0
H1596 H 0.96066 0.7829 0.25792 0.0
H1597 H 0.97962 0.77662 0.26895 0.0
H1598 H 0.97817 0.77475 0.22303 0.0
H1599 H 0.99694 0.76836 0.23403 0.0
N1600 N 0.01216 0.77187 0.25501 0.0
N1601 N 0.01181 0.75418 0.27305 0.0
C1602 C 0.25897 0.97087 0.24257 0.0
C1603 C 0.24619 0.96857 0.24074 0.0
C1604 C 0.2631 0.98156 0.24868 0.0
C1605 C 0.25454 0.99016 0.25318 0.0
C1606 C 0.23765 0.97717 0.24529 0.0
C1607 C 0.24178 0.98788 0.25135 0.0
C1608 C 0.25881 1.00184 0.25913 0.0
C1609 C 0.26944 0.97152 0.28549 0.0
C1610 C 0.28231 0.96983 0.28694 0.0
C1611 C 0.26486 0.98199 0.27941 0.0
C1612 C 0.27303 0.99101 0.27456 0.0
C1613 C 0.29049 0.97887 0.28208 0.0
C1614 C 0.28589 0.98942 0.27606 0.0
C1615 C 0.26811 1.00231 0.26845 0.0
C1616 C 0.2665 0.05599 0.28407 0.0
C1617 C 0.27922 0.05906 0.28457 0.0
C1618 C 0.26249 0.04461 0.27929 0.0
C1619 C 0.27109 0.03618 0.27457 0.0
C1620 C 0.28788 0.05033 0.28052 0.0
C1621 C 0.28384 0.03899 0.27556 0.0
C1622 C 0.26686 0.02442 0.2687 0.0
C1623 C 0.25099 0.05607 0.24647 0.0
C1624 C 0.23794 0.05645 0.24717 0.0
C1625 C 0.25739 0.04543 0.25021 0.0
C1626 C 0.25085 0.03501 0.25475 0.0
C1627 C 0.23144 0.0458 0.2512 0.0
C1628 C 0.23782 0.03519 0.25487 0.0
C1629 C 0.25736 0.02391 0.25956 0.0
H1630 H 0.2658 0.96441 0.23925 0.0
H1631 H 0.273 0.98321 0.24968 0.0
H1632 H 0.22775 0.97577 0.24389 0.0
H1633 H 0.235 0.99443 0.25461 0.0
H1634 H 0.26288 0.96471 0.28905 0.0
H1635 H 0.25489 0.9831 0.27863 0.0
H1636 H 0.30045 0.97791 0.28317 0.0
H1637 H 0.29237 0.99631 0.27252 0.0
H1638 H 0.25962 0.06242 0.28737 0.0
H1639 H 0.25263 0.04249 0.27916 0.0
H1640 H 0.29774 0.05243 0.28081 0.0
H1641 H 0.29067 0.03256 0.27218 0.0
H1642 H 0.25626 0.06411 0.24341 0.0
H1643 H 0.26744 0.04542 0.24976 0.0
H1644 H 0.22139 0.04571 0.25163 0.0
H1645 H 0.23256 0.02723 0.25817 0.0
N1646 N 0.25372 0.01264 0.25518 0.0
N1647 N 0.27188 0.01359 0.27275 0.0
C1648 C 0.97096 0.74789 0.75082 0.0
C1649 C 0.96969 0.75083 0.73816 0.0
C1650 C 0.98182 0.75112 0.75731 0.0
C1651 C 0.9916 0.75744 0.7513 0.0
C1652 C 0.97968 0.7568 0.7321 0.0
C1653 C 0.99053 0.75999 0.73858 0.0
C1654 C 1.00307 0.76118 0.75807 0.0
C1655 C 0.97113 0.78223 0.77447 0.0
C1656 C 0.96893 0.77894 0.78691 0.0
C1657 C 0.98223 0.77889 0.76867 0.0
C1658 C 0.99132 0.77221 0.77521 0.0
C1659 C 0.97824 0.77266 0.79352 0.0
C1660 C 0.98933 0.76941 0.78776 0.0
C1661 C 1.00293 0.76804 0.7692 0.0
C1662 C 0.05766 0.77923 0.77791 0.0
C1663 C 0.05813 0.77756 0.79085 0.0
C1664 C 0.04696 0.77588 0.77119 0.0
C1665 C 0.03654 0.77078 0.77727 0.0
C1666 C 0.04756 0.77278 0.79691 0.0
C1667 C 0.03688 0.7695 0.79022 0.0
C1668 C 0.02512 0.76702 0.77037 0.0
C1669 C 0.05477 0.74087 0.75803 0.0
C1670 C 0.05712 0.74056 0.74521 0.0
C1671 C 0.04456 0.74722 0.76267 0.0
C1672 C 0.03658 0.75372 0.75466 0.0
C1673 C 0.0491 0.74703 0.73719 0.0
C1674 C 0.03893 0.75348 0.74186 0.0
C1675 C 0.02523 0.7598 0.75945 0.0
H1676 H 0.96345 0.74332 0.75578 0.0
H1677 H 0.98254 0.74874 0.76705 0.0
H1678 H 0.97911 0.75899 0.72231 0.0
H1679 H 0.99802 0.76467 0.7337 0.0
H1680 H 0.96414 0.78707 0.76913 0.0
H1681 H 0.98366 0.78141 0.75905 0.0
H1682 H 0.97692 0.77018 0.80317 0.0
H1683 H 0.99625 0.76441 0.79306 0.0
H1684 H 0.06564 0.78288 0.77296 0.0
H1685 H 0.04684 0.77726 0.76124 0.0
H1686 H 0.04751 0.77159 0.80689 0.0
H1687 H 0.02893 0.76575 0.79516 0.0
H1688 H 0.06077 0.73613 0.76454 0.0
H1689 H 0.04278 0.74681 0.77253 0.0
H1690 H 0.05047 0.74685 0.72726 0.0
H1691 H 0.03281 0.75821 0.73544 0.0
N1692 N 0.0142 0.75735 0.75365 0.0
N1693 N 0.01395 0.77067 0.77488 0.0
C1694 C 0.24487 0.96748 0.76531 0.0
C1695 C 0.24358 0.96482 0.77802 0.0
C1696 C 0.24935 0.97904 0.76134 0.0
C1697 C 0.25298 0.98809 0.76999 0.0
C1698 C 0.2467 0.97405 0.78666 0.0
C1699 C 0.25136 0.98556 0.78268 0.0
C1700 C 0.25811 1.00032 0.76597 0.0
C1701 C 0.28492 0.97204 0.7509 0.0
C1702 C 0.28525 0.97169 0.73785 0.0
C1703 C 0.27896 0.98169 0.75704 0.0
C1704 C 0.27314 0.99118 0.75028 0.0
C1705 C 0.27932 0.9812 0.73115 0.0
C1706 C 0.27346 0.99087 0.7373 0.0
C1707 C 0.26719 1.00174 0.7566 0.0
C1708 C 0.284 0.05453 0.76168 0.0
C1709 C 0.28613 0.05755 0.74916 0.0
C1710 C 0.27746 0.04373 0.76495 0.0
C1711 C 0.27274 0.03578 0.75575 0.0
C1712 C 0.28126 0.04965 0.73997 0.0
C1713 C 0.27471 0.03885 0.74324 0.0
C1714 C 0.26675 0.02375 0.75909 0.0
C1715 C 0.24169 0.0532 0.77441 0.0
C1716 C 0.23896 0.05217 0.7871 0.0
C1717 C 0.24776 0.04362 0.76825 0.0
C1718 C 0.25156 0.03295 0.77474 0.0
C1719 C 0.24266 0.04148 0.79355 0.0
C1720 C 0.24888 0.03201 0.78745 0.0
C1721 C 0.25754 0.02237 0.76836 0.0
H1722 H 0.24229 0.96064 0.75843 0.0
H1723 H 0.24993 0.98088 0.75149 0.0
H1724 H 0.24581 0.97227 0.79651 0.0
H1725 H 0.25391 0.99242 0.78956 0.0
H1726 H 0.28954 0.96504 0.75639 0.0
H1727 H 0.27906 0.98186 0.76708 0.0
H1728 H 0.27915 0.98117 0.72112 0.0
H1729 H 0.26907 0.99809 0.73188 0.0
H1730 H 0.28752 0.06044 0.76901 0.0
H1731 H 0.27638 0.04145 0.77467 0.0
H1732 H 0.28287 0.05158 0.73024 0.0
H1733 H 0.27131 0.03278 0.73598 0.0
H1734 H 0.23877 0.06124 0.76915 0.0
H1735 H 0.24921 0.04447 0.75836 0.0
H1736 H 0.24073 0.04044 0.80335 0.0
H1737 H 0.25158 0.02389 0.7927 0.0
N1738 N 0.2537 1.01069 0.77146 0.0
N1739 N 0.27108 0.01339 0.75353 0.0
C1740 C 0.05486 0.28538 0.75906 0.0
C1741 C 0.05632 0.28745 0.74625 0.0
C1742 C 0.04432 0.27924 0.76362 0.0
C1743 C 0.03508 0.27477 0.7555 0.0
C1744 C 0.04696 0.28314 0.73814 0.0
C1745 C 0.03642 0.27693 0.74273 0.0
C1746 C 0.02382 0.26832 0.76036 0.0
C1747 C 0.05659 0.24489 0.76857 0.0
C1748 C 0.05943 0.24353 0.78124 0.0
C1749 C 0.04509 0.24947 0.76476 0.0
C1750 C 0.03622 0.25306 0.77352 0.0
C1751 C 0.0503 0.24644 0.79 0.0
C1752 C 0.0388 0.25116 0.78617 0.0
C1753 C 0.02435 0.25884 0.76949 0.0
C1754 C 0.97012 0.24466 0.77638 0.0
C1755 C 0.96931 0.24502 0.78939 0.0
C1756 C 0.98082 0.24898 0.77032 0.0
C1757 C 0.99093 0.25378 0.77715 0.0
C1758 C 0.9796 0.2495 0.79619 0.0
C1759 C 0.99031 0.25375 0.79014 0.0
C1760 C 1.00217 0.25887 0.77092 0.0
C1761 C 0.97039 0.28397 0.76121 0.0
C1762 C 0.96713 0.28366 0.74855 0.0
C1763 C 0.98159 0.27895 0.7654 0.0
C1764 C 0.9898 0.27346 0.75704 0.0
C1765 C 0.97554 0.27841 0.74017 0.0
C1766 C 0.98679 0.27346 0.74437 0.0
C1767 C 1.00163 0.26796 0.76142 0.0
H1768 H 0.0619 0.28845 0.76559 0.0
H1769 H 0.04338 0.27803 0.77355 0.0
H1770 H 0.04767 0.28473 0.72825 0.0
H1771 H 0.02933 0.27374 0.73628 0.0
H1772 H 0.06331 0.24246 0.76158 0.0
H1773 H 0.0432 0.25037 0.75492 0.0
H1774 H 0.0522 0.24548 0.79982 0.0
H1775 H 0.03206 0.25368 0.79311 0.0
H1776 H 0.96236 0.24129 0.77086 0.0
H1777 H 0.98117 0.24864 0.7603 0.0
H1778 H 0.97937 0.2497 0.80622 0.0
H1779 H 0.99803 0.25728 0.79561 0.0
H1780 H 0.96434 0.2882 0.76792 0.0
H1781 H 0.98386 0.27938 0.77518 0.0
H1782 H 0.97334 0.27788 0.73039 0.0
H1783 H 0.99303 0.26936 0.73774 0.0
N1784 N 0.01247 0.27234 0.75655 0.0
N1785 N 0.01351 0.25465 0.77456 0.0
C1786 C 0.76066 0.96963 0.74572 0.0
C1787 C 0.74805 0.96595 0.74568 0.0
C1788 C 0.76436 0.98111 0.75054 0.0
C1789 C 0.75554 0.98917 0.75548 0.0
C1790 C 0.73923 0.97419 0.75042 0.0
C1791 C 0.74293 0.9857 0.75516 0.0
C1792 C 0.75933 1.00135 0.76067 0.0
C1793 C 0.77519 0.9721 0.78611 0.0
C1794 C 0.78808 0.97299 0.78818 0.0
C1795 C 0.76884 0.98171 0.78015 0.0
C1796 C 0.7753 0.99227 0.77579 0.0
C1797 C 0.7945 0.98361 0.78396 0.0
C1798 C 0.78819 0.99312 0.77785 0.0
C1799 C 0.76875 1.00281 0.76977 0.0
C1800 C 0.76484 0.05723 0.78248 0.0
C1801 C 0.77752 0.06028 0.78377 0.0
C1802 C 0.76111 0.04567 0.7779 0.0
C1803 C 0.76998 0.03701 0.77419 0.0
C1804 C 0.78639 0.05141 0.78058 0.0
C1805 C 0.78265 0.0399 0.77584 0.0
C1806 C 0.7662 0.02483 0.76892 0.0
C1807 C 0.75101 0.05386 0.74277 0.0
C1808 C 0.73814 0.05309 0.74057 0.0
C1809 C 0.75717 0.04426 0.74895 0.0
C1810 C 0.75051 0.03386 0.75342 0.0
C1811 C 0.73154 0.04262 0.74486 0.0
C1812 C 0.73765 0.03313 0.75121 0.0
C1813 C 0.75686 0.02335 0.75971 0.0
H1814 H 0.76771 0.9637 0.7419 0.0
H1815 H 0.77411 0.98371 0.75038 0.0
H1816 H 0.72947 0.97167 0.75069 0.0
H1817 H 0.73595 0.99181 0.75884 0.0
H1818 H 0.76997 0.96414 0.78945 0.0
H1819 H 0.75884 0.98097 0.77919 0.0
H1820 H 0.80444 0.98455 0.78535 0.0
H1821 H 0.7934 1.00118 0.77471 0.0
H1822 H 0.75778 0.06378 0.7851 0.0
H1823 H 0.75127 0.04353 0.77722 0.0
H1824 H 0.79623 0.05348 0.78145 0.0
H1825 H 0.78969 0.03333 0.77323 0.0
H1826 H 0.75636 0.06172 0.73938 0.0
H1827 H 0.76716 0.04489 0.75006 0.0
H1828 H 0.7216 0.04178 0.74333 0.0
H1829 H 0.73229 0.02519 0.75441 0.0
N1830 N 0.75375 0.01166 0.75608 0.0
N1831 N 0.77181 0.0145 0.77346 0.0
C1832 C 0.25741 0.74432 0.55669 0.0
C1833 C 0.24452 0.74253 0.55787 0.0
C1834 C 0.2625 0.74862 0.54557 0.0
C1835 C 0.25479 0.75163 0.53545 0.0
C1836 C 0.23684 0.74479 0.54754 0.0
C1837 C 0.24194 0.74933 0.53643 0.0
C1838 C 0.26013 0.75706 0.52389 0.0
C1839 C 0.26797 0.7853 0.55352 0.0
C1840 C 0.28062 0.78734 0.55628 0.0
C1841 C 0.26436 0.77839 0.54317 0.0
C1842 C 0.27331 0.77322 0.53536 0.0
C1843 C 0.28959 0.7821 0.54851 0.0
C1844 C 0.28596 0.7752 0.5381 0.0
C1845 C 0.2695 0.76638 0.524 0.0
C1846 C 0.27705 0.78097 0.47089 0.0
C1847 C 0.29013 0.7817 0.47081 0.0
C1848 C 0.27075 0.77517 0.48075 0.0
C1849 C 0.27742 0.76994 0.49067 0.0
C1850 C 0.29673 0.77603 0.48057 0.0
C1851 C 0.29045 0.77034 0.49041 0.0
C1852 C 0.27109 0.76512 0.50194 0.0
C1853 C 0.26021 0.7388 0.47121 0.0
C1854 C 0.24735 0.73817 0.46879 0.0
C1855 C 0.2648 0.74481 0.48178 0.0
C1856 C 0.25664 0.75036 0.49016 0.0
C1857 C 0.23921 0.74379 0.47716 0.0
C1858 C 0.2438 0.74972 0.48778 0.0
C1859 C 0.26131 0.75624 0.50173 0.0
H1860 H 0.26358 0.7424 0.56442 0.0
H1861 H 0.27249 0.74972 0.54494 0.0
H1862 H 0.22688 0.74344 0.5482 0.0
H1863 H 0.23579 0.75135 0.52872 0.0
H1864 H 0.26082 0.78913 0.55935 0.0
H1865 H 0.25454 0.77725 0.54115 0.0
H1866 H 0.2994 0.78362 0.55027 0.0
H1867 H 0.29304 0.77143 0.53215 0.0
H1868 H 0.27165 0.78534 0.46362 0.0
H1869 H 0.26069 0.77521 0.48084 0.0
H1870 H 0.30679 0.77615 0.48072 0.0
H1871 H 0.29581 0.76638 0.49795 0.0
H1872 H 0.26675 0.73462 0.46493 0.0
H1873 H 0.27472 0.74491 0.48352 0.0
H1874 H 0.22925 0.74333 0.47567 0.0
H1875 H 0.2373 0.75381 0.49416 0.0
N1876 N 0.25626 0.75252 0.51273 0.0
N1877 N 0.27472 0.76986 0.51305 0.0
C1878 C 0.78443 0.75261 0.55504 0.0
C1879 C 0.78517 0.73963 0.55478 0.0
C1880 C 0.77858 0.75906 0.54536 0.0
C1881 C 0.77312 0.75261 0.53539 0.0
C1882 C 0.77954 0.73322 0.54489 0.0
C1883 C 0.77363 0.73964 0.5353 0.0
C1884 C 0.76794 0.75917 0.52441 0.0
C1885 C 0.74415 0.77216 0.5566 0.0
C1886 C 0.74268 0.78504 0.55737 0.0
C1887 C 0.74998 0.76694 0.54629 0.0
C1888 C 0.75478 0.77457 0.53676 0.0
C1889 C 0.74755 0.79263 0.54794 0.0
C1890 C 0.75357 0.78747 0.5378 0.0
C1891 C 0.75988 0.76944 0.52507 0.0
C1892 C 0.74702 0.77839 0.47084 0.0
C1893 C 0.74819 0.79137 0.47044 0.0
C1894 C 0.75059 0.77177 0.48145 0.0
C1895 C 0.75552 0.77799 0.49183 0.0
C1896 C 0.75257 0.79758 0.48106 0.0
C1897 C 0.75615 0.79096 0.49164 0.0
C1898 C 0.76009 0.77115 0.50291 0.0
C1899 C 0.78395 0.76148 0.47082 0.0
C1900 C 0.78316 0.74897 0.46734 0.0
C1901 C 0.77946 0.76533 0.48228 0.0
C1902 C 0.77381 0.7568 0.49044 0.0
C1903 C 0.77817 0.74031 0.4758 0.0
C1904 C 0.77354 0.7442 0.48726 0.0
C1905 C 0.76824 0.76102 0.50225 0.0
H1906 H 0.78881 0.7578 0.56247 0.0
H1907 H 0.77869 0.76908 0.54549 0.0
H1908 H 0.77984 0.72321 0.54448 0.0
H1909 H 0.76957 0.73443 0.5277 0.0
H1910 H 0.7403 0.76612 0.56369 0.0
H1911 H 0.75032 0.75696 0.54558 0.0
H1912 H 0.74651 0.80259 0.54833 0.0
H1913 H 0.75707 0.79359 0.5306 0.0
H1914 H 0.74369 0.77332 0.46283 0.0
H1915 H 0.74967 0.76177 0.48148 0.0
H1916 H 0.75333 0.80758 0.48119 0.0
H1917 H 0.75972 0.796 0.49957 0.0
H1918 H 0.78801 0.76833 0.46464 0.0
H1919 H 0.78025 0.77503 0.48469 0.0
H1920 H 0.77746 0.73061 0.47339 0.0
H1921 H 0.76942 0.73742 0.49348 0.0
N1922 N 0.77172 0.75537 0.513 0.0
N1923 N 0.75635 0.77497 0.51426 0.0
C1924 C 0.78481 0.26633 0.4706 0.0
C1925 C 0.78423 0.27885 0.46694 0.0
C1926 C 0.77984 0.26237 0.48192 0.0
C1927 C 0.77413 0.27082 0.48986 0.0
C1928 C 0.77879 0.28734 0.4751 0.0
C1929 C 0.77389 0.28337 0.48647 0.0
C1930 C 0.76853 0.26665 0.50174 0.0
C1931 C 0.74563 0.25065 0.4707 0.0
C1932 C 0.74522 0.23762 0.47044 0.0
C1933 C 0.75013 0.25694 0.48114 0.0
C1934 C 0.75455 0.25035 0.49152 0.0
C1935 C 0.74923 0.23108 0.48104 0.0
C1936 C 0.7538 0.23737 0.49145 0.0
C1937 C 0.75972 0.25687 0.50257 0.0
C1938 C 0.74302 0.25934 0.55586 0.0
C1939 C 0.74129 0.2466 0.5583 0.0
C1940 C 0.74895 0.26341 0.54503 0.0
C1941 C 0.75357 0.25485 0.53648 0.0
C1942 C 0.74581 0.23807 0.54964 0.0
C1943 C 0.75183 0.24215 0.53887 0.0
C1944 C 0.75944 0.25899 0.52467 0.0
C1945 C 0.78423 0.2748 0.55499 0.0
C1946 C 0.78635 0.28766 0.55436 0.0
C1947 C 0.77825 0.26858 0.54521 0.0
C1948 C 0.77397 0.27515 0.53475 0.0
C1949 C 0.78207 0.2942 0.5439 0.0
C1950 C 0.77597 0.28802 0.53423 0.0
C1951 C 0.76836 0.26874 0.52384 0.0
H1952 H 0.78918 0.25956 0.46474 0.0
H1953 H 0.78043 0.25268 0.48448 0.0
H1954 H 0.77805 0.29702 0.47259 0.0
H1955 H 0.76962 0.29008 0.49249 0.0
H1956 H 0.74267 0.25603 0.46274 0.0
H1957 H 0.7502 0.26696 0.48107 0.0
H1958 H 0.74879 0.22107 0.48133 0.0
H1959 H 0.75693 0.23207 0.49939 0.0
H1960 H 0.73978 0.26621 0.56232 0.0
H1961 H 0.74977 0.27326 0.54329 0.0
H1962 H 0.74446 0.22822 0.55103 0.0
H1963 H 0.75511 0.23535 0.53235 0.0
H1964 H 0.78758 0.2695 0.56284 0.0
H1965 H 0.77728 0.25861 0.54572 0.0
H1966 H 0.78349 0.30412 0.54318 0.0
H1967 H 0.77288 0.29333 0.52627 0.0
N1968 N 0.77243 0.27221 0.51238 0.0
N1969 N 0.7556 0.2534 0.514 0.0
C1970 C 0.25379 0.28135 0.47083 0.0
C1971 C 0.24111 0.27895 0.46847 0.0
C1972 C 0.25941 0.27707 0.48175 0.0
C1973 C 0.25249 0.27025 0.49051 0.0
C1974 C 0.23418 0.27229 0.47737 0.0
C1975 C 0.2398 0.26807 0.48829 0.0
C1976 C 0.25821 0.2659 0.50228 0.0
C1977 C 0.2771 0.24572 0.47129 0.0
C1978 C 0.29 0.2479 0.47061 0.0
C1979 C 0.2704 0.24931 0.48176 0.0
C1980 C 0.27643 0.25528 0.49171 0.0
C1981 C 0.29605 0.25347 0.48078 0.0
C1982 C 0.28935 0.25709 0.4912 0.0
C1983 C 0.26953 0.25935 0.50286 0.0
C1984 C 0.27321 0.2451 0.55692 0.0
C1985 C 0.28593 0.2474 0.55908 0.0
C1986 C 0.26753 0.24911 0.54593 0.0
C1987 C 0.27445 0.25552 0.53687 0.0
C1988 C 0.29285 0.2537 0.54993 0.0
C1989 C 0.28719 0.25763 0.53891 0.0
C1990 C 0.26865 0.25956 0.52503 0.0
C1991 C 0.25063 0.28315 0.55432 0.0
C1992 C 0.23774 0.28114 0.55561 0.0
C1993 C 0.2571 0.27802 0.54439 0.0
C1994 C 0.25084 0.27073 0.53554 0.0
C1995 C 0.23158 0.27364 0.54682 0.0
C1996 C 0.23803 0.26861 0.53685 0.0
C1997 C 0.25735 0.26608 0.52443 0.0
H1998 H 0.2594 0.28642 0.46417 0.0
H1999 H 0.26915 0.27918 0.48338 0.0
H2000 H 0.22436 0.27047 0.47596 0.0
H2001 H 0.23422 0.263 0.49499 0.0
H2002 H 0.27213 0.24145 0.46364 0.0
H2003 H 0.2605 0.24741 0.48205 0.0
H2004 H 0.30601 0.25503 0.48074 0.0
H2005 H 0.29427 0.26147 0.49881 0.0
H2006 H 0.26761 0.24031 0.56379 0.0
H2007 H 0.25776 0.24708 0.54446 0.0
H2008 H 0.30271 0.25546 0.55122 0.0
H2009 H 0.29276 0.26241 0.53201 0.0
H2010 H 0.25568 0.28904 0.56074 0.0
H2011 H 0.26693 0.28005 0.54343 0.0
H2012 H 0.22172 0.27166 0.54759 0.0
H2013 H 0.23299 0.26305 0.53012 0.0
N2014 N 0.25255 0.26891 0.51308 0.0
N2015 N 0.27431 0.25653 0.51422 0.0
C2016 C 0.74335 0.47249 0.77625 0.0
C2017 C 0.74382 0.47199 0.7893 0.0
C2018 C 0.74902 0.48229 0.76977 0.0
C2019 C 0.7553 0.49178 0.7762 0.0
C2020 C 0.75028 0.48146 0.79565 0.0
C2021 C 0.75583 0.49129 0.78917 0.0
C2022 C 0.76074 0.50259 0.76957 0.0
C2023 C 0.7827 0.46917 0.76004 0.0
C2024 C 0.78289 0.46625 0.74736 0.0
C2025 C 0.77859 0.48072 0.76401 0.0
C2026 C 0.77425 0.48952 0.75542 0.0
C2027 C 0.77919 0.47529 0.73871 0.0
C2028 C 0.77491 0.48681 0.74271 0.0
C2029 C 0.7692 0.50158 0.75961 0.0
C2030 C 0.78377 0.55545 0.7512 0.0
C2031 C 0.78416 0.55581 0.73816 0.0
C2032 C 0.77925 0.54495 0.75744 0.0
C2033 C 0.77471 0.53466 0.75081 0.0
C2034 C 0.78009 0.54527 0.73157 0.0
C2035 C 0.77545 0.53483 0.73783 0.0
C2036 C 0.76938 0.52365 0.75732 0.0
C2037 C 0.74441 0.55553 0.76632 0.0
C2038 C 0.74482 0.55908 0.77886 0.0
C2039 C 0.74958 0.54436 0.76251 0.0
C2040 C 0.75532 0.53647 0.77114 0.0
C2041 C 0.75036 0.55101 0.78751 0.0
C2042 C 0.75545 0.53979 0.7837 0.0
C2043 C 0.76082 0.52459 0.7672 0.0
H2044 H 0.7383 0.46551 0.77104 0.0
H2045 H 0.74827 0.4826 0.75976 0.0
H2046 H 0.75107 0.4813 0.80565 0.0
H2047 H 0.76061 0.49852 0.79432 0.0
H2048 H 0.78576 0.46251 0.76691 0.0
H2049 H 0.77877 0.48272 0.77383 0.0
H2050 H 0.77925 0.47332 0.72888 0.0
H2051 H 0.77181 0.49349 0.73587 0.0
H2052 H 0.78675 0.56335 0.75662 0.0
H2053 H 0.77923 0.54494 0.76747 0.0
H2054 H 0.78052 0.54506 0.72155 0.0
H2055 H 0.77223 0.52694 0.73249 0.0
H2056 H 0.73998 0.56132 0.75941 0.0
H2057 H 0.74903 0.54184 0.75282 0.0
H2058 H 0.75098 0.55345 0.79722 0.0
H2059 H 0.75973 0.53381 0.79055 0.0
N2060 N 0.75695 0.51404 0.77298 0.0
N2061 N 0.77313 0.51217 0.75385 0.0
C2062 C 0.258 0.47133 0.74112 0.0
C2063 C 0.24518 0.46927 0.73932 0.0
C2064 C 0.26233 0.48184 0.74737 0.0
C2065 C 0.25395 0.49051 0.75205 0.0
C2066 C 0.2368 0.47796 0.74399 0.0
C2067 C 0.24115 0.48854 0.75019 0.0
C2068 C 0.25856 0.50188 0.75832 0.0
C2069 C 0.26773 0.47013 0.78367 0.0
C2070 C 0.28045 0.46844 0.78618 0.0
C2071 C 0.26358 0.48085 0.7777 0.0
C2072 C 0.27206 0.49009 0.77387 0.0
C2073 C 0.28892 0.47776 0.78244 0.0
C2074 C 0.28475 0.48848 0.77642 0.0
C2075 C 0.26771 0.50169 0.76781 0.0
C2076 C 0.27291 0.55581 0.78157 0.0
C2077 C 0.28592 0.55725 0.78128 0.0
C2078 C 0.26722 0.54491 0.77728 0.0
C2079 C 0.27443 0.53524 0.77259 0.0
C2080 C 0.2931 0.54741 0.7769 0.0
C2081 C 0.28742 0.5365 0.77269 0.0
C2082 C 0.26857 0.52382 0.76751 0.0
C2083 C 0.259 0.55539 0.74228 0.0
C2084 C 0.24631 0.55841 0.74252 0.0
C2085 C 0.26315 0.54415 0.74718 0.0
C2086 C 0.25472 0.53567 0.75251 0.0
C2087 C 0.23783 0.54967 0.74744 0.0
C2088 C 0.24199 0.53839 0.75231 0.0
C2089 C 0.25916 0.52402 0.75829 0.0
H2090 H 0.2647 0.46478 0.73771 0.0
H2091 H 0.27226 0.48326 0.74842 0.0
H2092 H 0.22688 0.47673 0.74262 0.0
H2093 H 0.23452 0.49516 0.75359 0.0
H2094 H 0.26093 0.46314 0.7863 0.0
H2095 H 0.25369 0.48197 0.77624 0.0
H2096 H 0.29875 0.47691 0.78439 0.0
H2097 H 0.29148 0.49552 0.77372 0.0
H2098 H 0.26711 0.56322 0.78487 0.0
H2099 H 0.25718 0.54407 0.77754 0.0
H2100 H 0.30315 0.54814 0.77674 0.0
H2101 H 0.29318 0.52912 0.76924 0.0
H2102 H 0.26578 0.56172 0.73829 0.0
H2103 H 0.27298 0.54212 0.74688 0.0
H2104 H 0.228 0.55168 0.74785 0.0
H2105 H 0.23531 0.53193 0.75627 0.0
N2106 N 0.25453 0.51304 0.75406 0.0
N2107 N 0.27245 0.51268 0.7719 0.0
C2108 C 0.24493 0.46859 0.26567 0.0
C2109 C 0.2434 0.46579 0.27833 0.0
C2110 C 0.24938 0.48021 0.26189 0.0
C2111 C 0.25256 0.48927 0.27068 0.0
C2112 C 0.24604 0.47507 0.28709 0.0
C2113 C 0.25054 0.4867 0.28329 0.0
C2114 C 0.2581 0.50135 0.26678 0.0
C2115 C 0.28667 0.4728 0.25837 0.0
C2116 C 0.28906 0.47102 0.2457 0.0
C2117 C 0.27973 0.48287 0.26234 0.0
C2118 C 0.27488 0.49138 0.25376 0.0
C2119 C 0.28413 0.47949 0.23707 0.0
C2120 C 0.27722 0.48965 0.24108 0.0
C2121 C 0.26793 0.50233 0.25816 0.0
C2122 C 0.28561 0.55473 0.26287 0.0
C2123 C 0.28775 0.55791 0.25038 0.0
C2124 C 0.27894 0.54398 0.26599 0.0
C2125 C 0.27401 0.53627 0.25671 0.0
C2126 C 0.28277 0.55019 0.24109 0.0
C2127 C 0.27604 0.53944 0.24423 0.0
C2128 C 0.26766 0.5244 0.25993 0.0
C2129 C 0.24526 0.55538 0.27627 0.0
C2130 C 0.24441 0.55474 0.28927 0.0
C2131 C 0.24942 0.54518 0.26948 0.0
C2132 C 0.2529 0.53419 0.27559 0.0
C2133 C 0.24734 0.54353 0.29524 0.0
C2134 C 0.25149 0.5334 0.28849 0.0
C2135 C 0.25803 0.52341 0.26883 0.0
H2136 H 0.24269 0.46177 0.25866 0.0
H2137 H 0.25043 0.48207 0.25207 0.0
H2138 H 0.24499 0.47322 0.29691 0.0
H2139 H 0.25282 0.49357 0.29025 0.0
H2140 H 0.29023 0.46642 0.26526 0.0
H2141 H 0.27832 0.4841 0.27219 0.0
H2142 H 0.28592 0.47845 0.22726 0.0
H2143 H 0.27368 0.49616 0.23429 0.0
H2144 H 0.2892 0.5605 0.27028 0.0
H2145 H 0.27785 0.54159 0.27569 0.0
H2146 H 0.28439 0.55223 0.23139 0.0
H2147 H 0.27251 0.53354 0.2369 0.0
H2148 H 0.24305 0.56385 0.27137 0.0
H2149 H 0.25006 0.54595 0.25949 0.0
H2150 H 0.24652 0.54259 0.30521 0.0
H2151 H 0.25391 0.525 0.29344 0.0
N2152 N 0.25366 0.51191 0.27187 0.0
N2153 N 0.2722 0.51382 0.25496 0.0
C2154 C 0.7582 0.47147 0.24346 0.0
C2155 C 0.74556 0.46815 0.24453 0.0
C2156 C 0.76268 0.48265 0.24827 0.0
C2157 C 0.75468 0.49074 0.25441 0.0
C2158 C 0.73743 0.47655 0.25012 0.0
C2159 C 0.74195 0.48777 0.25498 0.0
C2160 C 0.75962 0.5022 0.26027 0.0
C2161 C 0.77596 0.46955 0.28084 0.0
C2162 C 0.78897 0.46895 0.2797 0.0
C2163 C 0.76963 0.48033 0.27739 0.0
C2164 C 0.7762 0.49068 0.27272 0.0
C2165 C 0.7955 0.47948 0.27543 0.0
C2166 C 0.7892 0.49022 0.27205 0.0
C2167 C 0.7698 0.50213 0.26862 0.0
C2168 C 0.774 0.55492 0.28623 0.0
C2169 C 0.78701 0.55537 0.28771 0.0
C2170 C 0.76825 0.54507 0.2799 0.0
C2171 C 0.77541 0.53556 0.27479 0.0
C2172 C 0.79413 0.54604 0.28226 0.0
C2173 C 0.7884 0.53626 0.27594 0.0
C2174 C 0.76961 0.52427 0.26931 0.0
C2175 C 0.75831 0.55511 0.24363 0.0
C2176 C 0.74543 0.55701 0.24252 0.0
C2177 C 0.76288 0.54468 0.24978 0.0
C2178 C 0.7547 0.53593 0.25509 0.0
C2179 C 0.73725 0.54829 0.24792 0.0
C2180 C 0.74185 0.5378 0.25404 0.0
C2181 C 0.75952 0.52438 0.26082 0.0
H2182 H 0.76466 0.46537 0.23895 0.0
H2183 H 0.77247 0.48491 0.24733 0.0
H2184 H 0.72765 0.47429 0.2511 0.0
H2185 H 0.73558 0.49393 0.25953 0.0
H2186 H 0.77067 0.4616 0.28412 0.0
H2187 H 0.75962 0.48055 0.2783 0.0
H2188 H 0.80553 0.47942 0.27467 0.0
H2189 H 0.79451 0.49811 0.26864 0.0
H2190 H 0.76825 0.56189 0.29042 0.0
H2191 H 0.7582 0.54464 0.27944 0.0
H2192 H 0.80417 0.5462 0.28305 0.0
H2193 H 0.79416 0.52908 0.2721 0.0
H2194 H 0.76488 0.56168 0.23966 0.0
H2195 H 0.77283 0.54332 0.25012 0.0
H2196 H 0.72729 0.54938 0.24711 0.0
H2197 H 0.73534 0.5311 0.2579 0.0
N2198 N 0.75485 0.51332 0.25674 0.0
N2199 N 0.77435 0.51315 0.27275 0.0
C2200 C 0.55312 0.25869 0.73757 0.0
C2201 C 0.55569 0.24597 0.73723 0.0
C2202 C 0.54311 0.26309 0.74438 0.0
C2203 C 0.53545 0.25489 0.75113 0.0
C2204 C 0.54814 0.23776 0.74412 0.0
C2205 C 0.53803 0.24217 0.7509 0.0
C2206 C 0.52433 0.25957 0.75766 0.0
C2207 C 0.55727 0.27466 0.77868 0.0
C2208 C 0.55877 0.28759 0.77791 0.0
C2209 C 0.54629 0.26893 0.77456 0.0
C2210 C 0.53657 0.27601 0.76958 0.0
C2211 C 0.54898 0.29466 0.77304 0.0
C2212 C 0.53797 0.28894 0.76901 0.0
C2213 C 0.52477 0.27008 0.76542 0.0
C2214 C 0.47243 0.2754 0.784 0.0
C2215 C 0.47121 0.28831 0.78266 0.0
C2216 C 0.48244 0.26924 0.7786 0.0
C2217 C 0.49139 0.27586 0.77171 0.0
C2218 C 0.48007 0.29481 0.77551 0.0
C2219 C 0.49008 0.28869 0.77022 0.0
C2220 C 0.50259 0.26978 0.76669 0.0
C2221 C 0.47 0.25392 0.74539 0.0
C2222 C 0.46822 0.24112 0.74722 0.0
C2223 C 0.48097 0.25979 0.74938 0.0
C2224 C 0.49036 0.25298 0.7553 0.0
C2225 C 0.4777 0.23431 0.75303 0.0
C2226 C 0.48869 0.24017 0.75693 0.0
C2227 C 0.50216 0.25901 0.75929 0.0
H2228 H 0.55879 0.26527 0.73242 0.0
H2229 H 0.54118 0.27291 0.74412 0.0
H2230 H 0.54981 0.22789 0.74394 0.0
H2231 H 0.53218 0.23565 0.75592 0.0
H2232 H 0.56465 0.26895 0.78236 0.0
H2233 H 0.54535 0.25896 0.77537 0.0
H2234 H 0.54978 0.30466 0.77248 0.0
H2235 H 0.53056 0.29461 0.76534 0.0
H2236 H 0.46591 0.27009 0.78956 0.0
H2237 H 0.48337 0.25937 0.78011 0.0
H2238 H 0.47933 0.3047 0.77404 0.0
H2239 H 0.49685 0.294 0.76495 0.0
H2240 H 0.46287 0.25942 0.74099 0.0
H2241 H 0.48215 0.26963 0.74774 0.0
H2242 H 0.47669 0.22441 0.7544 0.0
H2243 H 0.49587 0.23471 0.76132 0.0
N2244 N 0.51304 0.25434 0.75504 0.0
N2245 N 0.51389 0.27485 0.76947 0.0
C2246 C 0.46962 0.77314 0.74736 0.0
C2247 C 0.46869 0.78614 0.74735 0.0
C2248 C 0.48046 0.76738 0.75165 0.0
C2249 C 0.49053 0.77449 0.75613 0.0
C2250 C 0.47895 0.79319 0.75152 0.0
C2251 C 0.48973 0.78744 0.75581 0.0
C2252 C 0.50216 0.7687 0.76075 0.0
C2253 C 0.47158 0.75433 0.78643 0.0
C2254 C 0.47125 0.74138 0.78783 0.0
C2255 C 0.48158 0.76019 0.78036 0.0
C2256 C 0.49123 0.75315 0.77529 0.0
C2257 C 0.48085 0.7344 0.7827 0.0
C2258 C 0.4907 0.74021 0.77652 0.0
C2259 C 0.50245 0.75897 0.76961 0.0
C2260 C 0.55681 0.7583 0.78376 0.0
C2261 C 0.55818 0.74561 0.7864 0.0
C2262 C 0.54605 0.76268 0.77798 0.0
C2263 C 0.53644 0.75446 0.77448 0.0
C2264 C 0.54854 0.7374 0.78293 0.0
C2265 C 0.53777 0.74179 0.7771 0.0
C2266 C 0.52471 0.75912 0.76885 0.0
C2267 C 0.55397 0.76769 0.74058 0.0
C2268 C 0.5563 0.78035 0.73837 0.0
C2269 C 0.54373 0.76384 0.7476 0.0
C2270 C 0.53562 0.77254 0.75265 0.0
C2271 C 0.54826 0.78908 0.74353 0.0
C2272 C 0.53794 0.7852 0.7505 0.0
C2273 C 0.52439 0.76838 0.75954 0.0
H2274 H 0.46192 0.76741 0.74422 0.0
H2275 H 0.48095 0.75737 0.75146 0.0
H2276 H 0.47871 0.80321 0.75139 0.0
H2277 H 0.49744 0.79315 0.75901 0.0
H2278 H 0.46438 0.75994 0.79044 0.0
H2279 H 0.48191 0.7702 0.77995 0.0
H2280 H 0.48079 0.7244 0.78355 0.0
H2281 H 0.49802 0.73455 0.77278 0.0
H2282 H 0.56406 0.7649 0.78618 0.0
H2283 H 0.54517 0.77254 0.77646 0.0
H2284 H 0.54917 0.7276 0.78497 0.0
H2285 H 0.53045 0.73526 0.77466 0.0
H2286 H 0.56002 0.76073 0.73681 0.0
H2287 H 0.54203 0.75401 0.74886 0.0
H2288 H 0.54973 0.79888 0.74187 0.0
H2289 H 0.53175 0.79208 0.7542 0.0
N2290 N 0.51315 0.77295 0.75604 0.0
N2291 N 0.51372 0.75468 0.77333 0.0
C2292 C 0.47145 0.78516 0.26609 0.0
C2293 C 0.46751 0.78378 0.27846 0.0
C2294 C 0.48265 0.78009 0.26215 0.0
C2295 C 0.49017 0.77346 0.27046 0.0
C2296 C 0.47527 0.77743 0.28684 0.0
C2297 C 0.48651 0.7724 0.28289 0.0
C2298 C 0.5019 0.76774 0.26625 0.0
C2299 C 0.47016 0.74752 0.24796 0.0
C2300 C 0.4699 0.74878 0.23497 0.0
C2301 C 0.48078 0.75094 0.25474 0.0
C2302 C 0.49132 0.75583 0.2487 0.0
C2303 C 0.48065 0.75324 0.22893 0.0
C2304 C 0.49124 0.75666 0.23572 0.0
C2305 C 0.50251 0.75993 0.25578 0.0
C2306 C 0.55486 0.74094 0.25871 0.0
C2307 C 0.55888 0.74231 0.24637 0.0
C2308 C 0.54367 0.74609 0.26258 0.0
C2309 C 0.53625 0.75279 0.25424 0.0
C2310 C 0.55123 0.74872 0.23795 0.0
C2311 C 0.54 0.75383 0.24183 0.0
C2312 C 0.52453 0.75855 0.25839 0.0
C2313 C 0.55623 0.77866 0.27695 0.0
C2314 C 0.55646 0.77713 0.28991 0.0
C2315 C 0.54564 0.77533 0.27008 0.0
C2316 C 0.53508 0.77034 0.27602 0.0
C2317 C 0.54572 0.77254 0.29584 0.0
C2318 C 0.53514 0.76925 0.28898 0.0
C2319 C 0.52392 0.76635 0.26886 0.0
H2320 H 0.4659 0.79025 0.25944 0.0
H2321 H 0.48542 0.78135 0.25259 0.0
H2322 H 0.47253 0.77608 0.29641 0.0
H2323 H 0.49222 0.76741 0.28949 0.0
H2324 H 0.46207 0.74415 0.25292 0.0
H2325 H 0.48071 0.74984 0.26472 0.0
H2326 H 0.48088 0.75409 0.21893 0.0
H2327 H 0.49931 0.76021 0.23082 0.0
H2328 H 0.56031 0.7358 0.2654 0.0
H2329 H 0.54082 0.74483 0.27213 0.0
H2330 H 0.55404 0.75005 0.2284 0.0
H2331 H 0.53437 0.75887 0.23519 0.0
H2332 H 0.56434 0.78215 0.27209 0.0
H2333 H 0.54573 0.77659 0.26012 0.0
H2334 H 0.54549 0.77147 0.30583 0.0
H2335 H 0.52706 0.7656 0.2938 0.0
N2336 N 0.51261 0.77056 0.27243 0.0
N2337 N 0.51381 0.75572 0.25221 0.0
C2338 C 0.47099 0.26701 0.24153 0.0
C2339 C 0.46918 0.27947 0.23816 0.0
C2340 C 0.48155 0.26345 0.24819 0.0
C2341 C 0.4905 0.27229 0.25185 0.0
C2342 C 0.47814 0.28832 0.24186 0.0
C2343 C 0.48873 0.28475 0.24855 0.0
C2344 C 0.50201 0.26845 0.25847 0.0
C2345 C 0.47022 0.25995 0.28413 0.0
C2346 C 0.46865 0.24735 0.28724 0.0
C2347 C 0.48101 0.26416 0.27818 0.0
C2348 C 0.49042 0.25585 0.275 0.0
C2349 C 0.47817 0.23909 0.28422 0.0
C2350 C 0.48895 0.24331 0.27822 0.0
C2351 C 0.50198 0.2602 0.26873 0.0
C2352 C 0.55595 0.25934 0.28431 0.0
C2353 C 0.55731 0.24663 0.28685 0.0
C2354 C 0.54529 0.26373 0.27832 0.0
C2355 C 0.53576 0.2555 0.27467 0.0
C2356 C 0.54774 0.23842 0.28321 0.0
C2357 C 0.53705 0.24282 0.27728 0.0
C2358 C 0.52423 0.26006 0.26861 0.0
C2359 C 0.5548 0.26706 0.24099 0.0
C2360 C 0.55687 0.27958 0.23784 0.0
C2361 C 0.54436 0.26345 0.24784 0.0
C2362 C 0.53579 0.27227 0.25184 0.0
C2363 C 0.54834 0.28842 0.24195 0.0
C2364 C 0.53786 0.28478 0.24878 0.0
C2365 C 0.52427 0.26838 0.25842 0.0
H2366 H 0.46425 0.25994 0.23895 0.0
H2367 H 0.4828 0.25373 0.2503 0.0
H2368 H 0.47714 0.29797 0.2393 0.0
H2369 H 0.49557 0.29172 0.25113 0.0
H2370 H 0.46308 0.26658 0.28621 0.0
H2371 H 0.48202 0.27394 0.27613 0.0
H2372 H 0.4774 0.22937 0.28666 0.0
H2373 H 0.49612 0.23673 0.27603 0.0
H2374 H 0.56316 0.26592 0.28693 0.0
H2375 H 0.54444 0.27358 0.27668 0.0
H2376 H 0.54841 0.2286 0.28517 0.0
H2377 H 0.52978 0.2363 0.27467 0.0
H2378 H 0.56121 0.26002 0.23806 0.0
H2379 H 0.54286 0.2537 0.24978 0.0
H2380 H 0.54957 0.29811 0.23955 0.0
H2381 H 0.53131 0.29174 0.25163 0.0
N2382 N 0.51317 0.27227 0.2538 0.0
N2383 N 0.51308 0.25629 0.27331 0.0
H2384 H 0.22536 0.20163 0.11572 0.0
H2385 H 0.19952 0.22925 0.12865 0.0
H2386 H 0.20471 0.24248 0.11066 0.0
H2387 H 0.24881 0.22327 0.10504 0.0
H2388 H 0.25294 0.21412 0.0918 0.0
H2389 H 0.247 0.20666 0.10556 0.0
H2390 H 0.22957 0.19615 0.09256 0.0
H2391 H 0.23546 0.20357 0.07876 0.0
H2392 H 0.21947 0.20557 0.08316 0.0
H2393 H 0.21275 0.2528 0.09127 0.0
H2394 H 0.22321 0.25951 0.072 0.0
H2395 H 0.24413 0.22541 0.07186 0.0
C2396 C 0.22085 0.2105 0.11486 0.0
C2397 C 0.21196 0.21433 0.12364 0.0
C2398 C 0.20618 0.22597 0.12198 0.0
C2399 C 0.20914 0.2336 0.11182 0.0
C2400 C 0.21793 0.22954 0.10337 0.0
C2401 C 0.22372 0.21827 0.10479 0.0
C2402 C 0.23289 0.21611 0.0944 0.0
C2403 C 0.2462 0.21498 0.09951 0.0
C2404 C 0.22911 0.20467 0.08677 0.0
C2405 C 0.23136 0.22794 0.08694 0.0
C2406 C 0.22266 0.23554 0.09226 0.0
C2407 C 0.21957 0.24691 0.08701 0.0
C2408 C 0.22551 0.25062 0.07602 0.0
C2409 C 0.23448 0.243 0.07038 0.0
C2410 C 0.23743 0.23152 0.07599 0.0
H2411 H 0.80115 0.20022 0.11516 0.0
H2412 H 0.82927 0.22653 0.12774 0.0
H2413 H 0.82451 0.24009 0.10992 0.0
H2414 H 0.80626 0.20405 0.08259 0.0
H2415 H 0.79003 0.20287 0.07852 0.0
H2416 H 0.79577 0.1951 0.09216 0.0
H2417 H 0.77957 0.20641 0.10557 0.0
H2418 H 0.77376 0.2142 0.09196 0.0
H2419 H 0.77897 0.22308 0.10514 0.0
H2420 H 0.81678 0.25079 0.09065 0.0
H2421 H 0.80624 0.25807 0.07161 0.0
H2422 H 0.78273 0.22515 0.07194 0.0
C2423 C 0.80624 0.20888 0.11427 0.0
C2424 C 0.81566 0.21223 0.12287 0.0
C2425 C 0.82219 0.2236 0.12119 0.0
C2426 C 0.81949 0.23143 0.11113 0.0
C2427 C 0.81019 0.22782 0.10284 0.0
C2428 C 0.80362 0.21685 0.10432 0.0
C2429 C 0.794 0.21519 0.09414 0.0
C2430 C 0.79668 0.20362 0.08639 0.0
C2431 C 0.78079 0.21469 0.09953 0.0
C2432 C 0.79618 0.22694 0.0867 0.0
C2433 C 0.8056 0.23408 0.09185 0.0
C2434 C 0.80939 0.24528 0.08654 0.0
C2435 C 0.8034 0.24931 0.07569 0.0
C2436 C 0.79367 0.24219 0.07028 0.0
C2437 C 0.79004 0.23086 0.07592 0.0
H2438 H 0.8182 0.82309 0.10982 0.0
H2439 H 0.79404 0.80609 0.13734 0.0
H2440 H 0.78388 0.79364 0.12103 0.0
H2441 H 0.79557 0.82549 0.08599 0.0
H2442 H 0.80593 0.82185 0.07348 0.0
H2443 H 0.81196 0.82894 0.08737 0.0
H2444 H 0.82746 0.81097 0.09016 0.0
H2445 H 0.82151 0.80385 0.07624 0.0
H2446 H 0.82171 0.79523 0.09059 0.0
H2447 H 0.77546 0.78397 0.10185 0.0
H2448 H 0.76953 0.77722 0.08082 0.0
H2449 H 0.79915 0.80002 0.06533 0.0
C2450 C 0.81092 0.81659 0.11243 0.0
C2451 C 0.80687 0.81563 0.12488 0.0
C2452 C 0.79719 0.80713 0.12787 0.0
C2453 C 0.79141 0.79996 0.11867 0.0
C2454 C 0.79543 0.80129 0.10649 0.0
C2455 C 0.805 0.80933 0.10332 0.0
C2456 C 0.80717 0.80925 0.08941 0.0
C2457 C 0.80503 0.82215 0.08373 0.0
C2458 C 0.82024 0.80454 0.08643 0.0
C2459 C 0.7972 0.80006 0.08527 0.0
C2460 C 0.79058 0.79558 0.09532 0.0
C2461 C 0.78062 0.78735 0.09392 0.0
C2462 C 0.77727 0.78364 0.08193 0.0
C2463 C 0.78384 0.78812 0.07144 0.0
C2464 C 0.79404 0.79635 0.07318 0.0
H2465 H 0.208 0.82222 0.10848 0.0
H2466 H 0.22612 0.80151 0.1379 0.0
H2467 H 0.23698 0.78908 0.12229 0.0
H2468 H 0.20391 0.7962 0.08732 0.0
H2469 H 0.20693 0.80543 0.07368 0.0
H2470 H 0.20018 0.81242 0.08715 0.0
H2471 H 0.21799 0.82878 0.08755 0.0
H2472 H 0.2248 0.82183 0.0741 0.0
H2473 H 0.23389 0.82373 0.08805 0.0
H2474 H 0.24685 0.77974 0.10363 0.0
H2475 H 0.25428 0.77335 0.08303 0.0
H2476 H 0.22957 0.79973 0.06553 0.0
C2477 C 0.21422 0.81503 0.11163 0.0
C2478 C 0.21616 0.8128 0.12444 0.0
C2479 C 0.22433 0.80327 0.12816 0.0
C2480 C 0.23061 0.7962 0.11936 0.0
C2481 C 0.22857 0.7987 0.10684 0.0
C2482 C 0.2205 0.80781 0.10295 0.0
C2483 C 0.22008 0.80866 0.08891 0.0
C2484 C 0.207 0.80548 0.08398 0.0
C2485 C 0.22445 0.82151 0.08439 0.0
C2486 C 0.22931 0.79873 0.08553 0.0
C2487 C 0.2341 0.79313 0.09603 0.0
C2488 C 0.2431 0.784 0.09534 0.0
C2489 C 0.24731 0.78048 0.08361 0.0
C2490 C 0.2425 0.78603 0.0727 0.0
C2491 C 0.23331 0.79523 0.07371 0.0
H2492 H 0.2116 0.80982 0.91038 0.0
H2493 H 0.23564 0.84234 0.90844 0.0
H2494 H 0.24604 0.83591 0.92777 0.0
H2495 H 0.20824 0.80959 0.94413 0.0
H2496 H 0.20849 0.79295 0.94533 0.0
H2497 H 0.20257 0.80023 0.93148 0.0
H2498 H 0.21819 0.78798 0.91825 0.0
H2499 H 0.22417 0.78068 0.93206 0.0
H2500 H 0.23455 0.789 0.92184 0.0
H2501 H 0.25432 0.82587 0.94682 0.0
H2502 H 0.25996 0.81275 0.96469 0.0
H2503 H 0.2307 0.78658 0.95474 0.0
C2504 C 0.21895 0.81564 0.91411 0.0
C2505 C 0.22286 0.82654 0.90781 0.0
C2506 C 0.23261 0.83385 0.91295 0.0
C2507 C 0.23853 0.83032 0.92399 0.0
C2508 C 0.23459 0.81948 0.92986 0.0
C2509 C 0.22502 0.81224 0.92516 0.0
C2510 C 0.22285 0.80086 0.93325 0.0
C2511 C 0.20976 0.80091 0.93888 0.0
C2512 C 0.22507 0.78893 0.92591 0.0
C2513 C 0.23278 0.80281 0.94313 0.0
C2514 C 0.2394 0.81364 0.94098 0.0
C2515 C 0.2492 0.81737 0.94862 0.0
C2516 C 0.25239 0.80981 0.9587 0.0
C2517 C 0.24583 0.7986 0.9611 0.0
C2518 C 0.23582 0.79514 0.95323 0.0
H2519 H 0.2201 0.22119 0.90248 0.0
H2520 H 0.19241 0.19671 0.91896 0.0
H2521 H 0.1995 0.20293 0.93982 0.0
H2522 H 0.2443 0.21578 0.92565 0.0
H2523 H 0.24982 0.2316 0.92542 0.0
H2524 H 0.24284 0.22497 0.91173 0.0
H2525 H 0.22694 0.24277 0.91096 0.0
H2526 H 0.23385 0.24944 0.92465 0.0
H2527 H 0.21748 0.24573 0.92434 0.0
H2528 H 0.20872 0.21257 0.95884 0.0
H2529 H 0.22024 0.22425 0.97489 0.0
H2530 H 0.24241 0.24223 0.94638 0.0
C2531 C 0.21556 0.21712 0.91049 0.0
C2532 C 0.20572 0.2084 0.90906 0.0
C2533 C 0.20008 0.20325 0.91979 0.0
C2534 C 0.20399 0.20678 0.93169 0.0
C2535 C 0.21364 0.21543 0.93276 0.0
C2536 C 0.21944 0.22046 0.92247 0.0
C2537 C 0.22957 0.22962 0.92626 0.0
C2538 C 0.24239 0.22522 0.92201 0.0
C2539 C 0.22679 0.24266 0.92125 0.0
C2540 C 0.22843 0.22906 0.94027 0.0
C2541 C 0.21915 0.22083 0.9438 0.0
C2542 C 0.21605 0.21898 0.9562 0.0
C2543 C 0.2226 0.2257 0.96524 0.0
C2544 C 0.23221 0.23414 0.9619 0.0
C2545 C 0.23519 0.23576 0.94922 0.0
H2546 H 0.82255 0.22702 0.91253 0.0
H2547 H 0.80269 0.19197 0.90893 0.0
H2548 H 0.78966 0.19734 0.92681 0.0
H2549 H 0.82322 0.22723 0.94595 0.0
H2550 H 0.82119 0.24373 0.94701 0.0
H2551 H 0.82877 0.23727 0.93372 0.0
H2552 H 0.81289 0.24802 0.91922 0.0
H2553 H 0.80526 0.25449 0.93247 0.0
H2554 H 0.7965 0.2453 0.92151 0.0
H2555 H 0.77882 0.20647 0.94522 0.0
H2556 H 0.7713 0.21846 0.96302 0.0
H2557 H 0.79843 0.24741 0.95491 0.0
C2558 C 0.81555 0.2204 0.91554 0.0
C2559 C 0.81366 0.20907 0.90921 0.0
C2560 C 0.80423 0.2008 0.91343 0.0
C2561 C 0.79681 0.20373 0.92365 0.0
C2562 C 0.79893 0.21496 0.92963 0.0
C2563 C 0.8081 0.22315 0.92576 0.0
C2564 C 0.80855 0.23456 0.93389 0.0
C2565 C 0.82118 0.23576 0.94054 0.0
C2566 C 0.80562 0.24629 0.92632 0.0
C2567 C 0.79822 0.2315 0.94296 0.0
C2568 C 0.79277 0.22017 0.9403 0.0
C2569 C 0.78301 0.21536 0.94736 0.0
C2570 C 0.77874 0.22229 0.95742 0.0
C2571 C 0.78423 0.23391 0.96038 0.0
C2572 C 0.7941 0.23853 0.95298 0.0
H2573 H 0.8196 0.82367 0.91935 0.0
H2574 H 0.80181 0.80228 0.89017 0.0
H2575 H 0.79106 0.78948 0.9059 0.0
H2576 H 0.824 0.79778 0.9408 0.0
H2577 H 0.82085 0.80688 0.95436 0.0
H2578 H 0.82751 0.81414 0.94082 0.0
H2579 H 0.8095 0.82984 0.94025 0.0
H2580 H 0.80278 0.82262 0.95376 0.0
H2581 H 0.79367 0.82421 0.93979 0.0
H2582 H 0.78125 0.77982 0.92464 0.0
H2583 H 0.77384 0.77316 0.9453 0.0
H2584 H 0.79827 0.80031 0.96257 0.0
C2585 C 0.81347 0.81627 0.91629 0.0
C2586 C 0.8116 0.81395 0.9035 0.0
C2587 C 0.80355 0.80412 0.89988 0.0
C2588 C 0.79734 0.79684 0.90876 0.0
C2589 C 0.79932 0.79941 0.92125 0.0
C2590 C 0.80727 0.80881 0.92505 0.0
C2591 C 0.80767 0.80965 0.93909 0.0
C2592 C 0.82079 0.80695 0.94406 0.0
C2593 C 0.80313 0.82233 0.94348 0.0
C2594 C 0.79857 0.79938 0.94257 0.0
C2595 C 0.79384 0.79363 0.93212 0.0
C2596 C 0.78494 0.78419 0.9329 0.0
C2597 C 0.78075 0.78051 0.94466 0.0
C2598 C 0.78549 0.7862 0.95552 0.0
C2599 C 0.79459 0.79571 0.95443 0.0
H2600 H 0.12444 0.22371 0.21932 0.0
H2601 H 0.10732 0.19685 0.19459 0.0
H2602 H 0.08663 0.20244 0.20238 0.0
H2603 H 0.10303 0.21867 0.24512 0.0
H2604 H 0.10289 0.23477 0.24939 0.0
H2605 H 0.11645 0.22838 0.24221 0.0
H2606 H 0.11544 0.24516 0.225 0.0
H2607 H 0.10188 0.25159 0.23211 0.0
H2608 H 0.10133 0.2469 0.21611 0.0
H2609 H 0.06776 0.21175 0.2118 0.0
H2610 H 0.05189 0.22356 0.22302 0.0
H2611 H 0.08097 0.24407 0.24222 0.0
C2612 C 0.11633 0.21898 0.21559 0.0
C2613 C 0.11752 0.20979 0.20637 0.0
C2614 C 0.10668 0.20378 0.20177 0.0
C2615 C 0.09487 0.20694 0.20609 0.0
C2616 C 0.09402 0.21607 0.21511 0.0
C2617 C 0.10444 0.22194 0.21989 0.0
C2618 C 0.10088 0.23151 0.22946 0.0
C2619 C 0.10613 0.22813 0.2423 0.0
C2620 C 0.10513 0.24456 0.22542 0.0
C2621 C 0.08682 0.23023 0.22915 0.0
C2622 C 0.08308 0.22127 0.22078 0.0
C2623 C 0.07057 0.21871 0.21845 0.0
C2624 C 0.06163 0.2255 0.22483 0.0
C2625 C 0.06521 0.23469 0.23349 0.0
C2626 C 0.07799 0.23699 0.23575 0.0
H2627 H 0.80689 0.11818 0.21026 0.0
H2628 H 0.8408 0.11774 0.23222 0.0
H2629 H 0.8339 0.09836 0.2423 0.0
H2630 H 0.78671 0.10692 0.23406 0.0
H2631 H 0.77723 0.09748 0.22394 0.0
H2632 H 0.78498 0.11111 0.21795 0.0
H2633 H 0.7956 0.09788 0.20118 0.0
H2634 H 0.78786 0.08421 0.20711 0.0
H2635 H 0.80456 0.08462 0.20582 0.0
H2636 H 0.82326 0.0796 0.25056 0.0
H2637 H 0.80947 0.0622 0.25645 0.0
H2638 H 0.78223 0.07432 0.22931 0.0
C2639 C 0.8129 0.11391 0.21709 0.0
C2640 C 0.82435 0.11954 0.22052 0.0
C2641 C 0.83191 0.11372 0.22958 0.0
C2642 C 0.82811 0.10266 0.23531 0.0
C2643 C 0.81672 0.09746 0.23188 0.0
C2644 C 0.80922 0.10282 0.22296 0.0
C2645 C 0.79726 0.09538 0.22128 0.0
C2646 C 0.78587 0.10319 0.2245 0.0
C2647 C 0.79627 0.09022 0.20806 0.0
C2648 C 0.79921 0.0851 0.23073 0.0
C2649 C 0.81053 0.0865 0.23668 0.0
C2650 C 0.81438 0.07838 0.24596 0.0
C2651 C 0.80643 0.06857 0.2493 0.0
C2652 C 0.79473 0.06693 0.24342 0.0
C2653 C 0.79115 0.07528 0.23392 0.0
H2654 H 0.9074 0.81809 0.22002 0.0
H2655 H 0.89979 0.78926 0.19306 0.0
H2656 H 0.91841 0.77813 0.20004 0.0
H2657 H 0.94094 0.81791 0.21706 0.0
H2658 H 0.94386 0.82036 0.23334 0.0
H2659 H 0.92989 0.8262 0.22627 0.0
H2660 H 0.91663 0.81427 0.24247 0.0
H2661 H 0.93056 0.80835 0.24956 0.0
H2662 H 0.91857 0.7978 0.24431 0.0
H2663 H 0.93779 0.77013 0.20956 0.0
H2664 H 0.95689 0.76555 0.22135 0.0
H2665 H 0.95233 0.79924 0.24252 0.0
C2666 C 0.9097 0.80946 0.21557 0.0
C2667 C 0.90204 0.8045 0.20605 0.0
C2668 C 0.90536 0.79315 0.20051 0.0
C2669 C 0.91597 0.78677 0.20436 0.0
C2670 C 0.92323 0.79183 0.21381 0.0
C2671 C 0.92028 0.80289 0.21938 0.0
C2672 C 0.92972 0.80615 0.22942 0.0
C2673 C 0.9365 0.81838 0.22633 0.0
C2674 C 0.9235 0.80667 0.2422 0.0
C2675 C 0.93841 0.7952 0.22855 0.0
C2676 C 0.93448 0.7871 0.21944 0.0
C2677 C 0.94099 0.7764 0.21671 0.0
C2678 C 0.95186 0.77391 0.22343 0.0
C2679 C 0.95615 0.78205 0.23282 0.0
C2680 C 0.94924 0.7928 0.23545 0.0
H2681 H 0.20219 0.91016 0.22586 0.0
H2682 H 0.22433 0.90434 0.19288 0.0
H2683 H 0.23767 0.92219 0.19852 0.0
H2684 H 0.20287 0.94351 0.2243 0.0
H2685 H 0.20374 0.94539 0.24087 0.0
H2686 H 0.19612 0.93194 0.23442 0.0
H2687 H 0.21056 0.91773 0.24731 0.0
H2688 H 0.21824 0.93114 0.25378 0.0
H2689 H 0.22718 0.91955 0.24597 0.0
H2690 H 0.2486 0.94077 0.20771 0.0
H2691 H 0.25597 0.95899 0.21948 0.0
H2692 H 0.22644 0.95302 0.24621 0.0
C2693 C 0.20976 0.91268 0.21973 0.0
C2694 C 0.2122 0.90575 0.20892 0.0
C2695 C 0.22236 0.90932 0.20132 0.0
C2696 C 0.22996 0.91951 0.2044 0.0
C2697 C 0.22729 0.9261 0.21511 0.0
C2698 C 0.21741 0.92286 0.22264 0.0
C2699 C 0.21646 0.93157 0.23355 0.0
C2700 C 0.20406 0.93851 0.23326 0.0
C2701 C 0.21822 0.92458 0.24588 0.0
C2702 C 0.22733 0.94024 0.23097 0.0
C2703 C 0.23349 0.93689 0.22032 0.0
C2704 C 0.24386 0.94347 0.21608 0.0
C2705 C 0.24802 0.95377 0.22288 0.0
C2706 C 0.24182 0.95744 0.23379 0.0
C2707 C 0.23133 0.95053 0.23785 0.0
H2708 H 0.11677 0.81819 0.81407 0.0
H2709 H 0.12331 0.78914 0.84122 0.0
H2710 H 0.10563 0.77717 0.83276 0.0
H2711 H 0.08356 0.81639 0.81469 0.0
H2712 H 0.08155 0.81904 0.79829 0.0
H2713 H 0.095 0.82528 0.80618 0.0
H2714 H 0.10938 0.81416 0.79073 0.0
H2715 H 0.09597 0.80787 0.78279 0.0
H2716 H 0.10778 0.79767 0.78866 0.0
H2717 H 0.0871 0.76849 0.82189 0.0
H2718 H 0.0686 0.7636 0.80919 0.0
H2719 H 0.07372 0.79804 0.78882 0.0
C2720 C 0.11455 0.80926 0.81814 0.0
C2721 C 0.12139 0.80467 0.8284 0.0
C2722 C 0.11809 0.79298 0.83353 0.0
C2723 C 0.10812 0.78605 0.82872 0.0
C2724 C 0.1015 0.79088 0.81873 0.0
C2725 C 0.10455 0.80219 0.81346 0.0
C2726 C 0.09566 0.80529 0.80293 0.0
C2727 C 0.08852 0.81721 0.80569 0.0
C2728 C 0.10261 0.80631 0.79054 0.0
C2729 C 0.08711 0.794 0.80321 0.0
C2730 C 0.09071 0.78581 0.81239 0.0
C2731 C 0.08419 0.77483 0.81467 0.0
C2732 C 0.07364 0.77217 0.80745 0.0
C2733 C 0.06964 0.78045 0.79805 0.0
C2734 C 0.07659 0.79147 0.79586 0.0
H2735 H 0.22292 0.12078 0.80974 0.0
H2736 H 0.19268 0.10433 0.83088 0.0
H2737 H 0.19787 0.08376 0.82268 0.0
H2738 H 0.21935 0.10106 0.78262 0.0
H2739 H 0.23584 0.1001 0.77995 0.0
H2740 H 0.22953 0.11364 0.78717 0.0
H2741 H 0.24443 0.11073 0.80586 0.0
H2742 H 0.25077 0.09718 0.79871 0.0
H2743 H 0.24442 0.09617 0.81412 0.0
H2744 H 0.207 0.06483 0.81316 0.0
H2745 H 0.21883 0.04889 0.8021 0.0
H2746 H 0.24298 0.07744 0.7867 0.0
C2747 C 0.21738 0.11285 0.81262 0.0
C2748 C 0.20734 0.1142 0.82093 0.0
C2749 C 0.20028 0.10359 0.82439 0.0
C2750 C 0.20321 0.09184 0.81984 0.0
C2751 C 0.21319 0.09082 0.81175 0.0
C2752 C 0.22012 0.10104 0.80808 0.0
C2753 C 0.23043 0.09735 0.79932 0.0
C2754 C 0.22868 0.1034 0.78651 0.0
C2755 C 0.24327 0.10055 0.80484 0.0
C2756 C 0.2283 0.08345 0.79877 0.0
C2757 C 0.21832 0.0799 0.80605 0.0
C2758 C 0.21477 0.06751 0.80737 0.0
C2759 C 0.22159 0.05852 0.80111 0.0
C2760 C 0.23181 0.06192 0.79354 0.0
C2761 C 0.23513 0.07458 0.79231 0.0
H2762 H 0.91045 0.20131 0.80401 0.0
H2763 H 0.90068 0.2272 0.83293 0.0
H2764 H 0.91914 0.23994 0.82782 0.0
H2765 H 0.94348 0.20314 0.80812 0.0
H2766 H 0.94683 0.20232 0.79179 0.0
H2767 H 0.93292 0.19512 0.79782 0.0
H2768 H 0.9196 0.20773 0.7823 0.0
H2769 H 0.93347 0.21497 0.77622 0.0
H2770 H 0.92106 0.22438 0.78197 0.0
H2771 H 0.93871 0.24991 0.8196 0.0
H2772 H 0.9578 0.25651 0.80866 0.0
H2773 H 0.95461 0.22445 0.78475 0.0
C2774 C 0.91209 0.20971 0.80921 0.0
C2775 C 0.90407 0.21318 0.81894 0.0
C2776 C 0.90675 0.22418 0.82559 0.0
C2777 C 0.91718 0.23155 0.8227 0.0
C2778 C 0.92486 0.22785 0.81308 0.0
C2779 C 0.92243 0.21721 0.8064 0.0
C2780 C 0.93215 0.21535 0.79646 0.0
C2781 C 0.93926 0.20327 0.79869 0.0
C2782 C 0.92621 0.21563 0.78347 0.0
C2783 C 0.94042 0.2266 0.79859 0.0
C2784 C 0.93607 0.23367 0.80825 0.0
C2785 C 0.94221 0.24444 0.81203 0.0
C2786 C 0.95309 0.24807 0.80581 0.0
C2787 C 0.95774 0.24099 0.79586 0.0
C2788 C 0.95124 0.23013 0.79222 0.0
H2789 H 0.80974 0.90391 0.80426 0.0
H2790 H 0.83383 0.91992 0.83246 0.0
H2791 H 0.82591 0.94069 0.82735 0.0
H2792 H 0.81324 0.92824 0.78196 0.0
H2793 H 0.7973 0.92763 0.77674 0.0
H2794 H 0.8045 0.91393 0.7829 0.0
H2795 H 0.78691 0.91165 0.7991 0.0
H2796 H 0.77965 0.92534 0.79298 0.0
H2797 H 0.7836 0.92441 0.80921 0.0
H2798 H 0.81625 0.95983 0.8185 0.0
H2799 H 0.80476 0.976 0.80711 0.0
H2800 H 0.78661 0.94773 0.78481 0.0
C2801 C 0.81333 0.91179 0.80937 0.0
C2802 C 0.82239 0.91026 0.81881 0.0
C2803 C 0.82677 0.92081 0.82533 0.0
C2804 C 0.82238 0.93266 0.82245 0.0
C2805 C 0.81353 0.93385 0.81306 0.0
C2806 C 0.80897 0.9237 0.80667 0.0
C2807 C 0.79953 0.92757 0.79694 0.0
C2808 C 0.80391 0.92414 0.78386 0.0
C2809 C 0.78666 0.9219 0.79973 0.0
C2810 C 0.79962 0.94149 0.79874 0.0
C2811 C 0.80779 0.9449 0.80808 0.0
C2812 C 0.80978 0.95727 0.81122 0.0
C2813 C 0.80327 0.96639 0.80465 0.0
C2814 C 0.79479 0.96313 0.79508 0.0
C2815 C 0.79292 0.95049 0.79217 0.0
H2816 H 0.21889 0.11778 0.20923 0.0
H2817 H 0.19142 0.12383 0.23785 0.0
H2818 H 0.19818 0.10492 0.24866 0.0
H2819 H 0.21577 0.08434 0.20858 0.0
H2820 H 0.23211 0.08174 0.2063 0.0
H2821 H 0.22516 0.0958 0.20066 0.0
H2822 H 0.24128 0.10874 0.21313 0.0
H2823 H 0.24826 0.09472 0.21882 0.0
H2824 H 0.24287 0.10616 0.22958 0.0
H2825 H 0.20759 0.08547 0.25639 0.0
H2826 H 0.21939 0.06652 0.26076 0.0
H2827 H 0.24103 0.07264 0.22738 0.0
C2828 C 0.21428 0.11508 0.21774 0.0
C2829 C 0.20469 0.12238 0.22275 0.0
C2830 C 0.19893 0.11854 0.23394 0.0
C2831 C 0.20265 0.10777 0.24013 0.0
C2832 C 0.21218 0.10086 0.23504 0.0
C2833 C 0.21795 0.10433 0.22412 0.0
C2834 C 0.22802 0.0952 0.22078 0.0
C2835 C 0.22508 0.0889 0.20834 0.0
C2836 C 0.24087 0.10159 0.22057 0.0
C2837 C 0.22696 0.0861 0.23152 0.0
C2838 C 0.21772 0.08956 0.23958 0.0
C2839 C 0.21484 0.08264 0.25013 0.0
C2840 C 0.22155 0.07185 0.2525 0.0
C2841 C 0.23108 0.06803 0.24439 0.0
C2842 C 0.23385 0.07534 0.23379 0.0
H2843 H 0.20228 0.91571 0.8163 0.0
H2844 H 0.2223 0.88679 0.7974 0.0
H2845 H 0.23482 0.90266 0.78641 0.0
H2846 H 0.2009 0.93701 0.79076 0.0
H2847 H 0.20323 0.9506 0.80013 0.0
H2848 H 0.19596 0.93699 0.8067 0.0
H2849 H 0.21251 0.93667 0.82422 0.0
H2850 H 0.21983 0.9503 0.81771 0.0
H2851 H 0.22876 0.9365 0.82026 0.0
H2852 H 0.24456 0.92159 0.7768 0.0
H2853 H 0.25164 0.94239 0.77001 0.0
H2854 H 0.22575 0.95914 0.79545 0.0
C2855 C 0.2093 0.91273 0.80984 0.0
C2856 C 0.21133 0.9 0.80773 0.0
C2857 C 0.22068 0.89648 0.79928 0.0
C2858 C 0.22779 0.90542 0.79294 0.0
C2859 C 0.22553 0.91788 0.7952 0.0
C2860 C 0.21658 0.92155 0.80351 0.0
C2861 C 0.2161 0.93556 0.80429 0.0
C2862 C 0.20329 0.94032 0.80022 0.0
C2863 C 0.21951 0.94002 0.8174 0.0
C2864 C 0.22608 0.93917 0.79501 0.0
C2865 C 0.23136 0.92882 0.78985 0.0
C2866 C 0.24054 0.92977 0.78082 0.0
C2867 C 0.24445 0.94161 0.77697 0.0
C2868 C 0.23926 0.95236 0.7822 0.0
C2869 C 0.22998 0.95108 0.79138 0.0
H2870 H 0.11033 0.20318 0.81762 0.0
H2871 H 0.13835 0.22309 0.79633 0.0
H2872 H 0.12199 0.23561 0.7865 0.0
H2873 H 0.08743 0.20176 0.79384 0.0
H2874 H 0.07438 0.20406 0.80396 0.0
H2875 H 0.0883 0.19699 0.80986 0.0
H2876 H 0.08993 0.21363 0.82699 0.0
H2877 H 0.07598 0.22074 0.82117 0.0
H2878 H 0.09008 0.22979 0.82271 0.0
H2879 H 0.10272 0.2453 0.7782 0.0
H2880 H 0.08165 0.25196 0.7723 0.0
H2881 H 0.06582 0.22619 0.79906 0.0
C2882 C 0.11303 0.21031 0.81104 0.0
C2883 C 0.12566 0.21209 0.80771 0.0
C2884 C 0.12876 0.22141 0.79891 0.0
C2885 C 0.11954 0.22863 0.79333 0.0
C2886 C 0.1072 0.22651 0.79665 0.0
C2887 C 0.10391 0.21764 0.80535 0.0
C2888 C 0.08989 0.21704 0.80696 0.0
C2889 C 0.0847 0.2042 0.80344 0.0
C2890 C 0.08626 0.22051 0.82025 0.0
C2891 C 0.08584 0.22688 0.79772 0.0
C2892 C 0.09601 0.23221 0.7919 0.0
C2893 C 0.09469 0.24123 0.78273 0.0
C2894 C 0.08268 0.2449 0.77939 0.0
C2895 C 0.07208 0.23958 0.78518 0.0
C2896 C 0.07374 0.23051 0.79455 0.0
H2897 H 0.81592 0.10967 0.82441 0.0
H2898 H 0.79534 0.13841 0.80531 0.0
H2899 H 0.78441 0.1225 0.7929 0.0
H2900 H 0.81952 0.08967 0.79772 0.0
H2901 H 0.81766 0.07559 0.8066 0.0
H2902 H 0.82409 0.08925 0.81382 0.0
H2903 H 0.80716 0.08796 0.83078 0.0
H2904 H 0.80066 0.07431 0.8236 0.0
H2905 H 0.791 0.08753 0.82628 0.0
H2906 H 0.775 0.10347 0.78322 0.0
H2907 H 0.76854 0.08263 0.77616 0.0
H2908 H 0.79539 0.06615 0.80123 0.0
C2909 C 0.80912 0.11261 0.81761 0.0
C2910 C 0.80652 0.12531 0.81581 0.0
C2911 C 0.79762 0.12877 0.80674 0.0
C2912 C 0.79131 0.11979 0.79969 0.0
C2913 C 0.79403 0.10737 0.80175 0.0
C2914 C 0.80279 0.10376 0.81041 0.0
C2915 C 0.80395 0.08978 0.81078 0.0
C2916 C 0.81709 0.08584 0.807 0.0
C2917 C 0.80048 0.08459 0.82362 0.0
C2918 C 0.79439 0.08609 0.80106 0.0
C2919 C 0.78874 0.09638 0.796 0.0
C2920 C 0.77939 0.09534 0.78708 0.0
C2921 C 0.77574 0.08347 0.78317 0.0
C2922 C 0.78146 0.07277 0.78814 0.0
C2923 C 0.79094 0.07416 0.79718 0.0
H2924 H 0.91034 0.81918 0.80804 0.0
H2925 H 0.89764 0.7865 0.82812 0.0
H2926 H 0.91565 0.77498 0.82054 0.0
H2927 H 0.92203 0.80293 0.7812 0.0
H2928 H 0.93532 0.81307 0.77924 0.0
H2929 H 0.92128 0.81886 0.78603 0.0
H2930 H 0.93373 0.82599 0.80537 0.0
H2931 H 0.9478 0.82024 0.79863 0.0
H2932 H 0.94302 0.81494 0.81376 0.0
H2933 H 0.93514 0.76705 0.81143 0.0
H2934 H 0.95497 0.76304 0.80091 0.0
H2935 H 0.95545 0.80063 0.78648 0.0
C2936 C 0.91136 0.80961 0.81084 0.0
C2937 C 0.90246 0.80372 0.8186 0.0
C2938 C 0.90415 0.79116 0.82201 0.0
C2939 C 0.91441 0.78454 0.81781 0.0
C2940 C 0.92295 0.79057 0.81017 0.0
C2941 C 0.92157 0.8028 0.80666 0.0
C2942 C 0.93221 0.80702 0.79838 0.0
C2943 C 0.92742 0.81069 0.78544 0.0
C2944 C 0.93963 0.81768 0.8044 0.0
C2945 C 0.93981 0.79527 0.79789 0.0
C2946 C 0.93427 0.78592 0.80478 0.0
C2947 C 0.93957 0.77428 0.80599 0.0
C2948 C 0.95088 0.77211 0.80003 0.0
C2949 C 0.9568 0.78152 0.79292 0.0
C2950 C 0.9511 0.79323 0.79177 0.0
H2951 H 0.81107 0.90383 0.22619 0.0
H2952 H 0.82506 0.91828 0.19125 0.0
H2953 H 0.81532 0.93836 0.19551 0.0
H2954 H 0.78155 0.91969 0.22523 0.0
H2955 H 0.78136 0.92259 0.24167 0.0
H2956 H 0.78922 0.90923 0.23577 0.0
H2957 H 0.80951 0.91631 0.24681 0.0
H2958 H 0.80172 0.9297 0.25271 0.0
H2959 H 0.81574 0.93159 0.24377 0.0
H2960 H 0.80482 0.95714 0.20391 0.0
H2961 H 0.79379 0.97315 0.21549 0.0
H2962 H 0.78593 0.94649 0.24481 0.0
C2963 C 0.81211 0.91123 0.21944 0.0
C2964 C 0.81882 0.90943 0.20835 0.0
C2965 C 0.81983 0.91934 0.19972 0.0
C2966 C 0.81439 0.93082 0.2021 0.0
C2967 C 0.80789 0.93228 0.21312 0.0
C2968 C 0.80666 0.92275 0.22164 0.0
C2969 C 0.79919 0.92679 0.23278 0.0
C2970 C 0.78711 0.91912 0.23392 0.0
C2971 C 0.80701 0.92605 0.24472 0.0
C2972 C 0.79652 0.94012 0.22925 0.0
C2973 C 0.80164 0.94308 0.21788 0.0
C2974 C 0.80065 0.95489 0.21276 0.0
C2975 C 0.79425 0.96392 0.2194 0.0
C2976 C 0.78879 0.96114 0.23106 0.0
C2977 C 0.79 0.94901 0.23599 0.0
H2978 H 0.11522 0.7997 0.20352 0.0
H2979 H 0.12207 0.83328 0.22457 0.0
H2980 H 0.10408 0.82825 0.23782 0.0
H2981 H 0.08181 0.80163 0.20371 0.0
H2982 H 0.07944 0.78513 0.20509 0.0
H2983 H 0.0931 0.79118 0.19747 0.0
H2984 H 0.10705 0.77863 0.21247 0.0
H2985 H 0.09344 0.77255 0.22015 0.0
H2986 H 0.10533 0.78051 0.22897 0.0
H2987 H 0.08523 0.81962 0.24879 0.0
H2988 H 0.06664 0.80827 0.25629 0.0
H2989 H 0.07175 0.7806 0.2278 0.0
C2990 C 0.11291 0.80608 0.21084 0.0
C2991 C 0.12018 0.81688 0.21299 0.0
C2992 C 0.11685 0.82484 0.22282 0.0
C2993 C 0.10657 0.82211 0.23037 0.0
C2994 C 0.09965 0.8114 0.22798 0.0
C2995 C 0.10264 0.80353 0.21842 0.0
C2996 C 0.09358 0.7927 0.21772 0.0
C2997 C 0.08657 0.79266 0.20526 0.0
C2998 C 0.10025 0.78037 0.21996 0.0
C2999 C 0.085 0.79571 0.22835 0.0
C3000 C 0.08869 0.80651 0.23418 0.0
C3001 C 0.08226 0.81114 0.2443 0.0
C3002 C 0.07175 0.80459 0.24854 0.0
C3003 C 0.06772 0.79353 0.24266 0.0
C3004 C 0.0745 0.78908 0.23242 0.0
H3005 H 0.91236 0.22553 0.19896 0.0
H3006 H 0.90143 0.19692 0.22532 0.0
H3007 H 0.91943 0.2024 0.23849 0.0
H3008 H 0.94537 0.222 0.20202 0.0
H3009 H 0.94874 0.23835 0.20094 0.0
H3010 H 0.93516 0.232 0.19337 0.0
H3011 H 0.92125 0.24738 0.20512 0.0
H3012 H 0.93479 0.25382 0.2127 0.0
H3013 H 0.92199 0.24795 0.22181 0.0
H3014 H 0.93859 0.21097 0.24884 0.0
H3015 H 0.95735 0.22226 0.25585 0.0
H3016 H 0.95523 0.24608 0.22336 0.0
C3017 C 0.91366 0.22046 0.20754 0.0
C3018 C 0.90546 0.21071 0.21102 0.0
C3019 C 0.90767 0.20425 0.22228 0.0
C3020 C 0.91784 0.20736 0.22989 0.0
C3021 C 0.92571 0.21699 0.22617 0.0
C3022 C 0.92373 0.22349 0.21529 0.0
C3023 C 0.93349 0.23358 0.21353 0.0
C3024 C 0.94114 0.23134 0.20176 0.0
C3025 C 0.92752 0.24644 0.21328 0.0
C3026 C 0.94127 0.23174 0.22513 0.0
C3027 C 0.93663 0.2221 0.23227 0.0
C3028 C 0.94226 0.21859 0.24337 0.0
C3029 C 0.95288 0.22514 0.24732 0.0
C3030 C 0.95777 0.23516 0.24024 0.0
C3031 C 0.95184 0.23842 0.22896 0.0
H3032 H 0.20654 0.70006 0.60615 0.0
H3033 H 0.22042 0.72444 0.63505 0.0
H3034 H 0.23078 0.73748 0.61927 0.0
H3035 H 0.23359 0.70112 0.58726 0.0
H3036 H 0.22524 0.70115 0.57274 0.0
H3037 H 0.2184 0.69397 0.58622 0.0
H3038 H 0.19902 0.70777 0.58377 0.0
H3039 H 0.20579 0.71499 0.57026 0.0
H3040 H 0.20094 0.72437 0.58309 0.0
H3041 H 0.2408 0.7471 0.60067 0.0
H3042 H 0.24896 0.75335 0.58017 0.0
H3043 H 0.22823 0.72328 0.563 0.0
C3044 C 0.21172 0.70818 0.60914 0.0
C3045 C 0.2126 0.71126 0.62186 0.0
C3046 C 0.21943 0.72199 0.62538 0.0
C3047 C 0.22541 0.72942 0.61648 0.0
C3048 C 0.22442 0.72609 0.60406 0.0
C3049 C 0.21766 0.7158 0.60034 0.0
C3050 C 0.21822 0.71425 0.58637 0.0
C3051 C 0.22422 0.70189 0.58295 0.0
C3052 C 0.20522 0.71542 0.58053 0.0
C3053 C 0.22651 0.72517 0.58286 0.0
C3054 C 0.22999 0.73185 0.59323 0.0
C3055 C 0.23804 0.74202 0.59247 0.0
C3056 C 0.24267 0.74546 0.58081 0.0
C3057 C 0.23919 0.73882 0.57003 0.0
C3058 C 0.23091 0.72861 0.57108 0.0
H3059 H 0.80496 0.71777 0.62324 0.0
H3060 H 0.82828 0.69056 0.60561 0.0
H3061 H 0.8225 0.69889 0.58509 0.0
H3062 H 0.78047 0.7167 0.60115 0.0
H3063 H 0.77731 0.73304 0.60154 0.0
H3064 H 0.7838 0.72549 0.61496 0.0
H3065 H 0.80223 0.74114 0.61502 0.0
H3066 H 0.79576 0.74878 0.6016 0.0
H3067 H 0.81145 0.74313 0.60123 0.0
H3068 H 0.81349 0.70928 0.56653 0.0
H3069 H 0.80199 0.72141 0.55092 0.0
H3070 H 0.78452 0.74222 0.58024 0.0
C3071 C 0.809 0.71372 0.61506 0.0
C3072 C 0.81704 0.70347 0.61604 0.0
C3073 C 0.82199 0.6983 0.6051 0.0
C3074 C 0.81882 0.70302 0.5934 0.0
C3075 C 0.81072 0.71296 0.59275 0.0
C3076 C 0.80591 0.71831 0.60326 0.0
C3077 C 0.79705 0.72865 0.59987 0.0
C3078 C 0.78388 0.72579 0.60466 0.0
C3079 C 0.80192 0.74117 0.60472 0.0
C3080 C 0.79754 0.72815 0.58582 0.0
C3081 C 0.80552 0.71904 0.58195 0.0
C3082 C 0.80726 0.71648 0.56945 0.0
C3083 C 0.80062 0.72337 0.56065 0.0
C3084 C 0.79232 0.73273 0.56435 0.0
C3085 C 0.79088 0.73521 0.57713 0.0
H3086 H 0.80367 0.30896 0.62354 0.0
H3087 H 0.83181 0.33308 0.60727 0.0
H3088 H 0.82638 0.32517 0.5865 0.0
H3089 H 0.80823 0.28294 0.60269 0.0
H3090 H 0.79192 0.27897 0.60198 0.0
H3091 H 0.7983 0.28618 0.61566 0.0
H3092 H 0.78211 0.30366 0.6138 0.0
H3093 H 0.7757 0.29652 0.60011 0.0
H3094 H 0.78099 0.31241 0.59957 0.0
H3095 H 0.8172 0.31557 0.56741 0.0
H3096 H 0.80545 0.30422 0.55128 0.0
H3097 H 0.78338 0.28599 0.57972 0.0
C3098 C 0.80871 0.31256 0.61561 0.0
C3099 C 0.81822 0.32163 0.61707 0.0
C3100 C 0.82463 0.32602 0.60644 0.0
C3101 C 0.82156 0.32163 0.59458 0.0
C3102 C 0.8121 0.31278 0.59347 0.0
C3103 C 0.80582 0.30821 0.60368 0.0
C3104 C 0.79595 0.29879 0.59987 0.0
C3105 C 0.79877 0.28596 0.60538 0.0
C3106 C 0.78292 0.30311 0.60356 0.0
C3107 C 0.79756 0.29891 0.5859 0.0
C3108 C 0.80692 0.30707 0.58243 0.0
C3109 C 0.80989 0.30911 0.57002 0.0
C3110 C 0.80312 0.30267 0.56093 0.0
C3111 C 0.7935 0.29423 0.56423 0.0
C3112 C 0.79077 0.29228 0.57692 0.0
H3113 H 0.22652 0.30976 0.62311 0.0
H3114 H 0.19008 0.32085 0.61 0.0
H3115 H 0.19415 0.31107 0.58984 0.0
H3116 H 0.24262 0.31525 0.59466 0.0
H3117 H 0.2526 0.30205 0.59624 0.0
H3118 H 0.24669 0.3095 0.60985 0.0
H3119 H 0.23733 0.28861 0.61746 0.0
H3120 H 0.24325 0.28108 0.60389 0.0
H3121 H 0.22692 0.28004 0.60746 0.0
H3122 H 0.2025 0.30102 0.57078 0.0
H3123 H 0.21427 0.29082 0.5543 0.0
H3124 H 0.24516 0.28562 0.57983 0.0
C3125 C 0.21939 0.31013 0.616 0.0
C3126 C 0.20794 0.31604 0.61818 0.0
C3127 C 0.19884 0.31622 0.60864 0.0
C3128 C 0.20109 0.31075 0.59712 0.0
C3129 C 0.21249 0.30508 0.59526 0.0
C3130 C 0.22147 0.30465 0.60444 0.0
C3131 C 0.23296 0.29804 0.59997 0.0
C3132 C 0.24439 0.30673 0.6002 0.0
C3133 C 0.23525 0.28624 0.60765 0.0
C3134 C 0.22909 0.29495 0.5868 0.0
C3135 C 0.21724 0.29909 0.58429 0.0
C3136 C 0.21173 0.29759 0.57268 0.0
C3137 C 0.21849 0.29168 0.56339 0.0
C3138 C 0.23064 0.28724 0.56572 0.0
C3139 C 0.23595 0.28893 0.57765 0.0
H3140 H 0.22525 0.32679 0.41377 0.0
H3141 H 0.20093 0.29839 0.39831 0.0
H3142 H 0.20631 0.28442 0.41561 0.0
H3143 H 0.24937 0.30608 0.42392 0.0
H3144 H 0.25279 0.31463 0.43785 0.0
H3145 H 0.24685 0.32254 0.42437 0.0
H3146 H 0.22871 0.33107 0.43737 0.0
H3147 H 0.2346 0.32319 0.4509 0.0
H3148 H 0.21882 0.32043 0.44583 0.0
H3149 H 0.21437 0.27344 0.43454 0.0
H3150 H 0.22463 0.26622 0.45373 0.0
H3151 H 0.244 0.30157 0.45677 0.0
C3152 C 0.22111 0.31761 0.41395 0.0
C3153 C 0.21259 0.31376 0.40465 0.0
C3154 C 0.2073 0.30168 0.40539 0.0
C3155 C 0.21037 0.29363 0.41515 0.0
C3156 C 0.21879 0.29772 0.42412 0.0
C3157 C 0.22411 0.30942 0.42361 0.0
C3158 C 0.23293 0.31151 0.43443 0.0
C3159 C 0.24628 0.31382 0.42987 0.0
C3160 C 0.22849 0.32218 0.44261 0.0
C3161 C 0.23174 0.29916 0.44109 0.0
C3162 C 0.22352 0.29135 0.43499 0.0
C3163 C 0.22081 0.27948 0.43941 0.0
C3164 C 0.22664 0.27549 0.45035 0.0
C3165 C 0.23511 0.28332 0.45679 0.0
C3166 C 0.23768 0.2953 0.45201 0.0
H3167 H 0.20349 0.72571 0.40975 0.0
H3168 H 0.22171 0.69028 0.40591 0.0
H3169 H 0.23507 0.69521 0.42388 0.0
H3170 H 0.23041 0.74334 0.4191 0.0
H3171 H 0.22212 0.75258 0.43012 0.0
H3172 H 0.21413 0.74643 0.41676 0.0
H3173 H 0.19785 0.73585 0.43105 0.0
H3174 H 0.20577 0.74199 0.44446 0.0
H3175 H 0.20299 0.72556 0.44319 0.0
H3176 H 0.24653 0.70395 0.44232 0.0
H3177 H 0.25478 0.71562 0.46024 0.0
H3178 H 0.22873 0.74509 0.45257 0.0
C3179 C 0.2102 0.71892 0.41272 0.0
C3180 C 0.21155 0.70762 0.40627 0.0
C3181 C 0.22061 0.6991 0.41047 0.0
C3182 C 0.22821 0.70178 0.42075 0.0
C3183 C 0.22664 0.71299 0.42683 0.0
C3184 C 0.21782 0.7214 0.42302 0.0
C3185 C 0.21793 0.73272 0.43129 0.0
C3186 C 0.22135 0.74446 0.42387 0.0
C3187 C 0.20539 0.73411 0.43789 0.0
C3188 C 0.22816 0.72933 0.44038 0.0
C3189 C 0.2331 0.71794 0.43759 0.0
C3190 C 0.24273 0.71289 0.44458 0.0
C3191 C 0.24741 0.71962 0.45471 0.0
C3192 C 0.24244 0.73129 0.45783 0.0
C3193 C 0.23267 0.73616 0.45051 0.0
H3194 H 0.8201 0.70995 0.41652 0.0
H3195 H 0.80586 0.73574 0.38907 0.0
H3196 H 0.79397 0.74626 0.4053 0.0
H3197 H 0.79153 0.70775 0.43503 0.0
H3198 H 0.79982 0.70701 0.44957 0.0
H3199 H 0.80678 0.70104 0.4357 0.0
H3200 H 0.82604 0.71523 0.43918 0.0
H3201 H 0.81913 0.72128 0.45302 0.0
H3202 H 0.82397 0.73168 0.4408 0.0
H3203 H 0.78453 0.75472 0.42444 0.0
H3204 H 0.77765 0.76034 0.44542 0.0
H3205 H 0.79759 0.72906 0.46077 0.0
C3206 C 0.81432 0.71768 0.4139 0.0
C3207 C 0.81398 0.72206 0.4015 0.0
C3208 C 0.80642 0.73232 0.39851 0.0
C3209 C 0.79957 0.73832 0.40765 0.0
C3210 C 0.80028 0.73393 0.41979 0.0
C3211 C 0.80739 0.72382 0.42295 0.0
C3212 C 0.80679 0.72128 0.4368 0.0
C3213 C 0.80088 0.70851 0.43943 0.0
C3214 C 0.81975 0.72244 0.4428 0.0
C3215 C 0.79836 0.73164 0.44091 0.0
C3216 C 0.79472 0.7388 0.43091 0.0
C3217 C 0.78727 0.74915 0.43234 0.0
C3218 C 0.78348 0.75231 0.4443 0.0
C3219 C 0.78711 0.74517 0.45474 0.0
C3220 C 0.79457 0.73462 0.45296 0.0
H3221 H 0.81581 0.32525 0.41766 0.0
H3222 H 0.80855 0.29739 0.38963 0.0
H3223 H 0.79962 0.28351 0.4056 0.0
H3224 H 0.82416 0.30391 0.44236 0.0
H3225 H 0.81681 0.31285 0.45426 0.0
H3226 H 0.82296 0.32046 0.44068 0.0
H3227 H 0.80144 0.33013 0.43633 0.0
H3228 H 0.79522 0.32252 0.44988 0.0
H3229 H 0.78794 0.32018 0.43498 0.0
H3230 H 0.79063 0.27301 0.42443 0.0
H3231 H 0.7828 0.26634 0.44486 0.0
H3232 H 0.79638 0.30078 0.46087 0.0
C3233 C 0.81233 0.31624 0.41488 0.0
C3234 C 0.81293 0.31241 0.40236 0.0
C3235 C 0.80837 0.30048 0.39915 0.0
C3236 C 0.80321 0.29255 0.40815 0.0
C3237 C 0.8027 0.29664 0.42037 0.0
C3238 C 0.8072 0.30817 0.42376 0.0
C3239 C 0.80548 0.31032 0.43753 0.0
C3240 C 0.81811 0.31198 0.44409 0.0
C3241 C 0.79702 0.32145 0.43981 0.0
C3242 C 0.79918 0.29826 0.44131 0.0
C3243 C 0.79767 0.2905 0.43127 0.0
C3244 C 0.79188 0.27895 0.43239 0.0
C3245 C 0.78753 0.27521 0.44409 0.0
C3246 C 0.78903 0.28295 0.45459 0.0
C3247 C 0.79497 0.29464 0.45308 0.0
H3248 H 0.11403 0.72477 0.70038 0.0
H3249 H 0.11932 0.69136 0.72228 0.0
H3250 H 0.10138 0.69681 0.73518 0.0
H3251 H 0.10598 0.7443 0.72605 0.0
H3252 H 0.09466 0.75296 0.71734 0.0
H3253 H 0.1077 0.74624 0.70954 0.0
H3254 H 0.09262 0.73465 0.6947 0.0
H3255 H 0.07953 0.7413 0.70248 0.0
H3256 H 0.08063 0.72473 0.70106 0.0
H3257 H 0.08286 0.70585 0.74577 0.0
H3258 H 0.06534 0.71799 0.75354 0.0
H3259 H 0.0727 0.74617 0.72555 0.0
C3260 C 0.11151 0.71862 0.70795 0.0
C3261 C 0.11812 0.70756 0.71022 0.0
C3262 C 0.11432 0.69975 0.72014 0.0
C3263 C 0.10417 0.70281 0.7276 0.0
C3264 C 0.0979 0.71376 0.7251 0.0
C3265 C 0.10143 0.72157 0.71554 0.0
C3266 C 0.0932 0.73287 0.71493 0.0
C3267 C 0.10084 0.7448 0.7171 0.0
C3268 C 0.08607 0.73341 0.70256 0.0
C3269 C 0.0845 0.7302 0.72567 0.0
C3270 C 0.08736 0.7191 0.73137 0.0
C3271 C 0.0806 0.7146 0.74144 0.0
C3272 C 0.0707 0.72165 0.74585 0.0
C3273 C 0.06764 0.73316 0.74028 0.0
C3274 C 0.07468 0.7374 0.73 0.0
H3275 H 0.82526 0.61728 0.72744 0.0
H3276 H 0.80486 0.62278 0.69305 0.0
H3277 H 0.79259 0.60382 0.69725 0.0
H3278 H 0.82717 0.58399 0.72499 0.0
H3279 H 0.82543 0.58139 0.74141 0.0
H3280 H 0.83244 0.59558 0.73584 0.0
H3281 H 0.81625 0.6082 0.748 0.0
H3282 H 0.80916 0.59405 0.75357 0.0
H3283 H 0.79991 0.60529 0.74541 0.0
H3284 H 0.78234 0.58432 0.70528 0.0
H3285 H 0.77514 0.56557 0.71635 0.0
H3286 H 0.80311 0.57201 0.74485 0.0
C3287 C 0.81831 0.61447 0.72071 0.0
C3288 C 0.81602 0.62165 0.70993 0.0
C3289 C 0.80667 0.61764 0.70149 0.0
C3290 C 0.7997 0.60681 0.70375 0.0
C3291 C 0.80219 0.59999 0.71445 0.0
C3292 C 0.81131 0.60363 0.72277 0.0
C3293 C 0.81221 0.59457 0.73351 0.0
C3294 C 0.82508 0.58853 0.73396 0.0
C3295 C 0.8092 0.60091 0.74585 0.0
C3296 C 0.80216 0.58528 0.72994 0.0
C3297 C 0.79648 0.5886 0.71893 0.0
C3298 C 0.7868 0.58157 0.71386 0.0
C3299 C 0.78284 0.57085 0.72018 0.0
C3300 C 0.78858 0.56717 0.73147 0.0
C3301 C 0.7984 0.57456 0.73634 0.0
H3302 H 0.91938 0.31663 0.70175 0.0
H3303 H 0.89049 0.30901 0.72878 0.0
H3304 H 0.90601 0.29961 0.74274 0.0
H3305 H 0.93615 0.28855 0.70639 0.0
H3306 H 0.95127 0.29568 0.70462 0.0
H3307 H 0.938 0.30221 0.69687 0.0
H3308 H 0.9425 0.32335 0.7073 0.0
H3309 H 0.95581 0.31689 0.71506 0.0
H3310 H 0.94379 0.32413 0.72395 0.0
H3311 H 0.92443 0.29021 0.75341 0.0
H3312 H 0.9446 0.28208 0.76038 0.0
H3313 H 0.9618 0.29623 0.72673 0.0
C3314 C 0.91632 0.31298 0.7106 0.0
C3315 C 0.90369 0.31363 0.71417 0.0
C3316 C 0.90011 0.30883 0.7259 0.0
C3317 C 0.90885 0.30338 0.73387 0.0
C3318 C 0.92118 0.30284 0.73004 0.0
C3319 C 0.92494 0.30756 0.71872 0.0
C3320 C 0.93877 0.30574 0.71684 0.0
C3321 C 0.94118 0.29756 0.70551 0.0
C3322 C 0.94562 0.31827 0.71572 0.0
C3323 C 0.94216 0.29913 0.72882 0.0
C3324 C 0.93186 0.29755 0.73628 0.0
C3325 C 0.93259 0.29151 0.7477 0.0
C3326 C 0.94414 0.28699 0.75162 0.0
C3327 C 0.95491 0.28857 0.7442 0.0
C3328 C 0.9538 0.29475 0.73262 0.0
H3329 H 0.20201 0.40999 0.72543 0.0
H3330 H 0.22387 0.40433 0.69224 0.0
H3331 H 0.23675 0.42263 0.69743 0.0
H3332 H 0.20174 0.44337 0.72343 0.0
H3333 H 0.2028 0.44549 0.73996 0.0
H3334 H 0.19544 0.43177 0.73379 0.0
H3335 H 0.21043 0.41809 0.74663 0.0
H3336 H 0.21784 0.43177 0.75284 0.0
H3337 H 0.22698 0.42034 0.74504 0.0
H3338 H 0.24731 0.44156 0.70622 0.0
H3339 H 0.25458 0.45993 0.71781 0.0
H3340 H 0.22554 0.45366 0.74499 0.0
C3341 C 0.20942 0.41264 0.71916 0.0
C3342 C 0.21192 0.40561 0.70843 0.0
C3343 C 0.22187 0.40937 0.70063 0.0
C3344 C 0.22919 0.41982 0.70345 0.0
C3345 C 0.22646 0.4265 0.71409 0.0
C3346 C 0.21679 0.42309 0.7218 0.0
C3347 C 0.21577 0.43191 0.73263 0.0
C3348 C 0.20319 0.43852 0.73244 0.0
C3349 C 0.21789 0.42512 0.74502 0.0
C3350 C 0.22638 0.44083 0.72979 0.0
C3351 C 0.23245 0.43751 0.71907 0.0
C3352 C 0.24263 0.44424 0.71463 0.0
C3353 C 0.24673 0.45463 0.72132 0.0
C3354 C 0.24065 0.45824 0.73233 0.0
C3355 C 0.23031 0.45122 0.73655 0.0
H3356 H 0.11674 0.31926 0.31137 0.0
H3357 H 0.12438 0.28889 0.3367 0.0
H3358 H 0.10714 0.27682 0.32753 0.0
H3359 H 0.08371 0.31631 0.31211 0.0
H3360 H 0.08143 0.31989 0.29592 0.0
H3361 H 0.09477 0.32606 0.30404 0.0
H3362 H 0.1093 0.31637 0.28777 0.0
H3363 H 0.09599 0.31016 0.2796 0.0
H3364 H 0.10819 0.30001 0.2847 0.0
H3365 H 0.0888 0.26826 0.31637 0.0
H3366 H 0.07008 0.26373 0.30386 0.0
H3367 H 0.07396 0.29937 0.28543 0.0
C3368 C 0.11486 0.31001 0.31487 0.0
C3369 C 0.12187 0.30506 0.32483 0.0
C3370 C 0.11903 0.29297 0.32924 0.0
C3371 C 0.10931 0.28599 0.32402 0.0
C3372 C 0.10249 0.29118 0.31435 0.0
C3373 C 0.10511 0.30289 0.30977 0.0
C3374 C 0.09601 0.30635 0.29955 0.0
C3375 C 0.08854 0.31784 0.30312 0.0
C3376 C 0.10278 0.30834 0.28717 0.0
C3377 C 0.08782 0.29481 0.29923 0.0
C3378 C 0.0918 0.28617 0.30782 0.0
C3379 C 0.0856 0.27492 0.30958 0.0
C3380 C 0.07494 0.27246 0.30248 0.0
C3381 C 0.07054 0.2812 0.29371 0.0
C3382 C 0.07719 0.29246 0.29197 0.0
H3383 H 0.20514 0.61447 0.30912 0.0
H3384 H 0.22836 0.61584 0.34212 0.0
H3385 H 0.24015 0.598 0.33464 0.0
H3386 H 0.20352 0.5813 0.30706 0.0
H3387 H 0.20418 0.58091 0.29038 0.0
H3388 H 0.19769 0.5941 0.29804 0.0
H3389 H 0.2132 0.60858 0.28655 0.0
H3390 H 0.21975 0.59543 0.27885 0.0
H3391 H 0.22963 0.60571 0.2877 0.0
H3392 H 0.24932 0.58002 0.324 0.0
H3393 H 0.25517 0.56248 0.31088 0.0
H3394 H 0.22606 0.57206 0.28463 0.0
C3395 C 0.21277 0.61105 0.31471 0.0
C3396 C 0.21575 0.61651 0.32628 0.0
C3397 C 0.22575 0.61171 0.33335 0.0
C3398 C 0.23257 0.60162 0.32914 0.0
C3399 C 0.22933 0.59638 0.3178 0.0
C3400 C 0.21968 0.60088 0.31066 0.0
C3401 C 0.21801 0.59324 0.29896 0.0
C3402 C 0.20508 0.58702 0.29859 0.0
C3403 C 0.22028 0.60122 0.28732 0.0
C3404 C 0.2282 0.58374 0.30071 0.0
C3405 C 0.23462 0.58581 0.31163 0.0
C3406 C 0.24434 0.57827 0.31543 0.0
C3407 C 0.24753 0.56827 0.30795 0.0
C3408 C 0.24101 0.56577 0.29677 0.0
C3409 C 0.23128 0.57374 0.29307 0.0
H3410 H 0.91519 0.70423 0.32021 0.0
H3411 H 0.88745 0.71857 0.29474 0.0
H3412 H 0.9037 0.73069 0.28393 0.0
H3413 H 0.93408 0.73273 0.32206 0.0
H3414 H 0.94858 0.72455 0.3226 0.0
H3415 H 0.93469 0.71743 0.32879 0.0
H3416 H 0.93777 0.6985 0.31455 0.0
H3417 H 0.95163 0.70558 0.30828 0.0
H3418 H 0.93918 0.70085 0.29805 0.0
H3419 H 0.92287 0.74047 0.27524 0.0
H3420 H 0.94388 0.74764 0.26937 0.0
H3421 H 0.95951 0.72722 0.30039 0.0
C3422 C 0.91252 0.71007 0.31248 0.0
C3423 C 0.90003 0.7104 0.30829 0.0
C3424 C 0.89696 0.71803 0.29802 0.0
C3425 C 0.90611 0.72501 0.29186 0.0
C3426 C 0.91834 0.72432 0.29608 0.0
C3427 C 0.92158 0.71711 0.30618 0.0
C3428 C 0.93551 0.71776 0.30851 0.0
C3429 C 0.93838 0.72346 0.32125 0.0
C3430 C 0.94137 0.70491 0.30727 0.0
C3431 C 0.93957 0.72635 0.29807 0.0
C3432 C 0.92948 0.73004 0.29105 0.0
C3433 C 0.93084 0.73768 0.28069 0.0
C3434 C 0.94283 0.74164 0.27738 0.0
C3435 C 0.95335 0.73796 0.28437 0.0
C3436 C 0.95164 0.73029 0.29493 0.0
H3437 H 0.81102 0.41043 0.32026 0.0
H3438 H 0.83875 0.40452 0.29188 0.0
H3439 H 0.8303 0.42186 0.2797 0.0
H3440 H 0.78572 0.41909 0.29909 0.0
H3441 H 0.77977 0.43076 0.30927 0.0
H3442 H 0.78756 0.41747 0.31563 0.0
H3443 H 0.80297 0.43193 0.32728 0.0
H3444 H 0.79523 0.44525 0.32096 0.0
H3445 H 0.81169 0.44343 0.31869 0.0
H3446 H 0.81957 0.44008 0.27087 0.0
H3447 H 0.8072 0.45853 0.26594 0.0
H3448 H 0.78623 0.45318 0.29986 0.0
C3449 C 0.8152 0.41272 0.31142 0.0
C3450 C 0.82561 0.40616 0.30706 0.0
C3451 C 0.8309 0.40951 0.2955 0.0
C3452 C 0.82611 0.4193 0.28846 0.0
C3453 C 0.81598 0.42567 0.29306 0.0
C3454 C 0.81054 0.42256 0.30425 0.0
C3455 C 0.79999 0.43129 0.30718 0.0
C3456 C 0.78752 0.42423 0.30783 0.0
C3457 C 0.80264 0.4384 0.31925 0.0
C3458 C 0.80048 0.43984 0.29596 0.0
C3459 C 0.80974 0.43634 0.28793 0.0
C3460 C 0.81227 0.44291 0.27707 0.0
C3461 C 0.80524 0.45343 0.27439 0.0
C3462 C 0.7958 0.45736 0.28254 0.0
C3463 C 0.79331 0.45035 0.2934 0.0
H3464 H 0.20049 0.60748 0.71046 0.0
H3465 H 0.22718 0.63605 0.72096 0.0
H3466 H 0.2408 0.62014 0.73 0.0
H3467 H 0.20408 0.58868 0.73748 0.0
H3468 H 0.20271 0.57415 0.72943 0.0
H3469 H 0.19516 0.58769 0.72332 0.0
H3470 H 0.20658 0.58504 0.70244 0.0
H3471 H 0.21411 0.57145 0.70846 0.0
H3472 H 0.22329 0.58411 0.70232 0.0
H3473 H 0.25123 0.60136 0.73852 0.0
H3474 H 0.25799 0.58084 0.74576 0.0
H3475 H 0.22492 0.56412 0.72937 0.0
C3476 C 0.20928 0.61037 0.71451 0.0
C3477 C 0.21273 0.62305 0.71504 0.0
C3478 C 0.22424 0.62643 0.72058 0.0
C3479 C 0.23208 0.61745 0.72569 0.0
C3480 C 0.22833 0.60508 0.72517 0.0
C3481 C 0.21724 0.6015 0.71969 0.0
C3482 C 0.21534 0.58757 0.72063 0.0
C3483 C 0.20363 0.58434 0.72817 0.0
C3484 C 0.2148 0.5817 0.70769 0.0
C3485 C 0.22706 0.58392 0.72757 0.0
C3486 C 0.23442 0.59418 0.73005 0.0
C3487 C 0.2456 0.59324 0.73652 0.0
C3488 C 0.2494 0.5815 0.74053 0.0
C3489 C 0.24208 0.57078 0.73805 0.0
C3490 C 0.23073 0.57209 0.73148 0.0
H3491 H 0.20419 0.41474 0.31636 0.0
H3492 H 0.2227 0.38694 0.29445 0.0
H3493 H 0.23494 0.40334 0.28398 0.0
H3494 H 0.20169 0.43731 0.29244 0.0
H3495 H 0.20461 0.45041 0.30236 0.0
H3496 H 0.1977 0.43648 0.30864 0.0
H3497 H 0.21526 0.43524 0.32511 0.0
H3498 H 0.2222 0.4492 0.3189 0.0
H3499 H 0.23124 0.43531 0.32018 0.0
H3500 H 0.24461 0.42266 0.27533 0.0
H3501 H 0.2513 0.44371 0.26917 0.0
H3502 H 0.22657 0.4592 0.29656 0.0
C3503 C 0.21096 0.4121 0.3095 0.0
C3504 C 0.21245 0.39954 0.3062 0.0
C3505 C 0.22127 0.3965 0.29703 0.0
C3506 C 0.22833 0.40574 0.29108 0.0
C3507 C 0.22649 0.41802 0.2944 0.0
C3508 C 0.21807 0.42124 0.30342 0.0
C3509 C 0.21766 0.43519 0.30496 0.0
C3510 C 0.20464 0.44013 0.30191 0.0
C3511 C 0.22184 0.43896 0.31806 0.0
C3512 C 0.22708 0.43929 0.29531 0.0
C3513 C 0.23208 0.42922 0.28936 0.0
C3514 C 0.24077 0.43062 0.27992 0.0
C3515 C 0.24445 0.44263 0.27643 0.0
C3516 C 0.23943 0.45313 0.28232 0.0
C3517 C 0.23068 0.45137 0.29195 0.0
H3518 H 0.10732 0.70225 0.31959 0.0
H3519 H 0.13587 0.72301 0.29985 0.0
H3520 H 0.11978 0.73598 0.2902 0.0
H3521 H 0.08511 0.70182 0.29521 0.0
H3522 H 0.07177 0.70369 0.30503 0.0
H3523 H 0.08552 0.69641 0.31104 0.0
H3524 H 0.0866 0.71236 0.32886 0.0
H3525 H 0.07281 0.71967 0.32292 0.0
H3526 H 0.08683 0.72868 0.32522 0.0
H3527 H 0.10076 0.74593 0.28173 0.0
H3528 H 0.07986 0.75258 0.27525 0.0
H3529 H 0.06325 0.72585 0.30056 0.0
C3530 C 0.11019 0.70966 0.3134 0.0
C3531 C 0.1229 0.71156 0.31044 0.0
C3532 C 0.12622 0.72125 0.30214 0.0
C3533 C 0.11714 0.72873 0.29666 0.0
C3534 C 0.10473 0.72648 0.29959 0.0
C3535 C 0.10121 0.71724 0.30781 0.0
C3536 C 0.08714 0.71657 0.30899 0.0
C3537 C 0.08209 0.70387 0.30482 0.0
C3538 C 0.08311 0.7195 0.32229 0.0
C3539 C 0.08333 0.72675 0.30002 0.0
C3540 C 0.09366 0.73235 0.29475 0.0
C3541 C 0.09261 0.74167 0.28586 0.0
C3542 C 0.08069 0.74534 0.28218 0.0
C3543 C 0.06993 0.73974 0.28738 0.0
C3544 C 0.07131 0.7304 0.29653 0.0
H3545 H 0.80115 0.62339 0.31458 0.0
H3546 H 0.82882 0.60638 0.33839 0.0
H3547 H 0.82377 0.58599 0.32938 0.0
H3548 H 0.77869 0.59856 0.31629 0.0
H3549 H 0.7738 0.59993 0.30034 0.0
H3550 H 0.7797 0.61332 0.30845 0.0
H3551 H 0.79631 0.61676 0.29143 0.0
H3552 H 0.79043 0.60341 0.28325 0.0
H3553 H 0.80662 0.60433 0.28759 0.0
H3554 H 0.81582 0.56749 0.31796 0.0
H3555 H 0.80528 0.55187 0.30495 0.0
H3556 H 0.78259 0.58057 0.28836 0.0
C3557 C 0.80622 0.61538 0.31781 0.0
C3558 C 0.81537 0.61649 0.32723 0.0
C3559 C 0.82168 0.60576 0.33131 0.0
C3560 C 0.81892 0.59414 0.3262 0.0
C3561 C 0.8098 0.59335 0.31702 0.0
C3562 C 0.80352 0.60366 0.31285 0.0
C3563 C 0.79399 0.60016 0.303 0.0
C3564 C 0.78076 0.60317 0.30728 0.0
C3565 C 0.79702 0.60654 0.29058 0.0
C3566 C 0.79591 0.58628 0.3023 0.0
C3567 C 0.80512 0.58259 0.31045 0.0
C3568 C 0.80863 0.57027 0.31151 0.0
C3569 C 0.80263 0.56148 0.30402 0.0
C3570 C 0.79317 0.56498 0.29555 0.0
C3571 C 0.78974 0.57758 0.29477 0.0
H3572 H 0.91364 0.30193 0.32641 0.0
H3573 H 0.90314 0.33151 0.30115 0.0
H3574 H 0.92121 0.32692 0.28808 0.0
H3575 H 0.94672 0.30618 0.32412 0.0
H3576 H 0.94999 0.28986 0.32453 0.0
H3577 H 0.93638 0.29562 0.33213 0.0
H3578 H 0.92249 0.28054 0.31943 0.0
H3579 H 0.93606 0.27469 0.31183 0.0
H3580 H 0.92338 0.28073 0.30274 0.0
H3581 H 0.94042 0.31912 0.27767 0.0
H3582 H 0.95912 0.30842 0.27045 0.0
H3583 H 0.95662 0.2832 0.30186 0.0
C3584 C 0.91505 0.3074 0.31808 0.0
C3585 C 0.90693 0.31716 0.3149 0.0
C3586 C 0.9093 0.32415 0.30397 0.0
C3587 C 0.91952 0.32156 0.29642 0.0
C3588 C 0.92731 0.31191 0.29985 0.0
C3589 C 0.92518 0.3049 0.31039 0.0
C3590 C 0.93488 0.29492 0.31188 0.0
C3591 C 0.94244 0.29676 0.32388 0.0
C3592 C 0.92884 0.28195 0.31144 0.0
C3593 C 0.94279 0.29741 0.30051 0.0
C3594 C 0.93827 0.30727 0.29373 0.0
C3595 C 0.944 0.31134 0.28287 0.0
C3596 C 0.95459 0.30512 0.2788 0.0
C3597 C 0.95936 0.29488 0.28551 0.0
C3598 C 0.95334 0.29105 0.29656 0.0
H3599 H 0.82117 0.41553 0.70963 0.0
H3600 H 0.80223 0.38762 0.73193 0.0
H3601 H 0.79019 0.40392 0.74211 0.0
H3602 H 0.82384 0.43829 0.73304 0.0
H3603 H 0.821 0.45131 0.72293 0.0
H3604 H 0.82775 0.43745 0.71684 0.0
H3605 H 0.81013 0.43587 0.70048 0.0
H3606 H 0.80335 0.44977 0.70648 0.0
H3607 H 0.79416 0.43574 0.70546 0.0
H3608 H 0.78109 0.42314 0.75079 0.0
H3609 H 0.77488 0.44416 0.75689 0.0
H3610 H 0.79913 0.45988 0.72874 0.0
C3611 C 0.81433 0.41283 0.7165 0.0
C3612 C 0.81272 0.40026 0.72002 0.0
C3613 C 0.80379 0.39717 0.7292 0.0
C3614 C 0.79684 0.40636 0.73499 0.0
C3615 C 0.79882 0.41865 0.73148 0.0
C3616 C 0.80727 0.42192 0.72239 0.0
C3617 C 0.8078 0.43589 0.72063 0.0
C3618 C 0.82088 0.44103 0.72354 0.0
C3619 C 0.8036 0.43953 0.70748 0.0
C3620 C 0.79845 0.43993 0.73026 0.0
C3621 C 0.7934 0.42981 0.73639 0.0
C3622 C 0.78491 0.43113 0.74599 0.0
C3623 C 0.7815 0.44311 0.74944 0.0
C3624 C 0.78652 0.45365 0.7433 0.0
C3625 C 0.79504 0.45199 0.73351 0.0
H3626 H 0.1131 0.3017 0.70029 0.0
H3627 H 0.12432 0.3312 0.72531 0.0
H3628 H 0.1062 0.3265 0.73848 0.0
H3629 H 0.08011 0.3058 0.70269 0.0
H3630 H 0.07651 0.28947 0.70241 0.0
H3631 H 0.0902 0.29533 0.69471 0.0
H3632 H 0.10387 0.28025 0.70743 0.0
H3633 H 0.09022 0.2743 0.71514 0.0
H3634 H 0.10306 0.28036 0.72412 0.0
H3635 H 0.08692 0.31854 0.74905 0.0
H3636 H 0.06809 0.30766 0.75647 0.0
H3637 H 0.06989 0.28266 0.72517 0.0
C3638 C 0.11183 0.30713 0.70858 0.0
C3639 C 0.12017 0.3169 0.71168 0.0
C3640 C 0.11799 0.32384 0.72256 0.0
C3641 C 0.10775 0.32118 0.73017 0.0
C3642 C 0.09975 0.31152 0.72683 0.0
C3643 C 0.10168 0.30456 0.71633 0.0
C3644 C 0.09178 0.29454 0.71495 0.0
C3645 C 0.0842 0.2964 0.70298 0.0
C3646 C 0.09758 0.2816 0.71544 0.0
C3647 C 0.08399 0.29694 0.72634 0.0
C3648 C 0.08874 0.30679 0.73304 0.0
C3649 C 0.08316 0.31077 0.74391 0.0
C3650 C 0.0725 0.30446 0.7481 0.0
C3651 C 0.0675 0.29422 0.74148 0.0
C3652 C 0.07336 0.2905 0.7304 0.0
H3653 H 0.9099 0.71076 0.7171 0.0
H3654 H 0.90014 0.74173 0.6933 0.0
H3655 H 0.91861 0.75326 0.70064 0.0
H3656 H 0.92155 0.72898 0.74274 0.0
H3657 H 0.93408 0.71861 0.74636 0.0
H3658 H 0.91999 0.7127 0.73936 0.0
H3659 H 0.93276 0.70335 0.72148 0.0
H3660 H 0.94688 0.70921 0.72844 0.0
H3661 H 0.94307 0.71323 0.71264 0.0
H3662 H 0.93816 0.76143 0.71022 0.0
H3663 H 0.95757 0.76582 0.72171 0.0
H3664 H 0.95509 0.72961 0.73926 0.0
C3665 C 0.91168 0.71995 0.71341 0.0
C3666 C 0.90347 0.72537 0.70469 0.0
C3667 C 0.90612 0.73746 0.70015 0.0
C3668 C 0.91665 0.74407 0.7042 0.0
C3669 C 0.92449 0.7385 0.71281 0.0
C3670 C 0.92217 0.72673 0.7174 0.0
C3671 C 0.93216 0.72294 0.7266 0.0
C3672 C 0.92661 0.72067 0.73953 0.0
C3673 C 0.93913 0.71151 0.72201 0.0
C3674 C 0.94046 0.7344 0.72642 0.0
C3675 C 0.93585 0.74324 0.71838 0.0
C3676 C 0.94189 0.75457 0.71652 0.0
C3677 C 0.95295 0.75695 0.72304 0.0
C3678 C 0.95791 0.74806 0.73135 0.0
C3679 C 0.9515 0.73665 0.73306 0.0
H3680 H 0.72575 0.20142 0.61553 0.0
H3681 H 0.6959 0.22631 0.62504 0.0
H3682 H 0.70131 0.23955 0.60713 0.0
H3683 H 0.74765 0.22533 0.60623 0.0
H3684 H 0.75402 0.21632 0.59382 0.0
H3685 H 0.74765 0.20866 0.60728 0.0
H3686 H 0.73282 0.19588 0.59318 0.0
H3687 H 0.73911 0.20353 0.57969 0.0
H3688 H 0.72263 0.2038 0.58255 0.0
H3689 H 0.70985 0.25005 0.58801 0.0
H3690 H 0.72104 0.25715 0.56935 0.0
H3691 H 0.74607 0.22607 0.57293 0.0
C3692 C 0.72041 0.20971 0.61395 0.0
C3693 C 0.71033 0.21274 0.62174 0.0
C3694 C 0.70351 0.22361 0.61915 0.0
C3695 C 0.70656 0.23127 0.60902 0.0
C3696 C 0.71652 0.22799 0.60156 0.0
C3697 C 0.72337 0.2175 0.60392 0.0
C3698 C 0.73368 0.21611 0.59451 0.0
C3699 C 0.74651 0.21664 0.60084 0.0
C3700 C 0.73195 0.20412 0.58704 0.0
C3701 C 0.73154 0.22745 0.58647 0.0
C3702 C 0.72158 0.23416 0.59068 0.0
C3703 C 0.71773 0.24492 0.58469 0.0
C3704 C 0.72423 0.24893 0.57412 0.0
C3705 C 0.73454 0.24226 0.56963 0.0
C3706 C 0.73819 0.23136 0.57598 0.0
H3707 H 0.30206 0.20033 0.61427 0.0
H3708 H 0.32624 0.22899 0.62949 0.0
H3709 H 0.32078 0.24277 0.61205 0.0
H3710 H 0.3084 0.20636 0.58223 0.0
H3711 H 0.29263 0.2035 0.5772 0.0
H3712 H 0.29855 0.1958 0.59081 0.0
H3713 H 0.28039 0.20441 0.60373 0.0
H3714 H 0.27441 0.21214 0.59016 0.0
H3715 H 0.27781 0.22087 0.60398 0.0
H3716 H 0.31275 0.25348 0.59287 0.0
H3717 H 0.30247 0.26038 0.57355 0.0
H3718 H 0.28312 0.22499 0.5711 0.0
C3719 C 0.30613 0.20954 0.61404 0.0
C3720 C 0.31465 0.2135 0.62329 0.0
C3721 C 0.31987 0.2256 0.62245 0.0
C3722 C 0.31676 0.23356 0.61261 0.0
C3723 C 0.30836 0.22933 0.60367 0.0
C3724 C 0.30309 0.21763 0.60431 0.0
C3725 C 0.29427 0.21537 0.59353 0.0
C3726 C 0.29873 0.20462 0.58547 0.0
C3727 C 0.28093 0.21307 0.59813 0.0
C3728 C 0.2954 0.22765 0.58673 0.0
C3729 C 0.30361 0.23556 0.59272 0.0
C3730 C 0.3063 0.24736 0.58811 0.0
C3731 C 0.30047 0.25118 0.57709 0.0
C3732 C 0.29199 0.24324 0.5708 0.0
C3733 C 0.28944 0.23133 0.57576 0.0
H3734 H 0.32022 0.80912 0.61596 0.0
H3735 H 0.29703 0.84172 0.61652 0.0
H3736 H 0.28552 0.83404 0.59828 0.0
H3737 H 0.32222 0.80685 0.58268 0.0
H3738 H 0.3215 0.79017 0.58247 0.0
H3739 H 0.32795 0.79807 0.59573 0.0
H3740 H 0.31232 0.78656 0.61004 0.0
H3741 H 0.30585 0.7786 0.59682 0.0
H3742 H 0.29591 0.78743 0.60676 0.0
H3743 H 0.27642 0.82303 0.58013 0.0
H3744 H 0.27047 0.8094 0.56279 0.0
H3745 H 0.29935 0.78371 0.57358 0.0
C3746 C 0.31268 0.81459 0.61226 0.0
C3747 C 0.30961 0.82609 0.61764 0.0
C3748 C 0.29971 0.833 0.61247 0.0
C3749 C 0.29306 0.82869 0.60214 0.0
C3750 C 0.29637 0.81741 0.59702 0.0
C3751 C 0.30595 0.81044 0.60186 0.0
C3752 C 0.30764 0.79869 0.5944 0.0
C3753 C 0.3206 0.79843 0.58847 0.0
C3754 C 0.30529 0.78713 0.60249 0.0
C3755 C 0.29752 0.80018 0.58465 0.0
C3756 C 0.29112 0.81103 0.5864 0.0
C3757 C 0.28134 0.81448 0.57868 0.0
C3758 C 0.27797 0.80663 0.56889 0.0
C3759 C 0.28437 0.79544 0.56684 0.0
C3760 C 0.29432 0.79223 0.57484 0.0
H3761 H 0.72743 0.80726 0.62634 0.0
H3762 H 0.69599 0.82674 0.61057 0.0
H3763 H 0.70077 0.81821 0.59 0.0
H3764 H 0.74793 0.81183 0.60089 0.0
H3765 H 0.75483 0.79674 0.60195 0.0
H3766 H 0.74864 0.80387 0.61561 0.0
H3767 H 0.73448 0.78466 0.61938 0.0
H3768 H 0.74064 0.77747 0.60572 0.0
H3769 H 0.72411 0.77948 0.60725 0.0
H3770 H 0.70972 0.80894 0.57095 0.0
H3771 H 0.72181 0.79858 0.55465 0.0
H3772 H 0.74708 0.78434 0.58255 0.0
C3773 C 0.72153 0.80968 0.61856 0.0
C3774 C 0.71128 0.81763 0.62009 0.0
C3775 C 0.70376 0.82053 0.60968 0.0
C3776 C 0.70644 0.81578 0.59794 0.0
C3777 C 0.71662 0.80804 0.59674 0.0
C3778 C 0.724 0.80491 0.60676 0.0
C3779 C 0.73449 0.79652 0.60284 0.0
C3780 C 0.74722 0.80261 0.60548 0.0
C3781 C 0.73336 0.78378 0.60917 0.0
C3782 C 0.73198 0.79563 0.58902 0.0
C3783 C 0.72162 0.80237 0.58572 0.0
C3784 C 0.71776 0.8035 0.57343 0.0
C3785 C 0.72467 0.79763 0.56425 0.0
C3786 C 0.73527 0.79062 0.56739 0.0
C3787 C 0.73889 0.7895 0.57995 0.0
H3788 H 0.71069 0.80965 0.40849 0.0
H3789 H 0.73843 0.83866 0.40294 0.0
H3790 H 0.74916 0.83217 0.42206 0.0
H3791 H 0.70922 0.81235 0.44192 0.0
H3792 H 0.7074 0.79593 0.44454 0.0
H3793 H 0.70182 0.80277 0.43034 0.0
H3794 H 0.71509 0.78752 0.4177 0.0
H3795 H 0.72073 0.78066 0.43187 0.0
H3796 H 0.73157 0.7867 0.42061 0.0
H3797 H 0.757 0.82268 0.44161 0.0
H3798 H 0.76149 0.81072 0.46057 0.0
H3799 H 0.72858 0.78796 0.45404 0.0
C3800 C 0.71898 0.81467 0.41134 0.0
C3801 C 0.72377 0.8246 0.40411 0.0
C3802 C 0.7347 0.83088 0.40815 0.0
C3803 C 0.74083 0.82731 0.41906 0.0
C3804 C 0.73594 0.81746 0.42589 0.0
C3805 C 0.72527 0.81121 0.42224 0.0
C3806 C 0.72205 0.8009 0.43134 0.0
C3807 C 0.70937 0.80313 0.43739 0.0
C3808 C 0.72238 0.78819 0.425 0.0
C3809 C 0.73259 0.80235 0.44065 0.0
C3810 C 0.74046 0.81198 0.4373 0.0
C3811 C 0.75087 0.81516 0.44437 0.0
C3812 C 0.75329 0.80835 0.45518 0.0
C3813 C 0.74535 0.79845 0.45889 0.0
C3814 C 0.73488 0.79542 0.45144 0.0
H3815 H 0.70282 0.22517 0.41034 0.0
H3816 H 0.72373 0.19154 0.40468 0.0
H3817 H 0.73656 0.1964 0.42306 0.0
H3818 H 0.72828 0.2442 0.42099 0.0
H3819 H 0.7192 0.25212 0.43241 0.0
H3820 H 0.71182 0.24618 0.41861 0.0
H3821 H 0.69624 0.23359 0.43206 0.0
H3822 H 0.70354 0.23951 0.4459 0.0
H3823 H 0.70204 0.22304 0.44367 0.0
H3824 H 0.74711 0.20487 0.44219 0.0
H3825 H 0.75445 0.21619 0.46066 0.0
H3826 H 0.72599 0.24377 0.45451 0.0
C3827 C 0.71002 0.21875 0.41299 0.0
C3828 C 0.71225 0.20798 0.40595 0.0
C3829 C 0.72193 0.19997 0.40972 0.0
C3830 C 0.72924 0.2026 0.42023 0.0
C3831 C 0.72676 0.21327 0.42693 0.0
C3832 C 0.71737 0.22121 0.42349 0.0
C3833 C 0.71652 0.23198 0.43239 0.0
C3834 C 0.71911 0.24435 0.4257 0.0
C3835 C 0.70383 0.23203 0.43889 0.0
C3836 C 0.7269 0.22886 0.4414 0.0
C3837 C 0.7327 0.21805 0.43806 0.0
C3838 C 0.74258 0.21331 0.44492 0.0
C3839 C 0.74663 0.21978 0.45548 0.0
C3840 C 0.74078 0.23087 0.45917 0.0
C3841 C 0.73078 0.23542 0.45194 0.0
H3842 H 0.31178 0.20601 0.41338 0.0
H3843 H 0.33992 0.23426 0.40626 0.0
H3844 H 0.3319 0.24663 0.42351 0.0
H3845 H 0.28702 0.22713 0.42187 0.0
H3846 H 0.28099 0.21718 0.43394 0.0
H3847 H 0.28862 0.21059 0.42073 0.0
H3848 H 0.30395 0.19927 0.43537 0.0
H3849 H 0.29636 0.20582 0.44861 0.0
H3850 H 0.31285 0.20809 0.44652 0.0
H3851 H 0.32121 0.25591 0.44152 0.0
H3852 H 0.30867 0.26138 0.45966 0.0
H3853 H 0.28756 0.22708 0.45582 0.0
C3854 C 0.31617 0.21485 0.41541 0.0
C3855 C 0.32654 0.21912 0.40851 0.0
C3856 C 0.33209 0.23069 0.41152 0.0
C3857 C 0.32756 0.23784 0.42125 0.0
C3858 C 0.31743 0.23333 0.42795 0.0
C3859 C 0.31179 0.22211 0.4252 0.0
C3860 C 0.30125 0.21932 0.43416 0.0
C3861 C 0.28873 0.21851 0.42726 0.0
C3862 C 0.30376 0.20742 0.44161 0.0
C3863 C 0.30194 0.23069 0.44237 0.0
C3864 C 0.31131 0.23866 0.43854 0.0
C3865 C 0.31387 0.24972 0.44465 0.0
C3866 C 0.30674 0.25271 0.45502 0.0
C3867 C 0.29718 0.24463 0.4593 0.0
C3868 C 0.29472 0.23351 0.45277 0.0
H3869 H 0.30439 0.80956 0.40294 0.0
H3870 H 0.33538 0.82948 0.41973 0.0
H3871 H 0.33046 0.81992 0.43994 0.0
H3872 H 0.28361 0.81217 0.42847 0.0
H3873 H 0.27692 0.79688 0.42683 0.0
H3874 H 0.28306 0.8049 0.41347 0.0
H3875 H 0.29752 0.78647 0.40902 0.0
H3876 H 0.29138 0.77836 0.42233 0.0
H3877 H 0.30788 0.78105 0.421 0.0
H3878 H 0.32191 0.80892 0.45841 0.0
H3879 H 0.31045 0.79683 0.47409 0.0
H3880 H 0.28511 0.78338 0.44558 0.0
C3881 C 0.31023 0.81178 0.41084 0.0
C3882 C 0.32025 0.82034 0.40974 0.0
C3883 C 0.32756 0.82311 0.42036 0.0
C3884 C 0.32488 0.81767 0.43188 0.0
C3885 C 0.31486 0.80943 0.43268 0.0
C3886 C 0.30765 0.80644 0.42247 0.0
C3887 C 0.29726 0.79747 0.42601 0.0
C3888 C 0.28446 0.8032 0.42355 0.0
C3889 C 0.29859 0.78511 0.41918 0.0
C3890 C 0.29972 0.79598 0.43981 0.0
C3891 C 0.30994 0.80295 0.44341 0.0
C3892 C 0.31397 0.8033 0.45568 0.0
C3893 C 0.30742 0.79631 0.46452 0.0
C3894 C 0.29694 0.78897 0.46111 0.0
C3895 C 0.29305 0.78888 0.44854 0.0
H3896 H 0.61608 0.2071 0.71849 0.0
H3897 H 0.61377 0.22517 0.68252 0.0
H3898 H 0.59514 0.23624 0.68924 0.0
H3899 H 0.58288 0.20322 0.72289 0.0
H3900 H 0.58343 0.20634 0.73928 0.0
H3901 H 0.59665 0.19968 0.73174 0.0
H3902 H 0.61067 0.21758 0.73982 0.0
H3903 H 0.59749 0.22427 0.7474 0.0
H3904 H 0.60646 0.23337 0.73652 0.0
H3905 H 0.57711 0.24568 0.69971 0.0
H3906 H 0.56034 0.25275 0.71333 0.0
H3907 H 0.57377 0.22871 0.74272 0.0
C3908 C 0.61165 0.21341 0.71206 0.0
C3909 C 0.61635 0.21516 0.69992 0.0
C3910 C 0.61025 0.22348 0.69177 0.0
C3911 C 0.59969 0.22988 0.69553 0.0
C3912 C 0.59526 0.22789 0.70748 0.0
C3913 C 0.60099 0.21986 0.71564 0.0
C3914 C 0.5942 0.21945 0.72797 0.0
C3915 C 0.58898 0.20639 0.73062 0.0
C3916 C 0.60271 0.22394 0.73855 0.0
C3917 C 0.58383 0.22856 0.72543 0.0
C3918 C 0.58468 0.23332 0.71355 0.0
C3919 C 0.57634 0.24203 0.70903 0.0
C3920 C 0.56688 0.24604 0.71687 0.0
C3921 C 0.56577 0.24134 0.72911 0.0
C3922 C 0.57433 0.2324 0.73339 0.0
H3923 H 0.30826 0.11656 0.70885 0.0
H3924 H 0.34006 0.11924 0.73365 0.0
H3925 H 0.33216 0.10131 0.74556 0.0
H3926 H 0.28569 0.10777 0.73234 0.0
H3927 H 0.27736 0.09715 0.7224 0.0
H3928 H 0.28539 0.11034 0.71582 0.0
H3929 H 0.29774 0.09581 0.7015 0.0
H3930 H 0.28976 0.08258 0.70805 0.0
H3931 H 0.30651 0.08332 0.70824 0.0
H3932 H 0.32109 0.0831 0.75473 0.0
H3933 H 0.30763 0.06538 0.76043 0.0
H3934 H 0.28268 0.07434 0.73 0.0
C3935 C 0.3135 0.11342 0.71684 0.0
C3936 C 0.32485 0.11927 0.72025 0.0
C3937 C 0.33148 0.11479 0.73071 0.0
C3938 C 0.32702 0.10466 0.7376 0.0
C3939 C 0.31589 0.09905 0.73394 0.0
C3940 C 0.3092 0.10323 0.72381 0.0
C3941 C 0.2976 0.09534 0.72181 0.0
C3942 C 0.28581 0.10311 0.72318 0.0
C3943 C 0.29793 0.08888 0.70915 0.0
C3944 C 0.29886 0.08608 0.73238 0.0
C3945 C 0.30946 0.08846 0.73927 0.0
C3946 C 0.31271 0.08118 0.74945 0.0
C3947 C 0.30495 0.07118 0.75267 0.0
C3948 C 0.29402 0.06848 0.74574 0.0
C3949 C 0.29098 0.07609 0.73545 0.0
H3950 H 0.40979 0.79898 0.70339 0.0
H3951 H 0.40249 0.83116 0.72607 0.0
H3952 H 0.42026 0.82588 0.7395 0.0
H3953 H 0.41954 0.77864 0.7281 0.0
H3954 H 0.43161 0.77156 0.71915 0.0
H3955 H 0.41803 0.77758 0.71149 0.0
H3956 H 0.43201 0.79139 0.69749 0.0
H3957 H 0.44563 0.78537 0.70506 0.0
H3958 H 0.44313 0.80184 0.70452 0.0
H3959 H 0.43901 0.81733 0.75035 0.0
H3960 H 0.45764 0.80634 0.75765 0.0
H3961 H 0.45343 0.78016 0.72748 0.0
C3962 C 0.41194 0.80498 0.71113 0.0
C3963 C 0.4046 0.81547 0.71367 0.0
C3964 C 0.40775 0.82295 0.72402 0.0
C3965 C 0.4179 0.82007 0.73168 0.0
C3966 C 0.4249 0.80969 0.72889 0.0
C3967 C 0.4221 0.80227 0.71885 0.0
C3968 C 0.43129 0.79179 0.71778 0.0
C3969 C 0.42472 0.77915 0.71922 0.0
C3970 C 0.43844 0.79266 0.70548 0.0
C3971 C 0.43974 0.7945 0.72876 0.0
C3972 C 0.43585 0.80485 0.73506 0.0
C3973 C 0.44217 0.80924 0.74546 0.0
C3974 C 0.4528 0.80297 0.74949 0.0
C3975 C 0.45711 0.79241 0.74312 0.0
C3976 C 0.45036 0.78811 0.73265 0.0
H3977 H 0.70292 0.91623 0.71292 0.0
H3978 H 0.7301 0.88826 0.7222 0.0
H3979 H 0.74373 0.90436 0.73137 0.0
H3980 H 0.7251 0.94063 0.70509 0.0
H3981 H 0.71584 0.95271 0.71167 0.0
H3982 H 0.70841 0.93904 0.70547 0.0
H3983 H 0.69742 0.9352 0.72648 0.0
H3984 H 0.70484 0.94883 0.73276 0.0
H3985 H 0.70661 0.9341 0.74046 0.0
H3986 H 0.75397 0.92336 0.74044 0.0
H3987 H 0.76037 0.94391 0.74817 0.0
H3988 H 0.72678 0.95969 0.73251 0.0
C3989 C 0.71173 0.91349 0.71689 0.0
C3990 C 0.71544 0.90095 0.7168 0.0
C3991 C 0.72712 0.8978 0.72198 0.0
C3992 C 0.7349 0.90687 0.72729 0.0
C3993 C 0.73092 0.9191 0.72729 0.0
C3994 C 0.71964 0.92244 0.72216 0.0
C3995 C 0.71753 0.93623 0.72345 0.0
C3996 C 0.71667 0.94252 0.71066 0.0
C3997 C 0.70591 0.93873 0.73125 0.0
C3998 C 0.72931 0.9401 0.73025 0.0
C3999 C 0.7369 0.93008 0.73236 0.0
C4000 C 0.74815 0.9313 0.73871 0.0
C4001 C 0.75175 0.94306 0.743 0.0
C4002 C 0.74416 0.95352 0.74091 0.0
C4003 C 0.73279 0.95193 0.7344 0.0
H4004 H 0.61679 0.81604 0.31163 0.0
H4005 H 0.62271 0.7873 0.33925 0.0
H4006 H 0.6043 0.77596 0.3315 0.0
H4007 H 0.58356 0.81572 0.313 0.0
H4008 H 0.58131 0.81809 0.2966 0.0
H4009 H 0.59517 0.82394 0.30408 0.0
H4010 H 0.60874 0.81187 0.28861 0.0
H4011 H 0.59492 0.806 0.28107 0.0
H4012 H 0.60639 0.79541 0.28693 0.0
H4013 H 0.58513 0.76786 0.3212 0.0
H4014 H 0.56637 0.76336 0.30875 0.0
H4015 H 0.57259 0.79714 0.28757 0.0
C4016 C 0.61428 0.80731 0.31596 0.0
C4017 C 0.62117 0.80263 0.32614 0.0
C4018 C 0.61748 0.7912 0.3316 0.0
C4019 C 0.60707 0.78464 0.32721 0.0
C4020 C 0.60042 0.78956 0.31729 0.0
C4021 C 0.60386 0.8006 0.31168 0.0
C4022 C 0.59491 0.80386 0.30126 0.0
C4023 C 0.58835 0.81613 0.3039 0.0
C4024 C 0.60165 0.80431 0.28873 0.0
C4025 C 0.58591 0.79295 0.30196 0.0
C4026 C 0.58929 0.78482 0.31128 0.0
C4027 C 0.58237 0.77416 0.31388 0.0
C4028 C 0.57167 0.77172 0.3068 0.0
C4029 C 0.56794 0.77991 0.29721 0.0
C4030 C 0.57524 0.79064 0.29475 0.0
H4031 H 0.72084 0.12127 0.31003 0.0
H4032 H 0.69386 0.10312 0.33402 0.0
H4033 H 0.69989 0.08285 0.32577 0.0
H4034 H 0.7164 0.10038 0.28348 0.0
H4035 H 0.73264 0.10065 0.27947 0.0
H4036 H 0.72583 0.11387 0.2868 0.0
H4037 H 0.74244 0.11285 0.30421 0.0
H4038 H 0.74927 0.09959 0.29697 0.0
H4039 H 0.7443 0.09867 0.31289 0.0
H4040 H 0.70951 0.06451 0.31597 0.0
H4041 H 0.72171 0.04914 0.30459 0.0
H4042 H 0.74231 0.07881 0.28641 0.0
C4043 C 0.71605 0.11305 0.31339 0.0
C4044 C 0.70691 0.11382 0.32275 0.0
C4045 C 0.70101 0.10279 0.327 0.0
C4046 C 0.70432 0.09122 0.32232 0.0
C4047 C 0.7135 0.09077 0.3133 0.0
C4048 C 0.71924 0.10137 0.30878 0.0
C4049 C 0.72908 0.09818 0.29929 0.0
C4050 C 0.72579 0.10359 0.2865 0.0
C4051 C 0.74204 0.10258 0.30361 0.0
C4052 C 0.72807 0.08414 0.29933 0.0
C4053 C 0.719 0.0801 0.30748 0.0
C4054 C 0.71658 0.06756 0.3095 0.0
C4055 C 0.72362 0.0589 0.30305 0.0
C4056 C 0.73299 0.06276 0.29464 0.0
C4057 C 0.73514 0.07558 0.29269 0.0
H4058 H 0.4124 0.20065 0.30311 0.0
H4059 H 0.39985 0.22761 0.32986 0.0
H4060 H 0.41768 0.24118 0.32459 0.0
H4061 H 0.44515 0.20492 0.30824 0.0
H4062 H 0.44917 0.20332 0.29214 0.0
H4063 H 0.43554 0.19558 0.29814 0.0
H4064 H 0.42197 0.20626 0.28141 0.0
H4065 H 0.43556 0.214 0.27533 0.0
H4066 H 0.42235 0.2229 0.28003 0.0
H4067 H 0.43688 0.25189 0.31639 0.0
H4068 H 0.4559 0.25903 0.30574 0.0
H4069 H 0.45548 0.22554 0.28365 0.0
C4070 C 0.41332 0.20944 0.30781 0.0
C4071 C 0.40469 0.21299 0.31697 0.0
C4072 C 0.4064 0.22454 0.32298 0.0
C4073 C 0.41647 0.23237 0.31999 0.0
C4074 C 0.42477 0.22857 0.31093 0.0
C4075 C 0.42329 0.2174 0.3049 0.0
C4076 C 0.43347 0.21557 0.29544 0.0
C4077 C 0.44129 0.20417 0.29869 0.0
C4078 C 0.42801 0.21463 0.28227 0.0
C4079 C 0.44091 0.22746 0.29709 0.0
C4080 C 0.43574 0.23482 0.30609 0.0
C4081 C 0.44097 0.24623 0.30928 0.0
C4082 C 0.45175 0.25025 0.3031 0.0
C4083 C 0.45721 0.24291 0.29377 0.0
C4084 C 0.45166 0.23134 0.2908 0.0
H4085 H 0.3252 0.91078 0.29914 0.0
H4086 H 0.30435 0.90441 0.333 0.0
H4087 H 0.29168 0.92274 0.32838 0.0
H4088 H 0.32614 0.9442 0.30138 0.0
H4089 H 0.32456 0.94662 0.2849 0.0
H4090 H 0.3319 0.93284 0.29073 0.0
H4091 H 0.31627 0.91928 0.2783 0.0
H4092 H 0.30889 0.93301 0.27244 0.0
H4093 H 0.29982 0.92136 0.28045 0.0
H4094 H 0.28113 0.94169 0.32006 0.0
H4095 H 0.27366 0.96012 0.30877 0.0
H4096 H 0.30171 0.95467 0.28062 0.0
C4097 C 0.31806 0.91328 0.30567 0.0
C4098 C 0.31577 0.90602 0.31642 0.0
C4099 C 0.30618 0.90961 0.32459 0.0
C4100 C 0.29898 0.92009 0.32209 0.0
C4101 C 0.30149 0.92699 0.31143 0.0
C4102 C 0.31082 0.92377 0.30336 0.0
C4103 C 0.31162 0.93281 0.29257 0.0
C4104 C 0.32431 0.93951 0.29239 0.0
C4105 C 0.30899 0.92622 0.28021 0.0
C4106 C 0.30126 0.9416 0.29581 0.0
C4107 C 0.29552 0.93804 0.30672 0.0
C4108 C 0.28556 0.94457 0.31152 0.0
C4109 C 0.28134 0.95499 0.305 0.0
C4110 C 0.28707 0.95884 0.2938 0.0
C4111 C 0.29722 0.95205 0.28922 0.0
H4112 H 0.71654 0.12198 0.72344 0.0
H4113 H 0.69382 0.10566 0.69432 0.0
H4114 H 0.70167 0.08498 0.69987 0.0
H4115 H 0.74306 0.10168 0.71958 0.0
H4116 H 0.7464 0.10082 0.73595 0.0
H4117 H 0.73926 0.11444 0.72951 0.0
H4118 H 0.72108 0.11205 0.74504 0.0
H4119 H 0.72816 0.09842 0.7515 0.0
H4120 H 0.71243 0.09766 0.74569 0.0
H4121 H 0.71102 0.06596 0.70922 0.0
H4122 H 0.72218 0.04991 0.7211 0.0
H4123 H 0.73936 0.07837 0.74388 0.0
C4124 C 0.71325 0.11405 0.71822 0.0
C4125 C 0.70459 0.11546 0.70839 0.0
C4126 C 0.70057 0.10485 0.70175 0.0
C4127 C 0.70492 0.09305 0.70488 0.0
C4128 C 0.71338 0.09197 0.71463 0.0
C4129 C 0.7176 0.10218 0.72115 0.0
C4130 C 0.7267 0.09841 0.73125 0.0
C4131 C 0.73962 0.10418 0.72893 0.0
C4132 C 0.7218 0.10184 0.74413 0.0
C4133 C 0.7268 0.08448 0.72948 0.0
C4134 C 0.71901 0.08098 0.71987 0.0
C4135 C 0.71721 0.0686 0.71671 0.0
C4136 C 0.72353 0.05954 0.72355 0.0
C4137 C 0.73164 0.06289 0.73339 0.0
C4138 C 0.73333 0.07555 0.73632 0.0
H4139 H 0.71267 0.90081 0.29664 0.0
H4140 H 0.70152 0.9137 0.33291 0.0
H4141 H 0.71136 0.934 0.32861 0.0
H4142 H 0.74258 0.91656 0.29624 0.0
H4143 H 0.74187 0.92024 0.27994 0.0
H4144 H 0.73396 0.90665 0.28581 0.0
H4145 H 0.71328 0.91434 0.27629 0.0
H4146 H 0.72112 0.92796 0.27041 0.0
H4147 H 0.70773 0.92949 0.28023 0.0
H4148 H 0.72173 0.953 0.32029 0.0
H4149 H 0.73269 0.96946 0.30878 0.0
H4150 H 0.73805 0.9443 0.27802 0.0
C4151 C 0.71228 0.90793 0.30365 0.0
C4152 C 0.70636 0.90565 0.31514 0.0
C4153 C 0.70614 0.91517 0.32412 0.0
C4154 C 0.71164 0.92676 0.32173 0.0
C4155 C 0.7174 0.9287 0.31034 0.0
C4156 C 0.71783 0.91956 0.30145 0.0
C4157 C 0.72475 0.92409 0.29003 0.0
C4158 C 0.73649 0.91643 0.28788 0.0
C4159 C 0.71621 0.92396 0.27856 0.0
C4160 C 0.72804 0.93723 0.29387 0.0
C4161 C 0.72367 0.93966 0.30561 0.0
C4162 C 0.72533 0.95117 0.31114 0.0
C4163 C 0.73169 0.96045 0.30453 0.0
C4164 C 0.73647 0.9582 0.29252 0.0
C4165 C 0.73452 0.94639 0.28714 0.0
H4166 H 0.61384 0.20096 0.3013 0.0
H4167 H 0.62333 0.22458 0.33249 0.0
H4168 H 0.60588 0.23821 0.3271 0.0
H4169 H 0.60454 0.22501 0.28031 0.0
H4170 H 0.59184 0.21618 0.27372 0.0
H4171 H 0.60521 0.20834 0.27989 0.0
H4172 H 0.59097 0.19536 0.29439 0.0
H4173 H 0.57755 0.20314 0.28826 0.0
H4174 H 0.58054 0.20313 0.30471 0.0
H4175 H 0.58737 0.24938 0.3183 0.0
H4176 H 0.56891 0.25695 0.30704 0.0
H4177 H 0.57105 0.22582 0.28191 0.0
C4178 C 0.61221 0.20893 0.3071 0.0
C4179 C 0.62009 0.21168 0.31731 0.0
C4180 C 0.61764 0.22234 0.32449 0.0
C4181 C 0.60767 0.23011 0.32155 0.0
C4182 C 0.60014 0.22713 0.31143 0.0
C4183 C 0.60225 0.21676 0.30434 0.0
C4184 C 0.5927 0.21559 0.294 0.0
C4185 C 0.59895 0.21633 0.28123 0.0
C4186 C 0.58498 0.20359 0.29543 0.0
C4187 C 0.58489 0.22692 0.2964 0.0
C4188 C 0.58937 0.23347 0.30646 0.0
C4189 C 0.58379 0.24433 0.3104 0.0
C4190 C 0.57334 0.24859 0.30389 0.0
C4191 C 0.56851 0.24202 0.29356 0.0
C4192 C 0.57441 0.23101 0.28983 0.0
H4193 H 0.31841 0.10836 0.32469 0.0
H4194 H 0.29684 0.13704 0.30663 0.0
H4195 H 0.28581 0.12115 0.29428 0.0
H4196 H 0.32154 0.08884 0.29751 0.0
H4197 H 0.32018 0.07459 0.30619 0.0
H4198 H 0.3266 0.08823 0.31345 0.0
H4199 H 0.31021 0.08637 0.33089 0.0
H4200 H 0.30373 0.07274 0.32368 0.0
H4201 H 0.29393 0.08575 0.32688 0.0
H4202 H 0.27639 0.10218 0.28464 0.0
H4203 H 0.2699 0.08138 0.27753 0.0
H4204 H 0.2978 0.06485 0.30136 0.0
C4205 C 0.31137 0.11129 0.31813 0.0
C4206 C 0.30852 0.12397 0.3166 0.0
C4207 C 0.29931 0.12741 0.30784 0.0
C4208 C 0.29294 0.11844 0.30083 0.0
C4209 C 0.29593 0.10604 0.3026 0.0
C4210 C 0.30499 0.10244 0.31095 0.0
C4211 C 0.30638 0.08847 0.31103 0.0
C4212 C 0.31945 0.08482 0.30679 0.0
C4213 C 0.30338 0.08302 0.32388 0.0
C4214 C 0.29659 0.08479 0.30153 0.0
C4215 C 0.29065 0.09508 0.29683 0.0
C4216 C 0.28101 0.09406 0.2882 0.0
C4217 C 0.27735 0.08221 0.28427 0.0
C4218 C 0.28334 0.07151 0.28889 0.0
C4219 C 0.29314 0.07287 0.29758 0.0
H4220 H 0.41874 0.8143 0.32493 0.0
H4221 H 0.3908 0.80965 0.29611 0.0
H4222 H 0.40665 0.801 0.28227 0.0
H4223 H 0.44421 0.82287 0.30456 0.0
H4224 H 0.45564 0.81459 0.31351 0.0
H4225 H 0.44218 0.8208 0.32102 0.0
H4226 H 0.4367 0.79901 0.32972 0.0
H4227 H 0.45011 0.79273 0.3222 0.0
H4228 H 0.43491 0.7862 0.31919 0.0
H4229 H 0.42532 0.79202 0.27185 0.0
H4230 H 0.44556 0.7839 0.26536 0.0
H4231 H 0.46157 0.7947 0.30078 0.0
C4232 C 0.41594 0.81145 0.31572 0.0
C4233 C 0.40349 0.81271 0.31162 0.0
C4234 C 0.40028 0.80898 0.29943 0.0
C4235 C 0.40922 0.80397 0.29151 0.0
C4236 C 0.42136 0.80279 0.29588 0.0
C4237 C 0.42475 0.80647 0.30767 0.0
C4238 C 0.43842 0.80411 0.3101 0.0
C4239 C 0.44553 0.81632 0.31243 0.0
C4240 C 0.44013 0.79497 0.32094 0.0
C4241 C 0.44215 0.79839 0.29789 0.0
C4242 C 0.43216 0.79772 0.28982 0.0
C4243 C 0.43324 0.79261 0.27805 0.0
C4244 C 0.44483 0.78808 0.27442 0.0
C4245 C 0.45527 0.78872 0.28249 0.0
C4246 C 0.45381 0.79396 0.2944 0.0
H4247 H 0.31068 0.90314 0.72572 0.0
H4248 H 0.3283 0.91786 0.69257 0.0
H4249 H 0.31973 0.93844 0.69697 0.0
H4250 H 0.28253 0.92117 0.72322 0.0
H4251 H 0.28124 0.92345 0.7397 0.0
H4252 H 0.28858 0.90978 0.73385 0.0
H4253 H 0.30836 0.91495 0.7467 0.0
H4254 H 0.3011 0.92866 0.75254 0.0
H4255 H 0.31587 0.92984 0.74479 0.0
H4256 H 0.31 0.9576 0.70533 0.0
H4257 H 0.29907 0.97391 0.71659 0.0
H4258 H 0.28706 0.94682 0.74409 0.0
C4259 C 0.31275 0.9107 0.7194 0.0
C4260 C 0.32014 0.90884 0.70875 0.0
C4261 C 0.32252 0.91898 0.70067 0.0
C4262 C 0.31776 0.93074 0.70314 0.0
C4263 C 0.31057 0.93225 0.71371 0.0
C4264 C 0.30799 0.92251 0.72168 0.0
C4265 C 0.29996 0.92668 0.73238 0.0
C4266 C 0.28733 0.91987 0.73227 0.0
C4267 C 0.30673 0.92493 0.74484 0.0
C4268 C 0.29853 0.9403 0.72922 0.0
C4269 C 0.30475 0.9433 0.71842 0.0
C4270 C 0.30498 0.95533 0.71372 0.0
C4271 C 0.29864 0.96454 0.72017 0.0
C4272 C 0.29203 0.96172 0.7312 0.0
C4273 C 0.29205 0.94938 0.73575 0.0
H4274 H 0.61618 0.82007 0.71682 0.0
H4275 H 0.61688 0.79679 0.68417 0.0
H4276 H 0.59835 0.78547 0.69161 0.0
H4277 H 0.60662 0.79604 0.73833 0.0
H4278 H 0.59666 0.80595 0.74715 0.0
H4279 H 0.60999 0.8124 0.73927 0.0
H4280 H 0.59578 0.82789 0.72771 0.0
H4281 H 0.58241 0.82147 0.73553 0.0
H4282 H 0.58272 0.82212 0.71884 0.0
H4283 H 0.58006 0.77641 0.70252 0.0
H4284 H 0.56272 0.77033 0.71619 0.0
H4285 H 0.57345 0.7993 0.74198 0.0
C4286 C 0.61244 0.81257 0.71127 0.0
C4287 C 0.61794 0.80941 0.69983 0.0
C4288 C 0.61272 0.79955 0.69283 0.0
C4289 C 0.60223 0.793 0.69702 0.0
C4290 C 0.597 0.79639 0.70825 0.0
C4291 C 0.60188 0.80594 0.7153 0.0
C4292 C 0.59435 0.80765 0.72703 0.0
C4293 C 0.60239 0.80537 0.73863 0.0
C4294 C 0.58847 0.82055 0.72729 0.0
C4295 C 0.58454 0.79755 0.72546 0.0
C4296 C 0.5863 0.79116 0.71456 0.0
C4297 C 0.57858 0.78134 0.71108 0.0
C4298 C 0.56879 0.77791 0.71895 0.0
C4299 C 0.56674 0.78429 0.73018 0.0
C4300 C 0.57472 0.7943 0.73341 0.0
H4301 H 0.41221 0.22493 0.70076 0.0
H4302 H 0.39798 0.19971 0.72895 0.0
H4303 H 0.4157 0.20515 0.74252 0.0
H4304 H 0.4446 0.2192 0.70586 0.0
H4305 H 0.44932 0.23508 0.70341 0.0
H4306 H 0.43561 0.22906 0.6958 0.0
H4307 H 0.42255 0.24659 0.70531 0.0
H4308 H 0.43621 0.25267 0.71295 0.0
H4309 H 0.4226 0.24871 0.72187 0.0
H4310 H 0.43503 0.21332 0.75308 0.0
H4311 H 0.45434 0.22388 0.75994 0.0
H4312 H 0.45569 0.24417 0.72513 0.0
C4313 C 0.41273 0.22062 0.70983 0.0
C4314 C 0.40367 0.21183 0.71372 0.0
C4315 C 0.40487 0.2063 0.72562 0.0
C4316 C 0.41487 0.20939 0.73345 0.0
C4317 C 0.42361 0.21808 0.72931 0.0
C4318 C 0.42262 0.22364 0.71779 0.0
C4319 C 0.43323 0.23274 0.71559 0.0
C4320 C 0.44116 0.22878 0.70451 0.0
C4321 C 0.42835 0.24596 0.71383 0.0
C4322 C 0.44032 0.23145 0.72769 0.0
C4323 C 0.43464 0.22291 0.73546 0.0
C4324 C 0.43955 0.22002 0.74708 0.0
C4325 C 0.45056 0.22603 0.75087 0.0
C4326 C 0.45653 0.23486 0.74309 0.0
C4327 C 0.45127 0.23758 0.73136 0.0
H4328 H 0.72486 0.70039 0.11559 0.0
H4329 H 0.69627 0.72615 0.12647 0.0
H4330 H 0.7017 0.73959 0.10872 0.0
H4331 H 0.74742 0.72371 0.10609 0.0
H4332 H 0.75304 0.71474 0.09329 0.0
H4333 H 0.74684 0.70703 0.1068 0.0
H4334 H 0.73108 0.69507 0.09298 0.0
H4335 H 0.73723 0.70274 0.07943 0.0
H4336 H 0.72088 0.70357 0.08282 0.0
H4337 H 0.71005 0.75018 0.08965 0.0
H4338 H 0.72088 0.75724 0.07072 0.0
H4339 H 0.74449 0.72498 0.0725 0.0
C4340 C 0.71981 0.70891 0.11435 0.0
C4341 C 0.71006 0.71213 0.12247 0.0
C4342 C 0.7036 0.72332 0.12031 0.0
C4343 C 0.70669 0.73108 0.11029 0.0
C4344 C 0.71631 0.72761 0.1025 0.0
C4345 C 0.72281 0.71682 0.10442 0.0
C4346 C 0.73275 0.71523 0.09465 0.0
C4347 C 0.74578 0.71518 0.10057 0.0
C4348 C 0.73033 0.70346 0.08702 0.0
C4349 C 0.7308 0.72681 0.0869 0.0
C4350 C 0.72125 0.73381 0.09159 0.0
C4351 C 0.71755 0.74478 0.08591 0.0
C4352 C 0.72372 0.74869 0.07512 0.0
C4353 C 0.73352 0.74167 0.07011 0.0
C4354 C 0.73713 0.73062 0.07617 0.0
H4355 H 0.30064 0.71336 0.12491 0.0
H4356 H 0.32725 0.68881 0.10801 0.0
H4357 H 0.32236 0.69765 0.08746 0.0
H4358 H 0.27789 0.71171 0.10046 0.0
H4359 H 0.27357 0.72775 0.10148 0.0
H4360 H 0.27931 0.71976 0.115 0.0
H4361 H 0.29654 0.7365 0.11771 0.0
H4362 H 0.29082 0.74456 0.10422 0.0
H4363 H 0.30685 0.73995 0.10499 0.0
H4364 H 0.31468 0.70891 0.06881 0.0
H4365 H 0.30447 0.72186 0.05299 0.0
H4366 H 0.28259 0.73924 0.08161 0.0
C4367 C 0.3055 0.70993 0.11688 0.0
C4368 C 0.3143 0.70035 0.11806 0.0
C4369 C 0.32037 0.69602 0.10732 0.0
C4370 C 0.3177 0.70103 0.09561 0.0
C4371 C 0.30891 0.71035 0.09475 0.0
C4372 C 0.30288 0.71478 0.10506 0.0
C4373 C 0.29366 0.72473 0.10145 0.0
C4374 C 0.28032 0.72075 0.1048 0.0
C4375 C 0.29718 0.73717 0.10745 0.0
C4376 C 0.29546 0.72517 0.08751 0.0
C4377 C 0.30436 0.71682 0.08388 0.0
C4378 C 0.30773 0.71551 0.07153 0.0
C4379 C 0.30192 0.72296 0.06262 0.0
C4380 C 0.29278 0.73163 0.06605 0.0
C4381 C 0.28948 0.73266 0.07869 0.0
H4382 H 0.303 0.32877 0.11214 0.0
H4383 H 0.3288 0.30152 0.12648 0.0
H4384 H 0.32359 0.28776 0.10902 0.0
H4385 H 0.27952 0.30677 0.1022 0.0
H4386 H 0.27536 0.31549 0.08854 0.0
H4387 H 0.28132 0.32338 0.10202 0.0
H4388 H 0.29871 0.33349 0.08871 0.0
H4389 H 0.2928 0.32563 0.07519 0.0
H4390 H 0.3088 0.32379 0.0798 0.0
H4391 H 0.31553 0.27683 0.09002 0.0
H4392 H 0.30499 0.26946 0.07103 0.0
H4393 H 0.28408 0.30354 0.06918 0.0
C4394 C 0.3075 0.31987 0.11169 0.0
C4395 C 0.31641 0.31632 0.12072 0.0
C4396 C 0.32215 0.30462 0.11961 0.0
C4397 C 0.31918 0.29667 0.10976 0.0
C4398 C 0.31039 0.30048 0.10105 0.0
C4399 C 0.30461 0.31179 0.10193 0.0
C4400 C 0.29541 0.3136 0.09138 0.0
C4401 C 0.28212 0.31488 0.09633 0.0
C4402 C 0.29916 0.32479 0.08329 0.0
C4403 C 0.29693 0.30154 0.08444 0.0
C4404 C 0.30564 0.29412 0.09016 0.0
C4405 C 0.30871 0.28258 0.08545 0.0
C4406 C 0.30272 0.2785 0.0746 0.0
C4407 C 0.29372 0.28591 0.06855 0.0
C4408 C 0.29082 0.29759 0.07362 0.0
H4409 H 0.70898 0.32333 0.11138 0.0
H4410 H 0.73394 0.30836 0.13926 0.0
H4411 H 0.74434 0.29612 0.12323 0.0
H4412 H 0.70609 0.29493 0.09293 0.0
H4413 H 0.70587 0.30317 0.07835 0.0
H4414 H 0.69991 0.31036 0.0921 0.0
H4415 H 0.71489 0.32902 0.08877 0.0
H4416 H 0.72092 0.32187 0.07505 0.0
H4417 H 0.73133 0.32636 0.08741 0.0
H4418 H 0.75275 0.28629 0.10425 0.0
H4419 H 0.75841 0.2791 0.08339 0.0
H4420 H 0.72805 0.30011 0.06751 0.0
C4421 C 0.71651 0.31732 0.11413 0.0
C4422 C 0.72068 0.31687 0.12659 0.0
C4423 C 0.73068 0.30901 0.12977 0.0
C4424 C 0.73661 0.30196 0.12074 0.0
C4425 C 0.73243 0.30278 0.10853 0.0
C4426 C 0.72258 0.3102 0.10519 0.0
C4427 C 0.72023 0.30964 0.09131 0.0
C4428 C 0.70725 0.3042 0.08851 0.0
C4429 C 0.72195 0.32249 0.08529 0.0
C4430 C 0.73038 0.30087 0.08738 0.0
C4431 C 0.73728 0.29702 0.0975 0.0
C4432 C 0.74739 0.2892 0.09626 0.0
C4433 C 0.75058 0.28523 0.08436 0.0
C4434 C 0.74371 0.28907 0.0738 0.0
C4435 C 0.7334 0.29692 0.0754 0.0
H4436 H 0.72635 0.32433 0.912 0.0
H4437 H 0.69216 0.30337 0.90603 0.0
H4438 H 0.69688 0.2905 0.92438 0.0
H4439 H 0.74502 0.29904 0.92257 0.0
H4440 H 0.75319 0.30805 0.93409 0.0
H4441 H 0.7473 0.31546 0.92031 0.0
H4442 H 0.735 0.33082 0.93379 0.0
H4443 H 0.7409 0.32348 0.94762 0.0
H4444 H 0.72437 0.32489 0.94532 0.0
H4445 H 0.70528 0.27992 0.94346 0.0
H4446 H 0.71659 0.27259 0.96198 0.0
H4447 H 0.74478 0.30112 0.95611 0.0
C4448 C 0.71978 0.31711 0.91458 0.0
C4449 C 0.70889 0.31486 0.90748 0.0
C4450 C 0.70067 0.30517 0.91115 0.0
C4451 C 0.70323 0.29785 0.92162 0.0
C4452 C 0.71402 0.30033 0.92838 0.0
C4453 C 0.72215 0.30975 0.92504 0.0
C4454 C 0.73303 0.3106 0.93399 0.0
C4455 C 0.74536 0.30813 0.92734 0.0
C4456 C 0.73334 0.3232 0.94057 0.0
C4457 C 0.72974 0.30019 0.9429 0.0
C4458 C 0.71876 0.29436 0.93948 0.0
C4459 C 0.71386 0.28446 0.94626 0.0
C4460 C 0.72032 0.28041 0.95683 0.0
C4461 C 0.73157 0.28629 0.9606 0.0
C4462 C 0.73629 0.29631 0.95346 0.0
H4463 H 0.71947 0.72125 0.90262 0.0
H4464 H 0.69769 0.69126 0.91885 0.0
H4465 H 0.70603 0.69652 0.93952 0.0
H4466 H 0.74665 0.71786 0.92295 0.0
H4467 H 0.74953 0.7343 0.92386 0.0
H4468 H 0.74237 0.72781 0.91019 0.0
H4469 H 0.72379 0.74263 0.91258 0.0
H4470 H 0.73088 0.74915 0.92625 0.0
H4471 H 0.71534 0.74278 0.92696 0.0
H4472 H 0.71541 0.70589 0.95857 0.0
H4473 H 0.72603 0.71824 0.97474 0.0
H4474 H 0.74227 0.74193 0.94641 0.0
C4475 C 0.71651 0.71575 0.91052 0.0
C4476 C 0.70795 0.70578 0.90908 0.0
C4477 C 0.70437 0.6988 0.91966 0.0
C4478 C 0.709 0.70176 0.93146 0.0
C4479 C 0.71732 0.71168 0.93256 0.0
C4480 C 0.72114 0.71852 0.92239 0.0
C4481 C 0.73 0.72888 0.92621 0.0
C4482 C 0.7429 0.7271 0.92046 0.0
C4483 C 0.72468 0.74161 0.9228 0.0
C4484 C 0.73037 0.72693 0.94015 0.0
C4485 C 0.72297 0.71695 0.94359 0.0
C4486 C 0.72132 0.71364 0.95598 0.0
C4487 C 0.72734 0.72073 0.96509 0.0
C4488 C 0.73499 0.73099 0.96181 0.0
C4489 C 0.73661 0.73403 0.94915 0.0
H4490 H 0.30708 0.72727 0.90173 0.0
H4491 H 0.32512 0.69477 0.91689 0.0
H4492 H 0.3171 0.69974 0.93763 0.0
H4493 H 0.31309 0.74714 0.92729 0.0
H4494 H 0.29832 0.75482 0.92654 0.0
H4495 H 0.30493 0.74843 0.91271 0.0
H4496 H 0.2849 0.73538 0.9091 0.0
H4497 H 0.27821 0.74175 0.92292 0.0
H4498 H 0.27933 0.72521 0.92121 0.0
H4499 H 0.30847 0.70888 0.9569 0.0
H4500 H 0.29881 0.72115 0.97344 0.0
H4501 H 0.28572 0.74751 0.94601 0.0
C4502 C 0.30928 0.72117 0.90941 0.0
C4503 C 0.31668 0.71058 0.90767 0.0
C4504 C 0.31931 0.70281 0.91795 0.0
C4505 C 0.31486 0.70559 0.92979 0.0
C4506 C 0.30768 0.71613 0.93121 0.0
C4507 C 0.30479 0.72376 0.92131 0.0
C4508 C 0.29701 0.7346 0.92545 0.0
C4509 C 0.30375 0.74698 0.92284 0.0
C4510 C 0.28409 0.73421 0.9193 0.0
C4511 C 0.29618 0.73199 0.93926 0.0
C4512 C 0.30243 0.72129 0.94235 0.0
C4513 C 0.30346 0.71721 0.95458 0.0
C4514 C 0.29799 0.72426 0.9639 0.0
C4515 C 0.29151 0.73523 0.96098 0.0
C4516 C 0.2905 0.73907 0.94847 0.0
H4517 H 0.30203 0.32388 0.91155 0.0
H4518 H 0.32754 0.29606 0.89838 0.0
H4519 H 0.32219 0.28275 0.91627 0.0
H4520 H 0.30789 0.31963 0.94404 0.0
H4521 H 0.29194 0.32179 0.94847 0.0
H4522 H 0.29789 0.32924 0.93471 0.0
H4523 H 0.28033 0.31901 0.92167 0.0
H4524 H 0.27432 0.31153 0.93539 0.0
H4525 H 0.27832 0.30242 0.92208 0.0
H4526 H 0.31406 0.27239 0.93563 0.0
H4527 H 0.30359 0.26571 0.9549 0.0
H4528 H 0.28303 0.30002 0.95526 0.0
C4529 C 0.30643 0.31494 0.91233 0.0
C4530 C 0.31527 0.31108 0.90351 0.0
C4531 C 0.3209 0.29937 0.90507 0.0
C4532 C 0.31786 0.29168 0.91517 0.0
C4533 C 0.30912 0.29578 0.92366 0.0
C4534 C 0.30346 0.30713 0.92234 0.0
C4535 C 0.29434 0.30932 0.93275 0.0
C4536 C 0.29825 0.32067 0.94045 0.0
C4537 C 0.28104 0.31065 0.92766 0.0
C4538 C 0.29573 0.29743 0.94013 0.0
C4539 C 0.30434 0.28976 0.93474 0.0
C4540 C 0.30731 0.27833 0.93993 0.0
C4541 C 0.30136 0.27464 0.95092 0.0
C4542 C 0.29249 0.28233 0.95662 0.0
C4543 C 0.28965 0.29386 0.95107 0.0
H4544 H 0.60772 0.71097 0.20047 0.0
H4545 H 0.63539 0.71535 0.22959 0.0
H4546 H 0.61953 0.72433 0.24319 0.0
H4547 H 0.59188 0.73935 0.2059 0.0
H4548 H 0.57662 0.73302 0.20277 0.0
H4549 H 0.59001 0.72651 0.19542 0.0
H4550 H 0.58413 0.70485 0.20417 0.0
H4551 H 0.57068 0.71129 0.21152 0.0
H4552 H 0.5819 0.70289 0.22062 0.0
H4553 H 0.60092 0.73364 0.25336 0.0
H4554 H 0.58073 0.74204 0.25963 0.0
H4555 H 0.56489 0.73129 0.22411 0.0
C4556 C 0.61045 0.71382 0.20971 0.0
C4557 C 0.62282 0.71239 0.21396 0.0
C4558 C 0.62595 0.71615 0.22616 0.0
C4559 C 0.61702 0.72135 0.23394 0.0
C4560 C 0.60495 0.7227 0.22943 0.0
C4561 C 0.60163 0.71899 0.21763 0.0
C4562 C 0.58801 0.72154 0.21504 0.0
C4563 C 0.58655 0.73065 0.20414 0.0
C4564 C 0.58075 0.70942 0.2127 0.0
C4565 C 0.58425 0.72739 0.22719 0.0
C4566 C 0.59417 0.72795 0.23535 0.0
C4567 C 0.59305 0.73313 0.24708 0.0
C4568 C 0.58149 0.73781 0.25059 0.0
C4569 C 0.57111 0.73726 0.24244 0.0
C4570 C 0.57261 0.73197 0.23056 0.0
H4571 H 0.30982 0.61781 0.21134 0.0
H4572 H 0.34089 0.62082 0.23704 0.0
H4573 H 0.33317 0.60244 0.24834 0.0
H4574 H 0.28694 0.60818 0.23421 0.0
H4575 H 0.27902 0.59761 0.2239 0.0
H4576 H 0.28694 0.61106 0.21773 0.0
H4577 H 0.29984 0.59703 0.20341 0.0
H4578 H 0.29199 0.58354 0.20956 0.0
H4579 H 0.30871 0.58459 0.21009 0.0
H4580 H 0.3224 0.58371 0.25679 0.0
H4581 H 0.30912 0.56571 0.26196 0.0
H4582 H 0.28451 0.57487 0.2313 0.0
C4583 C 0.31495 0.61466 0.2194 0.0
C4584 C 0.32605 0.62073 0.22321 0.0
C4585 C 0.33251 0.61622 0.23376 0.0
C4586 C 0.32816 0.60582 0.24031 0.0
C4587 C 0.31727 0.6 0.23626 0.0
C4588 C 0.31072 0.60424 0.22608 0.0
C4589 C 0.2993 0.59618 0.22369 0.0
C4590 C 0.28734 0.60371 0.22496 0.0
C4591 C 0.30001 0.58997 0.21093 0.0
C4592 C 0.30052 0.58675 0.23411 0.0
C4593 C 0.31095 0.58918 0.24124 0.0
C4594 C 0.31415 0.58176 0.25133 0.0
C4595 C 0.30648 0.57159 0.25425 0.0
C4596 C 0.29567 0.56889 0.24713 0.0
C4597 C 0.29272 0.57661 0.2369 0.0
H4598 H 0.41033 0.31981 0.21663 0.0
H4599 H 0.40356 0.29176 0.18866 0.0
H4600 H 0.42215 0.28059 0.19567 0.0
H4601 H 0.4442 0.31982 0.21449 0.0
H4602 H 0.44658 0.3218 0.23091 0.0
H4603 H 0.43287 0.32789 0.22355 0.0
H4604 H 0.41902 0.31558 0.23896 0.0
H4605 H 0.43268 0.30944 0.24636 0.0
H4606 H 0.42086 0.29907 0.24043 0.0
H4607 H 0.44111 0.2722 0.20571 0.0
H4608 H 0.45942 0.26694 0.21836 0.0
H4609 H 0.45423 0.3001 0.24023 0.0
C4610 C 0.41284 0.31138 0.21192 0.0
C4611 C 0.40539 0.30661 0.20214 0.0
C4612 C 0.40896 0.29549 0.19629 0.0
C4613 C 0.41956 0.28911 0.20015 0.0
C4614 C 0.42659 0.29395 0.20989 0.0
C4615 C 0.42343 0.30482 0.21571 0.0
C4616 C 0.43253 0.30777 0.22614 0.0
C4617 C 0.43945 0.32005 0.22362 0.0
C4618 C 0.42587 0.30797 0.23872 0.0
C4619 C 0.44122 0.29682 0.22527 0.0
C4620 C 0.43761 0.28901 0.21579 0.0
C4621 C 0.44402 0.27822 0.21319 0.0
C4622 C 0.45438 0.27527 0.2205 0.0
C4623 C 0.45826 0.28302 0.23039 0.0
C4624 C 0.45159 0.29401 0.2327 0.0
H4625 H 0.69911 0.4187 0.21283 0.0
H4626 H 0.72548 0.39041 0.22349 0.0
H4627 H 0.73918 0.40642 0.23263 0.0
H4628 H 0.72204 0.44245 0.20483 0.0
H4629 H 0.71298 0.45492 0.21093 0.0
H4630 H 0.70531 0.44128 0.20494 0.0
H4631 H 0.69387 0.43827 0.22583 0.0
H4632 H 0.70153 0.45188 0.2319 0.0
H4633 H 0.70277 0.4373 0.24 0.0
H4634 H 0.74992 0.42531 0.24086 0.0
H4635 H 0.75703 0.44593 0.24778 0.0
H4636 H 0.72389 0.46226 0.2318 0.0
C4637 C 0.70783 0.4159 0.21697 0.0
C4638 C 0.71119 0.40327 0.21747 0.0
C4639 C 0.72262 0.39999 0.22313 0.0
C4640 C 0.7305 0.40903 0.22829 0.0
C4641 C 0.72686 0.42135 0.22776 0.0
C4642 C 0.71581 0.42482 0.22225 0.0
C4643 C 0.71404 0.43872 0.22315 0.0
C4644 C 0.71357 0.44469 0.21019 0.0
C4645 C 0.70236 0.44171 0.23067 0.0
C4646 C 0.7258 0.44248 0.23007 0.0
C4647 C 0.73307 0.4323 0.23258 0.0
C4648 C 0.74435 0.43336 0.23889 0.0
C4649 C 0.74833 0.44514 0.24273 0.0
C4650 C 0.74108 0.45576 0.24027 0.0
C4651 C 0.72962 0.45434 0.23389 0.0
H4652 H 0.61573 0.30126 0.82395 0.0
H4653 H 0.62874 0.32883 0.79741 0.0
H4654 H 0.61081 0.32401 0.78387 0.0
H4655 H 0.60529 0.2789 0.80124 0.0
H4656 H 0.59201 0.27398 0.8102 0.0
H4657 H 0.60578 0.27973 0.81792 0.0
H4658 H 0.59265 0.29616 0.82915 0.0
H4659 H 0.57885 0.29047 0.82146 0.0
H4660 H 0.58321 0.30659 0.82015 0.0
H4661 H 0.59132 0.31634 0.77326 0.0
H4662 H 0.57196 0.30601 0.76618 0.0
H4663 H 0.57201 0.28302 0.79929 0.0
C4664 C 0.61492 0.30621 0.81523 0.0
C4665 C 0.62368 0.31549 0.81181 0.0
C4666 C 0.62208 0.32184 0.80038 0.0
C4667 C 0.61196 0.31911 0.79257 0.0
C4668 C 0.60352 0.30995 0.79625 0.0
C4669 C 0.60491 0.30356 0.80729 0.0
C4670 C 0.59454 0.2941 0.80905 0.0
C4671 C 0.59972 0.28089 0.80963 0.0
C4672 C 0.58686 0.29701 0.82064 0.0
C4673 C 0.58709 0.29618 0.79729 0.0
C4674 C 0.5924 0.3054 0.79005 0.0
C4675 C 0.58709 0.3091 0.77885 0.0
C4676 C 0.57606 0.30322 0.77493 0.0
C4677 C 0.57048 0.2937 0.78217 0.0
C4678 C 0.57613 0.29016 0.79348 0.0
H4679 H 0.71168 0.60682 0.82447 0.0
H4680 H 0.71856 0.63532 0.79674 0.0
H4681 H 0.72784 0.61977 0.78304 0.0
H4682 H 0.73989 0.59044 0.82008 0.0
H4683 H 0.73296 0.57531 0.82225 0.0
H4684 H 0.72634 0.58855 0.8297 0.0
H4685 H 0.70502 0.58364 0.81947 0.0
H4686 H 0.71157 0.57035 0.81202 0.0
H4687 H 0.70401 0.58209 0.80286 0.0
H4688 H 0.73736 0.60136 0.77276 0.0
H4689 H 0.7458 0.5813 0.76634 0.0
H4690 H 0.73232 0.56453 0.80049 0.0
C4691 C 0.71512 0.60979 0.81551 0.0
C4692 C 0.71433 0.62232 0.81168 0.0
C4693 C 0.71887 0.62578 0.79983 0.0
C4694 C 0.72424 0.61702 0.792 0.0
C4695 C 0.72497 0.60479 0.7961 0.0
C4696 C 0.72047 0.60115 0.80755 0.0
C4697 C 0.72251 0.58744 0.80976 0.0
C4698 C 0.73093 0.58531 0.82112 0.0
C4699 C 0.71004 0.58047 0.8111 0.0
C4700 C 0.72901 0.58398 0.79785 0.0
C4701 C 0.73032 0.59413 0.7901 0.0
C4702 C 0.73626 0.59332 0.7787 0.0
C4703 C 0.74096 0.58183 0.77509 0.0
C4704 C 0.73967 0.57122 0.78283 0.0
C4705 C 0.73358 0.57241 0.79437 0.0
H4706 H 0.40188 0.71985 0.80531 0.0
H4707 H 0.41858 0.69432 0.83157 0.0
H4708 H 0.43932 0.70285 0.82661 0.0
H4709 H 0.42526 0.71801 0.78254 0.0
H4710 H 0.4249 0.73413 0.77817 0.0
H4711 H 0.41118 0.7267 0.78435 0.0
H4712 H 0.41005 0.74331 0.80152 0.0
H4713 H 0.42374 0.75083 0.79535 0.0
H4714 H 0.42336 0.74605 0.81138 0.0
H4715 H 0.45827 0.71296 0.81794 0.0
H4716 H 0.47441 0.72447 0.80631 0.0
H4717 H 0.4458 0.74393 0.78581 0.0
C4718 C 0.40989 0.71623 0.81018 0.0
C4719 C 0.4086 0.70637 0.81881 0.0
C4720 C 0.41933 0.70175 0.82483 0.0
C4721 C 0.43116 0.70659 0.82212 0.0
C4722 C 0.43214 0.71611 0.81342 0.0
C4723 C 0.42182 0.72096 0.80758 0.0
C4724 C 0.42558 0.73086 0.79822 0.0
C4725 C 0.42149 0.7272 0.78504 0.0
C4726 C 0.42037 0.74351 0.80184 0.0
C4727 C 0.43963 0.73065 0.79959 0.0
C4728 C 0.44317 0.72209 0.80846 0.0
C4729 C 0.45562 0.71976 0.81105 0.0
C4730 C 0.46471 0.7263 0.80435 0.0
C4731 C 0.46135 0.73508 0.79517 0.0
C4732 C 0.44863 0.73738 0.79288 0.0
H4733 H 0.32578 0.41195 0.80162 0.0
H4734 H 0.29938 0.40033 0.82984 0.0
H4735 H 0.28634 0.41829 0.82475 0.0
H4736 H 0.32307 0.44476 0.80609 0.0
H4737 H 0.32414 0.44847 0.78982 0.0
H4738 H 0.33161 0.43487 0.79587 0.0
H4739 H 0.31965 0.42127 0.77999 0.0
H4740 H 0.31217 0.43483 0.77386 0.0
H4741 H 0.30292 0.42191 0.77931 0.0
H4742 H 0.27603 0.43747 0.81651 0.0
H4743 H 0.26913 0.45631 0.80561 0.0
H4744 H 0.30171 0.45495 0.78206 0.0
C4745 C 0.31721 0.41309 0.80669 0.0
C4746 C 0.31368 0.40468 0.81621 0.0
C4747 C 0.30245 0.40671 0.82268 0.0
C4748 C 0.29491 0.41686 0.8198 0.0
C4749 C 0.29868 0.42492 0.81038 0.0
C4750 C 0.30954 0.42315 0.8039 0.0
C4751 C 0.31138 0.43311 0.79408 0.0
C4752 C 0.32326 0.44075 0.79662 0.0
C4753 C 0.31154 0.42744 0.78104 0.0
C4754 C 0.29982 0.44075 0.79604 0.0
C4755 C 0.29264 0.43588 0.8055 0.0
C4756 C 0.28155 0.44132 0.80903 0.0
C4757 C 0.27766 0.452 0.80271 0.0
C4758 C 0.2848 0.45714 0.79288 0.0
C4759 C 0.29606 0.45138 0.78958 0.0
H4760 H 0.70174 0.61502 0.22813 0.0
H4761 H 0.72234 0.62026 0.19394 0.0
H4762 H 0.73534 0.60235 0.19929 0.0
H4763 H 0.72737 0.60571 0.24715 0.0
H4764 H 0.71855 0.59427 0.2557 0.0
H4765 H 0.7109 0.6076 0.24927 0.0
H4766 H 0.69546 0.59324 0.23751 0.0
H4767 H 0.70306 0.57987 0.24392 0.0
H4768 H 0.70138 0.58152 0.22736 0.0
H4769 H 0.74619 0.5839 0.20834 0.0
H4770 H 0.75391 0.56602 0.22031 0.0
H4771 H 0.72602 0.57237 0.24842 0.0
C4772 C 0.70889 0.61235 0.22168 0.0
C4773 C 0.71101 0.61917 0.21061 0.0
C4774 C 0.72063 0.6154 0.20257 0.0
C4775 C 0.72803 0.60516 0.20549 0.0
C4776 C 0.72569 0.5987 0.21646 0.0
C4777 C 0.71633 0.60211 0.22442 0.0
C4778 C 0.71573 0.59355 0.2356 0.0
C4779 C 0.71829 0.60071 0.24764 0.0
C4780 C 0.70316 0.58663 0.23613 0.0
C4781 C 0.72623 0.5848 0.2327 0.0
C4782 C 0.73187 0.58796 0.22162 0.0
C4783 C 0.74186 0.58135 0.21704 0.0
C4784 C 0.74623 0.57124 0.22395 0.0
C4785 C 0.74062 0.56779 0.23534 0.0
C4786 C 0.73045 0.57469 0.23971 0.0
H4787 H 0.71717 0.40345 0.80205 0.0
H4788 H 0.70129 0.41754 0.836 0.0
H4789 H 0.71051 0.43812 0.83159 0.0
H4790 H 0.74609 0.42115 0.80368 0.0
H4791 H 0.74676 0.42377 0.78718 0.0
H4792 H 0.73925 0.41002 0.79321 0.0
H4793 H 0.71912 0.41557 0.78122 0.0
H4794 H 0.72656 0.42935 0.7752 0.0
H4795 H 0.71216 0.43047 0.78357 0.0
H4796 H 0.7205 0.45738 0.82301 0.0
H4797 H 0.73126 0.47389 0.81129 0.0
H4798 H 0.7413 0.44724 0.78314 0.0
C4799 C 0.71564 0.41086 0.80856 0.0
C4800 C 0.70853 0.40886 0.81941 0.0
C4801 C 0.70684 0.41879 0.82773 0.0
C4802 C 0.71198 0.43054 0.82527 0.0
C4803 C 0.71885 0.43221 0.81446 0.0
C4804 C 0.72077 0.42264 0.80627 0.0
C4805 C 0.72847 0.42696 0.79529 0.0
C4806 C 0.74088 0.42006 0.79482 0.0
C4807 C 0.72114 0.4255 0.7831 0.0
C4808 C 0.73044 0.44048 0.79852 0.0
C4809 C 0.72481 0.44331 0.80961 0.0
C4810 C 0.72508 0.45525 0.81438 0.0
C4811 C 0.73131 0.46456 0.80768 0.0
C4812 C 0.73729 0.46191 0.79632 0.0
C4813 C 0.7368 0.44965 0.79173 0.0
H4814 H 0.61422 0.69954 0.80169 0.0
H4815 H 0.62653 0.72584 0.8296 0.0
H4816 H 0.60865 0.73906 0.82461 0.0
H4817 H 0.60434 0.72227 0.77931 0.0
H4818 H 0.59116 0.71323 0.77407 0.0
H4819 H 0.60471 0.7056 0.78012 0.0
H4820 H 0.59102 0.69403 0.79624 0.0
H4821 H 0.57743 0.70165 0.79027 0.0
H4822 H 0.58133 0.70278 0.80649 0.0
H4823 H 0.58954 0.74959 0.81646 0.0
H4824 H 0.5707 0.75675 0.80564 0.0
H4825 H 0.57122 0.7241 0.78236 0.0
C4826 C 0.61324 0.70811 0.80671 0.0
C4827 C 0.62183 0.71157 0.81611 0.0
C4828 C 0.62001 0.72283 0.82253 0.0
C4829 C 0.60991 0.73046 0.8197 0.0
C4830 C 0.60167 0.72677 0.81039 0.0
C4831 C 0.60322 0.71588 0.80397 0.0
C4832 C 0.5931 0.71415 0.79427 0.0
C4833 C 0.59866 0.71379 0.78117 0.0
C4834 C 0.58526 0.70246 0.79699 0.0
C4835 C 0.58564 0.7258 0.79621 0.0
C4836 C 0.59074 0.73293 0.80558 0.0
C4837 C 0.58551 0.74411 0.80906 0.0
C4838 C 0.57484 0.74815 0.80279 0.0
C4839 C 0.56947 0.74107 0.79305 0.0
C4840 C 0.57499 0.7297 0.78981 0.0
H4841 H 0.29888 0.61586 0.82486 0.0
H4842 H 0.3272 0.62753 0.79858 0.0
H4843 H 0.32255 0.60915 0.78585 0.0
H4844 H 0.3041 0.58328 0.82295 0.0
H4845 H 0.28788 0.57906 0.82394 0.0
H4846 H 0.29348 0.5931 0.83109 0.0
H4847 H 0.27732 0.60575 0.81862 0.0
H4848 H 0.27165 0.59175 0.81145 0.0
H4849 H 0.27687 0.60456 0.80196 0.0
H4850 H 0.31498 0.5894 0.77603 0.0
H4851 H 0.3047 0.5699 0.76958 0.0
H4852 H 0.28087 0.57131 0.80187 0.0
C4853 C 0.30403 0.61465 0.81637 0.0
C4854 C 0.31348 0.62318 0.8128 0.0
C4855 C 0.32009 0.62107 0.80168 0.0
C4856 C 0.31745 0.61069 0.79432 0.0
C4857 C 0.30812 0.60248 0.79814 0.0
C4858 C 0.30147 0.60437 0.80887 0.0
C4859 C 0.29188 0.59414 0.81085 0.0
C4860 C 0.2945 0.58698 0.82293 0.0
C4861 C 0.27865 0.59937 0.81071 0.0
C4862 C 0.2942 0.58621 0.79957 0.0
C4863 C 0.30363 0.59118 0.79238 0.0
C4864 C 0.30757 0.58543 0.78158 0.0
C4865 C 0.30172 0.57432 0.77803 0.0
C4866 C 0.292 0.56905 0.78522 0.0
C4867 C 0.28819 0.57515 0.79611 0.0
H4868 H 0.40284 0.29946 0.80982 0.0
H4869 H 0.41655 0.33498 0.82308 0.0
H4870 H 0.43703 0.33084 0.81393 0.0
H4871 H 0.43073 0.28255 0.81565 0.0
H4872 H 0.4294 0.2732 0.80192 0.0
H4873 H 0.41563 0.27907 0.80915 0.0
H4874 H 0.40907 0.28938 0.78843 0.0
H4875 H 0.4228 0.2835 0.78113 0.0
H4876 H 0.4197 0.29986 0.78073 0.0
H4877 H 0.45624 0.32255 0.80417 0.0
H4878 H 0.47278 0.31104 0.7938 0.0
H4879 H 0.4467 0.28096 0.78631 0.0
C4880 C 0.41015 0.30637 0.8108 0.0
C4881 C 0.40803 0.31759 0.81714 0.0
C4882 C 0.41785 0.32641 0.81812 0.0
C4883 C 0.42955 0.3241 0.81301 0.0
C4884 C 0.43134 0.31294 0.80691 0.0
C4885 C 0.42191 0.30423 0.80571 0.0
C4886 C 0.42634 0.29297 0.79871 0.0
C4887 C 0.42547 0.28125 0.80685 0.0
C4888 C 0.41904 0.29134 0.78653 0.0
C4889 C 0.43976 0.29666 0.79629 0.0
C4890 C 0.44243 0.30822 0.8011 0.0
C4891 C 0.45423 0.31355 0.80024 0.0
C4892 C 0.46356 0.30695 0.79423 0.0
C4893 C 0.46108 0.29511 0.78906 0.0
C4894 C 0.44897 0.28993 0.79018 0.0
H4895 H 0.30894 0.41076 0.20725 0.0
H4896 H 0.34053 0.40833 0.23228 0.0
H4897 H 0.33409 0.4275 0.24253 0.0
H4898 H 0.30934 0.44464 0.20424 0.0
H4899 H 0.29264 0.44581 0.20404 0.0
H4900 H 0.29995 0.43211 0.19818 0.0
H4901 H 0.28689 0.41855 0.21324 0.0
H4902 H 0.27956 0.43219 0.21914 0.0
H4903 H 0.28739 0.42177 0.22961 0.0
H4904 H 0.32408 0.44633 0.25064 0.0
H4905 H 0.31094 0.46393 0.25623 0.0
H4906 H 0.28553 0.4547 0.22621 0.0
C4907 C 0.31456 0.41436 0.21479 0.0
C4908 C 0.32521 0.40797 0.21901 0.0
C4909 C 0.33225 0.41293 0.229 0.0
C4910 C 0.32871 0.42387 0.23484 0.0
C4911 C 0.3181 0.42984 0.2306 0.0
C4912 C 0.31111 0.42532 0.22081 0.0
C4913 C 0.29988 0.43344 0.21843 0.0
C4914 C 0.30049 0.43935 0.20545 0.0
C4915 C 0.28771 0.42604 0.22021 0.0
C4916 C 0.30163 0.44311 0.22849 0.0
C4917 C 0.31225 0.44084 0.23535 0.0
C4918 C 0.31575 0.44823 0.24533 0.0
C4919 C 0.30817 0.45817 0.24848 0.0
C4920 C 0.29715 0.46068 0.24172 0.0
C4921 C 0.29394 0.45309 0.23149 0.0
H4922 H 0.61485 0.32093 0.21427 0.0
H4923 H 0.6185 0.29454 0.18433 0.0
H4924 H 0.60057 0.28268 0.19238 0.0
H4925 H 0.60632 0.29852 0.23792 0.0
H4926 H 0.59534 0.30851 0.24533 0.0
H4927 H 0.60847 0.31509 0.23723 0.0
H4928 H 0.59362 0.32823 0.22369 0.0
H4929 H 0.58045 0.32168 0.23174 0.0
H4930 H 0.58132 0.32065 0.2151 0.0
H4931 H 0.58247 0.2735 0.20358 0.0
H4932 H 0.56495 0.26772 0.21714 0.0
H4933 H 0.57279 0.29977 0.24013 0.0
C4934 C 0.6119 0.31263 0.20945 0.0
C4935 C 0.61805 0.30875 0.19858 0.0
C4936 C 0.61383 0.29786 0.19252 0.0
C4937 C 0.60369 0.29099 0.19707 0.0
C4938 C 0.59782 0.29509 0.20773 0.0
C4939 C 0.60172 0.30565 0.21386 0.0
C4940 C 0.59366 0.30799 0.2251 0.0
C4941 C 0.60141 0.30749 0.23711 0.0
C4942 C 0.58686 0.32037 0.22383 0.0
C4943 C 0.58465 0.29709 0.22431 0.0
C4944 C 0.58727 0.28976 0.21422 0.0
C4945 C 0.58034 0.27914 0.21153 0.0
C4946 C 0.57044 0.27589 0.21934 0.0
C4947 C 0.56751 0.28323 0.22976 0.0
C4948 C 0.57473 0.29401 0.23221 0.0
H4949 H 0.40784 0.71101 0.21633 0.0
H4950 H 0.40244 0.73839 0.18724 0.0
H4951 H 0.42156 0.74928 0.19384 0.0
H4952 H 0.41993 0.73203 0.23936 0.0
H4953 H 0.43117 0.72131 0.24543 0.0
H4954 H 0.41697 0.71559 0.23852 0.0
H4955 H 0.42965 0.70234 0.22328 0.0
H4956 H 0.44389 0.708 0.23016 0.0
H4957 H 0.44132 0.70971 0.21373 0.0
H4958 H 0.44121 0.75725 0.20342 0.0
H4959 H 0.46019 0.76187 0.21549 0.0
H4960 H 0.45342 0.72917 0.23819 0.0
C4961 C 0.41072 0.71926 0.21131 0.0
C4962 C 0.40352 0.72389 0.20132 0.0
C4963 C 0.40761 0.73477 0.19507 0.0
C4964 C 0.41852 0.74099 0.19869 0.0
C4965 C 0.42534 0.73623 0.20859 0.0
C4966 C 0.42163 0.72562 0.21482 0.0
C4967 C 0.43071 0.72251 0.22517 0.0
C4968 C 0.42431 0.72289 0.23787 0.0
C4969 C 0.43675 0.70989 0.22295 0.0
C4970 C 0.44008 0.73304 0.22374 0.0
C4971 C 0.43678 0.74082 0.2141 0.0
C4972 C 0.44393 0.75119 0.21095 0.0
C4973 C 0.45475 0.75369 0.21783 0.0
C4974 C 0.45839 0.74586 0.22775 0.0
C4975 C 0.45088 0.7354 0.23073 0.0
loop_
_geom_bond_atom_site_label_1
_geom_bond_atom_site_label_2
_geom_bond_distance
_geom_bond_site_symmetry_2
_ccdc_geom_bond_type
C0 C1 1.264 . S
C0 C5 1.479 . S
C0 C10 1.465 . S
C1 C0 1.264 . S
C1 C3 1.339 . S
C1 H28 0.931 . S
C2 C3 1.395 . S
C2 C4 1.320 . S
C3 C1 1.339 . S
C3 C2 1.395 . S
C3 H29 0.929 . S
C4 C2 1.320 . S
C4 C5 1.405 . S
C4 H30 0.930 . S
C5 C0 1.479 . S
C5 C4 1.405 . S
C5 H31 0.931 . S
U6 O7 2.454 . S
U6 O8 2.458 . S
U6 C9 2.984 . S
U6 C10 2.847 . S
U6 C23 2.882 . S
U6 O24 2.441 . S
U6 O25 2.420 . S
U6 O26 2.455 . S
U6 O27 2.449 . S
O7 U6 2.454 . S
O7 C9 1.353 . S
O8 U6 2.458 . S
O8 C9 1.286 . S
C9 U6 2.984 . S
C9 O7 1.353 . S
C9 O8 1.286 . S
C9 C11 1.363 . S
C10 C0 1.465 . S
C10 U6 2.847 . S
C10 O24 1.249 . S
C10 O25 1.202 . S
C11 C9 1.363 . S
C11 C13 1.408 . S
C11 C16 1.342 . S
C12 C13 1.310 . S
C12 C15 1.461 . S
C12 H32 0.932 . S
C13 C11 1.408 . S
C13 C12 1.310 . S
C13 H33 0.930 . S
C14 C15 1.474 . S
C14 C16 1.285 . S
C14 H34 0.929 . S
C15 C12 1.461 . S
C15 C14 1.474 . S
C16 C11 1.342 . S
C16 C14 1.285 . S
C16 H35 0.930 . S
C17 C20 1.424 . S
C17 C22 1.245 . S
C17 C23 1.428 . S
C18 C21 1.260 . S
C18 C22 1.477 . S
C18 H36 0.932 . S
C19 C20 1.384 . S
C19 C21 1.479 . S
C19 H37 0.929 . S
C20 C17 1.424 . S
C20 C19 1.384 . S
C20 H38 0.928 . S
C21 C18 1.260 . S
C21 C19 1.479 . S
C22 C17 1.245 . S
C22 C18 1.477 . S
C22 H39 0.932 . S
C23 U6 2.882 . S
C23 C17 1.428 . S
C23 O26 1.301 . S
C23 O27 1.282 . S
O24 U6 2.441 . S
O24 C10 1.249 . S
O25 U6 2.420 . S
O25 C10 1.202 . S
O26 U6 2.455 . S
O26 C23 1.301 . S
O27 U6 2.449 . S
O27 C23 1.282 . S
H28 C1 0.931 . S
H29 C3 0.929 . S
H30 C4 0.930 . S
H31 C5 0.931 . S
H32 C12 0.932 . S
H33 C13 0.930 . S
H34 C14 0.929 . S
H35 C16 0.930 . S
H36 C18 0.932 . S
H37 C19 0.929 . S
H38 C20 0.928 . S
H39 C22 0.932 . S
C40 C41 1.264 . S
C40 C45 1.479 . S
C40 C50 1.465 . S
C41 C40 1.264 . S
C41 C43 1.339 . S
C41 H68 0.931 . S
C42 C43 1.395 . S
C42 C44 1.320 . S
C43 C41 1.339 . S
C43 C42 1.395 . S
C43 H69 0.929 . S
C44 C42 1.320 . S
C44 C45 1.405 . S
C44 H70 0.930 . S
C45 C40 1.479 . S
C45 C44 1.405 . S
C45 H71 0.931 . S
U46 O47 2.454 . S
U46 O48 2.458 . S
U46 C49 2.984 . S
U46 C50 2.847 . S
U46 C63 2.882 . S
U46 O64 2.441 . S
U46 O65 2.420 . S
U46 O66 2.455 . S
U46 O67 2.449 . S
O47 U46 2.454 . S
O47 C49 1.353 . S
O48 U46 2.458 . S
O48 C49 1.286 . S
C49 U46 2.984 . S
C49 O47 1.353 . S
C49 O48 1.286 . S
C49 C51 1.363 . S
C50 C40 1.465 . S
C50 U46 2.847 . S
C50 O64 1.249 . S
C50 O65 1.202 . S
C51 C49 1.363 . S
C51 C53 1.408 . S
C51 C56 1.342 . S
C52 C53 1.310 . S
C52 C55 1.461 . S
C52 H72 0.932 . S
C53 C51 1.408 . S
C53 C52 1.310 . S
C53 H73 0.930 . S
C54 C55 1.474 . S
C54 C56 1.285 . S
C54 H74 0.929 . S
C55 C52 1.461 . S
C55 C54 1.474 . S
C56 C51 1.342 . S
C56 C54 1.285 . S
C56 H75 0.930 . S
C57 C60 1.424 . S
C57 C62 1.245 . S
C57 C63 1.428 . S
C58 C61 1.260 . S
C58 C62 1.477 . S
C58 H76 0.932 . S
C59 C60 1.384 . S
C59 C61 1.479 . S
C59 H77 0.929 . S
C60 C57 1.424 . S
C60 C59 1.384 . S
C60 H78 0.928 . S
C61 C58 1.260 . S
C61 C59 1.479 . S
C62 C57 1.245 . S
C62 C58 1.477 . S
C62 H79 0.932 . S
C63 U46 2.882 . S
C63 C57 1.428 . S
C63 O66 1.301 . S
C63 O67 1.282 . S
O64 U46 2.441 . S
O64 C50 1.249 . S
O65 U46 2.420 . S
O65 C50 1.202 . S
O66 U46 2.455 . S
O66 C63 1.301 . S
O67 U46 2.449 . S
O67 C63 1.282 . S
H68 C41 0.931 . S
H69 C43 0.929 . S
H70 C44 0.930 . S
H71 C45 0.931 . S
H72 C52 0.932 . S
H73 C53 0.930 . S
H74 C54 0.929 . S
H75 C56 0.930 . S
H76 C58 0.932 . S
H77 C59 0.929 . S
H78 C60 0.928 . S
H79 C62 0.932 . S
C80 C81 1.264 . S
C80 C85 1.479 . S
C80 C90 1.465 . S
C81 C80 1.264 . S
C81 C83 1.339 . S
C81 H108 0.931 . S
C82 C83 1.395 . S
C82 C84 1.320 . S
C83 C81 1.339 . S
C83 C82 1.395 . S
C83 H109 0.929 . S
C84 C82 1.320 . S
C84 C85 1.405 . S
C84 H110 0.930 . S
C85 C80 1.479 . S
C85 C84 1.405 . S
C85 H111 0.931 . S
U86 O87 2.454 . S
U86 O88 2.458 . S
U86 C89 2.984 . S
U86 C90 2.847 . S
U86 C103 2.882 . S
U86 O104 2.441 . S
U86 O105 2.420 . S
U86 O106 2.455 . S
U86 O107 2.449 . S
O87 U86 2.454 . S
O87 C89 1.353 . S
O88 U86 2.458 . S
O88 C89 1.286 . S
C89 U86 2.984 . S
C89 O87 1.353 . S
C89 O88 1.286 . S
C89 C91 1.363 . S
C90 C80 1.465 . S
C90 U86 2.847 . S
C90 O104 1.249 . S
C90 O105 1.202 . S
C91 C89 1.363 . S
C91 C93 1.408 . S
C91 C96 1.342 . S
C92 C93 1.310 . S
C92 C95 1.461 . S
C92 H112 0.932 . S
C93 C91 1.408 . S
C93 C92 1.310 . S
C93 H113 0.930 . S
C94 C95 1.474 . S
C94 C96 1.285 . S
C94 H114 0.929 . S
C95 C92 1.461 . S
C95 C94 1.474 . S
C96 C91 1.342 . S
C96 C94 1.285 . S
C96 H115 0.930 . S
C97 C100 1.424 . S
C97 C102 1.245 . S
C97 C103 1.428 . S
C98 C101 1.260 . S
C98 C102 1.477 . S
C98 H116 0.932 . S
C99 C100 1.384 . S
C99 C101 1.479 . S
C99 H117 0.929 . S
C100 C97 1.424 . S
C100 C99 1.384 . S
C100 H118 0.928 . S
C101 C98 1.260 . S
C101 C99 1.479 . S
C102 C97 1.245 . S
C102 C98 1.477 . S
C102 H119 0.932 . S
C103 U86 2.882 . S
C103 C97 1.428 . S
C103 O106 1.301 . S
C103 O107 1.282 . S
O104 U86 2.441 . S
O104 C90 1.249 . S
O105 U86 2.420 . S
O105 C90 1.202 . S
O106 U86 2.455 . S
O106 C103 1.301 . S
O107 U86 2.449 . S
O107 C103 1.282 . S
H108 C81 0.931 . S
H109 C83 0.929 . S
H110 C84 0.930 . S
H111 C85 0.931 . S
H112 C92 0.932 . S
H113 C93 0.930 . S
H114 C94 0.929 . S
H115 C96 0.930 . S
H116 C98 0.932 . S
H117 C99 0.929 . S
H118 C100 0.928 . S
H119 C102 0.932 . S
C120 C121 1.264 . S
C120 C125 1.479 . S
C120 C130 1.465 . S
C121 C120 1.264 . S
C121 C123 1.339 . S
C121 H148 0.931 . S
C122 C123 1.395 . S
C122 C124 1.320 . S
C123 C121 1.339 . S
C123 C122 1.395 . S
C123 H149 0.929 . S
C124 C122 1.320 . S
C124 C125 1.405 . S
C124 H150 0.930 . S
C125 C120 1.479 . S
C125 C124 1.405 . S
C125 H151 0.931 . S
U126 O127 2.454 . S
U126 O128 2.458 . S
U126 C129 2.984 . S
U126 C130 2.847 . S
U126 C143 2.882 . S
U126 O144 2.441 . S
U126 O145 2.420 . S
U126 O146 2.455 . S
U126 O147 2.449 . S
O127 U126 2.454 . S
O127 C129 1.353 . S
O128 U126 2.458 . S
O128 C129 1.286 . S
C129 U126 2.984 . S
C129 O127 1.353 . S
C129 O128 1.286 . S
C129 C131 1.363 . S
C130 C120 1.465 . S
C130 U126 2.847 . S
C130 O144 1.249 . S
C130 O145 1.202 . S
C131 C129 1.363 . S
C131 C133 1.408 . S
C131 C136 1.342 . S
C132 C133 1.310 . S
C132 C135 1.461 . S
C132 H152 0.932 . S
C133 C131 1.408 . S
C133 C132 1.310 . S
C133 H153 0.930 . S
C134 C135 1.474 . S
C134 C136 1.285 . S
C134 H154 0.929 . S
C135 C132 1.461 . S
C135 C134 1.474 . S
C136 C131 1.342 . S
C136 C134 1.285 . S
C136 H155 0.930 . S
C137 C140 1.424 . S
C137 C142 1.245 . S
C137 C143 1.428 . S
C138 C141 1.260 . S
C138 C142 1.477 . S
C138 H156 0.932 . S
C139 C140 1.384 . S
C139 C141 1.479 . S
C139 H157 0.929 . S
C140 C137 1.424 . S
C140 C139 1.384 . S
C140 H158 0.928 . S
C141 C138 1.260 . S
C141 C139 1.479 . S
C142 C137 1.245 . S
C142 C138 1.477 . S
C142 H159 0.932 . S
C143 U126 2.882 . S
C143 C137 1.428 . S
C143 O146 1.301 . S
C143 O147 1.282 . S
O144 U126 2.441 . S
O144 C130 1.249 . S
O145 U126 2.420 . S
O145 C130 1.202 . S
O146 U126 2.455 . S
O146 C143 1.301 . S
O147 U126 2.449 . S
O147 C143 1.282 . S
H148 C121 0.931 . S
H149 C123 0.929 . S
H150 C124 0.930 . S
H151 C125 0.931 . S
H152 C132 0.932 . S
H153 C133 0.930 . S
H154 C134 0.929 . S
H155 C136 0.930 . S
H156 C138 0.932 . S
H157 C139 0.929 . S
H158 C140 0.928 . S
H159 C142 0.932 . S
C160 C161 1.264 . S
C160 C165 1.479 . S
C160 C170 1.465 . S
C161 C160 1.264 . S
C161 C163 1.339 . S
C161 H188 0.931 . S
C162 C163 1.395 . S
C162 C164 1.320 . S
C163 C161 1.339 . S
C163 C162 1.395 . S
C163 H189 0.929 . S
C164 C162 1.320 . S
C164 C165 1.405 . S
C164 H190 0.930 . S
C165 C160 1.479 . S
C165 C164 1.405 . S
C165 H191 0.931 . S
U166 O167 2.454 . S
U166 O168 2.458 . S
U166 C169 2.984 . S
U166 C170 2.847 . S
U166 C183 2.882 . S
U166 O184 2.441 . S
U166 O185 2.420 . S
U166 O186 2.455 . S
U166 O187 2.449 . S
O167 U166 2.454 . S
O167 C169 1.353 . S
O168 U166 2.458 . S
O168 C169 1.286 . S
C169 U166 2.984 . S
C169 O167 1.353 . S
C169 O168 1.286 . S
C169 C171 1.363 . S
C170 C160 1.465 . S
C170 U166 2.847 . S
C170 O184 1.249 . S
C170 O185 1.202 . S
C171 C169 1.363 . S
C171 C173 1.408 . S
C171 C176 1.342 . S
C172 C173 1.310 . S
C172 C175 1.461 . S
C172 H192 0.932 . S
C173 C171 1.408 . S
C173 C172 1.310 . S
C173 H193 0.930 . S
C174 C175 1.474 . S
C174 C176 1.285 . S
C174 H194 0.929 . S
C175 C172 1.461 . S
C175 C174 1.474 . S
C176 C171 1.342 . S
C176 C174 1.285 . S
C176 H195 0.930 . S
C177 C180 1.424 . S
C177 C182 1.245 . S
C177 C183 1.428 . S
C178 C181 1.260 . S
C178 C182 1.477 . S
C178 H196 0.932 . S
C179 C180 1.384 . S
C179 C181 1.479 . S
C179 H197 0.929 . S
C180 C177 1.424 . S
C180 C179 1.384 . S
C180 H198 0.928 . S
C181 C178 1.260 . S
C181 C179 1.479 . S
C182 C177 1.245 . S
C182 C178 1.477 . S
C182 H199 0.932 . S
C183 U166 2.882 . S
C183 C177 1.428 . S
C183 O186 1.301 . S
C183 O187 1.282 . S
O184 U166 2.441 . S
O184 C170 1.249 . S
O185 U166 2.420 . S
O185 C170 1.202 . S
O186 U166 2.455 . S
O186 C183 1.301 . S
O187 U166 2.449 . S
O187 C183 1.282 . S
H188 C161 0.931 . S
H189 C163 0.929 . S
H190 C164 0.930 . S
H191 C165 0.931 . S
H192 C172 0.932 . S
H193 C173 0.930 . S
H194 C174 0.929 . S
H195 C176 0.930 . S
H196 C178 0.932 . S
H197 C179 0.929 . S
H198 C180 0.928 . S
H199 C182 0.932 . S
C200 C201 1.264 . S
C200 C205 1.479 . S
C200 C210 1.465 . S
C201 C200 1.264 . S
C201 C203 1.339 . S
C201 H228 0.931 . S
C202 C203 1.395 . S
C202 C204 1.320 . S
C203 C201 1.339 . S
C203 C202 1.395 . S
C203 H229 0.929 . S
C204 C202 1.320 . S
C204 C205 1.405 . S
C204 H230 0.930 . S
C205 C200 1.479 . S
C205 C204 1.405 . S
C205 H231 0.931 . S
U206 O207 2.454 . S
U206 O208 2.458 . S
U206 C209 2.984 . S
U206 C210 2.847 . S
U206 C223 2.882 . S
U206 O224 2.441 . S
U206 O225 2.420 . S
U206 O226 2.455 . S
U206 O227 2.449 . S
O207 U206 2.454 . S
O207 C209 1.353 . S
O208 U206 2.458 . S
O208 C209 1.286 . S
C209 U206 2.984 . S
C209 O207 1.353 . S
C209 O208 1.286 . S
C209 C211 1.363 . S
C210 C200 1.465 . S
C210 U206 2.847 . S
C210 O224 1.249 . S
C210 O225 1.202 . S
C211 C209 1.363 . S
C211 C213 1.408 . S
C211 C216 1.342 . S
C212 C213 1.310 . S
C212 C215 1.461 . S
C212 H232 0.932 . S
C213 C211 1.408 . S
C213 C212 1.310 . S
C213 H233 0.930 . S
C214 C215 1.474 . S
C214 C216 1.285 . S
C214 H234 0.929 . S
C215 C212 1.461 . S
C215 C214 1.474 . S
C216 C211 1.342 . S
C216 C214 1.285 . S
C216 H235 0.930 . S
C217 C220 1.424 . S
C217 C222 1.245 . S
C217 C223 1.428 . S
C218 C221 1.260 . S
C218 C222 1.477 . S
C218 H236 0.932 . S
C219 C220 1.384 . S
C219 C221 1.479 . S
C219 H237 0.929 . S
C220 C217 1.424 . S
C220 C219 1.384 . S
C220 H238 0.928 . S
C221 C218 1.260 . S
C221 C219 1.479 . S
C222 C217 1.245 . S
C222 C218 1.477 . S
C222 H239 0.932 . S
C223 U206 2.882 . S
C223 C217 1.428 . S
C223 O226 1.301 . S
C223 O227 1.282 . S
O224 U206 2.441 . S
O224 C210 1.249 . S
O225 U206 2.420 . S
O225 C210 1.202 . S
O226 U206 2.455 . S
O226 C223 1.301 . S
O227 U206 2.449 . S
O227 C223 1.282 . S
H228 C201 0.931 . S
H229 C203 0.929 . S
H230 C204 0.930 . S
H231 C205 0.931 . S
H232 C212 0.932 . S
H233 C213 0.930 . S
H234 C214 0.929 . S
H235 C216 0.930 . S
H236 C218 0.932 . S
H237 C219 0.929 . S
H238 C220 0.928 . S
H239 C222 0.932 . S
C240 C241 1.264 . S
C240 C245 1.479 . S
C240 C250 1.465 . S
C241 C240 1.264 . S
C241 C243 1.339 . S
C241 H268 0.931 . S
C242 C243 1.395 . S
C242 C244 1.320 . S
C243 C241 1.339 . S
C243 C242 1.395 . S
C243 H269 0.929 . S
C244 C242 1.320 . S
C244 C245 1.405 . S
C244 H270 0.930 . S
C245 C240 1.479 . S
C245 C244 1.405 . S
C245 H271 0.931 . S
U246 O247 2.454 . S
U246 O248 2.458 . S
U246 C249 2.984 . S
U246 C250 2.847 . S
U246 C263 2.882 . S
U246 O264 2.441 . S
U246 O265 2.420 . S
U246 O266 2.455 . S
U246 O267 2.449 . S
O247 U246 2.454 . S
O247 C249 1.353 . S
O248 U246 2.458 . S
O248 C249 1.286 . S
C249 U246 2.984 . S
C249 O247 1.353 . S
C249 O248 1.286 . S
C249 C251 1.363 . S
C250 C240 1.465 . S
C250 U246 2.847 . S
C250 O264 1.249 . S
C250 O265 1.202 . S
C251 C249 1.363 . S
C251 C253 1.408 . S
C251 C256 1.342 . S
C252 C253 1.310 . S
C252 C255 1.461 . S
C252 H272 0.932 . S
C253 C251 1.408 . S
C253 C252 1.310 . S
C253 H273 0.930 . S
C254 C255 1.474 . S
C254 C256 1.285 . S
C254 H274 0.929 . S
C255 C252 1.461 . S
C255 C254 1.474 . S
C256 C251 1.342 . S
C256 C254 1.285 . S
C256 H275 0.930 . S
C257 C260 1.424 . S
C257 C262 1.245 . S
C257 C263 1.428 . S
C258 C261 1.260 . S
C258 C262 1.477 . S
C258 H276 0.932 . S
C259 C260 1.384 . S
C259 C261 1.479 . S
C259 H277 0.929 . S
C260 C257 1.424 . S
C260 C259 1.384 . S
C260 H278 0.928 . S
C261 C258 1.260 . S
C261 C259 1.479 . S
C262 C257 1.245 . S
C262 C258 1.477 . S
C262 H279 0.932 . S
C263 U246 2.882 . S
C263 C257 1.428 . S
C263 O266 1.301 . S
C263 O267 1.282 . S
O264 U246 2.441 . S
O264 C250 1.249 . S
O265 U246 2.420 . S
O265 C250 1.202 . S
O266 U246 2.455 . S
O266 C263 1.301 . S
O267 U246 2.449 . S
O267 C263 1.282 . S
H268 C241 0.931 . S
H269 C243 0.929 . S
H270 C244 0.930 . S
H271 C245 0.931 . S
H272 C252 0.932 . S
H273 C253 0.930 . S
H274 C254 0.929 . S
H275 C256 0.930 . S
H276 C258 0.932 . S
H277 C259 0.929 . S
H278 C260 0.928 . S
H279 C262 0.932 . S
C280 C281 1.264 . S
C280 C285 1.479 . S
C280 C290 1.465 . S
C281 C280 1.264 . S
C281 C283 1.339 . S
C281 H308 0.931 . S
C282 C283 1.395 . S
C282 C284 1.320 . S
C283 C281 1.339 . S
C283 C282 1.395 . S
C283 H309 0.929 . S
C284 C282 1.320 . S
C284 C285 1.405 . S
C284 H310 0.930 . S
C285 C280 1.479 . S
C285 C284 1.405 . S
C285 H311 0.931 . S
U286 O287 2.454 . S
U286 O288 2.458 . S
U286 C289 2.984 . S
U286 C290 2.847 . S
U286 C303 2.882 . S
U286 O304 2.441 . S
U286 O305 2.420 . S
U286 O306 2.455 . S
U286 O307 2.449 . S
O287 U286 2.454 . S
O287 C289 1.353 . S
O288 U286 2.458 . S
O288 C289 1.286 . S
C289 U286 2.984 . S
C289 O287 1.353 . S
C289 O288 1.286 . S
C289 C291 1.363 . S
C290 C280 1.465 . S
C290 U286 2.847 . S
C290 O304 1.249 . S
C290 O305 1.202 . S
C291 C289 1.363 . S
C291 C293 1.408 . S
C291 C296 1.342 . S
C292 C293 1.310 . S
C292 C295 1.461 . S
C292 H312 0.932 . S
C293 C291 1.408 . S
C293 C292 1.310 . S
C293 H313 0.930 . S
C294 C295 1.474 . S
C294 C296 1.285 . S
C294 H314 0.929 . S
C295 C292 1.461 . S
C295 C294 1.474 . S
C296 C291 1.342 . S
C296 C294 1.285 . S
C296 H315 0.930 . S
C297 C300 1.424 . S
C297 C302 1.245 . S
C297 C303 1.428 . S
C298 C301 1.260 . S
C298 C302 1.477 . S
C298 H316 0.932 . S
C299 C300 1.384 . S
C299 C301 1.479 . S
C299 H317 0.929 . S
C300 C297 1.424 . S
C300 C299 1.384 . S
C300 H318 0.928 . S
C301 C298 1.260 . S
C301 C299 1.479 . S
C302 C297 1.245 . S
C302 C298 1.477 . S
C302 H319 0.932 . S
C303 U286 2.882 . S
C303 C297 1.428 . S
C303 O306 1.301 . S
C303 O307 1.282 . S
O304 U286 2.441 . S
O304 C290 1.249 . S
O305 U286 2.420 . S
O305 C290 1.202 . S
O306 U286 2.455 . S
O306 C303 1.301 . S
O307 U286 2.449 . S
O307 C303 1.282 . S
H308 C281 0.931 . S
H309 C283 0.929 . S
H310 C284 0.930 . S
H311 C285 0.931 . S
H312 C292 0.932 . S
H313 C293 0.930 . S
H314 C294 0.929 . S
H315 C296 0.930 . S
H316 C298 0.932 . S
H317 C299 0.929 . S
H318 C300 0.928 . S
H319 C302 0.932 . S
C320 C321 1.264 . S
C320 C325 1.479 . S
C320 C330 1.465 . S
C321 C320 1.264 . S
C321 C323 1.339 . S
C321 H348 0.931 . S
C322 C323 1.395 . S
C322 C324 1.320 . S
C323 C321 1.339 . S
C323 C322 1.395 . S
C323 H349 0.929 . S
C324 C322 1.320 . S
C324 C325 1.405 . S
C324 H350 0.930 . S
C325 C320 1.479 . S
C325 C324 1.405 . S
C325 H351 0.931 . S
U326 O327 2.454 . S
U326 O328 2.458 . S
U326 C329 2.984 . S
U326 C330 2.847 . S
U326 C343 2.882 . S
U326 O344 2.441 . S
U326 O345 2.420 . S
U326 O346 2.455 . S
U326 O347 2.449 . S
O327 U326 2.454 . S
O327 C329 1.353 . S
O328 U326 2.458 . S
O328 C329 1.286 . S
C329 U326 2.984 . S
C329 O327 1.353 . S
C329 O328 1.286 . S
C329 C331 1.363 . S
C330 C320 1.465 . S
C330 U326 2.847 . S
C330 O344 1.249 . S
C330 O345 1.202 . S
C331 C329 1.363 . S
C331 C333 1.408 . S
C331 C336 1.342 . S
C332 C333 1.310 . S
C332 C335 1.461 . S
C332 H352 0.932 . S
C333 C331 1.408 . S
C333 C332 1.310 . S
C333 H353 0.930 . S
C334 C335 1.474 . S
C334 C336 1.285 . S
C334 H354 0.929 . S
C335 C332 1.461 . S
C335 C334 1.474 . S
C336 C331 1.342 . S
C336 C334 1.285 . S
C336 H355 0.930 . S
C337 C340 1.424 . S
C337 C342 1.245 . S
C337 C343 1.428 . S
C338 C341 1.260 . S
C338 C342 1.477 . S
C338 H356 0.932 . S
C339 C340 1.384 . S
C339 C341 1.479 . S
C339 H357 0.929 . S
C340 C337 1.424 . S
C340 C339 1.384 . S
C340 H358 0.928 . S
C341 C338 1.260 . S
C341 C339 1.479 . S
C342 C337 1.245 . S
C342 C338 1.477 . S
C342 H359 0.932 . S
C343 U326 2.882 . S
C343 C337 1.428 . S
C343 O346 1.301 . S
C343 O347 1.282 . S
O344 U326 2.441 . S
O344 C330 1.249 . S
O345 U326 2.420 . S
O345 C330 1.202 . S
O346 U326 2.455 . S
O346 C343 1.301 . S
O347 U326 2.449 . S
O347 C343 1.282 . S
H348 C321 0.931 . S
H349 C323 0.929 . S
H350 C324 0.930 . S
H351 C325 0.931 . S
H352 C332 0.932 . S
H353 C333 0.930 . S
H354 C334 0.929 . S
H355 C336 0.930 . S
H356 C338 0.932 . S
H357 C339 0.929 . S
H358 C340 0.928 . S
H359 C342 0.932 . S
C360 C361 1.264 . S
C360 C365 1.479 . S
C360 C370 1.465 . S
C361 C360 1.264 . S
C361 C363 1.339 . S
C361 H388 0.931 . S
C362 C363 1.395 . S
C362 C364 1.320 . S
C363 C361 1.339 . S
C363 C362 1.395 . S
C363 H389 0.929 . S
C364 C362 1.320 . S
C364 C365 1.405 . S
C364 H390 0.930 . S
C365 C360 1.479 . S
C365 C364 1.405 . S
C365 H391 0.931 . S
U366 O367 2.454 . S
U366 O368 2.458 . S
U366 C369 2.984 . S
U366 C370 2.847 . S
U366 C383 2.882 . S
U366 O384 2.441 . S
U366 O385 2.420 . S
U366 O386 2.455 . S
U366 O387 2.449 . S
O367 U366 2.454 . S
O367 C369 1.353 . S
O368 U366 2.458 . S
O368 C369 1.286 . S
C369 U366 2.984 . S
C369 O367 1.353 . S
C369 O368 1.286 . S
C369 C371 1.363 . S
C370 C360 1.465 . S
C370 U366 2.847 . S
C370 O384 1.249 . S
C370 O385 1.202 . S
C371 C369 1.363 . S
C371 C373 1.408 . S
C371 C376 1.342 . S
C372 C373 1.310 . S
C372 C375 1.461 . S
C372 H392 0.932 . S
C373 C371 1.408 . S
C373 C372 1.310 . S
C373 H393 0.930 . S
C374 C375 1.474 . S
C374 C376 1.285 . S
C374 H394 0.929 . S
C375 C372 1.461 . S
C375 C374 1.474 . S
C376 C371 1.342 . S
C376 C374 1.285 . S
C376 H395 0.930 . S
C377 C380 1.424 . S
C377 C382 1.245 . S
C377 C383 1.428 . S
C378 C381 1.260 . S
C378 C382 1.477 . S
C378 H396 0.932 . S
C379 C380 1.384 . S
C379 C381 1.479 . S
C379 H397 0.929 . S
C380 C377 1.424 . S
C380 C379 1.384 . S
C380 H398 0.928 . S
C381 C378 1.260 . S
C381 C379 1.479 . S
C382 C377 1.245 . S
C382 C378 1.477 . S
C382 H399 0.932 . S
C383 U366 2.882 . S
C383 C377 1.428 . S
C383 O386 1.301 . S
C383 O387 1.282 . S
O384 U366 2.441 . S
O384 C370 1.249 . S
O385 U366 2.420 . S
O385 C370 1.202 . S
O386 U366 2.455 . S
O386 C383 1.301 . S
O387 U366 2.449 . S
O387 C383 1.282 . S
H388 C361 0.931 . S
H389 C363 0.929 . S
H390 C364 0.930 . S
H391 C365 0.931 . S
H392 C372 0.932 . S
H393 C373 0.930 . S
H394 C374 0.929 . S
H395 C376 0.930 . S
H396 C378 0.932 . S
H397 C379 0.929 . S
H398 C380 0.928 . S
H399 C382 0.932 . S
C400 C401 1.264 . S
C400 C405 1.479 . S
C400 C410 1.465 . S
C401 C400 1.264 . S
C401 C403 1.339 . S
C401 H428 0.931 . S
C402 C403 1.395 . S
C402 C404 1.320 . S
C403 C401 1.339 . S
C403 C402 1.395 . S
C403 H429 0.929 . S
C404 C402 1.320 . S
C404 C405 1.405 . S
C404 H430 0.930 . S
C405 C400 1.479 . S
C405 C404 1.405 . S
C405 H431 0.931 . S
U406 O407 2.454 . S
U406 O408 2.458 . S
U406 C409 2.984 . S
U406 C410 2.847 . S
U406 C423 2.882 . S
U406 O424 2.441 . S
U406 O425 2.420 . S
U406 O426 2.455 . S
U406 O427 2.449 . S
O407 U406 2.454 . S
O407 C409 1.353 . S
O408 U406 2.458 . S
O408 C409 1.286 . S
C409 U406 2.984 . S
C409 O407 1.353 . S
C409 O408 1.286 . S
C409 C411 1.363 . S
C410 C400 1.465 . S
C410 U406 2.847 . S
C410 O424 1.249 . S
C410 O425 1.202 . S
C411 C409 1.363 . S
C411 C413 1.408 . S
C411 C416 1.342 . S
C412 C413 1.310 . S
C412 C415 1.461 . S
C412 H432 0.932 . S
C413 C411 1.408 . S
C413 C412 1.310 . S
C413 H433 0.930 . S
C414 C415 1.474 . S
C414 C416 1.285 . S
C414 H434 0.929 . S
C415 C412 1.461 . S
C415 C414 1.474 . S
C416 C411 1.342 . S
C416 C414 1.285 . S
C416 H435 0.930 . S
C417 C420 1.424 . S
C417 C422 1.245 . S
C417 C423 1.428 . S
C418 C421 1.260 . S
C418 C422 1.477 . S
C418 H436 0.932 . S
C419 C420 1.384 . S
C419 C421 1.479 . S
C419 H437 0.929 . S
C420 C417 1.424 . S
C420 C419 1.384 . S
C420 H438 0.928 . S
C421 C418 1.260 . S
C421 C419 1.479 . S
C422 C417 1.245 . S
C422 C418 1.477 . S
C422 H439 0.932 . S
C423 U406 2.882 . S
C423 C417 1.428 . S
C423 O426 1.301 . S
C423 O427 1.282 . S
O424 U406 2.441 . S
O424 C410 1.249 . S
O425 U406 2.420 . S
O425 C410 1.202 . S
O426 U406 2.455 . S
O426 C423 1.301 . S
O427 U406 2.449 . S
O427 C423 1.282 . S
H428 C401 0.931 . S
H429 C403 0.929 . S
H430 C404 0.930 . S
H431 C405 0.931 . S
H432 C412 0.932 . S
H433 C413 0.930 . S
H434 C414 0.929 . S
H435 C416 0.930 . S
H436 C418 0.932 . S
H437 C419 0.929 . S
H438 C420 0.928 . S
H439 C422 0.932 . S
C440 C441 1.264 . S
C440 C445 1.479 . S
C440 C450 1.465 . S
C441 C440 1.264 . S
C441 C443 1.339 . S
C441 H468 0.931 . S
C442 C443 1.395 . S
C442 C444 1.320 . S
C443 C441 1.339 . S
C443 C442 1.395 . S
C443 H469 0.929 . S
C444 C442 1.320 . S
C444 C445 1.405 . S
C444 H470 0.930 . S
C445 C440 1.479 . S
C445 C444 1.405 . S
C445 H471 0.931 . S
U446 O447 2.454 . S
U446 O448 2.458 . S
U446 C449 2.984 . S
U446 C450 2.847 . S
U446 C463 2.882 . S
U446 O464 2.441 . S
U446 O465 2.420 . S
U446 O466 2.455 . S
U446 O467 2.449 . S
O447 U446 2.454 . S
O447 C449 1.353 . S
O448 U446 2.458 . S
O448 C449 1.286 . S
C449 U446 2.984 . S
C449 O447 1.353 . S
C449 O448 1.286 . S
C449 C451 1.363 . S
C450 C440 1.465 . S
C450 U446 2.847 . S
C450 O464 1.249 . S
C450 O465 1.202 . S
C451 C449 1.363 . S
C451 C453 1.408 . S
C451 C456 1.342 . S
C452 C453 1.310 . S
C452 C455 1.461 . S
C452 H472 0.932 . S
C453 C451 1.408 . S
C453 C452 1.310 . S
C453 H473 0.930 . S
C454 C455 1.474 . S
C454 C456 1.285 . S
C454 H474 0.929 . S
C455 C452 1.461 . S
C455 C454 1.474 . S
C456 C451 1.342 . S
C456 C454 1.285 . S
C456 H475 0.930 . S
C457 C460 1.424 . S
C457 C462 1.245 . S
C457 C463 1.428 . S
C458 C461 1.260 . S
C458 C462 1.477 . S
C458 H476 0.932 . S
C459 C460 1.384 . S
C459 C461 1.479 . S
C459 H477 0.929 . S
C460 C457 1.424 . S
C460 C459 1.384 . S
C460 H478 0.928 . S
C461 C458 1.260 . S
C461 C459 1.479 . S
C462 C457 1.245 . S
C462 C458 1.477 . S
C462 H479 0.932 . S
C463 U446 2.882 . S
C463 C457 1.428 . S
C463 O466 1.301 . S
C463 O467 1.282 . S
O464 U446 2.441 . S
O464 C450 1.249 . S
O465 U446 2.420 . S
O465 C450 1.202 . S
O466 U446 2.455 . S
O466 C463 1.301 . S
O467 U446 2.449 . S
O467 C463 1.282 . S
H468 C441 0.931 . S
H469 C443 0.929 . S
H470 C444 0.930 . S
H471 C445 0.931 . S
H472 C452 0.932 . S
H473 C453 0.930 . S
H474 C454 0.929 . S
H475 C456 0.930 . S
H476 C458 0.932 . S
H477 C459 0.929 . S
H478 C460 0.928 . S
H479 C462 0.932 . S
C480 C481 1.264 . S
C480 C485 1.479 . S
C480 C490 1.465 . S
C481 C480 1.264 . S
C481 C483 1.339 . S
C481 H508 0.931 . S
C482 C483 1.395 . S
C482 C484 1.320 . S
C483 C481 1.339 . S
C483 C482 1.395 . S
C483 H509 0.929 . S
C484 C482 1.320 . S
C484 C485 1.405 . S
C484 H510 0.930 . S
C485 C480 1.479 . S
C485 C484 1.405 . S
C485 H511 0.931 . S
U486 O487 2.454 . S
U486 O488 2.458 . S
U486 C489 2.984 . S
U486 C490 2.847 . S
U486 C503 2.882 . S
U486 O504 2.441 . S
U486 O505 2.420 . S
U486 O506 2.455 . S
U486 O507 2.449 . S
O487 U486 2.454 . S
O487 C489 1.353 . S
O488 U486 2.458 . S
O488 C489 1.286 . S
C489 U486 2.984 . S
C489 O487 1.353 . S
C489 O488 1.286 . S
C489 C491 1.363 . S
C490 C480 1.465 . S
C490 U486 2.847 . S
C490 O504 1.249 . S
C490 O505 1.202 . S
C491 C489 1.363 . S
C491 C493 1.408 . S
C491 C496 1.342 . S
C492 C493 1.310 . S
C492 C495 1.461 . S
C492 H512 0.932 . S
C493 C491 1.408 . S
C493 C492 1.310 . S
C493 H513 0.930 . S
C494 C495 1.474 . S
C494 C496 1.285 . S
C494 H514 0.929 . S
C495 C492 1.461 . S
C495 C494 1.474 . S
C496 C491 1.342 . S
C496 C494 1.285 . S
C496 H515 0.930 . S
C497 C500 1.424 . S
C497 C502 1.245 . S
C497 C503 1.428 . S
C498 C501 1.260 . S
C498 C502 1.477 . S
C498 H516 0.932 . S
C499 C500 1.384 . S
C499 C501 1.479 . S
C499 H517 0.929 . S
C500 C497 1.424 . S
C500 C499 1.384 . S
C500 H518 0.928 . S
C501 C498 1.260 . S
C501 C499 1.479 . S
C502 C497 1.245 . S
C502 C498 1.477 . S
C502 H519 0.932 . S
C503 U486 2.882 . S
C503 C497 1.428 . S
C503 O506 1.301 . S
C503 O507 1.282 . S
O504 U486 2.441 . S
O504 C490 1.249 . S
O505 U486 2.420 . S
O505 C490 1.202 . S
O506 U486 2.455 . S
O506 C503 1.301 . S
O507 U486 2.449 . S
O507 C503 1.282 . S
H508 C481 0.931 . S
H509 C483 0.929 . S
H510 C484 0.930 . S
H511 C485 0.931 . S
H512 C492 0.932 . S
H513 C493 0.930 . S
H514 C494 0.929 . S
H515 C496 0.930 . S
H516 C498 0.932 . S
H517 C499 0.929 . S
H518 C500 0.928 . S
H519 C502 0.932 . S
C520 C521 1.264 . S
C520 C525 1.479 . S
C520 C530 1.465 . S
C521 C520 1.264 . S
C521 C523 1.339 . S
C521 H548 0.931 . S
C522 C523 1.395 . S
C522 C524 1.320 . S
C523 C521 1.339 . S
C523 C522 1.395 . S
C523 H549 0.929 . S
C524 C522 1.320 . S
C524 C525 1.405 . S
C524 H550 0.930 . S
C525 C520 1.479 . S
C525 C524 1.405 . S
C525 H551 0.931 . S
U526 O527 2.454 . S
U526 O528 2.458 . S
U526 C529 2.984 . S
U526 C530 2.847 . S
U526 C543 2.882 . S
U526 O544 2.441 . S
U526 O545 2.420 . S
U526 O546 2.455 . S
U526 O547 2.449 . S
O527 U526 2.454 . S
O527 C529 1.353 . S
O528 U526 2.458 . S
O528 C529 1.286 . S
C529 U526 2.984 . S
C529 O527 1.353 . S
C529 O528 1.286 . S
C529 C531 1.363 . S
C530 C520 1.465 . S
C530 U526 2.847 . S
C530 O544 1.249 . S
C530 O545 1.202 . S
C531 C529 1.363 . S
C531 C533 1.408 . S
C531 C536 1.342 . S
C532 C533 1.310 . S
C532 C535 1.461 . S
C532 H552 0.932 . S
C533 C531 1.408 . S
C533 C532 1.310 . S
C533 H553 0.930 . S
C534 C535 1.474 . S
C534 C536 1.285 . S
C534 H554 0.929 . S
C535 C532 1.461 . S
C535 C534 1.474 . S
C536 C531 1.342 . S
C536 C534 1.285 . S
C536 H555 0.930 . S
C537 C540 1.424 . S
C537 C542 1.245 . S
C537 C543 1.428 . S
C538 C541 1.260 . S
C538 C542 1.477 . S
C538 H556 0.932 . S
C539 C540 1.384 . S
C539 C541 1.479 . S
C539 H557 0.929 . S
C540 C537 1.424 . S
C540 C539 1.384 . S
C540 H558 0.928 . S
C541 C538 1.260 . S
C541 C539 1.479 . S
C542 C537 1.245 . S
C542 C538 1.477 . S
C542 H559 0.932 . S
C543 U526 2.882 . S
C543 C537 1.428 . S
C543 O546 1.301 . S
C543 O547 1.282 . S
O544 U526 2.441 . S
O544 C530 1.249 . S
O545 U526 2.420 . S
O545 C530 1.202 . S
O546 U526 2.455 . S
O546 C543 1.301 . S
O547 U526 2.449 . S
O547 C543 1.282 . S
H548 C521 0.931 . S
H549 C523 0.929 . S
H550 C524 0.930 . S
H551 C525 0.931 . S
H552 C532 0.932 . S
H553 C533 0.930 . S
H554 C534 0.929 . S
H555 C536 0.930 . S
H556 C538 0.932 . S
H557 C539 0.929 . S
H558 C540 0.928 . S
H559 C542 0.932 . S
C560 C561 1.264 . S
C560 C565 1.479 . S
C560 C570 1.465 . S
C561 C560 1.264 . S
C561 C563 1.339 . S
C561 H588 0.931 . S
C562 C563 1.395 . S
C562 C564 1.320 . S
C563 C561 1.339 . S
C563 C562 1.395 . S
C563 H589 0.929 . S
C564 C562 1.320 . S
C564 C565 1.405 . S
C564 H590 0.930 . S
C565 C560 1.479 . S
C565 C564 1.405 . S
C565 H591 0.931 . S
U566 O567 2.454 . S
U566 O568 2.458 . S
U566 C569 2.984 . S
U566 C570 2.847 . S
U566 C583 2.882 . S
U566 O584 2.441 . S
U566 O585 2.420 . S
U566 O586 2.455 . S
U566 O587 2.449 . S
O567 U566 2.454 . S
O567 C569 1.353 . S
O568 U566 2.458 . S
O568 C569 1.286 . S
C569 U566 2.984 . S
C569 O567 1.353 . S
C569 O568 1.286 . S
C569 C571 1.363 . S
C570 C560 1.465 . S
C570 U566 2.847 . S
C570 O584 1.249 . S
C570 O585 1.202 . S
C571 C569 1.363 . S
C571 C573 1.408 . S
C571 C576 1.342 . S
C572 C573 1.310 . S
C572 C575 1.461 . S
C572 H592 0.932 . S
C573 C571 1.408 . S
C573 C572 1.310 . S
C573 H593 0.930 . S
C574 C575 1.474 . S
C574 C576 1.285 . S
C574 H594 0.929 . S
C575 C572 1.461 . S
C575 C574 1.474 . S
C576 C571 1.342 . S
C576 C574 1.285 . S
C576 H595 0.930 . S
C577 C580 1.424 . S
C577 C582 1.245 . S
C577 C583 1.428 . S
C578 C581 1.260 . S
C578 C582 1.477 . S
C578 H596 0.932 . S
C579 C580 1.384 . S
C579 C581 1.479 . S
C579 H597 0.929 . S
C580 C577 1.424 . S
C580 C579 1.384 . S
C580 H598 0.928 . S
C581 C578 1.260 . S
C581 C579 1.479 . S
C582 C577 1.245 . S
C582 C578 1.477 . S
C582 H599 0.932 . S
C583 U566 2.882 . S
C583 C577 1.428 . S
C583 O586 1.301 . S
C583 O587 1.282 . S
O584 U566 2.441 . S
O584 C570 1.249 . S
O585 U566 2.420 . S
O585 C570 1.202 . S
O586 U566 2.455 . S
O586 C583 1.301 . S
O587 U566 2.449 . S
O587 C583 1.282 . S
H588 C561 0.931 . S
H589 C563 0.929 . S
H590 C564 0.930 . S
H591 C565 0.931 . S
H592 C572 0.932 . S
H593 C573 0.930 . S
H594 C574 0.929 . S
H595 C576 0.930 . S
H596 C578 0.932 . S
H597 C579 0.929 . S
H598 C580 0.928 . S
H599 C582 0.932 . S
C600 C601 1.264 . S
C600 C605 1.479 . S
C600 C610 1.465 . S
C601 C600 1.264 . S
C601 C603 1.339 . S
C601 H628 0.931 . S
C602 C603 1.395 . S
C602 C604 1.320 . S
C603 C601 1.339 . S
C603 C602 1.395 . S
C603 H629 0.929 . S
C604 C602 1.320 . S
C604 C605 1.405 . S
C604 H630 0.930 . S
C605 C600 1.479 . S
C605 C604 1.405 . S
C605 H631 0.931 . S
U606 O607 2.454 . S
U606 O608 2.458 . S
U606 C609 2.984 . S
U606 C610 2.847 . S
U606 C623 2.882 . S
U606 O624 2.441 . S
U606 O625 2.420 . S
U606 O626 2.455 . S
U606 O627 2.449 . S
O607 U606 2.454 . S
O607 C609 1.353 . S
O608 U606 2.458 . S
O608 C609 1.286 . S
C609 U606 2.984 . S
C609 O607 1.353 . S
C609 O608 1.286 . S
C609 C611 1.363 . S
C610 C600 1.465 . S
C610 U606 2.847 . S
C610 O624 1.249 . S
C610 O625 1.202 . S
C611 C609 1.363 . S
C611 C613 1.408 . S
C611 C616 1.342 . S
C612 C613 1.310 . S
C612 C615 1.461 . S
C612 H632 0.932 . S
C613 C611 1.408 . S
C613 C612 1.310 . S
C613 H633 0.930 . S
C614 C615 1.474 . S
C614 C616 1.285 . S
C614 H634 0.929 . S
C615 C612 1.461 . S
C615 C614 1.474 . S
C616 C611 1.342 . S
C616 C614 1.285 . S
C616 H635 0.930 . S
C617 C620 1.424 . S
C617 C622 1.245 . S
C617 C623 1.428 . S
C618 C621 1.260 . S
C618 C622 1.477 . S
C618 H636 0.932 . S
C619 C620 1.384 . S
C619 C621 1.479 . S
C619 H637 0.929 . S
C620 C617 1.424 . S
C620 C619 1.384 . S
C620 H638 0.928 . S
C621 C618 1.260 . S
C621 C619 1.479 . S
C622 C617 1.245 . S
C622 C618 1.477 . S
C622 H639 0.932 . S
C623 U606 2.882 . S
C623 C617 1.428 . S
C623 O626 1.301 . S
C623 O627 1.282 . S
O624 U606 2.441 . S
O624 C610 1.249 . S
O625 U606 2.420 . S
O625 C610 1.202 . S
O626 U606 2.455 . S
O626 C623 1.301 . S
O627 U606 2.449 . S
O627 C623 1.282 . S
H628 C601 0.931 . S
H629 C603 0.929 . S
H630 C604 0.930 . S
H631 C605 0.931 . S
H632 C612 0.932 . S
H633 C613 0.930 . S
H634 C614 0.929 . S
H635 C616 0.930 . S
H636 C618 0.932 . S
H637 C619 0.929 . S
H638 C620 0.928 . S
H639 C622 0.932 . S
C640 C641 1.264 . S
C640 C645 1.479 . S
C640 C650 1.465 . S
C641 C640 1.264 . S
C641 C643 1.339 . S
C641 H668 0.931 . S
C642 C643 1.395 . S
C642 C644 1.320 . S
C643 C641 1.339 . S
C643 C642 1.395 . S
C643 H669 0.929 . S
C644 C642 1.320 . S
C644 C645 1.405 . S
C644 H670 0.930 . S
C645 C640 1.479 . S
C645 C644 1.405 . S
C645 H671 0.931 . S
U646 O647 2.454 . S
U646 O648 2.458 . S
U646 C649 2.984 . S
U646 C650 2.847 . S
U646 C663 2.882 . S
U646 O664 2.441 . S
U646 O665 2.420 . S
U646 O666 2.455 . S
U646 O667 2.449 . S
O647 U646 2.454 . S
O647 C649 1.353 . S
O648 U646 2.458 . S
O648 C649 1.286 . S
C649 U646 2.984 . S
C649 O647 1.353 . S
C649 O648 1.286 . S
C649 C651 1.363 . S
C650 C640 1.465 . S
C650 U646 2.847 . S
C650 O664 1.249 . S
C650 O665 1.202 . S
C651 C649 1.363 . S
C651 C653 1.408 . S
C651 C656 1.342 . S
C652 C653 1.310 . S
C652 C655 1.461 . S
C652 H672 0.932 . S
C653 C651 1.408 . S
C653 C652 1.310 . S
C653 H673 0.930 . S
C654 C655 1.474 . S
C654 C656 1.285 . S
C654 H674 0.929 . S
C655 C652 1.461 . S
C655 C654 1.474 . S
C656 C651 1.342 . S
C656 C654 1.285 . S
C656 H675 0.930 . S
C657 C660 1.424 . S
C657 C662 1.245 . S
C657 C663 1.428 . S
C658 C661 1.260 . S
C658 C662 1.477 . S
C658 H676 0.932 . S
C659 C660 1.384 . S
C659 C661 1.479 . S
C659 H677 0.929 . S
C660 C657 1.424 . S
C660 C659 1.384 . S
C660 H678 0.928 . S
C661 C658 1.260 . S
C661 C659 1.479 . S
C662 C657 1.245 . S
C662 C658 1.477 . S
C662 H679 0.932 . S
C663 U646 2.882 . S
C663 C657 1.428 . S
C663 O666 1.301 . S
C663 O667 1.282 . S
O664 U646 2.441 . S
O664 C650 1.249 . S
O665 U646 2.420 . S
O665 C650 1.202 . S
O666 U646 2.455 . S
O666 C663 1.301 . S
O667 U646 2.449 . S
O667 C663 1.282 . S
H668 C641 0.931 . S
H669 C643 0.929 . S
H670 C644 0.930 . S
H671 C645 0.931 . S
H672 C652 0.932 . S
H673 C653 0.930 . S
H674 C654 0.929 . S
H675 C656 0.930 . S
H676 C658 0.932 . S
H677 C659 0.929 . S
H678 C660 0.928 . S
H679 C662 0.932 . S
C680 C681 1.264 . S
C680 C685 1.479 . S
C680 C690 1.465 . S
C681 C680 1.264 . S
C681 C683 1.339 . S
C681 H708 0.931 . S
C682 C683 1.395 . S
C682 C684 1.320 . S
C683 C681 1.339 . S
C683 C682 1.395 . S
C683 H709 0.929 . S
C684 C682 1.320 . S
C684 C685 1.405 . S
C684 H710 0.930 . S
C685 C680 1.479 . S
C685 C684 1.405 . S
C685 H711 0.931 . S
U686 O687 2.454 . S
U686 O688 2.458 . S
U686 C689 2.984 . S
U686 C690 2.847 . S
U686 C703 2.882 . S
U686 O704 2.441 . S
U686 O705 2.420 . S
U686 O706 2.455 . S
U686 O707 2.449 . S
O687 U686 2.454 . S
O687 C689 1.353 . S
O688 U686 2.458 . S
O688 C689 1.286 . S
C689 U686 2.984 . S
C689 O687 1.353 . S
C689 O688 1.286 . S
C689 C691 1.363 . S
C690 C680 1.465 . S
C690 U686 2.847 . S
C690 O704 1.249 . S
C690 O705 1.202 . S
C691 C689 1.363 . S
C691 C693 1.408 . S
C691 C696 1.342 . S
C692 C693 1.310 . S
C692 C695 1.461 . S
C692 H712 0.932 . S
C693 C691 1.408 . S
C693 C692 1.310 . S
C693 H713 0.930 . S
C694 C695 1.474 . S
C694 C696 1.285 . S
C694 H714 0.929 . S
C695 C692 1.461 . S
C695 C694 1.474 . S
C696 C691 1.342 . S
C696 C694 1.285 . S
C696 H715 0.930 . S
C697 C700 1.424 . S
C697 C702 1.245 . S
C697 C703 1.428 . S
C698 C701 1.260 . S
C698 C702 1.477 . S
C698 H716 0.932 . S
C699 C700 1.384 . S
C699 C701 1.479 . S
C699 H717 0.929 . S
C700 C697 1.424 . S
C700 C699 1.384 . S
C700 H718 0.928 . S
C701 C698 1.260 . S
C701 C699 1.479 . S
C702 C697 1.245 . S
C702 C698 1.477 . S
C702 H719 0.932 . S
C703 U686 2.882 . S
C703 C697 1.428 . S
C703 O706 1.301 . S
C703 O707 1.282 . S
O704 U686 2.441 . S
O704 C690 1.249 . S
O705 U686 2.420 . S
O705 C690 1.202 . S
O706 U686 2.455 . S
O706 C703 1.301 . S
O707 U686 2.449 . S
O707 C703 1.282 . S
H708 C681 0.931 . S
H709 C683 0.929 . S
H710 C684 0.930 . S
H711 C685 0.931 . S
H712 C692 0.932 . S
H713 C693 0.930 . S
H714 C694 0.929 . S
H715 C696 0.930 . S
H716 C698 0.932 . S
H717 C699 0.929 . S
H718 C700 0.928 . S
H719 C702 0.932 . S
C720 C721 1.264 . S
C720 C725 1.479 . S
C720 C730 1.465 . S
C721 C720 1.264 . S
C721 C723 1.339 . S
C721 H748 0.931 . S
C722 C723 1.395 . S
C722 C724 1.320 . S
C723 C721 1.339 . S
C723 C722 1.395 . S
C723 H749 0.929 . S
C724 C722 1.320 . S
C724 C725 1.405 . S
C724 H750 0.930 . S
C725 C720 1.479 . S
C725 C724 1.405 . S
C725 H751 0.931 . S
U726 O727 2.454 . S
U726 O728 2.458 . S
U726 C729 2.984 . S
U726 C730 2.847 . S
U726 C743 2.882 . S
U726 O744 2.441 . S
U726 O745 2.420 . S
U726 O746 2.455 . S
U726 O747 2.449 . S
O727 U726 2.454 . S
O727 C729 1.353 . S
O728 U726 2.458 . S
O728 C729 1.286 . S
C729 U726 2.984 . S
C729 O727 1.353 . S
C729 O728 1.286 . S
C729 C731 1.363 . S
C730 C720 1.465 . S
C730 U726 2.847 . S
C730 O744 1.249 . S
C730 O745 1.202 . S
C731 C729 1.363 . S
C731 C733 1.408 . S
C731 C736 1.342 . S
C732 C733 1.310 . S
C732 C735 1.461 . S
C732 H752 0.932 . S
C733 C731 1.408 . S
C733 C732 1.310 . S
C733 H753 0.930 . S
C734 C735 1.474 . S
C734 C736 1.285 . S
C734 H754 0.929 . S
C735 C732 1.461 . S
C735 C734 1.474 . S
C736 C731 1.342 . S
C736 C734 1.285 . S
C736 H755 0.930 . S
C737 C740 1.424 . S
C737 C742 1.245 . S
C737 C743 1.428 . S
C738 C741 1.260 . S
C738 C742 1.477 . S
C738 H756 0.932 . S
C739 C740 1.384 . S
C739 C741 1.479 . S
C739 H757 0.929 . S
C740 C737 1.424 . S
C740 C739 1.384 . S
C740 H758 0.928 . S
C741 C738 1.260 . S
C741 C739 1.479 . S
C742 C737 1.245 . S
C742 C738 1.477 . S
C742 H759 0.932 . S
C743 U726 2.882 . S
C743 C737 1.428 . S
C743 O746 1.301 . S
C743 O747 1.282 . S
O744 U726 2.441 . S
O744 C730 1.249 . S
O745 U726 2.420 . S
O745 C730 1.202 . S
O746 U726 2.455 . S
O746 C743 1.301 . S
O747 U726 2.449 . S
O747 C743 1.282 . S
H748 C721 0.931 . S
H749 C723 0.929 . S
H750 C724 0.930 . S
H751 C725 0.931 . S
H752 C732 0.932 . S
H753 C733 0.930 . S
H754 C734 0.929 . S
H755 C736 0.930 . S
H756 C738 0.932 . S
H757 C739 0.929 . S
H758 C740 0.928 . S
H759 C742 0.932 . S
C760 C761 1.264 . S
C760 C765 1.479 . S
C760 C770 1.465 . S
C761 C760 1.264 . S
C761 C763 1.339 . S
C761 H788 0.931 . S
C762 C763 1.395 . S
C762 C764 1.320 . S
C763 C761 1.339 . S
C763 C762 1.395 . S
C763 H789 0.929 . S
C764 C762 1.320 . S
C764 C765 1.405 . S
C764 H790 0.930 . S
C765 C760 1.479 . S
C765 C764 1.405 . S
C765 H791 0.931 . S
U766 O767 2.454 . S
U766 O768 2.458 . S
U766 C769 2.984 . S
U766 C770 2.847 . S
U766 C783 2.882 . S
U766 O784 2.441 . S
U766 O785 2.420 . S
U766 O786 2.455 . S
U766 O787 2.449 . S
O767 U766 2.454 . S
O767 C769 1.353 . S
O768 U766 2.458 . S
O768 C769 1.286 . S
C769 U766 2.984 . S
C769 O767 1.353 . S
C769 O768 1.286 . S
C769 C771 1.363 . S
C770 C760 1.465 . S
C770 U766 2.847 . S
C770 O784 1.249 . S
C770 O785 1.202 . S
C771 C769 1.363 . S
C771 C773 1.408 . S
C771 C776 1.342 . S
C772 C773 1.310 . S
C772 C775 1.461 . S
C772 H792 0.932 . S
C773 C771 1.408 . S
C773 C772 1.310 . S
C773 H793 0.930 . S
C774 C775 1.474 . S
C774 C776 1.285 . S
C774 H794 0.929 . S
C775 C772 1.461 . S
C775 C774 1.474 . S
C776 C771 1.342 . S
C776 C774 1.285 . S
C776 H795 0.930 . S
C777 C780 1.424 . S
C777 C782 1.245 . S
C777 C783 1.428 . S
C778 C781 1.260 . S
C778 C782 1.477 . S
C778 H796 0.932 . S
C779 C780 1.384 . S
C779 C781 1.479 . S
C779 H797 0.929 . S
C780 C777 1.424 . S
C780 C779 1.384 . S
C780 H798 0.928 . S
C781 C778 1.260 . S
C781 C779 1.479 . S
C782 C777 1.245 . S
C782 C778 1.477 . S
C782 H799 0.932 . S
C783 U766 2.882 . S
C783 C777 1.428 . S
C783 O786 1.301 . S
C783 O787 1.282 . S
O784 U766 2.441 . S
O784 C770 1.249 . S
O785 U766 2.420 . S
O785 C770 1.202 . S
O786 U766 2.455 . S
O786 C783 1.301 . S
O787 U766 2.449 . S
O787 C783 1.282 . S
H788 C761 0.931 . S
H789 C763 0.929 . S
H790 C764 0.930 . S
H791 C765 0.931 . S
H792 C772 0.932 . S
H793 C773 0.930 . S
H794 C774 0.929 . S
H795 C776 0.930 . S
H796 C778 0.932 . S
H797 C779 0.929 . S
H798 C780 0.928 . S
H799 C782 0.932 . S
C800 C801 1.264 . S
C800 C805 1.479 . S
C800 C810 1.465 . S
C801 C800 1.264 . S
C801 C803 1.339 . S
C801 H828 0.931 . S
C802 C803 1.395 . S
C802 C804 1.320 . S
C803 C801 1.339 . S
C803 C802 1.395 . S
C803 H829 0.929 . S
C804 C802 1.320 . S
C804 C805 1.405 . S
C804 H830 0.930 . S
C805 C800 1.479 . S
C805 C804 1.405 . S
C805 H831 0.931 . S
U806 O807 2.454 . S
U806 O808 2.458 . S
U806 C809 2.984 . S
U806 C810 2.847 . S
U806 C823 2.882 . S
U806 O824 2.441 . S
U806 O825 2.420 . S
U806 O826 2.455 . S
U806 O827 2.449 . S
O807 U806 2.454 . S
O807 C809 1.353 . S
O808 U806 2.458 . S
O808 C809 1.286 . S
C809 U806 2.984 . S
C809 O807 1.353 . S
C809 O808 1.286 . S
C809 C811 1.363 . S
C810 C800 1.465 . S
C810 U806 2.847 . S
C810 O824 1.249 . S
C810 O825 1.202 . S
C811 C809 1.363 . S
C811 C813 1.408 . S
C811 C816 1.342 . S
C812 C813 1.310 . S
C812 C815 1.461 . S
C812 H832 0.932 . S
C813 C811 1.408 . S
C813 C812 1.310 . S
C813 H833 0.930 . S
C814 C815 1.474 . S
C814 C816 1.285 . S
C814 H834 0.929 . S
C815 C812 1.461 . S
C815 C814 1.474 . S
C816 C811 1.342 . S
C816 C814 1.285 . S
C816 H835 0.930 . S
C817 C820 1.424 . S
C817 C822 1.245 . S
C817 C823 1.428 . S
C818 C821 1.260 . S
C818 C822 1.477 . S
C818 H836 0.932 . S
C819 C820 1.384 . S
C819 C821 1.479 . S
C819 H837 0.929 . S
C820 C817 1.424 . S
C820 C819 1.384 . S
C820 H838 0.928 . S
C821 C818 1.260 . S
C821 C819 1.479 . S
C822 C817 1.245 . S
C822 C818 1.477 . S
C822 H839 0.932 . S
C823 U806 2.882 . S
C823 C817 1.428 . S
C823 O826 1.301 . S
C823 O827 1.282 . S
O824 U806 2.441 . S
O824 C810 1.249 . S
O825 U806 2.420 . S
O825 C810 1.202 . S
O826 U806 2.455 . S
O826 C823 1.301 . S
O827 U806 2.449 . S
O827 C823 1.282 . S
H828 C801 0.931 . S
H829 C803 0.929 . S
H830 C804 0.930 . S
H831 C805 0.931 . S
H832 C812 0.932 . S
H833 C813 0.930 . S
H834 C814 0.929 . S
H835 C816 0.930 . S
H836 C818 0.932 . S
H837 C819 0.929 . S
H838 C820 0.928 . S
H839 C822 0.932 . S
C840 C841 1.264 . S
C840 C845 1.479 . S
C840 C850 1.465 . S
C841 C840 1.264 . S
C841 C843 1.339 . S
C841 H868 0.931 . S
C842 C843 1.395 . S
C842 C844 1.320 . S
C843 C841 1.339 . S
C843 C842 1.395 . S
C843 H869 0.929 . S
C844 C842 1.320 . S
C844 C845 1.405 . S
C844 H870 0.930 . S
C845 C840 1.479 . S
C845 C844 1.405 . S
C845 H871 0.931 . S
U846 O847 2.454 . S
U846 O848 2.458 . S
U846 C849 2.984 . S
U846 C850 2.847 . S
U846 C863 2.882 . S
U846 O864 2.441 . S
U846 O865 2.420 . S
U846 O866 2.455 . S
U846 O867 2.449 . S
O847 U846 2.454 . S
O847 C849 1.353 . S
O848 U846 2.458 . S
O848 C849 1.286 . S
C849 U846 2.984 . S
C849 O847 1.353 . S
C849 O848 1.286 . S
C849 C851 1.363 . S
C850 C840 1.465 . S
C850 U846 2.847 . S
C850 O864 1.249 . S
C850 O865 1.202 . S
C851 C849 1.363 . S
C851 C853 1.408 . S
C851 C856 1.342 . S
C852 C853 1.310 . S
C852 C855 1.461 . S
C852 H872 0.932 . S
C853 C851 1.408 . S
C853 C852 1.310 . S
C853 H873 0.930 . S
C854 C855 1.474 . S
C854 C856 1.285 . S
C854 H874 0.929 . S
C855 C852 1.461 . S
C855 C854 1.474 . S
C856 C851 1.342 . S
C856 C854 1.285 . S
C856 H875 0.930 . S
C857 C860 1.424 . S
C857 C862 1.245 . S
C857 C863 1.428 . S
C858 C861 1.260 . S
C858 C862 1.477 . S
C858 H876 0.932 . S
C859 C860 1.384 . S
C859 C861 1.479 . S
C859 H877 0.929 . S
C860 C857 1.424 . S
C860 C859 1.384 . S
C860 H878 0.928 . S
C861 C858 1.260 . S
C861 C859 1.479 . S
C862 C857 1.245 . S
C862 C858 1.477 . S
C862 H879 0.932 . S
C863 U846 2.882 . S
C863 C857 1.428 . S
C863 O866 1.301 . S
C863 O867 1.282 . S
O864 U846 2.441 . S
O864 C850 1.249 . S
O865 U846 2.420 . S
O865 C850 1.202 . S
O866 U846 2.455 . S
O866 C863 1.301 . S
O867 U846 2.449 . S
O867 C863 1.282 . S
H868 C841 0.931 . S
H869 C843 0.929 . S
H870 C844 0.930 . S
H871 C845 0.931 . S
H872 C852 0.932 . S
H873 C853 0.930 . S
H874 C854 0.929 . S
H875 C856 0.930 . S
H876 C858 0.932 . S
H877 C859 0.929 . S
H878 C860 0.928 . S
H879 C862 0.932 . S
C880 C881 1.264 . S
C880 C885 1.479 . S
C880 C890 1.465 . S
C881 C880 1.264 . S
C881 C883 1.339 . S
C881 H908 0.931 . S
C882 C883 1.395 . S
C882 C884 1.320 . S
C883 C881 1.339 . S
C883 C882 1.395 . S
C883 H909 0.929 . S
C884 C882 1.320 . S
C884 C885 1.405 . S
C884 H910 0.930 . S
C885 C880 1.479 . S
C885 C884 1.405 . S
C885 H911 0.931 . S
U886 O887 2.454 . S
U886 O888 2.458 . S
U886 C889 2.984 . S
U886 C890 2.847 . S
U886 C903 2.882 . S
U886 O904 2.441 . S
U886 O905 2.420 . S
U886 O906 2.455 . S
U886 O907 2.449 . S
O887 U886 2.454 . S
O887 C889 1.353 . S
O888 U886 2.458 . S
O888 C889 1.286 . S
C889 U886 2.984 . S
C889 O887 1.353 . S
C889 O888 1.286 . S
C889 C891 1.363 . S
C890 C880 1.465 . S
C890 U886 2.847 . S
C890 O904 1.249 . S
C890 O905 1.202 . S
C891 C889 1.363 . S
C891 C893 1.408 . S
C891 C896 1.342 . S
C892 C893 1.310 . S
C892 C895 1.461 . S
C892 H912 0.932 . S
C893 C891 1.408 . S
C893 C892 1.310 . S
C893 H913 0.930 . S
C894 C895 1.474 . S
C894 C896 1.285 . S
C894 H914 0.929 . S
C895 C892 1.461 . S
C895 C894 1.474 . S
C896 C891 1.342 . S
C896 C894 1.285 . S
C896 H915 0.930 . S
C897 C900 1.424 . S
C897 C902 1.245 . S
C897 C903 1.428 . S
C898 C901 1.260 . S
C898 C902 1.477 . S
C898 H916 0.932 . S
C899 C900 1.384 . S
C899 C901 1.479 . S
C899 H917 0.929 . S
C900 C897 1.424 . S
C900 C899 1.384 . S
C900 H918 0.928 . S
C901 C898 1.260 . S
C901 C899 1.479 . S
C902 C897 1.245 . S
C902 C898 1.477 . S
C902 H919 0.932 . S
C903 U886 2.882 . S
C903 C897 1.428 . S
C903 O906 1.301 . S
C903 O907 1.282 . S
O904 U886 2.441 . S
O904 C890 1.249 . S
O905 U886 2.420 . S
O905 C890 1.202 . S
O906 U886 2.455 . S
O906 C903 1.301 . S
O907 U886 2.449 . S
O907 C903 1.282 . S
H908 C881 0.931 . S
H909 C883 0.929 . S
H910 C884 0.930 . S
H911 C885 0.931 . S
H912 C892 0.932 . S
H913 C893 0.930 . S
H914 C894 0.929 . S
H915 C896 0.930 . S
H916 C898 0.932 . S
H917 C899 0.929 . S
H918 C900 0.928 . S
H919 C902 0.932 . S
C920 C921 1.264 . S
C920 C925 1.479 . S
C920 C930 1.465 . S
C921 C920 1.264 . S
C921 C923 1.339 . S
C921 H948 0.931 . S
C922 C923 1.395 . S
C922 C924 1.320 . S
C923 C921 1.339 . S
C923 C922 1.395 . S
C923 H949 0.929 . S
C924 C922 1.320 . S
C924 C925 1.405 . S
C924 H950 0.930 . S
C925 C920 1.479 . S
C925 C924 1.405 . S
C925 H951 0.931 . S
U926 O927 2.454 . S
U926 O928 2.458 . S
U926 C929 2.984 . S
U926 C930 2.847 . S
U926 C943 2.882 . S
U926 O944 2.441 . S
U926 O945 2.420 . S
U926 O946 2.455 . S
U926 O947 2.449 . S
O927 U926 2.454 . S
O927 C929 1.353 . S
O928 U926 2.458 . S
O928 C929 1.286 . S
C929 U926 2.984 . S
C929 O927 1.353 . S
C929 O928 1.286 . S
C929 C931 1.363 . S
C930 C920 1.465 . S
C930 U926 2.847 . S
C930 O944 1.249 . S
C930 O945 1.202 . S
C931 C929 1.363 . S
C931 C933 1.408 . S
C931 C936 1.342 . S
C932 C933 1.310 . S
C932 C935 1.461 . S
C932 H952 0.932 . S
C933 C931 1.408 . S
C933 C932 1.310 . S
C933 H953 0.930 . S
C934 C935 1.474 . S
C934 C936 1.285 . S
C934 H954 0.929 . S
C935 C932 1.461 . S
C935 C934 1.474 . S
C936 C931 1.342 . S
C936 C934 1.285 . S
C936 H955 0.930 . S
C937 C940 1.424 . S
C937 C942 1.245 . S
C937 C943 1.428 . S
C938 C941 1.260 . S
C938 C942 1.477 . S
C938 H956 0.932 . S
C939 C940 1.384 . S
C939 C941 1.479 . S
C939 H957 0.929 . S
C940 C937 1.424 . S
C940 C939 1.384 . S
C940 H958 0.928 . S
C941 C938 1.260 . S
C941 C939 1.479 . S
C942 C937 1.245 . S
C942 C938 1.477 . S
C942 H959 0.932 . S
C943 U926 2.882 . S
C943 C937 1.428 . S
C943 O946 1.301 . S
C943 O947 1.282 . S
O944 U926 2.441 . S
O944 C930 1.249 . S
O945 U926 2.420 . S
O945 C930 1.202 . S
O946 U926 2.455 . S
O946 C943 1.301 . S
O947 U926 2.449 . S
O947 C943 1.282 . S
H948 C921 0.931 . S
H949 C923 0.929 . S
H950 C924 0.930 . S
H951 C925 0.931 . S
H952 C932 0.932 . S
H953 C933 0.930 . S
H954 C934 0.929 . S
H955 C936 0.930 . S
H956 C938 0.932 . S
H957 C939 0.929 . S
H958 C940 0.928 . S
H959 C942 0.932 . S
C960 C961 1.264 . S
C960 C965 1.479 . S
C960 C970 1.465 . S
C961 C960 1.264 . S
C961 C963 1.339 . S
C961 H988 0.931 . S
C962 C963 1.395 . S
C962 C964 1.320 . S
C963 C961 1.339 . S
C963 C962 1.395 . S
C963 H989 0.929 . S
C964 C962 1.320 . S
C964 C965 1.405 . S
C964 H990 0.930 . S
C965 C960 1.479 . S
C965 C964 1.405 . S
C965 H991 0.931 . S
U966 O967 2.454 . S
U966 O968 2.458 . S
U966 C969 2.984 . S
U966 C970 2.847 . S
U966 C983 2.882 . S
U966 O984 2.441 . S
U966 O985 2.420 . S
U966 O986 2.455 . S
U966 O987 2.449 . S
O967 U966 2.454 . S
O967 C969 1.353 . S
O968 U966 2.458 . S
O968 C969 1.286 . S
C969 U966 2.984 . S
C969 O967 1.353 . S
C969 O968 1.286 . S
C969 C971 1.363 . S
C970 C960 1.465 . S
C970 U966 2.847 . S
C970 O984 1.249 . S
C970 O985 1.202 . S
C971 C969 1.363 . S
C971 C973 1.408 . S
C971 C976 1.342 . S
C972 C973 1.310 . S
C972 C975 1.461 . S
C972 H992 0.932 . S
C973 C971 1.408 . S
C973 C972 1.310 . S
C973 H993 0.930 . S
C974 C975 1.474 . S
C974 C976 1.285 . S
C974 H994 0.929 . S
C975 C972 1.461 . S
C975 C974 1.474 . S
C976 C971 1.342 . S
C976 C974 1.285 . S
C976 H995 0.930 . S
C977 C980 1.424 . S
C977 C982 1.245 . S
C977 C983 1.428 . S
C978 C981 1.260 . S
C978 C982 1.477 . S
C978 H996 0.932 . S
C979 C980 1.384 . S
C979 C981 1.479 . S
C979 H997 0.929 . S
C980 C977 1.424 . S
C980 C979 1.384 . S
C980 H998 0.928 . S
C981 C978 1.260 . S
C981 C979 1.479 . S
C982 C977 1.245 . S
C982 C978 1.477 . S
C982 H999 0.932 . S
C983 U966 2.882 . S
C983 C977 1.428 . S
C983 O986 1.301 . S
C983 O987 1.282 . S
O984 U966 2.441 . S
O984 C970 1.249 . S
O985 U966 2.420 . S
O985 C970 1.202 . S
O986 U966 2.455 . S
O986 C983 1.301 . S
O987 U966 2.449 . S
O987 C983 1.282 . S
H988 C961 0.931 . S
H989 C963 0.929 . S
H990 C964 0.930 . S
H991 C965 0.931 . S
H992 C972 0.932 . S
H993 C973 0.930 . S
H994 C974 0.929 . S
H995 C976 0.930 . S
H996 C978 0.932 . S
H997 C979 0.929 . S
H998 C980 0.928 . S
H999 C982 0.932 . S
C1000 C1001 1.264 . S
C1000 C1005 1.479 . S
C1000 C1010 1.465 . S
C1001 C1000 1.264 . S
C1001 C1003 1.339 . S
C1001 H1028 0.931 . S
C1002 C1003 1.395 . S
C1002 C1004 1.320 . S
C1003 C1001 1.339 . S
C1003 C1002 1.395 . S
C1003 H1029 0.929 . S
C1004 C1002 1.320 . S
C1004 C1005 1.405 . S
C1004 H1030 0.930 . S
C1005 C1000 1.479 . S
C1005 C1004 1.405 . S
C1005 H1031 0.931 . S
U1006 O1007 2.454 . S
U1006 O1008 2.458 . S
U1006 C1009 2.984 . S
U1006 C1010 2.847 . S
U1006 C1023 2.882 . S
U1006 O1024 2.441 . S
U1006 O1025 2.420 . S
U1006 O1026 2.455 . S
U1006 O1027 2.449 . S
O1007 U1006 2.454 . S
O1007 C1009 1.353 . S
O1008 U1006 2.458 . S
O1008 C1009 1.286 . S
C1009 U1006 2.984 . S
C1009 O1007 1.353 . S
C1009 O1008 1.286 . S
C1009 C1011 1.363 . S
C1010 C1000 1.465 . S
C1010 U1006 2.847 . S
C1010 O1024 1.249 . S
C1010 O1025 1.202 . S
C1011 C1009 1.363 . S
C1011 C1013 1.408 . S
C1011 C1016 1.342 . S
C1012 C1013 1.310 . S
C1012 C1015 1.461 . S
C1012 H1032 0.932 . S
C1013 C1011 1.408 . S
C1013 C1012 1.310 . S
C1013 H1033 0.930 . S
C1014 C1015 1.474 . S
C1014 C1016 1.285 . S
C1014 H1034 0.929 . S
C1015 C1012 1.461 . S
C1015 C1014 1.474 . S
C1016 C1011 1.342 . S
C1016 C1014 1.285 . S
C1016 H1035 0.930 . S
C1017 C1020 1.424 . S
C1017 C1022 1.245 . S
C1017 C1023 1.428 . S
C1018 C1021 1.260 . S
C1018 C1022 1.477 . S
C1018 H1036 0.932 . S
C1019 C1020 1.384 . S
C1019 C1021 1.479 . S
C1019 H1037 0.929 . S
C1020 C1017 1.424 . S
C1020 C1019 1.384 . S
C1020 H1038 0.928 . S
C1021 C1018 1.260 . S
C1021 C1019 1.479 . S
C1022 C1017 1.245 . S
C1022 C1018 1.477 . S
C1022 H1039 0.932 . S
C1023 U1006 2.882 . S
C1023 C1017 1.428 . S
C1023 O1026 1.301 . S
C1023 O1027 1.282 . S
O1024 U1006 2.441 . S
O1024 C1010 1.249 . S
O1025 U1006 2.420 . S
O1025 C1010 1.202 . S
O1026 U1006 2.455 . S
O1026 C1023 1.301 . S
O1027 U1006 2.449 . S
O1027 C1023 1.282 . S
H1028 C1001 0.931 . S
H1029 C1003 0.929 . S
H1030 C1004 0.930 . S
H1031 C1005 0.931 . S
H1032 C1012 0.932 . S
H1033 C1013 0.930 . S
H1034 C1014 0.929 . S
H1035 C1016 0.930 . S
H1036 C1018 0.932 . S
H1037 C1019 0.929 . S
H1038 C1020 0.928 . S
H1039 C1022 0.932 . S
C1040 C1041 1.264 . S
C1040 C1045 1.479 . S
C1040 C1050 1.465 . S
C1041 C1040 1.264 . S
C1041 C1043 1.339 . S
C1041 H1068 0.931 . S
C1042 C1043 1.395 . S
C1042 C1044 1.320 . S
C1043 C1041 1.339 . S
C1043 C1042 1.395 . S
C1043 H1069 0.929 . S
C1044 C1042 1.320 . S
C1044 C1045 1.405 . S
C1044 H1070 0.930 . S
C1045 C1040 1.479 . S
C1045 C1044 1.405 . S
C1045 H1071 0.931 . S
U1046 O1047 2.454 . S
U1046 O1048 2.458 . S
U1046 C1049 2.984 . S
U1046 C1050 2.847 . S
U1046 C1063 2.882 . S
U1046 O1064 2.441 . S
U1046 O1065 2.420 . S
U1046 O1066 2.455 . S
U1046 O1067 2.449 . S
O1047 U1046 2.454 . S
O1047 C1049 1.353 . S
O1048 U1046 2.458 . S
O1048 C1049 1.286 . S
C1049 U1046 2.984 . S
C1049 O1047 1.353 . S
C1049 O1048 1.286 . S
C1049 C1051 1.363 . S
C1050 C1040 1.465 . S
C1050 U1046 2.847 . S
C1050 O1064 1.249 . S
C1050 O1065 1.202 . S
C1051 C1049 1.363 . S
C1051 C1053 1.408 . S
C1051 C1056 1.342 . S
C1052 C1053 1.310 . S
C1052 C1055 1.461 . S
C1052 H1072 0.932 . S
C1053 C1051 1.408 . S
C1053 C1052 1.310 . S
C1053 H1073 0.930 . S
C1054 C1055 1.474 . S
C1054 C1056 1.285 . S
C1054 H1074 0.929 . S
C1055 C1052 1.461 . S
C1055 C1054 1.474 . S
C1056 C1051 1.342 . S
C1056 C1054 1.285 . S
C1056 H1075 0.930 . S
C1057 C1060 1.424 . S
C1057 C1062 1.245 . S
C1057 C1063 1.428 . S
C1058 C1061 1.260 . S
C1058 C1062 1.477 . S
C1058 H1076 0.932 . S
C1059 C1060 1.384 . S
C1059 C1061 1.479 . S
C1059 H1077 0.929 . S
C1060 C1057 1.424 . S
C1060 C1059 1.384 . S
C1060 H1078 0.928 . S
C1061 C1058 1.260 . S
C1061 C1059 1.479 . S
C1062 C1057 1.245 . S
C1062 C1058 1.477 . S
C1062 H1079 0.932 . S
C1063 U1046 2.882 . S
C1063 C1057 1.428 . S
C1063 O1066 1.301 . S
C1063 O1067 1.282 . S
O1064 U1046 2.441 . S
O1064 C1050 1.249 . S
O1065 U1046 2.420 . S
O1065 C1050 1.202 . S
O1066 U1046 2.455 . S
O1066 C1063 1.301 . S
O1067 U1046 2.449 . S
O1067 C1063 1.282 . S
H1068 C1041 0.931 . S
H1069 C1043 0.929 . S
H1070 C1044 0.930 . S
H1071 C1045 0.931 . S
H1072 C1052 0.932 . S
H1073 C1053 0.930 . S
H1074 C1054 0.929 . S
H1075 C1056 0.930 . S
H1076 C1058 0.932 . S
H1077 C1059 0.929 . S
H1078 C1060 0.928 . S
H1079 C1062 0.932 . S
C1080 C1081 1.264 . S
C1080 C1085 1.479 . S
C1080 C1090 1.465 . S
C1081 C1080 1.264 . S
C1081 C1083 1.339 . S
C1081 H1108 0.931 . S
C1082 C1083 1.395 . S
C1082 C1084 1.320 . S
C1083 C1081 1.339 . S
C1083 C1082 1.395 . S
C1083 H1109 0.929 . S
C1084 C1082 1.320 . S
C1084 C1085 1.405 . S
C1084 H1110 0.930 . S
C1085 C1080 1.479 . S
C1085 C1084 1.405 . S
C1085 H1111 0.931 . S
U1086 O1087 2.454 . S
U1086 O1088 2.458 . S
U1086 C1089 2.984 . S
U1086 C1090 2.847 . S
U1086 C1103 2.882 . S
U1086 O1104 2.441 . S
U1086 O1105 2.420 . S
U1086 O1106 2.455 . S
U1086 O1107 2.449 . S
O1087 U1086 2.454 . S
O1087 C1089 1.353 . S
O1088 U1086 2.458 . S
O1088 C1089 1.286 . S
C1089 U1086 2.984 . S
C1089 O1087 1.353 . S
C1089 O1088 1.286 . S
C1089 C1091 1.363 . S
C1090 C1080 1.465 . S
C1090 U1086 2.847 . S
C1090 O1104 1.249 . S
C1090 O1105 1.202 . S
C1091 C1089 1.363 . S
C1091 C1093 1.408 . S
C1091 C1096 1.342 . S
C1092 C1093 1.310 . S
C1092 C1095 1.461 . S
C1092 H1112 0.932 . S
C1093 C1091 1.408 . S
C1093 C1092 1.310 . S
C1093 H1113 0.930 . S
C1094 C1095 1.474 . S
C1094 C1096 1.285 . S
C1094 H1114 0.929 . S
C1095 C1092 1.461 . S
C1095 C1094 1.474 . S
C1096 C1091 1.342 . S
C1096 C1094 1.285 . S
C1096 H1115 0.930 . S
C1097 C1100 1.424 . S
C1097 C1102 1.245 . S
C1097 C1103 1.428 . S
C1098 C1101 1.260 . S
C1098 C1102 1.477 . S
C1098 H1116 0.932 . S
C1099 C1100 1.384 . S
C1099 C1101 1.479 . S
C1099 H1117 0.929 . S
C1100 C1097 1.424 . S
C1100 C1099 1.384 . S
C1100 H1118 0.928 . S
C1101 C1098 1.260 . S
C1101 C1099 1.479 . S
C1102 C1097 1.245 . S
C1102 C1098 1.477 . S
C1102 H1119 0.932 . S
C1103 U1086 2.882 . S
C1103 C1097 1.428 . S
C1103 O1106 1.301 . S
C1103 O1107 1.282 . S
O1104 U1086 2.441 . S
O1104 C1090 1.249 . S
O1105 U1086 2.420 . S
O1105 C1090 1.202 . S
O1106 U1086 2.455 . S
O1106 C1103 1.301 . S
O1107 U1086 2.449 . S
O1107 C1103 1.282 . S
H1108 C1081 0.931 . S
H1109 C1083 0.929 . S
H1110 C1084 0.930 . S
H1111 C1085 0.931 . S
H1112 C1092 0.932 . S
H1113 C1093 0.930 . S
H1114 C1094 0.929 . S
H1115 C1096 0.930 . S
H1116 C1098 0.932 . S
H1117 C1099 0.929 . S
H1118 C1100 0.928 . S
H1119 C1102 0.932 . S
C1120 C1121 1.264 . S
C1120 C1125 1.479 . S
C1120 C1130 1.465 . S
C1121 C1120 1.264 . S
C1121 C1123 1.339 . S
C1121 H1148 0.931 . S
C1122 C1123 1.395 . S
C1122 C1124 1.320 . S
C1123 C1121 1.339 . S
C1123 C1122 1.395 . S
C1123 H1149 0.929 . S
C1124 C1122 1.320 . S
C1124 C1125 1.405 . S
C1124 H1150 0.930 . S
C1125 C1120 1.479 . S
C1125 C1124 1.405 . S
C1125 H1151 0.931 . S
U1126 O1127 2.454 . S
U1126 O1128 2.458 . S
U1126 C1129 2.984 . S
U1126 C1130 2.847 . S
U1126 C1143 2.882 . S
U1126 O1144 2.441 . S
U1126 O1145 2.420 . S
U1126 O1146 2.455 . S
U1126 O1147 2.449 . S
O1127 U1126 2.454 . S
O1127 C1129 1.353 . S
O1128 U1126 2.458 . S
O1128 C1129 1.286 . S
C1129 U1126 2.984 . S
C1129 O1127 1.353 . S
C1129 O1128 1.286 . S
C1129 C1131 1.363 . S
C1130 C1120 1.465 . S
C1130 U1126 2.847 . S
C1130 O1144 1.249 . S
C1130 O1145 1.202 . S
C1131 C1129 1.363 . S
C1131 C1133 1.408 . S
C1131 C1136 1.342 . S
C1132 C1133 1.310 . S
C1132 C1135 1.461 . S
C1132 H1152 0.932 . S
C1133 C1131 1.408 . S
C1133 C1132 1.310 . S
C1133 H1153 0.930 . S
C1134 C1135 1.474 . S
C1134 C1136 1.285 . S
C1134 H1154 0.929 . S
C1135 C1132 1.461 . S
C1135 C1134 1.474 . S
C1136 C1131 1.342 . S
C1136 C1134 1.285 . S
C1136 H1155 0.930 . S
C1137 C1140 1.424 . S
C1137 C1142 1.245 . S
C1137 C1143 1.428 . S
C1138 C1141 1.260 . S
C1138 C1142 1.477 . S
C1138 H1156 0.932 . S
C1139 C1140 1.384 . S
C1139 C1141 1.479 . S
C1139 H1157 0.929 . S
C1140 C1137 1.424 . S
C1140 C1139 1.384 . S
C1140 H1158 0.928 . S
C1141 C1138 1.260 . S
C1141 C1139 1.479 . S
C1142 C1137 1.245 . S
C1142 C1138 1.477 . S
C1142 H1159 0.932 . S
C1143 U1126 2.882 . S
C1143 C1137 1.428 . S
C1143 O1146 1.301 . S
C1143 O1147 1.282 . S
O1144 U1126 2.441 . S
O1144 C1130 1.249 . S
O1145 U1126 2.420 . S
O1145 C1130 1.202 . S
O1146 U1126 2.455 . S
O1146 C1143 1.301 . S
O1147 U1126 2.449 . S
O1147 C1143 1.282 . S
H1148 C1121 0.931 . S
H1149 C1123 0.929 . S
H1150 C1124 0.930 . S
H1151 C1125 0.931 . S
H1152 C1132 0.932 . S
H1153 C1133 0.930 . S
H1154 C1134 0.929 . S
H1155 C1136 0.930 . S
H1156 C1138 0.932 . S
H1157 C1139 0.929 . S
H1158 C1140 0.928 . S
H1159 C1142 0.932 . S
C1160 C1161 1.264 . S
C1160 C1165 1.479 . S
C1160 C1170 1.465 . S
C1161 C1160 1.264 . S
C1161 C1163 1.339 . S
C1161 H1188 0.931 . S
C1162 C1163 1.395 . S
C1162 C1164 1.320 . S
C1163 C1161 1.339 . S
C1163 C1162 1.395 . S
C1163 H1189 0.929 . S
C1164 C1162 1.320 . S
C1164 C1165 1.405 . S
C1164 H1190 0.930 . S
C1165 C1160 1.479 . S
C1165 C1164 1.405 . S
C1165 H1191 0.931 . S
U1166 O1167 2.454 . S
U1166 O1168 2.458 . S
U1166 C1169 2.984 . S
U1166 C1170 2.847 . S
U1166 C1183 2.882 . S
U1166 O1184 2.441 . S
U1166 O1185 2.420 . S
U1166 O1186 2.455 . S
U1166 O1187 2.449 . S
O1167 U1166 2.454 . S
O1167 C1169 1.353 . S
O1168 U1166 2.458 . S
O1168 C1169 1.286 . S
C1169 U1166 2.984 . S
C1169 O1167 1.353 . S
C1169 O1168 1.286 . S
C1169 C1171 1.363 . S
C1170 C1160 1.465 . S
C1170 U1166 2.847 . S
C1170 O1184 1.249 . S
C1170 O1185 1.202 . S
C1171 C1169 1.363 . S
C1171 C1173 1.408 . S
C1171 C1176 1.342 . S
C1172 C1173 1.310 . S
C1172 C1175 1.461 . S
C1172 H1192 0.932 . S
C1173 C1171 1.408 . S
C1173 C1172 1.310 . S
C1173 H1193 0.930 . S
C1174 C1175 1.474 . S
C1174 C1176 1.285 . S
C1174 H1194 0.929 . S
C1175 C1172 1.461 . S
C1175 C1174 1.474 . S
C1176 C1171 1.342 . S
C1176 C1174 1.285 . S
C1176 H1195 0.930 . S
C1177 C1180 1.424 . S
C1177 C1182 1.245 . S
C1177 C1183 1.428 . S
C1178 C1181 1.260 . S
C1178 C1182 1.477 . S
C1178 H1196 0.932 . S
C1179 C1180 1.384 . S
C1179 C1181 1.479 . S
C1179 H1197 0.929 . S
C1180 C1177 1.424 . S
C1180 C1179 1.384 . S
C1180 H1198 0.928 . S
C1181 C1178 1.260 . S
C1181 C1179 1.479 . S
C1182 C1177 1.245 . S
C1182 C1178 1.477 . S
C1182 H1199 0.932 . S
C1183 U1166 2.882 . S
C1183 C1177 1.428 . S
C1183 O1186 1.301 . S
C1183 O1187 1.282 . S
O1184 U1166 2.441 . S
O1184 C1170 1.249 . S
O1185 U1166 2.420 . S
O1185 C1170 1.202 . S
O1186 U1166 2.455 . S
O1186 C1183 1.301 . S
O1187 U1166 2.449 . S
O1187 C1183 1.282 . S
H1188 C1161 0.931 . S
H1189 C1163 0.929 . S
H1190 C1164 0.930 . S
H1191 C1165 0.931 . S
H1192 C1172 0.932 . S
H1193 C1173 0.930 . S
H1194 C1174 0.929 . S
H1195 C1176 0.930 . S
H1196 C1178 0.932 . S
H1197 C1179 0.929 . S
H1198 C1180 0.928 . S
H1199 C1182 0.932 . S
C1200 C1201 1.264 . S
C1200 C1205 1.479 . S
C1200 C1210 1.465 . S
C1201 C1200 1.264 . S
C1201 C1203 1.339 . S
C1201 H1228 0.931 . S
C1202 C1203 1.395 . S
C1202 C1204 1.320 . S
C1203 C1201 1.339 . S
C1203 C1202 1.395 . S
C1203 H1229 0.929 . S
C1204 C1202 1.320 . S
C1204 C1205 1.405 . S
C1204 H1230 0.930 . S
C1205 C1200 1.479 . S
C1205 C1204 1.405 . S
C1205 H1231 0.931 . S
U1206 O1207 2.454 . S
U1206 O1208 2.458 . S
U1206 C1209 2.984 . S
U1206 C1210 2.847 . S
U1206 C1223 2.882 . S
U1206 O1224 2.441 . S
U1206 O1225 2.420 . S
U1206 O1226 2.455 . S
U1206 O1227 2.449 . S
O1207 U1206 2.454 . S
O1207 C1209 1.353 . S
O1208 U1206 2.458 . S
O1208 C1209 1.286 . S
C1209 U1206 2.984 . S
C1209 O1207 1.353 . S
C1209 O1208 1.286 . S
C1209 C1211 1.363 . S
C1210 C1200 1.465 . S
C1210 U1206 2.847 . S
C1210 O1224 1.249 . S
C1210 O1225 1.202 . S
C1211 C1209 1.363 . S
C1211 C1213 1.408 . S
C1211 C1216 1.342 . S
C1212 C1213 1.310 . S
C1212 C1215 1.461 . S
C1212 H1232 0.932 . S
C1213 C1211 1.408 . S
C1213 C1212 1.310 . S
C1213 H1233 0.930 . S
C1214 C1215 1.474 . S
C1214 C1216 1.285 . S
C1214 H1234 0.929 . S
C1215 C1212 1.461 . S
C1215 C1214 1.474 . S
C1216 C1211 1.342 . S
C1216 C1214 1.285 . S
C1216 H1235 0.930 . S
C1217 C1220 1.424 . S
C1217 C1222 1.245 . S
C1217 C1223 1.428 . S
C1218 C1221 1.260 . S
C1218 C1222 1.477 . S
C1218 H1236 0.932 . S
C1219 C1220 1.384 . S
C1219 C1221 1.479 . S
C1219 H1237 0.929 . S
C1220 C1217 1.424 . S
C1220 C1219 1.384 . S
C1220 H1238 0.928 . S
C1221 C1218 1.260 . S
C1221 C1219 1.479 . S
C1222 C1217 1.245 . S
C1222 C1218 1.477 . S
C1222 H1239 0.932 . S
C1223 U1206 2.882 . S
C1223 C1217 1.428 . S
C1223 O1226 1.301 . S
C1223 O1227 1.282 . S
O1224 U1206 2.441 . S
O1224 C1210 1.249 . S
O1225 U1206 2.420 . S
O1225 C1210 1.202 . S
O1226 U1206 2.455 . S
O1226 C1223 1.301 . S
O1227 U1206 2.449 . S
O1227 C1223 1.282 . S
H1228 C1201 0.931 . S
H1229 C1203 0.929 . S
H1230 C1204 0.930 . S
H1231 C1205 0.931 . S
H1232 C1212 0.932 . S
H1233 C1213 0.930 . S
H1234 C1214 0.929 . S
H1235 C1216 0.930 . S
H1236 C1218 0.932 . S
H1237 C1219 0.929 . S
H1238 C1220 0.928 . S
H1239 C1222 0.932 . S
C1240 C1241 1.264 . S
C1240 C1245 1.479 . S
C1240 C1250 1.465 . S
C1241 C1240 1.264 . S
C1241 C1243 1.339 . S
C1241 H1268 0.931 . S
C1242 C1243 1.395 . S
C1242 C1244 1.320 . S
C1243 C1241 1.339 . S
C1243 C1242 1.395 . S
C1243 H1269 0.929 . S
C1244 C1242 1.320 . S
C1244 C1245 1.405 . S
C1244 H1270 0.930 . S
C1245 C1240 1.479 . S
C1245 C1244 1.405 . S
C1245 H1271 0.931 . S
U1246 O1247 2.454 . S
U1246 O1248 2.458 . S
U1246 C1249 2.984 . S
U1246 C1250 2.847 . S
U1246 C1263 2.882 . S
U1246 O1264 2.441 . S
U1246 O1265 2.420 . S
U1246 O1266 2.455 . S
U1246 O1267 2.449 . S
O1247 U1246 2.454 . S
O1247 C1249 1.353 . S
O1248 U1246 2.458 . S
O1248 C1249 1.286 . S
C1249 U1246 2.984 . S
C1249 O1247 1.353 . S
C1249 O1248 1.286 . S
C1249 C1251 1.363 . S
C1250 C1240 1.465 . S
C1250 U1246 2.847 . S
C1250 O1264 1.249 . S
C1250 O1265 1.202 . S
C1251 C1249 1.363 . S
C1251 C1253 1.408 . S
C1251 C1256 1.342 . S
C1252 C1253 1.310 . S
C1252 C1255 1.461 . S
C1252 H1272 0.932 . S
C1253 C1251 1.408 . S
C1253 C1252 1.310 . S
C1253 H1273 0.930 . S
C1254 C1255 1.474 . S
C1254 C1256 1.285 . S
C1254 H1274 0.929 . S
C1255 C1252 1.461 . S
C1255 C1254 1.474 . S
C1256 C1251 1.342 . S
C1256 C1254 1.285 . S
C1256 H1275 0.930 . S
C1257 C1260 1.424 . S
C1257 C1262 1.245 . S
C1257 C1263 1.428 . S
C1258 C1261 1.260 . S
C1258 C1262 1.477 . S
C1258 H1276 0.932 . S
C1259 C1260 1.384 . S
C1259 C1261 1.479 . S
C1259 H1277 0.929 . S
C1260 C1257 1.424 . S
C1260 C1259 1.384 . S
C1260 H1278 0.928 . S
C1261 C1258 1.260 . S
C1261 C1259 1.479 . S
C1262 C1257 1.245 . S
C1262 C1258 1.477 . S
C1262 H1279 0.932 . S
C1263 U1246 2.882 . S
C1263 C1257 1.428 . S
C1263 O1266 1.301 . S
C1263 O1267 1.282 . S
O1264 U1246 2.441 . S
O1264 C1250 1.249 . S
O1265 U1246 2.420 . S
O1265 C1250 1.202 . S
O1266 U1246 2.455 . S
O1266 C1263 1.301 . S
O1267 U1246 2.449 . S
O1267 C1263 1.282 . S
H1268 C1241 0.931 . S
H1269 C1243 0.929 . S
H1270 C1244 0.930 . S
H1271 C1245 0.931 . S
H1272 C1252 0.932 . S
H1273 C1253 0.930 . S
H1274 C1254 0.929 . S
H1275 C1256 0.930 . S
H1276 C1258 0.932 . S
H1277 C1259 0.929 . S
H1278 C1260 0.928 . S
H1279 C1262 0.932 . S
C1280 C1281 1.384 . S
C1280 C1282 1.384 . S
C1280 H1308 0.931 . S
C1281 C1280 1.384 . S
C1281 C1284 1.382 . S
C1282 C1280 1.384 . S
C1282 C1283 1.381 . S
C1282 H1309 0.930 . S
C1283 C1282 1.381 . S
C1283 C1285 1.381 . S
C1283 C1286 1.487 . S
C1284 C1281 1.382 . S
C1284 C1285 1.387 . S
C1284 H1310 0.930 . S
C1285 C1283 1.381 . S
C1285 C1284 1.387 . S
C1285 H1311 0.931 . S
C1286 C1283 1.487 . S
C1286 C1293 1.399 . S
C1286 N1324 1.343 . S
C1287 C1288 1.384 . S
C1287 C1289 1.384 . S
C1287 H1312 0.931 . S
C1288 C1287 1.384 . S
C1288 C1291 1.382 . S
C1289 C1287 1.384 . S
C1289 C1290 1.381 . S
C1289 H1313 0.930 . S
C1290 C1289 1.381 . S
C1290 C1292 1.381 . S
C1290 C1293 1.487 . S
C1291 C1288 1.382 . S
C1291 C1292 1.387 . S
C1291 H1314 0.930 . S
C1292 C1290 1.381 . S
C1292 C1291 1.387 . S
C1292 H1315 0.931 . S
C1293 C1286 1.399 . S
C1293 C1290 1.487 . S
C1293 N1325 1.343 . S
C1294 C1295 1.384 . S
C1294 C1296 1.384 . S
C1294 H1316 0.931 . S
C1295 C1294 1.384 . S
C1295 C1298 1.382 . S
C1296 C1294 1.384 . S
C1296 C1297 1.381 . S
C1296 H1317 0.930 . S
C1297 C1296 1.381 . S
C1297 C1299 1.381 . S
C1297 C1300 1.487 . S
C1298 C1295 1.382 . S
C1298 C1299 1.387 . S
C1298 H1318 0.930 . S
C1299 C1297 1.381 . S
C1299 C1298 1.387 . S
C1299 H1319 0.931 . S
C1300 C1297 1.487 . S
C1300 C1307 1.399 . S
C1300 N1325 1.343 1_556 S
C1301 C1302 1.384 . S
C1301 C1303 1.384 . S
C1301 H1320 0.931 . S
C1302 C1301 1.384 . S
C1302 C1305 1.382 . S
C1303 C1301 1.384 . S
C1303 C1304 1.381 . S
C1303 H1321 0.930 . S
C1304 C1303 1.381 . S
C1304 C1306 1.381 . S
C1304 C1307 1.487 . S
C1305 C1302 1.382 . S
C1305 C1306 1.387 . S
C1305 H1322 0.930 . S
C1306 C1304 1.381 . S
C1306 C1305 1.387 . S
C1306 H1323 0.931 . S
C1307 C1300 1.399 . S
C1307 C1304 1.487 . S
C1307 N1324 1.343 1_556 S
H1308 C1280 0.931 . S
H1309 C1282 0.930 . S
H1310 C1284 0.930 . S
H1311 C1285 0.931 . S
H1312 C1287 0.931 . S
H1313 C1289 0.930 . S
H1314 C1291 0.930 . S
H1315 C1292 0.931 . S
H1316 C1294 0.931 . S
H1317 C1296 0.930 . S
H1318 C1298 0.930 . S
H1319 C1299 0.931 . S
H1320 C1301 0.931 . S
H1321 C1303 0.930 . S
H1322 C1305 0.930 . S
H1323 C1306 0.931 . S
N1324 C1286 1.343 . S
N1324 C1307 1.343 1_554 S
N1325 C1293 1.343 . S
N1325 C1300 1.343 1_554 S
C1326 C1327 1.384 . S
C1326 C1328 1.384 . S
C1326 H1354 0.931 . S
C1327 C1326 1.384 . S
C1327 C1330 1.382 . S
C1328 C1326 1.384 . S
C1328 C1329 1.381 . S
C1328 H1355 0.930 . S
C1329 C1328 1.381 . S
C1329 C1331 1.381 . S
C1329 C1332 1.487 . S
C1330 C1327 1.382 . S
C1330 C1331 1.387 . S
C1330 H1356 0.930 . S
C1331 C1329 1.381 . S
C1331 C1330 1.387 . S
C1331 H1357 0.931 . S
C1332 C1329 1.487 . S
C1332 C1339 1.399 . S
C1332 N1370 1.343 1_556 S
C1333 C1334 1.384 . S
C1333 C1335 1.384 . S
C1333 H1358 0.931 . S
C1334 C1333 1.384 . S
C1334 C1337 1.382 . S
C1335 C1333 1.384 . S
C1335 C1336 1.381 . S
C1335 H1359 0.930 . S
C1336 C1335 1.381 . S
C1336 C1338 1.381 . S
C1336 C1339 1.487 . S
C1337 C1334 1.382 . S
C1337 C1338 1.387 . S
C1337 H1360 0.930 . S
C1338 C1336 1.381 . S
C1338 C1337 1.387 . S
C1338 H1361 0.931 . S
C1339 C1332 1.399 . S
C1339 C1336 1.487 . S
C1339 N1371 1.343 1_556 S
C1340 C1341 1.384 . S
C1340 C1342 1.384 . S
C1340 H1362 0.931 . S
C1341 C1340 1.384 . S
C1341 C1344 1.382 . S
C1342 C1340 1.384 . S
C1342 C1343 1.381 . S
C1342 H1363 0.930 . S
C1343 C1342 1.381 . S
C1343 C1345 1.381 . S
C1343 C1346 1.487 . S
C1344 C1341 1.382 . S
C1344 C1345 1.387 . S
C1344 H1364 0.930 . S
C1345 C1343 1.381 . S
C1345 C1344 1.387 . S
C1345 H1365 0.931 . S
C1346 C1343 1.487 . S
C1346 C1353 1.399 . S
C1346 N1371 1.343 . S
C1347 C1348 1.384 . S
C1347 C1349 1.384 . S
C1347 H1366 0.931 . S
C1348 C1347 1.384 . S
C1348 C1351 1.382 . S
C1349 C1347 1.384 . S
C1349 C1350 1.381 . S
C1349 H1367 0.930 . S
C1350 C1349 1.381 . S
C1350 C1352 1.381 . S
C1350 C1353 1.487 . S
C1351 C1348 1.382 . S
C1351 C1352 1.387 . S
C1351 H1368 0.930 . S
C1352 C1350 1.381 . S
C1352 C1351 1.387 . S
C1352 H1369 0.931 . S
C1353 C1346 1.399 . S
C1353 C1350 1.487 . S
C1353 N1370 1.343 . S
H1354 C1326 0.931 . S
H1355 C1328 0.930 . S
H1356 C1330 0.930 . S
H1357 C1331 0.931 . S
H1358 C1333 0.931 . S
H1359 C1335 0.930 . S
H1360 C1337 0.930 . S
H1361 C1338 0.931 . S
H1362 C1340 0.931 . S
H1363 C1342 0.930 . S
H1364 C1344 0.930 . S
H1365 C1345 0.931 . S
H1366 C1347 0.931 . S
H1367 C1349 0.930 . S
H1368 C1351 0.930 . S
H1369 C1352 0.931 . S
N1370 C1332 1.343 1_554 S
N1370 C1353 1.343 . S
N1371 C1339 1.343 1_554 S
N1371 C1346 1.343 . S
C1372 C1373 1.384 . S
C1372 C1374 1.384 . S
C1372 H1400 0.931 . S
C1373 C1372 1.384 . S
C1373 C1376 1.382 . S
C1374 C1372 1.384 . S
C1374 C1375 1.381 . S
C1374 H1401 0.930 . S
C1375 C1374 1.381 . S
C1375 C1377 1.381 . S
C1375 C1378 1.487 . S
C1376 C1373 1.382 . S
C1376 C1377 1.387 . S
C1376 H1402 0.930 . S
C1377 C1375 1.381 . S
C1377 C1376 1.387 . S
C1377 H1403 0.931 . S
C1378 C1375 1.487 . S
C1378 C1385 1.399 . S
C1378 N1416 1.343 . S
C1379 C1380 1.384 . S
C1379 C1381 1.384 . S
C1379 H1404 0.931 . S
C1380 C1379 1.384 . S
C1380 C1383 1.382 . S
C1381 C1379 1.384 . S
C1381 C1382 1.381 . S
C1381 H1405 0.930 . S
C1382 C1381 1.381 . S
C1382 C1384 1.381 . S
C1382 C1385 1.487 . S
C1383 C1380 1.382 . S
C1383 C1384 1.387 . S
C1383 H1406 0.930 . S
C1384 C1382 1.381 . S
C1384 C1383 1.387 . S
C1384 H1407 0.931 . S
C1385 C1378 1.399 . S
C1385 C1382 1.487 . S
C1385 N1417 1.343 . S
C1386 C1387 1.384 . S
C1386 C1388 1.384 . S
C1386 H1408 0.931 . S
C1387 C1386 1.384 . S
C1387 C1390 1.382 . S
C1388 C1386 1.384 . S
C1388 C1389 1.381 . S
C1388 H1409 0.930 . S
C1389 C1388 1.381 . S
C1389 C1391 1.381 . S
C1389 C1392 1.487 . S
C1390 C1387 1.382 . S
C1390 C1391 1.387 . S
C1390 H1410 0.930 . S
C1391 C1389 1.381 . S
C1391 C1390 1.387 . S
C1391 H1411 0.931 . S
C1392 C1389 1.487 . S
C1392 C1399 1.399 . S
C1392 N1417 1.343 1_556 S
C1393 C1394 1.384 . S
C1393 C1395 1.384 . S
C1393 H1412 0.931 . S
C1394 C1393 1.384 . S
C1394 C1397 1.382 . S
C1395 C1393 1.384 . S
C1395 C1396 1.381 . S
C1395 H1413 0.930 . S
C1396 C1395 1.381 . S
C1396 C1398 1.381 . S
C1396 C1399 1.487 . S
C1397 C1394 1.382 . S
C1397 C1398 1.387 . S
C1397 H1414 0.930 . S
C1398 C1396 1.381 . S
C1398 C1397 1.387 . S
C1398 H1415 0.931 . S
C1399 C1392 1.399 . S
C1399 C1396 1.487 . S
C1399 N1416 1.343 1_556 S
H1400 C1372 0.931 . S
H1401 C1374 0.930 . S
H1402 C1376 0.930 . S
H1403 C1377 0.931 . S
H1404 C1379 0.931 . S
H1405 C1381 0.930 . S
H1406 C1383 0.930 . S
H1407 C1384 0.931 . S
H1408 C1386 0.931 . S
H1409 C1388 0.930 . S
H1410 C1390 0.930 . S
H1411 C1391 0.931 . S
H1412 C1393 0.931 . S
H1413 C1395 0.930 . S
H1414 C1397 0.930 . S
H1415 C1398 0.931 . S
N1416 C1378 1.343 . S
N1416 C1399 1.343 1_554 S
N1417 C1385 1.343 . S
N1417 C1392 1.343 1_554 S
C1418 C1419 1.384 . S
C1418 C1420 1.384 . S
C1418 H1446 0.931 . S
C1419 C1418 1.384 . S
C1419 C1422 1.382 . S
C1420 C1418 1.384 . S
C1420 C1421 1.381 . S
C1420 H1447 0.930 . S
C1421 C1420 1.381 . S
C1421 C1423 1.381 . S
C1421 C1424 1.487 . S
C1422 C1419 1.382 . S
C1422 C1423 1.387 . S
C1422 H1448 0.930 . S
C1423 C1421 1.381 . S
C1423 C1422 1.387 . S
C1423 H1449 0.931 . S
C1424 C1421 1.487 . S
C1424 C1431 1.399 . S
C1424 N1462 1.343 1_556 S
C1425 C1426 1.384 . S
C1425 C1427 1.384 . S
C1425 H1450 0.931 . S
C1426 C1425 1.384 . S
C1426 C1429 1.382 . S
C1427 C1425 1.384 . S
C1427 C1428 1.381 . S
C1427 H1451 0.930 . S
C1428 C1427 1.381 . S
C1428 C1430 1.381 . S
C1428 C1431 1.487 . S
C1429 C1426 1.382 . S
C1429 C1430 1.387 . S
C1429 H1452 0.930 . S
C1430 C1428 1.381 . S
C1430 C1429 1.387 . S
C1430 H1453 0.931 . S
C1431 C1424 1.399 . S
C1431 C1428 1.487 . S
C1431 N1463 1.343 1_556 S
C1432 C1433 1.384 . S
C1432 C1434 1.384 . S
C1432 H1454 0.931 . S
C1433 C1432 1.384 . S
C1433 C1436 1.382 . S
C1434 C1432 1.384 . S
C1434 C1435 1.381 . S
C1434 H1455 0.930 . S
C1435 C1434 1.381 . S
C1435 C1437 1.381 . S
C1435 C1438 1.487 . S
C1436 C1433 1.382 . S
C1436 C1437 1.387 . S
C1436 H1456 0.930 . S
C1437 C1435 1.381 . S
C1437 C1436 1.387 . S
C1437 H1457 0.931 . S
C1438 C1435 1.487 . S
C1438 C1445 1.399 . S
C1438 N1463 1.343 . S
C1439 C1440 1.384 . S
C1439 C1441 1.384 . S
C1439 H1458 0.931 . S
C1440 C1439 1.384 . S
C1440 C1443 1.382 . S
C1441 C1439 1.384 . S
C1441 C1442 1.381 . S
C1441 H1459 0.930 . S
C1442 C1441 1.381 . S
C1442 C1444 1.381 . S
C1442 C1445 1.487 . S
C1443 C1440 1.382 . S
C1443 C1444 1.387 . S
C1443 H1460 0.930 . S
C1444 C1442 1.381 . S
C1444 C1443 1.387 . S
C1444 H1461 0.931 . S
C1445 C1438 1.399 . S
C1445 C1442 1.487 . S
C1445 N1462 1.343 . S
H1446 C1418 0.931 . S
H1447 C1420 0.930 . S
H1448 C1422 0.930 . S
H1449 C1423 0.931 . S
H1450 C1425 0.931 . S
H1451 C1427 0.930 . S
H1452 C1429 0.930 . S
H1453 C1430 0.931 . S
H1454 C1432 0.931 . S
H1455 C1434 0.930 . S
H1456 C1436 0.930 . S
H1457 C1437 0.931 . S
H1458 C1439 0.931 . S
H1459 C1441 0.930 . S
H1460 C1443 0.930 . S
H1461 C1444 0.931 . S
N1462 C1424 1.343 1_554 S
N1462 C1445 1.343 . S
N1463 C1431 1.343 1_554 S
N1463 C1438 1.343 . S
C1464 C1465 1.384 . S
C1464 C1466 1.384 . S
C1464 H1492 0.931 . S
C1465 C1464 1.384 . S
C1465 C1468 1.382 . S
C1466 C1464 1.384 . S
C1466 C1467 1.381 . S
C1466 H1493 0.930 . S
C1467 C1466 1.381 . S
C1467 C1469 1.381 . S
C1467 C1470 1.487 . S
C1468 C1465 1.382 . S
C1468 C1469 1.387 . S
C1468 H1494 0.930 . S
C1469 C1467 1.381 . S
C1469 C1468 1.387 . S
C1469 H1495 0.931 . S
C1470 C1467 1.487 . S
C1470 C1477 1.399 . S
C1470 N1508 1.343 1_655 S
C1471 C1472 1.384 . S
C1471 C1473 1.384 . S
C1471 H1496 0.931 . S
C1472 C1471 1.384 . S
C1472 C1475 1.382 . S
C1473 C1471 1.384 . S
C1473 C1474 1.381 . S
C1473 H1497 0.930 . S
C1474 C1473 1.381 . S
C1474 C1476 1.381 . S
C1474 C1477 1.487 . S
C1475 C1472 1.382 . S
C1475 C1476 1.387 . S
C1475 H1498 0.930 . S
C1476 C1474 1.381 . S
C1476 C1475 1.387 . S
C1476 H1499 0.931 . S
C1477 C1470 1.399 . S
C1477 C1474 1.487 . S
C1477 N1509 1.343 1_655 S
C1478 C1479 1.384 . S
C1478 C1480 1.384 . S
C1478 H1500 0.931 . S
C1479 C1478 1.384 . S
C1479 C1482 1.382 . S
C1480 C1478 1.384 . S
C1480 C1481 1.381 . S
C1480 H1501 0.930 . S
C1481 C1480 1.381 . S
C1481 C1483 1.381 . S
C1481 C1484 1.487 . S
C1482 C1479 1.382 . S
C1482 C1483 1.387 . S
C1482 H1502 0.930 . S
C1483 C1481 1.381 . S
C1483 C1482 1.387 . S
C1483 H1503 0.931 . S
C1484 C1481 1.487 . S
C1484 C1491 1.399 . S
C1484 N1509 1.343 . S
C1485 C1486 1.384 . S
C1485 C1487 1.384 . S
C1485 H1504 0.931 . S
C1486 C1485 1.384 . S
C1486 C1489 1.382 . S
C1487 C1485 1.384 . S
C1487 C1488 1.381 . S
C1487 H1505 0.930 . S
C1488 C1487 1.381 . S
C1488 C1490 1.381 . S
C1488 C1491 1.487 . S
C1489 C1486 1.382 . S
C1489 C1490 1.387 . S
C1489 H1506 0.930 . S
C1490 C1488 1.381 . S
C1490 C1489 1.387 . S
C1490 H1507 0.931 . S
C1491 C1484 1.399 . S
C1491 C1488 1.487 . S
C1491 N1508 1.343 . S
H1492 C1464 0.931 . S
H1493 C1466 0.930 . S
H1494 C1468 0.930 . S
H1495 C1469 0.931 . S
H1496 C1471 0.931 . S
H1497 C1473 0.930 . S
H1498 C1475 0.930 . S
H1499 C1476 0.931 . S
H1500 C1478 0.931 . S
H1501 C1480 0.930 . S
H1502 C1482 0.930 . S
H1503 C1483 0.931 . S
H1504 C1485 0.931 . S
H1505 C1487 0.930 . S
H1506 C1489 0.930 . S
H1507 C1490 0.931 . S
N1508 C1470 1.343 1_455 S
N1508 C1491 1.343 . S
N1509 C1477 1.343 1_455 S
N1509 C1484 1.343 . S
C1510 C1511 1.384 . S
C1510 C1512 1.384 . S
C1510 H1538 0.931 . S
C1511 C1510 1.384 . S
C1511 C1514 1.382 . S
C1512 C1510 1.384 . S
C1512 C1513 1.381 . S
C1512 H1539 0.930 . S
C1513 C1512 1.381 . S
C1513 C1515 1.381 . S
C1513 C1516 1.487 . S
C1514 C1511 1.382 . S
C1514 C1515 1.387 . S
C1514 H1540 0.930 . S
C1515 C1513 1.381 . S
C1515 C1514 1.387 . S
C1515 H1541 0.931 . S
C1516 C1513 1.487 . S
C1516 C1523 1.399 . S
C1516 N1554 1.283 1_565 S
C1517 C1518 1.384 . S
C1517 C1519 1.384 . S
C1517 H1542 0.931 . S
C1518 C1517 1.384 . S
C1518 C1521 1.382 . S
C1519 C1517 1.384 . S
C1519 C1520 1.381 . S
C1519 H1543 0.930 . S
C1520 C1519 1.381 . S
C1520 C1522 1.381 . S
C1520 C1523 1.487 . S
C1521 C1518 1.382 . S
C1521 C1522 1.387 . S
C1521 H1544 0.930 . S
C1522 C1520 1.381 . S
C1522 C1521 1.387 . S
C1522 H1545 0.931 . S
C1523 C1516 1.399 . S
C1523 C1520 1.487 . S
C1523 N1555 1.343 1_565 S
C1524 C1525 1.384 . S
C1524 C1526 1.384 . S
C1524 H1546 0.931 . S
C1525 C1524 1.384 . S
C1525 C1528 1.382 . S
C1526 C1524 1.384 . S
C1526 C1527 1.381 . S
C1526 H1547 0.930 . S
C1527 C1526 1.381 . S
C1527 C1529 1.381 . S
C1527 C1530 1.487 . S
C1528 C1525 1.382 . S
C1528 C1529 1.387 . S
C1528 H1548 0.930 . S
C1529 C1527 1.381 . S
C1529 C1528 1.387 . S
C1529 H1549 0.931 . S
C1530 C1527 1.487 . S
C1530 C1537 1.399 . S
C1530 N1555 1.343 . S
C1531 C1532 1.384 . S
C1531 C1533 1.384 . S
C1531 H1550 0.931 . S
C1532 C1531 1.384 . S
C1532 C1535 1.382 . S
C1533 C1531 1.384 . S
C1533 C1534 1.381 . S
C1533 H1551 0.930 . S
C1534 C1533 1.381 . S
C1534 C1536 1.381 . S
C1534 C1537 1.487 . S
C1535 C1532 1.382 . S
C1535 C1536 1.387 . S
C1535 H1552 0.930 . S
C1536 C1534 1.381 . S
C1536 C1535 1.387 . S
C1536 H1553 0.931 . S
C1537 C1530 1.399 . S
C1537 C1534 1.487 . S
C1537 N1554 1.404 . S
H1538 C1510 0.931 . S
H1539 C1512 0.930 . S
H1540 C1514 0.930 . S
H1541 C1515 0.931 . S
H1542 C1517 0.931 . S
H1543 C1519 0.930 . S
H1544 C1521 0.930 . S
H1545 C1522 0.931 . S
H1546 C1524 0.931 . S
H1547 C1526 0.930 . S
H1548 C1528 0.930 . S
H1549 C1529 0.931 . S
H1550 C1531 0.931 . S
H1551 C1533 0.930 . S
H1552 C1535 0.930 . S
H1553 C1536 0.931 . S
N1554 C1516 1.283 1_545 S
N1554 C1537 1.404 . S
N1555 C1523 1.343 1_545 S
N1555 C1530 1.343 . S
C1556 C1557 1.384 . S
C1556 C1558 1.384 . S
C1556 H1584 0.931 . S
C1557 C1556 1.384 . S
C1557 C1560 1.382 . S
C1558 C1556 1.384 . S
C1558 C1559 1.381 . S
C1558 H1585 0.930 . S
C1559 C1558 1.381 . S
C1559 C1561 1.381 . S
C1559 C1562 1.487 . S
C1560 C1557 1.382 . S
C1560 C1561 1.387 . S
C1560 H1586 0.930 . S
C1561 C1559 1.381 . S
C1561 C1560 1.387 . S
C1561 H1587 0.931 . S
C1562 C1559 1.487 . S
C1562 C1569 1.399 . S
C1562 N1600 1.343 . S
C1563 C1564 1.384 . S
C1563 C1565 1.384 . S
C1563 H1588 0.931 . S
C1564 C1563 1.384 . S
C1564 C1567 1.382 . S
C1565 C1563 1.384 . S
C1565 C1566 1.381 . S
C1565 H1589 0.930 . S
C1566 C1565 1.381 . S
C1566 C1568 1.381 . S
C1566 C1569 1.487 . S
C1567 C1564 1.382 . S
C1567 C1568 1.387 . S
C1567 H1590 0.930 . S
C1568 C1566 1.381 . S
C1568 C1567 1.387 . S
C1568 H1591 0.931 . S
C1569 C1562 1.399 . S
C1569 C1566 1.487 . S
C1569 N1601 1.425 . S
C1570 C1571 1.384 . S
C1570 C1572 1.384 . S
C1570 H1592 0.931 . S
C1571 C1570 1.384 . S
C1571 C1574 1.382 . S
C1572 C1570 1.384 . S
C1572 C1573 1.381 . S
C1572 H1593 0.930 . S
C1573 C1572 1.381 . S
C1573 C1575 1.381 . S
C1573 C1576 1.487 . S
C1574 C1571 1.382 . S
C1574 C1575 1.387 . S
C1574 H1594 0.930 . S
C1575 C1573 1.381 . S
C1575 C1574 1.387 . S
C1575 H1595 0.931 . S
C1576 C1573 1.487 . S
C1576 C1583 1.399 . S
C1576 N1601 1.263 1_655 S
C1577 C1578 1.384 . S
C1577 C1579 1.384 . S
C1577 H1596 0.931 . S
C1578 C1577 1.384 . S
C1578 C1581 1.382 . S
C1579 C1577 1.384 . S
C1579 C1580 1.381 . S
C1579 H1597 0.930 . S
C1580 C1579 1.381 . S
C1580 C1582 1.381 . S
C1580 C1583 1.487 . S
C1581 C1578 1.382 . S
C1581 C1582 1.387 . S
C1581 H1598 0.930 . S
C1582 C1580 1.381 . S
C1582 C1581 1.387 . S
C1582 H1599 0.931 . S
C1583 C1576 1.399 . S
C1583 C1580 1.487 . S
C1583 N1600 1.343 1_655 S
H1584 C1556 0.931 . S
H1585 C1558 0.930 . S
H1586 C1560 0.930 . S
H1587 C1561 0.931 . S
H1588 C1563 0.931 . S
H1589 C1565 0.930 . S
H1590 C1567 0.930 . S
H1591 C1568 0.931 . S
H1592 C1570 0.931 . S
H1593 C1572 0.930 . S
H1594 C1574 0.930 . S
H1595 C1575 0.931 . S
H1596 C1577 0.931 . S
H1597 C1579 0.930 . S
H1598 C1581 0.930 . S
H1599 C1582 0.931 . S
N1600 C1562 1.343 . S
N1600 C1583 1.343 1_455 S
N1601 C1569 1.425 . S
N1601 C1576 1.263 1_455 S
C1602 C1603 1.384 . S
C1602 C1604 1.384 . S
C1602 H1630 0.931 . S
C1603 C1602 1.384 . S
C1603 C1606 1.382 . S
C1604 C1602 1.384 . S
C1604 C1605 1.381 . S
C1604 H1631 0.930 . S
C1605 C1604 1.381 . S
C1605 C1607 1.381 . S
C1605 C1608 1.487 . S
C1606 C1603 1.382 . S
C1606 C1607 1.387 . S
C1606 H1632 0.930 . S
C1607 C1605 1.381 . S
C1607 C1606 1.387 . S
C1607 H1633 0.931 . S
C1608 C1605 1.487 . S
C1608 C1615 1.399 . S
C1608 N1646 1.343 1_565 S
C1609 C1610 1.384 . S
C1609 C1611 1.384 . S
C1609 H1634 0.931 . S
C1610 C1609 1.384 . S
C1610 C1613 1.382 . S
C1611 C1609 1.384 . S
C1611 C1612 1.381 . S
C1611 H1635 0.930 . S
C1612 C1611 1.381 . S
C1612 C1614 1.381 . S
C1612 C1615 1.487 . S
C1613 C1610 1.382 . S
C1613 C1614 1.387 . S
C1613 H1636 0.930 . S
C1614 C1612 1.381 . S
C1614 C1613 1.387 . S
C1614 H1637 0.931 . S
C1615 C1608 1.399 . S
C1615 C1612 1.487 . S
C1615 N1647 1.343 1_565 S
C1616 C1617 1.384 . S
C1616 C1618 1.384 . S
C1616 H1638 0.931 . S
C1617 C1616 1.384 . S
C1617 C1620 1.382 . S
C1618 C1616 1.384 . S
C1618 C1619 1.381 . S
C1618 H1639 0.930 . S
C1619 C1618 1.381 . S
C1619 C1621 1.381 . S
C1619 C1622 1.487 . S
C1620 C1617 1.382 . S
C1620 C1621 1.387 . S
C1620 H1640 0.930 . S
C1621 C1619 1.381 . S
C1621 C1620 1.387 . S
C1621 H1641 0.931 . S
C1622 C1619 1.487 . S
C1622 C1629 1.399 . S
C1622 N1647 1.343 . S
C1623 C1624 1.384 . S
C1623 C1625 1.384 . S
C1623 H1642 0.931 . S
C1624 C1623 1.384 . S
C1624 C1627 1.382 . S
C1625 C1623 1.384 . S
C1625 C1626 1.381 . S
C1625 H1643 0.930 . S
C1626 C1625 1.381 . S
C1626 C1628 1.381 . S
C1626 C1629 1.487 . S
C1627 C1624 1.382 . S
C1627 C1628 1.387 . S
C1627 H1644 0.930 . S
C1628 C1626 1.381 . S
C1628 C1627 1.387 . S
C1628 H1645 0.931 . S
C1629 C1622 1.399 . S
C1629 C1626 1.487 . S
C1629 N1646 1.343 . S
H1630 C1602 0.931 . S
H1631 C1604 0.930 . S
H1632 C1606 0.930 . S
H1633 C1607 0.931 . S
H1634 C1609 0.931 . S
H1635 C1611 0.930 . S
H1636 C1613 0.930 . S
H1637 C1614 0.931 . S
H1638 C1616 0.931 . S
H1639 C1618 0.930 . S
H1640 C1620 0.930 . S
H1641 C1621 0.931 . S
H1642 C1623 0.931 . S
H1643 C1625 0.930 . S
H1644 C1627 0.930 . S
H1645 C1628 0.931 . S
N1646 C1608 1.343 1_545 S
N1646 C1629 1.343 . S
N1647 C1615 1.343 1_545 S
N1647 C1622 1.343 . S
C1648 C1649 1.384 . S
C1648 C1650 1.384 . S
C1648 H1676 0.931 . S
C1649 C1648 1.384 . S
C1649 C1652 1.382 . S
C1650 C1648 1.384 . S
C1650 C1651 1.381 . S
C1650 H1677 0.930 . S
C1651 C1650 1.381 . S
C1651 C1653 1.381 . S
C1651 C1654 1.487 . S
C1652 C1649 1.382 . S
C1652 C1653 1.387 . S
C1652 H1678 0.930 . S
C1653 C1651 1.381 . S
C1653 C1652 1.387 . S
C1653 H1679 0.931 . S
C1654 C1651 1.487 . S
C1654 C1661 1.399 . S
C1654 N1692 1.343 1_655 S
C1655 C1656 1.384 . S
C1655 C1657 1.384 . S
C1655 H1680 0.931 . S
C1656 C1655 1.384 . S
C1656 C1659 1.382 . S
C1657 C1655 1.384 . S
C1657 C1658 1.381 . S
C1657 H1681 0.930 . S
C1658 C1657 1.381 . S
C1658 C1660 1.381 . S
C1658 C1661 1.487 . S
C1659 C1656 1.382 . S
C1659 C1660 1.387 . S
C1659 H1682 0.930 . S
C1660 C1658 1.381 . S
C1660 C1659 1.387 . S
C1660 H1683 0.931 . S
C1661 C1654 1.399 . S
C1661 C1658 1.487 . S
C1661 N1693 1.343 1_655 S
C1662 C1663 1.384 . S
C1662 C1664 1.384 . S
C1662 H1684 0.931 . S
C1663 C1662 1.384 . S
C1663 C1666 1.382 . S
C1664 C1662 1.384 . S
C1664 C1665 1.381 . S
C1664 H1685 0.930 . S
C1665 C1664 1.381 . S
C1665 C1667 1.381 . S
C1665 C1668 1.487 . S
C1666 C1663 1.382 . S
C1666 C1667 1.387 . S
C1666 H1686 0.930 . S
C1667 C1665 1.381 . S
C1667 C1666 1.387 . S
C1667 H1687 0.931 . S
C1668 C1665 1.487 . S
C1668 C1675 1.399 . S
C1668 N1693 1.343 . S
C1669 C1670 1.384 . S
C1669 C1671 1.384 . S
C1669 H1688 0.931 . S
C1670 C1669 1.384 . S
C1670 C1673 1.382 . S
C1671 C1669 1.384 . S
C1671 C1672 1.381 . S
C1671 H1689 0.930 . S
C1672 C1671 1.381 . S
C1672 C1674 1.381 . S
C1672 C1675 1.487 . S
C1673 C1670 1.382 . S
C1673 C1674 1.387 . S
C1673 H1690 0.930 . S
C1674 C1672 1.381 . S
C1674 C1673 1.387 . S
C1674 H1691 0.931 . S
C1675 C1668 1.399 . S
C1675 C1672 1.487 . S
C1675 N1692 1.343 . S
H1676 C1648 0.931 . S
H1677 C1650 0.930 . S
H1678 C1652 0.930 . S
H1679 C1653 0.931 . S
H1680 C1655 0.931 . S
H1681 C1657 0.930 . S
H1682 C1659 0.930 . S
H1683 C1660 0.931 . S
H1684 C1662 0.931 . S
H1685 C1664 0.930 . S
H1686 C1666 0.930 . S
H1687 C1667 0.931 . S
H1688 C1669 0.931 . S
H1689 C1671 0.930 . S
H1690 C1673 0.930 . S
H1691 C1674 0.931 . S
N1692 C1654 1.343 1_455 S
N1692 C1675 1.343 . S
N1693 C1661 1.343 1_455 S
N1693 C1668 1.343 . S
C1694 C1695 1.384 . S
C1694 C1696 1.384 . S
C1694 H1722 0.931 . S
C1695 C1694 1.384 . S
C1695 C1698 1.382 . S
C1696 C1694 1.384 . S
C1696 C1697 1.381 . S
C1696 H1723 0.930 . S
C1697 C1696 1.381 . S
C1697 C1699 1.381 . S
C1697 C1700 1.487 . S
C1698 C1695 1.382 . S
C1698 C1699 1.387 . S
C1698 H1724 0.930 . S
C1699 C1697 1.381 . S
C1699 C1698 1.387 . S
C1699 H1725 0.931 . S
C1700 C1697 1.487 . S
C1700 C1707 1.399 . S
C1700 N1738 1.282 1_565 S
C1701 C1702 1.384 . S
C1701 C1703 1.384 . S
C1701 H1726 0.931 . S
C1702 C1701 1.384 . S
C1702 C1705 1.382 . S
C1703 C1701 1.384 . S
C1703 C1704 1.381 . S
C1703 H1727 0.930 . S
C1704 C1703 1.381 . S
C1704 C1706 1.381 . S
C1704 C1707 1.487 . S
C1705 C1702 1.382 . S
C1705 C1706 1.387 . S
C1705 H1728 0.930 . S
C1706 C1704 1.381 . S
C1706 C1705 1.387 . S
C1706 H1729 0.931 . S
C1707 C1700 1.399 . S
C1707 C1704 1.487 . S
C1707 N1739 1.343 1_565 S
C1708 C1709 1.384 . S
C1708 C1710 1.384 . S
C1708 H1730 0.931 . S
C1709 C1708 1.384 . S
C1709 C1712 1.382 . S
C1710 C1708 1.384 . S
C1710 C1711 1.381 . S
C1710 H1731 0.930 . S
C1711 C1710 1.381 . S
C1711 C1713 1.381 . S
C1711 C1714 1.487 . S
C1712 C1709 1.382 . S
C1712 C1713 1.387 . S
C1712 H1732 0.930 . S
C1713 C1711 1.381 . S
C1713 C1712 1.387 . S
C1713 H1733 0.931 . S
C1714 C1711 1.487 . S
C1714 C1721 1.399 . S
C1714 N1739 1.343 . S
C1715 C1716 1.384 . S
C1715 C1717 1.384 . S
C1715 H1734 0.931 . S
C1716 C1715 1.384 . S
C1716 C1719 1.382 . S
C1717 C1715 1.384 . S
C1717 C1718 1.381 . S
C1717 H1735 0.930 . S
C1718 C1717 1.381 . S
C1718 C1720 1.381 . S
C1718 C1721 1.487 . S
C1719 C1716 1.382 . S
C1719 C1720 1.387 . S
C1719 H1736 0.930 . S
C1720 C1718 1.381 . S
C1720 C1719 1.387 . S
C1720 H1737 0.931 . S
C1721 C1714 1.399 . S
C1721 C1718 1.487 . S
C1721 N1738 1.405 . S
H1722 C1694 0.931 . S
H1723 C1696 0.930 . S
H1724 C1698 0.930 . S
H1725 C1699 0.931 . S
H1726 C1701 0.931 . S
H1727 C1703 0.930 . S
H1728 C1705 0.930 . S
H1729 C1706 0.931 . S
H1730 C1708 0.931 . S
H1731 C1710 0.930 . S
H1732 C1712 0.930 . S
H1733 C1713 0.931 . S
H1734 C1715 0.931 . S
H1735 C1717 0.930 . S
H1736 C1719 0.930 . S
H1737 C1720 0.931 . S
N1738 C1700 1.282 1_545 S
N1738 C1721 1.405 . S
N1739 C1707 1.343 1_545 S
N1739 C1714 1.343 . S
C1740 C1741 1.384 . S
C1740 C1742 1.384 . S
C1740 H1768 0.931 . S
C1741 C1740 1.384 . S
C1741 C1744 1.382 . S
C1742 C1740 1.384 . S
C1742 C1743 1.381 . S
C1742 H1769 0.930 . S
C1743 C1742 1.381 . S
C1743 C1745 1.381 . S
C1743 C1746 1.487 . S
C1744 C1741 1.382 . S
C1744 C1745 1.387 . S
C1744 H1770 0.930 . S
C1745 C1743 1.381 . S
C1745 C1744 1.387 . S
C1745 H1771 0.931 . S
C1746 C1743 1.487 . S
C1746 C1753 1.399 . S
C1746 N1784 1.343 . S
C1747 C1748 1.384 . S
C1747 C1749 1.384 . S
C1747 H1772 0.931 . S
C1748 C1747 1.384 . S
C1748 C1751 1.382 . S
C1749 C1747 1.384 . S
C1749 C1750 1.381 . S
C1749 H1773 0.930 . S
C1750 C1749 1.381 . S
C1750 C1752 1.381 . S
C1750 C1753 1.487 . S
C1751 C1748 1.382 . S
C1751 C1752 1.387 . S
C1751 H1774 0.930 . S
C1752 C1750 1.381 . S
C1752 C1751 1.387 . S
C1752 H1775 0.931 . S
C1753 C1746 1.399 . S
C1753 C1750 1.487 . S
C1753 N1785 1.426 . S
C1754 C1755 1.384 . S
C1754 C1756 1.384 . S
C1754 H1776 0.931 . S
C1755 C1754 1.384 . S
C1755 C1758 1.382 . S
C1756 C1754 1.384 . S
C1756 C1757 1.381 . S
C1756 H1777 0.930 . S
C1757 C1756 1.381 . S
C1757 C1759 1.381 . S
C1757 C1760 1.487 . S
C1758 C1755 1.382 . S
C1758 C1759 1.387 . S
C1758 H1778 0.930 . S
C1759 C1757 1.381 . S
C1759 C1758 1.387 . S
C1759 H1779 0.931 . S
C1760 C1757 1.487 . S
C1760 C1767 1.399 . S
C1760 N1785 1.262 1_655 S
C1761 C1762 1.384 . S
C1761 C1763 1.384 . S
C1761 H1780 0.931 . S
C1762 C1761 1.384 . S
C1762 C1765 1.382 . S
C1763 C1761 1.384 . S
C1763 C1764 1.381 . S
C1763 H1781 0.930 . S
C1764 C1763 1.381 . S
C1764 C1766 1.381 . S
C1764 C1767 1.487 . S
C1765 C1762 1.382 . S
C1765 C1766 1.387 . S
C1765 H1782 0.930 . S
C1766 C1764 1.381 . S
C1766 C1765 1.387 . S
C1766 H1783 0.931 . S
C1767 C1760 1.399 . S
C1767 C1764 1.487 . S
C1767 N1784 1.343 1_655 S
H1768 C1740 0.931 . S
H1769 C1742 0.930 . S
H1770 C1744 0.930 . S
H1771 C1745 0.931 . S
H1772 C1747 0.931 . S
H1773 C1749 0.930 . S
H1774 C1751 0.930 . S
H1775 C1752 0.931 . S
H1776 C1754 0.931 . S
H1777 C1756 0.930 . S
H1778 C1758 0.930 . S
H1779 C1759 0.931 . S
H1780 C1761 0.931 . S
H1781 C1763 0.930 . S
H1782 C1765 0.930 . S
H1783 C1766 0.931 . S
N1784 C1746 1.343 . S
N1784 C1767 1.343 1_455 S
N1785 C1753 1.426 . S
N1785 C1760 1.262 1_455 S
C1786 C1787 1.384 . S
C1786 C1788 1.384 . S
C1786 H1814 0.931 . S
C1787 C1786 1.384 . S
C1787 C1790 1.382 . S
C1788 C1786 1.384 . S
C1788 C1789 1.381 . S
C1788 H1815 0.930 . S
C1789 C1788 1.381 . S
C1789 C1791 1.381 . S
C1789 C1792 1.487 . S
C1790 C1787 1.382 . S
C1790 C1791 1.387 . S
C1790 H1816 0.930 . S
C1791 C1789 1.381 . S
C1791 C1790 1.387 . S
C1791 H1817 0.931 . S
C1792 C1789 1.487 . S
C1792 C1799 1.399 . S
C1792 N1830 1.343 1_565 S
C1793 C1794 1.384 . S
C1793 C1795 1.384 . S
C1793 H1818 0.931 . S
C1794 C1793 1.384 . S
C1794 C1797 1.382 . S
C1795 C1793 1.384 . S
C1795 C1796 1.381 . S
C1795 H1819 0.930 . S
C1796 C1795 1.381 . S
C1796 C1798 1.381 . S
C1796 C1799 1.487 . S
C1797 C1794 1.382 . S
C1797 C1798 1.387 . S
C1797 H1820 0.930 . S
C1798 C1796 1.381 . S
C1798 C1797 1.387 . S
C1798 H1821 0.931 . S
C1799 C1792 1.399 . S
C1799 C1796 1.487 . S
C1799 N1831 1.343 1_565 S
C1800 C1801 1.384 . S
C1800 C1802 1.384 . S
C1800 H1822 0.931 . S
C1801 C1800 1.384 . S
C1801 C1804 1.382 . S
C1802 C1800 1.384 . S
C1802 C1803 1.381 . S
C1802 H1823 0.930 . S
C1803 C1802 1.381 . S
C1803 C1805 1.381 . S
C1803 C1806 1.487 . S
C1804 C1801 1.382 . S
C1804 C1805 1.387 . S
C1804 H1824 0.930 . S
C1805 C1803 1.381 . S
C1805 C1804 1.387 . S
C1805 H1825 0.931 . S
C1806 C1803 1.487 . S
C1806 C1813 1.399 . S
C1806 N1831 1.343 . S
C1807 C1808 1.384 . S
C1807 C1809 1.384 . S
C1807 H1826 0.931 . S
C1808 C1807 1.384 . S
C1808 C1811 1.382 . S
C1809 C1807 1.384 . S
C1809 C1810 1.381 . S
C1809 H1827 0.930 . S
C1810 C1809 1.381 . S
C1810 C1812 1.381 . S
C1810 C1813 1.487 . S
C1811 C1808 1.382 . S
C1811 C1812 1.387 . S
C1811 H1828 0.930 . S
C1812 C1810 1.381 . S
C1812 C1811 1.387 . S
C1812 H1829 0.931 . S
C1813 C1806 1.399 . S
C1813 C1810 1.487 . S
C1813 N1830 1.343 . S
H1814 C1786 0.931 . S
H1815 C1788 0.930 . S
H1816 C1790 0.930 . S
H1817 C1791 0.931 . S
H1818 C1793 0.931 . S
H1819 C1795 0.930 . S
H1820 C1797 0.930 . S
H1821 C1798 0.931 . S
H1822 C1800 0.931 . S
H1823 C1802 0.930 . S
H1824 C1804 0.930 . S
H1825 C1805 0.931 . S
H1826 C1807 0.931 . S
H1827 C1809 0.930 . S
H1828 C1811 0.930 . S
H1829 C1812 0.931 . S
N1830 C1792 1.343 1_545 S
N1830 C1813 1.343 . S
N1831 C1799 1.343 1_545 S
N1831 C1806 1.343 . S
C1832 C1833 1.384 . S
C1832 C1834 1.384 . S
C1832 H1860 0.931 . S
C1833 C1832 1.384 . S
C1833 C1836 1.382 . S
C1834 C1832 1.384 . S
C1834 C1835 1.381 . S
C1834 H1861 0.930 . S
C1835 C1834 1.381 . S
C1835 C1837 1.381 . S
C1835 C1838 1.487 . S
C1836 C1833 1.382 . S
C1836 C1837 1.387 . S
C1836 H1862 0.930 . S
C1837 C1835 1.381 . S
C1837 C1836 1.387 . S
C1837 H1863 0.931 . S
C1838 C1835 1.487 . S
C1838 C1845 1.399 . S
C1838 N1876 1.343 . S
C1839 C1840 1.384 . S
C1839 C1841 1.384 . S
C1839 H1864 0.931 . S
C1840 C1839 1.384 . S
C1840 C1843 1.382 . S
C1841 C1839 1.384 . S
C1841 C1842 1.381 . S
C1841 H1865 0.930 . S
C1842 C1841 1.381 . S
C1842 C1844 1.381 . S
C1842 C1845 1.487 . S
C1843 C1840 1.382 . S
C1843 C1844 1.387 . S
C1843 H1866 0.930 . S
C1844 C1842 1.381 . S
C1844 C1843 1.387 . S
C1844 H1867 0.931 . S
C1845 C1838 1.399 . S
C1845 C1842 1.487 . S
C1845 N1877 1.343 . S
C1846 C1847 1.384 . S
C1846 C1848 1.384 . S
C1846 H1868 0.931 . S
C1847 C1846 1.384 . S
C1847 C1850 1.382 . S
C1848 C1846 1.384 . S
C1848 C1849 1.381 . S
C1848 H1869 0.930 . S
C1849 C1848 1.381 . S
C1849 C1851 1.381 . S
C1849 C1852 1.487 . S
C1850 C1847 1.382 . S
C1850 C1851 1.387 . S
C1850 H1870 0.930 . S
C1851 C1849 1.381 . S
C1851 C1850 1.387 . S
C1851 H1871 0.931 . S
C1852 C1849 1.487 . S
C1852 C1859 1.399 . S
C1852 N1877 1.343 . S
C1853 C1854 1.384 . S
C1853 C1855 1.384 . S
C1853 H1872 0.931 . S
C1854 C1853 1.384 . S
C1854 C1857 1.382 . S
C1855 C1853 1.384 . S
C1855 C1856 1.381 . S
C1855 H1873 0.930 . S
C1856 C1855 1.381 . S
C1856 C1858 1.381 . S
C1856 C1859 1.487 . S
C1857 C1854 1.382 . S
C1857 C1858 1.387 . S
C1857 H1874 0.930 . S
C1858 C1856 1.381 . S
C1858 C1857 1.387 . S
C1858 H1875 0.931 . S
C1859 C1852 1.399 . S
C1859 C1856 1.487 . S
C1859 N1876 1.343 . S
H1860 C1832 0.931 . S
H1861 C1834 0.930 . S
H1862 C1836 0.930 . S
H1863 C1837 0.931 . S
H1864 C1839 0.931 . S
H1865 C1841 0.930 . S
H1866 C1843 0.930 . S
H1867 C1844 0.931 . S
H1868 C1846 0.931 . S
H1869 C1848 0.930 . S
H1870 C1850 0.930 . S
H1871 C1851 0.931 . S
H1872 C1853 0.931 . S
H1873 C1855 0.930 . S
H1874 C1857 0.930 . S
H1875 C1858 0.931 . S
N1876 C1838 1.343 . S
N1876 C1859 1.343 . S
N1877 C1845 1.343 . S
N1877 C1852 1.343 . S
C1878 C1879 1.384 . S
C1878 C1880 1.384 . S
C1878 H1906 0.931 . S
C1879 C1878 1.384 . S
C1879 C1882 1.382 . S
C1880 C1878 1.384 . S
C1880 C1881 1.381 . S
C1880 H1907 0.930 . S
C1881 C1880 1.381 . S
C1881 C1883 1.381 . S
C1881 C1884 1.487 . S
C1882 C1879 1.382 . S
C1882 C1883 1.387 . S
C1882 H1908 0.930 . S
C1883 C1881 1.381 . S
C1883 C1882 1.387 . S
C1883 H1909 0.931 . S
C1884 C1881 1.487 . S
C1884 C1891 1.399 . S
C1884 N1922 1.343 . S
C1885 C1886 1.384 . S
C1885 C1887 1.384 . S
C1885 H1910 0.931 . S
C1886 C1885 1.384 . S
C1886 C1889 1.382 . S
C1887 C1885 1.384 . S
C1887 C1888 1.381 . S
C1887 H1911 0.930 . S
C1888 C1887 1.381 . S
C1888 C1890 1.381 . S
C1888 C1891 1.487 . S
C1889 C1886 1.382 . S
C1889 C1890 1.387 . S
C1889 H1912 0.930 . S
C1890 C1888 1.381 . S
C1890 C1889 1.387 . S
C1890 H1913 0.931 . S
C1891 C1884 1.399 . S
C1891 C1888 1.487 . S
C1891 N1923 1.343 . S
C1892 C1893 1.384 . S
C1892 C1894 1.384 . S
C1892 H1914 0.931 . S
C1893 C1892 1.384 . S
C1893 C1896 1.382 . S
C1894 C1892 1.384 . S
C1894 C1895 1.381 . S
C1894 H1915 0.930 . S
C1895 C1894 1.381 . S
C1895 C1897 1.381 . S
C1895 C1898 1.487 . S
C1896 C1893 1.382 . S
C1896 C1897 1.387 . S
C1896 H1916 0.930 . S
C1897 C1895 1.381 . S
C1897 C1896 1.387 . S
C1897 H1917 0.931 . S
C1898 C1895 1.487 . S
C1898 C1905 1.399 . S
C1898 N1923 1.343 . S
C1899 C1900 1.384 . S
C1899 C1901 1.384 . S
C1899 H1918 0.931 . S
C1900 C1899 1.384 . S
C1900 C1903 1.382 . S
C1901 C1899 1.384 . S
C1901 C1902 1.381 . S
C1901 H1919 0.930 . S
C1902 C1901 1.381 . S
C1902 C1904 1.381 . S
C1902 C1905 1.487 . S
C1903 C1900 1.382 . S
C1903 C1904 1.387 . S
C1903 H1920 0.930 . S
C1904 C1902 1.381 . S
C1904 C1903 1.387 . S
C1904 H1921 0.931 . S
C1905 C1898 1.399 . S
C1905 C1902 1.487 . S
C1905 N1922 1.343 . S
H1906 C1878 0.931 . S
H1907 C1880 0.930 . S
H1908 C1882 0.930 . S
H1909 C1883 0.931 . S
H1910 C1885 0.931 . S
H1911 C1887 0.930 . S
H1912 C1889 0.930 . S
H1913 C1890 0.931 . S
H1914 C1892 0.931 . S
H1915 C1894 0.930 . S
H1916 C1896 0.930 . S
H1917 C1897 0.931 . S
H1918 C1899 0.931 . S
H1919 C1901 0.930 . S
H1920 C1903 0.930 . S
H1921 C1904 0.931 . S
N1922 C1884 1.343 . S
N1922 C1905 1.343 . S
N1923 C1891 1.343 . S
N1923 C1898 1.343 . S
C1924 C1925 1.384 . S
C1924 C1926 1.384 . S
C1924 H1952 0.931 . S
C1925 C1924 1.384 . S
C1925 C1928 1.382 . S
C1926 C1924 1.384 . S
C1926 C1927 1.381 . S
C1926 H1953 0.930 . S
C1927 C1926 1.381 . S
C1927 C1929 1.381 . S
C1927 C1930 1.487 . S
C1928 C1925 1.382 . S
C1928 C1929 1.387 . S
C1928 H1954 0.930 . S
C1929 C1927 1.381 . S
C1929 C1928 1.387 . S
C1929 H1955 0.931 . S
C1930 C1927 1.487 . S
C1930 C1937 1.399 . S
C1930 N1968 1.343 . S
C1931 C1932 1.384 . S
C1931 C1933 1.384 . S
C1931 H1956 0.931 . S
C1932 C1931 1.384 . S
C1932 C1935 1.382 . S
C1933 C1931 1.384 . S
C1933 C1934 1.381 . S
C1933 H1957 0.930 . S
C1934 C1933 1.381 . S
C1934 C1936 1.381 . S
C1934 C1937 1.487 . S
C1935 C1932 1.382 . S
C1935 C1936 1.387 . S
C1935 H1958 0.930 . S
C1936 C1934 1.381 . S
C1936 C1935 1.387 . S
C1936 H1959 0.931 . S
C1937 C1930 1.399 . S
C1937 C1934 1.487 . S
C1937 N1969 1.343 . S
C1938 C1939 1.384 . S
C1938 C1940 1.384 . S
C1938 H1960 0.931 . S
C1939 C1938 1.384 . S
C1939 C1942 1.382 . S
C1940 C1938 1.384 . S
C1940 C1941 1.381 . S
C1940 H1961 0.930 . S
C1941 C1940 1.381 . S
C1941 C1943 1.381 . S
C1941 C1944 1.487 . S
C1942 C1939 1.382 . S
C1942 C1943 1.387 . S
C1942 H1962 0.930 . S
C1943 C1941 1.381 . S
C1943 C1942 1.387 . S
C1943 H1963 0.931 . S
C1944 C1941 1.487 . S
C1944 C1951 1.399 . S
C1944 N1969 1.343 . S
C1945 C1946 1.384 . S
C1945 C1947 1.384 . S
C1945 H1964 0.931 . S
C1946 C1945 1.384 . S
C1946 C1949 1.382 . S
C1947 C1945 1.384 . S
C1947 C1948 1.381 . S
C1947 H1965 0.930 . S
C1948 C1947 1.381 . S
C1948 C1950 1.381 . S
C1948 C1951 1.487 . S
C1949 C1946 1.382 . S
C1949 C1950 1.387 . S
C1949 H1966 0.930 . S
C1950 C1948 1.381 . S
C1950 C1949 1.387 . S
C1950 H1967 0.931 . S
C1951 C1944 1.399 . S
C1951 C1948 1.487 . S
C1951 N1968 1.343 . S
H1952 C1924 0.931 . S
H1953 C1926 0.930 . S
H1954 C1928 0.930 . S
H1955 C1929 0.931 . S
H1956 C1931 0.931 . S
H1957 C1933 0.930 . S
H1958 C1935 0.930 . S
H1959 C1936 0.931 . S
H1960 C1938 0.931 . S
H1961 C1940 0.930 . S
H1962 C1942 0.930 . S
H1963 C1943 0.931 . S
H1964 C1945 0.931 . S
H1965 C1947 0.930 . S
H1966 C1949 0.930 . S
H1967 C1950 0.931 . S
N1968 C1930 1.343 . S
N1968 C1951 1.343 . S
N1969 C1937 1.343 . S
N1969 C1944 1.343 . S
C1970 C1971 1.384 . S
C1970 C1972 1.384 . S
C1970 H1998 0.931 . S
C1971 C1970 1.384 . S
C1971 C1974 1.382 . S
C1972 C1970 1.384 . S
C1972 C1973 1.381 . S
C1972 H1999 0.930 . S
C1973 C1972 1.381 . S
C1973 C1975 1.381 . S
C1973 C1976 1.487 . S
C1974 C1971 1.382 . S
C1974 C1975 1.387 . S
C1974 H2000 0.930 . S
C1975 C1973 1.381 . S
C1975 C1974 1.387 . S
C1975 H2001 0.931 . S
C1976 C1973 1.487 . S
C1976 C1983 1.399 . S
C1976 N2014 1.343 . S
C1977 C1978 1.384 . S
C1977 C1979 1.384 . S
C1977 H2002 0.931 . S
C1978 C1977 1.384 . S
C1978 C1981 1.382 . S
C1979 C1977 1.384 . S
C1979 C1980 1.381 . S
C1979 H2003 0.930 . S
C1980 C1979 1.381 . S
C1980 C1982 1.381 . S
C1980 C1983 1.487 . S
C1981 C1978 1.382 . S
C1981 C1982 1.387 . S
C1981 H2004 0.930 . S
C1982 C1980 1.381 . S
C1982 C1981 1.387 . S
C1982 H2005 0.931 . S
C1983 C1976 1.399 . S
C1983 C1980 1.487 . S
C1983 N2015 1.343 . S
C1984 C1985 1.384 . S
C1984 C1986 1.384 . S
C1984 H2006 0.931 . S
C1985 C1984 1.384 . S
C1985 C1988 1.382 . S
C1986 C1984 1.384 . S
C1986 C1987 1.381 . S
C1986 H2007 0.930 . S
C1987 C1986 1.381 . S
C1987 C1989 1.381 . S
C1987 C1990 1.487 . S
C1988 C1985 1.382 . S
C1988 C1989 1.387 . S
C1988 H2008 0.930 . S
C1989 C1987 1.381 . S
C1989 C1988 1.387 . S
C1989 H2009 0.931 . S
C1990 C1987 1.487 . S
C1990 C1997 1.399 . S
C1990 N2015 1.343 . S
C1991 C1992 1.384 . S
C1991 C1993 1.384 . S
C1991 H2010 0.931 . S
C1992 C1991 1.384 . S
C1992 C1995 1.382 . S
C1993 C1991 1.384 . S
C1993 C1994 1.381 . S
C1993 H2011 0.930 . S
C1994 C1993 1.381 . S
C1994 C1996 1.381 . S
C1994 C1997 1.487 . S
C1995 C1992 1.382 . S
C1995 C1996 1.387 . S
C1995 H2012 0.930 . S
C1996 C1994 1.381 . S
C1996 C1995 1.387 . S
C1996 H2013 0.931 . S
C1997 C1990 1.399 . S
C1997 C1994 1.487 . S
C1997 N2014 1.343 . S
H1998 C1970 0.931 . S
H1999 C1972 0.930 . S
H2000 C1974 0.930 . S
H2001 C1975 0.931 . S
H2002 C1977 0.931 . S
H2003 C1979 0.930 . S
H2004 C1981 0.930 . S
H2005 C1982 0.931 . S
H2006 C1984 0.931 . S
H2007 C1986 0.930 . S
H2008 C1988 0.930 . S
H2009 C1989 0.931 . S
H2010 C1991 0.931 . S
H2011 C1993 0.930 . S
H2012 C1995 0.930 . S
H2013 C1996 0.931 . S
N2014 C1976 1.343 . S
N2014 C1997 1.343 . S
N2015 C1983 1.343 . S
N2015 C1990 1.343 . S
C2016 C2017 1.384 . S
C2016 C2018 1.384 . S
C2016 H2044 0.931 . S
C2017 C2016 1.384 . S
C2017 C2020 1.382 . S
C2018 C2016 1.384 . S
C2018 C2019 1.381 . S
C2018 H2045 0.930 . S
C2019 C2018 1.381 . S
C2019 C2021 1.381 . S
C2019 C2022 1.487 . S
C2020 C2017 1.382 . S
C2020 C2021 1.387 . S
C2020 H2046 0.930 . S
C2021 C2019 1.381 . S
C2021 C2020 1.387 . S
C2021 H2047 0.931 . S
C2022 C2019 1.487 . S
C2022 C2029 1.399 . S
C2022 N2060 1.343 . S
C2023 C2024 1.384 . S
C2023 C2025 1.384 . S
C2023 H2048 0.931 . S
C2024 C2023 1.384 . S
C2024 C2027 1.382 . S
C2025 C2023 1.384 . S
C2025 C2026 1.381 . S
C2025 H2049 0.930 . S
C2026 C2025 1.381 . S
C2026 C2028 1.381 . S
C2026 C2029 1.487 . S
C2027 C2024 1.382 . S
C2027 C2028 1.387 . S
C2027 H2050 0.930 . S
C2028 C2026 1.381 . S
C2028 C2027 1.387 . S
C2028 H2051 0.931 . S
C2029 C2022 1.399 . S
C2029 C2026 1.487 . S
C2029 N2061 1.343 . S
C2030 C2031 1.384 . S
C2030 C2032 1.384 . S
C2030 H2052 0.931 . S
C2031 C2030 1.384 . S
C2031 C2034 1.382 . S
C2032 C2030 1.384 . S
C2032 C2033 1.381 . S
C2032 H2053 0.930 . S
C2033 C2032 1.381 . S
C2033 C2035 1.381 . S
C2033 C2036 1.487 . S
C2034 C2031 1.382 . S
C2034 C2035 1.387 . S
C2034 H2054 0.930 . S
C2035 C2033 1.381 . S
C2035 C2034 1.387 . S
C2035 H2055 0.931 . S
C2036 C2033 1.487 . S
C2036 C2043 1.399 . S
C2036 N2061 1.343 . S
C2037 C2038 1.384 . S
C2037 C2039 1.384 . S
C2037 H2056 0.931 . S
C2038 C2037 1.384 . S
C2038 C2041 1.382 . S
C2039 C2037 1.384 . S
C2039 C2040 1.381 . S
C2039 H2057 0.930 . S
C2040 C2039 1.381 . S
C2040 C2042 1.381 . S
C2040 C2043 1.487 . S
C2041 C2038 1.382 . S
C2041 C2042 1.387 . S
C2041 H2058 0.930 . S
C2042 C2040 1.381 . S
C2042 C2041 1.387 . S
C2042 H2059 0.931 . S
C2043 C2036 1.399 . S
C2043 C2040 1.487 . S
C2043 N2060 1.343 . S
H2044 C2016 0.931 . S
H2045 C2018 0.930 . S
H2046 C2020 0.930 . S
H2047 C2021 0.931 . S
H2048 C2023 0.931 . S
H2049 C2025 0.930 . S
H2050 C2027 0.930 . S
H2051 C2028 0.931 . S
H2052 C2030 0.931 . S
H2053 C2032 0.930 . S
H2054 C2034 0.930 . S
H2055 C2035 0.931 . S
H2056 C2037 0.931 . S
H2057 C2039 0.930 . S
H2058 C2041 0.930 . S
H2059 C2042 0.931 . S
N2060 C2022 1.343 . S
N2060 C2043 1.343 . S
N2061 C2029 1.343 . S
N2061 C2036 1.343 . S
C2062 C2063 1.384 . S
C2062 C2064 1.384 . S
C2062 H2090 0.931 . S
C2063 C2062 1.384 . S
C2063 C2066 1.382 . S
C2064 C2062 1.384 . S
C2064 C2065 1.381 . S
C2064 H2091 0.930 . S
C2065 C2064 1.381 . S
C2065 C2067 1.381 . S
C2065 C2068 1.487 . S
C2066 C2063 1.382 . S
C2066 C2067 1.387 . S
C2066 H2092 0.930 . S
C2067 C2065 1.381 . S
C2067 C2066 1.387 . S
C2067 H2093 0.931 . S
C2068 C2065 1.487 . S
C2068 C2075 1.399 . S
C2068 N2106 1.343 . S
C2069 C2070 1.384 . S
C2069 C2071 1.384 . S
C2069 H2094 0.931 . S
C2070 C2069 1.384 . S
C2070 C2073 1.382 . S
C2071 C2069 1.384 . S
C2071 C2072 1.381 . S
C2071 H2095 0.930 . S
C2072 C2071 1.381 . S
C2072 C2074 1.381 . S
C2072 C2075 1.487 . S
C2073 C2070 1.382 . S
C2073 C2074 1.387 . S
C2073 H2096 0.930 . S
C2074 C2072 1.381 . S
C2074 C2073 1.387 . S
C2074 H2097 0.931 . S
C2075 C2068 1.399 . S
C2075 C2072 1.487 . S
C2075 N2107 1.343 . S
C2076 C2077 1.384 . S
C2076 C2078 1.384 . S
C2076 H2098 0.931 . S
C2077 C2076 1.384 . S
C2077 C2080 1.382 . S
C2078 C2076 1.384 . S
C2078 C2079 1.381 . S
C2078 H2099 0.930 . S
C2079 C2078 1.381 . S
C2079 C2081 1.381 . S
C2079 C2082 1.487 . S
C2080 C2077 1.382 . S
C2080 C2081 1.387 . S
C2080 H2100 0.930 . S
C2081 C2079 1.381 . S
C2081 C2080 1.387 . S
C2081 H2101 0.931 . S
C2082 C2079 1.487 . S
C2082 C2089 1.399 . S
C2082 N2107 1.343 . S
C2083 C2084 1.384 . S
C2083 C2085 1.384 . S
C2083 H2102 0.931 . S
C2084 C2083 1.384 . S
C2084 C2087 1.382 . S
C2085 C2083 1.384 . S
C2085 C2086 1.381 . S
C2085 H2103 0.930 . S
C2086 C2085 1.381 . S
C2086 C2088 1.381 . S
C2086 C2089 1.487 . S
C2087 C2084 1.382 . S
C2087 C2088 1.387 . S
C2087 H2104 0.930 . S
C2088 C2086 1.381 . S
C2088 C2087 1.387 . S
C2088 H2105 0.931 . S
C2089 C2082 1.399 . S
C2089 C2086 1.487 . S
C2089 N2106 1.343 . S
H2090 C2062 0.931 . S
H2091 C2064 0.930 . S
H2092 C2066 0.930 . S
H2093 C2067 0.931 . S
H2094 C2069 0.931 . S
H2095 C2071 0.930 . S
H2096 C2073 0.930 . S
H2097 C2074 0.931 . S
H2098 C2076 0.931 . S
H2099 C2078 0.930 . S
H2100 C2080 0.930 . S
H2101 C2081 0.931 . S
H2102 C2083 0.931 . S
H2103 C2085 0.930 . S
H2104 C2087 0.930 . S
H2105 C2088 0.931 . S
N2106 C2068 1.343 . S
N2106 C2089 1.343 . S
N2107 C2075 1.343 . S
N2107 C2082 1.343 . S
C2108 C2109 1.384 . S
C2108 C2110 1.384 . S
C2108 H2136 0.931 . S
C2109 C2108 1.384 . S
C2109 C2112 1.382 . S
C2110 C2108 1.384 . S
C2110 C2111 1.381 . S
C2110 H2137 0.930 . S
C2111 C2110 1.381 . S
C2111 C2113 1.381 . S
C2111 C2114 1.487 . S
C2112 C2109 1.382 . S
C2112 C2113 1.387 . S
C2112 H2138 0.930 . S
C2113 C2111 1.381 . S
C2113 C2112 1.387 . S
C2113 H2139 0.931 . S
C2114 C2111 1.487 . S
C2114 C2121 1.399 . S
C2114 N2152 1.343 . S
C2115 C2116 1.384 . S
C2115 C2117 1.384 . S
C2115 H2140 0.931 . S
C2116 C2115 1.384 . S
C2116 C2119 1.382 . S
C2117 C2115 1.384 . S
C2117 C2118 1.381 . S
C2117 H2141 0.930 . S
C2118 C2117 1.381 . S
C2118 C2120 1.381 . S
C2118 C2121 1.487 . S
C2119 C2116 1.382 . S
C2119 C2120 1.387 . S
C2119 H2142 0.930 . S
C2120 C2118 1.381 . S
C2120 C2119 1.387 . S
C2120 H2143 0.931 . S
C2121 C2114 1.399 . S
C2121 C2118 1.487 . S
C2121 N2153 1.343 . S
C2122 C2123 1.384 . S
C2122 C2124 1.384 . S
C2122 H2144 0.931 . S
C2123 C2122 1.384 . S
C2123 C2126 1.382 . S
C2124 C2122 1.384 . S
C2124 C2125 1.381 . S
C2124 H2145 0.930 . S
C2125 C2124 1.381 . S
C2125 C2127 1.381 . S
C2125 C2128 1.487 . S
C2126 C2123 1.382 . S
C2126 C2127 1.387 . S
C2126 H2146 0.930 . S
C2127 C2125 1.381 . S
C2127 C2126 1.387 . S
C2127 H2147 0.931 . S
C2128 C2125 1.487 . S
C2128 C2135 1.399 . S
C2128 N2153 1.343 . S
C2129 C2130 1.384 . S
C2129 C2131 1.384 . S
C2129 H2148 0.931 . S
C2130 C2129 1.384 . S
C2130 C2133 1.382 . S
C2131 C2129 1.384 . S
C2131 C2132 1.381 . S
C2131 H2149 0.930 . S
C2132 C2131 1.381 . S
C2132 C2134 1.381 . S
C2132 C2135 1.487 . S
C2133 C2130 1.382 . S
C2133 C2134 1.387 . S
C2133 H2150 0.930 . S
C2134 C2132 1.381 . S
C2134 C2133 1.387 . S
C2134 H2151 0.931 . S
C2135 C2128 1.399 . S
C2135 C2132 1.487 . S
C2135 N2152 1.343 . S
H2136 C2108 0.931 . S
H2137 C2110 0.930 . S
H2138 C2112 0.930 . S
H2139 C2113 0.931 . S
H2140 C2115 0.931 . S
H2141 C2117 0.930 . S
H2142 C2119 0.930 . S
H2143 C2120 0.931 . S
H2144 C2122 0.931 . S
H2145 C2124 0.930 . S
H2146 C2126 0.930 . S
H2147 C2127 0.931 . S
H2148 C2129 0.931 . S
H2149 C2131 0.930 . S
H2150 C2133 0.930 . S
H2151 C2134 0.931 . S
N2152 C2114 1.343 . S
N2152 C2135 1.343 . S
N2153 C2121 1.343 . S
N2153 C2128 1.343 . S
C2154 C2155 1.384 . S
C2154 C2156 1.384 . S
C2154 H2182 0.931 . S
C2155 C2154 1.384 . S
C2155 C2158 1.382 . S
C2156 C2154 1.384 . S
C2156 C2157 1.381 . S
C2156 H2183 0.930 . S
C2157 C2156 1.381 . S
C2157 C2159 1.381 . S
C2157 C2160 1.487 . S
C2158 C2155 1.382 . S
C2158 C2159 1.387 . S
C2158 H2184 0.930 . S
C2159 C2157 1.381 . S
C2159 C2158 1.387 . S
C2159 H2185 0.931 . S
C2160 C2157 1.487 . S
C2160 C2167 1.399 . S
C2160 N2198 1.343 . S
C2161 C2162 1.384 . S
C2161 C2163 1.384 . S
C2161 H2186 0.931 . S
C2162 C2161 1.384 . S
C2162 C2165 1.382 . S
C2163 C2161 1.384 . S
C2163 C2164 1.381 . S
C2163 H2187 0.930 . S
C2164 C2163 1.381 . S
C2164 C2166 1.381 . S
C2164 C2167 1.487 . S
C2165 C2162 1.382 . S
C2165 C2166 1.387 . S
C2165 H2188 0.930 . S
C2166 C2164 1.381 . S
C2166 C2165 1.387 . S
C2166 H2189 0.931 . S
C2167 C2160 1.399 . S
C2167 C2164 1.487 . S
C2167 N2199 1.343 . S
C2168 C2169 1.384 . S
C2168 C2170 1.384 . S
C2168 H2190 0.931 . S
C2169 C2168 1.384 . S
C2169 C2172 1.382 . S
C2170 C2168 1.384 . S
C2170 C2171 1.381 . S
C2170 H2191 0.930 . S
C2171 C2170 1.381 . S
C2171 C2173 1.381 . S
C2171 C2174 1.487 . S
C2172 C2169 1.382 . S
C2172 C2173 1.387 . S
C2172 H2192 0.930 . S
C2173 C2171 1.381 . S
C2173 C2172 1.387 . S
C2173 H2193 0.931 . S
C2174 C2171 1.487 . S
C2174 C2181 1.399 . S
C2174 N2199 1.343 . S
C2175 C2176 1.384 . S
C2175 C2177 1.384 . S
C2175 H2194 0.931 . S
C2176 C2175 1.384 . S
C2176 C2179 1.382 . S
C2177 C2175 1.384 . S
C2177 C2178 1.381 . S
C2177 H2195 0.930 . S
C2178 C2177 1.381 . S
C2178 C2180 1.381 . S
C2178 C2181 1.487 . S
C2179 C2176 1.382 . S
C2179 C2180 1.387 . S
C2179 H2196 0.930 . S
C2180 C2178 1.381 . S
C2180 C2179 1.387 . S
C2180 H2197 0.931 . S
C2181 C2174 1.399 . S
C2181 C2178 1.487 . S
C2181 N2198 1.343 . S
H2182 C2154 0.931 . S
H2183 C2156 0.930 . S
H2184 C2158 0.930 . S
H2185 C2159 0.931 . S
H2186 C2161 0.931 . S
H2187 C2163 0.930 . S
H2188 C2165 0.930 . S
H2189 C2166 0.931 . S
H2190 C2168 0.931 . S
H2191 C2170 0.930 . S
H2192 C2172 0.930 . S
H2193 C2173 0.931 . S
H2194 C2175 0.931 . S
H2195 C2177 0.930 . S
H2196 C2179 0.930 . S
H2197 C2180 0.931 . S
N2198 C2160 1.343 . S
N2198 C2181 1.343 . S
N2199 C2167 1.343 . S
N2199 C2174 1.343 . S
C2200 C2201 1.384 . S
C2200 C2202 1.384 . S
C2200 H2228 0.931 . S
C2201 C2200 1.384 . S
C2201 C2204 1.382 . S
C2202 C2200 1.384 . S
C2202 C2203 1.381 . S
C2202 H2229 0.930 . S
C2203 C2202 1.381 . S
C2203 C2205 1.381 . S
C2203 C2206 1.487 . S
C2204 C2201 1.382 . S
C2204 C2205 1.387 . S
C2204 H2230 0.930 . S
C2205 C2203 1.381 . S
C2205 C2204 1.387 . S
C2205 H2231 0.931 . S
C2206 C2203 1.487 . S
C2206 C2213 1.399 . S
C2206 N2244 1.343 . S
C2207 C2208 1.384 . S
C2207 C2209 1.384 . S
C2207 H2232 0.931 . S
C2208 C2207 1.384 . S
C2208 C2211 1.382 . S
C2209 C2207 1.384 . S
C2209 C2210 1.381 . S
C2209 H2233 0.930 . S
C2210 C2209 1.381 . S
C2210 C2212 1.381 . S
C2210 C2213 1.487 . S
C2211 C2208 1.382 . S
C2211 C2212 1.387 . S
C2211 H2234 0.930 . S
C2212 C2210 1.381 . S
C2212 C2211 1.387 . S
C2212 H2235 0.931 . S
C2213 C2206 1.399 . S
C2213 C2210 1.487 . S
C2213 N2245 1.343 . S
C2214 C2215 1.384 . S
C2214 C2216 1.384 . S
C2214 H2236 0.931 . S
C2215 C2214 1.384 . S
C2215 C2218 1.382 . S
C2216 C2214 1.384 . S
C2216 C2217 1.381 . S
C2216 H2237 0.930 . S
C2217 C2216 1.381 . S
C2217 C2219 1.381 . S
C2217 C2220 1.487 . S
C2218 C2215 1.382 . S
C2218 C2219 1.387 . S
C2218 H2238 0.930 . S
C2219 C2217 1.381 . S
C2219 C2218 1.387 . S
C2219 H2239 0.931 . S
C2220 C2217 1.487 . S
C2220 C2227 1.399 . S
C2220 N2245 1.343 . S
C2221 C2222 1.384 . S
C2221 C2223 1.384 . S
C2221 H2240 0.931 . S
C2222 C2221 1.384 . S
C2222 C2225 1.382 . S
C2223 C2221 1.384 . S
C2223 C2224 1.381 . S
C2223 H2241 0.930 . S
C2224 C2223 1.381 . S
C2224 C2226 1.381 . S
C2224 C2227 1.487 . S
C2225 C2222 1.382 . S
C2225 C2226 1.387 . S
C2225 H2242 0.930 . S
C2226 C2224 1.381 . S
C2226 C2225 1.387 . S
C2226 H2243 0.931 . S
C2227 C2220 1.399 . S
C2227 C2224 1.487 . S
C2227 N2244 1.343 . S
H2228 C2200 0.931 . S
H2229 C2202 0.930 . S
H2230 C2204 0.930 . S
H2231 C2205 0.931 . S
H2232 C2207 0.931 . S
H2233 C2209 0.930 . S
H2234 C2211 0.930 . S
H2235 C2212 0.931 . S
H2236 C2214 0.931 . S
H2237 C2216 0.930 . S
H2238 C2218 0.930 . S
H2239 C2219 0.931 . S
H2240 C2221 0.931 . S
H2241 C2223 0.930 . S
H2242 C2225 0.930 . S
H2243 C2226 0.931 . S
N2244 C2206 1.343 . S
N2244 C2227 1.343 . S
N2245 C2213 1.343 . S
N2245 C2220 1.343 . S
C2246 C2247 1.384 . S
C2246 C2248 1.384 . S
C2246 H2274 0.931 . S
C2247 C2246 1.384 . S
C2247 C2250 1.382 . S
C2248 C2246 1.384 . S
C2248 C2249 1.381 . S
C2248 H2275 0.930 . S
C2249 C2248 1.381 . S
C2249 C2251 1.381 . S
C2249 C2252 1.487 . S
C2250 C2247 1.382 . S
C2250 C2251 1.387 . S
C2250 H2276 0.930 . S
C2251 C2249 1.381 . S
C2251 C2250 1.387 . S
C2251 H2277 0.931 . S
C2252 C2249 1.487 . S
C2252 C2259 1.399 . S
C2252 N2290 1.343 . S
C2253 C2254 1.384 . S
C2253 C2255 1.384 . S
C2253 H2278 0.931 . S
C2254 C2253 1.384 . S
C2254 C2257 1.382 . S
C2255 C2253 1.384 . S
C2255 C2256 1.381 . S
C2255 H2279 0.930 . S
C2256 C2255 1.381 . S
C2256 C2258 1.381 . S
C2256 C2259 1.487 . S
C2257 C2254 1.382 . S
C2257 C2258 1.387 . S
C2257 H2280 0.930 . S
C2258 C2256 1.381 . S
C2258 C2257 1.387 . S
C2258 H2281 0.931 . S
C2259 C2252 1.399 . S
C2259 C2256 1.487 . S
C2259 N2291 1.343 . S
C2260 C2261 1.384 . S
C2260 C2262 1.384 . S
C2260 H2282 0.931 . S
C2261 C2260 1.384 . S
C2261 C2264 1.382 . S
C2262 C2260 1.384 . S
C2262 C2263 1.381 . S
C2262 H2283 0.930 . S
C2263 C2262 1.381 . S
C2263 C2265 1.381 . S
C2263 C2266 1.487 . S
C2264 C2261 1.382 . S
C2264 C2265 1.387 . S
C2264 H2284 0.930 . S
C2265 C2263 1.381 . S
C2265 C2264 1.387 . S
C2265 H2285 0.931 . S
C2266 C2263 1.487 . S
C2266 C2273 1.399 . S
C2266 N2291 1.343 . S
C2267 C2268 1.384 . S
C2267 C2269 1.384 . S
C2267 H2286 0.931 . S
C2268 C2267 1.384 . S
C2268 C2271 1.382 . S
C2269 C2267 1.384 . S
C2269 C2270 1.381 . S
C2269 H2287 0.930 . S
C2270 C2269 1.381 . S
C2270 C2272 1.381 . S
C2270 C2273 1.487 . S
C2271 C2268 1.382 . S
C2271 C2272 1.387 . S
C2271 H2288 0.930 . S
C2272 C2270 1.381 . S
C2272 C2271 1.387 . S
C2272 H2289 0.931 . S
C2273 C2266 1.399 . S
C2273 C2270 1.487 . S
C2273 N2290 1.343 . S
H2274 C2246 0.931 . S
H2275 C2248 0.930 . S
H2276 C2250 0.930 . S
H2277 C2251 0.931 . S
H2278 C2253 0.931 . S
H2279 C2255 0.930 . S
H2280 C2257 0.930 . S
H2281 C2258 0.931 . S
H2282 C2260 0.931 . S
H2283 C2262 0.930 . S
H2284 C2264 0.930 . S
H2285 C2265 0.931 . S
H2286 C2267 0.931 . S
H2287 C2269 0.930 . S
H2288 C2271 0.930 . S
H2289 C2272 0.931 . S
N2290 C2252 1.343 . S
N2290 C2273 1.343 . S
N2291 C2259 1.343 . S
N2291 C2266 1.343 . S
C2292 C2293 1.384 . S
C2292 C2294 1.384 . S
C2292 H2320 0.931 . S
C2293 C2292 1.384 . S
C2293 C2296 1.382 . S
C2294 C2292 1.384 . S
C2294 C2295 1.381 . S
C2294 H2321 0.930 . S
C2295 C2294 1.381 . S
C2295 C2297 1.381 . S
C2295 C2298 1.487 . S
C2296 C2293 1.382 . S
C2296 C2297 1.387 . S
C2296 H2322 0.930 . S
C2297 C2295 1.381 . S
C2297 C2296 1.387 . S
C2297 H2323 0.931 . S
C2298 C2295 1.487 . S
C2298 C2305 1.399 . S
C2298 N2336 1.343 . S
C2299 C2300 1.384 . S
C2299 C2301 1.384 . S
C2299 H2324 0.931 . S
C2300 C2299 1.384 . S
C2300 C2303 1.382 . S
C2301 C2299 1.384 . S
C2301 C2302 1.381 . S
C2301 H2325 0.930 . S
C2302 C2301 1.381 . S
C2302 C2304 1.381 . S
C2302 C2305 1.487 . S
C2303 C2300 1.382 . S
C2303 C2304 1.387 . S
C2303 H2326 0.930 . S
C2304 C2302 1.381 . S
C2304 C2303 1.387 . S
C2304 H2327 0.931 . S
C2305 C2298 1.399 . S
C2305 C2302 1.487 . S
C2305 N2337 1.343 . S
C2306 C2307 1.384 . S
C2306 C2308 1.384 . S
C2306 H2328 0.931 . S
C2307 C2306 1.384 . S
C2307 C2310 1.382 . S
C2308 C2306 1.384 . S
C2308 C2309 1.381 . S
C2308 H2329 0.930 . S
C2309 C2308 1.381 . S
C2309 C2311 1.381 . S
C2309 C2312 1.487 . S
C2310 C2307 1.382 . S
C2310 C2311 1.387 . S
C2310 H2330 0.930 . S
C2311 C2309 1.381 . S
C2311 C2310 1.387 . S
C2311 H2331 0.931 . S
C2312 C2309 1.487 . S
C2312 C2319 1.399 . S
C2312 N2337 1.343 . S
C2313 C2314 1.384 . S
C2313 C2315 1.384 . S
C2313 H2332 0.931 . S
C2314 C2313 1.384 . S
C2314 C2317 1.382 . S
C2315 C2313 1.384 . S
C2315 C2316 1.381 . S
C2315 H2333 0.930 . S
C2316 C2315 1.381 . S
C2316 C2318 1.381 . S
C2316 C2319 1.487 . S
C2317 C2314 1.382 . S
C2317 C2318 1.387 . S
C2317 H2334 0.930 . S
C2318 C2316 1.381 . S
C2318 C2317 1.387 . S
C2318 H2335 0.931 . S
C2319 C2312 1.399 . S
C2319 C2316 1.487 . S
C2319 N2336 1.343 . S
H2320 C2292 0.931 . S
H2321 C2294 0.930 . S
H2322 C2296 0.930 . S
H2323 C2297 0.931 . S
H2324 C2299 0.931 . S
H2325 C2301 0.930 . S
H2326 C2303 0.930 . S
H2327 C2304 0.931 . S
H2328 C2306 0.931 . S
H2329 C2308 0.930 . S
H2330 C2310 0.930 . S
H2331 C2311 0.931 . S
H2332 C2313 0.931 . S
H2333 C2315 0.930 . S
H2334 C2317 0.930 . S
H2335 C2318 0.931 . S
N2336 C2298 1.343 . S
N2336 C2319 1.343 . S
N2337 C2305 1.343 . S
N2337 C2312 1.343 . S
C2338 C2339 1.384 . S
C2338 C2340 1.384 . S
C2338 H2366 0.931 . S
C2339 C2338 1.384 . S
C2339 C2342 1.382 . S
C2340 C2338 1.384 . S
C2340 C2341 1.381 . S
C2340 H2367 0.930 . S
C2341 C2340 1.381 . S
C2341 C2343 1.381 . S
C2341 C2344 1.487 . S
C2342 C2339 1.382 . S
C2342 C2343 1.387 . S
C2342 H2368 0.930 . S
C2343 C2341 1.381 . S
C2343 C2342 1.387 . S
C2343 H2369 0.931 . S
C2344 C2341 1.487 . S
C2344 C2351 1.399 . S
C2344 N2382 1.343 . S
C2345 C2346 1.384 . S
C2345 C2347 1.384 . S
C2345 H2370 0.931 . S
C2346 C2345 1.384 . S
C2346 C2349 1.382 . S
C2347 C2345 1.384 . S
C2347 C2348 1.381 . S
C2347 H2371 0.930 . S
C2348 C2347 1.381 . S
C2348 C2350 1.381 . S
C2348 C2351 1.487 . S
C2349 C2346 1.382 . S
C2349 C2350 1.387 . S
C2349 H2372 0.930 . S
C2350 C2348 1.381 . S
C2350 C2349 1.387 . S
C2350 H2373 0.931 . S
C2351 C2344 1.399 . S
C2351 C2348 1.487 . S
C2351 N2383 1.343 . S
C2352 C2353 1.384 . S
C2352 C2354 1.384 . S
C2352 H2374 0.931 . S
C2353 C2352 1.384 . S
C2353 C2356 1.382 . S
C2354 C2352 1.384 . S
C2354 C2355 1.381 . S
C2354 H2375 0.930 . S
C2355 C2354 1.381 . S
C2355 C2357 1.381 . S
C2355 C2358 1.487 . S
C2356 C2353 1.382 . S
C2356 C2357 1.387 . S
C2356 H2376 0.930 . S
C2357 C2355 1.381 . S
C2357 C2356 1.387 . S
C2357 H2377 0.931 . S
C2358 C2355 1.487 . S
C2358 C2365 1.399 . S
C2358 N2383 1.343 . S
C2359 C2360 1.384 . S
C2359 C2361 1.384 . S
C2359 H2378 0.931 . S
C2360 C2359 1.384 . S
C2360 C2363 1.382 . S
C2361 C2359 1.384 . S
C2361 C2362 1.381 . S
C2361 H2379 0.930 . S
C2362 C2361 1.381 . S
C2362 C2364 1.381 . S
C2362 C2365 1.487 . S
C2363 C2360 1.382 . S
C2363 C2364 1.387 . S
C2363 H2380 0.930 . S
C2364 C2362 1.381 . S
C2364 C2363 1.387 . S
C2364 H2381 0.931 . S
C2365 C2358 1.399 . S
C2365 C2362 1.487 . S
C2365 N2382 1.343 . S
H2366 C2338 0.931 . S
H2367 C2340 0.930 . S
H2368 C2342 0.930 . S
H2369 C2343 0.931 . S
H2370 C2345 0.931 . S
H2371 C2347 0.930 . S
H2372 C2349 0.930 . S
H2373 C2350 0.931 . S
H2374 C2352 0.931 . S
H2375 C2354 0.930 . S
H2376 C2356 0.930 . S
H2377 C2357 0.931 . S
H2378 C2359 0.931 . S
H2379 C2361 0.930 . S
H2380 C2363 0.930 . S
H2381 C2364 0.931 . S
N2382 C2344 1.343 . S
N2382 C2365 1.343 . S
N2383 C2351 1.343 . S
N2383 C2358 1.343 . S
H2384 C2396 0.930 . S
H2385 C2398 0.930 . S
H2386 C2399 0.930 . S
H2387 C2403 0.959 . S
H2388 C2403 0.959 . S
H2389 C2403 0.961 . S
H2390 C2404 0.960 . S
H2391 C2404 0.961 . S
H2392 C2404 0.959 . S
H2393 C2407 0.929 . S
H2394 C2408 0.931 . S
H2395 C2410 0.930 . S
C2396 H2384 0.930 . S
C2396 C2397 1.399 . S
C2396 C2401 1.399 . S
C2397 C2396 1.399 . S
C2397 C2398 1.376 . S
C2398 H2385 0.930 . S
C2398 C2397 1.376 . S
C2398 C2399 1.388 . S
C2399 H2386 0.930 . S
C2399 C2398 1.388 . S
C2399 C2400 1.390 . S
C2400 C2399 1.390 . S
C2400 C2401 1.394 . S
C2400 C2406 1.465 . S
C2401 C2396 1.399 . S
C2401 C2400 1.394 . S
C2401 C2402 1.516 . S
C2402 C2401 1.516 . S
C2402 C2403 1.502 . S
C2402 C2404 1.561 . S
C2402 C2405 1.526 . S
C2403 H2387 0.959 . S
C2403 H2388 0.959 . S
C2403 H2389 0.961 . S
C2403 C2402 1.502 . S
C2404 H2390 0.960 . S
C2404 H2391 0.961 . S
C2404 H2392 0.959 . S
C2404 C2402 1.561 . S
C2405 C2402 1.526 . S
C2405 C2406 1.396 . S
C2405 C2410 1.390 . S
C2406 C2400 1.465 . S
C2406 C2405 1.396 . S
C2406 C2407 1.399 . S
C2407 H2393 0.929 . S
C2407 C2406 1.399 . S
C2407 C2408 1.385 . S
C2408 H2394 0.931 . S
C2408 C2407 1.385 . S
C2408 C2409 1.389 . S
C2409 C2408 1.389 . S
C2409 C2410 1.387 . S
C2410 H2395 0.930 . S
C2410 C2405 1.390 . S
C2410 C2409 1.387 . S
H2411 C2423 0.930 . S
H2412 C2425 0.930 . S
H2413 C2426 0.930 . S
H2414 C2430 0.959 . S
H2415 C2430 0.959 . S
H2416 C2430 0.961 . S
H2417 C2431 0.960 . S
H2418 C2431 0.961 . S
H2419 C2431 0.959 . S
H2420 C2434 0.929 . S
H2421 C2435 0.931 . S
H2422 C2437 0.930 . S
C2423 H2411 0.930 . S
C2423 C2424 1.399 . S
C2423 C2428 1.399 . S
C2424 C2423 1.399 . S
C2424 C2425 1.376 . S
C2425 H2412 0.930 . S
C2425 C2424 1.376 . S
C2425 C2426 1.388 . S
C2426 H2413 0.930 . S
C2426 C2425 1.388 . S
C2426 C2427 1.390 . S
C2427 C2426 1.390 . S
C2427 C2428 1.394 . S
C2427 C2433 1.465 . S
C2428 C2423 1.399 . S
C2428 C2427 1.394 . S
C2428 C2429 1.516 . S
C2429 C2428 1.516 . S
C2429 C2430 1.502 . S
C2429 C2431 1.561 . S
C2429 C2432 1.526 . S
C2430 H2414 0.959 . S
C2430 H2415 0.959 . S
C2430 H2416 0.961 . S
C2430 C2429 1.502 . S
C2431 H2417 0.960 . S
C2431 H2418 0.961 . S
C2431 H2419 0.959 . S
C2431 C2429 1.561 . S
C2432 C2429 1.526 . S
C2432 C2433 1.396 . S
C2432 C2437 1.390 . S
C2433 C2427 1.465 . S
C2433 C2432 1.396 . S
C2433 C2434 1.399 . S
C2434 H2420 0.929 . S
C2434 C2433 1.399 . S
C2434 C2435 1.385 . S
C2435 H2421 0.931 . S
C2435 C2434 1.385 . S
C2435 C2436 1.389 . S
C2436 C2435 1.389 . S
C2436 C2437 1.387 . S
C2437 H2422 0.930 . S
C2437 C2432 1.390 . S
C2437 C2436 1.387 . S
H2438 C2450 0.930 . S
H2439 C2452 0.930 . S
H2440 C2453 0.930 . S
H2441 C2457 0.959 . S
H2442 C2457 0.959 . S
H2443 C2457 0.961 . S
H2444 C2458 0.960 . S
H2445 C2458 0.961 . S
H2446 C2458 0.959 . S
H2447 C2461 0.929 . S
H2448 C2462 0.931 . S
H2449 C2464 0.930 . S
C2450 H2438 0.930 . S
C2450 C2451 1.399 . S
C2450 C2455 1.399 . S
C2451 C2450 1.399 . S
C2451 C2452 1.376 . S
C2452 H2439 0.930 . S
C2452 C2451 1.376 . S
C2452 C2453 1.388 . S
C2453 H2440 0.930 . S
C2453 C2452 1.388 . S
C2453 C2454 1.390 . S
C2454 C2453 1.390 . S
C2454 C2455 1.394 . S
C2454 C2460 1.465 . S
C2455 C2450 1.399 . S
C2455 C2454 1.394 . S
C2455 C2456 1.516 . S
C2456 C2455 1.516 . S
C2456 C2457 1.502 . S
C2456 C2458 1.561 . S
C2456 C2459 1.526 . S
C2457 H2441 0.959 . S
C2457 H2442 0.959 . S
C2457 H2443 0.961 . S
C2457 C2456 1.502 . S
C2458 H2444 0.960 . S
C2458 H2445 0.961 . S
C2458 H2446 0.959 . S
C2458 C2456 1.561 . S
C2459 C2456 1.526 . S
C2459 C2460 1.396 . S
C2459 C2464 1.390 . S
C2460 C2454 1.465 . S
C2460 C2459 1.396 . S
C2460 C2461 1.399 . S
C2461 H2447 0.929 . S
C2461 C2460 1.399 . S
C2461 C2462 1.385 . S
C2462 H2448 0.931 . S
C2462 C2461 1.385 . S
C2462 C2463 1.389 . S
C2463 C2462 1.389 . S
C2463 C2464 1.387 . S
C2464 H2449 0.930 . S
C2464 C2459 1.390 . S
C2464 C2463 1.387 . S
H2465 C2477 0.930 . S
H2466 C2479 0.930 . S
H2467 C2480 0.930 . S
H2468 C2484 0.959 . S
H2469 C2484 0.959 . S
H2470 C2484 0.961 . S
H2471 C2485 0.960 . S
H2472 C2485 0.961 . S
H2473 C2485 0.959 . S
H2474 C2488 0.929 . S
H2475 C2489 0.931 . S
H2476 C2491 0.930 . S
C2477 H2465 0.930 . S
C2477 C2478 1.399 . S
C2477 C2482 1.399 . S
C2478 C2477 1.399 . S
C2478 C2479 1.376 . S
C2479 H2466 0.930 . S
C2479 C2478 1.376 . S
C2479 C2480 1.388 . S
C2480 H2467 0.930 . S
C2480 C2479 1.388 . S
C2480 C2481 1.390 . S
C2481 C2480 1.390 . S
C2481 C2482 1.394 . S
C2481 C2487 1.465 . S
C2482 C2477 1.399 . S
C2482 C2481 1.394 . S
C2482 C2483 1.516 . S
C2483 C2482 1.516 . S
C2483 C2484 1.502 . S
C2483 C2485 1.561 . S
C2483 C2486 1.526 . S
C2484 H2468 0.959 . S
C2484 H2469 0.959 . S
C2484 H2470 0.961 . S
C2484 C2483 1.502 . S
C2485 H2471 0.960 . S
C2485 H2472 0.961 . S
C2485 H2473 0.959 . S
C2485 C2483 1.561 . S
C2486 C2483 1.526 . S
C2486 C2487 1.396 . S
C2486 C2491 1.390 . S
C2487 C2481 1.465 . S
C2487 C2486 1.396 . S
C2487 C2488 1.399 . S
C2488 H2474 0.929 . S
C2488 C2487 1.399 . S
C2488 C2489 1.385 . S
C2489 H2475 0.931 . S
C2489 C2488 1.385 . S
C2489 C2490 1.389 . S
C2490 C2489 1.389 . S
C2490 C2491 1.387 . S
C2491 H2476 0.930 . S
C2491 C2486 1.390 . S
C2491 C2490 1.387 . S
H2492 C2504 0.930 . S
H2493 C2506 0.930 . S
H2494 C2507 0.930 . S
H2495 C2511 0.959 . S
H2496 C2511 0.959 . S
H2497 C2511 0.961 . S
H2498 C2512 0.960 . S
H2499 C2512 0.961 . S
H2500 C2512 0.959 . S
H2501 C2515 0.929 . S
H2502 C2516 0.931 . S
H2503 C2518 0.930 . S
C2504 H2492 0.930 . S
C2504 C2505 1.399 . S
C2504 C2509 1.399 . S
C2505 C2504 1.399 . S
C2505 C2506 1.376 . S
C2506 H2493 0.930 . S
C2506 C2505 1.376 . S
C2506 C2507 1.388 . S
C2507 H2494 0.930 . S
C2507 C2506 1.388 . S
C2507 C2508 1.390 . S
C2508 C2507 1.390 . S
C2508 C2509 1.394 . S
C2508 C2514 1.465 . S
C2509 C2504 1.399 . S
C2509 C2508 1.394 . S
C2509 C2510 1.516 . S
C2510 C2509 1.516 . S
C2510 C2511 1.502 . S
C2510 C2512 1.561 . S
C2510 C2513 1.526 . S
C2511 H2495 0.959 . S
C2511 H2496 0.959 . S
C2511 H2497 0.961 . S
C2511 C2510 1.502 . S
C2512 H2498 0.960 . S
C2512 H2499 0.961 . S
C2512 H2500 0.959 . S
C2512 C2510 1.561 . S
C2513 C2510 1.526 . S
C2513 C2514 1.396 . S
C2513 C2518 1.390 . S
C2514 C2508 1.465 . S
C2514 C2513 1.396 . S
C2514 C2515 1.399 . S
C2515 H2501 0.929 . S
C2515 C2514 1.399 . S
C2515 C2516 1.385 . S
C2516 H2502 0.931 . S
C2516 C2515 1.385 . S
C2516 C2517 1.389 . S
C2517 C2516 1.389 . S
C2517 C2518 1.387 . S
C2518 H2503 0.930 . S
C2518 C2513 1.390 . S
C2518 C2517 1.387 . S
H2519 C2531 0.930 . S
H2520 C2533 0.930 . S
H2521 C2534 0.930 . S
H2522 C2538 0.959 . S
H2523 C2538 0.959 . S
H2524 C2538 0.961 . S
H2525 C2539 0.960 . S
H2526 C2539 0.961 . S
H2527 C2539 0.959 . S
H2528 C2542 0.929 . S
H2529 C2543 0.931 . S
H2530 C2545 0.930 . S
C2531 H2519 0.930 . S
C2531 C2532 1.399 . S
C2531 C2536 1.399 . S
C2532 C2531 1.399 . S
C2532 C2533 1.376 . S
C2533 H2520 0.930 . S
C2533 C2532 1.376 . S
C2533 C2534 1.388 . S
C2534 H2521 0.930 . S
C2534 C2533 1.388 . S
C2534 C2535 1.390 . S
C2535 C2534 1.390 . S
C2535 C2536 1.394 . S
C2535 C2541 1.465 . S
C2536 C2531 1.399 . S
C2536 C2535 1.394 . S
C2536 C2537 1.516 . S
C2537 C2536 1.516 . S
C2537 C2538 1.502 . S
C2537 C2539 1.561 . S
C2537 C2540 1.526 . S
C2538 H2522 0.959 . S
C2538 H2523 0.959 . S
C2538 H2524 0.961 . S
C2538 C2537 1.502 . S
C2539 H2525 0.960 . S
C2539 H2526 0.961 . S
C2539 H2527 0.959 . S
C2539 C2537 1.561 . S
C2540 C2537 1.526 . S
C2540 C2541 1.396 . S
C2540 C2545 1.390 . S
C2541 C2535 1.465 . S
C2541 C2540 1.396 . S
C2541 C2542 1.399 . S
C2542 H2528 0.929 . S
C2542 C2541 1.399 . S
C2542 C2543 1.385 . S
C2543 H2529 0.931 . S
C2543 C2542 1.385 . S
C2543 C2544 1.389 . S
C2544 C2543 1.389 . S
C2544 C2545 1.387 . S
C2545 H2530 0.930 . S
C2545 C2540 1.390 . S
C2545 C2544 1.387 . S
H2546 C2558 0.930 . S
H2547 C2560 0.930 . S
H2548 C2561 0.930 . S
H2549 C2565 0.959 . S
H2550 C2565 0.959 . S
H2551 C2565 0.961 . S
H2552 C2566 0.960 . S
H2553 C2566 0.961 . S
H2554 C2566 0.959 . S
H2555 C2569 0.929 . S
H2556 C2570 0.931 . S
H2557 C2572 0.930 . S
C2558 H2546 0.930 . S
C2558 C2559 1.399 . S
C2558 C2563 1.399 . S
C2559 C2558 1.399 . S
C2559 C2560 1.376 . S
C2560 H2547 0.930 . S
C2560 C2559 1.376 . S
C2560 C2561 1.388 . S
C2561 H2548 0.930 . S
C2561 C2560 1.388 . S
C2561 C2562 1.390 . S
C2562 C2561 1.390 . S
C2562 C2563 1.394 . S
C2562 C2568 1.465 . S
C2563 C2558 1.399 . S
C2563 C2562 1.394 . S
C2563 C2564 1.516 . S
C2564 C2563 1.516 . S
C2564 C2565 1.502 . S
C2564 C2566 1.561 . S
C2564 C2567 1.526 . S
C2565 H2549 0.959 . S
C2565 H2550 0.959 . S
C2565 H2551 0.961 . S
C2565 C2564 1.502 . S
C2566 H2552 0.960 . S
C2566 H2553 0.961 . S
C2566 H2554 0.959 . S
C2566 C2564 1.561 . S
C2567 C2564 1.526 . S
C2567 C2568 1.396 . S
C2567 C2572 1.390 . S
C2568 C2562 1.465 . S
C2568 C2567 1.396 . S
C2568 C2569 1.399 . S
C2569 H2555 0.929 . S
C2569 C2568 1.399 . S
C2569 C2570 1.385 . S
C2570 H2556 0.931 . S
C2570 C2569 1.385 . S
C2570 C2571 1.389 . S
C2571 C2570 1.389 . S
C2571 C2572 1.387 . S
C2572 H2557 0.930 . S
C2572 C2567 1.390 . S
C2572 C2571 1.387 . S
H2573 C2585 0.930 . S
H2574 C2587 0.930 . S
H2575 C2588 0.930 . S
H2576 C2592 0.959 . S
H2577 C2592 0.959 . S
H2578 C2592 0.961 . S
H2579 C2593 0.960 . S
H2580 C2593 0.961 . S
H2581 C2593 0.959 . S
H2582 C2596 0.929 . S
H2583 C2597 0.931 . S
H2584 C2599 0.930 . S
C2585 H2573 0.930 . S
C2585 C2586 1.399 . S
C2585 C2590 1.399 . S
C2586 C2585 1.399 . S
C2586 C2587 1.376 . S
C2587 H2574 0.930 . S
C2587 C2586 1.376 . S
C2587 C2588 1.388 . S
C2588 H2575 0.930 . S
C2588 C2587 1.388 . S
C2588 C2589 1.390 . S
C2589 C2588 1.390 . S
C2589 C2590 1.394 . S
C2589 C2595 1.465 . S
C2590 C2585 1.399 . S
C2590 C2589 1.394 . S
C2590 C2591 1.516 . S
C2591 C2590 1.516 . S
C2591 C2592 1.502 . S
C2591 C2593 1.561 . S
C2591 C2594 1.526 . S
C2592 H2576 0.959 . S
C2592 H2577 0.959 . S
C2592 H2578 0.961 . S
C2592 C2591 1.502 . S
C2593 H2579 0.960 . S
C2593 H2580 0.961 . S
C2593 H2581 0.959 . S
C2593 C2591 1.561 . S
C2594 C2591 1.526 . S
C2594 C2595 1.396 . S
C2594 C2599 1.390 . S
C2595 C2589 1.465 . S
C2595 C2594 1.396 . S
C2595 C2596 1.399 . S
C2596 H2582 0.929 . S
C2596 C2595 1.399 . S
C2596 C2597 1.385 . S
C2597 H2583 0.931 . S
C2597 C2596 1.385 . S
C2597 C2598 1.389 . S
C2598 C2597 1.389 . S
C2598 C2599 1.387 . S
C2599 H2584 0.930 . S
C2599 C2594 1.390 . S
C2599 C2598 1.387 . S
H2600 C2612 0.930 . S
H2601 C2614 0.930 . S
H2602 C2615 0.930 . S
H2603 C2619 0.959 . S
H2604 C2619 0.959 . S
H2605 C2619 0.961 . S
H2606 C2620 0.960 . S
H2607 C2620 0.961 . S
H2608 C2620 0.959 . S
H2609 C2623 0.929 . S
H2610 C2624 0.931 . S
H2611 C2626 0.930 . S
C2612 H2600 0.930 . S
C2612 C2613 1.399 . S
C2612 C2617 1.399 . S
C2613 C2612 1.399 . S
C2613 C2614 1.376 . S
C2614 H2601 0.930 . S
C2614 C2613 1.376 . S
C2614 C2615 1.388 . S
C2615 H2602 0.930 . S
C2615 C2614 1.388 . S
C2615 C2616 1.390 . S
C2616 C2615 1.390 . S
C2616 C2617 1.394 . S
C2616 C2622 1.465 . S
C2617 C2612 1.399 . S
C2617 C2616 1.394 . S
C2617 C2618 1.516 . S
C2618 C2617 1.516 . S
C2618 C2619 1.502 . S
C2618 C2620 1.561 . S
C2618 C2621 1.526 . S
C2619 H2603 0.959 . S
C2619 H2604 0.959 . S
C2619 H2605 0.961 . S
C2619 C2618 1.502 . S
C2620 H2606 0.960 . S
C2620 H2607 0.961 . S
C2620 H2608 0.959 . S
C2620 C2618 1.561 . S
C2621 C2618 1.526 . S
C2621 C2622 1.396 . S
C2621 C2626 1.390 . S
C2622 C2616 1.465 . S
C2622 C2621 1.396 . S
C2622 C2623 1.399 . S
C2623 H2609 0.929 . S
C2623 C2622 1.399 . S
C2623 C2624 1.385 . S
C2624 H2610 0.931 . S
C2624 C2623 1.385 . S
C2624 C2625 1.389 . S
C2625 C2624 1.389 . S
C2625 C2626 1.387 . S
C2626 H2611 0.930 . S
C2626 C2621 1.390 . S
C2626 C2625 1.387 . S
H2627 C2639 0.930 . S
H2628 C2641 0.930 . S
H2629 C2642 0.930 . S
H2630 C2646 0.959 . S
H2631 C2646 0.959 . S
H2632 C2646 0.961 . S
H2633 C2647 0.960 . S
H2634 C2647 0.961 . S
H2635 C2647 0.959 . S
H2636 C2650 0.929 . S
H2637 C2651 0.931 . S
H2638 C2653 0.930 . S
C2639 H2627 0.930 . S
C2639 C2640 1.399 . S
C2639 C2644 1.399 . S
C2640 C2639 1.399 . S
C2640 C2641 1.376 . S
C2641 H2628 0.930 . S
C2641 C2640 1.376 . S
C2641 C2642 1.388 . S
C2642 H2629 0.930 . S
C2642 C2641 1.388 . S
C2642 C2643 1.390 . S
C2643 C2642 1.390 . S
C2643 C2644 1.394 . S
C2643 C2649 1.465 . S
C2644 C2639 1.399 . S
C2644 C2643 1.394 . S
C2644 C2645 1.516 . S
C2645 C2644 1.516 . S
C2645 C2646 1.502 . S
C2645 C2647 1.561 . S
C2645 C2648 1.526 . S
C2646 H2630 0.959 . S
C2646 H2631 0.959 . S
C2646 H2632 0.961 . S
C2646 C2645 1.502 . S
C2647 H2633 0.960 . S
C2647 H2634 0.961 . S
C2647 H2635 0.959 . S
C2647 C2645 1.561 . S
C2648 C2645 1.526 . S
C2648 C2649 1.396 . S
C2648 C2653 1.390 . S
C2649 C2643 1.465 . S
C2649 C2648 1.396 . S
C2649 C2650 1.399 . S
C2650 H2636 0.929 . S
C2650 C2649 1.399 . S
C2650 C2651 1.385 . S
C2651 H2637 0.931 . S
C2651 C2650 1.385 . S
C2651 C2652 1.389 . S
C2652 C2651 1.389 . S
C2652 C2653 1.387 . S
C2653 H2638 0.930 . S
C2653 C2648 1.390 . S
C2653 C2652 1.387 . S
H2654 C2666 0.930 . S
H2655 C2668 0.930 . S
H2656 C2669 0.930 . S
H2657 C2673 0.959 . S
H2658 C2673 0.959 . S
H2659 C2673 0.961 . S
H2660 C2674 0.960 . S
H2661 C2674 0.961 . S
H2662 C2674 0.959 . S
H2663 C2677 0.929 . S
H2664 C2678 0.931 . S
H2665 C2680 0.930 . S
C2666 H2654 0.930 . S
C2666 C2667 1.399 . S
C2666 C2671 1.399 . S
C2667 C2666 1.399 . S
C2667 C2668 1.376 . S
C2668 H2655 0.930 . S
C2668 C2667 1.376 . S
C2668 C2669 1.388 . S
C2669 H2656 0.930 . S
C2669 C2668 1.388 . S
C2669 C2670 1.390 . S
C2670 C2669 1.390 . S
C2670 C2671 1.394 . S
C2670 C2676 1.465 . S
C2671 C2666 1.399 . S
C2671 C2670 1.394 . S
C2671 C2672 1.516 . S
C2672 C2671 1.516 . S
C2672 C2673 1.502 . S
C2672 C2674 1.561 . S
C2672 C2675 1.526 . S
C2673 H2657 0.959 . S
C2673 H2658 0.959 . S
C2673 H2659 0.961 . S
C2673 C2672 1.502 . S
C2674 H2660 0.960 . S
C2674 H2661 0.961 . S
C2674 H2662 0.959 . S
C2674 C2672 1.561 . S
C2675 C2672 1.526 . S
C2675 C2676 1.396 . S
C2675 C2680 1.390 . S
C2676 C2670 1.465 . S
C2676 C2675 1.396 . S
C2676 C2677 1.399 . S
C2677 H2663 0.929 . S
C2677 C2676 1.399 . S
C2677 C2678 1.385 . S
C2678 H2664 0.931 . S
C2678 C2677 1.385 . S
C2678 C2679 1.389 . S
C2679 C2678 1.389 . S
C2679 C2680 1.387 . S
C2680 H2665 0.930 . S
C2680 C2675 1.390 . S
C2680 C2679 1.387 . S
H2681 C2693 0.930 . S
H2682 C2695 0.930 . S
H2683 C2696 0.930 . S
H2684 C2700 0.959 . S
H2685 C2700 0.959 . S
H2686 C2700 0.961 . S
H2687 C2701 0.960 . S
H2688 C2701 0.961 . S
H2689 C2701 0.959 . S
H2690 C2704 0.929 . S
H2691 C2705 0.931 . S
H2692 C2707 0.930 . S
C2693 H2681 0.930 . S
C2693 C2694 1.399 . S
C2693 C2698 1.399 . S
C2694 C2693 1.399 . S
C2694 C2695 1.376 . S
C2695 H2682 0.930 . S
C2695 C2694 1.376 . S
C2695 C2696 1.388 . S
C2696 H2683 0.930 . S
C2696 C2695 1.388 . S
C2696 C2697 1.390 . S
C2697 C2696 1.390 . S
C2697 C2698 1.394 . S
C2697 C2703 1.465 . S
C2698 C2693 1.399 . S
C2698 C2697 1.394 . S
C2698 C2699 1.516 . S
C2699 C2698 1.516 . S
C2699 C2700 1.502 . S
C2699 C2701 1.561 . S
C2699 C2702 1.526 . S
C2700 H2684 0.959 . S
C2700 H2685 0.959 . S
C2700 H2686 0.961 . S
C2700 C2699 1.502 . S
C2701 H2687 0.960 . S
C2701 H2688 0.961 . S
C2701 H2689 0.959 . S
C2701 C2699 1.561 . S
C2702 C2699 1.526 . S
C2702 C2703 1.396 . S
C2702 C2707 1.390 . S
C2703 C2697 1.465 . S
C2703 C2702 1.396 . S
C2703 C2704 1.399 . S
C2704 H2690 0.929 . S
C2704 C2703 1.399 . S
C2704 C2705 1.385 . S
C2705 H2691 0.931 . S
C2705 C2704 1.385 . S
C2705 C2706 1.389 . S
C2706 C2705 1.389 . S
C2706 C2707 1.387 . S
C2707 H2692 0.930 . S
C2707 C2702 1.390 . S
C2707 C2706 1.387 . S
H2708 C2720 0.930 . S
H2709 C2722 0.930 . S
H2710 C2723 0.930 . S
H2711 C2727 0.959 . S
H2712 C2727 0.959 . S
H2713 C2727 0.961 . S
H2714 C2728 0.960 . S
H2715 C2728 0.961 . S
H2716 C2728 0.959 . S
H2717 C2731 0.929 . S
H2718 C2732 0.931 . S
H2719 C2734 0.930 . S
C2720 H2708 0.930 . S
C2720 C2721 1.399 . S
C2720 C2725 1.399 . S
C2721 C2720 1.399 . S
C2721 C2722 1.376 . S
C2722 H2709 0.930 . S
C2722 C2721 1.376 . S
C2722 C2723 1.388 . S
C2723 H2710 0.930 . S
C2723 C2722 1.388 . S
C2723 C2724 1.390 . S
C2724 C2723 1.390 . S
C2724 C2725 1.394 . S
C2724 C2730 1.465 . S
C2725 C2720 1.399 . S
C2725 C2724 1.394 . S
C2725 C2726 1.516 . S
C2726 C2725 1.516 . S
C2726 C2727 1.502 . S
C2726 C2728 1.561 . S
C2726 C2729 1.526 . S
C2727 H2711 0.959 . S
C2727 H2712 0.959 . S
C2727 H2713 0.961 . S
C2727 C2726 1.502 . S
C2728 H2714 0.960 . S
C2728 H2715 0.961 . S
C2728 H2716 0.959 . S
C2728 C2726 1.561 . S
C2729 C2726 1.526 . S
C2729 C2730 1.396 . S
C2729 C2734 1.390 . S
C2730 C2724 1.465 . S
C2730 C2729 1.396 . S
C2730 C2731 1.399 . S
C2731 H2717 0.929 . S
C2731 C2730 1.399 . S
C2731 C2732 1.385 . S
C2732 H2718 0.931 . S
C2732 C2731 1.385 . S
C2732 C2733 1.389 . S
C2733 C2732 1.389 . S
C2733 C2734 1.387 . S
C2734 H2719 0.930 . S
C2734 C2729 1.390 . S
C2734 C2733 1.387 . S
H2735 C2747 0.930 . S
H2736 C2749 0.930 . S
H2737 C2750 0.930 . S
H2738 C2754 0.959 . S
H2739 C2754 0.959 . S
H2740 C2754 0.961 . S
H2741 C2755 0.960 . S
H2742 C2755 0.961 . S
H2743 C2755 0.959 . S
H2744 C2758 0.929 . S
H2745 C2759 0.931 . S
H2746 C2761 0.930 . S
C2747 H2735 0.930 . S
C2747 C2748 1.399 . S
C2747 C2752 1.399 . S
C2748 C2747 1.399 . S
C2748 C2749 1.376 . S
C2749 H2736 0.930 . S
C2749 C2748 1.376 . S
C2749 C2750 1.388 . S
C2750 H2737 0.930 . S
C2750 C2749 1.388 . S
C2750 C2751 1.390 . S
C2751 C2750 1.390 . S
C2751 C2752 1.394 . S
C2751 C2757 1.465 . S
C2752 C2747 1.399 . S
C2752 C2751 1.394 . S
C2752 C2753 1.516 . S
C2753 C2752 1.516 . S
C2753 C2754 1.502 . S
C2753 C2755 1.561 . S
C2753 C2756 1.526 . S
C2754 H2738 0.959 . S
C2754 H2739 0.959 . S
C2754 H2740 0.961 . S
C2754 C2753 1.502 . S
C2755 H2741 0.960 . S
C2755 H2742 0.961 . S
C2755 H2743 0.959 . S
C2755 C2753 1.561 . S
C2756 C2753 1.526 . S
C2756 C2757 1.396 . S
C2756 C2761 1.390 . S
C2757 C2751 1.465 . S
C2757 C2756 1.396 . S
C2757 C2758 1.399 . S
C2758 H2744 0.929 . S
C2758 C2757 1.399 . S
C2758 C2759 1.385 . S
C2759 H2745 0.931 . S
C2759 C2758 1.385 . S
C2759 C2760 1.389 . S
C2760 C2759 1.389 . S
C2760 C2761 1.387 . S
C2761 H2746 0.930 . S
C2761 C2756 1.390 . S
C2761 C2760 1.387 . S
H2762 C2774 0.930 . S
H2763 C2776 0.930 . S
H2764 C2777 0.930 . S
H2765 C2781 0.959 . S
H2766 C2781 0.959 . S
H2767 C2781 0.961 . S
H2768 C2782 0.960 . S
H2769 C2782 0.961 . S
H2770 C2782 0.959 . S
H2771 C2785 0.929 . S
H2772 C2786 0.931 . S
H2773 C2788 0.930 . S
C2774 H2762 0.930 . S
C2774 C2775 1.399 . S
C2774 C2779 1.399 . S
C2775 C2774 1.399 . S
C2775 C2776 1.376 . S
C2776 H2763 0.930 . S
C2776 C2775 1.376 . S
C2776 C2777 1.388 . S
C2777 H2764 0.930 . S
C2777 C2776 1.388 . S
C2777 C2778 1.390 . S
C2778 C2777 1.390 . S
C2778 C2779 1.394 . S
C2778 C2784 1.465 . S
C2779 C2774 1.399 . S
C2779 C2778 1.394 . S
C2779 C2780 1.516 . S
C2780 C2779 1.516 . S
C2780 C2781 1.502 . S
C2780 C2782 1.561 . S
C2780 C2783 1.526 . S
C2781 H2765 0.959 . S
C2781 H2766 0.959 . S
C2781 H2767 0.961 . S
C2781 C2780 1.502 . S
C2782 H2768 0.960 . S
C2782 H2769 0.961 . S
C2782 H2770 0.959 . S
C2782 C2780 1.561 . S
C2783 C2780 1.526 . S
C2783 C2784 1.396 . S
C2783 C2788 1.390 . S
C2784 C2778 1.465 . S
C2784 C2783 1.396 . S
C2784 C2785 1.399 . S
C2785 H2771 0.929 . S
C2785 C2784 1.399 . S
C2785 C2786 1.385 . S
C2786 H2772 0.931 . S
C2786 C2785 1.385 . S
C2786 C2787 1.389 . S
C2787 C2786 1.389 . S
C2787 C2788 1.387 . S
C2788 H2773 0.930 . S
C2788 C2783 1.390 . S
C2788 C2787 1.387 . S
H2789 C2801 0.930 . S
H2790 C2803 0.930 . S
H2791 C2804 0.930 . S
H2792 C2808 0.959 . S
H2793 C2808 0.959 . S
H2794 C2808 0.961 . S
H2795 C2809 0.960 . S
H2796 C2809 0.961 . S
H2797 C2809 0.959 . S
H2798 C2812 0.929 . S
H2799 C2813 0.931 . S
H2800 C2815 0.930 . S
C2801 H2789 0.930 . S
C2801 C2802 1.399 . S
C2801 C2806 1.399 . S
C2802 C2801 1.399 . S
C2802 C2803 1.376 . S
C2803 H2790 0.930 . S
C2803 C2802 1.376 . S
C2803 C2804 1.388 . S
C2804 H2791 0.930 . S
C2804 C2803 1.388 . S
C2804 C2805 1.390 . S
C2805 C2804 1.390 . S
C2805 C2806 1.394 . S
C2805 C2811 1.465 . S
C2806 C2801 1.399 . S
C2806 C2805 1.394 . S
C2806 C2807 1.516 . S
C2807 C2806 1.516 . S
C2807 C2808 1.502 . S
C2807 C2809 1.561 . S
C2807 C2810 1.526 . S
C2808 H2792 0.959 . S
C2808 H2793 0.959 . S
C2808 H2794 0.961 . S
C2808 C2807 1.502 . S
C2809 H2795 0.960 . S
C2809 H2796 0.961 . S
C2809 H2797 0.959 . S
C2809 C2807 1.561 . S
C2810 C2807 1.526 . S
C2810 C2811 1.396 . S
C2810 C2815 1.390 . S
C2811 C2805 1.465 . S
C2811 C2810 1.396 . S
C2811 C2812 1.399 . S
C2812 H2798 0.929 . S
C2812 C2811 1.399 . S
C2812 C2813 1.385 . S
C2813 H2799 0.931 . S
C2813 C2812 1.385 . S
C2813 C2814 1.389 . S
C2814 C2813 1.389 . S
C2814 C2815 1.387 . S
C2815 H2800 0.930 . S
C2815 C2810 1.390 . S
C2815 C2814 1.387 . S
H2816 C2828 0.930 . S
H2817 C2830 0.930 . S
H2818 C2831 0.930 . S
H2819 C2835 0.959 . S
H2820 C2835 0.959 . S
H2821 C2835 0.961 . S
H2822 C2836 0.960 . S
H2823 C2836 0.961 . S
H2824 C2836 0.959 . S
H2825 C2839 0.929 . S
H2826 C2840 0.931 . S
H2827 C2842 0.930 . S
C2828 H2816 0.930 . S
C2828 C2829 1.399 . S
C2828 C2833 1.399 . S
C2829 C2828 1.399 . S
C2829 C2830 1.376 . S
C2830 H2817 0.930 . S
C2830 C2829 1.376 . S
C2830 C2831 1.388 . S
C2831 H2818 0.930 . S
C2831 C2830 1.388 . S
C2831 C2832 1.390 . S
C2832 C2831 1.390 . S
C2832 C2833 1.394 . S
C2832 C2838 1.465 . S
C2833 C2828 1.399 . S
C2833 C2832 1.394 . S
C2833 C2834 1.516 . S
C2834 C2833 1.516 . S
C2834 C2835 1.502 . S
C2834 C2836 1.561 . S
C2834 C2837 1.526 . S
C2835 H2819 0.959 . S
C2835 H2820 0.959 . S
C2835 H2821 0.961 . S
C2835 C2834 1.502 . S
C2836 H2822 0.960 . S
C2836 H2823 0.961 . S
C2836 H2824 0.959 . S
C2836 C2834 1.561 . S
C2837 C2834 1.526 . S
C2837 C2838 1.396 . S
C2837 C2842 1.390 . S
C2838 C2832 1.465 . S
C2838 C2837 1.396 . S
C2838 C2839 1.399 . S
C2839 H2825 0.929 . S
C2839 C2838 1.399 . S
C2839 C2840 1.385 . S
C2840 H2826 0.931 . S
C2840 C2839 1.385 . S
C2840 C2841 1.389 . S
C2841 C2840 1.389 . S
C2841 C2842 1.387 . S
C2842 H2827 0.930 . S
C2842 C2837 1.390 . S
C2842 C2841 1.387 . S
H2843 C2855 0.930 . S
H2844 C2857 0.930 . S
H2845 C2858 0.930 . S
H2846 C2862 0.959 . S
H2847 C2862 0.959 . S
H2848 C2862 0.961 . S
H2849 C2863 0.960 . S
H2850 C2863 0.961 . S
H2851 C2863 0.959 . S
H2852 C2866 0.929 . S
H2853 C2867 0.931 . S
H2854 C2869 0.930 . S
C2855 H2843 0.930 . S
C2855 C2856 1.399 . S
C2855 C2860 1.399 . S
C2856 C2855 1.399 . S
C2856 C2857 1.376 . S
C2857 H2844 0.930 . S
C2857 C2856 1.376 . S
C2857 C2858 1.388 . S
C2858 H2845 0.930 . S
C2858 C2857 1.388 . S
C2858 C2859 1.390 . S
C2859 C2858 1.390 . S
C2859 C2860 1.394 . S
C2859 C2865 1.465 . S
C2860 C2855 1.399 . S
C2860 C2859 1.394 . S
C2860 C2861 1.516 . S
C2861 C2860 1.516 . S
C2861 C2862 1.502 . S
C2861 C2863 1.561 . S
C2861 C2864 1.526 . S
C2862 H2846 0.959 . S
C2862 H2847 0.959 . S
C2862 H2848 0.961 . S
C2862 C2861 1.502 . S
C2863 H2849 0.960 . S
C2863 H2850 0.961 . S
C2863 H2851 0.959 . S
C2863 C2861 1.561 . S
C2864 C2861 1.526 . S
C2864 C2865 1.396 . S
C2864 C2869 1.390 . S
C2865 C2859 1.465 . S
C2865 C2864 1.396 . S
C2865 C2866 1.399 . S
C2866 H2852 0.929 . S
C2866 C2865 1.399 . S
C2866 C2867 1.385 . S
C2867 H2853 0.931 . S
C2867 C2866 1.385 . S
C2867 C2868 1.389 . S
C2868 C2867 1.389 . S
C2868 C2869 1.387 . S
C2869 H2854 0.930 . S
C2869 C2864 1.390 . S
C2869 C2868 1.387 . S
H2870 C2882 0.930 . S
H2871 C2884 0.930 . S
H2872 C2885 0.930 . S
H2873 C2889 0.959 . S
H2874 C2889 0.959 . S
H2875 C2889 0.961 . S
H2876 C2890 0.960 . S
H2877 C2890 0.961 . S
H2878 C2890 0.959 . S
H2879 C2893 0.929 . S
H2880 C2894 0.931 . S
H2881 C2896 0.930 . S
C2882 H2870 0.930 . S
C2882 C2883 1.399 . S
C2882 C2887 1.399 . S
C2883 C2882 1.399 . S
C2883 C2884 1.376 . S
C2884 H2871 0.930 . S
C2884 C2883 1.376 . S
C2884 C2885 1.388 . S
C2885 H2872 0.930 . S
C2885 C2884 1.388 . S
C2885 C2886 1.390 . S
C2886 C2885 1.390 . S
C2886 C2887 1.394 . S
C2886 C2892 1.465 . S
C2887 C2882 1.399 . S
C2887 C2886 1.394 . S
C2887 C2888 1.516 . S
C2888 C2887 1.516 . S
C2888 C2889 1.502 . S
C2888 C2890 1.561 . S
C2888 C2891 1.526 . S
C2889 H2873 0.959 . S
C2889 H2874 0.959 . S
C2889 H2875 0.961 . S
C2889 C2888 1.502 . S
C2890 H2876 0.960 . S
C2890 H2877 0.961 . S
C2890 H2878 0.959 . S
C2890 C2888 1.561 . S
C2891 C2888 1.526 . S
C2891 C2892 1.396 . S
C2891 C2896 1.390 . S
C2892 C2886 1.465 . S
C2892 C2891 1.396 . S
C2892 C2893 1.399 . S
C2893 H2879 0.929 . S
C2893 C2892 1.399 . S
C2893 C2894 1.385 . S
C2894 H2880 0.931 . S
C2894 C2893 1.385 . S
C2894 C2895 1.389 . S
C2895 C2894 1.389 . S
C2895 C2896 1.387 . S
C2896 H2881 0.930 . S
C2896 C2891 1.390 . S
C2896 C2895 1.387 . S
H2897 C2909 0.930 . S
H2898 C2911 0.930 . S
H2899 C2912 0.930 . S
H2900 C2916 0.959 . S
H2901 C2916 0.959 . S
H2902 C2916 0.961 . S
H2903 C2917 0.960 . S
H2904 C2917 0.961 . S
H2905 C2917 0.959 . S
H2906 C2920 0.929 . S
H2907 C2921 0.931 . S
H2908 C2923 0.930 . S
C2909 H2897 0.930 . S
C2909 C2910 1.399 . S
C2909 C2914 1.399 . S
C2910 C2909 1.399 . S
C2910 C2911 1.376 . S
C2911 H2898 0.930 . S
C2911 C2910 1.376 . S
C2911 C2912 1.388 . S
C2912 H2899 0.930 . S
C2912 C2911 1.388 . S
C2912 C2913 1.390 . S
C2913 C2912 1.390 . S
C2913 C2914 1.394 . S
C2913 C2919 1.465 . S
C2914 C2909 1.399 . S
C2914 C2913 1.394 . S
C2914 C2915 1.516 . S
C2915 C2914 1.516 . S
C2915 C2916 1.502 . S
C2915 C2917 1.561 . S
C2915 C2918 1.526 . S
C2916 H2900 0.959 . S
C2916 H2901 0.959 . S
C2916 H2902 0.961 . S
C2916 C2915 1.502 . S
C2917 H2903 0.960 . S
C2917 H2904 0.961 . S
C2917 H2905 0.959 . S
C2917 C2915 1.561 . S
C2918 C2915 1.526 . S
C2918 C2919 1.396 . S
C2918 C2923 1.390 . S
C2919 C2913 1.465 . S
C2919 C2918 1.396 . S
C2919 C2920 1.399 . S
C2920 H2906 0.929 . S
C2920 C2919 1.399 . S
C2920 C2921 1.385 . S
C2921 H2907 0.931 . S
C2921 C2920 1.385 . S
C2921 C2922 1.389 . S
C2922 C2921 1.389 . S
C2922 C2923 1.387 . S
C2923 H2908 0.930 . S
C2923 C2918 1.390 . S
C2923 C2922 1.387 . S
H2924 C2936 0.930 . S
H2925 C2938 0.930 . S
H2926 C2939 0.930 . S
H2927 C2943 0.959 . S
H2928 C2943 0.959 . S
H2929 C2943 0.961 . S
H2930 C2944 0.960 . S
H2931 C2944 0.961 . S
H2932 C2944 0.959 . S
H2933 C2947 0.929 . S
H2934 C2948 0.931 . S
H2935 C2950 0.930 . S
C2936 H2924 0.930 . S
C2936 C2937 1.399 . S
C2936 C2941 1.399 . S
C2937 C2936 1.399 . S
C2937 C2938 1.376 . S
C2938 H2925 0.930 . S
C2938 C2937 1.376 . S
C2938 C2939 1.388 . S
C2939 H2926 0.930 . S
C2939 C2938 1.388 . S
C2939 C2940 1.390 . S
C2940 C2939 1.390 . S
C2940 C2941 1.394 . S
C2940 C2946 1.465 . S
C2941 C2936 1.399 . S
C2941 C2940 1.394 . S
C2941 C2942 1.516 . S
C2942 C2941 1.516 . S
C2942 C2943 1.502 . S
C2942 C2944 1.561 . S
C2942 C2945 1.526 . S
C2943 H2927 0.959 . S
C2943 H2928 0.959 . S
C2943 H2929 0.961 . S
C2943 C2942 1.502 . S
C2944 H2930 0.960 . S
C2944 H2931 0.961 . S
C2944 H2932 0.959 . S
C2944 C2942 1.561 . S
C2945 C2942 1.526 . S
C2945 C2946 1.396 . S
C2945 C2950 1.390 . S
C2946 C2940 1.465 . S
C2946 C2945 1.396 . S
C2946 C2947 1.399 . S
C2947 H2933 0.929 . S
C2947 C2946 1.399 . S
C2947 C2948 1.385 . S
C2948 H2934 0.931 . S
C2948 C2947 1.385 . S
C2948 C2949 1.389 . S
C2949 C2948 1.389 . S
C2949 C2950 1.387 . S
C2950 H2935 0.930 . S
C2950 C2945 1.390 . S
C2950 C2949 1.387 . S
H2951 C2963 0.930 . S
H2952 C2965 0.930 . S
H2953 C2966 0.930 . S
H2954 C2970 0.959 . S
H2955 C2970 0.959 . S
H2956 C2970 0.961 . S
H2957 C2971 0.960 . S
H2958 C2971 0.961 . S
H2959 C2971 0.959 . S
H2960 C2974 0.929 . S
H2961 C2975 0.931 . S
H2962 C2977 0.930 . S
C2963 H2951 0.930 . S
C2963 C2964 1.399 . S
C2963 C2968 1.399 . S
C2964 C2963 1.399 . S
C2964 C2965 1.376 . S
C2965 H2952 0.930 . S
C2965 C2964 1.376 . S
C2965 C2966 1.388 . S
C2966 H2953 0.930 . S
C2966 C2965 1.388 . S
C2966 C2967 1.390 . S
C2967 C2966 1.390 . S
C2967 C2968 1.394 . S
C2967 C2973 1.465 . S
C2968 C2963 1.399 . S
C2968 C2967 1.394 . S
C2968 C2969 1.516 . S
C2969 C2968 1.516 . S
C2969 C2970 1.502 . S
C2969 C2971 1.561 . S
C2969 C2972 1.526 . S
C2970 H2954 0.959 . S
C2970 H2955 0.959 . S
C2970 H2956 0.961 . S
C2970 C2969 1.502 . S
C2971 H2957 0.960 . S
C2971 H2958 0.961 . S
C2971 H2959 0.959 . S
C2971 C2969 1.561 . S
C2972 C2969 1.526 . S
C2972 C2973 1.396 . S
C2972 C2977 1.390 . S
C2973 C2967 1.465 . S
C2973 C2972 1.396 . S
C2973 C2974 1.399 . S
C2974 H2960 0.929 . S
C2974 C2973 1.399 . S
C2974 C2975 1.385 . S
C2975 H2961 0.931 . S
C2975 C2974 1.385 . S
C2975 C2976 1.389 . S
C2976 C2975 1.389 . S
C2976 C2977 1.387 . S
C2977 H2962 0.930 . S
C2977 C2972 1.390 . S
C2977 C2976 1.387 . S
H2978 C2990 0.930 . S
H2979 C2992 0.930 . S
H2980 C2993 0.930 . S
H2981 C2997 0.959 . S
H2982 C2997 0.959 . S
H2983 C2997 0.961 . S
H2984 C2998 0.960 . S
H2985 C2998 0.961 . S
H2986 C2998 0.959 . S
H2987 C3001 0.929 . S
H2988 C3002 0.931 . S
H2989 C3004 0.930 . S
C2990 H2978 0.930 . S
C2990 C2991 1.399 . S
C2990 C2995 1.399 . S
C2991 C2990 1.399 . S
C2991 C2992 1.376 . S
C2992 H2979 0.930 . S
C2992 C2991 1.376 . S
C2992 C2993 1.388 . S
C2993 H2980 0.930 . S
C2993 C2992 1.388 . S
C2993 C2994 1.390 . S
C2994 C2993 1.390 . S
C2994 C2995 1.394 . S
C2994 C3000 1.465 . S
C2995 C2990 1.399 . S
C2995 C2994 1.394 . S
C2995 C2996 1.516 . S
C2996 C2995 1.516 . S
C2996 C2997 1.502 . S
C2996 C2998 1.561 . S
C2996 C2999 1.526 . S
C2997 H2981 0.959 . S
C2997 H2982 0.959 . S
C2997 H2983 0.961 . S
C2997 C2996 1.502 . S
C2998 H2984 0.960 . S
C2998 H2985 0.961 . S
C2998 H2986 0.959 . S
C2998 C2996 1.561 . S
C2999 C2996 1.526 . S
C2999 C3000 1.396 . S
C2999 C3004 1.390 . S
C3000 C2994 1.465 . S
C3000 C2999 1.396 . S
C3000 C3001 1.399 . S
C3001 H2987 0.929 . S
C3001 C3000 1.399 . S
C3001 C3002 1.385 . S
C3002 H2988 0.931 . S
C3002 C3001 1.385 . S
C3002 C3003 1.389 . S
C3003 C3002 1.389 . S
C3003 C3004 1.387 . S
C3004 H2989 0.930 . S
C3004 C2999 1.390 . S
C3004 C3003 1.387 . S
H3005 C3017 0.930 . S
H3006 C3019 0.930 . S
H3007 C3020 0.930 . S
H3008 C3024 0.959 . S
H3009 C3024 0.959 . S
H3010 C3024 0.961 . S
H3011 C3025 0.960 . S
H3012 C3025 0.961 . S
H3013 C3025 0.959 . S
H3014 C3028 0.929 . S
H3015 C3029 0.931 . S
H3016 C3031 0.930 . S
C3017 H3005 0.930 . S
C3017 C3018 1.399 . S
C3017 C3022 1.399 . S
C3018 C3017 1.399 . S
C3018 C3019 1.376 . S
C3019 H3006 0.930 . S
C3019 C3018 1.376 . S
C3019 C3020 1.388 . S
C3020 H3007 0.930 . S
C3020 C3019 1.388 . S
C3020 C3021 1.390 . S
C3021 C3020 1.390 . S
C3021 C3022 1.394 . S
C3021 C3027 1.465 . S
C3022 C3017 1.399 . S
C3022 C3021 1.394 . S
C3022 C3023 1.516 . S
C3023 C3022 1.516 . S
C3023 C3024 1.502 . S
C3023 C3025 1.561 . S
C3023 C3026 1.526 . S
C3024 H3008 0.959 . S
C3024 H3009 0.959 . S
C3024 H3010 0.961 . S
C3024 C3023 1.502 . S
C3025 H3011 0.960 . S
C3025 H3012 0.961 . S
C3025 H3013 0.959 . S
C3025 C3023 1.561 . S
C3026 C3023 1.526 . S
C3026 C3027 1.396 . S
C3026 C3031 1.390 . S
C3027 C3021 1.465 . S
C3027 C3026 1.396 . S
C3027 C3028 1.399 . S
C3028 H3014 0.929 . S
C3028 C3027 1.399 . S
C3028 C3029 1.385 . S
C3029 H3015 0.931 . S
C3029 C3028 1.385 . S
C3029 C3030 1.389 . S
C3030 C3029 1.389 . S
C3030 C3031 1.387 . S
C3031 H3016 0.930 . S
C3031 C3026 1.390 . S
C3031 C3030 1.387 . S
H3032 C3044 0.930 . S
H3033 C3046 0.930 . S
H3034 C3047 0.930 . S
H3035 C3051 0.959 . S
H3036 C3051 0.959 . S
H3037 C3051 0.961 . S
H3038 C3052 0.960 . S
H3039 C3052 0.961 . S
H3040 C3052 0.959 . S
H3041 C3055 0.929 . S
H3042 C3056 0.931 . S
H3043 C3058 0.930 . S
C3044 H3032 0.930 . S
C3044 C3045 1.399 . S
C3044 C3049 1.399 . S
C3045 C3044 1.399 . S
C3045 C3046 1.376 . S
C3046 H3033 0.930 . S
C3046 C3045 1.376 . S
C3046 C3047 1.388 . S
C3047 H3034 0.930 . S
C3047 C3046 1.388 . S
C3047 C3048 1.390 . S
C3048 C3047 1.390 . S
C3048 C3049 1.394 . S
C3048 C3054 1.465 . S
C3049 C3044 1.399 . S
C3049 C3048 1.394 . S
C3049 C3050 1.516 . S
C3050 C3049 1.516 . S
C3050 C3051 1.502 . S
C3050 C3052 1.561 . S
C3050 C3053 1.526 . S
C3051 H3035 0.959 . S
C3051 H3036 0.959 . S
C3051 H3037 0.961 . S
C3051 C3050 1.502 . S
C3052 H3038 0.960 . S
C3052 H3039 0.961 . S
C3052 H3040 0.959 . S
C3052 C3050 1.561 . S
C3053 C3050 1.526 . S
C3053 C3054 1.396 . S
C3053 C3058 1.390 . S
C3054 C3048 1.465 . S
C3054 C3053 1.396 . S
C3054 C3055 1.399 . S
C3055 H3041 0.929 . S
C3055 C3054 1.399 . S
C3055 C3056 1.385 . S
C3056 H3042 0.931 . S
C3056 C3055 1.385 . S
C3056 C3057 1.389 . S
C3057 C3056 1.389 . S
C3057 C3058 1.387 . S
C3058 H3043 0.930 . S
C3058 C3053 1.390 . S
C3058 C3057 1.387 . S
H3059 C3071 0.930 . S
H3060 C3073 0.930 . S
H3061 C3074 0.930 . S
H3062 C3078 0.959 . S
H3063 C3078 0.959 . S
H3064 C3078 0.961 . S
H3065 C3079 0.960 . S
H3066 C3079 0.961 . S
H3067 C3079 0.959 . S
H3068 C3082 0.929 . S
H3069 C3083 0.931 . S
H3070 C3085 0.930 . S
C3071 H3059 0.930 . S
C3071 C3072 1.399 . S
C3071 C3076 1.399 . S
C3072 C3071 1.399 . S
C3072 C3073 1.376 . S
C3073 H3060 0.930 . S
C3073 C3072 1.376 . S
C3073 C3074 1.388 . S
C3074 H3061 0.930 . S
C3074 C3073 1.388 . S
C3074 C3075 1.390 . S
C3075 C3074 1.390 . S
C3075 C3076 1.394 . S
C3075 C3081 1.465 . S
C3076 C3071 1.399 . S
C3076 C3075 1.394 . S
C3076 C3077 1.516 . S
C3077 C3076 1.516 . S
C3077 C3078 1.502 . S
C3077 C3079 1.561 . S
C3077 C3080 1.526 . S
C3078 H3062 0.959 . S
C3078 H3063 0.959 . S
C3078 H3064 0.961 . S
C3078 C3077 1.502 . S
C3079 H3065 0.960 . S
C3079 H3066 0.961 . S
C3079 H3067 0.959 . S
C3079 C3077 1.561 . S
C3080 C3077 1.526 . S
C3080 C3081 1.396 . S
C3080 C3085 1.390 . S
C3081 C3075 1.465 . S
C3081 C3080 1.396 . S
C3081 C3082 1.399 . S
C3082 H3068 0.929 . S
C3082 C3081 1.399 . S
C3082 C3083 1.385 . S
C3083 H3069 0.931 . S
C3083 C3082 1.385 . S
C3083 C3084 1.389 . S
C3084 C3083 1.389 . S
C3084 C3085 1.387 . S
C3085 H3070 0.930 . S
C3085 C3080 1.390 . S
C3085 C3084 1.387 . S
H3086 C3098 0.930 . S
H3087 C3100 0.930 . S
H3088 C3101 0.930 . S
H3089 C3105 0.959 . S
H3090 C3105 0.959 . S
H3091 C3105 0.961 . S
H3092 C3106 0.960 . S
H3093 C3106 0.961 . S
H3094 C3106 0.959 . S
H3095 C3109 0.929 . S
H3096 C3110 0.931 . S
H3097 C3112 0.930 . S
C3098 H3086 0.930 . S
C3098 C3099 1.399 . S
C3098 C3103 1.399 . S
C3099 C3098 1.399 . S
C3099 C3100 1.376 . S
C3100 H3087 0.930 . S
C3100 C3099 1.376 . S
C3100 C3101 1.388 . S
C3101 H3088 0.930 . S
C3101 C3100 1.388 . S
C3101 C3102 1.390 . S
C3102 C3101 1.390 . S
C3102 C3103 1.394 . S
C3102 C3108 1.465 . S
C3103 C3098 1.399 . S
C3103 C3102 1.394 . S
C3103 C3104 1.516 . S
C3104 C3103 1.516 . S
C3104 C3105 1.502 . S
C3104 C3106 1.561 . S
C3104 C3107 1.526 . S
C3105 H3089 0.959 . S
C3105 H3090 0.959 . S
C3105 H3091 0.961 . S
C3105 C3104 1.502 . S
C3106 H3092 0.960 . S
C3106 H3093 0.961 . S
C3106 H3094 0.959 . S
C3106 C3104 1.561 . S
C3107 C3104 1.526 . S
C3107 C3108 1.396 . S
C3107 C3112 1.390 . S
C3108 C3102 1.465 . S
C3108 C3107 1.396 . S
C3108 C3109 1.399 . S
C3109 H3095 0.929 . S
C3109 C3108 1.399 . S
C3109 C3110 1.385 . S
C3110 H3096 0.931 . S
C3110 C3109 1.385 . S
C3110 C3111 1.389 . S
C3111 C3110 1.389 . S
C3111 C3112 1.387 . S
C3112 H3097 0.930 . S
C3112 C3107 1.390 . S
C3112 C3111 1.387 . S
H3113 C3125 0.930 . S
H3114 C3127 0.930 . S
H3115 C3128 0.930 . S
H3116 C3132 0.959 . S
H3117 C3132 0.959 . S
H3118 C3132 0.961 . S
H3119 C3133 0.960 . S
H3120 C3133 0.961 . S
H3121 C3133 0.959 . S
H3122 C3136 0.929 . S
H3123 C3137 0.931 . S
H3124 C3139 0.930 . S
C3125 H3113 0.930 . S
C3125 C3126 1.399 . S
C3125 C3130 1.399 . S
C3126 C3125 1.399 . S
C3126 C3127 1.376 . S
C3127 H3114 0.930 . S
C3127 C3126 1.376 . S
C3127 C3128 1.388 . S
C3128 H3115 0.930 . S
C3128 C3127 1.388 . S
C3128 C3129 1.390 . S
C3129 C3128 1.390 . S
C3129 C3130 1.394 . S
C3129 C3135 1.465 . S
C3130 C3125 1.399 . S
C3130 C3129 1.394 . S
C3130 C3131 1.516 . S
C3131 C3130 1.516 . S
C3131 C3132 1.502 . S
C3131 C3133 1.561 . S
C3131 C3134 1.526 . S
C3132 H3116 0.959 . S
C3132 H3117 0.959 . S
C3132 H3118 0.961 . S
C3132 C3131 1.502 . S
C3133 H3119 0.960 . S
C3133 H3120 0.961 . S
C3133 H3121 0.959 . S
C3133 C3131 1.561 . S
C3134 C3131 1.526 . S
C3134 C3135 1.396 . S
C3134 C3139 1.390 . S
C3135 C3129 1.465 . S
C3135 C3134 1.396 . S
C3135 C3136 1.399 . S
C3136 H3122 0.929 . S
C3136 C3135 1.399 . S
C3136 C3137 1.385 . S
C3137 H3123 0.931 . S
C3137 C3136 1.385 . S
C3137 C3138 1.389 . S
C3138 C3137 1.389 . S
C3138 C3139 1.387 . S
C3139 H3124 0.930 . S
C3139 C3134 1.390 . S
C3139 C3138 1.387 . S
H3140 C3152 0.930 . S
H3141 C3154 0.930 . S
H3142 C3155 0.930 . S
H3143 C3159 0.959 . S
H3144 C3159 0.959 . S
H3145 C3159 0.961 . S
H3146 C3160 0.960 . S
H3147 C3160 0.961 . S
H3148 C3160 0.959 . S
H3149 C3163 0.929 . S
H3150 C3164 0.931 . S
H3151 C3166 0.930 . S
C3152 H3140 0.930 . S
C3152 C3153 1.399 . S
C3152 C3157 1.399 . S
C3153 C3152 1.399 . S
C3153 C3154 1.376 . S
C3154 H3141 0.930 . S
C3154 C3153 1.376 . S
C3154 C3155 1.388 . S
C3155 H3142 0.930 . S
C3155 C3154 1.388 . S
C3155 C3156 1.390 . S
C3156 C3155 1.390 . S
C3156 C3157 1.394 . S
C3156 C3162 1.465 . S
C3157 C3152 1.399 . S
C3157 C3156 1.394 . S
C3157 C3158 1.516 . S
C3158 C3157 1.516 . S
C3158 C3159 1.502 . S
C3158 C3160 1.561 . S
C3158 C3161 1.526 . S
C3159 H3143 0.959 . S
C3159 H3144 0.959 . S
C3159 H3145 0.961 . S
C3159 C3158 1.502 . S
C3160 H3146 0.960 . S
C3160 H3147 0.961 . S
C3160 H3148 0.959 . S
C3160 C3158 1.561 . S
C3161 C3158 1.526 . S
C3161 C3162 1.396 . S
C3161 C3166 1.390 . S
C3162 C3156 1.465 . S
C3162 C3161 1.396 . S
C3162 C3163 1.399 . S
C3163 H3149 0.929 . S
C3163 C3162 1.399 . S
C3163 C3164 1.385 . S
C3164 H3150 0.931 . S
C3164 C3163 1.385 . S
C3164 C3165 1.389 . S
C3165 C3164 1.389 . S
C3165 C3166 1.387 . S
C3166 H3151 0.930 . S
C3166 C3161 1.390 . S
C3166 C3165 1.387 . S
H3167 C3179 0.930 . S
H3168 C3181 0.930 . S
H3169 C3182 0.930 . S
H3170 C3186 0.959 . S
H3171 C3186 0.959 . S
H3172 C3186 0.961 . S
H3173 C3187 0.960 . S
H3174 C3187 0.961 . S
H3175 C3187 0.959 . S
H3176 C3190 0.929 . S
H3177 C3191 0.931 . S
H3178 C3193 0.930 . S
C3179 H3167 0.930 . S
C3179 C3180 1.399 . S
C3179 C3184 1.399 . S
C3180 C3179 1.399 . S
C3180 C3181 1.376 . S
C3181 H3168 0.930 . S
C3181 C3180 1.376 . S
C3181 C3182 1.388 . S
C3182 H3169 0.930 . S
C3182 C3181 1.388 . S
C3182 C3183 1.390 . S
C3183 C3182 1.390 . S
C3183 C3184 1.394 . S
C3183 C3189 1.465 . S
C3184 C3179 1.399 . S
C3184 C3183 1.394 . S
C3184 C3185 1.516 . S
C3185 C3184 1.516 . S
C3185 C3186 1.502 . S
C3185 C3187 1.561 . S
C3185 C3188 1.526 . S
C3186 H3170 0.959 . S
C3186 H3171 0.959 . S
C3186 H3172 0.961 . S
C3186 C3185 1.502 . S
C3187 H3173 0.960 . S
C3187 H3174 0.961 . S
C3187 H3175 0.959 . S
C3187 C3185 1.561 . S
C3188 C3185 1.526 . S
C3188 C3189 1.396 . S
C3188 C3193 1.390 . S
C3189 C3183 1.465 . S
C3189 C3188 1.396 . S
C3189 C3190 1.399 . S
C3190 H3176 0.929 . S
C3190 C3189 1.399 . S
C3190 C3191 1.385 . S
C3191 H3177 0.931 . S
C3191 C3190 1.385 . S
C3191 C3192 1.389 . S
C3192 C3191 1.389 . S
C3192 C3193 1.387 . S
C3193 H3178 0.930 . S
C3193 C3188 1.390 . S
C3193 C3192 1.387 . S
H3194 C3206 0.930 . S
H3195 C3208 0.930 . S
H3196 C3209 0.930 . S
H3197 C3213 0.959 . S
H3198 C3213 0.959 . S
H3199 C3213 0.961 . S
H3200 C3214 0.960 . S
H3201 C3214 0.961 . S
H3202 C3214 0.959 . S
H3203 C3217 0.929 . S
H3204 C3218 0.931 . S
H3205 C3220 0.930 . S
C3206 H3194 0.930 . S
C3206 C3207 1.399 . S
C3206 C3211 1.399 . S
C3207 C3206 1.399 . S
C3207 C3208 1.376 . S
C3208 H3195 0.930 . S
C3208 C3207 1.376 . S
C3208 C3209 1.388 . S
C3209 H3196 0.930 . S
C3209 C3208 1.388 . S
C3209 C3210 1.390 . S
C3210 C3209 1.390 . S
C3210 C3211 1.394 . S
C3210 C3216 1.465 . S
C3211 C3206 1.399 . S
C3211 C3210 1.394 . S
C3211 C3212 1.516 . S
C3212 C3211 1.516 . S
C3212 C3213 1.502 . S
C3212 C3214 1.561 . S
C3212 C3215 1.526 . S
C3213 H3197 0.959 . S
C3213 H3198 0.959 . S
C3213 H3199 0.961 . S
C3213 C3212 1.502 . S
C3214 H3200 0.960 . S
C3214 H3201 0.961 . S
C3214 H3202 0.959 . S
C3214 C3212 1.561 . S
C3215 C3212 1.526 . S
C3215 C3216 1.396 . S
C3215 C3220 1.390 . S
C3216 C3210 1.465 . S
C3216 C3215 1.396 . S
C3216 C3217 1.399 . S
C3217 H3203 0.929 . S
C3217 C3216 1.399 . S
C3217 C3218 1.385 . S
C3218 H3204 0.931 . S
C3218 C3217 1.385 . S
C3218 C3219 1.389 . S
C3219 C3218 1.389 . S
C3219 C3220 1.387 . S
C3220 H3205 0.930 . S
C3220 C3215 1.390 . S
C3220 C3219 1.387 . S
H3221 C3233 0.930 . S
H3222 C3235 0.930 . S
H3223 C3236 0.930 . S
H3224 C3240 0.959 . S
H3225 C3240 0.959 . S
H3226 C3240 0.961 . S
H3227 C3241 0.960 . S
H3228 C3241 0.961 . S
H3229 C3241 0.959 . S
H3230 C3244 0.929 . S
H3231 C3245 0.931 . S
H3232 C3247 0.930 . S
C3233 H3221 0.930 . S
C3233 C3234 1.399 . S
C3233 C3238 1.399 . S
C3234 C3233 1.399 . S
C3234 C3235 1.376 . S
C3235 H3222 0.930 . S
C3235 C3234 1.376 . S
C3235 C3236 1.388 . S
C3236 H3223 0.930 . S
C3236 C3235 1.388 . S
C3236 C3237 1.390 . S
C3237 C3236 1.390 . S
C3237 C3238 1.394 . S
C3237 C3243 1.465 . S
C3238 C3233 1.399 . S
C3238 C3237 1.394 . S
C3238 C3239 1.516 . S
C3239 C3238 1.516 . S
C3239 C3240 1.502 . S
C3239 C3241 1.561 . S
C3239 C3242 1.526 . S
C3240 H3224 0.959 . S
C3240 H3225 0.959 . S
C3240 H3226 0.961 . S
C3240 C3239 1.502 . S
C3241 H3227 0.960 . S
C3241 H3228 0.961 . S
C3241 H3229 0.959 . S
C3241 C3239 1.561 . S
C3242 C3239 1.526 . S
C3242 C3243 1.396 . S
C3242 C3247 1.390 . S
C3243 C3237 1.465 . S
C3243 C3242 1.396 . S
C3243 C3244 1.399 . S
C3244 H3230 0.929 . S
C3244 C3243 1.399 . S
C3244 C3245 1.385 . S
C3245 H3231 0.931 . S
C3245 C3244 1.385 . S
C3245 C3246 1.389 . S
C3246 C3245 1.389 . S
C3246 C3247 1.387 . S
C3247 H3232 0.930 . S
C3247 C3242 1.390 . S
C3247 C3246 1.387 . S
H3248 C3260 0.930 . S
H3249 C3262 0.930 . S
H3250 C3263 0.930 . S
H3251 C3267 0.959 . S
H3252 C3267 0.959 . S
H3253 C3267 0.961 . S
H3254 C3268 0.960 . S
H3255 C3268 0.961 . S
H3256 C3268 0.959 . S
H3257 C3271 0.929 . S
H3258 C3272 0.931 . S
H3259 C3274 0.930 . S
C3260 H3248 0.930 . S
C3260 C3261 1.399 . S
C3260 C3265 1.399 . S
C3261 C3260 1.399 . S
C3261 C3262 1.376 . S
C3262 H3249 0.930 . S
C3262 C3261 1.376 . S
C3262 C3263 1.388 . S
C3263 H3250 0.930 . S
C3263 C3262 1.388 . S
C3263 C3264 1.390 . S
C3264 C3263 1.390 . S
C3264 C3265 1.394 . S
C3264 C3270 1.465 . S
C3265 C3260 1.399 . S
C3265 C3264 1.394 . S
C3265 C3266 1.516 . S
C3266 C3265 1.516 . S
C3266 C3267 1.502 . S
C3266 C3268 1.561 . S
C3266 C3269 1.526 . S
C3267 H3251 0.959 . S
C3267 H3252 0.959 . S
C3267 H3253 0.961 . S
C3267 C3266 1.502 . S
C3268 H3254 0.960 . S
C3268 H3255 0.961 . S
C3268 H3256 0.959 . S
C3268 C3266 1.561 . S
C3269 C3266 1.526 . S
C3269 C3270 1.396 . S
C3269 C3274 1.390 . S
C3270 C3264 1.465 . S
C3270 C3269 1.396 . S
C3270 C3271 1.399 . S
C3271 H3257 0.929 . S
C3271 C3270 1.399 . S
C3271 C3272 1.385 . S
C3272 H3258 0.931 . S
C3272 C3271 1.385 . S
C3272 C3273 1.389 . S
C3273 C3272 1.389 . S
C3273 C3274 1.387 . S
C3274 H3259 0.930 . S
C3274 C3269 1.390 . S
C3274 C3273 1.387 . S
H3275 C3287 0.930 . S
H3276 C3289 0.930 . S
H3277 C3290 0.930 . S
H3278 C3294 0.959 . S
H3279 C3294 0.959 . S
H3280 C3294 0.961 . S
H3281 C3295 0.960 . S
H3282 C3295 0.961 . S
H3283 C3295 0.959 . S
H3284 C3298 0.929 . S
H3285 C3299 0.931 . S
H3286 C3301 0.930 . S
C3287 H3275 0.930 . S
C3287 C3288 1.399 . S
C3287 C3292 1.399 . S
C3288 C3287 1.399 . S
C3288 C3289 1.376 . S
C3289 H3276 0.930 . S
C3289 C3288 1.376 . S
C3289 C3290 1.388 . S
C3290 H3277 0.930 . S
C3290 C3289 1.388 . S
C3290 C3291 1.390 . S
C3291 C3290 1.390 . S
C3291 C3292 1.394 . S
C3291 C3297 1.465 . S
C3292 C3287 1.399 . S
C3292 C3291 1.394 . S
C3292 C3293 1.516 . S
C3293 C3292 1.516 . S
C3293 C3294 1.502 . S
C3293 C3295 1.561 . S
C3293 C3296 1.526 . S
C3294 H3278 0.959 . S
C3294 H3279 0.959 . S
C3294 H3280 0.961 . S
C3294 C3293 1.502 . S
C3295 H3281 0.960 . S
C3295 H3282 0.961 . S
C3295 H3283 0.959 . S
C3295 C3293 1.561 . S
C3296 C3293 1.526 . S
C3296 C3297 1.396 . S
C3296 C3301 1.390 . S
C3297 C3291 1.465 . S
C3297 C3296 1.396 . S
C3297 C3298 1.399 . S
C3298 H3284 0.929 . S
C3298 C3297 1.399 . S
C3298 C3299 1.385 . S
C3299 H3285 0.931 . S
C3299 C3298 1.385 . S
C3299 C3300 1.389 . S
C3300 C3299 1.389 . S
C3300 C3301 1.387 . S
C3301 H3286 0.930 . S
C3301 C3296 1.390 . S
C3301 C3300 1.387 . S
H3302 C3314 0.930 . S
H3303 C3316 0.930 . S
H3304 C3317 0.930 . S
H3305 C3321 0.959 . S
H3306 C3321 0.959 . S
H3307 C3321 0.961 . S
H3308 C3322 0.960 . S
H3309 C3322 0.961 . S
H3310 C3322 0.959 . S
H3311 C3325 0.929 . S
H3312 C3326 0.931 . S
H3313 C3328 0.930 . S
C3314 H3302 0.930 . S
C3314 C3315 1.399 . S
C3314 C3319 1.399 . S
C3315 C3314 1.399 . S
C3315 C3316 1.376 . S
C3316 H3303 0.930 . S
C3316 C3315 1.376 . S
C3316 C3317 1.388 . S
C3317 H3304 0.930 . S
C3317 C3316 1.388 . S
C3317 C3318 1.390 . S
C3318 C3317 1.390 . S
C3318 C3319 1.394 . S
C3318 C3324 1.465 . S
C3319 C3314 1.399 . S
C3319 C3318 1.394 . S
C3319 C3320 1.516 . S
C3320 C3319 1.516 . S
C3320 C3321 1.502 . S
C3320 C3322 1.561 . S
C3320 C3323 1.526 . S
C3321 H3305 0.959 . S
C3321 H3306 0.959 . S
C3321 H3307 0.961 . S
C3321 C3320 1.502 . S
C3322 H3308 0.960 . S
C3322 H3309 0.961 . S
C3322 H3310 0.959 . S
C3322 C3320 1.561 . S
C3323 C3320 1.526 . S
C3323 C3324 1.396 . S
C3323 C3328 1.390 . S
C3324 C3318 1.465 . S
C3324 C3323 1.396 . S
C3324 C3325 1.399 . S
C3325 H3311 0.929 . S
C3325 C3324 1.399 . S
C3325 C3326 1.385 . S
C3326 H3312 0.931 . S
C3326 C3325 1.385 . S
C3326 C3327 1.389 . S
C3327 C3326 1.389 . S
C3327 C3328 1.387 . S
C3328 H3313 0.930 . S
C3328 C3323 1.390 . S
C3328 C3327 1.387 . S
H3329 C3341 0.930 . S
H3330 C3343 0.930 . S
H3331 C3344 0.930 . S
H3332 C3348 0.959 . S
H3333 C3348 0.959 . S
H3334 C3348 0.961 . S
H3335 C3349 0.960 . S
H3336 C3349 0.961 . S
H3337 C3349 0.959 . S
H3338 C3352 0.929 . S
H3339 C3353 0.931 . S
H3340 C3355 0.930 . S
C3341 H3329 0.930 . S
C3341 C3342 1.399 . S
C3341 C3346 1.399 . S
C3342 C3341 1.399 . S
C3342 C3343 1.376 . S
C3343 H3330 0.930 . S
C3343 C3342 1.376 . S
C3343 C3344 1.388 . S
C3344 H3331 0.930 . S
C3344 C3343 1.388 . S
C3344 C3345 1.390 . S
C3345 C3344 1.390 . S
C3345 C3346 1.394 . S
C3345 C3351 1.465 . S
C3346 C3341 1.399 . S
C3346 C3345 1.394 . S
C3346 C3347 1.516 . S
C3347 C3346 1.516 . S
C3347 C3348 1.502 . S
C3347 C3349 1.561 . S
C3347 C3350 1.526 . S
C3348 H3332 0.959 . S
C3348 H3333 0.959 . S
C3348 H3334 0.961 . S
C3348 C3347 1.502 . S
C3349 H3335 0.960 . S
C3349 H3336 0.961 . S
C3349 H3337 0.959 . S
C3349 C3347 1.561 . S
C3350 C3347 1.526 . S
C3350 C3351 1.396 . S
C3350 C3355 1.390 . S
C3351 C3345 1.465 . S
C3351 C3350 1.396 . S
C3351 C3352 1.399 . S
C3352 H3338 0.929 . S
C3352 C3351 1.399 . S
C3352 C3353 1.385 . S
C3353 H3339 0.931 . S
C3353 C3352 1.385 . S
C3353 C3354 1.389 . S
C3354 C3353 1.389 . S
C3354 C3355 1.387 . S
C3355 H3340 0.930 . S
C3355 C3350 1.390 . S
C3355 C3354 1.387 . S
H3356 C3368 0.930 . S
H3357 C3370 0.930 . S
H3358 C3371 0.930 . S
H3359 C3375 0.959 . S
H3360 C3375 0.959 . S
H3361 C3375 0.961 . S
H3362 C3376 0.960 . S
H3363 C3376 0.961 . S
H3364 C3376 0.959 . S
H3365 C3379 0.929 . S
H3366 C3380 0.931 . S
H3367 C3382 0.930 . S
C3368 H3356 0.930 . S
C3368 C3369 1.399 . S
C3368 C3373 1.399 . S
C3369 C3368 1.399 . S
C3369 C3370 1.376 . S
C3370 H3357 0.930 . S
C3370 C3369 1.376 . S
C3370 C3371 1.388 . S
C3371 H3358 0.930 . S
C3371 C3370 1.388 . S
C3371 C3372 1.390 . S
C3372 C3371 1.390 . S
C3372 C3373 1.394 . S
C3372 C3378 1.465 . S
C3373 C3368 1.399 . S
C3373 C3372 1.394 . S
C3373 C3374 1.516 . S
C3374 C3373 1.516 . S
C3374 C3375 1.502 . S
C3374 C3376 1.561 . S
C3374 C3377 1.526 . S
C3375 H3359 0.959 . S
C3375 H3360 0.959 . S
C3375 H3361 0.961 . S
C3375 C3374 1.502 . S
C3376 H3362 0.960 . S
C3376 H3363 0.961 . S
C3376 H3364 0.959 . S
C3376 C3374 1.561 . S
C3377 C3374 1.526 . S
C3377 C3378 1.396 . S
C3377 C3382 1.390 . S
C3378 C3372 1.465 . S
C3378 C3377 1.396 . S
C3378 C3379 1.399 . S
C3379 H3365 0.929 . S
C3379 C3378 1.399 . S
C3379 C3380 1.385 . S
C3380 H3366 0.931 . S
C3380 C3379 1.385 . S
C3380 C3381 1.389 . S
C3381 C3380 1.389 . S
C3381 C3382 1.387 . S
C3382 H3367 0.930 . S
C3382 C3377 1.390 . S
C3382 C3381 1.387 . S
H3383 C3395 0.930 . S
H3384 C3397 0.930 . S
H3385 C3398 0.930 . S
H3386 C3402 0.959 . S
H3387 C3402 0.959 . S
H3388 C3402 0.961 . S
H3389 C3403 0.960 . S
H3390 C3403 0.961 . S
H3391 C3403 0.959 . S
H3392 C3406 0.929 . S
H3393 C3407 0.931 . S
H3394 C3409 0.930 . S
C3395 H3383 0.930 . S
C3395 C3396 1.399 . S
C3395 C3400 1.399 . S
C3396 C3395 1.399 . S
C3396 C3397 1.376 . S
C3397 H3384 0.930 . S
C3397 C3396 1.376 . S
C3397 C3398 1.388 . S
C3398 H3385 0.930 . S
C3398 C3397 1.388 . S
C3398 C3399 1.390 . S
C3399 C3398 1.390 . S
C3399 C3400 1.394 . S
C3399 C3405 1.465 . S
C3400 C3395 1.399 . S
C3400 C3399 1.394 . S
C3400 C3401 1.516 . S
C3401 C3400 1.516 . S
C3401 C3402 1.502 . S
C3401 C3403 1.561 . S
C3401 C3404 1.526 . S
C3402 H3386 0.959 . S
C3402 H3387 0.959 . S
C3402 H3388 0.961 . S
C3402 C3401 1.502 . S
C3403 H3389 0.960 . S
C3403 H3390 0.961 . S
C3403 H3391 0.959 . S
C3403 C3401 1.561 . S
C3404 C3401 1.526 . S
C3404 C3405 1.396 . S
C3404 C3409 1.390 . S
C3405 C3399 1.465 . S
C3405 C3404 1.396 . S
C3405 C3406 1.399 . S
C3406 H3392 0.929 . S
C3406 C3405 1.399 . S
C3406 C3407 1.385 . S
C3407 H3393 0.931 . S
C3407 C3406 1.385 . S
C3407 C3408 1.389 . S
C3408 C3407 1.389 . S
C3408 C3409 1.387 . S
C3409 H3394 0.930 . S
C3409 C3404 1.390 . S
C3409 C3408 1.387 . S
H3410 C3422 0.930 . S
H3411 C3424 0.930 . S
H3412 C3425 0.930 . S
H3413 C3429 0.959 . S
H3414 C3429 0.959 . S
H3415 C3429 0.961 . S
H3416 C3430 0.960 . S
H3417 C3430 0.961 . S
H3418 C3430 0.959 . S
H3419 C3433 0.929 . S
H3420 C3434 0.931 . S
H3421 C3436 0.930 . S
C3422 H3410 0.930 . S
C3422 C3423 1.399 . S
C3422 C3427 1.399 . S
C3423 C3422 1.399 . S
C3423 C3424 1.376 . S
C3424 H3411 0.930 . S
C3424 C3423 1.376 . S
C3424 C3425 1.388 . S
C3425 H3412 0.930 . S
C3425 C3424 1.388 . S
C3425 C3426 1.390 . S
C3426 C3425 1.390 . S
C3426 C3427 1.394 . S
C3426 C3432 1.465 . S
C3427 C3422 1.399 . S
C3427 C3426 1.394 . S
C3427 C3428 1.516 . S
C3428 C3427 1.516 . S
C3428 C3429 1.502 . S
C3428 C3430 1.561 . S
C3428 C3431 1.526 . S
C3429 H3413 0.959 . S
C3429 H3414 0.959 . S
C3429 H3415 0.961 . S
C3429 C3428 1.502 . S
C3430 H3416 0.960 . S
C3430 H3417 0.961 . S
C3430 H3418 0.959 . S
C3430 C3428 1.561 . S
C3431 C3428 1.526 . S
C3431 C3432 1.396 . S
C3431 C3436 1.390 . S
C3432 C3426 1.465 . S
C3432 C3431 1.396 . S
C3432 C3433 1.399 . S
C3433 H3419 0.929 . S
C3433 C3432 1.399 . S
C3433 C3434 1.385 . S
C3434 H3420 0.931 . S
C3434 C3433 1.385 . S
C3434 C3435 1.389 . S
C3435 C3434 1.389 . S
C3435 C3436 1.387 . S
C3436 H3421 0.930 . S
C3436 C3431 1.390 . S
C3436 C3435 1.387 . S
H3437 C3449 0.930 . S
H3438 C3451 0.930 . S
H3439 C3452 0.930 . S
H3440 C3456 0.959 . S
H3441 C3456 0.959 . S
H3442 C3456 0.961 . S
H3443 C3457 0.960 . S
H3444 C3457 0.961 . S
H3445 C3457 0.959 . S
H3446 C3460 0.929 . S
H3447 C3461 0.931 . S
H3448 C3463 0.930 . S
C3449 H3437 0.930 . S
C3449 C3450 1.399 . S
C3449 C3454 1.399 . S
C3450 C3449 1.399 . S
C3450 C3451 1.376 . S
C3451 H3438 0.930 . S
C3451 C3450 1.376 . S
C3451 C3452 1.388 . S
C3452 H3439 0.930 . S
C3452 C3451 1.388 . S
C3452 C3453 1.390 . S
C3453 C3452 1.390 . S
C3453 C3454 1.394 . S
C3453 C3459 1.465 . S
C3454 C3449 1.399 . S
C3454 C3453 1.394 . S
C3454 C3455 1.516 . S
C3455 C3454 1.516 . S
C3455 C3456 1.502 . S
C3455 C3457 1.561 . S
C3455 C3458 1.526 . S
C3456 H3440 0.959 . S
C3456 H3441 0.959 . S
C3456 H3442 0.961 . S
C3456 C3455 1.502 . S
C3457 H3443 0.960 . S
C3457 H3444 0.961 . S
C3457 H3445 0.959 . S
C3457 C3455 1.561 . S
C3458 C3455 1.526 . S
C3458 C3459 1.396 . S
C3458 C3463 1.390 . S
C3459 C3453 1.465 . S
C3459 C3458 1.396 . S
C3459 C3460 1.399 . S
C3460 H3446 0.929 . S
C3460 C3459 1.399 . S
C3460 C3461 1.385 . S
C3461 H3447 0.931 . S
C3461 C3460 1.385 . S
C3461 C3462 1.389 . S
C3462 C3461 1.389 . S
C3462 C3463 1.387 . S
C3463 H3448 0.930 . S
C3463 C3458 1.390 . S
C3463 C3462 1.387 . S
H3464 C3476 0.930 . S
H3465 C3478 0.930 . S
H3466 C3479 0.930 . S
H3467 C3483 0.959 . S
H3468 C3483 0.959 . S
H3469 C3483 0.961 . S
H3470 C3484 0.960 . S
H3471 C3484 0.961 . S
H3472 C3484 0.959 . S
H3473 C3487 0.929 . S
H3474 C3488 0.931 . S
H3475 C3490 0.930 . S
C3476 H3464 0.930 . S
C3476 C3477 1.399 . S
C3476 C3481 1.399 . S
C3477 C3476 1.399 . S
C3477 C3478 1.376 . S
C3478 H3465 0.930 . S
C3478 C3477 1.376 . S
C3478 C3479 1.388 . S
C3479 H3466 0.930 . S
C3479 C3478 1.388 . S
C3479 C3480 1.390 . S
C3480 C3479 1.390 . S
C3480 C3481 1.394 . S
C3480 C3486 1.465 . S
C3481 C3476 1.399 . S
C3481 C3480 1.394 . S
C3481 C3482 1.516 . S
C3482 C3481 1.516 . S
C3482 C3483 1.502 . S
C3482 C3484 1.561 . S
C3482 C3485 1.526 . S
C3483 H3467 0.959 . S
C3483 H3468 0.959 . S
C3483 H3469 0.961 . S
C3483 C3482 1.502 . S
C3484 H3470 0.960 . S
C3484 H3471 0.961 . S
C3484 H3472 0.959 . S
C3484 C3482 1.561 . S
C3485 C3482 1.526 . S
C3485 C3486 1.396 . S
C3485 C3490 1.390 . S
C3486 C3480 1.465 . S
C3486 C3485 1.396 . S
C3486 C3487 1.399 . S
C3487 H3473 0.929 . S
C3487 C3486 1.399 . S
C3487 C3488 1.385 . S
C3488 H3474 0.931 . S
C3488 C3487 1.385 . S
C3488 C3489 1.389 . S
C3489 C3488 1.389 . S
C3489 C3490 1.387 . S
C3490 H3475 0.930 . S
C3490 C3485 1.390 . S
C3490 C3489 1.387 . S
H3491 C3503 0.930 . S
H3492 C3505 0.930 . S
H3493 C3506 0.930 . S
H3494 C3510 0.959 . S
H3495 C3510 0.959 . S
H3496 C3510 0.961 . S
H3497 C3511 0.960 . S
H3498 C3511 0.961 . S
H3499 C3511 0.959 . S
H3500 C3514 0.929 . S
H3501 C3515 0.931 . S
H3502 C3517 0.930 . S
C3503 H3491 0.930 . S
C3503 C3504 1.399 . S
C3503 C3508 1.399 . S
C3504 C3503 1.399 . S
C3504 C3505 1.376 . S
C3505 H3492 0.930 . S
C3505 C3504 1.376 . S
C3505 C3506 1.388 . S
C3506 H3493 0.930 . S
C3506 C3505 1.388 . S
C3506 C3507 1.390 . S
C3507 C3506 1.390 . S
C3507 C3508 1.394 . S
C3507 C3513 1.465 . S
C3508 C3503 1.399 . S
C3508 C3507 1.394 . S
C3508 C3509 1.516 . S
C3509 C3508 1.516 . S
C3509 C3510 1.502 . S
C3509 C3511 1.561 . S
C3509 C3512 1.526 . S
C3510 H3494 0.959 . S
C3510 H3495 0.959 . S
C3510 H3496 0.961 . S
C3510 C3509 1.502 . S
C3511 H3497 0.960 . S
C3511 H3498 0.961 . S
C3511 H3499 0.959 . S
C3511 C3509 1.561 . S
C3512 C3509 1.526 . S
C3512 C3513 1.396 . S
C3512 C3517 1.390 . S
C3513 C3507 1.465 . S
C3513 C3512 1.396 . S
C3513 C3514 1.399 . S
C3514 H3500 0.929 . S
C3514 C3513 1.399 . S
C3514 C3515 1.385 . S
C3515 H3501 0.931 . S
C3515 C3514 1.385 . S
C3515 C3516 1.389 . S
C3516 C3515 1.389 . S
C3516 C3517 1.387 . S
C3517 H3502 0.930 . S
C3517 C3512 1.390 . S
C3517 C3516 1.387 . S
H3518 C3530 0.930 . S
H3519 C3532 0.930 . S
H3520 C3533 0.930 . S
H3521 C3537 0.959 . S
H3522 C3537 0.959 . S
H3523 C3537 0.961 . S
H3524 C3538 0.960 . S
H3525 C3538 0.961 . S
H3526 C3538 0.959 . S
H3527 C3541 0.929 . S
H3528 C3542 0.931 . S
H3529 C3544 0.930 . S
C3530 H3518 0.930 . S
C3530 C3531 1.399 . S
C3530 C3535 1.399 . S
C3531 C3530 1.399 . S
C3531 C3532 1.376 . S
C3532 H3519 0.930 . S
C3532 C3531 1.376 . S
C3532 C3533 1.388 . S
C3533 H3520 0.930 . S
C3533 C3532 1.388 . S
C3533 C3534 1.390 . S
C3534 C3533 1.390 . S
C3534 C3535 1.394 . S
C3534 C3540 1.465 . S
C3535 C3530 1.399 . S
C3535 C3534 1.394 . S
C3535 C3536 1.516 . S
C3536 C3535 1.516 . S
C3536 C3537 1.502 . S
C3536 C3538 1.561 . S
C3536 C3539 1.526 . S
C3537 H3521 0.959 . S
C3537 H3522 0.959 . S
C3537 H3523 0.961 . S
C3537 C3536 1.502 . S
C3538 H3524 0.960 . S
C3538 H3525 0.961 . S
C3538 H3526 0.959 . S
C3538 C3536 1.561 . S
C3539 C3536 1.526 . S
C3539 C3540 1.396 . S
C3539 C3544 1.390 . S
C3540 C3534 1.465 . S
C3540 C3539 1.396 . S
C3540 C3541 1.399 . S
C3541 H3527 0.929 . S
C3541 C3540 1.399 . S
C3541 C3542 1.385 . S
C3542 H3528 0.931 . S
C3542 C3541 1.385 . S
C3542 C3543 1.389 . S
C3543 C3542 1.389 . S
C3543 C3544 1.387 . S
C3544 H3529 0.930 . S
C3544 C3539 1.390 . S
C3544 C3543 1.387 . S
H3545 C3557 0.930 . S
H3546 C3559 0.930 . S
H3547 C3560 0.930 . S
H3548 C3564 0.959 . S
H3549 C3564 0.959 . S
H3550 C3564 0.961 . S
H3551 C3565 0.960 . S
H3552 C3565 0.961 . S
H3553 C3565 0.959 . S
H3554 C3568 0.929 . S
H3555 C3569 0.931 . S
H3556 C3571 0.930 . S
C3557 H3545 0.930 . S
C3557 C3558 1.399 . S
C3557 C3562 1.399 . S
C3558 C3557 1.399 . S
C3558 C3559 1.376 . S
C3559 H3546 0.930 . S
C3559 C3558 1.376 . S
C3559 C3560 1.388 . S
C3560 H3547 0.930 . S
C3560 C3559 1.388 . S
C3560 C3561 1.390 . S
C3561 C3560 1.390 . S
C3561 C3562 1.394 . S
C3561 C3567 1.465 . S
C3562 C3557 1.399 . S
C3562 C3561 1.394 . S
C3562 C3563 1.516 . S
C3563 C3562 1.516 . S
C3563 C3564 1.502 . S
C3563 C3565 1.561 . S
C3563 C3566 1.526 . S
C3564 H3548 0.959 . S
C3564 H3549 0.959 . S
C3564 H3550 0.961 . S
C3564 C3563 1.502 . S
C3565 H3551 0.960 . S
C3565 H3552 0.961 . S
C3565 H3553 0.959 . S
C3565 C3563 1.561 . S
C3566 C3563 1.526 . S
C3566 C3567 1.396 . S
C3566 C3571 1.390 . S
C3567 C3561 1.465 . S
C3567 C3566 1.396 . S
C3567 C3568 1.399 . S
C3568 H3554 0.929 . S
C3568 C3567 1.399 . S
C3568 C3569 1.385 . S
C3569 H3555 0.931 . S
C3569 C3568 1.385 . S
C3569 C3570 1.389 . S
C3570 C3569 1.389 . S
C3570 C3571 1.387 . S
C3571 H3556 0.930 . S
C3571 C3566 1.390 . S
C3571 C3570 1.387 . S
H3572 C3584 0.930 . S
H3573 C3586 0.930 . S
H3574 C3587 0.930 . S
H3575 C3591 0.959 . S
H3576 C3591 0.959 . S
H3577 C3591 0.961 . S
H3578 C3592 0.960 . S
H3579 C3592 0.961 . S
H3580 C3592 0.959 . S
H3581 C3595 0.929 . S
H3582 C3596 0.931 . S
H3583 C3598 0.930 . S
C3584 H3572 0.930 . S
C3584 C3585 1.399 . S
C3584 C3589 1.399 . S
C3585 C3584 1.399 . S
C3585 C3586 1.376 . S
C3586 H3573 0.930 . S
C3586 C3585 1.376 . S
C3586 C3587 1.388 . S
C3587 H3574 0.930 . S
C3587 C3586 1.388 . S
C3587 C3588 1.390 . S
C3588 C3587 1.390 . S
C3588 C3589 1.394 . S
C3588 C3594 1.465 . S
C3589 C3584 1.399 . S
C3589 C3588 1.394 . S
C3589 C3590 1.516 . S
C3590 C3589 1.516 . S
C3590 C3591 1.502 . S
C3590 C3592 1.561 . S
C3590 C3593 1.526 . S
C3591 H3575 0.959 . S
C3591 H3576 0.959 . S
C3591 H3577 0.961 . S
C3591 C3590 1.502 . S
C3592 H3578 0.960 . S
C3592 H3579 0.961 . S
C3592 H3580 0.959 . S
C3592 C3590 1.561 . S
C3593 C3590 1.526 . S
C3593 C3594 1.396 . S
C3593 C3598 1.390 . S
C3594 C3588 1.465 . S
C3594 C3593 1.396 . S
C3594 C3595 1.399 . S
C3595 H3581 0.929 . S
C3595 C3594 1.399 . S
C3595 C3596 1.385 . S
C3596 H3582 0.931 . S
C3596 C3595 1.385 . S
C3596 C3597 1.389 . S
C3597 C3596 1.389 . S
C3597 C3598 1.387 . S
C3598 H3583 0.930 . S
C3598 C3593 1.390 . S
C3598 C3597 1.387 . S
H3599 C3611 0.930 . S
H3600 C3613 0.930 . S
H3601 C3614 0.930 . S
H3602 C3618 0.959 . S
H3603 C3618 0.959 . S
H3604 C3618 0.961 . S
H3605 C3619 0.960 . S
H3606 C3619 0.961 . S
H3607 C3619 0.959 . S
H3608 C3622 0.929 . S
H3609 C3623 0.931 . S
H3610 C3625 0.930 . S
C3611 H3599 0.930 . S
C3611 C3612 1.399 . S
C3611 C3616 1.399 . S
C3612 C3611 1.399 . S
C3612 C3613 1.376 . S
C3613 H3600 0.930 . S
C3613 C3612 1.376 . S
C3613 C3614 1.388 . S
C3614 H3601 0.930 . S
C3614 C3613 1.388 . S
C3614 C3615 1.390 . S
C3615 C3614 1.390 . S
C3615 C3616 1.394 . S
C3615 C3621 1.465 . S
C3616 C3611 1.399 . S
C3616 C3615 1.394 . S
C3616 C3617 1.516 . S
C3617 C3616 1.516 . S
C3617 C3618 1.502 . S
C3617 C3619 1.561 . S
C3617 C3620 1.526 . S
C3618 H3602 0.959 . S
C3618 H3603 0.959 . S
C3618 H3604 0.961 . S
C3618 C3617 1.502 . S
C3619 H3605 0.960 . S
C3619 H3606 0.961 . S
C3619 H3607 0.959 . S
C3619 C3617 1.561 . S
C3620 C3617 1.526 . S
C3620 C3621 1.396 . S
C3620 C3625 1.390 . S
C3621 C3615 1.465 . S
C3621 C3620 1.396 . S
C3621 C3622 1.399 . S
C3622 H3608 0.929 . S
C3622 C3621 1.399 . S
C3622 C3623 1.385 . S
C3623 H3609 0.931 . S
C3623 C3622 1.385 . S
C3623 C3624 1.389 . S
C3624 C3623 1.389 . S
C3624 C3625 1.387 . S
C3625 H3610 0.930 . S
C3625 C3620 1.390 . S
C3625 C3624 1.387 . S
H3626 C3638 0.930 . S
H3627 C3640 0.930 . S
H3628 C3641 0.930 . S
H3629 C3645 0.959 . S
H3630 C3645 0.959 . S
H3631 C3645 0.961 . S
H3632 C3646 0.960 . S
H3633 C3646 0.961 . S
H3634 C3646 0.959 . S
H3635 C3649 0.929 . S
H3636 C3650 0.931 . S
H3637 C3652 0.930 . S
C3638 H3626 0.930 . S
C3638 C3639 1.399 . S
C3638 C3643 1.399 . S
C3639 C3638 1.399 . S
C3639 C3640 1.376 . S
C3640 H3627 0.930 . S
C3640 C3639 1.376 . S
C3640 C3641 1.388 . S
C3641 H3628 0.930 . S
C3641 C3640 1.388 . S
C3641 C3642 1.390 . S
C3642 C3641 1.390 . S
C3642 C3643 1.394 . S
C3642 C3648 1.465 . S
C3643 C3638 1.399 . S
C3643 C3642 1.394 . S
C3643 C3644 1.516 . S
C3644 C3643 1.516 . S
C3644 C3645 1.502 . S
C3644 C3646 1.561 . S
C3644 C3647 1.526 . S
C3645 H3629 0.959 . S
C3645 H3630 0.959 . S
C3645 H3631 0.961 . S
C3645 C3644 1.502 . S
C3646 H3632 0.960 . S
C3646 H3633 0.961 . S
C3646 H3634 0.959 . S
C3646 C3644 1.561 . S
C3647 C3644 1.526 . S
C3647 C3648 1.396 . S
C3647 C3652 1.390 . S
C3648 C3642 1.465 . S
C3648 C3647 1.396 . S
C3648 C3649 1.399 . S
C3649 H3635 0.929 . S
C3649 C3648 1.399 . S
C3649 C3650 1.385 . S
C3650 H3636 0.931 . S
C3650 C3649 1.385 . S
C3650 C3651 1.389 . S
C3651 C3650 1.389 . S
C3651 C3652 1.387 . S
C3652 H3637 0.930 . S
C3652 C3647 1.390 . S
C3652 C3651 1.387 . S
H3653 C3665 0.930 . S
H3654 C3667 0.930 . S
H3655 C3668 0.930 . S
H3656 C3672 0.959 . S
H3657 C3672 0.959 . S
H3658 C3672 0.961 . S
H3659 C3673 0.960 . S
H3660 C3673 0.961 . S
H3661 C3673 0.959 . S
H3662 C3676 0.929 . S
H3663 C3677 0.931 . S
H3664 C3679 0.930 . S
C3665 H3653 0.930 . S
C3665 C3666 1.399 . S
C3665 C3670 1.399 . S
C3666 C3665 1.399 . S
C3666 C3667 1.376 . S
C3667 H3654 0.930 . S
C3667 C3666 1.376 . S
C3667 C3668 1.388 . S
C3668 H3655 0.930 . S
C3668 C3667 1.388 . S
C3668 C3669 1.390 . S
C3669 C3668 1.390 . S
C3669 C3670 1.394 . S
C3669 C3675 1.465 . S
C3670 C3665 1.399 . S
C3670 C3669 1.394 . S
C3670 C3671 1.516 . S
C3671 C3670 1.516 . S
C3671 C3672 1.502 . S
C3671 C3673 1.561 . S
C3671 C3674 1.526 . S
C3672 H3656 0.959 . S
C3672 H3657 0.959 . S
C3672 H3658 0.961 . S
C3672 C3671 1.502 . S
C3673 H3659 0.960 . S
C3673 H3660 0.961 . S
C3673 H3661 0.959 . S
C3673 C3671 1.561 . S
C3674 C3671 1.526 . S
C3674 C3675 1.396 . S
C3674 C3679 1.390 . S
C3675 C3669 1.465 . S
C3675 C3674 1.396 . S
C3675 C3676 1.399 . S
C3676 H3662 0.929 . S
C3676 C3675 1.399 . S
C3676 C3677 1.385 . S
C3677 H3663 0.931 . S
C3677 C3676 1.385 . S
C3677 C3678 1.389 . S
C3678 C3677 1.389 . S
C3678 C3679 1.387 . S
C3679 H3664 0.930 . S
C3679 C3674 1.390 . S
C3679 C3678 1.387 . S
H3680 C3692 0.930 . S
H3681 C3694 0.930 . S
H3682 C3695 0.930 . S
H3683 C3699 0.959 . S
H3684 C3699 0.959 . S
H3685 C3699 0.961 . S
H3686 C3700 0.960 . S
H3687 C3700 0.961 . S
H3688 C3700 0.959 . S
H3689 C3703 0.929 . S
H3690 C3704 0.931 . S
H3691 C3706 0.930 . S
C3692 H3680 0.930 . S
C3692 C3693 1.399 . S
C3692 C3697 1.399 . S
C3693 C3692 1.399 . S
C3693 C3694 1.376 . S
C3694 H3681 0.930 . S
C3694 C3693 1.376 . S
C3694 C3695 1.388 . S
C3695 H3682 0.930 . S
C3695 C3694 1.388 . S
C3695 C3696 1.390 . S
C3696 C3695 1.390 . S
C3696 C3697 1.394 . S
C3696 C3702 1.465 . S
C3697 C3692 1.399 . S
C3697 C3696 1.394 . S
C3697 C3698 1.516 . S
C3698 C3697 1.516 . S
C3698 C3699 1.502 . S
C3698 C3700 1.561 . S
C3698 C3701 1.526 . S
C3699 H3683 0.959 . S
C3699 H3684 0.959 . S
C3699 H3685 0.961 . S
C3699 C3698 1.502 . S
C3700 H3686 0.960 . S
C3700 H3687 0.961 . S
C3700 H3688 0.959 . S
C3700 C3698 1.561 . S
C3701 C3698 1.526 . S
C3701 C3702 1.396 . S
C3701 C3706 1.390 . S
C3702 C3696 1.465 . S
C3702 C3701 1.396 . S
C3702 C3703 1.399 . S
C3703 H3689 0.929 . S
C3703 C3702 1.399 . S
C3703 C3704 1.385 . S
C3704 H3690 0.931 . S
C3704 C3703 1.385 . S
C3704 C3705 1.389 . S
C3705 C3704 1.389 . S
C3705 C3706 1.387 . S
C3706 H3691 0.930 . S
C3706 C3701 1.390 . S
C3706 C3705 1.387 . S
H3707 C3719 0.930 . S
H3708 C3721 0.930 . S
H3709 C3722 0.930 . S
H3710 C3726 0.959 . S
H3711 C3726 0.959 . S
H3712 C3726 0.961 . S
H3713 C3727 0.960 . S
H3714 C3727 0.961 . S
H3715 C3727 0.959 . S
H3716 C3730 0.929 . S
H3717 C3731 0.931 . S
H3718 C3733 0.930 . S
C3719 H3707 0.930 . S
C3719 C3720 1.399 . S
C3719 C3724 1.399 . S
C3720 C3719 1.399 . S
C3720 C3721 1.376 . S
C3721 H3708 0.930 . S
C3721 C3720 1.376 . S
C3721 C3722 1.388 . S
C3722 H3709 0.930 . S
C3722 C3721 1.388 . S
C3722 C3723 1.390 . S
C3723 C3722 1.390 . S
C3723 C3724 1.394 . S
C3723 C3729 1.465 . S
C3724 C3719 1.399 . S
C3724 C3723 1.394 . S
C3724 C3725 1.516 . S
C3725 C3724 1.516 . S
C3725 C3726 1.502 . S
C3725 C3727 1.561 . S
C3725 C3728 1.526 . S
C3726 H3710 0.959 . S
C3726 H3711 0.959 . S
C3726 H3712 0.961 . S
C3726 C3725 1.502 . S
C3727 H3713 0.960 . S
C3727 H3714 0.961 . S
C3727 H3715 0.959 . S
C3727 C3725 1.561 . S
C3728 C3725 1.526 . S
C3728 C3729 1.396 . S
C3728 C3733 1.390 . S
C3729 C3723 1.465 . S
C3729 C3728 1.396 . S
C3729 C3730 1.399 . S
C3730 H3716 0.929 . S
C3730 C3729 1.399 . S
C3730 C3731 1.385 . S
C3731 H3717 0.931 . S
C3731 C3730 1.385 . S
C3731 C3732 1.389 . S
C3732 C3731 1.389 . S
C3732 C3733 1.387 . S
C3733 H3718 0.930 . S
C3733 C3728 1.390 . S
C3733 C3732 1.387 . S
H3734 C3746 0.930 . S
H3735 C3748 0.930 . S
H3736 C3749 0.930 . S
H3737 C3753 0.959 . S
H3738 C3753 0.959 . S
H3739 C3753 0.961 . S
H3740 C3754 0.960 . S
H3741 C3754 0.961 . S
H3742 C3754 0.959 . S
H3743 C3757 0.929 . S
H3744 C3758 0.931 . S
H3745 C3760 0.930 . S
C3746 H3734 0.930 . S
C3746 C3747 1.399 . S
C3746 C3751 1.399 . S
C3747 C3746 1.399 . S
C3747 C3748 1.376 . S
C3748 H3735 0.930 . S
C3748 C3747 1.376 . S
C3748 C3749 1.388 . S
C3749 H3736 0.930 . S
C3749 C3748 1.388 . S
C3749 C3750 1.390 . S
C3750 C3749 1.390 . S
C3750 C3751 1.394 . S
C3750 C3756 1.465 . S
C3751 C3746 1.399 . S
C3751 C3750 1.394 . S
C3751 C3752 1.516 . S
C3752 C3751 1.516 . S
C3752 C3753 1.502 . S
C3752 C3754 1.561 . S
C3752 C3755 1.526 . S
C3753 H3737 0.959 . S
C3753 H3738 0.959 . S
C3753 H3739 0.961 . S
C3753 C3752 1.502 . S
C3754 H3740 0.960 . S
C3754 H3741 0.961 . S
C3754 H3742 0.959 . S
C3754 C3752 1.561 . S
C3755 C3752 1.526 . S
C3755 C3756 1.396 . S
C3755 C3760 1.390 . S
C3756 C3750 1.465 . S
C3756 C3755 1.396 . S
C3756 C3757 1.399 . S
C3757 H3743 0.929 . S
C3757 C3756 1.399 . S
C3757 C3758 1.385 . S
C3758 H3744 0.931 . S
C3758 C3757 1.385 . S
C3758 C3759 1.389 . S
C3759 C3758 1.389 . S
C3759 C3760 1.387 . S
C3760 H3745 0.930 . S
C3760 C3755 1.390 . S
C3760 C3759 1.387 . S
H3761 C3773 0.930 . S
H3762 C3775 0.930 . S
H3763 C3776 0.930 . S
H3764 C3780 0.959 . S
H3765 C3780 0.959 . S
H3766 C3780 0.961 . S
H3767 C3781 0.960 . S
H3768 C3781 0.961 . S
H3769 C3781 0.959 . S
H3770 C3784 0.929 . S
H3771 C3785 0.931 . S
H3772 C3787 0.930 . S
C3773 H3761 0.930 . S
C3773 C3774 1.399 . S
C3773 C3778 1.399 . S
C3774 C3773 1.399 . S
C3774 C3775 1.376 . S
C3775 H3762 0.930 . S
C3775 C3774 1.376 . S
C3775 C3776 1.388 . S
C3776 H3763 0.930 . S
C3776 C3775 1.388 . S
C3776 C3777 1.390 . S
C3777 C3776 1.390 . S
C3777 C3778 1.394 . S
C3777 C3783 1.465 . S
C3778 C3773 1.399 . S
C3778 C3777 1.394 . S
C3778 C3779 1.516 . S
C3779 C3778 1.516 . S
C3779 C3780 1.502 . S
C3779 C3781 1.561 . S
C3779 C3782 1.526 . S
C3780 H3764 0.959 . S
C3780 H3765 0.959 . S
C3780 H3766 0.961 . S
C3780 C3779 1.502 . S
C3781 H3767 0.960 . S
C3781 H3768 0.961 . S
C3781 H3769 0.959 . S
C3781 C3779 1.561 . S
C3782 C3779 1.526 . S
C3782 C3783 1.396 . S
C3782 C3787 1.390 . S
C3783 C3777 1.465 . S
C3783 C3782 1.396 . S
C3783 C3784 1.399 . S
C3784 H3770 0.929 . S
C3784 C3783 1.399 . S
C3784 C3785 1.385 . S
C3785 H3771 0.931 . S
C3785 C3784 1.385 . S
C3785 C3786 1.389 . S
C3786 C3785 1.389 . S
C3786 C3787 1.387 . S
C3787 H3772 0.930 . S
C3787 C3782 1.390 . S
C3787 C3786 1.387 . S
H3788 C3800 0.930 . S
H3789 C3802 0.930 . S
H3790 C3803 0.930 . S
H3791 C3807 0.959 . S
H3792 C3807 0.959 . S
H3793 C3807 0.961 . S
H3794 C3808 0.960 . S
H3795 C3808 0.961 . S
H3796 C3808 0.959 . S
H3797 C3811 0.929 . S
H3798 C3812 0.931 . S
H3799 C3814 0.930 . S
C3800 H3788 0.930 . S
C3800 C3801 1.399 . S
C3800 C3805 1.399 . S
C3801 C3800 1.399 . S
C3801 C3802 1.376 . S
C3802 H3789 0.930 . S
C3802 C3801 1.376 . S
C3802 C3803 1.388 . S
C3803 H3790 0.930 . S
C3803 C3802 1.388 . S
C3803 C3804 1.390 . S
C3804 C3803 1.390 . S
C3804 C3805 1.394 . S
C3804 C3810 1.465 . S
C3805 C3800 1.399 . S
C3805 C3804 1.394 . S
C3805 C3806 1.516 . S
C3806 C3805 1.516 . S
C3806 C3807 1.502 . S
C3806 C3808 1.561 . S
C3806 C3809 1.526 . S
C3807 H3791 0.959 . S
C3807 H3792 0.959 . S
C3807 H3793 0.961 . S
C3807 C3806 1.502 . S
C3808 H3794 0.960 . S
C3808 H3795 0.961 . S
C3808 H3796 0.959 . S
C3808 C3806 1.561 . S
C3809 C3806 1.526 . S
C3809 C3810 1.396 . S
C3809 C3814 1.390 . S
C3810 C3804 1.465 . S
C3810 C3809 1.396 . S
C3810 C3811 1.399 . S
C3811 H3797 0.929 . S
C3811 C3810 1.399 . S
C3811 C3812 1.385 . S
C3812 H3798 0.931 . S
C3812 C3811 1.385 . S
C3812 C3813 1.389 . S
C3813 C3812 1.389 . S
C3813 C3814 1.387 . S
C3814 H3799 0.930 . S
C3814 C3809 1.390 . S
C3814 C3813 1.387 . S
H3815 C3827 0.930 . S
H3816 C3829 0.930 . S
H3817 C3830 0.930 . S
H3818 C3834 0.959 . S
H3819 C3834 0.959 . S
H3820 C3834 0.961 . S
H3821 C3835 0.960 . S
H3822 C3835 0.961 . S
H3823 C3835 0.959 . S
H3824 C3838 0.929 . S
H3825 C3839 0.931 . S
H3826 C3841 0.930 . S
C3827 H3815 0.930 . S
C3827 C3828 1.399 . S
C3827 C3832 1.399 . S
C3828 C3827 1.399 . S
C3828 C3829 1.376 . S
C3829 H3816 0.930 . S
C3829 C3828 1.376 . S
C3829 C3830 1.388 . S
C3830 H3817 0.930 . S
C3830 C3829 1.388 . S
C3830 C3831 1.390 . S
C3831 C3830 1.390 . S
C3831 C3832 1.394 . S
C3831 C3837 1.465 . S
C3832 C3827 1.399 . S
C3832 C3831 1.394 . S
C3832 C3833 1.516 . S
C3833 C3832 1.516 . S
C3833 C3834 1.502 . S
C3833 C3835 1.561 . S
C3833 C3836 1.526 . S
C3834 H3818 0.959 . S
C3834 H3819 0.959 . S
C3834 H3820 0.961 . S
C3834 C3833 1.502 . S
C3835 H3821 0.960 . S
C3835 H3822 0.961 . S
C3835 H3823 0.959 . S
C3835 C3833 1.561 . S
C3836 C3833 1.526 . S
C3836 C3837 1.396 . S
C3836 C3841 1.390 . S
C3837 C3831 1.465 . S
C3837 C3836 1.396 . S
C3837 C3838 1.399 . S
C3838 H3824 0.929 . S
C3838 C3837 1.399 . S
C3838 C3839 1.385 . S
C3839 H3825 0.931 . S
C3839 C3838 1.385 . S
C3839 C3840 1.389 . S
C3840 C3839 1.389 . S
C3840 C3841 1.387 . S
C3841 H3826 0.930 . S
C3841 C3836 1.390 . S
C3841 C3840 1.387 . S
H3842 C3854 0.930 . S
H3843 C3856 0.930 . S
H3844 C3857 0.930 . S
H3845 C3861 0.959 . S
H3846 C3861 0.959 . S
H3847 C3861 0.961 . S
H3848 C3862 0.960 . S
H3849 C3862 0.961 . S
H3850 C3862 0.959 . S
H3851 C3865 0.929 . S
H3852 C3866 0.931 . S
H3853 C3868 0.930 . S
C3854 H3842 0.930 . S
C3854 C3855 1.399 . S
C3854 C3859 1.399 . S
C3855 C3854 1.399 . S
C3855 C3856 1.376 . S
C3856 H3843 0.930 . S
C3856 C3855 1.376 . S
C3856 C3857 1.388 . S
C3857 H3844 0.930 . S
C3857 C3856 1.388 . S
C3857 C3858 1.390 . S
C3858 C3857 1.390 . S
C3858 C3859 1.394 . S
C3858 C3864 1.465 . S
C3859 C3854 1.399 . S
C3859 C3858 1.394 . S
C3859 C3860 1.516 . S
C3860 C3859 1.516 . S
C3860 C3861 1.502 . S
C3860 C3862 1.561 . S
C3860 C3863 1.526 . S
C3861 H3845 0.959 . S
C3861 H3846 0.959 . S
C3861 H3847 0.961 . S
C3861 C3860 1.502 . S
C3862 H3848 0.960 . S
C3862 H3849 0.961 . S
C3862 H3850 0.959 . S
C3862 C3860 1.561 . S
C3863 C3860 1.526 . S
C3863 C3864 1.396 . S
C3863 C3868 1.390 . S
C3864 C3858 1.465 . S
C3864 C3863 1.396 . S
C3864 C3865 1.399 . S
C3865 H3851 0.929 . S
C3865 C3864 1.399 . S
C3865 C3866 1.385 . S
C3866 H3852 0.931 . S
C3866 C3865 1.385 . S
C3866 C3867 1.389 . S
C3867 C3866 1.389 . S
C3867 C3868 1.387 . S
C3868 H3853 0.930 . S
C3868 C3863 1.390 . S
C3868 C3867 1.387 . S
H3869 C3881 0.930 . S
H3870 C3883 0.930 . S
H3871 C3884 0.930 . S
H3872 C3888 0.959 . S
H3873 C3888 0.959 . S
H3874 C3888 0.961 . S
H3875 C3889 0.960 . S
H3876 C3889 0.961 . S
H3877 C3889 0.959 . S
H3878 C3892 0.929 . S
H3879 C3893 0.931 . S
H3880 C3895 0.930 . S
C3881 H3869 0.930 . S
C3881 C3882 1.399 . S
C3881 C3886 1.399 . S
C3882 C3881 1.399 . S
C3882 C3883 1.376 . S
C3883 H3870 0.930 . S
C3883 C3882 1.376 . S
C3883 C3884 1.388 . S
C3884 H3871 0.930 . S
C3884 C3883 1.388 . S
C3884 C3885 1.390 . S
C3885 C3884 1.390 . S
C3885 C3886 1.394 . S
C3885 C3891 1.465 . S
C3886 C3881 1.399 . S
C3886 C3885 1.394 . S
C3886 C3887 1.516 . S
C3887 C3886 1.516 . S
C3887 C3888 1.502 . S
C3887 C3889 1.561 . S
C3887 C3890 1.526 . S
C3888 H3872 0.959 . S
C3888 H3873 0.959 . S
C3888 H3874 0.961 . S
C3888 C3887 1.502 . S
C3889 H3875 0.960 . S
C3889 H3876 0.961 . S
C3889 H3877 0.959 . S
C3889 C3887 1.561 . S
C3890 C3887 1.526 . S
C3890 C3891 1.396 . S
C3890 C3895 1.390 . S
C3891 C3885 1.465 . S
C3891 C3890 1.396 . S
C3891 C3892 1.399 . S
C3892 H3878 0.929 . S
C3892 C3891 1.399 . S
C3892 C3893 1.385 . S
C3893 H3879 0.931 . S
C3893 C3892 1.385 . S
C3893 C3894 1.389 . S
C3894 C3893 1.389 . S
C3894 C3895 1.387 . S
C3895 H3880 0.930 . S
C3895 C3890 1.390 . S
C3895 C3894 1.387 . S
H3896 C3908 0.930 . S
H3897 C3910 0.930 . S
H3898 C3911 0.930 . S
H3899 C3915 0.959 . S
H3900 C3915 0.959 . S
H3901 C3915 0.961 . S
H3902 C3916 0.960 . S
H3903 C3916 0.961 . S
H3904 C3916 0.959 . S
H3905 C3919 0.929 . S
H3906 C3920 0.931 . S
H3907 C3922 0.930 . S
C3908 H3896 0.930 . S
C3908 C3909 1.399 . S
C3908 C3913 1.399 . S
C3909 C3908 1.399 . S
C3909 C3910 1.376 . S
C3910 H3897 0.930 . S
C3910 C3909 1.376 . S
C3910 C3911 1.388 . S
C3911 H3898 0.930 . S
C3911 C3910 1.388 . S
C3911 C3912 1.390 . S
C3912 C3911 1.390 . S
C3912 C3913 1.394 . S
C3912 C3918 1.465 . S
C3913 C3908 1.399 . S
C3913 C3912 1.394 . S
C3913 C3914 1.516 . S
C3914 C3913 1.516 . S
C3914 C3915 1.502 . S
C3914 C3916 1.561 . S
C3914 C3917 1.526 . S
C3915 H3899 0.959 . S
C3915 H3900 0.959 . S
C3915 H3901 0.961 . S
C3915 C3914 1.502 . S
C3916 H3902 0.960 . S
C3916 H3903 0.961 . S
C3916 H3904 0.959 . S
C3916 C3914 1.561 . S
C3917 C3914 1.526 . S
C3917 C3918 1.396 . S
C3917 C3922 1.390 . S
C3918 C3912 1.465 . S
C3918 C3917 1.396 . S
C3918 C3919 1.399 . S
C3919 H3905 0.929 . S
C3919 C3918 1.399 . S
C3919 C3920 1.385 . S
C3920 H3906 0.931 . S
C3920 C3919 1.385 . S
C3920 C3921 1.389 . S
C3921 C3920 1.389 . S
C3921 C3922 1.387 . S
C3922 H3907 0.930 . S
C3922 C3917 1.390 . S
C3922 C3921 1.387 . S
H3923 C3935 0.930 . S
H3924 C3937 0.930 . S
H3925 C3938 0.930 . S
H3926 C3942 0.959 . S
H3927 C3942 0.959 . S
H3928 C3942 0.961 . S
H3929 C3943 0.960 . S
H3930 C3943 0.961 . S
H3931 C3943 0.959 . S
H3932 C3946 0.929 . S
H3933 C3947 0.931 . S
H3934 C3949 0.930 . S
C3935 H3923 0.930 . S
C3935 C3936 1.399 . S
C3935 C3940 1.399 . S
C3936 C3935 1.399 . S
C3936 C3937 1.376 . S
C3937 H3924 0.930 . S
C3937 C3936 1.376 . S
C3937 C3938 1.388 . S
C3938 H3925 0.930 . S
C3938 C3937 1.388 . S
C3938 C3939 1.390 . S
C3939 C3938 1.390 . S
C3939 C3940 1.394 . S
C3939 C3945 1.465 . S
C3940 C3935 1.399 . S
C3940 C3939 1.394 . S
C3940 C3941 1.516 . S
C3941 C3940 1.516 . S
C3941 C3942 1.502 . S
C3941 C3943 1.561 . S
C3941 C3944 1.526 . S
C3942 H3926 0.959 . S
C3942 H3927 0.959 . S
C3942 H3928 0.961 . S
C3942 C3941 1.502 . S
C3943 H3929 0.960 . S
C3943 H3930 0.961 . S
C3943 H3931 0.959 . S
C3943 C3941 1.561 . S
C3944 C3941 1.526 . S
C3944 C3945 1.396 . S
C3944 C3949 1.390 . S
C3945 C3939 1.465 . S
C3945 C3944 1.396 . S
C3945 C3946 1.399 . S
C3946 H3932 0.929 . S
C3946 C3945 1.399 . S
C3946 C3947 1.385 . S
C3947 H3933 0.931 . S
C3947 C3946 1.385 . S
C3947 C3948 1.389 . S
C3948 C3947 1.389 . S
C3948 C3949 1.387 . S
C3949 H3934 0.930 . S
C3949 C3944 1.390 . S
C3949 C3948 1.387 . S
H3950 C3962 0.930 . S
H3951 C3964 0.930 . S
H3952 C3965 0.930 . S
H3953 C3969 0.959 . S
H3954 C3969 0.959 . S
H3955 C3969 0.961 . S
H3956 C3970 0.960 . S
H3957 C3970 0.961 . S
H3958 C3970 0.959 . S
H3959 C3973 0.929 . S
H3960 C3974 0.931 . S
H3961 C3976 0.930 . S
C3962 H3950 0.930 . S
C3962 C3963 1.399 . S
C3962 C3967 1.399 . S
C3963 C3962 1.399 . S
C3963 C3964 1.376 . S
C3964 H3951 0.930 . S
C3964 C3963 1.376 . S
C3964 C3965 1.388 . S
C3965 H3952 0.930 . S
C3965 C3964 1.388 . S
C3965 C3966 1.390 . S
C3966 C3965 1.390 . S
C3966 C3967 1.394 . S
C3966 C3972 1.465 . S
C3967 C3962 1.399 . S
C3967 C3966 1.394 . S
C3967 C3968 1.516 . S
C3968 C3967 1.516 . S
C3968 C3969 1.502 . S
C3968 C3970 1.561 . S
C3968 C3971 1.526 . S
C3969 H3953 0.959 . S
C3969 H3954 0.959 . S
C3969 H3955 0.961 . S
C3969 C3968 1.502 . S
C3970 H3956 0.960 . S
C3970 H3957 0.961 . S
C3970 H3958 0.959 . S
C3970 C3968 1.561 . S
C3971 C3968 1.526 . S
C3971 C3972 1.396 . S
C3971 C3976 1.390 . S
C3972 C3966 1.465 . S
C3972 C3971 1.396 . S
C3972 C3973 1.399 . S
C3973 H3959 0.929 . S
C3973 C3972 1.399 . S
C3973 C3974 1.385 . S
C3974 H3960 0.931 . S
C3974 C3973 1.385 . S
C3974 C3975 1.389 . S
C3975 C3974 1.389 . S
C3975 C3976 1.387 . S
C3976 H3961 0.930 . S
C3976 C3971 1.390 . S
C3976 C3975 1.387 . S
H3977 C3989 0.930 . S
H3978 C3991 0.930 . S
H3979 C3992 0.930 . S
H3980 C3996 0.959 . S
H3981 C3996 0.959 . S
H3982 C3996 0.961 . S
H3983 C3997 0.960 . S
H3984 C3997 0.961 . S
H3985 C3997 0.959 . S
H3986 C4000 0.929 . S
H3987 C4001 0.931 . S
H3988 C4003 0.930 . S
C3989 H3977 0.930 . S
C3989 C3990 1.399 . S
C3989 C3994 1.399 . S
C3990 C3989 1.399 . S
C3990 C3991 1.376 . S
C3991 H3978 0.930 . S
C3991 C3990 1.376 . S
C3991 C3992 1.388 . S
C3992 H3979 0.930 . S
C3992 C3991 1.388 . S
C3992 C3993 1.390 . S
C3993 C3992 1.390 . S
C3993 C3994 1.394 . S
C3993 C3999 1.465 . S
C3994 C3989 1.399 . S
C3994 C3993 1.394 . S
C3994 C3995 1.516 . S
C3995 C3994 1.516 . S
C3995 C3996 1.502 . S
C3995 C3997 1.561 . S
C3995 C3998 1.526 . S
C3996 H3980 0.959 . S
C3996 H3981 0.959 . S
C3996 H3982 0.961 . S
C3996 C3995 1.502 . S
C3997 H3983 0.960 . S
C3997 H3984 0.961 . S
C3997 H3985 0.959 . S
C3997 C3995 1.561 . S
C3998 C3995 1.526 . S
C3998 C3999 1.396 . S
C3998 C4003 1.390 . S
C3999 C3993 1.465 . S
C3999 C3998 1.396 . S
C3999 C4000 1.399 . S
C4000 H3986 0.929 . S
C4000 C3999 1.399 . S
C4000 C4001 1.385 . S
C4001 H3987 0.931 . S
C4001 C4000 1.385 . S
C4001 C4002 1.389 . S
C4002 C4001 1.389 . S
C4002 C4003 1.387 . S
C4003 H3988 0.930 . S
C4003 C3998 1.390 . S
C4003 C4002 1.387 . S
H4004 C4016 0.930 . S
H4005 C4018 0.930 . S
H4006 C4019 0.930 . S
H4007 C4023 0.959 . S
H4008 C4023 0.959 . S
H4009 C4023 0.961 . S
H4010 C4024 0.960 . S
H4011 C4024 0.961 . S
H4012 C4024 0.959 . S
H4013 C4027 0.929 . S
H4014 C4028 0.931 . S
H4015 C4030 0.930 . S
C4016 H4004 0.930 . S
C4016 C4017 1.399 . S
C4016 C4021 1.399 . S
C4017 C4016 1.399 . S
C4017 C4018 1.376 . S
C4018 H4005 0.930 . S
C4018 C4017 1.376 . S
C4018 C4019 1.388 . S
C4019 H4006 0.930 . S
C4019 C4018 1.388 . S
C4019 C4020 1.390 . S
C4020 C4019 1.390 . S
C4020 C4021 1.394 . S
C4020 C4026 1.465 . S
C4021 C4016 1.399 . S
C4021 C4020 1.394 . S
C4021 C4022 1.516 . S
C4022 C4021 1.516 . S
C4022 C4023 1.502 . S
C4022 C4024 1.561 . S
C4022 C4025 1.526 . S
C4023 H4007 0.959 . S
C4023 H4008 0.959 . S
C4023 H4009 0.961 . S
C4023 C4022 1.502 . S
C4024 H4010 0.960 . S
C4024 H4011 0.961 . S
C4024 H4012 0.959 . S
C4024 C4022 1.561 . S
C4025 C4022 1.526 . S
C4025 C4026 1.396 . S
C4025 C4030 1.390 . S
C4026 C4020 1.465 . S
C4026 C4025 1.396 . S
C4026 C4027 1.399 . S
C4027 H4013 0.929 . S
C4027 C4026 1.399 . S
C4027 C4028 1.385 . S
C4028 H4014 0.931 . S
C4028 C4027 1.385 . S
C4028 C4029 1.389 . S
C4029 C4028 1.389 . S
C4029 C4030 1.387 . S
C4030 H4015 0.930 . S
C4030 C4025 1.390 . S
C4030 C4029 1.387 . S
H4031 C4043 0.930 . S
H4032 C4045 0.930 . S
H4033 C4046 0.930 . S
H4034 C4050 0.959 . S
H4035 C4050 0.959 . S
H4036 C4050 0.961 . S
H4037 C4051 0.960 . S
H4038 C4051 0.961 . S
H4039 C4051 0.959 . S
H4040 C4054 0.929 . S
H4041 C4055 0.931 . S
H4042 C4057 0.930 . S
C4043 H4031 0.930 . S
C4043 C4044 1.399 . S
C4043 C4048 1.399 . S
C4044 C4043 1.399 . S
C4044 C4045 1.376 . S
C4045 H4032 0.930 . S
C4045 C4044 1.376 . S
C4045 C4046 1.388 . S
C4046 H4033 0.930 . S
C4046 C4045 1.388 . S
C4046 C4047 1.390 . S
C4047 C4046 1.390 . S
C4047 C4048 1.394 . S
C4047 C4053 1.465 . S
C4048 C4043 1.399 . S
C4048 C4047 1.394 . S
C4048 C4049 1.516 . S
C4049 C4048 1.516 . S
C4049 C4050 1.502 . S
C4049 C4051 1.561 . S
C4049 C4052 1.526 . S
C4050 H4034 0.959 . S
C4050 H4035 0.959 . S
C4050 H4036 0.961 . S
C4050 C4049 1.502 . S
C4051 H4037 0.960 . S
C4051 H4038 0.961 . S
C4051 H4039 0.959 . S
C4051 C4049 1.561 . S
C4052 C4049 1.526 . S
C4052 C4053 1.396 . S
C4052 C4057 1.390 . S
C4053 C4047 1.465 . S
C4053 C4052 1.396 . S
C4053 C4054 1.399 . S
C4054 H4040 0.929 . S
C4054 C4053 1.399 . S
C4054 C4055 1.385 . S
C4055 H4041 0.931 . S
C4055 C4054 1.385 . S
C4055 C4056 1.389 . S
C4056 C4055 1.389 . S
C4056 C4057 1.387 . S
C4057 H4042 0.930 . S
C4057 C4052 1.390 . S
C4057 C4056 1.387 . S
H4058 C4070 0.930 . S
H4059 C4072 0.930 . S
H4060 C4073 0.930 . S
H4061 C4077 0.959 . S
H4062 C4077 0.959 . S
H4063 C4077 0.961 . S
H4064 C4078 0.960 . S
H4065 C4078 0.961 . S
H4066 C4078 0.959 . S
H4067 C4081 0.929 . S
H4068 C4082 0.931 . S
H4069 C4084 0.930 . S
C4070 H4058 0.930 . S
C4070 C4071 1.399 . S
C4070 C4075 1.399 . S
C4071 C4070 1.399 . S
C4071 C4072 1.376 . S
C4072 H4059 0.930 . S
C4072 C4071 1.376 . S
C4072 C4073 1.388 . S
C4073 H4060 0.930 . S
C4073 C4072 1.388 . S
C4073 C4074 1.390 . S
C4074 C4073 1.390 . S
C4074 C4075 1.394 . S
C4074 C4080 1.465 . S
C4075 C4070 1.399 . S
C4075 C4074 1.394 . S
C4075 C4076 1.516 . S
C4076 C4075 1.516 . S
C4076 C4077 1.502 . S
C4076 C4078 1.561 . S
C4076 C4079 1.526 . S
C4077 H4061 0.959 . S
C4077 H4062 0.959 . S
C4077 H4063 0.961 . S
C4077 C4076 1.502 . S
C4078 H4064 0.960 . S
C4078 H4065 0.961 . S
C4078 H4066 0.959 . S
C4078 C4076 1.561 . S
C4079 C4076 1.526 . S
C4079 C4080 1.396 . S
C4079 C4084 1.390 . S
C4080 C4074 1.465 . S
C4080 C4079 1.396 . S
C4080 C4081 1.399 . S
C4081 H4067 0.929 . S
C4081 C4080 1.399 . S
C4081 C4082 1.385 . S
C4082 H4068 0.931 . S
C4082 C4081 1.385 . S
C4082 C4083 1.389 . S
C4083 C4082 1.389 . S
C4083 C4084 1.387 . S
C4084 H4069 0.930 . S
C4084 C4079 1.390 . S
C4084 C4083 1.387 . S
H4085 C4097 0.930 . S
H4086 C4099 0.930 . S
H4087 C4100 0.930 . S
H4088 C4104 0.959 . S
H4089 C4104 0.959 . S
H4090 C4104 0.961 . S
H4091 C4105 0.960 . S
H4092 C4105 0.961 . S
H4093 C4105 0.959 . S
H4094 C4108 0.929 . S
H4095 C4109 0.931 . S
H4096 C4111 0.930 . S
C4097 H4085 0.930 . S
C4097 C4098 1.399 . S
C4097 C4102 1.399 . S
C4098 C4097 1.399 . S
C4098 C4099 1.376 . S
C4099 H4086 0.930 . S
C4099 C4098 1.376 . S
C4099 C4100 1.388 . S
C4100 H4087 0.930 . S
C4100 C4099 1.388 . S
C4100 C4101 1.390 . S
C4101 C4100 1.390 . S
C4101 C4102 1.394 . S
C4101 C4107 1.465 . S
C4102 C4097 1.399 . S
C4102 C4101 1.394 . S
C4102 C4103 1.516 . S
C4103 C4102 1.516 . S
C4103 C4104 1.502 . S
C4103 C4105 1.561 . S
C4103 C4106 1.526 . S
C4104 H4088 0.959 . S
C4104 H4089 0.959 . S
C4104 H4090 0.961 . S
C4104 C4103 1.502 . S
C4105 H4091 0.960 . S
C4105 H4092 0.961 . S
C4105 H4093 0.959 . S
C4105 C4103 1.561 . S
C4106 C4103 1.526 . S
C4106 C4107 1.396 . S
C4106 C4111 1.390 . S
C4107 C4101 1.465 . S
C4107 C4106 1.396 . S
C4107 C4108 1.399 . S
C4108 H4094 0.929 . S
C4108 C4107 1.399 . S
C4108 C4109 1.385 . S
C4109 H4095 0.931 . S
C4109 C4108 1.385 . S
C4109 C4110 1.389 . S
C4110 C4109 1.389 . S
C4110 C4111 1.387 . S
C4111 H4096 0.930 . S
C4111 C4106 1.390 . S
C4111 C4110 1.387 . S
H4112 C4124 0.930 . S
H4113 C4126 0.930 . S
H4114 C4127 0.930 . S
H4115 C4131 0.959 . S
H4116 C4131 0.959 . S
H4117 C4131 0.961 . S
H4118 C4132 0.960 . S
H4119 C4132 0.961 . S
H4120 C4132 0.959 . S
H4121 C4135 0.929 . S
H4122 C4136 0.931 . S
H4123 C4138 0.930 . S
C4124 H4112 0.930 . S
C4124 C4125 1.399 . S
C4124 C4129 1.399 . S
C4125 C4124 1.399 . S
C4125 C4126 1.376 . S
C4126 H4113 0.930 . S
C4126 C4125 1.376 . S
C4126 C4127 1.388 . S
C4127 H4114 0.930 . S
C4127 C4126 1.388 . S
C4127 C4128 1.390 . S
C4128 C4127 1.390 . S
C4128 C4129 1.394 . S
C4128 C4134 1.465 . S
C4129 C4124 1.399 . S
C4129 C4128 1.394 . S
C4129 C4130 1.516 . S
C4130 C4129 1.516 . S
C4130 C4131 1.502 . S
C4130 C4132 1.561 . S
C4130 C4133 1.526 . S
C4131 H4115 0.959 . S
C4131 H4116 0.959 . S
C4131 H4117 0.961 . S
C4131 C4130 1.502 . S
C4132 H4118 0.960 . S
C4132 H4119 0.961 . S
C4132 H4120 0.959 . S
C4132 C4130 1.561 . S
C4133 C4130 1.526 . S
C4133 C4134 1.396 . S
C4133 C4138 1.390 . S
C4134 C4128 1.465 . S
C4134 C4133 1.396 . S
C4134 C4135 1.399 . S
C4135 H4121 0.929 . S
C4135 C4134 1.399 . S
C4135 C4136 1.385 . S
C4136 H4122 0.931 . S
C4136 C4135 1.385 . S
C4136 C4137 1.389 . S
C4137 C4136 1.389 . S
C4137 C4138 1.387 . S
C4138 H4123 0.930 . S
C4138 C4133 1.390 . S
C4138 C4137 1.387 . S
H4139 C4151 0.930 . S
H4140 C4153 0.930 . S
H4141 C4154 0.930 . S
H4142 C4158 0.959 . S
H4143 C4158 0.959 . S
H4144 C4158 0.961 . S
H4145 C4159 0.960 . S
H4146 C4159 0.961 . S
H4147 C4159 0.959 . S
H4148 C4162 0.929 . S
H4149 C4163 0.931 . S
H4150 C4165 0.930 . S
C4151 H4139 0.930 . S
C4151 C4152 1.399 . S
C4151 C4156 1.399 . S
C4152 C4151 1.399 . S
C4152 C4153 1.376 . S
C4153 H4140 0.930 . S
C4153 C4152 1.376 . S
C4153 C4154 1.388 . S
C4154 H4141 0.930 . S
C4154 C4153 1.388 . S
C4154 C4155 1.390 . S
C4155 C4154 1.390 . S
C4155 C4156 1.394 . S
C4155 C4161 1.465 . S
C4156 C4151 1.399 . S
C4156 C4155 1.394 . S
C4156 C4157 1.516 . S
C4157 C4156 1.516 . S
C4157 C4158 1.502 . S
C4157 C4159 1.561 . S
C4157 C4160 1.526 . S
C4158 H4142 0.959 . S
C4158 H4143 0.959 . S
C4158 H4144 0.961 . S
C4158 C4157 1.502 . S
C4159 H4145 0.960 . S
C4159 H4146 0.961 . S
C4159 H4147 0.959 . S
C4159 C4157 1.561 . S
C4160 C4157 1.526 . S
C4160 C4161 1.396 . S
C4160 C4165 1.390 . S
C4161 C4155 1.465 . S
C4161 C4160 1.396 . S
C4161 C4162 1.399 . S
C4162 H4148 0.929 . S
C4162 C4161 1.399 . S
C4162 C4163 1.385 . S
C4163 H4149 0.931 . S
C4163 C4162 1.385 . S
C4163 C4164 1.389 . S
C4164 C4163 1.389 . S
C4164 C4165 1.387 . S
C4165 H4150 0.930 . S
C4165 C4160 1.390 . S
C4165 C4164 1.387 . S
H4166 C4178 0.930 . S
H4167 C4180 0.930 . S
H4168 C4181 0.930 . S
H4169 C4185 0.959 . S
H4170 C4185 0.959 . S
H4171 C4185 0.961 . S
H4172 C4186 0.960 . S
H4173 C4186 0.961 . S
H4174 C4186 0.959 . S
H4175 C4189 0.929 . S
H4176 C4190 0.931 . S
H4177 C4192 0.930 . S
C4178 H4166 0.930 . S
C4178 C4179 1.399 . S
C4178 C4183 1.399 . S
C4179 C4178 1.399 . S
C4179 C4180 1.376 . S
C4180 H4167 0.930 . S
C4180 C4179 1.376 . S
C4180 C4181 1.388 . S
C4181 H4168 0.930 . S
C4181 C4180 1.388 . S
C4181 C4182 1.390 . S
C4182 C4181 1.390 . S
C4182 C4183 1.394 . S
C4182 C4188 1.465 . S
C4183 C4178 1.399 . S
C4183 C4182 1.394 . S
C4183 C4184 1.516 . S
C4184 C4183 1.516 . S
C4184 C4185 1.502 . S
C4184 C4186 1.561 . S
C4184 C4187 1.526 . S
C4185 H4169 0.959 . S
C4185 H4170 0.959 . S
C4185 H4171 0.961 . S
C4185 C4184 1.502 . S
C4186 H4172 0.960 . S
C4186 H4173 0.961 . S
C4186 H4174 0.959 . S
C4186 C4184 1.561 . S
C4187 C4184 1.526 . S
C4187 C4188 1.396 . S
C4187 C4192 1.390 . S
C4188 C4182 1.465 . S
C4188 C4187 1.396 . S
C4188 C4189 1.399 . S
C4189 H4175 0.929 . S
C4189 C4188 1.399 . S
C4189 C4190 1.385 . S
C4190 H4176 0.931 . S
C4190 C4189 1.385 . S
C4190 C4191 1.389 . S
C4191 C4190 1.389 . S
C4191 C4192 1.387 . S
C4192 H4177 0.930 . S
C4192 C4187 1.390 . S
C4192 C4191 1.387 . S
H4193 C4205 0.930 . S
H4194 C4207 0.930 . S
H4195 C4208 0.930 . S
H4196 C4212 0.959 . S
H4197 C4212 0.959 . S
H4198 C4212 0.961 . S
H4199 C4213 0.960 . S
H4200 C4213 0.961 . S
H4201 C4213 0.959 . S
H4202 C4216 0.929 . S
H4203 C4217 0.931 . S
H4204 C4219 0.930 . S
C4205 H4193 0.930 . S
C4205 C4206 1.399 . S
C4205 C4210 1.399 . S
C4206 C4205 1.399 . S
C4206 C4207 1.376 . S
C4207 H4194 0.930 . S
C4207 C4206 1.376 . S
C4207 C4208 1.388 . S
C4208 H4195 0.930 . S
C4208 C4207 1.388 . S
C4208 C4209 1.390 . S
C4209 C4208 1.390 . S
C4209 C4210 1.394 . S
C4209 C4215 1.465 . S
C4210 C4205 1.399 . S
C4210 C4209 1.394 . S
C4210 C4211 1.516 . S
C4211 C4210 1.516 . S
C4211 C4212 1.502 . S
C4211 C4213 1.561 . S
C4211 C4214 1.526 . S
C4212 H4196 0.959 . S
C4212 H4197 0.959 . S
C4212 H4198 0.961 . S
C4212 C4211 1.502 . S
C4213 H4199 0.960 . S
C4213 H4200 0.961 . S
C4213 H4201 0.959 . S
C4213 C4211 1.561 . S
C4214 C4211 1.526 . S
C4214 C4215 1.396 . S
C4214 C4219 1.390 . S
C4215 C4209 1.465 . S
C4215 C4214 1.396 . S
C4215 C4216 1.399 . S
C4216 H4202 0.929 . S
C4216 C4215 1.399 . S
C4216 C4217 1.385 . S
C4217 H4203 0.931 . S
C4217 C4216 1.385 . S
C4217 C4218 1.389 . S
C4218 C4217 1.389 . S
C4218 C4219 1.387 . S
C4219 H4204 0.930 . S
C4219 C4214 1.390 . S
C4219 C4218 1.387 . S
H4220 C4232 0.930 . S
H4221 C4234 0.930 . S
H4222 C4235 0.930 . S
H4223 C4239 0.959 . S
H4224 C4239 0.959 . S
H4225 C4239 0.961 . S
H4226 C4240 0.960 . S
H4227 C4240 0.961 . S
H4228 C4240 0.959 . S
H4229 C4243 0.929 . S
H4230 C4244 0.931 . S
H4231 C4246 0.930 . S
C4232 H4220 0.930 . S
C4232 C4233 1.399 . S
C4232 C4237 1.399 . S
C4233 C4232 1.399 . S
C4233 C4234 1.376 . S
C4234 H4221 0.930 . S
C4234 C4233 1.376 . S
C4234 C4235 1.388 . S
C4235 H4222 0.930 . S
C4235 C4234 1.388 . S
C4235 C4236 1.390 . S
C4236 C4235 1.390 . S
C4236 C4237 1.394 . S
C4236 C4242 1.465 . S
C4237 C4232 1.399 . S
C4237 C4236 1.394 . S
C4237 C4238 1.516 . S
C4238 C4237 1.516 . S
C4238 C4239 1.502 . S
C4238 C4240 1.561 . S
C4238 C4241 1.526 . S
C4239 H4223 0.959 . S
C4239 H4224 0.959 . S
C4239 H4225 0.961 . S
C4239 C4238 1.502 . S
C4240 H4226 0.960 . S
C4240 H4227 0.961 . S
C4240 H4228 0.959 . S
C4240 C4238 1.561 . S
C4241 C4238 1.526 . S
C4241 C4242 1.396 . S
C4241 C4246 1.390 . S
C4242 C4236 1.465 . S
C4242 C4241 1.396 . S
C4242 C4243 1.399 . S
C4243 H4229 0.929 . S
C4243 C4242 1.399 . S
C4243 C4244 1.385 . S
C4244 H4230 0.931 . S
C4244 C4243 1.385 . S
C4244 C4245 1.389 . S
C4245 C4244 1.389 . S
C4245 C4246 1.387 . S
C4246 H4231 0.930 . S
C4246 C4241 1.390 . S
C4246 C4245 1.387 . S
H4247 C4259 0.930 . S
H4248 C4261 0.930 . S
H4249 C4262 0.930 . S
H4250 C4266 0.959 . S
H4251 C4266 0.959 . S
H4252 C4266 0.961 . S
H4253 C4267 0.960 . S
H4254 C4267 0.961 . S
H4255 C4267 0.959 . S
H4256 C4270 0.929 . S
H4257 C4271 0.931 . S
H4258 C4273 0.930 . S
C4259 H4247 0.930 . S
C4259 C4260 1.399 . S
C4259 C4264 1.399 . S
C4260 C4259 1.399 . S
C4260 C4261 1.376 . S
C4261 H4248 0.930 . S
C4261 C4260 1.376 . S
C4261 C4262 1.388 . S
C4262 H4249 0.930 . S
C4262 C4261 1.388 . S
C4262 C4263 1.390 . S
C4263 C4262 1.390 . S
C4263 C4264 1.394 . S
C4263 C4269 1.465 . S
C4264 C4259 1.399 . S
C4264 C4263 1.394 . S
C4264 C4265 1.516 . S
C4265 C4264 1.516 . S
C4265 C4266 1.502 . S
C4265 C4267 1.561 . S
C4265 C4268 1.526 . S
C4266 H4250 0.959 . S
C4266 H4251 0.959 . S
C4266 H4252 0.961 . S
C4266 C4265 1.502 . S
C4267 H4253 0.960 . S
C4267 H4254 0.961 . S
C4267 H4255 0.959 . S
C4267 C4265 1.561 . S
C4268 C4265 1.526 . S
C4268 C4269 1.396 . S
C4268 C4273 1.390 . S
C4269 C4263 1.465 . S
C4269 C4268 1.396 . S
C4269 C4270 1.399 . S
C4270 H4256 0.929 . S
C4270 C4269 1.399 . S
C4270 C4271 1.385 . S
C4271 H4257 0.931 . S
C4271 C4270 1.385 . S
C4271 C4272 1.389 . S
C4272 C4271 1.389 . S
C4272 C4273 1.387 . S
C4273 H4258 0.930 . S
C4273 C4268 1.390 . S
C4273 C4272 1.387 . S
H4274 C4286 0.930 . S
H4275 C4288 0.930 . S
H4276 C4289 0.930 . S
H4277 C4293 0.959 . S
H4278 C4293 0.959 . S
H4279 C4293 0.961 . S
H4280 C4294 0.960 . S
H4281 C4294 0.961 . S
H4282 C4294 0.959 . S
H4283 C4297 0.929 . S
H4284 C4298 0.931 . S
H4285 C4300 0.930 . S
C4286 H4274 0.930 . S
C4286 C4287 1.399 . S
C4286 C4291 1.399 . S
C4287 C4286 1.399 . S
C4287 C4288 1.376 . S
C4288 H4275 0.930 . S
C4288 C4287 1.376 . S
C4288 C4289 1.388 . S
C4289 H4276 0.930 . S
C4289 C4288 1.388 . S
C4289 C4290 1.390 . S
C4290 C4289 1.390 . S
C4290 C4291 1.394 . S
C4290 C4296 1.465 . S
C4291 C4286 1.399 . S
C4291 C4290 1.394 . S
C4291 C4292 1.516 . S
C4292 C4291 1.516 . S
C4292 C4293 1.502 . S
C4292 C4294 1.561 . S
C4292 C4295 1.526 . S
C4293 H4277 0.959 . S
C4293 H4278 0.959 . S
C4293 H4279 0.961 . S
C4293 C4292 1.502 . S
C4294 H4280 0.960 . S
C4294 H4281 0.961 . S
C4294 H4282 0.959 . S
C4294 C4292 1.561 . S
C4295 C4292 1.526 . S
C4295 C4296 1.396 . S
C4295 C4300 1.390 . S
C4296 C4290 1.465 . S
C4296 C4295 1.396 . S
C4296 C4297 1.399 . S
C4297 H4283 0.929 . S
C4297 C4296 1.399 . S
C4297 C4298 1.385 . S
C4298 H4284 0.931 . S
C4298 C4297 1.385 . S
C4298 C4299 1.389 . S
C4299 C4298 1.389 . S
C4299 C4300 1.387 . S
C4300 H4285 0.930 . S
C4300 C4295 1.390 . S
C4300 C4299 1.387 . S
H4301 C4313 0.930 . S
H4302 C4315 0.930 . S
H4303 C4316 0.930 . S
H4304 C4320 0.959 . S
H4305 C4320 0.959 . S
H4306 C4320 0.961 . S
H4307 C4321 0.960 . S
H4308 C4321 0.961 . S
H4309 C4321 0.959 . S
H4310 C4324 0.929 . S
H4311 C4325 0.931 . S
H4312 C4327 0.930 . S
C4313 H4301 0.930 . S
C4313 C4314 1.399 . S
C4313 C4318 1.399 . S
C4314 C4313 1.399 . S
C4314 C4315 1.376 . S
C4315 H4302 0.930 . S
C4315 C4314 1.376 . S
C4315 C4316 1.388 . S
C4316 H4303 0.930 . S
C4316 C4315 1.388 . S
C4316 C4317 1.390 . S
C4317 C4316 1.390 . S
C4317 C4318 1.394 . S
C4317 C4323 1.465 . S
C4318 C4313 1.399 . S
C4318 C4317 1.394 . S
C4318 C4319 1.516 . S
C4319 C4318 1.516 . S
C4319 C4320 1.502 . S
C4319 C4321 1.561 . S
C4319 C4322 1.526 . S
C4320 H4304 0.959 . S
C4320 H4305 0.959 . S
C4320 H4306 0.961 . S
C4320 C4319 1.502 . S
C4321 H4307 0.960 . S
C4321 H4308 0.961 . S
C4321 H4309 0.959 . S
C4321 C4319 1.561 . S
C4322 C4319 1.526 . S
C4322 C4323 1.396 . S
C4322 C4327 1.390 . S
C4323 C4317 1.465 . S
C4323 C4322 1.396 . S
C4323 C4324 1.399 . S
C4324 H4310 0.929 . S
C4324 C4323 1.399 . S
C4324 C4325 1.385 . S
C4325 H4311 0.931 . S
C4325 C4324 1.385 . S
C4325 C4326 1.389 . S
C4326 C4325 1.389 . S
C4326 C4327 1.387 . S
C4327 H4312 0.930 . S
C4327 C4322 1.390 . S
C4327 C4326 1.387 . S
H4328 C4340 0.930 . S
H4329 C4342 0.930 . S
H4330 C4343 0.930 . S
H4331 C4347 0.959 . S
H4332 C4347 0.959 . S
H4333 C4347 0.961 . S
H4334 C4348 0.960 . S
H4335 C4348 0.961 . S
H4336 C4348 0.959 . S
H4337 C4351 0.929 . S
H4338 C4352 0.931 . S
H4339 C4354 0.930 . S
C4340 H4328 0.930 . S
C4340 C4341 1.399 . S
C4340 C4345 1.399 . S
C4341 C4340 1.399 . S
C4341 C4342 1.376 . S
C4342 H4329 0.930 . S
C4342 C4341 1.376 . S
C4342 C4343 1.388 . S
C4343 H4330 0.930 . S
C4343 C4342 1.388 . S
C4343 C4344 1.390 . S
C4344 C4343 1.390 . S
C4344 C4345 1.394 . S
C4344 C4350 1.465 . S
C4345 C4340 1.399 . S
C4345 C4344 1.394 . S
C4345 C4346 1.516 . S
C4346 C4345 1.516 . S
C4346 C4347 1.502 . S
C4346 C4348 1.561 . S
C4346 C4349 1.526 . S
C4347 H4331 0.959 . S
C4347 H4332 0.959 . S
C4347 H4333 0.961 . S
C4347 C4346 1.502 . S
C4348 H4334 0.960 . S
C4348 H4335 0.961 . S
C4348 H4336 0.959 . S
C4348 C4346 1.561 . S
C4349 C4346 1.526 . S
C4349 C4350 1.396 . S
C4349 C4354 1.390 . S
C4350 C4344 1.465 . S
C4350 C4349 1.396 . S
C4350 C4351 1.399 . S
C4351 H4337 0.929 . S
C4351 C4350 1.399 . S
C4351 C4352 1.385 . S
C4352 H4338 0.931 . S
C4352 C4351 1.385 . S
C4352 C4353 1.389 . S
C4353 C4352 1.389 . S
C4353 C4354 1.387 . S
C4354 H4339 0.930 . S
C4354 C4349 1.390 . S
C4354 C4353 1.387 . S
H4355 C4367 0.930 . S
H4356 C4369 0.930 . S
H4357 C4370 0.930 . S
H4358 C4374 0.959 . S
H4359 C4374 0.959 . S
H4360 C4374 0.961 . S
H4361 C4375 0.960 . S
H4362 C4375 0.961 . S
H4363 C4375 0.959 . S
H4364 C4378 0.929 . S
H4365 C4379 0.931 . S
H4366 C4381 0.930 . S
C4367 H4355 0.930 . S
C4367 C4368 1.399 . S
C4367 C4372 1.399 . S
C4368 C4367 1.399 . S
C4368 C4369 1.376 . S
C4369 H4356 0.930 . S
C4369 C4368 1.376 . S
C4369 C4370 1.388 . S
C4370 H4357 0.930 . S
C4370 C4369 1.388 . S
C4370 C4371 1.390 . S
C4371 C4370 1.390 . S
C4371 C4372 1.394 . S
C4371 C4377 1.465 . S
C4372 C4367 1.399 . S
C4372 C4371 1.394 . S
C4372 C4373 1.516 . S
C4373 C4372 1.516 . S
C4373 C4374 1.502 . S
C4373 C4375 1.561 . S
C4373 C4376 1.526 . S
C4374 H4358 0.959 . S
C4374 H4359 0.959 . S
C4374 H4360 0.961 . S
C4374 C4373 1.502 . S
C4375 H4361 0.960 . S
C4375 H4362 0.961 . S
C4375 H4363 0.959 . S
C4375 C4373 1.561 . S
C4376 C4373 1.526 . S
C4376 C4377 1.396 . S
C4376 C4381 1.390 . S
C4377 C4371 1.465 . S
C4377 C4376 1.396 . S
C4377 C4378 1.399 . S
C4378 H4364 0.929 . S
C4378 C4377 1.399 . S
C4378 C4379 1.385 . S
C4379 H4365 0.931 . S
C4379 C4378 1.385 . S
C4379 C4380 1.389 . S
C4380 C4379 1.389 . S
C4380 C4381 1.387 . S
C4381 H4366 0.930 . S
C4381 C4376 1.390 . S
C4381 C4380 1.387 . S
H4382 C4394 0.930 . S
H4383 C4396 0.930 . S
H4384 C4397 0.930 . S
H4385 C4401 0.959 . S
H4386 C4401 0.959 . S
H4387 C4401 0.961 . S
H4388 C4402 0.960 . S
H4389 C4402 0.961 . S
H4390 C4402 0.959 . S
H4391 C4405 0.929 . S
H4392 C4406 0.931 . S
H4393 C4408 0.930 . S
C4394 H4382 0.930 . S
C4394 C4395 1.399 . S
C4394 C4399 1.399 . S
C4395 C4394 1.399 . S
C4395 C4396 1.376 . S
C4396 H4383 0.930 . S
C4396 C4395 1.376 . S
C4396 C4397 1.388 . S
C4397 H4384 0.930 . S
C4397 C4396 1.388 . S
C4397 C4398 1.390 . S
C4398 C4397 1.390 . S
C4398 C4399 1.394 . S
C4398 C4404 1.465 . S
C4399 C4394 1.399 . S
C4399 C4398 1.394 . S
C4399 C4400 1.516 . S
C4400 C4399 1.516 . S
C4400 C4401 1.502 . S
C4400 C4402 1.561 . S
C4400 C4403 1.526 . S
C4401 H4385 0.959 . S
C4401 H4386 0.959 . S
C4401 H4387 0.961 . S
C4401 C4400 1.502 . S
C4402 H4388 0.960 . S
C4402 H4389 0.961 . S
C4402 H4390 0.959 . S
C4402 C4400 1.561 . S
C4403 C4400 1.526 . S
C4403 C4404 1.396 . S
C4403 C4408 1.390 . S
C4404 C4398 1.465 . S
C4404 C4403 1.396 . S
C4404 C4405 1.399 . S
C4405 H4391 0.929 . S
C4405 C4404 1.399 . S
C4405 C4406 1.385 . S
C4406 H4392 0.931 . S
C4406 C4405 1.385 . S
C4406 C4407 1.389 . S
C4407 C4406 1.389 . S
C4407 C4408 1.387 . S
C4408 H4393 0.930 . S
C4408 C4403 1.390 . S
C4408 C4407 1.387 . S
H4409 C4421 0.930 . S
H4410 C4423 0.930 . S
H4411 C4424 0.930 . S
H4412 C4428 0.959 . S
H4413 C4428 0.959 . S
H4414 C4428 0.961 . S
H4415 C4429 0.960 . S
H4416 C4429 0.961 . S
H4417 C4429 0.959 . S
H4418 C4432 0.929 . S
H4419 C4433 0.931 . S
H4420 C4435 0.930 . S
C4421 H4409 0.930 . S
C4421 C4422 1.399 . S
C4421 C4426 1.399 . S
C4422 C4421 1.399 . S
C4422 C4423 1.376 . S
C4423 H4410 0.930 . S
C4423 C4422 1.376 . S
C4423 C4424 1.388 . S
C4424 H4411 0.930 . S
C4424 C4423 1.388 . S
C4424 C4425 1.390 . S
C4425 C4424 1.390 . S
C4425 C4426 1.394 . S
C4425 C4431 1.465 . S
C4426 C4421 1.399 . S
C4426 C4425 1.394 . S
C4426 C4427 1.516 . S
C4427 C4426 1.516 . S
C4427 C4428 1.502 . S
C4427 C4429 1.561 . S
C4427 C4430 1.526 . S
C4428 H4412 0.959 . S
C4428 H4413 0.959 . S
C4428 H4414 0.961 . S
C4428 C4427 1.502 . S
C4429 H4415 0.960 . S
C4429 H4416 0.961 . S
C4429 H4417 0.959 . S
C4429 C4427 1.561 . S
C4430 C4427 1.526 . S
C4430 C4431 1.396 . S
C4430 C4435 1.390 . S
C4431 C4425 1.465 . S
C4431 C4430 1.396 . S
C4431 C4432 1.399 . S
C4432 H4418 0.929 . S
C4432 C4431 1.399 . S
C4432 C4433 1.385 . S
C4433 H4419 0.931 . S
C4433 C4432 1.385 . S
C4433 C4434 1.389 . S
C4434 C4433 1.389 . S
C4434 C4435 1.387 . S
C4435 H4420 0.930 . S
C4435 C4430 1.390 . S
C4435 C4434 1.387 . S
H4436 C4448 0.930 . S
H4437 C4450 0.930 . S
H4438 C4451 0.930 . S
H4439 C4455 0.959 . S
H4440 C4455 0.959 . S
H4441 C4455 0.961 . S
H4442 C4456 0.960 . S
H4443 C4456 0.961 . S
H4444 C4456 0.959 . S
H4445 C4459 0.929 . S
H4446 C4460 0.931 . S
H4447 C4462 0.930 . S
C4448 H4436 0.930 . S
C4448 C4449 1.399 . S
C4448 C4453 1.399 . S
C4449 C4448 1.399 . S
C4449 C4450 1.376 . S
C4450 H4437 0.930 . S
C4450 C4449 1.376 . S
C4450 C4451 1.388 . S
C4451 H4438 0.930 . S
C4451 C4450 1.388 . S
C4451 C4452 1.390 . S
C4452 C4451 1.390 . S
C4452 C4453 1.394 . S
C4452 C4458 1.465 . S
C4453 C4448 1.399 . S
C4453 C4452 1.394 . S
C4453 C4454 1.516 . S
C4454 C4453 1.516 . S
C4454 C4455 1.502 . S
C4454 C4456 1.561 . S
C4454 C4457 1.526 . S
C4455 H4439 0.959 . S
C4455 H4440 0.959 . S
C4455 H4441 0.961 . S
C4455 C4454 1.502 . S
C4456 H4442 0.960 . S
C4456 H4443 0.961 . S
C4456 H4444 0.959 . S
C4456 C4454 1.561 . S
C4457 C4454 1.526 . S
C4457 C4458 1.396 . S
C4457 C4462 1.390 . S
C4458 C4452 1.465 . S
C4458 C4457 1.396 . S
C4458 C4459 1.399 . S
C4459 H4445 0.929 . S
C4459 C4458 1.399 . S
C4459 C4460 1.385 . S
C4460 H4446 0.931 . S
C4460 C4459 1.385 . S
C4460 C4461 1.389 . S
C4461 C4460 1.389 . S
C4461 C4462 1.387 . S
C4462 H4447 0.930 . S
C4462 C4457 1.390 . S
C4462 C4461 1.387 . S
H4463 C4475 0.930 . S
H4464 C4477 0.930 . S
H4465 C4478 0.930 . S
H4466 C4482 0.959 . S
H4467 C4482 0.959 . S
H4468 C4482 0.961 . S
H4469 C4483 0.960 . S
H4470 C4483 0.961 . S
H4471 C4483 0.959 . S
H4472 C4486 0.929 . S
H4473 C4487 0.931 . S
H4474 C4489 0.930 . S
C4475 H4463 0.930 . S
C4475 C4476 1.399 . S
C4475 C4480 1.399 . S
C4476 C4475 1.399 . S
C4476 C4477 1.376 . S
C4477 H4464 0.930 . S
C4477 C4476 1.376 . S
C4477 C4478 1.388 . S
C4478 H4465 0.930 . S
C4478 C4477 1.388 . S
C4478 C4479 1.390 . S
C4479 C4478 1.390 . S
C4479 C4480 1.394 . S
C4479 C4485 1.465 . S
C4480 C4475 1.399 . S
C4480 C4479 1.394 . S
C4480 C4481 1.516 . S
C4481 C4480 1.516 . S
C4481 C4482 1.502 . S
C4481 C4483 1.561 . S
C4481 C4484 1.526 . S
C4482 H4466 0.959 . S
C4482 H4467 0.959 . S
C4482 H4468 0.961 . S
C4482 C4481 1.502 . S
C4483 H4469 0.960 . S
C4483 H4470 0.961 . S
C4483 H4471 0.959 . S
C4483 C4481 1.561 . S
C4484 C4481 1.526 . S
C4484 C4485 1.396 . S
C4484 C4489 1.390 . S
C4485 C4479 1.465 . S
C4485 C4484 1.396 . S
C4485 C4486 1.399 . S
C4486 H4472 0.929 . S
C4486 C4485 1.399 . S
C4486 C4487 1.385 . S
C4487 H4473 0.931 . S
C4487 C4486 1.385 . S
C4487 C4488 1.389 . S
C4488 C4487 1.389 . S
C4488 C4489 1.387 . S
C4489 H4474 0.930 . S
C4489 C4484 1.390 . S
C4489 C4488 1.387 . S
H4490 C4502 0.930 . S
H4491 C4504 0.930 . S
H4492 C4505 0.930 . S
H4493 C4509 0.959 . S
H4494 C4509 0.959 . S
H4495 C4509 0.961 . S
H4496 C4510 0.960 . S
H4497 C4510 0.961 . S
H4498 C4510 0.959 . S
H4499 C4513 0.929 . S
H4500 C4514 0.931 . S
H4501 C4516 0.930 . S
C4502 H4490 0.930 . S
C4502 C4503 1.399 . S
C4502 C4507 1.399 . S
C4503 C4502 1.399 . S
C4503 C4504 1.376 . S
C4504 H4491 0.930 . S
C4504 C4503 1.376 . S
C4504 C4505 1.388 . S
C4505 H4492 0.930 . S
C4505 C4504 1.388 . S
C4505 C4506 1.390 . S
C4506 C4505 1.390 . S
C4506 C4507 1.394 . S
C4506 C4512 1.465 . S
C4507 C4502 1.399 . S
C4507 C4506 1.394 . S
C4507 C4508 1.516 . S
C4508 C4507 1.516 . S
C4508 C4509 1.502 . S
C4508 C4510 1.561 . S
C4508 C4511 1.526 . S
C4509 H4493 0.959 . S
C4509 H4494 0.959 . S
C4509 H4495 0.961 . S
C4509 C4508 1.502 . S
C4510 H4496 0.960 . S
C4510 H4497 0.961 . S
C4510 H4498 0.959 . S
C4510 C4508 1.561 . S
C4511 C4508 1.526 . S
C4511 C4512 1.396 . S
C4511 C4516 1.390 . S
C4512 C4506 1.465 . S
C4512 C4511 1.396 . S
C4512 C4513 1.399 . S
C4513 H4499 0.929 . S
C4513 C4512 1.399 . S
C4513 C4514 1.385 . S
C4514 H4500 0.931 . S
C4514 C4513 1.385 . S
C4514 C4515 1.389 . S
C4515 C4514 1.389 . S
C4515 C4516 1.387 . S
C4516 H4501 0.930 . S
C4516 C4511 1.390 . S
C4516 C4515 1.387 . S
H4517 C4529 0.930 . S
H4518 C4531 0.930 . S
H4519 C4532 0.930 . S
H4520 C4536 0.959 . S
H4521 C4536 0.959 . S
H4522 C4536 0.961 . S
H4523 C4537 0.960 . S
H4524 C4537 0.961 . S
H4525 C4537 0.959 . S
H4526 C4540 0.929 . S
H4527 C4541 0.931 . S
H4528 C4543 0.930 . S
C4529 H4517 0.930 . S
C4529 C4530 1.399 . S
C4529 C4534 1.399 . S
C4530 C4529 1.399 . S
C4530 C4531 1.376 . S
C4531 H4518 0.930 . S
C4531 C4530 1.376 . S
C4531 C4532 1.388 . S
C4532 H4519 0.930 . S
C4532 C4531 1.388 . S
C4532 C4533 1.390 . S
C4533 C4532 1.390 . S
C4533 C4534 1.394 . S
C4533 C4539 1.465 . S
C4534 C4529 1.399 . S
C4534 C4533 1.394 . S
C4534 C4535 1.516 . S
C4535 C4534 1.516 . S
C4535 C4536 1.502 . S
C4535 C4537 1.561 . S
C4535 C4538 1.526 . S
C4536 H4520 0.959 . S
C4536 H4521 0.959 . S
C4536 H4522 0.961 . S
C4536 C4535 1.502 . S
C4537 H4523 0.960 . S
C4537 H4524 0.961 . S
C4537 H4525 0.959 . S
C4537 C4535 1.561 . S
C4538 C4535 1.526 . S
C4538 C4539 1.396 . S
C4538 C4543 1.390 . S
C4539 C4533 1.465 . S
C4539 C4538 1.396 . S
C4539 C4540 1.399 . S
C4540 H4526 0.929 . S
C4540 C4539 1.399 . S
C4540 C4541 1.385 . S
C4541 H4527 0.931 . S
C4541 C4540 1.385 . S
C4541 C4542 1.389 . S
C4542 C4541 1.389 . S
C4542 C4543 1.387 . S
C4543 H4528 0.930 . S
C4543 C4538 1.390 . S
C4543 C4542 1.387 . S
H4544 C4556 0.930 . S
H4545 C4558 0.930 . S
H4546 C4559 0.930 . S
H4547 C4563 0.959 . S
H4548 C4563 0.959 . S
H4549 C4563 0.961 . S
H4550 C4564 0.960 . S
H4551 C4564 0.961 . S
H4552 C4564 0.959 . S
H4553 C4567 0.929 . S
H4554 C4568 0.931 . S
H4555 C4570 0.930 . S
C4556 H4544 0.930 . S
C4556 C4557 1.399 . S
C4556 C4561 1.399 . S
C4557 C4556 1.399 . S
C4557 C4558 1.376 . S
C4558 H4545 0.930 . S
C4558 C4557 1.376 . S
C4558 C4559 1.388 . S
C4559 H4546 0.930 . S
C4559 C4558 1.388 . S
C4559 C4560 1.390 . S
C4560 C4559 1.390 . S
C4560 C4561 1.394 . S
C4560 C4566 1.465 . S
C4561 C4556 1.399 . S
C4561 C4560 1.394 . S
C4561 C4562 1.516 . S
C4562 C4561 1.516 . S
C4562 C4563 1.502 . S
C4562 C4564 1.561 . S
C4562 C4565 1.526 . S
C4563 H4547 0.959 . S
C4563 H4548 0.959 . S
C4563 H4549 0.961 . S
C4563 C4562 1.502 . S
C4564 H4550 0.960 . S
C4564 H4551 0.961 . S
C4564 H4552 0.959 . S
C4564 C4562 1.561 . S
C4565 C4562 1.526 . S
C4565 C4566 1.396 . S
C4565 C4570 1.390 . S
C4566 C4560 1.465 . S
C4566 C4565 1.396 . S
C4566 C4567 1.399 . S
C4567 H4553 0.929 . S
C4567 C4566 1.399 . S
C4567 C4568 1.385 . S
C4568 H4554 0.931 . S
C4568 C4567 1.385 . S
C4568 C4569 1.389 . S
C4569 C4568 1.389 . S
C4569 C4570 1.387 . S
C4570 H4555 0.930 . S
C4570 C4565 1.390 . S
C4570 C4569 1.387 . S
H4571 C4583 0.930 . S
H4572 C4585 0.930 . S
H4573 C4586 0.930 . S
H4574 C4590 0.959 . S
H4575 C4590 0.959 . S
H4576 C4590 0.961 . S
H4577 C4591 0.960 . S
H4578 C4591 0.961 . S
H4579 C4591 0.959 . S
H4580 C4594 0.929 . S
H4581 C4595 0.931 . S
H4582 C4597 0.930 . S
C4583 H4571 0.930 . S
C4583 C4584 1.399 . S
C4583 C4588 1.399 . S
C4584 C4583 1.399 . S
C4584 C4585 1.376 . S
C4585 H4572 0.930 . S
C4585 C4584 1.376 . S
C4585 C4586 1.388 . S
C4586 H4573 0.930 . S
C4586 C4585 1.388 . S
C4586 C4587 1.390 . S
C4587 C4586 1.390 . S
C4587 C4588 1.394 . S
C4587 C4593 1.465 . S
C4588 C4583 1.399 . S
C4588 C4587 1.394 . S
C4588 C4589 1.516 . S
C4589 C4588 1.516 . S
C4589 C4590 1.502 . S
C4589 C4591 1.561 . S
C4589 C4592 1.526 . S
C4590 H4574 0.959 . S
C4590 H4575 0.959 . S
C4590 H4576 0.961 . S
C4590 C4589 1.502 . S
C4591 H4577 0.960 . S
C4591 H4578 0.961 . S
C4591 H4579 0.959 . S
C4591 C4589 1.561 . S
C4592 C4589 1.526 . S
C4592 C4593 1.396 . S
C4592 C4597 1.390 . S
C4593 C4587 1.465 . S
C4593 C4592 1.396 . S
C4593 C4594 1.399 . S
C4594 H4580 0.929 . S
C4594 C4593 1.399 . S
C4594 C4595 1.385 . S
C4595 H4581 0.931 . S
C4595 C4594 1.385 . S
C4595 C4596 1.389 . S
C4596 C4595 1.389 . S
C4596 C4597 1.387 . S
C4597 H4582 0.930 . S
C4597 C4592 1.390 . S
C4597 C4596 1.387 . S
H4598 C4610 0.930 . S
H4599 C4612 0.930 . S
H4600 C4613 0.930 . S
H4601 C4617 0.959 . S
H4602 C4617 0.959 . S
H4603 C4617 0.961 . S
H4604 C4618 0.960 . S
H4605 C4618 0.961 . S
H4606 C4618 0.959 . S
H4607 C4621 0.929 . S
H4608 C4622 0.931 . S
H4609 C4624 0.930 . S
C4610 H4598 0.930 . S
C4610 C4611 1.399 . S
C4610 C4615 1.399 . S
C4611 C4610 1.399 . S
C4611 C4612 1.376 . S
C4612 H4599 0.930 . S
C4612 C4611 1.376 . S
C4612 C4613 1.388 . S
C4613 H4600 0.930 . S
C4613 C4612 1.388 . S
C4613 C4614 1.390 . S
C4614 C4613 1.390 . S
C4614 C4615 1.394 . S
C4614 C4620 1.465 . S
C4615 C4610 1.399 . S
C4615 C4614 1.394 . S
C4615 C4616 1.516 . S
C4616 C4615 1.516 . S
C4616 C4617 1.502 . S
C4616 C4618 1.561 . S
C4616 C4619 1.526 . S
C4617 H4601 0.959 . S
C4617 H4602 0.959 . S
C4617 H4603 0.961 . S
C4617 C4616 1.502 . S
C4618 H4604 0.960 . S
C4618 H4605 0.961 . S
C4618 H4606 0.959 . S
C4618 C4616 1.561 . S
C4619 C4616 1.526 . S
C4619 C4620 1.396 . S
C4619 C4624 1.390 . S
C4620 C4614 1.465 . S
C4620 C4619 1.396 . S
C4620 C4621 1.399 . S
C4621 H4607 0.929 . S
C4621 C4620 1.399 . S
C4621 C4622 1.385 . S
C4622 H4608 0.931 . S
C4622 C4621 1.385 . S
C4622 C4623 1.389 . S
C4623 C4622 1.389 . S
C4623 C4624 1.387 . S
C4624 H4609 0.930 . S
C4624 C4619 1.390 . S
C4624 C4623 1.387 . S
H4625 C4637 0.930 . S
H4626 C4639 0.930 . S
H4627 C4640 0.930 . S
H4628 C4644 0.959 . S
H4629 C4644 0.959 . S
H4630 C4644 0.961 . S
H4631 C4645 0.960 . S
H4632 C4645 0.961 . S
H4633 C4645 0.959 . S
H4634 C4648 0.929 . S
H4635 C4649 0.931 . S
H4636 C4651 0.930 . S
C4637 H4625 0.930 . S
C4637 C4638 1.399 . S
C4637 C4642 1.399 . S
C4638 C4637 1.399 . S
C4638 C4639 1.376 . S
C4639 H4626 0.930 . S
C4639 C4638 1.376 . S
C4639 C4640 1.388 . S
C4640 H4627 0.930 . S
C4640 C4639 1.388 . S
C4640 C4641 1.390 . S
C4641 C4640 1.390 . S
C4641 C4642 1.394 . S
C4641 C4647 1.465 . S
C4642 C4637 1.399 . S
C4642 C4641 1.394 . S
C4642 C4643 1.516 . S
C4643 C4642 1.516 . S
C4643 C4644 1.502 . S
C4643 C4645 1.561 . S
C4643 C4646 1.526 . S
C4644 H4628 0.959 . S
C4644 H4629 0.959 . S
C4644 H4630 0.961 . S
C4644 C4643 1.502 . S
C4645 H4631 0.960 . S
C4645 H4632 0.961 . S
C4645 H4633 0.959 . S
C4645 C4643 1.561 . S
C4646 C4643 1.526 . S
C4646 C4647 1.396 . S
C4646 C4651 1.390 . S
C4647 C4641 1.465 . S
C4647 C4646 1.396 . S
C4647 C4648 1.399 . S
C4648 H4634 0.929 . S
C4648 C4647 1.399 . S
C4648 C4649 1.385 . S
C4649 H4635 0.931 . S
C4649 C4648 1.385 . S
C4649 C4650 1.389 . S
C4650 C4649 1.389 . S
C4650 C4651 1.387 . S
C4651 H4636 0.930 . S
C4651 C4646 1.390 . S
C4651 C4650 1.387 . S
H4652 C4664 0.930 . S
H4653 C4666 0.930 . S
H4654 C4667 0.930 . S
H4655 C4671 0.959 . S
H4656 C4671 0.959 . S
H4657 C4671 0.961 . S
H4658 C4672 0.960 . S
H4659 C4672 0.961 . S
H4660 C4672 0.959 . S
H4661 C4675 0.929 . S
H4662 C4676 0.931 . S
H4663 C4678 0.930 . S
C4664 H4652 0.930 . S
C4664 C4665 1.399 . S
C4664 C4669 1.399 . S
C4665 C4664 1.399 . S
C4665 C4666 1.376 . S
C4666 H4653 0.930 . S
C4666 C4665 1.376 . S
C4666 C4667 1.388 . S
C4667 H4654 0.930 . S
C4667 C4666 1.388 . S
C4667 C4668 1.390 . S
C4668 C4667 1.390 . S
C4668 C4669 1.394 . S
C4668 C4674 1.465 . S
C4669 C4664 1.399 . S
C4669 C4668 1.394 . S
C4669 C4670 1.516 . S
C4670 C4669 1.516 . S
C4670 C4671 1.502 . S
C4670 C4672 1.561 . S
C4670 C4673 1.526 . S
C4671 H4655 0.959 . S
C4671 H4656 0.959 . S
C4671 H4657 0.961 . S
C4671 C4670 1.502 . S
C4672 H4658 0.960 . S
C4672 H4659 0.961 . S
C4672 H4660 0.959 . S
C4672 C4670 1.561 . S
C4673 C4670 1.526 . S
C4673 C4674 1.396 . S
C4673 C4678 1.390 . S
C4674 C4668 1.465 . S
C4674 C4673 1.396 . S
C4674 C4675 1.399 . S
C4675 H4661 0.929 . S
C4675 C4674 1.399 . S
C4675 C4676 1.385 . S
C4676 H4662 0.931 . S
C4676 C4675 1.385 . S
C4676 C4677 1.389 . S
C4677 C4676 1.389 . S
C4677 C4678 1.387 . S
C4678 H4663 0.930 . S
C4678 C4673 1.390 . S
C4678 C4677 1.387 . S
H4679 C4691 0.930 . S
H4680 C4693 0.930 . S
H4681 C4694 0.930 . S
H4682 C4698 0.959 . S
H4683 C4698 0.959 . S
H4684 C4698 0.961 . S
H4685 C4699 0.960 . S
H4686 C4699 0.961 . S
H4687 C4699 0.959 . S
H4688 C4702 0.929 . S
H4689 C4703 0.931 . S
H4690 C4705 0.930 . S
C4691 H4679 0.930 . S
C4691 C4692 1.399 . S
C4691 C4696 1.399 . S
C4692 C4691 1.399 . S
C4692 C4693 1.376 . S
C4693 H4680 0.930 . S
C4693 C4692 1.376 . S
C4693 C4694 1.388 . S
C4694 H4681 0.930 . S
C4694 C4693 1.388 . S
C4694 C4695 1.390 . S
C4695 C4694 1.390 . S
C4695 C4696 1.394 . S
C4695 C4701 1.465 . S
C4696 C4691 1.399 . S
C4696 C4695 1.394 . S
C4696 C4697 1.516 . S
C4697 C4696 1.516 . S
C4697 C4698 1.502 . S
C4697 C4699 1.561 . S
C4697 C4700 1.526 . S
C4698 H4682 0.959 . S
C4698 H4683 0.959 . S
C4698 H4684 0.961 . S
C4698 C4697 1.502 . S
C4699 H4685 0.960 . S
C4699 H4686 0.961 . S
C4699 H4687 0.959 . S
C4699 C4697 1.561 . S
C4700 C4697 1.526 . S
C4700 C4701 1.396 . S
C4700 C4705 1.390 . S
C4701 C4695 1.465 . S
C4701 C4700 1.396 . S
C4701 C4702 1.399 . S
C4702 H4688 0.929 . S
C4702 C4701 1.399 . S
C4702 C4703 1.385 . S
C4703 H4689 0.931 . S
C4703 C4702 1.385 . S
C4703 C4704 1.389 . S
C4704 C4703 1.389 . S
C4704 C4705 1.387 . S
C4705 H4690 0.930 . S
C4705 C4700 1.390 . S
C4705 C4704 1.387 . S
H4706 C4718 0.930 . S
H4707 C4720 0.930 . S
H4708 C4721 0.930 . S
H4709 C4725 0.959 . S
H4710 C4725 0.959 . S
H4711 C4725 0.961 . S
H4712 C4726 0.960 . S
H4713 C4726 0.961 . S
H4714 C4726 0.959 . S
H4715 C4729 0.929 . S
H4716 C4730 0.931 . S
H4717 C4732 0.930 . S
C4718 H4706 0.930 . S
C4718 C4719 1.399 . S
C4718 C4723 1.399 . S
C4719 C4718 1.399 . S
C4719 C4720 1.376 . S
C4720 H4707 0.930 . S
C4720 C4719 1.376 . S
C4720 C4721 1.388 . S
C4721 H4708 0.930 . S
C4721 C4720 1.388 . S
C4721 C4722 1.390 . S
C4722 C4721 1.390 . S
C4722 C4723 1.394 . S
C4722 C4728 1.465 . S
C4723 C4718 1.399 . S
C4723 C4722 1.394 . S
C4723 C4724 1.516 . S
C4724 C4723 1.516 . S
C4724 C4725 1.502 . S
C4724 C4726 1.561 . S
C4724 C4727 1.526 . S
C4725 H4709 0.959 . S
C4725 H4710 0.959 . S
C4725 H4711 0.961 . S
C4725 C4724 1.502 . S
C4726 H4712 0.960 . S
C4726 H4713 0.961 . S
C4726 H4714 0.959 . S
C4726 C4724 1.561 . S
C4727 C4724 1.526 . S
C4727 C4728 1.396 . S
C4727 C4732 1.390 . S
C4728 C4722 1.465 . S
C4728 C4727 1.396 . S
C4728 C4729 1.399 . S
C4729 H4715 0.929 . S
C4729 C4728 1.399 . S
C4729 C4730 1.385 . S
C4730 H4716 0.931 . S
C4730 C4729 1.385 . S
C4730 C4731 1.389 . S
C4731 C4730 1.389 . S
C4731 C4732 1.387 . S
C4732 H4717 0.930 . S
C4732 C4727 1.390 . S
C4732 C4731 1.387 . S
H4733 C4745 0.930 . S
H4734 C4747 0.930 . S
H4735 C4748 0.930 . S
H4736 C4752 0.959 . S
H4737 C4752 0.959 . S
H4738 C4752 0.961 . S
H4739 C4753 0.960 . S
H4740 C4753 0.961 . S
H4741 C4753 0.959 . S
H4742 C4756 0.929 . S
H4743 C4757 0.931 . S
H4744 C4759 0.930 . S
C4745 H4733 0.930 . S
C4745 C4746 1.399 . S
C4745 C4750 1.399 . S
C4746 C4745 1.399 . S
C4746 C4747 1.376 . S
C4747 H4734 0.930 . S
C4747 C4746 1.376 . S
C4747 C4748 1.388 . S
C4748 H4735 0.930 . S
C4748 C4747 1.388 . S
C4748 C4749 1.390 . S
C4749 C4748 1.390 . S
C4749 C4750 1.394 . S
C4749 C4755 1.465 . S
C4750 C4745 1.399 . S
C4750 C4749 1.394 . S
C4750 C4751 1.516 . S
C4751 C4750 1.516 . S
C4751 C4752 1.502 . S
C4751 C4753 1.561 . S
C4751 C4754 1.526 . S
C4752 H4736 0.959 . S
C4752 H4737 0.959 . S
C4752 H4738 0.961 . S
C4752 C4751 1.502 . S
C4753 H4739 0.960 . S
C4753 H4740 0.961 . S
C4753 H4741 0.959 . S
C4753 C4751 1.561 . S
C4754 C4751 1.526 . S
C4754 C4755 1.396 . S
C4754 C4759 1.390 . S
C4755 C4749 1.465 . S
C4755 C4754 1.396 . S
C4755 C4756 1.399 . S
C4756 H4742 0.929 . S
C4756 C4755 1.399 . S
C4756 C4757 1.385 . S
C4757 H4743 0.931 . S
C4757 C4756 1.385 . S
C4757 C4758 1.389 . S
C4758 C4757 1.389 . S
C4758 C4759 1.387 . S
C4759 H4744 0.930 . S
C4759 C4754 1.390 . S
C4759 C4758 1.387 . S
H4760 C4772 0.930 . S
H4761 C4774 0.930 . S
H4762 C4775 0.930 . S
H4763 C4779 0.959 . S
H4764 C4779 0.959 . S
H4765 C4779 0.961 . S
H4766 C4780 0.960 . S
H4767 C4780 0.961 . S
H4768 C4780 0.959 . S
H4769 C4783 0.929 . S
H4770 C4784 0.931 . S
H4771 C4786 0.930 . S
C4772 H4760 0.930 . S
C4772 C4773 1.399 . S
C4772 C4777 1.399 . S
C4773 C4772 1.399 . S
C4773 C4774 1.376 . S
C4774 H4761 0.930 . S
C4774 C4773 1.376 . S
C4774 C4775 1.388 . S
C4775 H4762 0.930 . S
C4775 C4774 1.388 . S
C4775 C4776 1.390 . S
C4776 C4775 1.390 . S
C4776 C4777 1.394 . S
C4776 C4782 1.465 . S
C4777 C4772 1.399 . S
C4777 C4776 1.394 . S
C4777 C4778 1.516 . S
C4778 C4777 1.516 . S
C4778 C4779 1.502 . S
C4778 C4780 1.561 . S
C4778 C4781 1.526 . S
C4779 H4763 0.959 . S
C4779 H4764 0.959 . S
C4779 H4765 0.961 . S
C4779 C4778 1.502 . S
C4780 H4766 0.960 . S
C4780 H4767 0.961 . S
C4780 H4768 0.959 . S
C4780 C4778 1.561 . S
C4781 C4778 1.526 . S
C4781 C4782 1.396 . S
C4781 C4786 1.390 . S
C4782 C4776 1.465 . S
C4782 C4781 1.396 . S
C4782 C4783 1.399 . S
C4783 H4769 0.929 . S
C4783 C4782 1.399 . S
C4783 C4784 1.385 . S
C4784 H4770 0.931 . S
C4784 C4783 1.385 . S
C4784 C4785 1.389 . S
C4785 C4784 1.389 . S
C4785 C4786 1.387 . S
C4786 H4771 0.930 . S
C4786 C4781 1.390 . S
C4786 C4785 1.387 . S
H4787 C4799 0.930 . S
H4788 C4801 0.930 . S
H4789 C4802 0.930 . S
H4790 C4806 0.959 . S
H4791 C4806 0.959 . S
H4792 C4806 0.961 . S
H4793 C4807 0.960 . S
H4794 C4807 0.961 . S
H4795 C4807 0.959 . S
H4796 C4810 0.929 . S
H4797 C4811 0.931 . S
H4798 C4813 0.930 . S
C4799 H4787 0.930 . S
C4799 C4800 1.399 . S
C4799 C4804 1.399 . S
C4800 C4799 1.399 . S
C4800 C4801 1.376 . S
C4801 H4788 0.930 . S
C4801 C4800 1.376 . S
C4801 C4802 1.388 . S
C4802 H4789 0.930 . S
C4802 C4801 1.388 . S
C4802 C4803 1.390 . S
C4803 C4802 1.390 . S
C4803 C4804 1.394 . S
C4803 C4809 1.465 . S
C4804 C4799 1.399 . S
C4804 C4803 1.394 . S
C4804 C4805 1.516 . S
C4805 C4804 1.516 . S
C4805 C4806 1.502 . S
C4805 C4807 1.561 . S
C4805 C4808 1.526 . S
C4806 H4790 0.959 . S
C4806 H4791 0.959 . S
C4806 H4792 0.961 . S
C4806 C4805 1.502 . S
C4807 H4793 0.960 . S
C4807 H4794 0.961 . S
C4807 H4795 0.959 . S
C4807 C4805 1.561 . S
C4808 C4805 1.526 . S
C4808 C4809 1.396 . S
C4808 C4813 1.390 . S
C4809 C4803 1.465 . S
C4809 C4808 1.396 . S
C4809 C4810 1.399 . S
C4810 H4796 0.929 . S
C4810 C4809 1.399 . S
C4810 C4811 1.385 . S
C4811 H4797 0.931 . S
C4811 C4810 1.385 . S
C4811 C4812 1.389 . S
C4812 C4811 1.389 . S
C4812 C4813 1.387 . S
C4813 H4798 0.930 . S
C4813 C4808 1.390 . S
C4813 C4812 1.387 . S
H4814 C4826 0.930 . S
H4815 C4828 0.930 . S
H4816 C4829 0.930 . S
H4817 C4833 0.959 . S
H4818 C4833 0.959 . S
H4819 C4833 0.961 . S
H4820 C4834 0.960 . S
H4821 C4834 0.961 . S
H4822 C4834 0.959 . S
H4823 C4837 0.929 . S
H4824 C4838 0.931 . S
H4825 C4840 0.930 . S
C4826 H4814 0.930 . S
C4826 C4827 1.399 . S
C4826 C4831 1.399 . S
C4827 C4826 1.399 . S
C4827 C4828 1.376 . S
C4828 H4815 0.930 . S
C4828 C4827 1.376 . S
C4828 C4829 1.388 . S
C4829 H4816 0.930 . S
C4829 C4828 1.388 . S
C4829 C4830 1.390 . S
C4830 C4829 1.390 . S
C4830 C4831 1.394 . S
C4830 C4836 1.465 . S
C4831 C4826 1.399 . S
C4831 C4830 1.394 . S
C4831 C4832 1.516 . S
C4832 C4831 1.516 . S
C4832 C4833 1.502 . S
C4832 C4834 1.561 . S
C4832 C4835 1.526 . S
C4833 H4817 0.959 . S
C4833 H4818 0.959 . S
C4833 H4819 0.961 . S
C4833 C4832 1.502 . S
C4834 H4820 0.960 . S
C4834 H4821 0.961 . S
C4834 H4822 0.959 . S
C4834 C4832 1.561 . S
C4835 C4832 1.526 . S
C4835 C4836 1.396 . S
C4835 C4840 1.390 . S
C4836 C4830 1.465 . S
C4836 C4835 1.396 . S
C4836 C4837 1.399 . S
C4837 H4823 0.929 . S
C4837 C4836 1.399 . S
C4837 C4838 1.385 . S
C4838 H4824 0.931 . S
C4838 C4837 1.385 . S
C4838 C4839 1.389 . S
C4839 C4838 1.389 . S
C4839 C4840 1.387 . S
C4840 H4825 0.930 . S
C4840 C4835 1.390 . S
C4840 C4839 1.387 . S
H4841 C4853 0.930 . S
H4842 C4855 0.930 . S
H4843 C4856 0.930 . S
H4844 C4860 0.959 . S
H4845 C4860 0.959 . S
H4846 C4860 0.961 . S
H4847 C4861 0.960 . S
H4848 C4861 0.961 . S
H4849 C4861 0.959 . S
H4850 C4864 0.929 . S
H4851 C4865 0.931 . S
H4852 C4867 0.930 . S
C4853 H4841 0.930 . S
C4853 C4854 1.399 . S
C4853 C4858 1.399 . S
C4854 C4853 1.399 . S
C4854 C4855 1.376 . S
C4855 H4842 0.930 . S
C4855 C4854 1.376 . S
C4855 C4856 1.388 . S
C4856 H4843 0.930 . S
C4856 C4855 1.388 . S
C4856 C4857 1.390 . S
C4857 C4856 1.390 . S
C4857 C4858 1.394 . S
C4857 C4863 1.465 . S
C4858 C4853 1.399 . S
C4858 C4857 1.394 . S
C4858 C4859 1.516 . S
C4859 C4858 1.516 . S
C4859 C4860 1.502 . S
C4859 C4861 1.561 . S
C4859 C4862 1.526 . S
C4860 H4844 0.959 . S
C4860 H4845 0.959 . S
C4860 H4846 0.961 . S
C4860 C4859 1.502 . S
C4861 H4847 0.960 . S
C4861 H4848 0.961 . S
C4861 H4849 0.959 . S
C4861 C4859 1.561 . S
C4862 C4859 1.526 . S
C4862 C4863 1.396 . S
C4862 C4867 1.390 . S
C4863 C4857 1.465 . S
C4863 C4862 1.396 . S
C4863 C4864 1.399 . S
C4864 H4850 0.929 . S
C4864 C4863 1.399 . S
C4864 C4865 1.385 . S
C4865 H4851 0.931 . S
C4865 C4864 1.385 . S
C4865 C4866 1.389 . S
C4866 C4865 1.389 . S
C4866 C4867 1.387 . S
C4867 H4852 0.930 . S
C4867 C4862 1.390 . S
C4867 C4866 1.387 . S
H4868 C4880 0.930 . S
H4869 C4882 0.930 . S
H4870 C4883 0.930 . S
H4871 C4887 0.959 . S
H4872 C4887 0.959 . S
H4873 C4887 0.961 . S
H4874 C4888 0.960 . S
H4875 C4888 0.961 . S
H4876 C4888 0.959 . S
H4877 C4891 0.929 . S
H4878 C4892 0.931 . S
H4879 C4894 0.930 . S
C4880 H4868 0.930 . S
C4880 C4881 1.399 . S
C4880 C4885 1.399 . S
C4881 C4880 1.399 . S
C4881 C4882 1.376 . S
C4882 H4869 0.930 . S
C4882 C4881 1.376 . S
C4882 C4883 1.388 . S
C4883 H4870 0.930 . S
C4883 C4882 1.388 . S
C4883 C4884 1.390 . S
C4884 C4883 1.390 . S
C4884 C4885 1.394 . S
C4884 C4890 1.465 . S
C4885 C4880 1.399 . S
C4885 C4884 1.394 . S
C4885 C4886 1.516 . S
C4886 C4885 1.516 . S
C4886 C4887 1.502 . S
C4886 C4888 1.561 . S
C4886 C4889 1.526 . S
C4887 H4871 0.959 . S
C4887 H4872 0.959 . S
C4887 H4873 0.961 . S
C4887 C4886 1.502 . S
C4888 H4874 0.960 . S
C4888 H4875 0.961 . S
C4888 H4876 0.959 . S
C4888 C4886 1.561 . S
C4889 C4886 1.526 . S
C4889 C4890 1.396 . S
C4889 C4894 1.390 . S
C4890 C4884 1.465 . S
C4890 C4889 1.396 . S
C4890 C4891 1.399 . S
C4891 H4877 0.929 . S
C4891 C4890 1.399 . S
C4891 C4892 1.385 . S
C4892 H4878 0.931 . S
C4892 C4891 1.385 . S
C4892 C4893 1.389 . S
C4893 C4892 1.389 . S
C4893 C4894 1.387 . S
C4894 H4879 0.930 . S
C4894 C4889 1.390 . S
C4894 C4893 1.387 . S
H4895 C4907 0.930 . S
H4896 C4909 0.930 . S
H4897 C4910 0.930 . S
H4898 C4914 0.959 . S
H4899 C4914 0.959 . S
H4900 C4914 0.961 . S
H4901 C4915 0.960 . S
H4902 C4915 0.961 . S
H4903 C4915 0.959 . S
H4904 C4918 0.929 . S
H4905 C4919 0.931 . S
H4906 C4921 0.930 . S
C4907 H4895 0.930 . S
C4907 C4908 1.399 . S
C4907 C4912 1.399 . S
C4908 C4907 1.399 . S
C4908 C4909 1.376 . S
C4909 H4896 0.930 . S
C4909 C4908 1.376 . S
C4909 C4910 1.388 . S
C4910 H4897 0.930 . S
C4910 C4909 1.388 . S
C4910 C4911 1.390 . S
C4911 C4910 1.390 . S
C4911 C4912 1.394 . S
C4911 C4917 1.465 . S
C4912 C4907 1.399 . S
C4912 C4911 1.394 . S
C4912 C4913 1.516 . S
C4913 C4912 1.516 . S
C4913 C4914 1.502 . S
C4913 C4915 1.561 . S
C4913 C4916 1.526 . S
C4914 H4898 0.959 . S
C4914 H4899 0.959 . S
C4914 H4900 0.961 . S
C4914 C4913 1.502 . S
C4915 H4901 0.960 . S
C4915 H4902 0.961 . S
C4915 H4903 0.959 . S
C4915 C4913 1.561 . S
C4916 C4913 1.526 . S
C4916 C4917 1.396 . S
C4916 C4921 1.390 . S
C4917 C4911 1.465 . S
C4917 C4916 1.396 . S
C4917 C4918 1.399 . S
C4918 H4904 0.929 . S
C4918 C4917 1.399 . S
C4918 C4919 1.385 . S
C4919 H4905 0.931 . S
C4919 C4918 1.385 . S
C4919 C4920 1.389 . S
C4920 C4919 1.389 . S
C4920 C4921 1.387 . S
C4921 H4906 0.930 . S
C4921 C4916 1.390 . S
C4921 C4920 1.387 . S
H4922 C4934 0.930 . S
H4923 C4936 0.930 . S
H4924 C4937 0.930 . S
H4925 C4941 0.959 . S
H4926 C4941 0.959 . S
H4927 C4941 0.961 . S
H4928 C4942 0.960 . S
H4929 C4942 0.961 . S
H4930 C4942 0.959 . S
H4931 C4945 0.929 . S
H4932 C4946 0.931 . S
H4933 C4948 0.930 . S
C4934 H4922 0.930 . S
C4934 C4935 1.399 . S
C4934 C4939 1.399 . S
C4935 C4934 1.399 . S
C4935 C4936 1.376 . S
C4936 H4923 0.930 . S
C4936 C4935 1.376 . S
C4936 C4937 1.388 . S
C4937 H4924 0.930 . S
C4937 C4936 1.388 . S
C4937 C4938 1.390 . S
C4938 C4937 1.390 . S
C4938 C4939 1.394 . S
C4938 C4944 1.465 . S
C4939 C4934 1.399 . S
C4939 C4938 1.394 . S
C4939 C4940 1.516 . S
C4940 C4939 1.516 . S
C4940 C4941 1.502 . S
C4940 C4942 1.561 . S
C4940 C4943 1.526 . S
C4941 H4925 0.959 . S
C4941 H4926 0.959 . S
C4941 H4927 0.961 . S
C4941 C4940 1.502 . S
C4942 H4928 0.960 . S
C4942 H4929 0.961 . S
C4942 H4930 0.959 . S
C4942 C4940 1.561 . S
C4943 C4940 1.526 . S
C4943 C4944 1.396 . S
C4943 C4948 1.390 . S
C4944 C4938 1.465 . S
C4944 C4943 1.396 . S
C4944 C4945 1.399 . S
C4945 H4931 0.929 . S
C4945 C4944 1.399 . S
C4945 C4946 1.385 . S
C4946 H4932 0.931 . S
C4946 C4945 1.385 . S
C4946 C4947 1.389 . S
C4947 C4946 1.389 . S
C4947 C4948 1.387 . S
C4948 H4933 0.930 . S
C4948 C4943 1.390 . S
C4948 C4947 1.387 . S
H4949 C4961 0.930 . S
H4950 C4963 0.930 . S
H4951 C4964 0.930 . S
H4952 C4968 0.959 . S
H4953 C4968 0.959 . S
H4954 C4968 0.961 . S
H4955 C4969 0.960 . S
H4956 C4969 0.961 . S
H4957 C4969 0.959 . S
H4958 C4972 0.929 . S
H4959 C4973 0.931 . S
H4960 C4975 0.930 . S
C4961 H4949 0.930 . S
C4961 C4962 1.399 . S
C4961 C4966 1.399 . S
C4962 C4961 1.399 . S
C4962 C4963 1.376 . S
C4963 H4950 0.930 . S
C4963 C4962 1.376 . S
C4963 C4964 1.388 . S
C4964 H4951 0.930 . S
C4964 C4963 1.388 . S
C4964 C4965 1.390 . S
C4965 C4964 1.390 . S
C4965 C4966 1.394 . S
C4965 C4971 1.465 . S
C4966 C4961 1.399 . S
C4966 C4965 1.394 . S
C4966 C4967 1.516 . S
C4967 C4966 1.516 . S
C4967 C4968 1.502 . S
C4967 C4969 1.561 . S
C4967 C4970 1.526 . S
C4968 H4952 0.959 . S
C4968 H4953 0.959 . S
C4968 H4954 0.961 . S
C4968 C4967 1.502 . S
C4969 H4955 0.960 . S
C4969 H4956 0.961 . S
C4969 H4957 0.959 . S
C4969 C4967 1.561 . S
C4970 C4967 1.526 . S
C4970 C4971 1.396 . S
C4970 C4975 1.390 . S
C4971 C4965 1.465 . S
C4971 C4970 1.396 . S
C4971 C4972 1.399 . S
C4972 H4958 0.929 . S
C4972 C4971 1.399 . S
C4972 C4973 1.385 . S
C4973 H4959 0.931 . S
C4973 C4972 1.385 . S
C4973 C4974 1.389 . S
C4974 C4973 1.389 . S
C4974 C4975 1.387 . S
C4975 H4960 0.930 . S
C4975 C4970 1.390 . S
C4975 C4974 1.387 . S
C2409 C1281 1.537 . S
C2397 C21 1.539 . S
C2436 C1348 1.422 . S
C2424 C42 1.400 . S
C2451 C82 1.524 . S
C2463 C1373 1.523 . S
C2490 C1433 1.486 . S
C2478 C135 1.484 . S
C2505 C175 1.414 . S
C2517 C1426 1.421 . S
C2532 C221 1.517 . S
C2544 C1302 1.539 . S
C2559 C255 1.476 . S
C2571 C1327 1.477 . S
C2598 C1394 1.553 . S
C2586 C301 1.520 . S
C2625 C1486 1.515 . S
C2613 C15 1.514 . S
C2640 C55 1.428 . S
C2652 C1525 1.431 . S
C2667 C101 1.543 . S
C2679 C1578 1.542 . S
C2706 C1603 1.500 . S
C2694 C141 1.485 . S
C2721 C162 1.442 . S
C2733 C1663 1.441 . S
C2760 C1716 1.514 . S
C2748 C215 1.512 . S
C2775 C261 1.466 . S
C2787 C1755 1.495 . S
C2814 C1794 1.523 . S
C2802 C282 1.521 . S
C2829 C2 1.507 . S
C2841 C1624 1.524 . S
C2856 C181 1.436 . S
C2868 C1695 1.425 . S
C2895 C1748 1.536 . S
C2883 C202 1.544 . S
C2910 C242 1.465 . S
C2922 C1801 1.498 . S
C2949 C1656 1.502 . S
C2937 C295 1.511 . S
C2976 C1518 1.516 . S
C2964 C95 1.517 . S
C2991 C122 1.476 . S
C3003 C1557 1.494 . S
C3030 C1465 1.438 . S
C3018 C61 1.413 . S
C3057 C1833 1.537 . S
C3045 C341 1.544 . S
C3072 C362 1.434 . S
C3084 C1879 1.430 . S
C3099 C402 1.497 . S
C3111 C1946 1.526 . S
C3138 C1992 1.484 . S
C3126 C455 1.489 . S
C3153 C495 1.416 . S
C3165 C1971 1.406 . S
C3180 C541 1.516 . S
C3192 C1854 1.541 . S
C3207 C575 1.473 . S
C3219 C1900 1.477 . S
C3234 C621 1.520 . S
C3246 C1925 1.554 . S
C3273 C1670 1.513 . S
C3261 C335 1.511 . S
C3288 C375 1.424 . S
C3300 C2031 1.422 . S
C3327 C1762 1.545 . S
C3315 C421 1.553 . S
C3342 C461 1.483 . S
C3354 C2063 1.500 . S
C3369 C482 1.436 . S
C3381 C1479 1.441 . S
C3408 C2130 1.506 . S
C3396 C535 1.509 . S
C3423 C581 1.473 . S
C3435 C1571 1.498 . S
C3462 C2162 1.514 . S
C3450 C602 1.487 . S
C3477 C322 1.529 . S
C3489 C2084 1.522 . S
C3516 C2109 1.427 . S
C3504 C501 1.437 . S
C3531 C522 1.544 . S
C3543 C1564 1.537 . S
C3570 C2169 1.507 . S
C3558 C562 1.503 . S
C3585 C615 1.501 . S
C3597 C1472 1.509 . S
C3612 C415 1.514 . S
C3624 C2024 1.512 . S
C3639 C442 1.465 . S
C3651 C1741 1.492 . S
C3666 C381 1.434 . S
C3678 C1649 1.440 . S
C3693 C661 1.539 . S
C3705 C1939 1.544 . S
C3732 C1985 1.422 . S
C3720 C682 1.400 . S
C3747 C722 1.514 . S
C3759 C1840 1.525 . S
C3774 C775 1.489 . S
C3786 C1886 1.490 . S
C3801 C815 1.414 . S
C3813 C1893 1.416 . S
C3828 C861 1.519 . S
C3840 C1932 1.538 . S
C3867 C1978 1.474 . S
C3855 C895 1.475 . S
C3882 C941 1.561 . S
C3894 C1847 1.559 . S
C3921 C2201 1.513 . S
C3909 C655 1.511 . S
C3936 C695 1.427 . S
C3948 C1709 1.428 . S
C3975 C2247 1.547 . S
C3963 C741 1.530 . S
C3990 C781 1.462 . S
C4002 C1787 1.492 . S
C4017 C802 1.446 . S
C4029 C2314 1.441 . S
C4044 C855 1.511 . S
C4056 C1532 1.511 . S
C4083 C2346 1.502 . S
C4071 C901 1.475 . S
C4098 C922 1.512 . S
C4110 C1610 1.523 . S
C4137 C1808 1.528 . S
C4125 C642 1.497 . S
C4164 C1511 1.432 . S
C4152 C821 1.403 . S
C4179 C842 1.528 . S
C4191 C2353 1.544 . S
C4206 C882 1.467 . S
C4218 C1617 1.501 . S
C4245 C2293 1.504 . S
C4233 C935 1.501 . S
C4272 C1702 1.516 . S
C4260 C735 1.517 . S
C4299 C2268 1.495 . S
C4287 C762 1.468 . S
C4326 C2222 1.433 . S
C4314 C701 1.410 . S
C4341 C981 1.531 . S
C4353 C1380 1.539 . S
C4368 C1002 1.432 . S
C4380 C1440 1.431 . S
C4407 C1288 1.520 . S
C4395 C1042 1.525 . S
C4434 C1341 1.489 . S
C4422 C1095 1.485 . S
C4461 C1334 1.410 . S
C4449 C1135 1.415 . S
C4488 C1387 1.539 . S
C4476 C1181 1.517 . S
C4515 C1419 1.480 . S
C4503 C1215 1.479 . S
C4530 C1261 1.521 . S
C4542 C1295 1.553 . S
C4557 C975 1.510 . S
C4569 C2307 1.509 . S
C4596 C2123 1.425 . S
C4584 C1015 1.426 . S
C4623 C2339 1.550 . S
C4611 C1061 1.540 . S
C4650 C2155 1.491 . S
C4638 C1101 1.470 . S
C4665 C1122 1.439 . S
C4677 C2208 1.447 . S
C4704 C2038 1.508 . S
C4692 C1175 1.510 . S
C4731 C2254 1.500 . S
C4719 C1221 1.505 . S
C4746 C1242 1.494 . S
C4758 C2070 1.520 . S
C4785 C2176 1.527 . S
C4773 C962 1.516 . S
C4812 C2017 1.432 . S
C4800 C1141 1.403 . S
C4839 C2261 1.543 . S
C4827 C1162 1.532 . S
C4854 C1202 1.475 . S
C4866 C2077 1.496 . S
C4881 C1255 1.506 . S
C4893 C2215 1.508 . S
C4908 C1055 1.517 . S
C4920 C2116 1.520 . S
C4935 C1082 1.474 . S
C4947 C2360 1.496 . S
C4974 C2300 1.442 . S
C4962 C1021 1.442 . S
