# Generated by pormake.
# Topology zzz, (3,6)-cn, num edge types: 1
# Building blocks:
#     Node 0, Type 0, BuildingBlock: VETTIZ_charged_linker_0, # of connection points: 3
#     Node 1, Type 0, BuildingBlock: VETTIZ_charged_linker_0, # of connection points: 3
#     Node 2, Type 0, BuildingBlock: VETTIZ_charged_linker_0, # of connection points: 3
#     Node 3, Type 0, BuildingBlock: VETTIZ_charged_linker_0, # of connection points: 3
#     Node 4, Type 0, BuildingBlock: VETTIZ_charged_linker_0, # of connection points: 3
#     Node 5, Type 0, BuildingBlock: VETTIZ_charged_linker_0, # of connection points: 3
#     Node 6, Type 0, BuildingBlock: VETTIZ_charged_linker_0, # of connection points: 3
#     Node 7, Type 0, BuildingBlock: VETTIZ_charged_linker_0, # of connection points: 3
#     Node 8, Type 1, BuildingBlock: HISSIN_clean_sbu_0, # of connection points: 6
#     Node 9, Type 1, BuildingBlock: HISSIN_clean_sbu_0, # of connection points: 6
#     Node 10, Type 1, BuildingBlock: HISSIN_clean_sbu_0, # of connection points: 6
#     Node 11, Type 1, BuildingBlock: HISSIN_clean_sbu_0, # of connection points: 6
#     Edge 12, Type (0, 1), BuildingBlock: TEMPAE_clean_linker_10, # of connection points: 2
#     Edge 13, Type (0, 1), BuildingBlock: TEMPAE_clean_linker_10, # of connection points: 2
#     Edge 14, Type (0, 1), BuildingBlock: TEMPAE_clean_linker_10, # of connection points: 2
#     Edge 15, Type (0, 1), BuildingBlock: TEMPAE_clean_linker_10, # of connection points: 2
#     Edge 16, Type (0, 1), BuildingBlock: TEMPAE_clean_linker_10, # of connection points: 2
#     Edge 17, Type (0, 1), BuildingBlock: TEMPAE_clean_linker_10, # of connection points: 2
#     Edge 18, Type (0, 1), BuildingBlock: TEMPAE_clean_linker_10, # of connection points: 2
#     Edge 19, Type (0, 1), BuildingBlock: TEMPAE_clean_linker_10, # of connection points: 2
#     Edge 20, Type (0, 1), BuildingBlock: TEMPAE_clean_linker_10, # of connection points: 2
#     Edge 21, Type (0, 1), BuildingBlock: TEMPAE_clean_linker_10, # of connection points: 2
#     Edge 22, Type (0, 1), BuildingBlock: TEMPAE_clean_linker_10, # of connection points: 2
#     Edge 23, Type (0, 1), BuildingBlock: TEMPAE_clean_linker_10, # of connection points: 2
#     Edge 24, Type (0, 1), BuildingBlock: TEMPAE_clean_linker_10, # of connection points: 2
#     Edge 25, Type (0, 1), BuildingBlock: TEMPAE_clean_linker_10, # of connection points: 2
#     Edge 26, Type (0, 1), BuildingBlock: TEMPAE_clean_linker_10, # of connection points: 2
#     Edge 27, Type (0, 1), BuildingBlock: TEMPAE_clean_linker_10, # of connection points: 2
#     Edge 28, Type (0, 1), BuildingBlock: TEMPAE_clean_linker_10, # of connection points: 2
#     Edge 29, Type (0, 1), BuildingBlock: TEMPAE_clean_linker_10, # of connection points: 2
#     Edge 30, Type (0, 1), BuildingBlock: TEMPAE_clean_linker_10, # of connection points: 2
#     Edge 31, Type (0, 1), BuildingBlock: TEMPAE_clean_linker_10, # of connection points: 2
#     Edge 32, Type (0, 1), BuildingBlock: TEMPAE_clean_linker_10, # of connection points: 2
#     Edge 33, Type (0, 1), BuildingBlock: TEMPAE_clean_linker_10, # of connection points: 2
#     Edge 34, Type (0, 1), BuildingBlock: TEMPAE_clean_linker_10, # of connection points: 2
#     Edge 35, Type (0, 1), BuildingBlock: TEMPAE_clean_linker_10, # of connection points: 2
# Relax obj value: 0.399
# Max RMSD: 0.225
# Mean RMSD: 0.194
data_MOF--net-zzz--node1-HISSIN_clean_sbu_0--node2-VETTIZ_charged_linker_0--edge1-TEMPAE_clean_linker_10
_symmetry_space_group_name_H-M    P1
_symmetry_Int_Tables_number       1
_symmetry_cell_setting            triclinic
loop_
_symmetry_equiv_pos_as_xyz
'x, y, z'
_cell_length_a     56.196363
_cell_length_b     56.342564
_cell_length_c     21.577088
_cell_angle_alpha  89.82243
_cell_angle_beta   91.502988
_cell_angle_gamma 91.658367
loop_
_atom_site_label
_atom_site_type_symbol
_atom_site_fract_x
_atom_site_fract_y
_atom_site_fract_z
_atom_type_partial_charge
C0 C 0.80832 0.55476 0.33884 0.0
C1 C 0.82787 0.5673 0.36823 0.0
C2 C 0.83287 0.59094 0.34973 0.0
C3 C 0.80315 0.58768 0.26776 0.0
C4 C 0.79563 0.56582 0.2894 0.0
C5 C 0.77257 0.55786 0.2555 0.0
H6 H 0.69278 0.5833 1.01674 0.0
C7 C 0.78844 0.59434 0.21433 0.0
C8 C 0.7692 0.578 0.20798 0.0
H9 H 0.687 0.52376 0.14204 0.0
H10 H 0.72387 0.53714 0.19606 0.0
H11 H 0.71149 0.62427 0.11403 0.0
H12 H 0.73694 0.57827 0.98144 0.0
H13 H 0.76419 0.59304 0.99979 0.0
H14 H 0.73951 0.60909 0.96647 0.0
H15 H 0.70922 0.6256 0.03082 0.0
H16 H 0.73374 0.63999 0.07283 0.0
C17 C 0.75244 0.55677 0.30265 0.0
C18 C 0.77642 0.53386 0.22385 0.0
C19 C 0.82862 0.63457 0.03661 0.0
C20 C 0.81993 0.639 0.97599 0.0
C21 C 0.79541 0.64277 0.96665 0.0
C22 C 0.77953 0.63797 1.01437 0.0
C23 C 0.7883 0.62865 0.07057 0.0
C24 C 0.81246 0.6292 0.08324 0.0
C25 C 0.81834 0.62017 0.14743 0.0
C26 C 0.7937 0.6109 0.16686 0.0
C27 C 0.77661 0.61484 0.11991 0.0
C28 C 0.82834 0.6414 0.18651 0.0
C29 C 0.83635 0.59997 0.144 0.0
C30 C 0.69899 0.57335 0.05679 0.0
C31 C 0.68656 0.55285 0.07595 0.0
C32 C 0.69608 0.53984 0.12661 0.0
C33 C 0.71737 0.54768 0.15807 0.0
C34 C 0.72948 0.56848 0.13797 0.0
C35 C 0.72021 0.58056 0.08725 0.0
C36 C 0.73592 0.6008 0.06684 0.0
C37 C 0.75562 0.60019 0.11612 0.0
C38 C 0.75203 0.58127 0.15843 0.0
C39 C 0.7219 0.62397 0.07088 0.0
C40 C 0.74464 0.59521 1.00048 0.0
H41 H 0.82314 0.61976 0.29135 0.0
H42 H 0.80305 0.53713 0.35426 0.0
H43 H 0.76136 0.52859 0.19252 0.0
H44 H 0.7788 0.5196 0.25896 0.0
H45 H 0.79261 0.5349 0.19531 0.0
H46 H 0.75258 0.57333 0.33059 0.0
H47 H 0.75471 0.54156 0.33498 0.0
H48 H 0.73465 0.5551 0.28009 0.0
H49 H 0.84745 0.6323 0.0457 0.0
H50 H 0.78835 0.64712 0.92095 0.0
H51 H 0.76093 0.64016 1.0047 0.0
H52 H 0.83628 0.65566 0.1571 0.0
H53 H 0.84312 0.63611 0.2182 0.0
H54 H 0.81415 0.64954 0.21362 0.0
H55 H 0.82937 0.58555 0.11282 0.0
H56 H 0.8401 0.59215 0.1902 0.0
H57 H 0.8537 0.60664 0.1265 0.0
H58 H 0.84698 0.60144 0.37245 0.0
C59 C 0.82015 0.60129 0.30092 0.0
C60 C 0.88895 0.80668 1.01182 0.0
C61 C 0.87889 0.82742 0.03563 0.0
C62 C 0.87547 0.82821 0.10036 0.0
C63 C 0.90264 0.79618 0.11475 0.0
C64 C 0.90077 0.79131 0.05251 0.0
C65 C 0.91506 0.77015 0.03596 0.0
H66 H 1.00936 0.70127 0.09622 0.0
C67 C 0.92266 0.78282 0.14114 0.0
C68 C 0.92965 0.76691 0.09605 0.0
H69 H 0.95216 0.69214 0.95916 0.0
H70 H 0.9331 0.72585 0.99883 0.0
H71 H 1.00857 0.76551 0.08852 0.0
H72 H 0.97527 0.71701 0.22002 0.0
H73 H 0.99432 0.73977 0.2533 0.0
H74 H 1.00688 0.71671 0.2084 0.0
H75 H 0.02627 0.74548 0.13415 0.0
H76 H 0.01513 0.77194 0.16775 0.0
C77 C 0.93101 0.7766 0.9805 0.0
C78 C 0.8972 0.74903 0.02294 0.0
C79 C 0.96546 0.82355 0.32065 0.0
C80 C 0.98842 0.82321 0.34745 0.0
C81 C 1.00405 0.80589 0.32576 0.0
C82 C 0.99662 0.78942 0.27861 0.0
C83 C 0.97353 0.79061 0.2515 0.0
C84 C 0.95864 0.80777 0.27307 0.0
C85 C 0.93516 0.80806 0.23911 0.0
C86 C 0.93832 0.78871 0.19167 0.0
C87 C 0.96061 0.77782 0.19887 0.0
C88 C 0.9319 0.83312 0.20938 0.0
C89 C 0.9156 0.8008 0.28536 0.0
C90 C 0.99274 0.70676 0.07498 0.0
C91 C 0.98211 0.69363 0.02453 0.0
C92 C 0.96055 0.70143 0.99827 0.0
C93 C 0.94935 0.72109 0.02143 0.0
C94 C 0.95966 0.73378 0.07135 0.0
C95 C 0.9809 0.72681 0.0983 0.0
C96 C 0.98805 0.7432 0.15257 0.0
C97 C 0.96649 0.75935 0.15607 0.0
C98 C 0.95061 0.75388 0.10618 0.0
C99 C 1.01081 0.75732 0.1352 0.0
C100 C 0.99139 0.7284 0.21204 0.0
H101 H 0.88606 0.81517 0.18918 0.0
H102 H 0.89025 0.80373 0.96271 0.0
H103 H 0.87847 0.75339 0.03267 0.0
H104 H 0.90114 0.73347 0.05284 0.0
H105 H 0.89731 0.74347 0.97359 0.0
H106 H 0.94074 0.79381 0.98898 0.0
H107 H 0.92018 0.77821 0.93698 0.0
H108 H 0.94459 0.76331 0.97225 0.0
H109 H 0.95301 0.83676 0.33445 0.0
H110 H 0.02191 0.80497 0.34549 0.0
H111 H 1.00901 0.77644 0.26465 0.0
H112 H 0.94608 0.84625 0.22395 0.0
H113 H 0.91493 0.84103 0.22266 0.0
H114 H 0.93267 0.83263 0.15804 0.0
H115 H 0.92181 0.7866 0.31735 0.0
H116 H 0.89939 0.79324 0.26191 0.0
H117 H 0.91072 0.81618 0.31405 0.0
H118 H 0.86539 0.84208 0.12093 0.0
C119 C 0.88767 0.81282 0.14022 0.0
C120 C 0.82884 0.99515 0.06871 0.0
C121 C 0.84552 0.98275 0.03273 0.0
C122 C 0.84399 0.95773 0.03234 0.0
C123 C 0.80819 0.95782 0.09144 0.0
C124 C 0.81052 0.98198 0.0996 0.0
C125 C 0.79238 0.98999 0.14678 0.0
H126 H 0.69498 0.95341 0.32042 0.0
C127 C 0.78729 0.9486 0.12357 0.0
C128 C 0.77817 0.96674 0.16013 0.0
H129 H 0.72751 0.02362 0.32604 0.0
H130 H 0.75667 0.01148 0.24969 0.0
H131 H 0.68968 0.94908 0.19679 0.0
H132 H 0.74167 0.9229 0.319 0.0
H133 H 0.73578 0.90025 0.26406 0.0
H134 H 0.71151 0.91225 0.30602 0.0
H135 H 0.68984 0.91807 0.21026 0.0
H136 H 0.70401 0.93125 0.14357 0.0
C137 C 0.77648 1.00887 0.11696 0.0
C138 C 0.80599 0.99924 0.20506 0.0
C139 C 0.73835 0.88371 0.02007 0.0
C140 C 0.71426 0.87764 0.03106 0.0
C141 C 0.70715 0.87712 0.0935 0.0
C142 C 0.72128 0.88835 0.13959 0.0
C143 C 0.74204 0.90076 0.1225 0.0
C144 C 0.75158 0.89647 0.06565 0.0
C145 C 0.77454 0.91044 0.05704 0.0
C146 C 0.77446 0.92685 0.11387 0.0
C147 C 0.75488 0.92143 0.15049 0.0
C148 C 0.77314 0.92453 0.99537 0.0
C149 C 0.79514 0.89268 0.05862 0.0
C150 C 0.70864 0.96624 0.307 0.0
C151 C 0.70909 0.98928 0.33122 0.0
C152 C 0.72671 1.00556 0.30899 0.0
C153 C 0.74373 0.99849 0.26507 0.0
C154 C 0.74301 0.97497 0.24231 0.0
C155 C 0.72522 0.95965 0.26332 0.0
C156 C 0.72488 0.93603 0.23234 0.0
C157 C 0.74651 0.9386 0.19214 0.0
C158 C 0.75747 0.9615 0.19682 0.0
C159 C 0.70101 0.93328 0.19387 0.0
C160 C 0.72848 0.9167 0.28277 0.0
H161 H 0.82646 0.92645 0.06471 0.0
H162 H 0.83032 0.01426 0.0734 0.0
H163 H 0.81876 0.98587 0.22232 0.0
H164 H 0.79391 1.00282 0.24321 0.0
H165 H 0.8162 0.01588 0.19454 0.0
H166 H 0.76806 1.00204 0.07309 0.0
H167 H 0.78714 0.02521 0.10612 0.0
H168 H 0.76205 0.01376 0.14788 0.0
H169 H 0.74547 0.8818 0.97437 0.0
H170 H 0.68953 0.87101 0.1062 0.0
H171 H 0.71448 0.88881 0.18544 0.0
H172 H 0.75734 0.93599 0.99409 0.0
H173 H 0.77188 0.91238 0.95494 0.0
H174 H 0.78913 0.93601 0.98866 0.0
H175 H 0.78872 0.87405 0.05072 0.0
H176 H 0.80486 0.89302 0.10416 0.0
H177 H 0.80792 0.89634 0.02115 0.0
H178 H 0.85684 0.94755 1.00787 0.0
C179 C 0.82593 0.94537 0.0628 0.0
C180 C 0.50398 0.71506 0.2885 0.0
C181 C 0.49135 0.69488 0.31235 0.0
C182 C 0.46952 0.68801 0.28328 0.0
C183 C 0.47196 0.72119 0.21215 0.0
C184 C 0.49378 0.72811 0.23822 0.0
C185 C 0.50374 0.75015 0.20528 0.0
H186 H 0.4814 0.83705 0.98532 0.0
C187 C 0.46531 0.73819 0.16291 0.0
C188 C 0.48361 0.75571 0.1583 0.0
H189 H 0.54737 0.83 0.08925 0.0
H190 H 0.53062 0.79504 0.14296 0.0
H191 H 0.47734 0.78713 0.94809 0.0
H192 H 0.44527 0.82444 0.09512 0.0
H193 H 0.42278 0.80563 0.06263 0.0
H194 H 0.43715 0.82777 1.01464 0.0
H195 H 0.45047 0.80296 0.93547 0.0
H196 H 0.45008 0.77196 0.95691 0.0
C197 C 0.52665 0.74338 0.17269 0.0
C198 C 0.50794 0.77028 0.25274 0.0
C199 C 0.3911 0.72042 0.03084 0.0
C200 C 0.38177 0.73141 0.97718 0.0
C201 C 0.38923 0.75488 0.96359 0.0
C202 C 0.40763 0.7661 0.99864 0.0
C203 C 0.41891 0.75357 0.0472 0.0
C204 C 0.40979 0.73165 0.06452 0.0
C205 C 0.42422 0.72071 0.11624 0.0
C206 C 0.44448 0.73901 0.12431 0.0
C207 C 0.44135 0.75801 0.0835 0.0
C208 C 0.43324 0.69653 0.09316 0.0
C209 C 0.40836 0.7191 0.17411 0.0
C210 C 0.49227 0.8283 0.02027 0.0
C211 C 0.51552 0.83657 0.03363 0.0
C212 C 0.52928 0.82402 0.07812 0.0
C213 C 0.51956 0.80377 0.10912 0.0
C214 C 0.49606 0.79571 0.09445 0.0
C215 C 0.48315 0.80811 0.05004 0.0
C216 C 0.45941 0.79683 0.03487 0.0
C217 C 0.45954 0.77572 0.07803 0.0
C218 C 0.48085 0.77478 0.11418 0.0
C219 C 0.45906 0.78941 0.96536 0.0
C220 C 0.44001 0.81452 0.05214 0.0
H221 H 0.44316 0.6944 0.21527 0.0
H222 H 0.52099 0.72069 0.30899 0.0
H223 H 0.49153 0.77301 0.27923 0.0
H224 H 0.51263 0.78734 0.23022 0.0
H225 H 0.52253 0.76593 0.28624 0.0
H226 H 0.52358 0.72677 0.14553 0.0
H227 H 0.54129 0.74035 0.20719 0.0
H228 H 0.53267 0.7571 0.13963 0.0
H229 H 0.38596 0.7023 0.04243 0.0
H230 H 0.38214 0.76382 0.92289 0.0
H231 H 0.41333 0.78349 0.98392 0.0
H232 H 0.43774 0.69757 0.04329 0.0
H233 H 0.41945 0.68217 0.09822 0.0
H234 H 0.44983 0.69105 0.11696 0.0
H235 H 0.39385 0.73213 0.17185 0.0
H236 H 0.41841 0.72354 0.21758 0.0
H237 H 0.39981 0.70118 0.17865 0.0
H238 H 0.45974 0.67226 0.29837 0.0
C239 C 0.45983 0.70095 0.2343 0.0
C240 C 0.34017 0.47006 0.21643 0.0
C241 C 0.35364 0.45905 0.26465 0.0
C242 C 0.34475 0.43754 0.28973 0.0
C243 C 0.30958 0.43879 0.22338 0.0
C244 C 0.31824 0.45928 0.1957 0.0
C245 C 0.3013 0.46715 0.1438 0.0
H246 H 0.19609 0.44273 0.98106 0.0
C247 C 0.28636 0.43203 0.19483 0.0
C248 C 0.28146 0.44787 0.14583 0.0
H249 H 0.24267 0.50375 0.95415 0.0
H250 H 0.27015 0.48919 0.03485 0.0
H251 H 0.23521 0.40172 1.00805 0.0
H252 H 0.1925 0.44859 0.10567 0.0
H253 H 0.20119 0.42987 0.16651 0.0
H254 H 0.18393 0.41801 0.10119 0.0
H255 H 0.2035 0.39984 1.01693 0.0
H256 H 0.22351 0.38563 0.07123 0.0
C257 C 0.31448 0.46692 0.0821 0.0
C258 C 0.29211 0.4918 0.16036 0.0
C259 C 0.22822 0.38283 0.31693 0.0
C260 C 0.20334 0.38108 0.30709 0.0
C261 C 0.1945 0.37988 0.24526 0.0
C262 C 0.20926 0.38604 0.19626 0.0
C263 C 0.2326 0.39429 0.2097 0.0
C264 C 0.24244 0.39067 0.26803 0.0
C265 C 0.26753 0.40076 0.27364 0.0
C266 C 0.2693 0.41438 0.21244 0.0
C267 C 0.24869 0.41056 0.17571 0.0
C268 C 0.28474 0.37969 0.27752 0.0
C269 C 0.2694 0.41755 0.3306 0.0
C270 C 0.2125 0.45271 0.99132 0.0
C271 C 0.21751 0.474 0.96036 0.0
C272 C 0.23856 0.48707 0.97711 0.0
C273 C 0.2544 0.47863 0.02397 0.0
C274 C 0.24871 0.45732 0.05558 0.0
C275 C 0.22777 0.4451 0.03901 0.0
C276 C 0.2222 0.42482 0.08138 0.0
C277 C 0.24398 0.42557 0.12421 0.0
C278 C 0.25984 0.44453 0.10945 0.0
C279 C 0.22085 0.4017 0.04261 0.0
C280 C 0.19881 0.43038 0.11538 0.0
H281 H 0.31768 0.41096 0.28983 0.0
H282 H 0.34661 0.4864 0.19534 0.0
H283 H 0.28627 0.49203 0.20921 0.0
H284 H 0.27655 0.49673 0.13147 0.0
H285 H 0.30634 0.50572 0.15523 0.0
H286 H 0.32339 0.44972 0.07626 0.0
H287 H 0.32834 0.48137 0.08097 0.0
H288 H 0.30234 0.46896 0.04159 0.0
H289 H 0.23581 0.38192 0.36345 0.0
H290 H 0.17567 0.37735 0.23472 0.0
H291 H 0.20132 0.38634 0.15065 0.0
H292 H 0.27548 0.36223 0.26897 0.0
H293 H 0.29359 0.37853 0.32404 0.0
H294 H 0.29862 0.38114 0.2419 0.0
H295 H 0.25441 0.43003 0.32972 0.0
H296 H 0.28588 0.42858 0.33265 0.0
H297 H 0.2688 0.40729 0.37458 0.0
H298 H 0.35423 0.42869 0.32712 0.0
C299 C 0.32323 0.42728 0.2687 0.0
C300 C 0.14095 0.2102 0.2873 0.0
C301 C 0.15351 0.1955 0.24726 0.0
C302 C 0.16086 0.20505 0.19006 0.0
C303 C 0.13258 0.23581 0.2008 0.0
C304 C 0.13053 0.23059 0.26275 0.0
C305 C 0.11246 0.24596 0.29249 0.0
H306 H 0.04047 0.33764 0.23693 0.0
C307 C 0.11206 0.24968 0.18111 0.0
C308 C 0.1011 0.25721 0.23499 0.0
H309 H 0.07027 0.31332 0.41282 0.0
H310 H 0.08369 0.27826 0.36373 0.0
H311 H 0.08223 0.31656 0.13592 0.0
H312 H 0.01981 0.2737 0.18561 0.0
H313 H 0.02269 0.28625 0.10855 0.0
H314 H 0.01584 0.3049 0.17176 0.0
H315 H 0.05324 0.32924 0.12673 0.0
H316 H 0.06152 0.30534 0.07719 0.0
C317 C 0.12589 0.26442 0.33492 0.0
C318 C 0.09409 0.23026 0.32734 0.0
C319 C 0.07177 0.21888 0.98612 0.0
C320 C 0.04759 0.21268 0.97679 0.0
C321 C 0.03086 0.22405 1.01386 0.0
C322 C 0.03835 0.24107 0.05923 0.0
C323 C 0.06277 0.24662 0.06821 0.0
C324 C 0.07899 0.2341 0.03485 0.0
C325 C 0.10328 0.23435 0.06607 0.0
C326 C 0.09865 0.24867 0.12436 0.0
C327 C 0.07571 0.25802 0.12172 0.0
C328 C 0.12082 0.24773 0.02368 0.0
C329 C 0.11064 0.20829 0.0801 0.0
C330 C 0.0498 0.32483 0.26516 0.0
C331 C 0.05577 0.32967 0.32872 0.0
C332 C 0.06709 0.31162 0.36334 0.0
C333 C 0.07492 0.2911 0.33514 0.0
C334 C 0.07084 0.28778 0.2717 0.0
C335 C 0.05702 0.3033 0.23796 0.0
C336 C 0.053 0.29423 0.17165 0.0
C337 C 0.06762 0.27155 0.17254 0.0
C338 C 0.07956 0.26962 0.23005 0.0
C339 C 0.06309 0.31244 0.12517 0.0
C340 C 0.0263 0.28933 0.15868 0.0
H341 H 0.1546 0.23165 0.12083 0.0
H342 H 0.13601 0.20406 0.33287 0.0
H343 H 0.08744 0.21527 0.29757 0.0
H344 H 0.07836 0.2403 0.34039 0.0
H345 H 0.10216 0.22277 0.37041 0.0
H346 H 0.12256 0.28292 0.31981 0.0
H347 H 0.14554 0.26256 0.33465 0.0
H348 H 0.12071 0.26247 0.38404 0.0
H349 H 0.08515 0.20965 0.96106 0.0
H350 H 0.01213 0.21912 1.00938 0.0
H351 H 0.02538 0.2478 0.08999 0.0
H352 H 0.11336 0.26482 1.00755 0.0
H353 H 0.12447 0.23689 0.98222 0.0
H354 H 0.13791 0.25217 0.04802 0.0
H355 H 0.1011 0.19476 0.05092 0.0
H356 H 0.10681 0.20302 0.12856 0.0
H357 H 0.12964 0.2056 0.07068 0.0
H358 H 0.17178 0.19487 0.15988 0.0
C359 C 0.15042 0.22562 0.16668 0.0
C360 C 0.31936 0.03997 0.0346 0.0
C361 C 0.33524 0.05313 0.99555 0.0
C362 C 0.3331 0.07799 0.99216 0.0
C363 C 0.30484 0.07685 0.07393 0.0
C364 C 0.30343 0.05252 0.07228 0.0
C365 C 0.28253 0.04376 0.11186 0.0
H366 H 0.20259 0.07771 0.33497 0.0
C367 C 0.28923 0.08563 0.12072 0.0
C368 C 0.27429 0.06702 0.14149 0.0
H369 H 0.2047 1.00788 0.25493 0.0
H370 H 0.23699 0.02157 0.18714 0.0
H371 H 0.24658 0.08651 0.36492 0.0
H372 H 0.20861 0.10856 0.20974 0.0
H373 H 0.22832 0.13226 0.23161 0.0
H374 H 0.20911 0.11892 0.28851 0.0
H375 H 0.24548 0.11741 0.35346 0.0
H376 H 0.27104 0.10102 0.33023 0.0
C377 C 0.29146 0.02611 0.16108 0.0
C378 C 0.26313 0.03268 0.06839 0.0
C379 C 0.32464 0.14577 0.26679 0.0
C380 C 0.31574 0.1524 0.32433 0.0
C381 C 0.29101 0.15527 0.32888 0.0
C382 C 0.27544 0.14562 0.28321 0.0
C383 C 0.28499 0.13265 0.23489 0.0
C384 C 0.30889 0.13518 0.22291 0.0
C385 C 0.31549 0.12103 0.16722 0.0
C386 C 0.29204 0.10699 0.15441 0.0
C387 C 0.27504 0.11262 0.19778 0.0
C388 C 0.33623 0.10449 0.1844 0.0
C389 C 0.32237 0.13868 0.11525 0.0
C390 C 0.20978 0.06523 0.30276 0.0
C391 C 0.20109 0.04171 0.30101 0.0
C392 C 0.21098 0.0262 0.25748 0.0
C393 C 0.22966 0.03413 0.21817 0.0
C394 C 0.23837 0.05787 0.22181 0.0
C395 C 0.22818 0.07276 0.26404 0.0
C396 C 0.23959 0.09702 0.26576 0.0
C397 C 0.25763 0.09511 0.21491 0.0
C398 C 0.25737 0.07201 0.18877 0.0
C399 C 0.2513 0.10085 0.33153 0.0
C400 C 0.22044 0.11529 0.24838 0.0
H401 H 0.315 0.10841 0.02332 0.0
H402 H 0.31926 0.02076 0.03513 0.0
H403 H 0.25858 0.04521 0.03024 0.0
H404 H 0.24653 0.02847 0.09277 0.0
H405 H 0.26941 0.01609 0.04734 0.0
H406 H 0.3062 0.03437 0.1897 0.0
H407 H 0.29819 0.00996 0.13877 0.0
H408 H 0.27711 0.02055 0.1926 0.0
H409 H 0.34364 0.14463 0.2611 0.0
H410 H 0.28372 0.16146 0.3717 0.0
H411 H 0.25665 0.14657 0.28986 0.0
H412 H 0.33152 0.09284 0.22422 0.0
H413 H 0.35275 0.11486 0.19683 0.0
H414 H 0.34075 0.09304 0.14509 0.0
H415 H 0.33081 0.15526 0.13454 0.0
H416 H 0.30649 0.14374 0.08697 0.0
H417 H 0.33595 0.13139 0.08484 0.0
H418 H 0.34383 0.08849 0.96065 0.0
C419 C 0.31755 0.08974 0.03001 0.0
C420 C 0.52734 0.30927 0.03273 0.0
C421 C 0.53975 0.32791 1.00161 0.0
C422 C 0.56443 0.33078 1.01195 0.0
C423 C 0.56375 0.30001 0.09023 0.0
C424 C 0.53993 0.29523 0.0768 0.0
C425 C 0.53079 0.27436 0.11557 0.0
H426 H 0.55623 0.19639 0.35477 0.0
C427 C 0.57144 0.28501 0.14273 0.0
C428 C 0.55253 0.26923 0.15764 0.0
H429 H 0.49141 0.1961 0.24371 0.0
H430 H 0.50653 0.23039 0.18467 0.0
H431 H 0.59421 0.20702 0.24899 0.0
H432 H 0.55675 0.24903 0.37709 0.0
H433 H 0.58243 0.2663 0.36254 0.0
H434 H 0.58511 0.23731 0.39771 0.0
H435 H 0.59883 0.20688 0.33171 0.0
H436 H 0.61482 0.22758 0.28337 0.0
C437 C 0.52454 0.2535 0.07148 0.0
C438 C 0.50945 0.28224 0.15308 0.0
C439 C 0.64495 0.31233 0.26544 0.0
C440 C 0.65159 0.30797 0.32764 0.0
C441 C 0.64348 0.28667 0.35549 0.0
C442 C 0.62652 0.27184 0.32486 0.0
C443 C 0.617 0.27878 0.26683 0.0
C444 C 0.62688 0.29826 0.2371 0.0
C445 C 0.61299 0.30473 0.17928 0.0
C446 C 0.59241 0.28657 0.18089 0.0
C447 C 0.59504 0.27133 0.2317 0.0
C448 C 0.62907 0.30101 0.12289 0.0
C449 C 0.60458 0.33058 0.18718 0.0
C450 C 0.54539 0.20349 0.31719 0.0
C451 C 0.52291 0.19337 0.30311 0.0
C452 C 0.50896 0.20354 0.25501 0.0
C453 C 0.51782 0.22328 0.22064 0.0
C454 C 0.54073 0.23301 0.235 0.0
C455 C 0.55378 0.22307 0.2834 0.0
C456 C 0.57685 0.23613 0.29667 0.0
C457 C 0.5768 0.25434 0.2451 0.0
C458 C 0.55552 0.25301 0.20873 0.0
C459 C 0.59737 0.21857 0.29031 0.0
C460 C 0.57543 0.24772 0.36182 0.0
H461 H 0.59513 0.32044 0.06161 0.0
H462 H 0.50842 0.30624 0.02433 0.0
H463 H 0.51402 0.29901 0.1783 0.0
H464 H 0.5042 0.26895 0.1882 0.0
H465 H 0.49377 0.28539 0.12201 0.0
H466 H 0.53919 0.25088 0.03873 0.0
H467 H 0.50806 0.25702 0.04375 0.0
H468 H 0.52204 0.23653 0.09632 0.0
H469 H 0.65144 0.32818 0.24207 0.0
H470 H 0.64845 0.28253 0.40304 0.0
H471 H 0.62033 0.25642 0.34951 0.0
H472 H 0.64404 0.2891 0.13424 0.0
H473 H 0.63701 0.3181 0.10646 0.0
H474 H 0.61923 0.29215 0.08374 0.0
H475 H 0.59838 0.33341 0.23509 0.0
H476 H 0.58938 0.33519 0.15685 0.0
H477 H 0.6193 0.34367 0.17875 0.0
H478 H 0.57441 0.3445 0.98759 0.0
C479 C 0.57645 0.31683 0.05519 0.0
Eu480 Eu 1.00673 0.03009 0.60853 0.0
Eu481 Eu 0.03496 1.00344 0.71885 0.0
C482 C 0.02874 0.05956 0.72557 0.0
C483 C 1.00372 0.06383 0.46093 0.0
C484 C 1.00921 0.08826 0.46098 0.0
C485 C 0.03085 0.05918 0.37552 0.0
C486 C 0.02608 0.09786 0.4211 0.0
C487 C 0.01426 0.04944 0.41662 0.0
C488 C 0.03753 0.08346 0.37835 0.0
C489 C 0.99024 0.05344 0.51315 0.0
O490 O 0.9991 0.01193 0.75764 0.0
O491 O 0.9763 0.01634 0.66895 0.0
C492 C 0.97816 0.0137 0.72976 0.0
O493 O 0.01363 0.99341 0.57193 0.0
O494 O 0.04857 1.00188 0.81464 0.0
O495 O 0.05144 0.97142 0.75531 0.0
O496 O 0.01419 0.97462 0.66506 0.0
C497 C 0.01258 0.97371 0.60427 0.0
O498 O 0.04608 0.03636 0.58936 0.0
O499 O 0.06232 1.00553 0.64337 0.0
O500 O 0.04435 0.0427 0.73317 0.0
O501 O 0.98868 0.03034 0.5172 0.0
O502 O 0.99508 0.06317 0.56688 0.0
O503 O 1.01018 0.05617 0.68807 0.0
C504 C 0.0343 0.96469 0.85185 0.0
C505 C 0.03387 0.93978 0.84793 0.0
C506 C 0.99557 0.96254 0.8997 0.0
C507 C 0.01398 0.92648 0.86727 0.0
C508 C 0.01541 0.9758 0.88078 0.0
C509 C 0.99422 0.93791 0.89065 0.0
C510 C 0.05048 0.97888 0.8123 0.0
C511 C 0.06366 0.02178 0.59962 0.0
H512 H 1.0015 0.09981 0.49465 0.0
H513 H 0.0388 0.04753 0.34263 0.0
H514 H 0.03091 0.11648 0.42641 0.0
H515 H 1.01044 0.0305 0.41521 0.0
H516 H 0.04805 0.93077 0.82541 0.0
H517 H 0.98087 0.97171 0.91918 0.0
H518 H 0.01343 0.90744 0.86018 0.0
H519 H 0.01503 0.99494 0.88475 0.0
Eu520 Eu 0.53993 0.03272 0.72774 0.0
Eu521 Eu 0.5079 1.00219 0.6284 0.0
C522 C 0.53408 0.97426 0.73847 0.0
C523 C 0.58686 0.0355 0.84288 0.0
C524 C 0.58446 0.02656 0.90338 0.0
C525 C 0.61529 1.00493 0.8226 0.0
C526 C 0.59654 1.00628 0.92223 0.0
C527 C 0.60347 0.02524 0.80403 0.0
C528 C 0.61106 0.99465 0.88065 0.0
C529 C 0.56773 0.04981 0.81491 0.0
O530 O 0.48641 1.00543 0.71546 0.0
O531 O 0.50149 0.04091 0.74988 0.0
C532 C 0.48428 0.02455 0.74916 0.0
O533 O 0.53412 0.05955 0.65155 0.0
O534 O 0.47766 0.97795 0.60702 0.0
O535 O 0.49488 0.99691 0.53285 0.0
O536 O 0.50086 0.04113 0.6096 0.0
C537 C 0.51574 0.05951 0.61285 0.0
O538 O 0.56746 0.01749 0.66443 0.0
O539 O 0.54404 1.00331 0.58306 0.0
O540 O 0.52569 0.97246 0.68105 0.0
O541 O 0.57011 0.05584 0.75685 0.0
O542 O 0.54629 0.04156 0.82538 0.0
O543 O 0.53787 0.99507 0.76494 0.0
C544 C 0.45394 1.00043 0.53956 0.0
C545 C 0.44969 0.01865 0.58159 0.0
C546 C 0.42343 0.0162 0.47057 0.0
C547 C 0.4337 0.03623 0.56706 0.0
C548 C 0.44044 0.99902 0.48422 0.0
C549 C 0.42043 0.03561 0.51094 0.0
C550 C 0.47528 0.98638 0.55089 0.0
C551 C 0.56515 0.00916 0.60748 0.0
H552 H 0.57166 0.03396 0.93407 0.0
H553 H 0.62691 0.99659 0.79037 0.0
H554 H 0.59322 0.99877 0.96757 0.0
H555 H 0.60591 0.0316 0.75715 0.0
H556 H 0.45989 0.02021 0.62458 0.0
H557 H 0.41315 0.01445 0.42768 0.0
H558 H 0.43285 0.05084 0.59918 0.0
H559 H 0.44353 0.98517 0.45091 0.0
Eu560 Eu 0.5 0.52131 0.70716 0.0
Eu561 Eu 0.54198 0.50409 0.61643 0.0
C562 C 0.55463 0.52125 0.75492 0.0
C563 C 0.44856 0.55188 0.78795 0.0
C564 C 0.44316 0.56771 0.73959 0.0
C565 C 0.4199 0.57056 0.8523 0.0
C566 C 0.42647 0.5853 0.74821 0.0
C567 C 0.43642 0.55299 0.84358 0.0
C568 C 0.41526 0.58725 0.80537 0.0
C569 C 0.46772 0.535 0.78324 0.0
O570 O 0.53777 0.47448 0.68737 0.0
O571 O 0.49991 0.48131 0.71803 0.0
C572 C 0.51841 0.4676 0.71625 0.0
O573 O 0.48037 0.51633 0.61545 0.0
O574 O 0.57685 0.51089 0.57636 0.0
O575 O 0.55689 0.47826 0.55497 0.0
O576 O 0.50783 0.49563 0.56113 0.0
C577 C 0.48638 0.50413 0.56675 0.0
O578 O 0.51271 0.55497 0.65671 0.0
O579 O 0.52935 0.53795 0.57224 0.0
O580 O 0.56051 0.52354 0.69668 0.0
O581 O 0.46429 0.51766 0.74386 0.0
O582 O 0.48935 0.54403 0.78244 0.0
O583 O 0.53258 0.51579 0.76895 0.0
C584 C 0.59854 0.4763 0.55989 0.0
C585 C 0.61495 0.47507 0.51248 0.0
C586 C 0.61991 0.44616 0.61746 0.0
C587 C 0.63322 0.45884 0.51633 0.0
C588 C 0.60163 0.46247 0.61357 0.0
C589 C 0.63529 0.44347 0.56767 0.0
C590 C 0.57705 0.49012 0.5499 0.0
C591 C 0.52069 0.55643 0.59979 0.0
H592 H 0.45244 0.56699 0.69628 0.0
H593 H 0.41144 0.57174 0.8967 0.0
H594 H 0.42334 0.59817 0.71168 0.0
H595 H 0.44035 0.5408 0.88117 0.0
H596 H 0.6128 0.48567 0.47082 0.0
H597 H 0.62114 0.43467 0.6577 0.0
H598 H 0.64448 0.45702 0.47672 0.0
H599 H 0.58915 0.46337 0.65089 0.0
Eu600 Eu 0.03359 0.53366 0.61471 0.0
Eu601 Eu 1.00783 0.49977 0.71608 0.0
C602 C 0.06477 0.50561 0.72045 0.0
C603 C 0.07796 0.54321 0.5005 0.0
C604 C 0.09719 0.53539 0.53755 0.0
C605 C 0.08777 0.51448 0.42192 0.0
C606 C 0.11045 0.51628 0.51881 0.0
C607 C 0.07439 0.53357 0.44083 0.0
C608 C 0.105 0.50485 0.46232 0.0
C609 C 0.05803 0.55499 0.5302 0.0
O610 O 0.01718 0.53471 0.76445 0.0
O611 O 0.01808 0.55994 0.68131 0.0
C612 C 0.01675 0.55634 0.74147 0.0
O613 O 0.99559 0.52982 0.5789 0.0
O614 O 1.00092 0.49019 0.81233 0.0
O615 O 0.98187 0.47164 0.73825 0.0
O616 O 0.97799 0.52025 0.67008 0.0
C617 C 0.97643 0.52698 0.61184 0.0
O618 O 0.04095 0.49622 0.58358 0.0
O619 O 0.01144 0.47558 0.63321 0.0
O620 O 0.04659 0.49098 0.73057 0.0
O621 O 0.03723 0.5449 0.51848 0.0
O622 O 0.06095 0.56008 0.58901 0.0
O623 O 0.06243 0.52461 0.68549 0.0
C624 C 0.95924 0.48673 0.81917 0.0
C625 C 0.9394 0.48822 0.77819 0.0
C626 C 0.94142 0.51555 0.88607 0.0
C627 C 0.92169 0.50443 0.78893 0.0
C628 C 0.95926 0.49943 0.87516 0.0
C629 C 0.92327 0.51911 0.84127 0.0
C630 C 0.98187 0.4776 0.79661 0.0
C631 C 0.02752 0.47693 0.5901 0.0
H632 H 0.1007 0.54253 0.58352 0.0
H633 H 0.08338 0.50614 0.37776 0.0
H634 H 0.12417 0.50966 0.55002 0.0
H635 H 0.05969 0.53918 0.41132 0.0
H636 H 0.93853 0.47846 0.73498 0.0
H637 H 0.9429 0.52656 0.92714 0.0
H638 H 0.90749 0.50647 0.75458 0.0
H639 H 0.97419 0.49857 0.90779 0.0
C640 C 0.16036 0.02396 0.32737 0.0
C641 C 0.18239 0.03421 0.34665 0.0
C642 C 0.14153 0.0206 0.3694 0.0
C643 C 0.14478 0.02729 0.43269 0.0
C644 C 0.16738 0.03659 0.45272 0.0
C645 C 0.18568 0.04006 0.40974 0.0
C646 C 0.11784 0.01061 0.34561 0.0
C647 C 0.1721 0.04368 0.5194 0.0
C648 C 0.09025 0.04419 0.52573 0.0
C649 C 0.08508 0.02341 0.55941 0.0
C650 C 0.10967 0.04579 0.48558 0.0
C651 C 0.12425 0.02592 0.47697 0.0
C652 C 0.11929 1.00495 0.51157 0.0
C653 C 0.09995 1.00398 0.55238 0.0
C654 C 0.11484 0.06922 0.45428 0.0
C655 C 0.13459 0.98353 0.50593 0.0
H656 H 0.15746 0.01958 0.27883 0.0
H657 H 0.20263 0.04791 0.42539 0.0
H658 H 0.11409 0.99315 0.36771 0.0
H659 H 0.10333 0.02251 0.35824 0.0
H660 H 0.11737 1.00823 0.2945 0.0
H661 H 0.19132 0.04747 0.52954 0.0
H662 H 0.16215 0.05986 0.52964 0.0
H663 H 0.16577 0.02946 0.55116 0.0
H664 H 0.0792 0.05947 0.5312 0.0
H665 H 0.0962 0.98778 0.57797 0.0
H666 H 0.12232 0.06671 0.40803 0.0
H667 H 0.12819 0.0795 0.48282 0.0
H668 H 0.09865 0.08 0.44959 0.0
H669 H 0.13381 0.97699 0.45748 0.0
H670 H 0.12891 0.96881 0.53707 0.0
H671 H 0.15345 0.98851 0.51722 0.0
C672 C 0.52717 0.15099 0.3346 0.0
C673 C 0.51498 0.17223 0.33975 0.0
C674 C 0.5241 0.13238 0.37764 0.0
C675 C 0.50876 0.13514 0.42814 0.0
C676 C 0.4955 0.15615 0.43182 0.0
C677 C 0.49876 0.17444 0.38756 0.0
C678 C 0.53833 0.11027 0.37091 0.0
C679 C 0.47897 0.15997 0.48463 0.0
C680 C 0.49431 0.07907 0.52271 0.0
C681 C 0.5121 0.08012 0.56988 0.0
C682 C 0.49235 0.09719 0.47767 0.0
C683 C 0.5085 0.11701 0.47958 0.0
C684 C 0.52577 0.11866 0.52869 0.0
C685 C 0.52742 0.10024 0.57286 0.0
C686 C 0.47361 0.09457 0.42655 0.0
C687 C 0.54313 0.13957 0.53346 0.0
H688 H 0.53996 0.14936 0.2982 0.0
H689 H 0.48966 0.19101 0.39241 0.0
H690 H 0.5519 0.10942 0.40908 0.0
H691 H 0.52656 0.09419 0.37444 0.0
H692 H 0.54757 0.10981 0.32605 0.0
H693 H 0.46788 0.17577 0.47705 0.0
H694 H 0.46706 0.14416 0.49105 0.0
H695 H 0.48961 0.1625 0.52828 0.0
H696 H 0.48231 0.06369 0.51965 0.0
H697 H 0.54115 0.10141 0.60904 0.0
H698 H 0.48235 0.09115 0.38205 0.0
H699 H 0.46368 0.11119 0.42079 0.0
H700 H 0.46069 0.07972 0.43553 0.0
H701 H 0.55513 0.13957 0.49344 0.0
H702 H 0.5542 0.13921 0.57685 0.0
H703 H 0.53343 0.15644 0.53169 0.0
C704 C 0.3949 0.45399 0.30915 0.0
C705 C 0.37651 0.4693 0.29199 0.0
C706 C 0.41383 0.46138 0.349 0.0
C707 C 0.4152 0.48509 0.37058 0.0
C708 C 0.39805 0.50133 0.34845 0.0
C709 C 0.37874 0.4932 0.31 0.0
C710 C 0.43134 0.44322 0.37167 0.0
C711 C 0.39935 0.52702 0.36802 0.0
C712 C 0.44454 0.49434 0.53073 0.0
C713 C 0.46821 0.50003 0.51628 0.0
C714 C 0.42712 0.48982 0.48381 0.0
C715 C 0.43321 0.49195 0.42057 0.0
C716 C 0.45692 0.49872 0.40583 0.0
C717 C 0.47423 0.50218 0.45378 0.0
C718 C 0.40235 0.48198 0.50205 0.0
C719 C 0.46403 0.50219 0.33939 0.0
H720 H 0.39375 0.43563 0.29419 0.0
H721 H 0.36476 0.50525 0.29702 0.0
H722 H 0.44986 0.44959 0.36379 0.0
H723 H 0.42956 0.44059 0.42237 0.0
H724 H 0.42846 0.42578 0.3484 0.0
H725 H 0.38767 0.53816 0.33832 0.0
H726 H 0.39362 0.52848 0.41662 0.0
H727 H 0.41791 0.53421 0.36616 0.0
H728 H 0.43981 0.49269 0.57898 0.0
H729 H 0.49242 0.50701 0.44242 0.0
H730 H 0.39796 0.46412 0.48257 0.0
H731 H 0.38909 0.49434 0.48252 0.0
H732 H 0.40046 0.48119 0.55314 0.0
H733 H 0.46364 0.48484 0.31524 0.0
H734 H 0.48219 0.51033 0.33593 0.0
H735 H 0.45118 0.51367 0.31453 0.0
C736 C 0.06602 0.36091 0.41032 0.0
C737 C 0.05107 0.35303 0.36046 0.0
C738 C 0.06122 0.38123 0.44507 0.0
C739 C 0.04158 0.39524 0.42842 0.0
C740 C 0.02702 0.3883 0.37635 0.0
C741 C 0.03173 0.36723 0.34353 0.0
C742 C 0.07686 0.38725 0.50116 0.0
C743 C 1.00624 0.40301 0.35581 0.0
C744 C 0.01865 0.43436 0.55793 0.0
C745 C 0.03056 0.45624 0.5475 0.0
C746 C 0.02149 0.41469 0.51864 0.0
C747 C 0.03637 0.41681 0.46666 0.0
C748 C 0.048 0.43902 0.45499 0.0
C749 C 0.04515 0.4583 0.49562 0.0
C750 C 1.00905 0.39139 0.53392 0.0
C751 C 0.06405 0.4423 0.40044 0.0
H752 H 0.08171 0.35112 0.42302 0.0
H753 H 0.01993 0.36172 0.30545 0.0
H754 H 0.08279 0.40617 0.49992 0.0
H755 H 0.06649 0.3846 0.5438 0.0
H756 H 0.09281 0.37608 0.50462 0.0
H757 H 0.99749 0.39621 0.31238 0.0
H758 H 0.99284 0.40308 0.39266 0.0
H759 H 0.01229 0.42171 0.34833 0.0
H760 H 1.00732 0.43242 0.59762 0.0
H761 H 0.05442 0.47504 0.48656 0.0
H762 H 0.02248 0.37783 0.54487 0.0
H763 H 0.99829 0.38487 0.4933 0.0
H764 H 0.9972 0.39285 0.57405 0.0
H765 H 0.06846 0.46132 0.39145 0.0
H766 H 0.05561 0.43443 0.35792 0.0
H767 H 0.0809 0.43302 0.40976 0.0
C768 C 0.88826 0.98568 1.00107 0.0
C769 C 0.86509 0.99438 0.99576 0.0
C770 C 0.90579 0.9913 0.95743 0.0
C771 C 0.90053 1.00658 0.90657 0.0
C772 C 0.87775 0.01709 0.90397 0.0
C773 C 0.86026 0.01063 0.94785 0.0
C774 C 0.92978 0.98025 0.96657 0.0
C775 C 0.87144 0.0347 0.8539 0.0
C776 C 0.95848 0.0259 0.82747 0.0
C777 C 0.9568 0.01404 0.77025 0.0
C778 C 0.93966 0.0252 0.8696 0.0
C779 C 0.91875 0.0111 0.85655 0.0
C780 C 0.91664 0.99969 0.79752 0.0
C781 C 0.93546 1.00165 0.75499 0.0
C782 C 0.94278 0.03934 0.92868 0.0
C783 C 0.89485 0.98504 0.77794 0.0
H784 H 0.89243 0.97343 0.03842 0.0
H785 H 0.84249 0.01748 0.94287 0.0
H786 H 0.93975 0.97945 0.9232 0.0
H787 H 0.94051 0.99084 1.001 0.0
H788 H 0.92788 0.96199 0.98564 0.0
H789 H 0.85689 0.04626 0.86829 0.0
H790 H 0.88711 0.04606 0.84176 0.0
H791 H 0.86517 0.02496 0.81169 0.0
H792 H 0.9747 0.03592 0.83959 0.0
H793 H 0.93382 0.99254 0.71084 0.0
H794 H 0.95354 0.02914 0.96274 0.0
H795 H 0.92553 0.04345 0.94948 0.0
H796 H 0.95271 0.05631 0.91997 0.0
H797 H 0.88312 0.98021 0.81676 0.0
H798 H 0.90017 0.96849 0.75483 0.0
H799 H 0.88439 0.99523 0.74318 0.0
C800 C 0.51039 0.8782 0.99585 0.0
C801 C 0.52444 0.85799 0.99901 0.0
C802 C 0.51505 0.8967 0.95356 0.0
C803 C 0.53434 0.8952 0.91286 0.0
C804 C 0.54947 0.87548 0.9182 0.0
C805 C 0.54433 0.85709 0.96113 0.0
C806 C 0.4986 0.91743 0.95069 0.0
C807 C 0.57032 0.87312 0.87633 0.0
C808 C 0.52542 0.931 0.76328 0.0
C809 C 0.53731 0.95259 0.77793 0.0
C810 C 0.52539 0.91173 0.80535 0.0
C811 C 0.53769 0.91391 0.86351 0.0
C812 C 0.55095 0.93514 0.87681 0.0
C813 C 0.55056 0.95415 0.83413 0.0
C814 C 0.5111 0.88946 0.7889 0.0
C815 C 0.56488 0.93809 0.93721 0.0
H816 H 0.49502 0.87905 0.02501 0.0
H817 H 0.5551 0.84144 0.9626 0.0
H818 H 0.50902 0.93437 0.95603 0.0
H819 H 0.48929 0.91788 0.90473 0.0
H820 H 0.48502 0.91647 0.98718 0.0
H821 H 0.58297 0.85974 0.89404 0.0
H822 H 0.56372 0.8675 0.82958 0.0
H823 H 0.58001 0.8904 0.87105 0.0
H824 H 0.51514 0.92951 0.72019 0.0
H825 H 0.56018 0.97056 0.84573 0.0
H826 H 0.49572 0.88758 0.81995 0.0
H827 H 0.52212 0.87361 0.796 0.0
H828 H 0.50427 0.88964 0.74012 0.0
H829 H 0.55308 0.93485 0.97698 0.0
H830 H 0.57325 0.95609 0.94215 0.0
H831 H 0.57907 0.9248 0.94012 0.0
C832 C 0.6477 0.56242 0.02305 0.0
C833 C 0.66441 0.54535 0.04017 0.0
C834 C 0.62906 0.5573 0.97996 0.0
C835 C 0.62679 0.53442 0.95306 0.0
C836 C 0.64279 0.51666 0.97271 0.0
C837 C 0.6614 0.52232 1.01601 0.0
C838 C 0.61246 0.5768 0.96106 0.0
C839 C 0.64093 0.49198 0.94582 0.0
C840 C 0.56773 0.51934 0.86759 0.0
C841 C 0.57322 0.52419 0.80552 0.0
C842 C 0.58506 0.52193 0.91576 0.0
C843 C 0.60855 0.52972 0.90199 0.0
C844 C 0.61427 0.53437 0.83937 0.0
C845 C 0.59663 0.53149 0.79208 0.0
C846 C 0.57814 0.51662 0.98159 0.0
C847 C 0.63899 0.54281 0.82235 0.0
H848 H 0.64973 0.5802 0.04192 0.0
H849 H 0.67429 0.50907 0.02849 0.0
H850 H 0.61486 0.58128 0.91145 0.0
H851 H 0.59366 0.57073 0.96617 0.0
H852 H 0.61566 0.59318 0.98895 0.0
H853 H 0.65306 0.47958 0.97015 0.0
H854 H 0.6224 0.48477 0.94839 0.0
H855 H 0.6455 0.49265 0.89612 0.0
H856 H 0.5498 0.51349 0.87876 0.0
H857 H 0.6012 0.5352 0.74446 0.0
H858 H 0.57984 0.53305 1.00975 0.0
H859 H 0.59037 0.50359 1.00281 0.0
H860 H 0.55958 0.50944 0.98438 0.0
H861 H 0.64329 0.56018 0.84471 0.0
H862 H 0.64087 0.54485 0.77147 0.0
H863 H 0.65232 0.5301 0.83983 0.0
C864 C 0.01425 0.6719 0.96901 0.0
C865 C 0.99203 0.67161 0.99728 0.0
C866 C 0.02076 0.65309 0.92997 0.0
C867 C 1.00462 0.63359 0.91833 0.0
C868 C 0.98279 0.63267 0.94978 0.0
C869 C 0.97687 0.6515 0.98871 0.0
C870 C 0.04449 0.65459 0.89894 0.0
C871 C 0.96488 0.61247 0.93947 0.0
C872 C 1.0056 0.5985 0.76594 0.0
C873 C 0.01506 0.57682 0.78531 0.0
C874 C 1.00261 0.61724 0.80829 0.0
C875 C 1.00979 0.61463 0.87154 0.0
C876 C 0.02017 0.59308 0.89072 0.0
C877 C 0.02238 0.57445 0.84782 0.0
C878 C 0.99095 0.63957 0.78571 0.0
C879 C 0.02846 0.58947 0.95708 0.0
H880 H 0.02596 0.68742 0.97457 0.0
H881 H 0.95962 0.65111 1.01014 0.0
H882 H 0.05385 0.63762 0.90457 0.0
H883 H 0.04165 0.65762 0.84849 0.0
H884 H 0.05612 0.66925 0.91796 0.0
H885 H 0.95033 0.61274 0.97327 0.0
H886 H 0.95695 0.61377 0.89197 0.0
H887 H 0.97357 0.59509 0.94318 0.0
H888 H 0.99977 0.60055 0.71799 0.0
H889 H 0.02991 0.5579 0.86343 0.0
H890 H 1.00248 0.65533 0.79728 0.0
H891 H 0.97388 0.64165 0.80959 0.0
H892 H 0.98728 0.63935 0.73487 0.0
H893 H 0.04027 0.60456 0.97247 0.0
H894 H 0.0382 0.57272 0.96348 0.0
H895 H 0.01291 0.58894 0.98771 0.0
C896 C 0.13947 0.15665 0.20399 0.0
C897 C 0.15001 0.16937 0.25411 0.0
C898 C 0.12475 0.1366 0.21409 0.0
C899 C 0.12081 0.12906 0.27556 0.0
C900 C 0.135 0.13904 0.32471 0.0
C901 C 0.14962 0.15911 0.3133 0.0
C902 C 0.11079 0.1261 0.1596 0.0
C903 C 0.13226 0.13064 0.39064 0.0
C904 C 0.05735 0.11786 0.32392 0.0
C905 C 0.05734 0.09375 0.34066 0.0
C906 C 0.07765 0.12929 0.30049 0.0
C907 C 0.09826 0.11608 0.2905 0.0
C908 C 0.09752 0.09125 0.29967 0.0
C909 C 0.07722 0.08037 0.32583 0.0
C910 C 0.07735 0.1558 0.2893 0.0
C911 C 0.11835 0.07643 0.28293 0.0
H912 H 0.13989 0.16403 0.15757 0.0
H913 H 0.15838 0.1684 0.35187 0.0
H914 H 0.1043 0.10768 0.16866 0.0
H915 H 0.09513 0.13716 0.14931 0.0
H916 H 0.12182 0.12621 0.11762 0.0
H917 H 0.14608 0.13869 0.42251 0.0
H918 H 0.11446 0.13534 0.40716 0.0
H919 H 0.13346 0.11108 0.39288 0.0
H920 H 0.0417 0.12816 0.33129 0.0
H921 H 0.07753 0.06166 0.33726 0.0
H922 H 0.08186 0.15988 0.24061 0.0
H923 H 0.09096 0.16492 0.31969 0.0
H924 H 0.05975 0.16336 0.29852 0.0
H925 H 0.1224 0.07899 0.23329 0.0
H926 H 0.11479 0.05725 0.29117 0.0
H927 H 0.13455 0.08221 0.30994 0.0
C928 C 0.32043 0.12509 0.41247 0.0
C929 C 0.32961 0.14472 0.37967 0.0
C930 C 0.33558 0.10959 0.44376 0.0
C931 C 0.36037 0.1146 0.44517 0.0
C932 C 0.36929 0.13641 0.421 0.0
C933 C 0.35383 0.15104 0.387 0.0
C934 C 0.32527 0.08649 0.46856 0.0
C935 C 0.3954 0.14329 0.42653 0.0
C936 C 0.39515 0.07007 0.54029 0.0
C937 C 0.40469 0.0558 0.49403 0.0
C938 C 0.38221 0.09028 0.5253 0.0
C939 C 0.37688 0.09542 0.46246 0.0
C940 C 0.38566 0.08079 0.41539 0.0
C941 C 0.40005 0.0617 0.43166 0.0
C942 C 0.37407 0.10566 0.57744 0.0
C943 C 0.37941 0.08492 0.34767 0.0
H944 H 0.30174 0.12003 0.40695 0.0
H945 H 0.36097 0.16626 0.36203 0.0
H946 H 0.33255 0.07136 0.443 0.0
H947 H 0.3304 0.08436 0.51813 0.0
H948 H 0.30552 0.08543 0.46405 0.0
H949 H 0.3985 0.16262 0.41868 0.0
H950 H 0.40275 0.13851 0.47305 0.0
H951 H 0.40538 0.13354 0.39153 0.0
H952 H 0.39762 0.06563 0.58881 0.0
H953 H 0.40764 0.05152 0.39503 0.0
H954 H 0.35766 0.09761 0.59708 0.0
H955 H 0.37034 0.12402 0.56208 0.0
H956 H 0.38777 0.10654 0.61551 0.0
H957 H 0.35979 0.08561 0.34074 0.0
H958 H 0.38609 0.0708 0.31737 0.0
H959 H 0.38713 0.10221 0.33234 0.0
C960 C 0.67618 0.32411 0.41885 0.0
C961 C 0.66111 0.32791 0.367 0.0
C962 C 0.68049 0.34207 0.46337 0.0
C963 C 0.66907 0.36403 0.4562 0.0
C964 C 0.65545 0.36852 0.40147 0.0
C965 C 0.65171 0.35049 0.35782 0.0
C966 C 0.69601 0.33678 0.51949 0.0
C967 C 0.64289 0.39168 0.39118 0.0
C968 C 0.63899 0.39966 0.57364 0.0
C969 C 0.64976 0.42196 0.56232 0.0
C970 C 0.64772 0.37914 0.54691 0.0
C971 C 0.66765 0.38112 0.50823 0.0
C972 C 0.68109 0.40271 0.50659 0.0
C973 C 0.67181 0.42309 0.53314 0.0
C974 C 0.63333 0.35621 0.55199 0.0
C975 C 0.70345 0.40502 0.46973 0.0
H976 H 0.68382 0.30684 0.42601 0.0
H977 H 0.63969 0.35368 0.3188 0.0
H978 H 0.70356 0.35319 0.54158 0.0
H979 H 0.68527 0.32692 0.55406 0.0
H980 H 0.71084 0.32529 0.50673 0.0
H981 H 0.63369 0.39254 0.34505 0.0
H982 H 0.62943 0.39393 0.42728 0.0
H983 H 0.65581 0.40689 0.39481 0.0
H984 H 0.62213 0.39849 0.59689 0.0
H985 H 0.68069 0.44019 0.52615 0.0
H986 H 0.64519 0.34101 0.55902 0.0
H987 H 0.62287 0.35313 0.50824 0.0
H988 H 0.62075 0.3566 0.59084 0.0
H989 H 0.71352 0.38836 0.47177 0.0
H990 H 0.71513 0.41996 0.48698 0.0
H991 H 0.69864 0.4086 0.42045 0.0
C992 C 0.1627 0.38383 0.35288 0.0
C993 C 0.18727 0.38923 0.35634 0.0
C994 C 0.14639 0.39888 0.37989 0.0
C995 C 0.15496 0.41938 0.41201 0.0
C996 C 0.17966 0.4227 0.42409 0.0
C997 C 0.1955 0.40757 0.39633 0.0
C998 C 0.12013 0.39417 0.3681 0.0
C999 C 0.18961 0.44408 0.45928 0.0
C1000 C 0.12504 0.47812 0.38898 0.0
C1001 C 0.11612 0.48208 0.44782 0.0
C1002 C 0.13661 0.45708 0.37586 0.0
C1003 C 0.13912 0.43953 0.42269 0.0
C1004 C 0.12898 0.4429 0.48118 0.0
C1005 C 0.11768 0.46421 0.49315 0.0
C1006 C 0.14723 0.4542 0.31281 0.0
C1007 C 0.13098 0.42461 0.53216 0.0
H1008 H 0.15605 0.36914 0.32444 0.0
H1009 H 0.21431 0.4121 0.40059 0.0
H1010 H 0.10972 0.40008 0.40774 0.0
H1011 H 0.11422 0.40428 0.32654 0.0
H1012 H 0.11612 0.37502 0.35945 0.0
H1013 H 0.20877 0.44233 0.47198 0.0
H1014 H 0.18768 0.46019 0.43005 0.0
H1015 H 0.17966 0.44682 0.50223 0.0
H1016 H 0.12373 0.49185 0.35384 0.0
H1017 H 0.11018 0.46697 0.53828 0.0
H1018 H 0.14087 0.43719 0.2916 0.0
H1019 H 0.16692 0.45365 0.31772 0.0
H1020 H 0.14263 0.46891 0.28065 0.0
H1021 H 0.1302 0.4063 0.51328 0.0
H1022 H 0.11666 0.42636 0.56624 0.0
H1023 H 0.14832 0.42722 0.55732 0.0
C1024 C 0.88391 0.84922 0.93407 0.0
C1025 C 0.87962 0.84996 0.99808 0.0
C1026 C 0.89787 0.86711 0.90609 0.0
C1027 C 0.90625 0.88663 0.94209 0.0
C1028 C 0.89656 0.8904 1.00072 0.0
C1029 C 0.88341 0.87195 0.02847 0.0
C1030 C 0.90607 0.86368 0.84085 0.0
C1031 C 0.90263 0.91265 0.03719 0.0
C1032 C 0.97191 0.90339 0.9364 0.0
C1033 C 0.97171 0.92449 0.90218 0.0
C1034 C 0.95066 0.89077 0.94839 0.0
C1035 C 0.92863 0.89955 0.92575 0.0
C1036 C 0.92838 0.92065 0.89022 0.0
C1037 C 0.94998 0.93274 0.8783 0.0
C1038 C 0.95178 0.86818 0.98625 0.0
C1039 C 0.90563 0.93073 0.86423 0.0
H1040 H 0.87883 0.8336 0.90728 0.0
H1041 H 0.87883 0.87414 0.07637 0.0
H1042 H 0.90549 0.88065 0.8147 0.0
H1043 H 0.92481 0.85794 0.8424 0.0
H1044 H 0.895 0.85001 0.81559 0.0
H1045 H 0.89091 0.91459 0.07743 0.0
H1046 H 0.92139 0.91219 0.05453 0.0
H1047 H 0.90089 0.92847 1.00684 0.0
H1048 H 0.9887 0.89696 0.95467 0.0
H1049 H 0.94983 0.94871 0.8501 0.0
H1050 H 0.94279 0.85328 0.9605 0.0
H1051 H 0.94227 0.87042 0.03019 0.0
H1052 H 0.97037 0.86322 0.99779 0.0
H1053 H 0.90581 0.95018 0.87159 0.0
H1054 H 0.88935 0.92292 0.88503 0.0
H1055 H 0.90461 0.92764 0.81344 0.0
C1056 C 0.70072 0.89706 0.93212 0.0
C1057 C 0.69572 0.88101 0.98064 0.0
C1058 C 0.68273 0.91045 0.90452 0.0
C1059 C 0.65921 0.90752 0.9253 0.0
C1060 C 0.6533 0.88806 0.96399 0.0
C1061 C 0.67168 0.87462 0.99038 0.0
C1062 C 0.68966 0.93024 0.86054 0.0
C1063 C 0.62813 0.8833 0.98421 0.0
C1064 C 0.63348 0.96771 0.9515 0.0
C1065 C 0.62082 0.97119 0.8958 0.0
C1066 C 0.64479 0.94626 0.96338 0.0
C1067 C 0.64304 0.9278 0.91867 0.0
C1068 C 0.62862 0.93059 0.86462 0.0
C1069 C 0.61791 0.95241 0.85344 0.0
C1070 C 0.6598 0.94392 0.02215 0.0
C1071 C 0.62545 0.91115 0.81693 0.0
H1072 H 0.71887 0.90176 0.92079 0.0
H1073 H 0.66718 0.86095 0.02379 0.0
H1074 H 0.67651 0.93144 0.82156 0.0
H1075 H 0.68999 0.94741 0.88571 0.0
H1076 H 0.70755 0.92774 0.84126 0.0
H1077 H 0.62483 0.86405 0.99285 0.0
H1078 H 0.62538 0.89285 0.02824 0.0
H1079 H 0.61489 0.88955 0.9493 0.0
H1080 H 0.6355 0.98217 0.98443 0.0
H1081 H 0.60748 0.9549 0.81103 0.0
H1082 H 0.67883 0.94261 1.01039 0.0
H1083 H 0.65459 0.92747 0.04734 0.0
H1084 H 0.65806 0.95927 0.05375 0.0
H1085 H 0.63997 0.91275 0.7832 0.0
H1086 H 0.60825 0.91265 0.79079 0.0
H1087 H 0.62612 0.89327 0.83851 0.0
C1088 C 0.35456 0.69748 0.9452 0.0
C1089 C 0.37025 0.71611 0.9286 0.0
C1090 C 0.35323 0.67647 0.91037 0.0
C1091 C 0.36828 0.67421 0.85934 0.0
C1092 C 0.37992 0.69468 0.83526 0.0
C1093 C 0.3807 0.71559 0.87027 0.0
C1094 C 0.33888 0.65551 0.93413 0.0
C1095 C 0.39514 0.69338 0.77889 0.0
C1096 C 0.40893 0.62217 0.87121 0.0
C1097 C 0.40168 0.6085 0.81981 0.0
C1098 C 0.39777 0.64326 0.88487 0.0
C1099 C 0.37841 0.65071 0.84669 0.0
C1100 C 0.3704 0.63651 0.79577 0.0
C1101 C 0.38248 0.61569 0.78219 0.0
C1102 C 0.40732 0.65787 0.93936 0.0
C1103 C 0.34958 0.64328 0.75457 0.0
H1104 H 0.34571 0.69814 0.98918 0.0
H1105 H 0.39241 0.73013 0.85613 0.0
H1106 H 0.33212 0.64412 0.89523 0.0
H1107 H 0.35039 0.64462 0.96485 0.0
H1108 H 0.32362 0.66135 0.9614 0.0
H1109 H 0.39946 0.71131 0.75993 0.0
H1110 H 0.41209 0.68474 0.79174 0.0
H1111 H 0.38601 0.68257 0.74209 0.0
H1112 H 0.42399 0.6167 0.89976 0.0
H1113 H 0.37688 0.60502 0.74241 0.0
H1114 H 0.39332 0.65962 0.97419 0.0
H1115 H 0.41263 0.676 0.9238 0.0
H1116 H 0.42302 0.64984 0.96267 0.0
H1117 H 0.33929 0.62719 0.73875 0.0
H1118 H 0.35634 0.65241 0.71264 0.0
H1119 H 0.33737 0.65527 0.77807 0.0
C1120 C 0.82542 0.61449 0.88277 0.0
C1121 C 0.83473 0.63201 0.92352 0.0
C1122 C 0.84051 0.59904 0.85315 0.0
C1123 C 0.86537 0.60151 0.86404 0.0
C1124 C 0.87487 0.62176 0.89574 0.0
C1125 C 0.85935 0.63685 0.9254 0.0
C1126 C 0.82959 0.57797 0.81865 0.0
C1127 C 0.90134 0.62557 0.90599 0.0
C1128 C 0.89635 0.54424 0.90142 0.0
C1129 C 0.90765 0.53964 0.84599 0.0
C1130 C 0.88253 0.56434 0.90744 0.0
C1131 C 0.88032 0.58045 0.85701 0.0
C1132 C 0.89188 0.57598 0.80096 0.0
C1133 C 0.90521 0.55543 0.79589 0.0
C1134 C 0.87024 0.56829 0.96793 0.0
C1135 C 0.8902 0.59276 0.74644 0.0
H1136 H 0.8064 0.61068 0.88042 0.0
H1137 H 0.86661 0.65075 0.95563 0.0
H1138 H 0.84014 0.57356 0.77779 0.0
H1139 H 0.82939 0.56228 0.8499 0.0
H1140 H 0.81098 0.58123 0.80297 0.0
H1141 H 0.90601 0.64431 0.91819 0.0
H1142 H 0.90739 0.61409 0.94483 0.0
H1143 H 0.91114 0.62063 0.86419 0.0
H1144 H 0.89825 0.532 0.93998 0.0
H1145 H 0.91426 0.552 0.75317 0.0
H1146 H 0.85076 0.56952 0.95944 0.0
H1147 H 0.87669 0.58531 0.98899 0.0
H1148 H 0.87342 0.55381 1.00194 0.0
H1149 H 0.87237 0.59068 0.72354 0.0
H1150 H 0.90381 0.58922 0.71144 0.0
H1151 H 0.89236 0.61149 0.76183 0.0
C1152 C 0.05219 0.18942 0.87806 0.0
C1153 C 0.0411 0.19191 0.93529 0.0
C1154 C 0.04972 0.1683 0.84319 0.0
C1155 C 0.03583 0.14887 0.86571 0.0
C1156 C 0.02387 0.15154 0.92236 0.0
C1157 C 0.0266 0.17295 0.95627 0.0
C1158 C 0.06259 0.16657 0.78291 0.0
C1159 C 1.00883 0.13144 0.94831 0.0
C1160 C 0.01457 0.10045 0.75077 0.0
C1161 C 0.03109 0.08245 0.76119 0.0
C1162 C 0.01583 0.12191 0.7844 0.0
C1163 C 0.03405 0.12578 0.83021 0.0
C1164 C 0.05081 0.10772 0.84108 0.0
C1165 C 0.04917 0.08638 0.80656 0.0
C1166 C 0.9976 0.14051 0.77074 0.0
C1167 C 0.07054 0.11095 0.88937 0.0
H1168 H 0.06337 0.20391 0.86115 0.0
H1169 H 0.01825 0.1744 1.00076 0.0
H1170 H 0.07589 0.15242 0.78645 0.0
H1171 H 0.04983 0.16158 0.74474 0.0
H1172 H 0.07192 0.1835 0.77043 0.0
H1173 H 0.99978 0.13659 0.9912 0.0
H1174 H 0.99514 0.12539 0.91342 0.0
H1175 H 0.02019 0.1161 0.95906 0.0
H1176 H 1.00046 0.09782 0.71606 0.0
H1177 H 0.06199 0.07271 0.81546 0.0
H1178 H 1.00663 0.15725 0.75568 0.0
H1179 H 0.9879 0.14454 0.8134 0.0
H1180 H 0.98444 0.13482 0.73404 0.0
H1181 H 0.08184 0.12674 0.8779 0.0
H1182 H 0.082 0.09524 0.89301 0.0
H1183 H 0.06287 0.11421 0.93534 0.0
C1184 C 0.3561 0.0484 0.89456 0.0
C1185 C 0.35438 0.04244 0.95773 0.0
C1186 C 0.37681 0.04415 0.86107 0.0
C1187 C 0.3967 0.03367 0.891 0.0
C1188 C 0.39463 0.02646 0.95394 0.0
C1189 C 0.37359 0.03093 0.98644 0.0
C1190 C 0.37779 0.05199 0.79418 0.0
C1191 C 0.41512 0.01504 0.98795 0.0
C1192 C 0.44462 1.00864 0.78713 0.0
C1193 C 0.46223 0.02698 0.78688 0.0
C1194 C 0.42365 0.01036 0.82144 0.0
C1195 C 0.41973 0.03101 0.85676 0.0
C1196 C 0.43746 0.04955 0.85707 0.0
C1197 C 0.45839 0.04732 0.82245 0.0
C1198 C 0.4055 0.99009 0.81929 0.0
C1199 C 0.43419 0.07197 0.89353 0.0
H1200 H 0.3415 0.05748 0.87191 0.0
H1201 H 0.37274 0.02667 0.03537 0.0
H1202 H 0.39147 0.06643 0.78946 0.0
H1203 H 0.38308 0.03708 0.76454 0.0
H1204 H 0.36043 0.05853 0.7764 0.0
H1205 H 0.41018 1.00867 0.0348 0.0
H1206 H 0.42146 0.99983 0.96102 0.0
H1207 H 0.43023 0.02807 0.99303 0.0
H1208 H 0.44715 0.99277 0.76014 0.0
H1209 H 0.47168 0.06164 0.82294 0.0
H1210 H 0.38849 0.99623 0.79851 0.0
H1211 H 0.40176 0.98385 0.86698 0.0
H1212 H 0.41151 0.97483 0.79184 0.0
H1213 H 0.41811 0.08105 0.87587 0.0
H1214 H 0.44976 0.08449 0.89067 0.0
H1215 H 0.4313 0.06755 0.94297 0.0
C1216 C 0.52164 0.34087 0.89929 0.0
C1217 C 0.5281 0.34595 0.96115 0.0
C1218 C 0.51713 0.35933 0.85629 0.0
C1219 C 0.51946 0.38342 0.8754 0.0
C1220 C 0.52469 0.38844 0.93873 0.0
C1221 C 0.52889 0.36972 0.98056 0.0
C1222 C 0.51127 0.35306 0.78963 0.0
C1223 C 0.52747 0.41369 0.96168 0.0
C1224 C 0.53911 0.43224 0.76231 0.0
C1225 C 0.51808 0.44471 0.75191 0.0
C1226 C 0.53959 0.4119 0.80061 0.0
C1227 C 0.51848 0.40347 0.82908 0.0
C1228 C 0.49699 0.41542 0.81681 0.0
C1229 C 0.49707 0.43589 0.77887 0.0
C1230 C 0.56299 0.39997 0.8125 0.0
C1231 C 0.474 0.40698 0.84529 0.0
H1232 H 0.52152 0.3226 0.88369 0.0
H1233 H 0.5343 0.37374 0.02809 0.0
H1234 H 0.49605 0.36344 0.77184 0.0
H1235 H 0.52677 0.35769 0.76071 0.0
H1236 H 0.50684 0.33384 0.78379 0.0
H1237 H 0.52976 0.41462 1.01292 0.0
H1238 H 0.54326 0.42239 0.9405 0.0
H1239 H 0.51172 0.42402 0.9475 0.0
H1240 H 0.55549 0.43878 0.74205 0.0
H1241 H 0.48065 0.44521 0.77112 0.0
H1242 H 0.56113 0.38076 0.80178 0.0
H1243 H 0.56822 0.40158 0.8623 0.0
H1244 H 0.57754 0.40785 0.78447 0.0
H1245 H 0.47092 0.38771 0.83689 0.0
H1246 H 0.45843 0.41666 0.82655 0.0
H1247 H 0.47516 0.40959 0.89623 0.0
C1248 C 0.19215 0.46807 0.86427 0.0
C1249 C 0.19933 0.48255 0.91459 0.0
C1250 C 0.17146 0.4727 0.82854 0.0
C1251 C 0.1572 0.49204 0.84413 0.0
C1252 C 0.16497 0.50735 0.89325 0.0
C1253 C 0.18599 0.50249 0.92766 0.0
C1254 C 0.16426 0.45616 0.77599 0.0
C1255 C 0.15032 0.52806 0.91188 0.0
C1256 C 0.10914 0.51302 0.72924 0.0
C1257 C 0.08849 0.50138 0.75087 0.0
C1258 C 0.13156 0.51001 0.75855 0.0
C1259 C 0.13351 0.49529 0.81169 0.0
C1260 C 0.11274 0.48343 0.83367 0.0
C1261 C 0.09059 0.48645 0.80279 0.0
C1262 C 0.15318 0.52262 0.7326 0.0
C1263 C 0.11387 0.4677 0.89038 0.0
H1264 H 0.20226 0.45248 0.8545 0.0
H1265 H 0.19118 0.51343 0.96728 0.0
H1266 H 0.14796 0.4458 0.78821 0.0
H1267 H 0.15999 0.46643 0.73338 0.0
H1268 H 0.17844 0.44354 0.76559 0.0
H1269 H 0.15958 0.53928 0.9478 0.0
H1270 H 0.1461 0.53929 0.87096 0.0
H1271 H 0.13315 0.52137 0.93042 0.0
H1272 H 0.10783 0.5245 0.689 0.0
H1273 H 0.0748 0.47747 0.82022 0.0
H1274 H 0.16121 0.535 0.76769 0.0
H1275 H 0.14884 0.53285 0.68986 0.0
H1276 H 0.16686 0.50956 0.72173 0.0
H1277 H 0.1261 0.45295 0.88266 0.0
H1278 H 0.09613 0.46002 0.90224 0.0
H1279 H 0.12113 0.47802 0.93068 0.0
C1280 C 0.97861 0.84902 0.43838 0.0
C1281 C 0.99539 0.84183 0.39533 0.0
C1282 C 0.98251 0.86936 0.47553 0.0
C1283 C 1.00406 0.88288 0.47142 0.0
C1284 C 0.02183 0.87482 0.43142 0.0
C1285 C 0.01726 0.85455 0.39368 0.0
C1286 C 0.96288 0.8771 0.5168 0.0
C1287 C 0.04534 0.8882 0.42646 0.0
C1288 C 1.00193 0.9493 0.50914 0.0
C1289 C 1.01021 0.95032 0.57114 0.0
C1290 C 1.00003 0.92764 0.47643 0.0
C1291 C 1.00708 0.90623 0.50552 0.0
C1292 C 0.01581 0.90718 0.56787 0.0
C1293 C 0.01701 0.92907 0.60003 0.0
C1294 C 0.99009 0.92763 0.41074 0.0
C1295 C 0.02404 0.88506 0.60057 0.0
H1296 H 0.96185 0.83913 0.44149 0.0
H1297 H 0.03039 0.84937 0.3608 0.0
H1298 H 0.96978 0.87963 0.56501 0.0
H1299 H 0.95623 0.89445 0.50042 0.0
H1300 H 0.94766 0.86408 0.51727 0.0
H1301 H 0.05838 0.87817 0.39985 0.0
H1302 H 0.04251 0.90546 0.4029 0.0
H1303 H 0.05308 0.8921 0.4733 0.0
H1304 H 0.9966 0.96551 0.48615 0.0
H1305 H 0.02371 0.92959 0.64759 0.0
H1306 H 0.97392 0.91588 0.4074 0.0
H1307 H 1.00327 0.92046 0.37889 0.0
H1308 H 0.98536 0.94568 0.3946 0.0
H1309 H 1.00895 0.87205 0.60431 0.0
H1310 H 0.03143 0.88885 0.64788 0.0
H1311 H 0.03788 0.87654 0.57322 0.0
C1312 C 0.68434 0.9787 0.42421 0.0
C1313 C 0.69059 0.99534 0.37807 0.0
C1314 C 0.66472 0.98177 0.46267 0.0
C1315 C 0.65072 1.0022 0.45613 0.0
C1316 C 0.65754 0.01968 0.41171 0.0
C1317 C 0.67729 0.01606 0.37336 0.0
C1318 C 0.6585 0.9626 0.50906 0.0
C1319 C 0.64348 0.0419 0.40328 0.0
C1320 C 0.58581 0.99682 0.50957 0.0
C1321 C 0.5871 1.00706 0.56902 0.0
C1322 C 0.60614 0.99542 0.47242 0.0
C1323 C 0.6286 1.00466 0.49437 0.0
C1324 C 0.62999 0.01517 0.55414 0.0
C1325 C 0.60943 0.01615 0.59055 0.0
C1326 C 0.60361 0.9838 0.40959 0.0
C1327 C 0.6533 0.02541 0.57985 0.0
H1328 H 0.69457 0.96277 0.42938 0.0
H1329 H 0.68168 0.02902 0.33794 0.0
H1330 H 0.65765 0.97028 0.55619 0.0
H1331 H 0.64063 0.95472 0.4973 0.0
H1332 H 0.67158 0.94818 0.51022 0.0
H1333 H 0.65196 0.05462 0.37054 0.0
H1334 H 0.62529 0.03716 0.38528 0.0
H1335 H 0.64156 0.05085 0.44854 0.0
H1336 H 0.56884 0.98976 0.49187 0.0
H1337 H 0.61087 0.02429 0.63596 0.0
H1338 H 0.61517 0.96819 0.40796 0.0
H1339 H 0.60959 0.99637 0.37312 0.0
H1340 H 0.58497 0.97785 0.39844 0.0
H1341 H 0.66654 0.01123 0.58421 0.0
H1342 H 0.65141 0.0337 0.62604 0.0
H1343 H 0.66057 0.03897 0.54752 0.0
C1344 C 0.52282 0.6712 0.37057 0.0
C1345 C 0.49975 0.68012 0.36655 0.0
C1346 C 0.52866 0.65315 0.41384 0.0
C1347 C 0.51093 0.6434 0.4532 0.0
C1348 C 0.48813 0.65348 0.45186 0.0
C1349 C 0.48305 0.67187 0.40975 0.0
C1350 C 0.55348 0.64367 0.41514 0.0
C1351 C 0.46841 0.64364 0.4916 0.0
C1352 C 0.51313 0.57786 0.49963 0.0
C1353 C 0.51878 0.57894 0.56335 0.0
C1354 C 0.51083 0.59859 0.46351 0.0
C1355 C 0.51512 0.62122 0.49092 0.0
C1356 C 0.52154 0.62242 0.55501 0.0
C1357 C 0.52282 0.60133 0.59068 0.0
C1358 C 0.50311 0.59622 0.3962 0.0
C1359 C 0.52707 0.64598 0.58591 0.0
H1360 H 0.53592 0.67737 0.33777 0.0
H1361 H 0.4653 0.67895 0.40821 0.0
H1362 H 0.56004 0.64125 0.46365 0.0
H1363 H 0.55326 0.62604 0.39238 0.0
H1364 H 0.56617 0.65564 0.39058 0.0
H1365 H 0.45209 0.65427 0.48775 0.0
H1366 H 0.46376 0.62515 0.47724 0.0
H1367 H 0.47433 0.64306 0.54096 0.0
H1368 H 0.50981 0.56066 0.47815 0.0
H1369 H 0.52744 0.60233 0.63971 0.0
H1370 H 0.5167 0.60461 0.36619 0.0
H1371 H 0.48625 0.60565 0.38776 0.0
H1372 H 0.50029 0.57739 0.38193 0.0
H1373 H 0.53412 0.64386 0.63413 0.0
H1374 H 0.51075 0.65655 0.58711 0.0
H1375 H 0.54034 0.65634 0.55886 0.0
C1376 C 0.85494 0.53497 0.4059 0.0
C1377 C 0.84399 0.5566 0.41655 0.0
C1378 C 0.87459 0.52785 0.443 0.0
C1379 C 0.8837 0.5428 0.49146 0.0
C1380 C 0.87142 0.56362 0.50554 0.0
C1381 C 0.85171 0.57014 0.46836 0.0
C1382 C 0.88641 0.50493 0.42826 0.0
C1383 C 0.88007 0.57989 0.55739 0.0
C1384 C 0.93151 0.52266 0.60909 0.0
C1385 C 0.95258 0.53121 0.58206 0.0
C1386 C 0.90903 0.5257 0.57982 0.0
C1387 C 0.90739 0.53818 0.5227 0.0
C1388 C 0.9286 0.54714 0.49576 0.0
C1389 C 0.95083 0.54334 0.52527 0.0
C1390 C 0.88718 0.51574 0.61101 0.0
C1391 C 0.92783 0.56107 0.43586 0.0
H1392 H 0.84915 0.52435 0.3662 0.0
H1393 H 0.84308 0.58665 0.47782 0.0
H1394 H 0.90401 0.50887 0.40788 0.0
H1395 H 0.88954 0.49453 0.47136 0.0
H1396 H 0.87557 0.49386 0.39495 0.0
H1397 H 0.86789 0.59476 0.56458 0.0
H1398 H 0.88182 0.56976 0.60135 0.0
H1399 H 0.89797 0.58742 0.54675 0.0
H1400 H 0.93257 0.51321 0.6528 0.0
H1401 H 0.96689 0.55016 0.50397 0.0
H1402 H 0.87296 0.51029 0.57688 0.0
H1403 H 0.88006 0.52953 0.64148 0.0
H1404 H 0.89154 0.50018 0.64051 0.0
H1405 H 0.91952 0.55001 0.39829 0.0
H1406 H 0.94583 0.56716 0.42135 0.0
H1407 H 0.91669 0.57685 0.44115 0.0
loop_
_geom_bond_atom_site_label_1
_geom_bond_atom_site_label_2
_geom_bond_distance
_geom_bond_site_symmetry_2
_ccdc_geom_bond_type
C0 C1 1.391 . S
C0 C4 1.391 . S
C0 H42 0.948 . S
C1 C0 1.391 . S
C1 C2 1.391 . S
C2 C1 1.391 . S
C2 H58 0.947 . S
C2 C59 1.392 . S
C3 C4 1.391 . S
C3 C7 1.397 . S
C3 C59 1.419 . S
C4 C0 1.391 . S
C4 C3 1.391 . S
C4 C5 1.399 . S
C5 C4 1.399 . S
C5 C8 1.396 . S
C5 C17 1.453 . S
C5 C18 1.684 . S
H6 C30 0.948 . S
C7 C3 1.397 . S
C7 C8 1.394 . S
C7 C26 1.723 . S
C8 C5 1.396 . S
C8 C7 1.394 . S
C8 C38 1.723 . S
H9 C32 0.947 . S
H10 C33 0.948 . S
H11 C39 0.982 . S
H12 C40 0.979 . S
H13 C40 0.980 . S
H14 C40 0.983 . S
H15 C39 0.979 . S
H16 C39 0.977 . S
C17 C5 1.453 . S
C17 H46 0.982 . S
C17 H47 0.979 . S
C17 H48 0.977 . S
C18 C5 1.684 . S
C18 H43 0.979 . S
C18 H44 0.980 . S
C18 H45 0.983 . S
C19 C20 1.391 . S
C19 C24 1.391 . S
C19 H49 0.948 . S
C20 C19 1.391 . S
C20 C21 1.391 . S
C21 C20 1.391 . S
C21 C22 1.392 . S
C21 H50 0.947 1_554 S
C22 C21 1.392 . S
C22 C23 1.419 . S
C22 H51 0.948 . S
C23 C22 1.419 . S
C23 C24 1.391 . S
C23 C27 1.397 . S
C24 C19 1.391 . S
C24 C23 1.391 . S
C24 C25 1.399 . S
C25 C24 1.399 . S
C25 C26 1.396 . S
C25 C28 1.453 . S
C25 C29 1.684 . S
C26 C7 1.723 . S
C26 C25 1.396 . S
C26 C27 1.394 . S
C27 C23 1.397 . S
C27 C26 1.394 . S
C27 C37 1.723 . S
C28 C25 1.453 . S
C28 H52 0.982 . S
C28 H53 0.979 . S
C28 H54 0.977 . S
C29 C25 1.684 . S
C29 H55 0.979 . S
C29 H56 0.980 . S
C29 H57 0.983 . S
C30 H6 0.948 . S
C30 C31 1.391 . S
C30 C35 1.391 . S
C31 C30 1.391 . S
C31 C32 1.391 . S
C32 H9 0.947 . S
C32 C31 1.391 . S
C32 C33 1.392 . S
C33 H10 0.948 . S
C33 C32 1.392 . S
C33 C34 1.419 . S
C34 C33 1.419 . S
C34 C35 1.391 . S
C34 C38 1.397 . S
C35 C30 1.391 . S
C35 C34 1.391 . S
C35 C36 1.399 . S
C36 C35 1.399 . S
C36 C37 1.396 . S
C36 C39 1.453 . S
C36 C40 1.684 . S
C37 C27 1.723 . S
C37 C36 1.396 . S
C37 C38 1.394 . S
C38 C8 1.723 . S
C38 C34 1.397 . S
C38 C37 1.394 . S
C39 H11 0.982 . S
C39 H15 0.979 . S
C39 H16 0.977 . S
C39 C36 1.453 . S
C40 H12 0.979 . S
C40 H13 0.980 . S
C40 H14 0.983 . S
C40 C36 1.684 . S
H41 C59 0.948 . S
H42 C0 0.948 . S
H43 C18 0.979 . S
H44 C18 0.980 . S
H45 C18 0.983 . S
H46 C17 0.982 . S
H47 C17 0.979 . S
H48 C17 0.977 . S
H49 C19 0.948 . S
H50 C21 0.947 1_556 S
H51 C22 0.948 . S
H52 C28 0.982 . S
H53 C28 0.979 . S
H54 C28 0.977 . S
H55 C29 0.979 . S
H56 C29 0.980 . S
H57 C29 0.983 . S
H58 C2 0.947 . S
C59 C2 1.392 . S
C59 C3 1.419 . S
C59 H41 0.948 . S
C60 C61 1.391 . S
C60 C64 1.391 . S
C60 H102 0.948 . S
C61 C60 1.391 . S
C61 C62 1.391 . S
C62 C61 1.391 . S
C62 H118 0.947 . S
C62 C119 1.392 . S
C63 C64 1.391 . S
C63 C67 1.397 . S
C63 C119 1.419 . S
C64 C60 1.391 . S
C64 C63 1.391 . S
C64 C65 1.399 . S
C65 C64 1.399 . S
C65 C68 1.396 . S
C65 C77 1.453 . S
C65 C78 1.684 . S
H66 C90 0.948 . S
C67 C63 1.397 . S
C67 C68 1.394 . S
C67 C86 1.723 . S
C68 C65 1.396 . S
C68 C67 1.394 . S
C68 C98 1.723 . S
H69 C92 0.947 . S
H70 C93 0.948 . S
H71 C99 0.982 . S
H72 C100 0.979 . S
H73 C100 0.980 . S
H74 C100 0.983 . S
H75 C99 0.979 . S
H76 C99 0.977 . S
C77 C65 1.453 . S
C77 H106 0.982 . S
C77 H107 0.979 . S
C77 H108 0.977 . S
C78 C65 1.684 . S
C78 H103 0.979 . S
C78 H104 0.980 . S
C78 H105 0.983 . S
C79 C80 1.391 . S
C79 C84 1.391 . S
C79 H109 0.948 . S
C80 C79 1.391 . S
C80 C81 1.391 . S
C81 C80 1.391 . S
C81 C82 1.392 . S
C81 H110 0.947 . S
C82 C81 1.392 . S
C82 C83 1.419 . S
C82 H111 0.948 . S
C83 C82 1.419 . S
C83 C84 1.391 . S
C83 C87 1.397 . S
C84 C79 1.391 . S
C84 C83 1.391 . S
C84 C85 1.399 . S
C85 C84 1.399 . S
C85 C86 1.396 . S
C85 C88 1.453 . S
C85 C89 1.684 . S
C86 C67 1.723 . S
C86 C85 1.396 . S
C86 C87 1.394 . S
C87 C83 1.397 . S
C87 C86 1.394 . S
C87 C97 1.723 . S
C88 C85 1.453 . S
C88 H112 0.982 . S
C88 H113 0.979 . S
C88 H114 0.977 . S
C89 C85 1.684 . S
C89 H115 0.979 . S
C89 H116 0.980 . S
C89 H117 0.983 . S
C90 H66 0.948 . S
C90 C91 1.391 . S
C90 C95 1.391 . S
C91 C90 1.391 . S
C91 C92 1.391 . S
C92 H69 0.947 . S
C92 C91 1.391 . S
C92 C93 1.392 . S
C93 H70 0.948 . S
C93 C92 1.392 . S
C93 C94 1.419 . S
C94 C93 1.419 . S
C94 C95 1.391 . S
C94 C98 1.397 . S
C95 C90 1.391 . S
C95 C94 1.391 . S
C95 C96 1.399 . S
C96 C95 1.399 . S
C96 C97 1.396 . S
C96 C99 1.453 . S
C96 C100 1.684 . S
C97 C87 1.723 . S
C97 C96 1.396 . S
C97 C98 1.394 . S
C98 C68 1.723 . S
C98 C94 1.397 . S
C98 C97 1.394 . S
C99 H71 0.982 . S
C99 H75 0.979 . S
C99 H76 0.977 . S
C99 C96 1.453 . S
C100 H72 0.979 . S
C100 H73 0.980 . S
C100 H74 0.983 . S
C100 C96 1.684 . S
H101 C119 0.948 . S
H102 C60 0.948 . S
H103 C78 0.979 . S
H104 C78 0.980 . S
H105 C78 0.983 . S
H106 C77 0.982 . S
H107 C77 0.979 . S
H108 C77 0.977 . S
H109 C79 0.948 . S
H110 C81 0.947 . S
H111 C82 0.948 . S
H112 C88 0.982 . S
H113 C88 0.979 . S
H114 C88 0.977 . S
H115 C89 0.979 . S
H116 C89 0.980 . S
H117 C89 0.983 . S
H118 C62 0.947 . S
C119 C62 1.392 . S
C119 C63 1.419 . S
C119 H101 0.948 . S
C120 C121 1.391 . S
C120 C124 1.391 . S
C120 H162 0.948 . S
C121 C120 1.391 . S
C121 C122 1.391 . S
C122 C121 1.391 . S
C122 H178 0.947 . S
C122 C179 1.392 . S
C123 C124 1.391 . S
C123 C127 1.397 . S
C123 C179 1.419 . S
C124 C120 1.391 . S
C124 C123 1.391 . S
C124 C125 1.399 . S
C125 C124 1.399 . S
C125 C128 1.396 . S
C125 C137 1.453 . S
C125 C138 1.684 . S
H126 C150 0.948 . S
C127 C123 1.397 . S
C127 C128 1.394 . S
C127 C146 1.723 . S
C128 C125 1.396 . S
C128 C127 1.394 . S
C128 C158 1.723 . S
H129 C152 0.947 . S
H130 C153 0.948 . S
H131 C159 0.982 . S
H132 C160 0.979 . S
H133 C160 0.980 . S
H134 C160 0.983 . S
H135 C159 0.979 . S
H136 C159 0.977 . S
C137 C125 1.453 . S
C137 H166 0.982 . S
C137 H167 0.979 . S
C137 H168 0.977 . S
C138 C125 1.684 . S
C138 H163 0.979 . S
C138 H164 0.980 . S
C138 H165 0.983 . S
C139 C140 1.391 . S
C139 C144 1.391 . S
C139 H169 0.948 . S
C140 C139 1.391 . S
C140 C141 1.391 . S
C141 C140 1.391 . S
C141 C142 1.392 . S
C141 H170 0.947 . S
C142 C141 1.392 . S
C142 C143 1.419 . S
C142 H171 0.948 . S
C143 C142 1.419 . S
C143 C144 1.391 . S
C143 C147 1.397 . S
C144 C139 1.391 . S
C144 C143 1.391 . S
C144 C145 1.399 . S
C145 C144 1.399 . S
C145 C146 1.396 . S
C145 C148 1.453 . S
C145 C149 1.684 . S
C146 C127 1.723 . S
C146 C145 1.396 . S
C146 C147 1.394 . S
C147 C143 1.397 . S
C147 C146 1.394 . S
C147 C157 1.723 . S
C148 C145 1.453 . S
C148 H172 0.982 . S
C148 H173 0.979 . S
C148 H174 0.977 . S
C149 C145 1.684 . S
C149 H175 0.979 . S
C149 H176 0.980 . S
C149 H177 0.983 . S
C150 H126 0.948 . S
C150 C151 1.391 . S
C150 C155 1.391 . S
C151 C150 1.391 . S
C151 C152 1.391 . S
C152 H129 0.947 . S
C152 C151 1.391 . S
C152 C153 1.392 . S
C153 H130 0.948 . S
C153 C152 1.392 . S
C153 C154 1.419 . S
C154 C153 1.419 . S
C154 C155 1.391 . S
C154 C158 1.397 . S
C155 C150 1.391 . S
C155 C154 1.391 . S
C155 C156 1.399 . S
C156 C155 1.399 . S
C156 C157 1.396 . S
C156 C159 1.453 . S
C156 C160 1.684 . S
C157 C147 1.723 . S
C157 C156 1.396 . S
C157 C158 1.394 . S
C158 C128 1.723 . S
C158 C154 1.397 . S
C158 C157 1.394 . S
C159 H131 0.982 . S
C159 H135 0.979 . S
C159 H136 0.977 . S
C159 C156 1.453 . S
C160 H132 0.979 . S
C160 H133 0.980 . S
C160 H134 0.983 . S
C160 C156 1.684 . S
H161 C179 0.948 . S
H162 C120 0.948 . S
H163 C138 0.979 . S
H164 C138 0.980 . S
H165 C138 0.983 . S
H166 C137 0.982 . S
H167 C137 0.979 . S
H168 C137 0.977 . S
H169 C139 0.948 . S
H170 C141 0.947 . S
H171 C142 0.948 . S
H172 C148 0.982 . S
H173 C148 0.979 . S
H174 C148 0.977 . S
H175 C149 0.979 . S
H176 C149 0.980 . S
H177 C149 0.983 . S
H178 C122 0.947 . S
C179 C122 1.392 . S
C179 C123 1.419 . S
C179 H161 0.948 . S
C180 C181 1.391 . S
C180 C184 1.391 . S
C180 H222 0.948 . S
C181 C180 1.391 . S
C181 C182 1.391 . S
C182 C181 1.391 . S
C182 H238 0.947 . S
C182 C239 1.392 . S
C183 C184 1.391 . S
C183 C187 1.397 . S
C183 C239 1.419 . S
C184 C180 1.391 . S
C184 C183 1.391 . S
C184 C185 1.399 . S
C185 C184 1.399 . S
C185 C188 1.396 . S
C185 C197 1.453 . S
C185 C198 1.684 . S
H186 C210 0.948 . S
C187 C183 1.397 . S
C187 C188 1.394 . S
C187 C206 1.723 . S
C188 C185 1.396 . S
C188 C187 1.394 . S
C188 C218 1.723 . S
H189 C212 0.947 . S
H190 C213 0.948 . S
H191 C219 0.982 . S
H192 C220 0.979 . S
H193 C220 0.980 . S
H194 C220 0.983 . S
H195 C219 0.979 . S
H196 C219 0.977 . S
C197 C185 1.453 . S
C197 H226 0.982 . S
C197 H227 0.979 . S
C197 H228 0.977 . S
C198 C185 1.684 . S
C198 H223 0.979 . S
C198 H224 0.980 . S
C198 H225 0.983 . S
C199 C200 1.391 . S
C199 C204 1.391 . S
C199 H229 0.948 . S
C200 C199 1.391 . S
C200 C201 1.391 . S
C201 C200 1.391 . S
C201 C202 1.392 . S
C201 H230 0.947 1_554 S
C202 C201 1.392 . S
C202 C203 1.419 . S
C202 H231 0.948 . S
C203 C202 1.419 . S
C203 C204 1.391 . S
C203 C207 1.397 . S
C204 C199 1.391 . S
C204 C203 1.391 . S
C204 C205 1.399 . S
C205 C204 1.399 . S
C205 C206 1.396 . S
C205 C208 1.453 . S
C205 C209 1.684 . S
C206 C187 1.723 . S
C206 C205 1.396 . S
C206 C207 1.394 . S
C207 C203 1.397 . S
C207 C206 1.394 . S
C207 C217 1.723 . S
C208 C205 1.453 . S
C208 H232 0.982 . S
C208 H233 0.979 . S
C208 H234 0.977 . S
C209 C205 1.684 . S
C209 H235 0.979 . S
C209 H236 0.980 . S
C209 H237 0.983 . S
C210 H186 0.948 . S
C210 C211 1.391 . S
C210 C215 1.391 . S
C211 C210 1.391 . S
C211 C212 1.391 . S
C212 H189 0.947 . S
C212 C211 1.391 . S
C212 C213 1.392 . S
C213 H190 0.948 . S
C213 C212 1.392 . S
C213 C214 1.419 . S
C214 C213 1.419 . S
C214 C215 1.391 . S
C214 C218 1.397 . S
C215 C210 1.391 . S
C215 C214 1.391 . S
C215 C216 1.399 . S
C216 C215 1.399 . S
C216 C217 1.396 . S
C216 C219 1.453 . S
C216 C220 1.684 . S
C217 C207 1.723 . S
C217 C216 1.396 . S
C217 C218 1.394 . S
C218 C188 1.723 . S
C218 C214 1.397 . S
C218 C217 1.394 . S
C219 H191 0.982 . S
C219 H195 0.979 . S
C219 H196 0.977 . S
C219 C216 1.453 . S
C220 H192 0.979 . S
C220 H193 0.980 . S
C220 H194 0.983 . S
C220 C216 1.684 . S
H221 C239 0.948 . S
H222 C180 0.948 . S
H223 C198 0.979 . S
H224 C198 0.980 . S
H225 C198 0.983 . S
H226 C197 0.982 . S
H227 C197 0.979 . S
H228 C197 0.977 . S
H229 C199 0.948 . S
H230 C201 0.947 1_556 S
H231 C202 0.948 . S
H232 C208 0.982 . S
H233 C208 0.979 . S
H234 C208 0.977 . S
H235 C209 0.979 . S
H236 C209 0.980 . S
H237 C209 0.983 . S
H238 C182 0.947 . S
C239 C182 1.392 . S
C239 C183 1.419 . S
C239 H221 0.948 . S
C240 C241 1.391 . S
C240 C244 1.391 . S
C240 H282 0.948 . S
C241 C240 1.391 . S
C241 C242 1.391 . S
C242 C241 1.391 . S
C242 H298 0.947 . S
C242 C299 1.392 . S
C243 C244 1.391 . S
C243 C247 1.397 . S
C243 C299 1.419 . S
C244 C240 1.391 . S
C244 C243 1.391 . S
C244 C245 1.399 . S
C245 C244 1.399 . S
C245 C248 1.396 . S
C245 C257 1.453 1_554 S
C245 C258 1.684 1_554 S
H246 C270 0.948 . S
C247 C243 1.397 . S
C247 C248 1.394 . S
C247 C266 1.723 . S
C248 C245 1.396 . S
C248 C247 1.394 . S
C248 C278 1.723 . S
H249 C272 0.947 . S
H250 C273 0.948 . S
H251 C279 0.982 . S
H252 C280 0.978 1_556 S
H253 C280 0.980 . S
H254 C280 0.983 1_556 S
H255 C279 0.979 1_556 S
H256 C279 0.977 . S
C257 C245 1.453 1_556 S
C257 H286 0.982 1_556 S
C257 H287 0.979 . S
C257 H288 0.977 . S
C258 C245 1.684 1_556 S
C258 H283 0.979 . S
C258 H284 0.980 . S
C258 H285 0.983 . S
C259 C260 1.391 . S
C259 C264 1.391 . S
C259 H289 0.948 . S
C260 C259 1.391 . S
C260 C261 1.391 . S
C261 C260 1.391 . S
C261 C262 1.392 . S
C261 H290 0.947 . S
C262 C261 1.392 . S
C262 C263 1.419 . S
C262 H291 0.948 . S
C263 C262 1.419 . S
C263 C264 1.391 . S
C263 C267 1.397 . S
C264 C259 1.391 . S
C264 C263 1.391 . S
C264 C265 1.399 . S
C265 C264 1.399 . S
C265 C266 1.396 . S
C265 C268 1.453 . S
C265 C269 1.684 . S
C266 C247 1.723 . S
C266 C265 1.396 . S
C266 C267 1.394 . S
C267 C263 1.397 . S
C267 C266 1.394 . S
C267 C277 1.723 . S
C268 C265 1.453 . S
C268 H292 0.982 . S
C268 H293 0.979 . S
C268 H294 0.977 . S
C269 C265 1.684 . S
C269 H295 0.979 . S
C269 H296 0.980 . S
C269 H297 0.983 . S
C270 H246 0.948 . S
C270 C271 1.391 . S
C270 C275 1.391 . S
C271 C270 1.391 . S
C271 C272 1.391 . S
C272 H249 0.947 . S
C272 C271 1.391 . S
C272 C273 1.392 . S
C273 H250 0.948 . S
C273 C272 1.392 . S
C273 C274 1.419 . S
C274 C273 1.419 . S
C274 C275 1.391 . S
C274 C278 1.397 1_556 S
C275 C270 1.391 . S
C275 C274 1.391 . S
C275 C276 1.399 . S
C276 C275 1.399 . S
C276 C277 1.396 1_556 S
C276 C279 1.453 1_556 S
C276 C280 1.684 1_556 S
C277 C267 1.723 . S
C277 C276 1.396 1_554 S
C277 C278 1.394 . S
C278 C248 1.723 . S
C278 C274 1.397 1_554 S
C278 C277 1.394 . S
C279 H251 0.982 . S
C279 H255 0.979 1_554 S
C279 H256 0.977 . S
C279 C276 1.453 1_554 S
C280 H252 0.978 1_554 S
C280 H253 0.980 . S
C280 H254 0.983 1_554 S
C280 C276 1.684 1_554 S
H281 C299 0.948 . S
H282 C240 0.948 . S
H283 C258 0.979 . S
H284 C258 0.980 . S
H285 C258 0.983 . S
H286 C257 0.982 1_554 S
H287 C257 0.979 . S
H288 C257 0.977 . S
H289 C259 0.948 . S
H290 C261 0.947 . S
H291 C262 0.948 . S
H292 C268 0.982 . S
H293 C268 0.979 . S
H294 C268 0.977 . S
H295 C269 0.979 . S
H296 C269 0.980 . S
H297 C269 0.983 . S
H298 C242 0.947 . S
C299 C242 1.392 . S
C299 C243 1.419 . S
C299 H281 0.948 . S
C300 C301 1.391 . S
C300 C304 1.391 . S
C300 H342 0.948 . S
C301 C300 1.391 . S
C301 C302 1.391 . S
C302 C301 1.391 . S
C302 H358 0.947 . S
C302 C359 1.392 . S
C303 C304 1.391 . S
C303 C307 1.397 . S
C303 C359 1.419 . S
C304 C300 1.391 . S
C304 C303 1.391 . S
C304 C305 1.399 . S
C305 C304 1.399 . S
C305 C308 1.396 . S
C305 C317 1.453 . S
C305 C318 1.684 . S
H306 C330 0.948 . S
C307 C303 1.397 . S
C307 C308 1.394 . S
C307 C326 1.715 1_554 S
C308 C305 1.396 . S
C308 C307 1.394 . S
C308 C338 1.723 . S
H309 C332 0.947 . S
H310 C333 0.948 . S
H311 C339 0.982 . S
H312 C340 0.979 . S
H313 C340 0.980 . S
H314 C340 0.983 . S
H315 C339 0.979 . S
H316 C339 0.977 . S
C317 C305 1.453 . S
C317 H346 0.982 . S
C317 H347 0.979 . S
C317 H348 0.977 . S
C318 C305 1.684 . S
C318 H343 0.979 . S
C318 H344 0.980 . S
C318 H345 0.983 . S
C319 C320 1.391 . S
C319 C324 1.391 . S
C319 H349 0.948 . S
C320 C319 1.391 . S
C320 C321 1.391 . S
C321 C320 1.391 . S
C321 C322 1.392 . S
C321 H350 0.947 . S
C322 C321 1.392 . S
C322 C323 1.419 . S
C322 H351 0.948 . S
C323 C322 1.419 . S
C323 C324 1.391 . S
C323 C327 1.397 . S
C324 C319 1.391 . S
C324 C323 1.391 . S
C324 C325 1.399 . S
C325 C324 1.399 . S
C325 C326 1.402 . S
C325 C328 1.453 . S
C325 C329 1.684 . S
C326 C307 1.715 1_556 S
C326 C325 1.402 . S
C326 C327 1.398 . S
C327 C323 1.397 . S
C327 C326 1.398 . S
C327 C337 1.717 1_556 S
C328 C325 1.453 . S
C328 H352 0.982 . S
C328 H353 0.979 . S
C328 H354 0.977 1_556 S
C329 C325 1.684 . S
C329 H355 0.979 . S
C329 H356 0.980 1_556 S
C329 H357 0.983 . S
C330 H306 0.948 . S
C330 C331 1.391 . S
C330 C335 1.391 . S
C331 C330 1.391 . S
C331 C332 1.391 . S
C332 H309 0.947 . S
C332 C331 1.391 . S
C332 C333 1.392 . S
C333 H310 0.948 . S
C333 C332 1.392 . S
C333 C334 1.419 . S
C334 C333 1.419 . S
C334 C335 1.391 . S
C334 C338 1.397 . S
C335 C330 1.391 . S
C335 C334 1.391 . S
C335 C336 1.399 1_554 S
C336 C335 1.399 1_556 S
C336 C337 1.393 1_556 S
C336 C339 1.453 . S
C336 C340 1.684 . S
C337 C327 1.717 1_554 S
C337 C336 1.393 1_554 S
C337 C338 1.408 . S
C338 C308 1.723 . S
C338 C334 1.397 . S
C338 C337 1.408 . S
C339 H311 0.982 . S
C339 H315 0.979 . S
C339 H316 0.977 . S
C339 C336 1.453 . S
C340 H312 0.979 . S
C340 H313 0.980 . S
C340 H314 0.983 . S
C340 C336 1.684 . S
H341 C359 0.948 . S
H342 C300 0.948 . S
H343 C318 0.979 . S
H344 C318 0.980 . S
H345 C318 0.983 . S
H346 C317 0.982 . S
H347 C317 0.979 . S
H348 C317 0.977 . S
H349 C319 0.948 . S
H350 C321 0.947 . S
H351 C322 0.948 . S
H352 C328 0.982 . S
H353 C328 0.979 . S
H354 C328 0.977 1_554 S
H355 C329 0.979 . S
H356 C329 0.980 1_554 S
H357 C329 0.983 . S
H358 C302 0.947 . S
C359 C302 1.392 . S
C359 C303 1.419 . S
C359 H341 0.948 . S
C360 C361 1.391 . S
C360 C364 1.391 . S
C360 H402 0.948 . S
C361 C360 1.391 . S
C361 C362 1.391 . S
C362 C361 1.391 . S
C362 H418 0.947 . S
C362 C419 1.392 . S
C363 C364 1.391 . S
C363 C367 1.397 . S
C363 C419 1.419 . S
C364 C360 1.391 . S
C364 C363 1.391 . S
C364 C365 1.399 . S
C365 C364 1.399 . S
C365 C368 1.396 . S
C365 C377 1.453 . S
C365 C378 1.684 . S
H366 C390 0.948 . S
C367 C363 1.397 . S
C367 C368 1.394 . S
C367 C386 1.723 1_556 S
C368 C365 1.396 . S
C368 C367 1.394 . S
C368 C398 1.723 1_556 S
H369 C392 0.947 . S
H370 C393 0.948 . S
H371 C399 0.982 . S
H372 C400 0.979 . S
H373 C400 0.980 . S
H374 C400 0.983 . S
H375 C399 0.979 . S
H376 C399 0.977 . S
C377 C365 1.453 . S
C377 H406 0.982 . S
C377 H407 0.979 . S
C377 H408 0.977 . S
C378 C365 1.684 . S
C378 H403 0.979 . S
C378 H404 0.980 . S
C378 H405 0.983 . S
C379 C380 1.391 . S
C379 C384 1.391 . S
C379 H409 0.948 . S
C380 C379 1.391 . S
C380 C381 1.391 . S
C381 C380 1.391 . S
C381 C382 1.392 . S
C381 H410 0.947 . S
C382 C381 1.392 . S
C382 C383 1.419 . S
C382 H411 0.948 . S
C383 C382 1.419 . S
C383 C384 1.391 . S
C383 C387 1.397 . S
C384 C379 1.391 . S
C384 C383 1.391 . S
C384 C385 1.399 . S
C385 C384 1.399 . S
C385 C386 1.396 . S
C385 C388 1.453 . S
C385 C389 1.684 . S
C386 C367 1.723 1_554 S
C386 C385 1.396 . S
C386 C387 1.394 . S
C387 C383 1.397 . S
C387 C386 1.394 . S
C387 C397 1.723 . S
C388 C385 1.453 . S
C388 H412 0.982 . S
C388 H413 0.979 . S
C388 H414 0.977 1_554 S
C389 C385 1.684 . S
C389 H415 0.979 . S
C389 H416 0.980 1_554 S
C389 H417 0.983 . S
C390 H366 0.948 . S
C390 C391 1.391 . S
C390 C395 1.391 . S
C391 C390 1.391 . S
C391 C392 1.391 1_554 S
C392 H369 0.947 . S
C392 C391 1.391 1_556 S
C392 C393 1.392 . S
C393 H370 0.948 . S
C393 C392 1.392 . S
C393 C394 1.419 1_556 S
C394 C393 1.419 1_554 S
C394 C395 1.391 . S
C394 C398 1.397 . S
C395 C390 1.391 . S
C395 C394 1.391 . S
C395 C396 1.399 . S
C396 C395 1.399 . S
C396 C397 1.396 . S
C396 C399 1.453 . S
C396 C400 1.684 . S
C397 C387 1.723 . S
C397 C396 1.396 . S
C397 C398 1.394 . S
C398 C368 1.723 1_554 S
C398 C394 1.397 . S
C398 C397 1.394 . S
C399 H371 0.982 . S
C399 H375 0.979 . S
C399 H376 0.977 . S
C399 C396 1.453 . S
C400 H372 0.979 . S
C400 H373 0.980 . S
C400 H374 0.983 . S
C400 C396 1.684 . S
H401 C419 0.948 . S
H402 C360 0.948 . S
H403 C378 0.979 . S
H404 C378 0.980 . S
H405 C378 0.983 . S
H406 C377 0.982 . S
H407 C377 0.979 . S
H408 C377 0.977 . S
H409 C379 0.948 . S
H410 C381 0.947 . S
H411 C382 0.948 . S
H412 C388 0.982 . S
H413 C388 0.979 . S
H414 C388 0.977 1_556 S
H415 C389 0.979 . S
H416 C389 0.980 1_556 S
H417 C389 0.983 . S
H418 C362 0.947 . S
C419 C362 1.392 . S
C419 C363 1.419 . S
C419 H401 0.948 . S
C420 C421 1.391 . S
C420 C424 1.391 . S
C420 H462 0.948 . S
C421 C420 1.391 . S
C421 C422 1.391 . S
C422 C421 1.391 . S
C422 H478 0.947 . S
C422 C479 1.392 . S
C423 C424 1.391 . S
C423 C427 1.397 1_556 S
C423 C479 1.419 . S
C424 C420 1.391 . S
C424 C423 1.391 . S
C424 C425 1.399 . S
C425 C424 1.399 . S
C425 C428 1.396 1_556 S
C425 C437 1.453 . S
C425 C438 1.684 . S
H426 C450 0.948 . S
C427 C423 1.397 1_554 S
C427 C428 1.394 . S
C427 C446 1.723 . S
C428 C425 1.396 1_554 S
C428 C427 1.394 . S
C428 C458 1.723 . S
H429 C452 0.947 . S
H430 C453 0.948 1_556 S
H431 C459 0.982 . S
H432 C460 0.979 . S
H433 C460 0.980 . S
H434 C460 0.983 . S
H435 C459 0.979 . S
H436 C459 0.977 . S
C437 C425 1.453 . S
C437 H466 0.982 . S
C437 H467 0.979 . S
C437 H468 0.977 . S
C438 C425 1.684 . S
C438 H463 0.979 . S
C438 H464 0.980 . S
C438 H465 0.983 . S
C439 C440 1.391 . S
C439 C444 1.391 . S
C439 H469 0.948 . S
C440 C439 1.391 . S
C440 C441 1.391 . S
C441 C440 1.391 . S
C441 C442 1.392 . S
C441 H470 0.947 . S
C442 C441 1.392 . S
C442 C443 1.419 . S
C442 H471 0.948 . S
C443 C442 1.419 . S
C443 C444 1.391 . S
C443 C447 1.397 . S
C444 C439 1.391 . S
C444 C443 1.391 . S
C444 C445 1.399 . S
C445 C444 1.399 . S
C445 C446 1.396 . S
C445 C448 1.453 . S
C445 C449 1.684 . S
C446 C427 1.723 . S
C446 C445 1.396 . S
C446 C447 1.394 . S
C447 C443 1.397 . S
C447 C446 1.394 . S
C447 C457 1.723 . S
C448 C445 1.453 . S
C448 H472 0.982 . S
C448 H473 0.979 . S
C448 H474 0.977 . S
C449 C445 1.684 . S
C449 H475 0.979 . S
C449 H476 0.980 . S
C449 H477 0.983 . S
C450 H426 0.948 . S
C450 C451 1.391 . S
C450 C455 1.391 . S
C451 C450 1.391 . S
C451 C452 1.391 . S
C452 H429 0.947 . S
C452 C451 1.391 . S
C452 C453 1.392 . S
C453 H430 0.948 1_554 S
C453 C452 1.392 . S
C453 C454 1.419 . S
C454 C453 1.419 . S
C454 C455 1.391 . S
C454 C458 1.397 . S
C455 C450 1.391 . S
C455 C454 1.391 . S
C455 C456 1.399 . S
C456 C455 1.399 . S
C456 C457 1.396 . S
C456 C459 1.453 . S
C456 C460 1.684 . S
C457 C447 1.723 . S
C457 C456 1.396 . S
C457 C458 1.394 . S
C458 C428 1.723 . S
C458 C454 1.397 . S
C458 C457 1.394 . S
C459 H431 0.982 . S
C459 H435 0.979 . S
C459 H436 0.977 . S
C459 C456 1.453 . S
C460 H432 0.979 . S
C460 H433 0.980 . S
C460 H434 0.983 . S
C460 C456 1.684 . S
H461 C479 0.948 . S
H462 C420 0.948 . S
H463 C438 0.979 . S
H464 C438 0.980 . S
H465 C438 0.983 . S
H466 C437 0.982 . S
H467 C437 0.979 . S
H468 C437 0.977 . S
H469 C439 0.948 . S
H470 C441 0.947 . S
H471 C442 0.948 . S
H472 C448 0.982 . S
H473 C448 0.979 . S
H474 C448 0.977 . S
H475 C449 0.979 . S
H476 C449 0.980 . S
H477 C449 0.983 . S
H478 C422 0.947 . S
C479 C422 1.392 . S
C479 C423 1.419 . S
C479 H461 0.948 . S
Eu480 C489 2.828 . S
Eu480 O491 2.392 . S
Eu480 O493 2.418 1_545 S
Eu480 O498 2.373 1_655 S
Eu480 O501 2.488 . S
Eu480 O502 2.471 . S
Eu480 O503 2.349 1_655 S
Eu481 O490 2.373 1_455 S
Eu481 O494 2.488 . S
Eu481 O495 2.471 . S
Eu481 O496 2.349 . S
Eu481 O499 2.392 1_565 S
Eu481 O500 2.418 1_565 S
Eu481 C510 2.828 . S
C482 O500 1.244 . S
C482 O503 1.265 . S
C483 C484 1.379 1_655 S
C483 C487 1.373 . S
C483 C489 1.505 . S
C484 C483 1.379 1_455 S
C484 C486 1.369 . S
C484 H512 0.930 . S
C485 C487 1.383 . S
C485 C488 1.365 1_655 S
C485 H513 0.930 . S
C486 C484 1.369 . S
C486 C488 1.405 . S
C486 H514 0.930 . S
C487 C483 1.373 . S
C487 C485 1.383 . S
C487 H515 0.931 . S
C488 C485 1.365 1_455 S
C488 C486 1.405 . S
C489 Eu480 2.828 . S
C489 C483 1.505 . S
C489 O501 1.249 . S
C489 O502 1.244 . S
O490 Eu481 2.373 1_655 S
O490 C492 1.258 . S
O491 Eu480 2.392 . S
O491 C492 1.242 1_545 S
C492 O490 1.258 . S
C492 O491 1.242 1_565 S
O493 Eu480 2.418 1_565 S
O493 C497 1.244 . S
O494 Eu481 2.488 . S
O494 C510 1.249 . S
O495 Eu481 2.471 . S
O495 C510 1.244 . S
O496 Eu481 2.349 . S
O496 C497 1.265 1_455 S
C497 O493 1.244 . S
C497 O496 1.265 1_655 S
O498 Eu480 2.373 1_455 S
O498 C511 1.258 . S
O499 Eu481 2.392 1_545 S
O499 C511 1.242 . S
O500 Eu481 2.418 1_545 S
O500 C482 1.244 . S
O501 Eu480 2.488 . S
O501 C489 1.249 . S
O502 Eu480 2.471 . S
O502 C489 1.244 . S
O503 Eu480 2.349 1_455 S
O503 C482 1.265 . S
C504 C505 1.379 . S
C504 C508 1.373 . S
C504 C510 1.505 . S
C505 C504 1.379 . S
C505 C507 1.369 . S
C505 H516 0.930 1_455 S
C506 C508 1.383 . S
C506 C509 1.382 . S
C506 H517 0.930 . S
C507 C505 1.369 . S
C507 C509 1.392 . S
C507 H518 0.930 1_455 S
C508 C504 1.373 . S
C508 C506 1.383 . S
C508 H519 0.931 . S
C509 C506 1.382 . S
C509 C507 1.392 . S
C510 Eu481 2.828 . S
C510 O494 1.249 . S
C510 O495 1.244 . S
C510 C504 1.505 . S
C511 O498 1.258 . S
C511 O499 1.242 . S
H512 C484 0.930 . S
H513 C485 0.930 . S
H514 C486 0.930 . S
H515 C487 0.931 . S
H516 C505 0.930 1_655 S
H517 C506 0.930 . S
H518 C507 0.930 1_655 S
H519 C508 0.931 . S
Eu520 C529 2.828 . S
Eu520 O531 2.392 . S
Eu520 O533 2.418 . S
Eu520 O538 2.373 . S
Eu520 O541 2.488 . S
Eu520 O542 2.471 . S
Eu520 O543 2.349 1_545 S
Eu521 O530 2.373 1_565 S
Eu521 O534 2.488 . S
Eu521 O535 2.471 1_565 S
Eu521 O536 2.349 1_565 S
Eu521 O539 2.392 . S
Eu521 O540 2.418 . S
Eu521 C550 2.828 . S
C522 O540 1.244 . S
C522 O543 1.265 . S
C523 C524 1.379 1_545 S
C523 C527 1.373 . S
C523 C529 1.505 . S
C524 C523 1.379 1_565 S
C524 C526 1.369 . S
C524 H552 0.930 . S
C525 C527 1.383 . S
C525 C528 1.382 . S
C525 H553 0.930 . S
C526 C524 1.369 . S
C526 C528 1.392 1_565 S
C526 H554 0.930 . S
C527 C523 1.373 . S
C527 C525 1.383 . S
C527 H555 0.931 . S
C528 C525 1.382 . S
C528 C526 1.392 1_545 S
C529 Eu520 2.828 . S
C529 C523 1.505 . S
C529 O541 1.249 . S
C529 O542 1.244 . S
O530 Eu521 2.373 1_545 S
O530 C532 1.258 . S
O531 Eu520 2.392 . S
O531 C532 1.242 . S
C532 O530 1.258 . S
C532 O531 1.242 . S
O533 Eu520 2.418 . S
O533 C537 1.244 . S
O534 Eu521 2.488 . S
O534 C550 1.249 . S
O535 Eu521 2.471 1_545 S
O535 C550 1.244 1_545 S
O536 Eu521 2.349 1_545 S
O536 C537 1.265 . S
C537 O533 1.244 . S
C537 O536 1.265 . S
O538 Eu520 2.373 . S
O538 C551 1.258 1_545 S
O539 Eu521 2.392 . S
O539 C551 1.242 . S
O540 Eu521 2.418 . S
O540 C522 1.244 . S
O541 Eu520 2.488 . S
O541 C529 1.249 . S
O542 Eu520 2.471 . S
O542 C529 1.244 . S
O543 Eu520 2.349 1_565 S
O543 C522 1.265 . S
C544 C545 1.379 1_565 S
C544 C548 1.373 . S
C544 C550 1.505 . S
C545 C544 1.379 1_545 S
C545 C547 1.369 . S
C545 H556 0.930 . S
C546 C548 1.383 . S
C546 C549 1.382 . S
C546 H557 0.930 . S
C547 C545 1.369 . S
C547 C549 1.392 1_545 S
C547 H558 0.930 . S
C548 C544 1.373 . S
C548 C546 1.383 . S
C548 H559 0.931 . S
C549 C546 1.382 . S
C549 C547 1.392 1_565 S
C550 Eu521 2.828 . S
C550 O534 1.249 . S
C550 O535 1.244 1_565 S
C550 C544 1.505 . S
C551 O538 1.258 1_565 S
C551 O539 1.242 . S
H552 C524 0.930 . S
H553 C525 0.930 . S
H554 C526 0.930 . S
H555 C527 0.931 . S
H556 C545 0.930 . S
H557 C546 0.930 . S
H558 C547 0.930 . S
H559 C548 0.931 . S
Eu560 C569 2.828 . S
Eu560 O571 2.392 . S
Eu560 O573 2.418 . S
Eu560 O578 2.373 . S
Eu560 O581 2.488 . S
Eu560 O582 2.471 . S
Eu560 O583 2.349 . S
Eu561 O570 2.373 . S
Eu561 O574 2.488 . S
Eu561 O575 2.471 . S
Eu561 O576 2.349 . S
Eu561 O579 2.392 . S
Eu561 O580 2.418 . S
Eu561 C590 2.828 . S
C562 O580 1.244 . S
C562 O583 1.265 . S
C563 C564 1.379 . S
C563 C567 1.373 . S
C563 C569 1.505 . S
C564 C563 1.379 . S
C564 C566 1.369 . S
C564 H592 0.930 . S
C565 C567 1.383 . S
C565 C568 1.382 . S
C565 H593 0.930 . S
C566 C564 1.369 . S
C566 C568 1.392 . S
C566 H594 0.930 . S
C567 C563 1.373 . S
C567 C565 1.383 . S
C567 H595 0.931 . S
C568 C565 1.382 . S
C568 C566 1.392 . S
C569 Eu560 2.828 . S
C569 C563 1.505 . S
C569 O581 1.249 . S
C569 O582 1.244 . S
O570 Eu561 2.373 . S
O570 C572 1.258 . S
O571 Eu560 2.392 . S
O571 C572 1.242 . S
C572 O570 1.258 . S
C572 O571 1.242 . S
O573 Eu560 2.418 . S
O573 C577 1.244 . S
O574 Eu561 2.488 . S
O574 C590 1.249 . S
O575 Eu561 2.471 . S
O575 C590 1.244 . S
O576 Eu561 2.349 . S
O576 C577 1.265 . S
C577 O573 1.244 . S
C577 O576 1.265 . S
O578 Eu560 2.373 . S
O578 C591 1.258 . S
O579 Eu561 2.392 . S
O579 C591 1.242 . S
O580 Eu561 2.418 . S
O580 C562 1.244 . S
O581 Eu560 2.488 . S
O581 C569 1.249 . S
O582 Eu560 2.471 . S
O582 C569 1.244 . S
O583 Eu560 2.349 . S
O583 C562 1.265 . S
C584 C585 1.379 . S
C584 C588 1.373 . S
C584 C590 1.505 . S
C585 C584 1.379 . S
C585 C587 1.369 . S
C585 H596 0.930 . S
C586 C588 1.383 . S
C586 C589 1.382 . S
C586 H597 0.930 . S
C587 C585 1.369 . S
C587 C589 1.392 . S
C587 H598 0.930 . S
C588 C584 1.373 . S
C588 C586 1.383 . S
C588 H599 0.931 . S
C589 C586 1.382 . S
C589 C587 1.392 . S
C590 Eu561 2.828 . S
C590 O574 1.249 . S
C590 O575 1.244 . S
C590 C584 1.505 . S
C591 O578 1.258 . S
C591 O579 1.242 . S
H592 C564 0.930 . S
H593 C565 0.930 . S
H594 C566 0.930 . S
H595 C567 0.931 . S
H596 C585 0.930 . S
H597 C586 0.930 . S
H598 C587 0.930 . S
H599 C588 0.931 . S
Eu600 C609 2.828 . S
Eu600 O611 2.392 . S
Eu600 O613 2.418 1_455 S
Eu600 O618 2.373 . S
Eu600 O621 2.488 . S
Eu600 O622 2.471 . S
Eu600 O623 2.349 . S
Eu601 O610 2.373 . S
Eu601 O614 2.488 . S
Eu601 O615 2.471 . S
Eu601 O616 2.349 . S
Eu601 O619 2.392 1_655 S
Eu601 O620 2.418 1_655 S
Eu601 C630 2.828 . S
C602 O620 1.244 . S
C602 O623 1.265 . S
C603 C604 1.379 . S
C603 C607 1.373 . S
C603 C609 1.505 . S
C604 C603 1.379 . S
C604 C606 1.369 . S
C604 H632 0.930 . S
C605 C607 1.383 . S
C605 C608 1.382 . S
C605 H633 0.930 . S
C606 C604 1.369 . S
C606 C608 1.392 . S
C606 H634 0.930 . S
C607 C603 1.373 . S
C607 C605 1.383 . S
C607 H635 0.931 . S
C608 C605 1.382 . S
C608 C606 1.392 . S
C609 Eu600 2.828 . S
C609 C603 1.505 . S
C609 O621 1.249 . S
C609 O622 1.244 . S
O610 Eu601 2.373 . S
O610 C612 1.258 1_655 S
O611 Eu600 2.392 . S
O611 C612 1.242 . S
C612 O610 1.258 1_455 S
C612 O611 1.242 . S
O613 Eu600 2.418 1_655 S
O613 C617 1.244 . S
O614 Eu601 2.488 . S
O614 C630 1.249 . S
O615 Eu601 2.471 . S
O615 C630 1.244 . S
O616 Eu601 2.349 . S
O616 C617 1.265 . S
C617 O613 1.244 . S
C617 O616 1.265 . S
O618 Eu600 2.373 . S
O618 C631 1.258 . S
O619 Eu601 2.392 1_455 S
O619 C631 1.242 . S
O620 Eu601 2.418 1_455 S
O620 C602 1.244 . S
O621 Eu600 2.488 . S
O621 C609 1.249 . S
O622 Eu600 2.471 . S
O622 C609 1.244 . S
O623 Eu600 2.349 . S
O623 C602 1.265 . S
C624 C625 1.379 . S
C624 C628 1.373 . S
C624 C630 1.505 . S
C625 C624 1.379 . S
C625 C627 1.369 . S
C625 H636 0.930 . S
C626 C628 1.383 . S
C626 C629 1.382 . S
C626 H637 0.930 . S
C627 C625 1.369 . S
C627 C629 1.392 . S
C627 H638 0.930 . S
C628 C624 1.373 . S
C628 C626 1.383 . S
C628 H639 0.931 . S
C629 C626 1.382 . S
C629 C627 1.392 . S
C630 Eu601 2.828 . S
C630 O614 1.249 . S
C630 O615 1.244 . S
C630 C624 1.505 . S
C631 O618 1.258 . S
C631 O619 1.242 . S
H632 C604 0.930 . S
H633 C605 0.930 . S
H634 C606 0.930 . S
H635 C607 0.931 . S
H636 C625 0.930 . S
H637 C626 0.930 . S
H638 C627 0.930 . S
H639 C628 0.931 . S
C640 C641 1.391 . S
C640 C642 1.394 . S
C640 H656 0.931 . S
C641 C640 1.391 . S
C641 C645 1.376 . S
C642 C640 1.394 . S
C642 C643 1.369 . S
C642 C646 1.531 . S
C643 C642 1.369 . S
C643 C644 1.410 . S
C643 C651 1.503 . S
C644 C643 1.410 . S
C644 C645 1.392 . S
C644 C647 1.511 . S
C645 C641 1.376 . S
C645 C644 1.392 . S
C645 H657 0.929 . S
C646 C642 1.531 . S
C646 H658 0.960 . S
C646 H659 0.962 . S
C646 H660 0.960 . S
C647 C644 1.511 . S
C647 H661 0.961 . S
C647 H662 0.961 . S
C647 H663 0.961 . S
C648 C649 1.370 . S
C648 C650 1.363 . S
C648 H664 0.931 . S
C649 C648 1.370 . S
C649 C653 1.408 . S
C650 C648 1.363 . S
C650 C651 1.370 . S
C650 C654 1.524 . S
C651 C643 1.503 . S
C651 C650 1.370 . S
C651 C652 1.403 . S
C652 C651 1.403 . S
C652 C653 1.404 . S
C652 C655 1.539 1_545 S
C653 C649 1.408 . S
C653 C652 1.404 . S
C653 H665 0.930 1_545 S
C654 C650 1.524 . S
C654 H666 0.956 . S
C654 H667 0.961 . S
C654 H668 0.961 . S
C655 C652 1.539 1_565 S
C655 H669 0.958 . S
C655 H670 0.961 . S
C655 H671 0.960 . S
H656 C640 0.931 . S
H657 C645 0.929 . S
H658 C646 0.960 . S
H659 C646 0.962 . S
H660 C646 0.960 . S
H661 C647 0.961 . S
H662 C647 0.961 . S
H663 C647 0.961 . S
H664 C648 0.931 . S
H665 C653 0.930 1_565 S
H666 C654 0.956 . S
H667 C654 0.961 . S
H668 C654 0.961 . S
H669 C655 0.958 . S
H670 C655 0.961 . S
H671 C655 0.960 . S
C672 C673 1.391 . S
C672 C674 1.394 . S
C672 H688 0.931 . S
C673 C672 1.391 . S
C673 C677 1.376 . S
C674 C672 1.394 . S
C674 C675 1.369 . S
C674 C678 1.531 . S
C675 C674 1.369 . S
C675 C676 1.410 . S
C675 C683 1.503 . S
C676 C675 1.410 . S
C676 C677 1.392 . S
C676 C679 1.511 . S
C677 C673 1.376 . S
C677 C676 1.392 . S
C677 H689 0.929 . S
C678 C674 1.531 . S
C678 H690 0.960 . S
C678 H691 0.962 . S
C678 H692 0.960 . S
C679 C676 1.511 . S
C679 H693 0.961 . S
C679 H694 0.961 . S
C679 H695 0.961 . S
C680 C681 1.370 . S
C680 C682 1.363 . S
C680 H696 0.931 . S
C681 C680 1.370 . S
C681 C685 1.408 . S
C682 C680 1.363 . S
C682 C683 1.370 . S
C682 C686 1.524 . S
C683 C675 1.503 . S
C683 C682 1.370 . S
C683 C684 1.403 . S
C684 C683 1.403 . S
C684 C685 1.404 . S
C684 C687 1.539 . S
C685 C681 1.408 . S
C685 C684 1.404 . S
C685 H697 0.930 . S
C686 C682 1.524 . S
C686 H698 0.956 . S
C686 H699 0.961 . S
C686 H700 0.961 . S
C687 C684 1.539 . S
C687 H701 0.958 . S
C687 H702 0.961 . S
C687 H703 0.960 . S
H688 C672 0.931 . S
H689 C677 0.929 . S
H690 C678 0.960 . S
H691 C678 0.962 . S
H692 C678 0.960 . S
H693 C679 0.961 . S
H694 C679 0.961 . S
H695 C679 0.961 . S
H696 C680 0.931 . S
H697 C685 0.930 . S
H698 C686 0.956 . S
H699 C686 0.961 . S
H700 C686 0.961 . S
H701 C687 0.958 . S
H702 C687 0.961 . S
H703 C687 0.960 . S
C704 C705 1.391 . S
C704 C706 1.394 . S
C704 H720 0.931 . S
C705 C704 1.391 . S
C705 C709 1.376 . S
C706 C704 1.394 . S
C706 C707 1.369 . S
C706 C710 1.531 . S
C707 C706 1.369 . S
C707 C708 1.410 . S
C707 C715 1.503 . S
C708 C707 1.410 . S
C708 C709 1.392 . S
C708 C711 1.511 . S
C709 C705 1.376 . S
C709 C708 1.392 . S
C709 H721 0.929 . S
C710 C706 1.531 . S
C710 H722 0.960 . S
C710 H723 0.962 . S
C710 H724 0.960 . S
C711 C708 1.511 . S
C711 H725 0.961 . S
C711 H726 0.961 . S
C711 H727 0.961 . S
C712 C713 1.370 . S
C712 C714 1.363 . S
C712 H728 0.931 . S
C713 C712 1.370 . S
C713 C717 1.408 . S
C714 C712 1.363 . S
C714 C715 1.370 . S
C714 C718 1.524 . S
C715 C707 1.503 . S
C715 C714 1.370 . S
C715 C716 1.403 . S
C716 C715 1.403 . S
C716 C717 1.404 . S
C716 C719 1.539 . S
C717 C713 1.408 . S
C717 C716 1.404 . S
C717 H729 0.930 . S
C718 C714 1.524 . S
C718 H730 0.956 . S
C718 H731 0.961 . S
C718 H732 0.961 . S
C719 C716 1.539 . S
C719 H733 0.958 . S
C719 H734 0.961 . S
C719 H735 0.960 . S
H720 C704 0.931 . S
H721 C709 0.929 . S
H722 C710 0.960 . S
H723 C710 0.962 . S
H724 C710 0.960 . S
H725 C711 0.961 . S
H726 C711 0.961 . S
H727 C711 0.961 . S
H728 C712 0.931 . S
H729 C717 0.930 . S
H730 C718 0.956 . S
H731 C718 0.961 . S
H732 C718 0.961 . S
H733 C719 0.958 . S
H734 C719 0.961 . S
H735 C719 0.960 . S
C736 C737 1.391 . S
C736 C738 1.394 . S
C736 H752 0.931 . S
C737 C736 1.391 . S
C737 C741 1.376 . S
C738 C736 1.394 . S
C738 C739 1.369 . S
C738 C742 1.531 . S
C739 C738 1.369 . S
C739 C740 1.410 . S
C739 C747 1.503 . S
C740 C739 1.410 . S
C740 C741 1.392 . S
C740 C743 1.511 . S
C741 C737 1.376 . S
C741 C740 1.392 . S
C741 H753 0.929 . S
C742 C738 1.531 . S
C742 H754 0.960 . S
C742 H755 0.962 . S
C742 H756 0.960 . S
C743 C740 1.511 . S
C743 H757 0.961 . S
C743 H758 0.961 . S
C743 H759 0.961 . S
C744 C745 1.370 . S
C744 C746 1.363 . S
C744 H760 0.931 1_455 S
C745 C744 1.370 . S
C745 C749 1.408 . S
C746 C744 1.363 . S
C746 C747 1.370 . S
C746 C750 1.524 1_455 S
C747 C739 1.503 . S
C747 C746 1.370 . S
C747 C748 1.403 . S
C748 C747 1.403 . S
C748 C749 1.404 . S
C748 C751 1.539 . S
C749 C745 1.408 . S
C749 C748 1.404 . S
C749 H761 0.930 . S
C750 C746 1.524 1_655 S
C750 H762 0.957 1_655 S
C750 H763 0.961 . S
C750 H764 0.961 . S
C751 C748 1.539 . S
C751 H765 0.958 . S
C751 H766 0.961 . S
C751 H767 0.960 . S
H752 C736 0.931 . S
H753 C741 0.929 . S
H754 C742 0.960 . S
H755 C742 0.962 . S
H756 C742 0.960 . S
H757 C743 0.961 . S
H758 C743 0.961 . S
H759 C743 0.961 . S
H760 C744 0.931 1_655 S
H761 C749 0.930 . S
H762 C750 0.957 1_455 S
H763 C750 0.961 . S
H764 C750 0.961 . S
H765 C751 0.958 . S
H766 C751 0.961 . S
H767 C751 0.960 . S
C768 C769 1.391 . S
C768 C770 1.394 . S
C768 H784 0.931 . S
C769 C768 1.391 . S
C769 C773 1.376 . S
C770 C768 1.394 . S
C770 C771 1.369 . S
C770 C774 1.531 . S
C771 C770 1.369 . S
C771 C772 1.410 . S
C771 C779 1.503 1_554 S
C772 C771 1.410 . S
C772 C773 1.392 . S
C772 C775 1.511 1_554 S
C773 C769 1.376 . S
C773 C772 1.392 . S
C773 H785 0.929 . S
C774 C770 1.531 . S
C774 H786 0.960 1_554 S
C774 H787 0.962 . S
C774 H788 0.960 . S
C775 C772 1.511 1_556 S
C775 H789 0.941 1_566 S
C775 H790 0.961 . S
C775 H791 0.961 . S
C776 C777 1.370 . S
C776 C778 1.363 . S
C776 H792 0.931 1_565 S
C777 C776 1.370 . S
C777 C781 1.408 . S
C778 C776 1.363 . S
C778 C779 1.370 . S
C778 C782 1.524 1_565 S
C779 C771 1.503 1_556 S
C779 C778 1.370 . S
C779 C780 1.403 . S
C780 C779 1.403 . S
C780 C781 1.404 . S
C780 C783 1.539 . S
C781 C777 1.408 . S
C781 C780 1.404 . S
C781 H793 0.930 . S
C782 C778 1.524 1_545 S
C782 H794 0.953 1_546 S
C782 H795 0.961 1_556 S
C782 H796 0.961 . S
C783 C780 1.539 . S
C783 H797 0.958 . S
C783 H798 0.961 . S
C783 H799 0.960 . S
H784 C768 0.931 . S
H785 C773 0.929 . S
H786 C774 0.960 1_556 S
H787 C774 0.962 . S
H788 C774 0.960 . S
H789 C775 0.941 1_544 S
H790 C775 0.961 . S
H791 C775 0.961 . S
H792 C776 0.931 1_545 S
H793 C781 0.930 . S
H794 C782 0.953 1_564 S
H795 C782 0.961 1_554 S
H796 C782 0.961 . S
H797 C783 0.958 . S
H798 C783 0.961 . S
H799 C783 0.960 . S
C800 C801 1.391 . S
C800 C802 1.394 1_554 S
C800 H816 0.931 . S
C801 C800 1.391 . S
C801 C805 1.376 . S
C802 C800 1.394 1_556 S
C802 C803 1.369 . S
C802 C806 1.531 . S
C803 C802 1.369 . S
C803 C804 1.410 1_556 S
C803 C811 1.503 . S
C804 C803 1.410 1_554 S
C804 C805 1.392 . S
C804 C807 1.511 1_554 S
C805 C801 1.376 . S
C805 C804 1.392 . S
C805 H817 0.929 . S
C806 C802 1.531 . S
C806 H818 0.960 . S
C806 H819 0.962 . S
C806 H820 0.960 . S
C807 C804 1.511 1_556 S
C807 H821 0.961 1_556 S
C807 H822 0.961 . S
C807 H823 0.961 1_556 S
C808 C809 1.370 . S
C808 C810 1.363 . S
C808 H824 0.931 . S
C809 C808 1.370 . S
C809 C813 1.408 . S
C810 C808 1.363 . S
C810 C811 1.370 . S
C810 C814 1.524 . S
C811 C803 1.503 . S
C811 C810 1.370 . S
C811 C812 1.403 . S
C812 C811 1.403 . S
C812 C813 1.404 . S
C812 C815 1.539 . S
C813 C809 1.408 . S
C813 C812 1.404 . S
C813 H825 0.930 . S
C814 C810 1.524 . S
C814 H826 0.956 . S
C814 H827 0.961 . S
C814 H828 0.961 . S
C815 C812 1.539 . S
C815 H829 0.958 . S
C815 H830 0.961 . S
C815 H831 0.960 . S
H816 C800 0.931 . S
H817 C805 0.929 . S
H818 C806 0.960 . S
H819 C806 0.962 . S
H820 C806 0.960 . S
H821 C807 0.961 1_554 S
H822 C807 0.961 . S
H823 C807 0.961 1_554 S
H824 C808 0.931 . S
H825 C813 0.930 . S
H826 C814 0.956 . S
H827 C814 0.961 . S
H828 C814 0.961 . S
H829 C815 0.958 . S
H830 C815 0.961 . S
H831 C815 0.960 . S
C832 C833 1.391 . S
C832 C834 1.385 1_554 S
C832 H848 0.931 . S
C833 C832 1.391 . S
C833 C837 1.376 . S
C834 C832 1.385 1_556 S
C834 C835 1.376 . S
C834 C838 1.532 . S
C835 C834 1.376 . S
C835 C836 1.410 . S
C835 C843 1.503 . S
C836 C835 1.410 . S
C836 C837 1.392 1_556 S
C836 C839 1.511 . S
C837 C833 1.376 . S
C837 C836 1.392 1_554 S
C837 H849 0.929 . S
C838 C834 1.532 . S
C838 H850 0.960 . S
C838 H851 0.962 . S
C838 H852 0.960 1_556 S
C839 C836 1.511 . S
C839 H853 0.961 . S
C839 H854 0.961 . S
C839 H855 0.961 . S
C840 C841 1.370 . S
C840 C842 1.363 . S
C840 H856 0.931 . S
C841 C840 1.370 . S
C841 C845 1.408 . S
C842 C840 1.363 . S
C842 C843 1.370 . S
C842 C846 1.524 . S
C843 C835 1.503 . S
C843 C842 1.370 . S
C843 C844 1.403 . S
C844 C843 1.403 . S
C844 C845 1.404 . S
C844 C847 1.539 . S
C845 C841 1.408 . S
C845 C844 1.404 . S
C845 H857 0.930 . S
C846 C842 1.524 . S
C846 H858 0.956 . S
C846 H859 0.961 . S
C846 H860 0.961 . S
C847 C844 1.539 . S
C847 H861 0.958 . S
C847 H862 0.961 . S
C847 H863 0.960 . S
H848 C832 0.931 . S
H849 C837 0.929 . S
H850 C838 0.960 . S
H851 C838 0.962 . S
H852 C838 0.960 1_554 S
H853 C839 0.961 . S
H854 C839 0.961 . S
H855 C839 0.961 . S
H856 C840 0.931 . S
H857 C845 0.930 . S
H858 C846 0.956 . S
H859 C846 0.961 . S
H860 C846 0.961 . S
H861 C847 0.958 . S
H862 C847 0.961 . S
H863 C847 0.960 . S
C864 C865 1.391 . S
C864 C866 1.394 . S
C864 H880 0.931 . S
C865 C864 1.391 . S
C865 C869 1.376 . S
C866 C864 1.394 . S
C866 C867 1.369 1_554 S
C866 C870 1.531 1_655 S
C867 C866 1.369 1_556 S
C867 C868 1.410 . S
C867 C875 1.503 . S
C868 C867 1.410 . S
C868 C869 1.392 1_556 S
C868 C871 1.511 . S
C869 C865 1.376 . S
C869 C868 1.392 1_554 S
C869 H881 0.929 . S
C870 C866 1.531 1_455 S
C870 H882 0.969 . S
C870 H883 0.962 . S
C870 H884 0.960 . S
C871 C868 1.511 . S
C871 H885 0.961 . S
C871 H886 0.961 . S
C871 H887 0.961 . S
C872 C873 1.370 1_455 S
C872 C874 1.363 1_455 S
C872 H888 0.931 . S
C873 C872 1.370 1_655 S
C873 C877 1.408 . S
C874 C872 1.363 1_655 S
C874 C875 1.370 . S
C874 C878 1.524 1_655 S
C875 C867 1.503 . S
C875 C874 1.370 . S
C875 C876 1.403 . S
C876 C875 1.403 . S
C876 C877 1.404 . S
C876 C879 1.539 . S
C877 C873 1.408 . S
C877 C876 1.404 . S
C877 H889 0.930 . S
C878 C874 1.524 1_455 S
C878 H890 0.956 . S
C878 H891 0.961 1_455 S
C878 H892 0.961 . S
C879 C876 1.539 . S
C879 H893 0.958 . S
C879 H894 0.961 . S
C879 H895 0.960 . S
H880 C864 0.931 . S
H881 C869 0.929 . S
H882 C870 0.969 . S
H883 C870 0.962 . S
H884 C870 0.960 . S
H885 C871 0.961 . S
H886 C871 0.961 . S
H887 C871 0.961 . S
H888 C872 0.931 . S
H889 C877 0.930 . S
H890 C878 0.956 . S
H891 C878 0.961 1_655 S
H892 C878 0.961 . S
H893 C879 0.958 . S
H894 C879 0.961 . S
H895 C879 0.960 . S
C896 C897 1.391 . S
C896 C898 1.394 . S
C896 H912 0.931 . S
C897 C896 1.391 . S
C897 C901 1.376 . S
C898 C896 1.394 . S
C898 C899 1.369 . S
C898 C902 1.531 . S
C899 C898 1.369 . S
C899 C900 1.410 . S
C899 C907 1.503 . S
C900 C899 1.410 . S
C900 C901 1.392 . S
C900 C903 1.511 . S
C901 C897 1.376 . S
C901 C900 1.392 . S
C901 H913 0.929 . S
C902 C898 1.531 . S
C902 H914 0.960 . S
C902 H915 0.962 1_455 S
C902 H916 0.960 . S
C903 C900 1.511 . S
C903 H917 0.961 . S
C903 H918 0.961 . S
C903 H919 0.961 . S
C904 C905 1.370 . S
C904 C906 1.363 1_655 S
C904 H920 0.931 . S
C905 C904 1.370 . S
C905 C909 1.408 1_655 S
C906 C904 1.363 1_455 S
C906 C907 1.370 . S
C906 C910 1.524 . S
C907 C899 1.503 . S
C907 C906 1.370 . S
C907 C908 1.403 . S
C908 C907 1.403 . S
C908 C909 1.404 . S
C908 C911 1.539 . S
C909 C905 1.408 1_455 S
C909 C908 1.404 . S
C909 H921 0.930 . S
C910 C906 1.524 . S
C910 H922 0.956 1_455 S
C910 H923 0.961 . S
C910 H924 0.961 1_455 S
C911 C908 1.539 . S
C911 H925 0.958 . S
C911 H926 0.961 . S
C911 H927 0.960 . S
H912 C896 0.931 . S
H913 C901 0.929 . S
H914 C902 0.960 . S
H915 C902 0.962 1_655 S
H916 C902 0.960 . S
H917 C903 0.961 . S
H918 C903 0.961 . S
H919 C903 0.961 . S
H920 C904 0.931 . S
H921 C909 0.930 . S
H922 C910 0.956 1_655 S
H923 C910 0.961 . S
H924 C910 0.961 1_655 S
H925 C911 0.958 . S
H926 C911 0.961 . S
H927 C911 0.960 . S
C928 C929 1.391 . S
C928 C930 1.394 . S
C928 H944 0.931 . S
C929 C928 1.391 . S
C929 C933 1.376 . S
C930 C928 1.394 . S
C930 C931 1.369 . S
C930 C934 1.531 1_545 S
C931 C930 1.369 . S
C931 C932 1.410 . S
C931 C939 1.503 . S
C932 C931 1.410 . S
C932 C933 1.392 . S
C932 C935 1.511 . S
C933 C929 1.376 . S
C933 C932 1.392 . S
C933 H945 0.929 . S
C934 C930 1.531 1_565 S
C934 H946 0.960 . S
C934 H947 0.962 . S
C934 H948 0.960 . S
C935 C932 1.511 . S
C935 H949 0.961 . S
C935 H950 0.961 . S
C935 H951 0.961 . S
C936 C937 1.370 1_545 S
C936 C938 1.363 . S
C936 H952 0.931 1_545 S
C937 C936 1.370 1_565 S
C937 C941 1.408 1_565 S
C938 C936 1.363 . S
C938 C939 1.370 . S
C938 C942 1.524 . S
C939 C931 1.503 . S
C939 C938 1.370 . S
C939 C940 1.403 . S
C940 C939 1.403 . S
C940 C941 1.404 . S
C940 C943 1.539 . S
C941 C937 1.408 1_545 S
C941 C940 1.404 . S
C941 H953 0.930 . S
C942 C938 1.524 . S
C942 H954 0.956 . S
C942 H955 0.961 . S
C942 H956 0.961 . S
C943 C940 1.539 . S
C943 H957 0.958 . S
C943 H958 0.961 . S
C943 H959 0.960 . S
H944 C928 0.931 . S
H945 C933 0.929 . S
H946 C934 0.960 . S
H947 C934 0.962 . S
H948 C934 0.960 . S
H949 C935 0.961 . S
H950 C935 0.961 . S
H951 C935 0.961 . S
H952 C936 0.931 1_565 S
H953 C941 0.930 . S
H954 C942 0.956 . S
H955 C942 0.961 . S
H956 C942 0.961 . S
H957 C943 0.958 . S
H958 C943 0.961 . S
H959 C943 0.960 . S
C960 C961 1.391 . S
C960 C962 1.394 . S
C960 H976 0.931 . S
C961 C960 1.391 . S
C961 C965 1.376 . S
C962 C960 1.394 . S
C962 C963 1.369 . S
C962 C966 1.531 . S
C963 C962 1.369 . S
C963 C964 1.410 . S
C963 C971 1.503 . S
C964 C963 1.410 . S
C964 C965 1.392 . S
C964 C967 1.511 . S
C965 C961 1.376 . S
C965 C964 1.392 . S
C965 H977 0.929 . S
C966 C962 1.531 . S
C966 H978 0.960 . S
C966 H979 0.962 . S
C966 H980 0.960 . S
C967 C964 1.511 . S
C967 H981 0.961 . S
C967 H982 0.961 . S
C967 H983 0.961 . S
C968 C969 1.370 . S
C968 C970 1.363 . S
C968 H984 0.931 . S
C969 C968 1.370 . S
C969 C973 1.408 . S
C970 C968 1.363 . S
C970 C971 1.370 . S
C970 C974 1.524 . S
C971 C963 1.503 . S
C971 C970 1.370 . S
C971 C972 1.403 . S
C972 C971 1.403 . S
C972 C973 1.404 . S
C972 C975 1.539 . S
C973 C969 1.408 . S
C973 C972 1.404 . S
C973 H985 0.930 . S
C974 C970 1.524 . S
C974 H986 0.956 . S
C974 H987 0.961 . S
C974 H988 0.961 . S
C975 C972 1.539 . S
C975 H989 0.958 . S
C975 H990 0.961 . S
C975 H991 0.960 . S
H976 C960 0.931 . S
H977 C965 0.929 . S
H978 C966 0.960 . S
H979 C966 0.962 . S
H980 C966 0.960 . S
H981 C967 0.961 . S
H982 C967 0.961 . S
H983 C967 0.961 . S
H984 C968 0.931 . S
H985 C973 0.930 . S
H986 C974 0.956 . S
H987 C974 0.961 . S
H988 C974 0.961 . S
H989 C975 0.958 . S
H990 C975 0.961 . S
H991 C975 0.960 . S
C992 C993 1.391 . S
C992 C994 1.394 . S
C992 H1008 0.931 . S
C993 C992 1.391 . S
C993 C997 1.376 . S
C994 C992 1.394 . S
C994 C995 1.369 . S
C994 C998 1.531 . S
C995 C994 1.369 . S
C995 C996 1.410 . S
C995 C1003 1.503 . S
C996 C995 1.410 . S
C996 C997 1.392 . S
C996 C999 1.511 . S
C997 C993 1.376 . S
C997 C996 1.392 . S
C997 H1009 0.929 . S
C998 C994 1.531 . S
C998 H1010 0.960 . S
C998 H1011 0.962 . S
C998 H1012 0.960 . S
C999 C996 1.511 . S
C999 H1013 0.961 . S
C999 H1014 0.961 . S
C999 H1015 0.961 . S
C1000 C1001 1.370 . S
C1000 C1002 1.363 . S
C1000 H1016 0.931 . S
C1001 C1000 1.370 . S
C1001 C1005 1.408 . S
C1002 C1000 1.363 . S
C1002 C1003 1.370 . S
C1002 C1006 1.524 . S
C1003 C995 1.503 . S
C1003 C1002 1.370 . S
C1003 C1004 1.403 . S
C1004 C1003 1.403 . S
C1004 C1005 1.404 . S
C1004 C1007 1.539 . S
C1005 C1001 1.408 . S
C1005 C1004 1.404 . S
C1005 H1017 0.930 . S
C1006 C1002 1.524 . S
C1006 H1018 0.956 . S
C1006 H1019 0.961 . S
C1006 H1020 0.961 . S
C1007 C1004 1.539 . S
C1007 H1021 0.958 . S
C1007 H1022 0.961 . S
C1007 H1023 0.960 . S
H1008 C992 0.931 . S
H1009 C997 0.929 . S
H1010 C998 0.960 . S
H1011 C998 0.962 . S
H1012 C998 0.960 . S
H1013 C999 0.961 . S
H1014 C999 0.961 . S
H1015 C999 0.961 . S
H1016 C1000 0.931 . S
H1017 C1005 0.930 . S
H1018 C1006 0.956 . S
H1019 C1006 0.961 . S
H1020 C1006 0.961 . S
H1021 C1007 0.958 . S
H1022 C1007 0.961 . S
H1023 C1007 0.960 . S
C1024 C1025 1.391 . S
C1024 C1026 1.394 . S
C1024 H1040 0.931 . S
C1025 C1024 1.391 . S
C1025 C1029 1.376 . S
C1026 C1024 1.394 . S
C1026 C1027 1.369 . S
C1026 C1030 1.531 . S
C1027 C1026 1.369 . S
C1027 C1028 1.410 . S
C1027 C1035 1.503 . S
C1028 C1027 1.410 . S
C1028 C1029 1.392 . S
C1028 C1031 1.511 1_655 S
C1029 C1025 1.376 . S
C1029 C1028 1.392 . S
C1029 H1041 0.929 . S
C1030 C1026 1.531 . S
C1030 H1042 0.960 . S
C1030 H1043 0.962 . S
C1030 H1044 0.960 . S
C1031 C1028 1.511 1_455 S
C1031 H1045 0.961 1_554 S
C1031 H1046 0.961 1_554 S
C1031 H1047 0.961 . S
C1032 C1033 1.370 . S
C1032 C1034 1.363 1_455 S
C1032 H1048 0.931 1_455 S
C1033 C1032 1.370 . S
C1033 C1037 1.408 1_556 S
C1034 C1032 1.363 1_655 S
C1034 C1035 1.370 1_556 S
C1034 C1038 1.524 . S
C1035 C1027 1.503 . S
C1035 C1034 1.370 1_554 S
C1035 C1036 1.403 1_655 S
C1036 C1035 1.403 1_455 S
C1036 C1037 1.404 . S
C1036 C1039 1.539 . S
C1037 C1033 1.408 1_554 S
C1037 C1036 1.404 . S
C1037 H1049 0.930 . S
C1038 C1034 1.524 . S
C1038 H1050 0.956 . S
C1038 H1051 0.961 . S
C1038 H1052 0.961 . S
C1039 C1036 1.539 . S
C1039 H1053 0.958 . S
C1039 H1054 0.961 . S
C1039 H1055 0.960 . S
H1040 C1024 0.931 . S
H1041 C1029 0.929 . S
H1042 C1030 0.960 . S
H1043 C1030 0.962 . S
H1044 C1030 0.960 . S
H1045 C1031 0.961 1_556 S
H1046 C1031 0.961 1_556 S
H1047 C1031 0.961 . S
H1048 C1032 0.931 1_655 S
H1049 C1037 0.930 . S
H1050 C1038 0.956 . S
H1051 C1038 0.961 . S
H1052 C1038 0.961 . S
H1053 C1039 0.958 . S
H1054 C1039 0.961 . S
H1055 C1039 0.960 . S
C1056 C1057 1.391 . S
C1056 C1058 1.394 1_554 S
C1056 H1072 0.931 . S
C1057 C1056 1.391 . S
C1057 C1061 1.376 . S
C1058 C1056 1.394 1_556 S
C1058 C1059 1.369 . S
C1058 C1062 1.531 1_565 S
C1059 C1058 1.369 . S
C1059 C1060 1.410 1_556 S
C1059 C1067 1.503 . S
C1060 C1059 1.410 1_554 S
C1060 C1061 1.392 . S
C1060 C1063 1.511 1_554 S
C1061 C1057 1.376 . S
C1061 C1060 1.392 . S
C1061 H1073 0.929 . S
C1062 C1058 1.531 1_545 S
C1062 H1074 0.960 . S
C1062 H1075 0.962 . S
C1062 H1076 0.960 . S
C1063 C1060 1.511 1_556 S
C1063 H1077 0.961 1_556 S
C1063 H1078 0.961 . S
C1063 H1079 0.961 . S
C1064 C1065 1.370 . S
C1064 C1066 1.363 . S
C1064 H1080 0.931 . S
C1065 C1064 1.370 . S
C1065 C1069 1.408 1_545 S
C1066 C1064 1.363 . S
C1066 C1067 1.370 1_545 S
C1066 C1070 1.524 1_556 S
C1067 C1059 1.503 . S
C1067 C1066 1.370 1_565 S
C1067 C1068 1.403 . S
C1068 C1067 1.403 . S
C1068 C1069 1.404 . S
C1068 C1071 1.539 . S
C1069 C1065 1.408 1_565 S
C1069 C1068 1.404 . S
C1069 H1081 0.930 . S
C1070 C1066 1.524 1_554 S
C1070 H1082 0.956 . S
C1070 H1083 0.961 1_545 S
C1070 H1084 0.961 . S
C1071 C1068 1.539 . S
C1071 H1085 0.958 . S
C1071 H1086 0.961 . S
C1071 H1087 0.960 . S
H1072 C1056 0.931 . S
H1073 C1061 0.929 . S
H1074 C1062 0.960 . S
H1075 C1062 0.962 . S
H1076 C1062 0.960 . S
H1077 C1063 0.961 1_554 S
H1078 C1063 0.961 . S
H1079 C1063 0.961 . S
H1080 C1064 0.931 . S
H1081 C1069 0.930 . S
H1082 C1070 0.956 . S
H1083 C1070 0.961 1_565 S
H1084 C1070 0.961 . S
H1085 C1071 0.958 . S
H1086 C1071 0.961 . S
H1087 C1071 0.960 . S
C1088 C1089 1.391 1_556 S
C1088 C1090 1.394 . S
C1088 H1104 0.931 . S
C1089 C1088 1.391 1_554 S
C1089 C1093 1.376 . S
C1090 C1088 1.394 . S
C1090 C1091 1.369 . S
C1090 C1094 1.531 . S
C1091 C1090 1.369 . S
C1091 C1092 1.410 . S
C1091 C1099 1.503 . S
C1092 C1091 1.410 . S
C1092 C1093 1.392 1_556 S
C1092 C1095 1.511 . S
C1093 C1089 1.376 . S
C1093 C1092 1.392 1_554 S
C1093 H1105 0.929 . S
C1094 C1090 1.531 . S
C1094 H1106 0.960 . S
C1094 H1107 0.962 . S
C1094 H1108 0.960 . S
C1095 C1092 1.511 . S
C1095 H1109 0.961 1_556 S
C1095 H1110 0.961 . S
C1095 H1111 0.961 . S
C1096 C1097 1.370 . S
C1096 C1098 1.363 . S
C1096 H1112 0.931 . S
C1097 C1096 1.370 . S
C1097 C1101 1.408 . S
C1098 C1096 1.363 . S
C1098 C1099 1.370 . S
C1098 C1102 1.524 . S
C1099 C1091 1.503 . S
C1099 C1098 1.370 . S
C1099 C1100 1.403 . S
C1100 C1099 1.403 . S
C1100 C1101 1.404 . S
C1100 C1103 1.539 . S
C1101 C1097 1.408 . S
C1101 C1100 1.404 . S
C1101 H1113 0.930 . S
C1102 C1098 1.524 . S
C1102 H1114 0.956 . S
C1102 H1115 0.961 1_556 S
C1102 H1116 0.961 1_556 S
C1103 C1100 1.539 . S
C1103 H1117 0.958 . S
C1103 H1118 0.961 . S
C1103 H1119 0.960 . S
H1104 C1088 0.931 . S
H1105 C1093 0.929 . S
H1106 C1094 0.960 . S
H1107 C1094 0.962 . S
H1108 C1094 0.960 . S
H1109 C1095 0.961 1_554 S
H1110 C1095 0.961 . S
H1111 C1095 0.961 . S
H1112 C1096 0.931 . S
H1113 C1101 0.930 . S
H1114 C1102 0.956 . S
H1115 C1102 0.961 1_554 S
H1116 C1102 0.961 1_554 S
H1117 C1103 0.958 . S
H1118 C1103 0.961 . S
H1119 C1103 0.960 . S
C1120 C1121 1.391 1_556 S
C1120 C1122 1.394 . S
C1120 H1136 0.931 . S
C1121 C1120 1.391 1_554 S
C1121 C1125 1.376 . S
C1122 C1120 1.394 . S
C1122 C1123 1.369 . S
C1122 C1126 1.531 . S
C1123 C1122 1.369 . S
C1123 C1124 1.410 1_556 S
C1123 C1131 1.503 . S
C1124 C1123 1.410 1_554 S
C1124 C1125 1.392 . S
C1124 C1127 1.511 . S
C1125 C1121 1.376 . S
C1125 C1124 1.392 . S
C1125 H1137 0.929 . S
C1126 C1122 1.531 . S
C1126 H1138 0.960 . S
C1126 H1139 0.962 . S
C1126 H1140 0.960 . S
C1127 C1124 1.511 . S
C1127 H1141 0.961 . S
C1127 H1142 0.961 . S
C1127 H1143 0.961 1_554 S
C1128 C1129 1.370 . S
C1128 C1130 1.363 . S
C1128 H1144 0.931 1_556 S
C1129 C1128 1.370 . S
C1129 C1133 1.408 . S
C1130 C1128 1.363 . S
C1130 C1131 1.370 . S
C1130 C1134 1.524 1_556 S
C1131 C1123 1.503 . S
C1131 C1130 1.370 . S
C1131 C1132 1.403 . S
C1132 C1131 1.403 . S
C1132 C1133 1.404 . S
C1132 C1135 1.539 . S
C1133 C1129 1.408 . S
C1133 C1132 1.404 . S
C1133 H1145 0.930 . S
C1134 C1130 1.524 1_554 S
C1134 H1146 0.956 . S
C1134 H1147 0.961 . S
C1134 H1148 0.961 . S
C1135 C1132 1.539 . S
C1135 H1149 0.958 . S
C1135 H1150 0.961 . S
C1135 H1151 0.960 . S
H1136 C1120 0.931 . S
H1137 C1125 0.929 . S
H1138 C1126 0.960 . S
H1139 C1126 0.962 . S
H1140 C1126 0.960 . S
H1141 C1127 0.961 . S
H1142 C1127 0.961 . S
H1143 C1127 0.961 1_556 S
H1144 C1128 0.931 1_554 S
H1145 C1133 0.930 . S
H1146 C1134 0.956 . S
H1147 C1134 0.961 . S
H1148 C1134 0.961 . S
H1149 C1135 0.958 . S
H1150 C1135 0.961 . S
H1151 C1135 0.960 . S
C1152 C1153 1.391 . S
C1152 C1154 1.394 . S
C1152 H1168 0.931 . S
C1153 C1152 1.391 . S
C1153 C1157 1.376 . S
C1154 C1152 1.394 . S
C1154 C1155 1.369 . S
C1154 C1158 1.531 . S
C1155 C1154 1.369 . S
C1155 C1156 1.410 . S
C1155 C1163 1.503 . S
C1156 C1155 1.410 . S
C1156 C1157 1.392 . S
C1156 C1159 1.511 1_455 S
C1157 C1153 1.376 . S
C1157 C1156 1.392 . S
C1157 H1169 0.929 . S
C1158 C1154 1.531 . S
C1158 H1170 0.960 . S
C1158 H1171 0.962 . S
C1158 H1172 0.960 . S
C1159 C1156 1.511 1_655 S
C1159 H1173 0.961 . S
C1159 H1174 0.961 . S
C1159 H1175 0.961 . S
C1160 C1161 1.370 . S
C1160 C1162 1.363 . S
C1160 H1176 0.931 . S
C1161 C1160 1.370 . S
C1161 C1165 1.408 . S
C1162 C1160 1.363 . S
C1162 C1163 1.370 . S
C1162 C1166 1.524 . S
C1163 C1155 1.503 . S
C1163 C1162 1.370 . S
C1163 C1164 1.403 . S
C1164 C1163 1.403 . S
C1164 C1165 1.404 . S
C1164 C1167 1.539 . S
C1165 C1161 1.408 . S
C1165 C1164 1.404 . S
C1165 H1177 0.930 . S
C1166 C1162 1.524 . S
C1166 H1178 0.956 . S
C1166 H1179 0.961 . S
C1166 H1180 0.961 . S
C1167 C1164 1.539 . S
C1167 H1181 0.958 . S
C1167 H1182 0.961 . S
C1167 H1183 0.960 . S
H1168 C1152 0.931 . S
H1169 C1157 0.929 . S
H1170 C1158 0.960 . S
H1171 C1158 0.962 . S
H1172 C1158 0.960 . S
H1173 C1159 0.961 . S
H1174 C1159 0.961 . S
H1175 C1159 0.961 . S
H1176 C1160 0.931 . S
H1177 C1165 0.930 . S
H1178 C1166 0.956 . S
H1179 C1166 0.961 . S
H1180 C1166 0.961 . S
H1181 C1167 0.958 . S
H1182 C1167 0.961 . S
H1183 C1167 0.960 . S
C1184 C1185 1.391 . S
C1184 C1186 1.394 . S
C1184 H1200 0.931 . S
C1185 C1184 1.391 . S
C1185 C1189 1.376 . S
C1186 C1184 1.394 . S
C1186 C1187 1.369 . S
C1186 C1190 1.531 . S
C1187 C1186 1.369 . S
C1187 C1188 1.410 . S
C1187 C1195 1.503 . S
C1188 C1187 1.410 . S
C1188 C1189 1.392 . S
C1188 C1191 1.511 . S
C1189 C1185 1.376 . S
C1189 C1188 1.392 . S
C1189 H1201 0.929 . S
C1190 C1186 1.531 . S
C1190 H1202 0.960 . S
C1190 H1203 0.962 . S
C1190 H1204 0.960 . S
C1191 C1188 1.511 . S
C1191 H1205 0.961 . S
C1191 H1206 0.961 . S
C1191 H1207 0.961 . S
C1192 C1193 1.370 . S
C1192 C1194 1.363 . S
C1192 H1208 0.931 . S
C1193 C1192 1.370 . S
C1193 C1197 1.408 . S
C1194 C1192 1.363 . S
C1194 C1195 1.370 . S
C1194 C1198 1.524 . S
C1195 C1187 1.503 . S
C1195 C1194 1.370 . S
C1195 C1196 1.403 . S
C1196 C1195 1.403 . S
C1196 C1197 1.404 . S
C1196 C1199 1.539 . S
C1197 C1193 1.408 . S
C1197 C1196 1.404 . S
C1197 H1209 0.930 . S
C1198 C1194 1.524 . S
C1198 H1210 0.955 1_545 S
C1198 H1211 0.961 . S
C1198 H1212 0.961 1_545 S
C1199 C1196 1.539 . S
C1199 H1213 0.958 . S
C1199 H1214 0.961 . S
C1199 H1215 0.960 . S
H1200 C1184 0.931 . S
H1201 C1189 0.929 . S
H1202 C1190 0.960 . S
H1203 C1190 0.962 . S
H1204 C1190 0.960 . S
H1205 C1191 0.961 . S
H1206 C1191 0.961 . S
H1207 C1191 0.961 . S
H1208 C1192 0.931 . S
H1209 C1197 0.930 . S
H1210 C1198 0.955 1_565 S
H1211 C1198 0.961 . S
H1212 C1198 0.961 1_565 S
H1213 C1199 0.958 . S
H1214 C1199 0.961 . S
H1215 C1199 0.960 . S
C1216 C1217 1.391 . S
C1216 C1218 1.394 . S
C1216 H1232 0.931 . S
C1217 C1216 1.391 . S
C1217 C1221 1.376 . S
C1218 C1216 1.394 . S
C1218 C1219 1.369 . S
C1218 C1222 1.531 . S
C1219 C1218 1.369 . S
C1219 C1220 1.410 . S
C1219 C1227 1.503 . S
C1220 C1219 1.410 . S
C1220 C1221 1.392 . S
C1220 C1223 1.511 . S
C1221 C1217 1.376 . S
C1221 C1220 1.392 . S
C1221 H1233 0.929 . S
C1222 C1218 1.531 . S
C1222 H1234 0.960 . S
C1222 H1235 0.962 . S
C1222 H1236 0.960 . S
C1223 C1220 1.511 . S
C1223 H1237 0.961 . S
C1223 H1238 0.961 . S
C1223 H1239 0.961 . S
C1224 C1225 1.370 . S
C1224 C1226 1.363 . S
C1224 H1240 0.931 . S
C1225 C1224 1.370 . S
C1225 C1229 1.408 . S
C1226 C1224 1.363 . S
C1226 C1227 1.370 . S
C1226 C1230 1.524 . S
C1227 C1219 1.503 . S
C1227 C1226 1.370 . S
C1227 C1228 1.403 . S
C1228 C1227 1.403 . S
C1228 C1229 1.404 . S
C1228 C1231 1.539 . S
C1229 C1225 1.408 . S
C1229 C1228 1.404 . S
C1229 H1241 0.930 . S
C1230 C1226 1.524 . S
C1230 H1242 0.956 . S
C1230 H1243 0.961 . S
C1230 H1244 0.961 . S
C1231 C1228 1.539 . S
C1231 H1245 0.958 . S
C1231 H1246 0.961 . S
C1231 H1247 0.960 . S
H1232 C1216 0.931 . S
H1233 C1221 0.929 . S
H1234 C1222 0.960 . S
H1235 C1222 0.962 . S
H1236 C1222 0.960 . S
H1237 C1223 0.961 . S
H1238 C1223 0.961 . S
H1239 C1223 0.961 . S
H1240 C1224 0.931 . S
H1241 C1229 0.930 . S
H1242 C1230 0.956 . S
H1243 C1230 0.961 . S
H1244 C1230 0.961 . S
H1245 C1231 0.958 . S
H1246 C1231 0.961 . S
H1247 C1231 0.960 . S
C1248 C1249 1.391 . S
C1248 C1250 1.394 . S
C1248 H1264 0.931 . S
C1249 C1248 1.391 . S
C1249 C1253 1.376 . S
C1250 C1248 1.394 . S
C1250 C1251 1.369 . S
C1250 C1254 1.531 . S
C1251 C1250 1.369 . S
C1251 C1252 1.410 . S
C1251 C1259 1.503 . S
C1252 C1251 1.410 . S
C1252 C1253 1.392 . S
C1252 C1255 1.511 . S
C1253 C1249 1.376 . S
C1253 C1252 1.392 . S
C1253 H1265 0.929 . S
C1254 C1250 1.531 . S
C1254 H1266 0.960 . S
C1254 H1267 0.962 . S
C1254 H1268 0.960 . S
C1255 C1252 1.511 . S
C1255 H1269 0.961 . S
C1255 H1270 0.961 . S
C1255 H1271 0.961 . S
C1256 C1257 1.370 . S
C1256 C1258 1.363 . S
C1256 H1272 0.931 . S
C1257 C1256 1.370 . S
C1257 C1261 1.408 . S
C1258 C1256 1.363 . S
C1258 C1259 1.370 . S
C1258 C1262 1.524 . S
C1259 C1251 1.503 . S
C1259 C1258 1.370 . S
C1259 C1260 1.403 . S
C1260 C1259 1.403 . S
C1260 C1261 1.404 . S
C1260 C1263 1.539 . S
C1261 C1257 1.408 . S
C1261 C1260 1.404 . S
C1261 H1273 0.930 . S
C1262 C1258 1.524 . S
C1262 H1274 0.956 . S
C1262 H1275 0.961 . S
C1262 H1276 0.961 . S
C1263 C1260 1.539 . S
C1263 H1277 0.958 . S
C1263 H1278 0.961 . S
C1263 H1279 0.960 . S
H1264 C1248 0.931 . S
H1265 C1253 0.929 . S
H1266 C1254 0.960 . S
H1267 C1254 0.962 . S
H1268 C1254 0.960 . S
H1269 C1255 0.961 . S
H1270 C1255 0.961 . S
H1271 C1255 0.961 . S
H1272 C1256 0.931 . S
H1273 C1261 0.930 . S
H1274 C1262 0.956 . S
H1275 C1262 0.961 . S
H1276 C1262 0.961 . S
H1277 C1263 0.958 . S
H1278 C1263 0.961 . S
H1279 C1263 0.960 . S
C1280 C1281 1.391 . S
C1280 C1282 1.394 . S
C1280 H1296 0.931 . S
C1281 C1280 1.391 . S
C1281 C1285 1.376 . S
C1282 C1280 1.394 . S
C1282 C1283 1.369 . S
C1282 C1286 1.531 . S
C1283 C1282 1.369 . S
C1283 C1284 1.410 . S
C1283 C1291 1.503 . S
C1284 C1283 1.410 . S
C1284 C1285 1.392 . S
C1284 C1287 1.511 1_655 S
C1285 C1281 1.376 . S
C1285 C1284 1.392 . S
C1285 H1297 0.929 1_655 S
C1286 C1282 1.531 . S
C1286 H1298 0.960 . S
C1286 H1299 0.962 . S
C1286 H1300 0.960 . S
C1287 C1284 1.511 1_455 S
C1287 H1301 0.961 . S
C1287 H1302 0.961 . S
C1287 H1303 0.961 . S
C1288 C1289 1.370 . S
C1288 C1290 1.363 . S
C1288 H1304 0.931 . S
C1289 C1288 1.370 . S
C1289 C1293 1.408 . S
C1290 C1288 1.363 . S
C1290 C1291 1.370 . S
C1290 C1294 1.524 . S
C1291 C1283 1.503 . S
C1291 C1290 1.370 . S
C1291 C1292 1.403 . S
C1292 C1291 1.403 . S
C1292 C1293 1.404 . S
C1292 C1295 1.539 . S
C1293 C1289 1.408 . S
C1293 C1292 1.404 . S
C1293 H1305 0.930 . S
C1294 C1290 1.524 . S
C1294 H1306 0.956 . S
C1294 H1307 0.961 . S
C1294 H1308 0.961 . S
C1295 C1292 1.539 . S
C1295 H1309 0.958 . S
C1295 H1310 0.961 1_655 S
C1295 H1311 0.960 . S
H1296 C1280 0.931 . S
H1297 C1285 0.929 1_455 S
H1298 C1286 0.960 . S
H1299 C1286 0.962 . S
H1300 C1286 0.960 . S
H1301 C1287 0.961 . S
H1302 C1287 0.961 . S
H1303 C1287 0.961 . S
H1304 C1288 0.931 . S
H1305 C1293 0.930 . S
H1306 C1294 0.956 . S
H1307 C1294 0.961 . S
H1308 C1294 0.961 . S
H1309 C1295 0.958 . S
H1310 C1295 0.961 1_455 S
H1311 C1295 0.960 . S
C1312 C1313 1.391 . S
C1312 C1314 1.394 . S
C1312 H1328 0.931 . S
C1313 C1312 1.391 . S
C1313 C1317 1.376 . S
C1314 C1312 1.394 . S
C1314 C1315 1.369 . S
C1314 C1318 1.531 . S
C1315 C1314 1.369 . S
C1315 C1316 1.410 . S
C1315 C1323 1.503 . S
C1316 C1315 1.410 . S
C1316 C1317 1.392 . S
C1316 C1319 1.511 1_565 S
C1317 C1313 1.376 . S
C1317 C1316 1.392 . S
C1317 H1329 0.929 . S
C1318 C1314 1.531 . S
C1318 H1330 0.960 . S
C1318 H1331 0.962 . S
C1318 H1332 0.960 . S
C1319 C1316 1.511 1_545 S
C1319 H1333 0.961 . S
C1319 H1334 0.961 . S
C1319 H1335 0.961 . S
C1320 C1321 1.370 . S
C1320 C1322 1.363 . S
C1320 H1336 0.931 . S
C1321 C1320 1.370 . S
C1321 C1325 1.408 . S
C1322 C1320 1.363 . S
C1322 C1323 1.370 . S
C1322 C1326 1.524 . S
C1323 C1315 1.503 . S
C1323 C1322 1.370 . S
C1323 C1324 1.403 . S
C1324 C1323 1.403 . S
C1324 C1325 1.404 . S
C1324 C1327 1.539 . S
C1325 C1321 1.408 . S
C1325 C1324 1.404 . S
C1325 H1337 0.930 . S
C1326 C1322 1.524 . S
C1326 H1338 0.956 . S
C1326 H1339 0.961 . S
C1326 H1340 0.961 . S
C1327 C1324 1.539 . S
C1327 H1341 0.958 . S
C1327 H1342 0.961 . S
C1327 H1343 0.960 . S
H1328 C1312 0.931 . S
H1329 C1317 0.929 . S
H1330 C1318 0.960 . S
H1331 C1318 0.962 . S
H1332 C1318 0.960 . S
H1333 C1319 0.961 . S
H1334 C1319 0.961 . S
H1335 C1319 0.961 . S
H1336 C1320 0.931 . S
H1337 C1325 0.930 . S
H1338 C1326 0.956 . S
H1339 C1326 0.961 . S
H1340 C1326 0.961 . S
H1341 C1327 0.958 . S
H1342 C1327 0.961 . S
H1343 C1327 0.960 . S
C1344 C1345 1.391 . S
C1344 C1346 1.394 . S
C1344 H1360 0.931 . S
C1345 C1344 1.391 . S
C1345 C1349 1.376 . S
C1346 C1344 1.394 . S
C1346 C1347 1.369 . S
C1346 C1350 1.531 . S
C1347 C1346 1.369 . S
C1347 C1348 1.410 . S
C1347 C1355 1.503 . S
C1348 C1347 1.410 . S
C1348 C1349 1.392 . S
C1348 C1351 1.511 . S
C1349 C1345 1.376 . S
C1349 C1348 1.392 . S
C1349 H1361 0.929 . S
C1350 C1346 1.531 . S
C1350 H1362 0.960 . S
C1350 H1363 0.962 . S
C1350 H1364 0.960 . S
C1351 C1348 1.511 . S
C1351 H1365 0.961 . S
C1351 H1366 0.961 . S
C1351 H1367 0.961 . S
C1352 C1353 1.370 . S
C1352 C1354 1.363 . S
C1352 H1368 0.931 . S
C1353 C1352 1.370 . S
C1353 C1357 1.408 . S
C1354 C1352 1.363 . S
C1354 C1355 1.370 . S
C1354 C1358 1.524 . S
C1355 C1347 1.503 . S
C1355 C1354 1.370 . S
C1355 C1356 1.403 . S
C1356 C1355 1.403 . S
C1356 C1357 1.404 . S
C1356 C1359 1.539 . S
C1357 C1353 1.408 . S
C1357 C1356 1.404 . S
C1357 H1369 0.930 . S
C1358 C1354 1.524 . S
C1358 H1370 0.956 . S
C1358 H1371 0.961 . S
C1358 H1372 0.961 . S
C1359 C1356 1.539 . S
C1359 H1373 0.958 . S
C1359 H1374 0.961 . S
C1359 H1375 0.960 . S
H1360 C1344 0.931 . S
H1361 C1349 0.929 . S
H1362 C1350 0.960 . S
H1363 C1350 0.962 . S
H1364 C1350 0.960 . S
H1365 C1351 0.961 . S
H1366 C1351 0.961 . S
H1367 C1351 0.961 . S
H1368 C1352 0.931 . S
H1369 C1357 0.930 . S
H1370 C1358 0.956 . S
H1371 C1358 0.961 . S
H1372 C1358 0.961 . S
H1373 C1359 0.958 . S
H1374 C1359 0.961 . S
H1375 C1359 0.960 . S
C1376 C1377 1.391 . S
C1376 C1378 1.394 . S
C1376 H1392 0.931 . S
C1377 C1376 1.391 . S
C1377 C1381 1.376 . S
C1378 C1376 1.394 . S
C1378 C1379 1.369 . S
C1378 C1382 1.531 . S
C1379 C1378 1.369 . S
C1379 C1380 1.410 . S
C1379 C1387 1.503 . S
C1380 C1379 1.410 . S
C1380 C1381 1.392 . S
C1380 C1383 1.511 . S
C1381 C1377 1.376 . S
C1381 C1380 1.392 . S
C1381 H1393 0.929 . S
C1382 C1378 1.531 . S
C1382 H1394 0.960 . S
C1382 H1395 0.962 . S
C1382 H1396 0.960 . S
C1383 C1380 1.511 . S
C1383 H1397 0.961 . S
C1383 H1398 0.961 . S
C1383 H1399 0.961 . S
C1384 C1385 1.370 . S
C1384 C1386 1.363 . S
C1384 H1400 0.931 . S
C1385 C1384 1.370 . S
C1385 C1389 1.408 . S
C1386 C1384 1.363 . S
C1386 C1387 1.370 . S
C1386 C1390 1.524 . S
C1387 C1379 1.503 . S
C1387 C1386 1.370 . S
C1387 C1388 1.403 . S
C1388 C1387 1.403 . S
C1388 C1389 1.404 . S
C1388 C1391 1.539 . S
C1389 C1385 1.408 . S
C1389 C1388 1.404 . S
C1389 H1401 0.930 . S
C1390 C1386 1.524 . S
C1390 H1402 0.956 . S
C1390 H1403 0.961 . S
C1390 H1404 0.961 . S
C1391 C1388 1.539 . S
C1391 H1405 0.958 . S
C1391 H1406 0.961 . S
C1391 H1407 0.960 . S
H1392 C1376 0.931 . S
H1393 C1381 0.929 . S
H1394 C1382 0.960 . S
H1395 C1382 0.962 . S
H1396 C1382 0.960 . S
H1397 C1383 0.961 . S
H1398 C1383 0.961 . S
H1399 C1383 0.961 . S
H1400 C1384 0.931 . S
H1401 C1389 0.930 . S
H1402 C1390 0.956 . S
H1403 C1390 0.961 . S
H1404 C1390 0.961 . S
H1405 C1391 0.958 . S
H1406 C1391 0.961 . S
H1407 C1391 0.960 . S
C641 C391 2.863 . S
C649 C511 2.924 . S
C681 C537 2.358 . S
C673 C451 2.199 . S
C713 C577 2.346 . S
C705 C241 2.007 . S
C745 C631 2.851 . S
C737 C331 2.495 . S
C777 C492 2.929 . S
C769 C121 2.529 . S
C801 C211 2.290 . S
C809 C522 2.349 . S
C833 C31 2.228 . S
C841 C562 2.351 . S
C865 C91 2.543 . S
C873 C612 2.851 1_655 S
C905 C488 0.401 1_655 S
C897 C301 0.601 . S
C937 C549 0.614 . S
C929 C380 0.682 . S
C969 C589 0.373 . S
C961 C440 0.406 . S
C993 C260 0.780 . S
C1001 C608 0.307 . S
C1025 C61 0.382 . S
C1033 C509 0.442 . S
C1065 C528 0.638 . S
C1057 C140 0.695 . S
C1097 C568 0.388 . S
C1089 C200 0.347 . S
C1121 C20 0.572 . S
C1129 C629 0.305 . S
C1153 C320 2.608 . S
C1161 C482 2.875 . S
C1185 C361 2.948 . S
C1193 C532 3.500 . S
C1225 C572 3.215 . S
C1217 C421 2.682 . S
C1257 C602 2.590 . S
C1249 C271 2.349 . S
C1281 C80 2.695 . S
C1289 C497 2.872 . S
C1321 C551 3.496 . S
C1313 C151 3.329 . S
C1353 C591 3.212 . S
C1345 C181 2.742 . S
C1377 C1 1.999 . S
C1385 C617 2.589 . S
