# Generated by pormake.
# Topology csq, (4,8)-cn, num edge types: 1
# Building blocks:
#     Node 0, Type 0, BuildingBlock: MIFKUJ_clean_linker_1, # of connection points: 4
#     Node 1, Type 0, BuildingBlock: MIFKUJ_clean_linker_1, # of connection points: 4
#     Node 2, Type 0, BuildingBlock: MIFKUJ_clean_linker_1, # of connection points: 4
#     Node 3, Type 0, BuildingBlock: MIFKUJ_clean_linker_1, # of connection points: 4
#     Node 4, Type 0, BuildingBlock: MIFKUJ_clean_linker_1, # of connection points: 4
#     Node 5, Type 0, BuildingBlock: MIFKUJ_clean_linker_1, # of connection points: 4
#     Node 6, Type 1, BuildingBlock: TAGTUT_clean_sbu_3, # of connection points: 8
#     Node 7, Type 1, BuildingBlock: TAGTUT_clean_sbu_3, # of connection points: 8
#     Node 8, Type 1, BuildingBlock: TAGTUT_clean_sbu_3, # of connection points: 8
#     Edge 9, Type (0, 1), BuildingBlock: TEMPAE_clean_linker_10, # of connection points: 2
#     Edge 10, Type (0, 1), BuildingBlock: TEMPAE_clean_linker_10, # of connection points: 2
#     Edge 11, Type (0, 1), BuildingBlock: TEMPAE_clean_linker_10, # of connection points: 2
#     Edge 12, Type (0, 1), BuildingBlock: TEMPAE_clean_linker_10, # of connection points: 2
#     Edge 13, Type (0, 1), BuildingBlock: TEMPAE_clean_linker_10, # of connection points: 2
#     Edge 14, Type (0, 1), BuildingBlock: TEMPAE_clean_linker_10, # of connection points: 2
#     Edge 15, Type (0, 1), BuildingBlock: TEMPAE_clean_linker_10, # of connection points: 2
#     Edge 16, Type (0, 1), BuildingBlock: TEMPAE_clean_linker_10, # of connection points: 2
#     Edge 17, Type (0, 1), BuildingBlock: TEMPAE_clean_linker_10, # of connection points: 2
#     Edge 18, Type (0, 1), BuildingBlock: TEMPAE_clean_linker_10, # of connection points: 2
#     Edge 19, Type (0, 1), BuildingBlock: TEMPAE_clean_linker_10, # of connection points: 2
#     Edge 20, Type (0, 1), BuildingBlock: TEMPAE_clean_linker_10, # of connection points: 2
#     Edge 21, Type (0, 1), BuildingBlock: TEMPAE_clean_linker_10, # of connection points: 2
#     Edge 22, Type (0, 1), BuildingBlock: TEMPAE_clean_linker_10, # of connection points: 2
#     Edge 23, Type (0, 1), BuildingBlock: TEMPAE_clean_linker_10, # of connection points: 2
#     Edge 24, Type (0, 1), BuildingBlock: TEMPAE_clean_linker_10, # of connection points: 2
#     Edge 25, Type (0, 1), BuildingBlock: TEMPAE_clean_linker_10, # of connection points: 2
#     Edge 26, Type (0, 1), BuildingBlock: TEMPAE_clean_linker_10, # of connection points: 2
#     Edge 27, Type (0, 1), BuildingBlock: TEMPAE_clean_linker_10, # of connection points: 2
#     Edge 28, Type (0, 1), BuildingBlock: TEMPAE_clean_linker_10, # of connection points: 2
#     Edge 29, Type (0, 1), BuildingBlock: TEMPAE_clean_linker_10, # of connection points: 2
#     Edge 30, Type (0, 1), BuildingBlock: TEMPAE_clean_linker_10, # of connection points: 2
#     Edge 31, Type (0, 1), BuildingBlock: TEMPAE_clean_linker_10, # of connection points: 2
#     Edge 32, Type (0, 1), BuildingBlock: TEMPAE_clean_linker_10, # of connection points: 2
# Relax obj value: 0.028
# Max RMSD: 0.110
# Mean RMSD: 0.043
data_MOF--net-csq--node1-TAGTUT_clean_sbu_3--node2-MIFKUJ_clean_linker_1--edge1-TEMPAE_clean_linker_10
_symmetry_space_group_name_H-M    P1
_symmetry_Int_Tables_number       1
_symmetry_cell_setting            triclinic
loop_
_symmetry_equiv_pos_as_xyz
'x, y, z'
_cell_length_a     63.375631
_cell_length_b     62.571345
_cell_length_c     21.653527
_cell_angle_alpha  92.276648
_cell_angle_beta   92.651205
_cell_angle_gamma 119.81494
loop_
_atom_site_label
_atom_site_type_symbol
_atom_site_fract_x
_atom_site_fract_y
_atom_site_fract_z
_atom_type_partial_charge
H0 H 0.27963 0.48128 0.30008 0.0
H1 H 0.31713 0.48841 0.35568 0.0
H2 H 0.35944 0.53995 0.22307 0.0
H3 H 0.32161 0.53281 0.16759 0.0
H4 H 0.25901 0.50845 0.26286 0.0
H5 H 0.29498 0.46295 0.16992 0.0
H6 H 0.32928 0.462 0.12525 0.0
H7 H 0.32489 0.50367 0.97551 0.0
H8 H 0.29165 0.50576 0.0224 0.0
H9 H 0.20901 0.50821 0.08909 0.0
H10 H 0.17235 0.49491 0.0207 0.0
H11 H 0.16484 0.42263 0.991 0.0
H12 H 0.20108 0.4358 0.06181 0.0
H13 H 0.2466 0.47098 0.04853 0.0
H14 H 0.2378 0.53397 0.23701 0.0
H15 H 0.20692 0.53848 0.29046 0.0
H16 H 0.15562 0.4609 0.24808 0.0
H17 H 0.18665 0.45637 0.19541 0.0
C18 C 0.29789 0.50625 0.22939 0.0
C19 C 0.29698 0.49463 0.28397 0.0
C20 C 0.31844 0.49875 0.31567 0.0
C21 C 0.34119 0.51461 0.29335 0.0
C22 C 0.34213 0.52742 0.24077 0.0
C23 C 0.3206 0.52342 0.20928 0.0
C24 C 0.2751 0.49821 0.19044 0.0
C25 C 0.25625 0.5004 0.21581 0.0
C26 C 0.27157 0.48736 0.12953 0.0
C27 C 0.29099 0.48478 0.10005 0.0
C28 C 0.30155 0.47202 0.1277 0.0
C29 C 0.32105 0.47133 0.10182 0.0
C30 C 0.33008 0.483 0.04709 0.0
C31 C 0.31886 0.49502 0.0185 0.0
C32 C 0.29959 0.49593 0.04476 0.0
C33 C 0.20762 0.47293 0.08097 0.0
C34 C 0.19928 0.4894 0.06862 0.0
C35 C 0.17851 0.48185 0.02888 0.0
C36 C 0.16586 0.45778 0.99997 0.0
C37 C 0.17411 0.44122 0.01285 0.0
C38 C 0.19487 0.44877 0.05293 0.0
C39 C 0.23032 0.48125 0.12074 0.0
C40 C 0.24924 0.47908 0.09548 0.0
C41 C 0.23385 0.49216 0.18173 0.0
C42 C 0.21456 0.49487 0.21172 0.0
C43 C 0.2199 0.51791 0.23914 0.0
C44 C 0.20225 0.52049 0.26969 0.0
C45 C 0.17883 0.50007 0.27335 0.0
C46 C 0.17338 0.47706 0.24521 0.0
C47 C 0.19112 0.47445 0.21508 0.0
H48 H 0.77863 0.27935 0.98423 0.0
H49 H 0.80365 0.31143 0.91822 0.0
H50 H 0.86852 0.31874 0.01488 0.0
H51 H 0.84315 0.28434 0.07514 0.0
H52 H 0.76997 0.23693 0.98959 0.0
H53 H 0.80835 0.30641 0.14616 0.0
H54 H 0.84023 0.33976 0.2156 0.0
H55 H 0.86035 0.28846 0.28853 0.0
H56 H 0.82957 0.25572 0.21644 0.0
H57 H 0.75025 0.16929 0.12365 0.0
H58 H 0.71936 0.13415 0.17447 0.0
H59 H 0.70022 0.18296 0.27254 0.0
H60 H 0.73168 0.21796 0.22323 0.0
H61 H 0.7827 0.23726 0.21737 0.0
H62 H 0.75582 0.18648 0.97692 0.0
H63 H 0.71997 0.15116 0.92214 0.0
H64 H 0.67301 0.16677 0.03064 0.0
H65 H 0.70889 0.202 0.08504 0.0
C66 C 0.80884 0.27933 0.03538 0.0
C67 C 0.79826 0.28764 0.99084 0.0
C68 C 0.81274 0.30644 0.95352 0.0
C69 C 0.83835 0.31806 0.96073 0.0
C70 C 0.84893 0.31007 0.0065 0.0
C71 C 0.83437 0.29064 0.04238 0.0
C72 C 0.79287 0.25806 0.07164 0.0
C73 C 0.77298 0.23729 0.03943 0.0
C74 C 0.79658 0.25787 0.13684 0.0
C75 C 0.81678 0.27865 0.17557 0.0
C76 C 0.81998 0.30251 0.17622 0.0
C77 C 0.83796 0.32145 0.2167 0.0
C78 C 0.85277 0.31676 0.25804 0.0
C79 C 0.84954 0.29284 0.25689 0.0
C80 C 0.83182 0.27405 0.21594 0.0
C81 C 0.74319 0.19616 0.16982 0.0
C82 C 0.73956 0.17237 0.15676 0.0
C83 C 0.72176 0.1523 0.18542 0.0
C84 C 0.70718 0.15567 0.22742 0.0
C85 C 0.71133 0.1797 0.24128 0.0
C86 C 0.72928 0.19975 0.21307 0.0
C87 C 0.76026 0.21704 0.13516 0.0
C88 C 0.78016 0.23734 0.16748 0.0
C89 C 0.75654 0.21709 0.07053 0.0
C90 C 0.73494 0.19665 0.03518 0.0
C91 C 0.73778 0.18235 0.98845 0.0
C92 C 0.71733 0.16221 0.95738 0.0
C93 C 0.69374 0.15616 0.97252 0.0
C94 C 0.69098 0.17076 0.01882 0.0
C95 C 0.71142 0.19092 0.04963 0.0
H96 H 0.56678 0.7543 0.94898 0.0
H97 H 0.57421 0.73024 0.87005 0.0
H98 H 0.5068 0.66522 0.90624 0.0
H99 H 0.49885 0.68956 0.98212 0.0
H100 H 0.53119 0.76351 0.94004 0.0
H101 H 0.55684 0.72629 0.10506 0.0
H102 H 0.55648 0.69448 0.16776 0.0
H103 H 0.47807 0.66 0.16997 0.0
H104 H 0.47894 0.69266 0.11029 0.0
H105 H 0.47545 0.7549 0.15971 0.0
H106 H 0.47313 0.78019 0.24428 0.0
H107 H 0.53485 0.84467 0.18051 0.0
H108 H 0.53888 0.81884 0.10124 0.0
H109 H 0.50693 0.74372 0.15363 0.0
H110 H 0.47952 0.77943 0.99316 0.0
H111 H 0.47733 0.80929 0.92758 0.0
H112 H 0.5551 0.84426 0.91085 0.0
H113 H 0.55674 0.81352 0.97356 0.0
C114 C 0.53236 0.72368 0.97193 0.0
C115 C 0.55371 0.7348 0.94011 0.0
C116 C 0.55796 0.72106 0.89508 0.0
C117 C 0.54091 0.69595 0.88114 0.0
C118 C 0.52001 0.6847 0.91476 0.0
C119 C 0.51568 0.69846 0.95927 0.0
C120 C 0.52612 0.73904 0.01226 0.0
C121 C 0.52624 0.75946 0.98723 0.0
C122 C 0.51842 0.73293 0.07248 0.0
C123 C 0.51792 0.71183 0.10295 0.0
C124 C 0.53957 0.71168 0.11851 0.0
C125 C 0.53927 0.69336 0.15433 0.0
C126 C 0.51724 0.6746 0.17476 0.0
C127 C 0.49548 0.67438 0.15673 0.0
C128 C 0.49587 0.69291 0.12189 0.0
C129 C 0.50735 0.78483 0.12365 0.0
C130 C 0.48847 0.77453 0.16385 0.0
C131 C 0.48703 0.78911 0.21213 0.0
C132 C 0.5041 0.81451 0.22041 0.0
C133 C 0.52187 0.82505 0.17723 0.0
C134 C 0.52378 0.81034 0.13028 0.0
C135 C 0.51204 0.76851 0.08172 0.0
C136 C 0.51167 0.74784 0.10636 0.0
C137 C 0.5191 0.77414 0.02065 0.0
C138 C 0.51829 0.7943 0.98846 0.0
C139 C 0.49611 0.79374 0.9759 0.0
C140 C 0.49493 0.8109 0.9383 0.0
C141 C 0.51601 0.82922 0.91305 0.0
C142 C 0.53835 0.83014 0.92778 0.0
C143 C 0.5394 0.81274 0.96442 0.0
H144 H 0.81646 0.51547 0.16582 0.0
H145 H 0.8562 0.51956 0.19142 0.0
H146 H 0.88703 0.57132 0.0502 0.0
H147 H 0.84725 0.56806 0.02709 0.0
H148 H 0.79923 0.54947 0.16329 0.0
H149 H 0.80381 0.48788 0.01772 0.0
H150 H 0.83366 0.48377 0.95728 0.0
H151 H 0.8443 0.546 0.85612 0.0
H152 H 0.81405 0.54969 0.9155 0.0
H153 H 0.73747 0.55506 0.03847 0.0
H154 H 0.69678 0.54548 0.99916 0.0
H155 H 0.67678 0.46909 0.96141 0.0
H156 H 0.71775 0.47893 1.00017 0.0
H157 H 0.76091 0.51059 0.95344 0.0
H158 H 0.77777 0.57871 0.16288 0.0
H159 H 0.75409 0.58592 0.23906 0.0
H160 H 0.70083 0.508 0.22266 0.0
H161 H 0.72477 0.5009 0.14796 0.0
C162 C 0.82894 0.54131 0.09438 0.0
C163 C 0.83186 0.52798 0.14109 0.0
C164 C 0.85448 0.53 0.15474 0.0
C165 C 0.87461 0.54528 0.12164 0.0
C166 C 0.87184 0.55929 0.07617 0.0
C167 C 0.84916 0.55741 0.0629 0.0
C168 C 0.80418 0.5363 0.07479 0.0
C169 C 0.79087 0.54125 0.11729 0.0
C170 C 0.79317 0.52493 0.01549 0.0
C171 C 0.80673 0.51901 0.97066 0.0
C172 C 0.81198 0.50007 0.98104 0.0
C173 C 0.82905 0.49782 0.94689 0.0
C174 C 0.84129 0.51471 0.90271 0.0
C175 C 0.83509 0.53285 0.89025 0.0
C176 C 0.81771 0.53482 0.92357 0.0
C177 C 0.7306 0.51771 0.02208 0.0
C178 C 0.72419 0.53618 0.02265 0.0
C179 C 0.70086 0.53062 0.00056 0.0
C180 C 0.68354 0.50649 0.97728 0.0
C181 C 0.6898 0.48788 0.97852 0.0
C182 C 0.71317 0.49347 0.00052 0.0
C183 C 0.75575 0.52388 0.04191 0.0
C184 C 0.76918 0.51904 0.99934 0.0
C185 C 0.76668 0.53504 0.10167 0.0
C186 C 0.75288 0.53931 0.14936 0.0
C187 C 0.7611 0.56319 0.17624 0.0
C188 C 0.74751 0.5673 0.21943 0.0
C189 C 0.72562 0.54753 0.23693 0.0
C190 C 0.71777 0.52358 0.21082 0.0
C191 C 0.73129 0.51951 0.16762 0.0
H192 H 0.23004 0.84647 0.01414 0.0
H193 H 0.25647 0.8806 0.95181 0.0
H194 H 0.31308 0.86189 0.97822 0.0
H195 H 0.28647 0.82731 0.03761 0.0
H196 H 0.21253 0.79588 0.00077 0.0
H197 H 0.27188 0.86487 0.15056 0.0
H198 H 0.3133 0.89354 0.19616 0.0
H199 H 0.32562 0.83223 0.21916 0.0
H200 H 0.2844 0.80377 0.17367 0.0
H201 H 0.22823 0.75022 0.21438 0.0
H202 H 0.2061 0.72004 0.28885 0.0
H203 H 0.14234 0.72635 0.24441 0.0
H204 H 0.16462 0.75663 0.16966 0.0
H205 H 0.2416 0.79536 0.21689 0.0
H206 H 0.19754 0.7292 0.07855 0.0
H207 H 0.16804 0.69362 0.01174 0.0
H208 H 0.13732 0.73649 0.93952 0.0
H209 H 0.16628 0.77195 0.0093 0.0
C210 C 0.25654 0.83476 0.03186 0.0
C211 C 0.24805 0.84959 0.00589 0.0
C212 C 0.26309 0.86904 0.9706 0.0
C213 C 0.28683 0.87397 0.96156 0.0
C214 C 0.29496 0.85863 0.98574 0.0
C215 C 0.27982 0.83897 0.01977 0.0
C216 C 0.24132 0.81522 0.07266 0.0
C217 C 0.21845 0.79598 0.04866 0.0
C218 C 0.25001 0.81443 0.13335 0.0
C219 C 0.27507 0.83222 0.15923 0.0
C220 C 0.28362 0.8577 0.16491 0.0
C221 C 0.30729 0.87402 0.19045 0.0
C222 C 0.32259 0.86504 0.21112 0.0
C223 C 0.31412 0.8396 0.20406 0.0
C224 C 0.29058 0.82335 0.1784 0.0
C225 C 0.19813 0.75579 0.18643 0.0
C226 C 0.20946 0.74511 0.22055 0.0
C227 C 0.19684 0.72794 0.26336 0.0
C228 C 0.17256 0.721 0.27303 0.0
C229 C 0.161 0.73121 0.23772 0.0
C230 C 0.17368 0.74848 0.19488 0.0
C231 C 0.21248 0.77576 0.1454 0.0
C232 C 0.23513 0.79528 0.16954 0.0
C233 C 0.20439 0.77567 0.08324 0.0
C234 C 0.18397 0.75323 0.04973 0.0
C235 C 0.18395 0.7308 0.05006 0.0
C236 C 0.16736 0.71056 0.01082 0.0
C237 C 0.15066 0.71239 0.9695 0.0
C238 C 0.14996 0.73451 0.9709 0.0
C239 C 0.16652 0.75478 0.01064 0.0
H240 H 0.52563 0.2314 0.12976 0.0
H241 H 0.54086 0.20486 0.08973 0.0
H242 H 0.4668 0.14325 0.06908 0.0
H243 H 0.45232 0.1695 0.11306 0.0
H244 H 0.4841 0.23457 0.05615 0.0
H245 H 0.50966 0.21859 0.25367 0.0
H246 H 0.51224 0.19207 0.32989 0.0
H247 H 0.43389 0.15395 0.33575 0.0
H248 H 0.4314 0.18028 0.25819 0.0
H249 H 0.41587 0.23604 0.23153 0.0
H250 H 0.40679 0.26479 0.28862 0.0
H251 H 0.47089 0.32626 0.22477 0.0
H252 H 0.48076 0.29781 0.17099 0.0
H253 H 0.45173 0.23094 0.26185 0.0
H254 H 0.42782 0.25344 0.07201 0.0
H255 H 0.42695 0.27957 0.99167 0.0
H256 H 0.50312 0.3061 0.96823 0.0
H257 H 0.50409 0.28048 0.0491 0.0
C258 C 0.48792 0.20227 0.12428 0.0
C259 C 0.51288 0.21202 0.11754 0.0
C260 C 0.52148 0.19685 0.09427 0.0
C261 C 0.50514 0.17181 0.07585 0.0
C262 C 0.48014 0.16218 0.08406 0.0
C263 C 0.47169 0.17721 0.10858 0.0
C264 C 0.4784 0.21846 0.14392 0.0
C265 C 0.47726 0.23421 0.10134 0.0
C266 C 0.46877 0.21696 0.20199 0.0
C267 C 0.4703 0.20116 0.24941 0.0
C268 C 0.49302 0.20444 0.27106 0.0
C269 C 0.49449 0.18947 0.31533 0.0
C270 C 0.47326 0.17092 0.33908 0.0
C271 C 0.45055 0.16795 0.31807 0.0
C272 C 0.44911 0.18302 0.27391 0.0
C273 C 0.44897 0.2647 0.19657 0.0
C274 C 0.42772 0.25572 0.22879 0.0
C275 C 0.42246 0.27206 0.26116 0.0
C276 C 0.43806 0.2976 0.26056 0.0
C277 C 0.45835 0.30659 0.22492 0.0
C278 C 0.46394 0.2903 0.19386 0.0
C279 C 0.45737 0.24766 0.17412 0.0
C280 C 0.45826 0.23146 0.21619 0.0
C281 C 0.46685 0.24893 0.11533 0.0
C282 C 0.46607 0.26504 0.06725 0.0
C283 C 0.44441 0.26509 0.05015 0.0
C284 C 0.4439 0.27995 0.00399 0.0
C285 C 0.46493 0.29478 0.97329 0.0
C286 C 0.48651 0.29459 0.99022 0.0
C287 C 0.48708 0.27997 0.03668 0.0
C288 C 0.04997 0.4937 0.54043 0.0
C289 C 0.03034 0.45401 0.75604 0.0
C290 C 0.96209 0.45182 0.72329 0.0
Mg291 Mg 0.0296 0.52573 0.47316 0.0
Mg292 Mg 0.01155 0.5593 0.55234 0.0
O293 O 0.00894 0.52846 0.53727 0.0
Mg294 Mg 0.01523 0.51118 0.60498 0.0
O295 O 0.02179 0.49194 0.66667 0.0
Mg296 Mg 0.00413 0.45811 0.62179 0.0
Mg297 Mg 0.01429 0.49346 0.74818 0.0
C298 C 0.97878 0.52988 0.66056 0.0
O299 O 0.04124 0.54684 0.66735 0.0
O300 O 0.01089 0.53996 0.40408 0.0
O301 O 0.0334 0.5332 0.76326 0.0
O302 O 0.06048 0.56582 0.49505 0.0
O303 O 0.99686 0.56016 0.4623 0.0
O304 O 0.0495 0.58729 0.55711 0.0
O305 O 0.98894 0.47455 0.55029 0.0
O306 O -0.00147 0.48614 0.45464 0.0
C307 C 0.98598 0.46965 0.49144 0.0
C308 C -0.00073 0.55184 0.40966 0.0
O309 O 0.98501 0.5132 0.6565 0.0
O310 O 0.0223 0.44627 0.69922 0.0
O311 O 0.98805 0.54912 0.62914 0.0
O312 O 0.96959 0.44412 0.67827 0.0
O313 O 0.0292 0.47195 0.78314 0.0
O314 O 0.97596 0.4725 0.75335 0.0
O315 O 0.04493 0.51103 0.5492 0.0
O316 O 0.03801 0.47309 0.56534 0.0
C317 C 0.06538 0.58582 0.52577 0.0
C318 C 0.04359 0.55071 0.72689 0.0
C319 C 0.50384 0.04589 0.52865 0.0
C320 C 0.56829 0.02458 0.43948 0.0
C321 C 0.51777 0.95155 0.49403 0.0
Mg322 Mg 0.46732 0.01958 0.63893 0.0
Mg323 Mg 0.48387 0.99492 0.74903 0.0
O324 O 0.47753 0.99516 0.66396 0.0
Mg325 Mg 0.50471 0.00364 0.61003 0.0
O326 O 0.53086 0.01264 0.55182 0.0
Mg327 Mg 0.50975 0.00028 0.47201 0.0
Mg328 Mg 0.55226 0.00021 0.56509 0.0
C329 C 0.50611 0.96264 0.69941 0.0
O330 O 0.53528 0.02529 0.68636 0.0
O331 O 0.43402 0.998 0.69878 0.0
O332 O 0.56371 0.01531 0.66123 0.0
O333 O 0.4885 0.04702 0.72338 0.0
O334 O 0.4466 0.98012 0.76888 0.0
O335 O 0.50494 0.03194 0.78922 0.0
O336 O 0.47629 0.98282 0.53005 0.0
O337 O 0.44809 0.99264 0.55391 0.0
C338 C 0.45576 0.98166 0.51777 0.0
C339 C 0.43014 0.9839 0.7437 0.0
O340 O 0.50643 0.96935 0.64377 0.0
O341 O 0.54624 0.01935 0.42495 0.0
O342 O 0.50022 0.97175 0.74514 0.0
O343 O 0.50996 0.96402 0.46576 0.0
O344 O 0.57461 0.01875 0.49049 0.0
O345 O 0.53302 0.96089 0.54136 0.0
O346 O 0.50155 0.03722 0.58229 0.0
O347 O 0.50847 0.03587 0.48244 0.0
C348 C 0.50179 0.04949 0.77239 0.0
C349 C 0.55553 0.02565 0.69816 0.0
C350 C 0.52957 0.54737 0.69723 0.0
C351 C 0.45193 0.47354 0.78267 0.0
C352 C 0.481 0.42928 0.70947 0.0
Mg353 Mg 0.55894 0.54769 0.57774 0.0
Mg354 Mg 0.53143 0.50676 0.45992 0.0
O355 O 0.53958 0.51211 0.54534 0.0
Mg356 Mg 0.51294 0.4995 0.60355 0.0
O357 O 0.48802 0.48837 0.66591 0.0
Mg358 Mg 0.50895 0.49153 0.74187 0.0
Mg359 Mg 0.459 0.45792 0.64948 0.0
C360 C 0.49783 0.45268 0.50246 0.0
O361 O 0.48444 0.49968 0.5361 0.0
O362 O 0.58844 0.55128 0.51051 0.0
O363 O 0.44937 0.46618 0.55831 0.0
O364 O 0.5421 0.56143 0.50134 0.0
O365 O 0.56792 0.5219 0.43297 0.0
O366 O 0.5182 0.53065 0.43126 0.0
O367 O 0.53952 0.4987 0.6763 0.0
O368 O 0.57342 0.53277 0.65404 0.0
C369 C 0.56235 0.51424 0.68708 0.0
C370 C 0.58783 0.53964 0.45939 0.0
O371 O 0.49901 0.46026 0.55924 0.0
O372 O 0.47511 0.48424 0.79679 0.0
O373 O 0.50747 0.4672 0.45908 0.0
O374 O 0.49594 0.44998 0.73861 0.0
O375 O 0.44226 0.46272 0.72893 0.0
O376 O 0.46569 0.42771 0.66645 0.0
O377 O 0.52754 0.53913 0.64091 0.0
O378 O 0.52241 0.53274 0.74114 0.0
C379 C 0.52722 0.55299 0.45277 0.0
C380 C 0.46149 0.48451 0.52518 0.0
C381 C 0.1361 0.49145 0.28472 0.0
C382 C 0.16046 0.50247 0.30872 0.0
C383 C 0.11829 0.49219 0.31958 0.0
C384 C 0.12495 0.50399 0.38018 0.0
C385 C 0.14966 0.51584 0.40383 0.0
C386 C 0.16711 0.515 0.36775 0.0
C387 C 0.0922 0.47959 0.29242 0.0
C388 C 0.15748 0.52839 0.46842 0.0
C389 C 0.08057 0.5173 0.46367 0.0
C390 C 0.06929 0.4968 0.49936 0.0
C391 C 0.09865 0.51992 0.42428 0.0
C392 C 0.10576 0.50174 0.42105 0.0
C393 C 0.09458 0.48116 0.45734 0.0
C394 C 0.07648 0.47891 0.49574 0.0
C395 C 0.11011 0.5421 0.38615 0.0
C396 C 0.10177 0.46146 0.45579 0.0
H397 H 0.13093 0.48204 0.23877 0.0
H398 H 0.18586 0.52337 0.38679 0.0
H399 H 0.08081 0.46328 0.31844 0.0
H400 H 0.08475 0.49226 0.29693 0.0
H401 H 0.09041 0.47333 0.24274 0.0
H402 H 0.17762 0.53854 0.47792 0.0
H403 H 0.15073 0.54155 0.47541 0.0
H404 H 0.14936 0.51437 0.50294 0.0
H405 H 0.07519 0.53124 0.46613 0.0
H406 H 0.06804 0.46306 0.5233 0.0
H407 H 0.10825 0.53603 0.33637 0.0
H408 H 0.1299 0.55341 0.40009 0.0
H409 H 0.10174 0.55394 0.39165 0.0
H410 H 0.09842 0.45277 0.40804 0.0
H411 H 0.09152 0.44678 0.48746 0.0
H412 H 0.12156 0.46988 0.46916 0.0
C413 C 0.67269 0.11174 0.22033 0.0
C414 C 0.6873 0.13423 0.25556 0.0
C415 C 0.65321 0.09175 0.2457 0.0
C416 C 0.64796 0.09447 0.30737 0.0
C417 C 0.66277 0.117 0.34335 0.0
C418 C 0.68237 0.13648 0.31723 0.0
C419 C 0.63801 0.06789 0.20623 0.0
C420 C 0.65763 0.1207 0.40918 0.0
C421 C 0.58434 0.05562 0.36001 0.0
C422 C 0.58758 0.03991 0.39886 0.0
C423 C 0.60364 0.07291 0.32807 0.0
C424 C 0.62657 0.07416 0.33418 0.0
C425 C 0.62952 0.05732 0.37029 0.0
C426 C 0.61004 0.04056 0.40278 0.0
C427 C 0.59988 0.09079 0.29073 0.0
C428 C 0.65353 0.0577 0.3767 0.0
H429 H 0.6761 0.10989 0.17238 0.0
H430 H 0.69382 0.15359 0.34521 0.0
H431 H 0.63698 0.05219 0.23074 0.0
H432 H 0.61911 0.06436 0.198 0.0
H433 H 0.64549 0.06821 0.16065 0.0
H434 H 0.67084 0.13939 0.43079 0.0
H435 H 0.63898 0.11804 0.41002 0.0
H436 H 0.65834 0.10676 0.43794 0.0
H437 H 0.56707 0.05532 0.35703 0.0
H438 H 0.61258 0.02829 0.43229 0.0
H439 H 0.6058 0.09086 0.24332 0.0
H440 H 0.61124 0.10978 0.31287 0.0
H441 H 0.58053 0.08628 0.28711 0.0
H442 H 0.66038 0.05774 0.33044 0.0
H443 H 0.652 0.04162 0.40041 0.0
H444 H 0.66733 0.07485 0.40383 0.0
C445 C 0.50066 0.64702 0.26311 0.0
C446 C 0.517 0.65586 0.21623 0.0
C447 C 0.50043 0.62971 0.30297 0.0
C448 C 0.51729 0.6213 0.29695 0.0
C449 C 0.53384 0.63009 0.24995 0.0
C450 C 0.53335 0.64702 0.20994 0.0
C451 C 0.48224 0.62052 0.35183 0.0
C452 C 0.55222 0.62169 0.24215 0.0
C453 C 0.53486 0.59556 0.43415 0.0
C454 C 0.52236 0.57012 0.41694 0.0
C455 C 0.53291 0.61235 0.39632 0.0
C456 C 0.5179 0.60353 0.34012 0.0
C457 C 0.50437 0.57779 0.32388 0.0
C458 C 0.50685 0.56144 0.36224 0.0
C459 C 0.54774 0.63963 0.41532 0.0
C460 C 0.48768 0.56755 0.26522 0.0
H461 H 0.48821 0.65394 0.26955 0.0
H462 H 0.54576 0.65323 0.17341 0.0
H463 H 0.47103 0.60008 0.3464 0.0
H464 H 0.49196 0.62549 0.39864 0.0
H465 H 0.46987 0.62832 0.34941 0.0
H466 H 0.56406 0.63049 0.20391 0.0
H467 H 0.56397 0.62617 0.28578 0.0
H468 H 0.54268 0.60136 0.23245 0.0
H469 H 0.54687 0.60253 0.47625 0.0
H470 H 0.4969 0.54183 0.34867 0.0
H471 H 0.53584 0.64795 0.41526 0.0
H472 H 0.56148 0.64901 0.38128 0.0
H473 H 0.55738 0.6434 0.46209 0.0
H474 H 0.47399 0.57368 0.26498 0.0
H475 H 0.47793 0.54705 0.26006 0.0
H476 H 0.49835 0.57476 0.22428 0.0
C477 C 0.8994 0.526 0.15205 0.0
C478 C 0.89849 0.54716 0.13746 0.0
C479 C 0.92023 0.52796 0.18291 0.0
C480 C 0.94071 0.55165 0.19831 0.0
C481 C 0.94119 0.5727 0.17511 0.0
C482 C 0.91987 0.57028 0.14548 0.0
C483 C 0.91914 0.50496 0.20569 0.0
C484 C 0.96327 0.59808 0.18758 0.0
C485 C 0.9668 0.55845 0.36239 0.0
C486 C 0.98634 0.55435 0.35444 0.0
C487 C 0.95241 0.55841 0.31158 0.0
C488 C 0.95805 0.55479 0.2509 0.0
C489 C 0.97863 0.5521 0.24219 0.0
C490 C 0.99235 0.55148 0.29429 0.0
C491 C 0.93043 0.56106 0.32326 0.0
C492 C 0.98576 0.54899 0.17836 0.0
H493 H 0.88318 0.50798 0.14345 0.0
H494 H 0.91947 0.58671 0.13326 0.0
H495 H 0.93615 0.50475 0.19718 0.0
H496 H 0.91739 0.50479 0.25647 0.0
H497 H 0.9034 0.48786 0.18294 0.0
H498 H 0.96308 0.61118 0.15469 0.0
H499 H 0.96346 0.60535 0.2353 0.0
H500 H 0.98032 0.59734 0.18417 0.0
H501 H 0.96198 0.56064 0.40868 0.0
H502 H 0.00762 0.54856 0.28789 0.0
H503 H 0.91354 0.54433 0.30354 0.0
H504 H 0.93167 0.57708 0.30007 0.0
H505 H 0.92867 0.56369 0.37341 0.0
H506 H 0.97611 0.52908 0.16272 0.0
H507 H 0.00566 0.55589 0.17878 0.0
H508 H 0.98082 0.5588 0.14407 0.0
C509 C 0.35227 0.87536 0.30205 0.0
C510 C 0.34642 0.88181 0.24519 0.0
C511 C 0.3732 0.89207 0.33922 0.0
C512 C 0.3887 0.91576 0.31877 0.0
C513 C 0.3838 0.92177 0.25948 0.0
C514 C 0.36251 0.90476 0.22349 0.0
C515 C 0.37766 0.88502 0.40241 0.0
C516 C 0.40028 0.94665 0.23562 0.0
C517 C 0.41713 0.96491 0.45086 0.0
C518 C 0.44003 0.96688 0.46209 0.0
C519 C 0.40075 0.94916 0.40236 0.0
C520 C 0.4075 0.93518 0.36353 0.0
C521 C 0.43108 0.93809 0.37219 0.0
C522 C 0.44707 0.95384 0.42176 0.0
C523 C 0.37569 0.94649 0.39491 0.0
C524 C 0.43905 0.92376 0.33108 0.0
H525 H 0.33976 0.8577 0.31914 0.0
H526 H 0.35815 0.90959 0.17904 0.0
H527 H 0.39677 0.8891 0.40976 0.0
H528 H 0.37477 0.89612 0.43877 0.0
H529 H 0.36528 0.86514 0.40873 0.0
H530 H 0.39627 0.94691 0.18524 0.0
H531 H 0.39779 0.96094 0.26076 0.0
H532 H 0.41969 0.95181 0.24416 0.0
H533 H 0.41157 0.97507 0.48133 0.0
H534 H 0.46479 0.95541 0.42974 0.0
H535 H 0.36169 0.92746 0.40426 0.0
H536 H 0.37169 0.94949 0.34667 0.0
H537 H 0.37384 0.9597 0.42686 0.0
H538 H 0.43027 0.90435 0.34383 0.0
H539 H 0.45914 0.93161 0.33592 0.0
H540 H 0.4333 0.9235 0.28173 0.0
C541 C 0.43731 0.31269 0.36776 0.0
C542 C 0.43576 0.315 0.30383 0.0
C543 C 0.44242 0.33248 0.41024 0.0
C544 C 0.44579 0.35481 0.38782 0.0
C545 C 0.44124 0.35603 0.32374 0.0
C546 C 0.43657 0.33615 0.28228 0.0
C547 C 0.447 0.3304 0.47816 0.0
C548 C 0.44393 0.37929 0.29819 0.0
C549 C 0.45991 0.4117 0.49039 0.0
C550 C 0.48501 0.42617 0.48492 0.0
C551 C 0.44673 0.38767 0.46156 0.0
C552 C 0.45921 0.37814 0.42775 0.0
C553 C 0.48492 0.3922 0.42655 0.0
C554 C 0.49744 0.41622 0.45443 0.0
C555 C 0.41937 0.37339 0.4635 0.0
C556 C 0.49908 0.38251 0.39244 0.0
H557 H 0.43674 0.29629 0.38433 0.0
H558 H 0.43515 0.33776 0.23277 0.0
H559 H 0.46696 0.33955 0.49008 0.0
H560 H 0.43973 0.33979 0.50756 0.0
H561 H 0.43868 0.31081 0.48959 0.0
H562 H 0.43557 0.37582 0.24997 0.0
H563 H 0.43538 0.38733 0.32764 0.0
H564 H 0.46359 0.39319 0.29811 0.0
H565 H 0.4504 0.41971 0.51364 0.0
H566 H 0.51691 0.42761 0.45056 0.0
H567 H 0.41267 0.35349 0.46829 0.0
H568 H 0.4108 0.37498 0.41937 0.0
H569 H 0.41325 0.38065 0.5022 0.0
H570 H 0.4941 0.36378 0.40618 0.0
H571 H 0.51911 0.39472 0.40156 0.0
H572 H 0.49447 0.38103 0.34181 0.0
C573 C 0.49882 0.85623 0.88154 0.0
C574 C 0.5148 0.84721 0.87144 0.0
C575 C 0.4981 0.87375 0.84421 0.0
C576 C 0.51412 0.88302 0.79618 0.0
C577 C 0.52991 0.87367 0.78466 0.0
C578 C 0.52991 0.85575 0.82194 0.0
C579 C 0.4807 0.88297 0.85759 0.0
C580 C 0.54741 0.8832 0.73432 0.0
C581 C 0.4993 0.9198 0.68326 0.0
C582 C 0.51233 0.94348 0.71341 0.0
C583 C 0.50068 0.89992 0.70751 0.0
C584 C 0.51574 0.90409 0.76243 0.0
C585 C 0.53058 0.92848 0.78939 0.0
C586 C 0.52844 0.94779 0.76503 0.0
C587 C 0.4845 0.87426 0.67728 0.0
C588 C 0.5475 0.93399 0.84664 0.0
H589 H 0.48725 0.85013 0.91982 0.0
H590 H 0.54192 0.84855 0.81239 0.0
H591 H 0.49115 0.90264 0.87546 0.0
H592 H 0.47 0.8819 0.81436 0.0
H593 H 0.46783 0.87224 0.89234 0.0
H594 H 0.55726 0.8728 0.72821 0.0
H595 H 0.53755 0.88206 0.68953 0.0
H596 H 0.56104 0.90296 0.746 0.0
H597 H 0.48669 0.91647 0.6436 0.0
H598 H 0.53859 0.96619 0.78811 0.0
H599 H 0.46858 0.86416 0.70509 0.0
H600 H 0.49429 0.86372 0.67567 0.0
H601 H 0.47765 0.87466 0.6294 0.0
H602 H 0.53661 0.92663 0.88718 0.0
H603 H 0.56008 0.95413 0.85677 0.0
H604 H 0.5585 0.9248 0.84126 0.0
C605 C 0.64729 0.51258 0.97002 0.0
C606 C 0.66007 0.50156 0.94601 0.0
C607 C 0.62769 0.51179 0.93507 0.0
C608 C 0.62087 0.49978 0.8748 0.0
C609 C 0.63229 0.48679 0.85266 0.0
C610 C 0.65182 0.48789 0.88848 0.0
C611 C 0.61542 0.52524 0.9608 0.0
C612 C 0.62524 0.47344 0.78897 0.0
C613 C 0.56565 0.4912 0.77611 0.0
C614 C 0.57659 0.5111 0.73844 0.0
C615 C 0.57958 0.4877 0.82275 0.0
C616 C 0.60502 0.50429 0.83106 0.0
C617 C 0.61598 0.52478 0.79442 0.0
C618 C 0.60164 0.52796 0.74881 0.0
C619 C 0.56714 0.46574 0.86112 0.0
C620 C 0.64307 0.543 0.80199 0.0
H621 H 0.65325 0.52268 0.01513 0.0
H622 H 0.66164 0.47939 0.86945 0.0
H623 H 0.62112 0.54236 0.93653 0.0
H624 H 0.59531 0.51368 0.95269 0.0
H625 H 0.62023 0.53039 0.01127 0.0
H626 H 0.63377 0.46182 0.7817 0.0
H627 H 0.60515 0.46153 0.78167 0.0
H628 H 0.63113 0.48714 0.75327 0.0
H629 H 0.54629 0.47812 0.76865 0.0
H630 H 0.6103 0.5435 0.72034 0.0
H631 H 0.57569 0.46985 0.90917 0.0
H632 H 0.56868 0.45022 0.83969 0.0
H633 H 0.54746 0.45959 0.86304 0.0
H634 H 0.64861 0.55079 0.85075 0.0
H635 H 0.64854 0.55848 0.77145 0.0
H636 H 0.65334 0.53342 0.79089 0.0
C637 C 0.14445 0.67843 0.89314 0.0
C638 C 0.13482 0.69148 0.92374 0.0
C639 C 0.12948 0.65723 0.85414 0.0
C640 C 0.10428 0.64899 0.84505 0.0
C641 C 0.09471 0.66298 0.8724 0.0
C642 C 0.1101 0.68406 0.91175 0.0
C643 C 0.1404 0.64294 0.82528 0.0
C644 C 0.06802 0.65504 0.86229 0.0
C645 C 0.06819 0.59678 0.72059 0.0
C646 C 0.05867 0.57616 0.75606 0.0
C647 C 0.0824 0.62081 0.74883 0.0
C648 C 0.08763 0.62417 0.81393 0.0
C649 C 0.07795 0.60345 0.84998 0.0
C650 C 0.06353 0.5798 0.82072 0.0
C651 C 0.09224 0.6424 0.70859 0.0
C652 C 0.0833 0.60619 0.91953 0.0
H653 H 0.16371 0.68454 0.90071 0.0
H654 H 0.10258 0.69415 0.93498 0.0
H655 H 0.13283 0.62467 0.84503 0.0
H656 H 0.13551 0.63954 0.7746 0.0
H657 H 0.16059 0.65275 0.8334 0.0
H658 H 0.06404 0.6694 0.88054 0.0
H659 H 0.06206 0.65082 0.81213 0.0
H660 H 0.05701 0.6379 0.8859 0.0
H661 H 0.0646 0.59421 0.67081 0.0
H662 H 0.05636 0.56407 0.84885 0.0
H663 H 0.11105 0.64744 0.69793 0.0
H664 H 0.09298 0.65883 0.73227 0.0
H665 H 0.08098 0.6377 0.66402 0.0
H666 H 0.10323 0.61472 0.93093 0.0
H667 H 0.07394 0.58822 0.94091 0.0
H668 H 0.07746 0.61862 0.94097 0.0
C669 C 0.53162 0.16633 0.00104 0.0
C670 C 0.51341 0.1562 0.04307 0.0
C671 C 0.53612 0.15107 0.96105 0.0
C672 C 0.5214 0.12516 0.9614 0.0
C673 C 0.50453 0.1149 0.00718 0.0
C674 C 0.50118 0.13059 0.04837 0.0
C675 C 0.55523 0.16271 0.91515 0.0
C676 C 0.48834 0.0873 0.00907 0.0
C677 C 0.5 0.08665 0.80905 0.0
C678 C 0.51067 0.0718 0.81496 0.0
C679 C 0.50424 0.10485 0.85538 0.0
C680 C 0.52023 0.10888 0.90803 0.0
C681 C 0.53267 0.09539 0.91189 0.0
C682 C 0.52747 0.0767 0.86561 0.0
C683 C 0.49018 0.11846 0.84994 0.0
C684 C 0.5509 0.10025 0.96559 0.0
H685 H 0.54139 0.18606 0.99636 0.0
H686 H 0.48788 0.12261 0.08248 0.0
H687 H 0.56474 0.15206 0.90783 0.0
H688 H 0.54639 0.1628 0.86981 0.0
H689 H 0.56897 0.1821 0.9308 0.0
H690 H 0.47757 0.08231 0.05048 0.0
H691 H 0.47547 0.07994 0.96698 0.0
H692 H 0.49935 0.07801 0.00905 0.0
H693 H 0.48701 0.08301 0.77008 0.0
H694 H 0.53608 0.06553 0.86991 0.0
H695 H 0.50288 0.13868 0.85349 0.0
H696 H 0.47811 0.11422 0.88862 0.0
H697 H 0.47876 0.11338 0.80548 0.0
H698 H 0.56658 0.11929 0.96505 0.0
H699 H 0.55782 0.08707 0.96368 0.0
H700 H 0.54269 0.09906 0.01035 0.0
C701 C 0.35261 0.46092 0.01742 0.0
C702 C 0.35085 0.48244 0.01902 0.0
C703 C 0.37091 0.45956 0.98621 0.0
C704 C 0.38766 0.48008 0.9552 0.0
C705 C 0.3867 0.50221 0.95911 0.0
C706 C 0.36844 0.50317 0.99129 0.0
C707 C 0.3715 0.43572 0.98374 0.0
C708 C 0.40414 0.52448 0.92651 0.0
C709 C 0.44387 0.48278 0.89071 0.0
C710 C 0.43558 0.47443 0.82846 0.0
C711 C 0.42836 0.48423 0.93314 0.0
C712 C 0.40416 0.4775 0.91255 0.0
C713 C 0.39569 0.46889 0.84999 0.0
C714 C 0.41139 0.46734 0.80897 0.0
C715 C 0.4379 0.49316 0.99976 0.0
C716 C 0.3701 0.46176 0.82588 0.0
H717 H 0.3391 0.44476 0.03839 0.0
H718 H 0.36765 0.52008 0.99364 0.0
H719 H 0.36532 0.42651 0.93633 0.0
H720 H 0.39039 0.43943 0.99405 0.0
H721 H 0.35954 0.42279 0.01698 0.0
H722 H 0.40238 0.54092 0.93857 0.0
H723 H 0.42324 0.52918 0.93843 0.0
H724 H 0.40051 0.52019 0.87561 0.0
H725 H 0.46247 0.4882 0.90631 0.0
H726 H 0.40474 0.46096 0.76102 0.0
H727 H 0.42578 0.47939 0.03116 0.0
H728 H 0.43788 0.51058 0.01133 0.0
H729 H 0.45672 0.49651 0.00915 0.0
H730 H 0.35658 0.44692 0.85267 0.0
H731 H 0.36626 0.45521 0.77603 0.0
H732 H 0.36731 0.47786 0.83207 0.0
C733 C 0.84605 0.3538 0.89622 0.0
C734 C 0.85385 0.33804 0.92008 0.0
C735 C 0.86037 0.37238 0.85749 0.0
C736 C 0.88358 0.37612 0.8444 0.0
C737 C 0.89164 0.36045 0.86828 0.0
C738 C 0.87652 0.34135 0.90452 0.0
C739 C 0.85079 0.38819 0.83125 0.0
C740 C 0.91654 0.36416 0.85666 0.0
C741 C 0.92175 0.41236 0.71585 0.0
C742 C 0.93869 0.43463 0.74884 0.0
C743 C 0.90231 0.39375 0.7451 0.0
C744 C 0.90026 0.3973 0.80913 0.0
C745 C 0.91627 0.42041 0.84134 0.0
C746 C 0.93502 0.43889 0.81055 0.0
C747 C 0.88489 0.3698 0.70836 0.0
C748 C 0.91509 0.42494 0.90983 0.0
H749 H 0.82887 0.35196 0.90831 0.0
H750 H 0.88261 0.32901 0.92059 0.0
H751 H 0.8615 0.40729 0.85298 0.0
H752 H 0.85287 0.38925 0.78066 0.0
H753 H 0.83128 0.38097 0.83927 0.0
H754 H 0.92033 0.35078 0.87989 0.0
H755 H 0.91806 0.36216 0.80621 0.0
H756 H 0.93085 0.38314 0.87371 0.0
H757 H 0.92424 0.40904 0.66794 0.0
H758 H 0.94795 0.45603 0.83656 0.0
H759 H 0.86583 0.36346 0.71944 0.0
H760 H 0.8892 0.3553 0.72087 0.0
H761 H 0.88611 0.3716 0.65762 0.0
H762 H 0.89619 0.41931 0.92074 0.0
H763 H 0.92714 0.44464 0.92638 0.0
H764 H 0.92083 0.41359 0.93619 0.0
C765 C 0.85826 0.49417 0.83622 0.0
C766 C 0.8618 0.51476 0.873 0.0
C767 C 0.87748 0.49486 0.8048 0.0
C768 C 0.90077 0.51649 0.81159 0.0
C769 C 0.90464 0.5368 0.85149 0.0
C770 C 0.88501 0.53579 0.88117 0.0
C771 C 0.87263 0.47293 0.7623 0.0
C772 C 0.92935 0.55989 0.86145 0.0
C773 C 0.9562 0.51504 0.75597 0.0
C774 C 0.95894 0.52616 0.69976 0.0
C775 C 0.93726 0.51157 0.79306 0.0
C776 C 0.92046 0.51897 0.77255 0.0
C777 C 0.92299 0.52986 0.71527 0.0
C778 C 0.94236 0.53356 0.67997 0.0
C779 C 0.93537 0.50018 0.8542 0.0
C780 C 0.90528 0.53769 0.69127 0.0
H781 H 0.84026 0.47789 0.83038 0.0
H782 H 0.88773 0.55151 0.91068 0.0
H783 H 0.87498 0.47828 0.71377 0.0
H784 H 0.88594 0.46686 0.77425 0.0
H785 H 0.85391 0.45706 0.76473 0.0
H786 H 0.92989 0.57292 0.89871 0.0
H787 H 0.94358 0.55505 0.87368 0.0
H788 H 0.93406 0.56948 0.81791 0.0
H789 H 0.96925 0.50967 0.77169 0.0
H790 H 0.94429 0.54194 0.63616 0.0
H791 H 0.91911 0.48141 0.85116 0.0
H792 H 0.93304 0.51127 0.89174 0.0
H793 H 0.9517 0.49865 0.86725 0.0
H794 H 0.88634 0.5219 0.68945 0.0
H795 H 0.90904 0.54461 0.64428 0.0
H796 H 0.90628 0.55251 0.72324 0.0
C797 C 0.32596 0.91301 0.95688 0.0
C798 C 0.30355 0.8951 0.92745 0.0
C799 C 0.34412 0.93065 0.923 0.0
C800 C 0.33985 0.92994 0.85796 0.0
C801 C 0.3165 0.91308 0.82887 0.0
C802 C 0.29849 0.89584 0.86422 0.0
C803 C 0.3686 0.94855 0.95608 0.0
C804 C 0.31124 0.9117 0.75972 0.0
C805 C 0.39122 0.9807 0.77632 0.0
C806 C 0.4055 0.9698 0.7653 0.0
C807 C 0.36906 0.96765 0.80432 0.0
C808 C 0.36105 0.94315 0.8202 0.0
C809 C 0.37477 0.93168 0.80525 0.0
C810 C 0.39691 0.94524 0.77864 0.0
C811 C 0.355 0.9805 0.81998 0.0
C812 C 0.36671 0.90543 0.82011 0.0
H813 H 0.32967 0.91247 0.00603 0.0
H814 H 0.28107 0.8819 0.84169 0.0
H815 H 0.38197 0.94266 0.94526 0.0
H816 H 0.37552 0.96736 0.94008 0.0
H817 H 0.36772 0.94943 0.00718 0.0
H818 H 0.29134 0.90132 0.74621 0.0
H819 H 0.31917 0.93044 0.74262 0.0
H820 H 0.31976 0.90213 0.73619 0.0
H821 H 0.39793 -0.00028 0.76593 0.0
H822 H 0.40782 0.93671 0.76913 0.0
H823 H 0.35733 0.9852 0.87071 0.0
H824 H 0.33522 0.9682 0.80745 0.0
H825 H 0.36139 0.99781 0.79599 0.0
H826 H 0.36756 0.90434 0.87111 0.0
H827 H 0.3783 0.89859 0.80029 0.0
H828 H 0.34753 0.89289 0.80193 0.0
C829 C 0.45427 0.32584 0.93513 0.0
C830 C 0.46473 0.31097 0.92489 0.0
C831 C 0.45592 0.34288 0.89251 0.0
C832 C 0.46816 0.34499 0.83793 0.0
C833 C 0.47774 0.32919 0.82593 0.0
C834 C 0.47605 0.3125 0.8697 0.0
C835 C 0.44561 0.35949 0.90743 0.0
C836 C 0.4906 0.33057 0.76799 0.0
C837 C 0.45938 0.38315 0.71692 0.0
C838 C 0.47969 0.40663 0.73286 0.0
C839 C 0.45592 0.3625 0.74848 0.0
C840 C 0.47308 0.36545 0.79725 0.0
C841 C 0.49435 0.38875 0.81063 0.0
C842 C 0.49745 0.40893 0.77812 0.0
C843 C 0.43325 0.33786 0.73191 0.0
C844 C 0.51319 0.39275 0.862 0.0
H845 H 0.44565 0.32489 0.97782 0.0
H846 H 0.48386 0.30078 0.86107 0.0
H847 H 0.46069 0.3789 0.91521 0.0
H848 H 0.43342 0.35869 0.86786 0.0
H849 H 0.43519 0.3544 0.94944 0.0
H850 H 0.49443 0.31514 0.76191 0.0
H851 H 0.47945 0.33022 0.72649 0.0
H852 H 0.50815 0.34825 0.77027 0.0
H853 H 0.44557 0.3811 0.68195 0.0
H854 H 0.51339 0.42687 0.79031 0.0
H855 H 0.42054 0.33362 0.76906 0.0
H856 H 0.43782 0.32291 0.72836 0.0
H857 H 0.42367 0.33769 0.68745 0.0
H858 H 0.50504 0.39024 0.90729 0.0
H859 H 0.52948 0.41148 0.8638 0.0
H860 H 0.51918 0.37894 0.85599 0.0
C861 C 0.1447 0.46686 0.91391 0.0
C862 C 0.14431 0.45031 0.95615 0.0
C863 C 0.12373 0.46161 0.87719 0.0
C864 C 0.10187 0.43905 0.8822 0.0
C865 C 0.1018 0.4214 0.92116 0.0
C866 C 0.12304 0.42732 0.95817 0.0
C867 C 0.12464 0.48096 0.83603 0.0
C868 C 0.07901 0.39691 0.92658 0.0
C869 C 0.04893 0.44952 0.85464 0.0
C870 C 0.04373 0.44394 0.79046 0.0
C871 C 0.06639 0.4458 0.88649 0.0
C872 C 0.07875 0.43599 0.8534 0.0
C873 C 0.07157 0.42762 0.79017 0.0
C874 C 0.05413 0.4318 0.75916 0.0
C875 C 0.07333 0.4548 0.95413 0.0
C876 C 0.08377 0.41626 0.75398 0.0
H877 H 0.16131 0.48433 0.91084 0.0
H878 H 0.12266 0.41439 0.99059 0.0
H879 H 0.11741 0.47276 0.78812 0.0
H880 H 0.11297 0.48813 0.85346 0.0
H881 H 0.14344 0.49677 0.83439 0.0
H882 H 0.08329 0.38326 0.9463 0.0
H883 H 0.06694 0.39957 0.95762 0.0
H884 H 0.06872 0.38919 0.88077 0.0
H885 H 0.04049 0.45834 0.87949 0.0
H886 H 0.04995 0.42711 0.70969 0.0
H887 H 0.09161 0.47168 0.95892 0.0
H888 H 0.07444 0.4407 0.98131 0.0
H889 H 0.06013 0.4593 0.97462 0.0
H890 H 0.1016 0.4311 0.74064 0.0
H891 H 0.07254 0.40564 0.71097 0.0
H892 H 0.0873 0.40385 0.78244 0.0
C893 C 0.6524 0.1185 0.97151 0.0
C894 C 0.67203 0.13502 0.93911 0.0
C895 C 0.63152 0.09876 0.9399 0.0
C896 C 0.63037 0.09559 0.87456 0.0
C897 C 0.65023 0.11213 0.84175 0.0
C898 C 0.67082 0.13164 0.87448 0.0
C899 C 0.6108 0.08127 0.97632 0.0
C900 C 0.6496 0.10944 0.77192 0.0
C901 C 0.58914 0.03593 0.77877 0.0
C902 C 0.57153 0.04091 0.75267 0.0
C903 C 0.60745 0.05281 0.82262 0.0
C904 C 0.60835 0.07534 0.83954 0.0
C905 C 0.58971 0.07974 0.81628 0.0
C906 C 0.57128 0.06226 0.77361 0.0
C907 C 0.62679 0.04732 0.84725 0.0
C908 C 0.59033 0.10375 0.83271 0.0
H909 H 0.65346 0.12091 0.02164 0.0
H910 H 0.68584 0.14459 0.84931 0.0
H911 H 0.59343 0.07977 0.95816 0.0
H912 H 0.60857 0.06254 0.97081 0.0
H913 H 0.6139 0.08723 0.02652 0.0
H914 H 0.66662 0.12385 0.75359 0.0
H915 H 0.64692 0.09105 0.75685 0.0
H916 H 0.63398 0.11064 0.75071 0.0
H917 H 0.58916 0.01925 0.76314 0.0
H918 H 0.55771 0.06619 0.7534 0.0
H919 H 0.63051 0.05177 0.89806 0.0
H920 H 0.64405 0.05904 0.82558 0.0
H921 H 0.62147 0.02766 0.83711 0.0
H922 H 0.5917 0.10718 0.88376 0.0
H923 H 0.57399 0.10394 0.81262 0.0
H924 H 0.60674 0.1193 0.81522 0.0
C925 C 0.56765 0.68322 0.82761 0.0
C926 C 0.54471 0.68115 0.83242 0.0
C927 C 0.57011 0.66585 0.79029 0.0
C928 C 0.54908 0.64576 0.75896 0.0
C929 C 0.52658 0.64544 0.75755 0.0
C930 C 0.52474 0.66331 0.79397 0.0
C931 C 0.5947 0.6676 0.78941 0.0
C932 C 0.5038 0.62465 0.72346 0.0
C933 C 0.54479 0.59073 0.66662 0.0
C934 C 0.53859 0.57386 0.71267 0.0
C935 C 0.5502 0.61511 0.6813 0.0
C936 C 0.5488 0.62238 0.74306 0.0
C937 C 0.54399 0.60581 0.79012 0.0
C938 C 0.53926 0.58193 0.77441 0.0
C939 C 0.55612 0.63238 0.62996 0.0
C940 C 0.54215 0.61264 0.85672 0.0
H941 H 0.58333 0.69727 0.85618 0.0
H942 H 0.50721 0.66236 0.79533 0.0
H943 H 0.59594 0.65536 0.82333 0.0
H944 H 0.59723 0.66144 0.74293 0.0
H945 H 0.60976 0.68675 0.80209 0.0
H946 H 0.48853 0.62861 0.72111 0.0
H947 H 0.50746 0.62118 0.67562 0.0
H948 H 0.49792 0.60745 0.74756 0.0
H949 H 0.54465 0.58475 0.61887 0.0
H950 H 0.53492 0.56919 0.81056 0.0
H951 H 0.56715 0.65204 0.64763 0.0
H952 H 0.5389 0.62945 0.60621 0.0
H953 H 0.56619 0.62846 0.59473 0.0
H954 H 0.5593 0.62936 0.87493 0.0
H955 H 0.53852 0.5976 0.88758 0.0
H956 H 0.52718 0.61694 0.85929 0.0
C957 C 0.45895 0.1284 0.37369 0.0
C958 C 0.47489 0.15395 0.3829 0.0
C959 C 0.46238 0.11184 0.40888 0.0
C960 C 0.48222 0.12104 0.4545 0.0
C961 C 0.49723 0.14688 0.46723 0.0
C962 C 0.49346 0.16302 0.43109 0.0
C963 C 0.44595 0.08445 0.39365 0.0
C964 C 0.51834 0.15747 0.51602 0.0
C965 C 0.486 0.0733 0.55215 0.0
C966 C 0.5005 0.06724 0.51671 0.0
C967 C 0.48053 0.09155 0.53418 0.0
C968 C 0.48983 0.10388 0.47976 0.0
C969 C 0.50553 0.09866 0.44605 0.0
C970 C 0.51066 0.08053 0.46497 0.0
C971 C 0.46397 0.09682 0.57175 0.0
C972 C 0.51612 0.11145 0.38813 0.0
H973 H 0.44462 0.12121 0.33645 0.0
H974 H 0.50555 0.18278 0.43933 0.0
H975 H 0.45618 0.07693 0.36941 0.0
H976 H 0.44 0.0747 0.43665 0.0
H977 H 0.42953 0.08027 0.36335 0.0
H978 H 0.52542 0.17743 0.52794 0.0
H979 H 0.51288 0.14745 0.5588 0.0
H980 H 0.53338 0.15525 0.4986 0.0
H981 H 0.47814 0.06315 0.59224 0.0
H982 H 0.52227 0.07629 0.43792 0.0
H983 H 0.44577 0.08865 0.54616 0.0
H984 H 0.4712 0.11701 0.57887 0.0
H985 H 0.46162 0.08893 0.61767 0.0
H986 H 0.50119 0.1068 0.352 0.0
H987 H 0.5289 0.10606 0.36894 0.0
H988 H 0.52602 0.13178 0.39807 0.0
C989 C 0.36708 0.51693 0.38652 0.0
C990 C 0.36342 0.51579 0.32193 0.0
C991 C 0.38567 0.51382 0.41419 0.0
C992 C 0.40102 0.50959 0.37622 0.0
C993 C 0.39846 0.51004 0.31113 0.0
C994 C 0.37957 0.51305 0.28463 0.0
C995 C 0.38805 0.51378 0.48393 0.0
C996 C 0.41466 0.50584 0.26929 0.0
C997 C 0.45667 0.51474 0.4632 0.0
C998 C 0.4479 0.49019 0.47774 0.0
C999 C 0.442 0.52128 0.42757 0.0
C1000 C 0.41829 0.50273 0.40496 0.0
C1001 C 0.41003 0.4777 0.41574 0.0
C1002 C 0.42489 0.47175 0.4525 0.0
C1003 C 0.45124 0.54815 0.4173 0.0
C1004 C 0.38489 0.45738 0.39175 0.0
H1005 H 0.35483 0.51942 0.41538 0.0
H1006 H 0.37666 0.51192 0.23459 0.0
H1007 H 0.38331 0.49502 0.49699 0.0
H1008 H 0.40715 0.5266 0.50219 0.0
H1009 H 0.37593 0.51922 0.50686 0.0
H1010 H 0.41309 0.5109 0.22136 0.0
H1011 H 0.43401 0.51667 0.28773 0.0
H1012 H 0.40938 0.48604 0.26727 0.0
H1013 H 0.4744 0.52912 0.48292 0.0
H1014 H 0.41816 0.45275 0.46323 0.0
H1015 H 0.46994 0.56043 0.43916 0.0
H1016 H 0.43894 0.55412 0.43672 0.0
H1017 H 0.4512 0.55069 0.36691 0.0
H1018 H 0.37093 0.45953 0.41599 0.0
H1019 H 0.38218 0.43873 0.39899 0.0
H1020 H 0.38171 0.45863 0.34155 0.0
C1021 C 0.86681 0.35419 0.33116 0.0
C1022 C 0.87152 0.33671 0.30214 0.0
C1023 C 0.88493 0.37412 0.3694 0.0
C1024 C 0.90821 0.37643 0.37949 0.0
C1025 C 0.91266 0.3581 0.35335 0.0
C1026 C 0.89435 0.33858 0.3145 0.0
C1027 C 0.87955 0.39342 0.39612 0.0
C1028 C 0.9372 0.35981 0.36367 0.0
C1029 C 0.96163 0.44151 0.3995 0.0
C1030 C 0.96692 0.44509 0.46399 0.0
C1031 C 0.94269 0.41919 0.3718 0.0
C1032 C 0.9288 0.39972 0.40932 0.0
C1033 C 0.93433 0.40285 0.47434 0.0
C1034 C 0.95328 0.42564 0.50106 0.0
C1035 C 0.93725 0.41669 0.3023 0.0
C1036 C 0.92003 0.38234 0.51564 0.0
H1037 H 0.84903 0.35254 0.32318 0.0
H1038 H 0.89827 0.32529 0.29205 0.0
H1039 H 0.8851 0.39731 0.44647 0.0
H1040 H 0.8903 0.41093 0.37365 0.0
H1041 H 0.85992 0.38769 0.38905 0.0
H1042 H 0.93664 0.34242 0.34774 0.0
H1043 H 0.95079 0.37501 0.33786 0.0
H1044 H 0.94367 0.36415 0.4135 0.0
H1045 H 0.97197 0.4564 0.37031 0.0
H1046 H 0.95726 0.42825 0.55088 0.0
H1047 H 0.91829 0.41267 0.29133 0.0
H1048 H 0.93869 0.40102 0.28151 0.0
H1049 H 0.94985 0.43366 0.27986 0.0
H1050 H 0.90116 0.37907 0.51627 0.0
H1051 H 0.92835 0.38674 0.56405 0.0
H1052 H 0.91874 0.36487 0.49736 0.0
C1053 C 0.48205 0.82539 0.29884 0.0
C1054 C 0.50398 0.82993 0.27453 0.0
C1055 C 0.48189 0.84115 0.34658 0.0
C1056 C 0.50401 0.86248 0.3686 0.0
C1057 C 0.52629 0.86635 0.34702 0.0
C1058 C 0.52602 0.84975 0.30134 0.0
C1059 C 0.45785 0.83581 0.37038 0.0
C1060 C 0.55029 0.88914 0.36824 0.0
C1061 C 0.50384 0.92186 0.40203 0.0
C1062 C 0.51102 0.92695 0.4656 0.0
C1063 C 0.5005 0.90038 0.37066 0.0
C1064 C 0.50364 0.88305 0.40401 0.0
C1065 C 0.50903 0.88709 0.46913 0.0
C1066 C 0.51313 0.90933 0.4992 0.0
C1067 C 0.49522 0.89713 0.30101 0.0
C1068 C 0.51116 0.86833 0.50654 0.0
H1069 H 0.46484 0.81014 0.27907 0.0
H1070 H 0.54319 0.85286 0.28524 0.0
H1071 H 0.45995 0.84099 0.42083 0.0
H1072 H 0.45108 0.84682 0.3464 0.0
H1073 H 0.44383 0.81598 0.36165 0.0
H1074 H 0.56614 0.88843 0.35062 0.0
H1075 H 0.55036 0.90571 0.35143 0.0
H1076 H 0.55274 0.89156 0.41953 0.0
H1077 H 0.50214 0.93538 0.37571 0.0
H1078 H 0.51826 0.91304 0.54857 0.0
H1079 H 0.47832 0.87938 0.28754 0.0
H1080 H 0.51035 0.89661 0.27845 0.0
H1081 H 0.493 0.91225 0.28241 0.0
H1082 H 0.49537 0.84961 0.49399 0.0
H1083 H 0.5121 0.87266 0.5572 0.0
H1084 H 0.52785 0.8678 0.49594 0.0
C1085 C 0.7054 0.57109 0.27262 0.0
C1086 C 0.71028 0.55175 0.28007 0.0
C1087 C 0.68822 0.57313 0.30732 0.0
C1088 C 0.6756 0.55535 0.3502 0.0
C1089 C 0.68169 0.53682 0.36086 0.0
C1090 C 0.69896 0.53526 0.32569 0.0
C1091 C 0.68236 0.59325 0.2949 0.0
C1092 C 0.66875 0.51756 0.40634 0.0
C1093 C 0.63371 0.56132 0.46169 0.0
C1094 C 0.61077 0.54595 0.43017 0.0
C1095 C 0.65521 0.56534 0.43551 0.0
C1096 C 0.65363 0.55368 0.37667 0.0
C1097 C 0.6306 0.53895 0.3438 0.0
C1098 C 0.60954 0.53532 0.37082 0.0
C1099 C 0.6795 0.58136 0.47159 0.0
C1100 C 0.62806 0.52623 0.28079 0.0
H1101 H 0.71402 0.58386 0.2373 0.0
H1102 H 0.70306 0.52059 0.33253 0.0
H1103 H 0.66448 0.58514 0.26771 0.0
H1104 H 0.68088 0.60191 0.33896 0.0
H1105 H 0.69636 0.60783 0.26833 0.0
H1106 H 0.67757 0.50629 0.41463 0.0
H1107 H 0.6683 0.52639 0.45131 0.0
H1108 H 0.64957 0.50501 0.38806 0.0
H1109 H 0.63487 0.56966 0.50747 0.0
H1110 H 0.59197 0.52364 0.3456 0.0
H1111 H 0.6926 0.59523 0.44197 0.0
H1112 H 0.68728 0.56977 0.48633 0.0
H1113 H 0.67789 0.59113 0.5135 0.0
H1114 H 0.63957 0.53992 0.24842 0.0
H1115 H 0.60892 0.51627 0.26024 0.0
H1116 H 0.63451 0.51275 0.28473 0.0
C1117 C 0.17111 0.70499 0.37824 0.0
C1118 C 0.15944 0.70319 0.31992 0.0
C1119 C 0.15908 0.68793 0.42239 0.0
C1120 C 0.13483 0.66859 0.40777 0.0
C1121 C 0.12289 0.66686 0.34924 0.0
C1122 C 0.13532 0.68418 0.30612 0.0
C1123 C 0.17232 0.69047 0.48441 0.0
C1124 C 0.09703 0.64645 0.33174 0.0
C1125 C 0.10536 0.60706 0.47879 0.0
C1126 C 0.08783 0.60871 0.5128 0.0
C1127 C 0.12231 0.62722 0.44826 0.0
C1128 C 0.12185 0.64962 0.45242 0.0
C1129 C 0.10616 0.65226 0.4926 0.0
C1130 C 0.08928 0.63173 0.52234 0.0
C1131 C 0.13895 0.62367 0.40663 0.0
C1132 C 0.10542 0.67598 0.49935 0.0
H1133 H 0.18965 0.71987 0.38952 0.0
H1134 H 0.12631 0.68253 0.26096 0.0
H1135 H 0.16173 0.69172 0.52239 0.0
H1136 H 0.17399 0.67384 0.49046 0.0
H1137 H 0.19086 0.70701 0.48933 0.0
H1138 H 0.09024 0.64794 0.28479 0.0
H1139 H 0.09598 0.62824 0.33285 0.0
H1140 H 0.08468 0.6469 0.3658 0.0
H1141 H 0.10465 0.58945 0.47194 0.0
H1142 H 0.07589 0.63327 0.54858 0.0
H1143 H 0.15767 0.63984 0.41237 0.0
H1144 H 0.13209 0.62194 0.35754 0.0
H1145 H 0.13983 0.60678 0.41597 0.0
H1146 H 0.12409 0.69225 0.50306 0.0
H1147 H 0.09596 0.6767 0.54066 0.0
H1148 H 0.09549 0.67741 0.45759 0.0
loop_
_geom_bond_atom_site_label_1
_geom_bond_atom_site_label_2
_geom_bond_distance
_geom_bond_site_symmetry_2
_ccdc_geom_bond_type
H0 C19 0.949 . S
H1 C20 0.950 . S
H2 C22 0.950 . S
H3 C23 0.950 . S
H4 C25 0.950 . S
H5 C28 0.950 . S
H6 C29 0.950 . S
H7 C31 0.951 . S
H8 C32 0.949 . S
H9 C34 0.949 . S
H10 C35 0.950 . S
H11 C37 0.950 . S
H12 C38 0.950 . S
H13 C40 0.950 . S
H14 C43 0.950 . S
H15 C44 0.950 . S
H16 C46 0.951 . S
H17 C47 0.949 . S
C18 C19 1.376 . S
C18 C23 1.386 . S
C18 C24 1.483 . S
C19 H0 0.949 . S
C19 C18 1.376 . S
C19 C20 1.397 . S
C20 H1 0.950 . S
C20 C19 1.397 . S
C20 C21 1.391 . S
C21 C20 1.391 . S
C21 C22 1.405 . S
C22 H2 0.950 . S
C22 C21 1.405 . S
C22 C23 1.367 . S
C23 H3 0.950 . S
C23 C18 1.386 . S
C23 C22 1.367 . S
C24 C18 1.483 . S
C24 C25 1.382 . S
C24 C26 1.403 . S
C25 H4 0.950 . S
C25 C24 1.382 . S
C25 C41 1.411 . S
C26 C24 1.403 . S
C26 C27 1.489 . S
C26 C40 1.411 . S
C27 C26 1.489 . S
C27 C28 1.383 . S
C27 C32 1.382 . S
C28 H5 0.950 . S
C28 C27 1.383 . S
C28 C29 1.395 . S
C29 H6 0.950 . S
C29 C28 1.395 . S
C29 C30 1.288 . S
C30 C29 1.288 . S
C30 C31 1.392 . S
C31 H7 0.951 . S
C31 C30 1.392 . S
C31 C32 1.392 . S
C32 H8 0.949 . S
C32 C27 1.382 . S
C32 C31 1.392 . S
C33 C34 1.376 . S
C33 C38 1.386 . S
C33 C39 1.483 . S
C34 H9 0.949 . S
C34 C33 1.376 . S
C34 C35 1.397 . S
C35 H10 0.950 . S
C35 C34 1.397 . S
C35 C36 1.391 . S
C36 C35 1.391 . S
C36 C37 1.405 . S
C37 H11 0.950 . S
C37 C36 1.405 . S
C37 C38 1.367 . S
C38 H12 0.950 . S
C38 C33 1.386 . S
C38 C37 1.367 . S
C39 C33 1.483 . S
C39 C40 1.382 . S
C39 C41 1.403 . S
C40 H13 0.950 . S
C40 C26 1.411 . S
C40 C39 1.382 . S
C41 C25 1.411 . S
C41 C39 1.403 . S
C41 C42 1.489 . S
C42 C41 1.489 . S
C42 C43 1.383 . S
C42 C47 1.382 . S
C43 H14 0.950 . S
C43 C42 1.383 . S
C43 C44 1.395 . S
C44 H15 0.950 . S
C44 C43 1.395 . S
C44 C45 1.288 . S
C45 C44 1.288 . S
C45 C46 1.392 . S
C46 H16 0.951 . S
C46 C45 1.392 . S
C46 C47 1.392 . S
C47 H17 0.949 . S
C47 C42 1.382 . S
C47 C46 1.392 . S
H48 C67 0.949 . S
H49 C68 0.950 . S
H50 C70 0.950 1_554 S
H51 C71 0.950 . S
H52 C73 0.950 1_556 S
H53 C76 0.950 . S
H54 C77 0.950 . S
H55 C79 0.951 . S
H56 C80 0.949 . S
H57 C82 0.949 . S
H58 C83 0.950 . S
H59 C85 0.950 . S
H60 C86 0.950 . S
H61 C88 0.950 . S
H62 C91 0.950 . S
H63 C92 0.950 . S
H64 C94 0.951 . S
H65 C95 0.949 . S
C66 C67 1.376 1_554 S
C66 C71 1.386 . S
C66 C72 1.483 . S
C67 H48 0.949 . S
C67 C66 1.376 1_556 S
C67 C68 1.397 . S
C68 H49 0.950 . S
C68 C67 1.397 . S
C68 C69 1.391 . S
C69 C68 1.391 . S
C69 C70 1.405 . S
C70 H50 0.950 1_556 S
C70 C69 1.405 . S
C70 C71 1.368 1_556 S
C71 H51 0.950 . S
C71 C66 1.386 . S
C71 C70 1.368 1_554 S
C72 C66 1.483 . S
C72 C73 1.382 . S
C72 C74 1.403 . S
C73 H52 0.950 1_554 S
C73 C72 1.382 . S
C73 C89 1.411 . S
C74 C72 1.403 . S
C74 C75 1.489 . S
C74 C88 1.411 . S
C75 C74 1.489 . S
C75 C76 1.383 . S
C75 C80 1.382 . S
C76 H53 0.950 . S
C76 C75 1.383 . S
C76 C77 1.395 . S
C77 H54 0.950 . S
C77 C76 1.395 . S
C77 C78 1.288 . S
C78 C77 1.288 . S
C78 C79 1.392 . S
C79 H55 0.951 . S
C79 C78 1.392 . S
C79 C80 1.392 . S
C80 H56 0.949 . S
C80 C75 1.382 . S
C80 C79 1.392 . S
C81 C82 1.376 . S
C81 C86 1.386 . S
C81 C87 1.483 . S
C82 H57 0.949 . S
C82 C81 1.376 . S
C82 C83 1.397 . S
C83 H58 0.950 . S
C83 C82 1.397 . S
C83 C84 1.391 . S
C84 C83 1.391 . S
C84 C85 1.405 . S
C85 H59 0.950 . S
C85 C84 1.405 . S
C85 C86 1.367 . S
C86 H60 0.950 . S
C86 C81 1.386 . S
C86 C85 1.367 . S
C87 C81 1.483 . S
C87 C88 1.382 . S
C87 C89 1.403 . S
C88 H61 0.950 . S
C88 C74 1.411 . S
C88 C87 1.382 . S
C89 C73 1.411 . S
C89 C87 1.403 . S
C89 C90 1.489 . S
C90 C89 1.489 . S
C90 C91 1.383 . S
C90 C95 1.382 1_554 S
C91 H62 0.950 . S
C91 C90 1.383 . S
C91 C92 1.395 1_554 S
C92 H63 0.950 . S
C92 C91 1.395 1_556 S
C92 C93 1.288 . S
C93 C92 1.288 . S
C93 C94 1.392 . S
C94 H64 0.951 . S
C94 C93 1.392 . S
C94 C95 1.392 . S
C95 H65 0.949 . S
C95 C90 1.382 1_556 S
C95 C94 1.392 . S
H96 C115 0.949 . S
H97 C116 0.950 . S
H98 C118 0.950 . S
H99 C119 0.950 . S
H100 C121 0.950 . S
H101 C124 0.950 . S
H102 C125 0.950 . S
H103 C127 0.951 . S
H104 C128 0.949 . S
H105 C130 0.949 . S
H106 C131 0.950 . S
H107 C133 0.950 . S
H108 C134 0.950 . S
H109 C136 0.950 . S
H110 C139 0.950 . S
H111 C140 0.950 . S
H112 C142 0.951 . S
H113 C143 0.949 . S
C114 C115 1.376 . S
C114 C119 1.386 . S
C114 C120 1.483 1_556 S
C115 H96 0.949 . S
C115 C114 1.376 . S
C115 C116 1.397 . S
C116 H97 0.950 . S
C116 C115 1.397 . S
C116 C117 1.391 . S
C117 C116 1.391 . S
C117 C118 1.405 . S
C118 H98 0.950 . S
C118 C117 1.405 . S
C118 C119 1.367 . S
C119 H99 0.950 . S
C119 C114 1.386 . S
C119 C118 1.367 . S
C120 C114 1.483 1_554 S
C120 C121 1.382 1_554 S
C120 C122 1.403 . S
C121 H100 0.950 . S
C121 C120 1.382 1_556 S
C121 C137 1.411 1_556 S
C122 C120 1.403 . S
C122 C123 1.489 . S
C122 C136 1.411 . S
C123 C122 1.489 . S
C123 C124 1.383 . S
C123 C128 1.382 . S
C124 H101 0.950 . S
C124 C123 1.383 . S
C124 C125 1.395 . S
C125 H102 0.950 . S
C125 C124 1.395 . S
C125 C126 1.288 . S
C126 C125 1.288 . S
C126 C127 1.392 . S
C127 H103 0.951 . S
C127 C126 1.392 . S
C127 C128 1.392 . S
C128 H104 0.949 . S
C128 C123 1.382 . S
C128 C127 1.392 . S
C129 C130 1.376 . S
C129 C134 1.386 . S
C129 C135 1.483 . S
C130 H105 0.949 . S
C130 C129 1.376 . S
C130 C131 1.397 . S
C131 H106 0.950 . S
C131 C130 1.397 . S
C131 C132 1.391 . S
C132 C131 1.391 . S
C132 C133 1.405 . S
C133 H107 0.950 . S
C133 C132 1.405 . S
C133 C134 1.367 . S
C134 H108 0.950 . S
C134 C129 1.386 . S
C134 C133 1.367 . S
C135 C129 1.483 . S
C135 C136 1.382 . S
C135 C137 1.403 . S
C136 H109 0.950 . S
C136 C122 1.411 . S
C136 C135 1.382 . S
C137 C121 1.411 1_554 S
C137 C135 1.403 . S
C137 C138 1.489 1_554 S
C138 C137 1.489 1_556 S
C138 C139 1.383 . S
C138 C143 1.382 . S
C139 H110 0.950 . S
C139 C138 1.383 . S
C139 C140 1.395 . S
C140 H111 0.950 . S
C140 C139 1.395 . S
C140 C141 1.288 . S
C141 C140 1.288 . S
C141 C142 1.392 . S
C142 H112 0.951 . S
C142 C141 1.392 . S
C142 C143 1.392 . S
C143 H113 0.949 . S
C143 C138 1.382 . S
C143 C142 1.392 . S
H144 C163 0.949 . S
H145 C164 0.950 . S
H146 C166 0.950 . S
H147 C167 0.950 . S
H148 C169 0.950 . S
H149 C172 0.950 . S
H150 C173 0.950 . S
H151 C175 0.951 . S
H152 C176 0.949 . S
H153 C178 0.949 . S
H154 C179 0.950 . S
H155 C181 0.950 . S
H156 C182 0.950 . S
H157 C184 0.950 . S
H158 C187 0.950 . S
H159 C188 0.950 . S
H160 C190 0.951 . S
H161 C191 0.949 . S
C162 C163 1.376 . S
C162 C167 1.386 . S
C162 C168 1.483 . S
C163 H144 0.949 . S
C163 C162 1.376 . S
C163 C164 1.397 . S
C164 H145 0.950 . S
C164 C163 1.397 . S
C164 C165 1.391 . S
C165 C164 1.391 . S
C165 C166 1.405 . S
C166 H146 0.950 . S
C166 C165 1.405 . S
C166 C167 1.367 . S
C167 H147 0.950 . S
C167 C162 1.386 . S
C167 C166 1.367 . S
C168 C162 1.483 . S
C168 C169 1.382 . S
C168 C170 1.403 1_554 S
C169 H148 0.950 . S
C169 C168 1.382 . S
C169 C185 1.411 . S
C170 C168 1.403 1_556 S
C170 C171 1.489 . S
C170 C184 1.411 . S
C171 C170 1.489 . S
C171 C172 1.383 . S
C171 C176 1.382 . S
C172 H149 0.950 . S
C172 C171 1.383 . S
C172 C173 1.395 . S
C173 H150 0.950 . S
C173 C172 1.395 . S
C173 C174 1.288 . S
C174 C173 1.288 . S
C174 C175 1.392 . S
C175 H151 0.951 . S
C175 C174 1.392 . S
C175 C176 1.392 . S
C176 H152 0.949 . S
C176 C171 1.382 . S
C176 C175 1.392 . S
C177 C178 1.376 . S
C177 C182 1.386 . S
C177 C183 1.483 . S
C178 H153 0.949 . S
C178 C177 1.376 . S
C178 C179 1.397 . S
C179 H154 0.950 . S
C179 C178 1.397 . S
C179 C180 1.391 . S
C180 C179 1.391 . S
C180 C181 1.405 . S
C181 H155 0.950 . S
C181 C180 1.405 . S
C181 C182 1.367 . S
C182 H156 0.950 . S
C182 C177 1.386 . S
C182 C181 1.367 . S
C183 C177 1.483 . S
C183 C184 1.382 . S
C183 C185 1.403 1_556 S
C184 H157 0.950 . S
C184 C170 1.411 . S
C184 C183 1.382 . S
C185 C169 1.411 . S
C185 C183 1.403 1_554 S
C185 C186 1.489 . S
C186 C185 1.489 . S
C186 C187 1.383 . S
C186 C191 1.382 . S
C187 H158 0.950 . S
C187 C186 1.383 . S
C187 C188 1.395 . S
C188 H159 0.950 . S
C188 C187 1.395 . S
C188 C189 1.288 . S
C189 C188 1.288 . S
C189 C190 1.392 . S
C190 H160 0.951 . S
C190 C189 1.392 . S
C190 C191 1.392 . S
C191 H161 0.949 . S
C191 C186 1.382 . S
C191 C190 1.392 . S
H192 C211 0.949 . S
H193 C212 0.950 . S
H194 C214 0.950 . S
H195 C215 0.950 . S
H196 C217 0.950 . S
H197 C220 0.950 . S
H198 C221 0.950 . S
H199 C223 0.951 . S
H200 C224 0.949 . S
H201 C226 0.949 . S
H202 C227 0.950 . S
H203 C229 0.950 . S
H204 C230 0.950 . S
H205 C232 0.950 . S
H206 C235 0.950 . S
H207 C236 0.951 . S
H208 C238 0.951 . S
H209 C239 0.949 . S
C210 C211 1.376 . S
C210 C215 1.386 . S
C210 C216 1.483 . S
C211 H192 0.949 . S
C211 C210 1.376 . S
C211 C212 1.397 1_554 S
C212 H193 0.950 . S
C212 C211 1.397 1_556 S
C212 C213 1.391 . S
C213 C212 1.391 . S
C213 C214 1.405 1_556 S
C214 H194 0.950 . S
C214 C213 1.405 1_554 S
C214 C215 1.367 . S
C215 H195 0.950 . S
C215 C210 1.386 . S
C215 C214 1.367 . S
C216 C210 1.483 . S
C216 C217 1.382 . S
C216 C218 1.403 . S
C217 H196 0.950 . S
C217 C216 1.382 . S
C217 C233 1.411 . S
C218 C216 1.403 . S
C218 C219 1.489 . S
C218 C232 1.411 . S
C219 C218 1.489 . S
C219 C220 1.383 . S
C219 C224 1.382 . S
C220 H197 0.950 . S
C220 C219 1.383 . S
C220 C221 1.395 . S
C221 H198 0.950 . S
C221 C220 1.395 . S
C221 C222 1.288 . S
C222 C221 1.288 . S
C222 C223 1.392 . S
C223 H199 0.951 . S
C223 C222 1.392 . S
C223 C224 1.392 . S
C224 H200 0.949 . S
C224 C219 1.382 . S
C224 C223 1.392 . S
C225 C226 1.376 . S
C225 C230 1.386 . S
C225 C231 1.483 . S
C226 H201 0.949 . S
C226 C225 1.376 . S
C226 C227 1.397 . S
C227 H202 0.950 . S
C227 C226 1.397 . S
C227 C228 1.391 . S
C228 C227 1.391 . S
C228 C229 1.405 . S
C229 H203 0.950 . S
C229 C228 1.405 . S
C229 C230 1.367 . S
C230 H204 0.950 . S
C230 C225 1.386 . S
C230 C229 1.367 . S
C231 C225 1.483 . S
C231 C232 1.382 . S
C231 C233 1.403 . S
C232 H205 0.950 . S
C232 C218 1.411 . S
C232 C231 1.382 . S
C233 C217 1.411 . S
C233 C231 1.403 . S
C233 C234 1.489 . S
C234 C233 1.489 . S
C234 C235 1.383 . S
C234 C239 1.382 1_554 S
C235 H206 0.950 . S
C235 C234 1.383 . S
C235 C236 1.396 . S
C236 H207 0.951 . S
C236 C235 1.396 . S
C236 C237 1.286 1_554 S
C237 C236 1.286 1_556 S
C237 C238 1.392 . S
C238 H208 0.951 . S
C238 C237 1.392 . S
C238 C239 1.392 . S
C239 H209 0.949 . S
C239 C234 1.382 1_556 S
C239 C238 1.392 . S
H240 C259 0.949 . S
H241 C260 0.950 . S
H242 C262 0.950 . S
H243 C263 0.950 . S
H244 C265 0.950 . S
H245 C268 0.950 . S
H246 C269 0.950 . S
H247 C271 0.951 . S
H248 C272 0.949 . S
H249 C274 0.949 . S
H250 C275 0.950 . S
H251 C277 0.950 . S
H252 C278 0.950 . S
H253 C280 0.950 . S
H254 C283 0.950 . S
H255 C284 0.950 . S
H256 C286 0.959 . S
H257 C287 0.949 . S
C258 C259 1.376 . S
C258 C263 1.386 . S
C258 C264 1.483 . S
C259 H240 0.949 . S
C259 C258 1.376 . S
C259 C260 1.397 . S
C260 H241 0.950 . S
C260 C259 1.397 . S
C260 C261 1.391 . S
C261 C260 1.391 . S
C261 C262 1.405 . S
C262 H242 0.950 . S
C262 C261 1.405 . S
C262 C263 1.367 . S
C263 H243 0.950 . S
C263 C258 1.386 . S
C263 C262 1.367 . S
C264 C258 1.483 . S
C264 C265 1.382 . S
C264 C266 1.403 . S
C265 H244 0.950 . S
C265 C264 1.382 . S
C265 C281 1.411 . S
C266 C264 1.403 . S
C266 C267 1.489 . S
C266 C280 1.411 . S
C267 C266 1.489 . S
C267 C268 1.383 . S
C267 C272 1.382 . S
C268 H245 0.950 . S
C268 C267 1.383 . S
C268 C269 1.395 . S
C269 H246 0.950 . S
C269 C268 1.395 . S
C269 C270 1.288 . S
C270 C269 1.288 . S
C270 C271 1.392 . S
C271 H247 0.951 . S
C271 C270 1.392 . S
C271 C272 1.392 . S
C272 H248 0.949 . S
C272 C267 1.382 . S
C272 C271 1.392 . S
C273 C274 1.376 . S
C273 C278 1.386 . S
C273 C279 1.483 . S
C274 H249 0.949 . S
C274 C273 1.376 . S
C274 C275 1.397 . S
C275 H250 0.950 . S
C275 C274 1.397 . S
C275 C276 1.391 . S
C276 C275 1.391 . S
C276 C277 1.405 . S
C277 H251 0.950 . S
C277 C276 1.405 . S
C277 C278 1.367 . S
C278 H252 0.950 . S
C278 C273 1.386 . S
C278 C277 1.367 . S
C279 C273 1.483 . S
C279 C280 1.382 . S
C279 C281 1.403 . S
C280 H253 0.950 . S
C280 C266 1.411 . S
C280 C279 1.382 . S
C281 C265 1.411 . S
C281 C279 1.403 . S
C281 C282 1.489 . S
C282 C281 1.489 . S
C282 C283 1.383 . S
C282 C287 1.382 . S
C283 H254 0.950 . S
C283 C282 1.383 . S
C283 C284 1.395 . S
C284 H255 0.950 . S
C284 C283 1.395 . S
C284 C285 1.288 . S
C285 C284 1.288 . S
C285 C286 1.392 . S
C286 H256 0.959 . S
C286 C285 1.392 . S
C286 C287 1.392 . S
C287 H257 0.949 . S
C287 C282 1.382 . S
C287 C286 1.392 . S
C288 O315 1.312 . S
C288 O316 1.208 . S
C289 O310 1.331 . S
C289 O313 1.244 . S
C290 O312 1.264 . S
C290 O314 1.273 . S
Mg291 O293 1.919 1_455 S
Mg291 O300 2.081 1_455 S
Mg291 O302 2.023 . S
Mg291 O306 2.031 1_455 S
Mg291 O315 2.291 . S
Mg292 O293 1.982 . S
Mg292 O303 1.942 . S
Mg292 O304 1.956 1_655 S
Mg292 O311 1.985 . S
O293 Mg291 1.919 1_655 S
O293 Mg292 1.982 . S
O293 Mg294 1.896 1_655 S
Mg294 O293 1.896 1_455 S
Mg294 O295 1.915 . S
Mg294 O299 2.013 . S
Mg294 O305 2.114 1_455 S
Mg294 O309 2.013 1_455 S
Mg294 O315 2.114 . S
O295 Mg294 1.915 . S
O295 Mg296 1.936 . S
O295 Mg297 1.963 . S
Mg296 O295 1.936 . S
Mg296 O305 2.291 1_455 S
Mg296 O310 2.081 . S
Mg296 O312 2.023 1_455 S
Mg296 O316 2.031 . S
Mg297 O295 1.963 . S
Mg297 O301 1.986 . S
Mg297 O313 1.942 . S
Mg297 O314 1.955 1_455 S
C298 O309 1.191 . S
C298 O311 1.307 . S
O299 Mg294 2.013 . S
O299 C318 1.191 . S
O300 Mg291 2.081 1_655 S
O300 C308 1.331 . S
O301 Mg297 1.986 . S
O301 C318 1.307 . S
O302 Mg291 2.023 . S
O302 C317 1.264 . S
O303 Mg292 1.942 . S
O303 C308 1.244 . S
O304 Mg292 1.956 1_455 S
O304 C317 1.273 . S
O305 Mg294 2.114 1_655 S
O305 Mg296 2.291 1_655 S
O305 C307 1.312 . S
O306 Mg291 2.031 1_655 S
O306 C307 1.208 . S
C307 O305 1.312 . S
C307 O306 1.208 . S
C308 O300 1.331 . S
C308 O303 1.244 . S
O309 Mg294 2.013 1_655 S
O309 C298 1.191 . S
O310 C289 1.331 . S
O310 Mg296 2.081 . S
O311 Mg292 1.985 . S
O311 C298 1.307 . S
O312 C290 1.264 . S
O312 Mg296 2.023 1_655 S
O313 C289 1.244 . S
O313 Mg297 1.942 . S
O314 C290 1.273 . S
O314 Mg297 1.955 1_655 S
O315 C288 1.312 . S
O315 Mg291 2.291 . S
O315 Mg294 2.114 . S
O316 C288 1.208 . S
O316 Mg296 2.031 . S
C317 O302 1.264 . S
C317 O304 1.273 . S
C318 O299 1.191 . S
C318 O301 1.307 . S
C319 O346 1.312 . S
C319 O347 1.208 . S
C320 O341 1.331 . S
C320 O344 1.244 . S
C321 O343 1.264 . S
C321 O345 1.273 . S
Mg322 O324 1.936 1_545 S
Mg322 O331 2.081 1_545 S
Mg322 O333 2.023 . S
Mg322 O337 2.031 1_545 S
Mg322 O346 2.291 . S
Mg323 O324 1.963 . S
Mg323 O334 1.942 . S
Mg323 O335 1.955 1_565 S
Mg323 O342 1.986 . S
O324 Mg322 1.936 1_565 S
O324 Mg323 1.963 . S
O324 Mg325 1.915 1_565 S
Mg325 O324 1.915 1_545 S
Mg325 O326 1.915 . S
Mg325 O330 2.013 . S
Mg325 O336 2.114 1_545 S
Mg325 O340 2.013 1_545 S
Mg325 O346 2.114 . S
O326 Mg325 1.915 . S
O326 Mg327 1.936 . S
O326 Mg328 1.963 . S
Mg327 O326 1.936 . S
Mg327 O336 2.291 1_545 S
Mg327 O341 2.081 . S
Mg327 O343 2.023 1_545 S
Mg327 O347 2.031 . S
Mg328 O326 1.963 . S
Mg328 O332 1.986 . S
Mg328 O344 1.942 . S
Mg328 O345 1.955 1_545 S
C329 O340 1.191 . S
C329 O342 1.307 . S
O330 Mg325 2.013 . S
O330 C349 1.191 . S
O331 Mg322 2.081 1_565 S
O331 C339 1.331 . S
O332 Mg328 1.986 . S
O332 C349 1.307 . S
O333 Mg322 2.023 . S
O333 C348 1.264 . S
O334 Mg323 1.942 . S
O334 C339 1.244 . S
O335 Mg323 1.955 1_545 S
O335 C348 1.273 . S
O336 Mg325 2.114 1_565 S
O336 Mg327 2.291 1_565 S
O336 C338 1.312 . S
O337 Mg322 2.031 1_565 S
O337 C338 1.208 . S
C338 O336 1.312 . S
C338 O337 1.208 . S
C339 O331 1.331 . S
C339 O334 1.244 . S
O340 Mg325 2.013 1_565 S
O340 C329 1.191 . S
O341 C320 1.331 . S
O341 Mg327 2.081 . S
O342 Mg323 1.986 . S
O342 C329 1.307 . S
O343 C321 1.264 . S
O343 Mg327 2.023 1_565 S
O344 C320 1.244 . S
O344 Mg328 1.942 . S
O345 C321 1.273 . S
O345 Mg328 1.955 1_565 S
O346 C319 1.312 . S
O346 Mg322 2.291 . S
O346 Mg325 2.114 . S
O347 C319 1.208 . S
O347 Mg327 2.031 . S
C348 O333 1.264 . S
C348 O335 1.273 . S
C349 O330 1.191 . S
C349 O332 1.307 . S
C350 O377 1.312 . S
C350 O378 1.208 . S
C351 O372 1.331 . S
C351 O375 1.244 . S
C352 O374 1.264 . S
C352 O376 1.273 . S
Mg353 O355 1.936 . S
Mg353 O362 2.081 . S
Mg353 O364 2.023 . S
Mg353 O368 2.031 . S
Mg353 O377 2.291 . S
Mg354 O355 1.963 . S
Mg354 O365 1.942 . S
Mg354 O366 1.955 . S
Mg354 O373 1.986 . S
O355 Mg353 1.936 . S
O355 Mg354 1.963 . S
O355 Mg356 1.915 . S
Mg356 O355 1.915 . S
Mg356 O357 1.915 . S
Mg356 O361 2.013 . S
Mg356 O367 2.114 . S
Mg356 O371 2.013 . S
Mg356 O377 2.114 . S
O357 Mg356 1.915 . S
O357 Mg358 1.936 . S
O357 Mg359 1.963 . S
Mg358 O357 1.936 . S
Mg358 O367 2.291 . S
Mg358 O372 2.081 . S
Mg358 O374 2.023 . S
Mg358 O378 2.031 . S
Mg359 O357 1.963 . S
Mg359 O363 1.986 . S
Mg359 O375 1.942 . S
Mg359 O376 1.955 . S
C360 O371 1.191 . S
C360 O373 1.307 . S
O361 Mg356 2.013 . S
O361 C380 1.191 . S
O362 Mg353 2.081 . S
O362 C370 1.331 . S
O363 Mg359 1.986 . S
O363 C380 1.307 . S
O364 Mg353 2.023 . S
O364 C379 1.264 . S
O365 Mg354 1.942 . S
O365 C370 1.244 . S
O366 Mg354 1.955 . S
O366 C379 1.273 . S
O367 Mg356 2.114 . S
O367 Mg358 2.291 . S
O367 C369 1.312 . S
O368 Mg353 2.031 . S
O368 C369 1.208 . S
C369 O367 1.312 . S
C369 O368 1.208 . S
C370 O362 1.331 . S
C370 O365 1.244 . S
O371 Mg356 2.013 . S
O371 C360 1.191 . S
O372 C351 1.331 . S
O372 Mg358 2.081 . S
O373 Mg354 1.986 . S
O373 C360 1.307 . S
O374 C352 1.264 . S
O374 Mg358 2.023 . S
O375 C351 1.244 . S
O375 Mg359 1.942 . S
O376 C352 1.273 . S
O376 Mg359 1.955 . S
O377 C350 1.312 . S
O377 Mg353 2.291 . S
O377 Mg356 2.114 . S
O378 C350 1.208 . S
O378 Mg358 2.031 . S
C379 O364 1.264 . S
C379 O366 1.273 . S
C380 O361 1.191 . S
C380 O363 1.307 . S
C381 C382 1.391 . S
C381 C383 1.394 . S
C381 H397 0.931 . S
C382 C381 1.391 . S
C382 C386 1.376 . S
C383 C381 1.394 . S
C383 C384 1.369 . S
C383 C387 1.531 . S
C384 C383 1.369 . S
C384 C385 1.410 . S
C384 C392 1.503 . S
C385 C384 1.410 . S
C385 C386 1.392 . S
C385 C388 1.511 . S
C386 C382 1.376 . S
C386 C385 1.392 . S
C386 H398 0.929 . S
C387 C383 1.531 . S
C387 H399 0.960 . S
C387 H400 0.962 . S
C387 H401 0.960 . S
C388 C385 1.511 . S
C388 H402 0.961 . S
C388 H403 0.961 . S
C388 H404 0.961 . S
C389 C390 1.370 . S
C389 C391 1.363 . S
C389 H405 0.931 . S
C390 C389 1.370 . S
C390 C394 1.408 . S
C391 C389 1.363 . S
C391 C392 1.370 . S
C391 C395 1.524 . S
C392 C384 1.503 . S
C392 C391 1.370 . S
C392 C393 1.403 . S
C393 C392 1.403 . S
C393 C394 1.404 . S
C393 C396 1.539 . S
C394 C390 1.408 . S
C394 C393 1.404 . S
C394 H406 0.930 . S
C395 C391 1.524 . S
C395 H407 0.956 . S
C395 H408 0.961 . S
C395 H409 0.961 . S
C396 C393 1.539 . S
C396 H410 0.958 . S
C396 H411 0.961 . S
C396 H412 0.960 . S
H397 C381 0.931 . S
H398 C386 0.929 . S
H399 C387 0.960 . S
H400 C387 0.962 . S
H401 C387 0.960 . S
H402 C388 0.961 . S
H403 C388 0.961 . S
H404 C388 0.961 . S
H405 C389 0.931 . S
H406 C394 0.930 . S
H407 C395 0.956 . S
H408 C395 0.961 . S
H409 C395 0.961 . S
H410 C396 0.958 . S
H411 C396 0.961 . S
H412 C396 0.960 . S
C413 C414 1.391 . S
C413 C415 1.394 . S
C413 H429 0.931 . S
C414 C413 1.391 . S
C414 C418 1.376 . S
C415 C413 1.394 . S
C415 C416 1.369 . S
C415 C419 1.531 . S
C416 C415 1.369 . S
C416 C417 1.410 . S
C416 C424 1.503 . S
C417 C416 1.410 . S
C417 C418 1.392 . S
C417 C420 1.511 . S
C418 C414 1.376 . S
C418 C417 1.392 . S
C418 H430 0.929 . S
C419 C415 1.531 . S
C419 H431 0.960 . S
C419 H432 0.962 . S
C419 H433 0.960 . S
C420 C417 1.511 . S
C420 H434 0.961 . S
C420 H435 0.961 . S
C420 H436 0.961 . S
C421 C422 1.370 . S
C421 C423 1.363 . S
C421 H437 0.931 . S
C422 C421 1.370 . S
C422 C426 1.408 . S
C423 C421 1.363 . S
C423 C424 1.370 . S
C423 C427 1.524 . S
C424 C416 1.503 . S
C424 C423 1.370 . S
C424 C425 1.403 . S
C425 C424 1.403 . S
C425 C426 1.404 . S
C425 C428 1.539 . S
C426 C422 1.408 . S
C426 C425 1.404 . S
C426 H438 0.930 . S
C427 C423 1.524 . S
C427 H439 0.956 . S
C427 H440 0.961 . S
C427 H441 0.961 . S
C428 C425 1.539 . S
C428 H442 0.958 . S
C428 H443 0.961 . S
C428 H444 0.960 . S
H429 C413 0.931 . S
H430 C418 0.929 . S
H431 C419 0.960 . S
H432 C419 0.962 . S
H433 C419 0.960 . S
H434 C420 0.961 . S
H435 C420 0.961 . S
H436 C420 0.961 . S
H437 C421 0.931 . S
H438 C426 0.930 . S
H439 C427 0.956 . S
H440 C427 0.961 . S
H441 C427 0.961 . S
H442 C428 0.958 . S
H443 C428 0.961 . S
H444 C428 0.960 . S
C445 C446 1.391 . S
C445 C447 1.394 . S
C445 H461 0.931 . S
C446 C445 1.391 . S
C446 C450 1.376 . S
C447 C445 1.394 . S
C447 C448 1.369 . S
C447 C451 1.531 . S
C448 C447 1.369 . S
C448 C449 1.410 . S
C448 C456 1.503 . S
C449 C448 1.410 . S
C449 C450 1.392 . S
C449 C452 1.511 . S
C450 C446 1.376 . S
C450 C449 1.392 . S
C450 H462 0.929 . S
C451 C447 1.531 . S
C451 H463 0.960 . S
C451 H464 0.962 . S
C451 H465 0.960 . S
C452 C449 1.511 . S
C452 H466 0.961 . S
C452 H467 0.961 . S
C452 H468 0.961 . S
C453 C454 1.370 . S
C453 C455 1.363 . S
C453 H469 0.931 . S
C454 C453 1.370 . S
C454 C458 1.408 . S
C455 C453 1.363 . S
C455 C456 1.370 . S
C455 C459 1.524 . S
C456 C448 1.503 . S
C456 C455 1.370 . S
C456 C457 1.403 . S
C457 C456 1.403 . S
C457 C458 1.404 . S
C457 C460 1.539 . S
C458 C454 1.408 . S
C458 C457 1.404 . S
C458 H470 0.930 . S
C459 C455 1.524 . S
C459 H471 0.956 . S
C459 H472 0.961 . S
C459 H473 0.961 . S
C460 C457 1.539 . S
C460 H474 0.958 . S
C460 H475 0.961 . S
C460 H476 0.960 . S
H461 C445 0.931 . S
H462 C450 0.929 . S
H463 C451 0.960 . S
H464 C451 0.962 . S
H465 C451 0.960 . S
H466 C452 0.961 . S
H467 C452 0.961 . S
H468 C452 0.961 . S
H469 C453 0.931 . S
H470 C458 0.930 . S
H471 C459 0.956 . S
H472 C459 0.961 . S
H473 C459 0.961 . S
H474 C460 0.958 . S
H475 C460 0.961 . S
H476 C460 0.960 . S
C477 C478 1.391 . S
C477 C479 1.394 . S
C477 H493 0.931 . S
C478 C477 1.391 . S
C478 C482 1.376 . S
C479 C477 1.394 . S
C479 C480 1.369 . S
C479 C483 1.531 . S
C480 C479 1.369 . S
C480 C481 1.410 . S
C480 C488 1.503 . S
C481 C480 1.410 . S
C481 C482 1.392 . S
C481 C484 1.511 . S
C482 C478 1.376 . S
C482 C481 1.392 . S
C482 H494 0.929 . S
C483 C479 1.531 . S
C483 H495 0.960 . S
C483 H496 0.962 . S
C483 H497 0.960 . S
C484 C481 1.511 . S
C484 H498 0.961 . S
C484 H499 0.961 . S
C484 H500 0.961 . S
C485 C486 1.370 . S
C485 C487 1.363 . S
C485 H501 0.931 . S
C486 C485 1.370 . S
C486 C490 1.408 . S
C487 C485 1.363 . S
C487 C488 1.370 . S
C487 C491 1.524 . S
C488 C480 1.503 . S
C488 C487 1.370 . S
C488 C489 1.403 . S
C489 C488 1.403 . S
C489 C490 1.404 . S
C489 C492 1.539 . S
C490 C486 1.408 . S
C490 C489 1.404 . S
C490 H502 0.930 . S
C491 C487 1.524 . S
C491 H503 0.956 . S
C491 H504 0.961 . S
C491 H505 0.961 . S
C492 C489 1.539 . S
C492 H506 0.958 . S
C492 H507 0.961 . S
C492 H508 0.960 . S
H493 C477 0.931 . S
H494 C482 0.929 . S
H495 C483 0.960 . S
H496 C483 0.962 . S
H497 C483 0.960 . S
H498 C484 0.961 . S
H499 C484 0.961 . S
H500 C484 0.961 . S
H501 C485 0.931 . S
H502 C490 0.930 . S
H503 C491 0.956 . S
H504 C491 0.961 . S
H505 C491 0.961 . S
H506 C492 0.958 . S
H507 C492 0.961 . S
H508 C492 0.960 . S
C509 C510 1.391 . S
C509 C511 1.394 . S
C509 H525 0.931 . S
C510 C509 1.391 . S
C510 C514 1.376 . S
C511 C509 1.394 . S
C511 C512 1.369 . S
C511 C515 1.531 . S
C512 C511 1.369 . S
C512 C513 1.410 . S
C512 C520 1.503 . S
C513 C512 1.410 . S
C513 C514 1.392 . S
C513 C516 1.511 . S
C514 C510 1.376 . S
C514 C513 1.392 . S
C514 H526 0.929 . S
C515 C511 1.531 . S
C515 H527 0.960 . S
C515 H528 0.962 . S
C515 H529 0.960 . S
C516 C513 1.511 . S
C516 H530 0.961 . S
C516 H531 0.961 . S
C516 H532 0.961 . S
C517 C518 1.370 . S
C517 C519 1.363 . S
C517 H533 0.931 . S
C518 C517 1.370 . S
C518 C522 1.408 . S
C519 C517 1.363 . S
C519 C520 1.370 . S
C519 C523 1.524 . S
C520 C512 1.503 . S
C520 C519 1.370 . S
C520 C521 1.403 . S
C521 C520 1.403 . S
C521 C522 1.404 . S
C521 C524 1.539 . S
C522 C518 1.408 . S
C522 C521 1.404 . S
C522 H534 0.930 . S
C523 C519 1.524 . S
C523 H535 0.956 . S
C523 H536 0.961 . S
C523 H537 0.961 . S
C524 C521 1.539 . S
C524 H538 0.958 . S
C524 H539 0.961 . S
C524 H540 0.960 . S
H525 C509 0.931 . S
H526 C514 0.929 . S
H527 C515 0.960 . S
H528 C515 0.962 . S
H529 C515 0.960 . S
H530 C516 0.961 . S
H531 C516 0.961 . S
H532 C516 0.961 . S
H533 C517 0.931 . S
H534 C522 0.930 . S
H535 C523 0.956 . S
H536 C523 0.961 . S
H537 C523 0.961 . S
H538 C524 0.958 . S
H539 C524 0.961 . S
H540 C524 0.960 . S
C541 C542 1.391 . S
C541 C543 1.394 . S
C541 H557 0.931 . S
C542 C541 1.391 . S
C542 C546 1.376 . S
C543 C541 1.394 . S
C543 C544 1.369 . S
C543 C547 1.531 . S
C544 C543 1.369 . S
C544 C545 1.410 . S
C544 C552 1.503 . S
C545 C544 1.410 . S
C545 C546 1.392 . S
C545 C548 1.511 . S
C546 C542 1.376 . S
C546 C545 1.392 . S
C546 H558 0.929 . S
C547 C543 1.531 . S
C547 H559 0.960 . S
C547 H560 0.962 . S
C547 H561 0.960 . S
C548 C545 1.511 . S
C548 H562 0.961 . S
C548 H563 0.961 . S
C548 H564 0.961 . S
C549 C550 1.370 . S
C549 C551 1.363 . S
C549 H565 0.931 . S
C550 C549 1.370 . S
C550 C554 1.408 . S
C551 C549 1.363 . S
C551 C552 1.370 . S
C551 C555 1.524 . S
C552 C544 1.503 . S
C552 C551 1.370 . S
C552 C553 1.403 . S
C553 C552 1.403 . S
C553 C554 1.404 . S
C553 C556 1.539 . S
C554 C550 1.408 . S
C554 C553 1.404 . S
C554 H566 0.930 . S
C555 C551 1.524 . S
C555 H567 0.956 . S
C555 H568 0.961 . S
C555 H569 0.961 . S
C556 C553 1.539 . S
C556 H570 0.958 . S
C556 H571 0.961 . S
C556 H572 0.960 . S
H557 C541 0.931 . S
H558 C546 0.929 . S
H559 C547 0.960 . S
H560 C547 0.962 . S
H561 C547 0.960 . S
H562 C548 0.961 . S
H563 C548 0.961 . S
H564 C548 0.961 . S
H565 C549 0.931 . S
H566 C554 0.930 . S
H567 C555 0.956 . S
H568 C555 0.961 . S
H569 C555 0.961 . S
H570 C556 0.958 . S
H571 C556 0.961 . S
H572 C556 0.960 . S
C573 C574 1.391 . S
C573 C575 1.394 . S
C573 H589 0.931 . S
C574 C573 1.391 . S
C574 C578 1.376 . S
C575 C573 1.394 . S
C575 C576 1.369 . S
C575 C579 1.531 . S
C576 C575 1.369 . S
C576 C577 1.410 . S
C576 C584 1.503 . S
C577 C576 1.410 . S
C577 C578 1.392 . S
C577 C580 1.511 . S
C578 C574 1.376 . S
C578 C577 1.392 . S
C578 H590 0.929 . S
C579 C575 1.531 . S
C579 H591 0.960 . S
C579 H592 0.962 . S
C579 H593 0.960 . S
C580 C577 1.511 . S
C580 H594 0.961 . S
C580 H595 0.961 . S
C580 H596 0.961 . S
C581 C582 1.370 . S
C581 C583 1.363 . S
C581 H597 0.931 . S
C582 C581 1.370 . S
C582 C586 1.408 . S
C583 C581 1.363 . S
C583 C584 1.370 . S
C583 C587 1.524 . S
C584 C576 1.503 . S
C584 C583 1.370 . S
C584 C585 1.403 . S
C585 C584 1.403 . S
C585 C586 1.404 . S
C585 C588 1.539 . S
C586 C582 1.408 . S
C586 C585 1.404 . S
C586 H598 0.930 . S
C587 C583 1.524 . S
C587 H599 0.956 . S
C587 H600 0.961 . S
C587 H601 0.961 . S
C588 C585 1.539 . S
C588 H602 0.958 . S
C588 H603 0.961 . S
C588 H604 0.960 . S
H589 C573 0.931 . S
H590 C578 0.929 . S
H591 C579 0.960 . S
H592 C579 0.962 . S
H593 C579 0.960 . S
H594 C580 0.961 . S
H595 C580 0.961 . S
H596 C580 0.961 . S
H597 C581 0.931 . S
H598 C586 0.930 . S
H599 C587 0.956 . S
H600 C587 0.961 . S
H601 C587 0.961 . S
H602 C588 0.958 . S
H603 C588 0.961 . S
H604 C588 0.960 . S
C605 C606 1.391 . S
C605 C607 1.394 . S
C605 H621 0.931 . S
C606 C605 1.391 . S
C606 C610 1.376 . S
C607 C605 1.394 . S
C607 C608 1.369 . S
C607 C611 1.531 . S
C608 C607 1.369 . S
C608 C609 1.410 . S
C608 C616 1.503 . S
C609 C608 1.410 . S
C609 C610 1.392 . S
C609 C612 1.511 . S
C610 C606 1.376 . S
C610 C609 1.392 . S
C610 H622 0.929 . S
C611 C607 1.531 . S
C611 H623 0.960 . S
C611 H624 0.962 . S
C611 H625 0.960 . S
C612 C609 1.511 . S
C612 H626 0.961 . S
C612 H627 0.961 . S
C612 H628 0.961 . S
C613 C614 1.370 . S
C613 C615 1.363 . S
C613 H629 0.931 . S
C614 C613 1.370 . S
C614 C618 1.408 . S
C615 C613 1.363 . S
C615 C616 1.370 . S
C615 C619 1.524 . S
C616 C608 1.503 . S
C616 C615 1.370 . S
C616 C617 1.403 . S
C617 C616 1.403 . S
C617 C618 1.404 . S
C617 C620 1.539 . S
C618 C614 1.408 . S
C618 C617 1.404 . S
C618 H630 0.930 . S
C619 C615 1.524 . S
C619 H631 0.956 . S
C619 H632 0.961 . S
C619 H633 0.961 . S
C620 C617 1.539 . S
C620 H634 0.958 . S
C620 H635 0.961 . S
C620 H636 0.960 . S
H621 C605 0.931 . S
H622 C610 0.929 . S
H623 C611 0.960 . S
H624 C611 0.962 . S
H625 C611 0.960 . S
H626 C612 0.961 . S
H627 C612 0.961 . S
H628 C612 0.961 . S
H629 C613 0.931 . S
H630 C618 0.930 . S
H631 C619 0.956 . S
H632 C619 0.961 . S
H633 C619 0.961 . S
H634 C620 0.958 . S
H635 C620 0.961 . S
H636 C620 0.960 . S
C637 C638 1.391 . S
C637 C639 1.394 . S
C637 H653 0.931 . S
C638 C637 1.391 . S
C638 C642 1.376 . S
C639 C637 1.394 . S
C639 C640 1.369 . S
C639 C643 1.531 . S
C640 C639 1.369 . S
C640 C641 1.410 . S
C640 C648 1.503 . S
C641 C640 1.410 . S
C641 C642 1.392 . S
C641 C644 1.511 . S
C642 C638 1.376 . S
C642 C641 1.392 . S
C642 H654 0.929 . S
C643 C639 1.531 . S
C643 H655 0.960 . S
C643 H656 0.962 . S
C643 H657 0.960 . S
C644 C641 1.511 . S
C644 H658 0.961 . S
C644 H659 0.961 . S
C644 H660 0.961 . S
C645 C646 1.370 . S
C645 C647 1.363 . S
C645 H661 0.931 . S
C646 C645 1.370 . S
C646 C650 1.408 . S
C647 C645 1.363 . S
C647 C648 1.370 . S
C647 C651 1.524 . S
C648 C640 1.503 . S
C648 C647 1.370 . S
C648 C649 1.403 . S
C649 C648 1.403 . S
C649 C650 1.404 . S
C649 C652 1.539 . S
C650 C646 1.408 . S
C650 C649 1.404 . S
C650 H662 0.930 . S
C651 C647 1.524 . S
C651 H663 0.956 . S
C651 H664 0.961 . S
C651 H665 0.961 . S
C652 C649 1.539 . S
C652 H666 0.958 . S
C652 H667 0.961 . S
C652 H668 0.960 . S
H653 C637 0.931 . S
H654 C642 0.929 . S
H655 C643 0.960 . S
H656 C643 0.962 . S
H657 C643 0.960 . S
H658 C644 0.961 . S
H659 C644 0.961 . S
H660 C644 0.961 . S
H661 C645 0.931 . S
H662 C650 0.930 . S
H663 C651 0.956 . S
H664 C651 0.961 . S
H665 C651 0.961 . S
H666 C652 0.958 . S
H667 C652 0.961 . S
H668 C652 0.960 . S
C669 C670 1.391 . S
C669 C671 1.394 . S
C669 H685 0.931 . S
C670 C669 1.391 . S
C670 C674 1.376 . S
C671 C669 1.394 . S
C671 C672 1.369 . S
C671 C675 1.531 . S
C672 C671 1.369 . S
C672 C673 1.410 . S
C672 C680 1.503 . S
C673 C672 1.410 . S
C673 C674 1.392 . S
C673 C676 1.511 . S
C674 C670 1.376 . S
C674 C673 1.392 . S
C674 H686 0.929 1_556 S
C675 C671 1.531 . S
C675 H687 0.960 . S
C675 H688 0.962 . S
C675 H689 0.960 . S
C676 C673 1.511 . S
C676 H690 0.961 . S
C676 H691 0.961 . S
C676 H692 0.961 . S
C677 C678 1.370 . S
C677 C679 1.363 . S
C677 H693 0.931 . S
C678 C677 1.370 . S
C678 C682 1.408 . S
C679 C677 1.363 . S
C679 C680 1.370 . S
C679 C683 1.524 . S
C680 C672 1.503 . S
C680 C679 1.370 . S
C680 C681 1.403 . S
C681 C680 1.403 . S
C681 C682 1.404 . S
C681 C684 1.539 . S
C682 C678 1.408 . S
C682 C681 1.404 . S
C682 H694 0.930 . S
C683 C679 1.524 . S
C683 H695 0.956 . S
C683 H696 0.961 . S
C683 H697 0.961 . S
C684 C681 1.539 . S
C684 H698 0.958 . S
C684 H699 0.961 . S
C684 H700 0.960 . S
H685 C669 0.931 . S
H686 C674 0.929 1_554 S
H687 C675 0.960 . S
H688 C675 0.962 . S
H689 C675 0.960 . S
H690 C676 0.961 . S
H691 C676 0.961 . S
H692 C676 0.961 . S
H693 C677 0.931 . S
H694 C682 0.930 . S
H695 C683 0.956 . S
H696 C683 0.961 . S
H697 C683 0.961 . S
H698 C684 0.958 . S
H699 C684 0.961 . S
H700 C684 0.960 . S
C701 C702 1.391 . S
C701 C703 1.394 . S
C701 H717 0.931 . S
C702 C701 1.391 . S
C702 C706 1.376 1_556 S
C703 C701 1.394 . S
C703 C704 1.369 . S
C703 C707 1.531 . S
C704 C703 1.369 . S
C704 C705 1.410 . S
C704 C712 1.503 . S
C705 C704 1.410 . S
C705 C706 1.392 1_556 S
C705 C708 1.511 . S
C706 C702 1.376 1_554 S
C706 C705 1.392 1_554 S
C706 H718 0.929 . S
C707 C703 1.531 . S
C707 H719 0.960 . S
C707 H720 0.962 . S
C707 H721 0.960 . S
C708 C705 1.511 . S
C708 H722 0.961 1_556 S
C708 H723 0.961 . S
C708 H724 0.961 . S
C709 C710 1.370 . S
C709 C711 1.363 . S
C709 H725 0.931 . S
C710 C709 1.370 . S
C710 C714 1.408 . S
C711 C709 1.363 . S
C711 C712 1.370 . S
C711 C715 1.524 . S
C712 C704 1.503 . S
C712 C711 1.370 . S
C712 C713 1.403 . S
C713 C712 1.403 . S
C713 C714 1.404 . S
C713 C716 1.539 . S
C714 C710 1.408 . S
C714 C713 1.404 . S
C714 H726 0.930 . S
C715 C711 1.524 . S
C715 H727 0.956 . S
C715 H728 0.961 . S
C715 H729 0.961 . S
C716 C713 1.539 . S
C716 H730 0.958 . S
C716 H731 0.961 . S
C716 H732 0.960 . S
H717 C701 0.931 . S
H718 C706 0.929 . S
H719 C707 0.960 . S
H720 C707 0.962 . S
H721 C707 0.960 . S
H722 C708 0.961 1_554 S
H723 C708 0.961 . S
H724 C708 0.961 . S
H725 C709 0.931 . S
H726 C714 0.930 . S
H727 C715 0.956 . S
H728 C715 0.961 . S
H729 C715 0.961 . S
H730 C716 0.958 . S
H731 C716 0.961 . S
H732 C716 0.960 . S
C733 C734 1.391 . S
C733 C735 1.394 . S
C733 H749 0.931 . S
C734 C733 1.391 . S
C734 C738 1.376 . S
C735 C733 1.394 . S
C735 C736 1.369 . S
C735 C739 1.531 . S
C736 C735 1.369 . S
C736 C737 1.410 . S
C736 C744 1.503 . S
C737 C736 1.410 . S
C737 C738 1.392 . S
C737 C740 1.511 . S
C738 C734 1.376 . S
C738 C737 1.392 . S
C738 H750 0.929 . S
C739 C735 1.531 . S
C739 H751 0.960 . S
C739 H752 0.962 . S
C739 H753 0.960 . S
C740 C737 1.511 . S
C740 H754 0.961 . S
C740 H755 0.961 . S
C740 H756 0.961 . S
C741 C742 1.370 . S
C741 C743 1.363 . S
C741 H757 0.931 . S
C742 C741 1.370 . S
C742 C746 1.408 . S
C743 C741 1.363 . S
C743 C744 1.370 . S
C743 C747 1.524 . S
C744 C736 1.503 . S
C744 C743 1.370 . S
C744 C745 1.403 . S
C745 C744 1.403 . S
C745 C746 1.404 . S
C745 C748 1.539 . S
C746 C742 1.408 . S
C746 C745 1.404 . S
C746 H758 0.930 . S
C747 C743 1.524 . S
C747 H759 0.956 . S
C747 H760 0.961 . S
C747 H761 0.961 . S
C748 C745 1.539 . S
C748 H762 0.958 . S
C748 H763 0.961 . S
C748 H764 0.960 . S
H749 C733 0.931 . S
H750 C738 0.929 . S
H751 C739 0.960 . S
H752 C739 0.962 . S
H753 C739 0.960 . S
H754 C740 0.961 . S
H755 C740 0.961 . S
H756 C740 0.961 . S
H757 C741 0.931 . S
H758 C746 0.930 . S
H759 C747 0.956 . S
H760 C747 0.961 . S
H761 C747 0.961 . S
H762 C748 0.958 . S
H763 C748 0.961 . S
H764 C748 0.960 . S
C765 C766 1.391 . S
C765 C767 1.394 . S
C765 H781 0.931 . S
C766 C765 1.391 . S
C766 C770 1.376 . S
C767 C765 1.394 . S
C767 C768 1.369 . S
C767 C771 1.531 . S
C768 C767 1.369 . S
C768 C769 1.410 . S
C768 C776 1.503 . S
C769 C768 1.410 . S
C769 C770 1.392 . S
C769 C772 1.511 . S
C770 C766 1.376 . S
C770 C769 1.392 . S
C770 H782 0.929 . S
C771 C767 1.531 . S
C771 H783 0.960 . S
C771 H784 0.962 . S
C771 H785 0.960 . S
C772 C769 1.511 . S
C772 H786 0.961 . S
C772 H787 0.961 . S
C772 H788 0.961 . S
C773 C774 1.370 . S
C773 C775 1.363 . S
C773 H789 0.931 . S
C774 C773 1.370 . S
C774 C778 1.408 . S
C775 C773 1.363 . S
C775 C776 1.370 . S
C775 C779 1.524 . S
C776 C768 1.503 . S
C776 C775 1.370 . S
C776 C777 1.403 . S
C777 C776 1.403 . S
C777 C778 1.404 . S
C777 C780 1.539 . S
C778 C774 1.408 . S
C778 C777 1.404 . S
C778 H790 0.930 . S
C779 C775 1.524 . S
C779 H791 0.956 . S
C779 H792 0.961 . S
C779 H793 0.961 . S
C780 C777 1.539 . S
C780 H794 0.958 . S
C780 H795 0.961 . S
C780 H796 0.960 . S
H781 C765 0.931 . S
H782 C770 0.929 . S
H783 C771 0.960 . S
H784 C771 0.962 . S
H785 C771 0.960 . S
H786 C772 0.961 . S
H787 C772 0.961 . S
H788 C772 0.961 . S
H789 C773 0.931 . S
H790 C778 0.930 . S
H791 C779 0.956 . S
H792 C779 0.961 . S
H793 C779 0.961 . S
H794 C780 0.958 . S
H795 C780 0.961 . S
H796 C780 0.960 . S
C797 C798 1.391 . S
C797 C799 1.394 . S
C797 H813 0.931 . S
C798 C797 1.391 . S
C798 C802 1.376 . S
C799 C797 1.394 . S
C799 C800 1.369 . S
C799 C803 1.531 . S
C800 C799 1.369 . S
C800 C801 1.410 . S
C800 C808 1.503 . S
C801 C800 1.410 . S
C801 C802 1.392 . S
C801 C804 1.511 . S
C802 C798 1.376 . S
C802 C801 1.392 . S
C802 H814 0.929 . S
C803 C799 1.531 . S
C803 H815 0.960 . S
C803 H816 0.962 . S
C803 H817 0.960 . S
C804 C801 1.511 . S
C804 H818 0.961 . S
C804 H819 0.961 . S
C804 H820 0.961 . S
C805 C806 1.370 . S
C805 C807 1.363 . S
C805 H821 0.931 . S
C806 C805 1.370 . S
C806 C810 1.408 . S
C807 C805 1.363 . S
C807 C808 1.370 . S
C807 C811 1.524 . S
C808 C800 1.503 . S
C808 C807 1.370 . S
C808 C809 1.403 . S
C809 C808 1.403 . S
C809 C810 1.404 . S
C809 C812 1.539 . S
C810 C806 1.408 . S
C810 C809 1.404 . S
C810 H822 0.930 . S
C811 C807 1.524 . S
C811 H823 0.956 . S
C811 H824 0.961 . S
C811 H825 0.961 . S
C812 C809 1.539 . S
C812 H826 0.958 . S
C812 H827 0.961 . S
C812 H828 0.960 . S
H813 C797 0.931 . S
H814 C802 0.929 . S
H815 C803 0.960 . S
H816 C803 0.962 . S
H817 C803 0.960 . S
H818 C804 0.961 . S
H819 C804 0.961 . S
H820 C804 0.961 . S
H821 C805 0.931 . S
H822 C810 0.930 . S
H823 C811 0.956 . S
H824 C811 0.961 . S
H825 C811 0.961 . S
H826 C812 0.958 . S
H827 C812 0.961 . S
H828 C812 0.960 . S
C829 C830 1.391 . S
C829 C831 1.394 . S
C829 H845 0.931 1_556 S
C830 C829 1.391 . S
C830 C834 1.376 . S
C831 C829 1.394 . S
C831 C832 1.369 . S
C831 C835 1.531 . S
C832 C831 1.369 . S
C832 C833 1.410 . S
C832 C840 1.503 . S
C833 C832 1.410 . S
C833 C834 1.392 . S
C833 C836 1.511 . S
C834 C830 1.376 . S
C834 C833 1.392 . S
C834 H846 0.929 . S
C835 C831 1.531 . S
C835 H847 0.960 . S
C835 H848 0.962 . S
C835 H849 0.960 . S
C836 C833 1.511 . S
C836 H850 0.961 . S
C836 H851 0.961 . S
C836 H852 0.961 . S
C837 C838 1.370 . S
C837 C839 1.363 . S
C837 H853 0.931 . S
C838 C837 1.370 . S
C838 C842 1.408 . S
C839 C837 1.363 . S
C839 C840 1.370 . S
C839 C843 1.524 . S
C840 C832 1.503 . S
C840 C839 1.370 . S
C840 C841 1.403 . S
C841 C840 1.403 . S
C841 C842 1.404 . S
C841 C844 1.539 . S
C842 C838 1.408 . S
C842 C841 1.404 . S
C842 H854 0.930 . S
C843 C839 1.524 . S
C843 H855 0.956 . S
C843 H856 0.961 . S
C843 H857 0.961 . S
C844 C841 1.539 . S
C844 H858 0.958 . S
C844 H859 0.961 . S
C844 H860 0.960 . S
H845 C829 0.931 1_554 S
H846 C834 0.929 . S
H847 C835 0.960 . S
H848 C835 0.962 . S
H849 C835 0.960 . S
H850 C836 0.961 . S
H851 C836 0.961 . S
H852 C836 0.961 . S
H853 C837 0.931 . S
H854 C842 0.930 . S
H855 C843 0.956 . S
H856 C843 0.961 . S
H857 C843 0.961 . S
H858 C844 0.958 . S
H859 C844 0.961 . S
H860 C844 0.960 . S
C861 C862 1.391 . S
C861 C863 1.394 . S
C861 H877 0.931 . S
C862 C861 1.391 . S
C862 C866 1.376 . S
C863 C861 1.394 . S
C863 C864 1.369 . S
C863 C867 1.531 . S
C864 C863 1.369 . S
C864 C865 1.410 . S
C864 C872 1.503 . S
C865 C864 1.410 . S
C865 C866 1.392 . S
C865 C868 1.511 . S
C866 C862 1.376 . S
C866 C865 1.392 . S
C866 H878 0.929 1_556 S
C867 C863 1.531 . S
C867 H879 0.960 . S
C867 H880 0.962 . S
C867 H881 0.960 . S
C868 C865 1.511 . S
C868 H882 0.961 . S
C868 H883 0.961 . S
C868 H884 0.961 . S
C869 C870 1.370 . S
C869 C871 1.363 . S
C869 H885 0.931 . S
C870 C869 1.370 . S
C870 C874 1.408 . S
C871 C869 1.363 . S
C871 C872 1.370 . S
C871 C875 1.524 . S
C872 C864 1.503 . S
C872 C871 1.370 . S
C872 C873 1.403 . S
C873 C872 1.403 . S
C873 C874 1.404 . S
C873 C876 1.539 . S
C874 C870 1.408 . S
C874 C873 1.404 . S
C874 H886 0.930 . S
C875 C871 1.524 . S
C875 H887 0.956 . S
C875 H888 0.961 . S
C875 H889 0.961 . S
C876 C873 1.539 . S
C876 H890 0.958 . S
C876 H891 0.961 . S
C876 H892 0.960 . S
H877 C861 0.931 . S
H878 C866 0.929 1_554 S
H879 C867 0.960 . S
H880 C867 0.962 . S
H881 C867 0.960 . S
H882 C868 0.961 . S
H883 C868 0.961 . S
H884 C868 0.961 . S
H885 C869 0.931 . S
H886 C874 0.930 . S
H887 C875 0.956 . S
H888 C875 0.961 . S
H889 C875 0.961 . S
H890 C876 0.958 . S
H891 C876 0.961 . S
H892 C876 0.960 . S
C893 C894 1.391 . S
C893 C895 1.394 . S
C893 H909 0.931 . S
C894 C893 1.391 . S
C894 C898 1.376 . S
C895 C893 1.394 . S
C895 C896 1.369 . S
C895 C899 1.531 . S
C896 C895 1.369 . S
C896 C897 1.410 . S
C896 C904 1.503 . S
C897 C896 1.410 . S
C897 C898 1.392 . S
C897 C900 1.511 . S
C898 C894 1.376 . S
C898 C897 1.392 . S
C898 H910 0.929 . S
C899 C895 1.531 . S
C899 H911 0.960 . S
C899 H912 0.962 . S
C899 H913 0.960 . S
C900 C897 1.511 . S
C900 H914 0.961 . S
C900 H915 0.961 . S
C900 H916 0.961 . S
C901 C902 1.370 . S
C901 C903 1.363 . S
C901 H917 0.931 . S
C902 C901 1.370 . S
C902 C906 1.408 . S
C903 C901 1.363 . S
C903 C904 1.370 . S
C903 C907 1.524 . S
C904 C896 1.503 . S
C904 C903 1.370 . S
C904 C905 1.403 . S
C905 C904 1.403 . S
C905 C906 1.404 . S
C905 C908 1.539 . S
C906 C902 1.408 . S
C906 C905 1.404 . S
C906 H918 0.930 . S
C907 C903 1.524 . S
C907 H919 0.956 . S
C907 H920 0.961 . S
C907 H921 0.961 . S
C908 C905 1.539 . S
C908 H922 0.958 . S
C908 H923 0.961 . S
C908 H924 0.960 . S
H909 C893 0.931 . S
H910 C898 0.929 . S
H911 C899 0.960 . S
H912 C899 0.962 . S
H913 C899 0.960 . S
H914 C900 0.961 . S
H915 C900 0.961 . S
H916 C900 0.961 . S
H917 C901 0.931 . S
H918 C906 0.930 . S
H919 C907 0.956 . S
H920 C907 0.961 . S
H921 C907 0.961 . S
H922 C908 0.958 . S
H923 C908 0.961 . S
H924 C908 0.960 . S
C925 C926 1.391 . S
C925 C927 1.394 . S
C925 H941 0.931 . S
C926 C925 1.391 . S
C926 C930 1.376 . S
C927 C925 1.394 . S
C927 C928 1.369 . S
C927 C931 1.531 . S
C928 C927 1.369 . S
C928 C929 1.410 . S
C928 C936 1.503 . S
C929 C928 1.410 . S
C929 C930 1.392 . S
C929 C932 1.511 . S
C930 C926 1.376 . S
C930 C929 1.392 . S
C930 H942 0.929 . S
C931 C927 1.531 . S
C931 H943 0.960 . S
C931 H944 0.962 . S
C931 H945 0.960 . S
C932 C929 1.511 . S
C932 H946 0.961 . S
C932 H947 0.961 . S
C932 H948 0.961 . S
C933 C934 1.370 . S
C933 C935 1.363 . S
C933 H949 0.931 . S
C934 C933 1.370 . S
C934 C938 1.408 . S
C935 C933 1.363 . S
C935 C936 1.370 . S
C935 C939 1.524 . S
C936 C928 1.503 . S
C936 C935 1.370 . S
C936 C937 1.403 . S
C937 C936 1.403 . S
C937 C938 1.404 . S
C937 C940 1.539 . S
C938 C934 1.408 . S
C938 C937 1.404 . S
C938 H950 0.930 . S
C939 C935 1.524 . S
C939 H951 0.956 . S
C939 H952 0.961 . S
C939 H953 0.961 . S
C940 C937 1.539 . S
C940 H954 0.958 . S
C940 H955 0.961 . S
C940 H956 0.960 . S
H941 C925 0.931 . S
H942 C930 0.929 . S
H943 C931 0.960 . S
H944 C931 0.962 . S
H945 C931 0.960 . S
H946 C932 0.961 . S
H947 C932 0.961 . S
H948 C932 0.961 . S
H949 C933 0.931 . S
H950 C938 0.930 . S
H951 C939 0.956 . S
H952 C939 0.961 . S
H953 C939 0.961 . S
H954 C940 0.958 . S
H955 C940 0.961 . S
H956 C940 0.960 . S
C957 C958 1.391 . S
C957 C959 1.394 . S
C957 H973 0.931 . S
C958 C957 1.391 . S
C958 C962 1.376 . S
C959 C957 1.394 . S
C959 C960 1.369 . S
C959 C963 1.531 . S
C960 C959 1.369 . S
C960 C961 1.410 . S
C960 C968 1.503 . S
C961 C960 1.410 . S
C961 C962 1.392 . S
C961 C964 1.511 . S
C962 C958 1.376 . S
C962 C961 1.392 . S
C962 H974 0.929 . S
C963 C959 1.531 . S
C963 H975 0.960 . S
C963 H976 0.962 . S
C963 H977 0.960 . S
C964 C961 1.511 . S
C964 H978 0.961 . S
C964 H979 0.961 . S
C964 H980 0.961 . S
C965 C966 1.370 . S
C965 C967 1.363 . S
C965 H981 0.931 . S
C966 C965 1.370 . S
C966 C970 1.408 . S
C967 C965 1.363 . S
C967 C968 1.370 . S
C967 C971 1.524 . S
C968 C960 1.503 . S
C968 C967 1.370 . S
C968 C969 1.403 . S
C969 C968 1.403 . S
C969 C970 1.404 . S
C969 C972 1.539 . S
C970 C966 1.408 . S
C970 C969 1.404 . S
C970 H982 0.930 . S
C971 C967 1.524 . S
C971 H983 0.956 . S
C971 H984 0.961 . S
C971 H985 0.961 . S
C972 C969 1.539 . S
C972 H986 0.958 . S
C972 H987 0.961 . S
C972 H988 0.960 . S
H973 C957 0.931 . S
H974 C962 0.929 . S
H975 C963 0.960 . S
H976 C963 0.962 . S
H977 C963 0.960 . S
H978 C964 0.961 . S
H979 C964 0.961 . S
H980 C964 0.961 . S
H981 C965 0.931 . S
H982 C970 0.930 . S
H983 C971 0.956 . S
H984 C971 0.961 . S
H985 C971 0.961 . S
H986 C972 0.958 . S
H987 C972 0.961 . S
H988 C972 0.960 . S
C989 C990 1.391 . S
C989 C991 1.394 . S
C989 H1005 0.931 . S
C990 C989 1.391 . S
C990 C994 1.376 . S
C991 C989 1.394 . S
C991 C992 1.369 . S
C991 C995 1.531 . S
C992 C991 1.369 . S
C992 C993 1.410 . S
C992 C1000 1.503 . S
C993 C992 1.410 . S
C993 C994 1.392 . S
C993 C996 1.511 . S
C994 C990 1.376 . S
C994 C993 1.392 . S
C994 H1006 0.929 . S
C995 C991 1.531 . S
C995 H1007 0.960 . S
C995 H1008 0.962 . S
C995 H1009 0.960 . S
C996 C993 1.511 . S
C996 H1010 0.961 . S
C996 H1011 0.961 . S
C996 H1012 0.961 . S
C997 C998 1.370 . S
C997 C999 1.363 . S
C997 H1013 0.931 . S
C998 C997 1.370 . S
C998 C1002 1.408 . S
C999 C997 1.363 . S
C999 C1000 1.370 . S
C999 C1003 1.524 . S
C1000 C992 1.503 . S
C1000 C999 1.370 . S
C1000 C1001 1.403 . S
C1001 C1000 1.403 . S
C1001 C1002 1.404 . S
C1001 C1004 1.539 . S
C1002 C998 1.408 . S
C1002 C1001 1.404 . S
C1002 H1014 0.930 . S
C1003 C999 1.524 . S
C1003 H1015 0.956 . S
C1003 H1016 0.961 . S
C1003 H1017 0.961 . S
C1004 C1001 1.539 . S
C1004 H1018 0.958 . S
C1004 H1019 0.961 . S
C1004 H1020 0.960 . S
H1005 C989 0.931 . S
H1006 C994 0.929 . S
H1007 C995 0.960 . S
H1008 C995 0.962 . S
H1009 C995 0.960 . S
H1010 C996 0.961 . S
H1011 C996 0.961 . S
H1012 C996 0.961 . S
H1013 C997 0.931 . S
H1014 C1002 0.930 . S
H1015 C1003 0.956 . S
H1016 C1003 0.961 . S
H1017 C1003 0.961 . S
H1018 C1004 0.958 . S
H1019 C1004 0.961 . S
H1020 C1004 0.960 . S
C1021 C1022 1.391 . S
C1021 C1023 1.394 . S
C1021 H1037 0.931 . S
C1022 C1021 1.391 . S
C1022 C1026 1.376 . S
C1023 C1021 1.394 . S
C1023 C1024 1.369 . S
C1023 C1027 1.531 . S
C1024 C1023 1.369 . S
C1024 C1025 1.410 . S
C1024 C1032 1.503 . S
C1025 C1024 1.410 . S
C1025 C1026 1.392 . S
C1025 C1028 1.511 . S
C1026 C1022 1.376 . S
C1026 C1025 1.392 . S
C1026 H1038 0.929 . S
C1027 C1023 1.531 . S
C1027 H1039 0.960 . S
C1027 H1040 0.962 . S
C1027 H1041 0.960 . S
C1028 C1025 1.511 . S
C1028 H1042 0.961 . S
C1028 H1043 0.961 . S
C1028 H1044 0.961 . S
C1029 C1030 1.370 . S
C1029 C1031 1.363 . S
C1029 H1045 0.931 . S
C1030 C1029 1.370 . S
C1030 C1034 1.408 . S
C1031 C1029 1.363 . S
C1031 C1032 1.370 . S
C1031 C1035 1.524 . S
C1032 C1024 1.503 . S
C1032 C1031 1.370 . S
C1032 C1033 1.403 . S
C1033 C1032 1.403 . S
C1033 C1034 1.404 . S
C1033 C1036 1.539 . S
C1034 C1030 1.408 . S
C1034 C1033 1.404 . S
C1034 H1046 0.930 . S
C1035 C1031 1.524 . S
C1035 H1047 0.956 . S
C1035 H1048 0.961 . S
C1035 H1049 0.961 . S
C1036 C1033 1.539 . S
C1036 H1050 0.958 . S
C1036 H1051 0.961 . S
C1036 H1052 0.960 . S
H1037 C1021 0.931 . S
H1038 C1026 0.929 . S
H1039 C1027 0.960 . S
H1040 C1027 0.962 . S
H1041 C1027 0.960 . S
H1042 C1028 0.961 . S
H1043 C1028 0.961 . S
H1044 C1028 0.961 . S
H1045 C1029 0.931 . S
H1046 C1034 0.930 . S
H1047 C1035 0.956 . S
H1048 C1035 0.961 . S
H1049 C1035 0.961 . S
H1050 C1036 0.958 . S
H1051 C1036 0.961 . S
H1052 C1036 0.960 . S
C1053 C1054 1.391 . S
C1053 C1055 1.394 . S
C1053 H1069 0.931 . S
C1054 C1053 1.391 . S
C1054 C1058 1.376 . S
C1055 C1053 1.394 . S
C1055 C1056 1.369 . S
C1055 C1059 1.531 . S
C1056 C1055 1.369 . S
C1056 C1057 1.410 . S
C1056 C1064 1.503 . S
C1057 C1056 1.410 . S
C1057 C1058 1.392 . S
C1057 C1060 1.511 . S
C1058 C1054 1.376 . S
C1058 C1057 1.392 . S
C1058 H1070 0.929 . S
C1059 C1055 1.531 . S
C1059 H1071 0.960 . S
C1059 H1072 0.962 . S
C1059 H1073 0.960 . S
C1060 C1057 1.511 . S
C1060 H1074 0.961 . S
C1060 H1075 0.961 . S
C1060 H1076 0.961 . S
C1061 C1062 1.370 . S
C1061 C1063 1.363 . S
C1061 H1077 0.931 . S
C1062 C1061 1.370 . S
C1062 C1066 1.408 . S
C1063 C1061 1.363 . S
C1063 C1064 1.370 . S
C1063 C1067 1.524 . S
C1064 C1056 1.503 . S
C1064 C1063 1.370 . S
C1064 C1065 1.403 . S
C1065 C1064 1.403 . S
C1065 C1066 1.404 . S
C1065 C1068 1.539 . S
C1066 C1062 1.408 . S
C1066 C1065 1.404 . S
C1066 H1078 0.930 . S
C1067 C1063 1.524 . S
C1067 H1079 0.956 . S
C1067 H1080 0.961 . S
C1067 H1081 0.961 . S
C1068 C1065 1.539 . S
C1068 H1082 0.958 . S
C1068 H1083 0.961 . S
C1068 H1084 0.960 . S
H1069 C1053 0.931 . S
H1070 C1058 0.929 . S
H1071 C1059 0.960 . S
H1072 C1059 0.962 . S
H1073 C1059 0.960 . S
H1074 C1060 0.961 . S
H1075 C1060 0.961 . S
H1076 C1060 0.961 . S
H1077 C1061 0.931 . S
H1078 C1066 0.930 . S
H1079 C1067 0.956 . S
H1080 C1067 0.961 . S
H1081 C1067 0.961 . S
H1082 C1068 0.958 . S
H1083 C1068 0.961 . S
H1084 C1068 0.960 . S
C1085 C1086 1.391 . S
C1085 C1087 1.394 . S
C1085 H1101 0.931 . S
C1086 C1085 1.391 . S
C1086 C1090 1.376 . S
C1087 C1085 1.394 . S
C1087 C1088 1.369 . S
C1087 C1091 1.531 . S
C1088 C1087 1.369 . S
C1088 C1089 1.410 . S
C1088 C1096 1.503 . S
C1089 C1088 1.410 . S
C1089 C1090 1.392 . S
C1089 C1092 1.511 . S
C1090 C1086 1.376 . S
C1090 C1089 1.392 . S
C1090 H1102 0.929 . S
C1091 C1087 1.531 . S
C1091 H1103 0.960 . S
C1091 H1104 0.962 . S
C1091 H1105 0.960 . S
C1092 C1089 1.511 . S
C1092 H1106 0.961 . S
C1092 H1107 0.961 . S
C1092 H1108 0.961 . S
C1093 C1094 1.370 . S
C1093 C1095 1.363 . S
C1093 H1109 0.931 . S
C1094 C1093 1.370 . S
C1094 C1098 1.408 . S
C1095 C1093 1.363 . S
C1095 C1096 1.370 . S
C1095 C1099 1.524 . S
C1096 C1088 1.503 . S
C1096 C1095 1.370 . S
C1096 C1097 1.403 . S
C1097 C1096 1.403 . S
C1097 C1098 1.404 . S
C1097 C1100 1.539 . S
C1098 C1094 1.408 . S
C1098 C1097 1.404 . S
C1098 H1110 0.930 . S
C1099 C1095 1.524 . S
C1099 H1111 0.956 . S
C1099 H1112 0.961 . S
C1099 H1113 0.961 . S
C1100 C1097 1.539 . S
C1100 H1114 0.958 . S
C1100 H1115 0.961 . S
C1100 H1116 0.960 . S
H1101 C1085 0.931 . S
H1102 C1090 0.929 . S
H1103 C1091 0.960 . S
H1104 C1091 0.962 . S
H1105 C1091 0.960 . S
H1106 C1092 0.961 . S
H1107 C1092 0.961 . S
H1108 C1092 0.961 . S
H1109 C1093 0.931 . S
H1110 C1098 0.930 . S
H1111 C1099 0.956 . S
H1112 C1099 0.961 . S
H1113 C1099 0.961 . S
H1114 C1100 0.958 . S
H1115 C1100 0.961 . S
H1116 C1100 0.960 . S
C1117 C1118 1.391 . S
C1117 C1119 1.394 . S
C1117 H1133 0.931 . S
C1118 C1117 1.391 . S
C1118 C1122 1.376 . S
C1119 C1117 1.394 . S
C1119 C1120 1.369 . S
C1119 C1123 1.531 . S
C1120 C1119 1.369 . S
C1120 C1121 1.410 . S
C1120 C1128 1.503 . S
C1121 C1120 1.410 . S
C1121 C1122 1.392 . S
C1121 C1124 1.511 . S
C1122 C1118 1.376 . S
C1122 C1121 1.392 . S
C1122 H1134 0.929 . S
C1123 C1119 1.531 . S
C1123 H1135 0.960 . S
C1123 H1136 0.962 . S
C1123 H1137 0.960 . S
C1124 C1121 1.511 . S
C1124 H1138 0.961 . S
C1124 H1139 0.961 . S
C1124 H1140 0.961 . S
C1125 C1126 1.370 . S
C1125 C1127 1.363 . S
C1125 H1141 0.931 . S
C1126 C1125 1.370 . S
C1126 C1130 1.408 . S
C1127 C1125 1.363 . S
C1127 C1128 1.370 . S
C1127 C1131 1.524 . S
C1128 C1120 1.503 . S
C1128 C1127 1.370 . S
C1128 C1129 1.403 . S
C1129 C1128 1.403 . S
C1129 C1130 1.404 . S
C1129 C1132 1.539 . S
C1130 C1126 1.408 . S
C1130 C1129 1.404 . S
C1130 H1142 0.930 . S
C1131 C1127 1.524 . S
C1131 H1143 0.956 . S
C1131 H1144 0.961 . S
C1131 H1145 0.961 . S
C1132 C1129 1.539 . S
C1132 H1146 0.958 . S
C1132 H1147 0.961 . S
C1132 H1148 0.960 . S
H1133 C1117 0.931 . S
H1134 C1122 0.929 . S
H1135 C1123 0.960 . S
H1136 C1123 0.962 . S
H1137 C1123 0.960 . S
H1138 C1124 0.961 . S
H1139 C1124 0.961 . S
H1140 C1124 0.961 . S
H1141 C1125 0.931 . S
H1142 C1130 0.930 . S
H1143 C1131 0.956 . S
H1144 C1131 0.961 . S
H1145 C1131 0.961 . S
H1146 C1132 0.958 . S
H1147 C1132 0.961 . S
H1148 C1132 0.960 . S
C382 C45 1.812 . S
C390 C288 1.715 . S
C414 C84 1.615 . S
C422 C320 1.568 . S
C454 C379 1.933 . S
C446 C126 1.920 . S
C486 C308 1.462 . S
C478 C165 1.481 . S
C510 C222 1.629 . S
C518 C338 1.611 . S
C550 C360 1.269 . S
C542 C276 1.265 . S
C582 C329 1.698 . S
C574 C141 1.747 . S
C606 C180 1.366 . S
C614 C369 1.273 . S
C646 C318 1.587 . S
C638 C237 1.652 . S
C670 C261 1.543 1_556 S
C678 C348 1.532 . S
C702 C30 1.851 1_556 S
C710 C351 1.859 . S
C742 C290 1.637 . S
C734 C69 1.650 . S
C774 C298 1.650 . S
C766 C174 1.716 . S
C806 C339 1.569 . S
C798 C213 1.582 . S
C838 C352 1.940 . S
C830 C285 1.951 1_556 S
C870 C289 1.489 . S
C862 C36 1.523 1_556 S
C902 C349 1.554 . S
C894 C93 1.565 . S
C926 C117 1.266 . S
C934 C350 1.246 . S
C966 C319 1.643 . S
C958 C270 1.713 . S
C998 C380 1.239 . S
C990 C21 1.316 . S
C1030 C307 1.558 . S
C1022 C78 1.650 . S
C1062 C321 1.575 . S
C1054 C132 1.598 . S
C1086 C189 1.848 . S
C1094 C370 1.859 . S
C1118 C228 1.684 . S
C1126 C317 1.645 . S
