# Generated by pormake.
# Topology ssa, (4,4)-cn, num edge types: 1
# Building blocks:
#     Node 0, Type 0, BuildingBlock: NAWXER_clean_sbu_0, # of connection points: 4
#     Node 1, Type 0, BuildingBlock: NAWXER_clean_sbu_0, # of connection points: 4
#     Node 2, Type 0, BuildingBlock: NAWXER_clean_sbu_0, # of connection points: 4
#     Node 3, Type 0, BuildingBlock: NAWXER_clean_sbu_0, # of connection points: 4
#     Node 4, Type 0, BuildingBlock: NAWXER_clean_sbu_0, # of connection points: 4
#     Node 5, Type 0, BuildingBlock: NAWXER_clean_sbu_0, # of connection points: 4
#     Node 6, Type 1, BuildingBlock: KUFVIS_clean_linker_0, # of connection points: 4
#     Node 7, Type 1, BuildingBlock: KUFVIS_clean_linker_0, # of connection points: 4
#     Node 8, Type 1, BuildingBlock: KUFVIS_clean_linker_0, # of connection points: 4
#     Node 9, Type 1, BuildingBlock: KUFVIS_clean_linker_0, # of connection points: 4
#     Node 10, Type 1, BuildingBlock: KUFVIS_clean_linker_0, # of connection points: 4
#     Node 11, Type 1, BuildingBlock: KUFVIS_clean_linker_0, # of connection points: 4
#     Edge 12, Type (0, 1), BuildingBlock: CIFDUS_clean_linker_0, # of connection points: 2
#     Edge 13, Type (0, 1), BuildingBlock: CIFDUS_clean_linker_0, # of connection points: 2
#     Edge 14, Type (0, 1), BuildingBlock: CIFDUS_clean_linker_0, # of connection points: 2
#     Edge 15, Type (0, 1), BuildingBlock: CIFDUS_clean_linker_0, # of connection points: 2
#     Edge 16, Type (0, 1), BuildingBlock: CIFDUS_clean_linker_0, # of connection points: 2
#     Edge 17, Type (0, 1), BuildingBlock: CIFDUS_clean_linker_0, # of connection points: 2
#     Edge 18, Type (0, 1), BuildingBlock: CIFDUS_clean_linker_0, # of connection points: 2
#     Edge 19, Type (0, 1), BuildingBlock: CIFDUS_clean_linker_0, # of connection points: 2
#     Edge 20, Type (0, 1), BuildingBlock: CIFDUS_clean_linker_0, # of connection points: 2
#     Edge 21, Type (0, 1), BuildingBlock: CIFDUS_clean_linker_0, # of connection points: 2
#     Edge 22, Type (0, 1), BuildingBlock: CIFDUS_clean_linker_0, # of connection points: 2
#     Edge 23, Type (0, 1), BuildingBlock: CIFDUS_clean_linker_0, # of connection points: 2
#     Edge 24, Type (0, 1), BuildingBlock: CIFDUS_clean_linker_0, # of connection points: 2
#     Edge 25, Type (0, 1), BuildingBlock: CIFDUS_clean_linker_0, # of connection points: 2
#     Edge 26, Type (0, 1), BuildingBlock: CIFDUS_clean_linker_0, # of connection points: 2
#     Edge 27, Type (0, 1), BuildingBlock: CIFDUS_clean_linker_0, # of connection points: 2
#     Edge 28, Type (0, 1), BuildingBlock: CIFDUS_clean_linker_0, # of connection points: 2
#     Edge 29, Type (0, 1), BuildingBlock: CIFDUS_clean_linker_0, # of connection points: 2
#     Edge 30, Type (0, 1), BuildingBlock: CIFDUS_clean_linker_0, # of connection points: 2
#     Edge 31, Type (0, 1), BuildingBlock: CIFDUS_clean_linker_0, # of connection points: 2
#     Edge 32, Type (0, 1), BuildingBlock: CIFDUS_clean_linker_0, # of connection points: 2
#     Edge 33, Type (0, 1), BuildingBlock: CIFDUS_clean_linker_0, # of connection points: 2
#     Edge 34, Type (0, 1), BuildingBlock: CIFDUS_clean_linker_0, # of connection points: 2
#     Edge 35, Type (0, 1), BuildingBlock: CIFDUS_clean_linker_0, # of connection points: 2
# Relax obj value: 0.007
# Max RMSD: 0.057
# Mean RMSD: 0.038
data_MOF--net-ssa--node1-NAWXER_clean_sbu_0--node2-KUFVIS_clean_linker_0--edge1-CIFDUS_clean_linker_0
_symmetry_space_group_name_H-M    P1
_symmetry_Int_Tables_number       1
_symmetry_cell_setting            triclinic
loop_
_symmetry_equiv_pos_as_xyz
'x, y, z'
_cell_length_a     45.100555
_cell_length_b     44.97672
_cell_length_c     26.054999
_cell_angle_alpha  89.491327
_cell_angle_beta   90.4326
_cell_angle_gamma 120.33218
loop_
_atom_site_label
_atom_site_type_symbol
_atom_site_fract_x
_atom_site_fract_y
_atom_site_fract_z
_atom_type_partial_charge
C0 C 0.05111 0.56302 0.07098 0.0
C1 C 0.96297 0.45342 -0.0007 0.0
O2 O 1.0225 0.54078 0.09015 0.0
Zn3 Zn 1.00566 0.50805 0.03466 0.0
O4 O 0.05912 0.55817 0.02602 0.0
Zn5 Zn 0.036 0.51987 0.96747 0.0
O6 O 0.02828 0.54403 0.91153 0.0
O7 O 0.99276 0.53294 0.97592 0.0
O8 O 0.98848 0.47048 0.96891 0.0
O9 O 0.96197 0.46602 0.04232 0.0
O10 O 0.04071 0.48864 0.03242 0.0
O11 O 0.06987 0.50576 0.95973 0.0
C12 C 1.00314 0.54527 0.93089 0.0
C13 C 0.06336 0.48937 0.00205 0.0
C14 C 0.53077 0.04445 0.55785 0.0
C15 C 0.55831 0.9629 0.48105 0.0
O16 O 0.52542 1.01572 0.57532 0.0
Zn17 Zn 0.54217 1.00158 0.51813 0.0
O18 O 0.54314 0.05406 0.51267 0.0
Zn19 Zn 0.5611 0.0345 0.45314 0.0
O20 O 0.53104 0.02606 0.39549 0.0
O21 O 0.50514 0.9881 0.45752 0.0
O22 O 0.56612 0.98921 0.45247 0.0
O23 O 0.54316 0.95907 0.52364 0.0
O24 O 0.59637 0.03927 0.51856 0.0
O25 O 0.60873 0.07076 0.44771 0.0
C26 C 0.50463 0.99921 0.41225 0.0
C27 C 0.61833 0.06373 0.48983 0.0
C28 C 0.50232 0.47125 0.90165 0.0
C29 C 0.52876 0.58314 0.96623 0.0
O30 O 0.49687 0.49371 0.88098 0.0
Zn31 Zn 0.51456 0.52733 0.93497 0.0
O32 O 0.51504 0.4763 0.94699 0.0
Zn33 Zn 0.5313 0.51552 0.00403 0.0
O34 O 0.49911 0.49344 0.05931 0.0
O35 O 0.47626 0.50589 -0.00651 0.0
O36 O 0.53588 0.56609 -0.001 0.0
O37 O 0.51571 0.57013 0.92296 0.0
O38 O 0.56862 0.54343 0.93957 0.0
O39 O 0.57805 0.52658 0.01507 0.0
C40 C 0.47374 0.49412 0.03914 0.0
C41 C 0.58913 0.54135 0.97196 0.0
C42 C 0.08065 0.60408 0.4885 0.0
C43 C 1.00754 0.48695 0.55255 0.0
O44 O 0.08533 0.59127 0.52934 0.0
Zn45 Zn 0.04628 0.54537 0.51924 0.0
O46 O 0.05581 0.58509 0.45803 0.0
Zn47 Zn 1.01471 0.5322 0.45294 0.0
O48 O 0.97494 0.53746 0.44834 0.0
O49 O 1.00371 0.55486 0.5218 0.0
O50 O 0.99744 0.49158 0.50868 0.0
O51 O 0.03516 0.51094 0.57193 0.0
O52 O 0.06434 0.52847 0.45668 0.0
O53 O 0.02744 0.51632 0.39328 0.0
C54 C 0.97882 0.55065 0.49258 0.0
C55 C 0.05497 0.51868 0.41044 0.0
C56 C 0.546 0.9968 0.03635 0.0
C57 C 0.49093 0.0596 0.97215 0.0
O58 O 0.54536 0.02199 0.05689 0.0
Zn59 Zn 0.52061 0.03067 0.00347 0.0
O60 O 0.5327 0.98666 -0.00827 0.0
Zn61 Zn 0.50654 1.00039 0.93587 0.0
O62 O 0.53673 1.01788 0.87727 0.0
O63 O 0.55719 0.05354 0.94263 0.0
O64 O 0.48881 0.03656 0.94126 0.0
O65 O 0.50812 0.06576 0.01358 0.0
O66 O 0.47043 0.98427 0.00352 0.0
O67 O 0.46346 0.95742 0.92964 0.0
C68 C 0.55989 0.04617 0.89618 0.0
C69 C 0.45198 0.95906 0.97331 0.0
C70 C 0.57154 0.54265 0.54654 0.0
C71 C 0.4588 0.49922 0.46714 0.0
O72 O 0.54609 0.54442 0.56325 0.0
Zn73 Zn 0.51506 0.52234 0.50623 0.0
O74 O 0.56935 0.52893 0.50277 0.0
Zn75 Zn 0.53228 0.50599 0.44258 0.0
O76 O 0.5538 0.53737 0.38557 0.0
O77 O 0.53729 0.55972 0.44608 0.0
O78 O 0.47943 0.49422 0.43972 0.0
O79 O 0.46917 0.51563 0.5091 0.0
O80 O 0.50489 0.46986 0.50912 0.0
O81 O 0.52699 0.46057 0.43967 0.0
C82 C 0.5512 0.56239 0.40232 0.0
C83 C 0.51068 0.44975 0.48166 0.0
H84 H 0.35869 0.48939 0.26333 0.0
H85 H 0.26532 0.4788 0.32026 0.0
H86 H 0.28625 0.4887 0.15646 0.0
H87 H 0.23196 0.46387 0.14647 0.0
H88 H 0.14594 0.46901 0.2002 0.0
H89 H 0.23188 0.49962 0.30085 0.0
C90 C 0.33393 0.4871 0.25567 0.0
C91 C 0.32371 0.48721 0.20507 0.0
C92 C 0.31314 0.4843 0.29692 0.0
C93 C 0.28149 0.48229 0.28768 0.0
C94 C 0.27075 0.48368 0.23674 0.0
C95 C 0.29281 0.48683 0.1958 0.0
C96 C 0.23642 0.48075 0.22622 0.0
C97 C 0.22029 0.47007 0.17746 0.0
C98 C 0.18819 0.46678 0.16793 0.0
C99 C 0.17122 0.47262 0.20762 0.0
C100 C 0.18685 0.48497 0.25532 0.0
C101 C 0.2195 0.48903 0.26448 0.0
H102 H 0.70716 0.14876 0.69549 0.0
H103 H 0.75806 0.23225 0.80162 0.0
H104 H 0.80034 0.23803 0.65032 0.0
H105 H 0.82514 0.29342 0.66295 0.0
H106 H 0.8966 0.36144 0.7749 0.0
H107 H 0.81404 0.26369 0.82373 0.0
C108 C 0.72826 0.17415 0.70498 0.0
C109 C 0.75296 0.19259 0.66757 0.0
C110 C 0.72936 0.1882 0.75312 0.0
C111 C 0.7575 0.22098 0.76485 0.0
C112 C 0.78408 0.23953 0.72857 0.0
C113 C 0.78099 0.22492 0.67948 0.0
C114 C 0.81485 0.27389 0.74156 0.0
C115 C 0.83357 0.2984 0.70248 0.0
C116 C 0.86387 0.32942 0.71391 0.0
C117 C 0.87407 0.33701 0.76515 0.0
C118 C 0.85602 0.31363 0.80444 0.0
C119 C 0.82674 0.28199 0.79287 0.0
H120 H 0.57248 0.68858 0.18018 0.0
H121 H 0.56445 0.77347 0.12497 0.0
H122 H 0.57817 0.76229 0.28801 0.0
H123 H 0.55534 0.79268 0.30108 0.0
H124 H 0.56014 0.88492 0.25024 0.0
H125 H 0.57938 0.82569 0.14187 0.0
C126 C 0.57305 0.71245 0.18855 0.0
C127 C 0.57477 0.72292 0.2393 0.0
C128 C 0.57082 0.73149 0.1478 0.0
C129 C 0.56833 0.76073 0.15746 0.0
C130 C 0.57048 0.77266 0.20839 0.0
C131 C 0.57469 0.75362 0.2488 0.0
C132 C 0.56789 0.80424 0.21958 0.0
C133 C 0.56037 0.81047 0.26978 0.0
C134 C 0.55921 0.84023 0.28066 0.0
C135 C 0.563 0.863 0.24126 0.0
C136 C 0.56944 0.85747 0.19085 0.0
C137 C 0.57269 0.82854 0.18046 0.0
H138 H 0.8957 0.55933 0.71228 0.0
H139 H 0.83086 0.57353 0.81613 0.0
H140 H 0.80333 0.55082 0.65505 0.0
H141 H 0.77157 0.57278 0.66645 0.0
H142 H 0.69273 0.56046 0.76913 0.0
H143 H 0.77692 0.55333 0.82913 0.0
C144 C 0.87301 0.5611 0.71962 0.0
C145 C 0.85131 0.55703 0.67858 0.0
C146 C 0.86551 0.56636 0.76949 0.0
C147 C 0.8354 0.56773 0.77786 0.0
C148 C 0.812 0.56222 0.73715 0.0
C149 C 0.82035 0.55616 0.68742 0.0
C150 C 0.77921 0.56274 0.74627 0.0
C151 C 0.76136 0.56769 0.7049 0.0
C152 C 0.72993 0.56646 0.7126 0.0
C153 C 0.71733 0.56234 0.76248 0.0
C154 C 0.73506 0.55923 0.80433 0.0
C155 C 0.76511 0.55803 0.79623 0.0
H156 H 0.17289 0.68906 0.2838 0.0
H157 H 0.23972 0.75738 0.16763 0.0
H158 H 0.25543 0.78741 0.32813 0.0
H159 H 0.30937 0.8199 0.30537 0.0
H160 H 0.35684 0.90468 0.19961 0.0
H161 H 0.26793 0.8122 0.15208 0.0
C162 C 0.19475 0.7137 0.27274 0.0
C163 C 0.21368 0.73733 0.31098 0.0
C164 C 0.20304 0.72127 0.22091 0.0
C165 C 0.23279 0.75248 0.20768 0.0
C166 C 0.25273 0.77713 0.24584 0.0
C167 C 0.24228 0.76905 0.29777 0.0
C168 C 0.28317 0.81172 0.23187 0.0
C169 C 0.3093 0.83109 0.26854 0.0
C170 C 0.33619 0.86472 0.25743 0.0
C171 C 0.33693 0.87862 0.2089 0.0
C172 C 0.31354 0.85909 0.1706 0.0
C173 C 0.2864 0.82601 0.18208 0.0
H174 H 0.50817 0.35557 0.68564 0.0
H175 H 0.50776 0.28571 0.79775 0.0
H176 H 0.49685 0.26023 0.63545 0.0
H177 H 0.51698 0.22636 0.65833 0.0
H178 H 0.48321 0.1421 0.76457 0.0
H179 H 0.48096 0.23133 0.81032 0.0
C180 C 0.50614 0.33104 0.69502 0.0
C181 C 0.50301 0.30904 0.65533 0.0
C182 C 0.50628 0.32204 0.74631 0.0
C183 C 0.50588 0.2913 0.75787 0.0
C184 C 0.50229 0.26798 0.71851 0.0
C185 C 0.50078 0.27744 0.66681 0.0
C186 C 0.49838 0.23342 0.7315 0.0
C187 C 0.50603 0.21491 0.69509 0.0
C188 C 0.50072 0.18185 0.7066 0.0
C189 C 0.48789 0.1676 0.75503 0.0
C190 C 0.48248 0.18616 0.79277 0.0
C191 C 0.48695 0.21851 0.78077 0.0
H192 H 0.13147 0.51198 -0.01006 0.0
H193 H 0.03756 0.42863 0.05226 0.0
H194 H 0.06981 0.40657 0.0983 0.0
H195 H 0.12449 0.4192 0.1364 0.0
H196 H 0.2185 0.50705 0.08403 0.0
H197 H 0.18706 0.5181 0.01682 0.0
C198 C 0.11814 0.48839 0.01229 0.0
C199 C 0.08235 0.4722 0.01853 0.0
C200 C 0.13706 0.47674 0.04065 0.0
C201 C 0.06521 0.44175 0.04769 0.0
C202 C 0.08362 0.42913 0.07397 0.0
C203 C 0.13819 0.43978 0.10867 0.0
C204 C 0.17352 0.46265 0.11562 0.0
C205 C 0.11959 0.44753 0.07303 0.0
C206 C 0.19124 0.48913 0.07946 0.0
C207 C 0.17312 0.49586 0.04168 0.0
H208 H 0.66091 0.13295 0.47982 0.0
H209 H 0.65466 0.04112 0.54339 0.0
H210 H 0.70606 0.07594 0.59483 0.0
H211 H 0.74271 0.13104 0.63683 0.0
H212 H 0.7443 0.22234 0.5819 0.0
H213 H 0.70636 0.18992 0.51059 0.0
C214 C 0.67162 0.12072 0.50359 0.0
C215 C 0.65386 0.08466 0.50869 0.0
C216 C 0.70034 0.14098 0.53494 0.0
C217 C 0.66773 0.06893 0.53964 0.0
C218 C 0.69707 0.08881 0.56907 0.0
C219 C 0.73597 0.14405 0.60773 0.0
C220 C 0.74565 0.17871 0.61483 0.0
C221 C 0.71226 0.12472 0.5693 0.0
C222 C 0.73706 0.1956 0.57711 0.0
C223 C 0.71482 0.17688 0.5369 0.0
H224 H 0.58748 0.64133 -0.01005 0.0
H225 H 0.4779 0.59741 -0.02052 0.0
H226 H 0.48198 0.64612 0.02702 0.0
H227 H 0.51577 0.69442 0.08638 0.0
H228 H 0.62529 0.73782 0.09657 0.0
H229 H 0.62268 0.69715 0.03266 0.0
C230 C 0.56476 0.64321 -0.00333 0.0
C231 C 0.53248 0.61609 -0.01814 0.0
C232 C 0.56738 0.6712 0.02394 0.0
C233 C 0.50302 0.61832 -0.00946 0.0
C234 C 0.50534 0.64601 0.01795 0.0
C235 C 0.53915 0.69603 0.07243 0.0
C236 C 0.57066 0.71892 0.09574 0.0
C237 C 0.53723 0.6718 0.03683 0.0
C238 C 0.60085 0.72054 0.07845 0.0
C239 C 0.59928 0.69694 0.0426 0.0
H240 H 0.90989 0.51022 0.50279 0.0
H241 H 0.9947 0.61291 0.52795 0.0
H242 H 0.95804 0.62679 0.57878 0.0
H243 H 0.90608 0.60606 0.62961 0.0
H244 H 0.82336 0.50134 0.6147 0.0
H245 H 0.85414 0.49184 0.54524 0.0
C246 C 0.9198 0.5359 0.51812 0.0
C247 C 0.95471 0.56063 0.51199 0.0
C248 C 0.89895 0.54307 0.54946 0.0
C249 C 0.96781 0.59365 0.53251 0.0
C250 C 0.94692 0.6015 0.56162 0.0
C251 C 0.89435 0.5816 0.60964 0.0
C252 C 0.86276 0.5544 0.62684 0.0
C253 C 0.91302 0.57593 0.57231 0.0
C254 C 0.84761 0.52264 0.6015 0.0
C255 C 0.86544 0.51715 0.56239 0.0
H256 H 0.40234 0.968 0.01324 0.0
H257 H 0.42643 0.88977 0.97406 0.0
H258 H 0.3769 0.84696 0.02359 0.0
H259 H 0.33548 0.83611 0.09294 0.0
H260 H 0.31292 0.91524 0.13313 0.0
H261 H 0.35189 0.95304 0.06652 0.0
C262 C 0.39601 0.94129 0.0144 0.0
C263 C 0.41802 0.93193 -0.00894 0.0
C264 C 0.36771 0.91707 0.04301 0.0
C265 C 0.4097 0.89738 -0.00797 0.0
C266 C 0.38153 0.87301 0.02052 0.0
C267 C 0.33773 0.8609 0.08505 0.0
C268 C 0.32164 0.8731 0.11784 0.0
C269 C 0.36139 0.88301 0.04819 0.0
C270 C 0.32498 0.90539 0.108 0.0
C271 C 0.34774 0.9272 0.07058 0.0
H272 H 0.54504 0.41439 0.47979 0.0
H273 H 0.45005 0.40692 0.52688 0.0
H274 H 0.43419 0.35383 0.57395 0.0
H275 H 0.45285 0.31744 0.61604 0.0
H276 H 0.55124 0.32943 0.58001 0.0
H277 H 0.55982 0.37155 0.51275 0.0
C278 C 0.52048 0.40047 0.49919 0.0
C279 C 0.49884 0.41454 0.50051 0.0
C280 C 0.51225 0.37073 0.52822 0.0
C281 C 0.46722 0.39664 0.52601 0.0
C282 C 0.45814 0.36631 0.55284 0.0
C283 C 0.4754 0.32815 0.59166 0.0
C284 C 0.50138 0.32054 0.60264 0.0
C285 C 0.48117 0.3541 0.55621 0.0
C286 C 0.53078 0.33473 0.57167 0.0
C287 C 0.53593 0.3593 0.53397 0.0
H288 H 0.51304 0.89587 0.46135 0.0
H289 H 0.62031 0.97333 0.4544 0.0
H290 H 0.63152 0.9366 0.39899 0.0
H291 H 0.60862 0.88868 0.33867 0.0
H292 H 0.50055 0.814 0.33725 0.0
H293 H 0.49155 0.84261 0.41035 0.0
C294 C 0.53899 0.9039 0.44923 0.0
C295 C 0.56592 0.93696 0.4618 0.0
C296 C 0.54486 0.88329 0.41522 0.0
C297 C 0.59938 0.94778 0.44517 0.0
C298 C 0.6057 0.92693 0.41325 0.0
C299 C 0.5834 0.878 0.35591 0.0
C300 C 0.55528 0.84942 0.33328 0.0
C301 C 0.57836 0.8955 0.39598 0.0
C302 C 0.52252 0.83584 0.35479 0.0
C303 C 0.51739 0.85244 0.39608 0.0
H304 H 0.62345 0.50642 0.9714 0.0
H305 H 0.63365 0.60499 0.93648 0.0
H306 H 0.68789 0.62318 0.89249 0.0
H307 H 0.72477 0.60643 0.84893 0.0
H308 H 0.70989 0.50489 0.87164 0.0
H309 H 0.66616 0.49263 0.93696 0.0
C310 C 0.63829 0.53223 0.95555 0.0
C311 C 0.62492 0.55447 0.95687 0.0
C312 C 0.66849 0.54174 0.92788 0.0
C313 C 0.6437 0.58761 0.93561 0.0
C314 C 0.67458 0.59792 0.91042 0.0
C315 C 0.71285 0.58215 0.86983 0.0
C316 C 0.72018 0.5565 0.85565 0.0
C317 C 0.68623 0.57459 0.90417 0.0
C318 C 0.70469 0.52503 0.88237 0.0
C319 C 0.67932 0.51789 0.91902 0.0
H320 H 0.15034 0.63744 0.49199 0.0
H321 H 0.06483 0.64943 0.44675 0.0
H322 H 0.10311 0.70097 0.39727 0.0
H323 H 0.15728 0.73306 0.35098 0.0
H324 H 0.24124 0.71671 0.38681 0.0
H325 H 0.20804 0.6775 0.45697 0.0
C326 C 0.14048 0.65221 0.47287 0.0
C327 C 0.10493 0.63972 0.47246 0.0
C328 C 0.16246 0.68088 0.44232 0.0
C329 C 0.09215 0.65861 0.44712 0.0
C330 C 0.11399 0.68796 0.4187 0.0
C331 C 0.16879 0.72216 0.37596 0.0
C332 C 0.20146 0.72758 0.36418 0.0
C333 C 0.14874 0.69809 0.41369 0.0
C334 C 0.2162 0.71307 0.39581 0.0
C335 C 0.19697 0.69021 0.43528 0.0
H336 H 0.51818 0.12881 -0.01913 0.0
H337 H 0.42979 0.03637 0.92497 0.0
H338 H 0.41264 0.07058 0.87305 0.0
H339 H 0.43144 0.12485 0.8273 0.0
H340 H 0.52311 0.21673 0.87574 0.0
H341 H 0.52966 0.18539 0.94796 0.0
C342 C 0.49445 0.11637 0.95893 0.0
C343 C 0.47552 0.08026 0.95588 0.0
C344 C 0.48562 0.13624 0.92722 0.0
C345 C 0.44492 0.06422 0.92719 0.0
C346 C 0.43519 0.08375 0.89737 0.0
C347 C 0.45188 0.13825 0.8552 0.0
C348 C 0.47706 0.17272 0.84598 0.0
C349 C 0.45656 0.11957 0.89457 0.0
C350 C 0.50344 0.19012 0.88218 0.0
C351 C 0.5075 0.17202 0.92297 0.0
H352 H 0.42113 0.53126 0.46958 0.0
H353 H 0.41784 0.43807 0.42195 0.0
H354 H 0.36418 0.42002 0.3758 0.0
H355 H 0.32561 0.43627 0.335 0.0
H356 H 0.33292 0.5328 0.37189 0.0
H357 H 0.37634 0.54353 0.43775 0.0
C358 C 0.40804 0.50662 0.45021 0.0
C359 C 0.42343 0.48613 0.44851 0.0
C360 C 0.37787 0.4971 0.42177 0.0
C361 C 0.40656 0.45438 0.42309 0.0
C362 C 0.37589 0.44404 0.39679 0.0
C363 C 0.33568 0.45889 0.35919 0.0
C364 C 0.3263 0.48375 0.34884 0.0
C365 C 0.36225 0.46592 0.39391 0.0
C366 C 0.3396 0.5132 0.37969 0.0
C367 C 0.36489 0.51958 0.4166 0.0
H368 H 0.96651 0.39958 0.96276 0.0
H369 H 0.89548 0.4344 -0.00522 0.0
H370 H 0.85085 0.3868 0.94444 0.0
H371 H 0.83706 0.34325 0.87696 0.0
H372 H 0.90866 0.30915 0.84523 0.0
H373 H 0.94769 0.34747 0.91124 0.0
C374 C 0.94086 0.39596 0.95996 0.0
C375 C 0.93415 0.4204 -0.01836 0.0
C376 C 0.91554 0.36867 0.93101 0.0
C377 C 0.90099 0.41568 0.9783 0.0
C378 C 0.87561 0.38864 0.94927 0.0
C379 C 0.86037 0.34298 0.8866 0.0
C380 C 0.87009 0.32347 0.85675 0.0
C381 C 0.88314 0.36594 0.92352 0.0
C382 C 0.90063 0.32369 0.86844 0.0
C383 C 0.92316 0.34602 0.90553 0.0
H384 H 0.93842 0.53245 0.94793 0.0
H385 H 0.02464 0.58677 0.84569 0.0
H386 H 0.99086 0.60352 0.79159 0.0
H387 H 0.93555 0.5981 0.76927 0.0
H388 H 0.84735 0.53759 0.86573 0.0
H389 H 0.88366 0.52944 0.9276 0.0
C390 C 0.95002 0.54838 0.9142 0.0
C391 C 0.984 0.55823 0.9007 0.0
C392 C 0.93011 0.55699 0.88247 0.0
C393 C 0.99851 0.57865 0.8567 0.0
C394 C 0.97922 0.58827 0.82585 0.0
C395 C 0.92417 0.58313 0.80386 0.0
C396 C 0.88852 0.56792 0.81218 0.0
C397 C 0.94476 0.57684 0.83769 0.0
C398 C 0.87462 0.54971 0.8582 0.0
C399 C 0.89532 0.54464 0.89332 0.0
H400 H 0.4386 0.95124 0.43802 0.0
H401 H 0.50569 0.99873 0.30826 0.0
H402 H 0.46063 0.95909 0.25035 0.0
H403 H 0.40368 0.91009 0.23671 0.0
H404 H 0.33275 0.86668 0.36335 0.0
H405 H 0.37855 0.90432 0.42274 0.0
C406 C 0.44314 0.95312 0.39699 0.0
C407 C 0.47547 0.97801 0.37749 0.0
C408 C 0.41679 0.9305 0.36356 0.0
C409 C 0.48099 0.98015 0.32427 0.0
C410 C 0.45533 0.95726 0.29113 0.0
C411 C 0.39759 0.90925 0.27705 0.0
C412 C 0.36429 0.88573 0.295 0.0
C413 C 0.42329 0.93225 0.31041 0.0
C414 C 0.35802 0.88418 0.34809 0.0
C415 C 0.38413 0.90605 0.38209 0.0
H416 H 0.53161 0.43169 0.91663 0.0
H417 H 0.45847 0.44185 0.82131 0.0
H418 H 0.45042 0.39357 0.76899 0.0
H419 H 0.46682 0.35138 0.74686 0.0
H420 H 0.54375 0.34393 0.8362 0.0
H421 H 0.54685 0.3875 0.89555 0.0
C422 C 0.51361 0.42302 0.88476 0.0
C423 C 0.4957 0.44036 0.87272 0.0
C424 C 0.50978 0.39577 0.85395 0.0
C425 C 0.4727 0.42909 0.83111 0.0
C426 C 0.46805 0.40147 0.80125 0.0
C427 C 0.48438 0.35931 0.77928 0.0
C428 C 0.50548 0.34487 0.7866 0.0
C429 C 0.48694 0.38513 0.81174 0.0
C430 C 0.52725 0.35464 0.82968 0.0
C431 C 0.52922 0.37975 0.86331 0.0
H432 H 0.10077 0.49815 0.4358 0.0
H433 H 0.06177 0.53008 0.30792 0.0
H434 H 0.10292 0.52737 0.25087 0.0
H435 H 0.14917 0.51573 0.23708 0.0
H436 H 0.18322 0.47536 0.36052 0.0
H437 H 0.14626 0.48355 0.4204 0.0
C438 C 0.10122 0.50427 0.39535 0.0
C439 C 0.07812 0.51406 0.37594 0.0
C440 C 0.12446 0.50182 0.36236 0.0
C441 C 0.07891 0.52197 0.32357 0.0
C442 C 0.10264 0.52075 0.29105 0.0
C443 C 0.14821 0.50804 0.27688 0.0
C444 C 0.16845 0.49412 0.29384 0.0
C445 C 0.12537 0.51059 0.31001 0.0
C446 C 0.168 0.48612 0.34623 0.0
C447 C 0.14651 0.49038 0.38035 0.0
H448 H 0.62482 0.0942 0.92608 0.0
H449 H 0.55802 0.05628 0.79377 0.0
H450 H 0.60314 0.10036 0.74 0.0
H451 H 0.66132 0.1485 0.73011 0.0
H452 H 0.73173 0.18198 0.85851 0.0
H453 H 0.68493 0.14212 0.91497 0.0
C454 C 0.6203 0.09559 0.88542 0.0
C455 C 0.58823 0.07185 0.86379 0.0
C456 C 0.64678 0.12053 0.85433 0.0
C457 C 0.58262 0.07388 0.81113 0.0
C458 C 0.60831 0.09927 0.78047 0.0
C459 C 0.66683 0.14686 0.77028 0.0
C460 C 0.70042 0.16784 0.78958 0.0
C461 C 0.6405 0.12249 0.80159 0.0
C462 C 0.70627 0.16631 0.84239 0.0
C463 C 0.67957 0.14317 0.87459 0.0
H464 H 0.53416 0.61182 0.41447 0.0
H465 H 0.59488 0.58419 0.32046 0.0
H466 H 0.61202 0.63506 0.26659 0.0
H467 H 0.6065 0.68477 0.24278 0.0
H468 H 0.54048 0.70855 0.33095 0.0
H469 H 0.53015 0.66289 0.39205 0.0
C470 C 0.55141 0.61709 0.38247 0.0
C471 C 0.56307 0.59412 0.37129 0.0
C472 C 0.56049 0.64591 0.35095 0.0
C473 C 0.58529 0.60127 0.3296 0.0
C474 C 0.59519 0.63041 0.29891 0.0
C475 C 0.58977 0.68001 0.27529 0.0
C476 C 0.57388 0.69987 0.28159 0.0
C477 C 0.5824 0.6525 0.30866 0.0
C478 C 0.55328 0.69397 0.32507 0.0
C479 C 0.54696 0.66749 0.35973 0.0
H480 H 0.51371 0.09266 0.52979 0.0
H481 H 0.53937 0.05058 0.66089 0.0
H482 H 0.53673 0.09241 0.71668 0.0
H483 H 0.52712 0.14034 0.72843 0.0
H484 H 0.4932 0.1779 0.60098 0.0
H485 H 0.50088 0.13973 0.54303 0.0
C486 C 0.51847 0.0926 0.57064 0.0
C487 C 0.52647 0.0684 0.59129 0.0
C488 C 0.51602 0.11626 0.6029 0.0
C489 C 0.53264 0.06856 0.64421 0.0
C490 C 0.53143 0.09267 0.67607 0.0
C491 C 0.52061 0.13987 0.68819 0.0
C492 C 0.50882 0.16166 0.66959 0.0
C493 C 0.523 0.11647 0.65585 0.0
C494 C 0.5024 0.16164 0.61665 0.0
C495 C 0.50638 0.13946 0.58353 0.0
H496 H 0.42994 0.51831 0.02736 0.0
H497 H 0.44857 0.44922 0.1197 0.0
H498 H 0.4003 0.43762 0.17508 0.0
H499 H 0.35606 0.45041 0.20074 0.0
H500 H 0.3414 0.5245 0.11476 0.0
H501 H 0.3841 0.52994 0.05208 0.0
C502 C 0.42306 0.5003 0.05916 0.0
C503 C 0.44269 0.48455 0.06951 0.0
C504 C 0.39604 0.49469 0.09179 0.0
C505 C 0.43387 0.46168 0.11117 0.0
C506 C 0.40632 0.45506 0.14275 0.0
C507 C 0.36223 0.46788 0.16836 0.0
C508 C 0.34594 0.48746 0.16295 0.0
C509 C 0.38778 0.47201 0.13404 0.0
C510 C 0.35346 0.50908 0.11986 0.0
C511 C 0.3781 0.51242 0.08429 0.0
H512 H 0.93877 0.44327 0.5422 0.0
H513 H 0.02726 0.45931 0.62969 0.0
H514 H 0.99058 0.4094 0.68348 0.0
H515 H 0.93342 0.36385 0.70902 0.0
H516 H 0.84399 0.35066 0.62735 0.0
H517 H 0.88109 0.39615 0.56676 0.0
C518 C 0.95006 0.43554 0.57261 0.0
C519 C 0.98572 0.45497 0.582 0.0
C520 C 0.92866 0.40737 0.60434 0.0
C521 C 0.99992 0.44489 0.62187 0.0
C522 C 0.97896 0.41636 0.6526 0.0
C523 C 0.92192 0.37098 0.67813 0.0
C524 C 0.88588 0.35418 0.67331 0.0
C525 C 0.94328 0.39789 0.6448 0.0
C526 C 0.87158 0.36305 0.63199 0.0
C527 C 0.89281 0.38927 0.59759 0.0
H528 H 0.53477 0.93265 0.01609 0.0
H529 H 0.58701 1.01725 0.12171 0.0
H530 H 0.60384 0.98296 0.17441 0.0
H531 H 0.59894 0.92743 0.19482 0.0
H532 H 0.54156 0.84091 0.09413 0.0
H533 H 0.5329 0.8779 0.03404 0.0
C534 C 0.55028 0.9438 0.05023 0.0
C535 C 0.55942 0.97745 0.06511 0.0
C536 C 0.55906 0.92359 0.08114 0.0
C537 C 0.57939 0.99137 0.10959 0.0
C538 C 0.58905 0.97178 0.13972 0.0
C539 C 0.5846 0.9166 0.15964 0.0
C540 C 0.57042 0.8812 0.14958 0.0
C541 C 0.57825 0.93758 0.12657 0.0
C542 C 0.5529 0.868 0.10295 0.0
C543 C 0.54755 0.88908 0.06882 0.0
H544 H 0.62239 0.52773 0.53392 0.0
H545 H 0.59169 0.58546 0.62933 0.0
H546 H 0.64202 0.60297 0.68404 0.0
H547 H 0.69174 0.59796 0.7087 0.0
H548 H 0.71868 0.53481 0.61911 0.0
H549 H 0.67394 0.52486 0.55668 0.0
C550 C 0.62689 0.54444 0.56638 0.0
C551 C 0.60316 0.55508 0.57776 0.0
C552 C 0.65542 0.55371 0.5984 0.0
C553 C 0.60934 0.57665 0.62002 0.0
C554 C 0.63818 0.58676 0.65121 0.0
C555 C 0.68793 0.58205 0.67546 0.0
C556 C 0.70826 0.56668 0.66923 0.0
C557 C 0.66093 0.57482 0.64138 0.0
C558 C 0.70363 0.54712 0.62495 0.0
C559 C 0.67768 0.54101 0.58956 0.0
H560 H 0.12009 0.60515 0.05606 0.0
H561 H 0.03616 0.59078 0.15206 0.0
H562 H 0.07552 0.64092 0.20263 0.0
H563 H 0.13354 0.68701 0.22196 0.0
H564 H 0.21901 0.69912 0.13225 0.0
H565 H 0.17911 0.65253 0.07548 0.0
C566 C 0.11041 0.61316 0.08785 0.0
C567 C 0.07519 0.59415 0.10036 0.0
C568 C 0.1334 0.64171 0.11758 0.0
C569 C 0.06311 0.60474 0.14184 0.0
C570 C 0.08559 0.63349 0.17067 0.0
C571 C 0.1436 0.6794 0.19017 0.0
C572 C 0.17935 0.69622 0.18198 0.0
C573 C 0.12077 0.65183 0.15929 0.0
C574 C 0.19169 0.68672 0.13949 0.0
C575 C 0.16888 0.65984 0.10734 0.0
loop_
_geom_bond_atom_site_label_1
_geom_bond_atom_site_label_2
_geom_bond_distance
_geom_bond_site_symmetry_2
_ccdc_geom_bond_type
C0 O2 1.247 . S
C0 O4 1.246 1_554 S
C1 O8 1.247 . S
C1 O9 1.258 1_556 S
O2 C0 1.247 . S
O2 Zn3 2.028 1_455 S
Zn3 O2 2.028 1_655 S
Zn3 O7 2.035 . S
Zn3 O9 2.035 . S
Zn3 O10 2.028 1_655 S
O4 C0 1.246 1_556 S
O4 Zn5 2.042 . S
Zn5 O4 2.042 . S
Zn5 O6 2.028 1_455 S
Zn5 O8 2.028 1_455 S
Zn5 O11 2.043 . S
O6 Zn5 2.028 1_655 S
O6 C12 1.247 . S
O7 Zn3 2.035 . S
O7 C12 1.258 1_554 S
O8 C1 1.247 . S
O8 Zn5 2.028 1_655 S
O9 C1 1.258 1_554 S
O9 Zn3 2.035 . S
O10 Zn3 2.028 1_455 S
O10 C13 1.247 . S
O11 Zn5 2.043 . S
O11 C13 1.246 1_556 S
C12 O6 1.247 . S
C12 O7 1.258 1_556 S
C13 O10 1.247 . S
C13 O11 1.246 1_554 S
C14 O16 1.247 . S
C14 O18 1.258 . S
C15 O22 1.247 . S
C15 O23 1.258 . S
O16 C14 1.247 . S
O16 Zn17 2.028 1_545 S
Zn17 O16 2.028 1_565 S
Zn17 O21 2.035 . S
Zn17 O23 2.035 . S
Zn17 O24 2.028 1_565 S
O18 C14 1.258 . S
O18 Zn19 2.035 . S
Zn19 O18 2.035 . S
Zn19 O20 2.028 1_545 S
Zn19 O22 2.028 1_545 S
Zn19 O25 2.035 . S
O20 Zn19 2.028 1_565 S
O20 C26 1.247 . S
O21 Zn17 2.035 . S
O21 C26 1.258 . S
O22 C15 1.247 . S
O22 Zn19 2.028 1_565 S
O23 C15 1.258 . S
O23 Zn17 2.035 . S
O24 Zn17 2.028 1_545 S
O24 C27 1.247 . S
O25 Zn19 2.035 . S
O25 C27 1.258 . S
C26 O20 1.247 . S
C26 O21 1.258 . S
C27 O24 1.247 . S
C27 O25 1.258 . S
C28 O30 1.247 . S
C28 O32 1.258 1_556 S
C29 O36 1.247 . S
C29 O37 1.249 1_554 S
O30 C28 1.247 . S
O30 Zn31 2.028 . S
Zn31 O30 2.028 . S
Zn31 O35 2.041 . S
Zn31 O37 2.040 . S
Zn31 O38 2.028 . S
O32 C28 1.258 1_554 S
O32 Zn33 2.035 . S
Zn33 O32 2.035 . S
Zn33 O34 2.028 . S
Zn33 O36 2.028 . S
Zn33 O39 2.035 . S
O34 Zn33 2.028 . S
O34 C40 1.247 . S
O35 Zn31 2.041 . S
O35 C40 1.249 1_556 S
O36 C29 1.247 . S
O36 Zn33 2.028 . S
O37 C29 1.249 1_556 S
O37 Zn31 2.040 . S
O38 Zn31 2.028 . S
O38 C41 1.247 . S
O39 Zn33 2.035 . S
O39 C41 1.258 1_554 S
C40 O34 1.247 . S
C40 O35 1.249 1_554 S
C41 O38 1.247 . S
C41 O39 1.258 1_556 S
C42 O44 1.247 . S
C42 O46 1.258 . S
C43 O50 1.247 . S
C43 O51 1.258 . S
O44 C42 1.247 . S
O44 Zn45 2.028 . S
Zn45 O44 2.028 . S
Zn45 O49 2.035 1_455 S
Zn45 O51 2.035 1_455 S
Zn45 O52 2.028 . S
O46 C42 1.258 . S
O46 Zn47 2.035 1_455 S
Zn47 O46 2.035 1_655 S
Zn47 O48 2.028 . S
Zn47 O50 2.028 . S
Zn47 O53 2.035 1_655 S
O48 Zn47 2.028 . S
O48 C54 1.247 . S
O49 Zn45 2.035 1_655 S
O49 C54 1.258 . S
O50 C43 1.247 . S
O50 Zn47 2.028 . S
O51 C43 1.258 . S
O51 Zn45 2.035 1_655 S
O52 Zn45 2.028 . S
O52 C55 1.247 . S
O53 Zn47 2.035 1_455 S
O53 C55 1.258 . S
C54 O48 1.247 . S
C54 O49 1.258 . S
C55 O52 1.247 . S
C55 O53 1.258 . S
C56 O58 1.247 . S
C56 O60 1.258 . S
C57 O64 1.247 . S
C57 O65 1.258 1_556 S
O58 C56 1.247 . S
O58 Zn59 2.028 1_565 S
Zn59 O58 2.028 1_545 S
Zn59 O63 2.035 . S
Zn59 O65 2.035 . S
Zn59 O66 2.028 1_545 S
O60 C56 1.258 . S
O60 Zn61 2.035 1_554 S
Zn61 O60 2.035 1_556 S
Zn61 O62 2.028 1_565 S
Zn61 O64 2.028 1_565 S
Zn61 O67 2.035 1_556 S
O62 Zn61 2.028 1_545 S
O62 C68 1.247 . S
O63 Zn59 2.035 . S
O63 C68 1.258 1_554 S
O64 C57 1.247 . S
O64 Zn61 2.028 1_545 S
O65 C57 1.258 1_554 S
O65 Zn59 2.035 . S
O66 Zn59 2.028 1_565 S
O66 C69 1.247 . S
O67 Zn61 2.035 1_554 S
O67 C69 1.258 . S
C68 O62 1.247 . S
C68 O63 1.258 1_556 S
C69 O66 1.247 . S
C69 O67 1.258 . S
C70 O72 1.247 . S
C70 O74 1.258 . S
C71 O78 1.247 . S
C71 O79 1.258 . S
O72 C70 1.247 . S
O72 Zn73 2.028 . S
Zn73 O72 2.028 . S
Zn73 O77 2.035 . S
Zn73 O79 2.035 . S
Zn73 O80 2.028 . S
O74 C70 1.258 . S
O74 Zn75 2.035 . S
Zn75 O74 2.035 . S
Zn75 O76 2.028 . S
Zn75 O78 2.028 . S
Zn75 O81 2.035 . S
O76 Zn75 2.028 . S
O76 C82 1.247 . S
O77 Zn73 2.035 . S
O77 C82 1.258 . S
O78 C71 1.247 . S
O78 Zn75 2.028 . S
O79 C71 1.258 . S
O79 Zn73 2.035 . S
O80 Zn73 2.028 . S
O80 C83 1.247 . S
O81 Zn75 2.035 . S
O81 C83 1.258 . S
C82 O76 1.247 . S
C82 O77 1.258 . S
C83 O80 1.247 . S
C83 O81 1.258 . S
H84 C90 0.930 . S
H85 C93 0.931 . S
H86 C95 0.931 . S
H87 C97 0.930 . S
H88 C99 0.930 . S
H89 C101 0.931 . S
C90 H84 0.930 . S
C90 C91 1.380 . S
C90 C92 1.394 . S
C91 C90 1.380 . S
C91 C95 1.382 . S
C92 C90 1.394 . S
C92 C93 1.400 . S
C93 H85 0.931 . S
C93 C92 1.400 . S
C93 C94 1.375 . S
C94 C93 1.375 . S
C94 C95 1.415 . S
C94 C96 1.501 . S
C95 H86 0.931 . S
C95 C91 1.382 . S
C95 C94 1.415 . S
C96 C94 1.501 . S
C96 C97 1.384 . S
C96 C101 1.408 . S
C97 H87 0.930 . S
C97 C96 1.384 . S
C97 C98 1.389 . S
C98 C97 1.389 . S
C98 C99 1.405 . S
C99 H88 0.930 . S
C99 C98 1.405 . S
C99 C100 1.364 . S
C100 C99 1.364 . S
C100 C101 1.400 . S
C101 H89 0.931 . S
C101 C96 1.408 . S
C101 C100 1.400 . S
H102 C108 0.930 . S
H103 C111 0.931 . S
H104 C113 0.931 . S
H105 C115 0.930 . S
H106 C117 0.930 . S
H107 C119 0.931 . S
C108 H102 0.930 . S
C108 C109 1.380 . S
C108 C110 1.394 . S
C109 C108 1.380 . S
C109 C113 1.382 . S
C110 C108 1.394 . S
C110 C111 1.400 . S
C111 H103 0.931 . S
C111 C110 1.400 . S
C111 C112 1.375 . S
C112 C111 1.375 . S
C112 C113 1.415 . S
C112 C114 1.501 . S
C113 H104 0.931 . S
C113 C109 1.382 . S
C113 C112 1.415 . S
C114 C112 1.501 . S
C114 C115 1.384 . S
C114 C119 1.408 . S
C115 H105 0.930 . S
C115 C114 1.384 . S
C115 C116 1.389 . S
C116 C115 1.389 . S
C116 C117 1.405 . S
C117 H106 0.930 . S
C117 C116 1.405 . S
C117 C118 1.364 . S
C118 C117 1.364 . S
C118 C119 1.400 . S
C119 H107 0.931 . S
C119 C114 1.408 . S
C119 C118 1.400 . S
H120 C126 0.930 . S
H121 C129 0.931 . S
H122 C131 0.931 . S
H123 C133 0.930 . S
H124 C135 0.930 . S
H125 C137 0.931 . S
C126 H120 0.930 . S
C126 C127 1.380 . S
C126 C128 1.394 . S
C127 C126 1.380 . S
C127 C131 1.382 . S
C128 C126 1.394 . S
C128 C129 1.400 . S
C129 H121 0.931 . S
C129 C128 1.400 . S
C129 C130 1.375 . S
C130 C129 1.375 . S
C130 C131 1.415 . S
C130 C132 1.501 . S
C131 H122 0.931 . S
C131 C127 1.382 . S
C131 C130 1.415 . S
C132 C130 1.501 . S
C132 C133 1.384 . S
C132 C137 1.408 . S
C133 H123 0.930 . S
C133 C132 1.384 . S
C133 C134 1.389 . S
C134 C133 1.389 . S
C134 C135 1.405 . S
C135 H124 0.930 . S
C135 C134 1.405 . S
C135 C136 1.364 . S
C136 C135 1.364 . S
C136 C137 1.400 . S
C137 H125 0.931 . S
C137 C132 1.408 . S
C137 C136 1.400 . S
H138 C144 0.930 . S
H139 C147 0.931 . S
H140 C149 0.931 . S
H141 C151 0.930 . S
H142 C153 0.930 . S
H143 C155 0.931 . S
C144 H138 0.930 . S
C144 C145 1.380 . S
C144 C146 1.394 . S
C145 C144 1.380 . S
C145 C149 1.382 . S
C146 C144 1.394 . S
C146 C147 1.400 . S
C147 H139 0.931 . S
C147 C146 1.400 . S
C147 C148 1.375 . S
C148 C147 1.375 . S
C148 C149 1.415 . S
C148 C150 1.501 . S
C149 H140 0.931 . S
C149 C145 1.382 . S
C149 C148 1.415 . S
C150 C148 1.501 . S
C150 C151 1.384 . S
C150 C155 1.408 . S
C151 H141 0.930 . S
C151 C150 1.384 . S
C151 C152 1.389 . S
C152 C151 1.389 . S
C152 C153 1.405 . S
C153 H142 0.930 . S
C153 C152 1.405 . S
C153 C154 1.364 . S
C154 C153 1.364 . S
C154 C155 1.400 . S
C155 H143 0.931 . S
C155 C150 1.408 . S
C155 C154 1.400 . S
H156 C162 0.930 . S
H157 C165 0.931 . S
H158 C167 0.931 . S
H159 C169 0.930 . S
H160 C171 0.930 . S
H161 C173 0.931 . S
C162 H156 0.930 . S
C162 C163 1.380 . S
C162 C164 1.394 . S
C163 C162 1.380 . S
C163 C167 1.382 . S
C164 C162 1.394 . S
C164 C165 1.400 . S
C165 H157 0.931 . S
C165 C164 1.400 . S
C165 C166 1.375 . S
C166 C165 1.375 . S
C166 C167 1.415 . S
C166 C168 1.501 . S
C167 H158 0.931 . S
C167 C163 1.382 . S
C167 C166 1.415 . S
C168 C166 1.501 . S
C168 C169 1.384 . S
C168 C173 1.408 . S
C169 H159 0.930 . S
C169 C168 1.384 . S
C169 C170 1.389 . S
C170 C169 1.389 . S
C170 C171 1.405 . S
C171 H160 0.930 . S
C171 C170 1.405 . S
C171 C172 1.364 . S
C172 C171 1.364 . S
C172 C173 1.400 . S
C173 H161 0.931 . S
C173 C168 1.408 . S
C173 C172 1.400 . S
H174 C180 0.930 . S
H175 C183 0.931 . S
H176 C185 0.931 . S
H177 C187 0.930 . S
H178 C189 0.930 . S
H179 C191 0.931 . S
C180 H174 0.930 . S
C180 C181 1.380 . S
C180 C182 1.394 . S
C181 C180 1.380 . S
C181 C185 1.382 . S
C182 C180 1.394 . S
C182 C183 1.400 . S
C183 H175 0.931 . S
C183 C182 1.400 . S
C183 C184 1.375 . S
C184 C183 1.375 . S
C184 C185 1.415 . S
C184 C186 1.501 . S
C185 H176 0.931 . S
C185 C181 1.382 . S
C185 C184 1.415 . S
C186 C184 1.501 . S
C186 C187 1.384 . S
C186 C191 1.408 . S
C187 H177 0.930 . S
C187 C186 1.384 . S
C187 C188 1.389 . S
C188 C187 1.389 . S
C188 C189 1.405 . S
C189 H178 0.930 . S
C189 C188 1.405 . S
C189 C190 1.364 . S
C190 C189 1.364 . S
C190 C191 1.400 . S
C191 H179 0.931 . S
C191 C186 1.408 . S
C191 C190 1.400 . S
H192 C198 0.930 . S
H193 C201 0.930 . S
H194 C202 0.930 . S
H195 C203 0.930 . S
H196 C206 0.930 . S
H197 C207 0.930 . S
C198 H192 0.930 . S
C198 C199 1.355 . S
C198 C200 1.415 . S
C199 C198 1.355 . S
C199 C201 1.419 . S
C200 C198 1.415 . S
C200 C205 1.425 . S
C200 C207 1.409 . S
C201 H193 0.930 . S
C201 C199 1.419 . S
C201 C202 1.362 . S
C202 H194 0.930 . S
C202 C201 1.362 . S
C202 C205 1.409 . S
C203 H195 0.930 . S
C203 C204 1.355 . S
C203 C205 1.415 . S
C204 C203 1.355 . S
C204 C206 1.419 . S
C205 C200 1.425 . S
C205 C202 1.409 . S
C205 C203 1.415 . S
C206 H196 0.930 . S
C206 C204 1.419 . S
C206 C207 1.362 . S
C207 H197 0.930 . S
C207 C200 1.409 . S
C207 C206 1.362 . S
H208 C214 0.930 . S
H209 C217 0.930 . S
H210 C218 0.930 . S
H211 C219 0.930 . S
H212 C222 0.930 . S
H213 C223 0.930 . S
C214 H208 0.930 . S
C214 C215 1.355 . S
C214 C216 1.415 . S
C215 C214 1.355 . S
C215 C217 1.419 . S
C216 C214 1.415 . S
C216 C221 1.425 . S
C216 C223 1.409 . S
C217 H209 0.930 . S
C217 C215 1.419 . S
C217 C218 1.362 . S
C218 H210 0.930 . S
C218 C217 1.362 . S
C218 C221 1.409 . S
C219 H211 0.930 . S
C219 C220 1.355 . S
C219 C221 1.415 . S
C220 C219 1.355 . S
C220 C222 1.419 . S
C221 C216 1.425 . S
C221 C218 1.409 . S
C221 C219 1.415 . S
C222 H212 0.930 . S
C222 C220 1.419 . S
C222 C223 1.362 . S
C223 H213 0.930 . S
C223 C216 1.409 . S
C223 C222 1.362 . S
H224 C230 0.930 . S
H225 C233 0.930 . S
H226 C234 0.930 . S
H227 C235 0.930 . S
H228 C238 0.930 . S
H229 C239 0.930 . S
C230 H224 0.930 . S
C230 C231 1.355 . S
C230 C232 1.415 . S
C231 C230 1.355 . S
C231 C233 1.419 . S
C232 C230 1.415 . S
C232 C237 1.425 . S
C232 C239 1.409 . S
C233 H225 0.930 . S
C233 C231 1.419 . S
C233 C234 1.362 . S
C234 H226 0.930 . S
C234 C233 1.362 . S
C234 C237 1.409 . S
C235 H227 0.930 . S
C235 C236 1.355 . S
C235 C237 1.415 . S
C236 C235 1.355 . S
C236 C238 1.419 . S
C237 C232 1.425 . S
C237 C234 1.409 . S
C237 C235 1.415 . S
C238 H228 0.930 . S
C238 C236 1.419 . S
C238 C239 1.362 . S
C239 H229 0.930 . S
C239 C232 1.409 . S
C239 C238 1.362 . S
H240 C246 0.930 . S
H241 C249 0.930 . S
H242 C250 0.930 . S
H243 C251 0.930 . S
H244 C254 0.930 . S
H245 C255 0.930 . S
C246 H240 0.930 . S
C246 C247 1.355 . S
C246 C248 1.415 . S
C247 C246 1.355 . S
C247 C249 1.419 . S
C248 C246 1.415 . S
C248 C253 1.425 . S
C248 C255 1.409 . S
C249 H241 0.930 . S
C249 C247 1.419 . S
C249 C250 1.362 . S
C250 H242 0.930 . S
C250 C249 1.362 . S
C250 C253 1.409 . S
C251 H243 0.930 . S
C251 C252 1.355 . S
C251 C253 1.415 . S
C252 C251 1.355 . S
C252 C254 1.419 . S
C253 C248 1.425 . S
C253 C250 1.409 . S
C253 C251 1.415 . S
C254 H244 0.930 . S
C254 C252 1.419 . S
C254 C255 1.362 . S
C255 H245 0.930 . S
C255 C248 1.409 . S
C255 C254 1.362 . S
H256 C262 0.930 . S
H257 C265 0.930 . S
H258 C266 0.930 . S
H259 C267 0.930 . S
H260 C270 0.930 . S
H261 C271 0.930 . S
C262 H256 0.930 . S
C262 C263 1.355 . S
C262 C264 1.415 . S
C263 C262 1.355 . S
C263 C265 1.419 . S
C264 C262 1.415 . S
C264 C269 1.425 . S
C264 C271 1.409 . S
C265 H257 0.930 . S
C265 C263 1.419 . S
C265 C266 1.362 . S
C266 H258 0.930 . S
C266 C265 1.362 . S
C266 C269 1.409 . S
C267 H259 0.930 . S
C267 C268 1.355 . S
C267 C269 1.415 . S
C268 C267 1.355 . S
C268 C270 1.419 . S
C269 C264 1.425 . S
C269 C266 1.409 . S
C269 C267 1.415 . S
C270 H260 0.930 . S
C270 C268 1.419 . S
C270 C271 1.362 . S
C271 H261 0.930 . S
C271 C264 1.409 . S
C271 C270 1.362 . S
H272 C278 0.930 . S
H273 C281 0.930 . S
H274 C282 0.930 . S
H275 C283 0.930 . S
H276 C286 0.930 . S
H277 C287 0.930 . S
C278 H272 0.930 . S
C278 C279 1.355 . S
C278 C280 1.415 . S
C279 C278 1.355 . S
C279 C281 1.419 . S
C280 C278 1.415 . S
C280 C285 1.425 . S
C280 C287 1.409 . S
C281 H273 0.930 . S
C281 C279 1.419 . S
C281 C282 1.362 . S
C282 H274 0.930 . S
C282 C281 1.362 . S
C282 C285 1.409 . S
C283 H275 0.930 . S
C283 C284 1.355 . S
C283 C285 1.415 . S
C284 C283 1.355 . S
C284 C286 1.419 . S
C285 C280 1.425 . S
C285 C282 1.409 . S
C285 C283 1.415 . S
C286 H276 0.930 . S
C286 C284 1.419 . S
C286 C287 1.362 . S
C287 H277 0.930 . S
C287 C280 1.409 . S
C287 C286 1.362 . S
H288 C294 0.930 . S
H289 C297 0.930 . S
H290 C298 0.930 . S
H291 C299 0.930 . S
H292 C302 0.930 . S
H293 C303 0.930 . S
C294 H288 0.930 . S
C294 C295 1.355 . S
C294 C296 1.415 . S
C295 C294 1.355 . S
C295 C297 1.419 . S
C296 C294 1.415 . S
C296 C301 1.425 . S
C296 C303 1.409 . S
C297 H289 0.930 . S
C297 C295 1.419 . S
C297 C298 1.362 . S
C298 H290 0.930 . S
C298 C297 1.362 . S
C298 C301 1.409 . S
C299 H291 0.930 . S
C299 C300 1.355 . S
C299 C301 1.415 . S
C300 C299 1.355 . S
C300 C302 1.419 . S
C301 C296 1.425 . S
C301 C298 1.409 . S
C301 C299 1.415 . S
C302 H292 0.930 . S
C302 C300 1.419 . S
C302 C303 1.362 . S
C303 H293 0.930 . S
C303 C296 1.409 . S
C303 C302 1.362 . S
H304 C310 0.930 . S
H305 C313 0.930 1_554 S
H306 C314 0.930 . S
H307 C315 0.930 . S
H308 C318 0.930 . S
H309 C319 0.930 . S
C310 H304 0.930 . S
C310 C311 1.355 . S
C310 C312 1.415 . S
C311 C310 1.355 . S
C311 C313 1.419 . S
C312 C310 1.415 . S
C312 C317 1.425 . S
C312 C319 1.409 . S
C313 H305 0.930 1_556 S
C313 C311 1.419 . S
C313 C314 1.362 . S
C314 H306 0.930 . S
C314 C313 1.362 . S
C314 C317 1.409 . S
C315 H307 0.930 . S
C315 C316 1.355 . S
C315 C317 1.415 . S
C316 C315 1.355 . S
C316 C318 1.419 . S
C317 C312 1.425 . S
C317 C314 1.409 . S
C317 C315 1.415 . S
C318 H308 0.930 . S
C318 C316 1.419 . S
C318 C319 1.362 . S
C319 H309 0.930 . S
C319 C312 1.409 . S
C319 C318 1.362 . S
H320 C326 0.930 . S
H321 C329 0.930 . S
H322 C330 0.930 . S
H323 C331 0.930 . S
H324 C334 0.930 . S
H325 C335 0.930 . S
C326 H320 0.930 . S
C326 C327 1.355 . S
C326 C328 1.415 . S
C327 C326 1.355 . S
C327 C329 1.419 . S
C328 C326 1.415 . S
C328 C333 1.425 . S
C328 C335 1.409 . S
C329 H321 0.930 . S
C329 C327 1.419 . S
C329 C330 1.362 . S
C330 H322 0.930 . S
C330 C329 1.362 . S
C330 C333 1.409 . S
C331 H323 0.930 . S
C331 C332 1.355 . S
C331 C333 1.415 . S
C332 C331 1.355 . S
C332 C334 1.419 . S
C333 C328 1.425 . S
C333 C330 1.409 . S
C333 C331 1.415 . S
C334 H324 0.930 . S
C334 C332 1.419 . S
C334 C335 1.362 . S
C335 H325 0.930 . S
C335 C328 1.409 . S
C335 C334 1.362 . S
H336 C342 0.930 . S
H337 C345 0.930 1_554 S
H338 C346 0.930 . S
H339 C347 0.930 . S
H340 C350 0.930 . S
H341 C351 0.930 . S
C342 H336 0.930 . S
C342 C343 1.355 . S
C342 C344 1.415 . S
C343 C342 1.355 . S
C343 C345 1.419 . S
C344 C342 1.415 . S
C344 C349 1.425 . S
C344 C351 1.409 . S
C345 H337 0.930 1_556 S
C345 C343 1.419 . S
C345 C346 1.362 . S
C346 H338 0.930 . S
C346 C345 1.362 . S
C346 C349 1.409 . S
C347 H339 0.930 . S
C347 C348 1.355 . S
C347 C349 1.415 . S
C348 C347 1.355 . S
C348 C350 1.419 . S
C349 C344 1.425 . S
C349 C346 1.409 . S
C349 C347 1.415 . S
C350 H340 0.930 . S
C350 C348 1.419 . S
C350 C351 1.362 . S
C351 H341 0.930 . S
C351 C344 1.409 . S
C351 C350 1.362 . S
H352 C358 0.930 . S
H353 C361 0.930 . S
H354 C362 0.930 . S
H355 C363 0.930 . S
H356 C366 0.930 . S
H357 C367 0.930 . S
C358 H352 0.930 . S
C358 C359 1.355 . S
C358 C360 1.415 . S
C359 C358 1.355 . S
C359 C361 1.419 . S
C360 C358 1.415 . S
C360 C365 1.425 . S
C360 C367 1.409 . S
C361 H353 0.930 . S
C361 C359 1.419 . S
C361 C362 1.362 . S
C362 H354 0.930 . S
C362 C361 1.362 . S
C362 C365 1.409 . S
C363 H355 0.930 . S
C363 C364 1.355 . S
C363 C365 1.415 . S
C364 C363 1.355 . S
C364 C366 1.419 . S
C365 C360 1.425 . S
C365 C362 1.409 . S
C365 C363 1.415 . S
C366 H356 0.930 . S
C366 C364 1.419 . S
C366 C367 1.362 . S
C367 H357 0.930 . S
C367 C360 1.409 . S
C367 C366 1.362 . S
H368 C374 0.930 . S
H369 C377 0.930 . S
H370 C378 0.930 . S
H371 C379 0.930 . S
H372 C382 0.930 . S
H373 C383 0.930 . S
C374 H368 0.930 . S
C374 C375 1.355 . S
C374 C376 1.415 . S
C375 C374 1.355 . S
C375 C377 1.419 . S
C376 C374 1.415 . S
C376 C381 1.425 . S
C376 C383 1.409 . S
C377 H369 0.930 . S
C377 C375 1.419 . S
C377 C378 1.362 . S
C378 H370 0.930 . S
C378 C377 1.362 . S
C378 C381 1.409 . S
C379 H371 0.930 . S
C379 C380 1.355 . S
C379 C381 1.415 . S
C380 C379 1.355 . S
C380 C382 1.419 . S
C381 C376 1.425 . S
C381 C378 1.409 . S
C381 C379 1.415 . S
C382 H372 0.930 . S
C382 C380 1.419 . S
C382 C383 1.362 . S
C383 H373 0.930 . S
C383 C376 1.409 . S
C383 C382 1.362 . S
H384 C390 0.930 . S
H385 C393 0.930 . S
H386 C394 0.930 . S
H387 C395 0.930 . S
H388 C398 0.930 . S
H389 C399 0.930 . S
C390 H384 0.930 . S
C390 C391 1.355 . S
C390 C392 1.415 . S
C391 C390 1.355 . S
C391 C393 1.419 . S
C392 C390 1.415 . S
C392 C397 1.425 . S
C392 C399 1.409 . S
C393 H385 0.930 . S
C393 C391 1.419 . S
C393 C394 1.362 . S
C394 H386 0.930 . S
C394 C393 1.362 . S
C394 C397 1.409 . S
C395 H387 0.930 . S
C395 C396 1.355 . S
C395 C397 1.415 . S
C396 C395 1.355 . S
C396 C398 1.419 . S
C397 C392 1.425 . S
C397 C394 1.409 . S
C397 C395 1.415 . S
C398 H388 0.930 . S
C398 C396 1.419 . S
C398 C399 1.362 . S
C399 H389 0.930 . S
C399 C392 1.409 . S
C399 C398 1.362 . S
H400 C406 0.930 . S
H401 C409 0.930 . S
H402 C410 0.930 . S
H403 C411 0.930 . S
H404 C414 0.930 . S
H405 C415 0.930 . S
C406 H400 0.930 . S
C406 C407 1.355 . S
C406 C408 1.415 . S
C407 C406 1.355 . S
C407 C409 1.419 . S
C408 C406 1.415 . S
C408 C413 1.425 . S
C408 C415 1.409 . S
C409 H401 0.930 . S
C409 C407 1.419 . S
C409 C410 1.362 . S
C410 H402 0.930 . S
C410 C409 1.362 . S
C410 C413 1.409 . S
C411 H403 0.930 . S
C411 C412 1.355 . S
C411 C413 1.415 . S
C412 C411 1.355 . S
C412 C414 1.419 . S
C413 C408 1.425 . S
C413 C410 1.409 . S
C413 C411 1.415 . S
C414 H404 0.930 . S
C414 C412 1.419 . S
C414 C415 1.362 . S
C415 H405 0.930 . S
C415 C408 1.409 . S
C415 C414 1.362 . S
H416 C422 0.930 . S
H417 C425 0.930 . S
H418 C426 0.930 . S
H419 C427 0.930 . S
H420 C430 0.930 . S
H421 C431 0.930 . S
C422 H416 0.930 . S
C422 C423 1.355 . S
C422 C424 1.415 . S
C423 C422 1.355 . S
C423 C425 1.419 . S
C424 C422 1.415 . S
C424 C429 1.425 . S
C424 C431 1.409 . S
C425 H417 0.930 . S
C425 C423 1.419 . S
C425 C426 1.362 . S
C426 H418 0.930 . S
C426 C425 1.362 . S
C426 C429 1.409 . S
C427 H419 0.930 . S
C427 C428 1.355 . S
C427 C429 1.415 . S
C428 C427 1.355 . S
C428 C430 1.419 . S
C429 C424 1.425 . S
C429 C426 1.409 . S
C429 C427 1.415 . S
C430 H420 0.930 . S
C430 C428 1.419 . S
C430 C431 1.362 . S
C431 H421 0.930 . S
C431 C424 1.409 . S
C431 C430 1.362 . S
H432 C438 0.930 . S
H433 C441 0.930 . S
H434 C442 0.930 . S
H435 C443 0.930 . S
H436 C446 0.930 . S
H437 C447 0.930 . S
C438 H432 0.930 . S
C438 C439 1.355 . S
C438 C440 1.415 . S
C439 C438 1.355 . S
C439 C441 1.419 . S
C440 C438 1.415 . S
C440 C445 1.425 . S
C440 C447 1.409 . S
C441 H433 0.930 . S
C441 C439 1.419 . S
C441 C442 1.362 . S
C442 H434 0.930 . S
C442 C441 1.362 . S
C442 C445 1.409 . S
C443 H435 0.930 . S
C443 C444 1.355 . S
C443 C445 1.415 . S
C444 C443 1.355 . S
C444 C446 1.419 . S
C445 C440 1.425 . S
C445 C442 1.409 . S
C445 C443 1.415 . S
C446 H436 0.930 . S
C446 C444 1.419 . S
C446 C447 1.362 . S
C447 H437 0.930 . S
C447 C440 1.409 . S
C447 C446 1.362 . S
H448 C454 0.930 . S
H449 C457 0.930 . S
H450 C458 0.930 . S
H451 C459 0.930 . S
H452 C462 0.930 . S
H453 C463 0.930 . S
C454 H448 0.930 . S
C454 C455 1.355 . S
C454 C456 1.415 . S
C455 C454 1.355 . S
C455 C457 1.419 . S
C456 C454 1.415 . S
C456 C461 1.425 . S
C456 C463 1.409 . S
C457 H449 0.930 . S
C457 C455 1.419 . S
C457 C458 1.362 . S
C458 H450 0.930 . S
C458 C457 1.362 . S
C458 C461 1.409 . S
C459 H451 0.930 . S
C459 C460 1.355 . S
C459 C461 1.415 . S
C460 C459 1.355 . S
C460 C462 1.419 . S
C461 C456 1.425 . S
C461 C458 1.409 . S
C461 C459 1.415 . S
C462 H452 0.930 . S
C462 C460 1.419 . S
C462 C463 1.362 . S
C463 H453 0.930 . S
C463 C456 1.409 . S
C463 C462 1.362 . S
H464 C470 0.930 . S
H465 C473 0.930 . S
H466 C474 0.930 . S
H467 C475 0.930 . S
H468 C478 0.930 . S
H469 C479 0.930 . S
C470 H464 0.930 . S
C470 C471 1.355 . S
C470 C472 1.415 . S
C471 C470 1.355 . S
C471 C473 1.419 . S
C472 C470 1.415 . S
C472 C477 1.425 . S
C472 C479 1.409 . S
C473 H465 0.930 . S
C473 C471 1.419 . S
C473 C474 1.362 . S
C474 H466 0.930 . S
C474 C473 1.362 . S
C474 C477 1.409 . S
C475 H467 0.930 . S
C475 C476 1.355 . S
C475 C477 1.415 . S
C476 C475 1.355 . S
C476 C478 1.419 . S
C477 C472 1.425 . S
C477 C474 1.409 . S
C477 C475 1.415 . S
C478 H468 0.930 . S
C478 C476 1.419 . S
C478 C479 1.362 . S
C479 H469 0.930 . S
C479 C472 1.409 . S
C479 C478 1.362 . S
H480 C486 0.930 . S
H481 C489 0.930 . S
H482 C490 0.930 . S
H483 C491 0.930 . S
H484 C494 0.930 . S
H485 C495 0.930 . S
C486 H480 0.930 . S
C486 C487 1.355 . S
C486 C488 1.415 . S
C487 C486 1.355 . S
C487 C489 1.419 . S
C488 C486 1.415 . S
C488 C493 1.425 . S
C488 C495 1.409 . S
C489 H481 0.930 . S
C489 C487 1.419 . S
C489 C490 1.362 . S
C490 H482 0.930 . S
C490 C489 1.362 . S
C490 C493 1.409 . S
C491 H483 0.930 . S
C491 C492 1.355 . S
C491 C493 1.415 . S
C492 C491 1.355 . S
C492 C494 1.419 . S
C493 C488 1.425 . S
C493 C490 1.409 . S
C493 C491 1.415 . S
C494 H484 0.930 . S
C494 C492 1.419 . S
C494 C495 1.362 . S
C495 H485 0.930 . S
C495 C488 1.409 . S
C495 C494 1.362 . S
H496 C502 0.930 . S
H497 C505 0.948 . S
H498 C506 0.930 . S
H499 C507 0.930 . S
H500 C510 0.930 . S
H501 C511 0.930 . S
C502 H496 0.930 . S
C502 C503 1.355 . S
C502 C504 1.415 . S
C503 C502 1.355 . S
C503 C505 1.419 . S
C504 C502 1.415 . S
C504 C509 1.425 . S
C504 C511 1.409 . S
C505 H497 0.948 . S
C505 C503 1.419 . S
C505 C506 1.362 . S
C506 H498 0.930 . S
C506 C505 1.362 . S
C506 C509 1.409 . S
C507 H499 0.930 . S
C507 C508 1.355 . S
C507 C509 1.415 . S
C508 C507 1.355 . S
C508 C510 1.419 . S
C509 C504 1.425 . S
C509 C506 1.409 . S
C509 C507 1.415 . S
C510 H500 0.930 . S
C510 C508 1.419 . S
C510 C511 1.362 . S
C511 H501 0.930 . S
C511 C504 1.409 . S
C511 C510 1.362 . S
H512 C518 0.930 . S
H513 C521 0.930 . S
H514 C522 0.930 . S
H515 C523 0.930 . S
H516 C526 0.930 . S
H517 C527 0.930 . S
C518 H512 0.930 . S
C518 C519 1.355 . S
C518 C520 1.415 . S
C519 C518 1.355 . S
C519 C521 1.419 . S
C520 C518 1.415 . S
C520 C525 1.425 . S
C520 C527 1.409 . S
C521 H513 0.930 . S
C521 C519 1.419 . S
C521 C522 1.362 . S
C522 H514 0.930 . S
C522 C521 1.362 . S
C522 C525 1.409 . S
C523 H515 0.930 . S
C523 C524 1.355 . S
C523 C525 1.415 . S
C524 C523 1.355 . S
C524 C526 1.419 . S
C525 C520 1.425 . S
C525 C522 1.409 . S
C525 C523 1.415 . S
C526 H516 0.930 . S
C526 C524 1.419 . S
C526 C527 1.362 . S
C527 H517 0.930 . S
C527 C520 1.409 . S
C527 C526 1.362 . S
H528 C534 0.930 . S
H529 C537 0.930 . S
H530 C538 0.930 . S
H531 C539 0.930 . S
H532 C542 0.930 . S
H533 C543 0.930 . S
C534 H528 0.930 . S
C534 C535 1.355 . S
C534 C536 1.415 . S
C535 C534 1.355 . S
C535 C537 1.419 . S
C536 C534 1.415 . S
C536 C541 1.425 . S
C536 C543 1.409 . S
C537 H529 0.930 . S
C537 C535 1.419 . S
C537 C538 1.362 . S
C538 H530 0.930 . S
C538 C537 1.362 . S
C538 C541 1.409 . S
C539 H531 0.930 . S
C539 C540 1.355 . S
C539 C541 1.415 . S
C540 C539 1.355 . S
C540 C542 1.419 . S
C541 C536 1.425 . S
C541 C538 1.409 . S
C541 C539 1.415 . S
C542 H532 0.930 . S
C542 C540 1.419 . S
C542 C543 1.362 . S
C543 H533 0.930 . S
C543 C536 1.409 . S
C543 C542 1.362 . S
H544 C550 0.930 . S
H545 C553 0.930 . S
H546 C554 0.930 . S
H547 C555 0.930 . S
H548 C558 0.930 . S
H549 C559 0.930 . S
C550 H544 0.930 . S
C550 C551 1.355 . S
C550 C552 1.415 . S
C551 C550 1.355 . S
C551 C553 1.419 . S
C552 C550 1.415 . S
C552 C557 1.425 . S
C552 C559 1.409 . S
C553 H545 0.930 . S
C553 C551 1.419 . S
C553 C554 1.362 . S
C554 H546 0.930 . S
C554 C553 1.362 . S
C554 C557 1.409 . S
C555 H547 0.930 . S
C555 C556 1.355 . S
C555 C557 1.415 . S
C556 C555 1.355 . S
C556 C558 1.419 . S
C557 C552 1.425 . S
C557 C554 1.409 . S
C557 C555 1.415 . S
C558 H548 0.930 . S
C558 C556 1.419 . S
C558 C559 1.362 . S
C559 H549 0.930 . S
C559 C552 1.409 . S
C559 C558 1.362 . S
H560 C566 0.930 . S
H561 C569 0.930 . S
H562 C570 0.930 . S
H563 C571 0.930 . S
H564 C574 0.930 . S
H565 C575 0.930 . S
C566 H560 0.930 . S
C566 C567 1.355 . S
C566 C568 1.415 . S
C567 C566 1.355 . S
C567 C569 1.419 . S
C568 C566 1.415 . S
C568 C573 1.425 . S
C568 C575 1.409 . S
C569 H561 0.930 . S
C569 C567 1.419 . S
C569 C570 1.362 . S
C570 H562 0.930 . S
C570 C569 1.362 . S
C570 C573 1.409 . S
C571 H563 0.930 . S
C571 C572 1.355 . S
C571 C573 1.415 . S
C572 C571 1.355 . S
C572 C574 1.419 . S
C573 C568 1.425 . S
C573 C570 1.409 . S
C573 C571 1.415 . S
C574 H564 0.930 . S
C574 C572 1.419 . S
C574 C575 1.362 . S
C575 H565 0.930 . S
C575 C568 1.409 . S
C575 C574 1.362 . S
C199 C13 1.571 . S
C204 C98 1.497 . S
C215 C27 1.575 . S
C220 C109 1.501 . S
C236 C128 1.526 . S
C231 C29 1.589 . S
C252 C145 1.486 . S
C247 C54 1.574 . S
C268 C172 1.550 . S
C263 C69 1.585 . S
C284 C181 1.479 . S
C279 C83 1.579 . S
C295 C15 1.573 . S
C300 C134 1.488 . S
C311 C41 1.584 . S
C316 C154 1.487 . S
C332 C163 1.470 . S
C327 C42 1.573 . S
C348 C190 1.486 . S
C343 C57 1.582 . S
C359 C71 1.569 . S
C364 C92 1.495 . S
C380 C118 1.519 . S
C375 C1 1.591 . S
C396 C146 1.527 . S
C391 C12 1.629 . S
C407 C26 1.665 . S
C412 C170 1.581 . S
C428 C182 1.526 . S
C423 C28 1.625 . S
C439 C55 1.661 . S
C444 C100 1.581 . S
C455 C68 1.656 . S
C460 C110 1.573 . S
C471 C82 1.638 . S
C476 C127 1.530 . S
C487 C14 1.660 . S
C492 C188 1.577 . S
C508 C91 1.498 . S
C503 C40 1.636 . S
C519 C43 1.635 . S
C524 C116 1.533 . S
C535 C56 1.639 . S
C540 C136 1.541 . S
C551 C70 1.638 . S
C556 C152 1.575 . S
C567 C0 1.634 . S
C572 C164 1.517 . S
